# Generated by pormake.
# Topology wse, (4)-cn, num edge types: 1
# Building blocks:
#     Node 0, Type 0, BuildingBlock: CEKHIL_clean_sbu_0, # of connection points: 4
#     Node 1, Type 0, BuildingBlock: CEKHIL_clean_sbu_0, # of connection points: 4
#     Node 2, Type 0, BuildingBlock: CEKHIL_clean_sbu_0, # of connection points: 4
#     Node 3, Type 0, BuildingBlock: CEKHIL_clean_sbu_0, # of connection points: 4
#     Node 4, Type 0, BuildingBlock: CEKHIL_clean_sbu_0, # of connection points: 4
#     Node 5, Type 0, BuildingBlock: CEKHIL_clean_sbu_0, # of connection points: 4
#     Node 6, Type 0, BuildingBlock: CEKHIL_clean_sbu_0, # of connection points: 4
#     Node 7, Type 0, BuildingBlock: CEKHIL_clean_sbu_0, # of connection points: 4
#     Node 8, Type 0, BuildingBlock: CEKHIL_clean_sbu_0, # of connection points: 4
#     Node 9, Type 0, BuildingBlock: CEKHIL_clean_sbu_0, # of connection points: 4
#     Node 10, Type 0, BuildingBlock: CEKHIL_clean_sbu_0, # of connection points: 4
#     Node 11, Type 0, BuildingBlock: CEKHIL_clean_sbu_0, # of connection points: 4
#     Node 12, Type 0, BuildingBlock: CEKHIL_clean_sbu_0, # of connection points: 4
#     Node 13, Type 0, BuildingBlock: CEKHIL_clean_sbu_0, # of connection points: 4
#     Node 14, Type 0, BuildingBlock: CEKHIL_clean_sbu_0, # of connection points: 4
#     Node 15, Type 0, BuildingBlock: CEKHIL_clean_sbu_0, # of connection points: 4
#     Node 16, Type 0, BuildingBlock: CEKHIL_clean_sbu_0, # of connection points: 4
#     Node 17, Type 0, BuildingBlock: CEKHIL_clean_sbu_0, # of connection points: 4
#     Node 18, Type 0, BuildingBlock: CEKHIL_clean_sbu_0, # of connection points: 4
#     Node 19, Type 0, BuildingBlock: CEKHIL_clean_sbu_0, # of connection points: 4
#     Node 20, Type 0, BuildingBlock: CEKHIL_clean_sbu_0, # of connection points: 4
#     Node 21, Type 0, BuildingBlock: CEKHIL_clean_sbu_0, # of connection points: 4
#     Node 22, Type 0, BuildingBlock: CEKHIL_clean_sbu_0, # of connection points: 4
#     Node 23, Type 0, BuildingBlock: CEKHIL_clean_sbu_0, # of connection points: 4
#     Node 24, Type 0, BuildingBlock: CEKHIL_clean_sbu_0, # of connection points: 4
#     Node 25, Type 0, BuildingBlock: CEKHIL_clean_sbu_0, # of connection points: 4
#     Node 26, Type 0, BuildingBlock: CEKHIL_clean_sbu_0, # of connection points: 4
#     Node 27, Type 0, BuildingBlock: CEKHIL_clean_sbu_0, # of connection points: 4
#     Node 28, Type 0, BuildingBlock: CEKHIL_clean_sbu_0, # of connection points: 4
#     Node 29, Type 0, BuildingBlock: CEKHIL_clean_sbu_0, # of connection points: 4
#     Node 30, Type 0, BuildingBlock: CEKHIL_clean_sbu_0, # of connection points: 4
#     Node 31, Type 0, BuildingBlock: CEKHIL_clean_sbu_0, # of connection points: 4
#     Node 32, Type 0, BuildingBlock: CEKHIL_clean_sbu_0, # of connection points: 4
#     Node 33, Type 0, BuildingBlock: CEKHIL_clean_sbu_0, # of connection points: 4
#     Node 34, Type 0, BuildingBlock: CEKHIL_clean_sbu_0, # of connection points: 4
#     Node 35, Type 0, BuildingBlock: CEKHIL_clean_sbu_0, # of connection points: 4
#     Node 36, Type 0, BuildingBlock: CEKHIL_clean_sbu_0, # of connection points: 4
#     Node 37, Type 0, BuildingBlock: CEKHIL_clean_sbu_0, # of connection points: 4
#     Node 38, Type 0, BuildingBlock: CEKHIL_clean_sbu_0, # of connection points: 4
#     Node 39, Type 0, BuildingBlock: CEKHIL_clean_sbu_0, # of connection points: 4
#     Node 40, Type 0, BuildingBlock: CEKHIL_clean_sbu_0, # of connection points: 4
#     Node 41, Type 0, BuildingBlock: CEKHIL_clean_sbu_0, # of connection points: 4
#     Node 42, Type 0, BuildingBlock: CEKHIL_clean_sbu_0, # of connection points: 4
#     Node 43, Type 0, BuildingBlock: CEKHIL_clean_sbu_0, # of connection points: 4
#     Node 44, Type 0, BuildingBlock: CEKHIL_clean_sbu_0, # of connection points: 4
#     Node 45, Type 0, BuildingBlock: CEKHIL_clean_sbu_0, # of connection points: 4
#     Node 46, Type 0, BuildingBlock: CEKHIL_clean_sbu_0, # of connection points: 4
#     Node 47, Type 0, BuildingBlock: CEKHIL_clean_sbu_0, # of connection points: 4
#     Node 48, Type 0, BuildingBlock: CEKHIL_clean_sbu_0, # of connection points: 4
#     Node 49, Type 0, BuildingBlock: CEKHIL_clean_sbu_0, # of connection points: 4
#     Node 50, Type 0, BuildingBlock: CEKHIL_clean_sbu_0, # of connection points: 4
#     Node 51, Type 0, BuildingBlock: CEKHIL_clean_sbu_0, # of connection points: 4
#     Node 52, Type 0, BuildingBlock: CEKHIL_clean_sbu_0, # of connection points: 4
#     Node 53, Type 0, BuildingBlock: CEKHIL_clean_sbu_0, # of connection points: 4
#     Node 54, Type 0, BuildingBlock: CEKHIL_clean_sbu_0, # of connection points: 4
#     Node 55, Type 0, BuildingBlock: CEKHIL_clean_sbu_0, # of connection points: 4
#     Node 56, Type 0, BuildingBlock: CEKHIL_clean_sbu_0, # of connection points: 4
#     Node 57, Type 0, BuildingBlock: CEKHIL_clean_sbu_0, # of connection points: 4
#     Node 58, Type 0, BuildingBlock: CEKHIL_clean_sbu_0, # of connection points: 4
#     Node 59, Type 0, BuildingBlock: CEKHIL_clean_sbu_0, # of connection points: 4
#     Node 60, Type 0, BuildingBlock: CEKHIL_clean_sbu_0, # of connection points: 4
#     Node 61, Type 0, BuildingBlock: CEKHIL_clean_sbu_0, # of connection points: 4
#     Node 62, Type 0, BuildingBlock: CEKHIL_clean_sbu_0, # of connection points: 4
#     Node 63, Type 0, BuildingBlock: CEKHIL_clean_sbu_0, # of connection points: 4
#     Node 64, Type 0, BuildingBlock: CEKHIL_clean_sbu_0, # of connection points: 4
#     Node 65, Type 0, BuildingBlock: CEKHIL_clean_sbu_0, # of connection points: 4
#     Node 66, Type 0, BuildingBlock: CEKHIL_clean_sbu_0, # of connection points: 4
#     Node 67, Type 0, BuildingBlock: CEKHIL_clean_sbu_0, # of connection points: 4
#     Node 68, Type 0, BuildingBlock: CEKHIL_clean_sbu_0, # of connection points: 4
#     Node 69, Type 0, BuildingBlock: CEKHIL_clean_sbu_0, # of connection points: 4
#     Node 70, Type 0, BuildingBlock: CEKHIL_clean_sbu_0, # of connection points: 4
#     Node 71, Type 0, BuildingBlock: CEKHIL_clean_sbu_0, # of connection points: 4
#     Node 72, Type 0, BuildingBlock: CEKHIL_clean_sbu_0, # of connection points: 4
#     Node 73, Type 0, BuildingBlock: CEKHIL_clean_sbu_0, # of connection points: 4
#     Node 74, Type 0, BuildingBlock: CEKHIL_clean_sbu_0, # of connection points: 4
#     Node 75, Type 0, BuildingBlock: CEKHIL_clean_sbu_0, # of connection points: 4
#     Node 76, Type 0, BuildingBlock: CEKHIL_clean_sbu_0, # of connection points: 4
#     Node 77, Type 0, BuildingBlock: CEKHIL_clean_sbu_0, # of connection points: 4
#     Node 78, Type 0, BuildingBlock: CEKHIL_clean_sbu_0, # of connection points: 4
#     Node 79, Type 0, BuildingBlock: CEKHIL_clean_sbu_0, # of connection points: 4
#     Node 80, Type 0, BuildingBlock: CEKHIL_clean_sbu_0, # of connection points: 4
#     Node 81, Type 0, BuildingBlock: CEKHIL_clean_sbu_0, # of connection points: 4
#     Node 82, Type 0, BuildingBlock: CEKHIL_clean_sbu_0, # of connection points: 4
#     Node 83, Type 0, BuildingBlock: CEKHIL_clean_sbu_0, # of connection points: 4
#     Node 84, Type 0, BuildingBlock: CEKHIL_clean_sbu_0, # of connection points: 4
#     Node 85, Type 0, BuildingBlock: CEKHIL_clean_sbu_0, # of connection points: 4
#     Node 86, Type 0, BuildingBlock: CEKHIL_clean_sbu_0, # of connection points: 4
#     Node 87, Type 0, BuildingBlock: CEKHIL_clean_sbu_0, # of connection points: 4
#     Node 88, Type 0, BuildingBlock: CEKHIL_clean_sbu_0, # of connection points: 4
#     Node 89, Type 0, BuildingBlock: CEKHIL_clean_sbu_0, # of connection points: 4
#     Node 90, Type 0, BuildingBlock: CEKHIL_clean_sbu_0, # of connection points: 4
#     Node 91, Type 0, BuildingBlock: CEKHIL_clean_sbu_0, # of connection points: 4
#     Node 92, Type 0, BuildingBlock: CEKHIL_clean_sbu_0, # of connection points: 4
#     Node 93, Type 0, BuildingBlock: CEKHIL_clean_sbu_0, # of connection points: 4
#     Node 94, Type 0, BuildingBlock: CEKHIL_clean_sbu_0, # of connection points: 4
#     Node 95, Type 0, BuildingBlock: CEKHIL_clean_sbu_0, # of connection points: 4
#     Edge 96, Type (0, 0), BuildingBlock: CIFDUS_clean_linker_0, # of connection points: 2
#     Edge 97, Type (0, 0), BuildingBlock: CIFDUS_clean_linker_0, # of connection points: 2
#     Edge 98, Type (0, 0), BuildingBlock: CIFDUS_clean_linker_0, # of connection points: 2
#     Edge 99, Type (0, 0), BuildingBlock: CIFDUS_clean_linker_0, # of connection points: 2
#     Edge 100, Type (0, 0), BuildingBlock: CIFDUS_clean_linker_0, # of connection points: 2
#     Edge 101, Type (0, 0), BuildingBlock: CIFDUS_clean_linker_0, # of connection points: 2
#     Edge 102, Type (0, 0), BuildingBlock: CIFDUS_clean_linker_0, # of connection points: 2
#     Edge 103, Type (0, 0), BuildingBlock: CIFDUS_clean_linker_0, # of connection points: 2
#     Edge 104, Type (0, 0), BuildingBlock: CIFDUS_clean_linker_0, # of connection points: 2
#     Edge 105, Type (0, 0), BuildingBlock: CIFDUS_clean_linker_0, # of connection points: 2
#     Edge 106, Type (0, 0), BuildingBlock: CIFDUS_clean_linker_0, # of connection points: 2
#     Edge 107, Type (0, 0), BuildingBlock: CIFDUS_clean_linker_0, # of connection points: 2
#     Edge 108, Type (0, 0), BuildingBlock: CIFDUS_clean_linker_0, # of connection points: 2
#     Edge 109, Type (0, 0), BuildingBlock: CIFDUS_clean_linker_0, # of connection points: 2
#     Edge 110, Type (0, 0), BuildingBlock: CIFDUS_clean_linker_0, # of connection points: 2
#     Edge 111, Type (0, 0), BuildingBlock: CIFDUS_clean_linker_0, # of connection points: 2
#     Edge 112, Type (0, 0), BuildingBlock: CIFDUS_clean_linker_0, # of connection points: 2
#     Edge 113, Type (0, 0), BuildingBlock: CIFDUS_clean_linker_0, # of connection points: 2
#     Edge 114, Type (0, 0), BuildingBlock: CIFDUS_clean_linker_0, # of connection points: 2
#     Edge 115, Type (0, 0), BuildingBlock: CIFDUS_clean_linker_0, # of connection points: 2
#     Edge 116, Type (0, 0), BuildingBlock: CIFDUS_clean_linker_0, # of connection points: 2
#     Edge 117, Type (0, 0), BuildingBlock: CIFDUS_clean_linker_0, # of connection points: 2
#     Edge 118, Type (0, 0), BuildingBlock: CIFDUS_clean_linker_0, # of connection points: 2
#     Edge 119, Type (0, 0), BuildingBlock: CIFDUS_clean_linker_0, # of connection points: 2
#     Edge 120, Type (0, 0), BuildingBlock: CIFDUS_clean_linker_0, # of connection points: 2
#     Edge 121, Type (0, 0), BuildingBlock: CIFDUS_clean_linker_0, # of connection points: 2
#     Edge 122, Type (0, 0), BuildingBlock: CIFDUS_clean_linker_0, # of connection points: 2
#     Edge 123, Type (0, 0), BuildingBlock: CIFDUS_clean_linker_0, # of connection points: 2
#     Edge 124, Type (0, 0), BuildingBlock: CIFDUS_clean_linker_0, # of connection points: 2
#     Edge 125, Type (0, 0), BuildingBlock: CIFDUS_clean_linker_0, # of connection points: 2
#     Edge 126, Type (0, 0), BuildingBlock: CIFDUS_clean_linker_0, # of connection points: 2
#     Edge 127, Type (0, 0), BuildingBlock: CIFDUS_clean_linker_0, # of connection points: 2
#     Edge 128, Type (0, 0), BuildingBlock: CIFDUS_clean_linker_0, # of connection points: 2
#     Edge 129, Type (0, 0), BuildingBlock: CIFDUS_clean_linker_0, # of connection points: 2
#     Edge 130, Type (0, 0), BuildingBlock: CIFDUS_clean_linker_0, # of connection points: 2
#     Edge 131, Type (0, 0), BuildingBlock: CIFDUS_clean_linker_0, # of connection points: 2
#     Edge 132, Type (0, 0), BuildingBlock: CIFDUS_clean_linker_0, # of connection points: 2
#     Edge 133, Type (0, 0), BuildingBlock: CIFDUS_clean_linker_0, # of connection points: 2
#     Edge 134, Type (0, 0), BuildingBlock: CIFDUS_clean_linker_0, # of connection points: 2
#     Edge 135, Type (0, 0), BuildingBlock: CIFDUS_clean_linker_0, # of connection points: 2
#     Edge 136, Type (0, 0), BuildingBlock: CIFDUS_clean_linker_0, # of connection points: 2
#     Edge 137, Type (0, 0), BuildingBlock: CIFDUS_clean_linker_0, # of connection points: 2
#     Edge 138, Type (0, 0), BuildingBlock: CIFDUS_clean_linker_0, # of connection points: 2
#     Edge 139, Type (0, 0), BuildingBlock: CIFDUS_clean_linker_0, # of connection points: 2
#     Edge 140, Type (0, 0), BuildingBlock: CIFDUS_clean_linker_0, # of connection points: 2
#     Edge 141, Type (0, 0), BuildingBlock: CIFDUS_clean_linker_0, # of connection points: 2
#     Edge 142, Type (0, 0), BuildingBlock: CIFDUS_clean_linker_0, # of connection points: 2
#     Edge 143, Type (0, 0), BuildingBlock: CIFDUS_clean_linker_0, # of connection points: 2
#     Edge 144, Type (0, 0), BuildingBlock: CIFDUS_clean_linker_0, # of connection points: 2
#     Edge 145, Type (0, 0), BuildingBlock: CIFDUS_clean_linker_0, # of connection points: 2
#     Edge 146, Type (0, 0), BuildingBlock: CIFDUS_clean_linker_0, # of connection points: 2
#     Edge 147, Type (0, 0), BuildingBlock: CIFDUS_clean_linker_0, # of connection points: 2
#     Edge 148, Type (0, 0), BuildingBlock: CIFDUS_clean_linker_0, # of connection points: 2
#     Edge 149, Type (0, 0), BuildingBlock: CIFDUS_clean_linker_0, # of connection points: 2
#     Edge 150, Type (0, 0), BuildingBlock: CIFDUS_clean_linker_0, # of connection points: 2
#     Edge 151, Type (0, 0), BuildingBlock: CIFDUS_clean_linker_0, # of connection points: 2
#     Edge 152, Type (0, 0), BuildingBlock: CIFDUS_clean_linker_0, # of connection points: 2
#     Edge 153, Type (0, 0), BuildingBlock: CIFDUS_clean_linker_0, # of connection points: 2
#     Edge 154, Type (0, 0), BuildingBlock: CIFDUS_clean_linker_0, # of connection points: 2
#     Edge 155, Type (0, 0), BuildingBlock: CIFDUS_clean_linker_0, # of connection points: 2
#     Edge 156, Type (0, 0), BuildingBlock: CIFDUS_clean_linker_0, # of connection points: 2
#     Edge 157, Type (0, 0), BuildingBlock: CIFDUS_clean_linker_0, # of connection points: 2
#     Edge 158, Type (0, 0), BuildingBlock: CIFDUS_clean_linker_0, # of connection points: 2
#     Edge 159, Type (0, 0), BuildingBlock: CIFDUS_clean_linker_0, # of connection points: 2
#     Edge 160, Type (0, 0), BuildingBlock: CIFDUS_clean_linker_0, # of connection points: 2
#     Edge 161, Type (0, 0), BuildingBlock: CIFDUS_clean_linker_0, # of connection points: 2
#     Edge 162, Type (0, 0), BuildingBlock: CIFDUS_clean_linker_0, # of connection points: 2
#     Edge 163, Type (0, 0), BuildingBlock: CIFDUS_clean_linker_0, # of connection points: 2
#     Edge 164, Type (0, 0), BuildingBlock: CIFDUS_clean_linker_0, # of connection points: 2
#     Edge 165, Type (0, 0), BuildingBlock: CIFDUS_clean_linker_0, # of connection points: 2
#     Edge 166, Type (0, 0), BuildingBlock: CIFDUS_clean_linker_0, # of connection points: 2
#     Edge 167, Type (0, 0), BuildingBlock: CIFDUS_clean_linker_0, # of connection points: 2
#     Edge 168, Type (0, 0), BuildingBlock: CIFDUS_clean_linker_0, # of connection points: 2
#     Edge 169, Type (0, 0), BuildingBlock: CIFDUS_clean_linker_0, # of connection points: 2
#     Edge 170, Type (0, 0), BuildingBlock: CIFDUS_clean_linker_0, # of connection points: 2
#     Edge 171, Type (0, 0), BuildingBlock: CIFDUS_clean_linker_0, # of connection points: 2
#     Edge 172, Type (0, 0), BuildingBlock: CIFDUS_clean_linker_0, # of connection points: 2
#     Edge 173, Type (0, 0), BuildingBlock: CIFDUS_clean_linker_0, # of connection points: 2
#     Edge 174, Type (0, 0), BuildingBlock: CIFDUS_clean_linker_0, # of connection points: 2
#     Edge 175, Type (0, 0), BuildingBlock: CIFDUS_clean_linker_0, # of connection points: 2
#     Edge 176, Type (0, 0), BuildingBlock: CIFDUS_clean_linker_0, # of connection points: 2
#     Edge 177, Type (0, 0), BuildingBlock: CIFDUS_clean_linker_0, # of connection points: 2
#     Edge 178, Type (0, 0), BuildingBlock: CIFDUS_clean_linker_0, # of connection points: 2
#     Edge 179, Type (0, 0), BuildingBlock: CIFDUS_clean_linker_0, # of connection points: 2
#     Edge 180, Type (0, 0), BuildingBlock: CIFDUS_clean_linker_0, # of connection points: 2
#     Edge 181, Type (0, 0), BuildingBlock: CIFDUS_clean_linker_0, # of connection points: 2
#     Edge 182, Type (0, 0), BuildingBlock: CIFDUS_clean_linker_0, # of connection points: 2
#     Edge 183, Type (0, 0), BuildingBlock: CIFDUS_clean_linker_0, # of connection points: 2
#     Edge 184, Type (0, 0), BuildingBlock: CIFDUS_clean_linker_0, # of connection points: 2
#     Edge 185, Type (0, 0), BuildingBlock: CIFDUS_clean_linker_0, # of connection points: 2
#     Edge 186, Type (0, 0), BuildingBlock: CIFDUS_clean_linker_0, # of connection points: 2
#     Edge 187, Type (0, 0), BuildingBlock: CIFDUS_clean_linker_0, # of connection points: 2
#     Edge 188, Type (0, 0), BuildingBlock: CIFDUS_clean_linker_0, # of connection points: 2
#     Edge 189, Type (0, 0), BuildingBlock: CIFDUS_clean_linker_0, # of connection points: 2
#     Edge 190, Type (0, 0), BuildingBlock: CIFDUS_clean_linker_0, # of connection points: 2
#     Edge 191, Type (0, 0), BuildingBlock: CIFDUS_clean_linker_0, # of connection points: 2
#     Edge 192, Type (0, 0), BuildingBlock: CIFDUS_clean_linker_0, # of connection points: 2
#     Edge 193, Type (0, 0), BuildingBlock: CIFDUS_clean_linker_0, # of connection points: 2
#     Edge 194, Type (0, 0), BuildingBlock: CIFDUS_clean_linker_0, # of connection points: 2
#     Edge 195, Type (0, 0), BuildingBlock: CIFDUS_clean_linker_0, # of connection points: 2
#     Edge 196, Type (0, 0), BuildingBlock: CIFDUS_clean_linker_0, # of connection points: 2
#     Edge 197, Type (0, 0), BuildingBlock: CIFDUS_clean_linker_0, # of connection points: 2
#     Edge 198, Type (0, 0), BuildingBlock: CIFDUS_clean_linker_0, # of connection points: 2
#     Edge 199, Type (0, 0), BuildingBlock: CIFDUS_clean_linker_0, # of connection points: 2
#     Edge 200, Type (0, 0), BuildingBlock: CIFDUS_clean_linker_0, # of connection points: 2
#     Edge 201, Type (0, 0), BuildingBlock: CIFDUS_clean_linker_0, # of connection points: 2
#     Edge 202, Type (0, 0), BuildingBlock: CIFDUS_clean_linker_0, # of connection points: 2
#     Edge 203, Type (0, 0), BuildingBlock: CIFDUS_clean_linker_0, # of connection points: 2
#     Edge 204, Type (0, 0), BuildingBlock: CIFDUS_clean_linker_0, # of connection points: 2
#     Edge 205, Type (0, 0), BuildingBlock: CIFDUS_clean_linker_0, # of connection points: 2
#     Edge 206, Type (0, 0), BuildingBlock: CIFDUS_clean_linker_0, # of connection points: 2
#     Edge 207, Type (0, 0), BuildingBlock: CIFDUS_clean_linker_0, # of connection points: 2
#     Edge 208, Type (0, 0), BuildingBlock: CIFDUS_clean_linker_0, # of connection points: 2
#     Edge 209, Type (0, 0), BuildingBlock: CIFDUS_clean_linker_0, # of connection points: 2
#     Edge 210, Type (0, 0), BuildingBlock: CIFDUS_clean_linker_0, # of connection points: 2
#     Edge 211, Type (0, 0), BuildingBlock: CIFDUS_clean_linker_0, # of connection points: 2
#     Edge 212, Type (0, 0), BuildingBlock: CIFDUS_clean_linker_0, # of connection points: 2
#     Edge 213, Type (0, 0), BuildingBlock: CIFDUS_clean_linker_0, # of connection points: 2
#     Edge 214, Type (0, 0), BuildingBlock: CIFDUS_clean_linker_0, # of connection points: 2
#     Edge 215, Type (0, 0), BuildingBlock: CIFDUS_clean_linker_0, # of connection points: 2
#     Edge 216, Type (0, 0), BuildingBlock: CIFDUS_clean_linker_0, # of connection points: 2
#     Edge 217, Type (0, 0), BuildingBlock: CIFDUS_clean_linker_0, # of connection points: 2
#     Edge 218, Type (0, 0), BuildingBlock: CIFDUS_clean_linker_0, # of connection points: 2
#     Edge 219, Type (0, 0), BuildingBlock: CIFDUS_clean_linker_0, # of connection points: 2
#     Edge 220, Type (0, 0), BuildingBlock: CIFDUS_clean_linker_0, # of connection points: 2
#     Edge 221, Type (0, 0), BuildingBlock: CIFDUS_clean_linker_0, # of connection points: 2
#     Edge 222, Type (0, 0), BuildingBlock: CIFDUS_clean_linker_0, # of connection points: 2
#     Edge 223, Type (0, 0), BuildingBlock: CIFDUS_clean_linker_0, # of connection points: 2
#     Edge 224, Type (0, 0), BuildingBlock: CIFDUS_clean_linker_0, # of connection points: 2
#     Edge 225, Type (0, 0), BuildingBlock: CIFDUS_clean_linker_0, # of connection points: 2
#     Edge 226, Type (0, 0), BuildingBlock: CIFDUS_clean_linker_0, # of connection points: 2
#     Edge 227, Type (0, 0), BuildingBlock: CIFDUS_clean_linker_0, # of connection points: 2
#     Edge 228, Type (0, 0), BuildingBlock: CIFDUS_clean_linker_0, # of connection points: 2
#     Edge 229, Type (0, 0), BuildingBlock: CIFDUS_clean_linker_0, # of connection points: 2
#     Edge 230, Type (0, 0), BuildingBlock: CIFDUS_clean_linker_0, # of connection points: 2
#     Edge 231, Type (0, 0), BuildingBlock: CIFDUS_clean_linker_0, # of connection points: 2
#     Edge 232, Type (0, 0), BuildingBlock: CIFDUS_clean_linker_0, # of connection points: 2
#     Edge 233, Type (0, 0), BuildingBlock: CIFDUS_clean_linker_0, # of connection points: 2
#     Edge 234, Type (0, 0), BuildingBlock: CIFDUS_clean_linker_0, # of connection points: 2
#     Edge 235, Type (0, 0), BuildingBlock: CIFDUS_clean_linker_0, # of connection points: 2
#     Edge 236, Type (0, 0), BuildingBlock: CIFDUS_clean_linker_0, # of connection points: 2
#     Edge 237, Type (0, 0), BuildingBlock: CIFDUS_clean_linker_0, # of connection points: 2
#     Edge 238, Type (0, 0), BuildingBlock: CIFDUS_clean_linker_0, # of connection points: 2
#     Edge 239, Type (0, 0), BuildingBlock: CIFDUS_clean_linker_0, # of connection points: 2
#     Edge 240, Type (0, 0), BuildingBlock: CIFDUS_clean_linker_0, # of connection points: 2
#     Edge 241, Type (0, 0), BuildingBlock: CIFDUS_clean_linker_0, # of connection points: 2
#     Edge 242, Type (0, 0), BuildingBlock: CIFDUS_clean_linker_0, # of connection points: 2
#     Edge 243, Type (0, 0), BuildingBlock: CIFDUS_clean_linker_0, # of connection points: 2
#     Edge 244, Type (0, 0), BuildingBlock: CIFDUS_clean_linker_0, # of connection points: 2
#     Edge 245, Type (0, 0), BuildingBlock: CIFDUS_clean_linker_0, # of connection points: 2
#     Edge 246, Type (0, 0), BuildingBlock: CIFDUS_clean_linker_0, # of connection points: 2
#     Edge 247, Type (0, 0), BuildingBlock: CIFDUS_clean_linker_0, # of connection points: 2
#     Edge 248, Type (0, 0), BuildingBlock: CIFDUS_clean_linker_0, # of connection points: 2
#     Edge 249, Type (0, 0), BuildingBlock: CIFDUS_clean_linker_0, # of connection points: 2
#     Edge 250, Type (0, 0), BuildingBlock: CIFDUS_clean_linker_0, # of connection points: 2
#     Edge 251, Type (0, 0), BuildingBlock: CIFDUS_clean_linker_0, # of connection points: 2
#     Edge 252, Type (0, 0), BuildingBlock: CIFDUS_clean_linker_0, # of connection points: 2
#     Edge 253, Type (0, 0), BuildingBlock: CIFDUS_clean_linker_0, # of connection points: 2
#     Edge 254, Type (0, 0), BuildingBlock: CIFDUS_clean_linker_0, # of connection points: 2
#     Edge 255, Type (0, 0), BuildingBlock: CIFDUS_clean_linker_0, # of connection points: 2
#     Edge 256, Type (0, 0), BuildingBlock: CIFDUS_clean_linker_0, # of connection points: 2
#     Edge 257, Type (0, 0), BuildingBlock: CIFDUS_clean_linker_0, # of connection points: 2
#     Edge 258, Type (0, 0), BuildingBlock: CIFDUS_clean_linker_0, # of connection points: 2
#     Edge 259, Type (0, 0), BuildingBlock: CIFDUS_clean_linker_0, # of connection points: 2
#     Edge 260, Type (0, 0), BuildingBlock: CIFDUS_clean_linker_0, # of connection points: 2
#     Edge 261, Type (0, 0), BuildingBlock: CIFDUS_clean_linker_0, # of connection points: 2
#     Edge 262, Type (0, 0), BuildingBlock: CIFDUS_clean_linker_0, # of connection points: 2
#     Edge 263, Type (0, 0), BuildingBlock: CIFDUS_clean_linker_0, # of connection points: 2
#     Edge 264, Type (0, 0), BuildingBlock: CIFDUS_clean_linker_0, # of connection points: 2
#     Edge 265, Type (0, 0), BuildingBlock: CIFDUS_clean_linker_0, # of connection points: 2
#     Edge 266, Type (0, 0), BuildingBlock: CIFDUS_clean_linker_0, # of connection points: 2
#     Edge 267, Type (0, 0), BuildingBlock: CIFDUS_clean_linker_0, # of connection points: 2
#     Edge 268, Type (0, 0), BuildingBlock: CIFDUS_clean_linker_0, # of connection points: 2
#     Edge 269, Type (0, 0), BuildingBlock: CIFDUS_clean_linker_0, # of connection points: 2
#     Edge 270, Type (0, 0), BuildingBlock: CIFDUS_clean_linker_0, # of connection points: 2
#     Edge 271, Type (0, 0), BuildingBlock: CIFDUS_clean_linker_0, # of connection points: 2
#     Edge 272, Type (0, 0), BuildingBlock: CIFDUS_clean_linker_0, # of connection points: 2
#     Edge 273, Type (0, 0), BuildingBlock: CIFDUS_clean_linker_0, # of connection points: 2
#     Edge 274, Type (0, 0), BuildingBlock: CIFDUS_clean_linker_0, # of connection points: 2
#     Edge 275, Type (0, 0), BuildingBlock: CIFDUS_clean_linker_0, # of connection points: 2
#     Edge 276, Type (0, 0), BuildingBlock: CIFDUS_clean_linker_0, # of connection points: 2
#     Edge 277, Type (0, 0), BuildingBlock: CIFDUS_clean_linker_0, # of connection points: 2
#     Edge 278, Type (0, 0), BuildingBlock: CIFDUS_clean_linker_0, # of connection points: 2
#     Edge 279, Type (0, 0), BuildingBlock: CIFDUS_clean_linker_0, # of connection points: 2
#     Edge 280, Type (0, 0), BuildingBlock: CIFDUS_clean_linker_0, # of connection points: 2
#     Edge 281, Type (0, 0), BuildingBlock: CIFDUS_clean_linker_0, # of connection points: 2
#     Edge 282, Type (0, 0), BuildingBlock: CIFDUS_clean_linker_0, # of connection points: 2
#     Edge 283, Type (0, 0), BuildingBlock: CIFDUS_clean_linker_0, # of connection points: 2
#     Edge 284, Type (0, 0), BuildingBlock: CIFDUS_clean_linker_0, # of connection points: 2
#     Edge 285, Type (0, 0), BuildingBlock: CIFDUS_clean_linker_0, # of connection points: 2
#     Edge 286, Type (0, 0), BuildingBlock: CIFDUS_clean_linker_0, # of connection points: 2
#     Edge 287, Type (0, 0), BuildingBlock: CIFDUS_clean_linker_0, # of connection points: 2
# Relax obj value: 0.321
# Max RMSD: 0.157
# Mean RMSD: 0.151
data_MOF--net-wse--node1-CEKHIL_clean_sbu_0--edge1-CIFDUS_clean_linker_0
_symmetry_space_group_name_H-M    P1
_symmetry_Int_Tables_number       1
_symmetry_cell_setting            triclinic
loop_
_symmetry_equiv_pos_as_xyz
'x, y, z'
_cell_length_a     85.568154
_cell_length_b     85.487477
_cell_length_c     85.506422
_cell_angle_alpha  89.948918
_cell_angle_beta   89.96573
_cell_angle_gamma 90.040874
loop_
_atom_site_label
_atom_site_type_symbol
_atom_site_fract_x
_atom_site_fract_y
_atom_site_fract_z
_atom_type_partial_charge
Co0 Co 0.09543 0.18857 0.43157 0.0
O1 O 0.11646 0.17967 0.43049 0.0
O2 O 0.09522 0.16829 0.4214 0.0
C3 C 0.1022 0.21363 0.4247 0.0
O4 O 0.07182 0.19316 0.4299 0.0
Co5 Co 0.0858 0.21565 0.45377 0.0
O6 O 0.06509 0.21472 0.44328 0.0
C7 C 0.09469 0.18466 0.46616 0.0
C8 C 0.11015 0.16741 0.42405 0.0
C9 C 0.06159 0.20337 0.43427 0.0
O10 O 0.09247 0.17833 0.45268 0.0
O11 O 0.09446 0.19946 0.4684 0.0
O12 O 0.09989 0.20314 0.41387 0.0
O13 O 0.10102 0.2085 0.43873 0.0
Co14 Co 0.82564 0.09975 0.43211 0.0
O15 O 0.83227 0.12152 0.43193 0.0
O16 O 0.84724 0.10183 0.42487 0.0
C17 C 0.80149 0.10393 0.42142 0.0
O18 O 0.82327 0.07573 0.43016 0.0
Co19 Co 0.79646 0.08838 0.4507 0.0
O20 O 0.80005 0.06812 0.43988 0.0
C21 C 0.82479 0.09923 0.46711 0.0
C22 C 0.84591 0.11681 0.42723 0.0
C23 C 0.81281 0.06511 0.43276 0.0
O24 O 0.83294 0.09781 0.45451 0.0
O25 O 0.8099 0.09782 0.46745 0.0
O26 O 0.81369 0.10256 0.41238 0.0
O27 O 0.80444 0.1036 0.43611 0.0
Co28 Co 0.91862 0.82916 0.43082 0.0
O29 O 0.89714 0.83647 0.43063 0.0
O30 O 0.91728 0.85081 0.42344 0.0
C31 C 0.91345 0.80514 0.42036 0.0
O32 O 0.94255 0.82583 0.42889 0.0
Co33 Co 0.9287 0.79963 0.44976 0.0
O34 O 0.94917 0.8025 0.43915 0.0
C35 C 0.9188 0.82852 0.46579 0.0
C36 C 0.90227 0.84993 0.42578 0.0
C37 C 0.95273 0.815 0.4318 0.0
O38 O 0.92081 0.83651 0.45317 0.0
O39 O 0.9195 0.81356 0.46624 0.0
O40 O 0.91523 0.81719 0.41117 0.0
O41 O 0.91402 0.80818 0.43501 0.0
Co42 Co 0.18724 0.9215 0.42889 0.0
O43 O 0.18082 0.89971 0.43012 0.0
O44 O 0.1659 0.91856 0.42102 0.0
C45 C 0.21192 0.91689 0.4195 0.0
O46 O 0.1896 0.94537 0.4255 0.0
Co47 Co 0.21549 0.93406 0.4482 0.0
O48 O 0.21237 0.95355 0.43586 0.0
C49 C 0.18593 0.92547 0.4638 0.0
C50 C 0.16728 0.90383 0.42467 0.0
C51 C 0.19994 0.95614 0.42805 0.0
O52 O 0.17875 0.92518 0.45059 0.0
O53 O 0.20076 0.92698 0.46508 0.0
O54 O 0.20006 0.91743 0.40995 0.0
O55 O 0.20833 0.91811 0.43401 0.0
Co56 Co 0.09753 0.82873 0.58963 0.0
O57 O 0.11929 0.83503 0.59007 0.0
O58 O 0.09981 0.85026 0.59718 0.0
C59 C 0.10156 0.8045 0.60006 0.0
O60 O 0.07347 0.82634 0.59128 0.0
Co61 Co 0.08662 0.79982 0.57036 0.0
O62 O 0.0663 0.80316 0.58111 0.0
C63 C 0.09757 0.82851 0.5546 0.0
C64 C 0.11479 0.84865 0.59498 0.0
C65 C 0.06302 0.81576 0.5884 0.0
O66 O 0.0959 0.8364 0.56732 0.0
O67 O 0.09625 0.8136 0.55397 0.0
O68 O 0.10007 0.81657 0.60924 0.0
O69 O 0.1014 0.80763 0.5854 0.0
Co70 Co 0.18891 0.09849 0.59032 0.0
O71 O 0.18354 0.1205 0.58867 0.0
O72 O 0.16795 0.10244 0.59842 0.0
C73 C 0.21377 0.10227 0.59927 0.0
O74 O 0.18987 0.0747 0.59414 0.0
Co75 Co 0.21607 0.08341 0.57152 0.0
O76 O 0.21145 0.06402 0.58361 0.0
C77 C 0.18704 0.09343 0.55569 0.0
C78 C 0.16992 0.117 0.5944 0.0
C79 C 0.19889 0.06284 0.59156 0.0
O80 O 0.17999 0.09476 0.56889 0.0
O81 O 0.20172 0.09079 0.5544 0.0
O82 O 0.20203 0.10241 0.60899 0.0
O83 O 0.21007 0.10065 0.58481 0.0
Co84 Co 0.92123 0.1875 0.59406 0.0
O85 O 0.8999 0.17937 0.59365 0.0
O86 O 0.92037 0.16659 0.60268 0.0
C87 C 0.91552 0.2121 0.60273 0.0
O88 O 0.94475 0.19088 0.59691 0.0
Co89 Co 0.93337 0.21554 0.57452 0.0
O90 O 0.95388 0.2125 0.58519 0.0
C91 C 0.92509 0.18564 0.5593 0.0
C92 C 0.90556 0.16645 0.5994 0.0
C93 C 0.95601 0.20033 0.59355 0.0
O94 O 0.92497 0.17861 0.5726 0.0
O95 O 0.92637 0.2005 0.55785 0.0
O96 O 0.91681 0.20055 0.61262 0.0
O97 O 0.91686 0.2083 0.58826 0.0
Co98 Co 0.8282 0.92147 0.59165 0.0
O99 O 0.83439 0.89957 0.59029 0.0
O100 O 0.84916 0.91828 0.60004 0.0
C101 C 0.80313 0.91718 0.60014 0.0
O102 O 0.82666 0.9452 0.59536 0.0
Co103 Co 0.80105 0.93617 0.57255 0.0
O104 O 0.80525 0.95576 0.58447 0.0
C105 C 0.83039 0.92647 0.55706 0.0
C106 C 0.84785 0.90366 0.59609 0.0
C107 C 0.81765 0.95701 0.59262 0.0
O108 O 0.83735 0.92536 0.57032 0.0
O109 O 0.81568 0.92884 0.55565 0.0
O110 O 0.81469 0.91729 0.61008 0.0
O111 O 0.80713 0.91886 0.58577 0.0
Co112 Co 0.42902 0.10133 0.18703 0.0
O113 O 0.42829 0.1229 0.18005 0.0
O114 O 0.4214 0.10276 0.16553 0.0
C115 C 0.41858 0.10572 0.21116 0.0
O116 O 0.42768 0.07741 0.19009 0.0
Co117 Co 0.4485 0.09138 0.21615 0.0
O118 O 0.43792 0.07083 0.21342 0.0
C119 C 0.4641 0.10115 0.18695 0.0
C120 C 0.42345 0.11781 0.16659 0.0
C121 C 0.43067 0.06723 0.20088 0.0
O122 O 0.45125 0.09962 0.17928 0.0
O123 O 0.46493 0.1002 0.20187 0.0
O124 O 0.40942 0.1039 0.19912 0.0
O125 O 0.43323 0.10579 0.20803 0.0
Co126 Co 0.92285 0.42723 0.18816 0.0
O127 O 0.90192 0.42647 0.17932 0.0
O128 O 0.92317 0.41855 0.1671 0.0
C129 C 0.9166 0.41822 0.21254 0.0
O130 O 0.94639 0.42583 0.19317 0.0
Co131 Co 0.93057 0.44861 0.21659 0.0
O132 O 0.95142 0.43833 0.21575 0.0
C133 C 0.92417 0.46232 0.18567 0.0
C134 C 0.90818 0.42108 0.16657 0.0
C135 C 0.95586 0.42999 0.2042 0.0
O136 O 0.92578 0.44885 0.1792 0.0
O137 O 0.92379 0.46431 0.2005 0.0
O138 O 0.919 0.40839 0.20114 0.0
O139 O 0.91683 0.43269 0.20854 0.0
Co140 Co 0.58762 0.91784 0.1874 0.0
O141 O 0.58844 0.89631 0.17942 0.0
O142 O 0.59539 0.9173 0.16618 0.0
C143 C 0.59772 0.9131 0.21172 0.0
O144 O 0.58916 0.94162 0.19009 0.0
Co145 Co 0.56928 0.92986 0.21619 0.0
O146 O 0.57879 0.95084 0.21228 0.0
C147 C 0.55274 0.91915 0.18771 0.0
C148 C 0.59334 0.90227 0.16626 0.0
C149 C 0.58609 0.95301 0.19947 0.0
O150 O 0.56545 0.91986 0.17966 0.0
O151 O 0.55234 0.92089 0.20259 0.0
O152 O 0.607 0.91489 0.19973 0.0
O153 O 0.58307 0.91357 0.20854 0.0
Co154 Co 0.0967 0.59063 0.18681 0.0
O155 O 0.11819 0.59146 0.17885 0.0
O156 O 0.09717 0.59771 0.16536 0.0
C157 C 0.10127 0.60145 0.21081 0.0
O158 O 0.07296 0.59196 0.18942 0.0
Co159 Co 0.08472 0.57307 0.21616 0.0
O160 O 0.06376 0.58244 0.21201 0.0
C161 C 0.09633 0.55587 0.18843 0.0
C162 C 0.1122 0.5958 0.16551 0.0
C163 C 0.0616 0.58923 0.19893 0.0
O164 O 0.09507 0.56817 0.17983 0.0
O165 O 0.09453 0.55601 0.2033 0.0
O166 O 0.09937 0.61042 0.1986 0.0
O167 O 0.10093 0.58672 0.20804 0.0
Co168 Co 0.43091 0.9205 0.83101 0.0
O169 O 0.43067 0.89914 0.8392 0.0
O170 O 0.4229 0.92006 0.85212 0.0
C171 C 0.42139 0.91468 0.80681 0.0
O172 O 0.42873 0.94415 0.82791 0.0
Co173 Co 0.44911 0.93272 0.80224 0.0
O174 O 0.4392 0.95352 0.80582 0.0
C175 C 0.46555 0.92202 0.8308 0.0
C176 C 0.42543 0.9051 0.85221 0.0
C177 C 0.43168 0.95556 0.8185 0.0
O178 O 0.45293 0.92317 0.83891 0.0
O179 O 0.46591 0.92354 0.8159 0.0
O180 O 0.41179 0.91657 0.81851 0.0
O181 O 0.43595 0.91598 0.81012 0.0
Co182 Co 0.09464 0.42949 0.82891 0.0
O183 O 0.11605 0.42837 0.83696 0.0
O184 O 0.09487 0.42219 0.85028 0.0
C185 C 0.09929 0.41871 0.80492 0.0
O186 O 0.07093 0.42833 0.82611 0.0
Co187 Co 0.08315 0.44745 0.79971 0.0
O188 O 0.06212 0.43802 0.80345 0.0
C189 C 0.09414 0.46442 0.82785 0.0
C190 C 0.10993 0.42389 0.85019 0.0
C191 C 0.05973 0.43115 0.81646 0.0
O192 O 0.09313 0.4519 0.83616 0.0
O193 O 0.09235 0.46457 0.81297 0.0
O194 O 0.09721 0.40975 0.8171 0.0
O195 O 0.09912 0.43346 0.80771 0.0
Co196 Co 0.59344 0.09664 0.83198 0.0
O197 O 0.59206 0.11865 0.83738 0.0
O198 O 0.6024 0.10061 0.85259 0.0
C199 C 0.60143 0.10053 0.80681 0.0
O200 O 0.59716 0.07284 0.83082 0.0
Co201 Co 0.57366 0.08162 0.80549 0.0
O202 O 0.58587 0.06223 0.8096 0.0
C203 C 0.55894 0.09143 0.83522 0.0
C204 C 0.59841 0.11518 0.85073 0.0
C205 C 0.59424 0.06101 0.82186 0.0
O206 O 0.57237 0.09288 0.84178 0.0
O207 O 0.55711 0.08878 0.8206 0.0
O208 O 0.61158 0.1006 0.81816 0.0
O209 O 0.58713 0.09886 0.81104 0.0
Co210 Co 0.92157 0.59328 0.83421 0.0
O211 O 0.89998 0.59274 0.8419 0.0
O212 O 0.92016 0.6016 0.85521 0.0
C213 C 0.91661 0.60229 0.80946 0.0
O214 O 0.94522 0.59613 0.83157 0.0
Co215 Co 0.93454 0.57423 0.80623 0.0
O216 O 0.95495 0.58486 0.81 0.0
C217 C 0.92536 0.55854 0.83568 0.0
C218 C 0.90536 0.59824 0.85506 0.0
C219 C 0.95675 0.59294 0.82239 0.0
O220 O 0.92506 0.57169 0.84293 0.0
O221 O 0.92708 0.55735 0.82085 0.0
O222 O 0.91756 0.61203 0.82116 0.0
O223 O 0.91779 0.58778 0.81318 0.0
Co224 Co 0.18842 0.43015 0.09672 0.0
O225 O 0.18304 0.43052 0.11886 0.0
O226 O 0.16673 0.42406 0.10001 0.0
C227 C 0.21217 0.4184 0.09981 0.0
O228 O 0.18881 0.42788 0.07274 0.0
Co229 Co 0.21749 0.44609 0.08195 0.0
O230 O 0.21149 0.43562 0.06203 0.0
C231 C 0.19155 0.46476 0.09533 0.0
C232 C 0.16895 0.42646 0.11485 0.0
C233 C 0.19794 0.42955 0.06082 0.0
O234 O 0.18233 0.45285 0.09496 0.0
O235 O 0.2062 0.4639 0.09235 0.0
O236 O 0.19951 0.40991 0.09921 0.0
O237 O 0.21001 0.43321 0.09897 0.0
Co238 Co 0.19177 0.59158 0.92231 0.0
O239 O 0.18535 0.59048 0.9006 0.0
O240 O 0.17053 0.59974 0.91949 0.0
C241 C 0.2164 0.60071 0.9175 0.0
O242 O 0.19452 0.59477 0.94617 0.0
Co243 Co 0.21977 0.57145 0.93406 0.0
O244 O 0.21726 0.58379 0.9536 0.0
C245 C 0.1898 0.55663 0.92581 0.0
C246 C 0.1719 0.59608 0.90475 0.0
C247 C 0.20511 0.5919 0.95661 0.0
O248 O 0.18296 0.57001 0.92593 0.0
O249 O 0.20462 0.55495 0.92698 0.0
O250 O 0.20468 0.61041 0.91822 0.0
O251 O 0.21268 0.58621 0.91861 0.0
Co252 Co 0.43417 0.19062 0.91745 0.0
O253 O 0.43634 0.18395 0.89592 0.0
O254 O 0.42313 0.17089 0.9138 0.0
C255 C 0.42961 0.21635 0.91158 0.0
O256 O 0.42921 0.19383 0.94088 0.0
Co257 Co 0.45657 0.21579 0.93157 0.0
O258 O 0.44238 0.21478 0.94994 0.0
C259 C 0.46785 0.18391 0.92443 0.0
C260 C 0.42825 0.17161 0.89947 0.0
C261 C 0.43256 0.20371 0.95184 0.0
O262 O 0.45377 0.17878 0.92311 0.0
O263 O 0.47128 0.19842 0.92591 0.0
O264 O 0.4181 0.20636 0.91137 0.0
O265 O 0.44301 0.21035 0.91451 0.0
Co266 Co 0.83134 0.4267 0.92233 0.0
O267 O 0.83854 0.42627 0.90064 0.0
O268 O 0.85281 0.41975 0.92109 0.0
C269 C 0.80757 0.41567 0.91784 0.0
O270 O 0.82912 0.42502 0.9462 0.0
Co271 Co 0.802 0.44386 0.93474 0.0
O272 O 0.80632 0.43402 0.95543 0.0
C273 C 0.82946 0.46143 0.92291 0.0
C274 C 0.85203 0.42177 0.90606 0.0
C275 C 0.81949 0.42742 0.95757 0.0
O276 O 0.83816 0.44921 0.92403 0.0
O277 O 0.81462 0.46113 0.9249 0.0
O278 O 0.81984 0.40679 0.91957 0.0
O279 O 0.81013 0.43044 0.91842 0.0
Co280 Co 0.58868 0.82545 0.92111 0.0
O281 O 0.58875 0.83208 0.89939 0.0
O282 O 0.59553 0.84724 0.91903 0.0
C283 C 0.59976 0.80151 0.91682 0.0
O284 O 0.59056 0.82289 0.94512 0.0
Co285 Co 0.57041 0.79584 0.93205 0.0
O286 O 0.58145 0.79921 0.95224 0.0
C287 C 0.55371 0.82414 0.92151 0.0
C288 C 0.59319 0.84583 0.90405 0.0
C289 C 0.58825 0.81209 0.9555 0.0
O290 O 0.56621 0.83241 0.92303 0.0
O291 O 0.55351 0.80922 0.9228 0.0
O292 O 0.60859 0.81386 0.91829 0.0
O293 O 0.58504 0.80422 0.91711 0.0
Co294 Co 0.82624 0.58819 0.09865 0.0
O295 O 0.83287 0.58884 0.1203 0.0
O296 O 0.84789 0.59539 0.10041 0.0
C297 C 0.80236 0.59915 0.10293 0.0
O298 O 0.82349 0.58955 0.07463 0.0
Co299 Co 0.79678 0.56938 0.08843 0.0
O300 O 0.79992 0.57996 0.06795 0.0
C301 C 0.82524 0.55321 0.09928 0.0
C302 C 0.84649 0.59345 0.11545 0.0
C303 C 0.81266 0.58689 0.0644 0.0
O304 O 0.8334 0.56572 0.09726 0.0
O305 O 0.81032 0.55287 0.09815 0.0
O306 O 0.81458 0.60807 0.10111 0.0
O307 O 0.80516 0.58442 0.10292 0.0
Co308 Co 0.4248 0.8318 0.09791 0.0
O309 O 0.42585 0.83792 0.11978 0.0
O310 O 0.41735 0.85315 0.1008 0.0
C311 C 0.4149 0.80735 0.10207 0.0
O312 O 0.42176 0.83017 0.07409 0.0
Co313 Co 0.44302 0.80346 0.08423 0.0
O314 O 0.43172 0.8079 0.06435 0.0
C315 C 0.45958 0.8322 0.09407 0.0
C316 C 0.42078 0.85162 0.11554 0.0
C317 C 0.42431 0.82071 0.06259 0.0
O318 O 0.44666 0.83983 0.09464 0.0
O319 O 0.46033 0.81738 0.09195 0.0
O320 O 0.40557 0.81939 0.10156 0.0
O321 O 0.4295 0.81055 0.10086 0.0
Co322 Co 0.58927 0.18972 0.10107 0.0
O323 O 0.58719 0.18402 0.12303 0.0
O324 O 0.59733 0.16876 0.10493 0.0
C325 C 0.59811 0.2147 0.10505 0.0
O326 O 0.59362 0.19072 0.07745 0.0
Co327 Co 0.57107 0.21696 0.08535 0.0
O328 O 0.58327 0.21204 0.06612 0.0
C329 C 0.55484 0.18785 0.09474 0.0
C330 C 0.59303 0.17045 0.11942 0.0
C331 C 0.59124 0.19947 0.06537 0.0
O332 O 0.56795 0.18078 0.09671 0.0
O333 O 0.5537 0.20255 0.09202 0.0
O334 O 0.6078 0.20295 0.10545 0.0
O335 O 0.58371 0.21095 0.10309 0.0
Co336 Co 0.94962 0.84145 0.58098 0.0
O337 O 0.94312 0.86257 0.58653 0.0
O338 O 0.9281 0.84173 0.58857 0.0
C339 C 0.97399 0.84198 0.59192 0.0
O340 O 0.95167 0.81781 0.57708 0.0
Co341 Co 0.97817 0.83497 0.55928 0.0
O342 O 0.97353 0.81254 0.56348 0.0
C343 C 0.94965 0.84919 0.54657 0.0
C344 C 0.92941 0.85684 0.58982 0.0
C345 C 0.96125 0.80806 0.57069 0.0
O346 O 0.94199 0.84501 0.55887 0.0
O347 O 0.96452 0.84809 0.54548 0.0
O348 O 0.96182 0.83903 0.60063 0.0
O349 O 0.97088 0.84569 0.57774 0.0
Co350 Co 0.1828 0.94657 0.58515 0.0
O351 O 0.16136 0.94151 0.59064 0.0
O352 O 0.1812 0.9253 0.59332 0.0
C353 C 0.18379 0.97118 0.59544 0.0
O354 O 0.20649 0.94744 0.58111 0.0
Co355 Co 0.18966 0.97399 0.5621 0.0
O356 O 0.21187 0.96792 0.56537 0.0
C357 C 0.17589 0.94495 0.55037 0.0
C358 C 0.16617 0.92755 0.59421 0.0
C359 C 0.21619 0.95609 0.5734 0.0
O360 O 0.17918 0.93816 0.5634 0.0
O361 O 0.17724 0.95971 0.54828 0.0
O362 O 0.18596 0.95904 0.60442 0.0
O363 O 0.17961 0.96795 0.58139 0.0
Co364 Co 0.06942 0.18077 0.57933 0.0
O365 O 0.07603 0.16107 0.58841 0.0
O366 O 0.0918 0.18098 0.58394 0.0
C367 C 0.047 0.18406 0.59328 0.0
O368 O 0.06688 0.20309 0.57065 0.0
Co369 Co 0.03809 0.18238 0.56074 0.0
O370 O 0.04303 0.2051 0.55966 0.0
C371 C 0.06511 0.16655 0.54693 0.0
C372 C 0.09018 0.16656 0.58863 0.0
C373 C 0.05605 0.2111 0.56382 0.0
O374 O 0.07397 0.17236 0.55766 0.0
O375 O 0.0502 0.16755 0.54731 0.0
O376 O 0.06036 0.18814 0.59935 0.0
O377 O 0.04796 0.1768 0.58019 0.0
Co378 Co 0.83348 0.07177 0.58313 0.0
O379 O 0.85363 0.08004 0.59002 0.0
O380 O 0.83169 0.09353 0.58897 0.0
C381 C 0.83356 0.04834 0.59587 0.0
O382 O 0.81055 0.06833 0.57759 0.0
Co383 Co 0.82957 0.0417 0.56318 0.0
O384 O 0.80666 0.04546 0.56532 0.0
C385 C 0.84331 0.06989 0.54917 0.0
C386 C 0.84662 0.09347 0.59165 0.0
C387 C 0.80147 0.05805 0.57139 0.0
O388 O 0.83854 0.07808 0.56088 0.0
O389 O 0.84259 0.05494 0.54887 0.0
O390 O 0.8296 0.06108 0.60327 0.0
O391 O 0.83875 0.05048 0.58193 0.0
Co392 Co 0.94811 0.17842 0.43846 0.0
O393 O 0.94093 0.15774 0.43257 0.0
O394 O 0.92671 0.17908 0.4303 0.0
C395 C 0.97269 0.17707 0.42812 0.0
O396 O 0.95178 0.20179 0.44309 0.0
Co397 Co 0.97622 0.1809 0.46169 0.0
O398 O 0.97419 0.20355 0.45681 0.0
C399 C 0.9455 0.17125 0.47327 0.0
C400 C 0.92752 0.16391 0.42909 0.0
C401 C 0.96268 0.2099 0.44971 0.0
O402 O 0.93933 0.17529 0.46016 0.0
O403 O 0.96027 0.17077 0.47554 0.0
O404 O 0.96091 0.18066 0.41917 0.0
O405 O 0.96894 0.17282 0.44202 0.0
Co406 Co 0.8395 0.9512 0.43652 0.0
O407 O 0.86086 0.94506 0.43178 0.0
O408 O 0.84021 0.93027 0.42745 0.0
C409 C 0.84056 0.97634 0.42746 0.0
O410 O 0.81578 0.95324 0.43955 0.0
Co411 Co 0.83285 0.97801 0.46036 0.0
O412 O 0.81059 0.97386 0.45506 0.0
C413 C 0.84448 0.94771 0.47141 0.0
C414 C 0.85537 0.93159 0.42736 0.0
C415 C 0.80608 0.96235 0.44669 0.0
O416 O 0.84153 0.94163 0.45798 0.0
O417 O 0.84376 0.96242 0.47407 0.0
O418 O 0.83815 0.96485 0.41774 0.0
O419 O 0.84372 0.97215 0.44151 0.0
Co420 Co 0.06663 0.8397 0.44047 0.0
O421 O 0.07301 0.86038 0.43341 0.0
O422 O 0.08832 0.83973 0.43303 0.0
C423 C 0.04233 0.83947 0.42928 0.0
O424 O 0.06432 0.81637 0.44652 0.0
Co425 Co 0.03772 0.83628 0.46257 0.0
O426 O 0.04229 0.81355 0.46072 0.0
C427 C 0.06678 0.85011 0.47433 0.0
C428 C 0.08683 0.85471 0.43072 0.0
C429 C 0.05441 0.80783 0.45415 0.0
O430 O 0.07419 0.84492 0.46228 0.0
O431 O 0.05188 0.84973 0.47552 0.0
O432 O 0.05454 0.83572 0.42095 0.0
O433 O 0.04543 0.84439 0.44307 0.0
Co434 Co 0.17809 0.06988 0.4351 0.0
O435 O 0.15847 0.07944 0.42861 0.0
O436 O 0.18152 0.09091 0.42713 0.0
C437 C 0.17463 0.04549 0.42479 0.0
O438 O 0.20076 0.06421 0.44034 0.0
Co439 Co 0.17807 0.04163 0.45818 0.0
O440 O 0.20105 0.04203 0.45451 0.0
C441 C 0.17088 0.07306 0.46982 0.0
C442 C 0.16643 0.09206 0.42558 0.0
C443 C 0.20814 0.05315 0.44747 0.0
O444 O 0.1753 0.07894 0.45669 0.0
O445 O 0.16935 0.05834 0.4721 0.0
O446 O 0.17962 0.05688 0.41594 0.0
O447 O 0.17036 0.04964 0.43857 0.0
Co448 Co 0.58203 0.94641 0.83887 0.0
O449 O 0.58839 0.9405 0.85991 0.0
O450 O 0.58788 0.92436 0.83986 0.0
C451 C 0.59496 0.96973 0.8373 0.0
O452 O 0.57672 0.94785 0.81543 0.0
Co453 Co 0.56224 0.97637 0.83278 0.0
O454 O 0.56447 0.97057 0.81035 0.0
C455 C 0.54817 0.94936 0.84858 0.0
C456 C 0.59019 0.9263 0.85477 0.0
C457 C 0.57039 0.95765 0.80582 0.0
O458 O 0.55969 0.94073 0.84416 0.0
O459 O 0.54807 0.96425 0.84699 0.0
O460 O 0.60235 0.9567 0.83445 0.0
O461 O 0.58091 0.96803 0.84227 0.0
Co462 Co 0.071 0.58051 0.84125 0.0
O463 O 0.07772 0.58814 0.8615 0.0
O464 O 0.09319 0.58624 0.84101 0.0
C465 C 0.04789 0.59368 0.83967 0.0
O466 O 0.06801 0.57356 0.81837 0.0
Co467 Co 0.04035 0.56068 0.83959 0.0
O468 O 0.04413 0.56256 0.8167 0.0
C469 C 0.06877 0.54661 0.85239 0.0
C470 C 0.09169 0.5896 0.85581 0.0
C471 C 0.05678 0.56736 0.81036 0.0
O472 O 0.07683 0.55837 0.84746 0.0
O473 O 0.05383 0.54628 0.85218 0.0
O474 O 0.06089 0.60065 0.83583 0.0
O475 O 0.04965 0.58014 0.8459 0.0
Co476 Co 0.43924 0.07114 0.83699 0.0
O477 O 0.43062 0.07774 0.85686 0.0
O478 O 0.43216 0.09282 0.83596 0.0
C479 C 0.42796 0.0471 0.83541 0.0
O480 O 0.44709 0.06829 0.81448 0.0
Co481 Co 0.46156 0.04232 0.83644 0.0
O482 O 0.46068 0.04574 0.81343 0.0
C483 C 0.47309 0.07226 0.84836 0.0
C484 C 0.42868 0.09151 0.85075 0.0
C485 C 0.45482 0.0578 0.80684 0.0
O486 O 0.46052 0.07892 0.84353 0.0
O487 O 0.475 0.05741 0.84828 0.0
O488 O 0.42012 0.05948 0.83124 0.0
O489 O 0.44112 0.04993 0.84207 0.0
Co490 Co 0.94415 0.43818 0.8325 0.0
O491 O 0.93585 0.42931 0.85168 0.0
O492 O 0.92258 0.43167 0.82967 0.0
C493 C 0.96797 0.42645 0.83214 0.0
O494 O 0.9486 0.44635 0.81043 0.0
Co495 Co 0.9734 0.45986 0.83389 0.0
O496 O 0.97152 0.45928 0.81069 0.0
C497 C 0.9432 0.4717 0.84474 0.0
C498 C 0.92257 0.42792 0.84444 0.0
C499 C 0.9597 0.45379 0.80341 0.0
O500 O 0.93649 0.4595 0.83907 0.0
O501 O 0.95806 0.47322 0.84549 0.0
O502 O 0.95572 0.41893 0.82708 0.0
O503 O 0.96501 0.43952 0.83895 0.0
Co504 Co 0.57636 0.06821 0.17979 0.0
O505 O 0.58557 0.07528 0.16028 0.0
O506 O 0.58252 0.09019 0.18107 0.0
C507 C 0.58852 0.04461 0.18192 0.0
O508 O 0.56787 0.06512 0.20203 0.0
Co509 Co 0.55531 0.03841 0.18016 0.0
O510 O 0.55521 0.04203 0.20316 0.0
C511 C 0.54332 0.06737 0.16639 0.0
C512 C 0.58675 0.0891 0.16648 0.0
C513 C 0.56046 0.05439 0.20968 0.0
O514 O 0.55502 0.0749 0.17217 0.0
O515 O 0.54233 0.05244 0.16663 0.0
O516 O 0.59569 0.05731 0.18636 0.0
O517 O 0.57551 0.0469 0.17481 0.0
Co518 Co 0.94564 0.5829 0.18076 0.0
O519 O 0.94023 0.58913 0.15963 0.0
O520 O 0.92437 0.59095 0.17989 0.0
C521 C 0.97011 0.59327 0.18193 0.0
O522 O 0.94697 0.57804 0.20421 0.0
Co523 Co 0.97329 0.55985 0.18643 0.0
O524 O 0.9684 0.56351 0.2089 0.0
C525 C 0.94402 0.54825 0.17299 0.0
C526 C 0.92635 0.5924 0.16486 0.0
C527 C 0.95633 0.57088 0.21364 0.0
O528 O 0.9373 0.56124 0.17651 0.0
O529 O 0.95877 0.54612 0.1742 0.0
O530 O 0.95798 0.60212 0.18451 0.0
O531 O 0.96693 0.5794 0.17712 0.0
Co532 Co 0.43962 0.95383 0.17527 0.0
O533 O 0.43216 0.94675 0.15507 0.0
O534 O 0.43199 0.93229 0.17643 0.0
C535 C 0.42858 0.9781 0.17485 0.0
O536 O 0.44592 0.95707 0.19826 0.0
Co537 Co 0.46196 0.98263 0.17721 0.0
O538 O 0.45942 0.9796 0.20014 0.0
C539 C 0.4736 0.9528 0.16497 0.0
C540 C 0.42934 0.93325 0.16146 0.0
C541 C 0.45306 0.9676 0.2064 0.0
O542 O 0.46127 0.94582 0.1701 0.0
O543 O 0.47514 0.96769 0.16491 0.0
O544 O 0.42028 0.96606 0.17917 0.0
O545 O 0.44226 0.97483 0.16968 0.0
Co546 Co 0.06941 0.43921 0.18077 0.0
O547 O 0.07524 0.43341 0.15959 0.0
O548 O 0.09115 0.43241 0.17983 0.0
C549 C 0.04556 0.42733 0.18141 0.0
O550 O 0.06798 0.44374 0.20435 0.0
Co551 Co 0.04035 0.46021 0.18734 0.0
O552 O 0.0462 0.45748 0.20969 0.0
C553 C 0.068 0.4733 0.17184 0.0
C554 C 0.08925 0.43075 0.16483 0.0
C555 C 0.05868 0.45059 0.21408 0.0
O556 O 0.07614 0.46146 0.17637 0.0
O557 O 0.05312 0.47391 0.1732 0.0
O558 O 0.05814 0.41916 0.18407 0.0
O559 O 0.04796 0.44154 0.17724 0.0
Co560 Co 0.83651 0.57658 0.95111 0.0
O561 O 0.85561 0.58502 0.94189 0.0
O562 O 0.83311 0.583 0.92955 0.0
C563 C 0.83782 0.58861 0.97491 0.0
O564 O 0.81424 0.56906 0.9561 0.0
Co565 Co 0.83716 0.5555 0.98083 0.0
O566 O 0.81397 0.55604 0.97895 0.0
C567 C 0.84899 0.54344 0.95099 0.0
C568 C 0.84788 0.58657 0.92889 0.0
C569 C 0.80691 0.56172 0.96708 0.0
O570 O 0.84255 0.55496 0.94371 0.0
O571 O 0.84989 0.54271 0.96591 0.0
O572 O 0.8322 0.59614 0.96289 0.0
O573 O 0.8436 0.57514 0.97178 0.0
Co574 Co 0.83472 0.43741 0.07307 0.0
O575 O 0.85501 0.43026 0.08081 0.0
O576 O 0.83337 0.43109 0.09478 0.0
C577 C 0.83442 0.42515 0.04942 0.0
O578 O 0.81171 0.44328 0.07004 0.0
Co579 Co 0.8309 0.45804 0.04337 0.0
O580 O 0.80804 0.45626 0.04748 0.0
C581 C 0.84511 0.47121 0.07164 0.0
C582 C 0.8483 0.42836 0.09435 0.0
C583 C 0.80274 0.44999 0.05995 0.0
O584 O 0.84005 0.45949 0.07968 0.0
O585 O 0.84446 0.47172 0.0567 0.0
O586 O 0.83053 0.4175 0.06204 0.0
O587 O 0.83975 0.439 0.05177 0.0
Co588 Co 0.58 0.8329 0.07004 0.0
O589 O 0.58732 0.85236 0.07928 0.0
O590 O 0.58797 0.82942 0.09107 0.0
C591 C 0.59026 0.83584 0.04553 0.0
O592 O 0.57379 0.81033 0.06469 0.0
Co593 Co 0.55677 0.8335 0.04198 0.0
O594 O 0.55951 0.81038 0.04261 0.0
C595 C 0.54588 0.84205 0.07334 0.0
C596 C 0.59007 0.84447 0.092 0.0
C597 C 0.56631 0.80312 0.05376 0.0
O598 O 0.55865 0.83674 0.07921 0.0
O599 O 0.54365 0.84354 0.05862 0.0
O600 O 0.59898 0.83053 0.05685 0.0
O601 O 0.57668 0.84058 0.04977 0.0
Co602 Co 0.18414 0.58241 0.0702 0.0
O603 O 0.16381 0.58843 0.07872 0.0
O604 O 0.18603 0.5892 0.09173 0.0
C605 C 0.18222 0.59413 0.04626 0.0
O606 O 0.20733 0.57783 0.06646 0.0
Co607 Co 0.18837 0.56157 0.04075 0.0
O608 O 0.21122 0.56434 0.04429 0.0
C609 C 0.17511 0.54844 0.06959 0.0
C610 C 0.17095 0.59091 0.09194 0.0
C611 C 0.21644 0.5712 0.05646 0.0
O612 O 0.18034 0.5602 0.07741 0.0
O613 O 0.1753 0.54789 0.05464 0.0
O614 O 0.18638 0.60234 0.05843 0.0
O615 O 0.17829 0.57995 0.04921 0.0
Co616 Co 0.43508 0.18032 0.0656 0.0
O617 O 0.42986 0.15915 0.07189 0.0
O618 O 0.4259 0.18003 0.08649 0.0
C619 C 0.426 0.17909 0.04059 0.0
O620 O 0.4387 0.20396 0.0632 0.0
Co621 Co 0.45919 0.18591 0.03883 0.0
O622 O 0.45436 0.20838 0.04249 0.0
C623 C 0.46993 0.1749 0.06949 0.0
C624 C 0.42545 0.16485 0.08526 0.0
C625 C 0.44609 0.21331 0.0539 0.0
O626 O 0.45641 0.17794 0.07532 0.0
O627 O 0.47283 0.17546 0.05481 0.0
O628 O 0.41636 0.18193 0.05204 0.0
O629 O 0.44 0.17566 0.04477 0.0
Co630 Co 0.18165 0.43539 0.94516 0.0
O631 O 0.16142 0.42917 0.93672 0.0
O632 O 0.18376 0.428 0.92386 0.0
C633 C 0.18026 0.4244 0.96941 0.0
O634 O 0.20463 0.44018 0.94917 0.0
Co635 Co 0.18478 0.45756 0.97382 0.0
O636 O 0.2077 0.45446 0.97101 0.0
C637 C 0.1745 0.47017 0.94365 0.0
C638 C 0.16866 0.4264 0.9236 0.0
C639 C 0.21333 0.44717 0.95927 0.0
O640 O 0.17834 0.45727 0.93696 0.0
O641 O 0.17436 0.47193 0.95851 0.0
O642 O 0.18408 0.4159 0.95734 0.0
O643 O 0.17566 0.43834 0.96611 0.0
Co644 Co 0.58564 0.17933 0.95036 0.0
O645 O 0.59386 0.15928 0.94385 0.0
O646 O 0.59294 0.18015 0.9287 0.0
C647 C 0.59679 0.1806 0.9745 0.0
O648 O 0.57832 0.20207 0.95322 0.0
Co649 Co 0.56307 0.18019 0.97895 0.0
O650 O 0.56547 0.20318 0.97618 0.0
C651 C 0.5515 0.16859 0.94892 0.0
C652 C 0.59608 0.1653 0.93008 0.0
C653 C 0.57129 0.20982 0.96412 0.0
O654 O 0.56429 0.17315 0.94242 0.0
O655 O 0.54935 0.16884 0.96373 0.0
O656 O 0.60479 0.18465 0.96216 0.0
O657 O 0.5835 0.17424 0.97156 0.0
Co658 Co 0.43774 0.83375 0.94772 0.0
O659 O 0.43096 0.85376 0.93909 0.0
O660 O 0.43236 0.83163 0.92589 0.0
C661 C 0.42454 0.83414 0.97084 0.0
O662 O 0.4434 0.81091 0.95156 0.0
Co663 Co 0.45717 0.83042 0.97817 0.0
O664 O 0.45584 0.80743 0.97439 0.0
C665 C 0.47159 0.84379 0.95004 0.0
C666 C 0.42966 0.84657 0.92572 0.0
C667 C 0.44987 0.80204 0.96184 0.0
O668 O 0.46003 0.83883 0.94176 0.0
O669 O 0.47165 0.84334 0.965 0.0
O670 O 0.41743 0.82992 0.95804 0.0
O671 O 0.43852 0.83935 0.96894 0.0
Co672 Co 0.59768 0.68465 0.92758 0.0
O673 O 0.61847 0.67536 0.92714 0.0
O674 O 0.59698 0.66346 0.91936 0.0
C675 C 0.60425 0.70875 0.91805 0.0
O676 O 0.57428 0.68983 0.92586 0.0
Co677 Co 0.58967 0.7138 0.94787 0.0
O678 O 0.569 0.71296 0.93718 0.0
C679 C 0.59519 0.68315 0.9627 0.0
C680 C 0.61194 0.66265 0.92193 0.0
C681 C 0.56475 0.701 0.92933 0.0
O682 O 0.59434 0.67627 0.94936 0.0
O683 O 0.59545 0.69804 0.96429 0.0
O684 O 0.60186 0.69711 0.9085 0.0
O685 O 0.60383 0.70513 0.93262 0.0
Co686 Co 0.33395 0.59701 0.92554 0.0
O687 O 0.34192 0.61843 0.92535 0.0
O688 O 0.35468 0.5978 0.91663 0.0
C689 C 0.30929 0.60233 0.91694 0.0
O690 O 0.33072 0.57341 0.9233 0.0
Co691 Co 0.30613 0.58517 0.94557 0.0
O692 O 0.30899 0.56456 0.93501 0.0
C693 C 0.33627 0.5934 0.96037 0.0
C694 C 0.35476 0.61271 0.91951 0.0
C695 C 0.3212 0.56225 0.9268 0.0
O696 O 0.34311 0.59372 0.94698 0.0
O697 O 0.32146 0.59199 0.96204 0.0
O698 O 0.32074 0.60089 0.90699 0.0
O699 O 0.3132 0.6014 0.93142 0.0
Co700 Co 0.42141 0.33161 0.92732 0.0
O701 O 0.39989 0.33923 0.92685 0.0
O702 O 0.42064 0.353 0.92012 0.0
C703 C 0.41648 0.30782 0.91652 0.0
O704 O 0.44517 0.32899 0.92558 0.0
Co705 Co 0.43344 0.30222 0.94474 0.0
O706 O 0.45418 0.30622 0.9349 0.0
C707 C 0.42228 0.33008 0.9621 0.0
C708 C 0.40561 0.35254 0.92212 0.0
C709 C 0.45643 0.3193 0.92811 0.0
O710 O 0.42336 0.33864 0.94974 0.0
O711 O 0.42407 0.3152 0.96197 0.0
O712 O 0.4183 0.32002 0.90754 0.0
O713 O 0.41719 0.31043 0.93128 0.0
Co714 Co 0.69051 0.41915 0.92561 0.0
O715 O 0.68395 0.3975 0.92614 0.0
O716 O 0.66948 0.4167 0.91689 0.0
C717 C 0.71523 0.41417 0.91697 0.0
O718 O 0.69353 0.44302 0.9229 0.0
Co719 Co 0.71825 0.43036 0.94641 0.0
O720 O 0.71615 0.45015 0.93433 0.0
C721 C 0.68782 0.42234 0.96054 0.0
C722 C 0.67072 0.40187 0.9202 0.0
C723 C 0.70413 0.45335 0.92611 0.0
O724 O 0.68127 0.42248 0.94701 0.0
O725 O 0.70262 0.42342 0.96252 0.0
O726 O 0.70376 0.41525 0.90701 0.0
O727 O 0.71122 0.41515 0.9314 0.0
Co728 Co 0.59503 0.33223 0.09195 0.0
O729 O 0.61651 0.34025 0.0921 0.0
O730 O 0.59581 0.35339 0.09991 0.0
C731 C 0.60007 0.30783 0.10172 0.0
O732 O 0.57135 0.32919 0.09411 0.0
Co733 Co 0.58319 0.30363 0.07312 0.0
O734 O 0.56247 0.30703 0.08332 0.0
C735 C 0.59217 0.33292 0.05699 0.0
C736 C 0.61074 0.35337 0.09726 0.0
C737 C 0.56015 0.31959 0.09099 0.0
O738 O 0.59215 0.34042 0.07003 0.0
O739 O 0.59066 0.31804 0.05606 0.0
O740 O 0.59857 0.31974 0.11112 0.0
O741 O 0.59936 0.31115 0.08708 0.0
Co742 Co 0.68668 0.59798 0.08799 0.0
O743 O 0.67968 0.61954 0.08843 0.0
O744 O 0.66487 0.5994 0.09471 0.0
C745 C 0.71025 0.60262 0.09945 0.0
O746 O 0.68965 0.57402 0.08953 0.0
Co747 Co 0.71679 0.58782 0.07017 0.0
O748 O 0.71363 0.56745 0.08096 0.0
C749 C 0.68865 0.59814 0.05303 0.0
C750 C 0.66607 0.61447 0.09282 0.0
C751 C 0.70066 0.56387 0.08741 0.0
O752 O 0.68013 0.59634 0.06534 0.0
O753 O 0.70358 0.59712 0.05316 0.0
O754 O 0.69786 0.60066 0.10812 0.0
O755 O 0.70779 0.60248 0.08467 0.0
Co756 Co 0.41719 0.68971 0.09137 0.0
O757 O 0.3955 0.68317 0.09053 0.0
O758 O 0.41457 0.66859 0.09984 0.0
C759 C 0.41248 0.71445 0.10029 0.0
O760 O 0.44099 0.69238 0.09434 0.0
Co761 Co 0.4291 0.71761 0.07112 0.0
O762 O 0.44877 0.715 0.08326 0.0
C763 C 0.42143 0.68732 0.05646 0.0
C764 C 0.39981 0.66981 0.09632 0.0
C765 C 0.45159 0.70276 0.09132 0.0
O766 O 0.42081 0.68066 0.06993 0.0
O767 O 0.42281 0.70213 0.05461 0.0
O768 O 0.41323 0.70278 0.11008 0.0
O769 O 0.41351 0.71064 0.08581 0.0
Co770 Co 0.32917 0.42083 0.09051 0.0
O771 O 0.33774 0.39974 0.09057 0.0
O772 O 0.35011 0.42059 0.09931 0.0
C773 C 0.30469 0.41458 0.09924 0.0
O774 O 0.32462 0.44438 0.09265 0.0
Co775 Co 0.30089 0.43007 0.06956 0.0
O776 O 0.30215 0.45058 0.0805 0.0
C777 C 0.33179 0.42395 0.05555 0.0
C778 C 0.3505 0.40568 0.09628 0.0
C779 C 0.31392 0.45434 0.08885 0.0
O780 O 0.33827 0.42447 0.06909 0.0
O781 O 0.31696 0.4241 0.0535 0.0
O782 O 0.31612 0.41646 0.10913 0.0
O783 O 0.30868 0.41534 0.08477 0.0
Co784 Co 0.92823 0.5978 0.69155 0.0
O785 O 0.92813 0.61917 0.68334 0.0
O786 O 0.91972 0.59852 0.67047 0.0
C787 C 0.9191 0.60336 0.71614 0.0
O788 O 0.92598 0.57407 0.69533 0.0
Co789 Co 0.94847 0.58754 0.71994 0.0
O790 O 0.9377 0.56699 0.71775 0.0
C791 C 0.96327 0.59484 0.68964 0.0
C792 C 0.92255 0.61347 0.67039 0.0
C793 C 0.92956 0.56368 0.70571 0.0
O794 O 0.9499 0.59451 0.68276 0.0
O795 O 0.96489 0.59419 0.70451 0.0
O796 O 0.9094 0.60172 0.7045 0.0
O797 O 0.93361 0.60271 0.71235 0.0
Co798 Co 0.42135 0.931 0.68971 0.0
O799 O 0.39976 0.93254 0.68292 0.0
O800 O 0.41828 0.92102 0.66929 0.0
C801 C 0.41537 0.92477 0.7151 0.0
O802 O 0.44504 0.92689 0.69284 0.0
Co803 Co 0.43446 0.95232 0.71626 0.0
O804 O 0.45347 0.93911 0.7146 0.0
C805 C 0.42606 0.96533 0.68535 0.0
C806 C 0.40374 0.92543 0.67014 0.0
C807 C 0.45583 0.93006 0.70299 0.0
O808 O 0.42603 0.95161 0.67918 0.0
O809 O 0.42729 0.96773 0.70008 0.0
O810 O 0.41588 0.91379 0.70453 0.0
O811 O 0.41784 0.93859 0.70988 0.0
Co812 Co 0.08938 0.41864 0.68719 0.0
O813 O 0.08811 0.39678 0.68103 0.0
O814 O 0.09756 0.41555 0.66611 0.0
C815 C 0.0983 0.41433 0.71205 0.0
O816 O 0.09289 0.44239 0.6889 0.0
Co817 Co 0.0704 0.43273 0.71483 0.0
O818 O 0.08233 0.45235 0.71081 0.0
C819 C 0.05471 0.42368 0.68538 0.0
C820 C 0.09382 0.40087 0.66754 0.0
C821 C 0.09024 0.45395 0.69827 0.0
O822 O 0.06793 0.42245 0.67833 0.0
O823 O 0.05338 0.42588 0.70014 0.0
O824 O 0.10804 0.41458 0.70031 0.0
O825 O 0.08385 0.41581 0.70831 0.0
Co826 Co 0.59386 0.09264 0.68954 0.0
O827 O 0.615 0.09296 0.6811 0.0
O828 O 0.59413 0.10131 0.66852 0.0
C829 C 0.5999 0.10161 0.71391 0.0
O830 O 0.57025 0.09465 0.69392 0.0
Co831 Co 0.58455 0.07197 0.718 0.0
O832 O 0.56408 0.08295 0.71665 0.0
C833 C 0.59188 0.05761 0.68753 0.0
C834 C 0.60908 0.09857 0.66828 0.0
C835 C 0.56031 0.09113 0.70475 0.0
O836 O 0.59074 0.07099 0.68072 0.0
O837 O 0.59162 0.05591 0.70241 0.0
O838 O 0.59787 0.11144 0.70243 0.0
O839 O 0.59928 0.08711 0.71006 0.0
Co840 Co 0.9261 0.4222 0.33047 0.0
O841 O 0.92702 0.40008 0.33565 0.0
O842 O 0.91786 0.41828 0.3514 0.0
C843 C 0.91711 0.41881 0.30555 0.0
O844 O 0.92295 0.44609 0.32977 0.0
Co845 Co 0.94505 0.43726 0.30337 0.0
O846 O 0.9334 0.45684 0.30816 0.0
C847 C 0.96083 0.42635 0.33218 0.0
C848 C 0.92131 0.40361 0.34928 0.0
C849 C 0.92564 0.45801 0.32084 0.0
O850 O 0.94767 0.42523 0.33937 0.0
O851 O 0.96202 0.4292 0.31751 0.0
O852 O 0.90736 0.41888 0.31727 0.0
O853 O 0.93157 0.42012 0.30928 0.0
Co854 Co 0.59492 0.92918 0.3284 0.0
O855 O 0.61663 0.92864 0.33581 0.0
O856 O 0.59609 0.92223 0.34994 0.0
C857 C 0.59936 0.91809 0.30446 0.0
O858 O 0.57101 0.92757 0.32622 0.0
Co859 Co 0.58248 0.94629 0.299 0.0
O860 O 0.56178 0.93647 0.30337 0.0
C861 C 0.594 0.964 0.32649 0.0
C862 C 0.61112 0.92419 0.3493 0.0
C863 C 0.55963 0.92995 0.3166 0.0
O864 O 0.5932 0.95172 0.3352 0.0
O865 O 0.59194 0.96371 0.31166 0.0
O866 O 0.59765 0.90928 0.31681 0.0
O867 O 0.59883 0.93286 0.30704 0.0
Co868 Co 0.08989 0.59778 0.32853 0.0
O869 O 0.08858 0.6195 0.33498 0.0
O870 O 0.09816 0.60073 0.34974 0.0
C871 C 0.09876 0.60273 0.30373 0.0
O872 O 0.09335 0.57395 0.32596 0.0
Co873 Co 0.07003 0.58536 0.30062 0.0
O874 O 0.08253 0.56593 0.30333 0.0
C875 C 0.0551 0.59322 0.33073 0.0
C876 C 0.09435 0.61542 0.3484 0.0
C877 C 0.09059 0.56326 0.31559 0.0
O878 O 0.06848 0.59381 0.33751 0.0
O879 O 0.05339 0.59177 0.31592 0.0
O880 O 0.10852 0.60215 0.31541 0.0
O881 O 0.08433 0.60131 0.30756 0.0
Co882 Co 0.41972 0.09277 0.32838 0.0
O883 O 0.39764 0.09167 0.33343 0.0
O884 O 0.41577 0.10054 0.34946 0.0
C885 C 0.41636 0.10244 0.30377 0.0
O886 O 0.44356 0.09601 0.32771 0.0
Co887 Co 0.43467 0.07446 0.30081 0.0
O888 O 0.45417 0.08617 0.30578 0.0
C889 C 0.42381 0.05798 0.32927 0.0
C890 C 0.40112 0.09715 0.34716 0.0
C891 C 0.4554 0.09362 0.31862 0.0
O892 O 0.42275 0.07097 0.33677 0.0
O893 O 0.42662 0.05714 0.31458 0.0
O894 O 0.41642 0.11187 0.31573 0.0
O895 O 0.41763 0.08785 0.3071 0.0
Co896 Co 0.68494 0.92612 0.59428 0.0
O897 O 0.6773 0.92621 0.61591 0.0
O898 O 0.66411 0.91725 0.59573 0.0
C899 C 0.70985 0.91765 0.59935 0.0
O900 O 0.68773 0.92363 0.5705 0.0
Co901 Co 0.71249 0.9461 0.58174 0.0
O902 O 0.70933 0.93536 0.56129 0.0
C903 C 0.68251 0.9609 0.59058 0.0
C904 C 0.66428 0.92039 0.61059 0.0
C905 C 0.69711 0.9271 0.55916 0.0
O906 O 0.67568 0.94751 0.59096 0.0
O907 O 0.6973 0.96258 0.5889 0.0
O908 O 0.69838 0.90766 0.59819 0.0
O909 O 0.70582 0.93208 0.59825 0.0
Co910 Co 0.68403 0.09307 0.42346 0.0
O911 O 0.67651 0.09284 0.40189 0.0
O912 O 0.66306 0.10142 0.42214 0.0
C913 C 0.70866 0.10218 0.41847 0.0
O914 O 0.68667 0.09557 0.44713 0.0
Co915 Co 0.71204 0.07385 0.43608 0.0
O916 O 0.70836 0.08432 0.45659 0.0
C917 C 0.68257 0.05828 0.42686 0.0
C918 C 0.66337 0.09833 0.40728 0.0
C919 C 0.69594 0.09229 0.45855 0.0
O920 O 0.67533 0.07144 0.42668 0.0
O921 O 0.69739 0.05705 0.42854 0.0
O922 O 0.69697 0.11189 0.41963 0.0
O923 O 0.70501 0.08764 0.41954 0.0
Co924 Co 0.93187 0.68739 0.42448 0.0
O925 O 0.93179 0.68019 0.40273 0.0
O926 O 0.92078 0.66776 0.42245 0.0
C927 C 0.92684 0.71322 0.41911 0.0
O928 O 0.92887 0.68993 0.44829 0.0
Co929 Co 0.95365 0.71273 0.43874 0.0
O930 O 0.94185 0.71024 0.45862 0.0
C931 C 0.96594 0.68246 0.42705 0.0
C932 C 0.92434 0.66785 0.40769 0.0
C933 C 0.93253 0.69871 0.46003 0.0
O934 O 0.95231 0.6761 0.42778 0.0
O935 O 0.96834 0.69709 0.42921 0.0
O936 O 0.91531 0.70323 0.41986 0.0
O937 O 0.94038 0.70725 0.42128 0.0
Co938 Co 0.32974 0.9272 0.42166 0.0
O939 O 0.33784 0.92661 0.4003 0.0
O940 O 0.35083 0.91868 0.42105 0.0
C941 C 0.30512 0.91804 0.41641 0.0
O942 O 0.32588 0.92555 0.44543 0.0
Co943 Co 0.30144 0.94796 0.43123 0.0
O944 O 0.30334 0.93739 0.45191 0.0
C945 C 0.3318 0.96229 0.42343 0.0
C946 C 0.35083 0.92124 0.40605 0.0
C947 C 0.31532 0.9293 0.45557 0.0
O948 O 0.33859 0.94891 0.42436 0.0
O949 O 0.31695 0.96402 0.42394 0.0
O950 O 0.31671 0.90831 0.41823 0.0
O951 O 0.30901 0.93254 0.41663 0.0
Co952 Co 0.08968 0.33033 0.41972 0.0
O953 O 0.09004 0.33964 0.39885 0.0
O954 O 0.09907 0.35108 0.42006 0.0
C955 C 0.09754 0.30578 0.41256 0.0
O956 O 0.09181 0.32504 0.44318 0.0
Co957 Co 0.06818 0.3022 0.42832 0.0
O958 O 0.0791 0.30272 0.44885 0.0
C959 C 0.05482 0.3334 0.42225 0.0
C960 C 0.09612 0.35205 0.40517 0.0
C961 C 0.08778 0.31416 0.4529 0.0
O962 O 0.06839 0.33977 0.42353 0.0
O963 O 0.05269 0.31858 0.42186 0.0
O964 O 0.1079 0.31672 0.41487 0.0
O965 O 0.08329 0.31024 0.41365 0.0
Co966 Co 0.33115 0.09295 0.59504 0.0
O967 O 0.33933 0.09339 0.61637 0.0
O968 O 0.35208 0.10148 0.59545 0.0
C969 C 0.30666 0.10204 0.60044 0.0
O970 O 0.32776 0.09492 0.57143 0.0
Co971 Co 0.30291 0.07327 0.58373 0.0
O972 O 0.30577 0.0835 0.56293 0.0
C973 C 0.33274 0.058 0.59219 0.0
C974 C 0.35223 0.09889 0.61041 0.0
C975 C 0.31809 0.09149 0.5604 0.0
O976 O 0.33986 0.07126 0.5921 0.0
O977 O 0.31789 0.05663 0.59092 0.0
O978 O 0.31827 0.11179 0.59871 0.0
O979 O 0.31034 0.08749 0.59971 0.0
Co980 Co 0.92927 0.32886 0.59857 0.0
O981 O 0.9293 0.33505 0.6205 0.0
O982 O 0.92236 0.35041 0.60101 0.0
C983 C 0.9183 0.3048 0.60243 0.0
O984 O 0.92713 0.32756 0.57464 0.0
Co985 Co 0.94627 0.29988 0.58492 0.0
O986 O 0.93583 0.3049 0.5647 0.0
C987 C 0.96405 0.32716 0.5968 0.0
C988 C 0.92469 0.34882 0.61593 0.0
C989 C 0.92928 0.31817 0.56301 0.0
O990 O 0.95173 0.33579 0.59654 0.0
O991 O 0.96381 0.31238 0.59435 0.0
O992 O 0.90943 0.31716 0.60135 0.0
O993 O 0.93304 0.30743 0.60162 0.0
Co994 Co 0.09308 0.6869 0.59794 0.0
O995 O 0.09176 0.68146 0.61995 0.0
O996 O 0.10144 0.66598 0.60178 0.0
C997 C 0.1018 0.71181 0.60185 0.0
O998 O 0.09669 0.68814 0.57411 0.0
Co999 Co 0.07399 0.7141 0.58319 0.0
O1000 O 0.0862 0.70994 0.56382 0.0
C1001 C 0.05845 0.68489 0.59343 0.0
C1002 C 0.09768 0.66794 0.6164 0.0
C1003 C 0.09416 0.69742 0.56242 0.0
O1004 O 0.07166 0.67781 0.59442 0.0
O1005 O 0.05713 0.6996 0.59089 0.0
O1006 O 0.11164 0.70018 0.60178 0.0
O1007 O 0.08738 0.70796 0.60028 0.0
Co1008 Co 0.4456 0.33516 0.07812 0.0
O1009 O 0.4368 0.35426 0.08691 0.0
O1010 O 0.42358 0.33248 0.0829 0.0
C1011 C 0.46842 0.33418 0.09178 0.0
O1012 O 0.45011 0.31309 0.06989 0.0
Co1013 Co 0.47667 0.33577 0.05915 0.0
O1014 O 0.47393 0.31263 0.05877 0.0
C1015 C 0.44818 0.34875 0.04528 0.0
C1016 C 0.42341 0.34706 0.08726 0.0
C1017 C 0.46144 0.30574 0.0632 0.0
O1018 O 0.44 0.34257 0.05634 0.0
O1019 O 0.46313 0.34903 0.04541 0.0
O1020 O 0.45553 0.32906 0.09811 0.0
O1021 O 0.46665 0.34119 0.07861 0.0
Co1022 Co 0.6803 0.44908 0.0797 0.0
O1023 O 0.66084 0.43988 0.0871 0.0
O1024 O 0.68378 0.4282 0.08813 0.0
C1025 C 0.67722 0.47369 0.08953 0.0
O1026 O 0.70286 0.45452 0.07352 0.0
Co1027 Co 0.67965 0.47671 0.05591 0.0
O1028 O 0.70276 0.4762 0.05857 0.0
C1029 C 0.67176 0.44505 0.0454 0.0
C1030 C 0.66873 0.42727 0.09023 0.0
C1031 C 0.71005 0.46529 0.06571 0.0
O1032 O 0.67669 0.43949 0.05848 0.0
O1033 O 0.67024 0.45971 0.0428 0.0
O1034 O 0.6825 0.46253 0.09847 0.0
O1035 O 0.67255 0.46924 0.07597 0.0
Co1036 Co 0.56587 0.67803 0.08237 0.0
O1037 O 0.57169 0.65681 0.08795 0.0
O1038 O 0.58677 0.67745 0.09141 0.0
C1039 C 0.54085 0.67754 0.09157 0.0
O1040 O 0.56413 0.70164 0.07829 0.0
Co1041 Co 0.5393 0.68381 0.0582 0.0
O1042 O 0.54415 0.70629 0.06181 0.0
C1043 C 0.56949 0.67161 0.04765 0.0
C1044 C 0.58523 0.66231 0.09208 0.0
C1045 C 0.5555 0.71106 0.07024 0.0
O1046 O 0.57544 0.67496 0.06104 0.0
O1047 O 0.55483 0.67241 0.04483 0.0
O1048 O 0.55239 0.68032 0.10111 0.0
O1049 O 0.54491 0.67376 0.07762 0.0
Co1050 Co 0.33902 0.56828 0.08004 0.0
O1051 O 0.35902 0.5752 0.08805 0.0
O1052 O 0.3377 0.58965 0.08815 0.0
C1053 C 0.33921 0.54375 0.09049 0.0
O1054 O 0.31627 0.56491 0.07291 0.0
Co1055 Co 0.33859 0.54023 0.05667 0.0
O1056 O 0.31557 0.54293 0.0584 0.0
C1057 C 0.34912 0.57104 0.04589 0.0
C1058 C 0.35265 0.58865 0.09094 0.0
C1059 C 0.30876 0.55453 0.06488 0.0
O1060 O 0.34439 0.57712 0.05881 0.0
O1061 O 0.34954 0.55627 0.04349 0.0
O1062 O 0.33471 0.55556 0.09898 0.0
O1063 O 0.34485 0.5474 0.07706 0.0
Co1064 Co 0.4503 0.68105 0.93774 0.0
O1065 O 0.44102 0.66205 0.9295 0.0
O1066 O 0.42943 0.68511 0.9298 0.0
C1067 C 0.47463 0.67854 0.92736 0.0
O1068 O 0.45589 0.70318 0.94495 0.0
Co1069 Co 0.47811 0.67919 0.96112 0.0
O1070 O 0.47766 0.70243 0.95966 0.0
C1071 C 0.44648 0.67151 0.97192 0.0
C1072 C 0.42846 0.67019 0.9269 0.0
C1073 C 0.46668 0.71 0.95298 0.0
O1074 O 0.44092 0.67646 0.95886 0.0
O1075 O 0.46113 0.67003 0.9745 0.0
O1076 O 0.46333 0.68424 0.9189 0.0
O1077 O 0.47049 0.6731 0.94076 0.0
Co1078 Co 0.33441 0.44657 0.93608 0.0
O1079 O 0.35339 0.43774 0.92742 0.0
O1080 O 0.33105 0.42501 0.92985 0.0
C1081 C 0.33461 0.47024 0.92404 0.0
O1082 O 0.31246 0.45154 0.94409 0.0
Co1083 Co 0.33613 0.47593 0.95749 0.0
O1084 O 0.3129 0.47446 0.957 0.0
C1085 C 0.34584 0.44552 0.96993 0.0
C1086 C 0.34581 0.42461 0.92619 0.0
C1087 C 0.30554 0.4627 0.95149 0.0
O1088 O 0.34062 0.43894 0.95747 0.0
O1089 O 0.34665 0.46038 0.97155 0.0
O1090 O 0.32936 0.45797 0.91668 0.0
O1091 O 0.34128 0.46737 0.93722 0.0
Co1092 Co 0.5728 0.33504 0.93512 0.0
O1093 O 0.57797 0.35628 0.929 0.0
O1094 O 0.594 0.33622 0.92682 0.0
C1095 C 0.54828 0.33396 0.92481 0.0
O1096 O 0.57165 0.3115 0.93979 0.0
Co1097 Co 0.54517 0.32905 0.95818 0.0
O1098 O 0.55035 0.30666 0.95452 0.0
C1099 C 0.57441 0.34254 0.96984 0.0
C1100 C 0.59182 0.35122 0.92537 0.0
C1101 C 0.56241 0.30201 0.94706 0.0
O1102 O 0.5812 0.33915 0.95683 0.0
O1103 O 0.55965 0.34132 0.97192 0.0
O1104 O 0.56039 0.33144 0.91591 0.0
O1105 O 0.5515 0.33855 0.93873 0.0
Co1106 Co 0.68263 0.5669 0.93755 0.0
O1107 O 0.66242 0.5753 0.93093 0.0
O1108 O 0.68461 0.5884 0.93069 0.0
C1109 C 0.68111 0.54299 0.92583 0.0
O1110 O 0.70573 0.5632 0.94278 0.0
Co1111 Co 0.68636 0.53755 0.95863 0.0
O1112 O 0.70928 0.54116 0.95662 0.0
C1113 C 0.67292 0.56644 0.97142 0.0
C1114 C 0.66959 0.58853 0.92853 0.0
C1115 C 0.71468 0.55328 0.94978 0.0
O1116 O 0.67821 0.57417 0.95961 0.0
O1117 O 0.67322 0.55149 0.97214 0.0
O1118 O 0.68546 0.55518 0.91774 0.0
O1119 O 0.67676 0.54587 0.9399 0.0
Co1120 Co 0.08148 0.449 0.33644 0.0
O1121 O 0.08863 0.4397 0.35599 0.0
O1122 O 0.0894 0.42791 0.3331 0.0
C1123 C 0.09193 0.47344 0.33938 0.0
O1124 O 0.07544 0.45447 0.3138 0.0
Co1125 Co 0.05843 0.47722 0.3371 0.0
O1126 O 0.06116 0.47655 0.31399 0.0
C1127 C 0.04711 0.44585 0.34511 0.0
C1128 C 0.09147 0.42699 0.34816 0.0
C1129 C 0.06793 0.46545 0.30665 0.0
O1130 O 0.06 0.43994 0.3401 0.0
O1131 O 0.04494 0.46058 0.34666 0.0
O1132 O 0.10059 0.46204 0.33415 0.0
O1133 O 0.0783 0.46929 0.34409 0.0
Co1134 Co 0.5697 0.08139 0.33406 0.0
O1135 O 0.57806 0.08816 0.35419 0.0
O1136 O 0.59162 0.0868 0.33228 0.0
C1137 C 0.54664 0.0947 0.3343 0.0
O1138 O 0.56596 0.07582 0.31111 0.0
Co1139 Co 0.53908 0.06214 0.33066 0.0
O1140 O 0.5425 0.06454 0.30772 0.0
C1141 C 0.56709 0.04744 0.34397 0.0
C1142 C 0.59152 0.08959 0.34721 0.0
C1143 C 0.55524 0.07007 0.30224 0.0
O1144 O 0.5755 0.059 0.33916 0.0
O1145 O 0.55215 0.04745 0.34341 0.0
O1146 O 0.55951 0.10177 0.33018 0.0
O1147 O 0.54846 0.08072 0.33952 0.0
Co1148 Co 0.93448 0.5733 0.33574 0.0
O1149 O 0.92691 0.5825 0.35512 0.0
O1150 O 0.92846 0.595 0.33259 0.0
C1151 C 0.92216 0.54967 0.33675 0.0
O1152 O 0.9413 0.56805 0.31337 0.0
Co1153 Co 0.9555 0.5436 0.33678 0.0
O1154 O 0.95377 0.54489 0.31359 0.0
C1155 C 0.96881 0.57388 0.34561 0.0
C1156 C 0.92559 0.59562 0.34753 0.0
C1157 C 0.94816 0.55665 0.30627 0.0
O1158 O 0.95629 0.58065 0.3408 0.0
O1159 O 0.97018 0.55901 0.3466 0.0
O1160 O 0.91471 0.56201 0.33178 0.0
O1161 O 0.93565 0.5525 0.34274 0.0
Co1162 Co 0.44294 0.93635 0.33055 0.0
O1163 O 0.43531 0.92965 0.35103 0.0
O1164 O 0.42163 0.92856 0.32924 0.0
C1165 C 0.46743 0.92573 0.33117 0.0
O1166 O 0.44629 0.94169 0.30737 0.0
Co1167 Co 0.47122 0.95909 0.32744 0.0
O1168 O 0.46808 0.95616 0.30455 0.0
C1169 C 0.44115 0.97085 0.33884 0.0
C1170 C 0.42197 0.92672 0.34435 0.0
C1171 C 0.45634 0.949 0.29877 0.0
O1172 O 0.43453 0.95803 0.33455 0.0
O1173 O 0.45598 0.97277 0.33882 0.0
O1174 O 0.45543 0.91709 0.32743 0.0
O1175 O 0.46397 0.93951 0.33605 0.0
Co1176 Co 0.08408 0.57055 0.68468 0.0
O1177 O 0.08983 0.57595 0.66341 0.0
O1178 O 0.09246 0.59178 0.68358 0.0
C1179 C 0.09424 0.5459 0.68519 0.0
O1180 O 0.07984 0.56912 0.70832 0.0
Co1181 Co 0.06089 0.54306 0.69069 0.0
O1182 O 0.06519 0.54773 0.71307 0.0
C1183 C 0.0492 0.57269 0.67801 0.0
C1184 C 0.0936 0.58974 0.66853 0.0
C1185 C 0.07277 0.5597 0.71781 0.0
O1186 O 0.0624 0.57921 0.68108 0.0
O1187 O 0.04688 0.55795 0.6792 0.0
O1188 O 0.10324 0.55793 0.68773 0.0
O1189 O 0.08025 0.54928 0.68094 0.0
Co1190 Co 0.44666 0.0858 0.68249 0.0
O1191 O 0.43831 0.09203 0.66221 0.0
O1192 O 0.42548 0.09347 0.68455 0.0
C1193 C 0.47096 0.0965 0.68052 0.0
O1194 O 0.4506 0.08107 0.7056 0.0
Co1195 Co 0.4751 0.06342 0.68587 0.0
O1196 O 0.47239 0.06677 0.70876 0.0
C1197 C 0.44505 0.05132 0.67459 0.0
C1198 C 0.42525 0.09502 0.66943 0.0
C1199 C 0.46067 0.0741 0.71437 0.0
O1200 O 0.4383 0.064 0.67907 0.0
O1201 O 0.45991 0.04961 0.67454 0.0
O1202 O 0.45913 0.10521 0.6846 0.0
O1203 O 0.46746 0.08248 0.67641 0.0
Co1204 Co 0.93452 0.45028 0.67811 0.0
O1205 O 0.92909 0.4438 0.65705 0.0
O1206 O 0.92591 0.42916 0.67808 0.0
C1207 C 0.9249 0.47515 0.67734 0.0
O1208 O 0.9384 0.45272 0.7016 0.0
Co1209 Co 0.9582 0.47755 0.68333 0.0
O1210 O 0.9537 0.47372 0.70586 0.0
C1211 C 0.9694 0.44715 0.67218 0.0
C1212 C 0.92521 0.4303 0.66291 0.0
C1213 C 0.94567 0.46216 0.71086 0.0
O1214 O 0.95603 0.44107 0.67537 0.0
O1215 O 0.97203 0.46188 0.6727 0.0
O1216 O 0.91555 0.46345 0.68014 0.0
O1217 O 0.93889 0.47129 0.67351 0.0
Co1218 Co 0.57001 0.93693 0.68287 0.0
O1219 O 0.57885 0.92993 0.66306 0.0
O1220 O 0.59122 0.92909 0.68562 0.0
C1221 C 0.54557 0.92637 0.68031 0.0
O1222 O 0.56506 0.9428 0.70571 0.0
Co1223 Co 0.54162 0.9598 0.68311 0.0
O1224 O 0.54296 0.95704 0.70618 0.0
C1225 C 0.57263 0.97133 0.6741 0.0
C1226 C 0.59176 0.92708 0.67054 0.0
C1227 C 0.55427 0.95026 0.71319 0.0
O1228 O 0.57881 0.95853 0.67906 0.0
O1229 O 0.55785 0.97332 0.67293 0.0
O1230 O 0.55709 0.91772 0.68528 0.0
O1231 O 0.54955 0.94008 0.6757 0.0
Co1232 Co 0.33287 0.08302 0.44403 0.0
O1233 O 0.35383 0.08989 0.4389 0.0
O1234 O 0.33379 0.09102 0.4227 0.0
C1235 C 0.33122 0.09356 0.46838 0.0
O1236 O 0.30957 0.07744 0.44516 0.0
Co1237 Co 0.32767 0.05996 0.47181 0.0
O1238 O 0.30519 0.06254 0.46647 0.0
C1239 C 0.34172 0.04859 0.44272 0.0
C1240 C 0.34871 0.09305 0.42495 0.0
C1241 C 0.30032 0.06981 0.45436 0.0
O1242 O 0.33789 0.06144 0.43589 0.0
O1243 O 0.34044 0.0465 0.45749 0.0
O1244 O 0.32845 0.10222 0.45614 0.0
O1245 O 0.33638 0.07978 0.4654 0.0
Co1246 Co 0.33981 0.93674 0.56951 0.0
O1247 O 0.36072 0.93118 0.57627 0.0
O1248 O 0.3397 0.92845 0.59089 0.0
C1249 C 0.34107 0.92646 0.5449 0.0
O1250 O 0.3163 0.94094 0.56634 0.0
Co1251 Co 0.33623 0.95988 0.54141 0.0
O1252 O 0.31377 0.95434 0.54377 0.0
C1253 C 0.34628 0.9717 0.57195 0.0
C1254 C 0.35486 0.92744 0.58976 0.0
C1255 C 0.30782 0.94725 0.55552 0.0
O1256 O 0.3427 0.9585 0.57826 0.0
O1257 O 0.34633 0.97397 0.55715 0.0
O1258 O 0.33778 0.91743 0.55674 0.0
O1259 O 0.34501 0.94046 0.54857 0.0
Co1260 Co 0.08028 0.3371 0.56665 0.0
O1261 O 0.08578 0.35827 0.5729 0.0
O1262 O 0.08748 0.33767 0.58829 0.0
C1263 C 0.09172 0.33725 0.54253 0.0
O1264 O 0.07627 0.31345 0.56475 0.0
Co1265 Co 0.059 0.33063 0.53777 0.0
O1266 O 0.06326 0.30825 0.5425 0.0
C1267 C 0.04586 0.34488 0.56611 0.0
C1268 C 0.08884 0.35274 0.58673 0.0
C1269 C 0.07013 0.30373 0.55496 0.0
O1270 O 0.05808 0.34079 0.57392 0.0
O1271 O 0.04492 0.34367 0.55122 0.0
O1272 O 0.10016 0.33449 0.55492 0.0
O1273 O 0.0775 0.34108 0.54529 0.0
Co1274 Co 0.68001 0.08171 0.57369 0.0
O1275 O 0.66089 0.09023 0.58254 0.0
O1276 O 0.68308 0.08764 0.59541 0.0
C1277 C 0.68006 0.09423 0.55024 0.0
O1278 O 0.70207 0.0738 0.56868 0.0
Co1279 Co 0.67839 0.06094 0.54382 0.0
O1280 O 0.70159 0.06128 0.54553 0.0
C1281 C 0.66865 0.04776 0.57392 0.0
C1282 C 0.66834 0.09139 0.59574 0.0
C1283 C 0.70897 0.06654 0.55739 0.0
O1284 O 0.67379 0.06008 0.58086 0.0
O1285 O 0.66782 0.04655 0.55903 0.0
O1286 O 0.68517 0.10134 0.5627 0.0
O1287 O 0.67333 0.08101 0.55281 0.0
Co1288 Co 0.93779 0.68547 0.57578 0.0
O1289 O 0.92954 0.6661 0.58456 0.0
O1290 O 0.93129 0.68835 0.59743 0.0
C1291 C 0.92595 0.685 0.55186 0.0
O1292 O 0.94531 0.70782 0.5709 0.0
Co1293 Co 0.95935 0.68414 0.54642 0.0
O1294 O 0.95844 0.70735 0.54807 0.0
C1295 C 0.97158 0.67411 0.57675 0.0
C1296 C 0.92803 0.67347 0.59777 0.0
C1297 C 0.95276 0.71477 0.55972 0.0
O1298 O 0.95932 0.67968 0.58344 0.0
O1299 O 0.97299 0.67305 0.56189 0.0
O1300 O 0.91836 0.69007 0.56407 0.0
O1301 O 0.93921 0.67869 0.55496 0.0
Co1302 Co 0.68408 0.93727 0.44319 0.0
O1303 O 0.66476 0.92902 0.43444 0.0
O1304 O 0.68687 0.93129 0.42139 0.0
C1305 C 0.68392 0.92489 0.46687 0.0
O1306 O 0.70633 0.94495 0.44796 0.0
Co1307 Co 0.68279 0.9582 0.47299 0.0
O1308 O 0.70597 0.9576 0.47104 0.0
C1309 C 0.67245 0.97101 0.44299 0.0
C1310 C 0.67203 0.92791 0.42113 0.0
C1311 C 0.71331 0.95226 0.45918 0.0
O1312 O 0.67801 0.95891 0.43602 0.0
O1313 O 0.67155 0.97214 0.45788 0.0
O1314 O 0.68898 0.91762 0.45446 0.0
O1315 O 0.67747 0.93818 0.46411 0.0
Co1316 Co 0.08149 0.68165 0.44822 0.0
O1317 O 0.08828 0.6607 0.44243 0.0
O1318 O 0.08677 0.68049 0.42601 0.0
C1319 C 0.09508 0.68361 0.47112 0.0
O1320 O 0.07567 0.70509 0.44948 0.0
Co1321 Co 0.06275 0.68803 0.4788 0.0
O1322 O 0.06549 0.71044 0.47312 0.0
C1323 C 0.04834 0.67061 0.45289 0.0
C1324 C 0.08963 0.66569 0.42812 0.0
C1325 C 0.07039 0.71488 0.45973 0.0
O1326 O 0.05912 0.67546 0.4435 0.0
O1327 O 0.04888 0.67279 0.46769 0.0
O1328 O 0.102 0.68668 0.45787 0.0
O1329 O 0.08107 0.67845 0.46987 0.0
Co1330 Co 0.9347 0.33532 0.44649 0.0
O1331 O 0.9285 0.35654 0.44136 0.0
O1332 O 0.9262 0.33646 0.42536 0.0
C1333 C 0.92483 0.33416 0.47125 0.0
O1334 O 0.93933 0.31176 0.44752 0.0
Co1335 Co 0.95828 0.32924 0.47357 0.0
O1336 O 0.9549 0.30684 0.4682 0.0
C1337 C 0.96925 0.34325 0.4443 0.0
C1338 C 0.92484 0.35147 0.42751 0.0
C1339 C 0.94697 0.30225 0.45642 0.0
O1340 O 0.95622 0.33959 0.43774 0.0
O1341 O 0.9716 0.34192 0.45902 0.0
O1342 O 0.91573 0.33166 0.45929 0.0
O1343 O 0.93869 0.33878 0.46777 0.0
H1344 H 0.14191 0.1622 0.42579 0.0
H1345 H 0.09816 0.13873 0.41692 0.0
H1346 H 0.11161 0.11362 0.4157 0.0
H1347 H 0.13557 0.09784 0.41895 0.0
H1348 H 0.17953 0.12123 0.42684 0.0
H1349 H 0.16635 0.14658 0.42646 0.0
C1350 C 0.13534 0.15162 0.4234 0.0
C1351 C 0.11896 0.15247 0.42155 0.0
C1352 C 0.14322 0.13706 0.42258 0.0
C1353 C 0.11073 0.13856 0.4184 0.0
C1354 C 0.11843 0.1241 0.41774 0.0
C1355 C 0.14232 0.10849 0.42036 0.0
C1356 C 0.15858 0.10751 0.42297 0.0
C1357 C 0.13464 0.12314 0.42007 0.0
C1358 C 0.16705 0.12152 0.42474 0.0
C1359 C 0.15948 0.13609 0.42462 0.0
H1360 H 0.87685 0.11008 0.4215 0.0
H1361 H 0.84559 0.14866 0.43021 0.0
H1362 H 0.86766 0.1668 0.4303 0.0
H1363 H 0.89623 0.17168 0.4296 0.0
H1364 H 0.92745 0.13291 0.42164 0.0
H1365 H 0.90522 0.11515 0.41944 0.0
C1366 C 0.87482 0.12248 0.42325 0.0
C1367 C 0.85946 0.12789 0.42587 0.0
C1368 C 0.88768 0.13293 0.42347 0.0
C1369 C 0.85721 0.14405 0.42818 0.0
C1370 C 0.86988 0.15449 0.42826 0.0
C1371 C 0.89817 0.1594 0.42712 0.0
C1372 C 0.91362 0.15374 0.42577 0.0
C1373 C 0.88523 0.14907 0.42614 0.0
C1374 C 0.91578 0.13769 0.42275 0.0
C1375 C 0.90303 0.12746 0.42153 0.0
H1376 H 0.84778 0.90043 0.4257 0.0
H1377 H 0.88704 0.93194 0.4229 0.0
H1378 H 0.90493 0.90972 0.42113 0.0
H1379 H 0.90973 0.88112 0.42211 0.0
H1380 H 0.87041 0.84976 0.42604 0.0
H1381 H 0.85246 0.87193 0.42556 0.0
C1382 C 0.86022 0.90246 0.42445 0.0
C1383 C 0.86597 0.91795 0.42438 0.0
C1384 C 0.87056 0.88955 0.42378 0.0
C1385 C 0.88221 0.92023 0.42296 0.0
C1386 C 0.8925 0.90748 0.422 0.0
C1387 C 0.89723 0.87912 0.42268 0.0
C1388 C 0.89151 0.86367 0.42411 0.0
C1389 C 0.88686 0.89205 0.42265 0.0
C1390 C 0.87523 0.86143 0.42496 0.0
C1391 C 0.8649 0.87415 0.4247 0.0
H1392 H 0.11836 0.84795 0.43078 0.0
H1393 H 0.08587 0.88558 0.42243 0.0
H1394 H 0.10756 0.90382 0.41884 0.0
H1395 H 0.13593 0.90968 0.41963 0.0
H1396 H 0.16836 0.87218 0.42876 0.0
H1397 H 0.14677 0.85357 0.43035 0.0
C1398 C 0.11601 0.86009 0.42796 0.0
C1399 C 0.10036 0.86526 0.42687 0.0
C1400 C 0.12864 0.8707 0.42613 0.0
C1401 C 0.09769 0.88114 0.42335 0.0
C1402 C 0.11014 0.89166 0.42132 0.0
C1403 C 0.13831 0.8974 0.42177 0.0
C1404 C 0.15389 0.89245 0.42406 0.0
C1405 C 0.1257 0.88666 0.42291 0.0
C1406 C 0.15659 0.87645 0.42696 0.0
C1407 C 0.14418 0.86573 0.4279 0.0
H1408 H 0.172 0.89601 0.59548 0.0
H1409 H 0.13462 0.92962 0.59898 0.0
H1410 H 0.11549 0.90842 0.60054 0.0
H1411 H 0.10906 0.88015 0.59914 0.0
H1412 H 0.14655 0.84673 0.59474 0.0
H1413 H 0.16572 0.86784 0.59539 0.0
C1414 C 0.1597 0.89872 0.59683 0.0
C1415 C 0.15485 0.91449 0.59714 0.0
C1416 C 0.14865 0.8864 0.59744 0.0
C1417 C 0.13878 0.91766 0.59873 0.0
C1418 C 0.12777 0.9055 0.59957 0.0
C1419 C 0.12142 0.87747 0.59851 0.0
C1420 C 0.12626 0.86177 0.59686 0.0
C1421 C 0.13252 0.8898 0.59867 0.0
C1422 C 0.14239 0.85863 0.59597 0.0
C1423 C 0.15342 0.87074 0.59633 0.0
H1424 H 0.12164 0.17281 0.58571 0.0
H1425 H 0.08935 0.13682 0.60019 0.0
H1426 H 0.111 0.11869 0.60421 0.0
H1427 H 0.13907 0.11233 0.60207 0.0
H1428 H 0.17137 0.14812 0.58715 0.0
H1429 H 0.14995 0.16686 0.585 0.0
C1430 C 0.11934 0.16107 0.58994 0.0
C1431 C 0.10378 0.15627 0.59261 0.0
C1432 C 0.13193 0.15053 0.59209 0.0
C1433 C 0.10113 0.14092 0.598 0.0
C1434 C 0.11355 0.13048 0.60029 0.0
C1435 C 0.14147 0.12428 0.59854 0.0
C1436 C 0.15691 0.12871 0.59477 0.0
C1437 C 0.12899 0.13505 0.59714 0.0
C1438 C 0.15968 0.14428 0.59013 0.0
C1439 C 0.14738 0.15505 0.58886 0.0
H1440 H 0.87392 0.16244 0.59544 0.0
H1441 H 0.91626 0.13703 0.60558 0.0
H1442 H 0.90194 0.11236 0.60471 0.0
H1443 H 0.87756 0.09762 0.59955 0.0
H1444 H 0.83509 0.12315 0.59028 0.0
H1445 H 0.84917 0.14785 0.59243 0.0
C1446 C 0.87998 0.15153 0.59763 0.0
C1447 C 0.89621 0.1517 0.60051 0.0
C1448 C 0.87162 0.13725 0.5972 0.0
C1449 C 0.9038 0.13736 0.60336 0.0
C1450 C 0.89561 0.12317 0.60281 0.0
C1451 C 0.87135 0.10858 0.59817 0.0
C1452 C 0.85525 0.1084 0.59468 0.0
C1453 C 0.87955 0.12291 0.59951 0.0
C1454 C 0.84745 0.12281 0.59298 0.0
C1455 C 0.85552 0.13702 0.59416 0.0
H1456 H 0.89819 0.8492 0.59017 0.0
H1457 H 0.92966 0.888 0.59707 0.0
H1458 H 0.90744 0.9056 0.6007 0.0
H1459 H 0.87893 0.91042 0.6005 0.0
H1460 H 0.84747 0.87186 0.59234 0.0
H1461 H 0.86963 0.85389 0.59075 0.0
C1462 C 0.90021 0.86147 0.59266 0.0
C1463 C 0.9157 0.86718 0.59338 0.0
C1464 C 0.88728 0.87167 0.59445 0.0
C1465 C 0.91796 0.8832 0.59645 0.0
C1466 C 0.90521 0.89331 0.59851 0.0
C1467 C 0.87689 0.89805 0.59857 0.0
C1468 C 0.86143 0.89257 0.59661 0.0
C1469 C 0.8898 0.88775 0.59734 0.0
C1470 C 0.85914 0.87648 0.59393 0.0
C1471 C 0.87187 0.86616 0.59298 0.0
H1472 H 0.41931 0.11052 0.13554 0.0
H1473 H 0.42384 0.1497 0.16696 0.0
H1474 H 0.42346 0.16777 0.14485 0.0
H1475 H 0.42372 0.17252 0.11636 0.0
H1476 H 0.42022 0.13333 0.08484 0.0
H1477 H 0.41816 0.11541 0.10702 0.0
C1478 C 0.42001 0.12302 0.13756 0.0
C1479 C 0.42163 0.12867 0.15298 0.0
C1480 C 0.42003 0.13344 0.12468 0.0
C1481 C 0.42262 0.14494 0.15529 0.0
C1482 C 0.42242 0.15534 0.14261 0.0
C1483 C 0.42224 0.16009 0.11433 0.0
C1484 C 0.4221 0.15436 0.09886 0.0
C1485 C 0.42139 0.14973 0.12722 0.0
C1486 C 0.42036 0.13814 0.09655 0.0
C1487 C 0.41923 0.12784 0.10927 0.0
H1488 H 0.87648 0.42285 0.16275 0.0
H1489 H 0.91923 0.41662 0.13679 0.0
H1490 H 0.90464 0.41756 0.1122 0.0
H1491 H 0.87976 0.42191 0.09784 0.0
H1492 H 0.83708 0.42751 0.12416 0.0
H1493 H 0.85152 0.42497 0.14857 0.0
C1494 C 0.88261 0.42151 0.15173 0.0
C1495 C 0.899 0.41972 0.15172 0.0
C1496 C 0.87411 0.42204 0.13757 0.0
C1497 C 0.90665 0.41796 0.13725 0.0
C1498 C 0.8983 0.41858 0.12313 0.0
C1499 C 0.87359 0.42239 0.10891 0.0
C1500 C 0.85728 0.42499 0.10902 0.0
C1501 C 0.88203 0.42087 0.12309 0.0
C1502 C 0.84957 0.42554 0.12357 0.0
C1503 C 0.85785 0.42413 0.13762 0.0
H1504 H 0.59126 0.87019 0.16181 0.0
H1505 H 0.59937 0.91352 0.13714 0.0
H1506 H 0.60007 0.89958 0.11237 0.0
H1507 H 0.59675 0.87537 0.0972 0.0
H1508 H 0.58937 0.83175 0.12145 0.0
H1509 H 0.59022 0.84538 0.14659 0.0
C1510 C 0.59334 0.87656 0.15104 0.0
C1511 C 0.59516 0.89298 0.15149 0.0
C1512 C 0.59384 0.86838 0.1366 0.0
C1513 C 0.59789 0.90093 0.13731 0.0
C1514 C 0.59827 0.89296 0.12303 0.0
C1515 C 0.59555 0.86878 0.10798 0.0
C1516 C 0.59297 0.8525 0.10731 0.0
C1517 C 0.59604 0.87672 0.12247 0.0
C1518 C 0.59145 0.84424 0.1215 0.0
C1519 C 0.59184 0.85208 0.13594 0.0
H1520 H 0.14419 0.594 0.1613 0.0
H1521 H 0.10099 0.60018 0.13605 0.0
H1522 H 0.1151 0.59988 0.11131 0.0
H1523 H 0.1396 0.59646 0.09643 0.0
H1524 H 0.18298 0.59113 0.12153 0.0
H1525 H 0.16904 0.59263 0.1464 0.0
C1526 C 0.13788 0.59544 0.1504 0.0
C1527 C 0.12147 0.59704 0.15068 0.0
C1528 C 0.14614 0.59536 0.13602 0.0
C1529 C 0.11358 0.59892 0.13634 0.0
C1530 C 0.12166 0.59872 0.12209 0.0
C1531 C 0.14604 0.59581 0.10733 0.0
C1532 C 0.16237 0.59363 0.10697 0.0
C1533 C 0.13792 0.59674 0.12173 0.0
C1534 C 0.17044 0.59284 0.12132 0.0
C1535 C 0.16245 0.59363 0.13563 0.0
H1536 H 0.42822 0.8733 0.85646 0.0
H1537 H 0.41922 0.91622 0.8814 0.0
H1538 H 0.41896 0.90205 0.90614 0.0
H1539 H 0.42281 0.87764 0.92112 0.0
H1540 H 0.43109 0.83459 0.89619 0.0
H1541 H 0.42997 0.84852 0.87132 0.0
C1542 C 0.42604 0.87953 0.86729 0.0
C1543 C 0.42383 0.89586 0.86697 0.0
C1544 C 0.42583 0.87126 0.88163 0.0
C1545 C 0.42098 0.90367 0.88118 0.0
C1546 C 0.42086 0.89557 0.89542 0.0
C1547 C 0.42419 0.87127 0.91025 0.0
C1548 C 0.4271 0.85506 0.91064 0.0
C1549 C 0.42349 0.87939 0.89585 0.0
C1550 C 0.42882 0.84705 0.89635 0.0
C1551 C 0.42824 0.85503 0.88205 0.0
H1552 H 0.14193 0.42455 0.85431 0.0
H1553 H 0.09856 0.41954 0.87959 0.0
H1554 H 0.11268 0.41902 0.90429 0.0
H1555 H 0.13726 0.42153 0.91913 0.0
H1556 H 0.1808 0.42574 0.89404 0.0
H1557 H 0.16683 0.42485 0.86917 0.0
C1558 C 0.13559 0.42319 0.86521 0.0
C1559 C 0.11914 0.42218 0.86497 0.0
C1560 C 0.14385 0.42278 0.87956 0.0
C1561 C 0.11118 0.42036 0.87929 0.0
C1562 C 0.11927 0.42009 0.89351 0.0
C1563 C 0.14373 0.42204 0.90823 0.0
C1564 C 0.16011 0.42375 0.90858 0.0
C1565 C 0.13559 0.42151 0.89385 0.0
C1566 C 0.16822 0.42438 0.89424 0.0
C1567 C 0.16021 0.42396 0.87994 0.0
H1568 H 0.60718 0.11064 0.88129 0.0
H1569 H 0.59203 0.14647 0.84917 0.0
H1570 H 0.59131 0.1655 0.87044 0.0
H1571 H 0.59308 0.17167 0.89868 0.0
H1572 H 0.60744 0.13554 0.93084 0.0
H1573 H 0.6105 0.1172 0.9092 0.0
C1574 C 0.60391 0.12265 0.87889 0.0
C1575 C 0.59964 0.12702 0.86356 0.0
C1576 C 0.60332 0.13358 0.89129 0.0
C1577 C 0.59536 0.14268 0.86079 0.0
C1578 C 0.59492 0.15363 0.87299 0.0
C1579 C 0.59716 0.15987 0.90092 0.0
C1580 C 0.60003 0.15507 0.91645 0.0
C1581 C 0.59862 0.14918 0.88837 0.0
C1582 C 0.60512 0.13963 0.91907 0.0
C1583 C 0.60683 0.12907 0.90667 0.0
H1584 H 0.87783 0.59709 0.92405 0.0
H1585 H 0.8359 0.58412 0.89931 0.0
H1586 H 0.84947 0.58719 0.87433 0.0
H1587 H 0.87391 0.59197 0.85932 0.0
H1588 H 0.91551 0.6057 0.8843 0.0
H1589 H 0.90149 0.60404 0.90904 0.0
C1590 C 0.87159 0.59511 0.9132 0.0
C1591 C 0.85582 0.59031 0.91369 0.0
C1592 C 0.87949 0.59696 0.89876 0.0
C1593 C 0.84799 0.58786 0.89941 0.0
C1594 C 0.8558 0.58955 0.88505 0.0
C1595 C 0.87986 0.59479 0.87015 0.0
C1596 C 0.89585 0.5989 0.8698 0.0
C1597 C 0.87164 0.59387 0.88454 0.0
C1598 C 0.90326 0.60251 0.88406 0.0
C1599 C 0.89524 0.60151 0.89831 0.0
H1600 H 0.1377 0.42204 0.10921 0.0
H1601 H 0.17055 0.42972 0.14667 0.0
H1602 H 0.14908 0.43068 0.16552 0.0
H1603 H 0.12072 0.43077 0.17132 0.0
H1604 H 0.08791 0.42391 0.13366 0.0
H1605 H 0.10947 0.42111 0.11514 0.0
C1606 C 0.1402 0.42377 0.12152 0.0
C1607 C 0.15582 0.4258 0.12644 0.0
C1608 C 0.12772 0.42452 0.13234 0.0
C1609 C 0.15872 0.42811 0.14247 0.0
C1610 C 0.1464 0.42869 0.1533 0.0
C1611 C 0.11827 0.42846 0.1591 0.0
C1612 C 0.10261 0.42754 0.15397 0.0
C1613 C 0.13081 0.4271 0.14837 0.0
C1614 C 0.09977 0.42468 0.13801 0.0
C1615 C 0.11214 0.42311 0.12736 0.0
H1616 H 0.12322 0.58893 0.84906 0.0
H1617 H 0.09072 0.59883 0.88633 0.0
H1618 H 0.11235 0.60274 0.90448 0.0
H1619 H 0.14066 0.60174 0.91043 0.0
H1620 H 0.17311 0.59137 0.87325 0.0
H1621 H 0.15159 0.58941 0.85467 0.0
C1622 C 0.12086 0.59214 0.86109 0.0
C1623 C 0.10524 0.59353 0.86622 0.0
C1624 C 0.13346 0.59423 0.87165 0.0
C1625 C 0.10254 0.59763 0.88195 0.0
C1626 C 0.11495 0.59985 0.89242 0.0
C1627 C 0.14305 0.59927 0.89822 0.0
C1628 C 0.1586 0.5967 0.89335 0.0
C1629 C 0.13049 0.59795 0.8875 0.0
C1630 C 0.16134 0.59339 0.87744 0.0
C1631 C 0.14898 0.59223 0.86675 0.0
H1632 H 0.43185 0.12271 0.84388 0.0
H1633 H 0.41739 0.09129 0.88062 0.0
H1634 H 0.41467 0.11328 0.89863 0.0
H1635 H 0.41856 0.14134 0.90473 0.0
H1636 H 0.43405 0.1725 0.86817 0.0
H1637 H 0.43407 0.15094 0.8495 0.0
C1638 C 0.42782 0.1207 0.85574 0.0
C1639 C 0.42483 0.10528 0.86081 0.0
C1640 C 0.4266 0.13344 0.86622 0.0
C1641 C 0.41979 0.10297 0.87633 0.0
C1642 C 0.41828 0.11558 0.8867 0.0
C1643 C 0.42171 0.14346 0.89263 0.0
C1644 C 0.42634 0.1586 0.88795 0.0
C1645 C 0.42198 0.13085 0.8819 0.0
C1646 C 0.43049 0.16102 0.87219 0.0
C1647 C 0.43053 0.14865 0.86146 0.0
H1648 H 0.85461 0.42517 0.8741 0.0
H1649 H 0.88168 0.41511 0.91547 0.0
H1650 H 0.9056 0.41496 0.9 0.0
H1651 H 0.91925 0.41944 0.87508 0.0
H1652 H 0.89248 0.4293 0.8335 0.0
H1653 H 0.86823 0.42757 0.84857 0.0
C1654 C 0.86572 0.42278 0.8797 0.0
C1655 C 0.86625 0.42025 0.89601 0.0
C1656 C 0.87959 0.4227 0.87067 0.0
C1657 C 0.88081 0.41714 0.90299 0.0
C1658 C 0.89457 0.41708 0.89414 0.0
C1659 C 0.90811 0.42099 0.86924 0.0
C1660 C 0.90779 0.42454 0.85313 0.0
C1661 C 0.89416 0.42008 0.87802 0.0
C1662 C 0.89317 0.42651 0.84584 0.0
C1663 C 0.87925 0.4256 0.85449 0.0
H1664 H 0.59037 0.89485 0.84816 0.0
H1665 H 0.59623 0.92741 0.8862 0.0
H1666 H 0.59855 0.90568 0.90466 0.0
H1667 H 0.59746 0.87722 0.91039 0.0
H1668 H 0.59102 0.84484 0.87226 0.0
H1669 H 0.59048 0.8665 0.85369 0.0
C1670 C 0.59234 0.89722 0.86046 0.0
C1671 C 0.59312 0.91286 0.86568 0.0
C1672 C 0.59348 0.88459 0.87113 0.0
C1673 C 0.59558 0.91557 0.88174 0.0
C1674 C 0.59687 0.9031 0.89237 0.0
C1675 C 0.59611 0.87489 0.898 0.0
C1676 C 0.59428 0.8593 0.89284 0.0
C1677 C 0.59563 0.88753 0.88726 0.0
C1678 C 0.59245 0.85663 0.87669 0.0
C1679 C 0.59211 0.86906 0.86599 0.0
H1680 H 0.89503 0.59347 0.17151 0.0
H1681 H 0.92772 0.59785 0.13335 0.0
H1682 H 0.9061 0.59957 0.11476 0.0
H1683 H 0.87775 0.59796 0.109 0.0
H1684 H 0.84526 0.5928 0.14727 0.0
H1685 H 0.86678 0.59334 0.16593 0.0
C1686 C 0.89745 0.59506 0.15916 0.0
C1687 C 0.91307 0.59554 0.15392 0.0
C1688 C 0.8849 0.59576 0.14842 0.0
C1689 C 0.91587 0.59745 0.1378 0.0
C1690 C 0.90348 0.59838 0.1271 0.0
C1691 C 0.87536 0.59714 0.12143 0.0
C1692 C 0.85981 0.59529 0.12663 0.0
C1693 C 0.88791 0.59726 0.13222 0.0
C1694 C 0.85704 0.59418 0.14283 0.0
C1695 C 0.86938 0.59447 0.15358 0.0
H1696 H 0.41542 0.88259 0.10906 0.0
H1697 H 0.42609 0.85121 0.1471 0.0
H1698 H 0.42853 0.87341 0.16493 0.0
H1699 H 0.42941 0.90203 0.16948 0.0
H1700 H 0.41956 0.93331 0.13112 0.0
H1701 H 0.41495 0.91103 0.1139 0.0
C1702 C 0.41808 0.88057 0.1213 0.0
C1703 C 0.42056 0.86515 0.12665 0.0
C1704 C 0.41971 0.89347 0.13151 0.0
C1705 C 0.4241 0.86288 0.14257 0.0
C1706 C 0.42555 0.87561 0.15282 0.0
C1707 C 0.42604 0.90398 0.15741 0.0
C1708 C 0.42485 0.91943 0.15168 0.0
C1709 C 0.42363 0.89101 0.14739 0.0
C1710 C 0.42059 0.92162 0.13593 0.0
C1711 C 0.41798 0.90885 0.12601 0.0
H1712 H 0.60102 0.13983 0.11411 0.0
H1713 H 0.58514 0.17094 0.15047 0.0
H1714 H 0.58291 0.14889 0.16858 0.0
H1715 H 0.58378 0.12035 0.17372 0.0
H1716 H 0.59897 0.0893 0.13701 0.0
H1717 H 0.60324 0.11158 0.11965 0.0
C1718 C 0.59725 0.14185 0.12605 0.0
C1719 C 0.59326 0.15713 0.13083 0.0
C1720 C 0.59579 0.12901 0.13642 0.0
C1721 C 0.58832 0.15938 0.14638 0.0
C1722 C 0.587 0.14673 0.15678 0.0
C1723 C 0.58825 0.11847 0.162 0.0
C1724 C 0.59104 0.10305 0.15676 0.0
C1725 C 0.59047 0.13143 0.15189 0.0
C1726 C 0.5967 0.10094 0.14144 0.0
C1727 C 0.59911 0.11372 0.13144 0.0
H1728 H 0.6382 0.59308 0.92259 0.0
H1729 H 0.6818 0.61797 0.92756 0.0
H1730 H 0.66814 0.64287 0.92532 0.0
H1731 H 0.64359 0.65789 0.92356 0.0
H1732 H 0.59999 0.63325 0.91778 0.0
H1733 H 0.61378 0.60823 0.91859 0.0
C1734 C 0.64474 0.60394 0.92299 0.0
C1735 C 0.66108 0.60351 0.92532 0.0
C1736 C 0.63676 0.6184 0.92163 0.0
C1737 C 0.66927 0.6178 0.92578 0.0
C1738 C 0.66144 0.63213 0.92455 0.0
C1739 C 0.63711 0.64706 0.9223 0.0
C1740 C 0.62071 0.64756 0.92067 0.0
C1741 C 0.64515 0.63262 0.92271 0.0
C1742 C 0.61258 0.63332 0.91902 0.0
C1743 C 0.62048 0.61894 0.91955 0.0
H1744 H 0.42349 0.64008 0.91743 0.0
H1745 H 0.39908 0.68276 0.92851 0.0
H1746 H 0.37402 0.66913 0.92645 0.0
H1747 H 0.35901 0.64443 0.92358 0.0
H1748 H 0.38372 0.60203 0.91186 0.0
H1749 H 0.40844 0.61615 0.91201 0.0
C1750 C 0.41268 0.64647 0.91917 0.0
C1751 C 0.41325 0.66245 0.92319 0.0
C1752 C 0.39826 0.63854 0.91798 0.0
C1753 C 0.39907 0.6705 0.92534 0.0
C1754 C 0.38469 0.66267 0.92426 0.0
C1755 C 0.36978 0.63833 0.92086 0.0
C1756 C 0.3694 0.6221 0.91782 0.0
C1757 C 0.38413 0.64659 0.9209 0.0
C1758 C 0.38354 0.61446 0.91427 0.0
C1759 C 0.39776 0.62254 0.91439 0.0
H1760 H 0.37372 0.3559 0.92527 0.0
H1761 H 0.41577 0.38182 0.91486 0.0
H1762 H 0.40091 0.40609 0.914 0.0
H1763 H 0.37635 0.4204 0.91795 0.0
H1764 H 0.33409 0.39483 0.92814 0.0
H1765 H 0.34854 0.37017 0.92711 0.0
C1766 C 0.3796 0.36683 0.92265 0.0
C1767 C 0.39592 0.36694 0.92024 0.0
C1768 C 0.37093 0.38091 0.92215 0.0
C1769 C 0.40327 0.38128 0.91682 0.0
C1770 C 0.39477 0.39524 0.91634 0.0
C1771 C 0.37022 0.40943 0.91972 0.0
C1772 C 0.35412 0.40956 0.92316 0.0
C1773 C 0.37864 0.39526 0.91922 0.0
C1774 C 0.34645 0.39516 0.92542 0.0
C1775 C 0.35474 0.38101 0.92492 0.0
H1776 H 0.62317 0.34506 0.92296 0.0
H1777 H 0.58973 0.38262 0.91956 0.0
H1778 H 0.61094 0.40152 0.91636 0.0
H1779 H 0.63926 0.40777 0.9165 0.0
H1780 H 0.67252 0.37013 0.92089 0.0
H1781 H 0.6513 0.3511 0.92158 0.0
C1782 C 0.62049 0.35735 0.92129 0.0
C1783 C 0.60479 0.36233 0.92152 0.0
C1784 C 0.63282 0.36826 0.91971 0.0
C1785 C 0.60165 0.37837 0.91945 0.0
C1786 C 0.61382 0.38924 0.91765 0.0
C1787 C 0.64186 0.39539 0.91735 0.0
C1788 C 0.65755 0.39047 0.91866 0.0
C1789 C 0.62949 0.38439 0.91804 0.0
C1790 C 0.66062 0.37434 0.91992 0.0
C1791 C 0.64845 0.36338 0.92034 0.0
H1792 H 0.64266 0.35765 0.09396 0.0
H1793 H 0.59986 0.38265 0.10324 0.0
H1794 H 0.61394 0.4074 0.10281 0.0
H1795 H 0.63809 0.42239 0.09813 0.0
H1796 H 0.68121 0.39775 0.08966 0.0
H1797 H 0.66747 0.3727 0.09162 0.0
C1798 C 0.63645 0.36849 0.09606 0.0
C1799 C 0.62012 0.36814 0.09854 0.0
C1800 C 0.64471 0.38289 0.09591 0.0
C1801 C 0.61236 0.38241 0.10128 0.0
C1802 C 0.62042 0.39667 0.10101 0.0
C1803 C 0.64455 0.41155 0.09693 0.0
C1804 C 0.66071 0.41207 0.09371 0.0
C1805 C 0.63655 0.39711 0.0981 0.0
C1806 C 0.66881 0.39781 0.09222 0.0
C1807 C 0.66091 0.38342 0.09324 0.0
H1808 H 0.63494 0.6074 0.09709 0.0
H1809 H 0.66669 0.64634 0.09233 0.0
H1810 H 0.6448 0.66459 0.09308 0.0
H1811 H 0.61641 0.66961 0.09334 0.0
H1812 H 0.5845 0.63073 0.09716 0.0
H1813 H 0.60649 0.61256 0.0987 0.0
C1814 C 0.63708 0.61989 0.09639 0.0
C1815 C 0.65253 0.62541 0.09461 0.0
C1816 C 0.62432 0.63042 0.09663 0.0
C1817 C 0.65499 0.64167 0.09365 0.0
C1818 C 0.64243 0.65217 0.09408 0.0
C1819 C 0.61425 0.65719 0.09478 0.0
C1820 C 0.59873 0.65162 0.09517 0.0
C1821 C 0.62701 0.6467 0.09533 0.0
C1822 C 0.59625 0.63542 0.09685 0.0
C1823 C 0.60887 0.62497 0.09767 0.0
H1824 H 0.34505 0.61995 0.09026 0.0
H1825 H 0.38287 0.58841 0.10099 0.0
H1826 H 0.40052 0.61052 0.10473 0.0
H1827 H 0.40593 0.6389 0.10297 0.0
H1828 H 0.36829 0.67041 0.09154 0.0
H1829 H 0.35008 0.64847 0.09019 0.0
C1830 C 0.35708 0.61792 0.09368 0.0
C1831 C 0.36254 0.60243 0.09532 0.0
C1832 C 0.36735 0.63078 0.09557 0.0
C1833 C 0.37827 0.60013 0.09961 0.0
C1834 C 0.38844 0.61281 0.10172 0.0
C1835 C 0.39371 0.641 0.1004 0.0
C1836 C 0.38859 0.65638 0.09733 0.0
C1837 C 0.38322 0.62821 0.09943 0.0
C1838 C 0.37266 0.65876 0.09393 0.0
C1839 C 0.36218 0.64617 0.09312 0.0
H1840 H 0.41917 0.37753 0.09667 0.0
H1841 H 0.39371 0.33548 0.08528 0.0
H1842 H 0.36903 0.34952 0.08789 0.0
H1843 H 0.35453 0.37419 0.09168 0.0
H1844 H 0.37986 0.41622 0.1034 0.0
H1845 H 0.40449 0.40179 0.10251 0.0
C1846 C 0.40823 0.37138 0.09494 0.0
C1847 C 0.40842 0.35541 0.0907 0.0
C1848 C 0.39394 0.37958 0.09644 0.0
C1849 C 0.39403 0.34771 0.08854 0.0
C1850 C 0.37985 0.35578 0.08998 0.0
C1851 C 0.36541 0.38018 0.09423 0.0
C1852 C 0.36524 0.39635 0.09755 0.0
C1853 C 0.37963 0.37177 0.09367 0.0
C1854 C 0.37953 0.40382 0.10083 0.0
C1855 C 0.39369 0.39556 0.10027 0.0
H1856 H 0.92005 0.6426 0.60199 0.0
H1857 H 0.92968 0.68493 0.62763 0.0
H1858 H 0.92825 0.67048 0.65228 0.0
H1859 H 0.92598 0.64535 0.66667 0.0
H1860 H 0.91579 0.60319 0.64093 0.0
H1861 H 0.91566 0.61795 0.61649 0.0
C1862 C 0.92163 0.64873 0.61297 0.0
C1863 C 0.92501 0.66492 0.61282 0.0
C1864 C 0.92081 0.6403 0.62721 0.0
C1865 C 0.92701 0.67255 0.62726 0.0
C1866 C 0.92627 0.66425 0.64143 0.0
C1867 C 0.92357 0.63941 0.65574 0.0
C1868 C 0.92097 0.62308 0.65577 0.0
C1869 C 0.92345 0.64805 0.64157 0.0
C1870 C 0.91783 0.61569 0.6414 0.0
C1871 C 0.91779 0.62415 0.62733 0.0
H1872 H 0.34788 0.92816 0.6212 0.0
H1873 H 0.38567 0.91931 0.58903 0.0
H1874 H 0.40388 0.91666 0.61085 0.0
H1875 H 0.40968 0.91875 0.63916 0.0
H1876 H 0.37208 0.92882 0.6712 0.0
H1877 H 0.35344 0.92898 0.6496 0.0
C1878 C 0.36004 0.92539 0.61897 0.0
C1879 C 0.3653 0.92391 0.60339 0.0
C1880 C 0.37064 0.92421 0.63165 0.0
C1881 C 0.38121 0.92053 0.60082 0.0
C1882 C 0.3917 0.91904 0.61334 0.0
C1883 C 0.39738 0.92075 0.64145 0.0
C1884 C 0.39238 0.92376 0.65689 0.0
C1885 C 0.38664 0.92114 0.62882 0.0
C1886 C 0.37636 0.92649 0.6595 0.0
C1887 C 0.36563 0.92661 0.6471 0.0
H1888 H 0.09851 0.40725 0.63638 0.0
H1889 H 0.09042 0.36909 0.66841 0.0
H1890 H 0.08926 0.35075 0.64653 0.0
H1891 H 0.08899 0.34559 0.61807 0.0
H1892 H 0.09592 0.38393 0.58599 0.0
H1893 H 0.09915 0.40194 0.60794 0.0
C1894 C 0.09669 0.39489 0.6386 0.0
C1895 C 0.0946 0.38963 0.65413 0.0
C1896 C 0.09573 0.38436 0.62586 0.0
C1897 C 0.09208 0.37355 0.65666 0.0
C1898 C 0.09138 0.36301 0.64411 0.0
C1899 C 0.0914 0.35785 0.61586 0.0
C1900 C 0.09224 0.36332 0.60029 0.0
C1901 C 0.09297 0.36828 0.62862 0.0
C1902 C 0.09521 0.37932 0.59777 0.0
C1903 C 0.09704 0.38968 0.61036 0.0
H1904 H 0.64073 0.09489 0.66453 0.0
H1905 H 0.59866 0.10553 0.63887 0.0
H1906 H 0.61333 0.10526 0.61435 0.0
H1907 H 0.63779 0.10017 0.59987 0.0
H1908 H 0.67995 0.08986 0.62551 0.0
H1909 H 0.66566 0.09198 0.65017 0.0
C1910 C 0.63479 0.09733 0.6536 0.0
C1911 C 0.61853 0.10016 0.65363 0.0
C1912 C 0.64334 0.09715 0.63944 0.0
C1913 C 0.61112 0.10333 0.63929 0.0
C1914 C 0.61951 0.10312 0.6252 0.0
C1915 C 0.64392 0.09859 0.61085 0.0
C1916 C 0.65998 0.0948 0.61073 0.0
C1917 C 0.63559 0.09979 0.62508 0.0
C1918 C 0.66765 0.09282 0.62515 0.0
C1919 C 0.65944 0.09396 0.63931 0.0
H1920 H 0.92478 0.34581 0.39591 0.0
H1921 H 0.91729 0.38243 0.42973 0.0
H1922 H 0.91443 0.40155 0.40867 0.0
H1923 H 0.91583 0.40836 0.38058 0.0
H1924 H 0.92447 0.37191 0.34684 0.0
H1925 H 0.925 0.35243 0.36774 0.0
C1926 C 0.92227 0.35792 0.39867 0.0
C1927 C 0.92121 0.36259 0.41447 0.0
C1928 C 0.92096 0.36901 0.38644 0.0
C1929 C 0.91815 0.37843 0.41775 0.0
C1930 C 0.91655 0.38943 0.40567 0.0
C1931 C 0.91763 0.39613 0.37777 0.0
C1932 C 0.9201 0.39169 0.36206 0.0
C1933 C 0.9182 0.38493 0.38996 0.0
C1934 C 0.92255 0.37575 0.35875 0.0
C1935 C 0.92288 0.36455 0.37075 0.0
H1936 H 0.64112 0.9205 0.41714 0.0
H1937 H 0.68329 0.92983 0.39112 0.0
H1938 H 0.66857 0.92899 0.36661 0.0
H1939 H 0.6432 0.92725 0.35248 0.0
H1940 H 0.60127 0.91757 0.37885 0.0
H1941 H 0.61632 0.91687 0.403 0.0
C1942 C 0.64717 0.92214 0.40611 0.0
C1943 C 0.66337 0.92524 0.40611 0.0
C1944 C 0.63858 0.92172 0.39198 0.0
C1945 C 0.67089 0.92736 0.3916 0.0
C1946 C 0.66242 0.92696 0.37752 0.0
C1947 C 0.63738 0.92484 0.36349 0.0
C1948 C 0.62102 0.92255 0.3637 0.0
C1949 C 0.64619 0.92441 0.37754 0.0
C1950 C 0.61378 0.91942 0.37818 0.0
C1951 C 0.6224 0.91903 0.39209 0.0
H1952 H 0.08925 0.67182 0.39655 0.0
H1953 H 0.09701 0.63456 0.42966 0.0
H1954 H 0.10016 0.61593 0.40821 0.0
H1955 H 0.09929 0.60974 0.37984 0.0
H1956 H 0.09083 0.64705 0.34693 0.0
H1957 H 0.08951 0.66589 0.36829 0.0
C1958 C 0.0918 0.65967 0.3991 0.0
C1959 C 0.09289 0.65471 0.41482 0.0
C1960 C 0.09343 0.64888 0.38663 0.0
C1961 C 0.09611 0.63882 0.41776 0.0
C1962 C 0.09789 0.62809 0.40545 0.0
C1963 C 0.09736 0.62202 0.37733 0.0
C1964 C 0.09518 0.62687 0.36168 0.0
C1965 C 0.09638 0.63291 0.38981 0.0
C1966 C 0.09255 0.64287 0.35877 0.0
C1967 C 0.09176 0.65372 0.37103 0.0
H1968 H 0.40555 0.10311 0.37839 0.0
H1969 H 0.36957 0.09321 0.3445 0.0
H1970 H 0.34998 0.09241 0.36526 0.0
H1971 H 0.3432 0.09269 0.39335 0.0
H1972 H 0.37935 0.10161 0.42732 0.0
H1973 H 0.39852 0.10475 0.40637 0.0
C1974 C 0.3934 0.10097 0.37552 0.0
C1975 C 0.38912 0.0982 0.35983 0.0
C1976 C 0.38214 0.10028 0.38761 0.0
C1977 C 0.37328 0.09535 0.35642 0.0
C1978 C 0.36203 0.09487 0.36832 0.0
C1979 C 0.35522 0.09557 0.39617 0.0
C1980 C 0.35976 0.09692 0.41196 0.0
C1981 C 0.36633 0.09706 0.38401 0.0
C1982 C 0.37546 0.10049 0.41532 0.0
C1983 C 0.38648 0.10225 0.40332 0.0
H1984 H 0.59595 0.91907 0.63973 0.0
H1985 H 0.6216 0.92835 0.6821 0.0
H1986 H 0.64626 0.92661 0.66771 0.0
H1987 H 0.66069 0.92411 0.64256 0.0
H1988 H 0.63479 0.91388 0.60051 0.0
H1989 H 0.61039 0.91426 0.61521 0.0
C1990 C 0.60693 0.92051 0.64589 0.0
C1991 C 0.60679 0.92388 0.66205 0.0
C1992 C 0.62117 0.91943 0.63751 0.0
C1993 C 0.62124 0.92568 0.66973 0.0
C1994 C 0.63541 0.92476 0.66146 0.0
C1995 C 0.64974 0.92178 0.63664 0.0
C1996 C 0.64973 0.91904 0.62034 0.0
C1997 C 0.63555 0.92189 0.64527 0.0
C1998 C 0.63531 0.91602 0.61298 0.0
C1999 C 0.62126 0.91628 0.6214 0.0
H2000 H 0.66 0.09357 0.37562 0.0
H2001 H 0.63383 0.10502 0.41719 0.0
H2002 H 0.60949 0.10395 0.40242 0.0
H2003 H 0.59523 0.09825 0.37795 0.0
H2004 H 0.62139 0.08755 0.33617 0.0
H2005 H 0.64586 0.08992 0.35064 0.0
C2006 C 0.649 0.09601 0.38141 0.0
C2007 C 0.64886 0.09932 0.39757 0.0
C2008 C 0.63489 0.09542 0.37278 0.0
C2009 C 0.63441 0.10246 0.4048 0.0
C2010 C 0.6204 0.10179 0.39636 0.0
C2011 C 0.60628 0.09659 0.37197 0.0
C2012 C 0.60636 0.09265 0.35595 0.0
C2013 C 0.62044 0.09806 0.38038 0.0
C2014 C 0.62087 0.0906 0.34845 0.0
C2015 C 0.63494 0.09191 0.35675 0.0
H2016 H 0.91625 0.60045 0.3778 0.0
H2017 H 0.9305 0.62519 0.3362 0.0
H2018 H 0.93079 0.64982 0.35071 0.0
H2019 H 0.9289 0.66422 0.37589 0.0
H2020 H 0.91375 0.63933 0.41713 0.0
H2021 H 0.91186 0.61518 0.40217 0.0
C2022 C 0.9192 0.61126 0.37183 0.0
C2023 C 0.92339 0.61085 0.35588 0.0
C2024 C 0.91931 0.62547 0.38027 0.0
C2025 C 0.92714 0.62506 0.34841 0.0
C2026 C 0.92741 0.6392 0.35676 0.0
C2027 C 0.925 0.65356 0.38156 0.0
C2028 C 0.92158 0.65371 0.39772 0.0
C2029 C 0.92381 0.63954 0.37279 0.0
C2030 C 0.91649 0.6397 0.40477 0.0
C2031 C 0.91544 0.62579 0.39621 0.0
H2032 H 0.41887 0.92092 0.37593 0.0
H2033 H 0.39192 0.92583 0.3336 0.0
H2034 H 0.36771 0.92399 0.34861 0.0
H2035 H 0.35393 0.92265 0.37404 0.0
H2036 H 0.38078 0.91686 0.41631 0.0
H2037 H 0.405 0.91727 0.40116 0.0
C2038 C 0.40771 0.92138 0.36995 0.0
C2039 C 0.40736 0.92357 0.35357 0.0
C2040 C 0.39368 0.92025 0.37871 0.0
C2041 C 0.39269 0.92412 0.34612 0.0
C2042 C 0.37876 0.92314 0.35474 0.0
C2043 C 0.36506 0.9213 0.37994 0.0
C2044 C 0.36541 0.91979 0.39639 0.0
C2045 C 0.37907 0.92145 0.37108 0.0
C2046 C 0.38004 0.91801 0.40372 0.0
C2047 C 0.39396 0.91831 0.39503 0.0
H2048 H 0.09829 0.4217 0.37914 0.0
H2049 H 0.09122 0.39764 0.3354 0.0
H2050 H 0.09264 0.37245 0.34886 0.0
H2051 H 0.09408 0.35708 0.37342 0.0
H2052 H 0.10201 0.38115 0.41701 0.0
H2053 H 0.10216 0.40624 0.40332 0.0
C2054 C 0.09728 0.41095 0.3725 0.0
C2055 C 0.0946 0.4117 0.35621 0.0
C2056 C 0.09815 0.39638 0.38035 0.0
C2057 C 0.09334 0.39755 0.34789 0.0
C2058 C 0.09407 0.38307 0.35562 0.0
C2059 C 0.09602 0.36779 0.37991 0.0
C2060 C 0.09795 0.3671 0.39631 0.0
C2061 C 0.0962 0.38231 0.3719 0.0
C2062 C 0.10051 0.38119 0.40443 0.0
C2063 C 0.10054 0.39562 0.39659 0.0
H2064 H 0.35623 0.09739 0.64235 0.0
H2065 H 0.38161 0.10398 0.59923 0.0
H2066 H 0.40626 0.10417 0.61351 0.0
H2067 H 0.42098 0.10084 0.63812 0.0
H2068 H 0.39566 0.09521 0.6814 0.0
H2069 H 0.37089 0.09642 0.6673 0.0
C2070 C 0.36713 0.09903 0.6361 0.0
C2071 C 0.36696 0.10058 0.61967 0.0
C2072 C 0.38141 0.09926 0.64444 0.0
C2073 C 0.38128 0.10276 0.61183 0.0
C2074 C 0.39546 0.10283 0.62 0.0
C2075 C 0.41005 0.10008 0.6445 0.0
C2076 C 0.41029 0.09787 0.66084 0.0
C2077 C 0.39572 0.10086 0.63629 0.0
C2078 C 0.39593 0.09695 0.66885 0.0
C2079 C 0.38169 0.09757 0.66077 0.0
H2080 H 0.91908 0.37964 0.60908 0.0
H2081 H 0.92727 0.34842 0.64786 0.0
H2082 H 0.92682 0.37056 0.66595 0.0
H2083 H 0.92569 0.39912 0.67069 0.0
H2084 H 0.91858 0.43033 0.63169 0.0
H2085 H 0.91686 0.40801 0.61394 0.0
C2086 C 0.92061 0.37764 0.62151 0.0
C2087 C 0.92322 0.36229 0.62703 0.0
C2088 C 0.92056 0.39051 0.63188 0.0
C2089 C 0.92526 0.36004 0.64321 0.0
C2090 C 0.92502 0.37274 0.6536 0.0
C2091 C 0.92351 0.40104 0.65835 0.0
C2092 C 0.92221 0.41648 0.65261 0.0
C2093 C 0.92288 0.38808 0.64807 0.0
C2094 C 0.9196 0.41865 0.6365 0.0
C2095 C 0.91867 0.40585 0.6263 0.0
H2096 H 0.09377 0.62136 0.67419 0.0
H2097 H 0.10122 0.58748 0.63761 0.0
H2098 H 0.10428 0.60851 0.61849 0.0
H2099 H 0.10306 0.63661 0.61165 0.0
H2100 H 0.09443 0.6704 0.64806 0.0
H2101 H 0.09372 0.64952 0.66755 0.0
C2102 C 0.09631 0.61858 0.66209 0.0
C2103 C 0.09729 0.60278 0.65743 0.0
C2104 C 0.09773 0.6308 0.651 0.0
C2105 C 0.1004 0.59948 0.6416 0.0
C2106 C 0.10212 0.61153 0.6306 0.0
C2107 C 0.10123 0.63943 0.62387 0.0
C2108 C 0.09881 0.65514 0.6283 0.0
C2109 C 0.10054 0.62725 0.63508 0.0
C2110 C 0.09631 0.65847 0.64423 0.0
C2111 C 0.09588 0.6465 0.65543 0.0
H2112 H 0.09265 0.2331 0.40055 0.0
H2113 H 0.11898 0.23244 0.44351 0.0
H2114 H 0.122 0.26074 0.44252 0.0
H2115 H 0.11476 0.28625 0.4311 0.0
H2116 H 0.08671 0.28735 0.38938 0.0
H2117 H 0.087 0.25875 0.38803 0.0
C2118 C 0.09933 0.23914 0.40947 0.0
C2119 C 0.10557 0.23057 0.42207 0.0
C2120 C 0.1007 0.25568 0.40908 0.0
C2121 C 0.11399 0.23869 0.43368 0.0
C2122 C 0.11573 0.25494 0.43315 0.0
C2123 C 0.10918 0.2802 0.42145 0.0
C2124 C 0.10101 0.28891 0.41017 0.0
C2125 C 0.10884 0.26365 0.42113 0.0
C2126 C 0.0933 0.28089 0.39806 0.0
C2127 C 0.09335 0.2645 0.39736 0.0
H2128 H 0.77828 0.12256 0.43192 0.0
H2129 H 0.78759 0.08513 0.39954 0.0
H2130 H 0.75942 0.0819 0.39505 0.0
H2131 H 0.73209 0.08802 0.40254 0.0
H2132 H 0.72285 0.12654 0.43367 0.0
H2133 H 0.75103 0.13123 0.43637 0.0
C2134 C 0.77413 0.11395 0.42359 0.0
C2135 C 0.785 0.10411 0.41602 0.0
C2136 C 0.75793 0.1123 0.42098 0.0
C2137 C 0.7795 0.09297 0.40531 0.0
C2138 C 0.76337 0.09104 0.40289 0.0
C2139 C 0.73626 0.09764 0.40967 0.0
C2140 C 0.72539 0.1069 0.41797 0.0
C2141 C 0.75248 0.10038 0.41096 0.0
C2142 C 0.73094 0.11934 0.4271 0.0
C2143 C 0.74706 0.12194 0.42872 0.0
H2144 H 0.93718 0.78612 0.41215 0.0
H2145 H 0.88744 0.78703 0.41911 0.0
H2146 H 0.8865 0.75834 0.41841 0.0
H2147 H 0.90054 0.73267 0.41883 0.0
H2148 H 0.95071 0.73285 0.41311 0.0
H2149 H 0.95073 0.761 0.41044 0.0
C2150 C 0.92609 0.78002 0.41293 0.0
C2151 C 0.91236 0.78866 0.4152 0.0
C2152 C 0.92575 0.76353 0.41317 0.0
C2153 C 0.89812 0.78061 0.41686 0.0
C2154 C 0.89762 0.76417 0.4167 0.0
C2155 C 0.91141 0.73887 0.41683 0.0
C2156 C 0.92559 0.73047 0.41639 0.0
C2157 C 0.91145 0.75543 0.41535 0.0
C2158 C 0.93957 0.73884 0.41374 0.0
C2159 C 0.93966 0.75505 0.41212 0.0
H2160 H 0.23529 0.89992 0.43247 0.0
H2161 H 0.22612 0.93358 0.39611 0.0
H2162 H 0.25431 0.93632 0.39137 0.0
H2163 H 0.28167 0.93079 0.39928 0.0
H2164 H 0.29076 0.89567 0.43428 0.0
H2165 H 0.26256 0.89167 0.43777 0.0
C2166 C 0.23948 0.90763 0.42329 0.0
C2167 C 0.22863 0.91656 0.41464 0.0
C2168 C 0.2557 0.90891 0.42048 0.0
C2169 C 0.23419 0.92648 0.40279 0.0
C2170 C 0.25033 0.92812 0.40019 0.0
C2171 C 0.27745 0.92203 0.40745 0.0
C2172 C 0.28831 0.91352 0.41653 0.0
C2173 C 0.2612 0.91963 0.40918 0.0
C2174 C 0.28269 0.90223 0.42704 0.0
C2175 C 0.26655 0.90004 0.42912 0.0
H2176 H 0.08715 0.73459 0.61804 0.0
H2177 H 0.12602 0.7266 0.58701 0.0
H2178 H 0.13016 0.75495 0.58474 0.0
H2179 H 0.12083 0.78194 0.58946 0.0
H2180 H 0.08296 0.78996 0.62169 0.0
H2181 H 0.08038 0.76164 0.62586 0.0
C2182 C 0.09672 0.73908 0.61103 0.0
C2183 C 0.10624 0.72856 0.60262 0.0
C2184 C 0.09912 0.75536 0.60998 0.0
C2185 C 0.11863 0.73446 0.59365 0.0
C2186 C 0.12091 0.75067 0.59228 0.0
C2187 C 0.11226 0.77747 0.59769 0.0
C2188 C 0.10209 0.78798 0.60529 0.0
C2189 C 0.11098 0.76121 0.6001 0.0
C2190 C 0.09103 0.78211 0.61589 0.0
C2191 C 0.08947 0.76592 0.61813 0.0
H2192 H 0.2366 0.11959 0.58593 0.0
H2193 H 0.22842 0.08599 0.6226 0.0
H2194 H 0.25671 0.0837 0.62691 0.0
H2195 H 0.28381 0.08943 0.61836 0.0
H2196 H 0.29193 0.12442 0.58297 0.0
H2197 H 0.26364 0.12822 0.58013 0.0
C2198 C 0.24104 0.11201 0.59508 0.0
C2199 C 0.23047 0.10293 0.60393 0.0
C2200 C 0.25728 0.11099 0.59763 0.0
C2201 C 0.23631 0.09318 0.61576 0.0
C2202 C 0.25249 0.0918 0.61813 0.0
C2203 C 0.27936 0.09814 0.61027 0.0
C2204 C 0.28993 0.10665 0.60086 0.0
C2205 C 0.26309 0.10039 0.60889 0.0
C2206 C 0.28406 0.11788 0.59044 0.0
C2207 C 0.26787 0.11993 0.58873 0.0
H2208 H 0.92823 0.28214 0.62195 0.0
H2209 H 0.89648 0.29058 0.5838 0.0
H2210 H 0.89199 0.2623 0.58122 0.0
H2211 H 0.89952 0.23512 0.58799 0.0
H2212 H 0.93014 0.22679 0.62711 0.0
H2213 H 0.93256 0.25508 0.63132 0.0
C2214 C 0.92 0.27778 0.61334 0.0
C2215 C 0.91264 0.28841 0.6031 0.0
C2216 C 0.91744 0.26154 0.61204 0.0
C2217 C 0.90209 0.28266 0.59195 0.0
C2218 C 0.89967 0.26648 0.59038 0.0
C2219 C 0.90647 0.23952 0.59764 0.0
C2220 C 0.91472 0.22888 0.6072 0.0
C2221 C 0.90761 0.2558 0.60009 0.0
C2222 C 0.92361 0.23471 0.61969 0.0
C2223 C 0.92507 0.25089 0.62201 0.0
H2224 H 0.78043 0.8995 0.58692 0.0
H2225 H 0.78791 0.93442 0.62242 0.0
H2226 H 0.75953 0.93715 0.62582 0.0
H2227 H 0.73255 0.93123 0.61688 0.0
H2228 H 0.72509 0.89482 0.58289 0.0
H2229 H 0.75343 0.89087 0.58078 0.0
C2230 C 0.77582 0.90746 0.59565 0.0
C2231 C 0.78627 0.91674 0.60445 0.0
C2232 C 0.75949 0.90875 0.59769 0.0
C2233 C 0.78015 0.92702 0.61567 0.0
C2234 C 0.76391 0.92867 0.6175 0.0
C2235 C 0.73714 0.92222 0.60923 0.0
C2236 C 0.72671 0.91333 0.60001 0.0
C2237 C 0.75346 0.91983 0.60834 0.0
C2238 C 0.73282 0.90169 0.5902 0.0
C2239 C 0.74904 0.89953 0.58892 0.0
H2240 H 0.40009 0.08892 0.28038 0.0
H2241 H 0.43172 0.12695 0.28999 0.0
H2242 H 0.43421 0.13213 0.26184 0.0
H2243 H 0.42946 0.12393 0.23449 0.0
H2244 H 0.39663 0.08693 0.22491 0.0
H2245 H 0.3923 0.08332 0.25308 0.0
C2246 C 0.40729 0.09854 0.27629 0.0
C2247 C 0.41579 0.10751 0.2872 0.0
C2248 C 0.40846 0.10155 0.26013 0.0
C2249 C 0.42501 0.11998 0.28182 0.0
C2250 C 0.4265 0.12285 0.26573 0.0
C2251 C 0.42107 0.11533 0.2386 0.0
C2252 C 0.41335 0.10569 0.22768 0.0
C2253 C 0.41858 0.11346 0.25478 0.0
C2254 C 0.40255 0.09458 0.23309 0.0
C2255 C 0.4002 0.09244 0.24919 0.0
H2256 H 0.89872 0.4313 0.23517 0.0
H2257 H 0.93375 0.3959 0.2277 0.0
H2258 H 0.93631 0.39232 0.25607 0.0
H2259 H 0.93036 0.40118 0.28298 0.0
H2260 H 0.89408 0.43525 0.29056 0.0
H2261 H 0.89004 0.43737 0.26218 0.0
C2262 C 0.90668 0.42257 0.23978 0.0
C2263 C 0.91607 0.41387 0.22936 0.0
C2264 C 0.9079 0.42045 0.2561 0.0
C2265 C 0.92631 0.4026 0.23545 0.0
C2266 C 0.92785 0.40066 0.25168 0.0
C2267 C 0.92135 0.40884 0.27839 0.0
C2268 C 0.91253 0.41809 0.28882 0.0
C2269 C 0.91897 0.40978 0.26211 0.0
C2270 C 0.90089 0.42793 0.28278 0.0
C2271 C 0.89868 0.42921 0.26656 0.0
H2272 H 0.61719 0.92941 0.28092 0.0
H2273 H 0.58233 0.89444 0.29104 0.0
H2274 H 0.57965 0.88895 0.26297 0.0
H2275 H 0.58522 0.89628 0.23546 0.0
H2276 H 0.62111 0.93022 0.22541 0.0
H2277 H 0.6256 0.93384 0.25354 0.0
C2278 C 0.60926 0.92033 0.27698 0.0
C2279 C 0.59994 0.91234 0.28805 0.0
C2280 C 0.60792 0.91717 0.26084 0.0
C2281 C 0.58973 0.90062 0.28281 0.0
C2282 C 0.58811 0.8976 0.26674 0.0
C2283 C 0.59428 0.90421 0.23944 0.0
C2284 C 0.60282 0.913 0.22835 0.0
C2285 C 0.59686 0.90609 0.25564 0.0
C2286 C 0.61451 0.92321 0.23367 0.0
C2287 C 0.61696 0.92537 0.24976 0.0
H2288 H 0.12039 0.59173 0.23394 0.0
H2289 H 0.08151 0.62238 0.22486 0.0
H2290 H 0.07775 0.62608 0.25311 0.0
H2291 H 0.08389 0.61824 0.28038 0.0
H2292 H 0.12379 0.58885 0.2894 0.0
H2293 H 0.12893 0.58706 0.26122 0.0
C2294 C 0.11137 0.59957 0.23817 0.0
C2295 C 0.10129 0.60687 0.22732 0.0
C2296 C 0.10938 0.60167 0.25441 0.0
C2297 C 0.08957 0.61687 0.23293 0.0
C2298 C 0.08733 0.61882 0.2491 0.0
C2299 C 0.09388 0.61166 0.27616 0.0
C2300 C 0.10341 0.60359 0.28697 0.0
C2301 C 0.0969 0.61094 0.25994 0.0
C2302 C 0.11635 0.59521 0.28137 0.0
C2303 C 0.11922 0.59413 0.26523 0.0
H2304 H 0.40421 0.93334 0.78748 0.0
H2305 H 0.42986 0.8901 0.78906 0.0
H2306 H 0.42874 0.88799 0.76055 0.0
H2307 H 0.42353 0.90036 0.73476 0.0
H2308 H 0.39964 0.94472 0.73355 0.0
H2309 H 0.39687 0.94442 0.76189 0.0
C2310 C 0.40901 0.92319 0.78158 0.0
C2311 C 0.41679 0.91172 0.79037 0.0
C2312 C 0.40891 0.9224 0.76506 0.0
C2313 C 0.42353 0.89893 0.78253 0.0
C2314 C 0.42304 0.8978 0.76619 0.0
C2315 C 0.4174 0.90973 0.74071 0.0
C2316 C 0.41184 0.92255 0.73201 0.0
C2317 C 0.41621 0.90973 0.75724 0.0
C2318 C 0.40413 0.93474 0.73995 0.0
C2319 C 0.40253 0.93461 0.75621 0.0
H2320 H 0.11798 0.4291 0.78161 0.0
H2321 H 0.08077 0.39649 0.79117 0.0
H2322 H 0.07782 0.39154 0.76304 0.0
H2323 H 0.0841 0.39865 0.73562 0.0
H2324 H 0.12245 0.42993 0.72612 0.0
H2325 H 0.12687 0.43316 0.75431 0.0
C2326 C 0.10947 0.42063 0.77753 0.0
C2327 C 0.09959 0.41315 0.78845 0.0
C2328 C 0.108 0.41774 0.76135 0.0
C2329 C 0.08861 0.40224 0.78303 0.0
C2330 C 0.08685 0.39953 0.76693 0.0
C2331 C 0.09363 0.40592 0.73975 0.0
C2332 C 0.10293 0.4141 0.7288 0.0
C2333 C 0.09622 0.40751 0.75597 0.0
C2334 C 0.11525 0.42344 0.73428 0.0
C2335 C 0.11768 0.42536 0.75041 0.0
H2336 H 0.61891 0.08938 0.73599 0.0
H2337 H 0.58209 0.1231 0.72944 0.0
H2338 H 0.57988 0.12634 0.75788 0.0
H2339 H 0.58675 0.11755 0.78461 0.0
H2340 H 0.6248 0.08524 0.79121 0.0
H2341 H 0.62839 0.08354 0.76275 0.0
C2342 C 0.61065 0.0977 0.74082 0.0
C2343 C 0.60067 0.10602 0.73066 0.0
C2344 C 0.60962 0.09963 0.75716 0.0
C2345 C 0.59001 0.11674 0.73701 0.0
C2346 C 0.58866 0.11847 0.75327 0.0
C2347 C 0.59602 0.11036 0.77979 0.0
C2348 C 0.60548 0.10146 0.78996 0.0
C2349 C 0.59815 0.10969 0.76346 0.0
C2350 C 0.61748 0.09226 0.78362 0.0
C2351 C 0.61944 0.09123 0.76736 0.0
H2352 H 0.93232 0.62034 0.73949 0.0
H2353 H 0.89584 0.58675 0.7306 0.0
H2354 H 0.89123 0.58412 0.75882 0.0
H2355 H 0.89928 0.58967 0.78613 0.0
H2356 H 0.93434 0.62473 0.79502 0.0
H2357 H 0.93772 0.62867 0.76676 0.0
C2358 C 0.92316 0.61266 0.74374 0.0
C2359 C 0.91444 0.60371 0.73294 0.0
C2360 C 0.92039 0.61145 0.75999 0.0
C2361 C 0.90259 0.59386 0.73861 0.0
C2362 C 0.90005 0.59228 0.75477 0.0
C2363 C 0.90742 0.59842 0.78186 0.0
C2364 C 0.91654 0.60693 0.79267 0.0
C2365 C 0.90909 0.60078 0.76558 0.0
C2366 C 0.92705 0.6182 0.78698 0.0
C2367 C 0.92907 0.62034 0.77081 0.0
H2368 H 0.23498 0.42719 0.11957 0.0
H2369 H 0.22586 0.39693 0.08038 0.0
H2370 H 0.25404 0.39227 0.07733 0.0
H2371 H 0.28135 0.39935 0.08407 0.0
H2372 H 0.29029 0.42864 0.12408 0.0
H2373 H 0.26211 0.43107 0.12871 0.0
C2374 C 0.23917 0.41921 0.11064 0.0
C2375 C 0.22838 0.4123 0.10026 0.0
C2376 C 0.25535 0.41661 0.10902 0.0
C2377 C 0.23391 0.40213 0.08866 0.0
C2378 C 0.25003 0.39964 0.08682 0.0
C2379 C 0.27711 0.40603 0.09398 0.0
C2380 C 0.2879 0.41391 0.10368 0.0
C2381 C 0.26088 0.40718 0.09666 0.0
C2382 C 0.28226 0.42242 0.11651 0.0
C2383 C 0.26614 0.42388 0.11909 0.0
H2384 H 0.23911 0.58792 0.89964 0.0
H2385 H 0.23112 0.62355 0.93433 0.0
H2386 H 0.25941 0.62789 0.93653 0.0
H2387 H 0.28648 0.61966 0.93032 0.0
H2388 H 0.29442 0.58537 0.89429 0.0
H2389 H 0.2661 0.58248 0.89066 0.0
C2390 C 0.24359 0.59686 0.90745 0.0
C2391 C 0.23308 0.60541 0.91684 0.0
C2392 C 0.25984 0.59944 0.90843 0.0
C2393 C 0.23897 0.61696 0.92689 0.0
C2394 C 0.25515 0.61933 0.92822 0.0
C2395 C 0.28198 0.6118 0.92144 0.0
C2396 C 0.2925 0.6027 0.91258 0.0
C2397 C 0.2657 0.6104 0.9193 0.0
C2398 C 0.28657 0.59259 0.90112 0.0
C2399 C 0.27038 0.59085 0.89915 0.0
H2400 H 0.40361 0.23558 0.91388 0.0
H2401 H 0.4529 0.23584 0.90319 0.0
H2402 H 0.45269 0.26417 0.90108 0.0
H2403 H 0.43937 0.28928 0.90516 0.0
H2404 H 0.39065 0.28966 0.9175 0.0
H2405 H 0.38964 0.26105 0.91578 0.0
C2406 C 0.4142 0.24185 0.91086 0.0
C2407 C 0.42826 0.23352 0.90886 0.0
C2408 C 0.41411 0.2584 0.90989 0.0
C2409 C 0.44192 0.24189 0.905 0.0
C2410 C 0.44184 0.25816 0.90373 0.0
C2411 C 0.42842 0.28308 0.90685 0.0
C2412 C 0.415 0.29153 0.91097 0.0
C2413 C 0.42812 0.26659 0.90649 0.0
C2414 C 0.40102 0.28337 0.91385 0.0
C2415 C 0.4005 0.26699 0.91308 0.0
H2416 H 0.78539 0.42556 0.89791 0.0
H2417 H 0.79305 0.39398 0.93642 0.0
H2418 H 0.76473 0.38989 0.93885 0.0
H2419 H 0.7378 0.3979 0.93192 0.0
H2420 H 0.73021 0.42853 0.8926 0.0
H2421 H 0.75854 0.43035 0.8884 0.0
C2422 C 0.78084 0.41744 0.90655 0.0
C2423 C 0.79124 0.41001 0.91696 0.0
C2424 C 0.7646 0.41518 0.90781 0.0
C2425 C 0.78528 0.39961 0.92815 0.0
C2426 C 0.76909 0.39744 0.92964 0.0
C2427 C 0.74237 0.40473 0.92225 0.0
C2428 C 0.73197 0.41318 0.91262 0.0
C2429 C 0.75864 0.40553 0.91983 0.0
C2430 C 0.73798 0.42189 0.90008 0.0
C2431 C 0.75417 0.42299 0.89776 0.0
H2432 H 0.58911 0.77821 0.89844 0.0
H2433 H 0.62249 0.78792 0.93485 0.0
H2434 H 0.62766 0.75979 0.9377 0.0
H2435 H 0.62048 0.73234 0.93165 0.0
H2436 H 0.58815 0.72278 0.89423 0.0
H2437 H 0.58486 0.75094 0.88976 0.0
C2438 C 0.59779 0.77416 0.90675 0.0
C2439 C 0.60544 0.78511 0.91643 0.0
C2440 C 0.60077 0.75801 0.90818 0.0
C2441 C 0.61662 0.77975 0.92715 0.0
C2442 C 0.61945 0.76366 0.92887 0.0
C2443 C 0.61297 0.73645 0.9223 0.0
C2444 C 0.60452 0.72548 0.91329 0.0
C2445 C 0.61129 0.75266 0.91971 0.0
C2446 C 0.59487 0.73094 0.9012 0.0
C2447 C 0.5929 0.74705 0.89875 0.0
H2448 H 0.73363 0.62065 0.08852 0.0
H2449 H 0.72345 0.5851 0.12281 0.0
H2450 H 0.75151 0.58192 0.12791 0.0
H2451 H 0.77887 0.58705 0.12014 0.0
H2452 H 0.78906 0.62325 0.08653 0.0
H2453 H 0.761 0.6286 0.08372 0.0
C2454 C 0.73757 0.61248 0.0974 0.0
C2455 C 0.72653 0.60309 0.10529 0.0
C2456 C 0.75368 0.61077 0.10024 0.0
C2457 C 0.73171 0.59256 0.11674 0.0
C2458 C 0.74775 0.59065 0.11952 0.0
C2459 C 0.77494 0.59635 0.11245 0.0
C2460 C 0.78598 0.60472 0.10347 0.0
C2461 C 0.75883 0.59936 0.111 0.0
C2462 C 0.78079 0.61676 0.09362 0.0
C2463 C 0.76476 0.61971 0.09194 0.0
H2464 H 0.39589 0.73779 0.08678 0.0
H2465 H 0.4288 0.72867 0.12379 0.0
H2466 H 0.43161 0.75687 0.12836 0.0
H2467 H 0.42657 0.78414 0.11999 0.0
H2468 H 0.39233 0.79333 0.08424 0.0
H2469 H 0.38793 0.7651 0.0811 0.0
C2470 C 0.40345 0.742 0.09605 0.0
C2471 C 0.41219 0.73118 0.10493 0.0
C2472 C 0.40476 0.75822 0.09876 0.0
C2473 C 0.42188 0.73675 0.11692 0.0
C2474 C 0.42355 0.75288 0.11944 0.0
C2475 C 0.41788 0.77994 0.11177 0.0
C2476 C 0.40975 0.79077 0.10236 0.0
C2477 C 0.41531 0.76372 0.1102 0.0
C2478 C 0.39856 0.78523 0.09174 0.0
C2479 C 0.39617 0.76909 0.08985 0.0
H2480 H 0.58377 0.23829 0.12051 0.0
H2481 H 0.62252 0.22879 0.08978 0.0
H2482 H 0.62716 0.25699 0.08675 0.0
H2483 H 0.6185 0.2844 0.09096 0.0
H2484 H 0.58105 0.29384 0.12328 0.0
H2485 H 0.57765 0.26568 0.12776 0.0
C2486 C 0.59343 0.24242 0.11339 0.0
C2487 C 0.60278 0.23147 0.10533 0.0
C2488 C 0.59617 0.25864 0.11196 0.0
C2489 C 0.61526 0.23695 0.09619 0.0
C2490 C 0.61783 0.25309 0.09438 0.0
C2491 C 0.60984 0.28027 0.09926 0.0
C2492 C 0.60005 0.29119 0.10682 0.0
C2493 C 0.60815 0.26405 0.10194 0.0
C2494 C 0.58885 0.28571 0.11749 0.0
C2495 C 0.58682 0.26959 0.11993 0.0
H2496 H 0.97483 0.78513 0.55338 0.0
H2497 H 0.93953 0.79226 0.58869 0.0
H2498 H 0.93377 0.76415 0.58873 0.0
H2499 H 0.93877 0.73727 0.57847 0.0
H2500 H 0.97367 0.73131 0.54241 0.0
H2501 H 0.97944 0.75905 0.54301 0.0
C2502 C 0.9659 0.7806 0.56118 0.0
C2503 C 0.95772 0.79091 0.57108 0.0
C2504 C 0.9625 0.7645 0.56098 0.0
C2505 C 0.94607 0.78468 0.58093 0.0
C2506 C 0.94276 0.76856 0.58096 0.0
C2507 C 0.94763 0.74205 0.57076 0.0
C2508 C 0.95571 0.73202 0.5604 0.0
C2509 C 0.95089 0.75831 0.571 0.0
C2510 C 0.96712 0.73857 0.55046 0.0
C2511 C 0.97051 0.75452 0.5508 0.0
H2512 H 0.23526 0.95818 0.5485 0.0
H2513 H 0.23498 0.9444 0.59694 0.0
H2514 H 0.26332 0.93951 0.59578 0.0
H2515 H 0.28862 0.94074 0.58102 0.0
H2516 H 0.28742 0.95355 0.53211 0.0
H2517 H 0.25937 0.95701 0.53345 0.0
C2518 C 0.24138 0.95407 0.55882 0.0
C2519 C 0.23307 0.95189 0.57284 0.0
C2520 C 0.25751 0.95109 0.55798 0.0
C2521 C 0.24112 0.94623 0.58601 0.0
C2522 C 0.25734 0.94347 0.58534 0.0
C2523 C 0.28219 0.94409 0.57063 0.0
C2524 C 0.29036 0.94714 0.55655 0.0
C2525 C 0.26574 0.94606 0.5714 0.0
C2526 C 0.28168 0.95138 0.5432 0.0
C2527 C 0.26554 0.95338 0.54391 0.0
H2528 H 0.0738 0.23325 0.57938 0.0
H2529 H 0.04395 0.2268 0.53922 0.0
H2530 H 0.04633 0.25436 0.53267 0.0
H2531 H 0.0558 0.28049 0.53863 0.0
H2532 H 0.08475 0.28813 0.57922 0.0
H2533 H 0.08382 0.26009 0.58522 0.0
C2534 C 0.06795 0.23789 0.56914 0.0
C2535 C 0.05865 0.22789 0.55985 0.0
C2536 C 0.06911 0.25403 0.56552 0.0
C2537 C 0.05105 0.23417 0.54668 0.0
C2538 C 0.05242 0.24998 0.54288 0.0
C2539 C 0.06202 0.27611 0.54878 0.0
C2540 C 0.07033 0.28656 0.55843 0.0
C2541 C 0.06124 0.26005 0.55229 0.0
C2542 C 0.07823 0.28046 0.57154 0.0
C2543 C 0.0777 0.26438 0.575 0.0
H2544 H 0.77947 0.04453 0.55269 0.0
H2545 H 0.78492 0.07891 0.5892 0.0
H2546 H 0.75694 0.08455 0.58831 0.0
H2547 H 0.73075 0.07984 0.57698 0.0
H2548 H 0.72587 0.0461 0.53973 0.0
H2549 H 0.75363 0.04022 0.54111 0.0
C2550 C 0.77455 0.05321 0.56053 0.0
C2551 C 0.78435 0.06121 0.57104 0.0
C2552 C 0.75846 0.05659 0.55978 0.0
C2553 C 0.77771 0.07255 0.58096 0.0
C2554 C 0.76167 0.07579 0.58047 0.0
C2555 C 0.73575 0.0712 0.56917 0.0
C2556 C 0.7261 0.06346 0.55828 0.0
C2557 C 0.75191 0.06792 0.56989 0.0
C2558 C 0.73291 0.05235 0.5482 0.0
C2559 C 0.74884 0.04891 0.549 0.0
H2560 H 0.93832 0.22979 0.44141 0.0
H2561 H 0.98597 0.22969 0.45824 0.0
H2562 H 0.98519 0.25779 0.46147 0.0
H2563 H 0.97095 0.28238 0.46101 0.0
H2564 H 0.92387 0.28392 0.44328 0.0
H2565 H 0.9245 0.25548 0.43888 0.0
C2566 C 0.94857 0.23594 0.44563 0.0
C2567 C 0.96209 0.22739 0.44982 0.0
C2568 C 0.94815 0.25242 0.44745 0.0
C2569 C 0.97527 0.23572 0.45516 0.0
C2570 C 0.97489 0.25189 0.45702 0.0
C2571 C 0.9608 0.27652 0.45616 0.0
C2572 C 0.94731 0.28524 0.45269 0.0
C2573 C 0.96134 0.26032 0.45349 0.0
C2574 C 0.9344 0.27748 0.4461 0.0
C2575 C 0.93475 0.2612 0.44363 0.0
H2576 H 0.73546 0.93965 0.43911 0.0
H2577 H 0.72998 0.97241 0.47721 0.0
H2578 H 0.75757 0.97866 0.47613 0.0
H2579 H 0.78335 0.97496 0.46489 0.0
H2580 H 0.79011 0.94176 0.42753 0.0
H2581 H 0.76207 0.93569 0.4278 0.0
C2582 C 0.74031 0.94815 0.44717 0.0
C2583 C 0.73047 0.95547 0.45825 0.0
C2584 C 0.75648 0.9517 0.44663 0.0
C2585 C 0.7371 0.96643 0.46861 0.0
C2586 C 0.75296 0.97011 0.46799 0.0
C2587 C 0.77877 0.96645 0.45668 0.0
C2588 C 0.78895 0.95893 0.44614 0.0
C2589 C 0.76276 0.96283 0.45709 0.0
C2590 C 0.78263 0.94781 0.43577 0.0
C2591 C 0.76657 0.9443 0.43594 0.0
H2592 H 0.0691 0.78571 0.4351 0.0
H2593 H 0.04661 0.79153 0.47994 0.0
H2594 H 0.04998 0.76395 0.48559 0.0
H2595 H 0.05843 0.73801 0.47797 0.0
H2596 H 0.08019 0.73067 0.43306 0.0
H2597 H 0.07796 0.75875 0.42735 0.0
C2598 C 0.06503 0.78092 0.44611 0.0
C2599 C 0.05749 0.79082 0.45701 0.0
C2600 C 0.06678 0.76468 0.4493 0.0
C2601 C 0.05225 0.78429 0.47121 0.0
C2602 C 0.0542 0.76845 0.47451 0.0
C2603 C 0.06276 0.74243 0.4669 0.0
C2604 C 0.06948 0.73204 0.456 0.0
C2605 C 0.06129 0.7585 0.46363 0.0
C2606 C 0.07495 0.73826 0.44173 0.0
C2607 C 0.07367 0.75438 0.43845 0.0
H2608 H 0.22861 0.07522 0.43557 0.0
H2609 H 0.22714 0.03222 0.46219 0.0
H2610 H 0.25512 0.03371 0.46648 0.0
H2611 H 0.27994 0.04743 0.46371 0.0
H2612 H 0.28244 0.0899 0.43658 0.0
H2613 H 0.25425 0.08835 0.43147 0.0
C2614 C 0.23441 0.0661 0.44219 0.0
C2615 C 0.22557 0.05368 0.44861 0.0
C2616 C 0.25074 0.06696 0.44465 0.0
C2617 C 0.23345 0.04198 0.45712 0.0
C2618 C 0.24953 0.04281 0.45965 0.0
C2619 C 0.27436 0.0564 0.45669 0.0
C2620 C 0.28332 0.06886 0.4507 0.0
C2621 C 0.25825 0.05533 0.45366 0.0
C2622 C 0.27586 0.08019 0.44138 0.0
C2623 C 0.25972 0.07931 0.43848 0.0
H2624 H 0.57439 0.93609 0.73447 0.0
H2625 H 0.5363 0.96915 0.73138 0.0
H2626 H 0.53811 0.97421 0.75917 0.0
H2627 H 0.55052 0.96999 0.78441 0.0
H2628 H 0.58787 0.93645 0.7888 0.0
H2629 H 0.58626 0.93089 0.76068 0.0
C2630 C 0.56644 0.94433 0.73988 0.0
C2631 C 0.55524 0.95221 0.73059 0.0
C2632 C 0.56741 0.9472 0.7562 0.0
C2633 C 0.54503 0.96282 0.738 0.0
C2634 C 0.54606 0.96581 0.754 0.0
C2635 C 0.55838 0.96147 0.77927 0.0
C2636 C 0.56941 0.95378 0.78879 0.0
C2637 C 0.55724 0.95818 0.76319 0.0
C2638 C 0.57927 0.94259 0.78183 0.0
C2639 C 0.57836 0.93942 0.7657 0.0
H2640 H 0.05215 0.54868 0.73908 0.0
H2641 H 0.09264 0.57847 0.73522 0.0
H2642 H 0.09166 0.58348 0.76351 0.0
H2643 H 0.079 0.57922 0.78963 0.0
H2644 H 0.03789 0.54982 0.79191 0.0
H2645 H 0.0395 0.54497 0.76413 0.0
C2646 C 0.06087 0.55622 0.74436 0.0
C2647 C 0.07254 0.56305 0.73496 0.0
C2648 C 0.0601 0.55919 0.76049 0.0
C2649 C 0.08352 0.57301 0.74211 0.0
C2650 C 0.08296 0.57587 0.75833 0.0
C2651 C 0.07042 0.57175 0.78404 0.0
C2652 C 0.05835 0.56492 0.79309 0.0
C2653 C 0.07127 0.569 0.7677 0.0
C2654 C 0.04731 0.55534 0.78548 0.0
C2655 C 0.0482 0.55248 0.76948 0.0
H2656 H 0.47598 0.05647 0.73601 0.0
H2657 H 0.43942 0.09095 0.73173 0.0
H2658 H 0.4345 0.08936 0.75989 0.0
H2659 H 0.44019 0.07756 0.78586 0.0
H2660 H 0.47632 0.04243 0.78919 0.0
H2661 H 0.48166 0.04494 0.76144 0.0
C2662 C 0.46699 0.06375 0.74118 0.0
C2663 C 0.45814 0.07384 0.73165 0.0
C2664 C 0.46404 0.0626 0.75733 0.0
C2665 C 0.44646 0.08306 0.7387 0.0
C2666 C 0.4436 0.08214 0.75484 0.0
C2667 C 0.44925 0.07049 0.78051 0.0
C2668 C 0.45775 0.05978 0.78974 0.0
C2669 C 0.45225 0.07186 0.7643 0.0
C2670 C 0.46943 0.05069 0.7825 0.0
C2671 C 0.47258 0.05214 0.76656 0.0
H2672 H 0.96465 0.47499 0.73281 0.0
H2673 H 0.92664 0.44221 0.72763 0.0
H2674 H 0.92741 0.43673 0.75576 0.0
H2675 H 0.93924 0.44109 0.78194 0.0
H2676 H 0.97789 0.47339 0.78611 0.0
H2677 H 0.97646 0.47909 0.75834 0.0
C2678 C 0.95642 0.46671 0.73778 0.0
C2679 C 0.94554 0.45911 0.72803 0.0
C2680 C 0.95709 0.46343 0.75386 0.0
C2681 C 0.93514 0.44827 0.73479 0.0
C2682 C 0.93558 0.44512 0.7509 0.0
C2683 C 0.94734 0.44937 0.77677 0.0
C2684 C 0.95866 0.45676 0.78625 0.0
C2685 C 0.94658 0.45258 0.76057 0.0
C2686 C 0.96909 0.46742 0.77924 0.0
C2687 C 0.96827 0.47076 0.7633 0.0
H2688 H 0.57608 0.07293 0.23087 0.0
H2689 H 0.53781 0.04024 0.22694 0.0
H2690 H 0.53256 0.04261 0.25479 0.0
H2691 H 0.53896 0.05341 0.28047 0.0
H2692 H 0.5778 0.08529 0.28513 0.0
H2693 H 0.58261 0.08379 0.25698 0.0
C2694 C 0.56655 0.0664 0.23611 0.0
C2695 C 0.55739 0.0564 0.22672 0.0
C2696 C 0.56368 0.06762 0.25234 0.0
C2697 C 0.54516 0.04793 0.2338 0.0
C2698 C 0.54209 0.0493 0.24978 0.0
C2699 C 0.54844 0.06012 0.27537 0.0
C2700 C 0.55796 0.06947 0.28501 0.0
C2701 C 0.55131 0.05903 0.25919 0.0
C2702 C 0.57027 0.07795 0.27808 0.0
C2703 C 0.57304 0.07711 0.26193 0.0
H2704 H 0.96778 0.55071 0.23527 0.0
H2705 H 0.93675 0.59017 0.23051 0.0
H2706 H 0.9313 0.58934 0.25866 0.0
H2707 H 0.93564 0.57739 0.28486 0.0
H2708 H 0.96619 0.53732 0.28856 0.0
H2709 H 0.9714 0.53845 0.26071 0.0
C2710 C 0.95986 0.55922 0.24034 0.0
C2711 C 0.95281 0.57058 0.23073 0.0
C2712 C 0.95662 0.55853 0.25644 0.0
C2713 C 0.94239 0.5813 0.23758 0.0
C2714 C 0.93927 0.58084 0.25371 0.0
C2715 C 0.9434 0.56889 0.27957 0.0
C2716 C 0.95051 0.55731 0.28898 0.0
C2717 C 0.94634 0.56949 0.2633 0.0
C2718 C 0.96048 0.54636 0.28178 0.0
C2719 C 0.96354 0.547 0.26577 0.0
H2720 H 0.43877 0.94627 0.22633 0.0
H2721 H 0.47163 0.9847 0.22572 0.0
H2722 H 0.47568 0.98197 0.25362 0.0
H2723 H 0.47018 0.96901 0.27834 0.0
H2724 H 0.43683 0.93121 0.28016 0.0
H2725 H 0.43279 0.93337 0.25184 0.0
C2726 C 0.4468 0.95405 0.2323 0.0
C2727 C 0.45485 0.96569 0.22372 0.0
C2728 C 0.44907 0.95253 0.24865 0.0
C2729 C 0.46517 0.97567 0.23182 0.0
C2730 C 0.46757 0.97411 0.24787 0.0
C2731 C 0.46207 0.96114 0.2726 0.0
C2732 C 0.45392 0.94989 0.28147 0.0
C2733 C 0.45963 0.9626 0.2564 0.0
C2734 C 0.44331 0.93998 0.27371 0.0
C2735 C 0.44098 0.94121 0.25747 0.0
H2736 H 0.08037 0.4445 0.28517 0.0
H2737 H 0.05073 0.48529 0.28866 0.0
H2738 H 0.04536 0.48406 0.26089 0.0
H2739 H 0.04824 0.47136 0.2356 0.0
H2740 H 0.0784 0.43127 0.23085 0.0
H2741 H 0.08435 0.43234 0.25892 0.0
C2742 C 0.07282 0.45318 0.27984 0.0
C2743 C 0.06595 0.46493 0.28924 0.0
C2744 C 0.06975 0.45252 0.26357 0.0
C2745 C 0.05624 0.47608 0.28195 0.0
C2746 C 0.05308 0.47539 0.26597 0.0
C2747 C 0.05609 0.46278 0.24066 0.0
C2748 C 0.0627 0.45114 0.23107 0.0
C2749 C 0.05962 0.46361 0.2567 0.0
C2750 C 0.07308 0.44034 0.2379 0.0
C2751 C 0.07648 0.44095 0.25398 0.0
H2752 H 0.7359 0.54068 0.96996 0.0
H2753 H 0.73219 0.5732 0.93154 0.0
H2754 H 0.76021 0.57875 0.93334 0.0
H2755 H 0.78597 0.57442 0.946 0.0
H2756 H 0.78886 0.54254 0.98512 0.0
H2757 H 0.76113 0.53685 0.98286 0.0
C2758 C 0.74119 0.54892 0.96189 0.0
C2759 C 0.73186 0.5564 0.95055 0.0
C2760 C 0.75727 0.55228 0.96316 0.0
C2761 C 0.73901 0.56722 0.94038 0.0
C2762 C 0.75507 0.57042 0.94141 0.0
C2763 C 0.78054 0.56625 0.95405 0.0
C2764 C 0.78968 0.55894 0.96572 0.0
C2765 C 0.76435 0.56305 0.9528 0.0
C2766 C 0.78228 0.54843 0.97605 0.0
C2767 C 0.76635 0.5451 0.97475 0.0
H2768 H 0.78156 0.47 0.04711 0.0
H2769 H 0.78526 0.43196 0.08007 0.0
H2770 H 0.75712 0.43336 0.08507 0.0
H2771 H 0.73117 0.44524 0.07975 0.0
H2772 H 0.7283 0.48396 0.04735 0.0
H2773 H 0.75622 0.48243 0.04265 0.0
C2774 C 0.77624 0.46195 0.05537 0.0
C2775 C 0.78559 0.45081 0.06309 0.0
C2776 C 0.76009 0.46297 0.05837 0.0
C2777 C 0.77842 0.44066 0.07392 0.0
C2778 C 0.76228 0.44145 0.07679 0.0
C2779 C 0.73665 0.4534 0.07173 0.0
C2780 C 0.72744 0.46467 0.06392 0.0
C2781 C 0.75296 0.45255 0.06906 0.0
C2782 C 0.73491 0.47514 0.0536 0.0
C2783 C 0.75097 0.47427 0.05082 0.0
H2784 H 0.54802 0.73176 0.04746 0.0
H2785 H 0.57194 0.72868 0.09172 0.0
H2786 H 0.57796 0.75675 0.09046 0.0
H2787 H 0.57581 0.78245 0.07684 0.0
H2788 H 0.55248 0.78436 0.03205 0.0
H2789 H 0.54705 0.75656 0.03348 0.0
C2790 C 0.55449 0.73719 0.05692 0.0
C2791 C 0.55931 0.72809 0.06978 0.0
C2792 C 0.55811 0.7532 0.05598 0.0
C2793 C 0.56799 0.73537 0.08172 0.0
C2794 C 0.57144 0.75144 0.08098 0.0
C2795 C 0.56965 0.77677 0.06733 0.0
C2796 C 0.56449 0.78572 0.05441 0.0
C2797 C 0.56652 0.76053 0.06817 0.0
C2798 C 0.55655 0.77799 0.04221 0.0
C2799 C 0.55338 0.76201 0.043 0.0
H2800 H 0.28743 0.57462 0.07886 0.0
H2801 H 0.2912 0.53822 0.04401 0.0
H2802 H 0.26366 0.54068 0.03805 0.0
H2803 H 0.23827 0.55273 0.04253 0.0
H2804 H 0.23335 0.5884 0.07783 0.0
H2805 H 0.26133 0.58667 0.08365 0.0
C2806 C 0.28222 0.56722 0.06999 0.0
C2807 C 0.29158 0.55622 0.06199 0.0
C2808 C 0.26606 0.56856 0.06659 0.0
C2809 C 0.28447 0.54674 0.05052 0.0
C2810 C 0.26863 0.54815 0.047 0.0
C2811 C 0.24328 0.56024 0.05144 0.0
C2812 C 0.23362 0.57074 0.05963 0.0
C2813 C 0.2593 0.55899 0.05493 0.0
C2814 C 0.24043 0.5802 0.07127 0.0
C2815 C 0.25647 0.57921 0.07464 0.0
H2816 H 0.4651 0.23532 0.04108 0.0
H2817 H 0.42719 0.23015 0.07398 0.0
H2818 H 0.42826 0.25825 0.07963 0.0
H2819 H 0.44046 0.28441 0.07551 0.0
H2820 H 0.47909 0.28846 0.04319 0.0
H2821 H 0.47718 0.26078 0.03714 0.0
C2822 C 0.45694 0.24028 0.04942 0.0
C2823 C 0.44601 0.23052 0.057 0.0
C2824 C 0.4578 0.25634 0.05281 0.0
C2825 C 0.43571 0.2373 0.06791 0.0
C2826 C 0.43634 0.2534 0.07117 0.0
C2827 C 0.44844 0.27924 0.06713 0.0
C2828 C 0.45993 0.28865 0.05987 0.0
C2829 C 0.44741 0.26306 0.06375 0.0
C2830 C 0.47019 0.28163 0.04908 0.0
C2831 C 0.46909 0.26574 0.04554 0.0
H2832 H 0.23461 0.46717 0.97196 0.0
H2833 H 0.23073 0.42796 0.94043 0.0
H2834 H 0.2588 0.42921 0.93522 0.0
H2835 H 0.2845 0.44169 0.93936 0.0
H2836 H 0.28784 0.48149 0.97028 0.0
H2837 H 0.26002 0.47974 0.97585 0.0
C2838 C 0.23989 0.4588 0.96404 0.0
C2839 C 0.23052 0.44744 0.95668 0.0
C2840 C 0.256 0.45974 0.96087 0.0
C2841 C 0.23762 0.43684 0.94628 0.0
C2842 C 0.25369 0.43755 0.94328 0.0
C2843 C 0.27916 0.44999 0.94731 0.0
C2844 C 0.28838 0.4617 0.95436 0.0
C2845 C 0.26301 0.44901 0.95044 0.0
C2846 C 0.28114 0.47238 0.96459 0.0
C2847 C 0.26518 0.47137 0.96785 0.0
H2848 H 0.55291 0.2812 0.96887 0.0
H2849 H 0.58043 0.28443 0.92674 0.0
H2850 H 0.58583 0.25622 0.92809 0.0
H2851 H 0.58228 0.23034 0.94135 0.0
H2852 H 0.55524 0.22861 0.98407 0.0
H2853 H 0.55025 0.25638 0.98231 0.0
C2854 C 0.56005 0.27579 0.95989 0.0
C2855 C 0.5661 0.28496 0.94762 0.0
C2856 C 0.56325 0.25971 0.96087 0.0
C2857 C 0.57557 0.27768 0.93631 0.0
C2858 C 0.57865 0.26152 0.93708 0.0
C2859 C 0.57533 0.23605 0.95028 0.0
C2860 C 0.56911 0.22714 0.96277 0.0
C2861 C 0.5725 0.25236 0.94932 0.0
C2862 C 0.5602 0.23492 0.97426 0.0
C2863 C 0.55728 0.2509 0.97329 0.0
H2864 H 0.47031 0.7809 0.97418 0.0
H2865 H 0.43169 0.78476 0.942 0.0
H2866 H 0.43358 0.75685 0.93612 0.0
H2867 H 0.44615 0.73118 0.9402 0.0
H2868 H 0.48541 0.72781 0.97177 0.0
H2869 H 0.48335 0.75557 0.97761 0.0
C2870 C 0.46224 0.77563 0.96594 0.0
C2871 C 0.45081 0.78495 0.95864 0.0
C2872 C 0.46356 0.75961 0.96239 0.0
C2873 C 0.44061 0.77791 0.94782 0.0
C2874 C 0.44168 0.76192 0.94443 0.0
C2875 C 0.45432 0.73651 0.9483 0.0
C2876 C 0.46589 0.72726 0.95552 0.0
C2877 C 0.45314 0.75263 0.95162 0.0
C2878 C 0.47637 0.73451 0.96596 0.0
C2879 C 0.47519 0.75044 0.96939 0.0
H2880 H 0.04619 0.17632 0.42625 0.0
H2881 H 0.03892 0.22582 0.43275 0.0
H2882 H 0.01085 0.22238 0.42892 0.0
H2883 H 0.98792 0.20497 0.4264 0.0
H2884 H 0.99492 0.15528 0.42251 0.0
H2885 H 0.02331 0.15909 0.42222 0.0
C2886 C 0.03852 0.1864 0.42652 0.0
C2887 C 0.04478 0.20133 0.42981 0.0
C2888 C 0.02221 0.18428 0.42473 0.0
C2889 C 0.03451 0.21419 0.43032 0.0
C2890 C 0.0184 0.21224 0.42812 0.0
C2891 C 0.99569 0.19504 0.42505 0.0
C2892 C 0.98934 0.17988 0.42412 0.0
C2893 C 0.01205 0.1973 0.42567 0.0
C2894 C 0.99954 0.16708 0.42287 0.0
C2895 C 0.01579 0.16926 0.42288 0.0
H2896 H 0.84095 0.05006 0.42808 0.0
H2897 H 0.79113 0.04228 0.42769 0.0
H2898 H 0.79526 0.01435 0.42374 0.0
H2899 H 0.81297 0.99152 0.42313 0.0
H2900 H 0.86265 0.9989 0.42536 0.0
H2901 H 0.85872 0.0273 0.42556 0.0
C2902 C 0.831 0.0423 0.42684 0.0
C2903 C 0.81574 0.0484 0.42828 0.0
C2904 C 0.83345 0.02603 0.42489 0.0
C2905 C 0.80302 0.03802 0.42678 0.0
C2906 C 0.80535 0.02197 0.4245 0.0
C2907 C 0.82291 0.9994 0.42313 0.0
C2908 C 0.83811 0.99314 0.42379 0.0
C2909 C 0.8205 0.01575 0.42388 0.0
C2910 C 0.85087 1.00346 0.42445 0.0
C2911 C 0.84861 0.01971 0.42474 0.0
H2912 H 0.96896 0.84244 0.42646 0.0
H2913 H 0.97477 0.79233 0.42779 0.0
H2914 H 1.00293 0.79529 0.42468 0.0
H2915 H 0.02646 0.81215 0.42471 0.0
H2916 H 0.02087 0.86216 0.42499 0.0
H2917 H 0.99242 0.85926 0.42404 0.0
C2918 C 0.97634 0.83216 0.42575 0.0
C2919 C 0.9696 0.81718 0.4275 0.0
C2920 C 0.99274 0.83394 0.42425 0.0
C2921 C 0.97951 0.80403 0.42666 0.0
C2922 C 0.9957 0.8057 0.42486 0.0
C2923 C 0.01899 0.82237 0.42397 0.0
C2924 C 0.02578 0.83736 0.42449 0.0
C2925 C 1.00254 0.82059 0.42405 0.0
C2926 C 0.01593 0.85051 0.42421 0.0
C2927 C 0.99963 0.84885 0.42385 0.0
H2928 H 0.17201 0.97185 0.42607 0.0
H2929 H 0.22159 0.97787 0.41938 0.0
H2930 H 0.21792 1.00592 0.41535 0.0
H2931 H 0.20101 0.02938 0.41678 0.0
H2932 H 0.15189 0.02361 0.42597 0.0
H2933 H 0.15486 0.99513 0.4257 0.0
C2934 C 0.18195 0.97924 0.42335 0.0
C2935 C 0.19706 0.97266 0.42299 0.0
C2936 C 0.17982 0.99557 0.42155 0.0
C2937 C 0.20983 0.98255 0.41975 0.0
C2938 C 0.20775 0.99866 0.41747 0.0
C2939 C 0.1909 0.02184 0.41819 0.0
C2940 C 0.17616 0.02859 0.42101 0.0
C2941 C 0.19286 1.0054 0.41873 0.0
C2942 C 0.16328 0.01868 0.42347 0.0
C2943 C 0.16501 1.00238 0.42345 0.0
H2944 H 0.98931 0.8144 0.59598 0.0
H2945 H 0.99593 0.86428 0.59648 0.0
H2946 H 0.02434 0.8608 0.59709 0.0
H2947 H 0.04745 0.84351 0.59418 0.0
H2948 H 0.04044 0.79357 0.59209 0.0
H2949 H 0.01241 0.79708 0.59546 0.0
C2950 C 0.997 0.82446 0.59682 0.0
C2951 C 0.99051 0.83958 0.59665 0.0
C2952 C 0.0134 0.82234 0.59653 0.0
C2953 C 1.00064 0.85253 0.59704 0.0
C2954 C 0.01691 0.85053 0.59719 0.0
C2955 C 0.03984 0.83339 0.59477 0.0
C2956 C 0.04621 0.81829 0.59273 0.0
C2957 C 0.02348 0.83549 0.59645 0.0
C2958 C 0.036 0.80535 0.59343 0.0
C2959 C 0.01987 0.80733 0.59539 0.0
H2960 H 0.21661 0.03701 0.59871 0.0
H2961 H 0.16888 0.05241 0.59371 0.0
H2962 H 0.15977 0.02541 0.59585 0.0
H2963 H 0.16559 0.99706 0.59607 0.0
H2964 H 0.21296 0.98154 0.60273 0.0
H2965 H 0.222 1.0088 0.60317 0.0
C2966 C 0.2042 0.03448 0.5984 0.0
C2967 C 0.19347 0.0468 0.59592 0.0
C2968 C 0.19898 0.01884 0.59986 0.0
C2969 C 0.17741 0.04326 0.59567 0.0
C2970 C 0.17218 0.02776 0.59679 0.0
C2971 C 0.17782 0.9997 0.59809 0.0
C2972 C 0.18859 0.98734 0.59952 0.0
C2973 C 0.18288 0.01542 0.59847 0.0
C2974 C 0.20444 0.99087 0.6019 0.0
C2975 C 0.20961 1.00647 0.60198 0.0
H2976 H 0.0214 0.16713 0.60014 0.0
H2977 H 0.03802 0.21451 0.59647 0.0
H2978 H 0.01102 0.22421 0.59723 0.0
H2979 H 0.98248 0.21873 0.59557 0.0
H2980 H 0.9664 0.17109 0.60054 0.0
H2981 H 0.99324 0.16206 0.60289 0.0
C2982 C 0.0191 0.17961 0.60007 0.0
C2983 C 0.03165 0.19011 0.59844 0.0
C2984 C 1.00358 0.18505 0.6005 0.0
C2985 C 0.02856 0.20624 0.59807 0.0
C2986 C 0.01309 0.21176 0.59829 0.0
C2987 C 0.98484 0.20642 0.59745 0.0
C2988 C 0.97232 0.19563 0.59767 0.0
C2989 C 1.00046 0.20122 0.59899 0.0
C2990 C 0.97567 0.17972 0.60029 0.0
C2991 C 0.99109 0.17448 0.60157 0.0
H2992 H 0.85148 0.02239 0.59761 0.0
H2993 H 0.80418 0.0385 0.6034 0.0
H2994 H 0.79483 0.01135 0.60387 0.0
H2995 H 0.79996 0.98305 0.59939 0.0
H2996 H 0.84764 0.96718 0.59532 0.0
H2997 H 0.85698 0.99405 0.59767 0.0
C2998 C 0.83919 0.01991 0.59951 0.0
C2999 C 0.82855 0.03241 0.60062 0.0
C3000 C 0.83394 1.00427 0.59987 0.0
C3001 C 0.81263 0.02908 0.60284 0.0
C3002 C 0.80726 0.01354 0.6029 0.0
C3003 C 0.81241 0.98545 0.59933 0.0
C3004 C 0.82306 0.97303 0.59703 0.0
C3005 C 0.81777 1.00103 0.60095 0.0
C3006 C 0.83915 0.9764 0.59712 0.0
C3007 C 0.84453 0.99182 0.59837 0.0
H3008 H 0.42577 0.05154 0.17325 0.0
H3009 H 0.4269 0.04472 0.22323 0.0
H3010 H 0.4239 0.01656 0.21972 0.0
H3011 H 0.42392 0.9934 0.20239 0.0
H3012 H 0.42484 1.00007 0.15251 0.0
H3013 H 0.42377 0.02848 0.15597 0.0
C3014 C 0.42506 0.04394 0.18338 0.0
C3015 C 0.42666 0.05036 0.19849 0.0
C3016 C 0.42369 0.02758 0.18128 0.0
C3017 C 0.42584 0.04019 0.21145 0.0
C3018 C 0.42411 0.02402 0.20947 0.0
C3019 C 0.42333 1.0011 0.19232 0.0
C3020 C 0.42406 0.99466 0.1772 0.0
C3021 C 0.4234 0.01751 0.19444 0.0
C3022 C 0.42395 1.00477 0.16424 0.0
C3023 C 0.4235 0.02103 0.16623 0.0
H3024 H 0.02963 0.42755 0.20879 0.0
H3025 H 0.02493 0.41667 0.15991 0.0
H3026 H 0.99648 0.41486 0.16281 0.0
H3027 H 0.97269 0.4198 0.1786 0.0
H3028 H 0.97773 0.4319 0.22735 0.0
H3029 H 1.00601 0.42971 0.22519 0.0
C3030 C 0.02238 0.42423 0.19893 0.0
C3031 C 0.02938 0.42185 0.18424 0.0
C3032 C 1.00596 0.42376 0.2006 0.0
C3033 C 0.01983 0.41813 0.17142 0.0
C3034 C 1.00353 0.4173 0.17304 0.0
C3035 C 0.97994 0.42166 0.18883 0.0
C3036 C 0.97292 0.42619 0.20308 0.0
C3037 C 0.9964 0.42059 0.18748 0.0
C3038 C 0.98266 0.42858 0.21617 0.0
C3039 C 0.99892 0.42732 0.21496 0.0
H3040 H 0.59108 0.97969 0.21707 0.0
H3041 H 0.58815 0.96316 0.16947 0.0
H3042 H 0.59003 0.98989 0.15982 0.0
H3043 H 0.58998 0.01821 0.1648 0.0
H3044 H 0.59466 0.03525 0.21191 0.0
H3045 H 0.59484 1.00826 0.22182 0.0
C3046 C 0.59107 0.98194 0.20459 0.0
C3047 C 0.58933 0.96933 0.19405 0.0
C3048 C 0.59247 0.99749 0.19901 0.0
C3049 C 0.5895 0.97252 0.1779 0.0
C3050 C 0.59051 0.98786 0.17233 0.0
C3051 C 0.59148 0.01598 0.1772 0.0
C3052 C 0.59246 0.02868 0.18759 0.0
C3053 C 0.59169 1.00046 0.18275 0.0
C3054 C 0.59422 0.02566 0.20365 0.0
C3055 C 0.59412 0.01022 0.20932 0.0
H3056 H 0.03529 0.59646 0.21625 0.0
H3057 H 0.05125 0.58865 0.16901 0.0
H3058 H 0.02454 0.59055 0.15941 0.0
H3059 H 0.99631 0.59207 0.16455 0.0
H3060 H 0.97991 0.60168 0.21114 0.0
H3061 H 1.00694 0.60166 0.22084 0.0
C3062 C 0.03291 0.59537 0.20384 0.0
C3063 C 0.04533 0.59228 0.19341 0.0
C3064 C 0.0174 0.59682 0.19826 0.0
C3065 C 0.04202 0.59106 0.17733 0.0
C3066 C 0.02669 0.59209 0.1718 0.0
C3067 C 0.99873 0.59461 0.17675 0.0
C3068 C 0.9862 0.59705 0.18709 0.0
C3069 C 0.01427 0.59469 0.18216 0.0
C3070 C 0.9894 0.6001 0.2029 0.0
C3071 C 1.00486 0.59989 0.20847 0.0
H3072 H 0.42617 0.98202 0.80076 0.0
H3073 H 0.42952 0.96575 0.84845 0.0
H3074 H 0.42738 0.99249 0.85795 0.0
H3075 H 0.42711 0.02079 0.85278 0.0
H3076 H 0.42186 0.0375 0.80558 0.0
H3077 H 0.422 0.01047 0.79584 0.0
C3078 C 0.4262 0.98433 0.81323 0.0
C3079 C 0.42815 0.9718 0.82383 0.0
C3080 C 0.42465 0.99986 0.81872 0.0
C3081 C 0.42801 0.97505 0.83997 0.0
C3082 C 0.42685 0.9904 0.84546 0.0
C3083 C 0.42557 0.01846 0.8404 0.0
C3084 C 0.42436 0.03107 0.82992 0.0
C3085 C 0.42549 1.00292 0.83495 0.0
C3086 C 0.42252 0.02796 0.8139 0.0
C3087 C 0.42278 0.0125 0.80832 0.0
H3088 H 0.03372 0.42407 0.79867 0.0
H3089 H 0.04892 0.43144 0.84622 0.0
H3090 H 0.02207 0.42933 0.85541 0.0
H3091 H 0.99395 0.42767 0.84985 0.0
H3092 H 0.9783 0.41851 0.80292 0.0
H3093 H 1.00547 0.4188 0.79361 0.0
C3094 C 0.03114 0.42503 0.81105 0.0
C3095 C 0.04338 0.42805 0.8217 0.0
C3096 C 0.01555 0.42345 0.81639 0.0
C3097 C 0.03982 0.42909 0.83774 0.0
C3098 C 0.02441 0.42793 0.84304 0.0
C3099 C 0.99655 0.42532 0.83766 0.0
C3100 C 0.98418 0.42295 0.82711 0.0
C3101 C 0.01216 0.42539 0.83247 0.0
C3102 C 0.98765 0.42007 0.81131 0.0
C3103 C 1.00319 0.42043 0.80597 0.0
H3104 H 0.59985 0.03494 0.80391 0.0
H3105 H 0.59807 0.05072 0.85179 0.0
H3106 H 0.59998 0.02373 0.86094 0.0
H3107 H 0.59862 0.99541 0.85531 0.0
H3108 H 0.6018 0.9794 0.80771 0.0
H3109 H 0.60308 1.00657 0.79847 0.0
C3110 C 0.60022 0.0325 0.81635 0.0
C3111 C 0.59867 0.04493 0.82713 0.0
C3112 C 0.6015 0.01685 0.82159 0.0
C3113 C 0.59929 0.04149 0.84321 0.0
C3114 C 0.60028 0.026 0.84847 0.0
C3115 C 0.60016 0.9979 0.84296 0.0
C3116 C 0.60031 0.98543 0.83221 0.0
C3117 C 0.60093 0.01356 0.83778 0.0
C3118 C 0.60201 0.98878 0.81622 0.0
C3119 C 0.60253 1.00434 0.81094 0.0
H3120 H 0.02173 0.59691 0.85694 0.0
H3121 H 0.03885 0.59995 0.8097 0.0
H3122 H 0.01192 0.6008 0.79982 0.0
H3123 H 0.98336 0.59762 0.80469 0.0
H3124 H 0.9667 0.59637 0.85233 0.0
H3125 H 0.99342 0.59812 0.86195 0.0
C3126 C 0.01953 0.59827 0.84452 0.0
C3127 C 0.03223 0.5985 0.83407 0.0
C3128 C 1.00404 0.59887 0.83898 0.0
C3129 C 0.02927 0.60005 0.81799 0.0
C3130 C 0.01385 0.60034 0.81234 0.0
C3131 C 0.98557 0.59801 0.81716 0.0
C3132 C 0.97294 0.59671 0.82774 0.0
C3133 C 1.00111 0.5993 0.82271 0.0
C3134 C 0.97608 0.59739 0.84388 0.0
C3135 C 0.99142 0.59831 0.84943 0.0
H3136 H 0.21393 0.41928 0.03485 0.0
H3137 H 0.16797 0.43259 0.05073 0.0
H3138 H 0.15809 0.43097 0.02399 0.0
H3139 H 0.16304 0.42828 0.99567 0.0
H3140 H 0.20827 0.4131 0.9797 0.0
H3141 H 0.21785 0.41273 1.00675 0.0
C3142 C 0.2017 0.42159 0.03247 0.0
C3143 C 0.19175 0.42619 0.04483 0.0
C3144 C 0.19596 0.42032 0.017 0.0
C3145 C 0.1759 0.42899 0.04153 0.0
C3146 C 0.17023 0.42814 0.02619 0.0
C3147 C 0.17487 0.42448 0.99819 0.0
C3148 C 0.1849 0.4206 0.98572 0.0
C3149 C 0.18021 0.42414 0.01379 0.0
C3150 C 0.20024 0.41585 0.9891 0.0
C3151 C 0.20577 0.41582 1.00457 0.0
H3152 H 0.17773 0.59642 0.97301 0.0
H3153 H 0.22785 0.59819 0.97795 0.0
H3154 H 0.2252 0.60171 1.00612 0.0
H3155 H 0.20882 0.60074 0.02995 0.0
H3156 H 0.15889 0.59709 0.02526 0.0
H3157 H 0.1612 0.59816 0.99674 0.0
C3158 C 0.18805 0.59798 0.98019 0.0
C3159 C 0.20297 0.59696 0.97325 0.0
C3160 C 0.18647 0.59961 0.99661 0.0
C3161 C 0.2162 0.5988 0.98289 0.0
C3162 C 0.21472 0.6008 0.99908 0.0
C3163 C 0.19844 0.60081 0.02266 0.0
C3164 C 0.18367 0.59926 0.02973 0.0
C3165 C 0.19994 0.60076 1.00617 0.0
C3166 C 0.17036 0.59866 0.02011 0.0
C3167 C 0.1717 0.59909 1.00377 0.0
H3168 H 0.42043 0.20601 0.02456 0.0
H3169 H 0.42462 0.15617 0.01894 0.0
H3170 H 0.42453 0.15912 0.99044 0.0
H3171 H 0.42692 0.17618 0.96721 0.0
H3172 H 0.42518 0.22621 0.9731 0.0
H3173 H 0.42043 0.22297 1.0011 0.0
C3174 C 0.42077 0.1958 0.01704 0.0
C3175 C 0.42217 0.18086 0.02379 0.0
C3176 C 0.42138 0.19767 1.00062 0.0
C3177 C 0.42322 0.16775 0.01396 0.0
C3178 C 0.42331 0.16945 0.99767 0.0
C3179 C 0.42504 0.18634 0.97455 0.0
C3180 C 0.42636 0.20142 0.968 0.0
C3181 C 0.42289 0.1844 0.99084 0.0
C3182 C 0.42422 0.21447 0.9778 0.0
C3183 C 0.42157 0.21263 0.99386 0.0
H3184 H 0.80169 0.42046 0.9836 0.0
H3185 H 0.84932 0.42731 0.96843 0.0
H3186 H 0.85834 0.42563 0.99541 0.0
H3187 H 0.85251 0.42494 0.02361 0.0
H3188 H 0.80542 0.4165 0.03918 0.0
H3189 H 0.7964 0.41583 0.01192 0.0
C3190 C 0.81406 0.42136 0.9862 0.0
C3191 C 0.82478 0.42417 0.97392 0.0
C3192 C 0.81928 0.42008 1.00186 0.0
C3193 C 0.84079 0.42513 0.97754 0.0
C3194 C 0.84598 0.42423 0.99302 0.0
C3195 C 0.84036 0.42247 0.02099 0.0
C3196 C 0.82968 0.42059 0.03337 0.0
C3197 C 0.83532 0.42205 1.0053 0.0
C3198 C 0.81392 0.41764 0.02985 0.0
C3199 C 0.80874 0.41747 0.01425 0.0
H3200 H 0.59842 0.80973 0.02895 0.0
H3201 H 0.58893 0.85893 0.02403 0.0
H3202 H 0.58931 0.85647 0.99551 0.0
H3203 H 0.58934 0.83976 0.9719 0.0
H3204 H 0.59654 0.79012 0.97704 0.0
H3205 H 0.60014 0.79328 1.00518 0.0
C3206 C 0.59696 0.81997 0.02159 0.0
C3207 C 0.59401 0.83457 0.02859 0.0
C3208 C 0.5965 0.81832 1.00511 0.0
C3209 C 0.5915 0.84763 0.01891 0.0
C3210 C 0.59159 0.8462 1.00258 0.0
C3211 C 0.59203 0.82969 0.97913 0.0
C3212 C 0.59265 0.81472 0.97225 0.0
C3213 C 0.59365 0.83152 0.99551 0.0
C3214 C 0.59591 0.80178 0.98194 0.0
C3215 C 0.59797 0.80357 0.9981 0.0
H3216 H 0.84033 0.59101 0.04837 0.0
H3217 H 0.79031 0.59169 0.04219 0.0
H3218 H 0.79359 0.59479 0.01403 0.0
H3219 H 0.8106 0.59429 0.99061 0.0
H3220 H 0.86046 0.59166 0.99662 0.0
H3221 H 0.85738 0.59266 0.02506 0.0
C3222 C 0.83015 0.59214 0.04091 0.0
C3223 C 0.81509 0.591 0.04753 0.0
C3224 C 0.8321 0.59359 0.02452 0.0
C3225 C 0.80206 0.59237 0.03752 0.0
C3226 C 0.80391 0.59416 0.02134 0.0
C3227 C 0.82077 0.59451 0.99817 0.0
C3228 C 0.83576 0.59329 0.99151 0.0
C3229 C 0.81886 0.59441 0.01462 0.0
C3230 C 0.84882 0.59293 1.00147 0.0
C3231 C 0.84705 0.59334 0.01776 0.0
H3232 H 0.42276 0.85284 0.99621 0.0
H3233 H 0.41581 0.80527 0.98127 0.0
H3234 H 0.41402 0.79675 1.00864 0.0
H3235 H 0.41765 0.80257 0.03689 0.0
H3236 H 0.42306 0.85055 0.05155 0.0
H3237 H 0.42197 0.85919 0.02436 0.0
C3238 C 0.42035 0.84069 0.99898 0.0
C3239 C 0.41927 0.82972 0.98677 0.0
C3240 C 0.41925 0.83593 0.01474 0.0
C3241 C 0.41636 0.81397 0.99046 0.0
C3242 C 0.41554 0.80908 1.00613 0.0
C3243 C 0.41828 0.81494 0.03415 0.0
C3244 C 0.42059 0.82587 0.04632 0.0
C3245 C 0.41743 0.8199 0.01839 0.0
C3246 C 0.42124 0.84187 0.04251 0.0
C3247 C 0.42072 0.84683 0.02691 0.0
H3248 H 0.59656 0.16358 1.00116 0.0
H3249 H 0.60398 0.21026 0.98375 0.0
H3250 H 0.60384 0.22046 0.01058 0.0
H3251 H 0.59876 0.21626 0.03893 0.0
H3252 H 0.59331 0.16912 0.05618 0.0
H3253 H 0.5958 0.15894 0.02965 0.0
C3254 C 0.59858 0.17592 1.00331 0.0
C3255 C 0.60035 0.18615 0.99053 0.0
C3256 C 0.5987 0.18164 0.01877 0.0
C3257 C 0.60284 0.20214 0.99341 0.0
C3258 C 0.60259 0.20798 1.00876 0.0
C3259 C 0.59843 0.20374 0.0369 0.0
C3260 C 0.59573 0.1935 0.04959 0.0
C3261 C 0.60013 0.19788 0.02153 0.0
C3262 C 0.59544 0.1773 0.04672 0.0
C3263 C 0.59675 0.17145 0.0315 0.0
H3264 H 0.54796 0.67413 0.92497 0.0
H3265 H 0.54325 0.72435 0.92548 0.0
H3266 H 0.51494 0.72189 0.92262 0.0
H3267 H 0.49111 0.70541 0.92272 0.0
H3268 H 0.49583 0.65532 0.92482 0.0
H3269 H 0.52433 0.65771 0.92365 0.0
C3270 C 0.54078 0.68454 0.92413 0.0
C3271 C 0.54781 0.69941 0.92543 0.0
C3272 C 0.52439 0.68304 0.92298 0.0
C3273 C 0.53822 0.71276 0.92457 0.0
C3274 C 0.52198 0.71137 0.92294 0.0
C3275 C 0.49842 0.69505 0.92244 0.0
C3276 C 0.49142 0.68018 0.92349 0.0
C3277 C 0.51487 0.69657 0.92249 0.0
C3278 C 0.50099 0.66685 0.92373 0.0
C3279 C 0.51728 0.66823 0.92319 0.0
H3280 H 0.30252 0.53651 0.9215 0.0
H3281 H 0.35074 0.55108 0.92432 0.0
H3282 H 0.35925 0.52396 0.92244 0.0
H3283 H 0.35302 0.49584 0.9227 0.0
H3284 H 0.30522 0.48089 0.91789 0.0
H3285 H 0.29653 0.50825 0.91766 0.0
C3286 C 0.31488 0.53374 0.92144 0.0
C3287 C 0.32595 0.54587 0.92318 0.0
C3288 C 0.31979 0.51801 0.92005 0.0
C3289 C 0.34194 0.54206 0.92294 0.0
C3290 C 0.34685 0.52651 0.92195 0.0
C3291 C 0.34075 0.49863 0.92117 0.0
C3292 C 0.32978 0.48642 0.92022 0.0
C3293 C 0.33589 0.51436 0.92085 0.0
C3294 C 0.31389 0.49012 0.91837 0.0
C3295 C 0.30892 0.50577 0.91842 0.0
H3296 H 0.4823 0.30132 0.92128 0.0
H3297 H 0.46741 0.3491 0.92783 0.0
H3298 H 0.4944 0.35802 0.92602 0.0
H3299 H 0.52255 0.3521 0.92516 0.0
H3300 H 0.53782 0.30488 0.91688 0.0
H3301 H 0.51053 0.2959 0.91659 0.0
C3302 C 0.48497 0.3137 0.92209 0.0
C3303 C 0.47277 0.32449 0.92484 0.0
C3304 C 0.50063 0.31886 0.92074 0.0
C3305 C 0.47646 0.34051 0.92569 0.0
C3306 C 0.49195 0.34564 0.92473 0.0
C3307 C 0.51984 0.33992 0.92284 0.0
C3308 C 0.53212 0.32919 0.92087 0.0
C3309 C 0.50415 0.33492 0.92257 0.0
C3310 C 0.52853 0.3134 0.9181 0.0
C3311 C 0.51293 0.30825 0.91813 0.0
H3312 H 0.70775 0.52689 0.91896 0.0
H3313 H 0.65785 0.52192 0.92279 0.0
H3314 H 0.66022 0.49344 0.92103 0.0
H3315 H 0.67679 0.46975 0.92204 0.0
H3316 H 0.72689 0.47487 0.9203 0.0
H3317 H 0.7242 0.50314 0.91745 0.0
C3318 C 0.6974 0.51956 0.91881 0.0
C3319 C 0.68261 0.52651 0.92061 0.0
C3320 C 0.69893 0.50308 0.91847 0.0
C3321 C 0.66932 0.51684 0.92107 0.0
C3322 C 0.6707 0.50053 0.92023 0.0
C3323 C 0.68709 0.47701 0.92063 0.0
C3324 C 0.70202 0.47009 0.92144 0.0
C3325 C 0.68548 0.49345 0.91944 0.0
C3326 C 0.71524 0.4798 0.91982 0.0
C3327 C 0.71372 0.49604 0.91821 0.0
H3328 H 0.53403 0.30108 0.09538 0.0
H3329 H 0.54924 0.34923 0.0943 0.0
H3330 H 0.52223 0.35802 0.09611 0.0
H3331 H 0.49409 0.35217 0.09504 0.0
H3332 H 0.47839 0.3044 0.09773 0.0
H3333 H 0.50562 0.29534 0.09847 0.0
C3334 C 0.53144 0.31349 0.09579 0.0
C3335 C 0.54375 0.32445 0.09454 0.0
C3336 C 0.51573 0.31855 0.0971 0.0
C3337 C 0.54011 0.34049 0.09526 0.0
C3338 C 0.52461 0.34556 0.09622 0.0
C3339 C 0.49666 0.3398 0.09629 0.0
C3340 C 0.48427 0.32898 0.09648 0.0
C3341 C 0.51231 0.33473 0.09678 0.0
C3342 C 0.48772 0.31297 0.09789 0.0
C3343 C 0.50331 0.30779 0.0981 0.0
H3344 H 0.67313 0.5473 0.08824 0.0
H3345 H 0.72273 0.54239 0.09558 0.0
H3346 H 0.71965 0.51422 0.09919 0.0
H3347 H 0.70325 0.49039 0.09757 0.0
H3348 H 0.65412 0.4951 0.08786 0.0
H3349 H 0.65651 0.52363 0.08813 0.0
C3350 C 0.68321 0.54011 0.09093 0.0
C3351 C 0.69815 0.54706 0.09161 0.0
C3352 C 0.68143 0.52373 0.09256 0.0
C3353 C 0.7111 0.53743 0.0949 0.0
C3354 C 0.70936 0.52126 0.09697 0.0
C3355 C 0.69302 0.49771 0.09601 0.0
C3356 C 0.67845 0.49066 0.09305 0.0
C3357 C 0.69463 0.51419 0.09548 0.0
C3358 C 0.66539 0.50028 0.09044 0.0
C3359 C 0.66679 0.51661 0.09046 0.0
H3360 H 0.46731 0.67491 0.09283 0.0
H3361 H 0.47346 0.72453 0.09928 0.0
H3362 H 0.50164 0.72091 0.10225 0.0
H3363 H 0.52504 0.704 0.09987 0.0
H3364 H 0.51897 0.65484 0.09091 0.0
H3365 H 0.49055 0.65779 0.09225 0.0
C3366 C 0.47478 0.68487 0.09528 0.0
C3367 C 0.46821 0.69997 0.09589 0.0
C3368 C 0.49113 0.68276 0.09641 0.0
C3369 C 0.47816 0.71278 0.09875 0.0
C3370 C 0.49432 0.71072 0.1004 0.0
C3371 C 0.51745 0.6939 0.0987 0.0
C3372 C 0.52407 0.67915 0.09563 0.0
C3373 C 0.50103 0.69583 0.09883 0.0
C3374 C 0.51412 0.66624 0.09355 0.0
C3375 C 0.49786 0.66795 0.09421 0.0
H3376 H 0.34112 0.4703 0.09443 0.0
H3377 H 0.29119 0.47661 0.09172 0.0
H3378 H 0.29444 0.50489 0.09427 0.0
H3379 H 0.31165 0.52822 0.09431 0.0
H3380 H 0.36154 0.52188 0.09465 0.0
H3381 H 0.3582 0.49347 0.09623 0.0
C3382 C 0.33092 0.47782 0.09474 0.0
C3383 C 0.31593 0.47124 0.09288 0.0
C3384 C 0.3329 0.49421 0.09573 0.0
C3385 C 0.30289 0.48129 0.09307 0.0
C3386 C 0.30473 0.49751 0.09451 0.0
C3387 C 0.32174 0.52059 0.09523 0.0
C3388 C 0.33683 0.52711 0.09473 0.0
C3389 C 0.31969 0.50417 0.09545 0.0
C3390 C 0.34983 0.51711 0.09531 0.0
C3391 C 0.34791 0.50086 0.09609 0.0
H3392 H 0.92283 0.54879 0.67802 0.0
H3393 H 0.92719 0.54048 0.72759 0.0
H3394 H 0.9239 0.51243 0.72342 0.0
H3395 H 0.92252 0.48982 0.70544 0.0
H3396 H 0.92021 0.4979 0.65582 0.0
H3397 H 0.91967 0.52624 0.66018 0.0
C3398 C 0.92275 0.54089 0.68794 0.0
C3399 C 0.9253 0.54687 0.70312 0.0
C3400 C 0.92122 0.5246 0.68542 0.0
C3401 C 0.92534 0.53631 0.71578 0.0
C3402 C 0.92346 0.5202 0.7134 0.0
C3403 C 0.92142 0.49781 0.69565 0.0
C3404 C 0.92102 0.49179 0.68033 0.0
C3405 C 0.92175 0.51414 0.69825 0.0
C3406 C 0.92017 0.50227 0.66771 0.0
C3407 C 0.92002 0.51848 0.67021 0.0
H3408 H 0.52878 0.91878 0.70649 0.0
H3409 H 0.52443 0.92636 0.65692 0.0
H3410 H 0.49592 0.92583 0.65906 0.0
H3411 H 0.47216 0.92673 0.67554 0.0
H3412 H 0.47669 0.92161 0.72547 0.0
H3413 H 0.50482 0.91748 0.72274 0.0
C3414 C 0.52155 0.91975 0.69612 0.0
C3415 C 0.52872 0.92225 0.6815 0.0
C3416 C 0.50506 0.92013 0.69757 0.0
C3417 C 0.51919 0.92413 0.66825 0.0
C3418 C 0.50286 0.92397 0.6695 0.0
C3419 C 0.47924 0.92427 0.68577 0.0
C3420 C 0.47222 0.92442 0.70069 0.0
C3421 C 0.49562 0.92246 0.68416 0.0
C3422 C 0.48172 0.92155 0.71384 0.0
C3423 C 0.49786 0.91924 0.71229 0.0
H3424 H 0.09475 0.52045 0.66644 0.0
H3425 H 0.10146 0.5349 0.71417 0.0
H3426 H 0.10179 0.50745 0.72264 0.0
H3427 H 0.09727 0.47937 0.71662 0.0
H3428 H 0.09231 0.46508 0.66851 0.0
H3429 H 0.09446 0.49226 0.66001 0.0
C3430 C 0.09674 0.51753 0.67863 0.0
C3431 C 0.09821 0.52963 0.68967 0.0
C3432 C 0.09708 0.50171 0.68335 0.0
C3433 C 0.10058 0.52576 0.70545 0.0
C3434 C 0.10061 0.51006 0.71029 0.0
C3435 C 0.09696 0.48219 0.70426 0.0
C3436 C 0.0945 0.47013 0.69324 0.0
C3437 C 0.09845 0.49793 0.69939 0.0
C3438 C 0.09425 0.47403 0.67726 0.0
C3439 C 0.09538 0.48963 0.67237 0.0
H3440 H 0.48673 0.09884 0.70797 0.0
H3441 H 0.49256 0.10199 0.65808 0.0
H3442 H 0.52103 0.10239 0.66116 0.0
H3443 H 0.5443 0.09859 0.67788 0.0
H3444 H 0.5382 0.09332 0.7277 0.0
H3445 H 0.51008 0.09702 0.72487 0.0
C3446 C 0.49427 0.10014 0.69785 0.0
C3447 C 0.48757 0.1008 0.68284 0.0
C3448 C 0.51067 0.09966 0.6997 0.0
C3449 C 0.49746 0.10187 0.66976 0.0
C3450 C 0.51375 0.10191 0.67153 0.0
C3451 C 0.53687 0.09856 0.68815 0.0
C3452 C 0.54348 0.09559 0.70298 0.0
C3453 C 0.52052 0.10034 0.68641 0.0
C3454 C 0.53353 0.09545 0.71612 0.0
C3455 C 0.51738 0.09758 0.71452 0.0
H3456 H 0.91768 0.48397 0.30361 0.0
H3457 H 0.92523 0.46824 0.35095 0.0
H3458 H 0.92359 0.49518 0.36032 0.0
H3459 H 0.9229 0.52355 0.35472 0.0
H3460 H 0.91338 0.53938 0.30787 0.0
H3461 H 0.91273 0.51221 0.29868 0.0
C3462 C 0.91866 0.48642 0.31602 0.0
C3463 C 0.92169 0.47404 0.32654 0.0
C3464 C 0.91743 0.50201 0.32141 0.0
C3465 C 0.92282 0.47745 0.34258 0.0
C3466 C 0.92199 0.49291 0.34796 0.0
C3467 C 0.92025 0.521 0.34259 0.0
C3468 C 0.91811 0.53345 0.33201 0.0
C3469 C 0.91969 0.50532 0.33745 0.0
C3470 C 0.91481 0.53001 0.31629 0.0
C3471 C 0.9146 0.51446 0.31101 0.0
H3472 H 0.49322 0.92853 0.34923 0.0
H3473 H 0.47844 0.91583 0.30284 0.0
H3474 H 0.50577 0.91556 0.29403 0.0
H3475 H 0.5339 0.92131 0.29914 0.0
H3476 H 0.54842 0.932 0.34624 0.0
H3477 H 0.52137 0.93053 0.35515 0.0
C3478 C 0.49604 0.9253 0.33729 0.0
C3479 C 0.48383 0.92206 0.32673 0.0
C3480 C 0.51179 0.92498 0.33239 0.0
C3481 C 0.48762 0.91806 0.31126 0.0
C3482 C 0.50326 0.91809 0.30619 0.0
C3483 C 0.53115 0.9231 0.31139 0.0
C3484 C 0.54326 0.92689 0.32196 0.0
C3485 C 0.51545 0.92188 0.31657 0.0
C3486 C 0.53944 0.92902 0.33783 0.0
C3487 C 0.52391 0.92826 0.34294 0.0
H3488 H 0.09172 0.54705 0.34326 0.0
H3489 H 0.09976 0.54196 0.29378 0.0
H3490 H 0.10328 0.51377 0.29702 0.0
H3491 H 0.10092 0.48997 0.31344 0.0
H3492 H 0.09033 0.49494 0.3624 0.0
H3493 H 0.09119 0.52344 0.35997 0.0
C3494 C 0.09466 0.53983 0.33327 0.0
C3495 C 0.09555 0.54671 0.3183 0.0
C3496 C 0.09611 0.52343 0.33513 0.0
C3497 C 0.09902 0.53704 0.30543 0.0
C3498 C 0.10098 0.52086 0.30727 0.0
C3499 C 0.09931 0.49733 0.32364 0.0
C3500 C 0.09589 0.49034 0.33817 0.0
C3501 C 0.09914 0.51382 0.32199 0.0
C3502 C 0.09324 0.50004 0.35117 0.0
C3503 C 0.09361 0.51636 0.34975 0.0
H3504 H 0.52081 0.09592 0.35242 0.0
H3505 H 0.53686 0.10382 0.30534 0.0
H3506 H 0.50972 0.10529 0.29618 0.0
H3507 H 0.48141 0.10103 0.30125 0.0
H3508 H 0.4656 0.09469 0.34875 0.0
H3509 H 0.49251 0.09616 0.35808 0.0
C3510 C 0.51833 0.09848 0.34024 0.0
C3511 C 0.5308 0.0999 0.32959 0.0
C3512 C 0.5027 0.09939 0.33511 0.0
C3513 C 0.52746 0.103 0.31381 0.0
C3514 C 0.51193 0.10364 0.30855 0.0
C3515 C 0.48384 0.10029 0.31367 0.0
C3516 C 0.47143 0.0976 0.32425 0.0
C3517 C 0.49944 0.10136 0.31903 0.0
C3518 C 0.47482 0.0968 0.34033 0.0
C3519 C 0.49027 0.09754 0.34568 0.0
H3520 H 0.6654 0.92345 0.49251 0.0
H3521 H 0.71322 0.91841 0.47771 0.0
H3522 H 0.72178 0.91793 0.50511 0.0
H3523 H 0.71573 0.92165 0.53338 0.0
H3524 H 0.66753 0.92466 0.54788 0.0
H3525 H 0.65907 0.923 0.52069 0.0
C3526 C 0.67765 0.9218 0.49532 0.0
C3527 C 0.68864 0.92084 0.4831 0.0
C3528 C 0.68243 0.92133 0.51111 0.0
C3529 C 0.7045 0.91888 0.48689 0.0
C3530 C 0.70941 0.91878 0.50258 0.0
C3531 C 0.70337 0.92166 0.5306 0.0
C3532 C 0.69231 0.9234 0.54275 0.0
C3533 C 0.69851 0.92039 0.51481 0.0
C3534 C 0.67633 0.92327 0.53887 0.0
C3535 C 0.67146 0.92242 0.52326 0.0
H3536 H 0.6623 0.09551 0.52416 0.0
H3537 H 0.70962 0.1009 0.54033 0.0
H3538 H 0.71902 0.10149 0.51321 0.0
H3539 H 0.71383 0.09777 0.48479 0.0
H3540 H 0.66606 0.09438 0.46898 0.0
H3541 H 0.6568 0.09593 0.49588 0.0
C3542 C 0.67462 0.09724 0.5217 0.0
C3543 C 0.68525 0.09825 0.53419 0.0
C3544 C 0.67987 0.09777 0.50609 0.0
C3545 C 0.7012 0.10036 0.53089 0.0
C3546 C 0.70658 0.10053 0.51538 0.0
C3547 C 0.70139 0.09764 0.48724 0.0
C3548 C 0.69069 0.09583 0.47481 0.0
C3549 C 0.69605 0.09884 0.50285 0.0
C3550 C 0.67459 0.09582 0.47822 0.0
C3551 C 0.66926 0.09662 0.49366 0.0
H3552 H 0.92624 0.71726 0.48559 0.0
H3553 H 0.92849 0.66907 0.47085 0.0
H3554 H 0.92527 0.66043 0.49788 0.0
H3555 H 0.92479 0.66657 0.52613 0.0
H3556 H 0.92039 0.71446 0.54099 0.0
H3557 H 0.92128 0.72322 0.51366 0.0
C3558 C 0.92573 0.70487 0.48827 0.0
C3559 C 0.92774 0.69385 0.47613 0.0
C3560 C 0.92355 0.69992 0.50393 0.0
C3561 C 0.92691 0.67783 0.47986 0.0
C3562 C 0.92517 0.67286 0.49538 0.0
C3563 C 0.92354 0.67888 0.52332 0.0
C3564 C 0.92241 0.68985 0.53555 0.0
C3565 C 0.92386 0.68379 0.50756 0.0
C3566 C 0.92098 0.70578 0.53178 0.0
C3567 C 0.92168 0.71079 0.51614 0.0
H3568 H 0.3427 0.92346 0.47134 0.0
H3569 H 0.29283 0.92656 0.47808 0.0
H3570 H 0.29622 0.92363 0.50627 0.0
H3571 H 0.3135 0.92293 0.52944 0.0
H3572 H 0.36336 0.92209 0.5229 0.0
H3573 H 0.35989 0.92106 0.49447 0.0
C3574 C 0.33255 0.92317 0.47894 0.0
C3575 C 0.31752 0.92527 0.47247 0.0
C3576 C 0.33461 0.92188 0.49531 0.0
C3577 C 0.30455 0.92507 0.48263 0.0
C3578 C 0.30647 0.92339 0.49882 0.0
C3579 C 0.32356 0.92204 0.52176 0.0
C3580 C 0.33867 0.9222 0.52825 0.0
C3581 C 0.32145 0.92214 0.50536 0.0
C3582 C 0.35162 0.92162 0.51817 0.0
C3583 C 0.34963 0.92119 0.5019 0.0
H3584 H 0.0926 0.30979 0.52665 0.0
H3585 H 0.10057 0.35921 0.5215 0.0
H3586 H 0.10186 0.35631 0.49301 0.0
H3587 H 0.09724 0.34019 0.46939 0.0
H3588 H 0.08767 0.29092 0.47484 0.0
H3589 H 0.09055 0.29323 0.50309 0.0
C3590 C 0.09515 0.3198 0.51929 0.0
C3591 C 0.09687 0.33464 0.52618 0.0
C3592 C 0.09527 0.3181 0.50284 0.0
C3593 C 0.09963 0.34762 0.51648 0.0
C3594 C 0.10017 0.34598 0.50016 0.0
C3595 C 0.09611 0.32989 0.47671 0.0
C3596 C 0.0921 0.31542 0.46985 0.0
C3597 C 0.0975 0.33135 0.49315 0.0
C3598 C 0.09059 0.30225 0.47967 0.0
C3599 C 0.09224 0.30355 0.49591 0.0
H3600 H 0.29917 0.09565 0.53463 0.0
H3601 H 0.34751 0.09514 0.54905 0.0
H3602 H 0.35586 0.09718 0.5219 0.0
H3603 H 0.3496 0.09635 0.4938 0.0
H3604 H 0.30161 0.09853 0.47895 0.0
H3605 H 0.29295 0.09878 0.50635 0.0
C3606 C 0.31152 0.09623 0.53183 0.0
C3607 C 0.32267 0.09509 0.54394 0.0
C3608 C 0.31633 0.09768 0.51606 0.0
C3609 C 0.33863 0.09602 0.54006 0.0
C3610 C 0.34346 0.09711 0.52448 0.0
C3611 C 0.33727 0.09735 0.49662 0.0
C3612 C 0.32625 0.09759 0.48445 0.0
C3613 C 0.33244 0.0976 0.51236 0.0
C3614 C 0.3103 0.09864 0.48816 0.0
C3615 C 0.30536 0.09861 0.50383 0.0
H3616 H 0.92712 0.35191 0.49724 0.0
H3617 H 0.91537 0.30549 0.48171 0.0
H3618 H 0.91508 0.29626 0.50894 0.0
H3619 H 0.92069 0.30106 0.53712 0.0
H3620 H 0.93059 0.34811 0.55241 0.0
H3621 H 0.92889 0.35745 0.52549 0.0
C3622 C 0.92408 0.33987 0.49989 0.0
C3623 C 0.92113 0.32942 0.48753 0.0
C3624 C 0.92377 0.33473 0.51556 0.0
C3625 C 0.91739 0.31381 0.49105 0.0
C3626 C 0.9174 0.30851 0.50662 0.0
C3627 C 0.92224 0.31339 0.53457 0.0
C3628 C 0.9259 0.32383 0.54684 0.0
C3629 C 0.92094 0.3188 0.51897 0.0
C3630 C 0.92772 0.3398 0.54329 0.0
C3631 C 0.92683 0.34516 0.52785 0.0
H3632 H 0.09915 0.66516 0.49635 0.0
H3633 H 0.10222 0.71306 0.48111 0.0
H3634 H 0.10346 0.72179 0.50843 0.0
H3635 H 0.10002 0.71583 0.53668 0.0
H3636 H 0.09803 0.66765 0.55166 0.0
H3637 H 0.10029 0.659 0.52455 0.0
C3638 C 0.1007 0.67747 0.49904 0.0
C3639 C 0.10082 0.68844 0.48674 0.0
C3640 C 0.10134 0.68236 0.51477 0.0
C3641 C 0.10249 0.70438 0.49035 0.0
C3642 C 0.10296 0.70937 0.50599 0.0
C3643 C 0.1004 0.70343 0.53404 0.0
C3644 C 0.09868 0.69242 0.54628 0.0
C3645 C 0.10185 0.69849 0.51832 0.0
C3646 C 0.09936 0.6764 0.54259 0.0
C3647 C 0.10055 0.67143 0.52702 0.0
H3648 H 0.09461 0.172 0.53633 0.0
H3649 H 0.0513 0.14941 0.52374 0.0
H3650 H 0.0591 0.14926 0.49633 0.0
H3651 H 0.0748 0.16202 0.47579 0.0
H3652 H 0.11677 0.1867 0.48856 0.0
H3653 H 0.11325 0.17919 0.51587 0.0
C3654 C 0.08712 0.16652 0.52769 0.0
C3655 C 0.07216 0.16126 0.53201 0.0
C3656 C 0.09138 0.16707 0.51184 0.0
C3657 C 0.06272 0.15396 0.52067 0.0
C3658 C 0.06714 0.15392 0.50495 0.0
C3659 C 0.08352 0.16507 0.48447 0.0
C3660 C 0.09591 0.175 0.48033 0.0
C3661 C 0.08094 0.16143 0.5003 0.0
C3662 C 0.1071 0.1791 0.49161 0.0
C3663 C 0.105 0.17494 0.50724 0.0
H3664 H 0.849 0.08213 0.47808 0.0
H3665 H 0.81706 0.119 0.4905 0.0
H3666 H 0.82329 0.11552 0.51814 0.0
H3667 H 0.83283 0.0979 0.53861 0.0
H3668 H 0.86252 0.05912 0.52615 0.0
H3669 H 0.86254 0.06757 0.49889 0.0
C3670 C 0.84395 0.0898 0.48682 0.0
C3671 C 0.83253 0.1007 0.48239 0.0
C3672 C 0.84695 0.08713 0.50277 0.0
C3673 C 0.82585 0.11048 0.49376 0.0
C3674 C 0.82931 0.10841 0.50956 0.0
C3675 C 0.83976 0.09164 0.53003 0.0
C3676 C 0.84738 0.07774 0.5343 0.0
C3677 C 0.8391 0.09614 0.51424 0.0
C3678 C 0.85633 0.06973 0.52306 0.0
C3679 C 0.85629 0.07452 0.50745 0.0
H3680 H 0.92162 0.83787 0.53712 0.0
H3681 H 0.95916 0.8685 0.52313 0.0
H3682 H 0.95003 0.86785 0.4961 0.0
H3683 H 0.93547 0.85345 0.47594 0.0
H3684 H 0.89982 0.82065 0.48986 0.0
H3685 H 0.90375 0.82751 0.51728 0.0
C3686 C 0.92742 0.84487 0.52825 0.0
C3687 C 0.9412 0.85295 0.532 0.0
C3688 C 0.92257 0.84381 0.5126 0.0
C3689 C 0.94865 0.86198 0.52042 0.0
C3690 C 0.94349 0.86154 0.50495 0.0
C3691 C 0.92816 0.84831 0.48496 0.0
C3692 C 0.91755 0.83645 0.48101 0.0
C3693 C 0.93107 0.85172 0.50076 0.0
C3694 C 0.90819 0.82972 0.49274 0.0
C3695 C 0.9105 0.83356 0.50841 0.0
H3696 H 0.19071 0.90861 0.48995 0.0
H3697 H 0.16156 0.94466 0.47029 0.0
H3698 H 0.15299 0.95228 0.49652 0.0
H3699 H 0.15868 0.95232 0.52477 0.0
H3700 H 0.18789 0.91614 0.54431 0.0
H3701 H 0.19118 0.90458 0.51845 0.0
C3702 C 0.18203 0.91773 0.49145 0.0
C3703 C 0.17691 0.92625 0.47838 0.0
C3704 C 0.17736 0.92214 0.50652 0.0
C3705 C 0.16561 0.93797 0.48027 0.0
C3706 C 0.16085 0.94242 0.49526 0.0
C3707 C 0.16534 0.9416 0.52341 0.0
C3708 C 0.17336 0.9353 0.5363 0.0
C3709 C 0.16736 0.93516 0.50846 0.0
C3710 C 0.1817 0.92127 0.53452 0.0
C3711 C 0.18372 0.91473 0.51971 0.0
H3712 H 0.09479 0.83852 0.48346 0.0
H3713 H 0.05796 0.86981 0.49777 0.0
H3714 H 0.06731 0.86891 0.52471 0.0
H3715 H 0.08158 0.85398 0.54474 0.0
H3716 H 0.11636 0.82049 0.53046 0.0
H3717 H 0.11254 0.82771 0.50311 0.0
C3718 C 0.08919 0.84562 0.49236 0.0
C3719 C 0.07551 0.85392 0.48873 0.0
C3720 C 0.09413 0.84439 0.50797 0.0
C3721 C 0.06838 0.8631 0.50037 0.0
C3722 C 0.07366 0.86251 0.5158 0.0
C3723 C 0.08875 0.84878 0.53566 0.0
C3724 C 0.09907 0.83661 0.53948 0.0
C3725 C 0.08587 0.85239 0.51989 0.0
C3726 C 0.10823 0.8298 0.52768 0.0
C3727 C 0.10598 0.83385 0.51204 0.0
H3728 H 0.15396 0.06881 0.49638 0.0
H3729 H 0.18726 0.09991 0.47463 0.0
H3730 H 0.19342 0.11134 0.5 0.0
H3731 H 0.19355 0.10816 0.52859 0.0
H3732 H 0.16025 0.07727 0.55046 0.0
H3733 H 0.14967 0.07022 0.52482 0.0
C3734 C 0.1622 0.07842 0.49715 0.0
C3735 C 0.17045 0.08322 0.48375 0.0
C3736 C 0.16587 0.08478 0.51182 0.0
C3737 C 0.18085 0.09591 0.4848 0.0
C3738 C 0.1845 0.10236 0.49934 0.0
C3739 C 0.18364 0.10028 0.52771 0.0
C3740 C 0.17782 0.09299 0.54122 0.0
C3741 C 0.17775 0.09623 0.51297 0.0
C3742 C 0.16489 0.08296 0.54012 0.0
C3743 C 0.15895 0.07884 0.52548 0.0
H3744 H 0.90956 0.19123 0.53247 0.0
H3745 H 0.94261 0.15975 0.55379 0.0
H3746 H 0.94994 0.14972 0.52801 0.0
H3747 H 0.95086 0.15431 0.49959 0.0
H3748 H 0.91775 0.18591 0.4784 0.0
H3749 H 0.90614 0.19112 0.50392 0.0
C3750 C 0.91799 0.18181 0.53145 0.0
C3751 C 0.92579 0.1764 0.54484 0.0
C3752 C 0.92223 0.17626 0.51663 0.0
C3753 C 0.93653 0.16408 0.54355 0.0
C3754 C 0.94081 0.15845 0.52882 0.0
C3755 C 0.94079 0.16195 0.50052 0.0
C3756 C 0.93544 0.17004 0.48724 0.0
C3757 C 0.93435 0.1651 0.51527 0.0
C3758 C 0.92217 0.17964 0.48848 0.0
C3759 C 0.91562 0.18276 0.5031 0.0
H3760 H 0.86157 0.95276 0.49759 0.0
H3761 H 0.82994 0.91985 0.47617 0.0
H3762 H 0.82482 0.90788 0.50158 0.0
H3763 H 0.82475 0.91106 0.53019 0.0
H3764 H 0.85639 0.94382 0.5517 0.0
H3765 H 0.86637 0.95142 0.52596 0.0
C3766 C 0.85397 0.94262 0.49846 0.0
C3767 C 0.84584 0.93741 0.48517 0.0
C3768 C 0.85091 0.93597 0.51313 0.0
C3769 C 0.83625 0.92412 0.48628 0.0
C3770 C 0.83319 0.91737 0.50084 0.0
C3771 C 0.83422 0.91945 0.5292 0.0
C3772 C 0.83968 0.92711 0.54264 0.0
C3773 C 0.83974 0.92383 0.51441 0.0
C3774 C 0.85204 0.93783 0.54142 0.0
C3775 C 0.85762 0.94227 0.52672 0.0
H3776 H 0.47319 0.08344 0.16243 0.0
H3777 H 0.4887 0.11994 0.19347 0.0
H3778 H 0.51583 0.11509 0.18608 0.0
H3779 H 0.53487 0.09631 0.17612 0.0
H3780 H 0.51935 0.05771 0.1476 0.0
H3781 H 0.49266 0.06772 0.14824 0.0
C3782 C 0.48249 0.09073 0.16703 0.0
C3783 C 0.47909 0.10189 0.17856 0.0
C3784 C 0.49813 0.08725 0.16341 0.0
C3785 C 0.49117 0.1112 0.18463 0.0
C3786 C 0.50667 0.10835 0.1805 0.0
C3787 C 0.52577 0.0904 0.16956 0.0
C3788 C 0.529 0.07608 0.16217 0.0
C3789 C 0.51032 0.09575 0.17069 0.0
C3790 C 0.51709 0.06861 0.15365 0.0
C3791 C 0.50179 0.07428 0.15408 0.0
H3792 H 0.90701 0.48858 0.18871 0.0
H3793 H 0.94402 0.4679 0.1615 0.0
H3794 H 0.95175 0.49376 0.15198 0.0
H3795 H 0.95164 0.52218 0.15659 0.0
H3796 H 0.9147 0.54275 0.18409 0.0
H3797 H 0.90294 0.51704 0.18788 0.0
C3798 C 0.91641 0.48974 0.18026 0.0
C3799 C 0.92517 0.47653 0.17603 0.0
C3800 C 0.9209 0.50463 0.17506 0.0
C3801 C 0.93717 0.47799 0.16493 0.0
C3802 C 0.94168 0.49278 0.15961 0.0
C3803 C 0.94073 0.52107 0.16297 0.0
C3804 C 0.9343 0.53423 0.17044 0.0
C3805 C 0.93421 0.50621 0.16537 0.0
C3806 C 0.91998 0.53276 0.17837 0.0
C3807 C 0.91332 0.51803 0.18068 0.0
H3808 H 0.48173 0.92489 0.17757 0.0
H3809 H 0.49767 0.96043 0.14548 0.0
H3810 H 0.52421 0.95007 0.14683 0.0
H3811 H 0.54355 0.93517 0.16202 0.0
H3812 H 0.52772 0.9018 0.19635 0.0
H3813 H 0.50058 0.9067 0.18903 0.0
C3814 C 0.49089 0.92999 0.17042 0.0
C3815 C 0.48783 0.94357 0.16169 0.0
C3816 C 0.50627 0.92449 0.17189 0.0
C3817 C 0.49982 0.95009 0.15249 0.0
C3818 C 0.51502 0.94423 0.15332 0.0
C3819 C 0.53416 0.92854 0.16741 0.0
C3820 C 0.53751 0.91828 0.17978 0.0
C3821 C 0.51854 0.93206 0.16373 0.0
C3822 C 0.52531 0.90985 0.18685 0.0
C3823 C 0.5098 0.91272 0.18275 0.0
H3824 H 0.08003 0.5441 0.16409 0.0
H3825 H 0.11604 0.53287 0.19742 0.0
H3826 H 0.11297 0.50502 0.19186 0.0
H3827 H 0.09572 0.48417 0.18249 0.0
H3828 H 0.05757 0.49553 0.15161 0.0
H3829 H 0.06594 0.52282 0.15085 0.0
C3830 C 0.08762 0.53555 0.1696 0.0
C3831 C 0.09813 0.54038 0.1812 0.0
C3832 C 0.08514 0.51952 0.167 0.0
C3833 C 0.10781 0.52929 0.18849 0.0
C3834 C 0.10597 0.51338 0.1854 0.0
C3835 C 0.08962 0.49251 0.17513 0.0
C3836 C 0.07591 0.48797 0.16736 0.0
C3837 C 0.09401 0.50834 0.17542 0.0
C3838 C 0.06805 0.49887 0.15789 0.0
C3839 C 0.07278 0.51449 0.15751 0.0
H3840 H 0.47693 0.9394 0.8546 0.0
H3841 H 0.48831 0.90143 0.82356 0.0
H3842 H 0.516 0.90414 0.82988 0.0
H3843 H 0.53693 0.92133 0.83907 0.0
H3844 H 0.52562 0.96128 0.86764 0.0
H3845 H 0.49813 0.95363 0.86788 0.0
C3846 C 0.48546 0.93135 0.84978 0.0
C3847 C 0.48075 0.92033 0.83859 0.0
C3848 C 0.50145 0.93356 0.8528 0.0
C3849 C 0.4918 0.91004 0.83217 0.0
C3850 C 0.50763 0.91166 0.83569 0.0
C3851 C 0.52854 0.92801 0.84583 0.0
C3852 C 0.5332 0.942 0.85305 0.0
C3853 C 0.51265 0.924 0.84523 0.0
C3854 C 0.52222 0.95058 0.86177 0.0
C3855 C 0.50648 0.94626 0.86184 0.0
H3856 H 0.09517 0.53597 0.83869 0.0
H3857 H 0.05953 0.52314 0.87198 0.0
H3858 H 0.06701 0.49565 0.86978 0.0
H3859 H 0.07944 0.4751 0.85385 0.0
H3860 H 0.11272 0.48819 0.81832 0.0
H3861 H 0.11068 0.51559 0.82605 0.0
C3862 C 0.08946 0.52724 0.84593 0.0
C3863 C 0.07669 0.53153 0.85532 0.0
C3864 C 0.09322 0.51138 0.84391 0.0
C3865 C 0.06932 0.52007 0.86455 0.0
C3866 C 0.07351 0.50433 0.86319 0.0
C3867 C 0.08663 0.48392 0.84822 0.0
C3868 C 0.09609 0.47975 0.83547 0.0
C3869 C 0.08479 0.49977 0.85221 0.0
C3870 C 0.10526 0.49123 0.8281 0.0
C3871 C 0.10405 0.5069 0.83247 0.0
H3872 H 0.49915 0.06486 0.86505 0.0
H3873 H 0.47872 0.10148 0.83693 0.0
H3874 H 0.50443 0.11296 0.83277 0.0
H3875 H 0.53284 0.10861 0.83177 0.0
H3876 H 0.55343 0.07215 0.85976 0.0
H3877 H 0.52758 0.0647 0.86954 0.0
C3878 C 0.50028 0.07565 0.85845 0.0
C3879 C 0.48714 0.08201 0.85089 0.0
C3880 C 0.51517 0.08205 0.85585 0.0
C3881 C 0.48867 0.0962 0.84271 0.0
C3882 C 0.50342 0.10272 0.84018 0.0
C3883 C 0.53165 0.09945 0.84048 0.0
C3884 C 0.54482 0.09076 0.84493 0.0
C3885 C 0.51678 0.09515 0.84587 0.0
C3886 C 0.54335 0.07897 0.85624 0.0
C3887 C 0.52857 0.07462 0.8617 0.0
H3888 H 0.95062 0.49686 0.86276 0.0
H3889 H 0.91445 0.4784 0.83281 0.0
H3890 H 0.90337 0.50446 0.82984 0.0
H3891 H 0.90799 0.53283 0.83058 0.0
H3892 H 0.94413 0.55149 0.86024 0.0
H3893 H 0.95107 0.52503 0.86874 0.0
C3894 C 0.94003 0.49848 0.85599 0.0
C3895 C 0.93368 0.48582 0.8476 0.0
C3896 C 0.93388 0.51357 0.85407 0.0
C3897 C 0.91972 0.48798 0.83921 0.0
C3898 C 0.91343 0.50292 0.83738 0.0
C3899 C 0.91698 0.53107 0.83935 0.0
C3900 C 0.92574 0.5439 0.84463 0.0
C3901 C 0.92101 0.51587 0.84396 0.0
C3902 C 0.93728 0.54168 0.85606 0.0
C3903 C 0.94134 0.52657 0.86078 0.0
H3904 H 0.16628 0.4777 0.08144 0.0
H3905 H 0.20344 0.48726 0.11403 0.0
H3906 H 0.19863 0.51532 0.1118 0.0
H3907 H 0.18823 0.53676 0.0959 0.0
H3908 H 0.15324 0.52705 0.06099 0.0
H3909 H 0.15245 0.49964 0.069 0.0
C3910 C 0.17286 0.48595 0.08849 0.0
C3911 C 0.18526 0.48056 0.09776 0.0
C3912 C 0.17059 0.5021 0.08648 0.0
C3913 C 0.19389 0.49126 0.10674 0.0
C3914 C 0.19121 0.50729 0.10539 0.0
C3915 C 0.18002 0.52876 0.09048 0.0
C3916 C 0.17101 0.53379 0.07773 0.0
C3917 C 0.18024 0.51286 0.09459 0.0
C3918 C 0.16045 0.52333 0.07072 0.0
C3919 C 0.16006 0.50764 0.07523 0.0
H3920 H 0.15815 0.49652 0.95043 0.0
H3921 H 0.18833 0.47604 0.91558 0.0
H3922 H 0.19367 0.50188 0.90472 0.0
H3923 H 0.19446 0.53029 0.9092 0.0
H3924 H 0.16438 0.5509 0.94395 0.0
H3925 H 0.15408 0.52503 0.95067 0.0
C3926 C 0.16549 0.49769 0.94015 0.0
C3927 C 0.17318 0.48448 0.93408 0.0
C3928 C 0.16874 0.51262 0.93414 0.0
C3929 C 0.18239 0.48605 0.92056 0.0
C3930 C 0.18558 0.50085 0.91443 0.0
C3931 C 0.18527 0.5291 0.91787 0.0
C3932 C 0.18035 0.54229 0.92631 0.0
C3933 C 0.17956 0.51423 0.92174 0.0
C3934 C 0.16833 0.54081 0.93738 0.0
C3935 C 0.16255 0.52603 0.9413 0.0
H3936 H 0.49435 0.18313 0.90766 0.0
H3937 H 0.47066 0.16107 0.94625 0.0
H3938 H 0.49557 0.15095 0.95605 0.0
H3939 H 0.52415 0.1542 0.95685 0.0
H3940 H 0.54768 0.17695 0.91834 0.0
H3941 H 0.52282 0.18052 0.90502 0.0
C3942 C 0.49463 0.17551 0.91782 0.0
C3943 C 0.48087 0.17294 0.92637 0.0
C3944 C 0.509 0.17013 0.92354 0.0
C3945 C 0.48118 0.1631 0.93949 0.0
C3946 C 0.49544 0.15751 0.94519 0.0
C3947 C 0.5239 0.15952 0.94533 0.0
C3948 C 0.53769 0.1658 0.93887 0.0
C3949 C 0.50948 0.16183 0.93784 0.0
C3950 C 0.53723 0.17225 0.92374 0.0
C3951 C 0.52297 0.1744 0.91613 0.0
H3952 H 0.83602 0.53312 0.92402 0.0
H3953 H 0.87027 0.52109 0.95899 0.0
H3954 H 0.87 0.49392 0.95026 0.0
H3955 H 0.85521 0.4729 0.93731 0.0
H3956 H 0.81892 0.48489 0.90451 0.0
H3957 H 0.825 0.51263 0.90742 0.0
C3958 C 0.84386 0.52468 0.92932 0.0
C3959 C 0.85287 0.529 0.94234 0.0
C3960 C 0.84304 0.50893 0.92479 0.0
C3961 C 0.86301 0.51795 0.9491 0.0
C3962 C 0.86279 0.50238 0.94418 0.0
C3963 C 0.8491 0.48159 0.93037 0.0
C3964 C 0.83653 0.47699 0.9209 0.0
C3965 C 0.85212 0.49757 0.93273 0.0
C3966 C 0.82855 0.48828 0.91201 0.0
C3967 C 0.83196 0.50413 0.91374 0.0
H3968 H 0.48225 0.83283 0.92231 0.0
H3969 H 0.49472 0.86289 0.96082 0.0
H3970 H 0.52204 0.86249 0.95259 0.0
H3971 H 0.54279 0.84856 0.93835 0.0
H3972 H 0.53028 0.81614 0.9019 0.0
H3973 H 0.5027 0.82273 0.90508 0.0
C3974 C 0.49086 0.83975 0.92856 0.0
C3975 C 0.48656 0.8476 0.94232 0.0
C3976 C 0.50665 0.83881 0.92423 0.0
C3977 C 0.49783 0.85653 0.95032 0.0
C3978 C 0.51347 0.85624 0.94566 0.0
C3979 C 0.53404 0.84345 0.93072 0.0
C3980 C 0.53842 0.83182 0.92002 0.0
C3981 C 0.51813 0.84666 0.93322 0.0
C3982 C 0.52706 0.82507 0.91028 0.0
C3983 C 0.5113 0.82876 0.91217 0.0
H3984 H 0.83396 0.48177 0.09933 0.0
H3985 H 0.86494 0.49399 0.06145 0.0
H3986 H 0.86454 0.52135 0.06957 0.0
H3987 H 0.85019 0.54221 0.08321 0.0
H3988 H 0.81698 0.52996 0.11908 0.0
H3989 H 0.82366 0.50234 0.11632 0.0
C3990 C 0.84109 0.49032 0.09323 0.0
C3991 C 0.84918 0.48597 0.07963 0.0
C3992 C 0.84015 0.50615 0.09747 0.0
C3993 C 0.8584 0.49715 0.07183 0.0
C3994 C 0.8581 0.51282 0.07641 0.0
C3995 C 0.84492 0.53352 0.09083 0.0
C3996 C 0.83301 0.53798 0.10117 0.0
C3997 C 0.84823 0.51758 0.08858 0.0
C3998 C 0.8261 0.52668 0.11093 0.0
C3999 C 0.82985 0.5109 0.10928 0.0
H4000 H 0.48598 0.82474 0.10946 0.0
H4001 H 0.4664 0.85842 0.07749 0.0
H4002 H 0.49267 0.86715 0.07023 0.0
H4003 H 0.52068 0.86078 0.0688 0.0
H4004 H 0.54011 0.82687 0.10074 0.0
H4005 H 0.51447 0.823 0.11259 0.0
C4006 C 0.48752 0.83437 0.10131 0.0
C4007 C 0.47444 0.84076 0.09376 0.0
C4008 C 0.5026 0.83912 0.09707 0.0
C4009 C 0.47639 0.85334 0.08338 0.0
C4010 C 0.49139 0.85821 0.07913 0.0
C4011 C 0.51937 0.85291 0.07867 0.0
C4012 C 0.53212 0.84378 0.08359 0.0
C4013 C 0.50454 0.85054 0.08524 0.0
C4014 C 0.53042 0.8339 0.09662 0.0
C4015 C 0.51572 0.83157 0.10332 0.0
H4016 H 0.52736 0.19336 0.10908 0.0
H4017 H 0.5501 0.16237 0.07654 0.0
H4018 H 0.52467 0.153 0.06737 0.0
H4019 H 0.49644 0.15813 0.06486 0.0
H4020 H 0.47378 0.18896 0.0977 0.0
H4021 H 0.49865 0.19356 0.11086 0.0
C4022 C 0.52668 0.18413 0.1004 0.0
C4023 C 0.54042 0.17867 0.0933 0.0
C4024 C 0.51207 0.17895 0.09512 0.0
C4025 C 0.53959 0.16668 0.08215 0.0
C4026 C 0.52506 0.16145 0.0768 0.0
C4027 C 0.4969 0.16546 0.0752 0.0
C4028 C 0.48344 0.1735 0.08009 0.0
C4029 C 0.51127 0.16817 0.08261 0.0
C4030 C 0.48404 0.18273 0.09366 0.0
C4031 C 0.49828 0.18548 0.10111 0.0
H4032 H 0.61017 0.68739 0.99014 0.0
H4033 H 0.57548 0.65871 0.9675 0.0
H4034 H 0.56594 0.64978 0.99296 0.0
H4035 H 0.56385 0.65503 0.02119 0.0
H4036 H 0.59859 0.68383 0.04374 0.0
H4037 H 0.61202 0.68748 0.01883 0.0
C4038 C 0.60089 0.67876 0.99082 0.0
C4039 C 0.5933 0.67392 0.9771 0.0
C4040 C 0.59534 0.6739 1.00546 0.0
C4041 C 0.58144 0.6626 0.97798 0.0
C4042 C 0.57588 0.65763 0.99253 0.0
C4043 C 0.57463 0.66171 0.02071 0.0
C4044 C 0.58 0.6695 0.03414 0.0
C4045 C 0.58217 0.66394 1.00631 0.0
C4046 C 0.59414 0.67783 0.0335 0.0
C4047 C 0.60176 0.68004 0.01923 0.0
H4048 H 0.36607 0.56524 0.01959 0.0
H4049 H 0.33635 0.59983 0.04117 0.0
H4050 H 0.33206 0.6122 0.01587 0.0
H4051 H 0.33177 0.60918 0.98727 0.0
H4052 H 0.36136 0.57471 0.96553 0.0
H4053 H 0.37093 0.56645 0.99121 0.0
C4054 C 0.35906 0.57578 0.01881 0.0
C4055 C 0.35116 0.58132 0.03214 0.0
C4056 C 0.35642 0.5827 1.00416 0.0
C4057 C 0.34242 0.5952 0.03107 0.0
C4058 C 0.33983 0.60222 0.01656 0.0
C4059 C 0.34075 0.60026 0.98818 0.0
C4060 C 0.3457 0.59235 0.97469 0.0
C4061 C 0.346 0.59547 1.00295 0.0
C4062 C 0.35741 0.58092 0.97584 0.0
C4063 C 0.36274 0.5761 0.99052 0.0
H4064 H 0.42099 0.33729 0.0338 0.0
H4065 H 0.4586 0.36913 0.02297 0.0
H4066 H 0.45113 0.36899 0.99543 0.0
H4067 H 0.43806 0.35486 0.97398 0.0
H4068 H 0.40252 0.32084 0.98493 0.0
H4069 H 0.40472 0.32699 0.01272 0.0
C4070 C 0.42719 0.34466 0.02552 0.0
C4071 C 0.44053 0.35292 0.03035 0.0
C4072 C 0.42334 0.34388 0.00958 0.0
C4073 C 0.44843 0.36244 0.01947 0.0
C4074 C 0.44422 0.3623 1.00369 0.0
C4075 C 0.4304 0.34928 0.98244 0.0
C4076 C 0.42027 0.33734 0.97756 0.0
C4077 C 0.43233 0.3523 0.99849 0.0
C4078 C 0.41049 0.33001 0.98854 0.0
C4079 C 0.41181 0.33345 1.00442 0.0
H4080 H 0.65511 0.4495 0.0187 0.0
H4081 H 0.68632 0.41699 0.04141 0.0
H4082 H 0.69183 0.40454 0.01639 0.0
H4083 H 0.69254 0.4072 0.98778 0.0
H4084 H 0.66167 0.4398 0.96493 0.0
H4085 H 0.65103 0.44774 0.99027 0.0
C4086 C 0.66275 0.43939 0.01822 0.0
C4087 C 0.67068 0.4345 0.03177 0.0
C4088 C 0.66611 0.43248 1.00374 0.0
C4089 C 0.68022 0.42113 0.03111 0.0
C4090 C 0.6835 0.41408 0.01677 0.0
C4091 C 0.68311 0.41566 0.98837 0.0
C4092 C 0.67809 0.42318 0.97467 0.0
C4093 C 0.67726 0.4203 1.00295 0.0
C4094 C 0.66573 0.43393 0.97541 0.0
C4095 C 0.65976 0.43857 0.98989 0.0
H4096 H 0.60904 0.32693 0.03104 0.0
H4097 H 0.57397 0.35786 0.04972 0.0
H4098 H 0.56714 0.3664 0.02326 0.0
H4099 H 0.56739 0.36043 0.99506 0.0
H4100 H 0.60263 0.32955 0.97647 0.0
H4101 H 0.61354 0.32599 1.0026 0.0
C4102 C 0.60029 0.33595 0.02928 0.0
C4103 C 0.59181 0.34161 0.04215 0.0
C4104 C 0.59637 0.34066 0.01407 0.0
C4105 C 0.58061 0.35337 0.03991 0.0
C4106 C 0.57662 0.35813 0.02479 0.0
C4107 C 0.57779 0.35336 0.99669 0.0
C4108 C 0.58399 0.34498 0.98397 0.0
C4109 C 0.58384 0.35118 0.01178 0.0
C4110 C 0.5976 0.33606 0.98611 0.0
C4111 C 0.60374 0.33388 1.00108 0.0
H4112 H 0.68336 0.59469 0.98145 0.0
H4113 H 0.65281 0.55656 0.99405 0.0
H4114 H 0.65175 0.56593 0.02096 0.0
H4115 H 0.6646 0.58102 0.04176 0.0
H4116 H 0.69726 0.61736 0.02939 0.0
H4117 H 0.6921 0.61302 1.00166 0.0
C4118 C 0.67604 0.58877 0.98996 0.0
C4119 C 0.66849 0.57477 0.98589 0.0
C4120 C 0.67605 0.59382 1.00558 0.0
C4121 C 0.65899 0.56722 0.99701 0.0
C4122 C 0.65842 0.57253 0.01243 0.0
C4123 C 0.67004 0.58841 0.03298 0.0
C4124 C 0.68138 0.59935 0.03749 0.0
C4125 C 0.66766 0.58525 0.01703 0.0
C4126 C 0.68854 0.60878 0.02608 0.0
C4127 C 0.6857 0.60621 0.01023 0.0
H4128 H 0.40696 0.69169 0.02882 0.0
H4129 H 0.43976 0.66174 0.05255 0.0
H4130 H 0.44874 0.65136 0.02745 0.0
H4131 H 0.45105 0.65538 0.99901 0.0
H4132 H 0.41805 0.68542 0.97543 0.0
H4133 H 0.40501 0.69079 1.00015 0.0
C4134 C 0.41569 0.6825 0.02845 0.0
C4135 C 0.42292 0.67765 0.04235 0.0
C4136 C 0.42088 0.67676 0.01402 0.0
C4137 C 0.43407 0.66563 0.04192 0.0
C4138 C 0.43931 0.65982 0.02757 0.0
C4139 C 0.44072 0.66273 0.99923 0.0
C4140 C 0.43584 0.67037 0.9855 0.0
C4141 C 0.43339 0.66597 0.01355 0.0
C4142 C 0.42221 0.67955 0.98586 0.0
C4143 C 0.41479 0.68274 1.00003 0.0
H4144 H 0.36141 0.45312 0.99668 0.0
H4145 H 0.33496 0.41596 0.975 0.0
H4146 H 0.33074 0.40385 1.00041 0.0
H4147 H 0.32927 0.40741 0.02888 0.0
H4148 H 0.35555 0.44442 0.05074 0.0
H4149 H 0.36535 0.45286 0.02519 0.0
C4150 C 0.35512 0.44212 0.99746 0.0
C4151 C 0.34805 0.43577 0.98404 0.0
C4152 C 0.35249 0.43533 0.01218 0.0
C4153 C 0.34031 0.42128 0.98517 0.0
C4154 C 0.33777 0.41438 0.99973 0.0
C4155 C 0.33759 0.41697 0.02804 0.0
C4156 C 0.34151 0.42549 0.04148 0.0
C4157 C 0.34298 0.42184 0.01335 0.0
C4158 C 0.35239 0.43774 0.04045 0.0
C4159 C 0.35786 0.44265 0.02584 0.0
H4160 H 0.99006 0.61096 0.69371 0.0
H4161 H 0.96878 0.57517 0.66536 0.0
H4162 H 0.99458 0.56662 0.65645 0.0
H4163 H 0.02292 0.5658 0.66158 0.0
H4164 H 0.04409 0.60173 0.68995 0.0
H4165 H 0.01865 0.61406 0.69366 0.0
C4166 C 0.9911 0.60167 0.68513 0.0
C4167 C 0.97768 0.59352 0.68035 0.0
C4168 C 1.00595 0.59672 0.68027 0.0
C4169 C 0.97902 0.5816 0.66916 0.0
C4170 C 0.99377 0.5766 0.66422 0.0
C4171 C 0.02201 0.5766 0.66816 0.0
C4172 C 0.03526 0.58263 0.67581 0.0
C4173 C 1.0073 0.58352 0.67041 0.0
C4174 C 0.03404 0.59679 0.68404 0.0
C4175 C 0.01946 0.60378 0.68629 0.0
H4176 H 0.45295 0.02564 0.65765 0.0
H4177 H 0.41577 0.04516 0.68563 0.0
H4178 H 0.404 0.01931 0.68831 0.0
H4179 H 0.40814 0.99089 0.68817 0.0
H4180 H 0.44574 0.9712 0.6611 0.0
H4181 H 0.45331 0.99738 0.65222 0.0
C4182 C 0.44202 0.02429 0.66396 0.0
C4183 C 0.43551 0.03717 0.67187 0.0
C4184 C 0.43551 0.00934 0.66574 0.0
C4185 C 0.42114 0.03539 0.67963 0.0
C4186 C 0.41446 0.02058 0.68126 0.0
C4187 C 0.41758 0.99234 0.6798 0.0
C4188 C 0.42655 0.97932 0.67543 0.0
C4189 C 0.42209 1.0074 0.67519 0.0
C4190 C 0.43869 0.98114 0.66456 0.0
C4191 C 0.44313 0.99611 0.65967 0.0
H4192 H 0.02752 0.4087 0.6907 0.0
H4193 H 0.04971 0.44189 0.65992 0.0
H4194 H 0.02415 0.45051 0.65042 0.0
H4195 H 0.99585 0.45237 0.65543 0.0
H4196 H 0.97374 0.4189 0.68609 0.0
H4197 H 0.99886 0.40626 0.69074 0.0
C4198 C 0.0267 0.41741 0.6815 0.0
C4199 C 0.04031 0.42487 0.67615 0.0
C4200 C 0.01201 0.42237 0.67625 0.0
C4201 C 0.0393 0.43603 0.66416 0.0
C4202 C 0.0247 0.44106 0.65886 0.0
C4203 C 0.99649 0.442 0.66272 0.0
C4204 C 0.9831 0.4368 0.67072 0.0
C4205 C 0.011 0.4349 0.66548 0.0
C4206 C 0.98394 0.42319 0.6799 0.0
C4207 C 0.99832 0.41604 0.68269 0.0
H4208 H 0.56668 0.99738 0.65688 0.0
H4209 H 0.60072 0.97698 0.68804 0.0
H4210 H 0.61214 1.0027 0.69263 0.0
H4211 H 0.60828 0.03119 0.69257 0.0
H4212 H 0.57401 0.05172 0.66189 0.0
H4213 H 0.56702 0.02576 0.65207 0.0
C4214 C 0.5769 0.99852 0.6643 0.0
C4215 C 0.58255 0.98539 0.67249 0.0
C4216 C 0.58319 0.0134 0.66716 0.0
C4217 C 0.59602 0.98693 0.68175 0.0
C4218 C 0.60248 1.00167 0.6845 0.0
C4219 C 0.59964 0.02997 0.68336 0.0
C4220 C 0.59141 0.04319 0.67817 0.0
C4221 C 0.59553 0.01504 0.67802 0.0
C4222 C 0.58043 0.04164 0.66608 0.0
C4223 C 0.57634 0.02679 0.66059 0.0
H4224 H 0.02133 0.45036 0.3631 0.0
H4225 H 0.0415 0.41879 0.32932 0.0
H4226 H 0.01584 0.40741 0.32435 0.0
H4227 H 0.98732 0.41088 0.32521 0.0
H4228 H 0.96701 0.44239 0.35885 0.0
H4229 H 0.99307 0.44919 0.36851 0.0
C4230 C 0.02016 0.44065 0.35502 0.0
C4231 C 0.03318 0.43572 0.34627 0.0
C4232 C 1.00532 0.43434 0.35203 0.0
C4233 C 0.03162 0.42291 0.3361 0.0
C4234 C 0.01692 0.41649 0.33313 0.0
C4235 C 0.98864 0.41881 0.33503 0.0
C4236 C 0.97544 0.42636 0.34118 0.0
C4237 C 1.00362 0.42277 0.34035 0.0
C4238 C 0.9771 0.43648 0.35397 0.0
C4239 C 0.99199 0.44048 0.35938 0.0
H4240 H 0.59427 0.03591 0.3325 0.0
H4241 H 0.55637 0.02503 0.36394 0.0
H4242 H 0.56411 0.99756 0.36424 0.0
H4243 H 0.57778 0.97608 0.3508 0.0
H4244 H 0.61364 0.98691 0.31712 0.0
H4245 H 0.61093 0.0148 0.32268 0.0
C4246 C 0.58807 0.02762 0.33986 0.0
C4247 C 0.57463 0.03241 0.34796 0.0
C4248 C 0.59212 0.01171 0.33936 0.0
C4249 C 0.56665 0.02155 0.35741 0.0
C4250 C 0.57102 1.00581 0.35753 0.0
C4251 C 0.5854 0.98455 0.34519 0.0
C4252 C 0.59582 0.97958 0.33354 0.0
C4253 C 0.58316 1.00063 0.34784 0.0
C4254 C 0.60551 0.99058 0.32611 0.0
C4255 C 0.60388 1.00652 0.3292 0.0
H4256 H 0.99546 0.56641 0.36134 0.0
H4257 H 0.97456 0.60259 0.33298 0.0
H4258 H 1.00022 0.61388 0.32805 0.0
H4259 H 0.02863 0.60977 0.32695 0.0
H4260 H 0.04972 0.57384 0.35528 0.0
H4261 H 0.02397 0.56626 0.36528 0.0
C4262 C 0.99649 0.57703 0.35446 0.0
C4263 C 0.98319 0.58335 0.34714 0.0
C4264 C 0.01133 0.58335 0.35147 0.0
C4265 C 0.98463 0.59734 0.33859 0.0
C4266 C 0.99933 0.60375 0.33564 0.0
C4267 C 0.02757 0.60065 0.33573 0.0
C4268 C 0.04086 0.59217 0.34024 0.0
C4269 C 0.01278 0.5963 0.34127 0.0
C4270 C 0.03955 0.58048 0.35169 0.0
C4271 C 0.02484 0.57607 0.35727 0.0
H4272 H 0.44742 0.99591 0.35725 0.0
H4273 H 0.4135 0.97762 0.32473 0.0
H4274 H 0.40268 1.00376 0.32105 0.0
H4275 H 0.40713 0.03218 0.32244 0.0
H4276 H 0.44092 0.05058 0.3549 0.0
H4277 H 0.44739 0.02404 0.3635 0.0
C4278 C 0.43732 0.9976 0.34977 0.0
C4279 C 0.43151 0.98498 0.34097 0.0
C4280 C 0.43133 0.0127 0.34752 0.0
C4281 C 0.41825 0.98719 0.33154 0.0
C4282 C 0.41216 1.00217 0.32931 0.0
C4283 C 0.41548 0.03033 0.33181 0.0
C4284 C 0.42374 0.04314 0.33791 0.0
C4285 C 0.41923 0.01509 0.33652 0.0
C4286 C 0.43446 0.04081 0.35009 0.0
C4287 C 0.43826 0.02564 0.35488 0.0
H4288 H 0.68665 0.98681 0.60796 0.0
H4289 H 0.65779 0.96707 0.57174 0.0
H4290 H 0.64793 0.99314 0.56512 0.0
H4291 H 0.65222 0.02162 0.56605 0.0
H4292 H 0.68117 0.04117 0.60247 0.0
H4293 H 0.68584 0.01512 0.61299 0.0
C4294 C 0.67778 0.98822 0.599 0.0
C4295 C 0.67308 0.97523 0.59016 0.0
C4296 C 0.67233 1.0032 0.5952 0.0
C4297 C 0.66153 0.977 0.57866 0.0
C4298 C 0.65602 0.9919 0.5748 0.0
C4299 C 0.65914 0.02021 0.57658 0.0
C4300 C 0.66672 0.03326 0.58317 0.0
C4301 C 0.66202 1.00514 0.58243 0.0
C4302 C 0.67535 0.03132 0.59703 0.0
C4303 C 0.67816 0.01639 0.60299 0.0
H4304 H 0.6548 0.99628 0.45089 0.0
H4305 H 0.68476 0.97826 0.41448 0.0
H4306 H 0.68815 1.00453 0.40399 0.0
H4307 H 0.68766 0.03281 0.40915 0.0
H4308 H 0.65794 0.05102 0.4455 0.0
H4309 H 0.64918 0.0245 0.45191 0.0
C4310 C 0.66168 0.99805 0.44037 0.0
C4311 C 0.66992 0.98543 0.43379 0.0
C4312 C 0.66383 0.01325 0.43456 0.0
C4313 C 0.67846 0.9878 0.41993 0.0
C4314 C 0.68053 1.00286 0.41398 0.0
C4315 C 0.67884 0.03095 0.41808 0.0
C4316 C 0.6736 0.04365 0.42704 0.0
C4317 C 0.67405 0.01572 0.4218 0.0
C4318 C 0.66209 0.04131 0.43849 0.0
C4319 C 0.65721 0.02616 0.44225 0.0
H4320 H 0.03609 0.67474 0.42374 0.0
H4321 H 0.02704 0.65249 0.46814 0.0
H4322 H 0.9995 0.64986 0.46155 0.0
H4323 H 0.97746 0.66055 0.44653 0.0
H4324 H 0.98638 0.68459 0.4032 0.0
H4325 H 0.01431 0.67935 0.40562 0.0
C4326 C 0.0282 0.6688 0.43171 0.0
C4327 C 0.03348 0.66436 0.44662 0.0
C4328 C 0.01221 0.66779 0.42807 0.0
C4329 C 0.02316 0.65645 0.45675 0.0
C4330 C 1.00737 0.65495 0.45301 0.0
C4331 C 0.98547 0.66384 0.43724 0.0
C4332 C 0.98003 0.67299 0.42479 0.0
C4333 C 1.00161 0.66155 0.43919 0.0
C4334 C 0.99043 0.67747 0.41288 0.0
C4335 C 1.00642 0.67468 0.41439 0.0
H4336 H 0.35885 0.02304 0.45061 0.0
H4337 H 0.331 0.04259 0.41337 0.0
H4338 H 0.32814 0.01673 0.40171 0.0
H4339 H 0.32818 0.98827 0.40594 0.0
H4340 H 0.35579 0.96859 0.44319 0.0
H4341 H 0.36443 0.99478 0.45085 0.0
C4342 C 0.3526 0.02169 0.43966 0.0
C4343 C 0.34477 0.03459 0.4331 0.0
C4344 C 0.35076 1.00674 0.43317 0.0
C4345 C 0.337 0.03281 0.41874 0.0
C4346 C 0.33523 0.01799 0.41213 0.0
C4347 C 0.33656 0.98973 0.41535 0.0
C4348 C 0.34116 0.97669 0.42419 0.0
C4349 C 0.34123 1.0048 0.41981 0.0
C4350 C 0.35212 0.97854 0.43625 0.0
C4351 C 0.35691 0.99352 0.44073 0.0
H4352 H 0.99517 0.35991 0.452 0.0
H4353 H 0.97447 0.33325 0.41451 0.0
H4354 H 0.99995 0.33079 0.40196 0.0
H4355 H 0.02848 0.33077 0.40525 0.0
H4356 H 0.04932 0.35688 0.44294 0.0
H4357 H 0.02343 0.36536 0.45163 0.0
C4358 C 0.99618 0.35398 0.44083 0.0
C4359 C 0.98307 0.34638 0.43442 0.0
C4360 C 0.01092 0.35235 0.43384 0.0
C4361 C 0.98442 0.33905 0.41978 0.0
C4362 C 0.99902 0.33753 0.41265 0.0
C4363 C 0.02733 0.33882 0.41499 0.0
C4364 C 0.04064 0.343 0.42365 0.0
C4365 C 0.01243 0.34331 0.4201 0.0
C4366 C 0.03918 0.35353 0.43614 0.0
C4367 C 0.02437 0.35821 0.44121 0.0
H4368 H 0.3269 0.03122 0.60784 0.0
H4369 H 0.35859 0.05218 0.5747 0.0
H4370 H 0.36826 0.02629 0.56732 0.0
H4371 H 0.36333 0.99791 0.56641 0.0
H4372 H 0.3316 0.97703 0.59966 0.0
H4373 H 0.32665 1.00263 0.61125 0.0
C4374 C 0.3363 0.03009 0.59939 0.0
C4375 C 0.34187 0.04344 0.59159 0.0
C4376 C 0.34164 0.01519 0.59511 0.0
C4377 C 0.35414 0.042 0.5808 0.0
C4378 C 0.35956 0.02719 0.57649 0.0
C4379 C 0.35572 0.99893 0.57652 0.0
C4380 C 0.34754 0.98571 0.58194 0.0
C4381 C 0.35275 0.01371 0.58296 0.0
C4382 C 0.33795 0.98706 0.59521 0.0
C4383 C 0.33499 1.00173 0.60175 0.0
H4384 H 0.97531 0.35176 0.58046 0.0
H4385 H 0.98774 0.3177 0.61544 0.0
H4386 H 0.01545 0.32333 0.61147 0.0
H4387 H 0.03574 0.33326 0.5938 0.0
H4388 H 0.02309 0.36491 0.55664 0.0
H4389 H 0.99607 0.36527 0.56583 0.0
C4390 C 0.9841 0.34609 0.58763 0.0
C4391 C 0.97962 0.33431 0.59815 0.0
C4392 C 1.00004 0.34875 0.58463 0.0
C4393 C 0.99104 0.3268 0.60725 0.0
C4394 C 1.00687 0.32993 0.60488 0.0
C4395 C 0.02718 0.34068 0.58809 0.0
C4396 C 0.03129 0.34884 0.57444 0.0
C4397 C 0.01151 0.34018 0.59296 0.0
C4398 C 0.02009 0.35835 0.56707 0.0
C4399 C 1.00463 0.3585 0.57227 0.0
H4400 H 0.99691 0.65627 0.56959 0.0
H4401 H 0.97842 0.68707 0.60504 0.0
H4402 H 1.00454 0.69076 0.61572 0.0
H4403 H 0.03285 0.69026 0.61082 0.0
H4404 H 0.05153 0.65974 0.5754 0.0
H4405 H 0.02513 0.65069 0.56898 0.0
C4406 C 0.99854 0.66339 0.57996 0.0
C4407 C 0.98584 0.67177 0.5862 0.0
C4408 C 0.01366 0.66572 0.58586 0.0
C4409 C 0.98803 0.68065 0.59986 0.0
C4410 C 1.003 0.68289 0.60591 0.0
C4411 C 0.03112 0.68119 0.60211 0.0
C4412 C 0.04391 0.67579 0.5934 0.0
C4413 C 0.01595 0.67626 0.59839 0.0
C4414 C 0.04174 0.664 0.58222 0.0
C4415 C 0.02666 0.65897 0.57846 0.0
loop_
_geom_bond_atom_site_label_1
_geom_bond_atom_site_label_2
_geom_bond_distance
_geom_bond_site_symmetry_2
_ccdc_geom_bond_type
Co0 O1 2.216 . S
Co0 O2 2.091 . S
Co0 O4 2.004 . S
Co0 O10 2.021 . S
Co0 O12 2.137 . S
Co0 O13 2.244 . S
O1 Co0 2.216 . S
O1 C8 1.247 . S
O2 Co0 2.091 . S
O2 C8 1.261 . S
C3 O12 1.247 . S
C3 O13 1.272 . S
O4 Co0 2.004 . S
O4 C9 1.259 . S
Co5 O6 2.061 . S
Co5 O11 2.052 . S
Co5 O13 2.135 . S
O6 Co5 2.061 . S
O6 C9 1.235 . S
C7 O10 1.238 . S
C7 O11 1.241 . S
C8 O1 1.247 . S
C8 O2 1.261 . S
C9 O4 1.259 . S
C9 O6 1.235 . S
O10 Co0 2.021 . S
O10 C7 1.238 . S
O11 Co5 2.052 . S
O11 C7 1.241 . S
O12 Co0 2.137 . S
O12 C3 1.247 . S
O13 Co0 2.244 . S
O13 C3 1.272 . S
O13 Co5 2.135 . S
Co14 O15 2.216 . S
Co14 O16 2.091 . S
Co14 O18 2.004 . S
Co14 O24 2.021 . S
Co14 O26 2.137 . S
Co14 O27 2.244 . S
O15 Co14 2.216 . S
O15 C22 1.247 . S
O16 Co14 2.091 . S
O16 C22 1.261 . S
C17 O26 1.247 . S
C17 O27 1.272 . S
O18 Co14 2.004 . S
O18 C23 1.259 . S
Co19 O20 2.061 . S
Co19 O25 2.052 . S
Co19 O27 2.135 . S
O20 Co19 2.061 . S
O20 C23 1.235 . S
C21 O24 1.238 . S
C21 O25 1.241 . S
C22 O15 1.247 . S
C22 O16 1.261 . S
C23 O18 1.259 . S
C23 O20 1.235 . S
O24 Co14 2.021 . S
O24 C21 1.238 . S
O25 Co19 2.052 . S
O25 C21 1.241 . S
O26 Co14 2.137 . S
O26 C17 1.247 . S
O27 Co14 2.244 . S
O27 C17 1.272 . S
O27 Co19 2.135 . S
Co28 O29 2.216 . S
Co28 O30 2.091 . S
Co28 O32 2.004 . S
Co28 O38 2.021 . S
Co28 O40 2.137 . S
Co28 O41 2.244 . S
O29 Co28 2.216 . S
O29 C36 1.247 . S
O30 Co28 2.091 . S
O30 C36 1.261 . S
C31 O40 1.247 . S
C31 O41 1.272 . S
O32 Co28 2.004 . S
O32 C37 1.259 . S
Co33 O34 2.061 . S
Co33 O39 2.052 . S
Co33 O41 2.135 . S
O34 Co33 2.061 . S
O34 C37 1.235 . S
C35 O38 1.238 . S
C35 O39 1.241 . S
C36 O29 1.247 . S
C36 O30 1.261 . S
C37 O32 1.259 . S
C37 O34 1.235 . S
O38 Co28 2.021 . S
O38 C35 1.238 . S
O39 Co33 2.052 . S
O39 C35 1.241 . S
O40 Co28 2.137 . S
O40 C31 1.247 . S
O41 Co28 2.244 . S
O41 C31 1.272 . S
O41 Co33 2.135 . S
Co42 O43 2.216 . S
Co42 O44 2.091 . S
Co42 O46 2.004 . S
Co42 O52 2.021 . S
Co42 O54 2.137 . S
Co42 O55 2.244 . S
O43 Co42 2.216 . S
O43 C50 1.247 . S
O44 Co42 2.091 . S
O44 C50 1.261 . S
C45 O54 1.247 . S
C45 O55 1.272 . S
O46 Co42 2.004 . S
O46 C51 1.259 . S
Co47 O48 2.061 . S
Co47 O53 2.052 . S
Co47 O55 2.135 . S
O48 Co47 2.061 . S
O48 C51 1.235 . S
C49 O52 1.238 . S
C49 O53 1.241 . S
C50 O43 1.247 . S
C50 O44 1.261 . S
C51 O46 1.259 . S
C51 O48 1.235 . S
O52 Co42 2.021 . S
O52 C49 1.238 . S
O53 Co47 2.052 . S
O53 C49 1.241 . S
O54 Co42 2.137 . S
O54 C45 1.247 . S
O55 Co42 2.244 . S
O55 C45 1.272 . S
O55 Co47 2.135 . S
Co56 O57 2.216 . S
Co56 O58 2.091 . S
Co56 O60 2.004 . S
Co56 O66 2.021 . S
Co56 O68 2.137 . S
Co56 O69 2.244 . S
O57 Co56 2.216 . S
O57 C64 1.247 . S
O58 Co56 2.091 . S
O58 C64 1.261 . S
C59 O68 1.247 . S
C59 O69 1.272 . S
O60 Co56 2.004 . S
O60 C65 1.259 . S
Co61 O62 2.061 . S
Co61 O67 2.052 . S
Co61 O69 2.135 . S
O62 Co61 2.061 . S
O62 C65 1.235 . S
C63 O66 1.238 . S
C63 O67 1.241 . S
C64 O57 1.247 . S
C64 O58 1.261 . S
C65 O60 1.259 . S
C65 O62 1.235 . S
O66 Co56 2.021 . S
O66 C63 1.238 . S
O67 Co61 2.052 . S
O67 C63 1.241 . S
O68 Co56 2.137 . S
O68 C59 1.247 . S
O69 Co56 2.244 . S
O69 C59 1.272 . S
O69 Co61 2.135 . S
Co70 O71 2.216 . S
Co70 O72 2.091 . S
Co70 O74 2.004 . S
Co70 O80 2.021 . S
Co70 O82 2.137 . S
Co70 O83 2.244 . S
O71 Co70 2.216 . S
O71 C78 1.247 . S
O72 Co70 2.091 . S
O72 C78 1.261 . S
C73 O82 1.247 . S
C73 O83 1.272 . S
O74 Co70 2.004 . S
O74 C79 1.259 . S
Co75 O76 2.061 . S
Co75 O81 2.052 . S
Co75 O83 2.135 . S
O76 Co75 2.061 . S
O76 C79 1.235 . S
C77 O80 1.238 . S
C77 O81 1.241 . S
C78 O71 1.247 . S
C78 O72 1.261 . S
C79 O74 1.259 . S
C79 O76 1.235 . S
O80 Co70 2.021 . S
O80 C77 1.238 . S
O81 Co75 2.052 . S
O81 C77 1.241 . S
O82 Co70 2.137 . S
O82 C73 1.247 . S
O83 Co70 2.244 . S
O83 C73 1.272 . S
O83 Co75 2.135 . S
Co84 O85 2.216 . S
Co84 O86 2.091 . S
Co84 O88 2.004 . S
Co84 O94 2.021 . S
Co84 O96 2.137 . S
Co84 O97 2.244 . S
O85 Co84 2.216 . S
O85 C92 1.247 . S
O86 Co84 2.091 . S
O86 C92 1.261 . S
C87 O96 1.247 . S
C87 O97 1.272 . S
O88 Co84 2.004 . S
O88 C93 1.259 . S
Co89 O90 2.061 . S
Co89 O95 2.052 . S
Co89 O97 2.135 . S
O90 Co89 2.061 . S
O90 C93 1.235 . S
C91 O94 1.238 . S
C91 O95 1.241 . S
C92 O85 1.247 . S
C92 O86 1.261 . S
C93 O88 1.259 . S
C93 O90 1.235 . S
O94 Co84 2.021 . S
O94 C91 1.238 . S
O95 Co89 2.052 . S
O95 C91 1.241 . S
O96 Co84 2.137 . S
O96 C87 1.247 . S
O97 Co84 2.244 . S
O97 C87 1.272 . S
O97 Co89 2.135 . S
Co98 O99 2.216 . S
Co98 O100 2.091 . S
Co98 O102 2.004 . S
Co98 O108 2.021 . S
Co98 O110 2.137 . S
Co98 O111 2.244 . S
O99 Co98 2.216 . S
O99 C106 1.247 . S
O100 Co98 2.091 . S
O100 C106 1.261 . S
C101 O110 1.247 . S
C101 O111 1.272 . S
O102 Co98 2.004 . S
O102 C107 1.259 . S
Co103 O104 2.061 . S
Co103 O109 2.052 . S
Co103 O111 2.135 . S
O104 Co103 2.061 . S
O104 C107 1.235 . S
C105 O108 1.238 . S
C105 O109 1.241 . S
C106 O99 1.247 . S
C106 O100 1.261 . S
C107 O102 1.259 . S
C107 O104 1.235 . S
O108 Co98 2.021 . S
O108 C105 1.238 . S
O109 Co103 2.052 . S
O109 C105 1.241 . S
O110 Co98 2.137 . S
O110 C101 1.247 . S
O111 Co98 2.244 . S
O111 C101 1.272 . S
O111 Co103 2.135 . S
Co112 O113 2.216 . S
Co112 O114 2.091 . S
Co112 O116 2.004 . S
Co112 O122 2.021 . S
Co112 O124 2.137 . S
Co112 O125 2.244 . S
O113 Co112 2.216 . S
O113 C120 1.247 . S
O114 Co112 2.091 . S
O114 C120 1.261 . S
C115 O124 1.247 . S
C115 O125 1.272 . S
O116 Co112 2.004 . S
O116 C121 1.259 . S
Co117 O118 2.061 . S
Co117 O123 2.052 . S
Co117 O125 2.135 . S
O118 Co117 2.061 . S
O118 C121 1.235 . S
C119 O122 1.238 . S
C119 O123 1.241 . S
C120 O113 1.247 . S
C120 O114 1.261 . S
C121 O116 1.259 . S
C121 O118 1.235 . S
O122 Co112 2.021 . S
O122 C119 1.238 . S
O123 Co117 2.052 . S
O123 C119 1.241 . S
O124 Co112 2.137 . S
O124 C115 1.247 . S
O125 Co112 2.244 . S
O125 C115 1.272 . S
O125 Co117 2.135 . S
Co126 O127 2.216 . S
Co126 O128 2.091 . S
Co126 O130 2.004 . S
Co126 O136 2.021 . S
Co126 O138 2.137 . S
Co126 O139 2.244 . S
O127 Co126 2.216 . S
O127 C134 1.247 . S
O128 Co126 2.091 . S
O128 C134 1.261 . S
C129 O138 1.247 . S
C129 O139 1.272 . S
O130 Co126 2.004 . S
O130 C135 1.259 . S
Co131 O132 2.061 . S
Co131 O137 2.052 . S
Co131 O139 2.135 . S
O132 Co131 2.061 . S
O132 C135 1.235 . S
C133 O136 1.238 . S
C133 O137 1.241 . S
C134 O127 1.247 . S
C134 O128 1.261 . S
C135 O130 1.259 . S
C135 O132 1.235 . S
O136 Co126 2.021 . S
O136 C133 1.238 . S
O137 Co131 2.052 . S
O137 C133 1.241 . S
O138 Co126 2.137 . S
O138 C129 1.247 . S
O139 Co126 2.244 . S
O139 C129 1.272 . S
O139 Co131 2.135 . S
Co140 O141 2.216 . S
Co140 O142 2.091 . S
Co140 O144 2.004 . S
Co140 O150 2.021 . S
Co140 O152 2.137 . S
Co140 O153 2.244 . S
O141 Co140 2.216 . S
O141 C148 1.247 . S
O142 Co140 2.091 . S
O142 C148 1.261 . S
C143 O152 1.247 . S
C143 O153 1.272 . S
O144 Co140 2.004 . S
O144 C149 1.259 . S
Co145 O146 2.061 . S
Co145 O151 2.052 . S
Co145 O153 2.135 . S
O146 Co145 2.061 . S
O146 C149 1.235 . S
C147 O150 1.238 . S
C147 O151 1.241 . S
C148 O141 1.247 . S
C148 O142 1.261 . S
C149 O144 1.259 . S
C149 O146 1.235 . S
O150 Co140 2.021 . S
O150 C147 1.238 . S
O151 Co145 2.052 . S
O151 C147 1.241 . S
O152 Co140 2.137 . S
O152 C143 1.247 . S
O153 Co140 2.244 . S
O153 C143 1.272 . S
O153 Co145 2.135 . S
Co154 O155 2.216 . S
Co154 O156 2.091 . S
Co154 O158 2.004 . S
Co154 O164 2.021 . S
Co154 O166 2.137 . S
Co154 O167 2.244 . S
O155 Co154 2.216 . S
O155 C162 1.247 . S
O156 Co154 2.091 . S
O156 C162 1.261 . S
C157 O166 1.247 . S
C157 O167 1.272 . S
O158 Co154 2.004 . S
O158 C163 1.259 . S
Co159 O160 2.061 . S
Co159 O165 2.052 . S
Co159 O167 2.135 . S
O160 Co159 2.061 . S
O160 C163 1.235 . S
C161 O164 1.238 . S
C161 O165 1.241 . S
C162 O155 1.247 . S
C162 O156 1.261 . S
C163 O158 1.259 . S
C163 O160 1.235 . S
O164 Co154 2.021 . S
O164 C161 1.238 . S
O165 Co159 2.052 . S
O165 C161 1.241 . S
O166 Co154 2.137 . S
O166 C157 1.247 . S
O167 Co154 2.244 . S
O167 C157 1.272 . S
O167 Co159 2.135 . S
Co168 O169 2.216 . S
Co168 O170 2.091 . S
Co168 O172 2.004 . S
Co168 O178 2.021 . S
Co168 O180 2.137 . S
Co168 O181 2.244 . S
O169 Co168 2.216 . S
O169 C176 1.247 . S
O170 Co168 2.091 . S
O170 C176 1.261 . S
C171 O180 1.247 . S
C171 O181 1.272 . S
O172 Co168 2.004 . S
O172 C177 1.259 . S
Co173 O174 2.061 . S
Co173 O179 2.052 . S
Co173 O181 2.135 . S
O174 Co173 2.061 . S
O174 C177 1.235 . S
C175 O178 1.238 . S
C175 O179 1.241 . S
C176 O169 1.247 . S
C176 O170 1.261 . S
C177 O172 1.259 . S
C177 O174 1.235 . S
O178 Co168 2.021 . S
O178 C175 1.238 . S
O179 Co173 2.052 . S
O179 C175 1.241 . S
O180 Co168 2.137 . S
O180 C171 1.247 . S
O181 Co168 2.244 . S
O181 C171 1.272 . S
O181 Co173 2.135 . S
Co182 O183 2.216 . S
Co182 O184 2.091 . S
Co182 O186 2.004 . S
Co182 O192 2.021 . S
Co182 O194 2.137 . S
Co182 O195 2.244 . S
O183 Co182 2.216 . S
O183 C190 1.247 . S
O184 Co182 2.091 . S
O184 C190 1.261 . S
C185 O194 1.247 . S
C185 O195 1.272 . S
O186 Co182 2.004 . S
O186 C191 1.259 . S
Co187 O188 2.061 . S
Co187 O193 2.052 . S
Co187 O195 2.135 . S
O188 Co187 2.061 . S
O188 C191 1.235 . S
C189 O192 1.238 . S
C189 O193 1.241 . S
C190 O183 1.247 . S
C190 O184 1.261 . S
C191 O186 1.259 . S
C191 O188 1.235 . S
O192 Co182 2.021 . S
O192 C189 1.238 . S
O193 Co187 2.052 . S
O193 C189 1.241 . S
O194 Co182 2.137 . S
O194 C185 1.247 . S
O195 Co182 2.244 . S
O195 C185 1.272 . S
O195 Co187 2.135 . S
Co196 O197 2.216 . S
Co196 O198 2.091 . S
Co196 O200 2.004 . S
Co196 O206 2.021 . S
Co196 O208 2.137 . S
Co196 O209 2.244 . S
O197 Co196 2.216 . S
O197 C204 1.247 . S
O198 Co196 2.091 . S
O198 C204 1.261 . S
C199 O208 1.247 . S
C199 O209 1.272 . S
O200 Co196 2.004 . S
O200 C205 1.259 . S
Co201 O202 2.061 . S
Co201 O207 2.052 . S
Co201 O209 2.135 . S
O202 Co201 2.061 . S
O202 C205 1.235 . S
C203 O206 1.238 . S
C203 O207 1.241 . S
C204 O197 1.247 . S
C204 O198 1.261 . S
C205 O200 1.259 . S
C205 O202 1.235 . S
O206 Co196 2.021 . S
O206 C203 1.238 . S
O207 Co201 2.052 . S
O207 C203 1.241 . S
O208 Co196 2.137 . S
O208 C199 1.247 . S
O209 Co196 2.244 . S
O209 C199 1.272 . S
O209 Co201 2.135 . S
Co210 O211 2.216 . S
Co210 O212 2.091 . S
Co210 O214 2.004 . S
Co210 O220 2.021 . S
Co210 O222 2.137 . S
Co210 O223 2.244 . S
O211 Co210 2.216 . S
O211 C218 1.247 . S
O212 Co210 2.091 . S
O212 C218 1.261 . S
C213 O222 1.247 . S
C213 O223 1.272 . S
O214 Co210 2.004 . S
O214 C219 1.259 . S
Co215 O216 2.061 . S
Co215 O221 2.052 . S
Co215 O223 2.135 . S
O216 Co215 2.061 . S
O216 C219 1.235 . S
C217 O220 1.238 . S
C217 O221 1.241 . S
C218 O211 1.247 . S
C218 O212 1.261 . S
C219 O214 1.259 . S
C219 O216 1.235 . S
O220 Co210 2.021 . S
O220 C217 1.238 . S
O221 Co215 2.052 . S
O221 C217 1.241 . S
O222 Co210 2.137 . S
O222 C213 1.247 . S
O223 Co210 2.244 . S
O223 C213 1.272 . S
O223 Co215 2.135 . S
Co224 O225 2.216 . S
Co224 O226 2.091 . S
Co224 O228 2.004 . S
Co224 O234 2.021 . S
Co224 O236 2.137 . S
Co224 O237 2.244 . S
O225 Co224 2.216 . S
O225 C232 1.247 . S
O226 Co224 2.091 . S
O226 C232 1.261 . S
C227 O236 1.247 . S
C227 O237 1.272 . S
O228 Co224 2.004 . S
O228 C233 1.259 . S
Co229 O230 2.061 . S
Co229 O235 2.052 . S
Co229 O237 2.135 . S
O230 Co229 2.061 . S
O230 C233 1.235 . S
C231 O234 1.238 . S
C231 O235 1.241 . S
C232 O225 1.247 . S
C232 O226 1.261 . S
C233 O228 1.259 . S
C233 O230 1.235 . S
O234 Co224 2.021 . S
O234 C231 1.238 . S
O235 Co229 2.052 . S
O235 C231 1.241 . S
O236 Co224 2.137 . S
O236 C227 1.247 . S
O237 Co224 2.244 . S
O237 C227 1.272 . S
O237 Co229 2.135 . S
Co238 O239 2.216 . S
Co238 O240 2.091 . S
Co238 O242 2.004 . S
Co238 O248 2.021 . S
Co238 O250 2.137 . S
Co238 O251 2.244 . S
O239 Co238 2.216 . S
O239 C246 1.247 . S
O240 Co238 2.091 . S
O240 C246 1.261 . S
C241 O250 1.247 . S
C241 O251 1.272 . S
O242 Co238 2.004 . S
O242 C247 1.259 . S
Co243 O244 2.061 . S
Co243 O249 2.052 . S
Co243 O251 2.135 . S
O244 Co243 2.061 . S
O244 C247 1.235 . S
C245 O248 1.238 . S
C245 O249 1.241 . S
C246 O239 1.247 . S
C246 O240 1.261 . S
C247 O242 1.259 . S
C247 O244 1.235 . S
O248 Co238 2.021 . S
O248 C245 1.238 . S
O249 Co243 2.052 . S
O249 C245 1.241 . S
O250 Co238 2.137 . S
O250 C241 1.247 . S
O251 Co238 2.244 . S
O251 C241 1.272 . S
O251 Co243 2.135 . S
Co252 O253 2.216 . S
Co252 O254 2.091 . S
Co252 O256 2.004 . S
Co252 O262 2.021 . S
Co252 O264 2.137 . S
Co252 O265 2.244 . S
O253 Co252 2.216 . S
O253 C260 1.247 . S
O254 Co252 2.091 . S
O254 C260 1.261 . S
C255 O264 1.247 . S
C255 O265 1.272 . S
O256 Co252 2.004 . S
O256 C261 1.259 . S
Co257 O258 2.061 . S
Co257 O263 2.052 . S
Co257 O265 2.135 . S
O258 Co257 2.061 . S
O258 C261 1.235 . S
C259 O262 1.238 . S
C259 O263 1.241 . S
C260 O253 1.247 . S
C260 O254 1.261 . S
C261 O256 1.259 . S
C261 O258 1.235 . S
O262 Co252 2.021 . S
O262 C259 1.238 . S
O263 Co257 2.052 . S
O263 C259 1.241 . S
O264 Co252 2.137 . S
O264 C255 1.247 . S
O265 Co252 2.244 . S
O265 C255 1.272 . S
O265 Co257 2.135 . S
Co266 O267 2.216 . S
Co266 O268 2.091 . S
Co266 O270 2.004 . S
Co266 O276 2.021 . S
Co266 O278 2.137 . S
Co266 O279 2.244 . S
O267 Co266 2.216 . S
O267 C274 1.247 . S
O268 Co266 2.091 . S
O268 C274 1.261 . S
C269 O278 1.247 . S
C269 O279 1.272 . S
O270 Co266 2.004 . S
O270 C275 1.259 . S
Co271 O272 2.061 . S
Co271 O277 2.052 . S
Co271 O279 2.135 . S
O272 Co271 2.061 . S
O272 C275 1.235 . S
C273 O276 1.238 . S
C273 O277 1.241 . S
C274 O267 1.247 . S
C274 O268 1.261 . S
C275 O270 1.259 . S
C275 O272 1.235 . S
O276 Co266 2.021 . S
O276 C273 1.238 . S
O277 Co271 2.052 . S
O277 C273 1.241 . S
O278 Co266 2.137 . S
O278 C269 1.247 . S
O279 Co266 2.244 . S
O279 C269 1.272 . S
O279 Co271 2.135 . S
Co280 O281 2.216 . S
Co280 O282 2.091 . S
Co280 O284 2.004 . S
Co280 O290 2.021 . S
Co280 O292 2.137 . S
Co280 O293 2.244 . S
O281 Co280 2.216 . S
O281 C288 1.247 . S
O282 Co280 2.091 . S
O282 C288 1.261 . S
C283 O292 1.247 . S
C283 O293 1.272 . S
O284 Co280 2.004 . S
O284 C289 1.259 . S
Co285 O286 2.061 . S
Co285 O291 2.052 . S
Co285 O293 2.135 . S
O286 Co285 2.061 . S
O286 C289 1.235 . S
C287 O290 1.238 . S
C287 O291 1.241 . S
C288 O281 1.247 . S
C288 O282 1.261 . S
C289 O284 1.259 . S
C289 O286 1.235 . S
O290 Co280 2.021 . S
O290 C287 1.238 . S
O291 Co285 2.052 . S
O291 C287 1.241 . S
O292 Co280 2.137 . S
O292 C283 1.247 . S
O293 Co280 2.244 . S
O293 C283 1.272 . S
O293 Co285 2.135 . S
Co294 O295 2.216 . S
Co294 O296 2.091 . S
Co294 O298 2.004 . S
Co294 O304 2.021 . S
Co294 O306 2.137 . S
Co294 O307 2.244 . S
O295 Co294 2.216 . S
O295 C302 1.247 . S
O296 Co294 2.091 . S
O296 C302 1.261 . S
C297 O306 1.247 . S
C297 O307 1.272 . S
O298 Co294 2.004 . S
O298 C303 1.259 . S
Co299 O300 2.061 . S
Co299 O305 2.052 . S
Co299 O307 2.135 . S
O300 Co299 2.061 . S
O300 C303 1.235 . S
C301 O304 1.238 . S
C301 O305 1.241 . S
C302 O295 1.247 . S
C302 O296 1.261 . S
C303 O298 1.259 . S
C303 O300 1.235 . S
O304 Co294 2.021 . S
O304 C301 1.238 . S
O305 Co299 2.052 . S
O305 C301 1.241 . S
O306 Co294 2.137 . S
O306 C297 1.247 . S
O307 Co294 2.244 . S
O307 C297 1.272 . S
O307 Co299 2.135 . S
Co308 O309 2.216 . S
Co308 O310 2.091 . S
Co308 O312 2.004 . S
Co308 O318 2.021 . S
Co308 O320 2.137 . S
Co308 O321 2.244 . S
O309 Co308 2.216 . S
O309 C316 1.247 . S
O310 Co308 2.091 . S
O310 C316 1.261 . S
C311 O320 1.247 . S
C311 O321 1.272 . S
O312 Co308 2.004 . S
O312 C317 1.259 . S
Co313 O314 2.061 . S
Co313 O319 2.052 . S
Co313 O321 2.135 . S
O314 Co313 2.061 . S
O314 C317 1.235 . S
C315 O318 1.238 . S
C315 O319 1.241 . S
C316 O309 1.247 . S
C316 O310 1.261 . S
C317 O312 1.259 . S
C317 O314 1.235 . S
O318 Co308 2.021 . S
O318 C315 1.238 . S
O319 Co313 2.052 . S
O319 C315 1.241 . S
O320 Co308 2.137 . S
O320 C311 1.247 . S
O321 Co308 2.244 . S
O321 C311 1.272 . S
O321 Co313 2.135 . S
Co322 O323 2.216 . S
Co322 O324 2.091 . S
Co322 O326 2.004 . S
Co322 O332 2.021 . S
Co322 O334 2.137 . S
Co322 O335 2.244 . S
O323 Co322 2.216 . S
O323 C330 1.247 . S
O324 Co322 2.091 . S
O324 C330 1.261 . S
C325 O334 1.247 . S
C325 O335 1.272 . S
O326 Co322 2.004 . S
O326 C331 1.259 . S
Co327 O328 2.061 . S
Co327 O333 2.052 . S
Co327 O335 2.135 . S
O328 Co327 2.061 . S
O328 C331 1.235 . S
C329 O332 1.238 . S
C329 O333 1.241 . S
C330 O323 1.247 . S
C330 O324 1.261 . S
C331 O326 1.259 . S
C331 O328 1.235 . S
O332 Co322 2.021 . S
O332 C329 1.238 . S
O333 Co327 2.052 . S
O333 C329 1.241 . S
O334 Co322 2.137 . S
O334 C325 1.247 . S
O335 Co322 2.244 . S
O335 C325 1.272 . S
O335 Co327 2.135 . S
Co336 O337 2.216 . S
Co336 O338 2.091 . S
Co336 O340 2.004 . S
Co336 O346 2.021 . S
Co336 O348 2.137 . S
Co336 O349 2.244 . S
O337 Co336 2.216 . S
O337 C344 1.247 . S
O338 Co336 2.091 . S
O338 C344 1.261 . S
C339 O348 1.247 . S
C339 O349 1.272 . S
O340 Co336 2.004 . S
O340 C345 1.259 . S
Co341 O342 2.061 . S
Co341 O347 2.052 . S
Co341 O349 2.135 . S
O342 Co341 2.061 . S
O342 C345 1.235 . S
C343 O346 1.238 . S
C343 O347 1.241 . S
C344 O337 1.247 . S
C344 O338 1.261 . S
C345 O340 1.259 . S
C345 O342 1.235 . S
O346 Co336 2.021 . S
O346 C343 1.238 . S
O347 Co341 2.052 . S
O347 C343 1.241 . S
O348 Co336 2.137 . S
O348 C339 1.247 . S
O349 Co336 2.244 . S
O349 C339 1.272 . S
O349 Co341 2.135 . S
Co350 O351 2.216 . S
Co350 O352 2.091 . S
Co350 O354 2.004 . S
Co350 O360 2.021 . S
Co350 O362 2.137 . S
Co350 O363 2.244 . S
O351 Co350 2.216 . S
O351 C358 1.247 . S
O352 Co350 2.091 . S
O352 C358 1.261 . S
C353 O362 1.247 . S
C353 O363 1.272 . S
O354 Co350 2.004 . S
O354 C359 1.259 . S
Co355 O356 2.061 . S
Co355 O361 2.052 . S
Co355 O363 2.135 . S
O356 Co355 2.061 . S
O356 C359 1.235 . S
C357 O360 1.238 . S
C357 O361 1.241 . S
C358 O351 1.247 . S
C358 O352 1.261 . S
C359 O354 1.259 . S
C359 O356 1.235 . S
O360 Co350 2.021 . S
O360 C357 1.238 . S
O361 Co355 2.052 . S
O361 C357 1.241 . S
O362 Co350 2.137 . S
O362 C353 1.247 . S
O363 Co350 2.244 . S
O363 C353 1.272 . S
O363 Co355 2.135 . S
Co364 O365 2.216 . S
Co364 O366 2.091 . S
Co364 O368 2.004 . S
Co364 O374 2.021 . S
Co364 O376 2.137 . S
Co364 O377 2.244 . S
O365 Co364 2.216 . S
O365 C372 1.247 . S
O366 Co364 2.091 . S
O366 C372 1.261 . S
C367 O376 1.247 . S
C367 O377 1.272 . S
O368 Co364 2.004 . S
O368 C373 1.259 . S
Co369 O370 2.061 . S
Co369 O375 2.052 . S
Co369 O377 2.135 . S
O370 Co369 2.061 . S
O370 C373 1.235 . S
C371 O374 1.238 . S
C371 O375 1.241 . S
C372 O365 1.247 . S
C372 O366 1.261 . S
C373 O368 1.259 . S
C373 O370 1.235 . S
O374 Co364 2.021 . S
O374 C371 1.238 . S
O375 Co369 2.052 . S
O375 C371 1.241 . S
O376 Co364 2.137 . S
O376 C367 1.247 . S
O377 Co364 2.244 . S
O377 C367 1.272 . S
O377 Co369 2.135 . S
Co378 O379 2.216 . S
Co378 O380 2.091 . S
Co378 O382 2.004 . S
Co378 O388 2.021 . S
Co378 O390 2.137 . S
Co378 O391 2.244 . S
O379 Co378 2.216 . S
O379 C386 1.247 . S
O380 Co378 2.091 . S
O380 C386 1.261 . S
C381 O390 1.247 . S
C381 O391 1.272 . S
O382 Co378 2.004 . S
O382 C387 1.259 . S
Co383 O384 2.061 . S
Co383 O389 2.052 . S
Co383 O391 2.135 . S
O384 Co383 2.061 . S
O384 C387 1.235 . S
C385 O388 1.238 . S
C385 O389 1.241 . S
C386 O379 1.247 . S
C386 O380 1.261 . S
C387 O382 1.259 . S
C387 O384 1.235 . S
O388 Co378 2.021 . S
O388 C385 1.238 . S
O389 Co383 2.052 . S
O389 C385 1.241 . S
O390 Co378 2.137 . S
O390 C381 1.247 . S
O391 Co378 2.244 . S
O391 C381 1.272 . S
O391 Co383 2.135 . S
Co392 O393 2.216 . S
Co392 O394 2.091 . S
Co392 O396 2.004 . S
Co392 O402 2.021 . S
Co392 O404 2.137 . S
Co392 O405 2.244 . S
O393 Co392 2.216 . S
O393 C400 1.247 . S
O394 Co392 2.091 . S
O394 C400 1.261 . S
C395 O404 1.247 . S
C395 O405 1.272 . S
O396 Co392 2.004 . S
O396 C401 1.259 . S
Co397 O398 2.061 . S
Co397 O403 2.052 . S
Co397 O405 2.135 . S
O398 Co397 2.061 . S
O398 C401 1.235 . S
C399 O402 1.238 . S
C399 O403 1.241 . S
C400 O393 1.247 . S
C400 O394 1.261 . S
C401 O396 1.259 . S
C401 O398 1.235 . S
O402 Co392 2.021 . S
O402 C399 1.238 . S
O403 Co397 2.052 . S
O403 C399 1.241 . S
O404 Co392 2.137 . S
O404 C395 1.247 . S
O405 Co392 2.244 . S
O405 C395 1.272 . S
O405 Co397 2.135 . S
Co406 O407 2.216 . S
Co406 O408 2.091 . S
Co406 O410 2.004 . S
Co406 O416 2.021 . S
Co406 O418 2.137 . S
Co406 O419 2.244 . S
O407 Co406 2.216 . S
O407 C414 1.247 . S
O408 Co406 2.091 . S
O408 C414 1.261 . S
C409 O418 1.247 . S
C409 O419 1.272 . S
O410 Co406 2.004 . S
O410 C415 1.259 . S
Co411 O412 2.061 . S
Co411 O417 2.052 . S
Co411 O419 2.135 . S
O412 Co411 2.061 . S
O412 C415 1.235 . S
C413 O416 1.238 . S
C413 O417 1.241 . S
C414 O407 1.247 . S
C414 O408 1.261 . S
C415 O410 1.259 . S
C415 O412 1.235 . S
O416 Co406 2.021 . S
O416 C413 1.238 . S
O417 Co411 2.052 . S
O417 C413 1.241 . S
O418 Co406 2.137 . S
O418 C409 1.247 . S
O419 Co406 2.244 . S
O419 C409 1.272 . S
O419 Co411 2.135 . S
Co420 O421 2.216 . S
Co420 O422 2.091 . S
Co420 O424 2.004 . S
Co420 O430 2.021 . S
Co420 O432 2.137 . S
Co420 O433 2.244 . S
O421 Co420 2.216 . S
O421 C428 1.247 . S
O422 Co420 2.091 . S
O422 C428 1.261 . S
C423 O432 1.247 . S
C423 O433 1.272 . S
O424 Co420 2.004 . S
O424 C429 1.259 . S
Co425 O426 2.061 . S
Co425 O431 2.052 . S
Co425 O433 2.135 . S
O426 Co425 2.061 . S
O426 C429 1.235 . S
C427 O430 1.238 . S
C427 O431 1.241 . S
C428 O421 1.247 . S
C428 O422 1.261 . S
C429 O424 1.259 . S
C429 O426 1.235 . S
O430 Co420 2.021 . S
O430 C427 1.238 . S
O431 Co425 2.052 . S
O431 C427 1.241 . S
O432 Co420 2.137 . S
O432 C423 1.247 . S
O433 Co420 2.244 . S
O433 C423 1.272 . S
O433 Co425 2.135 . S
Co434 O435 2.216 . S
Co434 O436 2.091 . S
Co434 O438 2.004 . S
Co434 O444 2.021 . S
Co434 O446 2.137 . S
Co434 O447 2.244 . S
O435 Co434 2.216 . S
O435 C442 1.247 . S
O436 Co434 2.091 . S
O436 C442 1.261 . S
C437 O446 1.247 . S
C437 O447 1.272 . S
O438 Co434 2.004 . S
O438 C443 1.259 . S
Co439 O440 2.061 . S
Co439 O445 2.052 . S
Co439 O447 2.135 . S
O440 Co439 2.061 . S
O440 C443 1.235 . S
C441 O444 1.238 . S
C441 O445 1.241 . S
C442 O435 1.247 . S
C442 O436 1.261 . S
C443 O438 1.259 . S
C443 O440 1.235 . S
O444 Co434 2.021 . S
O444 C441 1.238 . S
O445 Co439 2.052 . S
O445 C441 1.241 . S
O446 Co434 2.137 . S
O446 C437 1.247 . S
O447 Co434 2.244 . S
O447 C437 1.272 . S
O447 Co439 2.135 . S
Co448 O449 2.216 . S
Co448 O450 2.091 . S
Co448 O452 2.004 . S
Co448 O458 2.021 . S
Co448 O460 2.137 . S
Co448 O461 2.244 . S
O449 Co448 2.216 . S
O449 C456 1.247 . S
O450 Co448 2.091 . S
O450 C456 1.261 . S
C451 O460 1.247 . S
C451 O461 1.272 . S
O452 Co448 2.004 . S
O452 C457 1.259 . S
Co453 O454 2.061 . S
Co453 O459 2.052 . S
Co453 O461 2.135 . S
O454 Co453 2.061 . S
O454 C457 1.235 . S
C455 O458 1.238 . S
C455 O459 1.241 . S
C456 O449 1.247 . S
C456 O450 1.261 . S
C457 O452 1.259 . S
C457 O454 1.235 . S
O458 Co448 2.021 . S
O458 C455 1.238 . S
O459 Co453 2.052 . S
O459 C455 1.241 . S
O460 Co448 2.137 . S
O460 C451 1.247 . S
O461 Co448 2.244 . S
O461 C451 1.272 . S
O461 Co453 2.135 . S
Co462 O463 2.216 . S
Co462 O464 2.091 . S
Co462 O466 2.004 . S
Co462 O472 2.021 . S
Co462 O474 2.137 . S
Co462 O475 2.244 . S
O463 Co462 2.216 . S
O463 C470 1.247 . S
O464 Co462 2.091 . S
O464 C470 1.261 . S
C465 O474 1.247 . S
C465 O475 1.272 . S
O466 Co462 2.004 . S
O466 C471 1.259 . S
Co467 O468 2.061 . S
Co467 O473 2.052 . S
Co467 O475 2.135 . S
O468 Co467 2.061 . S
O468 C471 1.235 . S
C469 O472 1.238 . S
C469 O473 1.241 . S
C470 O463 1.247 . S
C470 O464 1.261 . S
C471 O466 1.259 . S
C471 O468 1.235 . S
O472 Co462 2.021 . S
O472 C469 1.238 . S
O473 Co467 2.052 . S
O473 C469 1.241 . S
O474 Co462 2.137 . S
O474 C465 1.247 . S
O475 Co462 2.244 . S
O475 C465 1.272 . S
O475 Co467 2.135 . S
Co476 O477 2.216 . S
Co476 O478 2.091 . S
Co476 O480 2.004 . S
Co476 O486 2.021 . S
Co476 O488 2.137 . S
Co476 O489 2.244 . S
O477 Co476 2.216 . S
O477 C484 1.247 . S
O478 Co476 2.091 . S
O478 C484 1.261 . S
C479 O488 1.247 . S
C479 O489 1.272 . S
O480 Co476 2.004 . S
O480 C485 1.259 . S
Co481 O482 2.061 . S
Co481 O487 2.052 . S
Co481 O489 2.135 . S
O482 Co481 2.061 . S
O482 C485 1.235 . S
C483 O486 1.238 . S
C483 O487 1.241 . S
C484 O477 1.247 . S
C484 O478 1.261 . S
C485 O480 1.259 . S
C485 O482 1.235 . S
O486 Co476 2.021 . S
O486 C483 1.238 . S
O487 Co481 2.052 . S
O487 C483 1.241 . S
O488 Co476 2.137 . S
O488 C479 1.247 . S
O489 Co476 2.244 . S
O489 C479 1.272 . S
O489 Co481 2.135 . S
Co490 O491 2.216 . S
Co490 O492 2.091 . S
Co490 O494 2.004 . S
Co490 O500 2.021 . S
Co490 O502 2.137 . S
Co490 O503 2.244 . S
O491 Co490 2.216 . S
O491 C498 1.247 . S
O492 Co490 2.091 . S
O492 C498 1.261 . S
C493 O502 1.247 . S
C493 O503 1.272 . S
O494 Co490 2.004 . S
O494 C499 1.259 . S
Co495 O496 2.061 . S
Co495 O501 2.052 . S
Co495 O503 2.135 . S
O496 Co495 2.061 . S
O496 C499 1.235 . S
C497 O500 1.238 . S
C497 O501 1.241 . S
C498 O491 1.247 . S
C498 O492 1.261 . S
C499 O494 1.259 . S
C499 O496 1.235 . S
O500 Co490 2.021 . S
O500 C497 1.238 . S
O501 Co495 2.052 . S
O501 C497 1.241 . S
O502 Co490 2.137 . S
O502 C493 1.247 . S
O503 Co490 2.244 . S
O503 C493 1.272 . S
O503 Co495 2.135 . S
Co504 O505 2.216 . S
Co504 O506 2.091 . S
Co504 O508 2.004 . S
Co504 O514 2.021 . S
Co504 O516 2.137 . S
Co504 O517 2.244 . S
O505 Co504 2.216 . S
O505 C512 1.247 . S
O506 Co504 2.091 . S
O506 C512 1.261 . S
C507 O516 1.247 . S
C507 O517 1.272 . S
O508 Co504 2.004 . S
O508 C513 1.259 . S
Co509 O510 2.061 . S
Co509 O515 2.052 . S
Co509 O517 2.135 . S
O510 Co509 2.061 . S
O510 C513 1.235 . S
C511 O514 1.238 . S
C511 O515 1.241 . S
C512 O505 1.247 . S
C512 O506 1.261 . S
C513 O508 1.259 . S
C513 O510 1.235 . S
O514 Co504 2.021 . S
O514 C511 1.238 . S
O515 Co509 2.052 . S
O515 C511 1.241 . S
O516 Co504 2.137 . S
O516 C507 1.247 . S
O517 Co504 2.244 . S
O517 C507 1.272 . S
O517 Co509 2.135 . S
Co518 O519 2.216 . S
Co518 O520 2.091 . S
Co518 O522 2.004 . S
Co518 O528 2.021 . S
Co518 O530 2.137 . S
Co518 O531 2.244 . S
O519 Co518 2.216 . S
O519 C526 1.247 . S
O520 Co518 2.091 . S
O520 C526 1.261 . S
C521 O530 1.247 . S
C521 O531 1.272 . S
O522 Co518 2.004 . S
O522 C527 1.259 . S
Co523 O524 2.061 . S
Co523 O529 2.052 . S
Co523 O531 2.135 . S
O524 Co523 2.061 . S
O524 C527 1.235 . S
C525 O528 1.238 . S
C525 O529 1.241 . S
C526 O519 1.247 . S
C526 O520 1.261 . S
C527 O522 1.259 . S
C527 O524 1.235 . S
O528 Co518 2.021 . S
O528 C525 1.238 . S
O529 Co523 2.052 . S
O529 C525 1.241 . S
O530 Co518 2.137 . S
O530 C521 1.247 . S
O531 Co518 2.244 . S
O531 C521 1.272 . S
O531 Co523 2.135 . S
Co532 O533 2.216 . S
Co532 O534 2.091 . S
Co532 O536 2.004 . S
Co532 O542 2.021 . S
Co532 O544 2.137 . S
Co532 O545 2.244 . S
O533 Co532 2.216 . S
O533 C540 1.247 . S
O534 Co532 2.091 . S
O534 C540 1.261 . S
C535 O544 1.247 . S
C535 O545 1.272 . S
O536 Co532 2.004 . S
O536 C541 1.259 . S
Co537 O538 2.061 . S
Co537 O543 2.052 . S
Co537 O545 2.135 . S
O538 Co537 2.061 . S
O538 C541 1.235 . S
C539 O542 1.238 . S
C539 O543 1.241 . S
C540 O533 1.247 . S
C540 O534 1.261 . S
C541 O536 1.259 . S
C541 O538 1.235 . S
O542 Co532 2.021 . S
O542 C539 1.238 . S
O543 Co537 2.052 . S
O543 C539 1.241 . S
O544 Co532 2.137 . S
O544 C535 1.247 . S
O545 Co532 2.244 . S
O545 C535 1.272 . S
O545 Co537 2.135 . S
Co546 O547 2.216 . S
Co546 O548 2.091 . S
Co546 O550 2.004 . S
Co546 O556 2.021 . S
Co546 O558 2.137 . S
Co546 O559 2.244 . S
O547 Co546 2.216 . S
O547 C554 1.247 . S
O548 Co546 2.091 . S
O548 C554 1.261 . S
C549 O558 1.247 . S
C549 O559 1.272 . S
O550 Co546 2.004 . S
O550 C555 1.259 . S
Co551 O552 2.061 . S
Co551 O557 2.052 . S
Co551 O559 2.135 . S
O552 Co551 2.061 . S
O552 C555 1.235 . S
C553 O556 1.238 . S
C553 O557 1.241 . S
C554 O547 1.247 . S
C554 O548 1.261 . S
C555 O550 1.259 . S
C555 O552 1.235 . S
O556 Co546 2.021 . S
O556 C553 1.238 . S
O557 Co551 2.052 . S
O557 C553 1.241 . S
O558 Co546 2.137 . S
O558 C549 1.247 . S
O559 Co546 2.244 . S
O559 C549 1.272 . S
O559 Co551 2.135 . S
Co560 O561 2.216 . S
Co560 O562 2.091 . S
Co560 O564 2.004 . S
Co560 O570 2.021 . S
Co560 O572 2.137 . S
Co560 O573 2.244 . S
O561 Co560 2.216 . S
O561 C568 1.247 . S
O562 Co560 2.091 . S
O562 C568 1.261 . S
C563 O572 1.247 . S
C563 O573 1.272 . S
O564 Co560 2.004 . S
O564 C569 1.259 . S
Co565 O566 2.061 . S
Co565 O571 2.052 . S
Co565 O573 2.135 . S
O566 Co565 2.061 . S
O566 C569 1.235 . S
C567 O570 1.238 . S
C567 O571 1.241 . S
C568 O561 1.247 . S
C568 O562 1.261 . S
C569 O564 1.259 . S
C569 O566 1.235 . S
O570 Co560 2.021 . S
O570 C567 1.238 . S
O571 Co565 2.052 . S
O571 C567 1.241 . S
O572 Co560 2.137 . S
O572 C563 1.247 . S
O573 Co560 2.244 . S
O573 C563 1.272 . S
O573 Co565 2.135 . S
Co574 O575 2.216 . S
Co574 O576 2.091 . S
Co574 O578 2.004 . S
Co574 O584 2.021 . S
Co574 O586 2.137 . S
Co574 O587 2.244 . S
O575 Co574 2.216 . S
O575 C582 1.247 . S
O576 Co574 2.091 . S
O576 C582 1.261 . S
C577 O586 1.247 . S
C577 O587 1.272 . S
O578 Co574 2.004 . S
O578 C583 1.259 . S
Co579 O580 2.061 . S
Co579 O585 2.052 . S
Co579 O587 2.135 . S
O580 Co579 2.061 . S
O580 C583 1.235 . S
C581 O584 1.238 . S
C581 O585 1.241 . S
C582 O575 1.247 . S
C582 O576 1.261 . S
C583 O578 1.259 . S
C583 O580 1.235 . S
O584 Co574 2.021 . S
O584 C581 1.238 . S
O585 Co579 2.052 . S
O585 C581 1.241 . S
O586 Co574 2.137 . S
O586 C577 1.247 . S
O587 Co574 2.244 . S
O587 C577 1.272 . S
O587 Co579 2.135 . S
Co588 O589 2.216 . S
Co588 O590 2.091 . S
Co588 O592 2.004 . S
Co588 O598 2.021 . S
Co588 O600 2.137 . S
Co588 O601 2.244 . S
O589 Co588 2.216 . S
O589 C596 1.247 . S
O590 Co588 2.091 . S
O590 C596 1.261 . S
C591 O600 1.247 . S
C591 O601 1.272 . S
O592 Co588 2.004 . S
O592 C597 1.259 . S
Co593 O594 2.061 . S
Co593 O599 2.052 . S
Co593 O601 2.135 . S
O594 Co593 2.061 . S
O594 C597 1.235 . S
C595 O598 1.238 . S
C595 O599 1.241 . S
C596 O589 1.247 . S
C596 O590 1.261 . S
C597 O592 1.259 . S
C597 O594 1.235 . S
O598 Co588 2.021 . S
O598 C595 1.238 . S
O599 Co593 2.052 . S
O599 C595 1.241 . S
O600 Co588 2.137 . S
O600 C591 1.247 . S
O601 Co588 2.244 . S
O601 C591 1.272 . S
O601 Co593 2.135 . S
Co602 O603 2.216 . S
Co602 O604 2.091 . S
Co602 O606 2.004 . S
Co602 O612 2.021 . S
Co602 O614 2.137 . S
Co602 O615 2.244 . S
O603 Co602 2.216 . S
O603 C610 1.247 . S
O604 Co602 2.091 . S
O604 C610 1.261 . S
C605 O614 1.247 . S
C605 O615 1.272 . S
O606 Co602 2.004 . S
O606 C611 1.259 . S
Co607 O608 2.061 . S
Co607 O613 2.052 . S
Co607 O615 2.135 . S
O608 Co607 2.061 . S
O608 C611 1.235 . S
C609 O612 1.238 . S
C609 O613 1.241 . S
C610 O603 1.247 . S
C610 O604 1.261 . S
C611 O606 1.259 . S
C611 O608 1.235 . S
O612 Co602 2.021 . S
O612 C609 1.238 . S
O613 Co607 2.052 . S
O613 C609 1.241 . S
O614 Co602 2.137 . S
O614 C605 1.247 . S
O615 Co602 2.244 . S
O615 C605 1.272 . S
O615 Co607 2.135 . S
Co616 O617 2.216 . S
Co616 O618 2.091 . S
Co616 O620 2.004 . S
Co616 O626 2.021 . S
Co616 O628 2.137 . S
Co616 O629 2.244 . S
O617 Co616 2.216 . S
O617 C624 1.247 . S
O618 Co616 2.091 . S
O618 C624 1.261 . S
C619 O628 1.247 . S
C619 O629 1.272 . S
O620 Co616 2.004 . S
O620 C625 1.259 . S
Co621 O622 2.061 . S
Co621 O627 2.052 . S
Co621 O629 2.135 . S
O622 Co621 2.061 . S
O622 C625 1.235 . S
C623 O626 1.238 . S
C623 O627 1.241 . S
C624 O617 1.247 . S
C624 O618 1.261 . S
C625 O620 1.259 . S
C625 O622 1.235 . S
O626 Co616 2.021 . S
O626 C623 1.238 . S
O627 Co621 2.052 . S
O627 C623 1.241 . S
O628 Co616 2.137 . S
O628 C619 1.247 . S
O629 Co616 2.244 . S
O629 C619 1.272 . S
O629 Co621 2.135 . S
Co630 O631 2.216 . S
Co630 O632 2.091 . S
Co630 O634 2.004 . S
Co630 O640 2.021 . S
Co630 O642 2.137 . S
Co630 O643 2.244 . S
O631 Co630 2.216 . S
O631 C638 1.247 . S
O632 Co630 2.091 . S
O632 C638 1.261 . S
C633 O642 1.247 . S
C633 O643 1.272 . S
O634 Co630 2.004 . S
O634 C639 1.259 . S
Co635 O636 2.061 . S
Co635 O641 2.052 . S
Co635 O643 2.135 . S
O636 Co635 2.061 . S
O636 C639 1.235 . S
C637 O640 1.238 . S
C637 O641 1.241 . S
C638 O631 1.247 . S
C638 O632 1.261 . S
C639 O634 1.259 . S
C639 O636 1.235 . S
O640 Co630 2.021 . S
O640 C637 1.238 . S
O641 Co635 2.052 . S
O641 C637 1.241 . S
O642 Co630 2.137 . S
O642 C633 1.247 . S
O643 Co630 2.244 . S
O643 C633 1.272 . S
O643 Co635 2.135 . S
Co644 O645 2.216 . S
Co644 O646 2.091 . S
Co644 O648 2.004 . S
Co644 O654 2.021 . S
Co644 O656 2.137 . S
Co644 O657 2.244 . S
O645 Co644 2.216 . S
O645 C652 1.247 . S
O646 Co644 2.091 . S
O646 C652 1.261 . S
C647 O656 1.247 . S
C647 O657 1.272 . S
O648 Co644 2.004 . S
O648 C653 1.259 . S
Co649 O650 2.061 . S
Co649 O655 2.052 . S
Co649 O657 2.135 . S
O650 Co649 2.061 . S
O650 C653 1.235 . S
C651 O654 1.238 . S
C651 O655 1.241 . S
C652 O645 1.247 . S
C652 O646 1.261 . S
C653 O648 1.259 . S
C653 O650 1.235 . S
O654 Co644 2.021 . S
O654 C651 1.238 . S
O655 Co649 2.052 . S
O655 C651 1.241 . S
O656 Co644 2.137 . S
O656 C647 1.247 . S
O657 Co644 2.244 . S
O657 C647 1.272 . S
O657 Co649 2.135 . S
Co658 O659 2.216 . S
Co658 O660 2.091 . S
Co658 O662 2.004 . S
Co658 O668 2.021 . S
Co658 O670 2.137 . S
Co658 O671 2.244 . S
O659 Co658 2.216 . S
O659 C666 1.247 . S
O660 Co658 2.091 . S
O660 C666 1.261 . S
C661 O670 1.247 . S
C661 O671 1.272 . S
O662 Co658 2.004 . S
O662 C667 1.259 . S
Co663 O664 2.061 . S
Co663 O669 2.052 . S
Co663 O671 2.135 . S
O664 Co663 2.061 . S
O664 C667 1.235 . S
C665 O668 1.238 . S
C665 O669 1.241 . S
C666 O659 1.247 . S
C666 O660 1.261 . S
C667 O662 1.259 . S
C667 O664 1.235 . S
O668 Co658 2.021 . S
O668 C665 1.238 . S
O669 Co663 2.052 . S
O669 C665 1.241 . S
O670 Co658 2.137 . S
O670 C661 1.247 . S
O671 Co658 2.244 . S
O671 C661 1.272 . S
O671 Co663 2.135 . S
Co672 O673 2.216 . S
Co672 O674 2.091 . S
Co672 O676 2.004 . S
Co672 O682 2.021 . S
Co672 O684 2.137 . S
Co672 O685 2.244 . S
O673 Co672 2.216 . S
O673 C680 1.247 . S
O674 Co672 2.091 . S
O674 C680 1.261 . S
C675 O684 1.247 . S
C675 O685 1.272 . S
O676 Co672 2.004 . S
O676 C681 1.259 . S
Co677 O678 2.061 . S
Co677 O683 2.052 . S
Co677 O685 2.135 . S
O678 Co677 2.061 . S
O678 C681 1.235 . S
C679 O682 1.238 . S
C679 O683 1.241 . S
C680 O673 1.247 . S
C680 O674 1.261 . S
C681 O676 1.259 . S
C681 O678 1.235 . S
O682 Co672 2.021 . S
O682 C679 1.238 . S
O683 Co677 2.052 . S
O683 C679 1.241 . S
O684 Co672 2.137 . S
O684 C675 1.247 . S
O685 Co672 2.244 . S
O685 C675 1.272 . S
O685 Co677 2.135 . S
Co686 O687 2.216 . S
Co686 O688 2.091 . S
Co686 O690 2.004 . S
Co686 O696 2.021 . S
Co686 O698 2.137 . S
Co686 O699 2.244 . S
O687 Co686 2.216 . S
O687 C694 1.247 . S
O688 Co686 2.091 . S
O688 C694 1.261 . S
C689 O698 1.247 . S
C689 O699 1.272 . S
O690 Co686 2.004 . S
O690 C695 1.259 . S
Co691 O692 2.061 . S
Co691 O697 2.052 . S
Co691 O699 2.135 . S
O692 Co691 2.061 . S
O692 C695 1.235 . S
C693 O696 1.238 . S
C693 O697 1.241 . S
C694 O687 1.247 . S
C694 O688 1.261 . S
C695 O690 1.259 . S
C695 O692 1.235 . S
O696 Co686 2.021 . S
O696 C693 1.238 . S
O697 Co691 2.052 . S
O697 C693 1.241 . S
O698 Co686 2.137 . S
O698 C689 1.247 . S
O699 Co686 2.244 . S
O699 C689 1.272 . S
O699 Co691 2.135 . S
Co700 O701 2.216 . S
Co700 O702 2.091 . S
Co700 O704 2.004 . S
Co700 O710 2.021 . S
Co700 O712 2.137 . S
Co700 O713 2.244 . S
O701 Co700 2.216 . S
O701 C708 1.247 . S
O702 Co700 2.091 . S
O702 C708 1.261 . S
C703 O712 1.247 . S
C703 O713 1.272 . S
O704 Co700 2.004 . S
O704 C709 1.259 . S
Co705 O706 2.061 . S
Co705 O711 2.052 . S
Co705 O713 2.135 . S
O706 Co705 2.061 . S
O706 C709 1.235 . S
C707 O710 1.238 . S
C707 O711 1.241 . S
C708 O701 1.247 . S
C708 O702 1.261 . S
C709 O704 1.259 . S
C709 O706 1.235 . S
O710 Co700 2.021 . S
O710 C707 1.238 . S
O711 Co705 2.052 . S
O711 C707 1.241 . S
O712 Co700 2.137 . S
O712 C703 1.247 . S
O713 Co700 2.244 . S
O713 C703 1.272 . S
O713 Co705 2.135 . S
Co714 O715 2.216 . S
Co714 O716 2.091 . S
Co714 O718 2.004 . S
Co714 O724 2.021 . S
Co714 O726 2.137 . S
Co714 O727 2.244 . S
O715 Co714 2.216 . S
O715 C722 1.247 . S
O716 Co714 2.091 . S
O716 C722 1.261 . S
C717 O726 1.247 . S
C717 O727 1.272 . S
O718 Co714 2.004 . S
O718 C723 1.259 . S
Co719 O720 2.061 . S
Co719 O725 2.052 . S
Co719 O727 2.135 . S
O720 Co719 2.061 . S
O720 C723 1.235 . S
C721 O724 1.238 . S
C721 O725 1.241 . S
C722 O715 1.247 . S
C722 O716 1.261 . S
C723 O718 1.259 . S
C723 O720 1.235 . S
O724 Co714 2.021 . S
O724 C721 1.238 . S
O725 Co719 2.052 . S
O725 C721 1.241 . S
O726 Co714 2.137 . S
O726 C717 1.247 . S
O727 Co714 2.244 . S
O727 C717 1.272 . S
O727 Co719 2.135 . S
Co728 O729 2.216 . S
Co728 O730 2.091 . S
Co728 O732 2.004 . S
Co728 O738 2.021 . S
Co728 O740 2.137 . S
Co728 O741 2.244 . S
O729 Co728 2.216 . S
O729 C736 1.247 . S
O730 Co728 2.091 . S
O730 C736 1.261 . S
C731 O740 1.247 . S
C731 O741 1.272 . S
O732 Co728 2.004 . S
O732 C737 1.259 . S
Co733 O734 2.061 . S
Co733 O739 2.052 . S
Co733 O741 2.135 . S
O734 Co733 2.061 . S
O734 C737 1.235 . S
C735 O738 1.238 . S
C735 O739 1.241 . S
C736 O729 1.247 . S
C736 O730 1.261 . S
C737 O732 1.259 . S
C737 O734 1.235 . S
O738 Co728 2.021 . S
O738 C735 1.238 . S
O739 Co733 2.052 . S
O739 C735 1.241 . S
O740 Co728 2.137 . S
O740 C731 1.247 . S
O741 Co728 2.244 . S
O741 C731 1.272 . S
O741 Co733 2.135 . S
Co742 O743 2.216 . S
Co742 O744 2.091 . S
Co742 O746 2.004 . S
Co742 O752 2.021 . S
Co742 O754 2.137 . S
Co742 O755 2.244 . S
O743 Co742 2.216 . S
O743 C750 1.247 . S
O744 Co742 2.091 . S
O744 C750 1.261 . S
C745 O754 1.247 . S
C745 O755 1.272 . S
O746 Co742 2.004 . S
O746 C751 1.259 . S
Co747 O748 2.061 . S
Co747 O753 2.052 . S
Co747 O755 2.135 . S
O748 Co747 2.061 . S
O748 C751 1.235 . S
C749 O752 1.238 . S
C749 O753 1.241 . S
C750 O743 1.247 . S
C750 O744 1.261 . S
C751 O746 1.259 . S
C751 O748 1.235 . S
O752 Co742 2.021 . S
O752 C749 1.238 . S
O753 Co747 2.052 . S
O753 C749 1.241 . S
O754 Co742 2.137 . S
O754 C745 1.247 . S
O755 Co742 2.244 . S
O755 C745 1.272 . S
O755 Co747 2.135 . S
Co756 O757 2.216 . S
Co756 O758 2.091 . S
Co756 O760 2.004 . S
Co756 O766 2.021 . S
Co756 O768 2.137 . S
Co756 O769 2.244 . S
O757 Co756 2.216 . S
O757 C764 1.247 . S
O758 Co756 2.091 . S
O758 C764 1.261 . S
C759 O768 1.247 . S
C759 O769 1.272 . S
O760 Co756 2.004 . S
O760 C765 1.259 . S
Co761 O762 2.061 . S
Co761 O767 2.052 . S
Co761 O769 2.135 . S
O762 Co761 2.061 . S
O762 C765 1.235 . S
C763 O766 1.238 . S
C763 O767 1.241 . S
C764 O757 1.247 . S
C764 O758 1.261 . S
C765 O760 1.259 . S
C765 O762 1.235 . S
O766 Co756 2.021 . S
O766 C763 1.238 . S
O767 Co761 2.052 . S
O767 C763 1.241 . S
O768 Co756 2.137 . S
O768 C759 1.247 . S
O769 Co756 2.244 . S
O769 C759 1.272 . S
O769 Co761 2.135 . S
Co770 O771 2.216 . S
Co770 O772 2.091 . S
Co770 O774 2.004 . S
Co770 O780 2.021 . S
Co770 O782 2.137 . S
Co770 O783 2.244 . S
O771 Co770 2.216 . S
O771 C778 1.247 . S
O772 Co770 2.091 . S
O772 C778 1.261 . S
C773 O782 1.247 . S
C773 O783 1.272 . S
O774 Co770 2.004 . S
O774 C779 1.259 . S
Co775 O776 2.061 . S
Co775 O781 2.052 . S
Co775 O783 2.135 . S
O776 Co775 2.061 . S
O776 C779 1.235 . S
C777 O780 1.238 . S
C777 O781 1.241 . S
C778 O771 1.247 . S
C778 O772 1.261 . S
C779 O774 1.259 . S
C779 O776 1.235 . S
O780 Co770 2.021 . S
O780 C777 1.238 . S
O781 Co775 2.052 . S
O781 C777 1.241 . S
O782 Co770 2.137 . S
O782 C773 1.247 . S
O783 Co770 2.244 . S
O783 C773 1.272 . S
O783 Co775 2.135 . S
Co784 O785 2.216 . S
Co784 O786 2.091 . S
Co784 O788 2.004 . S
Co784 O794 2.021 . S
Co784 O796 2.137 . S
Co784 O797 2.244 . S
O785 Co784 2.216 . S
O785 C792 1.247 . S
O786 Co784 2.091 . S
O786 C792 1.261 . S
C787 O796 1.247 . S
C787 O797 1.272 . S
O788 Co784 2.004 . S
O788 C793 1.259 . S
Co789 O790 2.061 . S
Co789 O795 2.052 . S
Co789 O797 2.135 . S
O790 Co789 2.061 . S
O790 C793 1.235 . S
C791 O794 1.238 . S
C791 O795 1.241 . S
C792 O785 1.247 . S
C792 O786 1.261 . S
C793 O788 1.259 . S
C793 O790 1.235 . S
O794 Co784 2.021 . S
O794 C791 1.238 . S
O795 Co789 2.052 . S
O795 C791 1.241 . S
O796 Co784 2.137 . S
O796 C787 1.247 . S
O797 Co784 2.244 . S
O797 C787 1.272 . S
O797 Co789 2.135 . S
Co798 O799 2.216 . S
Co798 O800 2.091 . S
Co798 O802 2.004 . S
Co798 O808 2.021 . S
Co798 O810 2.137 . S
Co798 O811 2.244 . S
O799 Co798 2.216 . S
O799 C806 1.247 . S
O800 Co798 2.091 . S
O800 C806 1.261 . S
C801 O810 1.247 . S
C801 O811 1.272 . S
O802 Co798 2.004 . S
O802 C807 1.259 . S
Co803 O804 2.061 . S
Co803 O809 2.052 . S
Co803 O811 2.135 . S
O804 Co803 2.061 . S
O804 C807 1.235 . S
C805 O808 1.238 . S
C805 O809 1.241 . S
C806 O799 1.247 . S
C806 O800 1.261 . S
C807 O802 1.259 . S
C807 O804 1.235 . S
O808 Co798 2.021 . S
O808 C805 1.238 . S
O809 Co803 2.052 . S
O809 C805 1.241 . S
O810 Co798 2.137 . S
O810 C801 1.247 . S
O811 Co798 2.244 . S
O811 C801 1.272 . S
O811 Co803 2.135 . S
Co812 O813 2.216 . S
Co812 O814 2.091 . S
Co812 O816 2.004 . S
Co812 O822 2.021 . S
Co812 O824 2.137 . S
Co812 O825 2.244 . S
O813 Co812 2.216 . S
O813 C820 1.247 . S
O814 Co812 2.091 . S
O814 C820 1.261 . S
C815 O824 1.247 . S
C815 O825 1.272 . S
O816 Co812 2.004 . S
O816 C821 1.259 . S
Co817 O818 2.061 . S
Co817 O823 2.052 . S
Co817 O825 2.135 . S
O818 Co817 2.061 . S
O818 C821 1.235 . S
C819 O822 1.238 . S
C819 O823 1.241 . S
C820 O813 1.247 . S
C820 O814 1.261 . S
C821 O816 1.259 . S
C821 O818 1.235 . S
O822 Co812 2.021 . S
O822 C819 1.238 . S
O823 Co817 2.052 . S
O823 C819 1.241 . S
O824 Co812 2.137 . S
O824 C815 1.247 . S
O825 Co812 2.244 . S
O825 C815 1.272 . S
O825 Co817 2.135 . S
Co826 O827 2.216 . S
Co826 O828 2.091 . S
Co826 O830 2.004 . S
Co826 O836 2.021 . S
Co826 O838 2.137 . S
Co826 O839 2.244 . S
O827 Co826 2.216 . S
O827 C834 1.247 . S
O828 Co826 2.091 . S
O828 C834 1.261 . S
C829 O838 1.247 . S
C829 O839 1.272 . S
O830 Co826 2.004 . S
O830 C835 1.259 . S
Co831 O832 2.061 . S
Co831 O837 2.052 . S
Co831 O839 2.135 . S
O832 Co831 2.061 . S
O832 C835 1.235 . S
C833 O836 1.238 . S
C833 O837 1.241 . S
C834 O827 1.247 . S
C834 O828 1.261 . S
C835 O830 1.259 . S
C835 O832 1.235 . S
O836 Co826 2.021 . S
O836 C833 1.238 . S
O837 Co831 2.052 . S
O837 C833 1.241 . S
O838 Co826 2.137 . S
O838 C829 1.247 . S
O839 Co826 2.244 . S
O839 C829 1.272 . S
O839 Co831 2.135 . S
Co840 O841 2.216 . S
Co840 O842 2.091 . S
Co840 O844 2.004 . S
Co840 O850 2.021 . S
Co840 O852 2.137 . S
Co840 O853 2.244 . S
O841 Co840 2.216 . S
O841 C848 1.247 . S
O842 Co840 2.091 . S
O842 C848 1.261 . S
C843 O852 1.247 . S
C843 O853 1.272 . S
O844 Co840 2.004 . S
O844 C849 1.259 . S
Co845 O846 2.061 . S
Co845 O851 2.052 . S
Co845 O853 2.135 . S
O846 Co845 2.061 . S
O846 C849 1.235 . S
C847 O850 1.238 . S
C847 O851 1.241 . S
C848 O841 1.247 . S
C848 O842 1.261 . S
C849 O844 1.259 . S
C849 O846 1.235 . S
O850 Co840 2.021 . S
O850 C847 1.238 . S
O851 Co845 2.052 . S
O851 C847 1.241 . S
O852 Co840 2.137 . S
O852 C843 1.247 . S
O853 Co840 2.244 . S
O853 C843 1.272 . S
O853 Co845 2.135 . S
Co854 O855 2.216 . S
Co854 O856 2.091 . S
Co854 O858 2.004 . S
Co854 O864 2.021 . S
Co854 O866 2.137 . S
Co854 O867 2.244 . S
O855 Co854 2.216 . S
O855 C862 1.247 . S
O856 Co854 2.091 . S
O856 C862 1.261 . S
C857 O866 1.247 . S
C857 O867 1.272 . S
O858 Co854 2.004 . S
O858 C863 1.259 . S
Co859 O860 2.061 . S
Co859 O865 2.052 . S
Co859 O867 2.135 . S
O860 Co859 2.061 . S
O860 C863 1.235 . S
C861 O864 1.238 . S
C861 O865 1.241 . S
C862 O855 1.247 . S
C862 O856 1.261 . S
C863 O858 1.259 . S
C863 O860 1.235 . S
O864 Co854 2.021 . S
O864 C861 1.238 . S
O865 Co859 2.052 . S
O865 C861 1.241 . S
O866 Co854 2.137 . S
O866 C857 1.247 . S
O867 Co854 2.244 . S
O867 C857 1.272 . S
O867 Co859 2.135 . S
Co868 O869 2.216 . S
Co868 O870 2.091 . S
Co868 O872 2.004 . S
Co868 O878 2.021 . S
Co868 O880 2.137 . S
Co868 O881 2.244 . S
O869 Co868 2.216 . S
O869 C876 1.247 . S
O870 Co868 2.091 . S
O870 C876 1.261 . S
C871 O880 1.247 . S
C871 O881 1.272 . S
O872 Co868 2.004 . S
O872 C877 1.259 . S
Co873 O874 2.061 . S
Co873 O879 2.052 . S
Co873 O881 2.135 . S
O874 Co873 2.061 . S
O874 C877 1.235 . S
C875 O878 1.238 . S
C875 O879 1.241 . S
C876 O869 1.247 . S
C876 O870 1.261 . S
C877 O872 1.259 . S
C877 O874 1.235 . S
O878 Co868 2.021 . S
O878 C875 1.238 . S
O879 Co873 2.052 . S
O879 C875 1.241 . S
O880 Co868 2.137 . S
O880 C871 1.247 . S
O881 Co868 2.244 . S
O881 C871 1.272 . S
O881 Co873 2.135 . S
Co882 O883 2.216 . S
Co882 O884 2.091 . S
Co882 O886 2.004 . S
Co882 O892 2.021 . S
Co882 O894 2.137 . S
Co882 O895 2.244 . S
O883 Co882 2.216 . S
O883 C890 1.247 . S
O884 Co882 2.091 . S
O884 C890 1.261 . S
C885 O894 1.247 . S
C885 O895 1.272 . S
O886 Co882 2.004 . S
O886 C891 1.259 . S
Co887 O888 2.061 . S
Co887 O893 2.052 . S
Co887 O895 2.135 . S
O888 Co887 2.061 . S
O888 C891 1.235 . S
C889 O892 1.238 . S
C889 O893 1.241 . S
C890 O883 1.247 . S
C890 O884 1.261 . S
C891 O886 1.259 . S
C891 O888 1.235 . S
O892 Co882 2.021 . S
O892 C889 1.238 . S
O893 Co887 2.052 . S
O893 C889 1.241 . S
O894 Co882 2.137 . S
O894 C885 1.247 . S
O895 Co882 2.244 . S
O895 C885 1.272 . S
O895 Co887 2.135 . S
Co896 O897 2.216 . S
Co896 O898 2.091 . S
Co896 O900 2.004 . S
Co896 O906 2.021 . S
Co896 O908 2.137 . S
Co896 O909 2.244 . S
O897 Co896 2.216 . S
O897 C904 1.247 . S
O898 Co896 2.091 . S
O898 C904 1.261 . S
C899 O908 1.247 . S
C899 O909 1.272 . S
O900 Co896 2.004 . S
O900 C905 1.259 . S
Co901 O902 2.061 . S
Co901 O907 2.052 . S
Co901 O909 2.135 . S
O902 Co901 2.061 . S
O902 C905 1.235 . S
C903 O906 1.238 . S
C903 O907 1.241 . S
C904 O897 1.247 . S
C904 O898 1.261 . S
C905 O900 1.259 . S
C905 O902 1.235 . S
O906 Co896 2.021 . S
O906 C903 1.238 . S
O907 Co901 2.052 . S
O907 C903 1.241 . S
O908 Co896 2.137 . S
O908 C899 1.247 . S
O909 Co896 2.244 . S
O909 C899 1.272 . S
O909 Co901 2.135 . S
Co910 O911 2.216 . S
Co910 O912 2.091 . S
Co910 O914 2.004 . S
Co910 O920 2.021 . S
Co910 O922 2.137 . S
Co910 O923 2.244 . S
O911 Co910 2.216 . S
O911 C918 1.247 . S
O912 Co910 2.091 . S
O912 C918 1.261 . S
C913 O922 1.247 . S
C913 O923 1.272 . S
O914 Co910 2.004 . S
O914 C919 1.259 . S
Co915 O916 2.061 . S
Co915 O921 2.052 . S
Co915 O923 2.135 . S
O916 Co915 2.061 . S
O916 C919 1.235 . S
C917 O920 1.238 . S
C917 O921 1.241 . S
C918 O911 1.247 . S
C918 O912 1.261 . S
C919 O914 1.259 . S
C919 O916 1.235 . S
O920 Co910 2.021 . S
O920 C917 1.238 . S
O921 Co915 2.052 . S
O921 C917 1.241 . S
O922 Co910 2.137 . S
O922 C913 1.247 . S
O923 Co910 2.244 . S
O923 C913 1.272 . S
O923 Co915 2.135 . S
Co924 O925 2.216 . S
Co924 O926 2.091 . S
Co924 O928 2.004 . S
Co924 O934 2.021 . S
Co924 O936 2.137 . S
Co924 O937 2.244 . S
O925 Co924 2.216 . S
O925 C932 1.247 . S
O926 Co924 2.091 . S
O926 C932 1.261 . S
C927 O936 1.247 . S
C927 O937 1.272 . S
O928 Co924 2.004 . S
O928 C933 1.259 . S
Co929 O930 2.061 . S
Co929 O935 2.052 . S
Co929 O937 2.135 . S
O930 Co929 2.061 . S
O930 C933 1.235 . S
C931 O934 1.238 . S
C931 O935 1.241 . S
C932 O925 1.247 . S
C932 O926 1.261 . S
C933 O928 1.259 . S
C933 O930 1.235 . S
O934 Co924 2.021 . S
O934 C931 1.238 . S
O935 Co929 2.052 . S
O935 C931 1.241 . S
O936 Co924 2.137 . S
O936 C927 1.247 . S
O937 Co924 2.244 . S
O937 C927 1.272 . S
O937 Co929 2.135 . S
Co938 O939 2.216 . S
Co938 O940 2.091 . S
Co938 O942 2.004 . S
Co938 O948 2.021 . S
Co938 O950 2.137 . S
Co938 O951 2.244 . S
O939 Co938 2.216 . S
O939 C946 1.247 . S
O940 Co938 2.091 . S
O940 C946 1.261 . S
C941 O950 1.247 . S
C941 O951 1.272 . S
O942 Co938 2.004 . S
O942 C947 1.259 . S
Co943 O944 2.061 . S
Co943 O949 2.052 . S
Co943 O951 2.135 . S
O944 Co943 2.061 . S
O944 C947 1.235 . S
C945 O948 1.238 . S
C945 O949 1.241 . S
C946 O939 1.247 . S
C946 O940 1.261 . S
C947 O942 1.259 . S
C947 O944 1.235 . S
O948 Co938 2.021 . S
O948 C945 1.238 . S
O949 Co943 2.052 . S
O949 C945 1.241 . S
O950 Co938 2.137 . S
O950 C941 1.247 . S
O951 Co938 2.244 . S
O951 C941 1.272 . S
O951 Co943 2.135 . S
Co952 O953 2.216 . S
Co952 O954 2.091 . S
Co952 O956 2.004 . S
Co952 O962 2.021 . S
Co952 O964 2.137 . S
Co952 O965 2.244 . S
O953 Co952 2.216 . S
O953 C960 1.247 . S
O954 Co952 2.091 . S
O954 C960 1.261 . S
C955 O964 1.247 . S
C955 O965 1.272 . S
O956 Co952 2.004 . S
O956 C961 1.259 . S
Co957 O958 2.061 . S
Co957 O963 2.052 . S
Co957 O965 2.135 . S
O958 Co957 2.061 . S
O958 C961 1.235 . S
C959 O962 1.238 . S
C959 O963 1.241 . S
C960 O953 1.247 . S
C960 O954 1.261 . S
C961 O956 1.259 . S
C961 O958 1.235 . S
O962 Co952 2.021 . S
O962 C959 1.238 . S
O963 Co957 2.052 . S
O963 C959 1.241 . S
O964 Co952 2.137 . S
O964 C955 1.247 . S
O965 Co952 2.244 . S
O965 C955 1.272 . S
O965 Co957 2.135 . S
Co966 O967 2.216 . S
Co966 O968 2.091 . S
Co966 O970 2.004 . S
Co966 O976 2.021 . S
Co966 O978 2.137 . S
Co966 O979 2.244 . S
O967 Co966 2.216 . S
O967 C974 1.247 . S
O968 Co966 2.091 . S
O968 C974 1.261 . S
C969 O978 1.247 . S
C969 O979 1.272 . S
O970 Co966 2.004 . S
O970 C975 1.259 . S
Co971 O972 2.061 . S
Co971 O977 2.052 . S
Co971 O979 2.135 . S
O972 Co971 2.061 . S
O972 C975 1.235 . S
C973 O976 1.238 . S
C973 O977 1.241 . S
C974 O967 1.247 . S
C974 O968 1.261 . S
C975 O970 1.259 . S
C975 O972 1.235 . S
O976 Co966 2.021 . S
O976 C973 1.238 . S
O977 Co971 2.052 . S
O977 C973 1.241 . S
O978 Co966 2.137 . S
O978 C969 1.247 . S
O979 Co966 2.244 . S
O979 C969 1.272 . S
O979 Co971 2.135 . S
Co980 O981 2.216 . S
Co980 O982 2.091 . S
Co980 O984 2.004 . S
Co980 O990 2.021 . S
Co980 O992 2.137 . S
Co980 O993 2.244 . S
O981 Co980 2.216 . S
O981 C988 1.247 . S
O982 Co980 2.091 . S
O982 C988 1.261 . S
C983 O992 1.247 . S
C983 O993 1.272 . S
O984 Co980 2.004 . S
O984 C989 1.259 . S
Co985 O986 2.061 . S
Co985 O991 2.052 . S
Co985 O993 2.135 . S
O986 Co985 2.061 . S
O986 C989 1.235 . S
C987 O990 1.238 . S
C987 O991 1.241 . S
C988 O981 1.247 . S
C988 O982 1.261 . S
C989 O984 1.259 . S
C989 O986 1.235 . S
O990 Co980 2.021 . S
O990 C987 1.238 . S
O991 Co985 2.052 . S
O991 C987 1.241 . S
O992 Co980 2.137 . S
O992 C983 1.247 . S
O993 Co980 2.244 . S
O993 C983 1.272 . S
O993 Co985 2.135 . S
Co994 O995 2.216 . S
Co994 O996 2.091 . S
Co994 O998 2.004 . S
Co994 O1004 2.021 . S
Co994 O1006 2.137 . S
Co994 O1007 2.244 . S
O995 Co994 2.216 . S
O995 C1002 1.247 . S
O996 Co994 2.091 . S
O996 C1002 1.261 . S
C997 O1006 1.247 . S
C997 O1007 1.272 . S
O998 Co994 2.004 . S
O998 C1003 1.259 . S
Co999 O1000 2.061 . S
Co999 O1005 2.052 . S
Co999 O1007 2.135 . S
O1000 Co999 2.061 . S
O1000 C1003 1.235 . S
C1001 O1004 1.238 . S
C1001 O1005 1.241 . S
C1002 O995 1.247 . S
C1002 O996 1.261 . S
C1003 O998 1.259 . S
C1003 O1000 1.235 . S
O1004 Co994 2.021 . S
O1004 C1001 1.238 . S
O1005 Co999 2.052 . S
O1005 C1001 1.241 . S
O1006 Co994 2.137 . S
O1006 C997 1.247 . S
O1007 Co994 2.244 . S
O1007 C997 1.272 . S
O1007 Co999 2.135 . S
Co1008 O1009 2.216 . S
Co1008 O1010 2.091 . S
Co1008 O1012 2.004 . S
Co1008 O1018 2.021 . S
Co1008 O1020 2.137 . S
Co1008 O1021 2.244 . S
O1009 Co1008 2.216 . S
O1009 C1016 1.247 . S
O1010 Co1008 2.091 . S
O1010 C1016 1.261 . S
C1011 O1020 1.247 . S
C1011 O1021 1.272 . S
O1012 Co1008 2.004 . S
O1012 C1017 1.259 . S
Co1013 O1014 2.061 . S
Co1013 O1019 2.052 . S
Co1013 O1021 2.135 . S
O1014 Co1013 2.061 . S
O1014 C1017 1.235 . S
C1015 O1018 1.238 . S
C1015 O1019 1.241 . S
C1016 O1009 1.247 . S
C1016 O1010 1.261 . S
C1017 O1012 1.259 . S
C1017 O1014 1.235 . S
O1018 Co1008 2.021 . S
O1018 C1015 1.238 . S
O1019 Co1013 2.052 . S
O1019 C1015 1.241 . S
O1020 Co1008 2.137 . S
O1020 C1011 1.247 . S
O1021 Co1008 2.244 . S
O1021 C1011 1.272 . S
O1021 Co1013 2.135 . S
Co1022 O1023 2.216 . S
Co1022 O1024 2.091 . S
Co1022 O1026 2.004 . S
Co1022 O1032 2.021 . S
Co1022 O1034 2.137 . S
Co1022 O1035 2.244 . S
O1023 Co1022 2.216 . S
O1023 C1030 1.247 . S
O1024 Co1022 2.091 . S
O1024 C1030 1.261 . S
C1025 O1034 1.247 . S
C1025 O1035 1.272 . S
O1026 Co1022 2.004 . S
O1026 C1031 1.259 . S
Co1027 O1028 2.061 . S
Co1027 O1033 2.052 . S
Co1027 O1035 2.135 . S
O1028 Co1027 2.061 . S
O1028 C1031 1.235 . S
C1029 O1032 1.238 . S
C1029 O1033 1.241 . S
C1030 O1023 1.247 . S
C1030 O1024 1.261 . S
C1031 O1026 1.259 . S
C1031 O1028 1.235 . S
O1032 Co1022 2.021 . S
O1032 C1029 1.238 . S
O1033 Co1027 2.052 . S
O1033 C1029 1.241 . S
O1034 Co1022 2.137 . S
O1034 C1025 1.247 . S
O1035 Co1022 2.244 . S
O1035 C1025 1.272 . S
O1035 Co1027 2.135 . S
Co1036 O1037 2.216 . S
Co1036 O1038 2.091 . S
Co1036 O1040 2.004 . S
Co1036 O1046 2.021 . S
Co1036 O1048 2.137 . S
Co1036 O1049 2.244 . S
O1037 Co1036 2.216 . S
O1037 C1044 1.247 . S
O1038 Co1036 2.091 . S
O1038 C1044 1.261 . S
C1039 O1048 1.247 . S
C1039 O1049 1.272 . S
O1040 Co1036 2.004 . S
O1040 C1045 1.259 . S
Co1041 O1042 2.061 . S
Co1041 O1047 2.052 . S
Co1041 O1049 2.135 . S
O1042 Co1041 2.061 . S
O1042 C1045 1.235 . S
C1043 O1046 1.238 . S
C1043 O1047 1.241 . S
C1044 O1037 1.247 . S
C1044 O1038 1.261 . S
C1045 O1040 1.259 . S
C1045 O1042 1.235 . S
O1046 Co1036 2.021 . S
O1046 C1043 1.238 . S
O1047 Co1041 2.052 . S
O1047 C1043 1.241 . S
O1048 Co1036 2.137 . S
O1048 C1039 1.247 . S
O1049 Co1036 2.244 . S
O1049 C1039 1.272 . S
O1049 Co1041 2.135 . S
Co1050 O1051 2.216 . S
Co1050 O1052 2.091 . S
Co1050 O1054 2.004 . S
Co1050 O1060 2.021 . S
Co1050 O1062 2.137 . S
Co1050 O1063 2.244 . S
O1051 Co1050 2.216 . S
O1051 C1058 1.247 . S
O1052 Co1050 2.091 . S
O1052 C1058 1.261 . S
C1053 O1062 1.247 . S
C1053 O1063 1.272 . S
O1054 Co1050 2.004 . S
O1054 C1059 1.259 . S
Co1055 O1056 2.061 . S
Co1055 O1061 2.052 . S
Co1055 O1063 2.135 . S
O1056 Co1055 2.061 . S
O1056 C1059 1.235 . S
C1057 O1060 1.238 . S
C1057 O1061 1.241 . S
C1058 O1051 1.247 . S
C1058 O1052 1.261 . S
C1059 O1054 1.259 . S
C1059 O1056 1.235 . S
O1060 Co1050 2.021 . S
O1060 C1057 1.238 . S
O1061 Co1055 2.052 . S
O1061 C1057 1.241 . S
O1062 Co1050 2.137 . S
O1062 C1053 1.247 . S
O1063 Co1050 2.244 . S
O1063 C1053 1.272 . S
O1063 Co1055 2.135 . S
Co1064 O1065 2.216 . S
Co1064 O1066 2.091 . S
Co1064 O1068 2.004 . S
Co1064 O1074 2.021 . S
Co1064 O1076 2.137 . S
Co1064 O1077 2.244 . S
O1065 Co1064 2.216 . S
O1065 C1072 1.247 . S
O1066 Co1064 2.091 . S
O1066 C1072 1.261 . S
C1067 O1076 1.247 . S
C1067 O1077 1.272 . S
O1068 Co1064 2.004 . S
O1068 C1073 1.259 . S
Co1069 O1070 2.061 . S
Co1069 O1075 2.052 . S
Co1069 O1077 2.135 . S
O1070 Co1069 2.061 . S
O1070 C1073 1.235 . S
C1071 O1074 1.238 . S
C1071 O1075 1.241 . S
C1072 O1065 1.247 . S
C1072 O1066 1.261 . S
C1073 O1068 1.259 . S
C1073 O1070 1.235 . S
O1074 Co1064 2.021 . S
O1074 C1071 1.238 . S
O1075 Co1069 2.052 . S
O1075 C1071 1.241 . S
O1076 Co1064 2.137 . S
O1076 C1067 1.247 . S
O1077 Co1064 2.244 . S
O1077 C1067 1.272 . S
O1077 Co1069 2.135 . S
Co1078 O1079 2.216 . S
Co1078 O1080 2.091 . S
Co1078 O1082 2.004 . S
Co1078 O1088 2.021 . S
Co1078 O1090 2.137 . S
Co1078 O1091 2.244 . S
O1079 Co1078 2.216 . S
O1079 C1086 1.247 . S
O1080 Co1078 2.091 . S
O1080 C1086 1.261 . S
C1081 O1090 1.247 . S
C1081 O1091 1.272 . S
O1082 Co1078 2.004 . S
O1082 C1087 1.259 . S
Co1083 O1084 2.061 . S
Co1083 O1089 2.052 . S
Co1083 O1091 2.135 . S
O1084 Co1083 2.061 . S
O1084 C1087 1.235 . S
C1085 O1088 1.238 . S
C1085 O1089 1.241 . S
C1086 O1079 1.247 . S
C1086 O1080 1.261 . S
C1087 O1082 1.259 . S
C1087 O1084 1.235 . S
O1088 Co1078 2.021 . S
O1088 C1085 1.238 . S
O1089 Co1083 2.052 . S
O1089 C1085 1.241 . S
O1090 Co1078 2.137 . S
O1090 C1081 1.247 . S
O1091 Co1078 2.244 . S
O1091 C1081 1.272 . S
O1091 Co1083 2.135 . S
Co1092 O1093 2.216 . S
Co1092 O1094 2.091 . S
Co1092 O1096 2.004 . S
Co1092 O1102 2.021 . S
Co1092 O1104 2.137 . S
Co1092 O1105 2.244 . S
O1093 Co1092 2.216 . S
O1093 C1100 1.247 . S
O1094 Co1092 2.091 . S
O1094 C1100 1.261 . S
C1095 O1104 1.247 . S
C1095 O1105 1.272 . S
O1096 Co1092 2.004 . S
O1096 C1101 1.259 . S
Co1097 O1098 2.061 . S
Co1097 O1103 2.052 . S
Co1097 O1105 2.135 . S
O1098 Co1097 2.061 . S
O1098 C1101 1.235 . S
C1099 O1102 1.238 . S
C1099 O1103 1.241 . S
C1100 O1093 1.247 . S
C1100 O1094 1.261 . S
C1101 O1096 1.259 . S
C1101 O1098 1.235 . S
O1102 Co1092 2.021 . S
O1102 C1099 1.238 . S
O1103 Co1097 2.052 . S
O1103 C1099 1.241 . S
O1104 Co1092 2.137 . S
O1104 C1095 1.247 . S
O1105 Co1092 2.244 . S
O1105 C1095 1.272 . S
O1105 Co1097 2.135 . S
Co1106 O1107 2.216 . S
Co1106 O1108 2.091 . S
Co1106 O1110 2.004 . S
Co1106 O1116 2.021 . S
Co1106 O1118 2.137 . S
Co1106 O1119 2.244 . S
O1107 Co1106 2.216 . S
O1107 C1114 1.247 . S
O1108 Co1106 2.091 . S
O1108 C1114 1.261 . S
C1109 O1118 1.247 . S
C1109 O1119 1.272 . S
O1110 Co1106 2.004 . S
O1110 C1115 1.259 . S
Co1111 O1112 2.061 . S
Co1111 O1117 2.052 . S
Co1111 O1119 2.135 . S
O1112 Co1111 2.061 . S
O1112 C1115 1.235 . S
C1113 O1116 1.238 . S
C1113 O1117 1.241 . S
C1114 O1107 1.247 . S
C1114 O1108 1.261 . S
C1115 O1110 1.259 . S
C1115 O1112 1.235 . S
O1116 Co1106 2.021 . S
O1116 C1113 1.238 . S
O1117 Co1111 2.052 . S
O1117 C1113 1.241 . S
O1118 Co1106 2.137 . S
O1118 C1109 1.247 . S
O1119 Co1106 2.244 . S
O1119 C1109 1.272 . S
O1119 Co1111 2.135 . S
Co1120 O1121 2.216 . S
Co1120 O1122 2.091 . S
Co1120 O1124 2.004 . S
Co1120 O1130 2.021 . S
Co1120 O1132 2.137 . S
Co1120 O1133 2.244 . S
O1121 Co1120 2.216 . S
O1121 C1128 1.247 . S
O1122 Co1120 2.091 . S
O1122 C1128 1.261 . S
C1123 O1132 1.247 . S
C1123 O1133 1.272 . S
O1124 Co1120 2.004 . S
O1124 C1129 1.259 . S
Co1125 O1126 2.061 . S
Co1125 O1131 2.052 . S
Co1125 O1133 2.135 . S
O1126 Co1125 2.061 . S
O1126 C1129 1.235 . S
C1127 O1130 1.238 . S
C1127 O1131 1.241 . S
C1128 O1121 1.247 . S
C1128 O1122 1.261 . S
C1129 O1124 1.259 . S
C1129 O1126 1.235 . S
O1130 Co1120 2.021 . S
O1130 C1127 1.238 . S
O1131 Co1125 2.052 . S
O1131 C1127 1.241 . S
O1132 Co1120 2.137 . S
O1132 C1123 1.247 . S
O1133 Co1120 2.244 . S
O1133 C1123 1.272 . S
O1133 Co1125 2.135 . S
Co1134 O1135 2.216 . S
Co1134 O1136 2.091 . S
Co1134 O1138 2.004 . S
Co1134 O1144 2.021 . S
Co1134 O1146 2.137 . S
Co1134 O1147 2.244 . S
O1135 Co1134 2.216 . S
O1135 C1142 1.247 . S
O1136 Co1134 2.091 . S
O1136 C1142 1.261 . S
C1137 O1146 1.247 . S
C1137 O1147 1.272 . S
O1138 Co1134 2.004 . S
O1138 C1143 1.259 . S
Co1139 O1140 2.061 . S
Co1139 O1145 2.052 . S
Co1139 O1147 2.135 . S
O1140 Co1139 2.061 . S
O1140 C1143 1.235 . S
C1141 O1144 1.238 . S
C1141 O1145 1.241 . S
C1142 O1135 1.247 . S
C1142 O1136 1.261 . S
C1143 O1138 1.259 . S
C1143 O1140 1.235 . S
O1144 Co1134 2.021 . S
O1144 C1141 1.238 . S
O1145 Co1139 2.052 . S
O1145 C1141 1.241 . S
O1146 Co1134 2.137 . S
O1146 C1137 1.247 . S
O1147 Co1134 2.244 . S
O1147 C1137 1.272 . S
O1147 Co1139 2.135 . S
Co1148 O1149 2.216 . S
Co1148 O1150 2.091 . S
Co1148 O1152 2.004 . S
Co1148 O1158 2.021 . S
Co1148 O1160 2.137 . S
Co1148 O1161 2.244 . S
O1149 Co1148 2.216 . S
O1149 C1156 1.247 . S
O1150 Co1148 2.091 . S
O1150 C1156 1.261 . S
C1151 O1160 1.247 . S
C1151 O1161 1.272 . S
O1152 Co1148 2.004 . S
O1152 C1157 1.259 . S
Co1153 O1154 2.061 . S
Co1153 O1159 2.052 . S
Co1153 O1161 2.135 . S
O1154 Co1153 2.061 . S
O1154 C1157 1.235 . S
C1155 O1158 1.238 . S
C1155 O1159 1.241 . S
C1156 O1149 1.247 . S
C1156 O1150 1.261 . S
C1157 O1152 1.259 . S
C1157 O1154 1.235 . S
O1158 Co1148 2.021 . S
O1158 C1155 1.238 . S
O1159 Co1153 2.052 . S
O1159 C1155 1.241 . S
O1160 Co1148 2.137 . S
O1160 C1151 1.247 . S
O1161 Co1148 2.244 . S
O1161 C1151 1.272 . S
O1161 Co1153 2.135 . S
Co1162 O1163 2.216 . S
Co1162 O1164 2.091 . S
Co1162 O1166 2.004 . S
Co1162 O1172 2.021 . S
Co1162 O1174 2.137 . S
Co1162 O1175 2.244 . S
O1163 Co1162 2.216 . S
O1163 C1170 1.247 . S
O1164 Co1162 2.091 . S
O1164 C1170 1.261 . S
C1165 O1174 1.247 . S
C1165 O1175 1.272 . S
O1166 Co1162 2.004 . S
O1166 C1171 1.259 . S
Co1167 O1168 2.061 . S
Co1167 O1173 2.052 . S
Co1167 O1175 2.135 . S
O1168 Co1167 2.061 . S
O1168 C1171 1.235 . S
C1169 O1172 1.238 . S
C1169 O1173 1.241 . S
C1170 O1163 1.247 . S
C1170 O1164 1.261 . S
C1171 O1166 1.259 . S
C1171 O1168 1.235 . S
O1172 Co1162 2.021 . S
O1172 C1169 1.238 . S
O1173 Co1167 2.052 . S
O1173 C1169 1.241 . S
O1174 Co1162 2.137 . S
O1174 C1165 1.247 . S
O1175 Co1162 2.244 . S
O1175 C1165 1.272 . S
O1175 Co1167 2.135 . S
Co1176 O1177 2.216 . S
Co1176 O1178 2.091 . S
Co1176 O1180 2.004 . S
Co1176 O1186 2.021 . S
Co1176 O1188 2.137 . S
Co1176 O1189 2.244 . S
O1177 Co1176 2.216 . S
O1177 C1184 1.247 . S
O1178 Co1176 2.091 . S
O1178 C1184 1.261 . S
C1179 O1188 1.247 . S
C1179 O1189 1.272 . S
O1180 Co1176 2.004 . S
O1180 C1185 1.259 . S
Co1181 O1182 2.061 . S
Co1181 O1187 2.052 . S
Co1181 O1189 2.135 . S
O1182 Co1181 2.061 . S
O1182 C1185 1.235 . S
C1183 O1186 1.238 . S
C1183 O1187 1.241 . S
C1184 O1177 1.247 . S
C1184 O1178 1.261 . S
C1185 O1180 1.259 . S
C1185 O1182 1.235 . S
O1186 Co1176 2.021 . S
O1186 C1183 1.238 . S
O1187 Co1181 2.052 . S
O1187 C1183 1.241 . S
O1188 Co1176 2.137 . S
O1188 C1179 1.247 . S
O1189 Co1176 2.244 . S
O1189 C1179 1.272 . S
O1189 Co1181 2.135 . S
Co1190 O1191 2.216 . S
Co1190 O1192 2.091 . S
Co1190 O1194 2.004 . S
Co1190 O1200 2.021 . S
Co1190 O1202 2.137 . S
Co1190 O1203 2.244 . S
O1191 Co1190 2.216 . S
O1191 C1198 1.247 . S
O1192 Co1190 2.091 . S
O1192 C1198 1.261 . S
C1193 O1202 1.247 . S
C1193 O1203 1.272 . S
O1194 Co1190 2.004 . S
O1194 C1199 1.259 . S
Co1195 O1196 2.061 . S
Co1195 O1201 2.052 . S
Co1195 O1203 2.135 . S
O1196 Co1195 2.061 . S
O1196 C1199 1.235 . S
C1197 O1200 1.238 . S
C1197 O1201 1.241 . S
C1198 O1191 1.247 . S
C1198 O1192 1.261 . S
C1199 O1194 1.259 . S
C1199 O1196 1.235 . S
O1200 Co1190 2.021 . S
O1200 C1197 1.238 . S
O1201 Co1195 2.052 . S
O1201 C1197 1.241 . S
O1202 Co1190 2.137 . S
O1202 C1193 1.247 . S
O1203 Co1190 2.244 . S
O1203 C1193 1.272 . S
O1203 Co1195 2.135 . S
Co1204 O1205 2.216 . S
Co1204 O1206 2.091 . S
Co1204 O1208 2.004 . S
Co1204 O1214 2.021 . S
Co1204 O1216 2.137 . S
Co1204 O1217 2.244 . S
O1205 Co1204 2.216 . S
O1205 C1212 1.247 . S
O1206 Co1204 2.091 . S
O1206 C1212 1.261 . S
C1207 O1216 1.247 . S
C1207 O1217 1.272 . S
O1208 Co1204 2.004 . S
O1208 C1213 1.259 . S
Co1209 O1210 2.061 . S
Co1209 O1215 2.052 . S
Co1209 O1217 2.135 . S
O1210 Co1209 2.061 . S
O1210 C1213 1.235 . S
C1211 O1214 1.238 . S
C1211 O1215 1.241 . S
C1212 O1205 1.247 . S
C1212 O1206 1.261 . S
C1213 O1208 1.259 . S
C1213 O1210 1.235 . S
O1214 Co1204 2.021 . S
O1214 C1211 1.238 . S
O1215 Co1209 2.052 . S
O1215 C1211 1.241 . S
O1216 Co1204 2.137 . S
O1216 C1207 1.247 . S
O1217 Co1204 2.244 . S
O1217 C1207 1.272 . S
O1217 Co1209 2.135 . S
Co1218 O1219 2.216 . S
Co1218 O1220 2.091 . S
Co1218 O1222 2.004 . S
Co1218 O1228 2.021 . S
Co1218 O1230 2.137 . S
Co1218 O1231 2.244 . S
O1219 Co1218 2.216 . S
O1219 C1226 1.247 . S
O1220 Co1218 2.091 . S
O1220 C1226 1.261 . S
C1221 O1230 1.247 . S
C1221 O1231 1.272 . S
O1222 Co1218 2.004 . S
O1222 C1227 1.259 . S
Co1223 O1224 2.061 . S
Co1223 O1229 2.052 . S
Co1223 O1231 2.135 . S
O1224 Co1223 2.061 . S
O1224 C1227 1.235 . S
C1225 O1228 1.238 . S
C1225 O1229 1.241 . S
C1226 O1219 1.247 . S
C1226 O1220 1.261 . S
C1227 O1222 1.259 . S
C1227 O1224 1.235 . S
O1228 Co1218 2.021 . S
O1228 C1225 1.238 . S
O1229 Co1223 2.052 . S
O1229 C1225 1.241 . S
O1230 Co1218 2.137 . S
O1230 C1221 1.247 . S
O1231 Co1218 2.244 . S
O1231 C1221 1.272 . S
O1231 Co1223 2.135 . S
Co1232 O1233 2.216 . S
Co1232 O1234 2.091 . S
Co1232 O1236 2.004 . S
Co1232 O1242 2.021 . S
Co1232 O1244 2.137 . S
Co1232 O1245 2.244 . S
O1233 Co1232 2.216 . S
O1233 C1240 1.247 . S
O1234 Co1232 2.091 . S
O1234 C1240 1.261 . S
C1235 O1244 1.247 . S
C1235 O1245 1.272 . S
O1236 Co1232 2.004 . S
O1236 C1241 1.259 . S
Co1237 O1238 2.061 . S
Co1237 O1243 2.052 . S
Co1237 O1245 2.135 . S
O1238 Co1237 2.061 . S
O1238 C1241 1.235 . S
C1239 O1242 1.238 . S
C1239 O1243 1.241 . S
C1240 O1233 1.247 . S
C1240 O1234 1.261 . S
C1241 O1236 1.259 . S
C1241 O1238 1.235 . S
O1242 Co1232 2.021 . S
O1242 C1239 1.238 . S
O1243 Co1237 2.052 . S
O1243 C1239 1.241 . S
O1244 Co1232 2.137 . S
O1244 C1235 1.247 . S
O1245 Co1232 2.244 . S
O1245 C1235 1.272 . S
O1245 Co1237 2.135 . S
Co1246 O1247 2.216 . S
Co1246 O1248 2.091 . S
Co1246 O1250 2.004 . S
Co1246 O1256 2.021 . S
Co1246 O1258 2.137 . S
Co1246 O1259 2.244 . S
O1247 Co1246 2.216 . S
O1247 C1254 1.247 . S
O1248 Co1246 2.091 . S
O1248 C1254 1.261 . S
C1249 O1258 1.247 . S
C1249 O1259 1.272 . S
O1250 Co1246 2.004 . S
O1250 C1255 1.259 . S
Co1251 O1252 2.061 . S
Co1251 O1257 2.052 . S
Co1251 O1259 2.135 . S
O1252 Co1251 2.061 . S
O1252 C1255 1.235 . S
C1253 O1256 1.238 . S
C1253 O1257 1.241 . S
C1254 O1247 1.247 . S
C1254 O1248 1.261 . S
C1255 O1250 1.259 . S
C1255 O1252 1.235 . S
O1256 Co1246 2.021 . S
O1256 C1253 1.238 . S
O1257 Co1251 2.052 . S
O1257 C1253 1.241 . S
O1258 Co1246 2.137 . S
O1258 C1249 1.247 . S
O1259 Co1246 2.244 . S
O1259 C1249 1.272 . S
O1259 Co1251 2.135 . S
Co1260 O1261 2.216 . S
Co1260 O1262 2.091 . S
Co1260 O1264 2.004 . S
Co1260 O1270 2.021 . S
Co1260 O1272 2.137 . S
Co1260 O1273 2.244 . S
O1261 Co1260 2.216 . S
O1261 C1268 1.247 . S
O1262 Co1260 2.091 . S
O1262 C1268 1.261 . S
C1263 O1272 1.247 . S
C1263 O1273 1.272 . S
O1264 Co1260 2.004 . S
O1264 C1269 1.259 . S
Co1265 O1266 2.061 . S
Co1265 O1271 2.052 . S
Co1265 O1273 2.135 . S
O1266 Co1265 2.061 . S
O1266 C1269 1.235 . S
C1267 O1270 1.238 . S
C1267 O1271 1.241 . S
C1268 O1261 1.247 . S
C1268 O1262 1.261 . S
C1269 O1264 1.259 . S
C1269 O1266 1.235 . S
O1270 Co1260 2.021 . S
O1270 C1267 1.238 . S
O1271 Co1265 2.052 . S
O1271 C1267 1.241 . S
O1272 Co1260 2.137 . S
O1272 C1263 1.247 . S
O1273 Co1260 2.244 . S
O1273 C1263 1.272 . S
O1273 Co1265 2.135 . S
Co1274 O1275 2.216 . S
Co1274 O1276 2.091 . S
Co1274 O1278 2.004 . S
Co1274 O1284 2.021 . S
Co1274 O1286 2.137 . S
Co1274 O1287 2.244 . S
O1275 Co1274 2.216 . S
O1275 C1282 1.247 . S
O1276 Co1274 2.091 . S
O1276 C1282 1.261 . S
C1277 O1286 1.247 . S
C1277 O1287 1.272 . S
O1278 Co1274 2.004 . S
O1278 C1283 1.259 . S
Co1279 O1280 2.061 . S
Co1279 O1285 2.052 . S
Co1279 O1287 2.135 . S
O1280 Co1279 2.061 . S
O1280 C1283 1.235 . S
C1281 O1284 1.238 . S
C1281 O1285 1.241 . S
C1282 O1275 1.247 . S
C1282 O1276 1.261 . S
C1283 O1278 1.259 . S
C1283 O1280 1.235 . S
O1284 Co1274 2.021 . S
O1284 C1281 1.238 . S
O1285 Co1279 2.052 . S
O1285 C1281 1.241 . S
O1286 Co1274 2.137 . S
O1286 C1277 1.247 . S
O1287 Co1274 2.244 . S
O1287 C1277 1.272 . S
O1287 Co1279 2.135 . S
Co1288 O1289 2.216 . S
Co1288 O1290 2.091 . S
Co1288 O1292 2.004 . S
Co1288 O1298 2.021 . S
Co1288 O1300 2.137 . S
Co1288 O1301 2.244 . S
O1289 Co1288 2.216 . S
O1289 C1296 1.247 . S
O1290 Co1288 2.091 . S
O1290 C1296 1.261 . S
C1291 O1300 1.247 . S
C1291 O1301 1.272 . S
O1292 Co1288 2.004 . S
O1292 C1297 1.259 . S
Co1293 O1294 2.061 . S
Co1293 O1299 2.052 . S
Co1293 O1301 2.135 . S
O1294 Co1293 2.061 . S
O1294 C1297 1.235 . S
C1295 O1298 1.238 . S
C1295 O1299 1.241 . S
C1296 O1289 1.247 . S
C1296 O1290 1.261 . S
C1297 O1292 1.259 . S
C1297 O1294 1.235 . S
O1298 Co1288 2.021 . S
O1298 C1295 1.238 . S
O1299 Co1293 2.052 . S
O1299 C1295 1.241 . S
O1300 Co1288 2.137 . S
O1300 C1291 1.247 . S
O1301 Co1288 2.244 . S
O1301 C1291 1.272 . S
O1301 Co1293 2.135 . S
Co1302 O1303 2.216 . S
Co1302 O1304 2.091 . S
Co1302 O1306 2.004 . S
Co1302 O1312 2.021 . S
Co1302 O1314 2.137 . S
Co1302 O1315 2.244 . S
O1303 Co1302 2.216 . S
O1303 C1310 1.247 . S
O1304 Co1302 2.091 . S
O1304 C1310 1.261 . S
C1305 O1314 1.247 . S
C1305 O1315 1.272 . S
O1306 Co1302 2.004 . S
O1306 C1311 1.259 . S
Co1307 O1308 2.061 . S
Co1307 O1313 2.052 . S
Co1307 O1315 2.135 . S
O1308 Co1307 2.061 . S
O1308 C1311 1.235 . S
C1309 O1312 1.238 . S
C1309 O1313 1.241 . S
C1310 O1303 1.247 . S
C1310 O1304 1.261 . S
C1311 O1306 1.259 . S
C1311 O1308 1.235 . S
O1312 Co1302 2.021 . S
O1312 C1309 1.238 . S
O1313 Co1307 2.052 . S
O1313 C1309 1.241 . S
O1314 Co1302 2.137 . S
O1314 C1305 1.247 . S
O1315 Co1302 2.244 . S
O1315 C1305 1.272 . S
O1315 Co1307 2.135 . S
Co1316 O1317 2.216 . S
Co1316 O1318 2.091 . S
Co1316 O1320 2.004 . S
Co1316 O1326 2.021 . S
Co1316 O1328 2.137 . S
Co1316 O1329 2.244 . S
O1317 Co1316 2.216 . S
O1317 C1324 1.247 . S
O1318 Co1316 2.091 . S
O1318 C1324 1.261 . S
C1319 O1328 1.247 . S
C1319 O1329 1.272 . S
O1320 Co1316 2.004 . S
O1320 C1325 1.259 . S
Co1321 O1322 2.061 . S
Co1321 O1327 2.052 . S
Co1321 O1329 2.135 . S
O1322 Co1321 2.061 . S
O1322 C1325 1.235 . S
C1323 O1326 1.238 . S
C1323 O1327 1.241 . S
C1324 O1317 1.247 . S
C1324 O1318 1.261 . S
C1325 O1320 1.259 . S
C1325 O1322 1.235 . S
O1326 Co1316 2.021 . S
O1326 C1323 1.238 . S
O1327 Co1321 2.052 . S
O1327 C1323 1.241 . S
O1328 Co1316 2.137 . S
O1328 C1319 1.247 . S
O1329 Co1316 2.244 . S
O1329 C1319 1.272 . S
O1329 Co1321 2.135 . S
Co1330 O1331 2.216 . S
Co1330 O1332 2.091 . S
Co1330 O1334 2.004 . S
Co1330 O1340 2.021 . S
Co1330 O1342 2.137 . S
Co1330 O1343 2.244 . S
O1331 Co1330 2.216 . S
O1331 C1338 1.247 . S
O1332 Co1330 2.091 . S
O1332 C1338 1.261 . S
C1333 O1342 1.247 . S
C1333 O1343 1.272 . S
O1334 Co1330 2.004 . S
O1334 C1339 1.259 . S
Co1335 O1336 2.061 . S
Co1335 O1341 2.052 . S
Co1335 O1343 2.135 . S
O1336 Co1335 2.061 . S
O1336 C1339 1.235 . S
C1337 O1340 1.238 . S
C1337 O1341 1.241 . S
C1338 O1331 1.247 . S
C1338 O1332 1.261 . S
C1339 O1334 1.259 . S
C1339 O1336 1.235 . S
O1340 Co1330 2.021 . S
O1340 C1337 1.238 . S
O1341 Co1335 2.052 . S
O1341 C1337 1.241 . S
O1342 Co1330 2.137 . S
O1342 C1333 1.247 . S
O1343 Co1330 2.244 . S
O1343 C1333 1.272 . S
O1343 Co1335 2.135 . S
H1344 C1350 0.930 . S
H1345 C1353 0.930 . S
H1346 C1354 0.930 . S
H1347 C1355 0.930 . S
H1348 C1358 0.930 . S
H1349 C1359 0.930 . S
C1350 H1344 0.930 . S
C1350 C1351 1.355 . S
C1350 C1352 1.415 . S
C1351 C1350 1.355 . S
C1351 C1353 1.419 . S
C1352 C1350 1.415 . S
C1352 C1357 1.425 . S
C1352 C1359 1.409 . S
C1353 H1345 0.930 . S
C1353 C1351 1.419 . S
C1353 C1354 1.362 . S
C1354 H1346 0.930 . S
C1354 C1353 1.362 . S
C1354 C1357 1.409 . S
C1355 H1347 0.930 . S
C1355 C1356 1.355 . S
C1355 C1357 1.415 . S
C1356 C1355 1.355 . S
C1356 C1358 1.419 . S
C1357 C1352 1.425 . S
C1357 C1354 1.409 . S
C1357 C1355 1.415 . S
C1358 H1348 0.930 . S
C1358 C1356 1.419 . S
C1358 C1359 1.362 . S
C1359 H1349 0.930 . S
C1359 C1352 1.409 . S
C1359 C1358 1.362 . S
H1360 C1366 0.930 . S
H1361 C1369 0.930 . S
H1362 C1370 0.930 . S
H1363 C1371 0.930 . S
H1364 C1374 0.930 . S
H1365 C1375 0.930 . S
C1366 H1360 0.930 . S
C1366 C1367 1.355 . S
C1366 C1368 1.415 . S
C1367 C1366 1.355 . S
C1367 C1369 1.419 . S
C1368 C1366 1.415 . S
C1368 C1373 1.425 . S
C1368 C1375 1.409 . S
C1369 H1361 0.930 . S
C1369 C1367 1.419 . S
C1369 C1370 1.362 . S
C1370 H1362 0.930 . S
C1370 C1369 1.362 . S
C1370 C1373 1.409 . S
C1371 H1363 0.930 . S
C1371 C1372 1.355 . S
C1371 C1373 1.415 . S
C1372 C1371 1.355 . S
C1372 C1374 1.419 . S
C1373 C1368 1.425 . S
C1373 C1370 1.409 . S
C1373 C1371 1.415 . S
C1374 H1364 0.930 . S
C1374 C1372 1.419 . S
C1374 C1375 1.362 . S
C1375 H1365 0.930 . S
C1375 C1368 1.409 . S
C1375 C1374 1.362 . S
H1376 C1382 0.930 . S
H1377 C1385 0.930 . S
H1378 C1386 0.930 . S
H1379 C1387 0.930 . S
H1380 C1390 0.930 . S
H1381 C1391 0.930 . S
C1382 H1376 0.930 . S
C1382 C1383 1.355 . S
C1382 C1384 1.415 . S
C1383 C1382 1.355 . S
C1383 C1385 1.419 . S
C1384 C1382 1.415 . S
C1384 C1389 1.425 . S
C1384 C1391 1.409 . S
C1385 H1377 0.930 . S
C1385 C1383 1.419 . S
C1385 C1386 1.362 . S
C1386 H1378 0.930 . S
C1386 C1385 1.362 . S
C1386 C1389 1.409 . S
C1387 H1379 0.930 . S
C1387 C1388 1.355 . S
C1387 C1389 1.415 . S
C1388 C1387 1.355 . S
C1388 C1390 1.419 . S
C1389 C1384 1.425 . S
C1389 C1386 1.409 . S
C1389 C1387 1.415 . S
C1390 H1380 0.930 . S
C1390 C1388 1.419 . S
C1390 C1391 1.362 . S
C1391 H1381 0.930 . S
C1391 C1384 1.409 . S
C1391 C1390 1.362 . S
H1392 C1398 0.930 . S
H1393 C1401 0.930 . S
H1394 C1402 0.930 . S
H1395 C1403 0.930 . S
H1396 C1406 0.930 . S
H1397 C1407 0.930 . S
C1398 H1392 0.930 . S
C1398 C1399 1.355 . S
C1398 C1400 1.415 . S
C1399 C1398 1.355 . S
C1399 C1401 1.419 . S
C1400 C1398 1.415 . S
C1400 C1405 1.425 . S
C1400 C1407 1.409 . S
C1401 H1393 0.930 . S
C1401 C1399 1.419 . S
C1401 C1402 1.362 . S
C1402 H1394 0.930 . S
C1402 C1401 1.362 . S
C1402 C1405 1.409 . S
C1403 H1395 0.930 . S
C1403 C1404 1.355 . S
C1403 C1405 1.415 . S
C1404 C1403 1.355 . S
C1404 C1406 1.419 . S
C1405 C1400 1.425 . S
C1405 C1402 1.409 . S
C1405 C1403 1.415 . S
C1406 H1396 0.930 . S
C1406 C1404 1.419 . S
C1406 C1407 1.362 . S
C1407 H1397 0.930 . S
C1407 C1400 1.409 . S
C1407 C1406 1.362 . S
H1408 C1414 0.930 . S
H1409 C1417 0.930 . S
H1410 C1418 0.930 . S
H1411 C1419 0.930 . S
H1412 C1422 0.930 . S
H1413 C1423 0.930 . S
C1414 H1408 0.930 . S
C1414 C1415 1.355 . S
C1414 C1416 1.415 . S
C1415 C1414 1.355 . S
C1415 C1417 1.419 . S
C1416 C1414 1.415 . S
C1416 C1421 1.425 . S
C1416 C1423 1.409 . S
C1417 H1409 0.930 . S
C1417 C1415 1.419 . S
C1417 C1418 1.362 . S
C1418 H1410 0.930 . S
C1418 C1417 1.362 . S
C1418 C1421 1.409 . S
C1419 H1411 0.930 . S
C1419 C1420 1.355 . S
C1419 C1421 1.415 . S
C1420 C1419 1.355 . S
C1420 C1422 1.419 . S
C1421 C1416 1.425 . S
C1421 C1418 1.409 . S
C1421 C1419 1.415 . S
C1422 H1412 0.930 . S
C1422 C1420 1.419 . S
C1422 C1423 1.362 . S
C1423 H1413 0.930 . S
C1423 C1416 1.409 . S
C1423 C1422 1.362 . S
H1424 C1430 0.930 . S
H1425 C1433 0.930 . S
H1426 C1434 0.930 . S
H1427 C1435 0.930 . S
H1428 C1438 0.930 . S
H1429 C1439 0.930 . S
C1430 H1424 0.930 . S
C1430 C1431 1.355 . S
C1430 C1432 1.415 . S
C1431 C1430 1.355 . S
C1431 C1433 1.419 . S
C1432 C1430 1.415 . S
C1432 C1437 1.425 . S
C1432 C1439 1.409 . S
C1433 H1425 0.930 . S
C1433 C1431 1.419 . S
C1433 C1434 1.362 . S
C1434 H1426 0.930 . S
C1434 C1433 1.362 . S
C1434 C1437 1.409 . S
C1435 H1427 0.930 . S
C1435 C1436 1.355 . S
C1435 C1437 1.415 . S
C1436 C1435 1.355 . S
C1436 C1438 1.419 . S
C1437 C1432 1.425 . S
C1437 C1434 1.409 . S
C1437 C1435 1.415 . S
C1438 H1428 0.930 . S
C1438 C1436 1.419 . S
C1438 C1439 1.362 . S
C1439 H1429 0.930 . S
C1439 C1432 1.409 . S
C1439 C1438 1.362 . S
H1440 C1446 0.930 . S
H1441 C1449 0.930 . S
H1442 C1450 0.930 . S
H1443 C1451 0.930 . S
H1444 C1454 0.930 . S
H1445 C1455 0.930 . S
C1446 H1440 0.930 . S
C1446 C1447 1.355 . S
C1446 C1448 1.415 . S
C1447 C1446 1.355 . S
C1447 C1449 1.419 . S
C1448 C1446 1.415 . S
C1448 C1453 1.425 . S
C1448 C1455 1.409 . S
C1449 H1441 0.930 . S
C1449 C1447 1.419 . S
C1449 C1450 1.362 . S
C1450 H1442 0.930 . S
C1450 C1449 1.362 . S
C1450 C1453 1.409 . S
C1451 H1443 0.930 . S
C1451 C1452 1.355 . S
C1451 C1453 1.415 . S
C1452 C1451 1.355 . S
C1452 C1454 1.419 . S
C1453 C1448 1.425 . S
C1453 C1450 1.409 . S
C1453 C1451 1.415 . S
C1454 H1444 0.930 . S
C1454 C1452 1.419 . S
C1454 C1455 1.362 . S
C1455 H1445 0.930 . S
C1455 C1448 1.409 . S
C1455 C1454 1.362 . S
H1456 C1462 0.930 . S
H1457 C1465 0.930 . S
H1458 C1466 0.930 . S
H1459 C1467 0.930 . S
H1460 C1470 0.930 . S
H1461 C1471 0.930 . S
C1462 H1456 0.930 . S
C1462 C1463 1.355 . S
C1462 C1464 1.415 . S
C1463 C1462 1.355 . S
C1463 C1465 1.419 . S
C1464 C1462 1.415 . S
C1464 C1469 1.425 . S
C1464 C1471 1.409 . S
C1465 H1457 0.930 . S
C1465 C1463 1.419 . S
C1465 C1466 1.362 . S
C1466 H1458 0.930 . S
C1466 C1465 1.362 . S
C1466 C1469 1.409 . S
C1467 H1459 0.930 . S
C1467 C1468 1.355 . S
C1467 C1469 1.415 . S
C1468 C1467 1.355 . S
C1468 C1470 1.419 . S
C1469 C1464 1.425 . S
C1469 C1466 1.409 . S
C1469 C1467 1.415 . S
C1470 H1460 0.930 . S
C1470 C1468 1.419 . S
C1470 C1471 1.362 . S
C1471 H1461 0.930 . S
C1471 C1464 1.409 . S
C1471 C1470 1.362 . S
H1472 C1478 0.930 . S
H1473 C1481 0.930 . S
H1474 C1482 0.930 . S
H1475 C1483 0.930 . S
H1476 C1486 0.930 . S
H1477 C1487 0.930 . S
C1478 H1472 0.930 . S
C1478 C1479 1.355 . S
C1478 C1480 1.415 . S
C1479 C1478 1.355 . S
C1479 C1481 1.419 . S
C1480 C1478 1.415 . S
C1480 C1485 1.425 . S
C1480 C1487 1.409 . S
C1481 H1473 0.930 . S
C1481 C1479 1.419 . S
C1481 C1482 1.362 . S
C1482 H1474 0.930 . S
C1482 C1481 1.362 . S
C1482 C1485 1.409 . S
C1483 H1475 0.930 . S
C1483 C1484 1.355 . S
C1483 C1485 1.415 . S
C1484 C1483 1.355 . S
C1484 C1486 1.419 . S
C1485 C1480 1.425 . S
C1485 C1482 1.409 . S
C1485 C1483 1.415 . S
C1486 H1476 0.930 . S
C1486 C1484 1.419 . S
C1486 C1487 1.362 . S
C1487 H1477 0.930 . S
C1487 C1480 1.409 . S
C1487 C1486 1.362 . S
H1488 C1494 0.930 . S
H1489 C1497 0.930 . S
H1490 C1498 0.930 . S
H1491 C1499 0.930 . S
H1492 C1502 0.930 . S
H1493 C1503 0.930 . S
C1494 H1488 0.930 . S
C1494 C1495 1.355 . S
C1494 C1496 1.415 . S
C1495 C1494 1.355 . S
C1495 C1497 1.419 . S
C1496 C1494 1.415 . S
C1496 C1501 1.425 . S
C1496 C1503 1.409 . S
C1497 H1489 0.930 . S
C1497 C1495 1.419 . S
C1497 C1498 1.362 . S
C1498 H1490 0.930 . S
C1498 C1497 1.362 . S
C1498 C1501 1.409 . S
C1499 H1491 0.930 . S
C1499 C1500 1.355 . S
C1499 C1501 1.415 . S
C1500 C1499 1.355 . S
C1500 C1502 1.419 . S
C1501 C1496 1.425 . S
C1501 C1498 1.409 . S
C1501 C1499 1.415 . S
C1502 H1492 0.930 . S
C1502 C1500 1.419 . S
C1502 C1503 1.362 . S
C1503 H1493 0.930 . S
C1503 C1496 1.409 . S
C1503 C1502 1.362 . S
H1504 C1510 0.930 . S
H1505 C1513 0.930 . S
H1506 C1514 0.930 . S
H1507 C1515 0.930 . S
H1508 C1518 0.930 . S
H1509 C1519 0.930 . S
C1510 H1504 0.930 . S
C1510 C1511 1.355 . S
C1510 C1512 1.415 . S
C1511 C1510 1.355 . S
C1511 C1513 1.419 . S
C1512 C1510 1.415 . S
C1512 C1517 1.425 . S
C1512 C1519 1.409 . S
C1513 H1505 0.930 . S
C1513 C1511 1.419 . S
C1513 C1514 1.362 . S
C1514 H1506 0.930 . S
C1514 C1513 1.362 . S
C1514 C1517 1.409 . S
C1515 H1507 0.930 . S
C1515 C1516 1.355 . S
C1515 C1517 1.415 . S
C1516 C1515 1.355 . S
C1516 C1518 1.419 . S
C1517 C1512 1.425 . S
C1517 C1514 1.409 . S
C1517 C1515 1.415 . S
C1518 H1508 0.930 . S
C1518 C1516 1.419 . S
C1518 C1519 1.362 . S
C1519 H1509 0.930 . S
C1519 C1512 1.409 . S
C1519 C1518 1.362 . S
H1520 C1526 0.930 . S
H1521 C1529 0.930 . S
H1522 C1530 0.930 . S
H1523 C1531 0.930 . S
H1524 C1534 0.930 . S
H1525 C1535 0.930 . S
C1526 H1520 0.930 . S
C1526 C1527 1.355 . S
C1526 C1528 1.415 . S
C1527 C1526 1.355 . S
C1527 C1529 1.419 . S
C1528 C1526 1.415 . S
C1528 C1533 1.425 . S
C1528 C1535 1.409 . S
C1529 H1521 0.930 . S
C1529 C1527 1.419 . S
C1529 C1530 1.362 . S
C1530 H1522 0.930 . S
C1530 C1529 1.362 . S
C1530 C1533 1.409 . S
C1531 H1523 0.930 . S
C1531 C1532 1.355 . S
C1531 C1533 1.415 . S
C1532 C1531 1.355 . S
C1532 C1534 1.419 . S
C1533 C1528 1.425 . S
C1533 C1530 1.409 . S
C1533 C1531 1.415 . S
C1534 H1524 0.930 . S
C1534 C1532 1.419 . S
C1534 C1535 1.362 . S
C1535 H1525 0.930 . S
C1535 C1528 1.409 . S
C1535 C1534 1.362 . S
H1536 C1542 0.930 . S
H1537 C1545 0.930 . S
H1538 C1546 0.930 . S
H1539 C1547 0.930 . S
H1540 C1550 0.930 . S
H1541 C1551 0.930 . S
C1542 H1536 0.930 . S
C1542 C1543 1.355 . S
C1542 C1544 1.415 . S
C1543 C1542 1.355 . S
C1543 C1545 1.419 . S
C1544 C1542 1.415 . S
C1544 C1549 1.425 . S
C1544 C1551 1.409 . S
C1545 H1537 0.930 . S
C1545 C1543 1.419 . S
C1545 C1546 1.362 . S
C1546 H1538 0.930 . S
C1546 C1545 1.362 . S
C1546 C1549 1.409 . S
C1547 H1539 0.930 . S
C1547 C1548 1.355 . S
C1547 C1549 1.415 . S
C1548 C1547 1.355 . S
C1548 C1550 1.419 . S
C1549 C1544 1.425 . S
C1549 C1546 1.409 . S
C1549 C1547 1.415 . S
C1550 H1540 0.930 . S
C1550 C1548 1.419 . S
C1550 C1551 1.362 . S
C1551 H1541 0.930 . S
C1551 C1544 1.409 . S
C1551 C1550 1.362 . S
H1552 C1558 0.930 . S
H1553 C1561 0.930 . S
H1554 C1562 0.930 . S
H1555 C1563 0.930 . S
H1556 C1566 0.930 . S
H1557 C1567 0.930 . S
C1558 H1552 0.930 . S
C1558 C1559 1.355 . S
C1558 C1560 1.415 . S
C1559 C1558 1.355 . S
C1559 C1561 1.419 . S
C1560 C1558 1.415 . S
C1560 C1565 1.425 . S
C1560 C1567 1.409 . S
C1561 H1553 0.930 . S
C1561 C1559 1.419 . S
C1561 C1562 1.362 . S
C1562 H1554 0.930 . S
C1562 C1561 1.362 . S
C1562 C1565 1.409 . S
C1563 H1555 0.930 . S
C1563 C1564 1.355 . S
C1563 C1565 1.415 . S
C1564 C1563 1.355 . S
C1564 C1566 1.419 . S
C1565 C1560 1.425 . S
C1565 C1562 1.409 . S
C1565 C1563 1.415 . S
C1566 H1556 0.930 . S
C1566 C1564 1.419 . S
C1566 C1567 1.362 . S
C1567 H1557 0.930 . S
C1567 C1560 1.409 . S
C1567 C1566 1.362 . S
H1568 C1574 0.930 . S
H1569 C1577 0.930 . S
H1570 C1578 0.930 . S
H1571 C1579 0.930 . S
H1572 C1582 0.930 . S
H1573 C1583 0.930 . S
C1574 H1568 0.930 . S
C1574 C1575 1.355 . S
C1574 C1576 1.415 . S
C1575 C1574 1.355 . S
C1575 C1577 1.419 . S
C1576 C1574 1.415 . S
C1576 C1581 1.425 . S
C1576 C1583 1.409 . S
C1577 H1569 0.930 . S
C1577 C1575 1.419 . S
C1577 C1578 1.362 . S
C1578 H1570 0.930 . S
C1578 C1577 1.362 . S
C1578 C1581 1.409 . S
C1579 H1571 0.930 . S
C1579 C1580 1.355 . S
C1579 C1581 1.415 . S
C1580 C1579 1.355 . S
C1580 C1582 1.419 . S
C1581 C1576 1.425 . S
C1581 C1578 1.409 . S
C1581 C1579 1.415 . S
C1582 H1572 0.930 . S
C1582 C1580 1.419 . S
C1582 C1583 1.362 . S
C1583 H1573 0.930 . S
C1583 C1576 1.409 . S
C1583 C1582 1.362 . S
H1584 C1590 0.930 . S
H1585 C1593 0.930 . S
H1586 C1594 0.930 . S
H1587 C1595 0.930 . S
H1588 C1598 0.930 . S
H1589 C1599 0.930 . S
C1590 H1584 0.930 . S
C1590 C1591 1.355 . S
C1590 C1592 1.415 . S
C1591 C1590 1.355 . S
C1591 C1593 1.419 . S
C1592 C1590 1.415 . S
C1592 C1597 1.425 . S
C1592 C1599 1.409 . S
C1593 H1585 0.930 . S
C1593 C1591 1.419 . S
C1593 C1594 1.362 . S
C1594 H1586 0.930 . S
C1594 C1593 1.362 . S
C1594 C1597 1.409 . S
C1595 H1587 0.930 . S
C1595 C1596 1.355 . S
C1595 C1597 1.415 . S
C1596 C1595 1.355 . S
C1596 C1598 1.419 . S
C1597 C1592 1.425 . S
C1597 C1594 1.409 . S
C1597 C1595 1.415 . S
C1598 H1588 0.930 . S
C1598 C1596 1.419 . S
C1598 C1599 1.362 . S
C1599 H1589 0.930 . S
C1599 C1592 1.409 . S
C1599 C1598 1.362 . S
H1600 C1606 0.930 . S
H1601 C1609 0.930 . S
H1602 C1610 0.930 . S
H1603 C1611 0.930 . S
H1604 C1614 0.930 . S
H1605 C1615 0.930 . S
C1606 H1600 0.930 . S
C1606 C1607 1.355 . S
C1606 C1608 1.415 . S
C1607 C1606 1.355 . S
C1607 C1609 1.419 . S
C1608 C1606 1.415 . S
C1608 C1613 1.425 . S
C1608 C1615 1.409 . S
C1609 H1601 0.930 . S
C1609 C1607 1.419 . S
C1609 C1610 1.362 . S
C1610 H1602 0.930 . S
C1610 C1609 1.362 . S
C1610 C1613 1.409 . S
C1611 H1603 0.930 . S
C1611 C1612 1.355 . S
C1611 C1613 1.415 . S
C1612 C1611 1.355 . S
C1612 C1614 1.419 . S
C1613 C1608 1.425 . S
C1613 C1610 1.409 . S
C1613 C1611 1.415 . S
C1614 H1604 0.930 . S
C1614 C1612 1.419 . S
C1614 C1615 1.362 . S
C1615 H1605 0.930 . S
C1615 C1608 1.409 . S
C1615 C1614 1.362 . S
H1616 C1622 0.930 . S
H1617 C1625 0.930 . S
H1618 C1626 0.930 . S
H1619 C1627 0.930 . S
H1620 C1630 0.930 . S
H1621 C1631 0.930 . S
C1622 H1616 0.930 . S
C1622 C1623 1.355 . S
C1622 C1624 1.415 . S
C1623 C1622 1.355 . S
C1623 C1625 1.419 . S
C1624 C1622 1.415 . S
C1624 C1629 1.425 . S
C1624 C1631 1.409 . S
C1625 H1617 0.930 . S
C1625 C1623 1.419 . S
C1625 C1626 1.362 . S
C1626 H1618 0.930 . S
C1626 C1625 1.362 . S
C1626 C1629 1.409 . S
C1627 H1619 0.930 . S
C1627 C1628 1.355 . S
C1627 C1629 1.415 . S
C1628 C1627 1.355 . S
C1628 C1630 1.419 . S
C1629 C1624 1.425 . S
C1629 C1626 1.409 . S
C1629 C1627 1.415 . S
C1630 H1620 0.930 . S
C1630 C1628 1.419 . S
C1630 C1631 1.362 . S
C1631 H1621 0.930 . S
C1631 C1624 1.409 . S
C1631 C1630 1.362 . S
H1632 C1638 0.930 . S
H1633 C1641 0.930 . S
H1634 C1642 0.930 . S
H1635 C1643 0.930 . S
H1636 C1646 0.930 . S
H1637 C1647 0.930 . S
C1638 H1632 0.930 . S
C1638 C1639 1.355 . S
C1638 C1640 1.415 . S
C1639 C1638 1.355 . S
C1639 C1641 1.419 . S
C1640 C1638 1.415 . S
C1640 C1645 1.425 . S
C1640 C1647 1.409 . S
C1641 H1633 0.930 . S
C1641 C1639 1.419 . S
C1641 C1642 1.362 . S
C1642 H1634 0.930 . S
C1642 C1641 1.362 . S
C1642 C1645 1.409 . S
C1643 H1635 0.930 . S
C1643 C1644 1.355 . S
C1643 C1645 1.415 . S
C1644 C1643 1.355 . S
C1644 C1646 1.419 . S
C1645 C1640 1.425 . S
C1645 C1642 1.409 . S
C1645 C1643 1.415 . S
C1646 H1636 0.930 . S
C1646 C1644 1.419 . S
C1646 C1647 1.362 . S
C1647 H1637 0.930 . S
C1647 C1640 1.409 . S
C1647 C1646 1.362 . S
H1648 C1654 0.930 . S
H1649 C1657 0.930 . S
H1650 C1658 0.930 . S
H1651 C1659 0.930 . S
H1652 C1662 0.930 . S
H1653 C1663 0.930 . S
C1654 H1648 0.930 . S
C1654 C1655 1.355 . S
C1654 C1656 1.415 . S
C1655 C1654 1.355 . S
C1655 C1657 1.419 . S
C1656 C1654 1.415 . S
C1656 C1661 1.425 . S
C1656 C1663 1.409 . S
C1657 H1649 0.930 . S
C1657 C1655 1.419 . S
C1657 C1658 1.362 . S
C1658 H1650 0.930 . S
C1658 C1657 1.362 . S
C1658 C1661 1.409 . S
C1659 H1651 0.930 . S
C1659 C1660 1.355 . S
C1659 C1661 1.415 . S
C1660 C1659 1.355 . S
C1660 C1662 1.419 . S
C1661 C1656 1.425 . S
C1661 C1658 1.409 . S
C1661 C1659 1.415 . S
C1662 H1652 0.930 . S
C1662 C1660 1.419 . S
C1662 C1663 1.362 . S
C1663 H1653 0.930 . S
C1663 C1656 1.409 . S
C1663 C1662 1.362 . S
H1664 C1670 0.930 . S
H1665 C1673 0.930 . S
H1666 C1674 0.930 . S
H1667 C1675 0.930 . S
H1668 C1678 0.930 . S
H1669 C1679 0.930 . S
C1670 H1664 0.930 . S
C1670 C1671 1.355 . S
C1670 C1672 1.415 . S
C1671 C1670 1.355 . S
C1671 C1673 1.419 . S
C1672 C1670 1.415 . S
C1672 C1677 1.425 . S
C1672 C1679 1.409 . S
C1673 H1665 0.930 . S
C1673 C1671 1.419 . S
C1673 C1674 1.362 . S
C1674 H1666 0.930 . S
C1674 C1673 1.362 . S
C1674 C1677 1.409 . S
C1675 H1667 0.930 . S
C1675 C1676 1.355 . S
C1675 C1677 1.415 . S
C1676 C1675 1.355 . S
C1676 C1678 1.419 . S
C1677 C1672 1.425 . S
C1677 C1674 1.409 . S
C1677 C1675 1.415 . S
C1678 H1668 0.930 . S
C1678 C1676 1.419 . S
C1678 C1679 1.362 . S
C1679 H1669 0.930 . S
C1679 C1672 1.409 . S
C1679 C1678 1.362 . S
H1680 C1686 0.930 . S
H1681 C1689 0.930 . S
H1682 C1690 0.930 . S
H1683 C1691 0.930 . S
H1684 C1694 0.930 . S
H1685 C1695 0.930 . S
C1686 H1680 0.930 . S
C1686 C1687 1.355 . S
C1686 C1688 1.415 . S
C1687 C1686 1.355 . S
C1687 C1689 1.419 . S
C1688 C1686 1.415 . S
C1688 C1693 1.425 . S
C1688 C1695 1.409 . S
C1689 H1681 0.930 . S
C1689 C1687 1.419 . S
C1689 C1690 1.362 . S
C1690 H1682 0.930 . S
C1690 C1689 1.362 . S
C1690 C1693 1.409 . S
C1691 H1683 0.930 . S
C1691 C1692 1.355 . S
C1691 C1693 1.415 . S
C1692 C1691 1.355 . S
C1692 C1694 1.419 . S
C1693 C1688 1.425 . S
C1693 C1690 1.409 . S
C1693 C1691 1.415 . S
C1694 H1684 0.930 . S
C1694 C1692 1.419 . S
C1694 C1695 1.362 . S
C1695 H1685 0.930 . S
C1695 C1688 1.409 . S
C1695 C1694 1.362 . S
H1696 C1702 0.930 . S
H1697 C1705 0.930 . S
H1698 C1706 0.930 . S
H1699 C1707 0.930 . S
H1700 C1710 0.930 . S
H1701 C1711 0.930 . S
C1702 H1696 0.930 . S
C1702 C1703 1.355 . S
C1702 C1704 1.415 . S
C1703 C1702 1.355 . S
C1703 C1705 1.419 . S
C1704 C1702 1.415 . S
C1704 C1709 1.425 . S
C1704 C1711 1.409 . S
C1705 H1697 0.930 . S
C1705 C1703 1.419 . S
C1705 C1706 1.362 . S
C1706 H1698 0.930 . S
C1706 C1705 1.362 . S
C1706 C1709 1.409 . S
C1707 H1699 0.930 . S
C1707 C1708 1.355 . S
C1707 C1709 1.415 . S
C1708 C1707 1.355 . S
C1708 C1710 1.419 . S
C1709 C1704 1.425 . S
C1709 C1706 1.409 . S
C1709 C1707 1.415 . S
C1710 H1700 0.930 . S
C1710 C1708 1.419 . S
C1710 C1711 1.362 . S
C1711 H1701 0.930 . S
C1711 C1704 1.409 . S
C1711 C1710 1.362 . S
H1712 C1718 0.930 . S
H1713 C1721 0.930 . S
H1714 C1722 0.930 . S
H1715 C1723 0.930 . S
H1716 C1726 0.930 . S
H1717 C1727 0.930 . S
C1718 H1712 0.930 . S
C1718 C1719 1.355 . S
C1718 C1720 1.415 . S
C1719 C1718 1.355 . S
C1719 C1721 1.419 . S
C1720 C1718 1.415 . S
C1720 C1725 1.425 . S
C1720 C1727 1.409 . S
C1721 H1713 0.930 . S
C1721 C1719 1.419 . S
C1721 C1722 1.362 . S
C1722 H1714 0.930 . S
C1722 C1721 1.362 . S
C1722 C1725 1.409 . S
C1723 H1715 0.930 . S
C1723 C1724 1.355 . S
C1723 C1725 1.415 . S
C1724 C1723 1.355 . S
C1724 C1726 1.419 . S
C1725 C1720 1.425 . S
C1725 C1722 1.409 . S
C1725 C1723 1.415 . S
C1726 H1716 0.930 . S
C1726 C1724 1.419 . S
C1726 C1727 1.362 . S
C1727 H1717 0.930 . S
C1727 C1720 1.409 . S
C1727 C1726 1.362 . S
H1728 C1734 0.930 . S
H1729 C1737 0.930 . S
H1730 C1738 0.930 . S
H1731 C1739 0.930 . S
H1732 C1742 0.930 . S
H1733 C1743 0.930 . S
C1734 H1728 0.930 . S
C1734 C1735 1.355 . S
C1734 C1736 1.415 . S
C1735 C1734 1.355 . S
C1735 C1737 1.419 . S
C1736 C1734 1.415 . S
C1736 C1741 1.425 . S
C1736 C1743 1.409 . S
C1737 H1729 0.930 . S
C1737 C1735 1.419 . S
C1737 C1738 1.362 . S
C1738 H1730 0.930 . S
C1738 C1737 1.362 . S
C1738 C1741 1.409 . S
C1739 H1731 0.930 . S
C1739 C1740 1.355 . S
C1739 C1741 1.415 . S
C1740 C1739 1.355 . S
C1740 C1742 1.419 . S
C1741 C1736 1.425 . S
C1741 C1738 1.409 . S
C1741 C1739 1.415 . S
C1742 H1732 0.930 . S
C1742 C1740 1.419 . S
C1742 C1743 1.362 . S
C1743 H1733 0.930 . S
C1743 C1736 1.409 . S
C1743 C1742 1.362 . S
H1744 C1750 0.930 . S
H1745 C1753 0.930 . S
H1746 C1754 0.930 . S
H1747 C1755 0.930 . S
H1748 C1758 0.930 . S
H1749 C1759 0.930 . S
C1750 H1744 0.930 . S
C1750 C1751 1.355 . S
C1750 C1752 1.415 . S
C1751 C1750 1.355 . S
C1751 C1753 1.419 . S
C1752 C1750 1.415 . S
C1752 C1757 1.425 . S
C1752 C1759 1.409 . S
C1753 H1745 0.930 . S
C1753 C1751 1.419 . S
C1753 C1754 1.362 . S
C1754 H1746 0.930 . S
C1754 C1753 1.362 . S
C1754 C1757 1.409 . S
C1755 H1747 0.930 . S
C1755 C1756 1.355 . S
C1755 C1757 1.415 . S
C1756 C1755 1.355 . S
C1756 C1758 1.419 . S
C1757 C1752 1.425 . S
C1757 C1754 1.409 . S
C1757 C1755 1.415 . S
C1758 H1748 0.930 . S
C1758 C1756 1.419 . S
C1758 C1759 1.362 . S
C1759 H1749 0.930 . S
C1759 C1752 1.409 . S
C1759 C1758 1.362 . S
H1760 C1766 0.930 . S
H1761 C1769 0.930 . S
H1762 C1770 0.930 . S
H1763 C1771 0.930 . S
H1764 C1774 0.930 . S
H1765 C1775 0.930 . S
C1766 H1760 0.930 . S
C1766 C1767 1.355 . S
C1766 C1768 1.415 . S
C1767 C1766 1.355 . S
C1767 C1769 1.419 . S
C1768 C1766 1.415 . S
C1768 C1773 1.425 . S
C1768 C1775 1.409 . S
C1769 H1761 0.930 . S
C1769 C1767 1.419 . S
C1769 C1770 1.362 . S
C1770 H1762 0.930 . S
C1770 C1769 1.362 . S
C1770 C1773 1.409 . S
C1771 H1763 0.930 . S
C1771 C1772 1.355 . S
C1771 C1773 1.415 . S
C1772 C1771 1.355 . S
C1772 C1774 1.419 . S
C1773 C1768 1.425 . S
C1773 C1770 1.409 . S
C1773 C1771 1.415 . S
C1774 H1764 0.930 . S
C1774 C1772 1.419 . S
C1774 C1775 1.362 . S
C1775 H1765 0.930 . S
C1775 C1768 1.409 . S
C1775 C1774 1.362 . S
H1776 C1782 0.930 . S
H1777 C1785 0.930 . S
H1778 C1786 0.930 . S
H1779 C1787 0.930 . S
H1780 C1790 0.930 . S
H1781 C1791 0.930 . S
C1782 H1776 0.930 . S
C1782 C1783 1.355 . S
C1782 C1784 1.415 . S
C1783 C1782 1.355 . S
C1783 C1785 1.419 . S
C1784 C1782 1.415 . S
C1784 C1789 1.425 . S
C1784 C1791 1.409 . S
C1785 H1777 0.930 . S
C1785 C1783 1.419 . S
C1785 C1786 1.362 . S
C1786 H1778 0.930 . S
C1786 C1785 1.362 . S
C1786 C1789 1.409 . S
C1787 H1779 0.930 . S
C1787 C1788 1.355 . S
C1787 C1789 1.415 . S
C1788 C1787 1.355 . S
C1788 C1790 1.419 . S
C1789 C1784 1.425 . S
C1789 C1786 1.409 . S
C1789 C1787 1.415 . S
C1790 H1780 0.930 . S
C1790 C1788 1.419 . S
C1790 C1791 1.362 . S
C1791 H1781 0.930 . S
C1791 C1784 1.409 . S
C1791 C1790 1.362 . S
H1792 C1798 0.930 . S
H1793 C1801 0.930 . S
H1794 C1802 0.930 . S
H1795 C1803 0.930 . S
H1796 C1806 0.930 . S
H1797 C1807 0.930 . S
C1798 H1792 0.930 . S
C1798 C1799 1.355 . S
C1798 C1800 1.415 . S
C1799 C1798 1.355 . S
C1799 C1801 1.419 . S
C1800 C1798 1.415 . S
C1800 C1805 1.425 . S
C1800 C1807 1.409 . S
C1801 H1793 0.930 . S
C1801 C1799 1.419 . S
C1801 C1802 1.362 . S
C1802 H1794 0.930 . S
C1802 C1801 1.362 . S
C1802 C1805 1.409 . S
C1803 H1795 0.930 . S
C1803 C1804 1.355 . S
C1803 C1805 1.415 . S
C1804 C1803 1.355 . S
C1804 C1806 1.419 . S
C1805 C1800 1.425 . S
C1805 C1802 1.409 . S
C1805 C1803 1.415 . S
C1806 H1796 0.930 . S
C1806 C1804 1.419 . S
C1806 C1807 1.362 . S
C1807 H1797 0.930 . S
C1807 C1800 1.409 . S
C1807 C1806 1.362 . S
H1808 C1814 0.930 . S
H1809 C1817 0.930 . S
H1810 C1818 0.930 . S
H1811 C1819 0.930 . S
H1812 C1822 0.930 . S
H1813 C1823 0.930 . S
C1814 H1808 0.930 . S
C1814 C1815 1.355 . S
C1814 C1816 1.415 . S
C1815 C1814 1.355 . S
C1815 C1817 1.419 . S
C1816 C1814 1.415 . S
C1816 C1821 1.425 . S
C1816 C1823 1.409 . S
C1817 H1809 0.930 . S
C1817 C1815 1.419 . S
C1817 C1818 1.362 . S
C1818 H1810 0.930 . S
C1818 C1817 1.362 . S
C1818 C1821 1.409 . S
C1819 H1811 0.930 . S
C1819 C1820 1.355 . S
C1819 C1821 1.415 . S
C1820 C1819 1.355 . S
C1820 C1822 1.419 . S
C1821 C1816 1.425 . S
C1821 C1818 1.409 . S
C1821 C1819 1.415 . S
C1822 H1812 0.930 . S
C1822 C1820 1.419 . S
C1822 C1823 1.362 . S
C1823 H1813 0.930 . S
C1823 C1816 1.409 . S
C1823 C1822 1.362 . S
H1824 C1830 0.930 . S
H1825 C1833 0.930 . S
H1826 C1834 0.930 . S
H1827 C1835 0.930 . S
H1828 C1838 0.930 . S
H1829 C1839 0.930 . S
C1830 H1824 0.930 . S
C1830 C1831 1.355 . S
C1830 C1832 1.415 . S
C1831 C1830 1.355 . S
C1831 C1833 1.419 . S
C1832 C1830 1.415 . S
C1832 C1837 1.425 . S
C1832 C1839 1.409 . S
C1833 H1825 0.930 . S
C1833 C1831 1.419 . S
C1833 C1834 1.362 . S
C1834 H1826 0.930 . S
C1834 C1833 1.362 . S
C1834 C1837 1.409 . S
C1835 H1827 0.930 . S
C1835 C1836 1.355 . S
C1835 C1837 1.415 . S
C1836 C1835 1.355 . S
C1836 C1838 1.419 . S
C1837 C1832 1.425 . S
C1837 C1834 1.409 . S
C1837 C1835 1.415 . S
C1838 H1828 0.930 . S
C1838 C1836 1.419 . S
C1838 C1839 1.362 . S
C1839 H1829 0.930 . S
C1839 C1832 1.409 . S
C1839 C1838 1.362 . S
H1840 C1846 0.930 . S
H1841 C1849 0.930 . S
H1842 C1850 0.930 . S
H1843 C1851 0.930 . S
H1844 C1854 0.930 . S
H1845 C1855 0.930 . S
C1846 H1840 0.930 . S
C1846 C1847 1.355 . S
C1846 C1848 1.415 . S
C1847 C1846 1.355 . S
C1847 C1849 1.419 . S
C1848 C1846 1.415 . S
C1848 C1853 1.425 . S
C1848 C1855 1.409 . S
C1849 H1841 0.930 . S
C1849 C1847 1.419 . S
C1849 C1850 1.362 . S
C1850 H1842 0.930 . S
C1850 C1849 1.362 . S
C1850 C1853 1.409 . S
C1851 H1843 0.930 . S
C1851 C1852 1.355 . S
C1851 C1853 1.415 . S
C1852 C1851 1.355 . S
C1852 C1854 1.419 . S
C1853 C1848 1.425 . S
C1853 C1850 1.409 . S
C1853 C1851 1.415 . S
C1854 H1844 0.930 . S
C1854 C1852 1.419 . S
C1854 C1855 1.362 . S
C1855 H1845 0.930 . S
C1855 C1848 1.409 . S
C1855 C1854 1.362 . S
H1856 C1862 0.930 . S
H1857 C1865 0.930 . S
H1858 C1866 0.930 . S
H1859 C1867 0.930 . S
H1860 C1870 0.930 . S
H1861 C1871 0.930 . S
C1862 H1856 0.930 . S
C1862 C1863 1.355 . S
C1862 C1864 1.415 . S
C1863 C1862 1.355 . S
C1863 C1865 1.419 . S
C1864 C1862 1.415 . S
C1864 C1869 1.425 . S
C1864 C1871 1.409 . S
C1865 H1857 0.930 . S
C1865 C1863 1.419 . S
C1865 C1866 1.362 . S
C1866 H1858 0.930 . S
C1866 C1865 1.362 . S
C1866 C1869 1.409 . S
C1867 H1859 0.930 . S
C1867 C1868 1.355 . S
C1867 C1869 1.415 . S
C1868 C1867 1.355 . S
C1868 C1870 1.419 . S
C1869 C1864 1.425 . S
C1869 C1866 1.409 . S
C1869 C1867 1.415 . S
C1870 H1860 0.930 . S
C1870 C1868 1.419 . S
C1870 C1871 1.362 . S
C1871 H1861 0.930 . S
C1871 C1864 1.409 . S
C1871 C1870 1.362 . S
H1872 C1878 0.930 . S
H1873 C1881 0.930 . S
H1874 C1882 0.930 . S
H1875 C1883 0.930 . S
H1876 C1886 0.930 . S
H1877 C1887 0.930 . S
C1878 H1872 0.930 . S
C1878 C1879 1.355 . S
C1878 C1880 1.415 . S
C1879 C1878 1.355 . S
C1879 C1881 1.419 . S
C1880 C1878 1.415 . S
C1880 C1885 1.425 . S
C1880 C1887 1.409 . S
C1881 H1873 0.930 . S
C1881 C1879 1.419 . S
C1881 C1882 1.362 . S
C1882 H1874 0.930 . S
C1882 C1881 1.362 . S
C1882 C1885 1.409 . S
C1883 H1875 0.930 . S
C1883 C1884 1.355 . S
C1883 C1885 1.415 . S
C1884 C1883 1.355 . S
C1884 C1886 1.419 . S
C1885 C1880 1.425 . S
C1885 C1882 1.409 . S
C1885 C1883 1.415 . S
C1886 H1876 0.930 . S
C1886 C1884 1.419 . S
C1886 C1887 1.362 . S
C1887 H1877 0.930 . S
C1887 C1880 1.409 . S
C1887 C1886 1.362 . S
H1888 C1894 0.930 . S
H1889 C1897 0.930 . S
H1890 C1898 0.930 . S
H1891 C1899 0.930 . S
H1892 C1902 0.930 . S
H1893 C1903 0.930 . S
C1894 H1888 0.930 . S
C1894 C1895 1.355 . S
C1894 C1896 1.415 . S
C1895 C1894 1.355 . S
C1895 C1897 1.419 . S
C1896 C1894 1.415 . S
C1896 C1901 1.425 . S
C1896 C1903 1.409 . S
C1897 H1889 0.930 . S
C1897 C1895 1.419 . S
C1897 C1898 1.362 . S
C1898 H1890 0.930 . S
C1898 C1897 1.362 . S
C1898 C1901 1.409 . S
C1899 H1891 0.930 . S
C1899 C1900 1.355 . S
C1899 C1901 1.415 . S
C1900 C1899 1.355 . S
C1900 C1902 1.419 . S
C1901 C1896 1.425 . S
C1901 C1898 1.409 . S
C1901 C1899 1.415 . S
C1902 H1892 0.930 . S
C1902 C1900 1.419 . S
C1902 C1903 1.362 . S
C1903 H1893 0.930 . S
C1903 C1896 1.409 . S
C1903 C1902 1.362 . S
H1904 C1910 0.930 . S
H1905 C1913 0.930 . S
H1906 C1914 0.930 . S
H1907 C1915 0.930 . S
H1908 C1918 0.930 . S
H1909 C1919 0.930 . S
C1910 H1904 0.930 . S
C1910 C1911 1.355 . S
C1910 C1912 1.415 . S
C1911 C1910 1.355 . S
C1911 C1913 1.419 . S
C1912 C1910 1.415 . S
C1912 C1917 1.425 . S
C1912 C1919 1.409 . S
C1913 H1905 0.930 . S
C1913 C1911 1.419 . S
C1913 C1914 1.362 . S
C1914 H1906 0.930 . S
C1914 C1913 1.362 . S
C1914 C1917 1.409 . S
C1915 H1907 0.930 . S
C1915 C1916 1.355 . S
C1915 C1917 1.415 . S
C1916 C1915 1.355 . S
C1916 C1918 1.419 . S
C1917 C1912 1.425 . S
C1917 C1914 1.409 . S
C1917 C1915 1.415 . S
C1918 H1908 0.930 . S
C1918 C1916 1.419 . S
C1918 C1919 1.362 . S
C1919 H1909 0.930 . S
C1919 C1912 1.409 . S
C1919 C1918 1.362 . S
H1920 C1926 0.930 . S
H1921 C1929 0.930 . S
H1922 C1930 0.930 . S
H1923 C1931 0.930 . S
H1924 C1934 0.930 . S
H1925 C1935 0.930 . S
C1926 H1920 0.930 . S
C1926 C1927 1.355 . S
C1926 C1928 1.415 . S
C1927 C1926 1.355 . S
C1927 C1929 1.419 . S
C1928 C1926 1.415 . S
C1928 C1933 1.425 . S
C1928 C1935 1.409 . S
C1929 H1921 0.930 . S
C1929 C1927 1.419 . S
C1929 C1930 1.362 . S
C1930 H1922 0.930 . S
C1930 C1929 1.362 . S
C1930 C1933 1.409 . S
C1931 H1923 0.930 . S
C1931 C1932 1.355 . S
C1931 C1933 1.415 . S
C1932 C1931 1.355 . S
C1932 C1934 1.419 . S
C1933 C1928 1.425 . S
C1933 C1930 1.409 . S
C1933 C1931 1.415 . S
C1934 H1924 0.930 . S
C1934 C1932 1.419 . S
C1934 C1935 1.362 . S
C1935 H1925 0.930 . S
C1935 C1928 1.409 . S
C1935 C1934 1.362 . S
H1936 C1942 0.930 . S
H1937 C1945 0.930 . S
H1938 C1946 0.930 . S
H1939 C1947 0.930 . S
H1940 C1950 0.930 . S
H1941 C1951 0.930 . S
C1942 H1936 0.930 . S
C1942 C1943 1.355 . S
C1942 C1944 1.415 . S
C1943 C1942 1.355 . S
C1943 C1945 1.419 . S
C1944 C1942 1.415 . S
C1944 C1949 1.425 . S
C1944 C1951 1.409 . S
C1945 H1937 0.930 . S
C1945 C1943 1.419 . S
C1945 C1946 1.362 . S
C1946 H1938 0.930 . S
C1946 C1945 1.362 . S
C1946 C1949 1.409 . S
C1947 H1939 0.930 . S
C1947 C1948 1.355 . S
C1947 C1949 1.415 . S
C1948 C1947 1.355 . S
C1948 C1950 1.419 . S
C1949 C1944 1.425 . S
C1949 C1946 1.409 . S
C1949 C1947 1.415 . S
C1950 H1940 0.930 . S
C1950 C1948 1.419 . S
C1950 C1951 1.362 . S
C1951 H1941 0.930 . S
C1951 C1944 1.409 . S
C1951 C1950 1.362 . S
H1952 C1958 0.930 . S
H1953 C1961 0.930 . S
H1954 C1962 0.930 . S
H1955 C1963 0.930 . S
H1956 C1966 0.930 . S
H1957 C1967 0.930 . S
C1958 H1952 0.930 . S
C1958 C1959 1.355 . S
C1958 C1960 1.415 . S
C1959 C1958 1.355 . S
C1959 C1961 1.419 . S
C1960 C1958 1.415 . S
C1960 C1965 1.425 . S
C1960 C1967 1.409 . S
C1961 H1953 0.930 . S
C1961 C1959 1.419 . S
C1961 C1962 1.362 . S
C1962 H1954 0.930 . S
C1962 C1961 1.362 . S
C1962 C1965 1.409 . S
C1963 H1955 0.930 . S
C1963 C1964 1.355 . S
C1963 C1965 1.415 . S
C1964 C1963 1.355 . S
C1964 C1966 1.419 . S
C1965 C1960 1.425 . S
C1965 C1962 1.409 . S
C1965 C1963 1.415 . S
C1966 H1956 0.930 . S
C1966 C1964 1.419 . S
C1966 C1967 1.362 . S
C1967 H1957 0.930 . S
C1967 C1960 1.409 . S
C1967 C1966 1.362 . S
H1968 C1974 0.930 . S
H1969 C1977 0.930 . S
H1970 C1978 0.930 . S
H1971 C1979 0.930 . S
H1972 C1982 0.930 . S
H1973 C1983 0.930 . S
C1974 H1968 0.930 . S
C1974 C1975 1.355 . S
C1974 C1976 1.415 . S
C1975 C1974 1.355 . S
C1975 C1977 1.419 . S
C1976 C1974 1.415 . S
C1976 C1981 1.425 . S
C1976 C1983 1.409 . S
C1977 H1969 0.930 . S
C1977 C1975 1.419 . S
C1977 C1978 1.362 . S
C1978 H1970 0.930 . S
C1978 C1977 1.362 . S
C1978 C1981 1.409 . S
C1979 H1971 0.930 . S
C1979 C1980 1.355 . S
C1979 C1981 1.415 . S
C1980 C1979 1.355 . S
C1980 C1982 1.419 . S
C1981 C1976 1.425 . S
C1981 C1978 1.409 . S
C1981 C1979 1.415 . S
C1982 H1972 0.930 . S
C1982 C1980 1.419 . S
C1982 C1983 1.362 . S
C1983 H1973 0.930 . S
C1983 C1976 1.409 . S
C1983 C1982 1.362 . S
H1984 C1990 0.930 . S
H1985 C1993 0.930 . S
H1986 C1994 0.930 . S
H1987 C1995 0.930 . S
H1988 C1998 0.930 . S
H1989 C1999 0.930 . S
C1990 H1984 0.930 . S
C1990 C1991 1.355 . S
C1990 C1992 1.415 . S
C1991 C1990 1.355 . S
C1991 C1993 1.419 . S
C1992 C1990 1.415 . S
C1992 C1997 1.425 . S
C1992 C1999 1.409 . S
C1993 H1985 0.930 . S
C1993 C1991 1.419 . S
C1993 C1994 1.362 . S
C1994 H1986 0.930 . S
C1994 C1993 1.362 . S
C1994 C1997 1.409 . S
C1995 H1987 0.930 . S
C1995 C1996 1.355 . S
C1995 C1997 1.415 . S
C1996 C1995 1.355 . S
C1996 C1998 1.419 . S
C1997 C1992 1.425 . S
C1997 C1994 1.409 . S
C1997 C1995 1.415 . S
C1998 H1988 0.930 . S
C1998 C1996 1.419 . S
C1998 C1999 1.362 . S
C1999 H1989 0.930 . S
C1999 C1992 1.409 . S
C1999 C1998 1.362 . S
H2000 C2006 0.930 . S
H2001 C2009 0.930 . S
H2002 C2010 0.930 . S
H2003 C2011 0.930 . S
H2004 C2014 0.930 . S
H2005 C2015 0.930 . S
C2006 H2000 0.930 . S
C2006 C2007 1.355 . S
C2006 C2008 1.415 . S
C2007 C2006 1.355 . S
C2007 C2009 1.419 . S
C2008 C2006 1.415 . S
C2008 C2013 1.425 . S
C2008 C2015 1.409 . S
C2009 H2001 0.930 . S
C2009 C2007 1.419 . S
C2009 C2010 1.362 . S
C2010 H2002 0.930 . S
C2010 C2009 1.362 . S
C2010 C2013 1.409 . S
C2011 H2003 0.930 . S
C2011 C2012 1.355 . S
C2011 C2013 1.415 . S
C2012 C2011 1.355 . S
C2012 C2014 1.419 . S
C2013 C2008 1.425 . S
C2013 C2010 1.409 . S
C2013 C2011 1.415 . S
C2014 H2004 0.930 . S
C2014 C2012 1.419 . S
C2014 C2015 1.362 . S
C2015 H2005 0.930 . S
C2015 C2008 1.409 . S
C2015 C2014 1.362 . S
H2016 C2022 0.930 . S
H2017 C2025 0.930 . S
H2018 C2026 0.930 . S
H2019 C2027 0.930 . S
H2020 C2030 0.930 . S
H2021 C2031 0.930 . S
C2022 H2016 0.930 . S
C2022 C2023 1.355 . S
C2022 C2024 1.415 . S
C2023 C2022 1.355 . S
C2023 C2025 1.419 . S
C2024 C2022 1.415 . S
C2024 C2029 1.425 . S
C2024 C2031 1.409 . S
C2025 H2017 0.930 . S
C2025 C2023 1.419 . S
C2025 C2026 1.362 . S
C2026 H2018 0.930 . S
C2026 C2025 1.362 . S
C2026 C2029 1.409 . S
C2027 H2019 0.930 . S
C2027 C2028 1.355 . S
C2027 C2029 1.415 . S
C2028 C2027 1.355 . S
C2028 C2030 1.419 . S
C2029 C2024 1.425 . S
C2029 C2026 1.409 . S
C2029 C2027 1.415 . S
C2030 H2020 0.930 . S
C2030 C2028 1.419 . S
C2030 C2031 1.362 . S
C2031 H2021 0.930 . S
C2031 C2024 1.409 . S
C2031 C2030 1.362 . S
H2032 C2038 0.930 . S
H2033 C2041 0.930 . S
H2034 C2042 0.930 . S
H2035 C2043 0.930 . S
H2036 C2046 0.930 . S
H2037 C2047 0.930 . S
C2038 H2032 0.930 . S
C2038 C2039 1.355 . S
C2038 C2040 1.415 . S
C2039 C2038 1.355 . S
C2039 C2041 1.419 . S
C2040 C2038 1.415 . S
C2040 C2045 1.425 . S
C2040 C2047 1.409 . S
C2041 H2033 0.930 . S
C2041 C2039 1.419 . S
C2041 C2042 1.362 . S
C2042 H2034 0.930 . S
C2042 C2041 1.362 . S
C2042 C2045 1.409 . S
C2043 H2035 0.930 . S
C2043 C2044 1.355 . S
C2043 C2045 1.415 . S
C2044 C2043 1.355 . S
C2044 C2046 1.419 . S
C2045 C2040 1.425 . S
C2045 C2042 1.409 . S
C2045 C2043 1.415 . S
C2046 H2036 0.930 . S
C2046 C2044 1.419 . S
C2046 C2047 1.362 . S
C2047 H2037 0.930 . S
C2047 C2040 1.409 . S
C2047 C2046 1.362 . S
H2048 C2054 0.930 . S
H2049 C2057 0.930 . S
H2050 C2058 0.930 . S
H2051 C2059 0.930 . S
H2052 C2062 0.930 . S
H2053 C2063 0.930 . S
C2054 H2048 0.930 . S
C2054 C2055 1.355 . S
C2054 C2056 1.415 . S
C2055 C2054 1.355 . S
C2055 C2057 1.419 . S
C2056 C2054 1.415 . S
C2056 C2061 1.425 . S
C2056 C2063 1.409 . S
C2057 H2049 0.930 . S
C2057 C2055 1.419 . S
C2057 C2058 1.362 . S
C2058 H2050 0.930 . S
C2058 C2057 1.362 . S
C2058 C2061 1.409 . S
C2059 H2051 0.930 . S
C2059 C2060 1.355 . S
C2059 C2061 1.415 . S
C2060 C2059 1.355 . S
C2060 C2062 1.419 . S
C2061 C2056 1.425 . S
C2061 C2058 1.409 . S
C2061 C2059 1.415 . S
C2062 H2052 0.930 . S
C2062 C2060 1.419 . S
C2062 C2063 1.362 . S
C2063 H2053 0.930 . S
C2063 C2056 1.409 . S
C2063 C2062 1.362 . S
H2064 C2070 0.930 . S
H2065 C2073 0.930 . S
H2066 C2074 0.930 . S
H2067 C2075 0.930 . S
H2068 C2078 0.930 . S
H2069 C2079 0.930 . S
C2070 H2064 0.930 . S
C2070 C2071 1.355 . S
C2070 C2072 1.415 . S
C2071 C2070 1.355 . S
C2071 C2073 1.419 . S
C2072 C2070 1.415 . S
C2072 C2077 1.425 . S
C2072 C2079 1.409 . S
C2073 H2065 0.930 . S
C2073 C2071 1.419 . S
C2073 C2074 1.362 . S
C2074 H2066 0.930 . S
C2074 C2073 1.362 . S
C2074 C2077 1.409 . S
C2075 H2067 0.930 . S
C2075 C2076 1.355 . S
C2075 C2077 1.415 . S
C2076 C2075 1.355 . S
C2076 C2078 1.419 . S
C2077 C2072 1.425 . S
C2077 C2074 1.409 . S
C2077 C2075 1.415 . S
C2078 H2068 0.930 . S
C2078 C2076 1.419 . S
C2078 C2079 1.362 . S
C2079 H2069 0.930 . S
C2079 C2072 1.409 . S
C2079 C2078 1.362 . S
H2080 C2086 0.930 . S
H2081 C2089 0.930 . S
H2082 C2090 0.930 . S
H2083 C2091 0.930 . S
H2084 C2094 0.930 . S
H2085 C2095 0.930 . S
C2086 H2080 0.930 . S
C2086 C2087 1.355 . S
C2086 C2088 1.415 . S
C2087 C2086 1.355 . S
C2087 C2089 1.419 . S
C2088 C2086 1.415 . S
C2088 C2093 1.425 . S
C2088 C2095 1.409 . S
C2089 H2081 0.930 . S
C2089 C2087 1.419 . S
C2089 C2090 1.362 . S
C2090 H2082 0.930 . S
C2090 C2089 1.362 . S
C2090 C2093 1.409 . S
C2091 H2083 0.930 . S
C2091 C2092 1.355 . S
C2091 C2093 1.415 . S
C2092 C2091 1.355 . S
C2092 C2094 1.419 . S
C2093 C2088 1.425 . S
C2093 C2090 1.409 . S
C2093 C2091 1.415 . S
C2094 H2084 0.930 . S
C2094 C2092 1.419 . S
C2094 C2095 1.362 . S
C2095 H2085 0.930 . S
C2095 C2088 1.409 . S
C2095 C2094 1.362 . S
H2096 C2102 0.930 . S
H2097 C2105 0.930 . S
H2098 C2106 0.930 . S
H2099 C2107 0.930 . S
H2100 C2110 0.930 . S
H2101 C2111 0.930 . S
C2102 H2096 0.930 . S
C2102 C2103 1.355 . S
C2102 C2104 1.415 . S
C2103 C2102 1.355 . S
C2103 C2105 1.419 . S
C2104 C2102 1.415 . S
C2104 C2109 1.425 . S
C2104 C2111 1.409 . S
C2105 H2097 0.930 . S
C2105 C2103 1.419 . S
C2105 C2106 1.362 . S
C2106 H2098 0.930 . S
C2106 C2105 1.362 . S
C2106 C2109 1.409 . S
C2107 H2099 0.930 . S
C2107 C2108 1.355 . S
C2107 C2109 1.415 . S
C2108 C2107 1.355 . S
C2108 C2110 1.419 . S
C2109 C2104 1.425 . S
C2109 C2106 1.409 . S
C2109 C2107 1.415 . S
C2110 H2100 0.930 . S
C2110 C2108 1.419 . S
C2110 C2111 1.362 . S
C2111 H2101 0.930 . S
C2111 C2104 1.409 . S
C2111 C2110 1.362 . S
H2112 C2118 0.930 . S
H2113 C2121 0.930 . S
H2114 C2122 0.930 . S
H2115 C2123 0.930 . S
H2116 C2126 0.930 . S
H2117 C2127 0.930 . S
C2118 H2112 0.930 . S
C2118 C2119 1.355 . S
C2118 C2120 1.415 . S
C2119 C2118 1.355 . S
C2119 C2121 1.419 . S
C2120 C2118 1.415 . S
C2120 C2125 1.425 . S
C2120 C2127 1.409 . S
C2121 H2113 0.930 . S
C2121 C2119 1.419 . S
C2121 C2122 1.362 . S
C2122 H2114 0.930 . S
C2122 C2121 1.362 . S
C2122 C2125 1.409 . S
C2123 H2115 0.930 . S
C2123 C2124 1.355 . S
C2123 C2125 1.415 . S
C2124 C2123 1.355 . S
C2124 C2126 1.419 . S
C2125 C2120 1.425 . S
C2125 C2122 1.409 . S
C2125 C2123 1.415 . S
C2126 H2116 0.930 . S
C2126 C2124 1.419 . S
C2126 C2127 1.362 . S
C2127 H2117 0.930 . S
C2127 C2120 1.409 . S
C2127 C2126 1.362 . S
H2128 C2134 0.930 . S
H2129 C2137 0.930 . S
H2130 C2138 0.930 . S
H2131 C2139 0.930 . S
H2132 C2142 0.930 . S
H2133 C2143 0.930 . S
C2134 H2128 0.930 . S
C2134 C2135 1.355 . S
C2134 C2136 1.415 . S
C2135 C2134 1.355 . S
C2135 C2137 1.419 . S
C2136 C2134 1.415 . S
C2136 C2141 1.425 . S
C2136 C2143 1.409 . S
C2137 H2129 0.930 . S
C2137 C2135 1.419 . S
C2137 C2138 1.362 . S
C2138 H2130 0.930 . S
C2138 C2137 1.362 . S
C2138 C2141 1.409 . S
C2139 H2131 0.930 . S
C2139 C2140 1.355 . S
C2139 C2141 1.415 . S
C2140 C2139 1.355 . S
C2140 C2142 1.419 . S
C2141 C2136 1.425 . S
C2141 C2138 1.409 . S
C2141 C2139 1.415 . S
C2142 H2132 0.930 . S
C2142 C2140 1.419 . S
C2142 C2143 1.362 . S
C2143 H2133 0.930 . S
C2143 C2136 1.409 . S
C2143 C2142 1.362 . S
H2144 C2150 0.930 . S
H2145 C2153 0.930 . S
H2146 C2154 0.930 . S
H2147 C2155 0.930 . S
H2148 C2158 0.930 . S
H2149 C2159 0.930 . S
C2150 H2144 0.930 . S
C2150 C2151 1.355 . S
C2150 C2152 1.415 . S
C2151 C2150 1.355 . S
C2151 C2153 1.419 . S
C2152 C2150 1.415 . S
C2152 C2157 1.425 . S
C2152 C2159 1.409 . S
C2153 H2145 0.930 . S
C2153 C2151 1.419 . S
C2153 C2154 1.362 . S
C2154 H2146 0.930 . S
C2154 C2153 1.362 . S
C2154 C2157 1.409 . S
C2155 H2147 0.930 . S
C2155 C2156 1.355 . S
C2155 C2157 1.415 . S
C2156 C2155 1.355 . S
C2156 C2158 1.419 . S
C2157 C2152 1.425 . S
C2157 C2154 1.409 . S
C2157 C2155 1.415 . S
C2158 H2148 0.930 . S
C2158 C2156 1.419 . S
C2158 C2159 1.362 . S
C2159 H2149 0.930 . S
C2159 C2152 1.409 . S
C2159 C2158 1.362 . S
H2160 C2166 0.930 . S
H2161 C2169 0.930 . S
H2162 C2170 0.930 . S
H2163 C2171 0.930 . S
H2164 C2174 0.930 . S
H2165 C2175 0.930 . S
C2166 H2160 0.930 . S
C2166 C2167 1.355 . S
C2166 C2168 1.415 . S
C2167 C2166 1.355 . S
C2167 C2169 1.419 . S
C2168 C2166 1.415 . S
C2168 C2173 1.425 . S
C2168 C2175 1.409 . S
C2169 H2161 0.930 . S
C2169 C2167 1.419 . S
C2169 C2170 1.362 . S
C2170 H2162 0.930 . S
C2170 C2169 1.362 . S
C2170 C2173 1.409 . S
C2171 H2163 0.930 . S
C2171 C2172 1.355 . S
C2171 C2173 1.415 . S
C2172 C2171 1.355 . S
C2172 C2174 1.419 . S
C2173 C2168 1.425 . S
C2173 C2170 1.409 . S
C2173 C2171 1.415 . S
C2174 H2164 0.930 . S
C2174 C2172 1.419 . S
C2174 C2175 1.362 . S
C2175 H2165 0.930 . S
C2175 C2168 1.409 . S
C2175 C2174 1.362 . S
H2176 C2182 0.930 . S
H2177 C2185 0.930 . S
H2178 C2186 0.930 . S
H2179 C2187 0.930 . S
H2180 C2190 0.930 . S
H2181 C2191 0.930 . S
C2182 H2176 0.930 . S
C2182 C2183 1.355 . S
C2182 C2184 1.415 . S
C2183 C2182 1.355 . S
C2183 C2185 1.419 . S
C2184 C2182 1.415 . S
C2184 C2189 1.425 . S
C2184 C2191 1.409 . S
C2185 H2177 0.930 . S
C2185 C2183 1.419 . S
C2185 C2186 1.362 . S
C2186 H2178 0.930 . S
C2186 C2185 1.362 . S
C2186 C2189 1.409 . S
C2187 H2179 0.930 . S
C2187 C2188 1.355 . S
C2187 C2189 1.415 . S
C2188 C2187 1.355 . S
C2188 C2190 1.419 . S
C2189 C2184 1.425 . S
C2189 C2186 1.409 . S
C2189 C2187 1.415 . S
C2190 H2180 0.930 . S
C2190 C2188 1.419 . S
C2190 C2191 1.362 . S
C2191 H2181 0.930 . S
C2191 C2184 1.409 . S
C2191 C2190 1.362 . S
H2192 C2198 0.930 . S
H2193 C2201 0.930 . S
H2194 C2202 0.930 . S
H2195 C2203 0.930 . S
H2196 C2206 0.930 . S
H2197 C2207 0.930 . S
C2198 H2192 0.930 . S
C2198 C2199 1.355 . S
C2198 C2200 1.415 . S
C2199 C2198 1.355 . S
C2199 C2201 1.419 . S
C2200 C2198 1.415 . S
C2200 C2205 1.425 . S
C2200 C2207 1.409 . S
C2201 H2193 0.930 . S
C2201 C2199 1.419 . S
C2201 C2202 1.362 . S
C2202 H2194 0.930 . S
C2202 C2201 1.362 . S
C2202 C2205 1.409 . S
C2203 H2195 0.930 . S
C2203 C2204 1.355 . S
C2203 C2205 1.415 . S
C2204 C2203 1.355 . S
C2204 C2206 1.419 . S
C2205 C2200 1.425 . S
C2205 C2202 1.409 . S
C2205 C2203 1.415 . S
C2206 H2196 0.930 . S
C2206 C2204 1.419 . S
C2206 C2207 1.362 . S
C2207 H2197 0.930 . S
C2207 C2200 1.409 . S
C2207 C2206 1.362 . S
H2208 C2214 0.930 . S
H2209 C2217 0.930 . S
H2210 C2218 0.930 . S
H2211 C2219 0.930 . S
H2212 C2222 0.930 . S
H2213 C2223 0.930 . S
C2214 H2208 0.930 . S
C2214 C2215 1.355 . S
C2214 C2216 1.415 . S
C2215 C2214 1.355 . S
C2215 C2217 1.419 . S
C2216 C2214 1.415 . S
C2216 C2221 1.425 . S
C2216 C2223 1.409 . S
C2217 H2209 0.930 . S
C2217 C2215 1.419 . S
C2217 C2218 1.362 . S
C2218 H2210 0.930 . S
C2218 C2217 1.362 . S
C2218 C2221 1.409 . S
C2219 H2211 0.930 . S
C2219 C2220 1.355 . S
C2219 C2221 1.415 . S
C2220 C2219 1.355 . S
C2220 C2222 1.419 . S
C2221 C2216 1.425 . S
C2221 C2218 1.409 . S
C2221 C2219 1.415 . S
C2222 H2212 0.930 . S
C2222 C2220 1.419 . S
C2222 C2223 1.362 . S
C2223 H2213 0.930 . S
C2223 C2216 1.409 . S
C2223 C2222 1.362 . S
H2224 C2230 0.930 . S
H2225 C2233 0.930 . S
H2226 C2234 0.930 . S
H2227 C2235 0.930 . S
H2228 C2238 0.930 . S
H2229 C2239 0.930 . S
C2230 H2224 0.930 . S
C2230 C2231 1.355 . S
C2230 C2232 1.415 . S
C2231 C2230 1.355 . S
C2231 C2233 1.419 . S
C2232 C2230 1.415 . S
C2232 C2237 1.425 . S
C2232 C2239 1.409 . S
C2233 H2225 0.930 . S
C2233 C2231 1.419 . S
C2233 C2234 1.362 . S
C2234 H2226 0.930 . S
C2234 C2233 1.362 . S
C2234 C2237 1.409 . S
C2235 H2227 0.930 . S
C2235 C2236 1.355 . S
C2235 C2237 1.415 . S
C2236 C2235 1.355 . S
C2236 C2238 1.419 . S
C2237 C2232 1.425 . S
C2237 C2234 1.409 . S
C2237 C2235 1.415 . S
C2238 H2228 0.930 . S
C2238 C2236 1.419 . S
C2238 C2239 1.362 . S
C2239 H2229 0.930 . S
C2239 C2232 1.409 . S
C2239 C2238 1.362 . S
H2240 C2246 0.930 . S
H2241 C2249 0.930 . S
H2242 C2250 0.930 . S
H2243 C2251 0.930 . S
H2244 C2254 0.930 . S
H2245 C2255 0.930 . S
C2246 H2240 0.930 . S
C2246 C2247 1.355 . S
C2246 C2248 1.415 . S
C2247 C2246 1.355 . S
C2247 C2249 1.419 . S
C2248 C2246 1.415 . S
C2248 C2253 1.425 . S
C2248 C2255 1.409 . S
C2249 H2241 0.930 . S
C2249 C2247 1.419 . S
C2249 C2250 1.362 . S
C2250 H2242 0.930 . S
C2250 C2249 1.362 . S
C2250 C2253 1.409 . S
C2251 H2243 0.930 . S
C2251 C2252 1.355 . S
C2251 C2253 1.415 . S
C2252 C2251 1.355 . S
C2252 C2254 1.419 . S
C2253 C2248 1.425 . S
C2253 C2250 1.409 . S
C2253 C2251 1.415 . S
C2254 H2244 0.930 . S
C2254 C2252 1.419 . S
C2254 C2255 1.362 . S
C2255 H2245 0.930 . S
C2255 C2248 1.409 . S
C2255 C2254 1.362 . S
H2256 C2262 0.930 . S
H2257 C2265 0.930 . S
H2258 C2266 0.930 . S
H2259 C2267 0.930 . S
H2260 C2270 0.930 . S
H2261 C2271 0.930 . S
C2262 H2256 0.930 . S
C2262 C2263 1.355 . S
C2262 C2264 1.415 . S
C2263 C2262 1.355 . S
C2263 C2265 1.419 . S
C2264 C2262 1.415 . S
C2264 C2269 1.425 . S
C2264 C2271 1.409 . S
C2265 H2257 0.930 . S
C2265 C2263 1.419 . S
C2265 C2266 1.362 . S
C2266 H2258 0.930 . S
C2266 C2265 1.362 . S
C2266 C2269 1.409 . S
C2267 H2259 0.930 . S
C2267 C2268 1.355 . S
C2267 C2269 1.415 . S
C2268 C2267 1.355 . S
C2268 C2270 1.419 . S
C2269 C2264 1.425 . S
C2269 C2266 1.409 . S
C2269 C2267 1.415 . S
C2270 H2260 0.930 . S
C2270 C2268 1.419 . S
C2270 C2271 1.362 . S
C2271 H2261 0.930 . S
C2271 C2264 1.409 . S
C2271 C2270 1.362 . S
H2272 C2278 0.930 . S
H2273 C2281 0.930 . S
H2274 C2282 0.930 . S
H2275 C2283 0.930 . S
H2276 C2286 0.930 . S
H2277 C2287 0.930 . S
C2278 H2272 0.930 . S
C2278 C2279 1.355 . S
C2278 C2280 1.415 . S
C2279 C2278 1.355 . S
C2279 C2281 1.419 . S
C2280 C2278 1.415 . S
C2280 C2285 1.425 . S
C2280 C2287 1.409 . S
C2281 H2273 0.930 . S
C2281 C2279 1.419 . S
C2281 C2282 1.362 . S
C2282 H2274 0.930 . S
C2282 C2281 1.362 . S
C2282 C2285 1.409 . S
C2283 H2275 0.930 . S
C2283 C2284 1.355 . S
C2283 C2285 1.415 . S
C2284 C2283 1.355 . S
C2284 C2286 1.419 . S
C2285 C2280 1.425 . S
C2285 C2282 1.409 . S
C2285 C2283 1.415 . S
C2286 H2276 0.930 . S
C2286 C2284 1.419 . S
C2286 C2287 1.362 . S
C2287 H2277 0.930 . S
C2287 C2280 1.409 . S
C2287 C2286 1.362 . S
H2288 C2294 0.930 . S
H2289 C2297 0.930 . S
H2290 C2298 0.930 . S
H2291 C2299 0.930 . S
H2292 C2302 0.930 . S
H2293 C2303 0.930 . S
C2294 H2288 0.930 . S
C2294 C2295 1.355 . S
C2294 C2296 1.415 . S
C2295 C2294 1.355 . S
C2295 C2297 1.419 . S
C2296 C2294 1.415 . S
C2296 C2301 1.425 . S
C2296 C2303 1.409 . S
C2297 H2289 0.930 . S
C2297 C2295 1.419 . S
C2297 C2298 1.362 . S
C2298 H2290 0.930 . S
C2298 C2297 1.362 . S
C2298 C2301 1.409 . S
C2299 H2291 0.930 . S
C2299 C2300 1.355 . S
C2299 C2301 1.415 . S
C2300 C2299 1.355 . S
C2300 C2302 1.419 . S
C2301 C2296 1.425 . S
C2301 C2298 1.409 . S
C2301 C2299 1.415 . S
C2302 H2292 0.930 . S
C2302 C2300 1.419 . S
C2302 C2303 1.362 . S
C2303 H2293 0.930 . S
C2303 C2296 1.409 . S
C2303 C2302 1.362 . S
H2304 C2310 0.930 . S
H2305 C2313 0.930 . S
H2306 C2314 0.930 . S
H2307 C2315 0.930 . S
H2308 C2318 0.930 . S
H2309 C2319 0.930 . S
C2310 H2304 0.930 . S
C2310 C2311 1.355 . S
C2310 C2312 1.415 . S
C2311 C2310 1.355 . S
C2311 C2313 1.419 . S
C2312 C2310 1.415 . S
C2312 C2317 1.425 . S
C2312 C2319 1.409 . S
C2313 H2305 0.930 . S
C2313 C2311 1.419 . S
C2313 C2314 1.362 . S
C2314 H2306 0.930 . S
C2314 C2313 1.362 . S
C2314 C2317 1.409 . S
C2315 H2307 0.930 . S
C2315 C2316 1.355 . S
C2315 C2317 1.415 . S
C2316 C2315 1.355 . S
C2316 C2318 1.419 . S
C2317 C2312 1.425 . S
C2317 C2314 1.409 . S
C2317 C2315 1.415 . S
C2318 H2308 0.930 . S
C2318 C2316 1.419 . S
C2318 C2319 1.362 . S
C2319 H2309 0.930 . S
C2319 C2312 1.409 . S
C2319 C2318 1.362 . S
H2320 C2326 0.930 . S
H2321 C2329 0.930 . S
H2322 C2330 0.930 . S
H2323 C2331 0.930 . S
H2324 C2334 0.930 . S
H2325 C2335 0.930 . S
C2326 H2320 0.930 . S
C2326 C2327 1.355 . S
C2326 C2328 1.415 . S
C2327 C2326 1.355 . S
C2327 C2329 1.419 . S
C2328 C2326 1.415 . S
C2328 C2333 1.425 . S
C2328 C2335 1.409 . S
C2329 H2321 0.930 . S
C2329 C2327 1.419 . S
C2329 C2330 1.362 . S
C2330 H2322 0.930 . S
C2330 C2329 1.362 . S
C2330 C2333 1.409 . S
C2331 H2323 0.930 . S
C2331 C2332 1.355 . S
C2331 C2333 1.415 . S
C2332 C2331 1.355 . S
C2332 C2334 1.419 . S
C2333 C2328 1.425 . S
C2333 C2330 1.409 . S
C2333 C2331 1.415 . S
C2334 H2324 0.930 . S
C2334 C2332 1.419 . S
C2334 C2335 1.362 . S
C2335 H2325 0.930 . S
C2335 C2328 1.409 . S
C2335 C2334 1.362 . S
H2336 C2342 0.930 . S
H2337 C2345 0.930 . S
H2338 C2346 0.930 . S
H2339 C2347 0.930 . S
H2340 C2350 0.930 . S
H2341 C2351 0.930 . S
C2342 H2336 0.930 . S
C2342 C2343 1.355 . S
C2342 C2344 1.415 . S
C2343 C2342 1.355 . S
C2343 C2345 1.419 . S
C2344 C2342 1.415 . S
C2344 C2349 1.425 . S
C2344 C2351 1.409 . S
C2345 H2337 0.930 . S
C2345 C2343 1.419 . S
C2345 C2346 1.362 . S
C2346 H2338 0.930 . S
C2346 C2345 1.362 . S
C2346 C2349 1.409 . S
C2347 H2339 0.930 . S
C2347 C2348 1.355 . S
C2347 C2349 1.415 . S
C2348 C2347 1.355 . S
C2348 C2350 1.419 . S
C2349 C2344 1.425 . S
C2349 C2346 1.409 . S
C2349 C2347 1.415 . S
C2350 H2340 0.930 . S
C2350 C2348 1.419 . S
C2350 C2351 1.362 . S
C2351 H2341 0.930 . S
C2351 C2344 1.409 . S
C2351 C2350 1.362 . S
H2352 C2358 0.930 . S
H2353 C2361 0.930 . S
H2354 C2362 0.930 . S
H2355 C2363 0.930 . S
H2356 C2366 0.930 . S
H2357 C2367 0.930 . S
C2358 H2352 0.930 . S
C2358 C2359 1.355 . S
C2358 C2360 1.415 . S
C2359 C2358 1.355 . S
C2359 C2361 1.419 . S
C2360 C2358 1.415 . S
C2360 C2365 1.425 . S
C2360 C2367 1.409 . S
C2361 H2353 0.930 . S
C2361 C2359 1.419 . S
C2361 C2362 1.362 . S
C2362 H2354 0.930 . S
C2362 C2361 1.362 . S
C2362 C2365 1.409 . S
C2363 H2355 0.930 . S
C2363 C2364 1.355 . S
C2363 C2365 1.415 . S
C2364 C2363 1.355 . S
C2364 C2366 1.419 . S
C2365 C2360 1.425 . S
C2365 C2362 1.409 . S
C2365 C2363 1.415 . S
C2366 H2356 0.930 . S
C2366 C2364 1.419 . S
C2366 C2367 1.362 . S
C2367 H2357 0.930 . S
C2367 C2360 1.409 . S
C2367 C2366 1.362 . S
H2368 C2374 0.930 . S
H2369 C2377 0.930 . S
H2370 C2378 0.930 . S
H2371 C2379 0.930 . S
H2372 C2382 0.930 . S
H2373 C2383 0.930 . S
C2374 H2368 0.930 . S
C2374 C2375 1.355 . S
C2374 C2376 1.415 . S
C2375 C2374 1.355 . S
C2375 C2377 1.419 . S
C2376 C2374 1.415 . S
C2376 C2381 1.425 . S
C2376 C2383 1.409 . S
C2377 H2369 0.930 . S
C2377 C2375 1.419 . S
C2377 C2378 1.362 . S
C2378 H2370 0.930 . S
C2378 C2377 1.362 . S
C2378 C2381 1.409 . S
C2379 H2371 0.930 . S
C2379 C2380 1.355 . S
C2379 C2381 1.415 . S
C2380 C2379 1.355 . S
C2380 C2382 1.419 . S
C2381 C2376 1.425 . S
C2381 C2378 1.409 . S
C2381 C2379 1.415 . S
C2382 H2372 0.930 . S
C2382 C2380 1.419 . S
C2382 C2383 1.362 . S
C2383 H2373 0.930 . S
C2383 C2376 1.409 . S
C2383 C2382 1.362 . S
H2384 C2390 0.930 . S
H2385 C2393 0.930 . S
H2386 C2394 0.930 . S
H2387 C2395 0.930 . S
H2388 C2398 0.930 . S
H2389 C2399 0.930 . S
C2390 H2384 0.930 . S
C2390 C2391 1.355 . S
C2390 C2392 1.415 . S
C2391 C2390 1.355 . S
C2391 C2393 1.419 . S
C2392 C2390 1.415 . S
C2392 C2397 1.425 . S
C2392 C2399 1.409 . S
C2393 H2385 0.930 . S
C2393 C2391 1.419 . S
C2393 C2394 1.362 . S
C2394 H2386 0.930 . S
C2394 C2393 1.362 . S
C2394 C2397 1.409 . S
C2395 H2387 0.930 . S
C2395 C2396 1.355 . S
C2395 C2397 1.415 . S
C2396 C2395 1.355 . S
C2396 C2398 1.419 . S
C2397 C2392 1.425 . S
C2397 C2394 1.409 . S
C2397 C2395 1.415 . S
C2398 H2388 0.930 . S
C2398 C2396 1.419 . S
C2398 C2399 1.362 . S
C2399 H2389 0.930 . S
C2399 C2392 1.409 . S
C2399 C2398 1.362 . S
H2400 C2406 0.930 . S
H2401 C2409 0.930 . S
H2402 C2410 0.930 . S
H2403 C2411 0.930 . S
H2404 C2414 0.930 . S
H2405 C2415 0.930 . S
C2406 H2400 0.930 . S
C2406 C2407 1.355 . S
C2406 C2408 1.415 . S
C2407 C2406 1.355 . S
C2407 C2409 1.419 . S
C2408 C2406 1.415 . S
C2408 C2413 1.425 . S
C2408 C2415 1.409 . S
C2409 H2401 0.930 . S
C2409 C2407 1.419 . S
C2409 C2410 1.362 . S
C2410 H2402 0.930 . S
C2410 C2409 1.362 . S
C2410 C2413 1.409 . S
C2411 H2403 0.930 . S
C2411 C2412 1.355 . S
C2411 C2413 1.415 . S
C2412 C2411 1.355 . S
C2412 C2414 1.419 . S
C2413 C2408 1.425 . S
C2413 C2410 1.409 . S
C2413 C2411 1.415 . S
C2414 H2404 0.930 . S
C2414 C2412 1.419 . S
C2414 C2415 1.362 . S
C2415 H2405 0.930 . S
C2415 C2408 1.409 . S
C2415 C2414 1.362 . S
H2416 C2422 0.930 . S
H2417 C2425 0.930 . S
H2418 C2426 0.930 . S
H2419 C2427 0.930 . S
H2420 C2430 0.930 . S
H2421 C2431 0.930 . S
C2422 H2416 0.930 . S
C2422 C2423 1.355 . S
C2422 C2424 1.415 . S
C2423 C2422 1.355 . S
C2423 C2425 1.419 . S
C2424 C2422 1.415 . S
C2424 C2429 1.425 . S
C2424 C2431 1.409 . S
C2425 H2417 0.930 . S
C2425 C2423 1.419 . S
C2425 C2426 1.362 . S
C2426 H2418 0.930 . S
C2426 C2425 1.362 . S
C2426 C2429 1.409 . S
C2427 H2419 0.930 . S
C2427 C2428 1.355 . S
C2427 C2429 1.415 . S
C2428 C2427 1.355 . S
C2428 C2430 1.419 . S
C2429 C2424 1.425 . S
C2429 C2426 1.409 . S
C2429 C2427 1.415 . S
C2430 H2420 0.930 . S
C2430 C2428 1.419 . S
C2430 C2431 1.362 . S
C2431 H2421 0.930 . S
C2431 C2424 1.409 . S
C2431 C2430 1.362 . S
H2432 C2438 0.930 . S
H2433 C2441 0.930 . S
H2434 C2442 0.930 . S
H2435 C2443 0.930 . S
H2436 C2446 0.930 . S
H2437 C2447 0.930 . S
C2438 H2432 0.930 . S
C2438 C2439 1.355 . S
C2438 C2440 1.415 . S
C2439 C2438 1.355 . S
C2439 C2441 1.419 . S
C2440 C2438 1.415 . S
C2440 C2445 1.425 . S
C2440 C2447 1.409 . S
C2441 H2433 0.930 . S
C2441 C2439 1.419 . S
C2441 C2442 1.362 . S
C2442 H2434 0.930 . S
C2442 C2441 1.362 . S
C2442 C2445 1.409 . S
C2443 H2435 0.930 . S
C2443 C2444 1.355 . S
C2443 C2445 1.415 . S
C2444 C2443 1.355 . S
C2444 C2446 1.419 . S
C2445 C2440 1.425 . S
C2445 C2442 1.409 . S
C2445 C2443 1.415 . S
C2446 H2436 0.930 . S
C2446 C2444 1.419 . S
C2446 C2447 1.362 . S
C2447 H2437 0.930 . S
C2447 C2440 1.409 . S
C2447 C2446 1.362 . S
H2448 C2454 0.930 . S
H2449 C2457 0.930 . S
H2450 C2458 0.930 . S
H2451 C2459 0.930 . S
H2452 C2462 0.930 . S
H2453 C2463 0.930 . S
C2454 H2448 0.930 . S
C2454 C2455 1.355 . S
C2454 C2456 1.415 . S
C2455 C2454 1.355 . S
C2455 C2457 1.419 . S
C2456 C2454 1.415 . S
C2456 C2461 1.425 . S
C2456 C2463 1.409 . S
C2457 H2449 0.930 . S
C2457 C2455 1.419 . S
C2457 C2458 1.362 . S
C2458 H2450 0.930 . S
C2458 C2457 1.362 . S
C2458 C2461 1.409 . S
C2459 H2451 0.930 . S
C2459 C2460 1.355 . S
C2459 C2461 1.415 . S
C2460 C2459 1.355 . S
C2460 C2462 1.419 . S
C2461 C2456 1.425 . S
C2461 C2458 1.409 . S
C2461 C2459 1.415 . S
C2462 H2452 0.930 . S
C2462 C2460 1.419 . S
C2462 C2463 1.362 . S
C2463 H2453 0.930 . S
C2463 C2456 1.409 . S
C2463 C2462 1.362 . S
H2464 C2470 0.930 . S
H2465 C2473 0.930 . S
H2466 C2474 0.930 . S
H2467 C2475 0.930 . S
H2468 C2478 0.930 . S
H2469 C2479 0.930 . S
C2470 H2464 0.930 . S
C2470 C2471 1.355 . S
C2470 C2472 1.415 . S
C2471 C2470 1.355 . S
C2471 C2473 1.419 . S
C2472 C2470 1.415 . S
C2472 C2477 1.425 . S
C2472 C2479 1.409 . S
C2473 H2465 0.930 . S
C2473 C2471 1.419 . S
C2473 C2474 1.362 . S
C2474 H2466 0.930 . S
C2474 C2473 1.362 . S
C2474 C2477 1.409 . S
C2475 H2467 0.930 . S
C2475 C2476 1.355 . S
C2475 C2477 1.415 . S
C2476 C2475 1.355 . S
C2476 C2478 1.419 . S
C2477 C2472 1.425 . S
C2477 C2474 1.409 . S
C2477 C2475 1.415 . S
C2478 H2468 0.930 . S
C2478 C2476 1.419 . S
C2478 C2479 1.362 . S
C2479 H2469 0.930 . S
C2479 C2472 1.409 . S
C2479 C2478 1.362 . S
H2480 C2486 0.930 . S
H2481 C2489 0.930 . S
H2482 C2490 0.930 . S
H2483 C2491 0.930 . S
H2484 C2494 0.930 . S
H2485 C2495 0.930 . S
C2486 H2480 0.930 . S
C2486 C2487 1.355 . S
C2486 C2488 1.415 . S
C2487 C2486 1.355 . S
C2487 C2489 1.419 . S
C2488 C2486 1.415 . S
C2488 C2493 1.425 . S
C2488 C2495 1.409 . S
C2489 H2481 0.930 . S
C2489 C2487 1.419 . S
C2489 C2490 1.362 . S
C2490 H2482 0.930 . S
C2490 C2489 1.362 . S
C2490 C2493 1.409 . S
C2491 H2483 0.930 . S
C2491 C2492 1.355 . S
C2491 C2493 1.415 . S
C2492 C2491 1.355 . S
C2492 C2494 1.419 . S
C2493 C2488 1.425 . S
C2493 C2490 1.409 . S
C2493 C2491 1.415 . S
C2494 H2484 0.930 . S
C2494 C2492 1.419 . S
C2494 C2495 1.362 . S
C2495 H2485 0.930 . S
C2495 C2488 1.409 . S
C2495 C2494 1.362 . S
H2496 C2502 0.930 . S
H2497 C2505 0.930 . S
H2498 C2506 0.930 . S
H2499 C2507 0.930 . S
H2500 C2510 0.930 . S
H2501 C2511 0.930 . S
C2502 H2496 0.930 . S
C2502 C2503 1.355 . S
C2502 C2504 1.415 . S
C2503 C2502 1.355 . S
C2503 C2505 1.419 . S
C2504 C2502 1.415 . S
C2504 C2509 1.425 . S
C2504 C2511 1.409 . S
C2505 H2497 0.930 . S
C2505 C2503 1.419 . S
C2505 C2506 1.362 . S
C2506 H2498 0.930 . S
C2506 C2505 1.362 . S
C2506 C2509 1.409 . S
C2507 H2499 0.930 . S
C2507 C2508 1.355 . S
C2507 C2509 1.415 . S
C2508 C2507 1.355 . S
C2508 C2510 1.419 . S
C2509 C2504 1.425 . S
C2509 C2506 1.409 . S
C2509 C2507 1.415 . S
C2510 H2500 0.930 . S
C2510 C2508 1.419 . S
C2510 C2511 1.362 . S
C2511 H2501 0.930 . S
C2511 C2504 1.409 . S
C2511 C2510 1.362 . S
H2512 C2518 0.930 . S
H2513 C2521 0.930 . S
H2514 C2522 0.930 . S
H2515 C2523 0.930 . S
H2516 C2526 0.930 . S
H2517 C2527 0.930 . S
C2518 H2512 0.930 . S
C2518 C2519 1.355 . S
C2518 C2520 1.415 . S
C2519 C2518 1.355 . S
C2519 C2521 1.419 . S
C2520 C2518 1.415 . S
C2520 C2525 1.425 . S
C2520 C2527 1.409 . S
C2521 H2513 0.930 . S
C2521 C2519 1.419 . S
C2521 C2522 1.362 . S
C2522 H2514 0.930 . S
C2522 C2521 1.362 . S
C2522 C2525 1.409 . S
C2523 H2515 0.930 . S
C2523 C2524 1.355 . S
C2523 C2525 1.415 . S
C2524 C2523 1.355 . S
C2524 C2526 1.419 . S
C2525 C2520 1.425 . S
C2525 C2522 1.409 . S
C2525 C2523 1.415 . S
C2526 H2516 0.930 . S
C2526 C2524 1.419 . S
C2526 C2527 1.362 . S
C2527 H2517 0.930 . S
C2527 C2520 1.409 . S
C2527 C2526 1.362 . S
H2528 C2534 0.930 . S
H2529 C2537 0.930 . S
H2530 C2538 0.930 . S
H2531 C2539 0.930 . S
H2532 C2542 0.930 . S
H2533 C2543 0.930 . S
C2534 H2528 0.930 . S
C2534 C2535 1.355 . S
C2534 C2536 1.415 . S
C2535 C2534 1.355 . S
C2535 C2537 1.419 . S
C2536 C2534 1.415 . S
C2536 C2541 1.425 . S
C2536 C2543 1.409 . S
C2537 H2529 0.930 . S
C2537 C2535 1.419 . S
C2537 C2538 1.362 . S
C2538 H2530 0.930 . S
C2538 C2537 1.362 . S
C2538 C2541 1.409 . S
C2539 H2531 0.930 . S
C2539 C2540 1.355 . S
C2539 C2541 1.415 . S
C2540 C2539 1.355 . S
C2540 C2542 1.419 . S
C2541 C2536 1.425 . S
C2541 C2538 1.409 . S
C2541 C2539 1.415 . S
C2542 H2532 0.930 . S
C2542 C2540 1.419 . S
C2542 C2543 1.362 . S
C2543 H2533 0.930 . S
C2543 C2536 1.409 . S
C2543 C2542 1.362 . S
H2544 C2550 0.930 . S
H2545 C2553 0.930 . S
H2546 C2554 0.930 . S
H2547 C2555 0.930 . S
H2548 C2558 0.930 . S
H2549 C2559 0.930 . S
C2550 H2544 0.930 . S
C2550 C2551 1.355 . S
C2550 C2552 1.415 . S
C2551 C2550 1.355 . S
C2551 C2553 1.419 . S
C2552 C2550 1.415 . S
C2552 C2557 1.425 . S
C2552 C2559 1.409 . S
C2553 H2545 0.930 . S
C2553 C2551 1.419 . S
C2553 C2554 1.362 . S
C2554 H2546 0.930 . S
C2554 C2553 1.362 . S
C2554 C2557 1.409 . S
C2555 H2547 0.930 . S
C2555 C2556 1.355 . S
C2555 C2557 1.415 . S
C2556 C2555 1.355 . S
C2556 C2558 1.419 . S
C2557 C2552 1.425 . S
C2557 C2554 1.409 . S
C2557 C2555 1.415 . S
C2558 H2548 0.930 . S
C2558 C2556 1.419 . S
C2558 C2559 1.362 . S
C2559 H2549 0.930 . S
C2559 C2552 1.409 . S
C2559 C2558 1.362 . S
H2560 C2566 0.930 . S
H2561 C2569 0.930 . S
H2562 C2570 0.930 . S
H2563 C2571 0.930 . S
H2564 C2574 0.930 . S
H2565 C2575 0.930 . S
C2566 H2560 0.930 . S
C2566 C2567 1.355 . S
C2566 C2568 1.415 . S
C2567 C2566 1.355 . S
C2567 C2569 1.419 . S
C2568 C2566 1.415 . S
C2568 C2573 1.425 . S
C2568 C2575 1.409 . S
C2569 H2561 0.930 . S
C2569 C2567 1.419 . S
C2569 C2570 1.362 . S
C2570 H2562 0.930 . S
C2570 C2569 1.362 . S
C2570 C2573 1.409 . S
C2571 H2563 0.930 . S
C2571 C2572 1.355 . S
C2571 C2573 1.415 . S
C2572 C2571 1.355 . S
C2572 C2574 1.419 . S
C2573 C2568 1.425 . S
C2573 C2570 1.409 . S
C2573 C2571 1.415 . S
C2574 H2564 0.930 . S
C2574 C2572 1.419 . S
C2574 C2575 1.362 . S
C2575 H2565 0.930 . S
C2575 C2568 1.409 . S
C2575 C2574 1.362 . S
H2576 C2582 0.930 . S
H2577 C2585 0.930 . S
H2578 C2586 0.930 . S
H2579 C2587 0.930 . S
H2580 C2590 0.930 . S
H2581 C2591 0.930 . S
C2582 H2576 0.930 . S
C2582 C2583 1.355 . S
C2582 C2584 1.415 . S
C2583 C2582 1.355 . S
C2583 C2585 1.419 . S
C2584 C2582 1.415 . S
C2584 C2589 1.425 . S
C2584 C2591 1.409 . S
C2585 H2577 0.930 . S
C2585 C2583 1.419 . S
C2585 C2586 1.362 . S
C2586 H2578 0.930 . S
C2586 C2585 1.362 . S
C2586 C2589 1.409 . S
C2587 H2579 0.930 . S
C2587 C2588 1.355 . S
C2587 C2589 1.415 . S
C2588 C2587 1.355 . S
C2588 C2590 1.419 . S
C2589 C2584 1.425 . S
C2589 C2586 1.409 . S
C2589 C2587 1.415 . S
C2590 H2580 0.930 . S
C2590 C2588 1.419 . S
C2590 C2591 1.362 . S
C2591 H2581 0.930 . S
C2591 C2584 1.409 . S
C2591 C2590 1.362 . S
H2592 C2598 0.930 . S
H2593 C2601 0.930 . S
H2594 C2602 0.930 . S
H2595 C2603 0.930 . S
H2596 C2606 0.930 . S
H2597 C2607 0.930 . S
C2598 H2592 0.930 . S
C2598 C2599 1.355 . S
C2598 C2600 1.415 . S
C2599 C2598 1.355 . S
C2599 C2601 1.419 . S
C2600 C2598 1.415 . S
C2600 C2605 1.425 . S
C2600 C2607 1.409 . S
C2601 H2593 0.930 . S
C2601 C2599 1.419 . S
C2601 C2602 1.362 . S
C2602 H2594 0.930 . S
C2602 C2601 1.362 . S
C2602 C2605 1.409 . S
C2603 H2595 0.930 . S
C2603 C2604 1.355 . S
C2603 C2605 1.415 . S
C2604 C2603 1.355 . S
C2604 C2606 1.419 . S
C2605 C2600 1.425 . S
C2605 C2602 1.409 . S
C2605 C2603 1.415 . S
C2606 H2596 0.930 . S
C2606 C2604 1.419 . S
C2606 C2607 1.362 . S
C2607 H2597 0.930 . S
C2607 C2600 1.409 . S
C2607 C2606 1.362 . S
H2608 C2614 0.930 . S
H2609 C2617 0.930 . S
H2610 C2618 0.930 . S
H2611 C2619 0.930 . S
H2612 C2622 0.930 . S
H2613 C2623 0.930 . S
C2614 H2608 0.930 . S
C2614 C2615 1.355 . S
C2614 C2616 1.415 . S
C2615 C2614 1.355 . S
C2615 C2617 1.419 . S
C2616 C2614 1.415 . S
C2616 C2621 1.425 . S
C2616 C2623 1.409 . S
C2617 H2609 0.930 . S
C2617 C2615 1.419 . S
C2617 C2618 1.362 . S
C2618 H2610 0.930 . S
C2618 C2617 1.362 . S
C2618 C2621 1.409 . S
C2619 H2611 0.930 . S
C2619 C2620 1.355 . S
C2619 C2621 1.415 . S
C2620 C2619 1.355 . S
C2620 C2622 1.419 . S
C2621 C2616 1.425 . S
C2621 C2618 1.409 . S
C2621 C2619 1.415 . S
C2622 H2612 0.930 . S
C2622 C2620 1.419 . S
C2622 C2623 1.362 . S
C2623 H2613 0.930 . S
C2623 C2616 1.409 . S
C2623 C2622 1.362 . S
H2624 C2630 0.930 . S
H2625 C2633 0.930 . S
H2626 C2634 0.930 . S
H2627 C2635 0.930 . S
H2628 C2638 0.930 . S
H2629 C2639 0.930 . S
C2630 H2624 0.930 . S
C2630 C2631 1.355 . S
C2630 C2632 1.415 . S
C2631 C2630 1.355 . S
C2631 C2633 1.419 . S
C2632 C2630 1.415 . S
C2632 C2637 1.425 . S
C2632 C2639 1.409 . S
C2633 H2625 0.930 . S
C2633 C2631 1.419 . S
C2633 C2634 1.362 . S
C2634 H2626 0.930 . S
C2634 C2633 1.362 . S
C2634 C2637 1.409 . S
C2635 H2627 0.930 . S
C2635 C2636 1.355 . S
C2635 C2637 1.415 . S
C2636 C2635 1.355 . S
C2636 C2638 1.419 . S
C2637 C2632 1.425 . S
C2637 C2634 1.409 . S
C2637 C2635 1.415 . S
C2638 H2628 0.930 . S
C2638 C2636 1.419 . S
C2638 C2639 1.362 . S
C2639 H2629 0.930 . S
C2639 C2632 1.409 . S
C2639 C2638 1.362 . S
H2640 C2646 0.930 . S
H2641 C2649 0.930 . S
H2642 C2650 0.930 . S
H2643 C2651 0.930 . S
H2644 C2654 0.930 . S
H2645 C2655 0.930 . S
C2646 H2640 0.930 . S
C2646 C2647 1.355 . S
C2646 C2648 1.415 . S
C2647 C2646 1.355 . S
C2647 C2649 1.419 . S
C2648 C2646 1.415 . S
C2648 C2653 1.425 . S
C2648 C2655 1.409 . S
C2649 H2641 0.930 . S
C2649 C2647 1.419 . S
C2649 C2650 1.362 . S
C2650 H2642 0.930 . S
C2650 C2649 1.362 . S
C2650 C2653 1.409 . S
C2651 H2643 0.930 . S
C2651 C2652 1.355 . S
C2651 C2653 1.415 . S
C2652 C2651 1.355 . S
C2652 C2654 1.419 . S
C2653 C2648 1.425 . S
C2653 C2650 1.409 . S
C2653 C2651 1.415 . S
C2654 H2644 0.930 . S
C2654 C2652 1.419 . S
C2654 C2655 1.362 . S
C2655 H2645 0.930 . S
C2655 C2648 1.409 . S
C2655 C2654 1.362 . S
H2656 C2662 0.930 . S
H2657 C2665 0.930 . S
H2658 C2666 0.930 . S
H2659 C2667 0.930 . S
H2660 C2670 0.930 . S
H2661 C2671 0.930 . S
C2662 H2656 0.930 . S
C2662 C2663 1.355 . S
C2662 C2664 1.415 . S
C2663 C2662 1.355 . S
C2663 C2665 1.419 . S
C2664 C2662 1.415 . S
C2664 C2669 1.425 . S
C2664 C2671 1.409 . S
C2665 H2657 0.930 . S
C2665 C2663 1.419 . S
C2665 C2666 1.362 . S
C2666 H2658 0.930 . S
C2666 C2665 1.362 . S
C2666 C2669 1.409 . S
C2667 H2659 0.930 . S
C2667 C2668 1.355 . S
C2667 C2669 1.415 . S
C2668 C2667 1.355 . S
C2668 C2670 1.419 . S
C2669 C2664 1.425 . S
C2669 C2666 1.409 . S
C2669 C2667 1.415 . S
C2670 H2660 0.930 . S
C2670 C2668 1.419 . S
C2670 C2671 1.362 . S
C2671 H2661 0.930 . S
C2671 C2664 1.409 . S
C2671 C2670 1.362 . S
H2672 C2678 0.930 . S
H2673 C2681 0.930 . S
H2674 C2682 0.930 . S
H2675 C2683 0.930 . S
H2676 C2686 0.930 . S
H2677 C2687 0.930 . S
C2678 H2672 0.930 . S
C2678 C2679 1.355 . S
C2678 C2680 1.415 . S
C2679 C2678 1.355 . S
C2679 C2681 1.419 . S
C2680 C2678 1.415 . S
C2680 C2685 1.425 . S
C2680 C2687 1.409 . S
C2681 H2673 0.930 . S
C2681 C2679 1.419 . S
C2681 C2682 1.362 . S
C2682 H2674 0.930 . S
C2682 C2681 1.362 . S
C2682 C2685 1.409 . S
C2683 H2675 0.930 . S
C2683 C2684 1.355 . S
C2683 C2685 1.415 . S
C2684 C2683 1.355 . S
C2684 C2686 1.419 . S
C2685 C2680 1.425 . S
C2685 C2682 1.409 . S
C2685 C2683 1.415 . S
C2686 H2676 0.930 . S
C2686 C2684 1.419 . S
C2686 C2687 1.362 . S
C2687 H2677 0.930 . S
C2687 C2680 1.409 . S
C2687 C2686 1.362 . S
H2688 C2694 0.930 . S
H2689 C2697 0.930 . S
H2690 C2698 0.930 . S
H2691 C2699 0.930 . S
H2692 C2702 0.930 . S
H2693 C2703 0.930 . S
C2694 H2688 0.930 . S
C2694 C2695 1.355 . S
C2694 C2696 1.415 . S
C2695 C2694 1.355 . S
C2695 C2697 1.419 . S
C2696 C2694 1.415 . S
C2696 C2701 1.425 . S
C2696 C2703 1.409 . S
C2697 H2689 0.930 . S
C2697 C2695 1.419 . S
C2697 C2698 1.362 . S
C2698 H2690 0.930 . S
C2698 C2697 1.362 . S
C2698 C2701 1.409 . S
C2699 H2691 0.930 . S
C2699 C2700 1.355 . S
C2699 C2701 1.415 . S
C2700 C2699 1.355 . S
C2700 C2702 1.419 . S
C2701 C2696 1.425 . S
C2701 C2698 1.409 . S
C2701 C2699 1.415 . S
C2702 H2692 0.930 . S
C2702 C2700 1.419 . S
C2702 C2703 1.362 . S
C2703 H2693 0.930 . S
C2703 C2696 1.409 . S
C2703 C2702 1.362 . S
H2704 C2710 0.930 . S
H2705 C2713 0.930 . S
H2706 C2714 0.930 . S
H2707 C2715 0.930 . S
H2708 C2718 0.930 . S
H2709 C2719 0.930 . S
C2710 H2704 0.930 . S
C2710 C2711 1.355 . S
C2710 C2712 1.415 . S
C2711 C2710 1.355 . S
C2711 C2713 1.419 . S
C2712 C2710 1.415 . S
C2712 C2717 1.425 . S
C2712 C2719 1.409 . S
C2713 H2705 0.930 . S
C2713 C2711 1.419 . S
C2713 C2714 1.362 . S
C2714 H2706 0.930 . S
C2714 C2713 1.362 . S
C2714 C2717 1.409 . S
C2715 H2707 0.930 . S
C2715 C2716 1.355 . S
C2715 C2717 1.415 . S
C2716 C2715 1.355 . S
C2716 C2718 1.419 . S
C2717 C2712 1.425 . S
C2717 C2714 1.409 . S
C2717 C2715 1.415 . S
C2718 H2708 0.930 . S
C2718 C2716 1.419 . S
C2718 C2719 1.362 . S
C2719 H2709 0.930 . S
C2719 C2712 1.409 . S
C2719 C2718 1.362 . S
H2720 C2726 0.930 . S
H2721 C2729 0.930 . S
H2722 C2730 0.930 . S
H2723 C2731 0.930 . S
H2724 C2734 0.930 . S
H2725 C2735 0.930 . S
C2726 H2720 0.930 . S
C2726 C2727 1.355 . S
C2726 C2728 1.415 . S
C2727 C2726 1.355 . S
C2727 C2729 1.419 . S
C2728 C2726 1.415 . S
C2728 C2733 1.425 . S
C2728 C2735 1.409 . S
C2729 H2721 0.930 . S
C2729 C2727 1.419 . S
C2729 C2730 1.362 . S
C2730 H2722 0.930 . S
C2730 C2729 1.362 . S
C2730 C2733 1.409 . S
C2731 H2723 0.930 . S
C2731 C2732 1.355 . S
C2731 C2733 1.415 . S
C2732 C2731 1.355 . S
C2732 C2734 1.419 . S
C2733 C2728 1.425 . S
C2733 C2730 1.409 . S
C2733 C2731 1.415 . S
C2734 H2724 0.930 . S
C2734 C2732 1.419 . S
C2734 C2735 1.362 . S
C2735 H2725 0.930 . S
C2735 C2728 1.409 . S
C2735 C2734 1.362 . S
H2736 C2742 0.930 . S
H2737 C2745 0.930 . S
H2738 C2746 0.930 . S
H2739 C2747 0.930 . S
H2740 C2750 0.930 . S
H2741 C2751 0.930 . S
C2742 H2736 0.930 . S
C2742 C2743 1.355 . S
C2742 C2744 1.415 . S
C2743 C2742 1.355 . S
C2743 C2745 1.419 . S
C2744 C2742 1.415 . S
C2744 C2749 1.425 . S
C2744 C2751 1.409 . S
C2745 H2737 0.930 . S
C2745 C2743 1.419 . S
C2745 C2746 1.362 . S
C2746 H2738 0.930 . S
C2746 C2745 1.362 . S
C2746 C2749 1.409 . S
C2747 H2739 0.930 . S
C2747 C2748 1.355 . S
C2747 C2749 1.415 . S
C2748 C2747 1.355 . S
C2748 C2750 1.419 . S
C2749 C2744 1.425 . S
C2749 C2746 1.409 . S
C2749 C2747 1.415 . S
C2750 H2740 0.930 . S
C2750 C2748 1.419 . S
C2750 C2751 1.362 . S
C2751 H2741 0.930 . S
C2751 C2744 1.409 . S
C2751 C2750 1.362 . S
H2752 C2758 0.930 . S
H2753 C2761 0.930 . S
H2754 C2762 0.930 . S
H2755 C2763 0.930 . S
H2756 C2766 0.930 . S
H2757 C2767 0.930 . S
C2758 H2752 0.930 . S
C2758 C2759 1.355 . S
C2758 C2760 1.415 . S
C2759 C2758 1.355 . S
C2759 C2761 1.419 . S
C2760 C2758 1.415 . S
C2760 C2765 1.425 . S
C2760 C2767 1.409 . S
C2761 H2753 0.930 . S
C2761 C2759 1.419 . S
C2761 C2762 1.362 . S
C2762 H2754 0.930 . S
C2762 C2761 1.362 . S
C2762 C2765 1.409 . S
C2763 H2755 0.930 . S
C2763 C2764 1.355 . S
C2763 C2765 1.415 . S
C2764 C2763 1.355 . S
C2764 C2766 1.419 . S
C2765 C2760 1.425 . S
C2765 C2762 1.409 . S
C2765 C2763 1.415 . S
C2766 H2756 0.930 . S
C2766 C2764 1.419 . S
C2766 C2767 1.362 . S
C2767 H2757 0.930 . S
C2767 C2760 1.409 . S
C2767 C2766 1.362 . S
H2768 C2774 0.930 . S
H2769 C2777 0.930 . S
H2770 C2778 0.930 . S
H2771 C2779 0.930 . S
H2772 C2782 0.930 . S
H2773 C2783 0.930 . S
C2774 H2768 0.930 . S
C2774 C2775 1.355 . S
C2774 C2776 1.415 . S
C2775 C2774 1.355 . S
C2775 C2777 1.419 . S
C2776 C2774 1.415 . S
C2776 C2781 1.425 . S
C2776 C2783 1.409 . S
C2777 H2769 0.930 . S
C2777 C2775 1.419 . S
C2777 C2778 1.362 . S
C2778 H2770 0.930 . S
C2778 C2777 1.362 . S
C2778 C2781 1.409 . S
C2779 H2771 0.930 . S
C2779 C2780 1.355 . S
C2779 C2781 1.415 . S
C2780 C2779 1.355 . S
C2780 C2782 1.419 . S
C2781 C2776 1.425 . S
C2781 C2778 1.409 . S
C2781 C2779 1.415 . S
C2782 H2772 0.930 . S
C2782 C2780 1.419 . S
C2782 C2783 1.362 . S
C2783 H2773 0.930 . S
C2783 C2776 1.409 . S
C2783 C2782 1.362 . S
H2784 C2790 0.930 . S
H2785 C2793 0.930 . S
H2786 C2794 0.930 . S
H2787 C2795 0.930 . S
H2788 C2798 0.930 . S
H2789 C2799 0.930 . S
C2790 H2784 0.930 . S
C2790 C2791 1.355 . S
C2790 C2792 1.415 . S
C2791 C2790 1.355 . S
C2791 C2793 1.419 . S
C2792 C2790 1.415 . S
C2792 C2797 1.425 . S
C2792 C2799 1.409 . S
C2793 H2785 0.930 . S
C2793 C2791 1.419 . S
C2793 C2794 1.362 . S
C2794 H2786 0.930 . S
C2794 C2793 1.362 . S
C2794 C2797 1.409 . S
C2795 H2787 0.930 . S
C2795 C2796 1.355 . S
C2795 C2797 1.415 . S
C2796 C2795 1.355 . S
C2796 C2798 1.419 . S
C2797 C2792 1.425 . S
C2797 C2794 1.409 . S
C2797 C2795 1.415 . S
C2798 H2788 0.930 . S
C2798 C2796 1.419 . S
C2798 C2799 1.362 . S
C2799 H2789 0.930 . S
C2799 C2792 1.409 . S
C2799 C2798 1.362 . S
H2800 C2806 0.930 . S
H2801 C2809 0.930 . S
H2802 C2810 0.930 . S
H2803 C2811 0.930 . S
H2804 C2814 0.930 . S
H2805 C2815 0.930 . S
C2806 H2800 0.930 . S
C2806 C2807 1.355 . S
C2806 C2808 1.415 . S
C2807 C2806 1.355 . S
C2807 C2809 1.419 . S
C2808 C2806 1.415 . S
C2808 C2813 1.425 . S
C2808 C2815 1.409 . S
C2809 H2801 0.930 . S
C2809 C2807 1.419 . S
C2809 C2810 1.362 . S
C2810 H2802 0.930 . S
C2810 C2809 1.362 . S
C2810 C2813 1.409 . S
C2811 H2803 0.930 . S
C2811 C2812 1.355 . S
C2811 C2813 1.415 . S
C2812 C2811 1.355 . S
C2812 C2814 1.419 . S
C2813 C2808 1.425 . S
C2813 C2810 1.409 . S
C2813 C2811 1.415 . S
C2814 H2804 0.930 . S
C2814 C2812 1.419 . S
C2814 C2815 1.362 . S
C2815 H2805 0.930 . S
C2815 C2808 1.409 . S
C2815 C2814 1.362 . S
H2816 C2822 0.930 . S
H2817 C2825 0.930 . S
H2818 C2826 0.930 . S
H2819 C2827 0.930 . S
H2820 C2830 0.930 . S
H2821 C2831 0.930 . S
C2822 H2816 0.930 . S
C2822 C2823 1.355 . S
C2822 C2824 1.415 . S
C2823 C2822 1.355 . S
C2823 C2825 1.419 . S
C2824 C2822 1.415 . S
C2824 C2829 1.425 . S
C2824 C2831 1.409 . S
C2825 H2817 0.930 . S
C2825 C2823 1.419 . S
C2825 C2826 1.362 . S
C2826 H2818 0.930 . S
C2826 C2825 1.362 . S
C2826 C2829 1.409 . S
C2827 H2819 0.930 . S
C2827 C2828 1.355 . S
C2827 C2829 1.415 . S
C2828 C2827 1.355 . S
C2828 C2830 1.419 . S
C2829 C2824 1.425 . S
C2829 C2826 1.409 . S
C2829 C2827 1.415 . S
C2830 H2820 0.930 . S
C2830 C2828 1.419 . S
C2830 C2831 1.362 . S
C2831 H2821 0.930 . S
C2831 C2824 1.409 . S
C2831 C2830 1.362 . S
H2832 C2838 0.930 . S
H2833 C2841 0.930 . S
H2834 C2842 0.930 . S
H2835 C2843 0.930 . S
H2836 C2846 0.930 . S
H2837 C2847 0.930 . S
C2838 H2832 0.930 . S
C2838 C2839 1.355 . S
C2838 C2840 1.415 . S
C2839 C2838 1.355 . S
C2839 C2841 1.419 . S
C2840 C2838 1.415 . S
C2840 C2845 1.425 . S
C2840 C2847 1.409 . S
C2841 H2833 0.930 . S
C2841 C2839 1.419 . S
C2841 C2842 1.362 . S
C2842 H2834 0.930 . S
C2842 C2841 1.362 . S
C2842 C2845 1.409 . S
C2843 H2835 0.930 . S
C2843 C2844 1.355 . S
C2843 C2845 1.415 . S
C2844 C2843 1.355 . S
C2844 C2846 1.419 . S
C2845 C2840 1.425 . S
C2845 C2842 1.409 . S
C2845 C2843 1.415 . S
C2846 H2836 0.930 . S
C2846 C2844 1.419 . S
C2846 C2847 1.362 . S
C2847 H2837 0.930 . S
C2847 C2840 1.409 . S
C2847 C2846 1.362 . S
H2848 C2854 0.930 . S
H2849 C2857 0.930 . S
H2850 C2858 0.930 . S
H2851 C2859 0.930 . S
H2852 C2862 0.930 . S
H2853 C2863 0.930 . S
C2854 H2848 0.930 . S
C2854 C2855 1.355 . S
C2854 C2856 1.415 . S
C2855 C2854 1.355 . S
C2855 C2857 1.419 . S
C2856 C2854 1.415 . S
C2856 C2861 1.425 . S
C2856 C2863 1.409 . S
C2857 H2849 0.930 . S
C2857 C2855 1.419 . S
C2857 C2858 1.362 . S
C2858 H2850 0.930 . S
C2858 C2857 1.362 . S
C2858 C2861 1.409 . S
C2859 H2851 0.930 . S
C2859 C2860 1.355 . S
C2859 C2861 1.415 . S
C2860 C2859 1.355 . S
C2860 C2862 1.419 . S
C2861 C2856 1.425 . S
C2861 C2858 1.409 . S
C2861 C2859 1.415 . S
C2862 H2852 0.930 . S
C2862 C2860 1.419 . S
C2862 C2863 1.362 . S
C2863 H2853 0.930 . S
C2863 C2856 1.409 . S
C2863 C2862 1.362 . S
H2864 C2870 0.930 . S
H2865 C2873 0.930 . S
H2866 C2874 0.930 . S
H2867 C2875 0.930 . S
H2868 C2878 0.930 . S
H2869 C2879 0.930 . S
C2870 H2864 0.930 . S
C2870 C2871 1.355 . S
C2870 C2872 1.415 . S
C2871 C2870 1.355 . S
C2871 C2873 1.419 . S
C2872 C2870 1.415 . S
C2872 C2877 1.425 . S
C2872 C2879 1.409 . S
C2873 H2865 0.930 . S
C2873 C2871 1.419 . S
C2873 C2874 1.362 . S
C2874 H2866 0.930 . S
C2874 C2873 1.362 . S
C2874 C2877 1.409 . S
C2875 H2867 0.930 . S
C2875 C2876 1.355 . S
C2875 C2877 1.415 . S
C2876 C2875 1.355 . S
C2876 C2878 1.419 . S
C2877 C2872 1.425 . S
C2877 C2874 1.409 . S
C2877 C2875 1.415 . S
C2878 H2868 0.930 . S
C2878 C2876 1.419 . S
C2878 C2879 1.362 . S
C2879 H2869 0.930 . S
C2879 C2872 1.409 . S
C2879 C2878 1.362 . S
H2880 C2886 0.930 . S
H2881 C2889 0.930 . S
H2882 C2890 0.906 1_655 S
H2883 C2891 0.930 . S
H2884 C2894 0.930 . S
H2885 C2895 0.930 . S
C2886 H2880 0.930 . S
C2886 C2887 1.355 . S
C2886 C2888 1.415 . S
C2887 C2886 1.355 . S
C2887 C2889 1.419 . S
C2888 C2886 1.415 . S
C2888 C2893 1.425 1_455 S
C2888 C2895 1.409 1_455 S
C2889 H2881 0.930 . S
C2889 C2887 1.419 . S
C2889 C2890 1.362 . S
C2890 H2882 0.906 1_455 S
C2890 C2889 1.362 . S
C2890 C2893 1.409 1_455 S
C2891 H2883 0.930 . S
C2891 C2892 1.355 . S
C2891 C2893 1.415 . S
C2892 C2891 1.355 . S
C2892 C2894 1.419 . S
C2893 C2888 1.425 1_655 S
C2893 C2890 1.409 1_655 S
C2893 C2891 1.415 . S
C2894 H2884 0.930 . S
C2894 C2892 1.419 . S
C2894 C2895 1.362 . S
C2895 H2885 0.930 . S
C2895 C2888 1.409 1_655 S
C2895 C2894 1.362 . S
H2896 C2902 0.930 . S
H2897 C2905 0.930 . S
H2898 C2906 0.930 1_565 S
H2899 C2907 0.930 . S
H2900 C2910 0.930 . S
H2901 C2911 0.930 . S
C2902 H2896 0.930 . S
C2902 C2903 1.355 . S
C2902 C2904 1.415 . S
C2903 C2902 1.355 . S
C2903 C2905 1.419 . S
C2904 C2902 1.415 . S
C2904 C2909 1.425 1_545 S
C2904 C2911 1.409 1_545 S
C2905 H2897 0.930 . S
C2905 C2903 1.419 . S
C2905 C2906 1.362 . S
C2906 H2898 0.930 1_545 S
C2906 C2905 1.362 . S
C2906 C2909 1.409 1_545 S
C2907 H2899 0.930 . S
C2907 C2908 1.355 . S
C2907 C2909 1.415 . S
C2908 C2907 1.355 . S
C2908 C2910 1.419 . S
C2909 C2904 1.425 1_565 S
C2909 C2906 1.409 1_565 S
C2909 C2907 1.415 . S
C2910 H2900 0.930 . S
C2910 C2908 1.419 . S
C2910 C2911 1.362 . S
C2911 H2901 0.930 . S
C2911 C2904 1.409 1_565 S
C2911 C2910 1.362 . S
H2912 C2918 0.930 . S
H2913 C2921 0.930 . S
H2914 C2922 0.930 1_455 S
H2915 C2923 0.930 . S
H2916 C2926 0.930 . S
H2917 C2927 0.930 . S
C2918 H2912 0.930 . S
C2918 C2919 1.355 . S
C2918 C2920 1.415 . S
C2919 C2918 1.355 . S
C2919 C2921 1.419 . S
C2920 C2918 1.415 . S
C2920 C2925 1.425 1_655 S
C2920 C2927 1.409 1_655 S
C2921 H2913 0.930 . S
C2921 C2919 1.419 . S
C2921 C2922 1.362 . S
C2922 H2914 0.930 1_655 S
C2922 C2921 1.362 . S
C2922 C2925 1.409 1_655 S
C2923 H2915 0.930 . S
C2923 C2924 1.355 . S
C2923 C2925 1.415 . S
C2924 C2923 1.355 . S
C2924 C2926 1.419 . S
C2925 C2920 1.425 1_455 S
C2925 C2922 1.409 1_455 S
C2925 C2923 1.415 . S
C2926 H2916 0.930 . S
C2926 C2924 1.419 . S
C2926 C2927 1.362 . S
C2927 H2917 0.930 . S
C2927 C2920 1.409 1_455 S
C2927 C2926 1.362 . S
H2928 C2934 0.930 . S
H2929 C2937 0.930 . S
H2930 C2938 0.925 1_545 S
H2931 C2939 0.930 . S
H2932 C2942 0.930 . S
H2933 C2943 0.930 . S
C2934 H2928 0.930 . S
C2934 C2935 1.355 . S
C2934 C2936 1.415 . S
C2935 C2934 1.355 . S
C2935 C2937 1.419 . S
C2936 C2934 1.415 . S
C2936 C2941 1.425 1_565 S
C2936 C2943 1.409 1_565 S
C2937 H2929 0.930 . S
C2937 C2935 1.419 . S
C2937 C2938 1.362 . S
C2938 H2930 0.925 1_565 S
C2938 C2937 1.362 . S
C2938 C2941 1.409 1_565 S
C2939 H2931 0.930 . S
C2939 C2940 1.355 . S
C2939 C2941 1.415 . S
C2940 C2939 1.355 . S
C2940 C2942 1.419 . S
C2941 C2936 1.425 1_545 S
C2941 C2938 1.409 1_545 S
C2941 C2939 1.415 . S
C2942 H2932 0.930 . S
C2942 C2940 1.419 . S
C2942 C2943 1.362 . S
C2943 H2933 0.930 . S
C2943 C2936 1.409 1_545 S
C2943 C2942 1.362 . S
H2944 C2950 0.930 . S
H2945 C2953 0.930 . S
H2946 C2954 0.930 . S
H2947 C2955 0.930 . S
H2948 C2958 0.930 . S
H2949 C2959 0.930 . S
C2950 H2944 0.930 . S
C2950 C2951 1.355 . S
C2950 C2952 1.415 . S
C2951 C2950 1.355 . S
C2951 C2953 1.419 . S
C2952 C2950 1.415 . S
C2952 C2957 1.408 1_655 S
C2952 C2959 1.409 1_655 S
C2953 H2945 0.930 . S
C2953 C2951 1.419 . S
C2953 C2954 1.362 . S
C2954 H2946 0.930 . S
C2954 C2953 1.362 . S
C2954 C2957 1.373 1_655 S
C2955 H2947 0.930 . S
C2955 C2956 1.355 . S
C2955 C2957 1.469 . S
C2956 C2955 1.355 . S
C2956 C2958 1.419 . S
C2957 C2952 1.408 1_455 S
C2957 C2954 1.373 1_455 S
C2957 C2955 1.469 . S
C2958 H2948 0.930 . S
C2958 C2956 1.419 . S
C2958 C2959 1.362 . S
C2959 H2949 0.930 . S
C2959 C2952 1.409 1_455 S
C2959 C2958 1.362 . S
H2960 C2966 0.930 . S
H2961 C2969 0.930 . S
H2962 C2970 0.930 . S
H2963 C2971 0.930 . S
H2964 C2974 0.930 . S
H2965 C2975 0.930 . S
C2966 H2960 0.930 . S
C2966 C2967 1.355 . S
C2966 C2968 1.395 1_545 S
C2967 C2966 1.355 . S
C2967 C2969 1.419 . S
C2968 C2966 1.395 1_565 S
C2968 C2973 1.429 . S
C2968 C2975 1.425 . S
C2969 H2961 0.930 . S
C2969 C2967 1.419 . S
C2969 C2970 1.362 . S
C2970 H2962 0.930 . S
C2970 C2969 1.362 . S
C2970 C2973 1.409 1_545 S
C2971 H2963 0.930 . S
C2971 C2972 1.355 . S
C2971 C2973 1.415 . S
C2972 C2971 1.355 . S
C2972 C2974 1.419 . S
C2973 C2968 1.429 . S
C2973 C2970 1.409 1_565 S
C2973 C2971 1.415 . S
C2974 H2964 0.930 . S
C2974 C2972 1.419 . S
C2974 C2975 1.362 . S
C2975 H2965 0.930 . S
C2975 C2968 1.425 . S
C2975 C2974 1.362 . S
H2976 C2982 0.930 . S
H2977 C2985 0.930 . S
H2978 C2986 0.930 . S
H2979 C2987 0.930 . S
H2980 C2990 0.930 . S
H2981 C2991 0.930 . S
C2982 H2976 0.930 . S
C2982 C2983 1.355 . S
C2982 C2984 1.415 . S
C2983 C2982 1.355 . S
C2983 C2985 1.419 . S
C2984 C2982 1.415 . S
C2984 C2989 1.405 1_455 S
C2984 C2991 1.409 1_455 S
C2985 H2977 0.930 . S
C2985 C2983 1.419 . S
C2985 C2986 1.362 . S
C2986 H2978 0.930 . S
C2986 C2985 1.362 . S
C2986 C2989 1.368 1_455 S
C2987 H2979 0.930 . S
C2987 C2988 1.355 . S
C2987 C2989 1.477 . S
C2988 C2987 1.355 . S
C2988 C2990 1.419 . S
C2989 C2984 1.405 1_655 S
C2989 C2986 1.368 1_655 S
C2989 C2987 1.477 . S
C2990 H2980 0.930 . S
C2990 C2988 1.419 . S
C2990 C2991 1.362 . S
C2991 H2981 0.930 . S
C2991 C2984 1.409 1_655 S
C2991 C2990 1.362 . S
H2992 C2998 0.930 . S
H2993 C3001 0.930 . S
H2994 C3002 0.930 . S
H2995 C3003 0.930 . S
H2996 C3006 0.930 . S
H2997 C3007 0.930 . S
C2998 H2992 0.930 . S
C2998 C2999 1.355 . S
C2998 C3000 1.415 . S
C2999 C2998 1.355 . S
C2999 C3001 1.419 . S
C3000 C2998 1.415 . S
C3000 C3005 1.426 . S
C3000 C3007 1.409 1_545 S
C3001 H2993 0.930 . S
C3001 C2999 1.419 . S
C3001 C3002 1.362 . S
C3002 H2994 0.930 . S
C3002 C3001 1.362 . S
C3002 C3005 1.413 . S
C3003 H2995 0.930 . S
C3003 C3004 1.355 . S
C3003 C3005 1.410 1_565 S
C3004 C3003 1.355 . S
C3004 C3006 1.419 . S
C3005 C3000 1.426 . S
C3005 C3002 1.413 . S
C3005 C3003 1.410 1_545 S
C3006 H2996 0.930 . S
C3006 C3004 1.419 . S
C3006 C3007 1.362 . S
C3007 H2997 0.930 . S
C3007 C3000 1.409 1_565 S
C3007 C3006 1.362 . S
H3008 C3014 0.930 . S
H3009 C3017 0.930 . S
H3010 C3018 0.910 1_565 S
H3011 C3019 0.930 . S
H3012 C3022 0.930 . S
H3013 C3023 0.930 . S
C3014 H3008 0.930 . S
C3014 C3015 1.355 . S
C3014 C3016 1.415 . S
C3015 C3014 1.355 . S
C3015 C3017 1.419 . S
C3016 C3014 1.415 . S
C3016 C3021 1.425 1_545 S
C3016 C3023 1.409 1_545 S
C3017 H3009 0.930 . S
C3017 C3015 1.419 . S
C3017 C3018 1.362 . S
C3018 H3010 0.910 1_545 S
C3018 C3017 1.362 . S
C3018 C3021 1.409 1_545 S
C3019 H3011 0.930 . S
C3019 C3020 1.355 . S
C3019 C3021 1.415 . S
C3020 C3019 1.355 . S
C3020 C3022 1.419 . S
C3021 C3016 1.425 1_565 S
C3021 C3018 1.409 1_565 S
C3021 C3019 1.415 . S
C3022 H3012 0.930 . S
C3022 C3020 1.419 . S
C3022 C3023 1.362 . S
C3023 H3013 0.930 . S
C3023 C3016 1.409 1_565 S
C3023 C3022 1.362 . S
H3024 C3030 0.930 . S
H3025 C3033 0.930 . S
H3026 C3034 0.930 . S
H3027 C3035 0.930 . S
H3028 C3038 0.930 . S
H3029 C3039 0.930 1_455 S
C3030 H3024 0.930 . S
C3030 C3031 1.355 . S
C3030 C3032 1.415 . S
C3031 C3030 1.355 . S
C3031 C3033 1.419 . S
C3032 C3030 1.415 . S
C3032 C3037 1.425 1_455 S
C3032 C3039 1.409 1_455 S
C3033 H3025 0.930 . S
C3033 C3031 1.419 . S
C3033 C3034 1.362 . S
C3034 H3026 0.930 . S
C3034 C3033 1.362 . S
C3034 C3037 1.409 1_455 S
C3035 H3027 0.930 . S
C3035 C3036 1.355 . S
C3035 C3037 1.415 . S
C3036 C3035 1.355 . S
C3036 C3038 1.419 . S
C3037 C3032 1.425 1_655 S
C3037 C3034 1.409 1_655 S
C3037 C3035 1.415 . S
C3038 H3028 0.930 . S
C3038 C3036 1.419 . S
C3038 C3039 1.362 . S
C3039 H3029 0.930 1_655 S
C3039 C3032 1.409 1_655 S
C3039 C3038 1.362 . S
H3040 C3046 0.930 . S
H3041 C3049 0.930 . S
H3042 C3050 0.930 . S
H3043 C3051 0.930 . S
H3044 C3054 0.930 . S
H3045 C3055 0.930 . S
C3046 H3040 0.930 . S
C3046 C3047 1.355 . S
C3046 C3048 1.409 . S
C3047 C3046 1.355 . S
C3047 C3049 1.419 . S
C3048 C3046 1.409 . S
C3048 C3053 1.427 1_565 S
C3048 C3055 1.413 1_565 S
C3049 H3041 0.930 . S
C3049 C3047 1.419 . S
C3049 C3050 1.362 . S
C3050 H3042 0.930 . S
C3050 C3049 1.362 . S
C3050 C3053 1.409 1_565 S
C3051 H3043 0.930 . S
C3051 C3052 1.355 . S
C3051 C3053 1.415 . S
C3052 C3051 1.355 . S
C3052 C3054 1.419 . S
C3053 C3048 1.427 1_545 S
C3053 C3050 1.409 1_545 S
C3053 C3051 1.415 . S
C3054 H3044 0.930 . S
C3054 C3052 1.419 . S
C3054 C3055 1.362 . S
C3055 H3045 0.930 . S
C3055 C3048 1.413 1_545 S
C3055 C3054 1.362 . S
H3056 C3062 0.930 . S
H3057 C3065 0.930 . S
H3058 C3066 0.930 . S
H3059 C3067 0.930 . S
H3060 C3070 0.930 . S
H3061 C3071 0.930 . S
C3062 H3056 0.930 . S
C3062 C3063 1.355 . S
C3062 C3064 1.407 . S
C3063 C3062 1.355 . S
C3063 C3065 1.419 . S
C3064 C3062 1.407 . S
C3064 C3069 1.427 1_455 S
C3064 C3071 1.415 1_455 S
C3065 H3057 0.930 . S
C3065 C3063 1.419 . S
C3065 C3066 1.362 . S
C3066 H3058 0.930 . S
C3066 C3065 1.362 . S
C3066 C3069 1.409 1_455 S
C3067 H3059 0.930 . S
C3067 C3068 1.355 . S
C3067 C3069 1.415 . S
C3068 C3067 1.355 . S
C3068 C3070 1.419 . S
C3069 C3064 1.427 1_655 S
C3069 C3066 1.409 1_655 S
C3069 C3067 1.415 . S
C3070 H3060 0.930 . S
C3070 C3068 1.419 . S
C3070 C3071 1.362 . S
C3071 H3061 0.930 . S
C3071 C3064 1.415 1_655 S
C3071 C3070 1.362 . S
H3072 C3078 0.930 . S
H3073 C3081 0.930 . S
H3074 C3082 0.930 . S
H3075 C3083 0.930 . S
H3076 C3086 0.930 . S
H3077 C3087 0.930 . S
C3078 H3072 0.930 . S
C3078 C3079 1.355 . S
C3078 C3080 1.475 . S
C3079 C3078 1.355 . S
C3079 C3081 1.419 . S
C3080 C3078 1.475 . S
C3080 C3085 1.406 1_565 S
C3080 C3087 1.369 1_565 S
C3081 H3073 0.930 . S
C3081 C3079 1.419 . S
C3081 C3082 1.362 . S
C3082 H3074 0.930 . S
C3082 C3081 1.362 . S
C3082 C3085 1.409 1_565 S
C3083 H3075 0.930 . S
C3083 C3084 1.355 . S
C3083 C3085 1.415 . S
C3084 C3083 1.355 . S
C3084 C3086 1.419 . S
C3085 C3080 1.406 1_545 S
C3085 C3082 1.409 1_545 S
C3085 C3083 1.415 . S
C3086 H3076 0.930 . S
C3086 C3084 1.419 . S
C3086 C3087 1.362 . S
C3087 H3077 0.930 . S
C3087 C3080 1.369 1_545 S
C3087 C3086 1.362 . S
H3088 C3094 0.930 . S
H3089 C3097 0.930 . S
H3090 C3098 0.932 . S
H3091 C3099 0.930 . S
H3092 C3102 0.930 . S
H3093 C3103 0.930 . S
C3094 H3088 0.930 . S
C3094 C3095 1.355 . S
C3094 C3096 1.415 . S
C3095 C3094 1.355 . S
C3095 C3097 1.419 . S
C3096 C3094 1.415 . S
C3096 C3101 1.425 1_455 S
C3096 C3103 1.409 1_455 S
C3097 H3089 0.930 . S
C3097 C3095 1.419 . S
C3097 C3098 1.362 . S
C3098 H3090 0.932 . S
C3098 C3097 1.362 . S
C3098 C3101 1.409 1_455 S
C3099 H3091 0.930 . S
C3099 C3100 1.355 . S
C3099 C3101 1.415 . S
C3100 C3099 1.355 . S
C3100 C3102 1.419 . S
C3101 C3096 1.425 1_655 S
C3101 C3098 1.409 1_655 S
C3101 C3099 1.415 . S
C3102 H3092 0.930 . S
C3102 C3100 1.419 . S
C3102 C3103 1.362 . S
C3103 H3093 0.930 . S
C3103 C3096 1.409 1_655 S
C3103 C3102 1.362 . S
H3104 C3110 0.930 . S
H3105 C3113 0.930 . S
H3106 C3114 0.930 . S
H3107 C3115 0.930 . S
H3108 C3118 0.930 . S
H3109 C3119 0.930 . S
C3110 H3104 0.930 . S
C3110 C3111 1.355 . S
C3110 C3112 1.415 . S
C3111 C3110 1.355 . S
C3111 C3113 1.419 . S
C3112 C3110 1.415 . S
C3112 C3117 1.425 1_545 S
C3112 C3119 1.409 1_545 S
C3113 H3105 0.930 . S
C3113 C3111 1.419 . S
C3113 C3114 1.362 . S
C3114 H3106 0.930 . S
C3114 C3113 1.362 . S
C3114 C3117 1.409 1_545 S
C3115 H3107 0.930 . S
C3115 C3116 1.355 . S
C3115 C3117 1.415 . S
C3116 C3115 1.355 . S
C3116 C3118 1.419 . S
C3117 C3112 1.425 1_565 S
C3117 C3114 1.409 1_565 S
C3117 C3115 1.415 . S
C3118 H3108 0.930 . S
C3118 C3116 1.419 . S
C3118 C3119 1.362 . S
C3119 H3109 0.930 . S
C3119 C3112 1.409 1_565 S
C3119 C3118 1.362 . S
H3120 C3126 0.930 . S
H3121 C3129 0.930 . S
H3122 C3130 0.930 . S
H3123 C3131 0.930 . S
H3124 C3134 0.930 . S
H3125 C3135 0.930 . S
C3126 H3120 0.930 . S
C3126 C3127 1.355 . S
C3126 C3128 1.415 . S
C3127 C3126 1.355 . S
C3127 C3129 1.419 . S
C3128 C3126 1.415 . S
C3128 C3133 1.429 . S
C3128 C3135 1.409 1_455 S
C3129 H3121 0.930 . S
C3129 C3127 1.419 . S
C3129 C3130 1.362 . S
C3130 H3122 0.930 . S
C3130 C3129 1.362 . S
C3130 C3133 1.425 . S
C3131 H3123 0.930 . S
C3131 C3132 1.355 . S
C3131 C3133 1.395 1_655 S
C3132 C3131 1.355 . S
C3132 C3134 1.419 . S
C3133 C3128 1.429 . S
C3133 C3130 1.425 . S
C3133 C3131 1.395 1_455 S
C3134 H3124 0.930 . S
C3134 C3132 1.419 . S
C3134 C3135 1.362 . S
C3135 H3125 0.930 . S
C3135 C3128 1.409 1_655 S
C3135 C3134 1.362 . S
H3136 C3142 0.930 . S
H3137 C3145 0.930 . S
H3138 C3146 0.930 . S
H3139 C3147 0.930 . S
H3140 C3150 0.930 . S
H3141 C3151 0.930 . S
C3142 H3136 0.930 . S
C3142 C3143 1.355 . S
C3142 C3144 1.439 . S
C3143 C3142 1.355 . S
C3143 C3145 1.419 . S
C3144 C3142 1.439 . S
C3144 C3149 1.418 1_554 S
C3144 C3151 1.391 1_554 S
C3145 H3137 0.930 . S
C3145 C3143 1.419 . S
C3145 C3146 1.362 . S
C3146 H3138 0.930 . S
C3146 C3145 1.362 . S
C3146 C3149 1.409 1_554 S
C3147 H3139 0.930 . S
C3147 C3148 1.355 . S
C3147 C3149 1.415 . S
C3148 C3147 1.355 . S
C3148 C3150 1.419 . S
C3149 C3144 1.418 1_556 S
C3149 C3146 1.409 1_556 S
C3149 C3147 1.415 . S
C3150 H3140 0.930 . S
C3150 C3148 1.419 . S
C3150 C3151 1.362 . S
C3151 H3141 0.930 . S
C3151 C3144 1.391 1_556 S
C3151 C3150 1.362 . S
H3152 C3158 0.930 . S
H3153 C3161 0.930 . S
H3154 C3162 0.930 . S
H3155 C3163 0.930 . S
H3156 C3166 0.930 . S
H3157 C3167 0.930 . S
C3158 H3152 0.930 . S
C3158 C3159 1.355 . S
C3158 C3160 1.462 . S
C3159 C3158 1.355 . S
C3159 C3161 1.419 . S
C3160 C3158 1.462 . S
C3160 C3165 1.411 1_556 S
C3160 C3167 1.377 1_556 S
C3161 H3153 0.930 . S
C3161 C3159 1.419 . S
C3161 C3162 1.362 . S
C3162 H3154 0.930 . S
C3162 C3161 1.362 . S
C3162 C3165 1.409 1_556 S
C3163 H3155 0.930 . S
C3163 C3164 1.355 . S
C3163 C3165 1.415 . S
C3164 C3163 1.355 . S
C3164 C3166 1.419 . S
C3165 C3160 1.411 1_554 S
C3165 C3162 1.409 1_554 S
C3165 C3163 1.415 . S
C3166 H3156 0.930 . S
C3166 C3164 1.419 . S
C3166 C3167 1.362 . S
C3167 H3157 0.930 . S
C3167 C3160 1.377 1_554 S
C3167 C3166 1.362 . S
H3168 C3174 0.930 . S
H3169 C3177 0.930 . S
H3170 C3178 0.930 . S
H3171 C3179 0.930 . S
H3172 C3182 0.930 . S
H3173 C3183 0.930 1_554 S
C3174 H3168 0.930 . S
C3174 C3175 1.355 . S
C3174 C3176 1.415 . S
C3175 C3174 1.355 . S
C3175 C3177 1.419 . S
C3176 C3174 1.415 . S
C3176 C3181 1.425 1_554 S
C3176 C3183 1.409 1_554 S
C3177 H3169 0.930 . S
C3177 C3175 1.419 . S
C3177 C3178 1.362 . S
C3178 H3170 0.930 . S
C3178 C3177 1.362 . S
C3178 C3181 1.409 1_554 S
C3179 H3171 0.930 . S
C3179 C3180 1.355 . S
C3179 C3181 1.415 . S
C3180 C3179 1.355 . S
C3180 C3182 1.419 . S
C3181 C3176 1.425 1_556 S
C3181 C3178 1.409 1_556 S
C3181 C3179 1.415 . S
C3182 H3172 0.930 . S
C3182 C3180 1.419 . S
C3182 C3183 1.362 . S
C3183 H3173 0.930 1_556 S
C3183 C3176 1.409 1_556 S
C3183 C3182 1.362 . S
H3184 C3190 0.930 . S
H3185 C3193 0.930 . S
H3186 C3194 0.930 . S
H3187 C3195 0.930 . S
H3188 C3198 0.930 . S
H3189 C3199 0.930 . S
C3190 H3184 0.930 . S
C3190 C3191 1.355 . S
C3190 C3192 1.416 . S
C3191 C3190 1.355 . S
C3191 C3193 1.419 . S
C3192 C3190 1.416 . S
C3192 C3197 1.425 1_556 S
C3192 C3199 1.408 1_556 S
C3193 H3185 0.930 . S
C3193 C3191 1.419 . S
C3193 C3194 1.362 . S
C3194 H3186 0.930 . S
C3194 C3193 1.362 . S
C3194 C3197 1.409 1_556 S
C3195 H3187 0.930 . S
C3195 C3196 1.355 . S
C3195 C3197 1.415 . S
C3196 C3195 1.355 . S
C3196 C3198 1.419 . S
C3197 C3192 1.425 1_554 S
C3197 C3194 1.409 1_554 S
C3197 C3195 1.415 . S
C3198 H3188 0.930 . S
C3198 C3196 1.419 . S
C3198 C3199 1.362 . S
C3199 H3189 0.930 . S
C3199 C3192 1.408 1_554 S
C3199 C3198 1.362 . S
H3200 C3206 0.930 . S
H3201 C3209 0.930 . S
H3202 C3210 0.930 . S
H3203 C3211 0.930 . S
H3204 C3214 0.930 . S
H3205 C3215 0.961 . S
C3206 H3200 0.930 . S
C3206 C3207 1.355 . S
C3206 C3208 1.415 . S
C3207 C3206 1.355 . S
C3207 C3209 1.419 . S
C3208 C3206 1.415 . S
C3208 C3213 1.425 1_554 S
C3208 C3215 1.409 1_554 S
C3209 H3201 0.930 . S
C3209 C3207 1.419 . S
C3209 C3210 1.362 . S
C3210 H3202 0.930 . S
C3210 C3209 1.362 . S
C3210 C3213 1.409 1_554 S
C3211 H3203 0.930 . S
C3211 C3212 1.355 . S
C3211 C3213 1.415 . S
C3212 C3211 1.355 . S
C3212 C3214 1.419 . S
C3213 C3208 1.425 1_556 S
C3213 C3210 1.409 1_556 S
C3213 C3211 1.415 . S
C3214 H3204 0.930 . S
C3214 C3212 1.419 . S
C3214 C3215 1.362 . S
C3215 H3205 0.961 . S
C3215 C3208 1.409 1_556 S
C3215 C3214 1.362 . S
H3216 C3222 0.930 . S
H3217 C3225 0.930 . S
H3218 C3226 0.930 . S
H3219 C3227 0.930 . S
H3220 C3230 0.930 . S
H3221 C3231 0.930 . S
C3222 H3216 0.930 . S
C3222 C3223 1.355 . S
C3222 C3224 1.415 . S
C3223 C3222 1.355 . S
C3223 C3225 1.419 . S
C3224 C3222 1.415 . S
C3224 C3229 1.425 1_554 S
C3224 C3231 1.409 1_554 S
C3225 H3217 0.930 . S
C3225 C3223 1.419 . S
C3225 C3226 1.362 . S
C3226 H3218 0.930 . S
C3226 C3225 1.362 . S
C3226 C3229 1.409 1_554 S
C3227 H3219 0.930 . S
C3227 C3228 1.355 . S
C3227 C3229 1.415 . S
C3228 C3227 1.355 . S
C3228 C3230 1.419 . S
C3229 C3224 1.425 1_556 S
C3229 C3226 1.409 1_556 S
C3229 C3227 1.415 . S
C3230 H3220 0.930 . S
C3230 C3228 1.419 . S
C3230 C3231 1.362 . S
C3231 H3221 0.930 . S
C3231 C3224 1.409 1_556 S
C3231 C3230 1.362 . S
H3232 C3238 0.930 . S
H3233 C3241 0.930 . S
H3234 C3242 0.930 . S
H3235 C3243 0.930 . S
H3236 C3246 0.930 . S
H3237 C3247 0.930 . S
C3238 H3232 0.930 . S
C3238 C3239 1.355 . S
C3238 C3240 1.415 . S
C3239 C3238 1.355 . S
C3239 C3241 1.419 . S
C3240 C3238 1.415 . S
C3240 C3245 1.424 . S
C3240 C3247 1.409 1_556 S
C3241 H3233 0.930 . S
C3241 C3239 1.419 . S
C3241 C3242 1.362 . S
C3242 H3234 0.930 . S
C3242 C3241 1.362 . S
C3242 C3245 1.406 . S
C3243 H3235 0.930 . S
C3243 C3244 1.355 . S
C3243 C3245 1.418 1_554 S
C3244 C3243 1.355 . S
C3244 C3246 1.419 . S
C3245 C3240 1.424 . S
C3245 C3242 1.406 . S
C3245 C3243 1.418 1_556 S
C3246 H3236 0.930 . S
C3246 C3244 1.419 . S
C3246 C3247 1.362 . S
C3247 H3237 0.930 . S
C3247 C3240 1.409 1_554 S
C3247 C3246 1.362 . S
H3248 C3254 0.930 . S
H3249 C3257 0.930 . S
H3250 C3258 0.930 . S
H3251 C3259 0.930 . S
H3252 C3262 0.930 . S
H3253 C3263 0.930 . S
C3254 H3248 0.930 . S
C3254 C3255 1.355 . S
C3254 C3256 1.415 . S
C3255 C3254 1.355 . S
C3255 C3257 1.419 . S
C3256 C3254 1.415 . S
C3256 C3261 1.421 1_556 S
C3256 C3263 1.409 1_556 S
C3257 H3249 0.930 . S
C3257 C3255 1.419 . S
C3257 C3258 1.362 . S
C3258 H3250 0.930 . S
C3258 C3257 1.362 . S
C3258 C3261 1.397 1_556 S
C3259 H3251 0.930 . S
C3259 C3260 1.355 . S
C3259 C3261 1.431 . S
C3260 C3259 1.355 . S
C3260 C3262 1.419 . S
C3261 C3256 1.421 1_554 S
C3261 C3258 1.397 1_554 S
C3261 C3259 1.431 . S
C3262 H3252 0.930 . S
C3262 C3260 1.419 . S
C3262 C3263 1.362 . S
C3263 H3253 0.930 . S
C3263 C3256 1.409 1_554 S
C3263 C3262 1.362 . S
H3264 C3270 0.930 . S
H3265 C3273 0.930 . S
H3266 C3274 0.930 . S
H3267 C3275 0.930 . S
H3268 C3278 0.930 . S
H3269 C3279 0.930 . S
C3270 H3264 0.930 . S
C3270 C3271 1.355 . S
C3270 C3272 1.415 . S
C3271 C3270 1.355 . S
C3271 C3273 1.419 . S
C3272 C3270 1.415 . S
C3272 C3277 1.425 . S
C3272 C3279 1.409 . S
C3273 H3265 0.930 . S
C3273 C3271 1.419 . S
C3273 C3274 1.362 . S
C3274 H3266 0.930 . S
C3274 C3273 1.362 . S
C3274 C3277 1.409 . S
C3275 H3267 0.930 . S
C3275 C3276 1.355 . S
C3275 C3277 1.415 . S
C3276 C3275 1.355 . S
C3276 C3278 1.419 . S
C3277 C3272 1.425 . S
C3277 C3274 1.409 . S
C3277 C3275 1.415 . S
C3278 H3268 0.930 . S
C3278 C3276 1.419 . S
C3278 C3279 1.362 . S
C3279 H3269 0.930 . S
C3279 C3272 1.409 . S
C3279 C3278 1.362 . S
H3280 C3286 0.930 . S
H3281 C3289 0.930 . S
H3282 C3290 0.930 . S
H3283 C3291 0.930 . S
H3284 C3294 0.930 . S
H3285 C3295 0.930 . S
C3286 H3280 0.930 . S
C3286 C3287 1.355 . S
C3286 C3288 1.415 . S
C3287 C3286 1.355 . S
C3287 C3289 1.419 . S
C3288 C3286 1.415 . S
C3288 C3293 1.425 . S
C3288 C3295 1.409 . S
C3289 H3281 0.930 . S
C3289 C3287 1.419 . S
C3289 C3290 1.362 . S
C3290 H3282 0.930 . S
C3290 C3289 1.362 . S
C3290 C3293 1.409 . S
C3291 H3283 0.930 . S
C3291 C3292 1.355 . S
C3291 C3293 1.415 . S
C3292 C3291 1.355 . S
C3292 C3294 1.419 . S
C3293 C3288 1.425 . S
C3293 C3290 1.409 . S
C3293 C3291 1.415 . S
C3294 H3284 0.930 . S
C3294 C3292 1.419 . S
C3294 C3295 1.362 . S
C3295 H3285 0.930 . S
C3295 C3288 1.409 . S
C3295 C3294 1.362 . S
H3296 C3302 0.930 . S
H3297 C3305 0.930 . S
H3298 C3306 0.930 . S
H3299 C3307 0.930 . S
H3300 C3310 0.930 . S
H3301 C3311 0.930 . S
C3302 H3296 0.930 . S
C3302 C3303 1.355 . S
C3302 C3304 1.415 . S
C3303 C3302 1.355 . S
C3303 C3305 1.419 . S
C3304 C3302 1.415 . S
C3304 C3309 1.425 . S
C3304 C3311 1.409 . S
C3305 H3297 0.930 . S
C3305 C3303 1.419 . S
C3305 C3306 1.362 . S
C3306 H3298 0.930 . S
C3306 C3305 1.362 . S
C3306 C3309 1.409 . S
C3307 H3299 0.930 . S
C3307 C3308 1.355 . S
C3307 C3309 1.415 . S
C3308 C3307 1.355 . S
C3308 C3310 1.419 . S
C3309 C3304 1.425 . S
C3309 C3306 1.409 . S
C3309 C3307 1.415 . S
C3310 H3300 0.930 . S
C3310 C3308 1.419 . S
C3310 C3311 1.362 . S
C3311 H3301 0.930 . S
C3311 C3304 1.409 . S
C3311 C3310 1.362 . S
H3312 C3318 0.930 . S
H3313 C3321 0.930 . S
H3314 C3322 0.930 . S
H3315 C3323 0.930 . S
H3316 C3326 0.930 . S
H3317 C3327 0.930 . S
C3318 H3312 0.930 . S
C3318 C3319 1.355 . S
C3318 C3320 1.415 . S
C3319 C3318 1.355 . S
C3319 C3321 1.419 . S
C3320 C3318 1.415 . S
C3320 C3325 1.425 . S
C3320 C3327 1.409 . S
C3321 H3313 0.930 . S
C3321 C3319 1.419 . S
C3321 C3322 1.362 . S
C3322 H3314 0.930 . S
C3322 C3321 1.362 . S
C3322 C3325 1.409 . S
C3323 H3315 0.930 . S
C3323 C3324 1.355 . S
C3323 C3325 1.415 . S
C3324 C3323 1.355 . S
C3324 C3326 1.419 . S
C3325 C3320 1.425 . S
C3325 C3322 1.409 . S
C3325 C3323 1.415 . S
C3326 H3316 0.930 . S
C3326 C3324 1.419 . S
C3326 C3327 1.362 . S
C3327 H3317 0.930 . S
C3327 C3320 1.409 . S
C3327 C3326 1.362 . S
H3328 C3334 0.930 . S
H3329 C3337 0.930 . S
H3330 C3338 0.930 . S
H3331 C3339 0.930 . S
H3332 C3342 0.930 . S
H3333 C3343 0.930 . S
C3334 H3328 0.930 . S
C3334 C3335 1.355 . S
C3334 C3336 1.415 . S
C3335 C3334 1.355 . S
C3335 C3337 1.419 . S
C3336 C3334 1.415 . S
C3336 C3341 1.425 . S
C3336 C3343 1.409 . S
C3337 H3329 0.930 . S
C3337 C3335 1.419 . S
C3337 C3338 1.362 . S
C3338 H3330 0.930 . S
C3338 C3337 1.362 . S
C3338 C3341 1.409 . S
C3339 H3331 0.930 . S
C3339 C3340 1.355 . S
C3339 C3341 1.415 . S
C3340 C3339 1.355 . S
C3340 C3342 1.419 . S
C3341 C3336 1.425 . S
C3341 C3338 1.409 . S
C3341 C3339 1.415 . S
C3342 H3332 0.930 . S
C3342 C3340 1.419 . S
C3342 C3343 1.362 . S
C3343 H3333 0.930 . S
C3343 C3336 1.409 . S
C3343 C3342 1.362 . S
H3344 C3350 0.930 . S
H3345 C3353 0.930 . S
H3346 C3354 0.930 . S
H3347 C3355 0.930 . S
H3348 C3358 0.930 . S
H3349 C3359 0.930 . S
C3350 H3344 0.930 . S
C3350 C3351 1.355 . S
C3350 C3352 1.415 . S
C3351 C3350 1.355 . S
C3351 C3353 1.419 . S
C3352 C3350 1.415 . S
C3352 C3357 1.425 . S
C3352 C3359 1.409 . S
C3353 H3345 0.930 . S
C3353 C3351 1.419 . S
C3353 C3354 1.362 . S
C3354 H3346 0.930 . S
C3354 C3353 1.362 . S
C3354 C3357 1.409 . S
C3355 H3347 0.930 . S
C3355 C3356 1.355 . S
C3355 C3357 1.415 . S
C3356 C3355 1.355 . S
C3356 C3358 1.419 . S
C3357 C3352 1.425 . S
C3357 C3354 1.409 . S
C3357 C3355 1.415 . S
C3358 H3348 0.930 . S
C3358 C3356 1.419 . S
C3358 C3359 1.362 . S
C3359 H3349 0.930 . S
C3359 C3352 1.409 . S
C3359 C3358 1.362 . S
H3360 C3366 0.930 . S
H3361 C3369 0.930 . S
H3362 C3370 0.930 . S
H3363 C3371 0.930 . S
H3364 C3374 0.930 . S
H3365 C3375 0.930 . S
C3366 H3360 0.930 . S
C3366 C3367 1.355 . S
C3366 C3368 1.415 . S
C3367 C3366 1.355 . S
C3367 C3369 1.419 . S
C3368 C3366 1.415 . S
C3368 C3373 1.425 . S
C3368 C3375 1.409 . S
C3369 H3361 0.930 . S
C3369 C3367 1.419 . S
C3369 C3370 1.362 . S
C3370 H3362 0.930 . S
C3370 C3369 1.362 . S
C3370 C3373 1.409 . S
C3371 H3363 0.930 . S
C3371 C3372 1.355 . S
C3371 C3373 1.415 . S
C3372 C3371 1.355 . S
C3372 C3374 1.419 . S
C3373 C3368 1.425 . S
C3373 C3370 1.409 . S
C3373 C3371 1.415 . S
C3374 H3364 0.930 . S
C3374 C3372 1.419 . S
C3374 C3375 1.362 . S
C3375 H3365 0.930 . S
C3375 C3368 1.409 . S
C3375 C3374 1.362 . S
H3376 C3382 0.930 . S
H3377 C3385 0.930 . S
H3378 C3386 0.930 . S
H3379 C3387 0.930 . S
H3380 C3390 0.930 . S
H3381 C3391 0.930 . S
C3382 H3376 0.930 . S
C3382 C3383 1.355 . S
C3382 C3384 1.415 . S
C3383 C3382 1.355 . S
C3383 C3385 1.419 . S
C3384 C3382 1.415 . S
C3384 C3389 1.425 . S
C3384 C3391 1.409 . S
C3385 H3377 0.930 . S
C3385 C3383 1.419 . S
C3385 C3386 1.362 . S
C3386 H3378 0.930 . S
C3386 C3385 1.362 . S
C3386 C3389 1.409 . S
C3387 H3379 0.930 . S
C3387 C3388 1.355 . S
C3387 C3389 1.415 . S
C3388 C3387 1.355 . S
C3388 C3390 1.419 . S
C3389 C3384 1.425 . S
C3389 C3386 1.409 . S
C3389 C3387 1.415 . S
C3390 H3380 0.930 . S
C3390 C3388 1.419 . S
C3390 C3391 1.362 . S
C3391 H3381 0.930 . S
C3391 C3384 1.409 . S
C3391 C3390 1.362 . S
H3392 C3398 0.930 . S
H3393 C3401 0.930 . S
H3394 C3402 0.930 . S
H3395 C3403 0.930 . S
H3396 C3406 0.930 . S
H3397 C3407 0.930 . S
C3398 H3392 0.930 . S
C3398 C3399 1.355 . S
C3398 C3400 1.415 . S
C3399 C3398 1.355 . S
C3399 C3401 1.419 . S
C3400 C3398 1.415 . S
C3400 C3405 1.425 . S
C3400 C3407 1.409 . S
C3401 H3393 0.930 . S
C3401 C3399 1.419 . S
C3401 C3402 1.362 . S
C3402 H3394 0.930 . S
C3402 C3401 1.362 . S
C3402 C3405 1.409 . S
C3403 H3395 0.930 . S
C3403 C3404 1.355 . S
C3403 C3405 1.415 . S
C3404 C3403 1.355 . S
C3404 C3406 1.419 . S
C3405 C3400 1.425 . S
C3405 C3402 1.409 . S
C3405 C3403 1.415 . S
C3406 H3396 0.930 . S
C3406 C3404 1.419 . S
C3406 C3407 1.362 . S
C3407 H3397 0.930 . S
C3407 C3400 1.409 . S
C3407 C3406 1.362 . S
H3408 C3414 0.930 . S
H3409 C3417 0.930 . S
H3410 C3418 0.930 . S
H3411 C3419 0.930 . S
H3412 C3422 0.930 . S
H3413 C3423 0.930 . S
C3414 H3408 0.930 . S
C3414 C3415 1.355 . S
C3414 C3416 1.415 . S
C3415 C3414 1.355 . S
C3415 C3417 1.419 . S
C3416 C3414 1.415 . S
C3416 C3421 1.425 . S
C3416 C3423 1.409 . S
C3417 H3409 0.930 . S
C3417 C3415 1.419 . S
C3417 C3418 1.362 . S
C3418 H3410 0.930 . S
C3418 C3417 1.362 . S
C3418 C3421 1.409 . S
C3419 H3411 0.930 . S
C3419 C3420 1.355 . S
C3419 C3421 1.415 . S
C3420 C3419 1.355 . S
C3420 C3422 1.419 . S
C3421 C3416 1.425 . S
C3421 C3418 1.409 . S
C3421 C3419 1.415 . S
C3422 H3412 0.930 . S
C3422 C3420 1.419 . S
C3422 C3423 1.362 . S
C3423 H3413 0.930 . S
C3423 C3416 1.409 . S
C3423 C3422 1.362 . S
H3424 C3430 0.930 . S
H3425 C3433 0.930 . S
H3426 C3434 0.930 . S
H3427 C3435 0.930 . S
H3428 C3438 0.930 . S
H3429 C3439 0.930 . S
C3430 H3424 0.930 . S
C3430 C3431 1.355 . S
C3430 C3432 1.415 . S
C3431 C3430 1.355 . S
C3431 C3433 1.419 . S
C3432 C3430 1.415 . S
C3432 C3437 1.425 . S
C3432 C3439 1.409 . S
C3433 H3425 0.930 . S
C3433 C3431 1.419 . S
C3433 C3434 1.362 . S
C3434 H3426 0.930 . S
C3434 C3433 1.362 . S
C3434 C3437 1.409 . S
C3435 H3427 0.930 . S
C3435 C3436 1.355 . S
C3435 C3437 1.415 . S
C3436 C3435 1.355 . S
C3436 C3438 1.419 . S
C3437 C3432 1.425 . S
C3437 C3434 1.409 . S
C3437 C3435 1.415 . S
C3438 H3428 0.930 . S
C3438 C3436 1.419 . S
C3438 C3439 1.362 . S
C3439 H3429 0.930 . S
C3439 C3432 1.409 . S
C3439 C3438 1.362 . S
H3440 C3446 0.930 . S
H3441 C3449 0.930 . S
H3442 C3450 0.930 . S
H3443 C3451 0.930 . S
H3444 C3454 0.930 . S
H3445 C3455 0.930 . S
C3446 H3440 0.930 . S
C3446 C3447 1.355 . S
C3446 C3448 1.415 . S
C3447 C3446 1.355 . S
C3447 C3449 1.419 . S
C3448 C3446 1.415 . S
C3448 C3453 1.425 . S
C3448 C3455 1.409 . S
C3449 H3441 0.930 . S
C3449 C3447 1.419 . S
C3449 C3450 1.362 . S
C3450 H3442 0.930 . S
C3450 C3449 1.362 . S
C3450 C3453 1.409 . S
C3451 H3443 0.930 . S
C3451 C3452 1.355 . S
C3451 C3453 1.415 . S
C3452 C3451 1.355 . S
C3452 C3454 1.419 . S
C3453 C3448 1.425 . S
C3453 C3450 1.409 . S
C3453 C3451 1.415 . S
C3454 H3444 0.930 . S
C3454 C3452 1.419 . S
C3454 C3455 1.362 . S
C3455 H3445 0.930 . S
C3455 C3448 1.409 . S
C3455 C3454 1.362 . S
H3456 C3462 0.930 . S
H3457 C3465 0.930 . S
H3458 C3466 0.930 . S
H3459 C3467 0.930 . S
H3460 C3470 0.930 . S
H3461 C3471 0.930 . S
C3462 H3456 0.930 . S
C3462 C3463 1.355 . S
C3462 C3464 1.415 . S
C3463 C3462 1.355 . S
C3463 C3465 1.419 . S
C3464 C3462 1.415 . S
C3464 C3469 1.425 . S
C3464 C3471 1.409 . S
C3465 H3457 0.930 . S
C3465 C3463 1.419 . S
C3465 C3466 1.362 . S
C3466 H3458 0.930 . S
C3466 C3465 1.362 . S
C3466 C3469 1.409 . S
C3467 H3459 0.930 . S
C3467 C3468 1.355 . S
C3467 C3469 1.415 . S
C3468 C3467 1.355 . S
C3468 C3470 1.419 . S
C3469 C3464 1.425 . S
C3469 C3466 1.409 . S
C3469 C3467 1.415 . S
C3470 H3460 0.930 . S
C3470 C3468 1.419 . S
C3470 C3471 1.362 . S
C3471 H3461 0.930 . S
C3471 C3464 1.409 . S
C3471 C3470 1.362 . S
H3472 C3478 0.930 . S
H3473 C3481 0.930 . S
H3474 C3482 0.930 . S
H3475 C3483 0.930 . S
H3476 C3486 0.930 . S
H3477 C3487 0.930 . S
C3478 H3472 0.930 . S
C3478 C3479 1.355 . S
C3478 C3480 1.415 . S
C3479 C3478 1.355 . S
C3479 C3481 1.419 . S
C3480 C3478 1.415 . S
C3480 C3485 1.425 . S
C3480 C3487 1.409 . S
C3481 H3473 0.930 . S
C3481 C3479 1.419 . S
C3481 C3482 1.362 . S
C3482 H3474 0.930 . S
C3482 C3481 1.362 . S
C3482 C3485 1.409 . S
C3483 H3475 0.930 . S
C3483 C3484 1.355 . S
C3483 C3485 1.415 . S
C3484 C3483 1.355 . S
C3484 C3486 1.419 . S
C3485 C3480 1.425 . S
C3485 C3482 1.409 . S
C3485 C3483 1.415 . S
C3486 H3476 0.930 . S
C3486 C3484 1.419 . S
C3486 C3487 1.362 . S
C3487 H3477 0.930 . S
C3487 C3480 1.409 . S
C3487 C3486 1.362 . S
H3488 C3494 0.930 . S
H3489 C3497 0.930 . S
H3490 C3498 0.930 . S
H3491 C3499 0.930 . S
H3492 C3502 0.930 . S
H3493 C3503 0.930 . S
C3494 H3488 0.930 . S
C3494 C3495 1.355 . S
C3494 C3496 1.415 . S
C3495 C3494 1.355 . S
C3495 C3497 1.419 . S
C3496 C3494 1.415 . S
C3496 C3501 1.425 . S
C3496 C3503 1.409 . S
C3497 H3489 0.930 . S
C3497 C3495 1.419 . S
C3497 C3498 1.362 . S
C3498 H3490 0.930 . S
C3498 C3497 1.362 . S
C3498 C3501 1.409 . S
C3499 H3491 0.930 . S
C3499 C3500 1.355 . S
C3499 C3501 1.415 . S
C3500 C3499 1.355 . S
C3500 C3502 1.419 . S
C3501 C3496 1.425 . S
C3501 C3498 1.409 . S
C3501 C3499 1.415 . S
C3502 H3492 0.930 . S
C3502 C3500 1.419 . S
C3502 C3503 1.362 . S
C3503 H3493 0.930 . S
C3503 C3496 1.409 . S
C3503 C3502 1.362 . S
H3504 C3510 0.930 . S
H3505 C3513 0.930 . S
H3506 C3514 0.930 . S
H3507 C3515 0.930 . S
H3508 C3518 0.930 . S
H3509 C3519 0.930 . S
C3510 H3504 0.930 . S
C3510 C3511 1.355 . S
C3510 C3512 1.415 . S
C3511 C3510 1.355 . S
C3511 C3513 1.419 . S
C3512 C3510 1.415 . S
C3512 C3517 1.425 . S
C3512 C3519 1.409 . S
C3513 H3505 0.930 . S
C3513 C3511 1.419 . S
C3513 C3514 1.362 . S
C3514 H3506 0.930 . S
C3514 C3513 1.362 . S
C3514 C3517 1.409 . S
C3515 H3507 0.930 . S
C3515 C3516 1.355 . S
C3515 C3517 1.415 . S
C3516 C3515 1.355 . S
C3516 C3518 1.419 . S
C3517 C3512 1.425 . S
C3517 C3514 1.409 . S
C3517 C3515 1.415 . S
C3518 H3508 0.930 . S
C3518 C3516 1.419 . S
C3518 C3519 1.362 . S
C3519 H3509 0.930 . S
C3519 C3512 1.409 . S
C3519 C3518 1.362 . S
H3520 C3526 0.930 . S
H3521 C3529 0.930 . S
H3522 C3530 0.930 . S
H3523 C3531 0.930 . S
H3524 C3534 0.930 . S
H3525 C3535 0.930 . S
C3526 H3520 0.930 . S
C3526 C3527 1.355 . S
C3526 C3528 1.415 . S
C3527 C3526 1.355 . S
C3527 C3529 1.419 . S
C3528 C3526 1.415 . S
C3528 C3533 1.425 . S
C3528 C3535 1.409 . S
C3529 H3521 0.930 . S
C3529 C3527 1.419 . S
C3529 C3530 1.362 . S
C3530 H3522 0.930 . S
C3530 C3529 1.362 . S
C3530 C3533 1.409 . S
C3531 H3523 0.930 . S
C3531 C3532 1.355 . S
C3531 C3533 1.415 . S
C3532 C3531 1.355 . S
C3532 C3534 1.419 . S
C3533 C3528 1.425 . S
C3533 C3530 1.409 . S
C3533 C3531 1.415 . S
C3534 H3524 0.930 . S
C3534 C3532 1.419 . S
C3534 C3535 1.362 . S
C3535 H3525 0.930 . S
C3535 C3528 1.409 . S
C3535 C3534 1.362 . S
H3536 C3542 0.930 . S
H3537 C3545 0.930 . S
H3538 C3546 0.930 . S
H3539 C3547 0.930 . S
H3540 C3550 0.930 . S
H3541 C3551 0.930 . S
C3542 H3536 0.930 . S
C3542 C3543 1.355 . S
C3542 C3544 1.415 . S
C3543 C3542 1.355 . S
C3543 C3545 1.419 . S
C3544 C3542 1.415 . S
C3544 C3549 1.425 . S
C3544 C3551 1.409 . S
C3545 H3537 0.930 . S
C3545 C3543 1.419 . S
C3545 C3546 1.362 . S
C3546 H3538 0.930 . S
C3546 C3545 1.362 . S
C3546 C3549 1.409 . S
C3547 H3539 0.930 . S
C3547 C3548 1.355 . S
C3547 C3549 1.415 . S
C3548 C3547 1.355 . S
C3548 C3550 1.419 . S
C3549 C3544 1.425 . S
C3549 C3546 1.409 . S
C3549 C3547 1.415 . S
C3550 H3540 0.930 . S
C3550 C3548 1.419 . S
C3550 C3551 1.362 . S
C3551 H3541 0.930 . S
C3551 C3544 1.409 . S
C3551 C3550 1.362 . S
H3552 C3558 0.930 . S
H3553 C3561 0.930 . S
H3554 C3562 0.930 . S
H3555 C3563 0.930 . S
H3556 C3566 0.930 . S
H3557 C3567 0.930 . S
C3558 H3552 0.930 . S
C3558 C3559 1.355 . S
C3558 C3560 1.415 . S
C3559 C3558 1.355 . S
C3559 C3561 1.419 . S
C3560 C3558 1.415 . S
C3560 C3565 1.425 . S
C3560 C3567 1.409 . S
C3561 H3553 0.930 . S
C3561 C3559 1.419 . S
C3561 C3562 1.362 . S
C3562 H3554 0.930 . S
C3562 C3561 1.362 . S
C3562 C3565 1.409 . S
C3563 H3555 0.930 . S
C3563 C3564 1.355 . S
C3563 C3565 1.415 . S
C3564 C3563 1.355 . S
C3564 C3566 1.419 . S
C3565 C3560 1.425 . S
C3565 C3562 1.409 . S
C3565 C3563 1.415 . S
C3566 H3556 0.930 . S
C3566 C3564 1.419 . S
C3566 C3567 1.362 . S
C3567 H3557 0.930 . S
C3567 C3560 1.409 . S
C3567 C3566 1.362 . S
H3568 C3574 0.930 . S
H3569 C3577 0.930 . S
H3570 C3578 0.930 . S
H3571 C3579 0.930 . S
H3572 C3582 0.930 . S
H3573 C3583 0.930 . S
C3574 H3568 0.930 . S
C3574 C3575 1.355 . S
C3574 C3576 1.415 . S
C3575 C3574 1.355 . S
C3575 C3577 1.419 . S
C3576 C3574 1.415 . S
C3576 C3581 1.425 . S
C3576 C3583 1.409 . S
C3577 H3569 0.930 . S
C3577 C3575 1.419 . S
C3577 C3578 1.362 . S
C3578 H3570 0.930 . S
C3578 C3577 1.362 . S
C3578 C3581 1.409 . S
C3579 H3571 0.930 . S
C3579 C3580 1.355 . S
C3579 C3581 1.415 . S
C3580 C3579 1.355 . S
C3580 C3582 1.419 . S
C3581 C3576 1.425 . S
C3581 C3578 1.409 . S
C3581 C3579 1.415 . S
C3582 H3572 0.930 . S
C3582 C3580 1.419 . S
C3582 C3583 1.362 . S
C3583 H3573 0.930 . S
C3583 C3576 1.409 . S
C3583 C3582 1.362 . S
H3584 C3590 0.930 . S
H3585 C3593 0.930 . S
H3586 C3594 0.930 . S
H3587 C3595 0.930 . S
H3588 C3598 0.930 . S
H3589 C3599 0.930 . S
C3590 H3584 0.930 . S
C3590 C3591 1.355 . S
C3590 C3592 1.415 . S
C3591 C3590 1.355 . S
C3591 C3593 1.419 . S
C3592 C3590 1.415 . S
C3592 C3597 1.425 . S
C3592 C3599 1.409 . S
C3593 H3585 0.930 . S
C3593 C3591 1.419 . S
C3593 C3594 1.362 . S
C3594 H3586 0.930 . S
C3594 C3593 1.362 . S
C3594 C3597 1.409 . S
C3595 H3587 0.930 . S
C3595 C3596 1.355 . S
C3595 C3597 1.415 . S
C3596 C3595 1.355 . S
C3596 C3598 1.419 . S
C3597 C3592 1.425 . S
C3597 C3594 1.409 . S
C3597 C3595 1.415 . S
C3598 H3588 0.930 . S
C3598 C3596 1.419 . S
C3598 C3599 1.362 . S
C3599 H3589 0.930 . S
C3599 C3592 1.409 . S
C3599 C3598 1.362 . S
H3600 C3606 0.930 . S
H3601 C3609 0.930 . S
H3602 C3610 0.930 . S
H3603 C3611 0.930 . S
H3604 C3614 0.930 . S
H3605 C3615 0.930 . S
C3606 H3600 0.930 . S
C3606 C3607 1.355 . S
C3606 C3608 1.415 . S
C3607 C3606 1.355 . S
C3607 C3609 1.419 . S
C3608 C3606 1.415 . S
C3608 C3613 1.425 . S
C3608 C3615 1.409 . S
C3609 H3601 0.930 . S
C3609 C3607 1.419 . S
C3609 C3610 1.362 . S
C3610 H3602 0.930 . S
C3610 C3609 1.362 . S
C3610 C3613 1.409 . S
C3611 H3603 0.930 . S
C3611 C3612 1.355 . S
C3611 C3613 1.415 . S
C3612 C3611 1.355 . S
C3612 C3614 1.419 . S
C3613 C3608 1.425 . S
C3613 C3610 1.409 . S
C3613 C3611 1.415 . S
C3614 H3604 0.930 . S
C3614 C3612 1.419 . S
C3614 C3615 1.362 . S
C3615 H3605 0.930 . S
C3615 C3608 1.409 . S
C3615 C3614 1.362 . S
H3616 C3622 0.930 . S
H3617 C3625 0.930 . S
H3618 C3626 0.930 . S
H3619 C3627 0.930 . S
H3620 C3630 0.930 . S
H3621 C3631 0.930 . S
C3622 H3616 0.930 . S
C3622 C3623 1.355 . S
C3622 C3624 1.415 . S
C3623 C3622 1.355 . S
C3623 C3625 1.419 . S
C3624 C3622 1.415 . S
C3624 C3629 1.425 . S
C3624 C3631 1.409 . S
C3625 H3617 0.930 . S
C3625 C3623 1.419 . S
C3625 C3626 1.362 . S
C3626 H3618 0.930 . S
C3626 C3625 1.362 . S
C3626 C3629 1.409 . S
C3627 H3619 0.930 . S
C3627 C3628 1.355 . S
C3627 C3629 1.415 . S
C3628 C3627 1.355 . S
C3628 C3630 1.419 . S
C3629 C3624 1.425 . S
C3629 C3626 1.409 . S
C3629 C3627 1.415 . S
C3630 H3620 0.930 . S
C3630 C3628 1.419 . S
C3630 C3631 1.362 . S
C3631 H3621 0.930 . S
C3631 C3624 1.409 . S
C3631 C3630 1.362 . S
H3632 C3638 0.930 . S
H3633 C3641 0.930 . S
H3634 C3642 0.930 . S
H3635 C3643 0.930 . S
H3636 C3646 0.930 . S
H3637 C3647 0.930 . S
C3638 H3632 0.930 . S
C3638 C3639 1.355 . S
C3638 C3640 1.415 . S
C3639 C3638 1.355 . S
C3639 C3641 1.419 . S
C3640 C3638 1.415 . S
C3640 C3645 1.425 . S
C3640 C3647 1.409 . S
C3641 H3633 0.930 . S
C3641 C3639 1.419 . S
C3641 C3642 1.362 . S
C3642 H3634 0.930 . S
C3642 C3641 1.362 . S
C3642 C3645 1.409 . S
C3643 H3635 0.930 . S
C3643 C3644 1.355 . S
C3643 C3645 1.415 . S
C3644 C3643 1.355 . S
C3644 C3646 1.419 . S
C3645 C3640 1.425 . S
C3645 C3642 1.409 . S
C3645 C3643 1.415 . S
C3646 H3636 0.930 . S
C3646 C3644 1.419 . S
C3646 C3647 1.362 . S
C3647 H3637 0.930 . S
C3647 C3640 1.409 . S
C3647 C3646 1.362 . S
H3648 C3654 0.930 . S
H3649 C3657 0.930 . S
H3650 C3658 0.930 . S
H3651 C3659 0.930 . S
H3652 C3662 0.930 . S
H3653 C3663 0.930 . S
C3654 H3648 0.930 . S
C3654 C3655 1.355 . S
C3654 C3656 1.415 . S
C3655 C3654 1.355 . S
C3655 C3657 1.419 . S
C3656 C3654 1.415 . S
C3656 C3661 1.425 . S
C3656 C3663 1.409 . S
C3657 H3649 0.930 . S
C3657 C3655 1.419 . S
C3657 C3658 1.362 . S
C3658 H3650 0.930 . S
C3658 C3657 1.362 . S
C3658 C3661 1.409 . S
C3659 H3651 0.930 . S
C3659 C3660 1.355 . S
C3659 C3661 1.415 . S
C3660 C3659 1.355 . S
C3660 C3662 1.419 . S
C3661 C3656 1.425 . S
C3661 C3658 1.409 . S
C3661 C3659 1.415 . S
C3662 H3652 0.930 . S
C3662 C3660 1.419 . S
C3662 C3663 1.362 . S
C3663 H3653 0.930 . S
C3663 C3656 1.409 . S
C3663 C3662 1.362 . S
H3664 C3670 0.930 . S
H3665 C3673 0.930 . S
H3666 C3674 0.930 . S
H3667 C3675 0.930 . S
H3668 C3678 0.930 . S
H3669 C3679 0.930 . S
C3670 H3664 0.930 . S
C3670 C3671 1.355 . S
C3670 C3672 1.415 . S
C3671 C3670 1.355 . S
C3671 C3673 1.419 . S
C3672 C3670 1.415 . S
C3672 C3677 1.425 . S
C3672 C3679 1.409 . S
C3673 H3665 0.930 . S
C3673 C3671 1.419 . S
C3673 C3674 1.362 . S
C3674 H3666 0.930 . S
C3674 C3673 1.362 . S
C3674 C3677 1.409 . S
C3675 H3667 0.930 . S
C3675 C3676 1.355 . S
C3675 C3677 1.415 . S
C3676 C3675 1.355 . S
C3676 C3678 1.419 . S
C3677 C3672 1.425 . S
C3677 C3674 1.409 . S
C3677 C3675 1.415 . S
C3678 H3668 0.930 . S
C3678 C3676 1.419 . S
C3678 C3679 1.362 . S
C3679 H3669 0.930 . S
C3679 C3672 1.409 . S
C3679 C3678 1.362 . S
H3680 C3686 0.930 . S
H3681 C3689 0.930 . S
H3682 C3690 0.930 . S
H3683 C3691 0.930 . S
H3684 C3694 0.930 . S
H3685 C3695 0.930 . S
C3686 H3680 0.930 . S
C3686 C3687 1.355 . S
C3686 C3688 1.415 . S
C3687 C3686 1.355 . S
C3687 C3689 1.419 . S
C3688 C3686 1.415 . S
C3688 C3693 1.425 . S
C3688 C3695 1.409 . S
C3689 H3681 0.930 . S
C3689 C3687 1.419 . S
C3689 C3690 1.362 . S
C3690 H3682 0.930 . S
C3690 C3689 1.362 . S
C3690 C3693 1.409 . S
C3691 H3683 0.930 . S
C3691 C3692 1.355 . S
C3691 C3693 1.415 . S
C3692 C3691 1.355 . S
C3692 C3694 1.419 . S
C3693 C3688 1.425 . S
C3693 C3690 1.409 . S
C3693 C3691 1.415 . S
C3694 H3684 0.930 . S
C3694 C3692 1.419 . S
C3694 C3695 1.362 . S
C3695 H3685 0.930 . S
C3695 C3688 1.409 . S
C3695 C3694 1.362 . S
H3696 C3702 0.930 . S
H3697 C3705 0.930 . S
H3698 C3706 0.930 . S
H3699 C3707 0.930 . S
H3700 C3710 0.930 . S
H3701 C3711 0.930 . S
C3702 H3696 0.930 . S
C3702 C3703 1.355 . S
C3702 C3704 1.415 . S
C3703 C3702 1.355 . S
C3703 C3705 1.419 . S
C3704 C3702 1.415 . S
C3704 C3709 1.425 . S
C3704 C3711 1.409 . S
C3705 H3697 0.930 . S
C3705 C3703 1.419 . S
C3705 C3706 1.362 . S
C3706 H3698 0.930 . S
C3706 C3705 1.362 . S
C3706 C3709 1.409 . S
C3707 H3699 0.930 . S
C3707 C3708 1.355 . S
C3707 C3709 1.415 . S
C3708 C3707 1.355 . S
C3708 C3710 1.419 . S
C3709 C3704 1.425 . S
C3709 C3706 1.409 . S
C3709 C3707 1.415 . S
C3710 H3700 0.930 . S
C3710 C3708 1.419 . S
C3710 C3711 1.362 . S
C3711 H3701 0.930 . S
C3711 C3704 1.409 . S
C3711 C3710 1.362 . S
H3712 C3718 0.930 . S
H3713 C3721 0.930 . S
H3714 C3722 0.930 . S
H3715 C3723 0.930 . S
H3716 C3726 0.930 . S
H3717 C3727 0.930 . S
C3718 H3712 0.930 . S
C3718 C3719 1.355 . S
C3718 C3720 1.415 . S
C3719 C3718 1.355 . S
C3719 C3721 1.419 . S
C3720 C3718 1.415 . S
C3720 C3725 1.425 . S
C3720 C3727 1.409 . S
C3721 H3713 0.930 . S
C3721 C3719 1.419 . S
C3721 C3722 1.362 . S
C3722 H3714 0.930 . S
C3722 C3721 1.362 . S
C3722 C3725 1.409 . S
C3723 H3715 0.930 . S
C3723 C3724 1.355 . S
C3723 C3725 1.415 . S
C3724 C3723 1.355 . S
C3724 C3726 1.419 . S
C3725 C3720 1.425 . S
C3725 C3722 1.409 . S
C3725 C3723 1.415 . S
C3726 H3716 0.930 . S
C3726 C3724 1.419 . S
C3726 C3727 1.362 . S
C3727 H3717 0.930 . S
C3727 C3720 1.409 . S
C3727 C3726 1.362 . S
H3728 C3734 0.930 . S
H3729 C3737 0.930 . S
H3730 C3738 0.930 . S
H3731 C3739 0.930 . S
H3732 C3742 0.930 . S
H3733 C3743 0.930 . S
C3734 H3728 0.930 . S
C3734 C3735 1.355 . S
C3734 C3736 1.415 . S
C3735 C3734 1.355 . S
C3735 C3737 1.419 . S
C3736 C3734 1.415 . S
C3736 C3741 1.425 . S
C3736 C3743 1.409 . S
C3737 H3729 0.930 . S
C3737 C3735 1.419 . S
C3737 C3738 1.362 . S
C3738 H3730 0.930 . S
C3738 C3737 1.362 . S
C3738 C3741 1.409 . S
C3739 H3731 0.930 . S
C3739 C3740 1.355 . S
C3739 C3741 1.415 . S
C3740 C3739 1.355 . S
C3740 C3742 1.419 . S
C3741 C3736 1.425 . S
C3741 C3738 1.409 . S
C3741 C3739 1.415 . S
C3742 H3732 0.930 . S
C3742 C3740 1.419 . S
C3742 C3743 1.362 . S
C3743 H3733 0.930 . S
C3743 C3736 1.409 . S
C3743 C3742 1.362 . S
H3744 C3750 0.930 . S
H3745 C3753 0.930 . S
H3746 C3754 0.930 . S
H3747 C3755 0.930 . S
H3748 C3758 0.930 . S
H3749 C3759 0.930 . S
C3750 H3744 0.930 . S
C3750 C3751 1.355 . S
C3750 C3752 1.415 . S
C3751 C3750 1.355 . S
C3751 C3753 1.419 . S
C3752 C3750 1.415 . S
C3752 C3757 1.425 . S
C3752 C3759 1.409 . S
C3753 H3745 0.930 . S
C3753 C3751 1.419 . S
C3753 C3754 1.362 . S
C3754 H3746 0.930 . S
C3754 C3753 1.362 . S
C3754 C3757 1.409 . S
C3755 H3747 0.930 . S
C3755 C3756 1.355 . S
C3755 C3757 1.415 . S
C3756 C3755 1.355 . S
C3756 C3758 1.419 . S
C3757 C3752 1.425 . S
C3757 C3754 1.409 . S
C3757 C3755 1.415 . S
C3758 H3748 0.930 . S
C3758 C3756 1.419 . S
C3758 C3759 1.362 . S
C3759 H3749 0.930 . S
C3759 C3752 1.409 . S
C3759 C3758 1.362 . S
H3760 C3766 0.930 . S
H3761 C3769 0.930 . S
H3762 C3770 0.930 . S
H3763 C3771 0.930 . S
H3764 C3774 0.930 . S
H3765 C3775 0.930 . S
C3766 H3760 0.930 . S
C3766 C3767 1.355 . S
C3766 C3768 1.415 . S
C3767 C3766 1.355 . S
C3767 C3769 1.419 . S
C3768 C3766 1.415 . S
C3768 C3773 1.425 . S
C3768 C3775 1.409 . S
C3769 H3761 0.930 . S
C3769 C3767 1.419 . S
C3769 C3770 1.362 . S
C3770 H3762 0.930 . S
C3770 C3769 1.362 . S
C3770 C3773 1.409 . S
C3771 H3763 0.930 . S
C3771 C3772 1.355 . S
C3771 C3773 1.415 . S
C3772 C3771 1.355 . S
C3772 C3774 1.419 . S
C3773 C3768 1.425 . S
C3773 C3770 1.409 . S
C3773 C3771 1.415 . S
C3774 H3764 0.930 . S
C3774 C3772 1.419 . S
C3774 C3775 1.362 . S
C3775 H3765 0.930 . S
C3775 C3768 1.409 . S
C3775 C3774 1.362 . S
H3776 C3782 0.930 . S
H3777 C3785 0.930 . S
H3778 C3786 0.930 . S
H3779 C3787 0.930 . S
H3780 C3790 0.930 . S
H3781 C3791 0.930 . S
C3782 H3776 0.930 . S
C3782 C3783 1.355 . S
C3782 C3784 1.415 . S
C3783 C3782 1.355 . S
C3783 C3785 1.419 . S
C3784 C3782 1.415 . S
C3784 C3789 1.425 . S
C3784 C3791 1.409 . S
C3785 H3777 0.930 . S
C3785 C3783 1.419 . S
C3785 C3786 1.362 . S
C3786 H3778 0.930 . S
C3786 C3785 1.362 . S
C3786 C3789 1.409 . S
C3787 H3779 0.930 . S
C3787 C3788 1.355 . S
C3787 C3789 1.415 . S
C3788 C3787 1.355 . S
C3788 C3790 1.419 . S
C3789 C3784 1.425 . S
C3789 C3786 1.409 . S
C3789 C3787 1.415 . S
C3790 H3780 0.930 . S
C3790 C3788 1.419 . S
C3790 C3791 1.362 . S
C3791 H3781 0.930 . S
C3791 C3784 1.409 . S
C3791 C3790 1.362 . S
H3792 C3798 0.930 . S
H3793 C3801 0.930 . S
H3794 C3802 0.930 . S
H3795 C3803 0.930 . S
H3796 C3806 0.930 . S
H3797 C3807 0.930 . S
C3798 H3792 0.930 . S
C3798 C3799 1.355 . S
C3798 C3800 1.415 . S
C3799 C3798 1.355 . S
C3799 C3801 1.419 . S
C3800 C3798 1.415 . S
C3800 C3805 1.425 . S
C3800 C3807 1.409 . S
C3801 H3793 0.930 . S
C3801 C3799 1.419 . S
C3801 C3802 1.362 . S
C3802 H3794 0.930 . S
C3802 C3801 1.362 . S
C3802 C3805 1.409 . S
C3803 H3795 0.930 . S
C3803 C3804 1.355 . S
C3803 C3805 1.415 . S
C3804 C3803 1.355 . S
C3804 C3806 1.419 . S
C3805 C3800 1.425 . S
C3805 C3802 1.409 . S
C3805 C3803 1.415 . S
C3806 H3796 0.930 . S
C3806 C3804 1.419 . S
C3806 C3807 1.362 . S
C3807 H3797 0.930 . S
C3807 C3800 1.409 . S
C3807 C3806 1.362 . S
H3808 C3814 0.930 . S
H3809 C3817 0.930 . S
H3810 C3818 0.930 . S
H3811 C3819 0.930 . S
H3812 C3822 0.930 . S
H3813 C3823 0.930 . S
C3814 H3808 0.930 . S
C3814 C3815 1.355 . S
C3814 C3816 1.415 . S
C3815 C3814 1.355 . S
C3815 C3817 1.419 . S
C3816 C3814 1.415 . S
C3816 C3821 1.425 . S
C3816 C3823 1.409 . S
C3817 H3809 0.930 . S
C3817 C3815 1.419 . S
C3817 C3818 1.362 . S
C3818 H3810 0.930 . S
C3818 C3817 1.362 . S
C3818 C3821 1.409 . S
C3819 H3811 0.930 . S
C3819 C3820 1.355 . S
C3819 C3821 1.415 . S
C3820 C3819 1.355 . S
C3820 C3822 1.419 . S
C3821 C3816 1.425 . S
C3821 C3818 1.409 . S
C3821 C3819 1.415 . S
C3822 H3812 0.930 . S
C3822 C3820 1.419 . S
C3822 C3823 1.362 . S
C3823 H3813 0.930 . S
C3823 C3816 1.409 . S
C3823 C3822 1.362 . S
H3824 C3830 0.930 . S
H3825 C3833 0.930 . S
H3826 C3834 0.930 . S
H3827 C3835 0.930 . S
H3828 C3838 0.930 . S
H3829 C3839 0.930 . S
C3830 H3824 0.930 . S
C3830 C3831 1.355 . S
C3830 C3832 1.415 . S
C3831 C3830 1.355 . S
C3831 C3833 1.419 . S
C3832 C3830 1.415 . S
C3832 C3837 1.425 . S
C3832 C3839 1.409 . S
C3833 H3825 0.930 . S
C3833 C3831 1.419 . S
C3833 C3834 1.362 . S
C3834 H3826 0.930 . S
C3834 C3833 1.362 . S
C3834 C3837 1.409 . S
C3835 H3827 0.930 . S
C3835 C3836 1.355 . S
C3835 C3837 1.415 . S
C3836 C3835 1.355 . S
C3836 C3838 1.419 . S
C3837 C3832 1.425 . S
C3837 C3834 1.409 . S
C3837 C3835 1.415 . S
C3838 H3828 0.930 . S
C3838 C3836 1.419 . S
C3838 C3839 1.362 . S
C3839 H3829 0.930 . S
C3839 C3832 1.409 . S
C3839 C3838 1.362 . S
H3840 C3846 0.930 . S
H3841 C3849 0.930 . S
H3842 C3850 0.930 . S
H3843 C3851 0.930 . S
H3844 C3854 0.930 . S
H3845 C3855 0.930 . S
C3846 H3840 0.930 . S
C3846 C3847 1.355 . S
C3846 C3848 1.415 . S
C3847 C3846 1.355 . S
C3847 C3849 1.419 . S
C3848 C3846 1.415 . S
C3848 C3853 1.425 . S
C3848 C3855 1.409 . S
C3849 H3841 0.930 . S
C3849 C3847 1.419 . S
C3849 C3850 1.362 . S
C3850 H3842 0.930 . S
C3850 C3849 1.362 . S
C3850 C3853 1.409 . S
C3851 H3843 0.930 . S
C3851 C3852 1.355 . S
C3851 C3853 1.415 . S
C3852 C3851 1.355 . S
C3852 C3854 1.419 . S
C3853 C3848 1.425 . S
C3853 C3850 1.409 . S
C3853 C3851 1.415 . S
C3854 H3844 0.930 . S
C3854 C3852 1.419 . S
C3854 C3855 1.362 . S
C3855 H3845 0.930 . S
C3855 C3848 1.409 . S
C3855 C3854 1.362 . S
H3856 C3862 0.930 . S
H3857 C3865 0.930 . S
H3858 C3866 0.930 . S
H3859 C3867 0.930 . S
H3860 C3870 0.930 . S
H3861 C3871 0.930 . S
C3862 H3856 0.930 . S
C3862 C3863 1.355 . S
C3862 C3864 1.415 . S
C3863 C3862 1.355 . S
C3863 C3865 1.419 . S
C3864 C3862 1.415 . S
C3864 C3869 1.425 . S
C3864 C3871 1.409 . S
C3865 H3857 0.930 . S
C3865 C3863 1.419 . S
C3865 C3866 1.362 . S
C3866 H3858 0.930 . S
C3866 C3865 1.362 . S
C3866 C3869 1.409 . S
C3867 H3859 0.930 . S
C3867 C3868 1.355 . S
C3867 C3869 1.415 . S
C3868 C3867 1.355 . S
C3868 C3870 1.419 . S
C3869 C3864 1.425 . S
C3869 C3866 1.409 . S
C3869 C3867 1.415 . S
C3870 H3860 0.930 . S
C3870 C3868 1.419 . S
C3870 C3871 1.362 . S
C3871 H3861 0.930 . S
C3871 C3864 1.409 . S
C3871 C3870 1.362 . S
H3872 C3878 0.930 . S
H3873 C3881 0.930 . S
H3874 C3882 0.930 . S
H3875 C3883 0.930 . S
H3876 C3886 0.930 . S
H3877 C3887 0.930 . S
C3878 H3872 0.930 . S
C3878 C3879 1.355 . S
C3878 C3880 1.415 . S
C3879 C3878 1.355 . S
C3879 C3881 1.419 . S
C3880 C3878 1.415 . S
C3880 C3885 1.425 . S
C3880 C3887 1.409 . S
C3881 H3873 0.930 . S
C3881 C3879 1.419 . S
C3881 C3882 1.362 . S
C3882 H3874 0.930 . S
C3882 C3881 1.362 . S
C3882 C3885 1.409 . S
C3883 H3875 0.930 . S
C3883 C3884 1.355 . S
C3883 C3885 1.415 . S
C3884 C3883 1.355 . S
C3884 C3886 1.419 . S
C3885 C3880 1.425 . S
C3885 C3882 1.409 . S
C3885 C3883 1.415 . S
C3886 H3876 0.930 . S
C3886 C3884 1.419 . S
C3886 C3887 1.362 . S
C3887 H3877 0.930 . S
C3887 C3880 1.409 . S
C3887 C3886 1.362 . S
H3888 C3894 0.930 . S
H3889 C3897 0.930 . S
H3890 C3898 0.930 . S
H3891 C3899 0.930 . S
H3892 C3902 0.930 . S
H3893 C3903 0.930 . S
C3894 H3888 0.930 . S
C3894 C3895 1.355 . S
C3894 C3896 1.415 . S
C3895 C3894 1.355 . S
C3895 C3897 1.419 . S
C3896 C3894 1.415 . S
C3896 C3901 1.425 . S
C3896 C3903 1.409 . S
C3897 H3889 0.930 . S
C3897 C3895 1.419 . S
C3897 C3898 1.362 . S
C3898 H3890 0.930 . S
C3898 C3897 1.362 . S
C3898 C3901 1.409 . S
C3899 H3891 0.930 . S
C3899 C3900 1.355 . S
C3899 C3901 1.415 . S
C3900 C3899 1.355 . S
C3900 C3902 1.419 . S
C3901 C3896 1.425 . S
C3901 C3898 1.409 . S
C3901 C3899 1.415 . S
C3902 H3892 0.930 . S
C3902 C3900 1.419 . S
C3902 C3903 1.362 . S
C3903 H3893 0.930 . S
C3903 C3896 1.409 . S
C3903 C3902 1.362 . S
H3904 C3910 0.930 . S
H3905 C3913 0.930 . S
H3906 C3914 0.930 . S
H3907 C3915 0.930 . S
H3908 C3918 0.930 . S
H3909 C3919 0.930 . S
C3910 H3904 0.930 . S
C3910 C3911 1.355 . S
C3910 C3912 1.415 . S
C3911 C3910 1.355 . S
C3911 C3913 1.419 . S
C3912 C3910 1.415 . S
C3912 C3917 1.425 . S
C3912 C3919 1.409 . S
C3913 H3905 0.930 . S
C3913 C3911 1.419 . S
C3913 C3914 1.362 . S
C3914 H3906 0.930 . S
C3914 C3913 1.362 . S
C3914 C3917 1.409 . S
C3915 H3907 0.930 . S
C3915 C3916 1.355 . S
C3915 C3917 1.415 . S
C3916 C3915 1.355 . S
C3916 C3918 1.419 . S
C3917 C3912 1.425 . S
C3917 C3914 1.409 . S
C3917 C3915 1.415 . S
C3918 H3908 0.930 . S
C3918 C3916 1.419 . S
C3918 C3919 1.362 . S
C3919 H3909 0.930 . S
C3919 C3912 1.409 . S
C3919 C3918 1.362 . S
H3920 C3926 0.930 . S
H3921 C3929 0.930 . S
H3922 C3930 0.930 . S
H3923 C3931 0.930 . S
H3924 C3934 0.930 . S
H3925 C3935 0.930 . S
C3926 H3920 0.930 . S
C3926 C3927 1.355 . S
C3926 C3928 1.415 . S
C3927 C3926 1.355 . S
C3927 C3929 1.419 . S
C3928 C3926 1.415 . S
C3928 C3933 1.425 . S
C3928 C3935 1.409 . S
C3929 H3921 0.930 . S
C3929 C3927 1.419 . S
C3929 C3930 1.362 . S
C3930 H3922 0.930 . S
C3930 C3929 1.362 . S
C3930 C3933 1.409 . S
C3931 H3923 0.930 . S
C3931 C3932 1.355 . S
C3931 C3933 1.415 . S
C3932 C3931 1.355 . S
C3932 C3934 1.419 . S
C3933 C3928 1.425 . S
C3933 C3930 1.409 . S
C3933 C3931 1.415 . S
C3934 H3924 0.930 . S
C3934 C3932 1.419 . S
C3934 C3935 1.362 . S
C3935 H3925 0.930 . S
C3935 C3928 1.409 . S
C3935 C3934 1.362 . S
H3936 C3942 0.930 . S
H3937 C3945 0.930 . S
H3938 C3946 0.930 . S
H3939 C3947 0.930 . S
H3940 C3950 0.930 . S
H3941 C3951 0.930 . S
C3942 H3936 0.930 . S
C3942 C3943 1.355 . S
C3942 C3944 1.415 . S
C3943 C3942 1.355 . S
C3943 C3945 1.419 . S
C3944 C3942 1.415 . S
C3944 C3949 1.425 . S
C3944 C3951 1.409 . S
C3945 H3937 0.930 . S
C3945 C3943 1.419 . S
C3945 C3946 1.362 . S
C3946 H3938 0.930 . S
C3946 C3945 1.362 . S
C3946 C3949 1.409 . S
C3947 H3939 0.930 . S
C3947 C3948 1.355 . S
C3947 C3949 1.415 . S
C3948 C3947 1.355 . S
C3948 C3950 1.419 . S
C3949 C3944 1.425 . S
C3949 C3946 1.409 . S
C3949 C3947 1.415 . S
C3950 H3940 0.930 . S
C3950 C3948 1.419 . S
C3950 C3951 1.362 . S
C3951 H3941 0.930 . S
C3951 C3944 1.409 . S
C3951 C3950 1.362 . S
H3952 C3958 0.930 . S
H3953 C3961 0.930 . S
H3954 C3962 0.930 . S
H3955 C3963 0.930 . S
H3956 C3966 0.930 . S
H3957 C3967 0.930 . S
C3958 H3952 0.930 . S
C3958 C3959 1.355 . S
C3958 C3960 1.415 . S
C3959 C3958 1.355 . S
C3959 C3961 1.419 . S
C3960 C3958 1.415 . S
C3960 C3965 1.425 . S
C3960 C3967 1.409 . S
C3961 H3953 0.930 . S
C3961 C3959 1.419 . S
C3961 C3962 1.362 . S
C3962 H3954 0.930 . S
C3962 C3961 1.362 . S
C3962 C3965 1.409 . S
C3963 H3955 0.930 . S
C3963 C3964 1.355 . S
C3963 C3965 1.415 . S
C3964 C3963 1.355 . S
C3964 C3966 1.419 . S
C3965 C3960 1.425 . S
C3965 C3962 1.409 . S
C3965 C3963 1.415 . S
C3966 H3956 0.930 . S
C3966 C3964 1.419 . S
C3966 C3967 1.362 . S
C3967 H3957 0.930 . S
C3967 C3960 1.409 . S
C3967 C3966 1.362 . S
H3968 C3974 0.930 . S
H3969 C3977 0.930 . S
H3970 C3978 0.930 . S
H3971 C3979 0.930 . S
H3972 C3982 0.930 . S
H3973 C3983 0.930 . S
C3974 H3968 0.930 . S
C3974 C3975 1.355 . S
C3974 C3976 1.415 . S
C3975 C3974 1.355 . S
C3975 C3977 1.419 . S
C3976 C3974 1.415 . S
C3976 C3981 1.425 . S
C3976 C3983 1.409 . S
C3977 H3969 0.930 . S
C3977 C3975 1.419 . S
C3977 C3978 1.362 . S
C3978 H3970 0.930 . S
C3978 C3977 1.362 . S
C3978 C3981 1.409 . S
C3979 H3971 0.930 . S
C3979 C3980 1.355 . S
C3979 C3981 1.415 . S
C3980 C3979 1.355 . S
C3980 C3982 1.419 . S
C3981 C3976 1.425 . S
C3981 C3978 1.409 . S
C3981 C3979 1.415 . S
C3982 H3972 0.930 . S
C3982 C3980 1.419 . S
C3982 C3983 1.362 . S
C3983 H3973 0.930 . S
C3983 C3976 1.409 . S
C3983 C3982 1.362 . S
H3984 C3990 0.930 . S
H3985 C3993 0.930 . S
H3986 C3994 0.930 . S
H3987 C3995 0.930 . S
H3988 C3998 0.930 . S
H3989 C3999 0.930 . S
C3990 H3984 0.930 . S
C3990 C3991 1.355 . S
C3990 C3992 1.415 . S
C3991 C3990 1.355 . S
C3991 C3993 1.419 . S
C3992 C3990 1.415 . S
C3992 C3997 1.425 . S
C3992 C3999 1.409 . S
C3993 H3985 0.930 . S
C3993 C3991 1.419 . S
C3993 C3994 1.362 . S
C3994 H3986 0.930 . S
C3994 C3993 1.362 . S
C3994 C3997 1.409 . S
C3995 H3987 0.930 . S
C3995 C3996 1.355 . S
C3995 C3997 1.415 . S
C3996 C3995 1.355 . S
C3996 C3998 1.419 . S
C3997 C3992 1.425 . S
C3997 C3994 1.409 . S
C3997 C3995 1.415 . S
C3998 H3988 0.930 . S
C3998 C3996 1.419 . S
C3998 C3999 1.362 . S
C3999 H3989 0.930 . S
C3999 C3992 1.409 . S
C3999 C3998 1.362 . S
H4000 C4006 0.930 . S
H4001 C4009 0.930 . S
H4002 C4010 0.930 . S
H4003 C4011 0.930 . S
H4004 C4014 0.930 . S
H4005 C4015 0.930 . S
C4006 H4000 0.930 . S
C4006 C4007 1.355 . S
C4006 C4008 1.415 . S
C4007 C4006 1.355 . S
C4007 C4009 1.419 . S
C4008 C4006 1.415 . S
C4008 C4013 1.425 . S
C4008 C4015 1.409 . S
C4009 H4001 0.930 . S
C4009 C4007 1.419 . S
C4009 C4010 1.362 . S
C4010 H4002 0.930 . S
C4010 C4009 1.362 . S
C4010 C4013 1.409 . S
C4011 H4003 0.930 . S
C4011 C4012 1.355 . S
C4011 C4013 1.415 . S
C4012 C4011 1.355 . S
C4012 C4014 1.419 . S
C4013 C4008 1.425 . S
C4013 C4010 1.409 . S
C4013 C4011 1.415 . S
C4014 H4004 0.930 . S
C4014 C4012 1.419 . S
C4014 C4015 1.362 . S
C4015 H4005 0.930 . S
C4015 C4008 1.409 . S
C4015 C4014 1.362 . S
H4016 C4022 0.930 . S
H4017 C4025 0.930 . S
H4018 C4026 0.930 . S
H4019 C4027 0.930 . S
H4020 C4030 0.930 . S
H4021 C4031 0.930 . S
C4022 H4016 0.930 . S
C4022 C4023 1.355 . S
C4022 C4024 1.415 . S
C4023 C4022 1.355 . S
C4023 C4025 1.419 . S
C4024 C4022 1.415 . S
C4024 C4029 1.425 . S
C4024 C4031 1.409 . S
C4025 H4017 0.930 . S
C4025 C4023 1.419 . S
C4025 C4026 1.362 . S
C4026 H4018 0.930 . S
C4026 C4025 1.362 . S
C4026 C4029 1.409 . S
C4027 H4019 0.930 . S
C4027 C4028 1.355 . S
C4027 C4029 1.415 . S
C4028 C4027 1.355 . S
C4028 C4030 1.419 . S
C4029 C4024 1.425 . S
C4029 C4026 1.409 . S
C4029 C4027 1.415 . S
C4030 H4020 0.930 . S
C4030 C4028 1.419 . S
C4030 C4031 1.362 . S
C4031 H4021 0.930 . S
C4031 C4024 1.409 . S
C4031 C4030 1.362 . S
H4032 C4038 0.930 . S
H4033 C4041 0.930 . S
H4034 C4042 0.930 . S
H4035 C4043 0.930 . S
H4036 C4046 0.930 . S
H4037 C4047 0.930 . S
C4038 H4032 0.930 . S
C4038 C4039 1.355 . S
C4038 C4040 1.415 . S
C4039 C4038 1.355 . S
C4039 C4041 1.419 . S
C4040 C4038 1.415 . S
C4040 C4045 1.425 . S
C4040 C4047 1.409 . S
C4041 H4033 0.930 . S
C4041 C4039 1.419 . S
C4041 C4042 1.362 . S
C4042 H4034 0.930 . S
C4042 C4041 1.362 . S
C4042 C4045 1.409 . S
C4043 H4035 0.930 . S
C4043 C4044 1.355 . S
C4043 C4045 1.415 1_554 S
C4044 C4043 1.355 . S
C4044 C4046 1.419 . S
C4045 C4040 1.425 . S
C4045 C4042 1.409 . S
C4045 C4043 1.415 1_556 S
C4046 H4036 0.930 . S
C4046 C4044 1.419 . S
C4046 C4047 1.362 1_554 S
C4047 H4037 0.930 . S
C4047 C4040 1.409 . S
C4047 C4046 1.362 1_556 S
H4048 C4054 0.930 . S
H4049 C4057 0.930 . S
H4050 C4058 0.930 . S
H4051 C4059 0.930 . S
H4052 C4062 0.930 . S
H4053 C4063 0.930 . S
C4054 H4048 0.930 . S
C4054 C4055 1.355 . S
C4054 C4056 1.415 1_554 S
C4055 C4054 1.355 . S
C4055 C4057 1.419 . S
C4056 C4054 1.415 1_556 S
C4056 C4061 1.425 . S
C4056 C4063 1.409 . S
C4057 H4049 0.930 . S
C4057 C4055 1.419 . S
C4057 C4058 1.362 1_554 S
C4058 H4050 0.930 . S
C4058 C4057 1.362 1_556 S
C4058 C4061 1.409 . S
C4059 H4051 0.930 . S
C4059 C4060 1.355 . S
C4059 C4061 1.415 . S
C4060 C4059 1.355 . S
C4060 C4062 1.419 . S
C4061 C4056 1.425 . S
C4061 C4058 1.409 . S
C4061 C4059 1.415 . S
C4062 H4052 0.930 . S
C4062 C4060 1.419 . S
C4062 C4063 1.362 . S
C4063 H4053 0.930 . S
C4063 C4056 1.409 . S
C4063 C4062 1.362 . S
H4064 C4070 0.930 . S
H4065 C4073 0.930 . S
H4066 C4074 0.926 1_556 S
H4067 C4075 0.930 . S
H4068 C4078 0.930 . S
H4069 C4079 0.930 . S
C4070 H4064 0.930 . S
C4070 C4071 1.355 . S
C4070 C4072 1.415 1_554 S
C4071 C4070 1.355 . S
C4071 C4073 1.419 . S
C4072 C4070 1.415 1_556 S
C4072 C4077 1.425 . S
C4072 C4079 1.409 . S
C4073 H4065 0.930 . S
C4073 C4071 1.419 . S
C4073 C4074 1.381 . S
C4074 H4066 0.926 1_554 S
C4074 C4073 1.381 . S
C4074 C4077 1.395 1_554 S
C4075 H4067 0.930 . S
C4075 C4076 1.355 . S
C4075 C4077 1.415 . S
C4076 C4075 1.355 . S
C4076 C4078 1.419 . S
C4077 C4072 1.425 . S
C4077 C4074 1.395 1_556 S
C4077 C4075 1.415 . S
C4078 H4068 0.930 . S
C4078 C4076 1.419 . S
C4078 C4079 1.362 . S
C4079 H4069 0.930 . S
C4079 C4072 1.409 . S
C4079 C4078 1.362 . S
H4080 C4086 0.930 . S
H4081 C4089 0.930 . S
H4082 C4090 0.930 . S
H4083 C4091 0.930 . S
H4084 C4094 0.930 . S
H4085 C4095 0.930 . S
C4086 H4080 0.930 . S
C4086 C4087 1.355 . S
C4086 C4088 1.415 1_554 S
C4087 C4086 1.355 . S
C4087 C4089 1.419 . S
C4088 C4086 1.415 1_556 S
C4088 C4093 1.425 . S
C4088 C4095 1.409 . S
C4089 H4081 0.930 . S
C4089 C4087 1.419 . S
C4089 C4090 1.362 1_554 S
C4090 H4082 0.930 . S
C4090 C4089 1.362 1_556 S
C4090 C4093 1.409 . S
C4091 H4083 0.930 . S
C4091 C4092 1.355 . S
C4091 C4093 1.415 . S
C4092 C4091 1.355 . S
C4092 C4094 1.419 . S
C4093 C4088 1.425 . S
C4093 C4090 1.409 . S
C4093 C4091 1.415 . S
C4094 H4084 0.930 . S
C4094 C4092 1.419 . S
C4094 C4095 1.362 . S
C4095 H4085 0.930 . S
C4095 C4088 1.409 . S
C4095 C4094 1.362 . S
H4096 C4102 0.930 . S
H4097 C4105 0.930 . S
H4098 C4106 0.930 . S
H4099 C4107 0.930 . S
H4100 C4110 0.930 . S
H4101 C4111 0.930 . S
C4102 H4096 0.930 . S
C4102 C4103 1.355 . S
C4102 C4104 1.415 . S
C4103 C4102 1.355 . S
C4103 C4105 1.419 . S
C4104 C4102 1.415 . S
C4104 C4109 1.425 . S
C4104 C4111 1.409 . S
C4105 H4097 0.930 . S
C4105 C4103 1.419 . S
C4105 C4106 1.362 . S
C4106 H4098 0.930 . S
C4106 C4105 1.362 . S
C4106 C4109 1.409 . S
C4107 H4099 0.930 . S
C4107 C4108 1.355 . S
C4107 C4109 1.415 1_556 S
C4108 C4107 1.355 . S
C4108 C4110 1.419 . S
C4109 C4104 1.425 . S
C4109 C4106 1.409 . S
C4109 C4107 1.415 1_554 S
C4110 H4100 0.930 . S
C4110 C4108 1.419 . S
C4110 C4111 1.362 1_556 S
C4111 H4101 0.930 . S
C4111 C4104 1.409 . S
C4111 C4110 1.362 1_554 S
H4112 C4118 0.930 . S
H4113 C4121 0.930 . S
H4114 C4122 0.920 1_554 S
H4115 C4123 0.930 . S
H4116 C4126 0.930 . S
H4117 C4127 0.930 . S
C4118 H4112 0.930 . S
C4118 C4119 1.355 . S
C4118 C4120 1.415 1_556 S
C4119 C4118 1.355 . S
C4119 C4121 1.419 . S
C4120 C4118 1.415 1_554 S
C4120 C4125 1.425 . S
C4120 C4127 1.409 . S
C4121 H4113 0.930 . S
C4121 C4119 1.419 . S
C4121 C4122 1.422 . S
C4122 H4114 0.920 1_556 S
C4122 C4121 1.422 . S
C4122 C4125 1.363 1_556 S
C4123 H4115 0.930 . S
C4123 C4124 1.355 . S
C4123 C4125 1.415 . S
C4124 C4123 1.355 . S
C4124 C4126 1.419 . S
C4125 C4120 1.425 . S
C4125 C4122 1.363 1_554 S
C4125 C4123 1.415 . S
C4126 H4116 0.930 . S
C4126 C4124 1.419 . S
C4126 C4127 1.362 . S
C4127 H4117 0.930 . S
C4127 C4120 1.409 . S
C4127 C4126 1.362 . S
H4128 C4134 0.930 . S
H4129 C4137 0.930 . S
H4130 C4138 0.930 . S
H4131 C4139 0.930 . S
H4132 C4142 0.930 . S
H4133 C4143 0.930 . S
C4134 H4128 0.930 . S
C4134 C4135 1.355 . S
C4134 C4136 1.415 . S
C4135 C4134 1.355 . S
C4135 C4137 1.419 . S
C4136 C4134 1.415 . S
C4136 C4141 1.425 . S
C4136 C4143 1.409 . S
C4137 H4129 0.930 . S
C4137 C4135 1.419 . S
C4137 C4138 1.362 . S
C4138 H4130 0.930 . S
C4138 C4137 1.362 . S
C4138 C4141 1.409 . S
C4139 H4131 0.930 . S
C4139 C4140 1.355 . S
C4139 C4141 1.415 1_556 S
C4140 C4139 1.355 . S
C4140 C4142 1.419 . S
C4141 C4136 1.425 . S
C4141 C4138 1.409 . S
C4141 C4139 1.415 1_554 S
C4142 H4132 0.930 . S
C4142 C4140 1.419 . S
C4142 C4143 1.362 1_556 S
C4143 H4133 0.930 . S
C4143 C4136 1.409 . S
C4143 C4142 1.362 1_554 S
H4144 C4150 0.930 . S
H4145 C4153 0.930 . S
H4146 C4154 0.930 . S
H4147 C4155 0.930 . S
H4148 C4158 0.930 . S
H4149 C4159 0.930 . S
C4150 H4144 0.930 . S
C4150 C4151 1.355 . S
C4150 C4152 1.415 1_556 S
C4151 C4150 1.355 . S
C4151 C4153 1.419 . S
C4152 C4150 1.415 1_554 S
C4152 C4157 1.425 . S
C4152 C4159 1.409 . S
C4153 H4145 0.930 . S
C4153 C4151 1.419 . S
C4153 C4154 1.362 1_556 S
C4154 H4146 0.930 . S
C4154 C4153 1.362 1_554 S
C4154 C4157 1.409 . S
C4155 H4147 0.930 . S
C4155 C4156 1.355 . S
C4155 C4157 1.415 . S
C4156 C4155 1.355 . S
C4156 C4158 1.419 . S
C4157 C4152 1.425 . S
C4157 C4154 1.409 . S
C4157 C4155 1.415 . S
C4158 H4148 0.930 . S
C4158 C4156 1.419 . S
C4158 C4159 1.362 . S
C4159 H4149 0.930 . S
C4159 C4152 1.409 . S
C4159 C4158 1.362 . S
H4160 C4166 0.930 . S
H4161 C4169 0.930 . S
H4162 C4170 0.930 . S
H4163 C4171 0.930 . S
H4164 C4174 0.930 . S
H4165 C4175 0.930 . S
C4166 H4160 0.930 . S
C4166 C4167 1.355 . S
C4166 C4168 1.415 . S
C4167 C4166 1.355 . S
C4167 C4169 1.419 . S
C4168 C4166 1.415 . S
C4168 C4173 1.425 . S
C4168 C4175 1.409 . S
C4169 H4161 0.930 . S
C4169 C4167 1.419 . S
C4169 C4170 1.362 . S
C4170 H4162 0.930 . S
C4170 C4169 1.362 . S
C4170 C4173 1.409 . S
C4171 H4163 0.930 . S
C4171 C4172 1.355 . S
C4171 C4173 1.415 1_455 S
C4172 C4171 1.355 . S
C4172 C4174 1.419 . S
C4173 C4168 1.425 . S
C4173 C4170 1.409 . S
C4173 C4171 1.415 1_655 S
C4174 H4164 0.930 . S
C4174 C4172 1.419 . S
C4174 C4175 1.362 1_455 S
C4175 H4165 0.930 . S
C4175 C4168 1.409 . S
C4175 C4174 1.362 1_655 S
H4176 C4182 0.930 . S
H4177 C4185 0.930 . S
H4178 C4186 0.930 . S
H4179 C4187 0.930 . S
H4180 C4190 0.930 . S
H4181 C4191 0.930 . S
C4182 H4176 0.930 . S
C4182 C4183 1.355 . S
C4182 C4184 1.415 1_545 S
C4183 C4182 1.355 . S
C4183 C4185 1.419 . S
C4184 C4182 1.415 1_565 S
C4184 C4189 1.425 . S
C4184 C4191 1.409 . S
C4185 H4177 0.930 . S
C4185 C4183 1.419 . S
C4185 C4186 1.362 1_545 S
C4186 H4178 0.930 . S
C4186 C4185 1.362 1_565 S
C4186 C4189 1.409 . S
C4187 H4179 0.930 . S
C4187 C4188 1.355 . S
C4187 C4189 1.415 . S
C4188 C4187 1.355 . S
C4188 C4190 1.419 . S
C4189 C4184 1.425 . S
C4189 C4186 1.409 . S
C4189 C4187 1.415 . S
C4190 H4180 0.930 . S
C4190 C4188 1.419 . S
C4190 C4191 1.362 . S
C4191 H4181 0.930 . S
C4191 C4184 1.409 . S
C4191 C4190 1.362 . S
H4192 C4198 0.930 . S
H4193 C4201 0.930 . S
H4194 C4202 0.930 . S
H4195 C4203 0.930 . S
H4196 C4206 0.930 . S
H4197 C4207 0.930 . S
C4198 H4192 0.930 . S
C4198 C4199 1.355 . S
C4198 C4200 1.415 . S
C4199 C4198 1.355 . S
C4199 C4201 1.419 . S
C4200 C4198 1.415 . S
C4200 C4205 1.425 . S
C4200 C4207 1.409 . S
C4201 H4193 0.930 . S
C4201 C4199 1.419 . S
C4201 C4202 1.362 . S
C4202 H4194 0.930 . S
C4202 C4201 1.362 . S
C4202 C4205 1.409 . S
C4203 H4195 0.930 . S
C4203 C4204 1.355 . S
C4203 C4205 1.415 1_655 S
C4204 C4203 1.355 . S
C4204 C4206 1.419 . S
C4205 C4200 1.425 . S
C4205 C4202 1.409 . S
C4205 C4203 1.415 1_455 S
C4206 H4196 0.930 . S
C4206 C4204 1.419 . S
C4206 C4207 1.362 1_655 S
C4207 H4197 0.930 . S
C4207 C4200 1.409 . S
C4207 C4206 1.362 1_455 S
H4208 C4214 0.930 . S
H4209 C4217 0.930 . S
H4210 C4218 0.930 . S
H4211 C4219 0.930 . S
H4212 C4222 0.930 . S
H4213 C4223 0.930 . S
C4214 H4208 0.930 . S
C4214 C4215 1.355 . S
C4214 C4216 1.415 1_565 S
C4215 C4214 1.355 . S
C4215 C4217 1.419 . S
C4216 C4214 1.415 1_545 S
C4216 C4221 1.425 . S
C4216 C4223 1.409 . S
C4217 H4209 0.930 . S
C4217 C4215 1.419 . S
C4217 C4218 1.362 1_565 S
C4218 H4210 0.930 . S
C4218 C4217 1.362 1_545 S
C4218 C4221 1.409 . S
C4219 H4211 0.930 . S
C4219 C4220 1.355 . S
C4219 C4221 1.415 . S
C4220 C4219 1.355 . S
C4220 C4222 1.419 . S
C4221 C4216 1.425 . S
C4221 C4218 1.409 . S
C4221 C4219 1.415 . S
C4222 H4212 0.930 . S
C4222 C4220 1.419 . S
C4222 C4223 1.362 . S
C4223 H4213 0.930 . S
C4223 C4216 1.409 . S
C4223 C4222 1.362 . S
H4224 C4230 0.930 . S
H4225 C4233 0.930 . S
H4226 C4234 0.930 . S
H4227 C4235 0.930 . S
H4228 C4238 0.930 . S
H4229 C4239 0.930 . S
C4230 H4224 0.930 . S
C4230 C4231 1.355 . S
C4230 C4232 1.415 1_455 S
C4231 C4230 1.355 . S
C4231 C4233 1.419 . S
C4232 C4230 1.415 1_655 S
C4232 C4237 1.425 . S
C4232 C4239 1.409 . S
C4233 H4225 0.930 . S
C4233 C4231 1.419 . S
C4233 C4234 1.362 1_455 S
C4234 H4226 0.930 . S
C4234 C4233 1.362 1_655 S
C4234 C4237 1.409 . S
C4235 H4227 0.930 . S
C4235 C4236 1.355 . S
C4235 C4237 1.415 . S
C4236 C4235 1.355 . S
C4236 C4238 1.419 . S
C4237 C4232 1.425 . S
C4237 C4234 1.409 . S
C4237 C4235 1.415 . S
C4238 H4228 0.930 . S
C4238 C4236 1.419 . S
C4238 C4239 1.362 . S
C4239 H4229 0.930 . S
C4239 C4232 1.409 . S
C4239 C4238 1.362 . S
H4240 C4246 0.930 . S
H4241 C4249 0.930 . S
H4242 C4250 0.925 1_565 S
H4243 C4251 0.930 . S
H4244 C4254 0.930 . S
H4245 C4255 0.930 . S
C4246 H4240 0.930 . S
C4246 C4247 1.355 . S
C4246 C4248 1.415 1_545 S
C4247 C4246 1.355 . S
C4247 C4249 1.419 . S
C4248 C4246 1.415 1_565 S
C4248 C4253 1.425 . S
C4248 C4255 1.409 . S
C4249 H4241 0.930 . S
C4249 C4247 1.419 . S
C4249 C4250 1.389 . S
C4250 H4242 0.925 1_545 S
C4250 C4249 1.389 . S
C4250 C4253 1.389 1_545 S
C4251 H4243 0.930 . S
C4251 C4252 1.355 . S
C4251 C4253 1.415 . S
C4252 C4251 1.355 . S
C4252 C4254 1.419 . S
C4253 C4248 1.425 . S
C4253 C4250 1.389 1_565 S
C4253 C4251 1.415 . S
C4254 H4244 0.930 . S
C4254 C4252 1.419 . S
C4254 C4255 1.362 . S
C4255 H4245 0.930 . S
C4255 C4248 1.409 . S
C4255 C4254 1.362 . S
H4256 C4262 0.930 . S
H4257 C4265 0.930 . S
H4258 C4266 0.931 . S
H4259 C4267 0.930 . S
H4260 C4270 0.930 . S
H4261 C4271 0.930 . S
C4262 H4256 0.930 . S
C4262 C4263 1.355 . S
C4262 C4264 1.415 1_655 S
C4263 C4262 1.355 . S
C4263 C4265 1.419 . S
C4264 C4262 1.415 1_455 S
C4264 C4269 1.425 . S
C4264 C4271 1.409 . S
C4265 H4257 0.930 . S
C4265 C4263 1.419 . S
C4265 C4266 1.360 1_655 S
C4266 H4258 0.931 . S
C4266 C4265 1.360 1_455 S
C4266 C4269 1.411 . S
C4267 H4259 0.930 . S
C4267 C4268 1.355 . S
C4267 C4269 1.415 . S
C4268 C4267 1.355 . S
C4268 C4270 1.419 . S
C4269 C4264 1.425 . S
C4269 C4266 1.411 . S
C4269 C4267 1.415 . S
C4270 H4260 0.930 . S
C4270 C4268 1.419 . S
C4270 C4271 1.362 . S
C4271 H4261 0.930 . S
C4271 C4264 1.409 . S
C4271 C4270 1.362 . S
H4272 C4278 0.930 . S
H4273 C4281 0.930 . S
H4274 C4282 0.930 . S
H4275 C4283 0.930 . S
H4276 C4286 0.930 . S
H4277 C4287 0.930 . S
C4278 H4272 0.930 . S
C4278 C4279 1.355 . S
C4278 C4280 1.415 1_565 S
C4279 C4278 1.355 . S
C4279 C4281 1.419 . S
C4280 C4278 1.415 1_545 S
C4280 C4285 1.425 . S
C4280 C4287 1.409 . S
C4281 H4273 0.930 . S
C4281 C4279 1.419 . S
C4281 C4282 1.362 1_565 S
C4282 H4274 0.930 . S
C4282 C4281 1.362 1_545 S
C4282 C4285 1.409 . S
C4283 H4275 0.930 . S
C4283 C4284 1.355 . S
C4283 C4285 1.415 . S
C4284 C4283 1.355 . S
C4284 C4286 1.419 . S
C4285 C4280 1.425 . S
C4285 C4282 1.409 . S
C4285 C4283 1.415 . S
C4286 H4276 0.930 . S
C4286 C4284 1.419 . S
C4286 C4287 1.362 . S
C4287 H4277 0.930 . S
C4287 C4280 1.409 . S
C4287 C4286 1.362 . S
H4288 C4294 0.930 . S
H4289 C4297 0.930 . S
H4290 C4298 0.930 . S
H4291 C4299 0.930 . S
H4292 C4302 0.930 . S
H4293 C4303 0.930 . S
C4294 H4288 0.930 . S
C4294 C4295 1.355 . S
C4294 C4296 1.415 . S
C4295 C4294 1.355 . S
C4295 C4297 1.419 . S
C4296 C4294 1.415 . S
C4296 C4301 1.425 . S
C4296 C4303 1.409 . S
C4297 H4289 0.930 . S
C4297 C4295 1.419 . S
C4297 C4298 1.362 . S
C4298 H4290 0.930 . S
C4298 C4297 1.362 . S
C4298 C4301 1.409 . S
C4299 H4291 0.930 . S
C4299 C4300 1.355 . S
C4299 C4301 1.415 1_545 S
C4300 C4299 1.355 . S
C4300 C4302 1.419 . S
C4301 C4296 1.425 . S
C4301 C4298 1.409 . S
C4301 C4299 1.415 1_565 S
C4302 H4292 0.930 . S
C4302 C4300 1.419 . S
C4302 C4303 1.362 1_545 S
C4303 H4293 0.930 . S
C4303 C4296 1.409 . S
C4303 C4302 1.362 1_565 S
H4304 C4310 0.930 . S
H4305 C4313 0.930 . S
H4306 C4314 0.930 . S
H4307 C4315 0.930 . S
H4308 C4318 0.930 . S
H4309 C4319 0.930 . S
C4310 H4304 0.930 . S
C4310 C4311 1.355 . S
C4310 C4312 1.415 1_565 S
C4311 C4310 1.355 . S
C4311 C4313 1.419 . S
C4312 C4310 1.415 1_545 S
C4312 C4317 1.425 . S
C4312 C4319 1.409 . S
C4313 H4305 0.930 . S
C4313 C4311 1.419 . S
C4313 C4314 1.362 1_565 S
C4314 H4306 0.930 . S
C4314 C4313 1.362 1_545 S
C4314 C4317 1.409 . S
C4315 H4307 0.930 . S
C4315 C4316 1.355 . S
C4315 C4317 1.415 . S
C4316 C4315 1.355 . S
C4316 C4318 1.419 . S
C4317 C4312 1.425 . S
C4317 C4314 1.409 . S
C4317 C4315 1.415 . S
C4318 H4308 0.930 . S
C4318 C4316 1.419 . S
C4318 C4319 1.362 . S
C4319 H4309 0.930 . S
C4319 C4312 1.409 . S
C4319 C4318 1.362 . S
H4320 C4326 0.930 . S
H4321 C4329 0.930 . S
H4322 C4330 0.921 1_655 S
H4323 C4331 0.930 . S
H4324 C4334 0.930 . S
H4325 C4335 0.930 . S
C4326 H4320 0.930 . S
C4326 C4327 1.355 . S
C4326 C4328 1.415 1_455 S
C4327 C4326 1.355 . S
C4327 C4329 1.419 . S
C4328 C4326 1.415 1_655 S
C4328 C4333 1.425 . S
C4328 C4335 1.409 . S
C4329 H4321 0.930 . S
C4329 C4327 1.419 . S
C4329 C4330 1.411 . S
C4330 H4322 0.921 1_455 S
C4330 C4329 1.411 . S
C4330 C4333 1.371 1_455 S
C4331 H4323 0.930 . S
C4331 C4332 1.355 . S
C4331 C4333 1.415 . S
C4332 C4331 1.355 . S
C4332 C4334 1.419 . S
C4333 C4328 1.425 . S
C4333 C4330 1.371 1_655 S
C4333 C4331 1.415 . S
C4334 H4324 0.930 . S
C4334 C4332 1.419 . S
C4334 C4335 1.362 . S
C4335 H4325 0.930 . S
C4335 C4328 1.409 . S
C4335 C4334 1.362 . S
H4336 C4342 0.930 . S
H4337 C4345 0.930 . S
H4338 C4346 0.930 . S
H4339 C4347 0.930 . S
H4340 C4350 0.930 . S
H4341 C4351 0.930 . S
C4342 H4336 0.930 . S
C4342 C4343 1.355 . S
C4342 C4344 1.415 1_545 S
C4343 C4342 1.355 . S
C4343 C4345 1.419 . S
C4344 C4342 1.415 1_565 S
C4344 C4349 1.425 . S
C4344 C4351 1.409 . S
C4345 H4337 0.930 . S
C4345 C4343 1.419 . S
C4345 C4346 1.362 1_545 S
C4346 H4338 0.930 . S
C4346 C4345 1.362 1_565 S
C4346 C4349 1.409 . S
C4347 H4339 0.930 . S
C4347 C4348 1.355 . S
C4347 C4349 1.415 . S
C4348 C4347 1.355 . S
C4348 C4350 1.419 . S
C4349 C4344 1.425 . S
C4349 C4346 1.409 . S
C4349 C4347 1.415 . S
C4350 H4340 0.930 . S
C4350 C4348 1.419 . S
C4350 C4351 1.362 . S
C4351 H4341 0.930 . S
C4351 C4344 1.409 . S
C4351 C4350 1.362 . S
H4352 C4358 0.930 . S
H4353 C4361 0.930 . S
H4354 C4362 0.940 . S
H4355 C4363 0.930 . S
H4356 C4366 0.930 . S
H4357 C4367 0.930 . S
C4358 H4352 0.930 . S
C4358 C4359 1.355 . S
C4358 C4360 1.415 1_655 S
C4359 C4358 1.355 . S
C4359 C4361 1.419 . S
C4360 C4358 1.415 1_455 S
C4360 C4365 1.425 . S
C4360 C4367 1.409 . S
C4361 H4353 0.930 . S
C4361 C4359 1.419 . S
C4361 C4362 1.328 1_655 S
C4362 H4354 0.940 . S
C4362 C4361 1.328 1_455 S
C4362 C4365 1.434 . S
C4363 H4355 0.930 . S
C4363 C4364 1.355 . S
C4363 C4365 1.415 . S
C4364 C4363 1.355 . S
C4364 C4366 1.419 . S
C4365 C4360 1.425 . S
C4365 C4362 1.434 . S
C4365 C4363 1.415 . S
C4366 H4356 0.930 . S
C4366 C4364 1.419 . S
C4366 C4367 1.362 . S
C4367 H4357 0.930 . S
C4367 C4360 1.409 . S
C4367 C4366 1.362 . S
H4368 C4374 0.930 . S
H4369 C4377 0.930 . S
H4370 C4378 0.930 . S
H4371 C4379 0.930 . S
H4372 C4382 0.930 . S
H4373 C4383 0.930 . S
C4374 H4368 0.930 . S
C4374 C4375 1.355 . S
C4374 C4376 1.415 . S
C4375 C4374 1.355 . S
C4375 C4377 1.419 . S
C4376 C4374 1.415 . S
C4376 C4381 1.425 . S
C4376 C4383 1.409 . S
C4377 H4369 0.930 . S
C4377 C4375 1.419 . S
C4377 C4378 1.362 . S
C4378 H4370 0.930 . S
C4378 C4377 1.362 . S
C4378 C4381 1.409 . S
C4379 H4371 0.930 . S
C4379 C4380 1.355 . S
C4379 C4381 1.415 1_565 S
C4380 C4379 1.355 . S
C4380 C4382 1.419 . S
C4381 C4376 1.425 . S
C4381 C4378 1.409 . S
C4381 C4379 1.415 1_545 S
C4382 H4372 0.930 . S
C4382 C4380 1.419 . S
C4382 C4383 1.362 1_565 S
C4383 H4373 0.930 . S
C4383 C4376 1.409 . S
C4383 C4382 1.362 1_545 S
H4384 C4390 0.930 . S
H4385 C4393 0.930 . S
H4386 C4394 0.930 . S
H4387 C4395 0.930 . S
H4388 C4398 0.930 . S
H4389 C4399 0.920 1_655 S
C4390 H4384 0.930 . S
C4390 C4391 1.355 . S
C4390 C4392 1.415 . S
C4391 C4390 1.355 . S
C4391 C4393 1.419 . S
C4392 C4390 1.415 . S
C4392 C4397 1.425 . S
C4392 C4399 1.364 1_655 S
C4393 H4385 0.930 . S
C4393 C4391 1.419 . S
C4393 C4394 1.362 . S
C4394 H4386 0.930 . S
C4394 C4393 1.362 . S
C4394 C4397 1.409 . S
C4395 H4387 0.930 . S
C4395 C4396 1.355 . S
C4395 C4397 1.415 1_455 S
C4396 C4395 1.355 . S
C4396 C4398 1.419 . S
C4397 C4392 1.425 . S
C4397 C4394 1.409 . S
C4397 C4395 1.415 1_655 S
C4398 H4388 0.930 . S
C4398 C4396 1.419 . S
C4398 C4399 1.420 . S
C4399 H4389 0.920 1_455 S
C4399 C4392 1.364 1_455 S
C4399 C4398 1.420 . S
H4400 C4406 0.930 . S
H4401 C4409 0.930 . S
H4402 C4410 0.930 . S
H4403 C4411 0.930 . S
H4404 C4414 0.930 . S
H4405 C4415 0.930 . S
C4406 H4400 0.930 . S
C4406 C4407 1.355 . S
C4406 C4408 1.415 1_655 S
C4407 C4406 1.355 . S
C4407 C4409 1.419 . S
C4408 C4406 1.415 1_455 S
C4408 C4413 1.425 . S
C4408 C4415 1.409 . S
C4409 H4401 0.930 . S
C4409 C4407 1.419 . S
C4409 C4410 1.362 1_655 S
C4410 H4402 0.930 . S
C4410 C4409 1.362 1_455 S
C4410 C4413 1.409 . S
C4411 H4403 0.930 . S
C4411 C4412 1.355 . S
C4411 C4413 1.415 . S
C4412 C4411 1.355 . S
C4412 C4414 1.419 . S
C4413 C4408 1.425 . S
C4413 C4410 1.409 . S
C4413 C4411 1.415 . S
C4414 H4404 0.930 . S
C4414 C4412 1.419 . S
C4414 C4415 1.362 . S
C4415 H4405 0.930 . S
C4415 C4408 1.409 . S
C4415 C4414 1.362 . S
C1351 C8 1.275 . S
C1356 C442 1.337 . S
C1367 C22 1.334 . S
C1372 C400 1.374 . S
C1383 C414 1.360 . S
C1388 C36 1.355 . S
C1399 C428 1.375 . S
C1404 C50 1.345 . S
C1415 C358 1.370 . S
C1420 C64 1.316 . S
C1431 C372 1.373 . S
C1436 C78 1.351 . S
C1447 C92 1.289 . S
C1452 C386 1.329 . S
C1463 C344 1.372 . S
C1468 C106 1.354 . S
C1479 C120 1.356 . S
C1484 C624 1.370 . S
C1495 C134 1.286 . S
C1500 C582 1.329 . S
C1511 C148 1.320 . S
C1516 C596 1.335 . S
C1527 C162 1.326 . S
C1532 C610 1.337 . S
C1543 C176 1.353 . S
C1548 C666 1.358 . S
C1559 C190 1.284 . S
C1564 C638 1.329 . S
C1575 C204 1.350 . S
C1580 C652 1.374 . S
C1591 C568 1.337 . S
C1596 C218 1.275 . S
C1607 C232 1.339 . S
C1612 C554 1.375 . S
C1623 C470 1.375 . S
C1628 C246 1.345 . S
C1639 C484 1.373 . S
C1644 C260 1.352 . S
C1655 C274 1.307 . S
C1660 C498 1.331 . S
C1671 C456 1.375 . S
C1676 C288 1.346 . S
C1687 C526 1.375 . S
C1692 C302 1.338 . S
C1703 C316 1.283 . S
C1708 C540 1.352 . S
C1719 C330 1.277 . S
C1724 C512 1.344 . S
C1735 C1114 1.344 . S
C1740 C680 1.338 . S
C1751 C1072 1.331 . S
C1756 C694 1.279 . S
C1767 C708 1.322 . S
C1772 C1086 1.336 . S
C1783 C1100 1.374 . S
C1788 C722 1.332 . S
C1799 C736 1.275 . S
C1804 C1030 1.338 . S
C1815 C750 1.334 . S
C1820 C1044 1.374 . S
C1831 C1058 1.372 . S
C1836 C764 1.322 . S
C1847 C1016 1.343 . S
C1852 C778 1.276 . S
C1863 C1296 1.329 . S
C1868 C792 1.287 . S
C1879 C1254 1.370 . S
C1884 C806 1.315 . S
C1895 C820 1.316 . S
C1900 C1268 1.370 . S
C1911 C834 1.344 . S
C1916 C1282 1.348 . S
C1927 C1338 1.363 . S
C1932 C848 1.356 . S
C1943 C1310 1.335 . S
C1948 C862 1.321 . S
C1959 C1324 1.368 . S
C1964 C876 1.311 . S
C1975 C890 1.275 . S
C1980 C1240 1.341 . S
C1991 C1226 1.329 . S
C1996 C904 1.287 . S
C2007 C918 1.281 . S
C2012 C1142 1.330 . S
C2023 C1156 1.328 . S
C2028 C932 1.292 . S
C2039 C1170 1.348 . S
C2044 C946 1.280 . S
C2055 C1128 1.330 . S
C2060 C960 1.280 . S
C2071 C974 1.301 . S
C2076 C1198 1.329 . S
C2087 C988 1.283 . S
C2092 C1212 1.351 . S
C2103 C1184 1.349 . S
C2108 C1002 1.346 . S
C2119 C3 1.909 . S
C2124 C955 1.936 . S
C2135 C17 1.927 . S
C2140 C913 1.964 . S
C2151 C31 1.955 . S
C2156 C927 1.914 . S
C2167 C45 1.965 . S
C2172 C941 1.942 . S
C2183 C997 1.912 . S
C2188 C59 1.951 . S
C2199 C73 1.931 . S
C2204 C969 1.965 . S
C2215 C983 1.961 . S
C2220 C87 1.921 . S
C2231 C101 1.947 . S
C2236 C899 1.964 . S
C2247 C885 1.957 . S
C2252 C115 1.957 . S
C2263 C129 1.909 . S
C2268 C843 1.944 . S
C2279 C857 1.911 . S
C2284 C143 1.949 . S
C2295 C157 1.919 . S
C2300 C871 1.960 . S
C2311 C171 1.929 . S
C2316 C801 1.910 . S
C2327 C185 1.917 . S
C2332 C815 1.958 . S
C2343 C829 1.909 . S
C2348 C199 1.938 . S
C2359 C787 1.954 . S
C2364 C213 1.913 . S
C2375 C227 1.966 . S
C2380 C773 1.939 . S
C2391 C241 1.929 . S
C2396 C689 1.965 . S
C2407 C255 1.938 . S
C2412 C703 1.909 . S
C2423 C269 1.936 . S
C2428 C717 1.966 . S
C2439 C283 1.921 . S
C2444 C675 1.961 . S
C2455 C745 1.910 . S
C2460 C297 1.948 . S
C2471 C759 1.911 . S
C2476 C311 1.949 . S
C2487 C325 1.947 . S
C2492 C731 1.910 . S
C2503 C345 1.159 . S
C2508 C1297 1.095 . S
C2519 C359 1.136 . S
C2524 C1255 1.107 . S
C2535 C373 1.093 . S
C2540 C1269 1.153 . S
C2551 C387 1.158 . S
C2556 C1283 1.090 . S
C2567 C401 1.100 . S
C2572 C1339 1.143 . S
C2583 C1311 1.121 . S
C2588 C415 1.139 . S
C2599 C429 1.093 . S
C2604 C1325 1.160 . S
C2615 C443 1.107 . S
C2620 C1241 1.151 . S
C2631 C1227 1.108 . S
C2636 C457 1.150 . S
C2647 C1185 1.135 . S
C2652 C471 1.108 . S
C2663 C1199 1.146 . S
C2668 C485 1.114 . S
C2679 C1213 1.159 . S
C2684 C499 1.090 . S
C2695 C513 1.092 . S
C2700 C1143 1.155 . S
C2711 C527 1.147 . S
C2716 C1157 1.112 . S
C2727 C541 1.093 . S
C2732 C1171 1.153 . S
C2743 C1129 1.108 . S
C2748 C555 1.150 . S
C2759 C1115 1.149 . S
C2764 C569 1.096 . S
C2775 C583 1.134 . S
C2780 C1031 1.126 . S
C2791 C1045 1.156 . S
C2796 C597 1.091 . S
C2807 C1059 1.094 . S
C2812 C611 1.159 . S
C2823 C625 1.160 . S
C2828 C1017 1.094 . S
C2839 C639 1.159 . S
C2844 C1087 1.096 . S
C2855 C1101 1.152 . S
C2860 C653 1.093 . S
C2871 C667 1.160 . S
C2876 C1073 1.093 . S
C2887 C9 1.554 . S
C2892 C395 1.526 . S
C2903 C23 1.548 . S
C2908 C409 1.535 . S
C2919 C37 1.536 . S
C2924 C423 1.546 . S
C2935 C51 1.526 . S
C2940 C437 1.553 . S
C2951 C339 1.569 . S
C2956 C65 1.492 . S
C2967 C79 1.496 . S
C2972 C353 1.561 . S
C2983 C367 1.525 . S
C2988 C93 1.553 . S
C2999 C381 1.534 . S
C3004 C107 1.532 . S
C3015 C121 1.554 . S
C3020 C535 1.526 . S
C3031 C549 1.546 . S
C3036 C135 1.536 . S
C3047 C149 1.492 . S
C3052 C507 1.569 . S
C3063 C163 1.519 . S
C3068 C521 1.543 . S
C3079 C177 1.541 . S
C3084 C479 1.529 . S
C3095 C191 1.553 . S
C3100 C493 1.525 . S
C3111 C205 1.546 . S
C3116 C451 1.527 . S
C3127 C465 1.547 . S
C3132 C219 1.513 . S
C3143 C233 1.531 . S
C3148 C633 1.535 . S
C3159 C247 1.502 . S
C3164 C605 1.567 . S
C3175 C619 1.552 . S
C3180 C261 1.527 . S
C3191 C275 1.522 . S
C3196 C577 1.540 . S
C3207 C591 1.568 . S
C3212 C289 1.499 . S
C3223 C303 1.515 . S
C3228 C563 1.560 . S
C3239 C661 1.561 . S
C3244 C317 1.496 . S
C3255 C647 1.526 . S
C3260 C331 1.546 . S
C3271 C681 1.548 . S
C3276 C1067 1.535 . S
C3287 C695 1.533 . S
C3292 C1081 1.533 . S
C3303 C709 1.495 . S
C3308 C1095 1.561 . S
C3319 C1109 1.546 . S
C3324 C723 1.536 . S
C3335 C737 1.496 . S
C3340 C1011 1.561 . S
C3351 C751 1.519 . S
C3356 C1025 1.557 . S
C3367 C765 1.554 . S
C3372 C1039 1.526 . S
C3383 C779 1.520 . S
C3388 C1053 1.557 . S
C3399 C793 1.553 . S
C3404 C1207 1.525 . S
C3415 C1221 1.560 . S
C3420 C807 1.515 . S
C3431 C1179 1.525 . S
C3436 C821 1.551 . S
C3447 C1193 1.531 . S
C3452 C835 1.552 . S
C3463 C849 1.544 . S
C3468 C1151 1.528 . S
C3479 C1165 1.541 . S
C3484 C863 1.521 . S
C3495 C877 1.554 . S
C3500 C1123 1.525 . S
C3511 C1137 1.559 . S
C3516 C891 1.498 . S
C3527 C1305 1.525 . S
C3532 C905 1.554 . S
C3543 C1277 1.528 . S
C3548 C919 1.543 . S
C3559 C933 1.503 . S
C3564 C1291 1.554 . S
C3575 C947 1.546 . S
C3580 C1249 1.537 . S
C3591 C1263 1.569 . S
C3596 C961 1.492 . S
C3607 C975 1.535 . S
C3612 C1235 1.532 . S
C3623 C1333 1.533 . S
C3628 C989 1.534 . S
C3639 C1319 1.527 . S
C3644 C1003 1.545 . S
C3655 C371 1.389 . S
C3660 C7 1.405 . S
C3671 C21 1.373 . S
C3676 C385 1.437 . S
C3687 C343 1.424 . S
C3692 C35 1.376 . S
C3703 C49 1.457 . S
C3708 C357 1.400 . S
C3719 C427 1.389 . S
C3724 C63 1.404 . S
C3735 C441 1.382 . S
C3740 C77 1.452 . S
C3751 C91 1.432 . S
C3756 C399 1.443 . S
C3767 C413 1.457 . S
C3772 C105 1.408 . S
C3783 C119 1.395 . S
C3788 C511 1.398 . S
C3799 C133 1.401 . S
C3804 C525 1.458 . S
C3815 C539 1.390 . S
C3820 C147 1.403 . S
C3831 C161 1.390 . S
C3836 C553 1.403 . S
C3847 C175 1.387 . S
C3852 C455 1.406 . S
C3863 C469 1.382 . S
C3868 C189 1.417 . S
C3879 C483 1.436 . S
C3884 C203 1.439 . S
C3895 C497 1.455 . S
C3900 C217 1.380 . S
C3911 C231 1.406 . S
C3916 C609 1.388 . S
C3927 C637 1.431 . S
C3932 C245 1.374 . S
C3943 C259 1.450 . S
C3948 C651 1.421 . S
C3959 C567 1.376 . S
C3964 C273 1.434 . S
C3975 C665 1.386 . S
C3980 C287 1.409 . S
C3991 C581 1.412 . S
C3996 C301 1.383 . S
C4007 C315 1.404 . S
C4012 C595 1.458 . S
C4023 C329 1.438 . S
C4028 C623 1.437 . S
C4039 C679 1.431 . S
C4044 C1043 1.377 . S
C4055 C1057 1.418 . S
C4060 C693 1.452 . S
C4071 C1015 1.377 . S
C4076 C707 1.429 . S
C4087 C1029 1.457 . S
C4092 C721 1.405 . S
C4103 C735 1.399 . S
C4108 C1099 1.459 . S
C4119 C1113 1.400 . S
C4124 C749 1.392 . S
C4135 C763 1.414 . S
C4140 C1071 1.454 . S
C4151 C1085 1.444 . S
C4156 C777 1.431 . S
C4167 C791 1.442 . S
C4172 C1183 1.377 . S
C4183 C1197 1.383 . S
C4188 C805 1.453 . S
C4199 C819 1.389 . S
C4204 C1211 1.459 . S
C4215 C1225 1.453 . S
C4220 C833 1.417 . S
C4231 C1127 1.459 . S
C4236 C847 1.393 . S
C4247 C1141 1.378 . S
C4252 C861 1.426 . S
C4263 C1155 1.429 . S
C4268 C875 1.375 . S
C4279 C1169 1.458 . S
C4284 C889 1.403 . S
C4295 C903 1.451 . S
C4300 C1281 1.381 . S
C4311 C1309 1.440 . S
C4316 C917 1.436 . S
C4327 C1323 1.382 . S
C4332 C931 1.417 . S
C4343 C1239 1.451 . S
C4348 C945 1.421 . S
C4359 C1337 1.436 . S
C4364 C959 1.373 . S
C4375 C973 1.435 . S
C4380 C1253 1.440 . S
C4391 C987 1.375 . S
C4396 C1267 1.427 . S
C4407 C1295 1.423 . S
C4412 C1001 1.449 . S
