# Generated by pormake.
# Topology pbp, (3)-cn, num edge types: 1
# Building blocks:
#     Node 0, Type 0, BuildingBlock: WUSLED_clean_sbu_0, # of connection points: 3
#     Node 1, Type 0, BuildingBlock: WUSLED_clean_sbu_0, # of connection points: 3
#     Node 2, Type 0, BuildingBlock: WUSLED_clean_sbu_0, # of connection points: 3
#     Node 3, Type 0, BuildingBlock: WUSLED_clean_sbu_0, # of connection points: 3
#     Node 4, Type 0, BuildingBlock: WUSLED_clean_sbu_0, # of connection points: 3
#     Node 5, Type 0, BuildingBlock: WUSLED_clean_sbu_0, # of connection points: 3
#     Node 6, Type 0, BuildingBlock: WUSLED_clean_sbu_0, # of connection points: 3
#     Node 7, Type 0, BuildingBlock: WUSLED_clean_sbu_0, # of connection points: 3
#     Node 8, Type 0, BuildingBlock: WUSLED_clean_sbu_0, # of connection points: 3
#     Node 9, Type 0, BuildingBlock: WUSLED_clean_sbu_0, # of connection points: 3
#     Node 10, Type 0, BuildingBlock: WUSLED_clean_sbu_0, # of connection points: 3
#     Node 11, Type 0, BuildingBlock: WUSLED_clean_sbu_0, # of connection points: 3
#     Node 12, Type 0, BuildingBlock: WUSLED_clean_sbu_0, # of connection points: 3
#     Node 13, Type 0, BuildingBlock: WUSLED_clean_sbu_0, # of connection points: 3
#     Node 14, Type 0, BuildingBlock: WUSLED_clean_sbu_0, # of connection points: 3
#     Node 15, Type 0, BuildingBlock: WUSLED_clean_sbu_0, # of connection points: 3
#     Node 16, Type 0, BuildingBlock: WUSLED_clean_sbu_0, # of connection points: 3
#     Node 17, Type 0, BuildingBlock: WUSLED_clean_sbu_0, # of connection points: 3
#     Node 18, Type 0, BuildingBlock: WUSLED_clean_sbu_0, # of connection points: 3
#     Node 19, Type 0, BuildingBlock: WUSLED_clean_sbu_0, # of connection points: 3
#     Node 20, Type 0, BuildingBlock: WUSLED_clean_sbu_0, # of connection points: 3
#     Node 21, Type 0, BuildingBlock: WUSLED_clean_sbu_0, # of connection points: 3
#     Node 22, Type 0, BuildingBlock: WUSLED_clean_sbu_0, # of connection points: 3
#     Node 23, Type 0, BuildingBlock: WUSLED_clean_sbu_0, # of connection points: 3
#     Node 24, Type 0, BuildingBlock: WUSLED_clean_sbu_0, # of connection points: 3
#     Node 25, Type 0, BuildingBlock: WUSLED_clean_sbu_0, # of connection points: 3
#     Node 26, Type 0, BuildingBlock: WUSLED_clean_sbu_0, # of connection points: 3
#     Node 27, Type 0, BuildingBlock: WUSLED_clean_sbu_0, # of connection points: 3
#     Node 28, Type 0, BuildingBlock: WUSLED_clean_sbu_0, # of connection points: 3
#     Node 29, Type 0, BuildingBlock: WUSLED_clean_sbu_0, # of connection points: 3
#     Node 30, Type 0, BuildingBlock: WUSLED_clean_sbu_0, # of connection points: 3
#     Node 31, Type 0, BuildingBlock: WUSLED_clean_sbu_0, # of connection points: 3
#     Node 32, Type 0, BuildingBlock: WUSLED_clean_sbu_0, # of connection points: 3
#     Node 33, Type 0, BuildingBlock: WUSLED_clean_sbu_0, # of connection points: 3
#     Node 34, Type 0, BuildingBlock: WUSLED_clean_sbu_0, # of connection points: 3
#     Node 35, Type 0, BuildingBlock: WUSLED_clean_sbu_0, # of connection points: 3
#     Node 36, Type 0, BuildingBlock: WUSLED_clean_sbu_0, # of connection points: 3
#     Node 37, Type 0, BuildingBlock: WUSLED_clean_sbu_0, # of connection points: 3
#     Node 38, Type 0, BuildingBlock: WUSLED_clean_sbu_0, # of connection points: 3
#     Node 39, Type 0, BuildingBlock: WUSLED_clean_sbu_0, # of connection points: 3
#     Node 40, Type 0, BuildingBlock: WUSLED_clean_sbu_0, # of connection points: 3
#     Node 41, Type 0, BuildingBlock: WUSLED_clean_sbu_0, # of connection points: 3
#     Node 42, Type 0, BuildingBlock: WUSLED_clean_sbu_0, # of connection points: 3
#     Node 43, Type 0, BuildingBlock: WUSLED_clean_sbu_0, # of connection points: 3
#     Node 44, Type 0, BuildingBlock: WUSLED_clean_sbu_0, # of connection points: 3
#     Node 45, Type 0, BuildingBlock: WUSLED_clean_sbu_0, # of connection points: 3
#     Node 46, Type 0, BuildingBlock: WUSLED_clean_sbu_0, # of connection points: 3
#     Node 47, Type 0, BuildingBlock: WUSLED_clean_sbu_0, # of connection points: 3
#     Edge 48, Type (0, 0), BuildingBlock: XIVTED_clean_linker_0, # of connection points: 2
#     Edge 49, Type (0, 0), BuildingBlock: XIVTED_clean_linker_0, # of connection points: 2
#     Edge 50, Type (0, 0), BuildingBlock: XIVTED_clean_linker_0, # of connection points: 2
#     Edge 51, Type (0, 0), BuildingBlock: XIVTED_clean_linker_0, # of connection points: 2
#     Edge 52, Type (0, 0), BuildingBlock: XIVTED_clean_linker_0, # of connection points: 2
#     Edge 53, Type (0, 0), BuildingBlock: XIVTED_clean_linker_0, # of connection points: 2
#     Edge 54, Type (0, 0), BuildingBlock: XIVTED_clean_linker_0, # of connection points: 2
#     Edge 55, Type (0, 0), BuildingBlock: XIVTED_clean_linker_0, # of connection points: 2
#     Edge 56, Type (0, 0), BuildingBlock: XIVTED_clean_linker_0, # of connection points: 2
#     Edge 57, Type (0, 0), BuildingBlock: XIVTED_clean_linker_0, # of connection points: 2
#     Edge 58, Type (0, 0), BuildingBlock: XIVTED_clean_linker_0, # of connection points: 2
#     Edge 59, Type (0, 0), BuildingBlock: XIVTED_clean_linker_0, # of connection points: 2
#     Edge 60, Type (0, 0), BuildingBlock: XIVTED_clean_linker_0, # of connection points: 2
#     Edge 61, Type (0, 0), BuildingBlock: XIVTED_clean_linker_0, # of connection points: 2
#     Edge 62, Type (0, 0), BuildingBlock: XIVTED_clean_linker_0, # of connection points: 2
#     Edge 63, Type (0, 0), BuildingBlock: XIVTED_clean_linker_0, # of connection points: 2
#     Edge 64, Type (0, 0), BuildingBlock: XIVTED_clean_linker_0, # of connection points: 2
#     Edge 65, Type (0, 0), BuildingBlock: XIVTED_clean_linker_0, # of connection points: 2
#     Edge 66, Type (0, 0), BuildingBlock: XIVTED_clean_linker_0, # of connection points: 2
#     Edge 67, Type (0, 0), BuildingBlock: XIVTED_clean_linker_0, # of connection points: 2
#     Edge 68, Type (0, 0), BuildingBlock: XIVTED_clean_linker_0, # of connection points: 2
#     Edge 69, Type (0, 0), BuildingBlock: XIVTED_clean_linker_0, # of connection points: 2
#     Edge 70, Type (0, 0), BuildingBlock: XIVTED_clean_linker_0, # of connection points: 2
#     Edge 71, Type (0, 0), BuildingBlock: XIVTED_clean_linker_0, # of connection points: 2
#     Edge 72, Type (0, 0), BuildingBlock: XIVTED_clean_linker_0, # of connection points: 2
#     Edge 73, Type (0, 0), BuildingBlock: XIVTED_clean_linker_0, # of connection points: 2
#     Edge 74, Type (0, 0), BuildingBlock: XIVTED_clean_linker_0, # of connection points: 2
#     Edge 75, Type (0, 0), BuildingBlock: XIVTED_clean_linker_0, # of connection points: 2
#     Edge 76, Type (0, 0), BuildingBlock: XIVTED_clean_linker_0, # of connection points: 2
#     Edge 77, Type (0, 0), BuildingBlock: XIVTED_clean_linker_0, # of connection points: 2
#     Edge 78, Type (0, 0), BuildingBlock: XIVTED_clean_linker_0, # of connection points: 2
#     Edge 79, Type (0, 0), BuildingBlock: XIVTED_clean_linker_0, # of connection points: 2
#     Edge 80, Type (0, 0), BuildingBlock: XIVTED_clean_linker_0, # of connection points: 2
#     Edge 81, Type (0, 0), BuildingBlock: XIVTED_clean_linker_0, # of connection points: 2
#     Edge 82, Type (0, 0), BuildingBlock: XIVTED_clean_linker_0, # of connection points: 2
#     Edge 83, Type (0, 0), BuildingBlock: XIVTED_clean_linker_0, # of connection points: 2
#     Edge 84, Type (0, 0), BuildingBlock: XIVTED_clean_linker_0, # of connection points: 2
#     Edge 85, Type (0, 0), BuildingBlock: XIVTED_clean_linker_0, # of connection points: 2
#     Edge 86, Type (0, 0), BuildingBlock: XIVTED_clean_linker_0, # of connection points: 2
#     Edge 87, Type (0, 0), BuildingBlock: XIVTED_clean_linker_0, # of connection points: 2
#     Edge 88, Type (0, 0), BuildingBlock: XIVTED_clean_linker_0, # of connection points: 2
#     Edge 89, Type (0, 0), BuildingBlock: XIVTED_clean_linker_0, # of connection points: 2
#     Edge 90, Type (0, 0), BuildingBlock: XIVTED_clean_linker_0, # of connection points: 2
#     Edge 91, Type (0, 0), BuildingBlock: XIVTED_clean_linker_0, # of connection points: 2
#     Edge 92, Type (0, 0), BuildingBlock: XIVTED_clean_linker_0, # of connection points: 2
#     Edge 93, Type (0, 0), BuildingBlock: XIVTED_clean_linker_0, # of connection points: 2
#     Edge 94, Type (0, 0), BuildingBlock: XIVTED_clean_linker_0, # of connection points: 2
#     Edge 95, Type (0, 0), BuildingBlock: XIVTED_clean_linker_0, # of connection points: 2
#     Edge 96, Type (0, 0), BuildingBlock: XIVTED_clean_linker_0, # of connection points: 2
#     Edge 97, Type (0, 0), BuildingBlock: XIVTED_clean_linker_0, # of connection points: 2
#     Edge 98, Type (0, 0), BuildingBlock: XIVTED_clean_linker_0, # of connection points: 2
#     Edge 99, Type (0, 0), BuildingBlock: XIVTED_clean_linker_0, # of connection points: 2
#     Edge 100, Type (0, 0), BuildingBlock: XIVTED_clean_linker_0, # of connection points: 2
#     Edge 101, Type (0, 0), BuildingBlock: XIVTED_clean_linker_0, # of connection points: 2
#     Edge 102, Type (0, 0), BuildingBlock: XIVTED_clean_linker_0, # of connection points: 2
#     Edge 103, Type (0, 0), BuildingBlock: XIVTED_clean_linker_0, # of connection points: 2
#     Edge 104, Type (0, 0), BuildingBlock: XIVTED_clean_linker_0, # of connection points: 2
#     Edge 105, Type (0, 0), BuildingBlock: XIVTED_clean_linker_0, # of connection points: 2
#     Edge 106, Type (0, 0), BuildingBlock: XIVTED_clean_linker_0, # of connection points: 2
#     Edge 107, Type (0, 0), BuildingBlock: XIVTED_clean_linker_0, # of connection points: 2
#     Edge 108, Type (0, 0), BuildingBlock: XIVTED_clean_linker_0, # of connection points: 2
#     Edge 109, Type (0, 0), BuildingBlock: XIVTED_clean_linker_0, # of connection points: 2
#     Edge 110, Type (0, 0), BuildingBlock: XIVTED_clean_linker_0, # of connection points: 2
#     Edge 111, Type (0, 0), BuildingBlock: XIVTED_clean_linker_0, # of connection points: 2
#     Edge 112, Type (0, 0), BuildingBlock: XIVTED_clean_linker_0, # of connection points: 2
#     Edge 113, Type (0, 0), BuildingBlock: XIVTED_clean_linker_0, # of connection points: 2
#     Edge 114, Type (0, 0), BuildingBlock: XIVTED_clean_linker_0, # of connection points: 2
#     Edge 115, Type (0, 0), BuildingBlock: XIVTED_clean_linker_0, # of connection points: 2
#     Edge 116, Type (0, 0), BuildingBlock: XIVTED_clean_linker_0, # of connection points: 2
#     Edge 117, Type (0, 0), BuildingBlock: XIVTED_clean_linker_0, # of connection points: 2
#     Edge 118, Type (0, 0), BuildingBlock: XIVTED_clean_linker_0, # of connection points: 2
#     Edge 119, Type (0, 0), BuildingBlock: XIVTED_clean_linker_0, # of connection points: 2
# Relax obj value: 0.000
# Max RMSD: 0.009
# Mean RMSD: 0.006
data_MOF--net-pbp--node1-WUSLED_clean_sbu_0--edge1-XIVTED_clean_linker_0
_symmetry_space_group_name_H-M    P1
_symmetry_Int_Tables_number       1
_symmetry_cell_setting            triclinic
loop_
_symmetry_equiv_pos_as_xyz
'x, y, z'
_cell_length_a     124.77092
_cell_length_b     124.75557
_cell_length_c     124.50166
_cell_angle_alpha  90.040812
_cell_angle_beta   89.897836
_cell_angle_gamma 90.744484
loop_
_atom_site_label
_atom_site_type_symbol
_atom_site_fract_x
_atom_site_fract_y
_atom_site_fract_z
_atom_type_partial_charge
C0 C 0.11535 0.30598 0.35147 0.0
C1 C 0.12513 0.30262 0.34707 0.0
C2 C 0.1297 0.29385 0.36393 0.0
C3 C 0.13222 0.29655 0.35324 0.0
C4 C 0.11992 0.29729 0.36828 0.0
C5 C 0.11282 0.30328 0.3621 0.0
U6 U 0.10886 0.32716 0.33024 0.0
O7 O 0.09606 0.32756 0.31814 0.0
O8 O 0.09681 0.33992 0.33069 0.0
C9 C 0.09131 0.33576 0.32268 0.0
C10 C 0.1077 0.31236 0.3452 0.0
C11 C 0.07965 0.33464 0.32445 0.0
C12 C 0.06375 0.32389 0.32853 0.0
C13 C 0.07488 0.32476 0.32718 0.0
C14 C 0.06207 0.34282 0.32467 0.0
C15 C 0.05718 0.33291 0.32723 0.0
C16 C 0.07317 0.34366 0.32327 0.0
C17 C 0.13202 0.34143 0.31538 0.0
C18 C 0.13042 0.35206 0.2991 0.0
C19 C 0.14668 0.3531 0.30967 0.0
C20 C 0.14233 0.34571 0.31695 0.0
C21 C 0.14079 0.35637 0.30065 0.0
C22 C 0.12605 0.34469 0.30643 0.0
C23 C 0.12773 0.33359 0.32317 0.0
O24 O 0.1077 0.32268 0.34732 0.0
O25 O 0.10709 0.31022 0.33487 0.0
O26 O 0.12245 0.32533 0.31915 0.0
O27 O 0.12312 0.33766 0.33172 0.0
H28 H 0.1273 0.30469 0.3389 0.0
H29 H 0.13973 0.29412 0.34969 0.0
H30 H 0.11768 0.29524 0.37644 0.0
H31 H 0.10532 0.30579 0.36564 0.0
H32 H 0.06029 0.31611 0.33039 0.0
H33 H 0.07973 0.31769 0.32818 0.0
H34 H 0.05733 0.34997 0.32381 0.0
H35 H 0.07671 0.35137 0.32124 0.0
H36 H 0.12564 0.35449 0.2923 0.0
H37 H 0.15473 0.35615 0.31104 0.0
H38 H 0.14706 0.34328 0.3238 0.0
H39 H 0.11803 0.34153 0.30512 0.0
C40 C 0.68689 0.11914 0.30765 0.0
C41 C 0.68611 0.12997 0.31055 0.0
C42 C 0.67506 0.1334 0.29481 0.0
C43 C 0.68021 0.13704 0.30421 0.0
C44 C 0.67595 0.12254 0.29192 0.0
C45 C 0.6818 0.11548 0.29829 0.0
U46 U 0.70791 0.11282 0.32902 0.0
O47 O 0.70774 0.10064 0.34179 0.0
O48 O 0.72006 0.10016 0.3292 0.0
C49 C 0.71561 0.09522 0.33743 0.0
C50 C 0.69298 0.11153 0.31421 0.0
C51 C 0.71401 0.08349 0.33626 0.0
C52 C 0.703 0.06728 0.33777 0.0
C53 C 0.70409 0.07845 0.33843 0.0
C54 C 0.72164 0.066 0.33259 0.0
C55 C 0.71177 0.06092 0.33487 0.0
C56 C 0.72275 0.07714 0.33332 0.0
C57 C 0.72333 0.13592 0.34267 0.0
C58 C 0.73373 0.13458 0.35912 0.0
C59 C 0.73569 0.15025 0.34776 0.0
C60 C 0.72815 0.14592 0.34063 0.0
C61 C 0.73854 0.14466 0.35713 0.0
C62 C 0.72622 0.13023 0.35193 0.0
C63 C 0.71528 0.13168 0.33509 0.0
O64 O 0.70327 0.11103 0.31205 0.0
O65 O 0.69089 0.1116 0.32456 0.0
O66 O 0.70677 0.12704 0.33937 0.0
O67 O 0.71909 0.12645 0.32678 0.0
H68 H 0.69006 0.13296 0.31772 0.0
H69 H 0.67979 0.14537 0.30659 0.0
H70 H 0.67198 0.11943 0.28482 0.0
H71 H 0.68231 0.10714 0.29593 0.0
H72 H 0.69526 0.06362 0.33948 0.0
H73 H 0.69718 0.0831 0.34071 0.0
H74 H 0.7286 0.06134 0.33048 0.0
H75 H 0.73051 0.08081 0.3317 0.0
H76 H 0.73583 0.13002 0.36619 0.0
H77 H 0.73914 0.15807 0.34605 0.0
H78 H 0.72602 0.15044 0.33353 0.0
H79 H 0.72264 0.12245 0.35362 0.0
C80 C 0.91867 0.73557 0.3513 0.0
C81 C 0.90811 0.73666 0.34765 0.0
C82 C 0.90413 0.74862 0.36262 0.0
C83 C 0.90091 0.74314 0.35323 0.0
C84 C 0.91471 0.74736 0.36629 0.0
C85 C 0.9219 0.74091 0.36067 0.0
U86 U 0.92464 0.71443 0.33015 0.0
O87 O 0.93724 0.7139 0.3178 0.0
O88 O 0.93629 0.70133 0.33008 0.0
C89 C 0.94178 0.70546 0.32204 0.0
C90 C 0.92637 0.72896 0.34535 0.0
C91 C 0.95344 0.70637 0.32365 0.0
C92 C 0.96898 0.71483 0.33201 0.0
C93 C 0.95784 0.71392 0.33079 0.0
C94 C 0.97139 0.7006 0.31902 0.0
C95 C 0.9759 0.70822 0.32609 0.0
C96 C 0.96027 0.6997 0.31782 0.0
C97 C 0.9004 0.7022 0.31502 0.0
C98 C 0.90145 0.68959 0.30016 0.0
C99 C 0.88417 0.69583 0.30627 0.0
C100 C 0.88922 0.70205 0.31413 0.0
C101 C 0.89021 0.68961 0.29909 0.0
C102 C 0.90652 0.69587 0.30806 0.0
C103 C 0.90542 0.70926 0.3231 0.0
O104 O 0.92584 0.71862 0.34731 0.0
O105 O 0.9273 0.73118 0.33506 0.0
O106 O 0.91111 0.71734 0.3193 0.0
O107 O 0.90997 0.70448 0.33127 0.0
H108 H 0.90546 0.73258 0.34042 0.0
H109 H 0.89289 0.74401 0.35007 0.0
H110 H 0.91742 0.7513 0.37356 0.0
H111 H 0.93001 0.74011 0.36364 0.0
H112 H 0.97217 0.72086 0.33744 0.0
H113 H 0.95267 0.71916 0.33535 0.0
H114 H 0.97644 0.69526 0.31446 0.0
H115 H 0.957 0.6938 0.31229 0.0
H116 H 0.90634 0.68494 0.29472 0.0
H117 H 0.8755 0.69588 0.3058 0.0
H118 H 0.88437 0.70686 0.31948 0.0
H119 H 0.91518 0.69591 0.30864 0.0
C120 C 0.30277 0.92287 0.35021 0.0
C121 C 0.30147 0.91244 0.34615 0.0
C122 C 0.28898 0.90806 0.36064 0.0
C123 C 0.29461 0.90511 0.3513 0.0
C124 C 0.29045 0.91849 0.36474 0.0
C125 C 0.29728 0.92583 0.35955 0.0
U126 U 0.32479 0.92963 0.32998 0.0
O127 O 0.32619 0.94285 0.31838 0.0
O128 O 0.33827 0.94117 0.33103 0.0
C129 C 0.33462 0.94709 0.32315 0.0
C130 C 0.30979 0.93073 0.34474 0.0
C131 C 0.33417 0.95869 0.32529 0.0
C132 C 0.32491 0.97439 0.33197 0.0
C133 C 0.32526 0.96329 0.33031 0.0
C134 C 0.34245 0.97635 0.32378 0.0
C135 C 0.33351 0.98106 0.3287 0.0
C136 C 0.34277 0.96528 0.32209 0.0
C137 C 0.3374 0.90651 0.31411 0.0
C138 C 0.35007 0.90889 0.29941 0.0
C139 C 0.34582 0.89106 0.30597 0.0
C140 C 0.33885 0.89542 0.31355 0.0
C141 C 0.35149 0.89772 0.29876 0.0
C142 C 0.34308 0.91325 0.30703 0.0
C143 C 0.32989 0.91082 0.3221 0.0
O144 O 0.32004 0.93009 0.34702 0.0
O145 O 0.30794 0.93205 0.33444 0.0
O146 O 0.32209 0.91667 0.31827 0.0
O147 O 0.33427 0.91489 0.33081 0.0
H148 H 0.30572 0.90999 0.33898 0.0
H149 H 0.29377 0.8971 0.34801 0.0
H150 H 0.28617 0.92106 0.37184 0.0
H151 H 0.2982 0.93385 0.3628 0.0
H152 H 0.31796 0.97774 0.33588 0.0
H153 H 0.31856 0.95831 0.33289 0.0
H154 H 0.34914 0.98124 0.32102 0.0
H155 H 0.3497 0.96187 0.31818 0.0
H156 H 0.35423 0.91426 0.29393 0.0
H157 H 0.34685 0.88245 0.30585 0.0
H158 H 0.33457 0.8901 0.319 0.0
H159 H 0.34205 0.92186 0.30736 0.0
C160 C 0.11359 0.69102 0.73607 0.0
C161 C 0.12452 0.69063 0.73345 0.0
C162 C 0.12787 0.67947 0.74914 0.0
C163 C 0.13159 0.68487 0.73991 0.0
C164 C 0.1169 0.67999 0.75176 0.0
C165 C 0.10984 0.6857 0.74527 0.0
U166 U 0.10761 0.71159 0.71425 0.0
O167 O 0.09581 0.71104 0.70113 0.0
O168 O 0.09495 0.72366 0.71337 0.0
C169 C 0.09036 0.71913 0.70499 0.0
C170 C 0.106 0.69692 0.72931 0.0
C171 C 0.0787 0.71745 0.70582 0.0
C172 C 0.06311 0.7085 0.71364 0.0
C173 C 0.07426 0.70983 0.71288 0.0
C174 C 0.06077 0.72236 0.70026 0.0
C175 C 0.05623 0.7148 0.70738 0.0
C176 C 0.07189 0.72366 0.6995 0.0
C177 C 0.13098 0.7268 0.70088 0.0
C178 C 0.12953 0.73741 0.68458 0.0
C179 C 0.14559 0.73866 0.69544 0.0
C180 C 0.14121 0.73121 0.70264 0.0
C181 C 0.13983 0.74183 0.68629 0.0
C182 C 0.12512 0.72999 0.69184 0.0
C183 C 0.12663 0.71888 0.70855 0.0
O184 O 0.10538 0.70724 0.73126 0.0
O185 O 0.10628 0.69465 0.719 0.0
O186 O 0.12213 0.71027 0.70434 0.0
O187 O 0.12115 0.72284 0.71662 0.0
H188 H 0.12758 0.69476 0.7264 0.0
H189 H 0.14 0.68474 0.73773 0.0
H190 H 0.11374 0.67583 0.75873 0.0
H191 H 0.10143 0.68592 0.74741 0.0
H192 H 0.05989 0.70269 0.71928 0.0
H193 H 0.07941 0.70497 0.71785 0.0
H194 H 0.05574 0.72723 0.6952 0.0
H195 H 0.07519 0.72956 0.69398 0.0
H196 H 0.12483 0.73977 0.67769 0.0
H197 H 0.15359 0.7418 0.69693 0.0
H198 H 0.14584 0.72884 0.70958 0.0
H199 H 0.11717 0.72673 0.69039 0.0
C200 C 0.30195 0.12019 0.6921 0.0
C201 C 0.30074 0.13055 0.6963 0.0
C202 C 0.28858 0.13505 0.68172 0.0
C203 C 0.29409 0.1379 0.69118 0.0
C204 C 0.28995 0.1247 0.67747 0.0
C205 C 0.29657 0.11734 0.68263 0.0
U206 U 0.32396 0.1133 0.71205 0.0
O207 O 0.32495 0.10026 0.72384 0.0
O208 O 0.3369 0.10148 0.71091 0.0
C209 C 0.33308 0.09575 0.71894 0.0
C210 C 0.30873 0.1123 0.69753 0.0
C211 C 0.33213 0.0841 0.71706 0.0
C212 C 0.32146 0.06801 0.71355 0.0
C213 C 0.32222 0.07917 0.71472 0.0
C214 C 0.34054 0.06664 0.7167 0.0
C215 C 0.33061 0.06161 0.71461 0.0
C216 C 0.34128 0.07777 0.71794 0.0
C217 C 0.33767 0.13635 0.72755 0.0
C218 C 0.34865 0.13434 0.74353 0.0
C219 C 0.34781 0.15154 0.73457 0.0
C220 C 0.34084 0.14714 0.72693 0.0
C221 C 0.35175 0.14523 0.74302 0.0
C222 C 0.34169 0.12993 0.73583 0.0
C223 C 0.32996 0.13209 0.71964 0.0
O224 O 0.31897 0.11276 0.69508 0.0
O225 O 0.30696 0.11109 0.70788 0.0
O226 O 0.32187 0.12647 0.72357 0.0
O227 O 0.33411 0.12785 0.71094 0.0
H228 H 0.30491 0.13294 0.70356 0.0
H229 H 0.29332 0.14585 0.69458 0.0
H230 H 0.28575 0.1222 0.67027 0.0
H231 H 0.29741 0.10938 0.67927 0.0
H232 H 0.31372 0.0644 0.71181 0.0
H233 H 0.31505 0.08391 0.71392 0.0
H234 H 0.34772 0.06195 0.71769 0.0
H235 H 0.34899 0.08142 0.71975 0.0
H236 H 0.35162 0.12922 0.74985 0.0
H237 H 0.3499 0.15998 0.73402 0.0
H238 H 0.3378 0.15222 0.72061 0.0
H239 H 0.33937 0.12155 0.7364 0.0
C240 C 0.91883 0.35251 0.73492 0.0
C241 C 0.90828 0.34869 0.73617 0.0
C242 C 0.90422 0.36367 0.74806 0.0
C243 C 0.90104 0.3542 0.7427 0.0
C244 C 0.91478 0.36752 0.74662 0.0
C245 C 0.92201 0.36198 0.74012 0.0
U246 U 0.92534 0.33167 0.71352 0.0
O247 O 0.93744 0.33198 0.70062 0.0
O248 O 0.93795 0.31954 0.71304 0.0
C249 C 0.94276 0.32393 0.7047 0.0
C250 C 0.92662 0.34665 0.72831 0.0
C251 C 0.95441 0.32557 0.70573 0.0
C252 C 0.9699 0.33352 0.71467 0.0
C253 C 0.95876 0.33232 0.71367 0.0
C254 C 0.9724 0.32134 0.69974 0.0
C255 C 0.97686 0.32799 0.70775 0.0
C256 C 0.96129 0.32014 0.69876 0.0
C257 C 0.90207 0.31627 0.70013 0.0
C258 C 0.90398 0.30012 0.6894 0.0
C259 C 0.88684 0.30896 0.69032 0.0
C260 C 0.89128 0.31676 0.6971 0.0
C261 C 0.8931 0.30049 0.68644 0.0
C262 C 0.90844 0.30796 0.69616 0.0
C263 C 0.9064 0.32436 0.70763 0.0
O264 O 0.92738 0.33636 0.73041 0.0
O265 O 0.92643 0.34875 0.71798 0.0
O266 O 0.91105 0.33278 0.70322 0.0
O267 O 0.9117 0.3206 0.7159 0.0
H268 H 0.90566 0.34138 0.73219 0.0
H269 H 0.89303 0.35091 0.74371 0.0
H270 H 0.91747 0.37487 0.75045 0.0
H271 H 0.93011 0.36508 0.73919 0.0
H272 H 0.97305 0.33862 0.72099 0.0
H273 H 0.95355 0.33656 0.71914 0.0
H274 H 0.97749 0.31709 0.69416 0.0
H275 H 0.95806 0.31494 0.69255 0.0
H276 H 0.90906 0.29377 0.68646 0.0
H277 H 0.87841 0.30943 0.68833 0.0
H278 H 0.88624 0.32311 0.7001 0.0
H279 H 0.91681 0.30749 0.69838 0.0
C280 C 0.68748 0.9214 0.73548 0.0
C281 C 0.6915 0.911 0.7365 0.0
C282 C 0.67703 0.90628 0.74888 0.0
C283 C 0.68634 0.90351 0.74316 0.0
C284 C 0.67295 0.91667 0.74768 0.0
C285 C 0.67815 0.92417 0.74105 0.0
U286 U 0.70805 0.92865 0.71397 0.0
O287 O 0.70719 0.94017 0.70059 0.0
O288 O 0.71954 0.94211 0.713 0.0
C289 C 0.71494 0.94625 0.7045 0.0
C290 C 0.69297 0.92941 0.72868 0.0
C291 C 0.71277 0.95782 0.70503 0.0
C292 C 0.70652 0.97357 0.71459 0.0
C293 C 0.70807 0.96247 0.71414 0.0
C294 C 0.71413 0.97541 0.69676 0.0
C295 C 0.70957 0.98019 0.70592 0.0
C296 C 0.71571 0.96435 0.69634 0.0
C297 C 0.72448 0.90591 0.70146 0.0
C298 C 0.73483 0.90702 0.68491 0.0
C299 C 0.73702 0.89188 0.69686 0.0
C300 C 0.72944 0.8962 0.70387 0.0
C301 C 0.73976 0.8972 0.68725 0.0
C302 C 0.72728 0.91136 0.69198 0.0
C303 C 0.71628 0.91005 0.70885 0.0
O304 O 0.70319 0.93099 0.73078 0.0
O305 O 0.69094 0.9287 0.71835 0.0
O306 O 0.70759 0.91386 0.70437 0.0
O307 O 0.71986 0.91599 0.71683 0.0
H308 H 0.69866 0.90869 0.73218 0.0
H309 H 0.6896 0.89554 0.74379 0.0
H310 H 0.66587 0.9191 0.75204 0.0
H311 H 0.67493 0.93216 0.74034 0.0
H312 H 0.70288 0.97696 0.7217 0.0
H313 H 0.70569 0.95754 0.72091 0.0
H314 H 0.71672 0.98026 0.69 0.0
H315 H 0.71937 0.9609 0.68926 0.0
H316 H 0.73685 0.91137 0.67765 0.0
H317 H 0.74055 0.88426 0.69885 0.0
H318 H 0.72737 0.89187 0.71114 0.0
H319 H 0.72358 0.91891 0.69 0.0
C320 C 0.30351 0.11931 0.35275 0.0
C321 C 0.30481 0.13041 0.35131 0.0
C322 C 0.28981 0.1337 0.36342 0.0
C323 C 0.29803 0.13755 0.35663 0.0
C324 C 0.28862 0.12256 0.36486 0.0
C325 C 0.29541 0.11544 0.35957 0.0
U326 U 0.32468 0.11299 0.33158 0.0
O327 O 0.33814 0.10172 0.33207 0.0
O328 O 0.32544 0.09969 0.32004 0.0
C329 C 0.33408 0.09566 0.32441 0.0
C330 C 0.31037 0.11168 0.34703 0.0
C331 C 0.33369 0.08406 0.32658 0.0
C332 C 0.32447 0.06808 0.33321 0.0
C333 C 0.32485 0.07921 0.33171 0.0
C334 C 0.34186 0.06659 0.32468 0.0
C335 C 0.33296 0.06162 0.32966 0.0
C336 C 0.3422 0.07769 0.32316 0.0
C337 C 0.33628 0.13601 0.31431 0.0
C338 C 0.3536 0.13803 0.30541 0.0
C339 C 0.33819 0.14747 0.29862 0.0
C340 C 0.33185 0.14301 0.30677 0.0
C341 C 0.34915 0.14507 0.29785 0.0
C342 C 0.34722 0.1335 0.31354 0.0
C343 C 0.32935 0.13169 0.32297 0.0
O344 O 0.30804 0.11019 0.33685 0.0
O345 O 0.32072 0.1127 0.3488 0.0
O346 O 0.33416 0.12799 0.33157 0.0
O347 O 0.32123 0.12567 0.31983 0.0
H348 H 0.311 0.13354 0.34601 0.0
H349 H 0.2991 0.14606 0.35525 0.0
H350 H 0.28247 0.11933 0.37013 0.0
H351 H 0.2943 0.1069 0.36078 0.0
H352 H 0.31756 0.06453 0.33718 0.0
H353 H 0.31821 0.08402 0.33446 0.0
H354 H 0.34846 0.06188 0.32171 0.0
H355 H 0.34907 0.08129 0.31915 0.0
H356 H 0.36199 0.13596 0.30497 0.0
H357 H 0.33454 0.15298 0.29303 0.0
H358 H 0.32346 0.14511 0.30724 0.0
H359 H 0.35085 0.12808 0.31922 0.0
C360 C 0.91797 0.35043 0.30726 0.0
C361 C 0.90734 0.34666 0.30662 0.0
C362 C 0.90303 0.36097 0.29407 0.0
C363 C 0.89995 0.35187 0.30006 0.0
C364 C 0.91366 0.36479 0.29489 0.0
C365 C 0.92106 0.35955 0.30141 0.0
U366 U 0.92496 0.33027 0.32908 0.0
O367 O 0.93772 0.31831 0.32974 0.0
O368 O 0.9372 0.33113 0.34182 0.0
C369 C 0.94261 0.32307 0.33783 0.0
C370 C 0.92591 0.34486 0.31389 0.0
C371 C 0.95426 0.32486 0.3366 0.0
C372 C 0.96996 0.32878 0.3256 0.0
C373 C 0.95883 0.32757 0.32663 0.0
C374 C 0.97205 0.32484 0.34451 0.0
C375 C 0.97674 0.32736 0.33451 0.0
C376 C 0.96094 0.32359 0.34552 0.0
C377 C 0.90188 0.315 0.3431 0.0
C378 C 0.9037 0.29886 0.35386 0.0
C379 C 0.88675 0.30811 0.35342 0.0
C380 C 0.8912 0.31576 0.34647 0.0
C381 C 0.89291 0.2995 0.35713 0.0
C382 C 0.90816 0.30656 0.34692 0.0
C383 C 0.90616 0.3229 0.33538 0.0
O384 O 0.92579 0.34723 0.32418 0.0
O385 O 0.92678 0.33453 0.31204 0.0
O386 O 0.91144 0.31897 0.32715 0.0
O387 O 0.91075 0.33148 0.33954 0.0
H388 H 0.90479 0.33967 0.31115 0.0
H389 H 0.89179 0.3488 0.29973 0.0
H390 H 0.91634 0.3717 0.2903 0.0
H391 H 0.92923 0.36257 0.30181 0.0
H392 H 0.97326 0.33061 0.31775 0.0
H393 H 0.95382 0.32863 0.31963 0.0
H394 H 0.97697 0.32389 0.3516 0.0
H395 H 0.95756 0.32155 0.35329 0.0
H396 H 0.90869 0.2924 0.35666 0.0
H397 H 0.87839 0.30878 0.35564 0.0
H398 H 0.88623 0.32221 0.34358 0.0
H399 H 0.91645 0.30587 0.34446 0.0
C400 C 0.68865 0.92273 0.30672 0.0
C401 C 0.68923 0.91162 0.30836 0.0
C402 C 0.67791 0.90841 0.2927 0.0
C403 C 0.68387 0.90452 0.30143 0.0
C404 C 0.67736 0.91957 0.29114 0.0
C405 C 0.68268 0.92665 0.2981 0.0
U406 U 0.70886 0.92891 0.32898 0.0
O407 O 0.72067 0.94204 0.33042 0.0
O408 O 0.70786 0.94036 0.34244 0.0
C409 C 0.71584 0.9463 0.33876 0.0
C410 C 0.69429 0.93032 0.31386 0.0
C411 C 0.71384 0.9579 0.33809 0.0
C412 C 0.7091 0.97378 0.32791 0.0
C413 C 0.71045 0.96267 0.32848 0.0
C414 C 0.71421 0.97544 0.3466 0.0
C415 C 0.71103 0.98031 0.33695 0.0
C416 C 0.71562 0.96435 0.34715 0.0
C417 C 0.7244 0.9056 0.34153 0.0
C418 C 0.73461 0.90629 0.35816 0.0
C419 C 0.73644 0.89117 0.34611 0.0
C420 C 0.72909 0.89576 0.33908 0.0
C421 C 0.73923 0.89631 0.3558 0.0
C422 C 0.72727 0.9109 0.35107 0.0
C423 C 0.71647 0.91005 0.33406 0.0
O424 O 0.69194 0.92952 0.32412 0.0
O425 O 0.70462 0.93151 0.31204 0.0
O426 O 0.7204 0.91598 0.32623 0.0
O427 O 0.70779 0.91405 0.33843 0.0
H428 H 0.69386 0.90845 0.31497 0.0
H429 H 0.68456 0.89599 0.30279 0.0
H430 H 0.67273 0.92284 0.2846 0.0
H431 H 0.68213 0.9352 0.29673 0.0
H432 H 0.70652 0.97726 0.32039 0.0
H433 H 0.70894 0.95782 0.32141 0.0
H434 H 0.71588 0.98023 0.35367 0.0
H435 H 0.71825 0.96081 0.35463 0.0
H436 H 0.73649 0.91044 0.36557 0.0
H437 H 0.73998 0.88359 0.34391 0.0
H438 H 0.72704 0.89159 0.33171 0.0
H439 H 0.72375 0.91854 0.35309 0.0
C440 C 0.11329 0.69219 0.30647 0.0
C441 C 0.12434 0.69225 0.30858 0.0
C442 C 0.12724 0.6797 0.29384 0.0
C443 C 0.13126 0.68606 0.30231 0.0
C444 C 0.11616 0.67982 0.2917 0.0
C445 C 0.10927 0.68599 0.29796 0.0
U446 U 0.10745 0.71288 0.32836 0.0
O447 O 0.09505 0.72525 0.32904 0.0
O448 O 0.09528 0.71252 0.34117 0.0
C449 C 0.09009 0.72072 0.33721 0.0
C450 C 0.10583 0.69839 0.31311 0.0
C451 C 0.07845 0.71915 0.336 0.0
C452 C 0.06311 0.71007 0.32789 0.0
C453 C 0.07423 0.71148 0.32887 0.0
C454 C 0.06036 0.72398 0.34116 0.0
C455 C 0.05603 0.71629 0.33405 0.0
C456 C 0.07145 0.72539 0.34211 0.0
C457 C 0.13092 0.72697 0.34281 0.0
C458 C 0.12973 0.74315 0.35364 0.0
C459 C 0.14564 0.73226 0.35449 0.0
C460 C 0.14114 0.72515 0.34702 0.0
C461 C 0.14002 0.74136 0.35787 0.0
C462 C 0.1252 0.73598 0.34621 0.0
C463 C 0.12648 0.7194 0.33483 0.0
O464 O 0.10573 0.69603 0.32339 0.0
O465 O 0.10571 0.70876 0.31125 0.0
O466 O 0.12142 0.72367 0.32666 0.0
O467 O 0.12156 0.71089 0.33876 0.0
H468 H 0.12758 0.697 0.31513 0.0
H469 H 0.13971 0.68609 0.30426 0.0
H470 H 0.11281 0.67519 0.28513 0.0
H471 H 0.10077 0.68589 0.29619 0.0
H472 H 0.06008 0.70399 0.32243 0.0
H473 H 0.07953 0.70657 0.32409 0.0
H474 H 0.05517 0.72903 0.34589 0.0
H475 H 0.07458 0.73137 0.34764 0.0
H476 H 0.12514 0.75001 0.35617 0.0
H477 H 0.15362 0.73071 0.35747 0.0
H478 H 0.14568 0.71825 0.34448 0.0
H479 H 0.11726 0.73749 0.3431 0.0
C480 C 0.30393 0.92173 0.6919 0.0
C481 C 0.30572 0.91072 0.69314 0.0
C482 C 0.29105 0.90659 0.6808 0.0
C483 C 0.29935 0.90322 0.68763 0.0
C484 C 0.28937 0.91766 0.67958 0.0
C485 C 0.29575 0.92515 0.68507 0.0
U486 U 0.32507 0.92904 0.7129 0.0
O487 O 0.33776 0.94144 0.7127 0.0
O488 O 0.32513 0.94195 0.72498 0.0
C489 C 0.33335 0.94693 0.72054 0.0
C490 C 0.31037 0.92972 0.69783 0.0
C491 C 0.33212 0.95858 0.71882 0.0
C492 C 0.33194 0.97433 0.70725 0.0
C493 C 0.33275 0.96321 0.70853 0.0
C494 C 0.32964 0.97634 0.72646 0.0
C495 C 0.3304 0.98103 0.71621 0.0
C496 C 0.33052 0.96526 0.72774 0.0
C497 C 0.33858 0.90622 0.72851 0.0
C498 C 0.35571 0.90661 0.73784 0.0
C499 C 0.34284 0.89238 0.7415 0.0
C500 C 0.33575 0.89688 0.73414 0.0
C501 C 0.35297 0.8971 0.74336 0.0
C502 C 0.34857 0.91114 0.7305 0.0
C503 C 0.3311 0.91041 0.72042 0.0
O504 O 0.30818 0.93048 0.70812 0.0
O505 O 0.32071 0.92976 0.69579 0.0
O506 O 0.33542 0.91496 0.7119 0.0
O507 O 0.3228 0.9156 0.72419 0.0
H508 H 0.31202 0.90794 0.69839 0.0
H509 H 0.30097 0.89478 0.68867 0.0
H510 H 0.28296 0.92056 0.67453 0.0
H511 H 0.29423 0.93362 0.68407 0.0
H512 H 0.33246 0.97767 0.69924 0.0
H513 H 0.33392 0.95826 0.70148 0.0
H514 H 0.32859 0.98127 0.73353 0.0
H515 H 0.33006 0.96189 0.73575 0.0
H516 H 0.36347 0.91043 0.739 0.0
H517 H 0.34035 0.8852 0.74575 0.0
H518 H 0.32805 0.89299 0.73277 0.0
H519 H 0.35093 0.91838 0.72627 0.0
C520 C 0.11382 0.30674 0.69265 0.0
C521 C 0.12496 0.30839 0.6931 0.0
C522 C 0.12763 0.29383 0.68031 0.0
C523 C 0.13181 0.30199 0.68698 0.0
C524 C 0.11645 0.29216 0.68003 0.0
C525 C 0.10963 0.29856 0.68613 0.0
U526 U 0.10823 0.32834 0.71372 0.0
O527 O 0.0967 0.34154 0.71336 0.0
O528 O 0.09537 0.32916 0.72581 0.0
C529 C 0.091 0.33758 0.72134 0.0
C530 C 0.10645 0.31352 0.6988 0.0
C531 C 0.07938 0.33676 0.71948 0.0
C532 C 0.06406 0.32932 0.70986 0.0
C533 C 0.07516 0.33006 0.71144 0.0
C534 C 0.06132 0.34199 0.72433 0.0
C535 C 0.05699 0.33528 0.7163 0.0
C536 C 0.0724 0.34272 0.72589 0.0
C537 C 0.13163 0.34142 0.72905 0.0
C538 C 0.13047 0.35781 0.73955 0.0
C539 C 0.14614 0.34665 0.74101 0.0
C540 C 0.14169 0.33948 0.73357 0.0
C541 C 0.14062 0.35593 0.74405 0.0
C542 C 0.12599 0.35059 0.73214 0.0
C543 C 0.12724 0.33383 0.72107 0.0
O544 O 0.10576 0.31144 0.70913 0.0
O545 O 0.10702 0.32384 0.69669 0.0
O546 O 0.12295 0.33812 0.71247 0.0
O547 O 0.12156 0.32579 0.72497 0.0
H548 H 0.12833 0.31469 0.69811 0.0
H549 H 0.14035 0.30358 0.68732 0.0
H550 H 0.11295 0.28585 0.67514 0.0
H551 H 0.10105 0.29714 0.68573 0.0
H552 H 0.06102 0.32417 0.70352 0.0
H553 H 0.08044 0.3254 0.7064 0.0
H554 H 0.05613 0.34657 0.72954 0.0
H555 H 0.07552 0.34791 0.73216 0.0
H556 H 0.12595 0.36481 0.74182 0.0
H557 H 0.15402 0.34503 0.74422 0.0
H558 H 0.14616 0.33245 0.73127 0.0
H559 H 0.11816 0.35218 0.72879 0.0
C560 C 0.68628 0.1182 0.73626 0.0
C561 C 0.69002 0.12866 0.73836 0.0
C562 C 0.67429 0.13208 0.74947 0.0
C563 C 0.68409 0.13553 0.74492 0.0
C564 C 0.67055 0.12162 0.7472 0.0
C565 C 0.67649 0.11477 0.74068 0.0
U566 U 0.70782 0.11224 0.71517 0.0
O567 O 0.7195 0.09922 0.7145 0.0
O568 O 0.70744 0.10066 0.70179 0.0
C569 C 0.71516 0.09488 0.70589 0.0
C570 C 0.69242 0.11076 0.72953 0.0
C571 C 0.7131 0.08324 0.70637 0.0
C572 C 0.70665 0.06728 0.71571 0.0
C573 C 0.70818 0.07843 0.71533 0.0
C574 C 0.71476 0.0657 0.6981 0.0
C575 C 0.70996 0.06078 0.7071 0.0
C576 C 0.71631 0.07681 0.69775 0.0
C577 C 0.72415 0.13527 0.7026 0.0
C578 C 0.73482 0.13384 0.6863 0.0
C579 C 0.73667 0.14952 0.69766 0.0
C580 C 0.729 0.14524 0.70471 0.0
C581 C 0.73963 0.14391 0.68833 0.0
C582 C 0.72717 0.12954 0.69339 0.0
C583 C 0.71587 0.1311 0.71 0.0
O584 O 0.69062 0.11137 0.71915 0.0
O585 O 0.70263 0.10986 0.7319 0.0
O586 O 0.71938 0.12541 0.71812 0.0
O587 O 0.70726 0.12693 0.70548 0.0
H588 H 0.69756 0.13147 0.73499 0.0
H589 H 0.68727 0.14348 0.74657 0.0
H590 H 0.66295 0.11875 0.75037 0.0
H591 H 0.67344 0.10675 0.73908 0.0
H592 H 0.70283 0.06377 0.72271 0.0
H593 H 0.70558 0.08328 0.72205 0.0
H594 H 0.71754 0.06094 0.69139 0.0
H595 H 0.72014 0.08038 0.69078 0.0
H596 H 0.73701 0.12925 0.67926 0.0
H597 H 0.74012 0.15734 0.69941 0.0
H598 H 0.72676 0.14978 0.71177 0.0
H599 H 0.72358 0.12178 0.69166 0.0
C600 C 0.91867 0.73461 0.69117 0.0
C601 C 0.90755 0.73324 0.69232 0.0
C602 C 0.90451 0.74852 0.68054 0.0
C603 C 0.90052 0.74012 0.68702 0.0
C604 C 0.91568 0.74977 0.67937 0.0
C605 C 0.92268 0.74288 0.68463 0.0
U606 U 0.92475 0.71328 0.71224 0.0
O607 O 0.93613 0.69993 0.71178 0.0
O608 O 0.93789 0.71257 0.72393 0.0
C609 C 0.94207 0.704 0.71953 0.0
C610 C 0.9262 0.72769 0.69691 0.0
C611 C 0.95365 0.70468 0.71738 0.0
C612 C 0.96899 0.71299 0.70847 0.0
C613 C 0.9579 0.71219 0.71009 0.0
C614 C 0.97167 0.69868 0.7213 0.0
C615 C 0.97603 0.70628 0.7141 0.0
C616 C 0.96059 0.69791 0.72292 0.0
C617 C 0.90158 0.70157 0.72925 0.0
C618 C 0.89994 0.68438 0.73842 0.0
C619 C 0.88968 0.69953 0.74462 0.0
C620 C 0.89416 0.70587 0.73647 0.0
C621 C 0.89249 0.68871 0.74568 0.0
C622 C 0.90449 0.69076 0.7303 0.0
C623 C 0.90597 0.7085 0.72064 0.0
O624 O 0.92755 0.72996 0.70713 0.0
O625 O 0.9252 0.71735 0.69505 0.0
O626 O 0.90981 0.70371 0.71207 0.0
O627 O 0.91191 0.71666 0.72387 0.0
H628 H 0.90431 0.72693 0.69739 0.0
H629 H 0.89197 0.739 0.68819 0.0
H630 H 0.91902 0.75606 0.67434 0.0
H631 H 0.93125 0.74404 0.68365 0.0
H632 H 0.97205 0.71883 0.70277 0.0
H633 H 0.95264 0.71748 0.70573 0.0
H634 H 0.97683 0.69349 0.72588 0.0
H635 H 0.95745 0.69209 0.72861 0.0
H636 H 0.90233 0.67609 0.73909 0.0
H637 H 0.88386 0.70308 0.74997 0.0
H638 H 0.89176 0.71416 0.73578 0.0
H639 H 0.91024 0.68725 0.72486 0.0
C640 C 0.30179 0.35015 0.12008 0.0
C641 C 0.30335 0.34879 0.13115 0.0
C642 C 0.28844 0.36068 0.13498 0.0
C643 C 0.29675 0.35402 0.13854 0.0
C644 C 0.28694 0.362 0.12386 0.0
C645 C 0.29356 0.35678 0.11649 0.0
U646 U 0.32356 0.33007 0.11322 0.0
O647 O 0.32467 0.31851 0.09995 0.0
O648 O 0.33686 0.33127 0.10158 0.0
C649 C 0.33298 0.32345 0.09558 0.0
C650 C 0.30862 0.34468 0.11221 0.0
C651 C 0.33246 0.32556 0.08389 0.0
C652 C 0.32296 0.32519 0.06681 0.0
C653 C 0.32298 0.32394 0.07798 0.0
C654 C 0.3418 0.33001 0.06726 0.0
C655 C 0.33241 0.3281 0.06127 0.0
C656 C 0.34183 0.32871 0.07842 0.0
C657 C 0.33634 0.31414 0.13629 0.0
C658 C 0.3532 0.30457 0.13574 0.0
C659 C 0.34077 0.30153 0.15041 0.0
C660 C 0.3337 0.30885 0.14587 0.0
C661 C 0.35067 0.29938 0.14548 0.0
C662 C 0.34609 0.31188 0.13117 0.0
C663 C 0.32887 0.3221 0.13197 0.0
O664 O 0.31891 0.34701 0.11279 0.0
O665 O 0.30666 0.33438 0.11098 0.0
O666 O 0.32093 0.31826 0.12614 0.0
O667 O 0.33321 0.33089 0.12796 0.0
H668 H 0.30969 0.3437 0.13406 0.0
H669 H 0.29822 0.35292 0.14703 0.0
H670 H 0.28054 0.36692 0.12082 0.0
H671 H 0.29222 0.35789 0.10796 0.0
H672 H 0.3156 0.32353 0.06248 0.0
H673 H 0.31561 0.3215 0.08195 0.0
H674 H 0.34918 0.33246 0.06333 0.0
H675 H 0.34924 0.33001 0.08277 0.0
H676 H 0.36078 0.30319 0.13176 0.0
H677 H 0.33843 0.29754 0.15779 0.0
H678 H 0.32618 0.31043 0.1499 0.0
H679 H 0.34826 0.31586 0.12373 0.0
C680 C 0.30269 0.69134 0.92391 0.0
C681 C 0.30125 0.69525 0.91345 0.0
C682 C 0.2894 0.6801 0.90925 0.0
C683 C 0.29464 0.6897 0.9062 0.0
C684 C 0.29103 0.67616 0.91971 0.0
C685 C 0.2976 0.68174 0.92697 0.0
U686 U 0.3239 0.71262 0.93036 0.0
O687 O 0.32439 0.72482 0.94311 0.0
O688 O 0.33694 0.71268 0.94225 0.0
C689 C 0.33289 0.72073 0.94767 0.0
C690 C 0.30936 0.69726 0.93171 0.0
C691 C 0.33226 0.71945 0.9594 0.0
C692 C 0.3253 0.71057 0.9754 0.0
C693 C 0.32605 0.71128 0.96418 0.0
C694 C 0.33701 0.72613 0.97709 0.0
C695 C 0.33069 0.71808 0.98199 0.0
C696 C 0.33778 0.7268 0.96592 0.0
C697 C 0.33636 0.72881 0.90705 0.0
C698 C 0.35386 0.73753 0.90524 0.0
C699 C 0.33875 0.74411 0.89514 0.0
C700 C 0.33219 0.73615 0.89968 0.0
C701 C 0.34967 0.74488 0.89783 0.0
C702 C 0.34726 0.72959 0.90985 0.0
C703 C 0.32921 0.72034 0.91145 0.0
O704 O 0.3197 0.69542 0.93122 0.0
O705 O 0.30715 0.70748 0.93278 0.0
O706 O 0.32093 0.72371 0.91698 0.0
O707 O 0.33381 0.71194 0.91575 0.0
H708 H 0.30513 0.70265 0.91094 0.0
H709 H 0.29349 0.69306 0.89828 0.0
H710 H 0.28729 0.66872 0.9223 0.0
H711 H 0.29868 0.67858 0.93499 0.0
H712 H 0.32032 0.70432 0.97891 0.0
H713 H 0.3217 0.70555 0.95923 0.0
H714 H 0.34141 0.73192 0.98191 0.0
H715 H 0.34262 0.73314 0.96237 0.0
H716 H 0.36222 0.73797 0.90755 0.0
H717 H 0.33529 0.74954 0.88936 0.0
H718 H 0.32383 0.73567 0.89735 0.0
H719 H 0.3507 0.72407 0.91555 0.0
C720 C 0.30322 0.35073 0.92345 0.0
C721 C 0.30462 0.34984 0.9123 0.0
C722 C 0.28955 0.36173 0.90929 0.0
C723 C 0.29786 0.35532 0.90528 0.0
C724 C 0.28825 0.36261 0.92049 0.0
C725 C 0.29502 0.35716 0.92749 0.0
U726 U 0.32492 0.33021 0.92903 0.0
O727 O 0.33829 0.33064 0.94053 0.0
O728 O 0.32593 0.31801 0.94174 0.0
C729 C 0.33448 0.32247 0.94609 0.0
C730 C 0.31011 0.34487 0.93094 0.0
C731 C 0.3341 0.32391 0.95781 0.0
C732 C 0.32838 0.33356 0.97377 0.0
C733 C 0.32852 0.33239 0.96256 0.0
C734 C 0.33931 0.31775 0.97552 0.0
C735 C 0.33383 0.32627 0.98039 0.0
C736 C 0.33944 0.31659 0.96436 0.0
C737 C 0.33757 0.31518 0.9054 0.0
C738 C 0.35397 0.3049 0.90635 0.0
C739 C 0.34245 0.30328 0.89078 0.0
C740 C 0.33539 0.31062 0.89534 0.0
C741 C 0.35189 0.30038 0.89618 0.0
C742 C 0.34687 0.31221 0.91093 0.0
C743 C 0.33009 0.32305 0.90989 0.0
O744 O 0.30809 0.33453 0.93172 0.0
O745 O 0.32041 0.34716 0.93033 0.0
O746 O 0.33448 0.33165 0.91424 0.0
O747 O 0.32211 0.31905 0.91558 0.0
H748 H 0.31089 0.34486 0.90904 0.0
H749 H 0.29901 0.35436 0.89671 0.0
H750 H 0.28203 0.36758 0.92385 0.0
H751 H 0.29384 0.35794 0.93608 0.0
H752 H 0.32416 0.34026 0.97723 0.0
H753 H 0.32433 0.3381 0.95761 0.0
H754 H 0.34341 0.31186 0.98034 0.0
H755 H 0.34373 0.30996 0.96083 0.0
H756 H 0.3612 0.30294 0.9107 0.0
H757 H 0.34046 0.29983 0.88305 0.0
H758 H 0.32822 0.31276 0.89099 0.0
H759 H 0.34867 0.31562 0.91874 0.0
C760 C 0.68653 0.30807 0.92306 0.0
C761 C 0.68748 0.31 0.912 0.0
C762 C 0.67543 0.29491 0.9082 0.0
C763 C 0.68197 0.30349 0.90463 0.0
C764 C 0.67448 0.29309 0.91933 0.0
C765 C 0.67998 0.29961 0.92668 0.0
U766 U 0.70737 0.32971 0.92924 0.0
O767 O 0.7074 0.34269 0.94119 0.0
O768 O 0.71984 0.33042 0.94172 0.0
C769 C 0.71559 0.33877 0.94645 0.0
C770 C 0.69252 0.31468 0.93085 0.0
C771 C 0.71436 0.33802 0.95819 0.0
C772 C 0.70436 0.33261 0.97413 0.0
C773 C 0.70541 0.33295 0.96292 0.0
C774 C 0.72125 0.34223 0.97595 0.0
C775 C 0.71223 0.33733 0.98079 0.0
C776 C 0.72228 0.34258 0.96478 0.0
C777 C 0.72193 0.34318 0.9055 0.0
C778 C 0.73766 0.35479 0.90713 0.0
C779 C 0.72881 0.35278 0.88993 0.0
C780 C 0.72131 0.34578 0.89458 0.0
C781 C 0.73714 0.35732 0.89611 0.0
C782 C 0.73011 0.34779 0.91178 0.0
C783 C 0.71408 0.33556 0.91008 0.0
O784 O 0.70283 0.31274 0.93141 0.0
O785 O 0.69038 0.32497 0.93074 0.0
O786 O 0.70575 0.33982 0.91485 0.0
O787 O 0.71808 0.32746 0.91541 0.0
H788 H 0.69251 0.31651 0.90906 0.0
H789 H 0.68278 0.30523 0.89615 0.0
H790 H 0.66966 0.28647 0.92236 0.0
H791 H 0.67921 0.29798 0.93519 0.0
H792 H 0.69728 0.32884 0.97757 0.0
H793 H 0.69922 0.32936 0.95794 0.0
H794 H 0.72757 0.34576 0.98079 0.0
H795 H 0.72927 0.34646 0.96127 0.0
H796 H 0.74401 0.35807 0.91212 0.0
H797 H 0.72803 0.35469 0.88148 0.0
H798 H 0.71501 0.34234 0.88962 0.0
H799 H 0.73071 0.34588 0.92025 0.0
C800 C 0.68803 0.73523 0.92405 0.0
C801 C 0.68713 0.73226 0.9132 0.0
C802 C 0.6763 0.74799 0.90961 0.0
C803 C 0.68128 0.73856 0.90606 0.0
C804 C 0.67736 0.75097 0.92047 0.0
C805 C 0.68316 0.74464 0.92761 0.0
U806 U 0.70854 0.71365 0.93038 0.0
O807 O 0.72058 0.71289 0.94323 0.0
O808 O 0.70789 0.70057 0.94225 0.0
C809 C 0.71598 0.70452 0.9478 0.0
C810 C 0.69396 0.72859 0.93174 0.0
C811 C 0.71429 0.70524 0.95949 0.0
C812 C 0.70857 0.71489 0.97545 0.0
C813 C 0.70988 0.71438 0.96428 0.0
C814 C 0.7159 0.69709 0.97712 0.0
C815 C 0.71158 0.70624 0.98201 0.0
C816 C 0.71724 0.69661 0.96598 0.0
C817 C 0.72338 0.70016 0.90707 0.0
C818 C 0.73817 0.68787 0.90938 0.0
C819 C 0.73091 0.691 0.89164 0.0
C820 C 0.7235 0.69809 0.89601 0.0
C821 C 0.73839 0.68584 0.89825 0.0
C822 C 0.73072 0.69497 0.91375 0.0
C823 C 0.71561 0.70782 0.91139 0.0
O824 O 0.69164 0.71829 0.93158 0.0
O825 O 0.7043 0.73063 0.9324 0.0
O826 O 0.7197 0.7159 0.91686 0.0
O827 O 0.70703 0.70358 0.91592 0.0
H828 H 0.69092 0.72505 0.91028 0.0
H829 H 0.68073 0.7361 0.89773 0.0
H830 H 0.67352 0.7581 0.92351 0.0
H831 H 0.68377 0.74705 0.93595 0.0
H832 H 0.70512 0.72201 0.97894 0.0
H833 H 0.70749 0.72111 0.95938 0.0
H834 H 0.71845 0.69035 0.98192 0.0
H835 H 0.72067 0.68949 0.96243 0.0
H836 H 0.74386 0.68412 0.9147 0.0
H837 H 0.73071 0.68949 0.88308 0.0
H838 H 0.71785 0.70198 0.89074 0.0
H839 H 0.73073 0.69648 0.92233 0.0
C840 C 0.6881 0.73491 0.12006 0.0
C841 C 0.68705 0.73239 0.131 0.0
C842 C 0.67574 0.74799 0.13373 0.0
C843 C 0.68091 0.73888 0.13778 0.0
C844 C 0.67703 0.75055 0.12278 0.0
C845 C 0.68313 0.74406 0.11603 0.0
U846 U 0.70831 0.71271 0.11434 0.0
O847 O 0.70751 0.69964 0.10246 0.0
O848 O 0.72051 0.71162 0.10163 0.0
C849 C 0.71575 0.70338 0.09698 0.0
C850 C 0.69415 0.72802 0.11268 0.0
C851 C 0.71418 0.70418 0.08529 0.0
C852 C 0.70864 0.71397 0.06938 0.0
C853 C 0.70994 0.71341 0.08055 0.0
C854 C 0.71566 0.69604 0.06763 0.0
C855 C 0.71149 0.70528 0.06278 0.0
C856 C 0.71699 0.69551 0.07876 0.0
C857 C 0.72237 0.69863 0.13773 0.0
C858 C 0.73842 0.68784 0.13632 0.0
C859 C 0.72754 0.68699 0.15244 0.0
C860 C 0.72051 0.69442 0.14801 0.0
C861 C 0.73661 0.68363 0.14667 0.0
C862 C 0.73134 0.69524 0.13187 0.0
C863 C 0.71491 0.70658 0.13337 0.0
O864 O 0.70455 0.7298 0.1123 0.0
O865 O 0.69157 0.71777 0.11289 0.0
O866 O 0.70624 0.70265 0.12876 0.0
O867 O 0.71928 0.71462 0.12803 0.0
H868 H 0.69085 0.72535 0.13427 0.0
H869 H 0.68003 0.73661 0.14613 0.0
H870 H 0.67334 0.7576 0.11942 0.0
H871 H 0.68391 0.74616 0.10762 0.0
H872 H 0.70531 0.72116 0.06592 0.0
H873 H 0.70765 0.72017 0.08548 0.0
H874 H 0.71808 0.68926 0.0628 0.0
H875 H 0.72028 0.68833 0.08228 0.0
H876 H 0.74526 0.68532 0.13162 0.0
H877 H 0.72596 0.68402 0.16046 0.0
H878 H 0.71364 0.69695 0.15266 0.0
H879 H 0.73288 0.69832 0.12388 0.0
C880 C 0.30377 0.69089 0.12101 0.0
C881 C 0.3024 0.69474 0.13151 0.0
C882 C 0.29052 0.67961 0.13571 0.0
C883 C 0.29581 0.68917 0.13878 0.0
C884 C 0.2921 0.67571 0.12521 0.0
C885 C 0.29865 0.68131 0.11794 0.0
U886 U 0.32535 0.71178 0.11445 0.0
O887 O 0.33811 0.71174 0.10222 0.0
O888 O 0.32587 0.72422 0.10194 0.0
C889 C 0.33414 0.71997 0.09705 0.0
C890 C 0.31039 0.69684 0.11317 0.0
C891 C 0.33316 0.71882 0.08533 0.0
C892 C 0.3259 0.70996 0.06947 0.0
C893 C 0.32685 0.71066 0.08067 0.0
C894 C 0.33757 0.72551 0.06755 0.0
C895 C 0.33119 0.71744 0.06277 0.0
C896 C 0.33853 0.72619 0.0787 0.0
C897 C 0.33898 0.72688 0.13766 0.0
C898 C 0.35003 0.74293 0.13545 0.0
C899 C 0.34873 0.73434 0.15285 0.0
C900 C 0.34186 0.72652 0.14852 0.0
C901 C 0.35284 0.74269 0.1464 0.0
C902 C 0.34318 0.73507 0.13111 0.0
C903 C 0.3314 0.7188 0.13342 0.0
O904 O 0.30843 0.70714 0.11242 0.0
O905 O 0.32069 0.69472 0.1133 0.0
O906 O 0.33571 0.71047 0.12869 0.0
O907 O 0.32312 0.72258 0.1282 0.0
H908 H 0.30632 0.70211 0.13404 0.0
H909 H 0.2947 0.6925 0.14673 0.0
H910 H 0.28832 0.6683 0.12261 0.0
H911 H 0.29967 0.67819 0.10988 0.0
H912 H 0.32087 0.70369 0.06606 0.0
H913 H 0.32261 0.70492 0.0857 0.0
H914 H 0.3419 0.7313 0.06265 0.0
H915 H 0.34346 0.73251 0.08216 0.0
H916 H 0.35315 0.74917 0.13023 0.0
H917 H 0.35059 0.73398 0.16134 0.0
H918 H 0.33867 0.72027 0.1537 0.0
H919 H 0.34108 0.73544 0.12268 0.0
C920 C 0.68777 0.30543 0.11999 0.0
C921 C 0.68861 0.30705 0.13112 0.0
C922 C 0.67692 0.29156 0.1344 0.0
C923 C 0.68321 0.30019 0.13826 0.0
C924 C 0.67613 0.29002 0.12322 0.0
C925 C 0.6815 0.2969 0.1161 0.0
U926 U 0.70804 0.3278 0.11359 0.0
O927 O 0.71963 0.32927 0.10035 0.0
O928 O 0.7069 0.34115 0.10207 0.0
C929 C 0.71474 0.33751 0.09607 0.0
C930 C 0.69338 0.31254 0.11235 0.0
C931 C 0.7127 0.33706 0.08436 0.0
C932 C 0.7127 0.32757 0.06724 0.0
C933 C 0.71382 0.32753 0.07844 0.0
C934 C 0.70897 0.34655 0.06774 0.0
C935 C 0.71041 0.33712 0.06173 0.0
C936 C 0.71014 0.34652 0.07891 0.0
C937 C 0.72401 0.34093 0.13654 0.0
C938 C 0.73433 0.35754 0.13507 0.0
C939 C 0.73633 0.34623 0.15073 0.0
C940 C 0.72883 0.33897 0.14649 0.0
C941 C 0.73914 0.35564 0.1451 0.0
C942 C 0.72686 0.35023 0.1308 0.0
C943 C 0.716 0.33321 0.13237 0.0
O944 O 0.69109 0.32276 0.11308 0.0
O945 O 0.70369 0.31081 0.11117 0.0
O946 O 0.7198 0.32537 0.1265 0.0
O947 O 0.70721 0.33734 0.12841 0.0
H948 H 0.69347 0.31359 0.13427 0.0
H949 H 0.6841 0.30153 0.14681 0.0
H950 H 0.67125 0.28356 0.11997 0.0
H951 H 0.68074 0.29555 0.10754 0.0
H952 H 0.71397 0.32018 0.06289 0.0
H953 H 0.71578 0.32009 0.0824 0.0
H954 H 0.707 0.35401 0.06382 0.0
H955 H 0.70922 0.35396 0.08329 0.0
H956 H 0.7364 0.36464 0.13048 0.0
H957 H 0.73977 0.34458 0.15853 0.0
H958 H 0.72673 0.33183 0.15103 0.0
H959 H 0.72327 0.35184 0.12306 0.0
C960 C 0.61426 0.80482 0.85048 0.0
C961 C 0.62519 0.80759 0.85091 0.0
C962 C 0.62864 0.79206 0.86223 0.0
C963 C 0.63231 0.80128 0.85677 0.0
C964 C 0.61768 0.78929 0.86166 0.0
C965 C 0.61057 0.79562 0.85585 0.0
U966 U 0.60812 0.82632 0.82965 0.0
O967 O 0.59533 0.827 0.81755 0.0
O968 O 0.5964 0.83935 0.83007 0.0
C969 C 0.59083 0.83538 0.822 0.0
C970 C 0.60662 0.81143 0.8445 0.0
C971 C 0.57918 0.8345 0.8237 0.0
C972 C 0.56364 0.8264 0.83245 0.0
C973 C 0.57477 0.82721 0.83111 0.0
C974 C 0.56125 0.84021 0.81902 0.0
C975 C 0.55673 0.83286 0.82637 0.0
C976 C 0.57236 0.84101 0.81771 0.0
C977 C 0.63154 0.83963 0.81436 0.0
C978 C 0.63081 0.8563 0.80427 0.0
C979 C 0.64596 0.84453 0.8021 0.0
C980 C 0.64138 0.83737 0.80948 0.0
C981 C 0.64079 0.85414 0.79947 0.0
C982 C 0.62622 0.84909 0.81164 0.0
C983 C 0.6271 0.83205 0.82232 0.0
O984 O 0.60694 0.82175 0.84667 0.0
O985 O 0.60587 0.80937 0.83417 0.0
O986 O 0.62153 0.82394 0.8184 0.0
O987 O 0.62271 0.83631 0.83091 0.0
H988 H 0.6282 0.81463 0.84674 0.0
H989 H 0.64071 0.80357 0.85693 0.0
H990 H 0.61456 0.78232 0.86587 0.0
H991 H 0.60215 0.79337 0.8556 0.0
H992 H 0.56043 0.82059 0.83809 0.0
H993 H 0.57994 0.8221 0.83579 0.0
H994 H 0.55621 0.84543 0.81433 0.0
H995 H 0.57564 0.84672 0.81198 0.0
H996 H 0.62665 0.86365 0.80252 0.0
H997 H 0.65353 0.84249 0.79842 0.0
H998 H 0.64557 0.83007 0.81142 0.0
H999 H 0.61857 0.85096 0.81528 0.0
C1000 C 0.18712 0.61895 0.80745 0.0
C1001 C 0.18625 0.6298 0.81029 0.0
C1002 C 0.17539 0.63309 0.79438 0.0
C1003 C 0.18039 0.6368 0.80383 0.0
C1004 C 0.17642 0.62223 0.79153 0.0
C1005 C 0.18222 0.61524 0.79802 0.0
U1006 U 0.20788 0.61282 0.8291 0.0
O1007 O 0.20716 0.60119 0.8424 0.0
O1008 O 0.21961 0.59986 0.83001 0.0
C1009 C 0.21505 0.59548 0.8385 0.0
C1010 C 0.19301 0.61139 0.81425 0.0
C1011 C 0.2131 0.58383 0.83796 0.0
C1012 C 0.20725 0.56776 0.82842 0.0
C1013 C 0.20868 0.57892 0.82881 0.0
C1014 C 0.21446 0.56635 0.84641 0.0
C1015 C 0.21015 0.56134 0.83722 0.0
C1016 C 0.21592 0.57747 0.84676 0.0
C1017 C 0.22373 0.63592 0.84217 0.0
C1018 C 0.23413 0.63446 0.8586 0.0
C1019 C 0.23617 0.65016 0.8473 0.0
C1020 C 0.22861 0.6459 0.84015 0.0
C1021 C 0.239 0.64452 0.85664 0.0
C1022 C 0.2266 0.63017 0.8514 0.0
C1023 C 0.21567 0.63171 0.83457 0.0
O1024 O 0.2033 0.61056 0.81216 0.0
O1025 O 0.19088 0.61181 0.82458 0.0
O1026 O 0.20697 0.62747 0.83887 0.0
O1027 O 0.21944 0.62607 0.82652 0.0
H1028 H 0.19005 0.63284 0.81751 0.0
H1029 H 0.17986 0.64514 0.80619 0.0
H1030 H 0.17256 0.61908 0.78439 0.0
H1031 H 0.1828 0.60689 0.7957 0.0
H1032 H 0.20381 0.56418 0.82127 0.0
H1033 H 0.20639 0.58371 0.82194 0.0
H1034 H 0.21693 0.56166 0.85327 0.0
H1035 H 0.21937 0.58111 0.85389 0.0
H1036 H 0.23622 0.62986 0.86565 0.0
H1037 H 0.23966 0.65797 0.84561 0.0
H1038 H 0.2265 0.65044 0.83307 0.0
H1039 H 0.22298 0.6224 0.85306 0.0
C1040 C 0.41789 0.23609 0.85012 0.0
C1041 C 0.40751 0.23721 0.84598 0.0
C1042 C 0.40305 0.24956 0.86045 0.0
C1043 C 0.40017 0.24391 0.85107 0.0
C1044 C 0.41341 0.24825 0.86466 0.0
C1045 C 0.42076 0.24159 0.85952 0.0
U1046 U 0.42474 0.21407 0.83012 0.0
O1047 O 0.43771 0.21319 0.81819 0.0
O1048 O 0.43662 0.20121 0.83104 0.0
C1049 C 0.44226 0.20503 0.82295 0.0
C1050 C 0.4258 0.22932 0.84465 0.0
C1051 C 0.45387 0.20617 0.8248 0.0
C1052 C 0.46915 0.21551 0.8327 0.0
C1053 C 0.45806 0.21443 0.83125 0.0
C1054 C 0.47194 0.20002 0.82133 0.0
C1055 C 0.47624 0.20832 0.82772 0.0
C1056 C 0.46086 0.19896 0.81989 0.0
C1057 C 0.40161 0.20029 0.81483 0.0
C1058 C 0.40361 0.18913 0.79896 0.0
C1059 C 0.38635 0.19028 0.80779 0.0
C1060 C 0.39078 0.19727 0.81541 0.0
C1061 C 0.39269 0.18618 0.79941 0.0
C1062 C 0.40805 0.1961 0.80662 0.0
C1063 C 0.40591 0.20801 0.82272 0.0
O1064 O 0.42538 0.21908 0.84709 0.0
O1065 O 0.42695 0.23108 0.8343 0.0
O1066 O 0.41148 0.21611 0.81875 0.0
O1067 O 0.41025 0.20387 0.83136 0.0
H1068 H 0.40511 0.23295 0.83876 0.0
H1069 H 0.39221 0.24463 0.8477 0.0
H1070 H 0.41592 0.25256 0.8718 0.0
H1071 H 0.42874 0.24081 0.86284 0.0
H1072 H 0.47218 0.22191 0.83778 0.0
H1073 H 0.45276 0.22005 0.83514 0.0
H1074 H 0.47714 0.19444 0.81726 0.0
H1075 H 0.45776 0.19256 0.81485 0.0
H1076 H 0.40874 0.18602 0.79269 0.0
H1077 H 0.37789 0.18831 0.80831 0.0
H1078 H 0.38568 0.20044 0.82168 0.0
H1079 H 0.41646 0.19831 0.80609 0.0
C1080 C 0.80264 0.4235 0.84977 0.0
C1081 C 0.8037 0.41247 0.84799 0.0
C1082 C 0.78915 0.40869 0.86061 0.0
C1083 C 0.79702 0.40512 0.85336 0.0
C1084 C 0.78817 0.41979 0.86236 0.0
C1085 C 0.79485 0.42711 0.85699 0.0
U1086 U 0.82443 0.43032 0.82924 0.0
O1087 O 0.82556 0.44357 0.81765 0.0
O1088 O 0.83779 0.442 0.83017 0.0
C1089 C 0.834 0.44789 0.82233 0.0
C1090 C 0.80953 0.43133 0.84413 0.0
C1091 C 0.83344 0.45948 0.82448 0.0
C1092 C 0.82407 0.47508 0.83125 0.0
C1093 C 0.82454 0.46398 0.82962 0.0
C1094 C 0.84147 0.47724 0.8228 0.0
C1095 C 0.83253 0.48185 0.82782 0.0
C1096 C 0.84191 0.46617 0.82114 0.0
C1097 C 0.83724 0.40758 0.81308 0.0
C1098 C 0.85384 0.40905 0.80288 0.0
C1099 C 0.84214 0.39359 0.80047 0.0
C1100 C 0.83501 0.39777 0.80802 0.0
C1101 C 0.85168 0.39914 0.79785 0.0
C1102 C 0.84666 0.41325 0.8104 0.0
C1103 C 0.82969 0.41164 0.82118 0.0
O1104 O 0.81982 0.43079 0.84629 0.0
O1105 O 0.80755 0.43249 0.83383 0.0
O1106 O 0.82175 0.41737 0.81746 0.0
O1107 O 0.834 0.41567 0.82996 0.0
H1108 H 0.8097 0.40954 0.84244 0.0
H1109 H 0.7981 0.39664 0.85191 0.0
H1110 H 0.78211 0.42284 0.86775 0.0
H1111 H 0.7939 0.43562 0.85843 0.0
H1112 H 0.81712 0.47835 0.83524 0.0
H1113 H 0.81794 0.45892 0.8323 0.0
H1114 H 0.84805 0.48221 0.81992 0.0
H1115 H 0.84883 0.46284 0.81714 0.0
H1116 H 0.86105 0.41359 0.80095 0.0
H1117 H 0.84029 0.38589 0.79685 0.0
H1118 H 0.82778 0.39327 0.80999 0.0
H1119 H 0.84848 0.4209 0.81416 0.0
C1120 C 0.61326 0.19158 0.23681 0.0
C1121 C 0.62413 0.19099 0.23399 0.0
C1122 C 0.62764 0.18007 0.24982 0.0
C1123 C 0.63125 0.18525 0.24041 0.0
C1124 C 0.61674 0.18079 0.25263 0.0
C1125 C 0.60963 0.18648 0.24618 0.0
U1126 U 0.60708 0.21169 0.21462 0.0
O1127 O 0.59495 0.21108 0.20184 0.0
O1128 O 0.59455 0.22397 0.21385 0.0
C1129 C 0.58963 0.21924 0.20577 0.0
C1130 C 0.60562 0.19747 0.23011 0.0
C1131 C 0.57796 0.21765 0.20702 0.0
C1132 C 0.56236 0.20628 0.21062 0.0
C1133 C 0.5735 0.20762 0.20977 0.0
C1134 C 0.56003 0.225 0.2062 0.0
C1135 C 0.55547 0.21495 0.20881 0.0
C1136 C 0.57114 0.22632 0.2053 0.0
C1137 C 0.63056 0.22578 0.20005 0.0
C1138 C 0.62969 0.2421 0.18941 0.0
C1139 C 0.64529 0.23079 0.1882 0.0
C1140 C 0.64067 0.22373 0.19565 0.0
C1141 C 0.63988 0.24009 0.18502 0.0
C1142 C 0.62505 0.23497 0.19683 0.0
C1143 C 0.62607 0.21829 0.20808 0.0
O1144 O 0.60531 0.20786 0.2318 0.0
O1145 O 0.60553 0.19492 0.21986 0.0
O1146 O 0.62123 0.2097 0.20423 0.0
O1147 O 0.62094 0.22263 0.21619 0.0
H1148 H 0.6271 0.19495 0.22681 0.0
H1149 H 0.63961 0.18497 0.23808 0.0
H1150 H 0.61365 0.17679 0.25973 0.0
H1151 H 0.60126 0.18685 0.24848 0.0
H1152 H 0.55917 0.1984 0.21252 0.0
H1153 H 0.5786 0.20081 0.21118 0.0
H1154 H 0.55502 0.23192 0.20496 0.0
H1155 H 0.57443 0.23413 0.20323 0.0
H1156 H 0.62526 0.24912 0.18704 0.0
H1157 H 0.65319 0.22907 0.18509 0.0
H1158 H 0.64506 0.21668 0.19805 0.0
H1159 H 0.61719 0.23667 0.20008 0.0
C1160 C 0.80184 0.61862 0.19244 0.0
C1161 C 0.80361 0.62973 0.19314 0.0
C1162 C 0.78798 0.6329 0.18189 0.0
C1163 C 0.79676 0.63681 0.18788 0.0
C1164 C 0.78628 0.62174 0.18122 0.0
C1165 C 0.79315 0.61468 0.18645 0.0
U1166 U 0.82424 0.61294 0.21234 0.0
O1167 O 0.82573 0.60013 0.22434 0.0
O1168 O 0.8376 0.60162 0.21138 0.0
C1169 C 0.83405 0.59589 0.21953 0.0
C1170 C 0.80888 0.61108 0.19802 0.0
C1171 C 0.83351 0.58422 0.21778 0.0
C1172 C 0.8241 0.5681 0.21178 0.0
C1173 C 0.82447 0.57925 0.21316 0.0
C1174 C 0.84186 0.56682 0.21947 0.0
C1175 C 0.8328 0.56175 0.21493 0.0
C1176 C 0.84219 0.57794 0.22088 0.0
C1177 C 0.83721 0.63707 0.22704 0.0
C1178 C 0.84745 0.63682 0.24366 0.0
C1179 C 0.84703 0.65297 0.23288 0.0
C1180 C 0.84046 0.64773 0.22541 0.0
C1181 C 0.85046 0.64765 0.24221 0.0
C1182 C 0.84088 0.63158 0.23614 0.0
C1183 C 0.82964 0.63211 0.21939 0.0
O1184 O 0.8191 0.61176 0.19548 0.0
O1185 O 0.80723 0.61016 0.20841 0.0
O1186 O 0.82184 0.62628 0.22358 0.0
O1187 O 0.83387 0.6278 0.21076 0.0
H1188 H 0.81026 0.63292 0.19779 0.0
H1189 H 0.79823 0.64535 0.18867 0.0
H1190 H 0.77969 0.61845 0.17657 0.0
H1191 H 0.79167 0.60612 0.18582 0.0
H1192 H 0.81705 0.56447 0.20816 0.0
H1193 H 0.8177 0.58399 0.21066 0.0
H1194 H 0.84863 0.56218 0.22213 0.0
H1195 H 0.84923 0.58163 0.22447 0.0
H1196 H 0.8499 0.63251 0.25077 0.0
H1197 H 0.84935 0.66123 0.23138 0.0
H1198 H 0.83777 0.65209 0.2184 0.0
H1199 H 0.83848 0.62332 0.23753 0.0
C1200 C 0.41862 0.85229 0.23497 0.0
C1201 C 0.40762 0.85147 0.23275 0.0
C1202 C 0.40366 0.86327 0.24785 0.0
C1203 C 0.4002 0.85693 0.23912 0.0
C1204 C 0.41472 0.86408 0.24998 0.0
C1205 C 0.42212 0.85864 0.24359 0.0
U1206 U 0.42535 0.83147 0.21365 0.0
O1207 O 0.43764 0.83172 0.20094 0.0
O1208 O 0.43794 0.8193 0.2134 0.0
C1209 C 0.44289 0.82367 0.20514 0.0
C1210 C 0.42649 0.8464 0.22851 0.0
C1211 C 0.45451 0.82536 0.2064 0.0
C1212 C 0.46974 0.83406 0.21508 0.0
C1213 C 0.45864 0.8327 0.21391 0.0
C1214 C 0.47266 0.82079 0.2012 0.0
C1215 C 0.4769 0.8281 0.20874 0.0
C1216 C 0.46158 0.81944 0.20005 0.0
C1217 C 0.40222 0.81617 0.19992 0.0
C1218 C 0.40425 0.80003 0.18918 0.0
C1219 C 0.38706 0.8088 0.19004 0.0
C1220 C 0.39144 0.81662 0.19684 0.0
C1221 C 0.39337 0.80036 0.18619 0.0
C1222 C 0.40864 0.80789 0.19597 0.0
C1223 C 0.40647 0.82424 0.20747 0.0
O1224 O 0.42709 0.8361 0.23062 0.0
O1225 O 0.42651 0.8485 0.21817 0.0
O1226 O 0.41123 0.83265 0.20313 0.0
O1227 O 0.41163 0.82046 0.21582 0.0
H1228 H 0.40477 0.84659 0.22612 0.0
H1229 H 0.39177 0.85622 0.23716 0.0
H1230 H 0.41767 0.86874 0.25672 0.0
H1231 H 0.43058 0.85931 0.24545 0.0
H1232 H 0.47272 0.83985 0.22087 0.0
H1233 H 0.45328 0.83736 0.21886 0.0
H1234 H 0.47791 0.81595 0.1963 0.0
H1235 H 0.45852 0.8137 0.19424 0.0
H1236 H 0.40936 0.79371 0.18627 0.0
H1237 H 0.37863 0.80923 0.18803 0.0
H1238 H 0.38636 0.82294 0.19984 0.0
H1239 H 0.41701 0.80745 0.19822 0.0
C1240 C 0.18715 0.42284 0.23569 0.0
C1241 C 0.18776 0.41174 0.234 0.0
C1242 C 0.1764 0.40846 0.24965 0.0
C1243 C 0.18241 0.40461 0.2409 0.0
C1244 C 0.1758 0.4196 0.25124 0.0
C1245 C 0.18112 0.42672 0.24432 0.0
U1246 U 0.20731 0.42895 0.21335 0.0
O1247 O 0.20653 0.44055 0.20005 0.0
O1248 O 0.21937 0.44189 0.21201 0.0
C1249 C 0.21466 0.44628 0.2037 0.0
C1250 C 0.19288 0.43046 0.22864 0.0
C1251 C 0.21294 0.45791 0.20439 0.0
C1252 C 0.20691 0.47371 0.21401 0.0
C1253 C 0.20822 0.46258 0.21347 0.0
C1254 C 0.21488 0.47556 0.19634 0.0
C1255 C 0.21024 0.48034 0.20545 0.0
C1256 C 0.21622 0.46447 0.19583 0.0
C1257 C 0.22213 0.40557 0.20012 0.0
C1258 C 0.23734 0.40762 0.18802 0.0
C1259 C 0.22924 0.39009 0.1908 0.0
C1260 C 0.22182 0.39457 0.19788 0.0
C1261 C 0.23715 0.39653 0.18583 0.0
C1262 C 0.22989 0.4121 0.1951 0.0
C1263 C 0.21438 0.40998 0.20781 0.0
O1264 O 0.20323 0.43141 0.23037 0.0
O1265 O 0.19044 0.42988 0.21839 0.0
O1266 O 0.20579 0.41427 0.20361 0.0
O1267 O 0.21849 0.41569 0.21571 0.0
H1268 H 0.19244 0.40861 0.22739 0.0
H1269 H 0.18314 0.39608 0.23952 0.0
H1270 H 0.17114 0.42285 0.25781 0.0
H1271 H 0.18056 0.43527 0.24573 0.0
H1272 H 0.20321 0.47711 0.22109 0.0
H1273 H 0.20558 0.45763 0.22014 0.0
H1274 H 0.21768 0.48042 0.18967 0.0
H1275 H 0.2199 0.461 0.18877 0.0
H1276 H 0.24337 0.41281 0.18442 0.0
H1277 H 0.2287 0.38157 0.18916 0.0
H1278 H 0.21585 0.38941 0.20163 0.0
H1279 H 0.23024 0.42063 0.19674 0.0
C1280 C 0.80271 0.61984 0.85225 0.0
C1281 C 0.80464 0.63089 0.85117 0.0
C1282 C 0.78945 0.63469 0.86287 0.0
C1283 C 0.79809 0.63825 0.85644 0.0
C1284 C 0.7876 0.62358 0.86395 0.0
C1285 C 0.79417 0.61624 0.85868 0.0
U1286 U 0.82433 0.61368 0.83172 0.0
O1287 O 0.83771 0.60235 0.8323 0.0
O1288 O 0.82544 0.60076 0.81977 0.0
C1289 C 0.83392 0.59656 0.82432 0.0
C1290 C 0.80944 0.61205 0.84659 0.0
C1291 C 0.83345 0.58491 0.82613 0.0
C1292 C 0.82417 0.56878 0.83232 0.0
C1293 C 0.82451 0.57993 0.83096 0.0
C1294 C 0.84178 0.56752 0.82421 0.0
C1295 C 0.8328 0.56243 0.82894 0.0
C1296 C 0.84208 0.57863 0.82283 0.0
C1297 C 0.83686 0.63755 0.81639 0.0
C1298 C 0.8506 0.63602 0.80261 0.0
C1299 C 0.84394 0.65349 0.80759 0.0
C1300 C 0.83704 0.64869 0.81507 0.0
C1301 C 0.85083 0.64723 0.80128 0.0
C1302 C 0.84367 0.63121 0.81013 0.0
C1303 C 0.82946 0.63278 0.82432 0.0
O1304 O 0.80745 0.61097 0.83628 0.0
O1305 O 0.81974 0.61266 0.84876 0.0
O1306 O 0.83393 0.62855 0.83284 0.0
O1307 O 0.82161 0.62688 0.82038 0.0
H1308 H 0.81121 0.63382 0.84622 0.0
H1309 H 0.79985 0.64672 0.85554 0.0
H1310 H 0.78094 0.62055 0.86869 0.0
H1311 H 0.79254 0.60773 0.85957 0.0
H1312 H 0.81719 0.56514 0.83608 0.0
H1313 H 0.81778 0.58466 0.83362 0.0
H1314 H 0.84849 0.56288 0.82137 0.0
H1315 H 0.84904 0.58233 0.81907 0.0
H1316 H 0.85586 0.63097 0.79795 0.0
H1317 H 0.84374 0.66211 0.80665 0.0
H1318 H 0.83179 0.65369 0.8198 0.0
H1319 H 0.84364 0.62257 0.81107 0.0
C1320 C 0.4191 0.84994 0.80676 0.0
C1321 C 0.40835 0.84652 0.80633 0.0
C1322 C 0.40438 0.86059 0.7934 0.0
C1323 C 0.40107 0.85177 0.7997 0.0
C1324 C 0.41514 0.86407 0.794 0.0
C1325 C 0.42243 0.85878 0.80061 0.0
U1326 U 0.42523 0.82967 0.82861 0.0
O1327 O 0.43778 0.81749 0.8296 0.0
O1328 O 0.43702 0.8302 0.84174 0.0
C1329 C 0.44243 0.82207 0.83791 0.0
C1330 C 0.42688 0.84429 0.81351 0.0
C1331 C 0.45409 0.82375 0.83695 0.0
C1332 C 0.46955 0.83244 0.82864 0.0
C1333 C 0.45842 0.83111 0.82956 0.0
C1334 C 0.47209 0.81911 0.84251 0.0
C1335 C 0.47654 0.82643 0.83509 0.0
C1336 C 0.46098 0.81779 0.84342 0.0
C1337 C 0.40117 0.81498 0.8417 0.0
C1338 C 0.40251 0.80095 0.85516 0.0
C1339 C 0.38507 0.80703 0.84942 0.0
C1340 C 0.38999 0.81431 0.8424 0.0
C1341 C 0.39125 0.80026 0.85591 0.0
C1342 C 0.40744 0.80827 0.84812 0.0
C1343 C 0.40605 0.8227 0.83416 0.0
O1344 O 0.42655 0.84663 0.8238 0.0
O1345 O 0.42766 0.83396 0.81165 0.0
O1346 O 0.4116 0.81857 0.82623 0.0
O1347 O 0.41069 0.83116 0.83851 0.0
H1348 H 0.40562 0.83974 0.8111 0.0
H1349 H 0.39282 0.84897 0.79955 0.0
H1350 H 0.41799 0.87076 0.78918 0.0
H1351 H 0.4307 0.86153 0.80084 0.0
H1352 H 0.47268 0.83824 0.82293 0.0
H1353 H 0.4532 0.8358 0.82451 0.0
H1354 H 0.4772 0.81424 0.84749 0.0
H1355 H 0.45776 0.81204 0.84914 0.0
H1356 H 0.4075 0.79592 0.8601 0.0
H1357 H 0.3764 0.80659 0.84962 0.0
H1358 H 0.38504 0.81939 0.83746 0.0
H1359 H 0.4161 0.80871 0.84768 0.0
C1360 C 0.18872 0.42237 0.80777 0.0
C1361 C 0.19266 0.41199 0.80632 0.0
C1362 C 0.17767 0.40757 0.79447 0.0
C1363 C 0.18721 0.40466 0.7997 0.0
C1364 C 0.17372 0.41797 0.79608 0.0
C1365 C 0.1792 0.42529 0.80266 0.0
U1366 U 0.20882 0.42922 0.8299 0.0
O1367 O 0.2207 0.44234 0.83104 0.0
O1368 O 0.20781 0.44104 0.84301 0.0
C1369 C 0.21589 0.4468 0.83929 0.0
C1370 C 0.1944 0.43022 0.81461 0.0
C1371 C 0.21405 0.4584 0.83847 0.0
C1372 C 0.20792 0.47403 0.82866 0.0
C1373 C 0.20939 0.46293 0.8293 0.0
C1374 C 0.2156 0.47614 0.84641 0.0
C1375 C 0.21102 0.48077 0.83722 0.0
C1376 C 0.2171 0.46507 0.84701 0.0
C1377 C 0.22359 0.40622 0.84388 0.0
C1378 C 0.24009 0.40754 0.85423 0.0
C1379 C 0.22863 0.39181 0.85591 0.0
C1380 C 0.22151 0.39616 0.84849 0.0
C1381 C 0.23803 0.39742 0.85885 0.0
C1382 C 0.23291 0.41193 0.84685 0.0
C1383 C 0.21599 0.41047 0.83595 0.0
O1384 O 0.19192 0.42989 0.82487 0.0
O1385 O 0.20476 0.43125 0.81286 0.0
O1386 O 0.22014 0.41601 0.82794 0.0
O1387 O 0.20726 0.41473 0.83992 0.0
H1388 H 0.19999 0.40957 0.81024 0.0
H1389 H 0.19057 0.39679 0.79856 0.0
H1390 H 0.16632 0.42045 0.79235 0.0
H1391 H 0.176 0.43325 0.80376 0.0
H1392 H 0.20427 0.47732 0.82152 0.0
H1393 H 0.20692 0.45788 0.82263 0.0
H1394 H 0.21823 0.48109 0.85308 0.0
H1395 H 0.22072 0.46172 0.85414 0.0
H1396 H 0.2472 0.41212 0.85641 0.0
H1397 H 0.22686 0.38395 0.8592 0.0
H1398 H 0.21437 0.39163 0.8463 0.0
H1399 H 0.23464 0.41975 0.84344 0.0
C1400 C 0.61364 0.19124 0.80818 0.0
C1401 C 0.62409 0.19491 0.80592 0.0
C1402 C 0.62774 0.17847 0.79602 0.0
C1403 C 0.63106 0.1886 0.79985 0.0
C1404 C 0.61728 0.17483 0.79839 0.0
C1405 C 0.6103 0.18116 0.80439 0.0
U1406 U 0.60777 0.21313 0.82882 0.0
O1407 O 0.59543 0.22558 0.8288 0.0
O1408 O 0.59563 0.21356 0.84165 0.0
C1409 C 0.59049 0.22157 0.83725 0.0
C1410 C 0.60612 0.19775 0.81448 0.0
C1411 C 0.57882 0.22007 0.83616 0.0
C1412 C 0.56334 0.21051 0.82893 0.0
C1413 C 0.57447 0.21178 0.82984 0.0
C1414 C 0.56083 0.22581 0.84061 0.0
C1415 C 0.55637 0.21753 0.83428 0.0
C1416 C 0.57194 0.22706 0.84153 0.0
C1417 C 0.63134 0.22803 0.84217 0.0
C1418 C 0.62927 0.24309 0.85438 0.0
C1419 C 0.6469 0.23591 0.85098 0.0
C1420 C 0.6424 0.22829 0.84403 0.0
C1421 C 0.64041 0.24344 0.85622 0.0
C1422 C 0.62477 0.23544 0.84741 0.0
C1423 C 0.62686 0.21998 0.83474 0.0
O1424 O 0.60608 0.19597 0.82489 0.0
O1425 O 0.60584 0.20799 0.81203 0.0
O1426 O 0.62174 0.22378 0.82637 0.0
O1427 O 0.62191 0.21178 0.83925 0.0
H1428 H 0.62685 0.20264 0.80885 0.0
H1429 H 0.6391 0.19159 0.79827 0.0
H1430 H 0.61441 0.16713 0.79546 0.0
H1431 H 0.60227 0.17819 0.80606 0.0
H1432 H 0.56019 0.20412 0.8239 0.0
H1433 H 0.57969 0.20632 0.82561 0.0
H1434 H 0.55572 0.23127 0.84496 0.0
H1435 H 0.57517 0.23348 0.84647 0.0
H1436 H 0.62404 0.24882 0.8582 0.0
H1437 H 0.65547 0.2358 0.85234 0.0
H1438 H 0.64758 0.22259 0.84009 0.0
H1439 H 0.61619 0.23534 0.84606 0.0
C1440 C 0.80316 0.42258 0.19229 0.0
C1441 C 0.80173 0.41214 0.19627 0.0
C1442 C 0.78988 0.40771 0.18129 0.0
C1443 C 0.79513 0.40478 0.19084 0.0
C1444 C 0.79147 0.41817 0.1773 0.0
C1445 C 0.79804 0.42552 0.18276 0.0
U1446 U 0.82469 0.42952 0.21298 0.0
O1447 O 0.83801 0.44128 0.2122 0.0
O1448 O 0.82565 0.44272 0.22466 0.0
C1449 C 0.83412 0.4471 0.22005 0.0
C1450 C 0.80997 0.43046 0.19798 0.0
C1451 C 0.83355 0.45871 0.21801 0.0
C1452 C 0.82406 0.4744 0.21168 0.0
C1453 C 0.82455 0.46328 0.21315 0.0
C1454 C 0.84163 0.47645 0.21971 0.0
C1455 C 0.83259 0.48113 0.21498 0.0
C1456 C 0.84209 0.46536 0.22121 0.0
C1457 C 0.83732 0.40652 0.22903 0.0
C1458 C 0.85423 0.40707 0.23874 0.0
C1459 C 0.84163 0.39244 0.24172 0.0
C1460 C 0.83459 0.39697 0.23433 0.0
C1461 C 0.8516 0.39735 0.24394 0.0
C1462 C 0.84714 0.41162 0.23136 0.0
C1463 C 0.8299 0.4108 0.22094 0.0
O1464 O 0.80789 0.43168 0.20826 0.0
O1465 O 0.82027 0.42998 0.19587 0.0
O1466 O 0.83432 0.41491 0.21224 0.0
O1467 O 0.82194 0.41651 0.22467 0.0
H1468 H 0.80565 0.40971 0.20362 0.0
H1469 H 0.794 0.39686 0.19424 0.0
H1470 H 0.78772 0.42066 0.16989 0.0
H1471 H 0.79912 0.43353 0.17953 0.0
H1472 H 0.81703 0.47772 0.20791 0.0
H1473 H 0.81788 0.45826 0.21057 0.0
H1474 H 0.84828 0.48137 0.22249 0.0
H1475 H 0.84909 0.46198 0.22499 0.0
H1476 H 0.86186 0.41104 0.24017 0.0
H1477 H 0.83923 0.38508 0.24571 0.0
H1478 H 0.82702 0.39294 0.23268 0.0
H1479 H 0.84939 0.41904 0.22738 0.0
C1480 C 0.61391 0.80622 0.19229 0.0
C1481 C 0.62506 0.80733 0.19335 0.0
C1482 C 0.62773 0.79351 0.17976 0.0
C1483 C 0.63192 0.80102 0.18715 0.0
C1484 C 0.61652 0.7924 0.17884 0.0
C1485 C 0.60969 0.7987 0.18504 0.0
U1486 U 0.60843 0.82799 0.2132 0.0
O1487 O 0.59662 0.84092 0.21296 0.0
O1488 O 0.59591 0.82874 0.22564 0.0
C1489 C 0.59123 0.83699 0.22118 0.0
C1490 C 0.60655 0.8129 0.19857 0.0
C1491 C 0.57958 0.83593 0.21964 0.0
C1492 C 0.56412 0.82792 0.21071 0.0
C1493 C 0.57524 0.82877 0.21207 0.0
C1494 C 0.56158 0.84138 0.22448 0.0
C1495 C 0.55714 0.83421 0.21691 0.0
C1496 C 0.57269 0.84222 0.22582 0.0
C1497 C 0.63206 0.84201 0.22739 0.0
C1498 C 0.63081 0.85278 0.24363 0.0
C1499 C 0.647 0.85343 0.23286 0.0
C1500 C 0.64244 0.84607 0.22567 0.0
C1501 C 0.64126 0.85685 0.24195 0.0
C1502 C 0.62623 0.84545 0.23638 0.0
C1503 C 0.62754 0.83416 0.21973 0.0
O1504 O 0.60625 0.81098 0.20894 0.0
O1505 O 0.60679 0.82318 0.19627 0.0
O1506 O 0.62284 0.83821 0.21125 0.0
O1507 O 0.62222 0.82602 0.22395 0.0
H1508 H 0.62845 0.81313 0.19892 0.0
H1509 H 0.6405 0.80217 0.18799 0.0
H1510 H 0.61301 0.78658 0.17338 0.0
H1511 H 0.6011 0.79771 0.18416 0.0
H1512 H 0.56099 0.82223 0.2049 0.0
H1513 H 0.58046 0.82383 0.20724 0.0
H1514 H 0.55648 0.84646 0.22928 0.0
H1515 H 0.5759 0.84783 0.23167 0.0
H1516 H 0.62613 0.85534 0.25048 0.0
H1517 H 0.6551 0.85629 0.23139 0.0
H1518 H 0.64706 0.8435 0.21878 0.0
H1519 H 0.61816 0.84246 0.23781 0.0
C1520 C 0.18718 0.61809 0.23679 0.0
C1521 C 0.18748 0.6292 0.23501 0.0
C1522 C 0.17454 0.63186 0.24947 0.0
C1523 C 0.18121 0.63603 0.2413 0.0
C1524 C 0.17445 0.62072 0.2513 0.0
C1525 C 0.18069 0.61392 0.24501 0.0
U1526 U 0.20858 0.61235 0.2155 0.0
O1527 O 0.22036 0.59942 0.21472 0.0
O1528 O 0.20818 0.60079 0.20212 0.0
C1529 C 0.21599 0.59508 0.20613 0.0
C1530 C 0.19337 0.61071 0.23005 0.0
C1531 C 0.21403 0.58342 0.20658 0.0
C1532 C 0.20755 0.5674 0.21578 0.0
C1533 C 0.20904 0.57855 0.21547 0.0
C1534 C 0.21585 0.56592 0.19825 0.0
C1535 C 0.21096 0.56094 0.20717 0.0
C1536 C 0.21737 0.57704 0.19797 0.0
C1537 C 0.22458 0.63546 0.2027 0.0
C1538 C 0.23515 0.63397 0.18635 0.0
C1539 C 0.23706 0.6497 0.19764 0.0
C1540 C 0.22942 0.64545 0.20475 0.0
C1541 C 0.23998 0.64405 0.18833 0.0
C1542 C 0.22755 0.6297 0.1935 0.0
C1543 C 0.2164 0.63127 0.21021 0.0
O1544 O 0.19148 0.61122 0.21969 0.0
O1545 O 0.20362 0.61003 0.23234 0.0
O1546 O 0.22004 0.62564 0.2183 0.0
O1547 O 0.20777 0.62703 0.2058 0.0
H1548 H 0.19246 0.63257 0.22869 0.0
H1549 H 0.18142 0.64455 0.2396 0.0
H1550 H 0.16957 0.61724 0.25763 0.0
H1551 H 0.1804 0.60537 0.24653 0.0
H1552 H 0.20366 0.56384 0.22272 0.0
H1553 H 0.20636 0.58336 0.22218 0.0
H1554 H 0.21871 0.56121 0.19155 0.0
H1555 H 0.22125 0.58065 0.19105 0.0
H1556 H 0.23732 0.62936 0.17932 0.0
H1557 H 0.24052 0.65752 0.19935 0.0
H1558 H 0.22723 0.65001 0.21181 0.0
H1559 H 0.22396 0.62192 0.19183 0.0
C1560 C 0.41707 0.23548 0.19117 0.0
C1561 C 0.40646 0.2362 0.19484 0.0
C1562 C 0.40233 0.24869 0.18042 0.0
C1563 C 0.39917 0.24276 0.18953 0.0
C1564 C 0.41293 0.24778 0.17667 0.0
C1565 C 0.42024 0.24125 0.18202 0.0
U1566 U 0.42354 0.21414 0.21191 0.0
O1567 O 0.43533 0.20119 0.21168 0.0
O1568 O 0.43631 0.21368 0.22408 0.0
C1569 C 0.44091 0.20536 0.21964 0.0
C1570 C 0.42491 0.2289 0.19692 0.0
C1571 C 0.45259 0.20636 0.21796 0.0
C1572 C 0.46811 0.20953 0.20648 0.0
C1573 C 0.45698 0.20875 0.20784 0.0
C1574 C 0.47058 0.20575 0.22538 0.0
C1575 C 0.47507 0.20803 0.21524 0.0
C1576 C 0.45947 0.2049 0.22671 0.0
C1577 C 0.39984 0.20109 0.22713 0.0
C1578 C 0.40157 0.1877 0.24119 0.0
C1579 C 0.38397 0.19354 0.23569 0.0
C1580 C 0.38868 0.20048 0.2282 0.0
C1581 C 0.39033 0.18704 0.24227 0.0
C1582 C 0.40629 0.19467 0.23366 0.0
C1583 C 0.4045 0.20851 0.21917 0.0
O1584 O 0.42588 0.23099 0.20723 0.0
O1585 O 0.42452 0.21859 0.1948 0.0
O1586 O 0.40899 0.20404 0.21076 0.0
O1587 O 0.4101 0.21661 0.22307 0.0
H1588 H 0.40385 0.23174 0.20186 0.0
H1589 H 0.39103 0.24316 0.19254 0.0
H1590 H 0.41566 0.25231 0.16975 0.0
H1591 H 0.4284 0.24079 0.17908 0.0
H1592 H 0.47125 0.21118 0.19853 0.0
H1593 H 0.45181 0.20995 0.20097 0.0
H1594 H 0.47564 0.20474 0.23235 0.0
H1595 H 0.45624 0.20313 0.2346 0.0
H1596 H 0.4067 0.18275 0.24607 0.0
H1597 H 0.37532 0.1934 0.23643 0.0
H1598 H 0.38358 0.20542 0.22326 0.0
H1599 H 0.41494 0.19504 0.23291 0.0
C1600 C 0.80292 0.84969 0.62086 0.0
C1601 C 0.80142 0.84586 0.63136 0.0
C1602 C 0.78955 0.86075 0.63536 0.0
C1603 C 0.79478 0.85133 0.63854 0.0
C1604 C 0.79122 0.8646 0.62485 0.0
C1605 C 0.79783 0.85911 0.61768 0.0
U1606 U 0.82481 0.82954 0.61416 0.0
O1607 O 0.82574 0.8177 0.60112 0.0
O1608 O 0.83779 0.83063 0.60216 0.0
C1609 C 0.83392 0.82259 0.59649 0.0
C1610 C 0.80971 0.84398 0.61312 0.0
C1611 C 0.83293 0.8245 0.58485 0.0
C1612 C 0.82238 0.82898 0.5691 0.0
C1613 C 0.82319 0.82763 0.58024 0.0
C1614 C 0.84108 0.82438 0.56711 0.0
C1615 C 0.8313 0.82732 0.56239 0.0
C1616 C 0.84187 0.82297 0.57822 0.0
C1617 C 0.83869 0.81446 0.63707 0.0
C1618 C 0.84887 0.79803 0.63543 0.0
C1619 C 0.85052 0.80893 0.65147 0.0
C1620 C 0.84322 0.81619 0.64722 0.0
C1621 C 0.85341 0.79973 0.64565 0.0
C1622 C 0.84161 0.80536 0.63116 0.0
C1623 C 0.83087 0.82219 0.63293 0.0
O1624 O 0.81998 0.84644 0.61344 0.0
O1625 O 0.80784 0.83362 0.61221 0.0
O1626 O 0.82275 0.81814 0.62748 0.0
O1627 O 0.83495 0.83093 0.62858 0.0
H1628 H 0.80532 0.83861 0.63397 0.0
H1629 H 0.79361 0.84806 0.64651 0.0
H1630 H 0.78749 0.87191 0.62218 0.0
H1631 H 0.79895 0.86222 0.60963 0.0
H1632 H 0.81477 0.83136 0.56574 0.0
H1633 H 0.81621 0.82893 0.58523 0.0
H1634 H 0.84807 0.82292 0.56218 0.0
H1635 H 0.84945 0.82056 0.58163 0.0
H1636 H 0.85102 0.79109 0.6307 0.0
H1637 H 0.85375 0.81042 0.6594 0.0
H1638 H 0.84105 0.82316 0.65192 0.0
H1639 H 0.83826 0.8039 0.62326 0.0
C1640 C 0.80244 0.19164 0.42413 0.0
C1641 C 0.80095 0.19559 0.41369 0.0
C1642 C 0.78888 0.18059 0.40957 0.0
C1643 C 0.79421 0.19013 0.40649 0.0
C1644 C 0.79053 0.17663 0.42002 0.0
C1645 C 0.79723 0.18211 0.42722 0.0
U1646 U 0.82446 0.21217 0.43036 0.0
O1647 O 0.82573 0.22412 0.44328 0.0
O1648 O 0.83778 0.21151 0.44194 0.0
C1649 C 0.83412 0.21956 0.44763 0.0
C1650 C 0.80937 0.19736 0.43184 0.0
C1651 C 0.8337 0.21795 0.45935 0.0
C1652 C 0.824 0.21365 0.47581 0.0
C1653 C 0.82429 0.21448 0.46458 0.0
C1654 C 0.84259 0.21944 0.47663 0.0
C1655 C 0.83312 0.21627 0.48198 0.0
C1656 C 0.84286 0.22028 0.46545 0.0
C1657 C 0.8375 0.22757 0.40694 0.0
C1658 C 0.84896 0.24337 0.4089 0.0
C1659 C 0.84706 0.23484 0.39151 0.0
C1660 C 0.84011 0.22718 0.396 0.0
C1661 C 0.85153 0.24307 0.39788 0.0
C1662 C 0.84203 0.23566 0.4134 0.0
C1663 C 0.82989 0.21959 0.41135 0.0
O1664 O 0.81962 0.19514 0.43125 0.0
O1665 O 0.80755 0.20766 0.43291 0.0
O1666 O 0.82195 0.22344 0.41707 0.0
O1667 O 0.83418 0.21103 0.41563 0.0
H1668 H 0.80493 0.20293 0.41114 0.0
H1669 H 0.79305 0.19351 0.39857 0.0
H1670 H 0.78671 0.16923 0.42262 0.0
H1671 H 0.79834 0.17891 0.43522 0.0
H1672 H 0.81656 0.21124 0.47966 0.0
H1673 H 0.81713 0.21259 0.46 0.0
H1674 H 0.84982 0.2213 0.48109 0.0
H1675 H 0.85021 0.2229 0.46155 0.0
H1676 H 0.85235 0.24952 0.41406 0.0
H1677 H 0.84873 0.23444 0.38298 0.0
H1678 H 0.83667 0.22101 0.39089 0.0
H1679 H 0.84015 0.23605 0.42189 0.0
C1680 C 0.80363 0.85074 0.42204 0.0
C1681 C 0.80241 0.84673 0.41158 0.0
C1682 C 0.79052 0.86144 0.40712 0.0
C1683 C 0.79589 0.85201 0.40419 0.0
C1684 C 0.79195 0.86552 0.41756 0.0
C1685 C 0.79843 0.8602 0.42496 0.0
U1686 U 0.8247 0.83009 0.42948 0.0
O1687 O 0.83733 0.8306 0.44179 0.0
O1688 O 0.82468 0.81822 0.44256 0.0
C1689 C 0.83289 0.8228 0.44742 0.0
C1690 C 0.81008 0.84504 0.43005 0.0
C1691 C 0.83166 0.82456 0.45912 0.0
C1692 C 0.83267 0.83594 0.47502 0.0
C1693 C 0.83338 0.83468 0.46386 0.0
C1694 C 0.82829 0.81707 0.47687 0.0
C1695 C 0.83015 0.82713 0.48166 0.0
C1696 C 0.82908 0.8158 0.46574 0.0
C1697 C 0.83836 0.81416 0.40695 0.0
C1698 C 0.85483 0.80406 0.4086 0.0
C1699 C 0.84347 0.80156 0.39302 0.0
C1700 C 0.83631 0.80907 0.39712 0.0
C1701 C 0.85285 0.79901 0.39867 0.0
C1702 C 0.84762 0.81154 0.41273 0.0
C1703 C 0.83081 0.82227 0.41089 0.0
O1704 O 0.80785 0.83476 0.43111 0.0
O1705 O 0.82042 0.84717 0.4299 0.0
O1706 O 0.83513 0.8309 0.41525 0.0
O1707 O 0.82246 0.81856 0.41622 0.0
H1708 H 0.80643 0.83947 0.40916 0.0
H1709 H 0.79508 0.84874 0.39617 0.0
H1710 H 0.78786 0.87269 0.42012 0.0
H1711 H 0.79928 0.86341 0.433 0.0
H1712 H 0.83405 0.84381 0.47845 0.0
H1713 H 0.83537 0.84161 0.45897 0.0
H1714 H 0.82648 0.81009 0.48175 0.0
H1715 H 0.82779 0.80791 0.4623 0.0
H1716 H 0.86191 0.80219 0.41321 0.0
H1717 H 0.84176 0.79792 0.3853 0.0
H1718 H 0.82922 0.81099 0.39254 0.0
H1719 H 0.84931 0.81533 0.42039 0.0
C1720 C 0.18683 0.80679 0.42351 0.0
C1721 C 0.18756 0.80854 0.41239 0.0
C1722 C 0.17601 0.79296 0.40906 0.0
C1723 C 0.18218 0.8017 0.40523 0.0
C1724 C 0.17531 0.7913 0.42022 0.0
C1725 C 0.18066 0.79816 0.42737 0.0
U1726 U 0.20722 0.82901 0.42968 0.0
O1727 O 0.2064 0.84237 0.44122 0.0
O1728 O 0.21903 0.83038 0.4427 0.0
C1729 C 0.21436 0.83873 0.44702 0.0
C1730 C 0.19251 0.81383 0.43115 0.0
C1731 C 0.21243 0.83814 0.45868 0.0
C1732 C 0.20637 0.82853 0.47462 0.0
C1733 C 0.20777 0.82901 0.46345 0.0
C1734 C 0.21408 0.84637 0.4763 0.0
C1735 C 0.20954 0.8372 0.48118 0.0
C1736 C 0.21551 0.84682 0.46517 0.0
C1737 C 0.22284 0.84193 0.40626 0.0
C1738 C 0.23298 0.8587 0.407 0.0
C1739 C 0.23502 0.8468 0.39177 0.0
C1740 C 0.22764 0.83962 0.39636 0.0
C1741 C 0.23772 0.85649 0.39697 0.0
C1742 C 0.22562 0.85147 0.41161 0.0
C1743 C 0.21488 0.83432 0.41072 0.0
O1744 O 0.20282 0.81205 0.43218 0.0
O1745 O 0.19026 0.82407 0.43052 0.0
O1746 O 0.2062 0.83854 0.41487 0.0
O1747 O 0.21875 0.82648 0.41652 0.0
H1748 H 0.19234 0.81515 0.40927 0.0
H1749 H 0.183 0.80313 0.39669 0.0
H1750 H 0.17052 0.78475 0.42345 0.0
H1751 H 0.17999 0.79671 0.43592 0.0
H1752 H 0.20274 0.8214 0.4781 0.0
H1753 H 0.20528 0.82224 0.45856 0.0
H1754 H 0.21675 0.85313 0.4811 0.0
H1755 H 0.21914 0.85392 0.46163 0.0
H1756 H 0.23479 0.86611 0.4112 0.0
H1757 H 0.23865 0.84471 0.38416 0.0
H1758 H 0.22565 0.83226 0.39215 0.0
H1759 H 0.22202 0.85338 0.41929 0.0
C1760 C 0.18803 0.23447 0.42441 0.0
C1761 C 0.19098 0.23534 0.41356 0.0
C1762 C 0.17626 0.24764 0.41037 0.0
C1763 C 0.18516 0.24188 0.4066 0.0
C1764 C 0.17332 0.24661 0.42125 0.0
C1765 C 0.17916 0.24011 0.42819 0.0
U1766 U 0.20871 0.21285 0.43038 0.0
O1767 O 0.22073 0.21202 0.44323 0.0
O1768 O 0.20805 0.19971 0.44218 0.0
C1769 C 0.21613 0.20363 0.44776 0.0
C1770 C 0.19406 0.22772 0.43191 0.0
C1771 C 0.21441 0.2043 0.45945 0.0
C1772 C 0.20842 0.21379 0.47541 0.0
C1773 C 0.2098 0.21333 0.46424 0.0
C1774 C 0.21613 0.19614 0.47706 0.0
C1775 C 0.21158 0.20518 0.48196 0.0
C1776 C 0.21753 0.19572 0.46593 0.0
C1777 C 0.22348 0.19921 0.4071 0.0
C1778 C 0.24005 0.1892 0.40833 0.0
C1779 C 0.22863 0.18711 0.39274 0.0
C1780 C 0.22145 0.19444 0.3971 0.0
C1781 C 0.23804 0.18441 0.39828 0.0
C1782 C 0.23281 0.1965 0.41273 0.0
C1783 C 0.21578 0.20698 0.41141 0.0
O1784 O 0.19176 0.21742 0.43156 0.0
O1785 O 0.20441 0.22976 0.43253 0.0
O1786 O 0.21985 0.21511 0.41685 0.0
O1787 O 0.20713 0.20283 0.41588 0.0
H1788 H 0.19782 0.23102 0.4105 0.0
H1789 H 0.18772 0.24255 0.39831 0.0
H1790 H 0.16641 0.25074 0.4244 0.0
H1791 H 0.17672 0.23946 0.43652 0.0
H1792 H 0.2048 0.22082 0.4789 0.0
H1793 H 0.20728 0.22002 0.45935 0.0
H1794 H 0.21879 0.18944 0.48185 0.0
H1795 H 0.22112 0.18869 0.46238 0.0
H1796 H 0.24716 0.18721 0.41286 0.0
H1797 H 0.2269 0.18367 0.38493 0.0
H1798 H 0.21431 0.19644 0.39263 0.0
H1799 H 0.2345 0.20002 0.42051 0.0
C1800 C 0.18722 0.23545 0.61956 0.0
C1801 C 0.18697 0.23357 0.63067 0.0
C1802 C 0.17462 0.24839 0.63314 0.0
C1803 C 0.18072 0.23998 0.63741 0.0
C1804 C 0.17507 0.25031 0.622 0.0
C1805 C 0.1813 0.2439 0.61529 0.0
U1806 U 0.2082 0.21393 0.61416 0.0
O1807 O 0.20779 0.20057 0.60257 0.0
O1808 O 0.22034 0.213 0.60139 0.0
C1809 C 0.21585 0.20451 0.59694 0.0
C1810 C 0.19343 0.22862 0.61226 0.0
C1811 C 0.21415 0.20508 0.58526 0.0
C1812 C 0.20801 0.21442 0.5693 0.0
C1813 C 0.20931 0.21398 0.58047 0.0
C1814 C 0.21622 0.197 0.56763 0.0
C1815 C 0.21147 0.20593 0.56274 0.0
C1816 C 0.21754 0.1966 0.57877 0.0
C1817 C 0.22314 0.20119 0.63778 0.0
C1818 C 0.23331 0.1847 0.63696 0.0
C1819 C 0.23496 0.19637 0.65244 0.0
C1820 C 0.2277 0.20344 0.64782 0.0
C1821 C 0.2378 0.18685 0.64713 0.0
C1822 C 0.22606 0.19182 0.63232 0.0
C1823 C 0.2153 0.20867 0.63327 0.0
O1824 O 0.20375 0.23078 0.6117 0.0
O1825 O 0.19124 0.2183 0.61279 0.0
O1826 O 0.20673 0.20428 0.62887 0.0
O1827 O 0.21932 0.21667 0.62763 0.0
H1828 H 0.19151 0.22707 0.6341 0.0
H1829 H 0.18049 0.2382 0.64591 0.0
H1830 H 0.17065 0.25683 0.61845 0.0
H1831 H 0.18145 0.24551 0.60674 0.0
H1832 H 0.20422 0.22135 0.56581 0.0
H1833 H 0.20657 0.22059 0.58537 0.0
H1834 H 0.21911 0.1904 0.56283 0.0
H1835 H 0.22131 0.18967 0.58232 0.0
H1836 H 0.23522 0.17741 0.63267 0.0
H1837 H 0.2384 0.19841 0.66017 0.0
H1838 H 0.2256 0.21068 0.65212 0.0
H1839 H 0.22266 0.18996 0.62453 0.0
C1840 C 0.80365 0.19077 0.6212 0.0
C1841 C 0.80213 0.19476 0.63163 0.0
C1842 C 0.79021 0.17968 0.63586 0.0
C1843 C 0.79546 0.18928 0.63888 0.0
C1844 C 0.7919 0.17567 0.62543 0.0
C1845 C 0.79855 0.18117 0.61818 0.0
U1846 U 0.82537 0.21156 0.61471 0.0
O1847 O 0.83861 0.21107 0.60297 0.0
O1848 O 0.82638 0.22352 0.60179 0.0
C1849 C 0.83481 0.21908 0.59736 0.0
C1850 C 0.81047 0.19655 0.61341 0.0
C1851 C 0.83438 0.21753 0.58563 0.0
C1852 C 0.82464 0.21357 0.56914 0.0
C1853 C 0.82494 0.21424 0.58038 0.0
C1854 C 0.84329 0.21914 0.56833 0.0
C1855 C 0.83378 0.21618 0.56297 0.0
C1856 C 0.84357 0.21982 0.57953 0.0
C1857 C 0.83838 0.22724 0.63791 0.0
C1858 C 0.84953 0.24323 0.6357 0.0
C1859 C 0.84803 0.23474 0.65315 0.0
C1860 C 0.84116 0.22694 0.6488 0.0
C1861 C 0.85225 0.24303 0.64667 0.0
C1862 C 0.84268 0.23537 0.63135 0.0
C1863 C 0.83086 0.21911 0.63365 0.0
O1864 O 0.80851 0.20683 0.61233 0.0
O1865 O 0.82076 0.19447 0.6139 0.0
O1866 O 0.83523 0.2106 0.62933 0.0
O1867 O 0.82279 0.22281 0.62803 0.0
H1868 H 0.80604 0.20215 0.63413 0.0
H1869 H 0.79425 0.19269 0.64679 0.0
H1870 H 0.78816 0.16822 0.62287 0.0
H1871 H 0.79968 0.17794 0.61018 0.0
H1872 H 0.81717 0.21132 0.56528 0.0
H1873 H 0.81775 0.2124 0.58495 0.0
H1874 H 0.85054 0.22099 0.56387 0.0
H1875 H 0.85095 0.22231 0.58343 0.0
H1876 H 0.85273 0.24942 0.63047 0.0
H1877 H 0.84983 0.23442 0.66164 0.0
H1878 H 0.83791 0.22072 0.65399 0.0
H1879 H 0.84067 0.23569 0.62289 0.0
C1880 C 0.18761 0.80591 0.61994 0.0
C1881 C 0.19172 0.80427 0.63028 0.0
C1882 C 0.17651 0.79257 0.63469 0.0
C1883 C 0.18625 0.79764 0.63757 0.0
C1884 C 0.17239 0.79437 0.62433 0.0
C1885 C 0.17789 0.80096 0.61703 0.0
U1886 U 0.20837 0.82763 0.61342 0.0
O1887 O 0.22012 0.82878 0.60029 0.0
O1888 O 0.20774 0.84101 0.60191 0.0
C1889 C 0.21559 0.83723 0.59603 0.0
C1890 C 0.19333 0.81276 0.61214 0.0
C1891 C 0.21359 0.83671 0.58439 0.0
C1892 C 0.20713 0.82732 0.56848 0.0
C1893 C 0.20866 0.82771 0.57963 0.0
C1894 C 0.21525 0.84498 0.5668 0.0
C1895 C 0.21043 0.83595 0.56193 0.0
C1896 C 0.21681 0.84534 0.57791 0.0
C1897 C 0.22414 0.84036 0.63679 0.0
C1898 C 0.23941 0.85249 0.63466 0.0
C1899 C 0.23189 0.84928 0.65234 0.0
C1900 C 0.22425 0.84232 0.64786 0.0
C1901 C 0.23962 0.85442 0.64582 0.0
C1902 C 0.23172 0.84553 0.63019 0.0
C1903 C 0.21608 0.83287 0.63237 0.0
O1904 O 0.19127 0.82305 0.61276 0.0
O1905 O 0.20359 0.81079 0.61092 0.0
O1906 O 0.21982 0.82496 0.62653 0.0
O1907 O 0.20752 0.83728 0.62821 0.0
H1908 H 0.19921 0.80805 0.63269 0.0
H1909 H 0.18975 0.79635 0.64541 0.0
H1910 H 0.16484 0.79077 0.62188 0.0
H1911 H 0.17456 0.80221 0.60911 0.0
H1912 H 0.20329 0.8203 0.56501 0.0
H1913 H 0.20606 0.82098 0.58452 0.0
H1914 H 0.21803 0.8517 0.562 0.0
H1915 H 0.22065 0.85234 0.58144 0.0
H1916 H 0.24528 0.85624 0.62941 0.0
H1917 H 0.23166 0.85071 0.66092 0.0
H1918 H 0.2184 0.83845 0.65307 0.0
H1919 H 0.23174 0.84411 0.6216 0.0
H1920 H 0.17075 0.24414 0.38921 0.0
H1921 H 0.13535 0.29707 0.38495 0.0
H1922 H 0.16758 0.26727 0.41479 0.0
H1923 H 0.14116 0.27608 0.35806 0.0
H1924 H 0.1471 0.28613 0.39598 0.0
H1925 H 0.16008 0.25567 0.37761 0.0
C1926 C 0.1679 0.25167 0.39238 0.0
C1927 C 0.17005 0.25468 0.40305 0.0
C1928 C 0.14585 0.28391 0.38766 0.0
C1929 C 0.15768 0.26787 0.38981 0.0
C1930 C 0.13908 0.29014 0.38137 0.0
C1931 C 0.13721 0.28747 0.37057 0.0
C1932 C 0.15076 0.27488 0.38317 0.0
C1933 C 0.14242 0.27849 0.36632 0.0
C1934 C 0.16175 0.25823 0.38575 0.0
C1935 C 0.16598 0.26449 0.40671 0.0
N1936 N 0.1489 0.27248 0.37265 0.0
N1937 N 0.15998 0.27069 0.40013 0.0
H1938 H 0.76971 0.17035 0.41396 0.0
H1939 H 0.75738 0.15535 0.35262 0.0
H1940 H 0.7913 0.17773 0.38777 0.0
H1941 H 0.73757 0.14492 0.37917 0.0
H1942 H 0.76977 0.16381 0.36534 0.0
H1943 H 0.75781 0.16111 0.40136 0.0
C1944 C 0.77201 0.16997 0.40558 0.0
C1945 C 0.78157 0.17486 0.40196 0.0
C1946 C 0.76273 0.15964 0.3684 0.0
C1947 C 0.76782 0.16438 0.38741 0.0
C1948 C 0.75562 0.15485 0.36113 0.0
C1949 C 0.74639 0.14944 0.36482 0.0
C1950 C 0.76059 0.15909 0.37947 0.0
C1951 C 0.74463 0.14892 0.37595 0.0
C1952 C 0.76516 0.16473 0.39837 0.0
C1953 C 0.78396 0.17424 0.39094 0.0
N1954 N 0.75163 0.15372 0.38287 0.0
N1955 N 0.77714 0.16913 0.38407 0.0
H1956 H 0.87483 0.80049 0.39833 0.0
H1957 H 0.88253 0.74543 0.36614 0.0
H1958 H 0.84858 0.7799 0.38848 0.0
H1959 H 0.9083 0.76799 0.37245 0.0
H1960 H 0.87014 0.75739 0.37529 0.0
H1961 H 0.88738 0.788 0.39011 0.0
C1962 C 0.8717 0.79329 0.39453 0.0
C1963 C 0.86061 0.79127 0.39408 0.0
C1964 C 0.87851 0.75971 0.37469 0.0
C1965 C 0.87496 0.77696 0.38455 0.0
C1966 C 0.8856 0.75291 0.3694 0.0
C1967 C 0.89651 0.75569 0.36846 0.0
C1968 C 0.88233 0.76939 0.37911 0.0
C1969 C 0.90001 0.76541 0.37307 0.0
C1970 C 0.87888 0.7862 0.38977 0.0
C1971 C 0.85704 0.78187 0.3889 0.0
N1972 N 0.89295 0.7719 0.37816 0.0
N1973 N 0.86418 0.77508 0.38434 0.0
H1974 H 0.27459 0.89421 0.35118 0.0
H1975 H 0.25335 0.86899 0.4066 0.0
H1976 H 0.28621 0.90435 0.38225 0.0
H1977 H 0.2395 0.86178 0.37563 0.0
H1978 H 0.2658 0.88159 0.3979 0.0
H1979 H 0.26223 0.8817 0.36004 0.0
C1980 C 0.2746 0.89376 0.35987 0.0
C1981 C 0.28148 0.90035 0.36597 0.0
C1982 C 0.26003 0.87725 0.39302 0.0
C1983 C 0.26723 0.88607 0.3762 0.0
C1984 C 0.25287 0.87009 0.39799 0.0
C1985 C 0.24535 0.86426 0.39186 0.0
C1986 C 0.25971 0.8786 0.38182 0.0
C1987 C 0.24525 0.86593 0.38069 0.0
C1988 C 0.26748 0.88666 0.36493 0.0
C1989 C 0.28098 0.89952 0.37722 0.0
N1990 N 0.25231 0.87291 0.37605 0.0
N1991 N 0.274 0.8925 0.38197 0.0
H1992 H 0.13932 0.74112 0.66426 0.0
H1993 H 0.17417 0.79501 0.65654 0.0
H1994 H 0.15137 0.76021 0.69062 0.0
H1995 H 0.16564 0.77371 0.63049 0.0
H1996 H 0.16498 0.78293 0.66905 0.0
H1997 H 0.1478 0.75367 0.65167 0.0
C1998 C 0.14367 0.748 0.6674 0.0
C1999 C 0.14465 0.74959 0.67853 0.0
C2000 C 0.16511 0.78091 0.66059 0.0
C2001 C 0.15447 0.76396 0.66414 0.0
C2002 C 0.17042 0.78778 0.65343 0.0
C2003 C 0.17074 0.78539 0.6424 0.0
C2004 C 0.16003 0.77156 0.65673 0.0
C2005 C 0.16551 0.77598 0.63887 0.0
C2006 C 0.14858 0.75513 0.66021 0.0
C2007 C 0.15052 0.75858 0.68212 0.0
N2008 N 0.16039 0.76942 0.646 0.0
N2009 N 0.1552 0.76542 0.67496 0.0
H2010 H 0.28629 0.13909 0.66014 0.0
H2011 H 0.23907 0.18123 0.66841 0.0
H2012 H 0.27419 0.14857 0.69117 0.0
H2013 H 0.25362 0.17485 0.63761 0.0
H2014 H 0.25152 0.16886 0.67676 0.0
H2015 H 0.27397 0.15159 0.65162 0.0
C2016 C 0.28102 0.14377 0.66517 0.0
C2017 C 0.28129 0.14277 0.6764 0.0
C2018 C 0.25201 0.17017 0.66817 0.0
C2019 C 0.26718 0.15714 0.66669 0.0
C2020 C 0.24493 0.1773 0.66339 0.0
C2021 C 0.24529 0.17917 0.65226 0.0
C2022 C 0.25953 0.16479 0.66181 0.0
C2023 C 0.25293 0.1736 0.64618 0.0
C2024 C 0.27402 0.15095 0.6603 0.0
C2025 C 0.27436 0.14916 0.6825 0.0
N2026 N 0.25974 0.16668 0.65103 0.0
N2027 N 0.26758 0.15603 0.67757 0.0
H2028 H 0.852 0.2647 0.64281 0.0
H2029 H 0.89627 0.27877 0.68741 0.0
H2030 H 0.86832 0.24085 0.66155 0.0
H2031 H 0.8786 0.30266 0.67002 0.0
H2032 H 0.88724 0.26478 0.67691 0.0
H2033 H 0.86277 0.27867 0.65157 0.0
C2034 C 0.85793 0.26238 0.64868 0.0
C2035 C 0.8592 0.25157 0.65147 0.0
C2036 C 0.88537 0.27308 0.67535 0.0
C2037 C 0.8715 0.26757 0.66165 0.0
C2038 C 0.89058 0.28109 0.6813 0.0
C2039 C 0.88816 0.29193 0.67965 0.0
C2040 C 0.87768 0.2759 0.66766 0.0
C2041 C 0.8806 0.29442 0.6717 0.0
C2042 C 0.86403 0.27038 0.65374 0.0
C2043 C 0.86693 0.24908 0.65925 0.0
N2044 N 0.87562 0.28648 0.66604 0.0
N2045 N 0.87275 0.25701 0.66408 0.0
H2046 H 0.75866 0.88717 0.6919 0.0
H2047 H 0.77047 0.87056 0.63089 0.0
H2048 H 0.7386 0.89613 0.66525 0.0
H2049 H 0.79203 0.86404 0.6571 0.0
H2050 H 0.75871 0.87991 0.64336 0.0
H2051 H 0.7709 0.87854 0.67932 0.0
C2052 C 0.75682 0.88731 0.6834 0.0
C2053 C 0.74755 0.89236 0.67964 0.0
C2054 C 0.76603 0.87646 0.64639 0.0
C2055 C 0.7616 0.88251 0.66517 0.0
C2056 C 0.77279 0.87115 0.63925 0.0
C2057 C 0.78231 0.86649 0.64292 0.0
C2058 C 0.76873 0.8771 0.65731 0.0
C2059 C 0.78474 0.86736 0.65391 0.0
C2060 C 0.76385 0.88242 0.67622 0.0
C2061 C 0.74569 0.89243 0.66852 0.0
N2062 N 0.778 0.87255 0.6607 0.0
N2063 N 0.75261 0.88754 0.66169 0.0
H2064 H 0.34414 0.1478 0.27663 0.0
H2065 H 0.39671 0.18272 0.26297 0.0
H2066 H 0.36944 0.15377 0.29952 0.0
H2067 H 0.37217 0.17465 0.23984 0.0
H2068 H 0.3874 0.17151 0.27626 0.0
H2069 H 0.35472 0.15708 0.2629 0.0
C2070 C 0.35193 0.15107 0.27877 0.0
C2071 C 0.35586 0.15007 0.28927 0.0
C2072 C 0.38409 0.17216 0.26826 0.0
C2073 C 0.36808 0.16072 0.27355 0.0
C2074 C 0.38944 0.17851 0.26064 0.0
C2075 C 0.38518 0.17973 0.25028 0.0
C2076 C 0.3744 0.16697 0.26551 0.0
C2077 C 0.37565 0.17415 0.24778 0.0
C2078 C 0.358 0.15633 0.27091 0.0
C2079 C 0.36611 0.1543 0.29152 0.0
N2080 N 0.37058 0.16808 0.25534 0.0
N2081 N 0.37183 0.15951 0.28375 0.0
H2082 H 0.86494 0.40702 0.25881 0.0
H2083 H 0.88825 0.35157 0.28064 0.0
H2084 H 0.85585 0.37594 0.24628 0.0
H2085 H 0.90011 0.38256 0.29091 0.0
H2086 H 0.87571 0.36044 0.26864 0.0
H2087 H 0.87743 0.39831 0.27104 0.0
C2088 C 0.86559 0.39838 0.25858 0.0
C2089 C 0.85927 0.39223 0.25149 0.0
C2090 C 0.88105 0.36532 0.27351 0.0
C2091 C 0.8735 0.38218 0.2656 0.0
C2092 C 0.88817 0.36025 0.28044 0.0
C2093 C 0.89526 0.36632 0.28682 0.0
C2094 C 0.88094 0.37657 0.27297 0.0
C2095 C 0.89489 0.37755 0.28606 0.0
C2096 C 0.87269 0.39341 0.26562 0.0
C2097 C 0.86038 0.38103 0.2517 0.0
N2098 N 0.88785 0.38231 0.27928 0.0
N2099 N 0.86733 0.37639 0.25863 0.0
H2100 H 0.67672 0.90969 0.27075 0.0
H2101 H 0.64056 0.85651 0.26402 0.0
H2102 H 0.66648 0.89001 0.29745 0.0
H2103 H 0.6533 0.87483 0.23742 0.0
H2104 H 0.64922 0.86911 0.27646 0.0
H2105 H 0.66748 0.8974 0.25851 0.0
C2106 C 0.67247 0.90281 0.27406 0.0
C2107 C 0.67237 0.90091 0.28517 0.0
C2108 C 0.65011 0.87037 0.2679 0.0
C2109 C 0.66182 0.8867 0.27114 0.0
C2110 C 0.64511 0.86322 0.26079 0.0
C2111 C 0.64622 0.86459 0.24964 0.0
C2112 C 0.65624 0.879 0.26385 0.0
C2113 C 0.65234 0.87337 0.24593 0.0
C2114 C 0.66725 0.89575 0.26704 0.0
C2115 C 0.66687 0.89175 0.28895 0.0
N2116 N 0.6571 0.88023 0.25301 0.0
N2117 N 0.6618 0.88501 0.28195 0.0
H2118 H 0.15389 0.62806 0.25617 0.0
H2119 H 0.14765 0.68433 0.28654 0.0
H2120 H 0.17914 0.65201 0.2575 0.0
H2121 H 0.12341 0.65934 0.28632 0.0
H2122 H 0.15928 0.67284 0.27579 0.0
H2123 H 0.14259 0.63964 0.26701 0.0
C2124 C 0.1571 0.63573 0.2588 0.0
C2125 C 0.16754 0.63901 0.25595 0.0
C2126 C 0.15141 0.66988 0.2781 0.0
C2127 C 0.15451 0.65244 0.26831 0.0
C2128 C 0.14478 0.67642 0.28429 0.0
C2129 C 0.13449 0.67283 0.28733 0.0
C2130 C 0.14775 0.65966 0.27493 0.0
C2131 C 0.13118 0.66254 0.28404 0.0
C2132 C 0.1506 0.64238 0.26495 0.0
C2133 C 0.17113 0.64917 0.25941 0.0
N2134 N 0.13778 0.65634 0.27803 0.0
N2135 N 0.16464 0.65551 0.26542 0.0
H2136 H 0.38915 0.85128 0.78045 0.0
H2137 H 0.36692 0.9068 0.75765 0.0
H2138 H 0.40212 0.88217 0.78965 0.0
H2139 H 0.35672 0.87565 0.74615 0.0
H2140 H 0.37948 0.89807 0.76981 0.0
H2141 H 0.37666 0.8602 0.76843 0.0
C2142 C 0.38933 0.85995 0.78 0.0
C2143 C 0.3967 0.86598 0.7861 0.0
C2144 C 0.37448 0.89315 0.76462 0.0
C2145 C 0.38244 0.87627 0.77223 0.0
C2146 C 0.36734 0.89814 0.75763 0.0
C2147 C 0.36069 0.89197 0.75085 0.0
C2148 C 0.37499 0.88191 0.76488 0.0
C2149 C 0.36152 0.88075 0.75133 0.0
C2150 C 0.38223 0.86504 0.77307 0.0
C2151 C 0.39666 0.87719 0.78503 0.0
N2152 N 0.36851 0.87611 0.75821 0.0
N2153 N 0.38963 0.88198 0.77825 0.0
H2154 H 0.14082 0.37792 0.74305 0.0
H2155 H 0.17477 0.38582 0.79715 0.0
H2156 H 0.15169 0.35166 0.76258 0.0
H2157 H 0.1674 0.41163 0.7754 0.0
H2158 H 0.16553 0.37329 0.78513 0.0
H2159 H 0.14944 0.3905 0.75549 0.0
C2160 C 0.14494 0.37479 0.75 0.0
C2161 C 0.14554 0.3637 0.75175 0.0
C2162 C 0.16593 0.3817 0.78299 0.0
C2163 C 0.15553 0.37808 0.766 0.0
C2164 C 0.17127 0.38886 0.78983 0.0
C2165 C 0.17191 0.39983 0.7873 0.0
C2166 C 0.16115 0.38549 0.77354 0.0
C2167 C 0.167 0.40329 0.77778 0.0
C2168 C 0.14993 0.38199 0.75706 0.0
C2169 C 0.15113 0.36013 0.76083 0.0
N2170 N 0.16185 0.39616 0.77126 0.0
N2171 N 0.1559 0.36729 0.7676 0.0
H2172 H 0.63085 0.15682 0.79759 0.0
H2173 H 0.67112 0.15381 0.7475 0.0
H2174 H 0.64141 0.18467 0.77976 0.0
H2175 H 0.66303 0.1268 0.76774 0.0
H2176 H 0.66035 0.16529 0.75912 0.0
H2177 H 0.64249 0.14571 0.78654 0.0
C2178 C 0.6356 0.1606 0.79132 0.0
C2179 C 0.6351 0.1717 0.78957 0.0
C2180 C 0.66096 0.15685 0.76103 0.0
C2181 C 0.64854 0.159 0.77689 0.0
C2182 C 0.66716 0.15029 0.75442 0.0
C2183 C 0.66797 0.13928 0.75659 0.0
C2184 C 0.65549 0.15239 0.76987 0.0
C2185 C 0.66251 0.13518 0.76561 0.0
C2186 C 0.6423 0.15426 0.78505 0.0
C2187 C 0.64159 0.17617 0.78145 0.0
N2188 N 0.6565 0.14171 0.77187 0.0
N2189 N 0.64799 0.1698 0.77538 0.0
H2190 H 0.88902 0.6941 0.76671 0.0
H2191 H 0.85587 0.64054 0.78081 0.0
H2192 H 0.88464 0.66805 0.74427 0.0
H2193 H 0.86243 0.66592 0.80354 0.0
H2194 H 0.86701 0.64997 0.76754 0.0
H2195 H 0.87981 0.6835 0.78045 0.0
C2196 C 0.88611 0.68614 0.76467 0.0
C2197 C 0.88753 0.682 0.75428 0.0
C2198 C 0.86604 0.65344 0.77545 0.0
C2199 C 0.87697 0.66975 0.77004 0.0
C2200 C 0.85973 0.64803 0.78306 0.0
C2201 C 0.85811 0.65248 0.7933 0.0
C2202 C 0.87078 0.66338 0.77809 0.0
C2203 C 0.86325 0.66228 0.79569 0.0
C2204 C 0.8809 0.68006 0.77254 0.0
C2205 C 0.88377 0.67155 0.75218 0.0
N2206 N 0.86929 0.66741 0.78814 0.0
N2207 N 0.87859 0.66581 0.75996 0.0
H2208 H 0.24531 0.40467 0.16691 0.0
H2209 H 0.28022 0.35275 0.15392 0.0
H2210 H 0.24731 0.37725 0.18791 0.0
H2211 H 0.28024 0.38103 0.13396 0.0
H2212 H 0.26825 0.36168 0.16649 0.0
H2213 H 0.25817 0.39626 0.15479 0.0
C2214 C 0.2485 0.39692 0.16903 0.0
C2215 C 0.24515 0.39166 0.17845 0.0
C2216 C 0.27089 0.36595 0.15937 0.0
C2217 C 0.25982 0.38191 0.16452 0.0
C2218 C 0.27779 0.36087 0.1522 0.0
C2219 C 0.28127 0.36612 0.14282 0.0
C2220 C 0.26738 0.37638 0.15718 0.0
C2221 C 0.27766 0.37659 0.14098 0.0
C2222 C 0.2558 0.39209 0.16206 0.0
C2223 C 0.24948 0.38154 0.18066 0.0
N2224 N 0.27091 0.38136 0.14807 0.0
N2225 N 0.25655 0.37701 0.17375 0.0
H2226 H 0.27029 0.66974 0.9136 0.0
H2227 H 0.25788 0.65516 0.85218 0.0
H2228 H 0.29186 0.6773 0.88744 0.0
H2229 H 0.23805 0.64466 0.87868 0.0
H2230 H 0.27032 0.66348 0.86494 0.0
H2231 H 0.25839 0.66056 0.90096 0.0
C2232 C 0.27259 0.6694 0.90522 0.0
C2233 C 0.28214 0.67433 0.90162 0.0
C2234 C 0.26327 0.65932 0.86798 0.0
C2235 C 0.26839 0.66393 0.88702 0.0
C2236 C 0.25613 0.65462 0.86068 0.0
C2237 C 0.24687 0.64923 0.86435 0.0
C2238 C 0.26114 0.65871 0.87905 0.0
C2239 C 0.24512 0.64864 0.87548 0.0
C2240 C 0.26574 0.6642 0.89798 0.0
C2241 C 0.28453 0.67378 0.8906 0.0
N2242 N 0.25215 0.65336 0.88242 0.0
N2243 N 0.27771 0.6687 0.8837 0.0
H2244 H 0.36361 0.28451 0.90587 0.0
H2245 H 0.38958 0.26383 0.85082 0.0
H2246 H 0.35769 0.29887 0.87493 0.0
H2247 H 0.399 0.25221 0.88201 0.0
H2248 H 0.37713 0.27605 0.85952 0.0
H2249 H 0.37607 0.27215 0.89732 0.0
C2250 C 0.36496 0.28512 0.89729 0.0
C2251 C 0.35954 0.29277 0.89113 0.0
C2252 C 0.38191 0.27083 0.86447 0.0
C2253 C 0.37371 0.27849 0.88125 0.0
C2254 C 0.38898 0.26379 0.8595 0.0
C2255 C 0.39535 0.25696 0.86568 0.0
C2256 C 0.38113 0.27104 0.87573 0.0
C2257 C 0.39433 0.25741 0.87692 0.0
C2258 C 0.37204 0.27801 0.89241 0.0
C2259 C 0.36151 0.29302 0.88001 0.0
N2260 N 0.38735 0.2643 0.88158 0.0
N2261 N 0.36841 0.286 0.87545 0.0
H2262 H 0.78191 0.40929 0.88149 0.0
H2263 H 0.74651 0.35548 0.87624 0.0
H2264 H 0.77979 0.39033 0.85253 0.0
H2265 H 0.74636 0.37574 0.90436 0.0
H2266 H 0.75935 0.36775 0.86777 0.0
H2267 H 0.76956 0.39671 0.89031 0.0
C2268 C 0.77883 0.40251 0.87696 0.0
C2269 C 0.7819 0.40091 0.86621 0.0
C2270 C 0.75652 0.36952 0.8758 0.0
C2271 C 0.76781 0.38638 0.87634 0.0
C2272 C 0.74913 0.36254 0.88063 0.0
C2273 C 0.74526 0.36459 0.89103 0.0
C2274 C 0.76014 0.37865 0.88138 0.0
C2275 C 0.74917 0.37376 0.89639 0.0
C2276 C 0.77181 0.39529 0.88203 0.0
C2277 C 0.77778 0.39185 0.86085 0.0
N2278 N 0.75636 0.38045 0.89149 0.0
N2279 N 0.77094 0.38496 0.86595 0.0
H2280 H 0.67581 0.76993 0.90799 0.0
H2281 H 0.62953 0.77011 0.86345 0.0
H2282 H 0.6621 0.74116 0.89414 0.0
H2283 H 0.64485 0.79884 0.87561 0.0
H2284 H 0.64146 0.75938 0.87453 0.0
H2285 H 0.66464 0.78065 0.89611 0.0
C2286 C 0.67043 0.76586 0.90247 0.0
C2287 C 0.66987 0.75461 0.90211 0.0
C2288 C 0.64224 0.76803 0.87475 0.0
C2289 C 0.65707 0.76686 0.88841 0.0
C2290 C 0.63539 0.77417 0.86847 0.0
C2291 C 0.63614 0.78541 0.86862 0.0
C2292 C 0.6499 0.77314 0.88131 0.0
C2293 C 0.64402 0.79021 0.87515 0.0
C2294 C 0.66409 0.77199 0.89564 0.0
C2295 C 0.66288 0.7498 0.89464 0.0
N2296 N 0.65055 0.78406 0.88127 0.0
N2297 N 0.65672 0.75594 0.88814 0.0
H2298 H 0.73177 0.66551 0.15827 0.0
H2299 H 0.79298 0.65131 0.17072 0.0
H2300 H 0.75864 0.684 0.14615 0.0
H2301 H 0.76604 0.63164 0.18063 0.0
H2302 H 0.78059 0.66356 0.16194 0.0
H2303 H 0.74424 0.65317 0.16669 0.0
C2304 C 0.7403 0.667 0.1574 0.0
C2305 C 0.74415 0.67585 0.15151 0.0
C2306 C 0.77739 0.65655 0.16601 0.0
C2307 C 0.75852 0.66166 0.16112 0.0
C2308 C 0.78446 0.64958 0.17109 0.0
C2309 C 0.78057 0.64041 0.17643 0.0
C2310 C 0.76632 0.65438 0.16631 0.0
C2311 C 0.76944 0.63852 0.1765 0.0
C2312 C 0.74742 0.65991 0.16217 0.0
C2313 C 0.7553 0.67724 0.15053 0.0
N2314 N 0.76272 0.64544 0.17155 0.0
N2315 N 0.76209 0.67026 0.15532 0.0
H2316 H 0.39665 0.77865 0.18717 0.0
H2317 H 0.35241 0.76436 0.14261 0.0
H2318 H 0.37889 0.80245 0.16974 0.0
H2319 H 0.369 0.74058 0.16119 0.0
H2320 H 0.36311 0.77838 0.15138 0.0
H2321 H 0.38771 0.76461 0.17666 0.0
C2322 C 0.39096 0.78094 0.18105 0.0
C2323 C 0.38849 0.79177 0.17939 0.0
C2324 C 0.36444 0.7701 0.15351 0.0
C2325 C 0.3781 0.77568 0.1674 0.0
C2326 C 0.35838 0.76207 0.14845 0.0
C2327 C 0.35975 0.75126 0.1512 0.0
C2328 C 0.37197 0.76732 0.16138 0.0
C2329 C 0.36753 0.74881 0.15893 0.0
C2330 C 0.3858 0.77291 0.1751 0.0
C2331 C 0.38093 0.79421 0.17143 0.0
N2332 N 0.37331 0.75677 0.16377 0.0
N2333 N 0.37599 0.78625 0.16577 0.0
H2334 H 0.66603 0.29651 0.15294 0.0
H2335 H 0.65104 0.23535 0.16667 0.0
H2336 H 0.67492 0.26968 0.13309 0.0
H2337 H 0.64031 0.26212 0.18564 0.0
H2338 H 0.65994 0.24786 0.15438 0.0
H2339 H 0.65678 0.28412 0.16516 0.0
C2340 C 0.66608 0.28801 0.15117 0.0
C2341 C 0.67127 0.28415 0.14195 0.0
C2342 C 0.65562 0.25102 0.16121 0.0
C2343 C 0.66061 0.2699 0.15588 0.0
C2344 C 0.65058 0.24387 0.16827 0.0
C2345 C 0.64495 0.24768 0.17724 0.0
C2346 C 0.6551 0.2621 0.16313 0.0
C2347 C 0.64448 0.25882 0.17879 0.0
C2348 C 0.66074 0.28094 0.15812 0.0
C2349 C 0.67093 0.27305 0.14001 0.0
N2350 N 0.64953 0.26563 0.17184 0.0
N2351 N 0.66572 0.26634 0.14691 0.0
H2352 H 0.90661 0.77034 0.67864 0.0
H2353 H 0.85229 0.77771 0.64529 0.0
H2354 H 0.88547 0.74401 0.67024 0.0
H2355 H 0.87201 0.80402 0.65664 0.0
H2356 H 0.86478 0.76514 0.65347 0.0
H2357 H 0.89444 0.78267 0.66978 0.0
C2358 C 0.89944 0.76713 0.67487 0.0
C2359 C 0.89709 0.75609 0.67517 0.0
C2360 C 0.86637 0.77366 0.65416 0.0
C2361 C 0.88302 0.77024 0.66506 0.0
C2362 C 0.85928 0.78085 0.64943 0.0
C2363 C 0.86107 0.79195 0.6503 0.0
C2364 C 0.87537 0.77759 0.65976 0.0
C2365 C 0.87021 0.79554 0.65589 0.0
C2366 C 0.89245 0.7742 0.66986 0.0
C2367 C 0.88757 0.75245 0.6703 0.0
N2368 N 0.877 0.7884 0.66039 0.0
N2369 N 0.8809 0.7595 0.66543 0.0
H2370 H 0.25042 0.85196 0.66483 0.0
H2371 H 0.28296 0.90758 0.66028 0.0
H2372 H 0.24758 0.87356 0.63795 0.0
H2373 H 0.28307 0.88742 0.68845 0.0
H2374 H 0.27087 0.89475 0.6515 0.0
H2375 H 0.26325 0.86436 0.67309 0.0
C2376 C 0.25245 0.85933 0.66067 0.0
C2377 C 0.24781 0.86173 0.65069 0.0
C2378 C 0.27356 0.89312 0.65959 0.0
C2379 C 0.26267 0.87596 0.66009 0.0
C2380 C 0.28043 0.90048 0.66465 0.0
C2381 C 0.28403 0.89863 0.67516 0.0
C2382 C 0.27025 0.88381 0.66507 0.0
C2383 C 0.28062 0.88915 0.6803 0.0
C2384 C 0.25984 0.86639 0.66537 0.0
C2385 C 0.25099 0.87131 0.64559 0.0
N2386 N 0.27391 0.88214 0.67522 0.0
N2387 N 0.25818 0.87808 0.65036 0.0
H2388 H 0.15449 0.25586 0.62885 0.0
H2389 H 0.14737 0.28563 0.68545 0.0
H2390 H 0.17876 0.25601 0.65353 0.0
H2391 H 0.12436 0.28686 0.65965 0.0
H2392 H 0.15892 0.27462 0.67412 0.0
H2393 H 0.14328 0.26696 0.64027 0.0
C2394 C 0.15751 0.25828 0.63665 0.0
C2395 C 0.16765 0.25502 0.64018 0.0
C2396 C 0.15134 0.2773 0.67095 0.0
C2397 C 0.1547 0.26769 0.65342 0.0
C2398 C 0.14476 0.28364 0.67739 0.0
C2399 C 0.13483 0.28717 0.67353 0.0
C2400 C 0.14799 0.27446 0.66054 0.0
C2401 C 0.13184 0.2842 0.66306 0.0
C2402 C 0.15106 0.26459 0.6432 0.0
C2403 C 0.17098 0.25824 0.65048 0.0
N2404 N 0.13837 0.27804 0.65696 0.0
N2405 N 0.16454 0.26441 0.65673 0.0
H2406 H 0.77112 0.16931 0.6315 0.0
H2407 H 0.75842 0.15468 0.69288 0.0
H2408 H 0.79252 0.17699 0.65769 0.0
H2409 H 0.73884 0.14406 0.66629 0.0
H2410 H 0.77089 0.16309 0.68017 0.0
H2411 H 0.75919 0.16011 0.64412 0.0
C2412 C 0.77338 0.169 0.63989 0.0
C2413 C 0.78289 0.17395 0.6435 0.0
C2414 C 0.76389 0.15889 0.67711 0.0
C2415 C 0.7691 0.16353 0.65808 0.0
C2416 C 0.75673 0.15413 0.68437 0.0
C2417 C 0.74753 0.14867 0.68066 0.0
C2418 C 0.76183 0.15827 0.66603 0.0
C2419 C 0.74586 0.14809 0.66952 0.0
C2420 C 0.76651 0.16378 0.64711 0.0
C2421 C 0.78523 0.17343 0.65453 0.0
N2422 N 0.7529 0.15287 0.66262 0.0
N2423 N 0.77838 0.16834 0.66141 0.0
H2424 H 0.8518 0.26476 0.4017 0.0
H2425 H 0.89555 0.2777 0.35612 0.0
H2426 H 0.86732 0.24049 0.38272 0.0
H2427 H 0.87885 0.30205 0.37393 0.0
H2428 H 0.88641 0.26395 0.36685 0.0
H2429 H 0.86274 0.27847 0.39269 0.0
C2430 C 0.85759 0.26229 0.39573 0.0
C2431 C 0.85858 0.25144 0.39294 0.0
C2432 C 0.88478 0.2723 0.36845 0.0
C2433 C 0.87107 0.26714 0.38248 0.0
C2434 C 0.89006 0.28017 0.36237 0.0
C2435 C 0.88794 0.29107 0.36408 0.0
C2436 C 0.87732 0.27532 0.37633 0.0
C2437 C 0.88061 0.29375 0.37221 0.0
C2438 C 0.86378 0.27014 0.39053 0.0
C2439 C 0.86614 0.24876 0.38502 0.0
N2440 N 0.87556 0.28594 0.37799 0.0
N2441 N 0.87205 0.25655 0.38006 0.0
H2442 H 0.78833 0.88302 0.40337 0.0
H2443 H 0.74066 0.87499 0.36098 0.0
H2444 H 0.776 0.85213 0.39336 0.0
H2445 H 0.75504 0.90584 0.36812 0.0
H2446 H 0.75327 0.86661 0.37319 0.0
H2447 H 0.77589 0.89164 0.39099 0.0
C2448 C 0.783 0.87805 0.39859 0.0
C2449 C 0.78323 0.86682 0.39941 0.0
C2450 C 0.75369 0.87521 0.37209 0.0
C2451 C 0.76898 0.87664 0.38519 0.0
C2452 C 0.74651 0.88002 0.36505 0.0
C2453 C 0.74679 0.89116 0.36343 0.0
C2454 C 0.76123 0.88156 0.37764 0.0
C2455 C 0.75443 0.89724 0.36917 0.0
C2456 C 0.77593 0.88297 0.39148 0.0
C2457 C 0.77621 0.86079 0.39291 0.0
N2458 N 0.76134 0.89237 0.37601 0.0
N2459 N 0.76937 0.86577 0.38611 0.0
H2460 H 0.15141 0.73664 0.37603 0.0
H2461 H 0.16496 0.79792 0.39066 0.0
H2462 H 0.13987 0.7634 0.35763 0.0
H2463 H 0.17438 0.77104 0.41013 0.0
H2464 H 0.15595 0.78549 0.37831 0.0
H2465 H 0.16002 0.74918 0.38848 0.0
C2466 C 0.15071 0.74516 0.37459 0.0
C2467 C 0.14493 0.74896 0.36573 0.0
C2468 C 0.15997 0.78231 0.38529 0.0
C2469 C 0.15475 0.76342 0.38003 0.0
C2470 C 0.16517 0.78941 0.39232 0.0
C2471 C 0.17044 0.78553 0.40147 0.0
C2472 C 0.16007 0.77125 0.38738 0.0
C2473 C 0.17032 0.77442 0.40327 0.0
C2474 C 0.15559 0.75233 0.38174 0.0
C2475 C 0.14415 0.76011 0.36439 0.0
N2476 N 0.16525 0.76768 0.39629 0.0
N2477 N 0.14904 0.76694 0.37143 0.0
H2478 H 0.29459 0.15298 0.37315 0.0
H2479 H 0.23346 0.1655 0.38795 0.0
H2480 H 0.26805 0.13163 0.36604 0.0
H2481 H 0.26005 0.18565 0.39776 0.0
H2482 H 0.24606 0.15316 0.37964 0.0
H2483 H 0.28213 0.16525 0.38188 0.0
C2484 C 0.28614 0.15089 0.37338 0.0
C2485 C 0.28238 0.14124 0.36885 0.0
C2486 C 0.24916 0.16027 0.38363 0.0
C2487 C 0.26806 0.15523 0.3789 0.0
C2488 C 0.24195 0.16735 0.38833 0.0
C2489 C 0.24569 0.17666 0.39353 0.0
C2490 C 0.26021 0.16251 0.38405 0.0
C2491 C 0.25681 0.17854 0.39392 0.0
C2492 C 0.27904 0.15787 0.37843 0.0
C2493 C 0.27135 0.13889 0.36953 0.0
N2494 N 0.26367 0.17155 0.3892 0.0
N2495 N 0.2646 0.14584 0.37443 0.0
H2496 H 0.63118 0.86648 0.78395 0.0
H2497 H 0.68647 0.89238 0.76292 0.0
H2498 H 0.66211 0.85962 0.79764 0.0
H2499 H 0.65546 0.90228 0.75161 0.0
H2500 H 0.67764 0.87967 0.77506 0.0
H2501 H 0.63985 0.87915 0.7716 0.0
C2502 C 0.63978 0.86766 0.78441 0.0
C2503 C 0.6459 0.86192 0.79187 0.0
C2504 C 0.67275 0.88462 0.76992 0.0
C2505 C 0.65591 0.87635 0.77763 0.0
C2506 C 0.6778 0.89183 0.76293 0.0
C2507 C 0.67171 0.89841 0.75621 0.0
C2508 C 0.66151 0.88391 0.7702 0.0
C2509 C 0.66048 0.89745 0.75672 0.0
C2510 C 0.64473 0.87486 0.77731 0.0
C2511 C 0.65705 0.8637 0.79194 0.0
N2512 N 0.65575 0.89033 0.76357 0.0
N2513 N 0.66167 0.87073 0.78495 0.0
H2514 H 0.12868 0.67845 0.77116 0.0
H2515 H 0.17488 0.63444 0.77238 0.0
H2516 H 0.14403 0.66617 0.74269 0.0
H2517 H 0.16121 0.64847 0.80089 0.0
H2518 H 0.16372 0.64605 0.76138 0.0
H2519 H 0.14056 0.66759 0.78218 0.0
C2520 C 0.13454 0.67345 0.76721 0.0
C2521 C 0.13532 0.6732 0.75596 0.0
C2522 C 0.16318 0.64662 0.77004 0.0
C2523 C 0.14902 0.66077 0.76856 0.0
C2524 C 0.16952 0.63995 0.77633 0.0
C2525 C 0.16897 0.64044 0.78759 0.0
C2526 C 0.15617 0.65383 0.77501 0.0
C2527 C 0.16198 0.64787 0.79225 0.0
C2528 C 0.14136 0.6673 0.77352 0.0
C2529 C 0.14319 0.6667 0.75132 0.0
N2530 N 0.15583 0.65422 0.78595 0.0
N2531 N 0.14969 0.66071 0.75763 0.0
H2532 H 0.39618 0.18651 0.77763 0.0
H2533 H 0.35114 0.14195 0.76483 0.0
H2534 H 0.37791 0.16986 0.80206 0.0
H2535 H 0.36829 0.15974 0.7404 0.0
H2536 H 0.36195 0.15095 0.77856 0.0
H2537 H 0.38716 0.17567 0.76392 0.0
C2538 C 0.39037 0.18049 0.78013 0.0
C2539 C 0.38777 0.17915 0.79103 0.0
C2540 C 0.36339 0.15286 0.77019 0.0
C2541 C 0.37729 0.16677 0.77532 0.0
C2542 C 0.35726 0.14766 0.76233 0.0
C2543 C 0.35875 0.15012 0.75142 0.0
C2544 C 0.37111 0.16059 0.76715 0.0
C2545 C 0.36673 0.15771 0.74871 0.0
C2546 C 0.38516 0.17435 0.77228 0.0
C2547 C 0.38005 0.17131 0.79375 0.0
N2548 N 0.37257 0.16269 0.75651 0.0
N2549 N 0.37507 0.16545 0.78596 0.0
H2550 H 0.84732 0.38896 0.77876 0.0
H2551 H 0.90843 0.37364 0.76733 0.0
H2552 H 0.87364 0.39864 0.79917 0.0
H2553 H 0.88258 0.36678 0.74525 0.0
H2554 H 0.89582 0.38281 0.77907 0.0
H2555 H 0.86008 0.38067 0.76646 0.0
C2556 C 0.85578 0.38933 0.78067 0.0
C2557 C 0.8594 0.39449 0.79005 0.0
C2558 C 0.89291 0.37932 0.77164 0.0
C2559 C 0.87408 0.38502 0.77595 0.0
C2560 C 0.90013 0.37412 0.76488 0.0
C2561 C 0.8966 0.3694 0.75524 0.0
C2562 C 0.88204 0.37979 0.7688 0.0
C2563 C 0.88567 0.37014 0.75266 0.0
C2564 C 0.86307 0.38464 0.77361 0.0
C2565 C 0.87048 0.39485 0.792 0.0
N2566 N 0.87879 0.37521 0.7594 0.0
N2567 N 0.87741 0.39014 0.78505 0.0
H2568 H 0.67442 0.13473 0.27282 0.0
H2569 H 0.62884 0.17938 0.27183 0.0
H2570 H 0.66116 0.14899 0.30141 0.0
H2571 H 0.6435 0.16646 0.24328 0.0
H2572 H 0.64074 0.16849 0.2828 0.0
H2573 H 0.66332 0.14645 0.26188 0.0
C2574 C 0.66916 0.14032 0.2768 0.0
C2575 C 0.66869 0.14083 0.28806 0.0
C2576 C 0.64139 0.16806 0.27414 0.0
C2577 C 0.65598 0.15435 0.27556 0.0
C2578 C 0.63455 0.17424 0.26786 0.0
C2579 C 0.63513 0.17382 0.2566 0.0
C2580 C 0.64885 0.16135 0.26914 0.0
C2581 C 0.64282 0.16713 0.25192 0.0
C2582 C 0.66286 0.14705 0.27055 0.0
C2583 C 0.66185 0.14837 0.29276 0.0
N2584 N 0.64933 0.16113 0.2582 0.0
N2585 N 0.65573 0.15478 0.2865 0.0
H2586 H 0.86756 0.64062 0.25424 0.0
H2587 H 0.87362 0.69606 0.28644 0.0
H2588 H 0.84761 0.66819 0.24929 0.0
H2589 H 0.89432 0.66915 0.29185 0.0
H2590 H 0.8642 0.6858 0.27266 0.0
H2591 H 0.87756 0.6507 0.26796 0.0
C2592 C 0.86526 0.64877 0.25604 0.0
C2593 C 0.85675 0.65357 0.25053 0.0
C2594 C 0.8708 0.6821 0.27684 0.0
C2595 C 0.86821 0.66516 0.26618 0.0
C2596 C 0.87616 0.68795 0.28477 0.0
C2597 C 0.88473 0.68344 0.2904 0.0
C2598 C 0.87398 0.67161 0.27446 0.0
C2599 C 0.8878 0.67298 0.28768 0.0
C2600 C 0.87101 0.65453 0.26384 0.0
C2601 C 0.85422 0.6642 0.25315 0.0
N2602 N 0.8824 0.66739 0.27994 0.0
N2603 N 0.8599 0.6696 0.26076 0.0
H2604 H 0.34853 0.87934 0.28694 0.0
H2605 H 0.40534 0.88334 0.25697 0.0
H2606 H 0.37122 0.90526 0.29198 0.0
H2607 H 0.38394 0.85595 0.25476 0.0
H2608 H 0.39255 0.89201 0.26894 0.0
H2609 H 0.36096 0.87123 0.27426 0.0
C2610 C 0.35615 0.88332 0.28542 0.0
C2611 C 0.35884 0.89298 0.29064 0.0
C2612 C 0.39064 0.88412 0.26582 0.0
C2613 C 0.37312 0.88375 0.27595 0.0
C2614 C 0.39797 0.87912 0.25902 0.0
C2615 C 0.39577 0.86885 0.25485 0.0
C2616 C 0.38099 0.87884 0.26849 0.0
C2617 C 0.38597 0.8639 0.25765 0.0
C2618 C 0.36323 0.8787 0.27812 0.0
C2619 C 0.36874 0.89786 0.28811 0.0
N2620 N 0.37898 0.86892 0.2643 0.0
N2621 N 0.37553 0.89318 0.28099 0.0
H2622 H 0.13995 0.35599 0.27858 0.0
H2623 H 0.17522 0.40974 0.2716 0.0
H2624 H 0.15245 0.37462 0.30507 0.0
H2625 H 0.16514 0.38993 0.24494 0.0
H2626 H 0.16617 0.39735 0.28389 0.0
H2627 H 0.1483 0.36874 0.26606 0.0
C2628 C 0.14438 0.3628 0.28177 0.0
C2629 C 0.14552 0.3642 0.29291 0.0
C2630 C 0.16593 0.3957 0.27535 0.0
C2631 C 0.15518 0.37879 0.27861 0.0
C2632 C 0.17104 0.40281 0.26831 0.0
C2633 C 0.17093 0.4009 0.2572 0.0
C2634 C 0.1606 0.38657 0.27129 0.0
C2635 C 0.16553 0.39168 0.25345 0.0
C2636 C 0.14921 0.37004 0.27461 0.0
C2637 C 0.15148 0.37312 0.29656 0.0
N2638 N 0.16057 0.38488 0.26047 0.0
N2639 N 0.15607 0.38005 0.28945 0.0
H2640 H 0.74559 0.66669 0.90634 0.0
H2641 H 0.78212 0.65383 0.85504 0.0
H2642 H 0.74946 0.68801 0.87928 0.0
H2643 H 0.78037 0.63346 0.88302 0.0
H2644 H 0.77023 0.66645 0.86389 0.0
H2645 H 0.75838 0.65447 0.89808 0.0
C2646 C 0.74918 0.66886 0.8987 0.0
C2647 C 0.74638 0.6784 0.89349 0.0
C2648 C 0.77246 0.65923 0.86812 0.0
C2649 C 0.76096 0.66435 0.88391 0.0
C2650 C 0.77932 0.65203 0.86308 0.0
C2651 C 0.78229 0.64253 0.86827 0.0
C2652 C 0.76848 0.65695 0.87844 0.0
C2653 C 0.7782 0.64059 0.87863 0.0
C2654 C 0.75644 0.66183 0.89396 0.0
C2655 C 0.7512 0.68068 0.88352 0.0
N2656 N 0.7715 0.64772 0.88336 0.0
N2657 N 0.75822 0.6737 0.87906 0.0
H2658 H 0.79256 0.38602 0.17841 0.0
H2659 H 0.73804 0.37761 0.14528 0.0
H2660 H 0.77078 0.41161 0.1711 0.0
H2661 H 0.75793 0.35158 0.15572 0.0
H2662 H 0.75058 0.39032 0.15362 0.0
H2663 H 0.78049 0.37341 0.16931 0.0
C2664 C 0.78522 0.389 0.17495 0.0
C2665 C 0.7827 0.39993 0.17558 0.0
C2666 C 0.75222 0.38183 0.15408 0.0
C2667 C 0.76888 0.3855 0.16498 0.0
C2668 C 0.74509 0.37457 0.14925 0.0
C2669 C 0.74691 0.3635 0.14981 0.0
C2670 C 0.76128 0.37802 0.15949 0.0
C2671 C 0.75612 0.36003 0.1552 0.0
C2672 C 0.77836 0.38179 0.16969 0.0
C2673 C 0.77316 0.40331 0.17072 0.0
N2674 N 0.76295 0.36725 0.15982 0.0
N2675 N 0.76661 0.39613 0.16565 0.0
H2676 H 0.62528 0.78818 0.15853 0.0
H2677 H 0.67914 0.75399 0.15478 0.0
H2678 H 0.64669 0.7839 0.18533 0.0
H2679 H 0.65657 0.75729 0.1288 0.0
H2680 H 0.66761 0.76505 0.16609 0.0
H2681 H 0.63692 0.77711 0.1475 0.0
C2682 C 0.6324 0.78486 0.16213 0.0
C2683 C 0.63495 0.78695 0.17292 0.0
C2684 C 0.6652 0.76336 0.15791 0.0
C2685 C 0.64845 0.7743 0.16023 0.0
C2686 C 0.67175 0.75699 0.15146 0.0
C2687 C 0.66886 0.75471 0.14078 0.0
C2688 C 0.65567 0.76749 0.15367 0.0
C2689 C 0.65924 0.75896 0.1369 0.0
C2690 C 0.63909 0.77858 0.15579 0.0
C2691 C 0.64444 0.7826 0.17704 0.0
N2692 N 0.65302 0.76512 0.14333 0.0
N2693 N 0.65082 0.77647 0.1707 0.0
H2694 H 0.25881 0.65475 0.19281 0.0
H2695 H 0.27138 0.66932 0.1314 0.0
H2696 H 0.23914 0.64414 0.16629 0.0
H2697 H 0.29299 0.67674 0.1575 0.0
H2698 H 0.25946 0.66015 0.14405 0.0
H2699 H 0.27131 0.66306 0.18005 0.0
C2700 C 0.25711 0.65418 0.1843 0.0
C2701 C 0.24788 0.64876 0.18063 0.0
C2702 C 0.26682 0.66375 0.14701 0.0
C2703 C 0.2622 0.65823 0.16594 0.0
C2704 C 0.27369 0.66895 0.13977 0.0
C2705 C 0.28325 0.67384 0.14335 0.0
C2706 C 0.26947 0.66345 0.15797 0.0
C2707 C 0.28565 0.67325 0.15436 0.0
C2708 C 0.26428 0.65888 0.17701 0.0
C2709 C 0.24619 0.64814 0.16949 0.0
N2710 N 0.27881 0.66818 0.16126 0.0
N2711 N 0.25324 0.65286 0.16256 0.0
H2712 H 0.35517 0.29717 0.16693 0.0
H2713 H 0.39934 0.25181 0.15876 0.0
H2714 H 0.36381 0.28457 0.13584 0.0
H2715 H 0.38791 0.26226 0.18973 0.0
H2716 H 0.3869 0.26413 0.15012 0.0
H2717 H 0.36753 0.28475 0.17531 0.0
C2718 C 0.3596 0.29174 0.16185 0.0
C2719 C 0.35836 0.2919 0.15063 0.0
C2720 C 0.3871 0.26371 0.15881 0.0
C2721 C 0.37273 0.2777 0.16024 0.0
C2722 C 0.39424 0.25671 0.16375 0.0
C2723 C 0.39468 0.25598 0.175 0.0
C2724 C 0.38037 0.27008 0.16516 0.0
C2725 C 0.38777 0.26244 0.18104 0.0
C2726 C 0.36672 0.28467 0.16665 0.0
C2727 C 0.36455 0.28482 0.14449 0.0
N2728 N 0.38094 0.26922 0.17605 0.0
N2729 N 0.37146 0.27801 0.14937 0.0
H2730 H 0.29444 0.37237 0.89052 0.0
H2731 H 0.23337 0.38667 0.87752 0.0
H2732 H 0.26776 0.36388 0.91106 0.0
H2733 H 0.26005 0.39723 0.85793 0.0
H2734 H 0.24591 0.37822 0.88982 0.0
H2735 H 0.28205 0.38136 0.87838 0.0
C2736 C 0.28598 0.37236 0.89247 0.0
C2737 C 0.28215 0.36734 0.90185 0.0
C2738 C 0.24904 0.3824 0.88285 0.0
C2739 C 0.26792 0.37771 0.888 0.0
C2740 C 0.24187 0.38719 0.87579 0.0
C2741 C 0.24565 0.39264 0.86663 0.0
C2742 C 0.26011 0.38299 0.88077 0.0
C2743 C 0.25678 0.3932 0.86492 0.0
C2744 C 0.27891 0.37755 0.88556 0.0
C2745 C 0.27111 0.36773 0.90401 0.0
N2746 N 0.2636 0.38839 0.87189 0.0
N2747 N 0.2644 0.37279 0.89714 0.0
H2748 H 0.65516 0.28604 0.90964 0.0
H2749 H 0.6593 0.25466 0.85362 0.0
H2750 H 0.68288 0.28741 0.88885 0.0
H2751 H 0.63268 0.25086 0.87554 0.0
H2752 H 0.66758 0.26742 0.86603 0.0
H2753 H 0.64637 0.27388 0.89689 0.0
C2754 C 0.65942 0.28377 0.90242 0.0
C2755 C 0.66981 0.28776 0.90036 0.0
C2756 C 0.65992 0.26381 0.86813 0.0
C2757 C 0.65971 0.27391 0.88565 0.0
C2758 C 0.65521 0.25647 0.86107 0.0
C2759 C 0.6453 0.25158 0.86355 0.0
C2760 C 0.65472 0.26636 0.8778 0.0
C2761 C 0.64028 0.25447 0.87323 0.0
C2762 C 0.65437 0.27686 0.89511 0.0
C2763 C 0.67483 0.28467 0.89075 0.0
N2764 N 0.64506 0.26163 0.88001 0.0
N2765 N 0.66975 0.27792 0.88379 0.0
H2766 H 0.37007 0.7428 0.88977 0.0
H2767 H 0.37346 0.80336 0.86844 0.0
H2768 H 0.34513 0.76601 0.89431 0.0
H2769 H 0.39674 0.77939 0.86026 0.0
H2770 H 0.36393 0.79017 0.87945 0.0
H2771 H 0.38091 0.75649 0.88055 0.0
C2772 C 0.36691 0.7508 0.88893 0.0
C2773 C 0.35663 0.75324 0.89277 0.0
C2774 C 0.37114 0.78779 0.87528 0.0
C2775 C 0.36898 0.76893 0.88216 0.0
C2776 C 0.37657 0.79531 0.86894 0.0
C2777 C 0.38586 0.79247 0.86329 0.0
C2778 C 0.375 0.77729 0.87603 0.0
C2779 C 0.38964 0.78197 0.8645 0.0
C2780 C 0.37308 0.7586 0.88361 0.0
C2781 C 0.35293 0.76372 0.89134 0.0
N2782 N 0.38416 0.77475 0.87068 0.0
N2783 N 0.35907 0.77115 0.88614 0.0
H2784 H 0.98841 0.3416 0.32211 0.0
H2785 H 0.04559 0.32069 0.34169 0.0
H2786 H 0.99228 0.31538 0.34433 0.0
H2787 H 0.04157 0.34302 0.31557 0.0
H2788 H 0.02611 0.31929 0.34343 0.0
H2789 H 1.00788 0.3429 0.32028 0.0
C2790 C 0.99333 0.33607 0.32657 0.0
C2791 C 0.98863 0.32836 0.33339 0.0
C2792 C 0.0295 0.32449 0.33732 0.0
C2793 C 1.01102 0.32992 0.33143 0.0
C2794 C 0.04064 0.32526 0.33627 0.0
C2795 C 0.0453 0.33199 0.32846 0.0
C2796 C 0.02291 0.33053 0.33054 0.0
C2797 C 0.0384 0.33786 0.32182 0.0
C2798 C 1.00447 0.33686 0.32555 0.0
C2799 C 0.99549 0.32156 0.3391 0.0
N2800 N 0.02759 0.33699 0.32302 0.0
N2801 N 1.0063 0.32251 0.33799 0.0
H2802 H 0.71987 0.04714 0.31979 0.0
H2803 H 0.7022 0.99404 0.35167 0.0
H2804 H 0.70145 0.04754 0.34915 0.0
H2805 H 0.71776 0.99366 0.3207 0.0
H2806 H 0.70164 1.01361 0.35081 0.0
H2807 H 0.71898 0.02756 0.31988 0.0
C2808 C 0.71564 0.04311 0.32626 0.0
C2809 C 0.71077 0.04902 0.3345 0.0
C2810 C 0.70512 1.00925 0.34417 0.0
C2811 C 0.70969 0.02654 0.33464 0.0
C2812 C 0.70549 0.99807 0.34468 0.0
C2813 C 0.71007 0.99218 0.33626 0.0
C2814 C 0.70943 1.01462 0.3352 0.0
C2815 C 0.71407 0.99784 0.32734 0.0
C2816 C 0.71509 0.03192 0.32627 0.0
C2817 C 0.70525 0.04334 0.34258 0.0
N2818 N 0.71372 1.00873 0.32707 0.0
N2819 N 0.70492 0.03244 0.34249 0.0
H2820 H 0.99118 0.70722 0.31022 0.0
H2821 H 0.04083 0.7166 0.35006 0.0
H2822 H 0.98774 0.71171 0.34443 0.0
H2823 H 0.04416 0.71266 0.31577 0.0
H2824 H 0.02142 0.71464 0.34819 0.0
H2825 H 1.0106 0.70887 0.31216 0.0
C2826 C 0.9945 0.70849 0.31816 0.0
C2827 C 0.98777 0.7093 0.32718 0.0
C2828 C 0.02639 0.7142 0.34107 0.0
C2829 C 1.01009 0.71131 0.32944 0.0
C2830 C 0.03749 0.71537 0.34212 0.0
C2831 C 0.04419 0.71484 0.33305 0.0
C2832 C 0.02189 0.71247 0.33088 0.0
C2833 C 0.03936 0.71302 0.32301 0.0
C2834 C 1.0056 0.70949 0.31925 0.0
C2835 C 0.99257 0.71115 0.33723 0.0
N2836 N 0.02853 0.71193 0.3222 0.0
N2837 N 1.00342 0.71207 0.33808 0.0
H2838 H 0.31568 0.04807 0.32661 0.0
H2839 H 0.34972 0.9947 0.33506 0.0
H2840 H 0.34914 0.04804 0.33532 0.0
H2841 H 0.31644 0.99446 0.32568 0.0
H2842 H 0.3493 1.01422 0.33629 0.0
H2843 H 0.31539 0.02848 0.3275 0.0
C2844 C 0.32294 0.04396 0.32882 0.0
C2845 C 0.33247 0.04974 0.33083 0.0
C2846 C 0.34207 1.00991 0.33401 0.0
C2847 C 0.33222 0.02726 0.33174 0.0
C2848 C 0.34232 0.99875 0.33325 0.0
C2849 C 0.33313 0.99291 0.33018 0.0
C2850 C 0.33256 1.01534 0.33165 0.0
C2851 C 0.3237 0.99861 0.32815 0.0
C2852 C 0.32278 0.03276 0.32926 0.0
C2853 C 0.34166 0.04394 0.33353 0.0
N2854 N 0.32368 1.0095 0.32885 0.0
N2855 N 0.34131 0.03305 0.33387 0.0
H2856 H 0.04115 0.73063 0.70746 0.0
H2857 H 0.99094 0.69026 0.71307 0.0
H2858 H 0.04419 0.69626 0.7094 0.0
H2859 H 0.98817 0.72469 0.71198 0.0
H2860 H 1.0104 0.69223 0.71143 0.0
H2861 H 0.02171 0.72854 0.70871 0.0
C2862 C 0.03774 0.72263 0.70809 0.0
C2863 C 0.04436 0.7136 0.70829 0.0
C2864 C 1.00553 0.69936 0.71153 0.0
C2865 C 0.02201 0.71116 0.70984 0.0
C2866 C 0.99441 0.69824 0.71251 0.0
C2867 C 0.98787 0.70732 0.71269 0.0
C2868 C 1.01019 0.70963 0.71072 0.0
C2869 C 0.99285 0.71745 0.71175 0.0
C2870 C 0.02662 0.72144 0.70886 0.0
C2871 C 0.03944 0.70345 0.70932 0.0
N2872 N 1.00369 0.71832 0.71083 0.0
N2873 N 0.02858 0.70251 0.71003 0.0
H2874 H 0.34292 0.99413 0.70351 0.0
H2875 H 0.31514 0.04834 0.72322 0.0
H2876 H 0.31665 0.99494 0.72607 0.0
H2877 H 0.34424 0.04773 0.70446 0.0
H2878 H 0.31446 0.02874 0.7228 0.0
H2879 H 0.34241 1.0137 0.70225 0.0
C2880 C 0.33697 0.99841 0.70812 0.0
C2881 C 0.32984 0.99288 0.71495 0.0
C2882 C 0.32097 0.03289 0.71874 0.0
C2883 C 0.32927 1.0153 0.7136 0.0
C2884 C 0.32133 0.04409 0.71891 0.0
C2885 C 0.32978 0.04971 0.7139 0.0
C2886 C 0.3291 0.02723 0.71348 0.0
C2887 C 0.33765 0.04374 0.70856 0.0
C2888 C 0.33673 1.00959 0.70745 0.0
C2889 C 0.3224 0.99888 0.72083 0.0
N2890 N 0.33713 0.03284 0.7085 0.0
N2891 N 0.32231 1.00975 0.72002 0.0
H2892 H 0.99189 0.3122 0.70599 0.0
H2893 H 0.0421 0.35132 0.71726 0.0
H2894 H 0.98893 0.34607 0.71222 0.0
H2895 H 0.04482 0.31728 0.71183 0.0
H2896 H 0.02268 0.34963 0.71521 0.0
H2897 H 1.01131 0.31402 0.70773 0.0
C2898 C 0.99532 0.32004 0.70766 0.0
C2899 C 0.98872 0.329 0.70892 0.0
C2900 C 0.02752 0.34253 0.71445 0.0
C2901 C 1.01104 0.33112 0.71106 0.0
C2902 C 0.03863 0.34348 0.71568 0.0
C2903 C 0.04515 0.33442 0.71475 0.0
C2904 C 0.02285 0.33246 0.71228 0.0
C2905 C 0.04017 0.32451 0.71249 0.0
C2906 C 1.00643 0.32106 0.70872 0.0
C2907 C 0.99366 0.33892 0.71129 0.0
N2908 N 0.02934 0.3238 0.71136 0.0
N2909 N 1.0045 0.33971 0.71227 0.0
H2910 H 0.70292 0.99375 0.68998 0.0
H2911 H 0.71326 0.04732 0.72423 0.0
H2912 H 0.71334 0.99369 0.72302 0.0
H2913 H 0.70373 0.04709 0.69093 0.0
H2914 H 0.71206 0.02772 0.7244 0.0
H2915 H 0.70205 1.01328 0.69059 0.0
C2916 C 0.70503 0.99784 0.69737 0.0
C2917 C 0.70829 0.99204 0.70644 0.0
C2918 C 0.71019 0.03196 0.71707 0.0
C2919 C 0.70725 1.01448 0.70722 0.0
C2920 C 0.7108 0.04317 0.71698 0.0
C2921 C 0.70866 0.04889 0.70753 0.0
C2922 C 0.70738 0.02641 0.70764 0.0
C2923 C 0.70564 0.04303 0.69835 0.0
C2924 C 0.70449 1.00901 0.69773 0.0
C2925 C 0.71071 0.99779 0.71585 0.0
N2926 N 0.70513 0.03214 0.69863 0.0
N2927 N 0.71021 1.00869 0.71598 0.0
H2928 H 0.35051 0.32306 0.99429 0.0
H2929 H 0.31681 0.33561 0.0476 0.0
H2930 H 0.31729 0.33228 0.99372 0.0
H2931 H 0.3484 0.32187 0.04754 0.0
H2932 H 0.31718 0.33582 0.02794 0.0
H2933 H 0.35025 0.32408 1.01384 0.0
C2934 C 0.34313 0.32527 0.99827 0.0
C2935 C 0.33387 0.32748 0.99231 0.0
C2936 C 0.32403 0.3328 0.03224 0.0
C2937 C 0.33356 0.32879 1.01481 0.0
C2938 C 0.32382 0.33263 0.04348 0.0
C2939 C 0.33259 0.32871 0.0493 0.0
C2940 C 0.33309 0.32906 0.02675 0.0
C2941 C 0.34151 0.32512 0.04347 0.0
C2942 C 0.343 0.3259 1.00945 0.0
C2943 C 0.32464 0.33056 0.99795 0.0
N2944 N 0.34151 0.32537 0.03256 0.0
N2945 N 0.3247 0.33108 1.00888 0.0
H2946 H 0.328 0.73492 0.99575 0.0
H2947 H 0.33115 0.69975 0.04949 0.0
H2948 H 0.33093 0.70049 0.9954 0.0
H2949 H 0.32851 0.7342 0.0489 0.0
H2950 H 0.33007 0.69954 0.02982 0.0
H2951 H 0.32729 0.73451 1.01529 0.0
C2952 C 0.32853 0.72726 0.99979 0.0
C2953 C 0.32965 0.71774 0.9939 0.0
C2954 C 0.32969 0.70713 0.03401 0.0
C2955 C 0.32875 0.71719 1.01641 0.0
C2956 C 0.33026 0.70725 0.04524 0.0
C2957 C 0.33002 0.71702 0.05087 0.0
C2958 C 0.32885 0.71684 0.02836 0.0
C2959 C 0.32894 0.7265 0.04492 0.0
C2960 C 0.32807 0.72702 1.01098 0.0
C2961 C 0.33003 0.70803 0.99961 0.0
N2962 N 0.32843 0.72616 0.03403 0.0
N2963 N 0.32965 0.70801 1.01055 0.0
H2964 H 0.71787 0.35292 0.04822 0.0
H2965 H 0.7046 0.3211 0.99387 0.0
H2966 H 0.7022 0.32186 0.0478 0.0
H2967 H 0.71724 0.35345 0.99497 0.0
H2968 H 0.70346 0.32112 1.01351 0.0
H2969 H 0.71755 0.35315 0.02868 0.0
C2970 C 0.71424 0.34618 0.04405 0.0
C2971 C 0.71001 0.33738 0.04975 0.0
C2972 C 0.70646 0.32822 1.00944 0.0
C2973 C 0.70982 0.3375 0.02719 0.0
C2974 C 0.70706 0.32823 0.99821 0.0
C2975 C 0.7111 0.33726 0.99272 0.0
C2976 C 0.70992 0.33729 1.01524 0.0
C2977 C 0.71427 0.34623 0.99883 0.0
C2978 C 0.71414 0.34629 0.03284 0.0
C2979 C 0.70567 0.32878 0.04379 0.0
N2980 N 0.71365 0.34599 1.00972 0.0
N2981 N 0.7057 0.32904 0.03285 0.0
H2982 H 0.70425 0.68952 0.04913 0.0
H2983 H 0.71576 0.72328 0.99548 0.0
H2984 H 0.71593 0.72223 0.04928 0.0
H2985 H 0.70473 0.69035 0.99573 0.0
H2986 H 0.71472 0.72354 1.01512 0.0
H2987 H 0.70336 0.69011 0.02956 0.0
C2988 C 0.70665 0.69683 0.04505 0.0
C2989 C 0.71027 0.70581 0.05089 0.0
C2990 C 0.71248 0.71627 1.01087 0.0
C2991 C 0.7092 0.70657 0.02839 0.0
C2992 C 0.71302 0.71614 0.99965 0.0
C2993 C 0.7104 0.70676 0.99392 0.0
C2994 C 0.70929 0.70696 1.01644 0.0
C2995 C 0.70701 0.69771 0.99979 0.0
C2996 C 0.70609 0.69718 0.03386 0.0
C2997 C 0.71304 0.71514 0.04514 0.0
N2998 N 0.70659 0.69803 1.01069 0.0
N2999 N 0.71251 0.71525 0.03422 0.0
H3000 H 0.49175 0.82662 0.85105 0.0
H3001 H 0.54141 0.83335 0.81058 0.0
H3002 H 0.48843 0.82901 0.81663 0.0
H3003 H 0.54494 0.83019 0.84491 0.0
H3004 H 0.52199 0.83209 0.81271 0.0
H3005 H 0.51119 0.82811 0.84902 0.0
C3006 C 0.49509 0.82742 0.84306 0.0
C3007 C 0.48839 0.82766 0.834 0.0
C3008 C 0.527 0.83167 0.81979 0.0
C3009 C 0.51072 0.82948 0.83162 0.0
C3010 C 0.53811 0.83245 0.81858 0.0
C3011 C 0.54486 0.83192 0.82758 0.0
C3012 C 0.52254 0.83035 0.83007 0.0
C3013 C 0.54008 0.83054 0.83773 0.0
C3014 C 0.50621 0.82832 0.84191 0.0
C3015 C 0.49323 0.82891 0.82386 0.0
N3016 N 0.52923 0.82982 0.83869 0.0
N3017 N 0.50407 0.82975 0.82296 0.0
H3018 H 0.21469 0.49408 0.81995 0.0
H3019 H 0.20314 0.54778 0.85317 0.0
H3020 H 0.20432 0.4945 0.85303 0.0
H3021 H 0.21441 0.54775 0.82038 0.0
H3022 H 0.20241 0.52822 0.85281 0.0
H3023 H 0.21338 0.51363 0.81945 0.0
C3024 C 0.21203 0.49826 0.82708 0.0
C3025 C 0.20968 0.49261 0.83657 0.0
C3026 C 0.205 0.53248 0.84567 0.0
C3027 C 0.20827 0.51504 0.83609 0.0
C3028 C 0.20547 0.54366 0.84589 0.0
C3029 C 0.20894 0.54945 0.83682 0.0
C3030 C 0.20804 0.52696 0.83633 0.0
C3031 C 0.21163 0.54365 0.82754 0.0
C3032 C 0.21135 0.50944 0.82681 0.0
C3033 C 0.2064 0.4985 0.84559 0.0
N3034 N 0.2112 0.53274 0.82756 0.0
N3035 N 0.20583 0.50937 0.84513 0.0
H3036 H 0.54135 0.23329 0.83217 0.0
H3037 H 0.49117 0.19254 0.83043 0.0
H3038 H 0.5443 0.19891 0.83415 0.0
H3039 H 0.48834 0.2269 0.82799 0.0
H3040 H 0.5106 0.1947 0.83197 0.0
H3041 H 0.52192 0.2311 0.83089 0.0
C3042 C 0.53792 0.22527 0.83239 0.0
C3043 C 0.54451 0.21627 0.8333 0.0
C3044 C 0.50573 0.20177 0.83111 0.0
C3045 C 0.52219 0.2137 0.83173 0.0
C3046 C 0.49462 0.20054 0.83018 0.0
C3047 C 0.48807 0.20955 0.82904 0.0
C3048 C 0.51038 0.21209 0.83091 0.0
C3049 C 0.49303 0.21972 0.82897 0.0
C3050 C 0.52681 0.22402 0.83161 0.0
C3051 C 0.53958 0.20608 0.83335 0.0
N3052 N 0.50386 0.22071 0.82986 0.0
N3053 N 0.52873 0.20508 0.8326 0.0
H3054 H 0.84901 0.54911 0.83508 0.0
H3055 H 0.81521 0.49497 0.82499 0.0
H3056 H 0.8158 0.54862 0.82543 0.0
H3057 H 0.84864 0.49579 0.83384 0.0
H3058 H 0.81485 0.51453 0.82636 0.0
H3059 H 0.84864 0.52955 0.83577 0.0
C3060 C 0.84163 0.54489 0.83309 0.0
C3061 C 0.83245 0.55054 0.8301 0.0
C3062 C 0.82225 0.51042 0.82805 0.0
C3063 C 0.83194 0.52807 0.83095 0.0
C3064 C 0.82245 0.49924 0.82733 0.0
C3065 C 0.83199 0.4937 0.82924 0.0
C3066 C 0.83165 0.51614 0.83071 0.0
C3067 C 0.84115 0.49971 0.83212 0.0
C3068 C 0.84141 0.53371 0.83354 0.0
C3069 C 0.82306 0.54462 0.82784 0.0
N3070 N 0.84076 0.51057 0.83273 0.0
N3071 N 0.82307 0.53372 0.82825 0.0
H3072 H 0.48664 0.22197 0.20242 0.0
H3073 H 0.54388 0.20254 0.22311 0.0
H3074 H 0.49068 0.196 0.2249 0.0
H3075 H 0.53986 0.22414 0.19637 0.0
H3076 H 0.52443 0.20051 0.22434 0.0
H3077 H 0.5061 0.22334 0.20053 0.0
C3078 C 0.49158 0.2165 0.2069 0.0
C3079 C 0.48694 0.20887 0.21385 0.0
C3080 C 0.5278 0.20568 0.21819 0.0
C3081 C 0.50932 0.21054 0.21184 0.0
C3082 C 0.53894 0.2068 0.21744 0.0
C3083 C 0.54359 0.21355 0.20963 0.0
C3084 C 0.52121 0.21137 0.21113 0.0
C3085 C 0.53669 0.219 0.20265 0.0
C3086 C 0.50272 0.21733 0.20586 0.0
C3087 C 0.49384 0.20214 0.21959 0.0
N3088 N 0.52587 0.21781 0.20358 0.0
N3089 N 0.50466 0.20315 0.21848 0.0
H3090 H 0.81534 0.4942 0.21845 0.0
H3091 H 0.8489 0.54849 0.20832 0.0
H3092 H 0.84857 0.49515 0.20878 0.0
H3093 H 0.81588 0.54787 0.2187 0.0
H3094 H 0.84854 0.52894 0.2074 0.0
H3095 H 0.81494 0.51378 0.21739 0.0
C3096 C 0.82252 0.49851 0.21599 0.0
C3097 C 0.83202 0.49299 0.21377 0.0
C3098 C 0.84135 0.53307 0.20984 0.0
C3099 C 0.83166 0.51546 0.21265 0.0
C3100 C 0.84157 0.54425 0.21042 0.0
C3101 C 0.83244 0.54986 0.21368 0.0
C3102 C 0.83194 0.52739 0.21257 0.0
C3103 C 0.8231 0.54391 0.21608 0.0
C3104 C 0.82231 0.5097 0.21545 0.0
C3105 C 0.84112 0.49905 0.21075 0.0
N3106 N 0.82311 0.53301 0.21555 0.0
N3107 N 0.84071 0.50992 0.21032 0.0
H3108 H 0.54569 0.83201 0.19816 0.0
H3109 H 0.48837 0.83063 0.22743 0.0
H3110 H 0.54153 0.83441 0.2325 0.0
H3111 H 0.49246 0.82844 0.19307 0.0
H3112 H 0.5078 0.8323 0.22941 0.0
H3113 H 0.52624 0.83067 0.19612 0.0
C3114 C 0.5407 0.83219 0.20529 0.0
C3115 C 0.5453 0.83333 0.21553 0.0
C3116 C 0.50445 0.83147 0.22143 0.0
C3117 C 0.52294 0.83191 0.21323 0.0
C3118 C 0.49333 0.83058 0.22028 0.0
C3119 C 0.48873 0.82938 0.21006 0.0
C3120 C 0.51107 0.83115 0.21229 0.0
C3121 C 0.49563 0.8292 0.20112 0.0
C3122 C 0.52958 0.8315 0.20411 0.0
C3123 C 0.53837 0.83369 0.22444 0.0
N3124 N 0.50642 0.83007 0.20245 0.0
N3125 N 0.52757 0.83297 0.22308 0.0
H3126 H 0.21405 0.54736 0.22425 0.0
H3127 H 0.20402 0.49406 0.18949 0.0
H3128 H 0.2049 0.54738 0.19084 0.0
H3129 H 0.21386 0.49371 0.22269 0.0
H3130 H 0.20326 0.51359 0.19021 0.0
H3131 H 0.21282 0.52776 0.22426 0.0
C3132 C 0.21167 0.54326 0.21694 0.0
C3133 C 0.20964 0.54905 0.20751 0.0
C3134 C 0.20555 0.50926 0.19736 0.0
C3135 C 0.20834 0.52658 0.20744 0.0
C3136 C 0.20603 0.49809 0.19694 0.0
C3137 C 0.20909 0.49221 0.20602 0.0
C3138 C 0.20817 0.51465 0.20693 0.0
C3139 C 0.21139 0.49788 0.21551 0.0
C3140 C 0.21104 0.53206 0.21694 0.0
C3141 C 0.20672 0.54327 0.19825 0.0
N3142 N 0.21095 0.50878 0.2157 0.0
N3143 N 0.2062 0.53238 0.19845 0.0
H3144 H 0.84396 0.83844 0.49469 0.0
H3145 H 0.81495 0.82025 0.54937 0.0
H3146 H 0.8155 0.81844 0.49577 0.0
H3147 H 0.84562 0.8366 0.5483 0.0
H3148 H 0.81407 0.82112 0.52977 0.0
H3149 H 0.84373 0.83944 0.51432 0.0
C3150 C 0.8376 0.83435 0.49905 0.0
C3151 C 0.82977 0.82831 0.49356 0.0
C3152 C 0.82098 0.82455 0.53382 0.0
C3153 C 0.82951 0.82935 0.51607 0.0
C3154 C 0.82145 0.82412 0.54503 0.0
C3155 C 0.8304 0.82832 0.55051 0.0
C3156 C 0.82948 0.82925 0.52802 0.0
C3157 C 0.83864 0.83312 0.54442 0.0
C3158 C 0.83751 0.83487 0.51026 0.0
C3159 C 0.82179 0.82307 0.49966 0.0
N3160 N 0.83799 0.83344 0.53352 0.0
N3161 N 0.82188 0.8237 0.51056 0.0
H3162 H 0.8429 0.23078 0.54921 0.0
H3163 H 0.82313 0.2015 0.49528 0.0
H3164 H 0.82366 0.20177 0.54939 0.0
H3165 H 0.84217 0.23063 0.49605 0.0
H3166 H 0.82287 0.20143 0.51498 0.0
H3167 H 0.84254 0.23071 0.52966 0.0
C3168 C 0.83865 0.22433 0.54514 0.0
C3169 C 0.83339 0.21621 0.551 0.0
C3170 C 0.82711 0.20783 0.51082 0.0
C3171 C 0.8328 0.21618 0.52846 0.0
C3172 C 0.82721 0.20791 0.49957 0.0
C3173 C 0.83274 0.21605 0.49396 0.0
C3174 C 0.83254 0.21597 0.51651 0.0
C3175 C 0.83797 0.22407 0.49998 0.0
C3176 C 0.83839 0.22434 0.53395 0.0
C3177 C 0.82779 0.20823 0.54523 0.0
N3178 N 0.83774 0.22382 0.51088 0.0
N3179 N 0.82767 0.20839 0.53428 0.0
H3180 H 0.20308 0.85305 0.49496 0.0
H3181 H 0.21366 0.81891 0.54833 0.0
H3182 H 0.21337 0.82016 0.49459 0.0
H3183 H 0.20418 0.85205 0.54838 0.0
H3184 H 0.21236 0.81875 0.52872 0.0
H3185 H 0.20235 0.85242 0.51454 0.0
C3186 C 0.20519 0.84569 0.49899 0.0
C3187 C 0.20837 0.83667 0.49309 0.0
C3188 C 0.21052 0.82604 0.53303 0.0
C3189 C 0.20749 0.83587 0.5156 0.0
C3190 C 0.2112 0.82612 0.54424 0.0
C3191 C 0.20909 0.83553 0.55004 0.0
C3192 C 0.2077 0.83544 0.52754 0.0
C3193 C 0.20606 0.84467 0.54426 0.0
C3194 C 0.20473 0.84532 0.51019 0.0
C3195 C 0.21081 0.82729 0.49878 0.0
N3196 N 0.20549 0.8444 0.53336 0.0
N3197 N 0.21038 0.82715 0.50971 0.0
H3198 H 0.21489 0.22316 0.54933 0.0
H3199 H 0.20496 0.1891 0.49555 0.0
H3200 H 0.20548 0.18975 0.54896 0.0
H3201 H 0.2153 0.22225 0.49554 0.0
H3202 H 0.20404 0.18958 0.51512 0.0
H3203 H 0.21387 0.22341 0.5297 0.0
C3204 C 0.2125 0.2159 0.54514 0.0
C3205 C 0.21033 0.2064 0.55083 0.0
C3206 C 0.20647 0.19677 0.51086 0.0
C3207 C 0.20926 0.20661 0.52832 0.0
C3208 C 0.20705 0.19649 0.49966 0.0
C3209 C 0.21031 0.20562 0.49386 0.0
C3210 C 0.20919 0.20626 0.51636 0.0
C3211 C 0.21269 0.21503 0.49965 0.0
C3212 C 0.21199 0.21604 0.53392 0.0
C3213 C 0.20741 0.19721 0.54493 0.0
N3214 N 0.21215 0.21508 0.51057 0.0
N3215 N 0.20699 0.19755 0.53403 0.0
loop_
_geom_bond_atom_site_label_1
_geom_bond_atom_site_label_2
_geom_bond_distance
_geom_bond_site_symmetry_2
_ccdc_geom_bond_type
C0 C1 1.264 . S
C0 C5 1.479 . S
C0 C10 1.465 . S
C1 C0 1.264 . S
C1 C3 1.339 . S
C1 H28 0.931 . S
C2 C3 1.395 . S
C2 C4 1.320 . S
C3 C1 1.339 . S
C3 C2 1.395 . S
C3 H29 0.929 . S
C4 C2 1.320 . S
C4 C5 1.405 . S
C4 H30 0.930 . S
C5 C0 1.479 . S
C5 C4 1.405 . S
C5 H31 0.931 . S
U6 O7 2.454 . S
U6 O8 2.458 . S
U6 C9 2.984 . S
U6 C10 2.847 . S
U6 C23 2.882 . S
U6 O24 2.441 . S
U6 O25 2.420 . S
U6 O26 2.455 . S
U6 O27 2.449 . S
O7 U6 2.454 . S
O7 C9 1.353 . S
O8 U6 2.458 . S
O8 C9 1.286 . S
C9 U6 2.984 . S
C9 O7 1.353 . S
C9 O8 1.286 . S
C9 C11 1.363 . S
C10 C0 1.465 . S
C10 U6 2.847 . S
C10 O24 1.249 . S
C10 O25 1.202 . S
C11 C9 1.363 . S
C11 C13 1.408 . S
C11 C16 1.342 . S
C12 C13 1.310 . S
C12 C15 1.461 . S
C12 H32 0.932 . S
C13 C11 1.408 . S
C13 C12 1.310 . S
C13 H33 0.930 . S
C14 C15 1.474 . S
C14 C16 1.285 . S
C14 H34 0.929 . S
C15 C12 1.461 . S
C15 C14 1.474 . S
C16 C11 1.342 . S
C16 C14 1.285 . S
C16 H35 0.930 . S
C17 C20 1.424 . S
C17 C22 1.245 . S
C17 C23 1.428 . S
C18 C21 1.260 . S
C18 C22 1.477 . S
C18 H36 0.932 . S
C19 C20 1.384 . S
C19 C21 1.479 . S
C19 H37 0.929 . S
C20 C17 1.424 . S
C20 C19 1.384 . S
C20 H38 0.928 . S
C21 C18 1.260 . S
C21 C19 1.479 . S
C22 C17 1.245 . S
C22 C18 1.477 . S
C22 H39 0.932 . S
C23 U6 2.882 . S
C23 C17 1.428 . S
C23 O26 1.301 . S
C23 O27 1.282 . S
O24 U6 2.441 . S
O24 C10 1.249 . S
O25 U6 2.420 . S
O25 C10 1.202 . S
O26 U6 2.455 . S
O26 C23 1.301 . S
O27 U6 2.449 . S
O27 C23 1.282 . S
H28 C1 0.931 . S
H29 C3 0.929 . S
H30 C4 0.930 . S
H31 C5 0.931 . S
H32 C12 0.932 . S
H33 C13 0.930 . S
H34 C14 0.929 . S
H35 C16 0.930 . S
H36 C18 0.932 . S
H37 C19 0.929 . S
H38 C20 0.928 . S
H39 C22 0.932 . S
C40 C41 1.264 . S
C40 C45 1.479 . S
C40 C50 1.465 . S
C41 C40 1.264 . S
C41 C43 1.339 . S
C41 H68 0.931 . S
C42 C43 1.395 . S
C42 C44 1.320 . S
C43 C41 1.339 . S
C43 C42 1.395 . S
C43 H69 0.929 . S
C44 C42 1.320 . S
C44 C45 1.405 . S
C44 H70 0.930 . S
C45 C40 1.479 . S
C45 C44 1.405 . S
C45 H71 0.931 . S
U46 O47 2.454 . S
U46 O48 2.458 . S
U46 C49 2.984 . S
U46 C50 2.847 . S
U46 C63 2.882 . S
U46 O64 2.441 . S
U46 O65 2.420 . S
U46 O66 2.455 . S
U46 O67 2.449 . S
O47 U46 2.454 . S
O47 C49 1.353 . S
O48 U46 2.458 . S
O48 C49 1.286 . S
C49 U46 2.984 . S
C49 O47 1.353 . S
C49 O48 1.286 . S
C49 C51 1.363 . S
C50 C40 1.465 . S
C50 U46 2.847 . S
C50 O64 1.249 . S
C50 O65 1.202 . S
C51 C49 1.363 . S
C51 C53 1.408 . S
C51 C56 1.342 . S
C52 C53 1.310 . S
C52 C55 1.461 . S
C52 H72 0.932 . S
C53 C51 1.408 . S
C53 C52 1.310 . S
C53 H73 0.930 . S
C54 C55 1.474 . S
C54 C56 1.285 . S
C54 H74 0.929 . S
C55 C52 1.461 . S
C55 C54 1.474 . S
C56 C51 1.342 . S
C56 C54 1.285 . S
C56 H75 0.930 . S
C57 C60 1.424 . S
C57 C62 1.245 . S
C57 C63 1.428 . S
C58 C61 1.260 . S
C58 C62 1.477 . S
C58 H76 0.932 . S
C59 C60 1.384 . S
C59 C61 1.479 . S
C59 H77 0.929 . S
C60 C57 1.424 . S
C60 C59 1.384 . S
C60 H78 0.928 . S
C61 C58 1.260 . S
C61 C59 1.479 . S
C62 C57 1.245 . S
C62 C58 1.477 . S
C62 H79 0.932 . S
C63 U46 2.882 . S
C63 C57 1.428 . S
C63 O66 1.301 . S
C63 O67 1.282 . S
O64 U46 2.441 . S
O64 C50 1.249 . S
O65 U46 2.420 . S
O65 C50 1.202 . S
O66 U46 2.455 . S
O66 C63 1.301 . S
O67 U46 2.449 . S
O67 C63 1.282 . S
H68 C41 0.931 . S
H69 C43 0.929 . S
H70 C44 0.930 . S
H71 C45 0.931 . S
H72 C52 0.932 . S
H73 C53 0.930 . S
H74 C54 0.929 . S
H75 C56 0.930 . S
H76 C58 0.932 . S
H77 C59 0.929 . S
H78 C60 0.928 . S
H79 C62 0.932 . S
C80 C81 1.264 . S
C80 C85 1.479 . S
C80 C90 1.465 . S
C81 C80 1.264 . S
C81 C83 1.339 . S
C81 H108 0.931 . S
C82 C83 1.395 . S
C82 C84 1.320 . S
C83 C81 1.339 . S
C83 C82 1.395 . S
C83 H109 0.929 . S
C84 C82 1.320 . S
C84 C85 1.405 . S
C84 H110 0.930 . S
C85 C80 1.479 . S
C85 C84 1.405 . S
C85 H111 0.931 . S
U86 O87 2.454 . S
U86 O88 2.458 . S
U86 C89 2.984 . S
U86 C90 2.847 . S
U86 C103 2.882 . S
U86 O104 2.441 . S
U86 O105 2.420 . S
U86 O106 2.455 . S
U86 O107 2.449 . S
O87 U86 2.454 . S
O87 C89 1.353 . S
O88 U86 2.458 . S
O88 C89 1.286 . S
C89 U86 2.984 . S
C89 O87 1.353 . S
C89 O88 1.286 . S
C89 C91 1.363 . S
C90 C80 1.465 . S
C90 U86 2.847 . S
C90 O104 1.249 . S
C90 O105 1.202 . S
C91 C89 1.363 . S
C91 C93 1.408 . S
C91 C96 1.342 . S
C92 C93 1.310 . S
C92 C95 1.461 . S
C92 H112 0.932 . S
C93 C91 1.408 . S
C93 C92 1.310 . S
C93 H113 0.930 . S
C94 C95 1.474 . S
C94 C96 1.285 . S
C94 H114 0.929 . S
C95 C92 1.461 . S
C95 C94 1.474 . S
C96 C91 1.342 . S
C96 C94 1.285 . S
C96 H115 0.930 . S
C97 C100 1.424 . S
C97 C102 1.245 . S
C97 C103 1.428 . S
C98 C101 1.260 . S
C98 C102 1.477 . S
C98 H116 0.932 . S
C99 C100 1.384 . S
C99 C101 1.479 . S
C99 H117 0.929 . S
C100 C97 1.424 . S
C100 C99 1.384 . S
C100 H118 0.928 . S
C101 C98 1.260 . S
C101 C99 1.479 . S
C102 C97 1.245 . S
C102 C98 1.477 . S
C102 H119 0.932 . S
C103 U86 2.882 . S
C103 C97 1.428 . S
C103 O106 1.301 . S
C103 O107 1.282 . S
O104 U86 2.441 . S
O104 C90 1.249 . S
O105 U86 2.420 . S
O105 C90 1.202 . S
O106 U86 2.455 . S
O106 C103 1.301 . S
O107 U86 2.449 . S
O107 C103 1.282 . S
H108 C81 0.931 . S
H109 C83 0.929 . S
H110 C84 0.930 . S
H111 C85 0.931 . S
H112 C92 0.932 . S
H113 C93 0.930 . S
H114 C94 0.929 . S
H115 C96 0.930 . S
H116 C98 0.932 . S
H117 C99 0.929 . S
H118 C100 0.928 . S
H119 C102 0.932 . S
C120 C121 1.264 . S
C120 C125 1.479 . S
C120 C130 1.465 . S
C121 C120 1.264 . S
C121 C123 1.339 . S
C121 H148 0.931 . S
C122 C123 1.395 . S
C122 C124 1.320 . S
C123 C121 1.339 . S
C123 C122 1.395 . S
C123 H149 0.929 . S
C124 C122 1.320 . S
C124 C125 1.405 . S
C124 H150 0.930 . S
C125 C120 1.479 . S
C125 C124 1.405 . S
C125 H151 0.931 . S
U126 O127 2.454 . S
U126 O128 2.458 . S
U126 C129 2.984 . S
U126 C130 2.847 . S
U126 C143 2.882 . S
U126 O144 2.441 . S
U126 O145 2.420 . S
U126 O146 2.455 . S
U126 O147 2.449 . S
O127 U126 2.454 . S
O127 C129 1.353 . S
O128 U126 2.458 . S
O128 C129 1.286 . S
C129 U126 2.984 . S
C129 O127 1.353 . S
C129 O128 1.286 . S
C129 C131 1.363 . S
C130 C120 1.465 . S
C130 U126 2.847 . S
C130 O144 1.249 . S
C130 O145 1.202 . S
C131 C129 1.363 . S
C131 C133 1.408 . S
C131 C136 1.342 . S
C132 C133 1.310 . S
C132 C135 1.461 . S
C132 H152 0.932 . S
C133 C131 1.408 . S
C133 C132 1.310 . S
C133 H153 0.930 . S
C134 C135 1.474 . S
C134 C136 1.285 . S
C134 H154 0.929 . S
C135 C132 1.461 . S
C135 C134 1.474 . S
C136 C131 1.342 . S
C136 C134 1.285 . S
C136 H155 0.930 . S
C137 C140 1.424 . S
C137 C142 1.245 . S
C137 C143 1.428 . S
C138 C141 1.260 . S
C138 C142 1.477 . S
C138 H156 0.932 . S
C139 C140 1.384 . S
C139 C141 1.479 . S
C139 H157 0.929 . S
C140 C137 1.424 . S
C140 C139 1.384 . S
C140 H158 0.928 . S
C141 C138 1.260 . S
C141 C139 1.479 . S
C142 C137 1.245 . S
C142 C138 1.477 . S
C142 H159 0.932 . S
C143 U126 2.882 . S
C143 C137 1.428 . S
C143 O146 1.301 . S
C143 O147 1.282 . S
O144 U126 2.441 . S
O144 C130 1.249 . S
O145 U126 2.420 . S
O145 C130 1.202 . S
O146 U126 2.455 . S
O146 C143 1.301 . S
O147 U126 2.449 . S
O147 C143 1.282 . S
H148 C121 0.931 . S
H149 C123 0.929 . S
H150 C124 0.930 . S
H151 C125 0.931 . S
H152 C132 0.932 . S
H153 C133 0.930 . S
H154 C134 0.929 . S
H155 C136 0.930 . S
H156 C138 0.932 . S
H157 C139 0.929 . S
H158 C140 0.928 . S
H159 C142 0.932 . S
C160 C161 1.264 . S
C160 C165 1.479 . S
C160 C170 1.465 . S
C161 C160 1.264 . S
C161 C163 1.339 . S
C161 H188 0.931 . S
C162 C163 1.395 . S
C162 C164 1.320 . S
C163 C161 1.339 . S
C163 C162 1.395 . S
C163 H189 0.929 . S
C164 C162 1.320 . S
C164 C165 1.405 . S
C164 H190 0.930 . S
C165 C160 1.479 . S
C165 C164 1.405 . S
C165 H191 0.931 . S
U166 O167 2.454 . S
U166 O168 2.458 . S
U166 C169 2.984 . S
U166 C170 2.847 . S
U166 C183 2.882 . S
U166 O184 2.441 . S
U166 O185 2.420 . S
U166 O186 2.455 . S
U166 O187 2.449 . S
O167 U166 2.454 . S
O167 C169 1.353 . S
O168 U166 2.458 . S
O168 C169 1.286 . S
C169 U166 2.984 . S
C169 O167 1.353 . S
C169 O168 1.286 . S
C169 C171 1.363 . S
C170 C160 1.465 . S
C170 U166 2.847 . S
C170 O184 1.249 . S
C170 O185 1.202 . S
C171 C169 1.363 . S
C171 C173 1.408 . S
C171 C176 1.342 . S
C172 C173 1.310 . S
C172 C175 1.461 . S
C172 H192 0.932 . S
C173 C171 1.408 . S
C173 C172 1.310 . S
C173 H193 0.930 . S
C174 C175 1.474 . S
C174 C176 1.285 . S
C174 H194 0.929 . S
C175 C172 1.461 . S
C175 C174 1.474 . S
C176 C171 1.342 . S
C176 C174 1.285 . S
C176 H195 0.930 . S
C177 C180 1.424 . S
C177 C182 1.245 . S
C177 C183 1.428 . S
C178 C181 1.260 . S
C178 C182 1.477 . S
C178 H196 0.932 . S
C179 C180 1.384 . S
C179 C181 1.479 . S
C179 H197 0.929 . S
C180 C177 1.424 . S
C180 C179 1.384 . S
C180 H198 0.928 . S
C181 C178 1.260 . S
C181 C179 1.479 . S
C182 C177 1.245 . S
C182 C178 1.477 . S
C182 H199 0.932 . S
C183 U166 2.882 . S
C183 C177 1.428 . S
C183 O186 1.301 . S
C183 O187 1.282 . S
O184 U166 2.441 . S
O184 C170 1.249 . S
O185 U166 2.420 . S
O185 C170 1.202 . S
O186 U166 2.455 . S
O186 C183 1.301 . S
O187 U166 2.449 . S
O187 C183 1.282 . S
H188 C161 0.931 . S
H189 C163 0.929 . S
H190 C164 0.930 . S
H191 C165 0.931 . S
H192 C172 0.932 . S
H193 C173 0.930 . S
H194 C174 0.929 . S
H195 C176 0.930 . S
H196 C178 0.932 . S
H197 C179 0.929 . S
H198 C180 0.928 . S
H199 C182 0.932 . S
C200 C201 1.264 . S
C200 C205 1.479 . S
C200 C210 1.465 . S
C201 C200 1.264 . S
C201 C203 1.339 . S
C201 H228 0.931 . S
C202 C203 1.395 . S
C202 C204 1.320 . S
C203 C201 1.339 . S
C203 C202 1.395 . S
C203 H229 0.929 . S
C204 C202 1.320 . S
C204 C205 1.405 . S
C204 H230 0.930 . S
C205 C200 1.479 . S
C205 C204 1.405 . S
C205 H231 0.931 . S
U206 O207 2.454 . S
U206 O208 2.458 . S
U206 C209 2.984 . S
U206 C210 2.847 . S
U206 C223 2.882 . S
U206 O224 2.441 . S
U206 O225 2.420 . S
U206 O226 2.455 . S
U206 O227 2.449 . S
O207 U206 2.454 . S
O207 C209 1.353 . S
O208 U206 2.458 . S
O208 C209 1.286 . S
C209 U206 2.984 . S
C209 O207 1.353 . S
C209 O208 1.286 . S
C209 C211 1.363 . S
C210 C200 1.465 . S
C210 U206 2.847 . S
C210 O224 1.249 . S
C210 O225 1.202 . S
C211 C209 1.363 . S
C211 C213 1.408 . S
C211 C216 1.342 . S
C212 C213 1.310 . S
C212 C215 1.461 . S
C212 H232 0.932 . S
C213 C211 1.408 . S
C213 C212 1.310 . S
C213 H233 0.930 . S
C214 C215 1.474 . S
C214 C216 1.285 . S
C214 H234 0.929 . S
C215 C212 1.461 . S
C215 C214 1.474 . S
C216 C211 1.342 . S
C216 C214 1.285 . S
C216 H235 0.930 . S
C217 C220 1.424 . S
C217 C222 1.245 . S
C217 C223 1.428 . S
C218 C221 1.260 . S
C218 C222 1.477 . S
C218 H236 0.932 . S
C219 C220 1.384 . S
C219 C221 1.479 . S
C219 H237 0.929 . S
C220 C217 1.424 . S
C220 C219 1.384 . S
C220 H238 0.928 . S
C221 C218 1.260 . S
C221 C219 1.479 . S
C222 C217 1.245 . S
C222 C218 1.477 . S
C222 H239 0.932 . S
C223 U206 2.882 . S
C223 C217 1.428 . S
C223 O226 1.301 . S
C223 O227 1.282 . S
O224 U206 2.441 . S
O224 C210 1.249 . S
O225 U206 2.420 . S
O225 C210 1.202 . S
O226 U206 2.455 . S
O226 C223 1.301 . S
O227 U206 2.449 . S
O227 C223 1.282 . S
H228 C201 0.931 . S
H229 C203 0.929 . S
H230 C204 0.930 . S
H231 C205 0.931 . S
H232 C212 0.932 . S
H233 C213 0.930 . S
H234 C214 0.929 . S
H235 C216 0.930 . S
H236 C218 0.932 . S
H237 C219 0.929 . S
H238 C220 0.928 . S
H239 C222 0.932 . S
C240 C241 1.264 . S
C240 C245 1.479 . S
C240 C250 1.465 . S
C241 C240 1.264 . S
C241 C243 1.339 . S
C241 H268 0.931 . S
C242 C243 1.395 . S
C242 C244 1.320 . S
C243 C241 1.339 . S
C243 C242 1.395 . S
C243 H269 0.929 . S
C244 C242 1.320 . S
C244 C245 1.405 . S
C244 H270 0.930 . S
C245 C240 1.479 . S
C245 C244 1.405 . S
C245 H271 0.931 . S
U246 O247 2.454 . S
U246 O248 2.458 . S
U246 C249 2.984 . S
U246 C250 2.847 . S
U246 C263 2.882 . S
U246 O264 2.441 . S
U246 O265 2.420 . S
U246 O266 2.455 . S
U246 O267 2.449 . S
O247 U246 2.454 . S
O247 C249 1.353 . S
O248 U246 2.458 . S
O248 C249 1.286 . S
C249 U246 2.984 . S
C249 O247 1.353 . S
C249 O248 1.286 . S
C249 C251 1.363 . S
C250 C240 1.465 . S
C250 U246 2.847 . S
C250 O264 1.249 . S
C250 O265 1.202 . S
C251 C249 1.363 . S
C251 C253 1.408 . S
C251 C256 1.342 . S
C252 C253 1.310 . S
C252 C255 1.461 . S
C252 H272 0.932 . S
C253 C251 1.408 . S
C253 C252 1.310 . S
C253 H273 0.930 . S
C254 C255 1.474 . S
C254 C256 1.285 . S
C254 H274 0.929 . S
C255 C252 1.461 . S
C255 C254 1.474 . S
C256 C251 1.342 . S
C256 C254 1.285 . S
C256 H275 0.930 . S
C257 C260 1.424 . S
C257 C262 1.245 . S
C257 C263 1.428 . S
C258 C261 1.260 . S
C258 C262 1.477 . S
C258 H276 0.932 . S
C259 C260 1.384 . S
C259 C261 1.479 . S
C259 H277 0.929 . S
C260 C257 1.424 . S
C260 C259 1.384 . S
C260 H278 0.928 . S
C261 C258 1.260 . S
C261 C259 1.479 . S
C262 C257 1.245 . S
C262 C258 1.477 . S
C262 H279 0.932 . S
C263 U246 2.882 . S
C263 C257 1.428 . S
C263 O266 1.301 . S
C263 O267 1.282 . S
O264 U246 2.441 . S
O264 C250 1.249 . S
O265 U246 2.420 . S
O265 C250 1.202 . S
O266 U246 2.455 . S
O266 C263 1.301 . S
O267 U246 2.449 . S
O267 C263 1.282 . S
H268 C241 0.931 . S
H269 C243 0.929 . S
H270 C244 0.930 . S
H271 C245 0.931 . S
H272 C252 0.932 . S
H273 C253 0.930 . S
H274 C254 0.929 . S
H275 C256 0.930 . S
H276 C258 0.932 . S
H277 C259 0.929 . S
H278 C260 0.928 . S
H279 C262 0.932 . S
C280 C281 1.264 . S
C280 C285 1.479 . S
C280 C290 1.465 . S
C281 C280 1.264 . S
C281 C283 1.339 . S
C281 H308 0.931 . S
C282 C283 1.395 . S
C282 C284 1.320 . S
C283 C281 1.339 . S
C283 C282 1.395 . S
C283 H309 0.929 . S
C284 C282 1.320 . S
C284 C285 1.405 . S
C284 H310 0.930 . S
C285 C280 1.479 . S
C285 C284 1.405 . S
C285 H311 0.931 . S
U286 O287 2.454 . S
U286 O288 2.458 . S
U286 C289 2.984 . S
U286 C290 2.847 . S
U286 C303 2.882 . S
U286 O304 2.441 . S
U286 O305 2.420 . S
U286 O306 2.455 . S
U286 O307 2.449 . S
O287 U286 2.454 . S
O287 C289 1.353 . S
O288 U286 2.458 . S
O288 C289 1.286 . S
C289 U286 2.984 . S
C289 O287 1.353 . S
C289 O288 1.286 . S
C289 C291 1.363 . S
C290 C280 1.465 . S
C290 U286 2.847 . S
C290 O304 1.249 . S
C290 O305 1.202 . S
C291 C289 1.363 . S
C291 C293 1.408 . S
C291 C296 1.342 . S
C292 C293 1.310 . S
C292 C295 1.461 . S
C292 H312 0.932 . S
C293 C291 1.408 . S
C293 C292 1.310 . S
C293 H313 0.930 . S
C294 C295 1.474 . S
C294 C296 1.285 . S
C294 H314 0.929 . S
C295 C292 1.461 . S
C295 C294 1.474 . S
C296 C291 1.342 . S
C296 C294 1.285 . S
C296 H315 0.930 . S
C297 C300 1.424 . S
C297 C302 1.245 . S
C297 C303 1.428 . S
C298 C301 1.260 . S
C298 C302 1.477 . S
C298 H316 0.932 . S
C299 C300 1.384 . S
C299 C301 1.479 . S
C299 H317 0.929 . S
C300 C297 1.424 . S
C300 C299 1.384 . S
C300 H318 0.928 . S
C301 C298 1.260 . S
C301 C299 1.479 . S
C302 C297 1.245 . S
C302 C298 1.477 . S
C302 H319 0.932 . S
C303 U286 2.882 . S
C303 C297 1.428 . S
C303 O306 1.301 . S
C303 O307 1.282 . S
O304 U286 2.441 . S
O304 C290 1.249 . S
O305 U286 2.420 . S
O305 C290 1.202 . S
O306 U286 2.455 . S
O306 C303 1.301 . S
O307 U286 2.449 . S
O307 C303 1.282 . S
H308 C281 0.931 . S
H309 C283 0.929 . S
H310 C284 0.930 . S
H311 C285 0.931 . S
H312 C292 0.932 . S
H313 C293 0.930 . S
H314 C294 0.929 . S
H315 C296 0.930 . S
H316 C298 0.932 . S
H317 C299 0.929 . S
H318 C300 0.928 . S
H319 C302 0.932 . S
C320 C321 1.264 . S
C320 C325 1.479 . S
C320 C330 1.465 . S
C321 C320 1.264 . S
C321 C323 1.339 . S
C321 H348 0.931 . S
C322 C323 1.395 . S
C322 C324 1.320 . S
C323 C321 1.339 . S
C323 C322 1.395 . S
C323 H349 0.929 . S
C324 C322 1.320 . S
C324 C325 1.405 . S
C324 H350 0.930 . S
C325 C320 1.479 . S
C325 C324 1.405 . S
C325 H351 0.931 . S
U326 O327 2.454 . S
U326 O328 2.458 . S
U326 C329 2.984 . S
U326 C330 2.847 . S
U326 C343 2.882 . S
U326 O344 2.441 . S
U326 O345 2.420 . S
U326 O346 2.455 . S
U326 O347 2.449 . S
O327 U326 2.454 . S
O327 C329 1.353 . S
O328 U326 2.458 . S
O328 C329 1.286 . S
C329 U326 2.984 . S
C329 O327 1.353 . S
C329 O328 1.286 . S
C329 C331 1.363 . S
C330 C320 1.465 . S
C330 U326 2.847 . S
C330 O344 1.249 . S
C330 O345 1.202 . S
C331 C329 1.363 . S
C331 C333 1.408 . S
C331 C336 1.342 . S
C332 C333 1.310 . S
C332 C335 1.461 . S
C332 H352 0.932 . S
C333 C331 1.408 . S
C333 C332 1.310 . S
C333 H353 0.930 . S
C334 C335 1.474 . S
C334 C336 1.285 . S
C334 H354 0.929 . S
C335 C332 1.461 . S
C335 C334 1.474 . S
C336 C331 1.342 . S
C336 C334 1.285 . S
C336 H355 0.930 . S
C337 C340 1.424 . S
C337 C342 1.245 . S
C337 C343 1.428 . S
C338 C341 1.260 . S
C338 C342 1.477 . S
C338 H356 0.932 . S
C339 C340 1.384 . S
C339 C341 1.479 . S
C339 H357 0.929 . S
C340 C337 1.424 . S
C340 C339 1.384 . S
C340 H358 0.928 . S
C341 C338 1.260 . S
C341 C339 1.479 . S
C342 C337 1.245 . S
C342 C338 1.477 . S
C342 H359 0.932 . S
C343 U326 2.882 . S
C343 C337 1.428 . S
C343 O346 1.301 . S
C343 O347 1.282 . S
O344 U326 2.441 . S
O344 C330 1.249 . S
O345 U326 2.420 . S
O345 C330 1.202 . S
O346 U326 2.455 . S
O346 C343 1.301 . S
O347 U326 2.449 . S
O347 C343 1.282 . S
H348 C321 0.931 . S
H349 C323 0.929 . S
H350 C324 0.930 . S
H351 C325 0.931 . S
H352 C332 0.932 . S
H353 C333 0.930 . S
H354 C334 0.929 . S
H355 C336 0.930 . S
H356 C338 0.932 . S
H357 C339 0.929 . S
H358 C340 0.928 . S
H359 C342 0.932 . S
C360 C361 1.264 . S
C360 C365 1.479 . S
C360 C370 1.465 . S
C361 C360 1.264 . S
C361 C363 1.339 . S
C361 H388 0.931 . S
C362 C363 1.395 . S
C362 C364 1.320 . S
C363 C361 1.339 . S
C363 C362 1.395 . S
C363 H389 0.929 . S
C364 C362 1.320 . S
C364 C365 1.405 . S
C364 H390 0.930 . S
C365 C360 1.479 . S
C365 C364 1.405 . S
C365 H391 0.931 . S
U366 O367 2.454 . S
U366 O368 2.458 . S
U366 C369 2.984 . S
U366 C370 2.847 . S
U366 C383 2.882 . S
U366 O384 2.441 . S
U366 O385 2.420 . S
U366 O386 2.455 . S
U366 O387 2.449 . S
O367 U366 2.454 . S
O367 C369 1.353 . S
O368 U366 2.458 . S
O368 C369 1.286 . S
C369 U366 2.984 . S
C369 O367 1.353 . S
C369 O368 1.286 . S
C369 C371 1.363 . S
C370 C360 1.465 . S
C370 U366 2.847 . S
C370 O384 1.249 . S
C370 O385 1.202 . S
C371 C369 1.363 . S
C371 C373 1.408 . S
C371 C376 1.342 . S
C372 C373 1.310 . S
C372 C375 1.461 . S
C372 H392 0.932 . S
C373 C371 1.408 . S
C373 C372 1.310 . S
C373 H393 0.930 . S
C374 C375 1.474 . S
C374 C376 1.285 . S
C374 H394 0.929 . S
C375 C372 1.461 . S
C375 C374 1.474 . S
C376 C371 1.342 . S
C376 C374 1.285 . S
C376 H395 0.930 . S
C377 C380 1.424 . S
C377 C382 1.245 . S
C377 C383 1.428 . S
C378 C381 1.260 . S
C378 C382 1.477 . S
C378 H396 0.932 . S
C379 C380 1.384 . S
C379 C381 1.479 . S
C379 H397 0.929 . S
C380 C377 1.424 . S
C380 C379 1.384 . S
C380 H398 0.928 . S
C381 C378 1.260 . S
C381 C379 1.479 . S
C382 C377 1.245 . S
C382 C378 1.477 . S
C382 H399 0.932 . S
C383 U366 2.882 . S
C383 C377 1.428 . S
C383 O386 1.301 . S
C383 O387 1.282 . S
O384 U366 2.441 . S
O384 C370 1.249 . S
O385 U366 2.420 . S
O385 C370 1.202 . S
O386 U366 2.455 . S
O386 C383 1.301 . S
O387 U366 2.449 . S
O387 C383 1.282 . S
H388 C361 0.931 . S
H389 C363 0.929 . S
H390 C364 0.930 . S
H391 C365 0.931 . S
H392 C372 0.932 . S
H393 C373 0.930 . S
H394 C374 0.929 . S
H395 C376 0.930 . S
H396 C378 0.932 . S
H397 C379 0.929 . S
H398 C380 0.928 . S
H399 C382 0.932 . S
C400 C401 1.264 . S
C400 C405 1.479 . S
C400 C410 1.465 . S
C401 C400 1.264 . S
C401 C403 1.339 . S
C401 H428 0.931 . S
C402 C403 1.395 . S
C402 C404 1.320 . S
C403 C401 1.339 . S
C403 C402 1.395 . S
C403 H429 0.929 . S
C404 C402 1.320 . S
C404 C405 1.405 . S
C404 H430 0.930 . S
C405 C400 1.479 . S
C405 C404 1.405 . S
C405 H431 0.931 . S
U406 O407 2.454 . S
U406 O408 2.458 . S
U406 C409 2.984 . S
U406 C410 2.847 . S
U406 C423 2.882 . S
U406 O424 2.441 . S
U406 O425 2.420 . S
U406 O426 2.455 . S
U406 O427 2.449 . S
O407 U406 2.454 . S
O407 C409 1.353 . S
O408 U406 2.458 . S
O408 C409 1.286 . S
C409 U406 2.984 . S
C409 O407 1.353 . S
C409 O408 1.286 . S
C409 C411 1.363 . S
C410 C400 1.465 . S
C410 U406 2.847 . S
C410 O424 1.249 . S
C410 O425 1.202 . S
C411 C409 1.363 . S
C411 C413 1.408 . S
C411 C416 1.342 . S
C412 C413 1.310 . S
C412 C415 1.461 . S
C412 H432 0.932 . S
C413 C411 1.408 . S
C413 C412 1.310 . S
C413 H433 0.930 . S
C414 C415 1.474 . S
C414 C416 1.285 . S
C414 H434 0.929 . S
C415 C412 1.461 . S
C415 C414 1.474 . S
C416 C411 1.342 . S
C416 C414 1.285 . S
C416 H435 0.930 . S
C417 C420 1.424 . S
C417 C422 1.245 . S
C417 C423 1.428 . S
C418 C421 1.260 . S
C418 C422 1.477 . S
C418 H436 0.932 . S
C419 C420 1.384 . S
C419 C421 1.479 . S
C419 H437 0.929 . S
C420 C417 1.424 . S
C420 C419 1.384 . S
C420 H438 0.928 . S
C421 C418 1.260 . S
C421 C419 1.479 . S
C422 C417 1.245 . S
C422 C418 1.477 . S
C422 H439 0.932 . S
C423 U406 2.882 . S
C423 C417 1.428 . S
C423 O426 1.301 . S
C423 O427 1.282 . S
O424 U406 2.441 . S
O424 C410 1.249 . S
O425 U406 2.420 . S
O425 C410 1.202 . S
O426 U406 2.455 . S
O426 C423 1.301 . S
O427 U406 2.449 . S
O427 C423 1.282 . S
H428 C401 0.931 . S
H429 C403 0.929 . S
H430 C404 0.930 . S
H431 C405 0.931 . S
H432 C412 0.932 . S
H433 C413 0.930 . S
H434 C414 0.929 . S
H435 C416 0.930 . S
H436 C418 0.932 . S
H437 C419 0.929 . S
H438 C420 0.928 . S
H439 C422 0.932 . S
C440 C441 1.264 . S
C440 C445 1.479 . S
C440 C450 1.465 . S
C441 C440 1.264 . S
C441 C443 1.339 . S
C441 H468 0.931 . S
C442 C443 1.395 . S
C442 C444 1.320 . S
C443 C441 1.339 . S
C443 C442 1.395 . S
C443 H469 0.929 . S
C444 C442 1.320 . S
C444 C445 1.405 . S
C444 H470 0.930 . S
C445 C440 1.479 . S
C445 C444 1.405 . S
C445 H471 0.931 . S
U446 O447 2.454 . S
U446 O448 2.458 . S
U446 C449 2.984 . S
U446 C450 2.847 . S
U446 C463 2.882 . S
U446 O464 2.441 . S
U446 O465 2.420 . S
U446 O466 2.455 . S
U446 O467 2.449 . S
O447 U446 2.454 . S
O447 C449 1.353 . S
O448 U446 2.458 . S
O448 C449 1.286 . S
C449 U446 2.984 . S
C449 O447 1.353 . S
C449 O448 1.286 . S
C449 C451 1.363 . S
C450 C440 1.465 . S
C450 U446 2.847 . S
C450 O464 1.249 . S
C450 O465 1.202 . S
C451 C449 1.363 . S
C451 C453 1.408 . S
C451 C456 1.342 . S
C452 C453 1.310 . S
C452 C455 1.461 . S
C452 H472 0.932 . S
C453 C451 1.408 . S
C453 C452 1.310 . S
C453 H473 0.930 . S
C454 C455 1.474 . S
C454 C456 1.285 . S
C454 H474 0.929 . S
C455 C452 1.461 . S
C455 C454 1.474 . S
C456 C451 1.342 . S
C456 C454 1.285 . S
C456 H475 0.930 . S
C457 C460 1.424 . S
C457 C462 1.245 . S
C457 C463 1.428 . S
C458 C461 1.260 . S
C458 C462 1.477 . S
C458 H476 0.932 . S
C459 C460 1.384 . S
C459 C461 1.479 . S
C459 H477 0.929 . S
C460 C457 1.424 . S
C460 C459 1.384 . S
C460 H478 0.928 . S
C461 C458 1.260 . S
C461 C459 1.479 . S
C462 C457 1.245 . S
C462 C458 1.477 . S
C462 H479 0.932 . S
C463 U446 2.882 . S
C463 C457 1.428 . S
C463 O466 1.301 . S
C463 O467 1.282 . S
O464 U446 2.441 . S
O464 C450 1.249 . S
O465 U446 2.420 . S
O465 C450 1.202 . S
O466 U446 2.455 . S
O466 C463 1.301 . S
O467 U446 2.449 . S
O467 C463 1.282 . S
H468 C441 0.931 . S
H469 C443 0.929 . S
H470 C444 0.930 . S
H471 C445 0.931 . S
H472 C452 0.932 . S
H473 C453 0.930 . S
H474 C454 0.929 . S
H475 C456 0.930 . S
H476 C458 0.932 . S
H477 C459 0.929 . S
H478 C460 0.928 . S
H479 C462 0.932 . S
C480 C481 1.264 . S
C480 C485 1.479 . S
C480 C490 1.465 . S
C481 C480 1.264 . S
C481 C483 1.339 . S
C481 H508 0.931 . S
C482 C483 1.395 . S
C482 C484 1.320 . S
C483 C481 1.339 . S
C483 C482 1.395 . S
C483 H509 0.929 . S
C484 C482 1.320 . S
C484 C485 1.405 . S
C484 H510 0.930 . S
C485 C480 1.479 . S
C485 C484 1.405 . S
C485 H511 0.931 . S
U486 O487 2.454 . S
U486 O488 2.458 . S
U486 C489 2.984 . S
U486 C490 2.847 . S
U486 C503 2.882 . S
U486 O504 2.441 . S
U486 O505 2.420 . S
U486 O506 2.455 . S
U486 O507 2.449 . S
O487 U486 2.454 . S
O487 C489 1.353 . S
O488 U486 2.458 . S
O488 C489 1.286 . S
C489 U486 2.984 . S
C489 O487 1.353 . S
C489 O488 1.286 . S
C489 C491 1.363 . S
C490 C480 1.465 . S
C490 U486 2.847 . S
C490 O504 1.249 . S
C490 O505 1.202 . S
C491 C489 1.363 . S
C491 C493 1.408 . S
C491 C496 1.342 . S
C492 C493 1.310 . S
C492 C495 1.461 . S
C492 H512 0.932 . S
C493 C491 1.408 . S
C493 C492 1.310 . S
C493 H513 0.930 . S
C494 C495 1.474 . S
C494 C496 1.285 . S
C494 H514 0.929 . S
C495 C492 1.461 . S
C495 C494 1.474 . S
C496 C491 1.342 . S
C496 C494 1.285 . S
C496 H515 0.930 . S
C497 C500 1.424 . S
C497 C502 1.245 . S
C497 C503 1.428 . S
C498 C501 1.260 . S
C498 C502 1.477 . S
C498 H516 0.932 . S
C499 C500 1.384 . S
C499 C501 1.479 . S
C499 H517 0.929 . S
C500 C497 1.424 . S
C500 C499 1.384 . S
C500 H518 0.928 . S
C501 C498 1.260 . S
C501 C499 1.479 . S
C502 C497 1.245 . S
C502 C498 1.477 . S
C502 H519 0.932 . S
C503 U486 2.882 . S
C503 C497 1.428 . S
C503 O506 1.301 . S
C503 O507 1.282 . S
O504 U486 2.441 . S
O504 C490 1.249 . S
O505 U486 2.420 . S
O505 C490 1.202 . S
O506 U486 2.455 . S
O506 C503 1.301 . S
O507 U486 2.449 . S
O507 C503 1.282 . S
H508 C481 0.931 . S
H509 C483 0.929 . S
H510 C484 0.930 . S
H511 C485 0.931 . S
H512 C492 0.932 . S
H513 C493 0.930 . S
H514 C494 0.929 . S
H515 C496 0.930 . S
H516 C498 0.932 . S
H517 C499 0.929 . S
H518 C500 0.928 . S
H519 C502 0.932 . S
C520 C521 1.264 . S
C520 C525 1.479 . S
C520 C530 1.465 . S
C521 C520 1.264 . S
C521 C523 1.339 . S
C521 H548 0.931 . S
C522 C523 1.395 . S
C522 C524 1.320 . S
C523 C521 1.339 . S
C523 C522 1.395 . S
C523 H549 0.929 . S
C524 C522 1.320 . S
C524 C525 1.405 . S
C524 H550 0.930 . S
C525 C520 1.479 . S
C525 C524 1.405 . S
C525 H551 0.931 . S
U526 O527 2.454 . S
U526 O528 2.458 . S
U526 C529 2.984 . S
U526 C530 2.847 . S
U526 C543 2.882 . S
U526 O544 2.441 . S
U526 O545 2.420 . S
U526 O546 2.455 . S
U526 O547 2.449 . S
O527 U526 2.454 . S
O527 C529 1.353 . S
O528 U526 2.458 . S
O528 C529 1.286 . S
C529 U526 2.984 . S
C529 O527 1.353 . S
C529 O528 1.286 . S
C529 C531 1.363 . S
C530 C520 1.465 . S
C530 U526 2.847 . S
C530 O544 1.249 . S
C530 O545 1.202 . S
C531 C529 1.363 . S
C531 C533 1.408 . S
C531 C536 1.342 . S
C532 C533 1.310 . S
C532 C535 1.461 . S
C532 H552 0.932 . S
C533 C531 1.408 . S
C533 C532 1.310 . S
C533 H553 0.930 . S
C534 C535 1.474 . S
C534 C536 1.285 . S
C534 H554 0.929 . S
C535 C532 1.461 . S
C535 C534 1.474 . S
C536 C531 1.342 . S
C536 C534 1.285 . S
C536 H555 0.930 . S
C537 C540 1.424 . S
C537 C542 1.245 . S
C537 C543 1.428 . S
C538 C541 1.260 . S
C538 C542 1.477 . S
C538 H556 0.932 . S
C539 C540 1.384 . S
C539 C541 1.479 . S
C539 H557 0.929 . S
C540 C537 1.424 . S
C540 C539 1.384 . S
C540 H558 0.928 . S
C541 C538 1.260 . S
C541 C539 1.479 . S
C542 C537 1.245 . S
C542 C538 1.477 . S
C542 H559 0.932 . S
C543 U526 2.882 . S
C543 C537 1.428 . S
C543 O546 1.301 . S
C543 O547 1.282 . S
O544 U526 2.441 . S
O544 C530 1.249 . S
O545 U526 2.420 . S
O545 C530 1.202 . S
O546 U526 2.455 . S
O546 C543 1.301 . S
O547 U526 2.449 . S
O547 C543 1.282 . S
H548 C521 0.931 . S
H549 C523 0.929 . S
H550 C524 0.930 . S
H551 C525 0.931 . S
H552 C532 0.932 . S
H553 C533 0.930 . S
H554 C534 0.929 . S
H555 C536 0.930 . S
H556 C538 0.932 . S
H557 C539 0.929 . S
H558 C540 0.928 . S
H559 C542 0.932 . S
C560 C561 1.264 . S
C560 C565 1.479 . S
C560 C570 1.465 . S
C561 C560 1.264 . S
C561 C563 1.339 . S
C561 H588 0.931 . S
C562 C563 1.395 . S
C562 C564 1.320 . S
C563 C561 1.339 . S
C563 C562 1.395 . S
C563 H589 0.929 . S
C564 C562 1.320 . S
C564 C565 1.405 . S
C564 H590 0.930 . S
C565 C560 1.479 . S
C565 C564 1.405 . S
C565 H591 0.931 . S
U566 O567 2.454 . S
U566 O568 2.458 . S
U566 C569 2.984 . S
U566 C570 2.847 . S
U566 C583 2.882 . S
U566 O584 2.441 . S
U566 O585 2.420 . S
U566 O586 2.455 . S
U566 O587 2.449 . S
O567 U566 2.454 . S
O567 C569 1.353 . S
O568 U566 2.458 . S
O568 C569 1.286 . S
C569 U566 2.984 . S
C569 O567 1.353 . S
C569 O568 1.286 . S
C569 C571 1.363 . S
C570 C560 1.465 . S
C570 U566 2.847 . S
C570 O584 1.249 . S
C570 O585 1.202 . S
C571 C569 1.363 . S
C571 C573 1.408 . S
C571 C576 1.342 . S
C572 C573 1.310 . S
C572 C575 1.461 . S
C572 H592 0.932 . S
C573 C571 1.408 . S
C573 C572 1.310 . S
C573 H593 0.930 . S
C574 C575 1.474 . S
C574 C576 1.285 . S
C574 H594 0.929 . S
C575 C572 1.461 . S
C575 C574 1.474 . S
C576 C571 1.342 . S
C576 C574 1.285 . S
C576 H595 0.930 . S
C577 C580 1.424 . S
C577 C582 1.245 . S
C577 C583 1.428 . S
C578 C581 1.260 . S
C578 C582 1.477 . S
C578 H596 0.932 . S
C579 C580 1.384 . S
C579 C581 1.479 . S
C579 H597 0.929 . S
C580 C577 1.424 . S
C580 C579 1.384 . S
C580 H598 0.928 . S
C581 C578 1.260 . S
C581 C579 1.479 . S
C582 C577 1.245 . S
C582 C578 1.477 . S
C582 H599 0.932 . S
C583 U566 2.882 . S
C583 C577 1.428 . S
C583 O586 1.301 . S
C583 O587 1.282 . S
O584 U566 2.441 . S
O584 C570 1.249 . S
O585 U566 2.420 . S
O585 C570 1.202 . S
O586 U566 2.455 . S
O586 C583 1.301 . S
O587 U566 2.449 . S
O587 C583 1.282 . S
H588 C561 0.931 . S
H589 C563 0.929 . S
H590 C564 0.930 . S
H591 C565 0.931 . S
H592 C572 0.932 . S
H593 C573 0.930 . S
H594 C574 0.929 . S
H595 C576 0.930 . S
H596 C578 0.932 . S
H597 C579 0.929 . S
H598 C580 0.928 . S
H599 C582 0.932 . S
C600 C601 1.264 . S
C600 C605 1.479 . S
C600 C610 1.465 . S
C601 C600 1.264 . S
C601 C603 1.339 . S
C601 H628 0.931 . S
C602 C603 1.395 . S
C602 C604 1.320 . S
C603 C601 1.339 . S
C603 C602 1.395 . S
C603 H629 0.929 . S
C604 C602 1.320 . S
C604 C605 1.405 . S
C604 H630 0.930 . S
C605 C600 1.479 . S
C605 C604 1.405 . S
C605 H631 0.931 . S
U606 O607 2.454 . S
U606 O608 2.458 . S
U606 C609 2.984 . S
U606 C610 2.847 . S
U606 C623 2.882 . S
U606 O624 2.441 . S
U606 O625 2.420 . S
U606 O626 2.455 . S
U606 O627 2.449 . S
O607 U606 2.454 . S
O607 C609 1.353 . S
O608 U606 2.458 . S
O608 C609 1.286 . S
C609 U606 2.984 . S
C609 O607 1.353 . S
C609 O608 1.286 . S
C609 C611 1.363 . S
C610 C600 1.465 . S
C610 U606 2.847 . S
C610 O624 1.249 . S
C610 O625 1.202 . S
C611 C609 1.363 . S
C611 C613 1.408 . S
C611 C616 1.342 . S
C612 C613 1.310 . S
C612 C615 1.461 . S
C612 H632 0.932 . S
C613 C611 1.408 . S
C613 C612 1.310 . S
C613 H633 0.930 . S
C614 C615 1.474 . S
C614 C616 1.285 . S
C614 H634 0.929 . S
C615 C612 1.461 . S
C615 C614 1.474 . S
C616 C611 1.342 . S
C616 C614 1.285 . S
C616 H635 0.930 . S
C617 C620 1.424 . S
C617 C622 1.245 . S
C617 C623 1.428 . S
C618 C621 1.260 . S
C618 C622 1.477 . S
C618 H636 0.932 . S
C619 C620 1.384 . S
C619 C621 1.479 . S
C619 H637 0.929 . S
C620 C617 1.424 . S
C620 C619 1.384 . S
C620 H638 0.928 . S
C621 C618 1.260 . S
C621 C619 1.479 . S
C622 C617 1.245 . S
C622 C618 1.477 . S
C622 H639 0.932 . S
C623 U606 2.882 . S
C623 C617 1.428 . S
C623 O626 1.301 . S
C623 O627 1.282 . S
O624 U606 2.441 . S
O624 C610 1.249 . S
O625 U606 2.420 . S
O625 C610 1.202 . S
O626 U606 2.455 . S
O626 C623 1.301 . S
O627 U606 2.449 . S
O627 C623 1.282 . S
H628 C601 0.931 . S
H629 C603 0.929 . S
H630 C604 0.930 . S
H631 C605 0.931 . S
H632 C612 0.932 . S
H633 C613 0.930 . S
H634 C614 0.929 . S
H635 C616 0.930 . S
H636 C618 0.932 . S
H637 C619 0.929 . S
H638 C620 0.928 . S
H639 C622 0.932 . S
C640 C641 1.264 . S
C640 C645 1.479 . S
C640 C650 1.465 . S
C641 C640 1.264 . S
C641 C643 1.339 . S
C641 H668 0.931 . S
C642 C643 1.395 . S
C642 C644 1.320 . S
C643 C641 1.339 . S
C643 C642 1.395 . S
C643 H669 0.929 . S
C644 C642 1.320 . S
C644 C645 1.405 . S
C644 H670 0.930 . S
C645 C640 1.479 . S
C645 C644 1.405 . S
C645 H671 0.931 . S
U646 O647 2.454 . S
U646 O648 2.458 . S
U646 C649 2.984 . S
U646 C650 2.847 . S
U646 C663 2.882 . S
U646 O664 2.441 . S
U646 O665 2.420 . S
U646 O666 2.455 . S
U646 O667 2.449 . S
O647 U646 2.454 . S
O647 C649 1.353 . S
O648 U646 2.458 . S
O648 C649 1.286 . S
C649 U646 2.984 . S
C649 O647 1.353 . S
C649 O648 1.286 . S
C649 C651 1.363 . S
C650 C640 1.465 . S
C650 U646 2.847 . S
C650 O664 1.249 . S
C650 O665 1.202 . S
C651 C649 1.363 . S
C651 C653 1.408 . S
C651 C656 1.342 . S
C652 C653 1.310 . S
C652 C655 1.461 . S
C652 H672 0.932 . S
C653 C651 1.408 . S
C653 C652 1.310 . S
C653 H673 0.930 . S
C654 C655 1.474 . S
C654 C656 1.285 . S
C654 H674 0.929 . S
C655 C652 1.461 . S
C655 C654 1.474 . S
C656 C651 1.342 . S
C656 C654 1.285 . S
C656 H675 0.930 . S
C657 C660 1.424 . S
C657 C662 1.245 . S
C657 C663 1.428 . S
C658 C661 1.260 . S
C658 C662 1.477 . S
C658 H676 0.932 . S
C659 C660 1.384 . S
C659 C661 1.479 . S
C659 H677 0.929 . S
C660 C657 1.424 . S
C660 C659 1.384 . S
C660 H678 0.928 . S
C661 C658 1.260 . S
C661 C659 1.479 . S
C662 C657 1.245 . S
C662 C658 1.477 . S
C662 H679 0.932 . S
C663 U646 2.882 . S
C663 C657 1.428 . S
C663 O666 1.301 . S
C663 O667 1.282 . S
O664 U646 2.441 . S
O664 C650 1.249 . S
O665 U646 2.420 . S
O665 C650 1.202 . S
O666 U646 2.455 . S
O666 C663 1.301 . S
O667 U646 2.449 . S
O667 C663 1.282 . S
H668 C641 0.931 . S
H669 C643 0.929 . S
H670 C644 0.930 . S
H671 C645 0.931 . S
H672 C652 0.932 . S
H673 C653 0.930 . S
H674 C654 0.929 . S
H675 C656 0.930 . S
H676 C658 0.932 . S
H677 C659 0.929 . S
H678 C660 0.928 . S
H679 C662 0.932 . S
C680 C681 1.264 . S
C680 C685 1.479 . S
C680 C690 1.465 . S
C681 C680 1.264 . S
C681 C683 1.339 . S
C681 H708 0.931 . S
C682 C683 1.395 . S
C682 C684 1.320 . S
C683 C681 1.339 . S
C683 C682 1.395 . S
C683 H709 0.929 . S
C684 C682 1.320 . S
C684 C685 1.405 . S
C684 H710 0.930 . S
C685 C680 1.479 . S
C685 C684 1.405 . S
C685 H711 0.931 . S
U686 O687 2.454 . S
U686 O688 2.458 . S
U686 C689 2.984 . S
U686 C690 2.847 . S
U686 C703 2.882 . S
U686 O704 2.441 . S
U686 O705 2.420 . S
U686 O706 2.455 . S
U686 O707 2.449 . S
O687 U686 2.454 . S
O687 C689 1.353 . S
O688 U686 2.458 . S
O688 C689 1.286 . S
C689 U686 2.984 . S
C689 O687 1.353 . S
C689 O688 1.286 . S
C689 C691 1.363 . S
C690 C680 1.465 . S
C690 U686 2.847 . S
C690 O704 1.249 . S
C690 O705 1.202 . S
C691 C689 1.363 . S
C691 C693 1.408 . S
C691 C696 1.342 . S
C692 C693 1.310 . S
C692 C695 1.461 . S
C692 H712 0.932 . S
C693 C691 1.408 . S
C693 C692 1.310 . S
C693 H713 0.930 . S
C694 C695 1.474 . S
C694 C696 1.285 . S
C694 H714 0.929 . S
C695 C692 1.461 . S
C695 C694 1.474 . S
C696 C691 1.342 . S
C696 C694 1.285 . S
C696 H715 0.930 . S
C697 C700 1.424 . S
C697 C702 1.245 . S
C697 C703 1.428 . S
C698 C701 1.260 . S
C698 C702 1.477 . S
C698 H716 0.932 . S
C699 C700 1.384 . S
C699 C701 1.479 . S
C699 H717 0.929 . S
C700 C697 1.424 . S
C700 C699 1.384 . S
C700 H718 0.928 . S
C701 C698 1.260 . S
C701 C699 1.479 . S
C702 C697 1.245 . S
C702 C698 1.477 . S
C702 H719 0.932 . S
C703 U686 2.882 . S
C703 C697 1.428 . S
C703 O706 1.301 . S
C703 O707 1.282 . S
O704 U686 2.441 . S
O704 C690 1.249 . S
O705 U686 2.420 . S
O705 C690 1.202 . S
O706 U686 2.455 . S
O706 C703 1.301 . S
O707 U686 2.449 . S
O707 C703 1.282 . S
H708 C681 0.931 . S
H709 C683 0.929 . S
H710 C684 0.930 . S
H711 C685 0.931 . S
H712 C692 0.932 . S
H713 C693 0.930 . S
H714 C694 0.929 . S
H715 C696 0.930 . S
H716 C698 0.932 . S
H717 C699 0.929 . S
H718 C700 0.928 . S
H719 C702 0.932 . S
C720 C721 1.264 . S
C720 C725 1.479 . S
C720 C730 1.465 . S
C721 C720 1.264 . S
C721 C723 1.339 . S
C721 H748 0.931 . S
C722 C723 1.395 . S
C722 C724 1.320 . S
C723 C721 1.339 . S
C723 C722 1.395 . S
C723 H749 0.929 . S
C724 C722 1.320 . S
C724 C725 1.405 . S
C724 H750 0.930 . S
C725 C720 1.479 . S
C725 C724 1.405 . S
C725 H751 0.931 . S
U726 O727 2.454 . S
U726 O728 2.458 . S
U726 C729 2.984 . S
U726 C730 2.847 . S
U726 C743 2.882 . S
U726 O744 2.441 . S
U726 O745 2.420 . S
U726 O746 2.455 . S
U726 O747 2.449 . S
O727 U726 2.454 . S
O727 C729 1.353 . S
O728 U726 2.458 . S
O728 C729 1.286 . S
C729 U726 2.984 . S
C729 O727 1.353 . S
C729 O728 1.286 . S
C729 C731 1.363 . S
C730 C720 1.465 . S
C730 U726 2.847 . S
C730 O744 1.249 . S
C730 O745 1.202 . S
C731 C729 1.363 . S
C731 C733 1.408 . S
C731 C736 1.342 . S
C732 C733 1.310 . S
C732 C735 1.461 . S
C732 H752 0.932 . S
C733 C731 1.408 . S
C733 C732 1.310 . S
C733 H753 0.930 . S
C734 C735 1.474 . S
C734 C736 1.285 . S
C734 H754 0.929 . S
C735 C732 1.461 . S
C735 C734 1.474 . S
C736 C731 1.342 . S
C736 C734 1.285 . S
C736 H755 0.930 . S
C737 C740 1.424 . S
C737 C742 1.245 . S
C737 C743 1.428 . S
C738 C741 1.260 . S
C738 C742 1.477 . S
C738 H756 0.932 . S
C739 C740 1.384 . S
C739 C741 1.479 . S
C739 H757 0.929 . S
C740 C737 1.424 . S
C740 C739 1.384 . S
C740 H758 0.928 . S
C741 C738 1.260 . S
C741 C739 1.479 . S
C742 C737 1.245 . S
C742 C738 1.477 . S
C742 H759 0.932 . S
C743 U726 2.882 . S
C743 C737 1.428 . S
C743 O746 1.301 . S
C743 O747 1.282 . S
O744 U726 2.441 . S
O744 C730 1.249 . S
O745 U726 2.420 . S
O745 C730 1.202 . S
O746 U726 2.455 . S
O746 C743 1.301 . S
O747 U726 2.449 . S
O747 C743 1.282 . S
H748 C721 0.931 . S
H749 C723 0.929 . S
H750 C724 0.930 . S
H751 C725 0.931 . S
H752 C732 0.932 . S
H753 C733 0.930 . S
H754 C734 0.929 . S
H755 C736 0.930 . S
H756 C738 0.932 . S
H757 C739 0.929 . S
H758 C740 0.928 . S
H759 C742 0.932 . S
C760 C761 1.264 . S
C760 C765 1.479 . S
C760 C770 1.465 . S
C761 C760 1.264 . S
C761 C763 1.339 . S
C761 H788 0.931 . S
C762 C763 1.395 . S
C762 C764 1.320 . S
C763 C761 1.339 . S
C763 C762 1.395 . S
C763 H789 0.929 . S
C764 C762 1.320 . S
C764 C765 1.405 . S
C764 H790 0.930 . S
C765 C760 1.479 . S
C765 C764 1.405 . S
C765 H791 0.931 . S
U766 O767 2.454 . S
U766 O768 2.458 . S
U766 C769 2.984 . S
U766 C770 2.847 . S
U766 C783 2.882 . S
U766 O784 2.441 . S
U766 O785 2.420 . S
U766 O786 2.455 . S
U766 O787 2.449 . S
O767 U766 2.454 . S
O767 C769 1.353 . S
O768 U766 2.458 . S
O768 C769 1.286 . S
C769 U766 2.984 . S
C769 O767 1.353 . S
C769 O768 1.286 . S
C769 C771 1.363 . S
C770 C760 1.465 . S
C770 U766 2.847 . S
C770 O784 1.249 . S
C770 O785 1.202 . S
C771 C769 1.363 . S
C771 C773 1.408 . S
C771 C776 1.342 . S
C772 C773 1.310 . S
C772 C775 1.461 . S
C772 H792 0.932 . S
C773 C771 1.408 . S
C773 C772 1.310 . S
C773 H793 0.930 . S
C774 C775 1.474 . S
C774 C776 1.285 . S
C774 H794 0.929 . S
C775 C772 1.461 . S
C775 C774 1.474 . S
C776 C771 1.342 . S
C776 C774 1.285 . S
C776 H795 0.930 . S
C777 C780 1.424 . S
C777 C782 1.245 . S
C777 C783 1.428 . S
C778 C781 1.260 . S
C778 C782 1.477 . S
C778 H796 0.932 . S
C779 C780 1.384 . S
C779 C781 1.479 . S
C779 H797 0.929 . S
C780 C777 1.424 . S
C780 C779 1.384 . S
C780 H798 0.928 . S
C781 C778 1.260 . S
C781 C779 1.479 . S
C782 C777 1.245 . S
C782 C778 1.477 . S
C782 H799 0.932 . S
C783 U766 2.882 . S
C783 C777 1.428 . S
C783 O786 1.301 . S
C783 O787 1.282 . S
O784 U766 2.441 . S
O784 C770 1.249 . S
O785 U766 2.420 . S
O785 C770 1.202 . S
O786 U766 2.455 . S
O786 C783 1.301 . S
O787 U766 2.449 . S
O787 C783 1.282 . S
H788 C761 0.931 . S
H789 C763 0.929 . S
H790 C764 0.930 . S
H791 C765 0.931 . S
H792 C772 0.932 . S
H793 C773 0.930 . S
H794 C774 0.929 . S
H795 C776 0.930 . S
H796 C778 0.932 . S
H797 C779 0.929 . S
H798 C780 0.928 . S
H799 C782 0.932 . S
C800 C801 1.264 . S
C800 C805 1.479 . S
C800 C810 1.465 . S
C801 C800 1.264 . S
C801 C803 1.339 . S
C801 H828 0.931 . S
C802 C803 1.395 . S
C802 C804 1.320 . S
C803 C801 1.339 . S
C803 C802 1.395 . S
C803 H829 0.929 . S
C804 C802 1.320 . S
C804 C805 1.405 . S
C804 H830 0.930 . S
C805 C800 1.479 . S
C805 C804 1.405 . S
C805 H831 0.931 . S
U806 O807 2.454 . S
U806 O808 2.458 . S
U806 C809 2.984 . S
U806 C810 2.847 . S
U806 C823 2.882 . S
U806 O824 2.441 . S
U806 O825 2.420 . S
U806 O826 2.455 . S
U806 O827 2.449 . S
O807 U806 2.454 . S
O807 C809 1.353 . S
O808 U806 2.458 . S
O808 C809 1.286 . S
C809 U806 2.984 . S
C809 O807 1.353 . S
C809 O808 1.286 . S
C809 C811 1.363 . S
C810 C800 1.465 . S
C810 U806 2.847 . S
C810 O824 1.249 . S
C810 O825 1.202 . S
C811 C809 1.363 . S
C811 C813 1.408 . S
C811 C816 1.342 . S
C812 C813 1.310 . S
C812 C815 1.461 . S
C812 H832 0.932 . S
C813 C811 1.408 . S
C813 C812 1.310 . S
C813 H833 0.930 . S
C814 C815 1.474 . S
C814 C816 1.285 . S
C814 H834 0.929 . S
C815 C812 1.461 . S
C815 C814 1.474 . S
C816 C811 1.342 . S
C816 C814 1.285 . S
C816 H835 0.930 . S
C817 C820 1.424 . S
C817 C822 1.245 . S
C817 C823 1.428 . S
C818 C821 1.260 . S
C818 C822 1.477 . S
C818 H836 0.932 . S
C819 C820 1.384 . S
C819 C821 1.479 . S
C819 H837 0.929 . S
C820 C817 1.424 . S
C820 C819 1.384 . S
C820 H838 0.928 . S
C821 C818 1.260 . S
C821 C819 1.479 . S
C822 C817 1.245 . S
C822 C818 1.477 . S
C822 H839 0.932 . S
C823 U806 2.882 . S
C823 C817 1.428 . S
C823 O826 1.301 . S
C823 O827 1.282 . S
O824 U806 2.441 . S
O824 C810 1.249 . S
O825 U806 2.420 . S
O825 C810 1.202 . S
O826 U806 2.455 . S
O826 C823 1.301 . S
O827 U806 2.449 . S
O827 C823 1.282 . S
H828 C801 0.931 . S
H829 C803 0.929 . S
H830 C804 0.930 . S
H831 C805 0.931 . S
H832 C812 0.932 . S
H833 C813 0.930 . S
H834 C814 0.929 . S
H835 C816 0.930 . S
H836 C818 0.932 . S
H837 C819 0.929 . S
H838 C820 0.928 . S
H839 C822 0.932 . S
C840 C841 1.264 . S
C840 C845 1.479 . S
C840 C850 1.465 . S
C841 C840 1.264 . S
C841 C843 1.339 . S
C841 H868 0.931 . S
C842 C843 1.395 . S
C842 C844 1.320 . S
C843 C841 1.339 . S
C843 C842 1.395 . S
C843 H869 0.929 . S
C844 C842 1.320 . S
C844 C845 1.405 . S
C844 H870 0.930 . S
C845 C840 1.479 . S
C845 C844 1.405 . S
C845 H871 0.931 . S
U846 O847 2.454 . S
U846 O848 2.458 . S
U846 C849 2.984 . S
U846 C850 2.847 . S
U846 C863 2.882 . S
U846 O864 2.441 . S
U846 O865 2.420 . S
U846 O866 2.455 . S
U846 O867 2.449 . S
O847 U846 2.454 . S
O847 C849 1.353 . S
O848 U846 2.458 . S
O848 C849 1.286 . S
C849 U846 2.984 . S
C849 O847 1.353 . S
C849 O848 1.286 . S
C849 C851 1.363 . S
C850 C840 1.465 . S
C850 U846 2.847 . S
C850 O864 1.249 . S
C850 O865 1.202 . S
C851 C849 1.363 . S
C851 C853 1.408 . S
C851 C856 1.342 . S
C852 C853 1.310 . S
C852 C855 1.461 . S
C852 H872 0.932 . S
C853 C851 1.408 . S
C853 C852 1.310 . S
C853 H873 0.930 . S
C854 C855 1.474 . S
C854 C856 1.285 . S
C854 H874 0.929 . S
C855 C852 1.461 . S
C855 C854 1.474 . S
C856 C851 1.342 . S
C856 C854 1.285 . S
C856 H875 0.930 . S
C857 C860 1.424 . S
C857 C862 1.245 . S
C857 C863 1.428 . S
C858 C861 1.260 . S
C858 C862 1.477 . S
C858 H876 0.932 . S
C859 C860 1.384 . S
C859 C861 1.479 . S
C859 H877 0.929 . S
C860 C857 1.424 . S
C860 C859 1.384 . S
C860 H878 0.928 . S
C861 C858 1.260 . S
C861 C859 1.479 . S
C862 C857 1.245 . S
C862 C858 1.477 . S
C862 H879 0.932 . S
C863 U846 2.882 . S
C863 C857 1.428 . S
C863 O866 1.301 . S
C863 O867 1.282 . S
O864 U846 2.441 . S
O864 C850 1.249 . S
O865 U846 2.420 . S
O865 C850 1.202 . S
O866 U846 2.455 . S
O866 C863 1.301 . S
O867 U846 2.449 . S
O867 C863 1.282 . S
H868 C841 0.931 . S
H869 C843 0.929 . S
H870 C844 0.930 . S
H871 C845 0.931 . S
H872 C852 0.932 . S
H873 C853 0.930 . S
H874 C854 0.929 . S
H875 C856 0.930 . S
H876 C858 0.932 . S
H877 C859 0.929 . S
H878 C860 0.928 . S
H879 C862 0.932 . S
C880 C881 1.264 . S
C880 C885 1.479 . S
C880 C890 1.465 . S
C881 C880 1.264 . S
C881 C883 1.339 . S
C881 H908 0.931 . S
C882 C883 1.395 . S
C882 C884 1.320 . S
C883 C881 1.339 . S
C883 C882 1.395 . S
C883 H909 0.929 . S
C884 C882 1.320 . S
C884 C885 1.405 . S
C884 H910 0.930 . S
C885 C880 1.479 . S
C885 C884 1.405 . S
C885 H911 0.931 . S
U886 O887 2.454 . S
U886 O888 2.458 . S
U886 C889 2.984 . S
U886 C890 2.847 . S
U886 C903 2.882 . S
U886 O904 2.441 . S
U886 O905 2.420 . S
U886 O906 2.455 . S
U886 O907 2.449 . S
O887 U886 2.454 . S
O887 C889 1.353 . S
O888 U886 2.458 . S
O888 C889 1.286 . S
C889 U886 2.984 . S
C889 O887 1.353 . S
C889 O888 1.286 . S
C889 C891 1.363 . S
C890 C880 1.465 . S
C890 U886 2.847 . S
C890 O904 1.249 . S
C890 O905 1.202 . S
C891 C889 1.363 . S
C891 C893 1.408 . S
C891 C896 1.342 . S
C892 C893 1.310 . S
C892 C895 1.461 . S
C892 H912 0.932 . S
C893 C891 1.408 . S
C893 C892 1.310 . S
C893 H913 0.930 . S
C894 C895 1.474 . S
C894 C896 1.285 . S
C894 H914 0.929 . S
C895 C892 1.461 . S
C895 C894 1.474 . S
C896 C891 1.342 . S
C896 C894 1.285 . S
C896 H915 0.930 . S
C897 C900 1.424 . S
C897 C902 1.245 . S
C897 C903 1.428 . S
C898 C901 1.260 . S
C898 C902 1.477 . S
C898 H916 0.932 . S
C899 C900 1.384 . S
C899 C901 1.479 . S
C899 H917 0.929 . S
C900 C897 1.424 . S
C900 C899 1.384 . S
C900 H918 0.928 . S
C901 C898 1.260 . S
C901 C899 1.479 . S
C902 C897 1.245 . S
C902 C898 1.477 . S
C902 H919 0.932 . S
C903 U886 2.882 . S
C903 C897 1.428 . S
C903 O906 1.301 . S
C903 O907 1.282 . S
O904 U886 2.441 . S
O904 C890 1.249 . S
O905 U886 2.420 . S
O905 C890 1.202 . S
O906 U886 2.455 . S
O906 C903 1.301 . S
O907 U886 2.449 . S
O907 C903 1.282 . S
H908 C881 0.931 . S
H909 C883 0.929 . S
H910 C884 0.930 . S
H911 C885 0.931 . S
H912 C892 0.932 . S
H913 C893 0.930 . S
H914 C894 0.929 . S
H915 C896 0.930 . S
H916 C898 0.932 . S
H917 C899 0.929 . S
H918 C900 0.928 . S
H919 C902 0.932 . S
C920 C921 1.264 . S
C920 C925 1.479 . S
C920 C930 1.465 . S
C921 C920 1.264 . S
C921 C923 1.339 . S
C921 H948 0.931 . S
C922 C923 1.395 . S
C922 C924 1.320 . S
C923 C921 1.339 . S
C923 C922 1.395 . S
C923 H949 0.929 . S
C924 C922 1.320 . S
C924 C925 1.405 . S
C924 H950 0.930 . S
C925 C920 1.479 . S
C925 C924 1.405 . S
C925 H951 0.931 . S
U926 O927 2.454 . S
U926 O928 2.458 . S
U926 C929 2.984 . S
U926 C930 2.847 . S
U926 C943 2.882 . S
U926 O944 2.441 . S
U926 O945 2.420 . S
U926 O946 2.455 . S
U926 O947 2.449 . S
O927 U926 2.454 . S
O927 C929 1.353 . S
O928 U926 2.458 . S
O928 C929 1.286 . S
C929 U926 2.984 . S
C929 O927 1.353 . S
C929 O928 1.286 . S
C929 C931 1.363 . S
C930 C920 1.465 . S
C930 U926 2.847 . S
C930 O944 1.249 . S
C930 O945 1.202 . S
C931 C929 1.363 . S
C931 C933 1.408 . S
C931 C936 1.342 . S
C932 C933 1.310 . S
C932 C935 1.461 . S
C932 H952 0.932 . S
C933 C931 1.408 . S
C933 C932 1.310 . S
C933 H953 0.930 . S
C934 C935 1.474 . S
C934 C936 1.285 . S
C934 H954 0.929 . S
C935 C932 1.461 . S
C935 C934 1.474 . S
C936 C931 1.342 . S
C936 C934 1.285 . S
C936 H955 0.930 . S
C937 C940 1.424 . S
C937 C942 1.245 . S
C937 C943 1.428 . S
C938 C941 1.260 . S
C938 C942 1.477 . S
C938 H956 0.932 . S
C939 C940 1.384 . S
C939 C941 1.479 . S
C939 H957 0.929 . S
C940 C937 1.424 . S
C940 C939 1.384 . S
C940 H958 0.928 . S
C941 C938 1.260 . S
C941 C939 1.479 . S
C942 C937 1.245 . S
C942 C938 1.477 . S
C942 H959 0.932 . S
C943 U926 2.882 . S
C943 C937 1.428 . S
C943 O946 1.301 . S
C943 O947 1.282 . S
O944 U926 2.441 . S
O944 C930 1.249 . S
O945 U926 2.420 . S
O945 C930 1.202 . S
O946 U926 2.455 . S
O946 C943 1.301 . S
O947 U926 2.449 . S
O947 C943 1.282 . S
H948 C921 0.931 . S
H949 C923 0.929 . S
H950 C924 0.930 . S
H951 C925 0.931 . S
H952 C932 0.932 . S
H953 C933 0.930 . S
H954 C934 0.929 . S
H955 C936 0.930 . S
H956 C938 0.932 . S
H957 C939 0.929 . S
H958 C940 0.928 . S
H959 C942 0.932 . S
C960 C961 1.264 . S
C960 C965 1.479 . S
C960 C970 1.465 . S
C961 C960 1.264 . S
C961 C963 1.339 . S
C961 H988 0.931 . S
C962 C963 1.395 . S
C962 C964 1.320 . S
C963 C961 1.339 . S
C963 C962 1.395 . S
C963 H989 0.929 . S
C964 C962 1.320 . S
C964 C965 1.405 . S
C964 H990 0.930 . S
C965 C960 1.479 . S
C965 C964 1.405 . S
C965 H991 0.931 . S
U966 O967 2.454 . S
U966 O968 2.458 . S
U966 C969 2.984 . S
U966 C970 2.847 . S
U966 C983 2.882 . S
U966 O984 2.441 . S
U966 O985 2.420 . S
U966 O986 2.455 . S
U966 O987 2.449 . S
O967 U966 2.454 . S
O967 C969 1.353 . S
O968 U966 2.458 . S
O968 C969 1.286 . S
C969 U966 2.984 . S
C969 O967 1.353 . S
C969 O968 1.286 . S
C969 C971 1.363 . S
C970 C960 1.465 . S
C970 U966 2.847 . S
C970 O984 1.249 . S
C970 O985 1.202 . S
C971 C969 1.363 . S
C971 C973 1.408 . S
C971 C976 1.342 . S
C972 C973 1.310 . S
C972 C975 1.461 . S
C972 H992 0.932 . S
C973 C971 1.408 . S
C973 C972 1.310 . S
C973 H993 0.930 . S
C974 C975 1.474 . S
C974 C976 1.285 . S
C974 H994 0.929 . S
C975 C972 1.461 . S
C975 C974 1.474 . S
C976 C971 1.342 . S
C976 C974 1.285 . S
C976 H995 0.930 . S
C977 C980 1.424 . S
C977 C982 1.245 . S
C977 C983 1.428 . S
C978 C981 1.260 . S
C978 C982 1.477 . S
C978 H996 0.932 . S
C979 C980 1.384 . S
C979 C981 1.479 . S
C979 H997 0.929 . S
C980 C977 1.424 . S
C980 C979 1.384 . S
C980 H998 0.928 . S
C981 C978 1.260 . S
C981 C979 1.479 . S
C982 C977 1.245 . S
C982 C978 1.477 . S
C982 H999 0.932 . S
C983 U966 2.882 . S
C983 C977 1.428 . S
C983 O986 1.301 . S
C983 O987 1.282 . S
O984 U966 2.441 . S
O984 C970 1.249 . S
O985 U966 2.420 . S
O985 C970 1.202 . S
O986 U966 2.455 . S
O986 C983 1.301 . S
O987 U966 2.449 . S
O987 C983 1.282 . S
H988 C961 0.931 . S
H989 C963 0.929 . S
H990 C964 0.930 . S
H991 C965 0.931 . S
H992 C972 0.932 . S
H993 C973 0.930 . S
H994 C974 0.929 . S
H995 C976 0.930 . S
H996 C978 0.932 . S
H997 C979 0.929 . S
H998 C980 0.928 . S
H999 C982 0.932 . S
C1000 C1001 1.264 . S
C1000 C1005 1.479 . S
C1000 C1010 1.465 . S
C1001 C1000 1.264 . S
C1001 C1003 1.339 . S
C1001 H1028 0.931 . S
C1002 C1003 1.395 . S
C1002 C1004 1.320 . S
C1003 C1001 1.339 . S
C1003 C1002 1.395 . S
C1003 H1029 0.929 . S
C1004 C1002 1.320 . S
C1004 C1005 1.405 . S
C1004 H1030 0.930 . S
C1005 C1000 1.479 . S
C1005 C1004 1.405 . S
C1005 H1031 0.931 . S
U1006 O1007 2.454 . S
U1006 O1008 2.458 . S
U1006 C1009 2.984 . S
U1006 C1010 2.847 . S
U1006 C1023 2.882 . S
U1006 O1024 2.441 . S
U1006 O1025 2.420 . S
U1006 O1026 2.455 . S
U1006 O1027 2.449 . S
O1007 U1006 2.454 . S
O1007 C1009 1.353 . S
O1008 U1006 2.458 . S
O1008 C1009 1.286 . S
C1009 U1006 2.984 . S
C1009 O1007 1.353 . S
C1009 O1008 1.286 . S
C1009 C1011 1.363 . S
C1010 C1000 1.465 . S
C1010 U1006 2.847 . S
C1010 O1024 1.249 . S
C1010 O1025 1.202 . S
C1011 C1009 1.363 . S
C1011 C1013 1.408 . S
C1011 C1016 1.342 . S
C1012 C1013 1.310 . S
C1012 C1015 1.461 . S
C1012 H1032 0.932 . S
C1013 C1011 1.408 . S
C1013 C1012 1.310 . S
C1013 H1033 0.930 . S
C1014 C1015 1.474 . S
C1014 C1016 1.285 . S
C1014 H1034 0.929 . S
C1015 C1012 1.461 . S
C1015 C1014 1.474 . S
C1016 C1011 1.342 . S
C1016 C1014 1.285 . S
C1016 H1035 0.930 . S
C1017 C1020 1.424 . S
C1017 C1022 1.245 . S
C1017 C1023 1.428 . S
C1018 C1021 1.260 . S
C1018 C1022 1.477 . S
C1018 H1036 0.932 . S
C1019 C1020 1.384 . S
C1019 C1021 1.479 . S
C1019 H1037 0.929 . S
C1020 C1017 1.424 . S
C1020 C1019 1.384 . S
C1020 H1038 0.928 . S
C1021 C1018 1.260 . S
C1021 C1019 1.479 . S
C1022 C1017 1.245 . S
C1022 C1018 1.477 . S
C1022 H1039 0.932 . S
C1023 U1006 2.882 . S
C1023 C1017 1.428 . S
C1023 O1026 1.301 . S
C1023 O1027 1.282 . S
O1024 U1006 2.441 . S
O1024 C1010 1.249 . S
O1025 U1006 2.420 . S
O1025 C1010 1.202 . S
O1026 U1006 2.455 . S
O1026 C1023 1.301 . S
O1027 U1006 2.449 . S
O1027 C1023 1.282 . S
H1028 C1001 0.931 . S
H1029 C1003 0.929 . S
H1030 C1004 0.930 . S
H1031 C1005 0.931 . S
H1032 C1012 0.932 . S
H1033 C1013 0.930 . S
H1034 C1014 0.929 . S
H1035 C1016 0.930 . S
H1036 C1018 0.932 . S
H1037 C1019 0.929 . S
H1038 C1020 0.928 . S
H1039 C1022 0.932 . S
C1040 C1041 1.264 . S
C1040 C1045 1.479 . S
C1040 C1050 1.465 . S
C1041 C1040 1.264 . S
C1041 C1043 1.339 . S
C1041 H1068 0.931 . S
C1042 C1043 1.395 . S
C1042 C1044 1.320 . S
C1043 C1041 1.339 . S
C1043 C1042 1.395 . S
C1043 H1069 0.929 . S
C1044 C1042 1.320 . S
C1044 C1045 1.405 . S
C1044 H1070 0.930 . S
C1045 C1040 1.479 . S
C1045 C1044 1.405 . S
C1045 H1071 0.931 . S
U1046 O1047 2.454 . S
U1046 O1048 2.458 . S
U1046 C1049 2.984 . S
U1046 C1050 2.847 . S
U1046 C1063 2.882 . S
U1046 O1064 2.441 . S
U1046 O1065 2.420 . S
U1046 O1066 2.455 . S
U1046 O1067 2.449 . S
O1047 U1046 2.454 . S
O1047 C1049 1.353 . S
O1048 U1046 2.458 . S
O1048 C1049 1.286 . S
C1049 U1046 2.984 . S
C1049 O1047 1.353 . S
C1049 O1048 1.286 . S
C1049 C1051 1.363 . S
C1050 C1040 1.465 . S
C1050 U1046 2.847 . S
C1050 O1064 1.249 . S
C1050 O1065 1.202 . S
C1051 C1049 1.363 . S
C1051 C1053 1.408 . S
C1051 C1056 1.342 . S
C1052 C1053 1.310 . S
C1052 C1055 1.461 . S
C1052 H1072 0.932 . S
C1053 C1051 1.408 . S
C1053 C1052 1.310 . S
C1053 H1073 0.930 . S
C1054 C1055 1.474 . S
C1054 C1056 1.285 . S
C1054 H1074 0.929 . S
C1055 C1052 1.461 . S
C1055 C1054 1.474 . S
C1056 C1051 1.342 . S
C1056 C1054 1.285 . S
C1056 H1075 0.930 . S
C1057 C1060 1.424 . S
C1057 C1062 1.245 . S
C1057 C1063 1.428 . S
C1058 C1061 1.260 . S
C1058 C1062 1.477 . S
C1058 H1076 0.932 . S
C1059 C1060 1.384 . S
C1059 C1061 1.479 . S
C1059 H1077 0.929 . S
C1060 C1057 1.424 . S
C1060 C1059 1.384 . S
C1060 H1078 0.928 . S
C1061 C1058 1.260 . S
C1061 C1059 1.479 . S
C1062 C1057 1.245 . S
C1062 C1058 1.477 . S
C1062 H1079 0.932 . S
C1063 U1046 2.882 . S
C1063 C1057 1.428 . S
C1063 O1066 1.301 . S
C1063 O1067 1.282 . S
O1064 U1046 2.441 . S
O1064 C1050 1.249 . S
O1065 U1046 2.420 . S
O1065 C1050 1.202 . S
O1066 U1046 2.455 . S
O1066 C1063 1.301 . S
O1067 U1046 2.449 . S
O1067 C1063 1.282 . S
H1068 C1041 0.931 . S
H1069 C1043 0.929 . S
H1070 C1044 0.930 . S
H1071 C1045 0.931 . S
H1072 C1052 0.932 . S
H1073 C1053 0.930 . S
H1074 C1054 0.929 . S
H1075 C1056 0.930 . S
H1076 C1058 0.932 . S
H1077 C1059 0.929 . S
H1078 C1060 0.928 . S
H1079 C1062 0.932 . S
C1080 C1081 1.264 . S
C1080 C1085 1.479 . S
C1080 C1090 1.465 . S
C1081 C1080 1.264 . S
C1081 C1083 1.339 . S
C1081 H1108 0.931 . S
C1082 C1083 1.395 . S
C1082 C1084 1.320 . S
C1083 C1081 1.339 . S
C1083 C1082 1.395 . S
C1083 H1109 0.929 . S
C1084 C1082 1.320 . S
C1084 C1085 1.405 . S
C1084 H1110 0.930 . S
C1085 C1080 1.479 . S
C1085 C1084 1.405 . S
C1085 H1111 0.931 . S
U1086 O1087 2.454 . S
U1086 O1088 2.458 . S
U1086 C1089 2.984 . S
U1086 C1090 2.847 . S
U1086 C1103 2.882 . S
U1086 O1104 2.441 . S
U1086 O1105 2.420 . S
U1086 O1106 2.455 . S
U1086 O1107 2.449 . S
O1087 U1086 2.454 . S
O1087 C1089 1.353 . S
O1088 U1086 2.458 . S
O1088 C1089 1.286 . S
C1089 U1086 2.984 . S
C1089 O1087 1.353 . S
C1089 O1088 1.286 . S
C1089 C1091 1.363 . S
C1090 C1080 1.465 . S
C1090 U1086 2.847 . S
C1090 O1104 1.249 . S
C1090 O1105 1.202 . S
C1091 C1089 1.363 . S
C1091 C1093 1.408 . S
C1091 C1096 1.342 . S
C1092 C1093 1.310 . S
C1092 C1095 1.461 . S
C1092 H1112 0.932 . S
C1093 C1091 1.408 . S
C1093 C1092 1.310 . S
C1093 H1113 0.930 . S
C1094 C1095 1.474 . S
C1094 C1096 1.285 . S
C1094 H1114 0.929 . S
C1095 C1092 1.461 . S
C1095 C1094 1.474 . S
C1096 C1091 1.342 . S
C1096 C1094 1.285 . S
C1096 H1115 0.930 . S
C1097 C1100 1.424 . S
C1097 C1102 1.245 . S
C1097 C1103 1.428 . S
C1098 C1101 1.260 . S
C1098 C1102 1.477 . S
C1098 H1116 0.932 . S
C1099 C1100 1.384 . S
C1099 C1101 1.479 . S
C1099 H1117 0.929 . S
C1100 C1097 1.424 . S
C1100 C1099 1.384 . S
C1100 H1118 0.928 . S
C1101 C1098 1.260 . S
C1101 C1099 1.479 . S
C1102 C1097 1.245 . S
C1102 C1098 1.477 . S
C1102 H1119 0.932 . S
C1103 U1086 2.882 . S
C1103 C1097 1.428 . S
C1103 O1106 1.301 . S
C1103 O1107 1.282 . S
O1104 U1086 2.441 . S
O1104 C1090 1.249 . S
O1105 U1086 2.420 . S
O1105 C1090 1.202 . S
O1106 U1086 2.455 . S
O1106 C1103 1.301 . S
O1107 U1086 2.449 . S
O1107 C1103 1.282 . S
H1108 C1081 0.931 . S
H1109 C1083 0.929 . S
H1110 C1084 0.930 . S
H1111 C1085 0.931 . S
H1112 C1092 0.932 . S
H1113 C1093 0.930 . S
H1114 C1094 0.929 . S
H1115 C1096 0.930 . S
H1116 C1098 0.932 . S
H1117 C1099 0.929 . S
H1118 C1100 0.928 . S
H1119 C1102 0.932 . S
C1120 C1121 1.264 . S
C1120 C1125 1.479 . S
C1120 C1130 1.465 . S
C1121 C1120 1.264 . S
C1121 C1123 1.339 . S
C1121 H1148 0.931 . S
C1122 C1123 1.395 . S
C1122 C1124 1.320 . S
C1123 C1121 1.339 . S
C1123 C1122 1.395 . S
C1123 H1149 0.929 . S
C1124 C1122 1.320 . S
C1124 C1125 1.405 . S
C1124 H1150 0.930 . S
C1125 C1120 1.479 . S
C1125 C1124 1.405 . S
C1125 H1151 0.931 . S
U1126 O1127 2.454 . S
U1126 O1128 2.458 . S
U1126 C1129 2.984 . S
U1126 C1130 2.847 . S
U1126 C1143 2.882 . S
U1126 O1144 2.441 . S
U1126 O1145 2.420 . S
U1126 O1146 2.455 . S
U1126 O1147 2.449 . S
O1127 U1126 2.454 . S
O1127 C1129 1.353 . S
O1128 U1126 2.458 . S
O1128 C1129 1.286 . S
C1129 U1126 2.984 . S
C1129 O1127 1.353 . S
C1129 O1128 1.286 . S
C1129 C1131 1.363 . S
C1130 C1120 1.465 . S
C1130 U1126 2.847 . S
C1130 O1144 1.249 . S
C1130 O1145 1.202 . S
C1131 C1129 1.363 . S
C1131 C1133 1.408 . S
C1131 C1136 1.342 . S
C1132 C1133 1.310 . S
C1132 C1135 1.461 . S
C1132 H1152 0.932 . S
C1133 C1131 1.408 . S
C1133 C1132 1.310 . S
C1133 H1153 0.930 . S
C1134 C1135 1.474 . S
C1134 C1136 1.285 . S
C1134 H1154 0.929 . S
C1135 C1132 1.461 . S
C1135 C1134 1.474 . S
C1136 C1131 1.342 . S
C1136 C1134 1.285 . S
C1136 H1155 0.930 . S
C1137 C1140 1.424 . S
C1137 C1142 1.245 . S
C1137 C1143 1.428 . S
C1138 C1141 1.260 . S
C1138 C1142 1.477 . S
C1138 H1156 0.932 . S
C1139 C1140 1.384 . S
C1139 C1141 1.479 . S
C1139 H1157 0.929 . S
C1140 C1137 1.424 . S
C1140 C1139 1.384 . S
C1140 H1158 0.928 . S
C1141 C1138 1.260 . S
C1141 C1139 1.479 . S
C1142 C1137 1.245 . S
C1142 C1138 1.477 . S
C1142 H1159 0.932 . S
C1143 U1126 2.882 . S
C1143 C1137 1.428 . S
C1143 O1146 1.301 . S
C1143 O1147 1.282 . S
O1144 U1126 2.441 . S
O1144 C1130 1.249 . S
O1145 U1126 2.420 . S
O1145 C1130 1.202 . S
O1146 U1126 2.455 . S
O1146 C1143 1.301 . S
O1147 U1126 2.449 . S
O1147 C1143 1.282 . S
H1148 C1121 0.931 . S
H1149 C1123 0.929 . S
H1150 C1124 0.930 . S
H1151 C1125 0.931 . S
H1152 C1132 0.932 . S
H1153 C1133 0.930 . S
H1154 C1134 0.929 . S
H1155 C1136 0.930 . S
H1156 C1138 0.932 . S
H1157 C1139 0.929 . S
H1158 C1140 0.928 . S
H1159 C1142 0.932 . S
C1160 C1161 1.264 . S
C1160 C1165 1.479 . S
C1160 C1170 1.465 . S
C1161 C1160 1.264 . S
C1161 C1163 1.339 . S
C1161 H1188 0.931 . S
C1162 C1163 1.395 . S
C1162 C1164 1.320 . S
C1163 C1161 1.339 . S
C1163 C1162 1.395 . S
C1163 H1189 0.929 . S
C1164 C1162 1.320 . S
C1164 C1165 1.405 . S
C1164 H1190 0.930 . S
C1165 C1160 1.479 . S
C1165 C1164 1.405 . S
C1165 H1191 0.931 . S
U1166 O1167 2.454 . S
U1166 O1168 2.458 . S
U1166 C1169 2.984 . S
U1166 C1170 2.847 . S
U1166 C1183 2.882 . S
U1166 O1184 2.441 . S
U1166 O1185 2.420 . S
U1166 O1186 2.455 . S
U1166 O1187 2.449 . S
O1167 U1166 2.454 . S
O1167 C1169 1.353 . S
O1168 U1166 2.458 . S
O1168 C1169 1.286 . S
C1169 U1166 2.984 . S
C1169 O1167 1.353 . S
C1169 O1168 1.286 . S
C1169 C1171 1.363 . S
C1170 C1160 1.465 . S
C1170 U1166 2.847 . S
C1170 O1184 1.249 . S
C1170 O1185 1.202 . S
C1171 C1169 1.363 . S
C1171 C1173 1.408 . S
C1171 C1176 1.342 . S
C1172 C1173 1.310 . S
C1172 C1175 1.461 . S
C1172 H1192 0.932 . S
C1173 C1171 1.408 . S
C1173 C1172 1.310 . S
C1173 H1193 0.930 . S
C1174 C1175 1.474 . S
C1174 C1176 1.285 . S
C1174 H1194 0.929 . S
C1175 C1172 1.461 . S
C1175 C1174 1.474 . S
C1176 C1171 1.342 . S
C1176 C1174 1.285 . S
C1176 H1195 0.930 . S
C1177 C1180 1.424 . S
C1177 C1182 1.245 . S
C1177 C1183 1.428 . S
C1178 C1181 1.260 . S
C1178 C1182 1.477 . S
C1178 H1196 0.932 . S
C1179 C1180 1.384 . S
C1179 C1181 1.479 . S
C1179 H1197 0.929 . S
C1180 C1177 1.424 . S
C1180 C1179 1.384 . S
C1180 H1198 0.928 . S
C1181 C1178 1.260 . S
C1181 C1179 1.479 . S
C1182 C1177 1.245 . S
C1182 C1178 1.477 . S
C1182 H1199 0.932 . S
C1183 U1166 2.882 . S
C1183 C1177 1.428 . S
C1183 O1186 1.301 . S
C1183 O1187 1.282 . S
O1184 U1166 2.441 . S
O1184 C1170 1.249 . S
O1185 U1166 2.420 . S
O1185 C1170 1.202 . S
O1186 U1166 2.455 . S
O1186 C1183 1.301 . S
O1187 U1166 2.449 . S
O1187 C1183 1.282 . S
H1188 C1161 0.931 . S
H1189 C1163 0.929 . S
H1190 C1164 0.930 . S
H1191 C1165 0.931 . S
H1192 C1172 0.932 . S
H1193 C1173 0.930 . S
H1194 C1174 0.929 . S
H1195 C1176 0.930 . S
H1196 C1178 0.932 . S
H1197 C1179 0.929 . S
H1198 C1180 0.928 . S
H1199 C1182 0.932 . S
C1200 C1201 1.264 . S
C1200 C1205 1.479 . S
C1200 C1210 1.465 . S
C1201 C1200 1.264 . S
C1201 C1203 1.339 . S
C1201 H1228 0.931 . S
C1202 C1203 1.395 . S
C1202 C1204 1.320 . S
C1203 C1201 1.339 . S
C1203 C1202 1.395 . S
C1203 H1229 0.929 . S
C1204 C1202 1.320 . S
C1204 C1205 1.405 . S
C1204 H1230 0.930 . S
C1205 C1200 1.479 . S
C1205 C1204 1.405 . S
C1205 H1231 0.931 . S
U1206 O1207 2.454 . S
U1206 O1208 2.458 . S
U1206 C1209 2.984 . S
U1206 C1210 2.847 . S
U1206 C1223 2.882 . S
U1206 O1224 2.441 . S
U1206 O1225 2.420 . S
U1206 O1226 2.455 . S
U1206 O1227 2.449 . S
O1207 U1206 2.454 . S
O1207 C1209 1.353 . S
O1208 U1206 2.458 . S
O1208 C1209 1.286 . S
C1209 U1206 2.984 . S
C1209 O1207 1.353 . S
C1209 O1208 1.286 . S
C1209 C1211 1.363 . S
C1210 C1200 1.465 . S
C1210 U1206 2.847 . S
C1210 O1224 1.249 . S
C1210 O1225 1.202 . S
C1211 C1209 1.363 . S
C1211 C1213 1.408 . S
C1211 C1216 1.342 . S
C1212 C1213 1.310 . S
C1212 C1215 1.461 . S
C1212 H1232 0.932 . S
C1213 C1211 1.408 . S
C1213 C1212 1.310 . S
C1213 H1233 0.930 . S
C1214 C1215 1.474 . S
C1214 C1216 1.285 . S
C1214 H1234 0.929 . S
C1215 C1212 1.461 . S
C1215 C1214 1.474 . S
C1216 C1211 1.342 . S
C1216 C1214 1.285 . S
C1216 H1235 0.930 . S
C1217 C1220 1.424 . S
C1217 C1222 1.245 . S
C1217 C1223 1.428 . S
C1218 C1221 1.260 . S
C1218 C1222 1.477 . S
C1218 H1236 0.932 . S
C1219 C1220 1.384 . S
C1219 C1221 1.479 . S
C1219 H1237 0.929 . S
C1220 C1217 1.424 . S
C1220 C1219 1.384 . S
C1220 H1238 0.928 . S
C1221 C1218 1.260 . S
C1221 C1219 1.479 . S
C1222 C1217 1.245 . S
C1222 C1218 1.477 . S
C1222 H1239 0.932 . S
C1223 U1206 2.882 . S
C1223 C1217 1.428 . S
C1223 O1226 1.301 . S
C1223 O1227 1.282 . S
O1224 U1206 2.441 . S
O1224 C1210 1.249 . S
O1225 U1206 2.420 . S
O1225 C1210 1.202 . S
O1226 U1206 2.455 . S
O1226 C1223 1.301 . S
O1227 U1206 2.449 . S
O1227 C1223 1.282 . S
H1228 C1201 0.931 . S
H1229 C1203 0.929 . S
H1230 C1204 0.930 . S
H1231 C1205 0.931 . S
H1232 C1212 0.932 . S
H1233 C1213 0.930 . S
H1234 C1214 0.929 . S
H1235 C1216 0.930 . S
H1236 C1218 0.932 . S
H1237 C1219 0.929 . S
H1238 C1220 0.928 . S
H1239 C1222 0.932 . S
C1240 C1241 1.264 . S
C1240 C1245 1.479 . S
C1240 C1250 1.465 . S
C1241 C1240 1.264 . S
C1241 C1243 1.339 . S
C1241 H1268 0.931 . S
C1242 C1243 1.395 . S
C1242 C1244 1.320 . S
C1243 C1241 1.339 . S
C1243 C1242 1.395 . S
C1243 H1269 0.929 . S
C1244 C1242 1.320 . S
C1244 C1245 1.405 . S
C1244 H1270 0.930 . S
C1245 C1240 1.479 . S
C1245 C1244 1.405 . S
C1245 H1271 0.931 . S
U1246 O1247 2.454 . S
U1246 O1248 2.458 . S
U1246 C1249 2.984 . S
U1246 C1250 2.847 . S
U1246 C1263 2.882 . S
U1246 O1264 2.441 . S
U1246 O1265 2.420 . S
U1246 O1266 2.455 . S
U1246 O1267 2.449 . S
O1247 U1246 2.454 . S
O1247 C1249 1.353 . S
O1248 U1246 2.458 . S
O1248 C1249 1.286 . S
C1249 U1246 2.984 . S
C1249 O1247 1.353 . S
C1249 O1248 1.286 . S
C1249 C1251 1.363 . S
C1250 C1240 1.465 . S
C1250 U1246 2.847 . S
C1250 O1264 1.249 . S
C1250 O1265 1.202 . S
C1251 C1249 1.363 . S
C1251 C1253 1.408 . S
C1251 C1256 1.342 . S
C1252 C1253 1.310 . S
C1252 C1255 1.461 . S
C1252 H1272 0.932 . S
C1253 C1251 1.408 . S
C1253 C1252 1.310 . S
C1253 H1273 0.930 . S
C1254 C1255 1.474 . S
C1254 C1256 1.285 . S
C1254 H1274 0.929 . S
C1255 C1252 1.461 . S
C1255 C1254 1.474 . S
C1256 C1251 1.342 . S
C1256 C1254 1.285 . S
C1256 H1275 0.930 . S
C1257 C1260 1.424 . S
C1257 C1262 1.245 . S
C1257 C1263 1.428 . S
C1258 C1261 1.260 . S
C1258 C1262 1.477 . S
C1258 H1276 0.932 . S
C1259 C1260 1.384 . S
C1259 C1261 1.479 . S
C1259 H1277 0.929 . S
C1260 C1257 1.424 . S
C1260 C1259 1.384 . S
C1260 H1278 0.928 . S
C1261 C1258 1.260 . S
C1261 C1259 1.479 . S
C1262 C1257 1.245 . S
C1262 C1258 1.477 . S
C1262 H1279 0.932 . S
C1263 U1246 2.882 . S
C1263 C1257 1.428 . S
C1263 O1266 1.301 . S
C1263 O1267 1.282 . S
O1264 U1246 2.441 . S
O1264 C1250 1.249 . S
O1265 U1246 2.420 . S
O1265 C1250 1.202 . S
O1266 U1246 2.455 . S
O1266 C1263 1.301 . S
O1267 U1246 2.449 . S
O1267 C1263 1.282 . S
H1268 C1241 0.931 . S
H1269 C1243 0.929 . S
H1270 C1244 0.930 . S
H1271 C1245 0.931 . S
H1272 C1252 0.932 . S
H1273 C1253 0.930 . S
H1274 C1254 0.929 . S
H1275 C1256 0.930 . S
H1276 C1258 0.932 . S
H1277 C1259 0.929 . S
H1278 C1260 0.928 . S
H1279 C1262 0.932 . S
C1280 C1281 1.264 . S
C1280 C1285 1.479 . S
C1280 C1290 1.465 . S
C1281 C1280 1.264 . S
C1281 C1283 1.339 . S
C1281 H1308 0.931 . S
C1282 C1283 1.395 . S
C1282 C1284 1.320 . S
C1283 C1281 1.339 . S
C1283 C1282 1.395 . S
C1283 H1309 0.929 . S
C1284 C1282 1.320 . S
C1284 C1285 1.405 . S
C1284 H1310 0.930 . S
C1285 C1280 1.479 . S
C1285 C1284 1.405 . S
C1285 H1311 0.931 . S
U1286 O1287 2.454 . S
U1286 O1288 2.458 . S
U1286 C1289 2.984 . S
U1286 C1290 2.847 . S
U1286 C1303 2.882 . S
U1286 O1304 2.441 . S
U1286 O1305 2.420 . S
U1286 O1306 2.455 . S
U1286 O1307 2.449 . S
O1287 U1286 2.454 . S
O1287 C1289 1.353 . S
O1288 U1286 2.458 . S
O1288 C1289 1.286 . S
C1289 U1286 2.984 . S
C1289 O1287 1.353 . S
C1289 O1288 1.286 . S
C1289 C1291 1.363 . S
C1290 C1280 1.465 . S
C1290 U1286 2.847 . S
C1290 O1304 1.249 . S
C1290 O1305 1.202 . S
C1291 C1289 1.363 . S
C1291 C1293 1.408 . S
C1291 C1296 1.342 . S
C1292 C1293 1.310 . S
C1292 C1295 1.461 . S
C1292 H1312 0.932 . S
C1293 C1291 1.408 . S
C1293 C1292 1.310 . S
C1293 H1313 0.930 . S
C1294 C1295 1.474 . S
C1294 C1296 1.285 . S
C1294 H1314 0.929 . S
C1295 C1292 1.461 . S
C1295 C1294 1.474 . S
C1296 C1291 1.342 . S
C1296 C1294 1.285 . S
C1296 H1315 0.930 . S
C1297 C1300 1.424 . S
C1297 C1302 1.245 . S
C1297 C1303 1.428 . S
C1298 C1301 1.260 . S
C1298 C1302 1.477 . S
C1298 H1316 0.932 . S
C1299 C1300 1.384 . S
C1299 C1301 1.479 . S
C1299 H1317 0.929 . S
C1300 C1297 1.424 . S
C1300 C1299 1.384 . S
C1300 H1318 0.928 . S
C1301 C1298 1.260 . S
C1301 C1299 1.479 . S
C1302 C1297 1.245 . S
C1302 C1298 1.477 . S
C1302 H1319 0.932 . S
C1303 U1286 2.882 . S
C1303 C1297 1.428 . S
C1303 O1306 1.301 . S
C1303 O1307 1.282 . S
O1304 U1286 2.441 . S
O1304 C1290 1.249 . S
O1305 U1286 2.420 . S
O1305 C1290 1.202 . S
O1306 U1286 2.455 . S
O1306 C1303 1.301 . S
O1307 U1286 2.449 . S
O1307 C1303 1.282 . S
H1308 C1281 0.931 . S
H1309 C1283 0.929 . S
H1310 C1284 0.930 . S
H1311 C1285 0.931 . S
H1312 C1292 0.932 . S
H1313 C1293 0.930 . S
H1314 C1294 0.929 . S
H1315 C1296 0.930 . S
H1316 C1298 0.932 . S
H1317 C1299 0.929 . S
H1318 C1300 0.928 . S
H1319 C1302 0.932 . S
C1320 C1321 1.264 . S
C1320 C1325 1.479 . S
C1320 C1330 1.465 . S
C1321 C1320 1.264 . S
C1321 C1323 1.339 . S
C1321 H1348 0.931 . S
C1322 C1323 1.395 . S
C1322 C1324 1.320 . S
C1323 C1321 1.339 . S
C1323 C1322 1.395 . S
C1323 H1349 0.929 . S
C1324 C1322 1.320 . S
C1324 C1325 1.405 . S
C1324 H1350 0.930 . S
C1325 C1320 1.479 . S
C1325 C1324 1.405 . S
C1325 H1351 0.931 . S
U1326 O1327 2.454 . S
U1326 O1328 2.458 . S
U1326 C1329 2.984 . S
U1326 C1330 2.847 . S
U1326 C1343 2.882 . S
U1326 O1344 2.441 . S
U1326 O1345 2.420 . S
U1326 O1346 2.455 . S
U1326 O1347 2.449 . S
O1327 U1326 2.454 . S
O1327 C1329 1.353 . S
O1328 U1326 2.458 . S
O1328 C1329 1.286 . S
C1329 U1326 2.984 . S
C1329 O1327 1.353 . S
C1329 O1328 1.286 . S
C1329 C1331 1.363 . S
C1330 C1320 1.465 . S
C1330 U1326 2.847 . S
C1330 O1344 1.249 . S
C1330 O1345 1.202 . S
C1331 C1329 1.363 . S
C1331 C1333 1.408 . S
C1331 C1336 1.342 . S
C1332 C1333 1.310 . S
C1332 C1335 1.461 . S
C1332 H1352 0.932 . S
C1333 C1331 1.408 . S
C1333 C1332 1.310 . S
C1333 H1353 0.930 . S
C1334 C1335 1.474 . S
C1334 C1336 1.285 . S
C1334 H1354 0.929 . S
C1335 C1332 1.461 . S
C1335 C1334 1.474 . S
C1336 C1331 1.342 . S
C1336 C1334 1.285 . S
C1336 H1355 0.930 . S
C1337 C1340 1.424 . S
C1337 C1342 1.245 . S
C1337 C1343 1.428 . S
C1338 C1341 1.260 . S
C1338 C1342 1.477 . S
C1338 H1356 0.932 . S
C1339 C1340 1.384 . S
C1339 C1341 1.479 . S
C1339 H1357 0.929 . S
C1340 C1337 1.424 . S
C1340 C1339 1.384 . S
C1340 H1358 0.928 . S
C1341 C1338 1.260 . S
C1341 C1339 1.479 . S
C1342 C1337 1.245 . S
C1342 C1338 1.477 . S
C1342 H1359 0.932 . S
C1343 U1326 2.882 . S
C1343 C1337 1.428 . S
C1343 O1346 1.301 . S
C1343 O1347 1.282 . S
O1344 U1326 2.441 . S
O1344 C1330 1.249 . S
O1345 U1326 2.420 . S
O1345 C1330 1.202 . S
O1346 U1326 2.455 . S
O1346 C1343 1.301 . S
O1347 U1326 2.449 . S
O1347 C1343 1.282 . S
H1348 C1321 0.931 . S
H1349 C1323 0.929 . S
H1350 C1324 0.930 . S
H1351 C1325 0.931 . S
H1352 C1332 0.932 . S
H1353 C1333 0.930 . S
H1354 C1334 0.929 . S
H1355 C1336 0.930 . S
H1356 C1338 0.932 . S
H1357 C1339 0.929 . S
H1358 C1340 0.928 . S
H1359 C1342 0.932 . S
C1360 C1361 1.264 . S
C1360 C1365 1.479 . S
C1360 C1370 1.465 . S
C1361 C1360 1.264 . S
C1361 C1363 1.339 . S
C1361 H1388 0.931 . S
C1362 C1363 1.395 . S
C1362 C1364 1.320 . S
C1363 C1361 1.339 . S
C1363 C1362 1.395 . S
C1363 H1389 0.929 . S
C1364 C1362 1.320 . S
C1364 C1365 1.405 . S
C1364 H1390 0.930 . S
C1365 C1360 1.479 . S
C1365 C1364 1.405 . S
C1365 H1391 0.931 . S
U1366 O1367 2.454 . S
U1366 O1368 2.458 . S
U1366 C1369 2.984 . S
U1366 C1370 2.847 . S
U1366 C1383 2.882 . S
U1366 O1384 2.441 . S
U1366 O1385 2.420 . S
U1366 O1386 2.455 . S
U1366 O1387 2.449 . S
O1367 U1366 2.454 . S
O1367 C1369 1.353 . S
O1368 U1366 2.458 . S
O1368 C1369 1.286 . S
C1369 U1366 2.984 . S
C1369 O1367 1.353 . S
C1369 O1368 1.286 . S
C1369 C1371 1.363 . S
C1370 C1360 1.465 . S
C1370 U1366 2.847 . S
C1370 O1384 1.249 . S
C1370 O1385 1.202 . S
C1371 C1369 1.363 . S
C1371 C1373 1.408 . S
C1371 C1376 1.342 . S
C1372 C1373 1.310 . S
C1372 C1375 1.461 . S
C1372 H1392 0.932 . S
C1373 C1371 1.408 . S
C1373 C1372 1.310 . S
C1373 H1393 0.930 . S
C1374 C1375 1.474 . S
C1374 C1376 1.285 . S
C1374 H1394 0.929 . S
C1375 C1372 1.461 . S
C1375 C1374 1.474 . S
C1376 C1371 1.342 . S
C1376 C1374 1.285 . S
C1376 H1395 0.930 . S
C1377 C1380 1.424 . S
C1377 C1382 1.245 . S
C1377 C1383 1.428 . S
C1378 C1381 1.260 . S
C1378 C1382 1.477 . S
C1378 H1396 0.932 . S
C1379 C1380 1.384 . S
C1379 C1381 1.479 . S
C1379 H1397 0.929 . S
C1380 C1377 1.424 . S
C1380 C1379 1.384 . S
C1380 H1398 0.928 . S
C1381 C1378 1.260 . S
C1381 C1379 1.479 . S
C1382 C1377 1.245 . S
C1382 C1378 1.477 . S
C1382 H1399 0.932 . S
C1383 U1366 2.882 . S
C1383 C1377 1.428 . S
C1383 O1386 1.301 . S
C1383 O1387 1.282 . S
O1384 U1366 2.441 . S
O1384 C1370 1.249 . S
O1385 U1366 2.420 . S
O1385 C1370 1.202 . S
O1386 U1366 2.455 . S
O1386 C1383 1.301 . S
O1387 U1366 2.449 . S
O1387 C1383 1.282 . S
H1388 C1361 0.931 . S
H1389 C1363 0.929 . S
H1390 C1364 0.930 . S
H1391 C1365 0.931 . S
H1392 C1372 0.932 . S
H1393 C1373 0.930 . S
H1394 C1374 0.929 . S
H1395 C1376 0.930 . S
H1396 C1378 0.932 . S
H1397 C1379 0.929 . S
H1398 C1380 0.928 . S
H1399 C1382 0.932 . S
C1400 C1401 1.264 . S
C1400 C1405 1.479 . S
C1400 C1410 1.465 . S
C1401 C1400 1.264 . S
C1401 C1403 1.339 . S
C1401 H1428 0.931 . S
C1402 C1403 1.395 . S
C1402 C1404 1.320 . S
C1403 C1401 1.339 . S
C1403 C1402 1.395 . S
C1403 H1429 0.929 . S
C1404 C1402 1.320 . S
C1404 C1405 1.405 . S
C1404 H1430 0.930 . S
C1405 C1400 1.479 . S
C1405 C1404 1.405 . S
C1405 H1431 0.931 . S
U1406 O1407 2.454 . S
U1406 O1408 2.458 . S
U1406 C1409 2.984 . S
U1406 C1410 2.847 . S
U1406 C1423 2.882 . S
U1406 O1424 2.441 . S
U1406 O1425 2.420 . S
U1406 O1426 2.455 . S
U1406 O1427 2.449 . S
O1407 U1406 2.454 . S
O1407 C1409 1.353 . S
O1408 U1406 2.458 . S
O1408 C1409 1.286 . S
C1409 U1406 2.984 . S
C1409 O1407 1.353 . S
C1409 O1408 1.286 . S
C1409 C1411 1.363 . S
C1410 C1400 1.465 . S
C1410 U1406 2.847 . S
C1410 O1424 1.249 . S
C1410 O1425 1.202 . S
C1411 C1409 1.363 . S
C1411 C1413 1.408 . S
C1411 C1416 1.342 . S
C1412 C1413 1.310 . S
C1412 C1415 1.461 . S
C1412 H1432 0.932 . S
C1413 C1411 1.408 . S
C1413 C1412 1.310 . S
C1413 H1433 0.930 . S
C1414 C1415 1.474 . S
C1414 C1416 1.285 . S
C1414 H1434 0.929 . S
C1415 C1412 1.461 . S
C1415 C1414 1.474 . S
C1416 C1411 1.342 . S
C1416 C1414 1.285 . S
C1416 H1435 0.930 . S
C1417 C1420 1.424 . S
C1417 C1422 1.245 . S
C1417 C1423 1.428 . S
C1418 C1421 1.260 . S
C1418 C1422 1.477 . S
C1418 H1436 0.932 . S
C1419 C1420 1.384 . S
C1419 C1421 1.479 . S
C1419 H1437 0.929 . S
C1420 C1417 1.424 . S
C1420 C1419 1.384 . S
C1420 H1438 0.928 . S
C1421 C1418 1.260 . S
C1421 C1419 1.479 . S
C1422 C1417 1.245 . S
C1422 C1418 1.477 . S
C1422 H1439 0.932 . S
C1423 U1406 2.882 . S
C1423 C1417 1.428 . S
C1423 O1426 1.301 . S
C1423 O1427 1.282 . S
O1424 U1406 2.441 . S
O1424 C1410 1.249 . S
O1425 U1406 2.420 . S
O1425 C1410 1.202 . S
O1426 U1406 2.455 . S
O1426 C1423 1.301 . S
O1427 U1406 2.449 . S
O1427 C1423 1.282 . S
H1428 C1401 0.931 . S
H1429 C1403 0.929 . S
H1430 C1404 0.930 . S
H1431 C1405 0.931 . S
H1432 C1412 0.932 . S
H1433 C1413 0.930 . S
H1434 C1414 0.929 . S
H1435 C1416 0.930 . S
H1436 C1418 0.932 . S
H1437 C1419 0.929 . S
H1438 C1420 0.928 . S
H1439 C1422 0.932 . S
C1440 C1441 1.264 . S
C1440 C1445 1.479 . S
C1440 C1450 1.465 . S
C1441 C1440 1.264 . S
C1441 C1443 1.339 . S
C1441 H1468 0.931 . S
C1442 C1443 1.395 . S
C1442 C1444 1.320 . S
C1443 C1441 1.339 . S
C1443 C1442 1.395 . S
C1443 H1469 0.929 . S
C1444 C1442 1.320 . S
C1444 C1445 1.405 . S
C1444 H1470 0.930 . S
C1445 C1440 1.479 . S
C1445 C1444 1.405 . S
C1445 H1471 0.931 . S
U1446 O1447 2.454 . S
U1446 O1448 2.458 . S
U1446 C1449 2.984 . S
U1446 C1450 2.847 . S
U1446 C1463 2.882 . S
U1446 O1464 2.441 . S
U1446 O1465 2.420 . S
U1446 O1466 2.455 . S
U1446 O1467 2.449 . S
O1447 U1446 2.454 . S
O1447 C1449 1.353 . S
O1448 U1446 2.458 . S
O1448 C1449 1.286 . S
C1449 U1446 2.984 . S
C1449 O1447 1.353 . S
C1449 O1448 1.286 . S
C1449 C1451 1.363 . S
C1450 C1440 1.465 . S
C1450 U1446 2.847 . S
C1450 O1464 1.249 . S
C1450 O1465 1.202 . S
C1451 C1449 1.363 . S
C1451 C1453 1.408 . S
C1451 C1456 1.342 . S
C1452 C1453 1.310 . S
C1452 C1455 1.461 . S
C1452 H1472 0.932 . S
C1453 C1451 1.408 . S
C1453 C1452 1.310 . S
C1453 H1473 0.930 . S
C1454 C1455 1.474 . S
C1454 C1456 1.285 . S
C1454 H1474 0.929 . S
C1455 C1452 1.461 . S
C1455 C1454 1.474 . S
C1456 C1451 1.342 . S
C1456 C1454 1.285 . S
C1456 H1475 0.930 . S
C1457 C1460 1.424 . S
C1457 C1462 1.245 . S
C1457 C1463 1.428 . S
C1458 C1461 1.260 . S
C1458 C1462 1.477 . S
C1458 H1476 0.932 . S
C1459 C1460 1.384 . S
C1459 C1461 1.479 . S
C1459 H1477 0.929 . S
C1460 C1457 1.424 . S
C1460 C1459 1.384 . S
C1460 H1478 0.928 . S
C1461 C1458 1.260 . S
C1461 C1459 1.479 . S
C1462 C1457 1.245 . S
C1462 C1458 1.477 . S
C1462 H1479 0.932 . S
C1463 U1446 2.882 . S
C1463 C1457 1.428 . S
C1463 O1466 1.301 . S
C1463 O1467 1.282 . S
O1464 U1446 2.441 . S
O1464 C1450 1.249 . S
O1465 U1446 2.420 . S
O1465 C1450 1.202 . S
O1466 U1446 2.455 . S
O1466 C1463 1.301 . S
O1467 U1446 2.449 . S
O1467 C1463 1.282 . S
H1468 C1441 0.931 . S
H1469 C1443 0.929 . S
H1470 C1444 0.930 . S
H1471 C1445 0.931 . S
H1472 C1452 0.932 . S
H1473 C1453 0.930 . S
H1474 C1454 0.929 . S
H1475 C1456 0.930 . S
H1476 C1458 0.932 . S
H1477 C1459 0.929 . S
H1478 C1460 0.928 . S
H1479 C1462 0.932 . S
C1480 C1481 1.264 . S
C1480 C1485 1.479 . S
C1480 C1490 1.465 . S
C1481 C1480 1.264 . S
C1481 C1483 1.339 . S
C1481 H1508 0.931 . S
C1482 C1483 1.395 . S
C1482 C1484 1.320 . S
C1483 C1481 1.339 . S
C1483 C1482 1.395 . S
C1483 H1509 0.929 . S
C1484 C1482 1.320 . S
C1484 C1485 1.405 . S
C1484 H1510 0.930 . S
C1485 C1480 1.479 . S
C1485 C1484 1.405 . S
C1485 H1511 0.931 . S
U1486 O1487 2.454 . S
U1486 O1488 2.458 . S
U1486 C1489 2.984 . S
U1486 C1490 2.847 . S
U1486 C1503 2.882 . S
U1486 O1504 2.441 . S
U1486 O1505 2.420 . S
U1486 O1506 2.455 . S
U1486 O1507 2.449 . S
O1487 U1486 2.454 . S
O1487 C1489 1.353 . S
O1488 U1486 2.458 . S
O1488 C1489 1.286 . S
C1489 U1486 2.984 . S
C1489 O1487 1.353 . S
C1489 O1488 1.286 . S
C1489 C1491 1.363 . S
C1490 C1480 1.465 . S
C1490 U1486 2.847 . S
C1490 O1504 1.249 . S
C1490 O1505 1.202 . S
C1491 C1489 1.363 . S
C1491 C1493 1.408 . S
C1491 C1496 1.342 . S
C1492 C1493 1.310 . S
C1492 C1495 1.461 . S
C1492 H1512 0.932 . S
C1493 C1491 1.408 . S
C1493 C1492 1.310 . S
C1493 H1513 0.930 . S
C1494 C1495 1.474 . S
C1494 C1496 1.285 . S
C1494 H1514 0.929 . S
C1495 C1492 1.461 . S
C1495 C1494 1.474 . S
C1496 C1491 1.342 . S
C1496 C1494 1.285 . S
C1496 H1515 0.930 . S
C1497 C1500 1.424 . S
C1497 C1502 1.245 . S
C1497 C1503 1.428 . S
C1498 C1501 1.260 . S
C1498 C1502 1.477 . S
C1498 H1516 0.932 . S
C1499 C1500 1.384 . S
C1499 C1501 1.479 . S
C1499 H1517 0.929 . S
C1500 C1497 1.424 . S
C1500 C1499 1.384 . S
C1500 H1518 0.928 . S
C1501 C1498 1.260 . S
C1501 C1499 1.479 . S
C1502 C1497 1.245 . S
C1502 C1498 1.477 . S
C1502 H1519 0.932 . S
C1503 U1486 2.882 . S
C1503 C1497 1.428 . S
C1503 O1506 1.301 . S
C1503 O1507 1.282 . S
O1504 U1486 2.441 . S
O1504 C1490 1.249 . S
O1505 U1486 2.420 . S
O1505 C1490 1.202 . S
O1506 U1486 2.455 . S
O1506 C1503 1.301 . S
O1507 U1486 2.449 . S
O1507 C1503 1.282 . S
H1508 C1481 0.931 . S
H1509 C1483 0.929 . S
H1510 C1484 0.930 . S
H1511 C1485 0.931 . S
H1512 C1492 0.932 . S
H1513 C1493 0.930 . S
H1514 C1494 0.929 . S
H1515 C1496 0.930 . S
H1516 C1498 0.932 . S
H1517 C1499 0.929 . S
H1518 C1500 0.928 . S
H1519 C1502 0.932 . S
C1520 C1521 1.264 . S
C1520 C1525 1.479 . S
C1520 C1530 1.465 . S
C1521 C1520 1.264 . S
C1521 C1523 1.339 . S
C1521 H1548 0.931 . S
C1522 C1523 1.395 . S
C1522 C1524 1.320 . S
C1523 C1521 1.339 . S
C1523 C1522 1.395 . S
C1523 H1549 0.929 . S
C1524 C1522 1.320 . S
C1524 C1525 1.405 . S
C1524 H1550 0.930 . S
C1525 C1520 1.479 . S
C1525 C1524 1.405 . S
C1525 H1551 0.931 . S
U1526 O1527 2.454 . S
U1526 O1528 2.458 . S
U1526 C1529 2.984 . S
U1526 C1530 2.847 . S
U1526 C1543 2.882 . S
U1526 O1544 2.441 . S
U1526 O1545 2.420 . S
U1526 O1546 2.455 . S
U1526 O1547 2.449 . S
O1527 U1526 2.454 . S
O1527 C1529 1.353 . S
O1528 U1526 2.458 . S
O1528 C1529 1.286 . S
C1529 U1526 2.984 . S
C1529 O1527 1.353 . S
C1529 O1528 1.286 . S
C1529 C1531 1.363 . S
C1530 C1520 1.465 . S
C1530 U1526 2.847 . S
C1530 O1544 1.249 . S
C1530 O1545 1.202 . S
C1531 C1529 1.363 . S
C1531 C1533 1.408 . S
C1531 C1536 1.342 . S
C1532 C1533 1.310 . S
C1532 C1535 1.461 . S
C1532 H1552 0.932 . S
C1533 C1531 1.408 . S
C1533 C1532 1.310 . S
C1533 H1553 0.930 . S
C1534 C1535 1.474 . S
C1534 C1536 1.285 . S
C1534 H1554 0.929 . S
C1535 C1532 1.461 . S
C1535 C1534 1.474 . S
C1536 C1531 1.342 . S
C1536 C1534 1.285 . S
C1536 H1555 0.930 . S
C1537 C1540 1.424 . S
C1537 C1542 1.245 . S
C1537 C1543 1.428 . S
C1538 C1541 1.260 . S
C1538 C1542 1.477 . S
C1538 H1556 0.932 . S
C1539 C1540 1.384 . S
C1539 C1541 1.479 . S
C1539 H1557 0.929 . S
C1540 C1537 1.424 . S
C1540 C1539 1.384 . S
C1540 H1558 0.928 . S
C1541 C1538 1.260 . S
C1541 C1539 1.479 . S
C1542 C1537 1.245 . S
C1542 C1538 1.477 . S
C1542 H1559 0.932 . S
C1543 U1526 2.882 . S
C1543 C1537 1.428 . S
C1543 O1546 1.301 . S
C1543 O1547 1.282 . S
O1544 U1526 2.441 . S
O1544 C1530 1.249 . S
O1545 U1526 2.420 . S
O1545 C1530 1.202 . S
O1546 U1526 2.455 . S
O1546 C1543 1.301 . S
O1547 U1526 2.449 . S
O1547 C1543 1.282 . S
H1548 C1521 0.931 . S
H1549 C1523 0.929 . S
H1550 C1524 0.930 . S
H1551 C1525 0.931 . S
H1552 C1532 0.932 . S
H1553 C1533 0.930 . S
H1554 C1534 0.929 . S
H1555 C1536 0.930 . S
H1556 C1538 0.932 . S
H1557 C1539 0.929 . S
H1558 C1540 0.928 . S
H1559 C1542 0.932 . S
C1560 C1561 1.264 . S
C1560 C1565 1.479 . S
C1560 C1570 1.465 . S
C1561 C1560 1.264 . S
C1561 C1563 1.339 . S
C1561 H1588 0.931 . S
C1562 C1563 1.395 . S
C1562 C1564 1.320 . S
C1563 C1561 1.339 . S
C1563 C1562 1.395 . S
C1563 H1589 0.929 . S
C1564 C1562 1.320 . S
C1564 C1565 1.405 . S
C1564 H1590 0.930 . S
C1565 C1560 1.479 . S
C1565 C1564 1.405 . S
C1565 H1591 0.931 . S
U1566 O1567 2.454 . S
U1566 O1568 2.458 . S
U1566 C1569 2.984 . S
U1566 C1570 2.847 . S
U1566 C1583 2.882 . S
U1566 O1584 2.441 . S
U1566 O1585 2.420 . S
U1566 O1586 2.455 . S
U1566 O1587 2.449 . S
O1567 U1566 2.454 . S
O1567 C1569 1.353 . S
O1568 U1566 2.458 . S
O1568 C1569 1.286 . S
C1569 U1566 2.984 . S
C1569 O1567 1.353 . S
C1569 O1568 1.286 . S
C1569 C1571 1.363 . S
C1570 C1560 1.465 . S
C1570 U1566 2.847 . S
C1570 O1584 1.249 . S
C1570 O1585 1.202 . S
C1571 C1569 1.363 . S
C1571 C1573 1.408 . S
C1571 C1576 1.342 . S
C1572 C1573 1.310 . S
C1572 C1575 1.461 . S
C1572 H1592 0.932 . S
C1573 C1571 1.408 . S
C1573 C1572 1.310 . S
C1573 H1593 0.930 . S
C1574 C1575 1.474 . S
C1574 C1576 1.285 . S
C1574 H1594 0.929 . S
C1575 C1572 1.461 . S
C1575 C1574 1.474 . S
C1576 C1571 1.342 . S
C1576 C1574 1.285 . S
C1576 H1595 0.930 . S
C1577 C1580 1.424 . S
C1577 C1582 1.245 . S
C1577 C1583 1.428 . S
C1578 C1581 1.260 . S
C1578 C1582 1.477 . S
C1578 H1596 0.932 . S
C1579 C1580 1.384 . S
C1579 C1581 1.479 . S
C1579 H1597 0.929 . S
C1580 C1577 1.424 . S
C1580 C1579 1.384 . S
C1580 H1598 0.928 . S
C1581 C1578 1.260 . S
C1581 C1579 1.479 . S
C1582 C1577 1.245 . S
C1582 C1578 1.477 . S
C1582 H1599 0.932 . S
C1583 U1566 2.882 . S
C1583 C1577 1.428 . S
C1583 O1586 1.301 . S
C1583 O1587 1.282 . S
O1584 U1566 2.441 . S
O1584 C1570 1.249 . S
O1585 U1566 2.420 . S
O1585 C1570 1.202 . S
O1586 U1566 2.455 . S
O1586 C1583 1.301 . S
O1587 U1566 2.449 . S
O1587 C1583 1.282 . S
H1588 C1561 0.931 . S
H1589 C1563 0.929 . S
H1590 C1564 0.930 . S
H1591 C1565 0.931 . S
H1592 C1572 0.932 . S
H1593 C1573 0.930 . S
H1594 C1574 0.929 . S
H1595 C1576 0.930 . S
H1596 C1578 0.932 . S
H1597 C1579 0.929 . S
H1598 C1580 0.928 . S
H1599 C1582 0.932 . S
C1600 C1601 1.264 . S
C1600 C1605 1.479 . S
C1600 C1610 1.465 . S
C1601 C1600 1.264 . S
C1601 C1603 1.339 . S
C1601 H1628 0.931 . S
C1602 C1603 1.395 . S
C1602 C1604 1.320 . S
C1603 C1601 1.339 . S
C1603 C1602 1.395 . S
C1603 H1629 0.929 . S
C1604 C1602 1.320 . S
C1604 C1605 1.405 . S
C1604 H1630 0.930 . S
C1605 C1600 1.479 . S
C1605 C1604 1.405 . S
C1605 H1631 0.931 . S
U1606 O1607 2.454 . S
U1606 O1608 2.458 . S
U1606 C1609 2.984 . S
U1606 C1610 2.847 . S
U1606 C1623 2.882 . S
U1606 O1624 2.441 . S
U1606 O1625 2.420 . S
U1606 O1626 2.455 . S
U1606 O1627 2.449 . S
O1607 U1606 2.454 . S
O1607 C1609 1.353 . S
O1608 U1606 2.458 . S
O1608 C1609 1.286 . S
C1609 U1606 2.984 . S
C1609 O1607 1.353 . S
C1609 O1608 1.286 . S
C1609 C1611 1.363 . S
C1610 C1600 1.465 . S
C1610 U1606 2.847 . S
C1610 O1624 1.249 . S
C1610 O1625 1.202 . S
C1611 C1609 1.363 . S
C1611 C1613 1.408 . S
C1611 C1616 1.342 . S
C1612 C1613 1.310 . S
C1612 C1615 1.461 . S
C1612 H1632 0.932 . S
C1613 C1611 1.408 . S
C1613 C1612 1.310 . S
C1613 H1633 0.930 . S
C1614 C1615 1.474 . S
C1614 C1616 1.285 . S
C1614 H1634 0.929 . S
C1615 C1612 1.461 . S
C1615 C1614 1.474 . S
C1616 C1611 1.342 . S
C1616 C1614 1.285 . S
C1616 H1635 0.930 . S
C1617 C1620 1.424 . S
C1617 C1622 1.245 . S
C1617 C1623 1.428 . S
C1618 C1621 1.260 . S
C1618 C1622 1.477 . S
C1618 H1636 0.932 . S
C1619 C1620 1.384 . S
C1619 C1621 1.479 . S
C1619 H1637 0.929 . S
C1620 C1617 1.424 . S
C1620 C1619 1.384 . S
C1620 H1638 0.928 . S
C1621 C1618 1.260 . S
C1621 C1619 1.479 . S
C1622 C1617 1.245 . S
C1622 C1618 1.477 . S
C1622 H1639 0.932 . S
C1623 U1606 2.882 . S
C1623 C1617 1.428 . S
C1623 O1626 1.301 . S
C1623 O1627 1.282 . S
O1624 U1606 2.441 . S
O1624 C1610 1.249 . S
O1625 U1606 2.420 . S
O1625 C1610 1.202 . S
O1626 U1606 2.455 . S
O1626 C1623 1.301 . S
O1627 U1606 2.449 . S
O1627 C1623 1.282 . S
H1628 C1601 0.931 . S
H1629 C1603 0.929 . S
H1630 C1604 0.930 . S
H1631 C1605 0.931 . S
H1632 C1612 0.932 . S
H1633 C1613 0.930 . S
H1634 C1614 0.929 . S
H1635 C1616 0.930 . S
H1636 C1618 0.932 . S
H1637 C1619 0.929 . S
H1638 C1620 0.928 . S
H1639 C1622 0.932 . S
C1640 C1641 1.264 . S
C1640 C1645 1.479 . S
C1640 C1650 1.465 . S
C1641 C1640 1.264 . S
C1641 C1643 1.339 . S
C1641 H1668 0.931 . S
C1642 C1643 1.395 . S
C1642 C1644 1.320 . S
C1643 C1641 1.339 . S
C1643 C1642 1.395 . S
C1643 H1669 0.929 . S
C1644 C1642 1.320 . S
C1644 C1645 1.405 . S
C1644 H1670 0.930 . S
C1645 C1640 1.479 . S
C1645 C1644 1.405 . S
C1645 H1671 0.931 . S
U1646 O1647 2.454 . S
U1646 O1648 2.458 . S
U1646 C1649 2.984 . S
U1646 C1650 2.847 . S
U1646 C1663 2.882 . S
U1646 O1664 2.441 . S
U1646 O1665 2.420 . S
U1646 O1666 2.455 . S
U1646 O1667 2.449 . S
O1647 U1646 2.454 . S
O1647 C1649 1.353 . S
O1648 U1646 2.458 . S
O1648 C1649 1.286 . S
C1649 U1646 2.984 . S
C1649 O1647 1.353 . S
C1649 O1648 1.286 . S
C1649 C1651 1.363 . S
C1650 C1640 1.465 . S
C1650 U1646 2.847 . S
C1650 O1664 1.249 . S
C1650 O1665 1.202 . S
C1651 C1649 1.363 . S
C1651 C1653 1.408 . S
C1651 C1656 1.342 . S
C1652 C1653 1.310 . S
C1652 C1655 1.461 . S
C1652 H1672 0.932 . S
C1653 C1651 1.408 . S
C1653 C1652 1.310 . S
C1653 H1673 0.930 . S
C1654 C1655 1.474 . S
C1654 C1656 1.285 . S
C1654 H1674 0.929 . S
C1655 C1652 1.461 . S
C1655 C1654 1.474 . S
C1656 C1651 1.342 . S
C1656 C1654 1.285 . S
C1656 H1675 0.930 . S
C1657 C1660 1.424 . S
C1657 C1662 1.245 . S
C1657 C1663 1.428 . S
C1658 C1661 1.260 . S
C1658 C1662 1.477 . S
C1658 H1676 0.932 . S
C1659 C1660 1.384 . S
C1659 C1661 1.479 . S
C1659 H1677 0.929 . S
C1660 C1657 1.424 . S
C1660 C1659 1.384 . S
C1660 H1678 0.928 . S
C1661 C1658 1.260 . S
C1661 C1659 1.479 . S
C1662 C1657 1.245 . S
C1662 C1658 1.477 . S
C1662 H1679 0.932 . S
C1663 U1646 2.882 . S
C1663 C1657 1.428 . S
C1663 O1666 1.301 . S
C1663 O1667 1.282 . S
O1664 U1646 2.441 . S
O1664 C1650 1.249 . S
O1665 U1646 2.420 . S
O1665 C1650 1.202 . S
O1666 U1646 2.455 . S
O1666 C1663 1.301 . S
O1667 U1646 2.449 . S
O1667 C1663 1.282 . S
H1668 C1641 0.931 . S
H1669 C1643 0.929 . S
H1670 C1644 0.930 . S
H1671 C1645 0.931 . S
H1672 C1652 0.932 . S
H1673 C1653 0.930 . S
H1674 C1654 0.929 . S
H1675 C1656 0.930 . S
H1676 C1658 0.932 . S
H1677 C1659 0.929 . S
H1678 C1660 0.928 . S
H1679 C1662 0.932 . S
C1680 C1681 1.264 . S
C1680 C1685 1.479 . S
C1680 C1690 1.465 . S
C1681 C1680 1.264 . S
C1681 C1683 1.339 . S
C1681 H1708 0.931 . S
C1682 C1683 1.395 . S
C1682 C1684 1.320 . S
C1683 C1681 1.339 . S
C1683 C1682 1.395 . S
C1683 H1709 0.929 . S
C1684 C1682 1.320 . S
C1684 C1685 1.405 . S
C1684 H1710 0.930 . S
C1685 C1680 1.479 . S
C1685 C1684 1.405 . S
C1685 H1711 0.931 . S
U1686 O1687 2.454 . S
U1686 O1688 2.458 . S
U1686 C1689 2.984 . S
U1686 C1690 2.847 . S
U1686 C1703 2.882 . S
U1686 O1704 2.441 . S
U1686 O1705 2.420 . S
U1686 O1706 2.455 . S
U1686 O1707 2.449 . S
O1687 U1686 2.454 . S
O1687 C1689 1.353 . S
O1688 U1686 2.458 . S
O1688 C1689 1.286 . S
C1689 U1686 2.984 . S
C1689 O1687 1.353 . S
C1689 O1688 1.286 . S
C1689 C1691 1.363 . S
C1690 C1680 1.465 . S
C1690 U1686 2.847 . S
C1690 O1704 1.249 . S
C1690 O1705 1.202 . S
C1691 C1689 1.363 . S
C1691 C1693 1.408 . S
C1691 C1696 1.342 . S
C1692 C1693 1.310 . S
C1692 C1695 1.461 . S
C1692 H1712 0.932 . S
C1693 C1691 1.408 . S
C1693 C1692 1.310 . S
C1693 H1713 0.930 . S
C1694 C1695 1.474 . S
C1694 C1696 1.285 . S
C1694 H1714 0.929 . S
C1695 C1692 1.461 . S
C1695 C1694 1.474 . S
C1696 C1691 1.342 . S
C1696 C1694 1.285 . S
C1696 H1715 0.930 . S
C1697 C1700 1.424 . S
C1697 C1702 1.245 . S
C1697 C1703 1.428 . S
C1698 C1701 1.260 . S
C1698 C1702 1.477 . S
C1698 H1716 0.932 . S
C1699 C1700 1.384 . S
C1699 C1701 1.479 . S
C1699 H1717 0.929 . S
C1700 C1697 1.424 . S
C1700 C1699 1.384 . S
C1700 H1718 0.928 . S
C1701 C1698 1.260 . S
C1701 C1699 1.479 . S
C1702 C1697 1.245 . S
C1702 C1698 1.477 . S
C1702 H1719 0.932 . S
C1703 U1686 2.882 . S
C1703 C1697 1.428 . S
C1703 O1706 1.301 . S
C1703 O1707 1.282 . S
O1704 U1686 2.441 . S
O1704 C1690 1.249 . S
O1705 U1686 2.420 . S
O1705 C1690 1.202 . S
O1706 U1686 2.455 . S
O1706 C1703 1.301 . S
O1707 U1686 2.449 . S
O1707 C1703 1.282 . S
H1708 C1681 0.931 . S
H1709 C1683 0.929 . S
H1710 C1684 0.930 . S
H1711 C1685 0.931 . S
H1712 C1692 0.932 . S
H1713 C1693 0.930 . S
H1714 C1694 0.929 . S
H1715 C1696 0.930 . S
H1716 C1698 0.932 . S
H1717 C1699 0.929 . S
H1718 C1700 0.928 . S
H1719 C1702 0.932 . S
C1720 C1721 1.264 . S
C1720 C1725 1.479 . S
C1720 C1730 1.465 . S
C1721 C1720 1.264 . S
C1721 C1723 1.339 . S
C1721 H1748 0.931 . S
C1722 C1723 1.395 . S
C1722 C1724 1.320 . S
C1723 C1721 1.339 . S
C1723 C1722 1.395 . S
C1723 H1749 0.929 . S
C1724 C1722 1.320 . S
C1724 C1725 1.405 . S
C1724 H1750 0.930 . S
C1725 C1720 1.479 . S
C1725 C1724 1.405 . S
C1725 H1751 0.931 . S
U1726 O1727 2.454 . S
U1726 O1728 2.458 . S
U1726 C1729 2.984 . S
U1726 C1730 2.847 . S
U1726 C1743 2.882 . S
U1726 O1744 2.441 . S
U1726 O1745 2.420 . S
U1726 O1746 2.455 . S
U1726 O1747 2.449 . S
O1727 U1726 2.454 . S
O1727 C1729 1.353 . S
O1728 U1726 2.458 . S
O1728 C1729 1.286 . S
C1729 U1726 2.984 . S
C1729 O1727 1.353 . S
C1729 O1728 1.286 . S
C1729 C1731 1.363 . S
C1730 C1720 1.465 . S
C1730 U1726 2.847 . S
C1730 O1744 1.249 . S
C1730 O1745 1.202 . S
C1731 C1729 1.363 . S
C1731 C1733 1.408 . S
C1731 C1736 1.342 . S
C1732 C1733 1.310 . S
C1732 C1735 1.461 . S
C1732 H1752 0.932 . S
C1733 C1731 1.408 . S
C1733 C1732 1.310 . S
C1733 H1753 0.930 . S
C1734 C1735 1.474 . S
C1734 C1736 1.285 . S
C1734 H1754 0.929 . S
C1735 C1732 1.461 . S
C1735 C1734 1.474 . S
C1736 C1731 1.342 . S
C1736 C1734 1.285 . S
C1736 H1755 0.930 . S
C1737 C1740 1.424 . S
C1737 C1742 1.245 . S
C1737 C1743 1.428 . S
C1738 C1741 1.260 . S
C1738 C1742 1.477 . S
C1738 H1756 0.932 . S
C1739 C1740 1.384 . S
C1739 C1741 1.479 . S
C1739 H1757 0.929 . S
C1740 C1737 1.424 . S
C1740 C1739 1.384 . S
C1740 H1758 0.928 . S
C1741 C1738 1.260 . S
C1741 C1739 1.479 . S
C1742 C1737 1.245 . S
C1742 C1738 1.477 . S
C1742 H1759 0.932 . S
C1743 U1726 2.882 . S
C1743 C1737 1.428 . S
C1743 O1746 1.301 . S
C1743 O1747 1.282 . S
O1744 U1726 2.441 . S
O1744 C1730 1.249 . S
O1745 U1726 2.420 . S
O1745 C1730 1.202 . S
O1746 U1726 2.455 . S
O1746 C1743 1.301 . S
O1747 U1726 2.449 . S
O1747 C1743 1.282 . S
H1748 C1721 0.931 . S
H1749 C1723 0.929 . S
H1750 C1724 0.930 . S
H1751 C1725 0.931 . S
H1752 C1732 0.932 . S
H1753 C1733 0.930 . S
H1754 C1734 0.929 . S
H1755 C1736 0.930 . S
H1756 C1738 0.932 . S
H1757 C1739 0.929 . S
H1758 C1740 0.928 . S
H1759 C1742 0.932 . S
C1760 C1761 1.264 . S
C1760 C1765 1.479 . S
C1760 C1770 1.465 . S
C1761 C1760 1.264 . S
C1761 C1763 1.339 . S
C1761 H1788 0.931 . S
C1762 C1763 1.395 . S
C1762 C1764 1.320 . S
C1763 C1761 1.339 . S
C1763 C1762 1.395 . S
C1763 H1789 0.929 . S
C1764 C1762 1.320 . S
C1764 C1765 1.405 . S
C1764 H1790 0.930 . S
C1765 C1760 1.479 . S
C1765 C1764 1.405 . S
C1765 H1791 0.931 . S
U1766 O1767 2.454 . S
U1766 O1768 2.458 . S
U1766 C1769 2.984 . S
U1766 C1770 2.847 . S
U1766 C1783 2.882 . S
U1766 O1784 2.441 . S
U1766 O1785 2.420 . S
U1766 O1786 2.455 . S
U1766 O1787 2.449 . S
O1767 U1766 2.454 . S
O1767 C1769 1.353 . S
O1768 U1766 2.458 . S
O1768 C1769 1.286 . S
C1769 U1766 2.984 . S
C1769 O1767 1.353 . S
C1769 O1768 1.286 . S
C1769 C1771 1.363 . S
C1770 C1760 1.465 . S
C1770 U1766 2.847 . S
C1770 O1784 1.249 . S
C1770 O1785 1.202 . S
C1771 C1769 1.363 . S
C1771 C1773 1.408 . S
C1771 C1776 1.342 . S
C1772 C1773 1.310 . S
C1772 C1775 1.461 . S
C1772 H1792 0.932 . S
C1773 C1771 1.408 . S
C1773 C1772 1.310 . S
C1773 H1793 0.930 . S
C1774 C1775 1.474 . S
C1774 C1776 1.285 . S
C1774 H1794 0.929 . S
C1775 C1772 1.461 . S
C1775 C1774 1.474 . S
C1776 C1771 1.342 . S
C1776 C1774 1.285 . S
C1776 H1795 0.930 . S
C1777 C1780 1.424 . S
C1777 C1782 1.245 . S
C1777 C1783 1.428 . S
C1778 C1781 1.260 . S
C1778 C1782 1.477 . S
C1778 H1796 0.932 . S
C1779 C1780 1.384 . S
C1779 C1781 1.479 . S
C1779 H1797 0.929 . S
C1780 C1777 1.424 . S
C1780 C1779 1.384 . S
C1780 H1798 0.928 . S
C1781 C1778 1.260 . S
C1781 C1779 1.479 . S
C1782 C1777 1.245 . S
C1782 C1778 1.477 . S
C1782 H1799 0.932 . S
C1783 U1766 2.882 . S
C1783 C1777 1.428 . S
C1783 O1786 1.301 . S
C1783 O1787 1.282 . S
O1784 U1766 2.441 . S
O1784 C1770 1.249 . S
O1785 U1766 2.420 . S
O1785 C1770 1.202 . S
O1786 U1766 2.455 . S
O1786 C1783 1.301 . S
O1787 U1766 2.449 . S
O1787 C1783 1.282 . S
H1788 C1761 0.931 . S
H1789 C1763 0.929 . S
H1790 C1764 0.930 . S
H1791 C1765 0.931 . S
H1792 C1772 0.932 . S
H1793 C1773 0.930 . S
H1794 C1774 0.929 . S
H1795 C1776 0.930 . S
H1796 C1778 0.932 . S
H1797 C1779 0.929 . S
H1798 C1780 0.928 . S
H1799 C1782 0.932 . S
C1800 C1801 1.264 . S
C1800 C1805 1.479 . S
C1800 C1810 1.465 . S
C1801 C1800 1.264 . S
C1801 C1803 1.339 . S
C1801 H1828 0.931 . S
C1802 C1803 1.395 . S
C1802 C1804 1.320 . S
C1803 C1801 1.339 . S
C1803 C1802 1.395 . S
C1803 H1829 0.929 . S
C1804 C1802 1.320 . S
C1804 C1805 1.405 . S
C1804 H1830 0.930 . S
C1805 C1800 1.479 . S
C1805 C1804 1.405 . S
C1805 H1831 0.931 . S
U1806 O1807 2.454 . S
U1806 O1808 2.458 . S
U1806 C1809 2.984 . S
U1806 C1810 2.847 . S
U1806 C1823 2.882 . S
U1806 O1824 2.441 . S
U1806 O1825 2.420 . S
U1806 O1826 2.455 . S
U1806 O1827 2.449 . S
O1807 U1806 2.454 . S
O1807 C1809 1.353 . S
O1808 U1806 2.458 . S
O1808 C1809 1.286 . S
C1809 U1806 2.984 . S
C1809 O1807 1.353 . S
C1809 O1808 1.286 . S
C1809 C1811 1.363 . S
C1810 C1800 1.465 . S
C1810 U1806 2.847 . S
C1810 O1824 1.249 . S
C1810 O1825 1.202 . S
C1811 C1809 1.363 . S
C1811 C1813 1.408 . S
C1811 C1816 1.342 . S
C1812 C1813 1.310 . S
C1812 C1815 1.461 . S
C1812 H1832 0.932 . S
C1813 C1811 1.408 . S
C1813 C1812 1.310 . S
C1813 H1833 0.930 . S
C1814 C1815 1.474 . S
C1814 C1816 1.285 . S
C1814 H1834 0.929 . S
C1815 C1812 1.461 . S
C1815 C1814 1.474 . S
C1816 C1811 1.342 . S
C1816 C1814 1.285 . S
C1816 H1835 0.930 . S
C1817 C1820 1.424 . S
C1817 C1822 1.245 . S
C1817 C1823 1.428 . S
C1818 C1821 1.260 . S
C1818 C1822 1.477 . S
C1818 H1836 0.932 . S
C1819 C1820 1.384 . S
C1819 C1821 1.479 . S
C1819 H1837 0.929 . S
C1820 C1817 1.424 . S
C1820 C1819 1.384 . S
C1820 H1838 0.928 . S
C1821 C1818 1.260 . S
C1821 C1819 1.479 . S
C1822 C1817 1.245 . S
C1822 C1818 1.477 . S
C1822 H1839 0.932 . S
C1823 U1806 2.882 . S
C1823 C1817 1.428 . S
C1823 O1826 1.301 . S
C1823 O1827 1.282 . S
O1824 U1806 2.441 . S
O1824 C1810 1.249 . S
O1825 U1806 2.420 . S
O1825 C1810 1.202 . S
O1826 U1806 2.455 . S
O1826 C1823 1.301 . S
O1827 U1806 2.449 . S
O1827 C1823 1.282 . S
H1828 C1801 0.931 . S
H1829 C1803 0.929 . S
H1830 C1804 0.930 . S
H1831 C1805 0.931 . S
H1832 C1812 0.932 . S
H1833 C1813 0.930 . S
H1834 C1814 0.929 . S
H1835 C1816 0.930 . S
H1836 C1818 0.932 . S
H1837 C1819 0.929 . S
H1838 C1820 0.928 . S
H1839 C1822 0.932 . S
C1840 C1841 1.264 . S
C1840 C1845 1.479 . S
C1840 C1850 1.465 . S
C1841 C1840 1.264 . S
C1841 C1843 1.339 . S
C1841 H1868 0.931 . S
C1842 C1843 1.395 . S
C1842 C1844 1.320 . S
C1843 C1841 1.339 . S
C1843 C1842 1.395 . S
C1843 H1869 0.929 . S
C1844 C1842 1.320 . S
C1844 C1845 1.405 . S
C1844 H1870 0.930 . S
C1845 C1840 1.479 . S
C1845 C1844 1.405 . S
C1845 H1871 0.931 . S
U1846 O1847 2.454 . S
U1846 O1848 2.458 . S
U1846 C1849 2.984 . S
U1846 C1850 2.847 . S
U1846 C1863 2.882 . S
U1846 O1864 2.441 . S
U1846 O1865 2.420 . S
U1846 O1866 2.455 . S
U1846 O1867 2.449 . S
O1847 U1846 2.454 . S
O1847 C1849 1.353 . S
O1848 U1846 2.458 . S
O1848 C1849 1.286 . S
C1849 U1846 2.984 . S
C1849 O1847 1.353 . S
C1849 O1848 1.286 . S
C1849 C1851 1.363 . S
C1850 C1840 1.465 . S
C1850 U1846 2.847 . S
C1850 O1864 1.249 . S
C1850 O1865 1.202 . S
C1851 C1849 1.363 . S
C1851 C1853 1.408 . S
C1851 C1856 1.342 . S
C1852 C1853 1.310 . S
C1852 C1855 1.461 . S
C1852 H1872 0.932 . S
C1853 C1851 1.408 . S
C1853 C1852 1.310 . S
C1853 H1873 0.930 . S
C1854 C1855 1.474 . S
C1854 C1856 1.285 . S
C1854 H1874 0.929 . S
C1855 C1852 1.461 . S
C1855 C1854 1.474 . S
C1856 C1851 1.342 . S
C1856 C1854 1.285 . S
C1856 H1875 0.930 . S
C1857 C1860 1.424 . S
C1857 C1862 1.245 . S
C1857 C1863 1.428 . S
C1858 C1861 1.260 . S
C1858 C1862 1.477 . S
C1858 H1876 0.932 . S
C1859 C1860 1.384 . S
C1859 C1861 1.479 . S
C1859 H1877 0.929 . S
C1860 C1857 1.424 . S
C1860 C1859 1.384 . S
C1860 H1878 0.928 . S
C1861 C1858 1.260 . S
C1861 C1859 1.479 . S
C1862 C1857 1.245 . S
C1862 C1858 1.477 . S
C1862 H1879 0.932 . S
C1863 U1846 2.882 . S
C1863 C1857 1.428 . S
C1863 O1866 1.301 . S
C1863 O1867 1.282 . S
O1864 U1846 2.441 . S
O1864 C1850 1.249 . S
O1865 U1846 2.420 . S
O1865 C1850 1.202 . S
O1866 U1846 2.455 . S
O1866 C1863 1.301 . S
O1867 U1846 2.449 . S
O1867 C1863 1.282 . S
H1868 C1841 0.931 . S
H1869 C1843 0.929 . S
H1870 C1844 0.930 . S
H1871 C1845 0.931 . S
H1872 C1852 0.932 . S
H1873 C1853 0.930 . S
H1874 C1854 0.929 . S
H1875 C1856 0.930 . S
H1876 C1858 0.932 . S
H1877 C1859 0.929 . S
H1878 C1860 0.928 . S
H1879 C1862 0.932 . S
C1880 C1881 1.264 . S
C1880 C1885 1.479 . S
C1880 C1890 1.465 . S
C1881 C1880 1.264 . S
C1881 C1883 1.339 . S
C1881 H1908 0.931 . S
C1882 C1883 1.395 . S
C1882 C1884 1.320 . S
C1883 C1881 1.339 . S
C1883 C1882 1.395 . S
C1883 H1909 0.929 . S
C1884 C1882 1.320 . S
C1884 C1885 1.405 . S
C1884 H1910 0.930 . S
C1885 C1880 1.479 . S
C1885 C1884 1.405 . S
C1885 H1911 0.931 . S
U1886 O1887 2.454 . S
U1886 O1888 2.458 . S
U1886 C1889 2.984 . S
U1886 C1890 2.847 . S
U1886 C1903 2.882 . S
U1886 O1904 2.441 . S
U1886 O1905 2.420 . S
U1886 O1906 2.455 . S
U1886 O1907 2.449 . S
O1887 U1886 2.454 . S
O1887 C1889 1.353 . S
O1888 U1886 2.458 . S
O1888 C1889 1.286 . S
C1889 U1886 2.984 . S
C1889 O1887 1.353 . S
C1889 O1888 1.286 . S
C1889 C1891 1.363 . S
C1890 C1880 1.465 . S
C1890 U1886 2.847 . S
C1890 O1904 1.249 . S
C1890 O1905 1.202 . S
C1891 C1889 1.363 . S
C1891 C1893 1.408 . S
C1891 C1896 1.342 . S
C1892 C1893 1.310 . S
C1892 C1895 1.461 . S
C1892 H1912 0.932 . S
C1893 C1891 1.408 . S
C1893 C1892 1.310 . S
C1893 H1913 0.930 . S
C1894 C1895 1.474 . S
C1894 C1896 1.285 . S
C1894 H1914 0.929 . S
C1895 C1892 1.461 . S
C1895 C1894 1.474 . S
C1896 C1891 1.342 . S
C1896 C1894 1.285 . S
C1896 H1915 0.930 . S
C1897 C1900 1.424 . S
C1897 C1902 1.245 . S
C1897 C1903 1.428 . S
C1898 C1901 1.260 . S
C1898 C1902 1.477 . S
C1898 H1916 0.932 . S
C1899 C1900 1.384 . S
C1899 C1901 1.479 . S
C1899 H1917 0.929 . S
C1900 C1897 1.424 . S
C1900 C1899 1.384 . S
C1900 H1918 0.928 . S
C1901 C1898 1.260 . S
C1901 C1899 1.479 . S
C1902 C1897 1.245 . S
C1902 C1898 1.477 . S
C1902 H1919 0.932 . S
C1903 U1886 2.882 . S
C1903 C1897 1.428 . S
C1903 O1906 1.301 . S
C1903 O1907 1.282 . S
O1904 U1886 2.441 . S
O1904 C1890 1.249 . S
O1905 U1886 2.420 . S
O1905 C1890 1.202 . S
O1906 U1886 2.455 . S
O1906 C1903 1.301 . S
O1907 U1886 2.449 . S
O1907 C1903 1.282 . S
H1908 C1881 0.931 . S
H1909 C1883 0.929 . S
H1910 C1884 0.930 . S
H1911 C1885 0.931 . S
H1912 C1892 0.932 . S
H1913 C1893 0.930 . S
H1914 C1894 0.929 . S
H1915 C1896 0.930 . S
H1916 C1898 0.932 . S
H1917 C1899 0.929 . S
H1918 C1900 0.928 . S
H1919 C1902 0.932 . S
H1920 C1926 0.930 . S
H1921 C1930 0.930 . S
H1922 C1935 0.929 . S
H1923 C1933 0.929 . S
H1924 C1928 0.929 . S
H1925 C1934 0.929 . S
C1926 H1920 0.930 . S
C1926 C1927 1.367 . S
C1926 C1934 1.378 . S
C1927 C1926 1.367 . S
C1927 C1935 1.433 . S
C1928 H1924 0.929 . S
C1928 C1930 1.378 . S
C1928 C1932 1.350 . S
C1929 C1932 1.463 . S
C1929 C1934 1.350 . S
C1929 N1937 1.427 . S
C1930 H1921 0.930 . S
C1930 C1928 1.378 . S
C1930 C1931 1.367 . S
C1931 C1930 1.367 . S
C1931 C1933 1.433 . S
C1932 C1928 1.350 . S
C1932 C1929 1.463 . S
C1932 N1936 1.427 . S
C1933 H1923 0.929 . S
C1933 C1931 1.433 . S
C1933 N1936 1.384 . S
C1934 H1925 0.929 . S
C1934 C1926 1.378 . S
C1934 C1929 1.350 . S
C1935 H1922 0.929 . S
C1935 C1927 1.433 . S
C1935 N1937 1.384 . S
N1936 C1932 1.427 . S
N1936 C1933 1.384 . S
N1937 C1929 1.427 . S
N1937 C1935 1.384 . S
H1938 C1944 0.930 . S
H1939 C1948 0.930 . S
H1940 C1953 0.929 . S
H1941 C1951 0.929 . S
H1942 C1946 0.929 . S
H1943 C1952 0.929 . S
C1944 H1938 0.930 . S
C1944 C1945 1.367 . S
C1944 C1952 1.378 . S
C1945 C1944 1.367 . S
C1945 C1953 1.433 . S
C1946 H1942 0.929 . S
C1946 C1948 1.378 . S
C1946 C1950 1.350 . S
C1947 C1950 1.463 . S
C1947 C1952 1.350 . S
C1947 N1955 1.427 . S
C1948 H1939 0.930 . S
C1948 C1946 1.378 . S
C1948 C1949 1.367 . S
C1949 C1948 1.367 . S
C1949 C1951 1.433 . S
C1950 C1946 1.350 . S
C1950 C1947 1.463 . S
C1950 N1954 1.427 . S
C1951 H1941 0.929 . S
C1951 C1949 1.433 . S
C1951 N1954 1.384 . S
C1952 H1943 0.929 . S
C1952 C1944 1.378 . S
C1952 C1947 1.350 . S
C1953 H1940 0.929 . S
C1953 C1945 1.433 . S
C1953 N1955 1.384 . S
N1954 C1950 1.427 . S
N1954 C1951 1.384 . S
N1955 C1947 1.427 . S
N1955 C1953 1.384 . S
H1956 C1962 0.930 . S
H1957 C1966 0.930 . S
H1958 C1971 0.929 . S
H1959 C1969 0.929 . S
H1960 C1964 0.929 . S
H1961 C1970 0.929 . S
C1962 H1956 0.930 . S
C1962 C1963 1.367 . S
C1962 C1970 1.378 . S
C1963 C1962 1.367 . S
C1963 C1971 1.433 . S
C1964 H1960 0.929 . S
C1964 C1966 1.378 . S
C1964 C1968 1.350 . S
C1965 C1968 1.463 . S
C1965 C1970 1.350 . S
C1965 N1973 1.427 . S
C1966 H1957 0.930 . S
C1966 C1964 1.378 . S
C1966 C1967 1.367 . S
C1967 C1966 1.367 . S
C1967 C1969 1.433 . S
C1968 C1964 1.350 . S
C1968 C1965 1.463 . S
C1968 N1972 1.427 . S
C1969 H1959 0.929 . S
C1969 C1967 1.433 . S
C1969 N1972 1.384 . S
C1970 H1961 0.929 . S
C1970 C1962 1.378 . S
C1970 C1965 1.350 . S
C1971 H1958 0.929 . S
C1971 C1963 1.433 . S
C1971 N1973 1.384 . S
N1972 C1968 1.427 . S
N1972 C1969 1.384 . S
N1973 C1965 1.427 . S
N1973 C1971 1.384 . S
H1974 C1980 0.930 . S
H1975 C1984 0.930 . S
H1976 C1989 0.929 . S
H1977 C1987 0.929 . S
H1978 C1982 0.929 . S
H1979 C1988 0.929 . S
C1980 H1974 0.930 . S
C1980 C1981 1.367 . S
C1980 C1988 1.378 . S
C1981 C1980 1.367 . S
C1981 C1989 1.433 . S
C1982 H1978 0.929 . S
C1982 C1984 1.378 . S
C1982 C1986 1.350 . S
C1983 C1986 1.463 . S
C1983 C1988 1.350 . S
C1983 N1991 1.427 . S
C1984 H1975 0.930 . S
C1984 C1982 1.378 . S
C1984 C1985 1.367 . S
C1985 C1984 1.367 . S
C1985 C1987 1.433 . S
C1986 C1982 1.350 . S
C1986 C1983 1.463 . S
C1986 N1990 1.427 . S
C1987 H1977 0.929 . S
C1987 C1985 1.433 . S
C1987 N1990 1.384 . S
C1988 H1979 0.929 . S
C1988 C1980 1.378 . S
C1988 C1983 1.350 . S
C1989 H1976 0.929 . S
C1989 C1981 1.433 . S
C1989 N1991 1.384 . S
N1990 C1986 1.427 . S
N1990 C1987 1.384 . S
N1991 C1983 1.427 . S
N1991 C1989 1.384 . S
H1992 C1998 0.930 . S
H1993 C2002 0.930 . S
H1994 C2007 0.929 . S
H1995 C2005 0.929 . S
H1996 C2000 0.929 . S
H1997 C2006 0.929 . S
C1998 H1992 0.930 . S
C1998 C1999 1.367 . S
C1998 C2006 1.378 . S
C1999 C1998 1.367 . S
C1999 C2007 1.433 . S
C2000 H1996 0.929 . S
C2000 C2002 1.378 . S
C2000 C2004 1.350 . S
C2001 C2004 1.463 . S
C2001 C2006 1.350 . S
C2001 N2009 1.427 . S
C2002 H1993 0.930 . S
C2002 C2000 1.378 . S
C2002 C2003 1.367 . S
C2003 C2002 1.367 . S
C2003 C2005 1.433 . S
C2004 C2000 1.350 . S
C2004 C2001 1.463 . S
C2004 N2008 1.427 . S
C2005 H1995 0.929 . S
C2005 C2003 1.433 . S
C2005 N2008 1.384 . S
C2006 H1997 0.929 . S
C2006 C1998 1.378 . S
C2006 C2001 1.350 . S
C2007 H1994 0.929 . S
C2007 C1999 1.433 . S
C2007 N2009 1.384 . S
N2008 C2004 1.427 . S
N2008 C2005 1.384 . S
N2009 C2001 1.427 . S
N2009 C2007 1.384 . S
H2010 C2016 0.930 . S
H2011 C2020 0.930 . S
H2012 C2025 0.929 . S
H2013 C2023 0.929 . S
H2014 C2018 0.929 . S
H2015 C2024 0.929 . S
C2016 H2010 0.930 . S
C2016 C2017 1.367 . S
C2016 C2024 1.378 . S
C2017 C2016 1.367 . S
C2017 C2025 1.433 . S
C2018 H2014 0.929 . S
C2018 C2020 1.378 . S
C2018 C2022 1.350 . S
C2019 C2022 1.463 . S
C2019 C2024 1.350 . S
C2019 N2027 1.427 . S
C2020 H2011 0.930 . S
C2020 C2018 1.378 . S
C2020 C2021 1.367 . S
C2021 C2020 1.367 . S
C2021 C2023 1.433 . S
C2022 C2018 1.350 . S
C2022 C2019 1.463 . S
C2022 N2026 1.427 . S
C2023 H2013 0.929 . S
C2023 C2021 1.433 . S
C2023 N2026 1.384 . S
C2024 H2015 0.929 . S
C2024 C2016 1.378 . S
C2024 C2019 1.350 . S
C2025 H2012 0.929 . S
C2025 C2017 1.433 . S
C2025 N2027 1.384 . S
N2026 C2022 1.427 . S
N2026 C2023 1.384 . S
N2027 C2019 1.427 . S
N2027 C2025 1.384 . S
H2028 C2034 0.930 . S
H2029 C2038 0.930 . S
H2030 C2043 0.929 . S
H2031 C2041 0.929 . S
H2032 C2036 0.929 . S
H2033 C2042 0.929 . S
C2034 H2028 0.930 . S
C2034 C2035 1.367 . S
C2034 C2042 1.378 . S
C2035 C2034 1.367 . S
C2035 C2043 1.433 . S
C2036 H2032 0.929 . S
C2036 C2038 1.378 . S
C2036 C2040 1.350 . S
C2037 C2040 1.463 . S
C2037 C2042 1.350 . S
C2037 N2045 1.427 . S
C2038 H2029 0.930 . S
C2038 C2036 1.378 . S
C2038 C2039 1.367 . S
C2039 C2038 1.367 . S
C2039 C2041 1.433 . S
C2040 C2036 1.350 . S
C2040 C2037 1.463 . S
C2040 N2044 1.427 . S
C2041 H2031 0.929 . S
C2041 C2039 1.433 . S
C2041 N2044 1.384 . S
C2042 H2033 0.929 . S
C2042 C2034 1.378 . S
C2042 C2037 1.350 . S
C2043 H2030 0.929 . S
C2043 C2035 1.433 . S
C2043 N2045 1.384 . S
N2044 C2040 1.427 . S
N2044 C2041 1.384 . S
N2045 C2037 1.427 . S
N2045 C2043 1.384 . S
H2046 C2052 0.930 . S
H2047 C2056 0.930 . S
H2048 C2061 0.929 . S
H2049 C2059 0.929 . S
H2050 C2054 0.929 . S
H2051 C2060 0.929 . S
C2052 H2046 0.930 . S
C2052 C2053 1.367 . S
C2052 C2060 1.378 . S
C2053 C2052 1.367 . S
C2053 C2061 1.433 . S
C2054 H2050 0.929 . S
C2054 C2056 1.378 . S
C2054 C2058 1.350 . S
C2055 C2058 1.463 . S
C2055 C2060 1.350 . S
C2055 N2063 1.427 . S
C2056 H2047 0.930 . S
C2056 C2054 1.378 . S
C2056 C2057 1.367 . S
C2057 C2056 1.367 . S
C2057 C2059 1.433 . S
C2058 C2054 1.350 . S
C2058 C2055 1.463 . S
C2058 N2062 1.427 . S
C2059 H2049 0.929 . S
C2059 C2057 1.433 . S
C2059 N2062 1.384 . S
C2060 H2051 0.929 . S
C2060 C2052 1.378 . S
C2060 C2055 1.350 . S
C2061 H2048 0.929 . S
C2061 C2053 1.433 . S
C2061 N2063 1.384 . S
N2062 C2058 1.427 . S
N2062 C2059 1.384 . S
N2063 C2055 1.427 . S
N2063 C2061 1.384 . S
H2064 C2070 0.930 . S
H2065 C2074 0.930 . S
H2066 C2079 0.929 . S
H2067 C2077 0.929 . S
H2068 C2072 0.929 . S
H2069 C2078 0.929 . S
C2070 H2064 0.930 . S
C2070 C2071 1.367 . S
C2070 C2078 1.378 . S
C2071 C2070 1.367 . S
C2071 C2079 1.433 . S
C2072 H2068 0.929 . S
C2072 C2074 1.378 . S
C2072 C2076 1.350 . S
C2073 C2076 1.463 . S
C2073 C2078 1.350 . S
C2073 N2081 1.427 . S
C2074 H2065 0.930 . S
C2074 C2072 1.378 . S
C2074 C2075 1.367 . S
C2075 C2074 1.367 . S
C2075 C2077 1.433 . S
C2076 C2072 1.350 . S
C2076 C2073 1.463 . S
C2076 N2080 1.427 . S
C2077 H2067 0.929 . S
C2077 C2075 1.433 . S
C2077 N2080 1.384 . S
C2078 H2069 0.929 . S
C2078 C2070 1.378 . S
C2078 C2073 1.350 . S
C2079 H2066 0.929 . S
C2079 C2071 1.433 . S
C2079 N2081 1.384 . S
N2080 C2076 1.427 . S
N2080 C2077 1.384 . S
N2081 C2073 1.427 . S
N2081 C2079 1.384 . S
H2082 C2088 0.930 . S
H2083 C2092 0.930 . S
H2084 C2097 0.929 . S
H2085 C2095 0.929 . S
H2086 C2090 0.929 . S
H2087 C2096 0.929 . S
C2088 H2082 0.930 . S
C2088 C2089 1.367 . S
C2088 C2096 1.378 . S
C2089 C2088 1.367 . S
C2089 C2097 1.433 . S
C2090 H2086 0.929 . S
C2090 C2092 1.378 . S
C2090 C2094 1.350 . S
C2091 C2094 1.463 . S
C2091 C2096 1.350 . S
C2091 N2099 1.427 . S
C2092 H2083 0.930 . S
C2092 C2090 1.378 . S
C2092 C2093 1.367 . S
C2093 C2092 1.367 . S
C2093 C2095 1.433 . S
C2094 C2090 1.350 . S
C2094 C2091 1.463 . S
C2094 N2098 1.427 . S
C2095 H2085 0.929 . S
C2095 C2093 1.433 . S
C2095 N2098 1.384 . S
C2096 H2087 0.929 . S
C2096 C2088 1.378 . S
C2096 C2091 1.350 . S
C2097 H2084 0.929 . S
C2097 C2089 1.433 . S
C2097 N2099 1.384 . S
N2098 C2094 1.427 . S
N2098 C2095 1.384 . S
N2099 C2091 1.427 . S
N2099 C2097 1.384 . S
H2100 C2106 0.930 . S
H2101 C2110 0.930 . S
H2102 C2115 0.929 . S
H2103 C2113 0.929 . S
H2104 C2108 0.929 . S
H2105 C2114 0.929 . S
C2106 H2100 0.930 . S
C2106 C2107 1.367 . S
C2106 C2114 1.378 . S
C2107 C2106 1.367 . S
C2107 C2115 1.433 . S
C2108 H2104 0.929 . S
C2108 C2110 1.378 . S
C2108 C2112 1.350 . S
C2109 C2112 1.463 . S
C2109 C2114 1.350 . S
C2109 N2117 1.427 . S
C2110 H2101 0.930 . S
C2110 C2108 1.378 . S
C2110 C2111 1.367 . S
C2111 C2110 1.367 . S
C2111 C2113 1.433 . S
C2112 C2108 1.350 . S
C2112 C2109 1.463 . S
C2112 N2116 1.427 . S
C2113 H2103 0.929 . S
C2113 C2111 1.433 . S
C2113 N2116 1.384 . S
C2114 H2105 0.929 . S
C2114 C2106 1.378 . S
C2114 C2109 1.350 . S
C2115 H2102 0.929 . S
C2115 C2107 1.433 . S
C2115 N2117 1.384 . S
N2116 C2112 1.427 . S
N2116 C2113 1.384 . S
N2117 C2109 1.427 . S
N2117 C2115 1.384 . S
H2118 C2124 0.930 . S
H2119 C2128 0.930 . S
H2120 C2133 0.929 . S
H2121 C2131 0.929 . S
H2122 C2126 0.929 . S
H2123 C2132 0.929 . S
C2124 H2118 0.930 . S
C2124 C2125 1.367 . S
C2124 C2132 1.378 . S
C2125 C2124 1.367 . S
C2125 C2133 1.433 . S
C2126 H2122 0.929 . S
C2126 C2128 1.378 . S
C2126 C2130 1.350 . S
C2127 C2130 1.463 . S
C2127 C2132 1.350 . S
C2127 N2135 1.427 . S
C2128 H2119 0.930 . S
C2128 C2126 1.378 . S
C2128 C2129 1.367 . S
C2129 C2128 1.367 . S
C2129 C2131 1.433 . S
C2130 C2126 1.350 . S
C2130 C2127 1.463 . S
C2130 N2134 1.427 . S
C2131 H2121 0.929 . S
C2131 C2129 1.433 . S
C2131 N2134 1.384 . S
C2132 H2123 0.929 . S
C2132 C2124 1.378 . S
C2132 C2127 1.350 . S
C2133 H2120 0.929 . S
C2133 C2125 1.433 . S
C2133 N2135 1.384 . S
N2134 C2130 1.427 . S
N2134 C2131 1.384 . S
N2135 C2127 1.427 . S
N2135 C2133 1.384 . S
H2136 C2142 0.930 . S
H2137 C2146 0.930 . S
H2138 C2151 0.929 . S
H2139 C2149 0.929 . S
H2140 C2144 0.929 . S
H2141 C2150 0.929 . S
C2142 H2136 0.930 . S
C2142 C2143 1.367 . S
C2142 C2150 1.378 . S
C2143 C2142 1.367 . S
C2143 C2151 1.433 . S
C2144 H2140 0.929 . S
C2144 C2146 1.378 . S
C2144 C2148 1.350 . S
C2145 C2148 1.463 . S
C2145 C2150 1.350 . S
C2145 N2153 1.427 . S
C2146 H2137 0.930 . S
C2146 C2144 1.378 . S
C2146 C2147 1.367 . S
C2147 C2146 1.367 . S
C2147 C2149 1.433 . S
C2148 C2144 1.350 . S
C2148 C2145 1.463 . S
C2148 N2152 1.427 . S
C2149 H2139 0.929 . S
C2149 C2147 1.433 . S
C2149 N2152 1.384 . S
C2150 H2141 0.929 . S
C2150 C2142 1.378 . S
C2150 C2145 1.350 . S
C2151 H2138 0.929 . S
C2151 C2143 1.433 . S
C2151 N2153 1.384 . S
N2152 C2148 1.427 . S
N2152 C2149 1.384 . S
N2153 C2145 1.427 . S
N2153 C2151 1.384 . S
H2154 C2160 0.930 . S
H2155 C2164 0.930 . S
H2156 C2169 0.929 . S
H2157 C2167 0.929 . S
H2158 C2162 0.929 . S
H2159 C2168 0.929 . S
C2160 H2154 0.930 . S
C2160 C2161 1.367 . S
C2160 C2168 1.378 . S
C2161 C2160 1.367 . S
C2161 C2169 1.433 . S
C2162 H2158 0.929 . S
C2162 C2164 1.378 . S
C2162 C2166 1.350 . S
C2163 C2166 1.463 . S
C2163 C2168 1.350 . S
C2163 N2171 1.427 . S
C2164 H2155 0.930 . S
C2164 C2162 1.378 . S
C2164 C2165 1.367 . S
C2165 C2164 1.367 . S
C2165 C2167 1.433 . S
C2166 C2162 1.350 . S
C2166 C2163 1.463 . S
C2166 N2170 1.427 . S
C2167 H2157 0.929 . S
C2167 C2165 1.433 . S
C2167 N2170 1.384 . S
C2168 H2159 0.929 . S
C2168 C2160 1.378 . S
C2168 C2163 1.350 . S
C2169 H2156 0.929 . S
C2169 C2161 1.433 . S
C2169 N2171 1.384 . S
N2170 C2166 1.427 . S
N2170 C2167 1.384 . S
N2171 C2163 1.427 . S
N2171 C2169 1.384 . S
H2172 C2178 0.930 . S
H2173 C2182 0.930 . S
H2174 C2187 0.929 . S
H2175 C2185 0.929 . S
H2176 C2180 0.929 . S
H2177 C2186 0.929 . S
C2178 H2172 0.930 . S
C2178 C2179 1.367 . S
C2178 C2186 1.378 . S
C2179 C2178 1.367 . S
C2179 C2187 1.433 . S
C2180 H2176 0.929 . S
C2180 C2182 1.378 . S
C2180 C2184 1.350 . S
C2181 C2184 1.463 . S
C2181 C2186 1.350 . S
C2181 N2189 1.427 . S
C2182 H2173 0.930 . S
C2182 C2180 1.378 . S
C2182 C2183 1.367 . S
C2183 C2182 1.367 . S
C2183 C2185 1.433 . S
C2184 C2180 1.350 . S
C2184 C2181 1.463 . S
C2184 N2188 1.427 . S
C2185 H2175 0.929 . S
C2185 C2183 1.433 . S
C2185 N2188 1.384 . S
C2186 H2177 0.929 . S
C2186 C2178 1.378 . S
C2186 C2181 1.350 . S
C2187 H2174 0.929 . S
C2187 C2179 1.433 . S
C2187 N2189 1.384 . S
N2188 C2184 1.427 . S
N2188 C2185 1.384 . S
N2189 C2181 1.427 . S
N2189 C2187 1.384 . S
H2190 C2196 0.930 . S
H2191 C2200 0.930 . S
H2192 C2205 0.929 . S
H2193 C2203 0.929 . S
H2194 C2198 0.929 . S
H2195 C2204 0.929 . S
C2196 H2190 0.930 . S
C2196 C2197 1.367 . S
C2196 C2204 1.378 . S
C2197 C2196 1.367 . S
C2197 C2205 1.433 . S
C2198 H2194 0.929 . S
C2198 C2200 1.378 . S
C2198 C2202 1.350 . S
C2199 C2202 1.463 . S
C2199 C2204 1.350 . S
C2199 N2207 1.427 . S
C2200 H2191 0.930 . S
C2200 C2198 1.378 . S
C2200 C2201 1.367 . S
C2201 C2200 1.367 . S
C2201 C2203 1.433 . S
C2202 C2198 1.350 . S
C2202 C2199 1.463 . S
C2202 N2206 1.427 . S
C2203 H2193 0.929 . S
C2203 C2201 1.433 . S
C2203 N2206 1.384 . S
C2204 H2195 0.929 . S
C2204 C2196 1.378 . S
C2204 C2199 1.350 . S
C2205 H2192 0.929 . S
C2205 C2197 1.433 . S
C2205 N2207 1.384 . S
N2206 C2202 1.427 . S
N2206 C2203 1.384 . S
N2207 C2199 1.427 . S
N2207 C2205 1.384 . S
H2208 C2214 0.930 . S
H2209 C2218 0.930 . S
H2210 C2223 0.929 . S
H2211 C2221 0.929 . S
H2212 C2216 0.929 . S
H2213 C2222 0.929 . S
C2214 H2208 0.930 . S
C2214 C2215 1.367 . S
C2214 C2222 1.378 . S
C2215 C2214 1.367 . S
C2215 C2223 1.433 . S
C2216 H2212 0.929 . S
C2216 C2218 1.378 . S
C2216 C2220 1.350 . S
C2217 C2220 1.463 . S
C2217 C2222 1.350 . S
C2217 N2225 1.427 . S
C2218 H2209 0.930 . S
C2218 C2216 1.378 . S
C2218 C2219 1.367 . S
C2219 C2218 1.367 . S
C2219 C2221 1.433 . S
C2220 C2216 1.350 . S
C2220 C2217 1.463 . S
C2220 N2224 1.427 . S
C2221 H2211 0.929 . S
C2221 C2219 1.433 . S
C2221 N2224 1.384 . S
C2222 H2213 0.929 . S
C2222 C2214 1.378 . S
C2222 C2217 1.350 . S
C2223 H2210 0.929 . S
C2223 C2215 1.433 . S
C2223 N2225 1.384 . S
N2224 C2220 1.427 . S
N2224 C2221 1.384 . S
N2225 C2217 1.427 . S
N2225 C2223 1.384 . S
H2226 C2232 0.930 . S
H2227 C2236 0.930 . S
H2228 C2241 0.929 . S
H2229 C2239 0.929 . S
H2230 C2234 0.929 . S
H2231 C2240 0.929 . S
C2232 H2226 0.930 . S
C2232 C2233 1.367 . S
C2232 C2240 1.378 . S
C2233 C2232 1.367 . S
C2233 C2241 1.433 . S
C2234 H2230 0.929 . S
C2234 C2236 1.378 . S
C2234 C2238 1.350 . S
C2235 C2238 1.463 . S
C2235 C2240 1.350 . S
C2235 N2243 1.427 . S
C2236 H2227 0.930 . S
C2236 C2234 1.378 . S
C2236 C2237 1.367 . S
C2237 C2236 1.367 . S
C2237 C2239 1.433 . S
C2238 C2234 1.350 . S
C2238 C2235 1.463 . S
C2238 N2242 1.427 . S
C2239 H2229 0.929 . S
C2239 C2237 1.433 . S
C2239 N2242 1.384 . S
C2240 H2231 0.929 . S
C2240 C2232 1.378 . S
C2240 C2235 1.350 . S
C2241 H2228 0.929 . S
C2241 C2233 1.433 . S
C2241 N2243 1.384 . S
N2242 C2238 1.427 . S
N2242 C2239 1.384 . S
N2243 C2235 1.427 . S
N2243 C2241 1.384 . S
H2244 C2250 0.930 . S
H2245 C2254 0.930 . S
H2246 C2259 0.929 . S
H2247 C2257 0.929 . S
H2248 C2252 0.929 . S
H2249 C2258 0.929 . S
C2250 H2244 0.930 . S
C2250 C2251 1.367 . S
C2250 C2258 1.378 . S
C2251 C2250 1.367 . S
C2251 C2259 1.433 . S
C2252 H2248 0.929 . S
C2252 C2254 1.378 . S
C2252 C2256 1.350 . S
C2253 C2256 1.463 . S
C2253 C2258 1.350 . S
C2253 N2261 1.427 . S
C2254 H2245 0.930 . S
C2254 C2252 1.378 . S
C2254 C2255 1.367 . S
C2255 C2254 1.367 . S
C2255 C2257 1.433 . S
C2256 C2252 1.350 . S
C2256 C2253 1.463 . S
C2256 N2260 1.427 . S
C2257 H2247 0.929 . S
C2257 C2255 1.433 . S
C2257 N2260 1.384 . S
C2258 H2249 0.929 . S
C2258 C2250 1.378 . S
C2258 C2253 1.350 . S
C2259 H2246 0.929 . S
C2259 C2251 1.433 . S
C2259 N2261 1.384 . S
N2260 C2256 1.427 . S
N2260 C2257 1.384 . S
N2261 C2253 1.427 . S
N2261 C2259 1.384 . S
H2262 C2268 0.930 . S
H2263 C2272 0.930 . S
H2264 C2277 0.929 . S
H2265 C2275 0.929 . S
H2266 C2270 0.929 . S
H2267 C2276 0.929 . S
C2268 H2262 0.930 . S
C2268 C2269 1.367 . S
C2268 C2276 1.378 . S
C2269 C2268 1.367 . S
C2269 C2277 1.433 . S
C2270 H2266 0.929 . S
C2270 C2272 1.378 . S
C2270 C2274 1.350 . S
C2271 C2274 1.463 . S
C2271 C2276 1.350 . S
C2271 N2279 1.427 . S
C2272 H2263 0.930 . S
C2272 C2270 1.378 . S
C2272 C2273 1.367 . S
C2273 C2272 1.367 . S
C2273 C2275 1.433 . S
C2274 C2270 1.350 . S
C2274 C2271 1.463 . S
C2274 N2278 1.427 . S
C2275 H2265 0.929 . S
C2275 C2273 1.433 . S
C2275 N2278 1.384 . S
C2276 H2267 0.929 . S
C2276 C2268 1.378 . S
C2276 C2271 1.350 . S
C2277 H2264 0.929 . S
C2277 C2269 1.433 . S
C2277 N2279 1.384 . S
N2278 C2274 1.427 . S
N2278 C2275 1.384 . S
N2279 C2271 1.427 . S
N2279 C2277 1.384 . S
H2280 C2286 0.930 . S
H2281 C2290 0.930 . S
H2282 C2295 0.929 . S
H2283 C2293 0.929 . S
H2284 C2288 0.929 . S
H2285 C2294 0.929 . S
C2286 H2280 0.930 . S
C2286 C2287 1.367 . S
C2286 C2294 1.378 . S
C2287 C2286 1.367 . S
C2287 C2295 1.433 . S
C2288 H2284 0.929 . S
C2288 C2290 1.378 . S
C2288 C2292 1.350 . S
C2289 C2292 1.463 . S
C2289 C2294 1.350 . S
C2289 N2297 1.427 . S
C2290 H2281 0.930 . S
C2290 C2288 1.378 . S
C2290 C2291 1.367 . S
C2291 C2290 1.367 . S
C2291 C2293 1.433 . S
C2292 C2288 1.350 . S
C2292 C2289 1.463 . S
C2292 N2296 1.427 . S
C2293 H2283 0.929 . S
C2293 C2291 1.433 . S
C2293 N2296 1.384 . S
C2294 H2285 0.929 . S
C2294 C2286 1.378 . S
C2294 C2289 1.350 . S
C2295 H2282 0.929 . S
C2295 C2287 1.433 . S
C2295 N2297 1.384 . S
N2296 C2292 1.427 . S
N2296 C2293 1.384 . S
N2297 C2289 1.427 . S
N2297 C2295 1.384 . S
H2298 C2304 0.930 . S
H2299 C2308 0.930 . S
H2300 C2313 0.929 . S
H2301 C2311 0.929 . S
H2302 C2306 0.929 . S
H2303 C2312 0.929 . S
C2304 H2298 0.930 . S
C2304 C2305 1.367 . S
C2304 C2312 1.378 . S
C2305 C2304 1.367 . S
C2305 C2313 1.433 . S
C2306 H2302 0.929 . S
C2306 C2308 1.378 . S
C2306 C2310 1.350 . S
C2307 C2310 1.463 . S
C2307 C2312 1.350 . S
C2307 N2315 1.427 . S
C2308 H2299 0.930 . S
C2308 C2306 1.378 . S
C2308 C2309 1.367 . S
C2309 C2308 1.367 . S
C2309 C2311 1.433 . S
C2310 C2306 1.350 . S
C2310 C2307 1.463 . S
C2310 N2314 1.427 . S
C2311 H2301 0.929 . S
C2311 C2309 1.433 . S
C2311 N2314 1.384 . S
C2312 H2303 0.929 . S
C2312 C2304 1.378 . S
C2312 C2307 1.350 . S
C2313 H2300 0.929 . S
C2313 C2305 1.433 . S
C2313 N2315 1.384 . S
N2314 C2310 1.427 . S
N2314 C2311 1.384 . S
N2315 C2307 1.427 . S
N2315 C2313 1.384 . S
H2316 C2322 0.930 . S
H2317 C2326 0.930 . S
H2318 C2331 0.929 . S
H2319 C2329 0.929 . S
H2320 C2324 0.929 . S
H2321 C2330 0.929 . S
C2322 H2316 0.930 . S
C2322 C2323 1.367 . S
C2322 C2330 1.378 . S
C2323 C2322 1.367 . S
C2323 C2331 1.433 . S
C2324 H2320 0.929 . S
C2324 C2326 1.378 . S
C2324 C2328 1.350 . S
C2325 C2328 1.463 . S
C2325 C2330 1.350 . S
C2325 N2333 1.427 . S
C2326 H2317 0.930 . S
C2326 C2324 1.378 . S
C2326 C2327 1.367 . S
C2327 C2326 1.367 . S
C2327 C2329 1.433 . S
C2328 C2324 1.350 . S
C2328 C2325 1.463 . S
C2328 N2332 1.427 . S
C2329 H2319 0.929 . S
C2329 C2327 1.433 . S
C2329 N2332 1.384 . S
C2330 H2321 0.929 . S
C2330 C2322 1.378 . S
C2330 C2325 1.350 . S
C2331 H2318 0.929 . S
C2331 C2323 1.433 . S
C2331 N2333 1.384 . S
N2332 C2328 1.427 . S
N2332 C2329 1.384 . S
N2333 C2325 1.427 . S
N2333 C2331 1.384 . S
H2334 C2340 0.930 . S
H2335 C2344 0.930 . S
H2336 C2349 0.929 . S
H2337 C2347 0.929 . S
H2338 C2342 0.929 . S
H2339 C2348 0.929 . S
C2340 H2334 0.930 . S
C2340 C2341 1.367 . S
C2340 C2348 1.378 . S
C2341 C2340 1.367 . S
C2341 C2349 1.433 . S
C2342 H2338 0.929 . S
C2342 C2344 1.378 . S
C2342 C2346 1.350 . S
C2343 C2346 1.463 . S
C2343 C2348 1.350 . S
C2343 N2351 1.427 . S
C2344 H2335 0.930 . S
C2344 C2342 1.378 . S
C2344 C2345 1.367 . S
C2345 C2344 1.367 . S
C2345 C2347 1.433 . S
C2346 C2342 1.350 . S
C2346 C2343 1.463 . S
C2346 N2350 1.427 . S
C2347 H2337 0.929 . S
C2347 C2345 1.433 . S
C2347 N2350 1.384 . S
C2348 H2339 0.929 . S
C2348 C2340 1.378 . S
C2348 C2343 1.350 . S
C2349 H2336 0.929 . S
C2349 C2341 1.433 . S
C2349 N2351 1.384 . S
N2350 C2346 1.427 . S
N2350 C2347 1.384 . S
N2351 C2343 1.427 . S
N2351 C2349 1.384 . S
H2352 C2358 0.930 . S
H2353 C2362 0.930 . S
H2354 C2367 0.929 . S
H2355 C2365 0.929 . S
H2356 C2360 0.929 . S
H2357 C2366 0.929 . S
C2358 H2352 0.930 . S
C2358 C2359 1.367 . S
C2358 C2366 1.378 . S
C2359 C2358 1.367 . S
C2359 C2367 1.433 . S
C2360 H2356 0.929 . S
C2360 C2362 1.378 . S
C2360 C2364 1.350 . S
C2361 C2364 1.463 . S
C2361 C2366 1.350 . S
C2361 N2369 1.427 . S
C2362 H2353 0.930 . S
C2362 C2360 1.378 . S
C2362 C2363 1.367 . S
C2363 C2362 1.367 . S
C2363 C2365 1.433 . S
C2364 C2360 1.350 . S
C2364 C2361 1.463 . S
C2364 N2368 1.427 . S
C2365 H2355 0.929 . S
C2365 C2363 1.433 . S
C2365 N2368 1.384 . S
C2366 H2357 0.929 . S
C2366 C2358 1.378 . S
C2366 C2361 1.350 . S
C2367 H2354 0.929 . S
C2367 C2359 1.433 . S
C2367 N2369 1.384 . S
N2368 C2364 1.427 . S
N2368 C2365 1.384 . S
N2369 C2361 1.427 . S
N2369 C2367 1.384 . S
H2370 C2376 0.930 . S
H2371 C2380 0.930 . S
H2372 C2385 0.929 . S
H2373 C2383 0.929 . S
H2374 C2378 0.929 . S
H2375 C2384 0.929 . S
C2376 H2370 0.930 . S
C2376 C2377 1.367 . S
C2376 C2384 1.378 . S
C2377 C2376 1.367 . S
C2377 C2385 1.433 . S
C2378 H2374 0.929 . S
C2378 C2380 1.378 . S
C2378 C2382 1.350 . S
C2379 C2382 1.463 . S
C2379 C2384 1.350 . S
C2379 N2387 1.427 . S
C2380 H2371 0.930 . S
C2380 C2378 1.378 . S
C2380 C2381 1.367 . S
C2381 C2380 1.367 . S
C2381 C2383 1.433 . S
C2382 C2378 1.350 . S
C2382 C2379 1.463 . S
C2382 N2386 1.427 . S
C2383 H2373 0.929 . S
C2383 C2381 1.433 . S
C2383 N2386 1.384 . S
C2384 H2375 0.929 . S
C2384 C2376 1.378 . S
C2384 C2379 1.350 . S
C2385 H2372 0.929 . S
C2385 C2377 1.433 . S
C2385 N2387 1.384 . S
N2386 C2382 1.427 . S
N2386 C2383 1.384 . S
N2387 C2379 1.427 . S
N2387 C2385 1.384 . S
H2388 C2394 0.930 . S
H2389 C2398 0.930 . S
H2390 C2403 0.929 . S
H2391 C2401 0.929 . S
H2392 C2396 0.929 . S
H2393 C2402 0.929 . S
C2394 H2388 0.930 . S
C2394 C2395 1.367 . S
C2394 C2402 1.378 . S
C2395 C2394 1.367 . S
C2395 C2403 1.433 . S
C2396 H2392 0.929 . S
C2396 C2398 1.378 . S
C2396 C2400 1.350 . S
C2397 C2400 1.463 . S
C2397 C2402 1.350 . S
C2397 N2405 1.427 . S
C2398 H2389 0.930 . S
C2398 C2396 1.378 . S
C2398 C2399 1.367 . S
C2399 C2398 1.367 . S
C2399 C2401 1.433 . S
C2400 C2396 1.350 . S
C2400 C2397 1.463 . S
C2400 N2404 1.427 . S
C2401 H2391 0.929 . S
C2401 C2399 1.433 . S
C2401 N2404 1.384 . S
C2402 H2393 0.929 . S
C2402 C2394 1.378 . S
C2402 C2397 1.350 . S
C2403 H2390 0.929 . S
C2403 C2395 1.433 . S
C2403 N2405 1.384 . S
N2404 C2400 1.427 . S
N2404 C2401 1.384 . S
N2405 C2397 1.427 . S
N2405 C2403 1.384 . S
H2406 C2412 0.930 . S
H2407 C2416 0.930 . S
H2408 C2421 0.929 . S
H2409 C2419 0.929 . S
H2410 C2414 0.929 . S
H2411 C2420 0.929 . S
C2412 H2406 0.930 . S
C2412 C2413 1.367 . S
C2412 C2420 1.378 . S
C2413 C2412 1.367 . S
C2413 C2421 1.433 . S
C2414 H2410 0.929 . S
C2414 C2416 1.378 . S
C2414 C2418 1.350 . S
C2415 C2418 1.463 . S
C2415 C2420 1.350 . S
C2415 N2423 1.427 . S
C2416 H2407 0.930 . S
C2416 C2414 1.378 . S
C2416 C2417 1.367 . S
C2417 C2416 1.367 . S
C2417 C2419 1.433 . S
C2418 C2414 1.350 . S
C2418 C2415 1.463 . S
C2418 N2422 1.427 . S
C2419 H2409 0.929 . S
C2419 C2417 1.433 . S
C2419 N2422 1.384 . S
C2420 H2411 0.929 . S
C2420 C2412 1.378 . S
C2420 C2415 1.350 . S
C2421 H2408 0.929 . S
C2421 C2413 1.433 . S
C2421 N2423 1.384 . S
N2422 C2418 1.427 . S
N2422 C2419 1.384 . S
N2423 C2415 1.427 . S
N2423 C2421 1.384 . S
H2424 C2430 0.930 . S
H2425 C2434 0.930 . S
H2426 C2439 0.929 . S
H2427 C2437 0.929 . S
H2428 C2432 0.929 . S
H2429 C2438 0.929 . S
C2430 H2424 0.930 . S
C2430 C2431 1.367 . S
C2430 C2438 1.378 . S
C2431 C2430 1.367 . S
C2431 C2439 1.433 . S
C2432 H2428 0.929 . S
C2432 C2434 1.378 . S
C2432 C2436 1.350 . S
C2433 C2436 1.463 . S
C2433 C2438 1.350 . S
C2433 N2441 1.427 . S
C2434 H2425 0.930 . S
C2434 C2432 1.378 . S
C2434 C2435 1.367 . S
C2435 C2434 1.367 . S
C2435 C2437 1.433 . S
C2436 C2432 1.350 . S
C2436 C2433 1.463 . S
C2436 N2440 1.427 . S
C2437 H2427 0.929 . S
C2437 C2435 1.433 . S
C2437 N2440 1.384 . S
C2438 H2429 0.929 . S
C2438 C2430 1.378 . S
C2438 C2433 1.350 . S
C2439 H2426 0.929 . S
C2439 C2431 1.433 . S
C2439 N2441 1.384 . S
N2440 C2436 1.427 . S
N2440 C2437 1.384 . S
N2441 C2433 1.427 . S
N2441 C2439 1.384 . S
H2442 C2448 0.930 . S
H2443 C2452 0.930 . S
H2444 C2457 0.929 . S
H2445 C2455 0.929 . S
H2446 C2450 0.929 . S
H2447 C2456 0.929 . S
C2448 H2442 0.930 . S
C2448 C2449 1.367 . S
C2448 C2456 1.378 . S
C2449 C2448 1.367 . S
C2449 C2457 1.433 . S
C2450 H2446 0.929 . S
C2450 C2452 1.378 . S
C2450 C2454 1.350 . S
C2451 C2454 1.463 . S
C2451 C2456 1.350 . S
C2451 N2459 1.427 . S
C2452 H2443 0.930 . S
C2452 C2450 1.378 . S
C2452 C2453 1.367 . S
C2453 C2452 1.367 . S
C2453 C2455 1.433 . S
C2454 C2450 1.350 . S
C2454 C2451 1.463 . S
C2454 N2458 1.427 . S
C2455 H2445 0.929 . S
C2455 C2453 1.433 . S
C2455 N2458 1.384 . S
C2456 H2447 0.929 . S
C2456 C2448 1.378 . S
C2456 C2451 1.350 . S
C2457 H2444 0.929 . S
C2457 C2449 1.433 . S
C2457 N2459 1.384 . S
N2458 C2454 1.427 . S
N2458 C2455 1.384 . S
N2459 C2451 1.427 . S
N2459 C2457 1.384 . S
H2460 C2466 0.930 . S
H2461 C2470 0.930 . S
H2462 C2475 0.929 . S
H2463 C2473 0.929 . S
H2464 C2468 0.929 . S
H2465 C2474 0.929 . S
C2466 H2460 0.930 . S
C2466 C2467 1.367 . S
C2466 C2474 1.378 . S
C2467 C2466 1.367 . S
C2467 C2475 1.433 . S
C2468 H2464 0.929 . S
C2468 C2470 1.378 . S
C2468 C2472 1.350 . S
C2469 C2472 1.463 . S
C2469 C2474 1.350 . S
C2469 N2477 1.427 . S
C2470 H2461 0.930 . S
C2470 C2468 1.378 . S
C2470 C2471 1.367 . S
C2471 C2470 1.367 . S
C2471 C2473 1.433 . S
C2472 C2468 1.350 . S
C2472 C2469 1.463 . S
C2472 N2476 1.427 . S
C2473 H2463 0.929 . S
C2473 C2471 1.433 . S
C2473 N2476 1.384 . S
C2474 H2465 0.929 . S
C2474 C2466 1.378 . S
C2474 C2469 1.350 . S
C2475 H2462 0.929 . S
C2475 C2467 1.433 . S
C2475 N2477 1.384 . S
N2476 C2472 1.427 . S
N2476 C2473 1.384 . S
N2477 C2469 1.427 . S
N2477 C2475 1.384 . S
H2478 C2484 0.930 . S
H2479 C2488 0.930 . S
H2480 C2493 0.929 . S
H2481 C2491 0.929 . S
H2482 C2486 0.929 . S
H2483 C2492 0.929 . S
C2484 H2478 0.930 . S
C2484 C2485 1.367 . S
C2484 C2492 1.378 . S
C2485 C2484 1.367 . S
C2485 C2493 1.433 . S
C2486 H2482 0.929 . S
C2486 C2488 1.378 . S
C2486 C2490 1.350 . S
C2487 C2490 1.463 . S
C2487 C2492 1.350 . S
C2487 N2495 1.427 . S
C2488 H2479 0.930 . S
C2488 C2486 1.378 . S
C2488 C2489 1.367 . S
C2489 C2488 1.367 . S
C2489 C2491 1.433 . S
C2490 C2486 1.350 . S
C2490 C2487 1.463 . S
C2490 N2494 1.427 . S
C2491 H2481 0.929 . S
C2491 C2489 1.433 . S
C2491 N2494 1.384 . S
C2492 H2483 0.929 . S
C2492 C2484 1.378 . S
C2492 C2487 1.350 . S
C2493 H2480 0.929 . S
C2493 C2485 1.433 . S
C2493 N2495 1.384 . S
N2494 C2490 1.427 . S
N2494 C2491 1.384 . S
N2495 C2487 1.427 . S
N2495 C2493 1.384 . S
H2496 C2502 0.930 . S
H2497 C2506 0.930 . S
H2498 C2511 0.929 . S
H2499 C2509 0.929 . S
H2500 C2504 0.929 . S
H2501 C2510 0.929 . S
C2502 H2496 0.930 . S
C2502 C2503 1.367 . S
C2502 C2510 1.378 . S
C2503 C2502 1.367 . S
C2503 C2511 1.433 . S
C2504 H2500 0.929 . S
C2504 C2506 1.378 . S
C2504 C2508 1.350 . S
C2505 C2508 1.463 . S
C2505 C2510 1.350 . S
C2505 N2513 1.427 . S
C2506 H2497 0.930 . S
C2506 C2504 1.378 . S
C2506 C2507 1.367 . S
C2507 C2506 1.367 . S
C2507 C2509 1.433 . S
C2508 C2504 1.350 . S
C2508 C2505 1.463 . S
C2508 N2512 1.427 . S
C2509 H2499 0.929 . S
C2509 C2507 1.433 . S
C2509 N2512 1.384 . S
C2510 H2501 0.929 . S
C2510 C2502 1.378 . S
C2510 C2505 1.350 . S
C2511 H2498 0.929 . S
C2511 C2503 1.433 . S
C2511 N2513 1.384 . S
N2512 C2508 1.427 . S
N2512 C2509 1.384 . S
N2513 C2505 1.427 . S
N2513 C2511 1.384 . S
H2514 C2520 0.930 . S
H2515 C2524 0.930 . S
H2516 C2529 0.929 . S
H2517 C2527 0.929 . S
H2518 C2522 0.929 . S
H2519 C2528 0.929 . S
C2520 H2514 0.930 . S
C2520 C2521 1.367 . S
C2520 C2528 1.378 . S
C2521 C2520 1.367 . S
C2521 C2529 1.433 . S
C2522 H2518 0.929 . S
C2522 C2524 1.378 . S
C2522 C2526 1.350 . S
C2523 C2526 1.463 . S
C2523 C2528 1.350 . S
C2523 N2531 1.427 . S
C2524 H2515 0.930 . S
C2524 C2522 1.378 . S
C2524 C2525 1.367 . S
C2525 C2524 1.367 . S
C2525 C2527 1.433 . S
C2526 C2522 1.350 . S
C2526 C2523 1.463 . S
C2526 N2530 1.427 . S
C2527 H2517 0.929 . S
C2527 C2525 1.433 . S
C2527 N2530 1.384 . S
C2528 H2519 0.929 . S
C2528 C2520 1.378 . S
C2528 C2523 1.350 . S
C2529 H2516 0.929 . S
C2529 C2521 1.433 . S
C2529 N2531 1.384 . S
N2530 C2526 1.427 . S
N2530 C2527 1.384 . S
N2531 C2523 1.427 . S
N2531 C2529 1.384 . S
H2532 C2538 0.930 . S
H2533 C2542 0.930 . S
H2534 C2547 0.929 . S
H2535 C2545 0.929 . S
H2536 C2540 0.929 . S
H2537 C2546 0.929 . S
C2538 H2532 0.930 . S
C2538 C2539 1.367 . S
C2538 C2546 1.378 . S
C2539 C2538 1.367 . S
C2539 C2547 1.433 . S
C2540 H2536 0.929 . S
C2540 C2542 1.378 . S
C2540 C2544 1.350 . S
C2541 C2544 1.463 . S
C2541 C2546 1.350 . S
C2541 N2549 1.427 . S
C2542 H2533 0.930 . S
C2542 C2540 1.378 . S
C2542 C2543 1.367 . S
C2543 C2542 1.367 . S
C2543 C2545 1.433 . S
C2544 C2540 1.350 . S
C2544 C2541 1.463 . S
C2544 N2548 1.427 . S
C2545 H2535 0.929 . S
C2545 C2543 1.433 . S
C2545 N2548 1.384 . S
C2546 H2537 0.929 . S
C2546 C2538 1.378 . S
C2546 C2541 1.350 . S
C2547 H2534 0.929 . S
C2547 C2539 1.433 . S
C2547 N2549 1.384 . S
N2548 C2544 1.427 . S
N2548 C2545 1.384 . S
N2549 C2541 1.427 . S
N2549 C2547 1.384 . S
H2550 C2556 0.930 . S
H2551 C2560 0.930 . S
H2552 C2565 0.929 . S
H2553 C2563 0.929 . S
H2554 C2558 0.929 . S
H2555 C2564 0.929 . S
C2556 H2550 0.930 . S
C2556 C2557 1.367 . S
C2556 C2564 1.378 . S
C2557 C2556 1.367 . S
C2557 C2565 1.433 . S
C2558 H2554 0.929 . S
C2558 C2560 1.378 . S
C2558 C2562 1.350 . S
C2559 C2562 1.463 . S
C2559 C2564 1.350 . S
C2559 N2567 1.427 . S
C2560 H2551 0.930 . S
C2560 C2558 1.378 . S
C2560 C2561 1.367 . S
C2561 C2560 1.367 . S
C2561 C2563 1.433 . S
C2562 C2558 1.350 . S
C2562 C2559 1.463 . S
C2562 N2566 1.427 . S
C2563 H2553 0.929 . S
C2563 C2561 1.433 . S
C2563 N2566 1.384 . S
C2564 H2555 0.929 . S
C2564 C2556 1.378 . S
C2564 C2559 1.350 . S
C2565 H2552 0.929 . S
C2565 C2557 1.433 . S
C2565 N2567 1.384 . S
N2566 C2562 1.427 . S
N2566 C2563 1.384 . S
N2567 C2559 1.427 . S
N2567 C2565 1.384 . S
H2568 C2574 0.930 . S
H2569 C2578 0.930 . S
H2570 C2583 0.929 . S
H2571 C2581 0.929 . S
H2572 C2576 0.929 . S
H2573 C2582 0.929 . S
C2574 H2568 0.930 . S
C2574 C2575 1.367 . S
C2574 C2582 1.378 . S
C2575 C2574 1.367 . S
C2575 C2583 1.433 . S
C2576 H2572 0.929 . S
C2576 C2578 1.378 . S
C2576 C2580 1.350 . S
C2577 C2580 1.463 . S
C2577 C2582 1.350 . S
C2577 N2585 1.427 . S
C2578 H2569 0.930 . S
C2578 C2576 1.378 . S
C2578 C2579 1.367 . S
C2579 C2578 1.367 . S
C2579 C2581 1.433 . S
C2580 C2576 1.350 . S
C2580 C2577 1.463 . S
C2580 N2584 1.427 . S
C2581 H2571 0.929 . S
C2581 C2579 1.433 . S
C2581 N2584 1.384 . S
C2582 H2573 0.929 . S
C2582 C2574 1.378 . S
C2582 C2577 1.350 . S
C2583 H2570 0.929 . S
C2583 C2575 1.433 . S
C2583 N2585 1.384 . S
N2584 C2580 1.427 . S
N2584 C2581 1.384 . S
N2585 C2577 1.427 . S
N2585 C2583 1.384 . S
H2586 C2592 0.930 . S
H2587 C2596 0.930 . S
H2588 C2601 0.929 . S
H2589 C2599 0.929 . S
H2590 C2594 0.929 . S
H2591 C2600 0.929 . S
C2592 H2586 0.930 . S
C2592 C2593 1.367 . S
C2592 C2600 1.378 . S
C2593 C2592 1.367 . S
C2593 C2601 1.433 . S
C2594 H2590 0.929 . S
C2594 C2596 1.378 . S
C2594 C2598 1.350 . S
C2595 C2598 1.463 . S
C2595 C2600 1.350 . S
C2595 N2603 1.427 . S
C2596 H2587 0.930 . S
C2596 C2594 1.378 . S
C2596 C2597 1.367 . S
C2597 C2596 1.367 . S
C2597 C2599 1.433 . S
C2598 C2594 1.350 . S
C2598 C2595 1.463 . S
C2598 N2602 1.427 . S
C2599 H2589 0.929 . S
C2599 C2597 1.433 . S
C2599 N2602 1.384 . S
C2600 H2591 0.929 . S
C2600 C2592 1.378 . S
C2600 C2595 1.350 . S
C2601 H2588 0.929 . S
C2601 C2593 1.433 . S
C2601 N2603 1.384 . S
N2602 C2598 1.427 . S
N2602 C2599 1.384 . S
N2603 C2595 1.427 . S
N2603 C2601 1.384 . S
H2604 C2610 0.930 . S
H2605 C2614 0.930 . S
H2606 C2619 0.929 . S
H2607 C2617 0.929 . S
H2608 C2612 0.929 . S
H2609 C2618 0.929 . S
C2610 H2604 0.930 . S
C2610 C2611 1.367 . S
C2610 C2618 1.378 . S
C2611 C2610 1.367 . S
C2611 C2619 1.433 . S
C2612 H2608 0.929 . S
C2612 C2614 1.378 . S
C2612 C2616 1.350 . S
C2613 C2616 1.463 . S
C2613 C2618 1.350 . S
C2613 N2621 1.427 . S
C2614 H2605 0.930 . S
C2614 C2612 1.378 . S
C2614 C2615 1.367 . S
C2615 C2614 1.367 . S
C2615 C2617 1.433 . S
C2616 C2612 1.350 . S
C2616 C2613 1.463 . S
C2616 N2620 1.427 . S
C2617 H2607 0.929 . S
C2617 C2615 1.433 . S
C2617 N2620 1.384 . S
C2618 H2609 0.929 . S
C2618 C2610 1.378 . S
C2618 C2613 1.350 . S
C2619 H2606 0.929 . S
C2619 C2611 1.433 . S
C2619 N2621 1.384 . S
N2620 C2616 1.427 . S
N2620 C2617 1.384 . S
N2621 C2613 1.427 . S
N2621 C2619 1.384 . S
H2622 C2628 0.930 . S
H2623 C2632 0.930 . S
H2624 C2637 0.929 . S
H2625 C2635 0.929 . S
H2626 C2630 0.929 . S
H2627 C2636 0.929 . S
C2628 H2622 0.930 . S
C2628 C2629 1.367 . S
C2628 C2636 1.378 . S
C2629 C2628 1.367 . S
C2629 C2637 1.433 . S
C2630 H2626 0.929 . S
C2630 C2632 1.378 . S
C2630 C2634 1.350 . S
C2631 C2634 1.463 . S
C2631 C2636 1.350 . S
C2631 N2639 1.427 . S
C2632 H2623 0.930 . S
C2632 C2630 1.378 . S
C2632 C2633 1.367 . S
C2633 C2632 1.367 . S
C2633 C2635 1.433 . S
C2634 C2630 1.350 . S
C2634 C2631 1.463 . S
C2634 N2638 1.427 . S
C2635 H2625 0.929 . S
C2635 C2633 1.433 . S
C2635 N2638 1.384 . S
C2636 H2627 0.929 . S
C2636 C2628 1.378 . S
C2636 C2631 1.350 . S
C2637 H2624 0.929 . S
C2637 C2629 1.433 . S
C2637 N2639 1.384 . S
N2638 C2634 1.427 . S
N2638 C2635 1.384 . S
N2639 C2631 1.427 . S
N2639 C2637 1.384 . S
H2640 C2646 0.930 . S
H2641 C2650 0.930 . S
H2642 C2655 0.929 . S
H2643 C2653 0.929 . S
H2644 C2648 0.929 . S
H2645 C2654 0.929 . S
C2646 H2640 0.930 . S
C2646 C2647 1.367 . S
C2646 C2654 1.378 . S
C2647 C2646 1.367 . S
C2647 C2655 1.433 . S
C2648 H2644 0.929 . S
C2648 C2650 1.378 . S
C2648 C2652 1.350 . S
C2649 C2652 1.463 . S
C2649 C2654 1.350 . S
C2649 N2657 1.427 . S
C2650 H2641 0.930 . S
C2650 C2648 1.378 . S
C2650 C2651 1.367 . S
C2651 C2650 1.367 . S
C2651 C2653 1.433 . S
C2652 C2648 1.350 . S
C2652 C2649 1.463 . S
C2652 N2656 1.427 . S
C2653 H2643 0.929 . S
C2653 C2651 1.433 . S
C2653 N2656 1.384 . S
C2654 H2645 0.929 . S
C2654 C2646 1.378 . S
C2654 C2649 1.350 . S
C2655 H2642 0.929 . S
C2655 C2647 1.433 . S
C2655 N2657 1.384 . S
N2656 C2652 1.427 . S
N2656 C2653 1.384 . S
N2657 C2649 1.427 . S
N2657 C2655 1.384 . S
H2658 C2664 0.930 . S
H2659 C2668 0.930 . S
H2660 C2673 0.929 . S
H2661 C2671 0.929 . S
H2662 C2666 0.929 . S
H2663 C2672 0.929 . S
C2664 H2658 0.930 . S
C2664 C2665 1.367 . S
C2664 C2672 1.378 . S
C2665 C2664 1.367 . S
C2665 C2673 1.433 . S
C2666 H2662 0.929 . S
C2666 C2668 1.378 . S
C2666 C2670 1.350 . S
C2667 C2670 1.463 . S
C2667 C2672 1.350 . S
C2667 N2675 1.427 . S
C2668 H2659 0.930 . S
C2668 C2666 1.378 . S
C2668 C2669 1.367 . S
C2669 C2668 1.367 . S
C2669 C2671 1.433 . S
C2670 C2666 1.350 . S
C2670 C2667 1.463 . S
C2670 N2674 1.427 . S
C2671 H2661 0.929 . S
C2671 C2669 1.433 . S
C2671 N2674 1.384 . S
C2672 H2663 0.929 . S
C2672 C2664 1.378 . S
C2672 C2667 1.350 . S
C2673 H2660 0.929 . S
C2673 C2665 1.433 . S
C2673 N2675 1.384 . S
N2674 C2670 1.427 . S
N2674 C2671 1.384 . S
N2675 C2667 1.427 . S
N2675 C2673 1.384 . S
H2676 C2682 0.930 . S
H2677 C2686 0.930 . S
H2678 C2691 0.929 . S
H2679 C2689 0.929 . S
H2680 C2684 0.929 . S
H2681 C2690 0.929 . S
C2682 H2676 0.930 . S
C2682 C2683 1.367 . S
C2682 C2690 1.378 . S
C2683 C2682 1.367 . S
C2683 C2691 1.433 . S
C2684 H2680 0.929 . S
C2684 C2686 1.378 . S
C2684 C2688 1.350 . S
C2685 C2688 1.463 . S
C2685 C2690 1.350 . S
C2685 N2693 1.427 . S
C2686 H2677 0.930 . S
C2686 C2684 1.378 . S
C2686 C2687 1.367 . S
C2687 C2686 1.367 . S
C2687 C2689 1.433 . S
C2688 C2684 1.350 . S
C2688 C2685 1.463 . S
C2688 N2692 1.427 . S
C2689 H2679 0.929 . S
C2689 C2687 1.433 . S
C2689 N2692 1.384 . S
C2690 H2681 0.929 . S
C2690 C2682 1.378 . S
C2690 C2685 1.350 . S
C2691 H2678 0.929 . S
C2691 C2683 1.433 . S
C2691 N2693 1.384 . S
N2692 C2688 1.427 . S
N2692 C2689 1.384 . S
N2693 C2685 1.427 . S
N2693 C2691 1.384 . S
H2694 C2700 0.930 . S
H2695 C2704 0.930 . S
H2696 C2709 0.929 . S
H2697 C2707 0.929 . S
H2698 C2702 0.929 . S
H2699 C2708 0.929 . S
C2700 H2694 0.930 . S
C2700 C2701 1.367 . S
C2700 C2708 1.378 . S
C2701 C2700 1.367 . S
C2701 C2709 1.433 . S
C2702 H2698 0.929 . S
C2702 C2704 1.378 . S
C2702 C2706 1.350 . S
C2703 C2706 1.463 . S
C2703 C2708 1.350 . S
C2703 N2711 1.427 . S
C2704 H2695 0.930 . S
C2704 C2702 1.378 . S
C2704 C2705 1.367 . S
C2705 C2704 1.367 . S
C2705 C2707 1.433 . S
C2706 C2702 1.350 . S
C2706 C2703 1.463 . S
C2706 N2710 1.427 . S
C2707 H2697 0.929 . S
C2707 C2705 1.433 . S
C2707 N2710 1.384 . S
C2708 H2699 0.929 . S
C2708 C2700 1.378 . S
C2708 C2703 1.350 . S
C2709 H2696 0.929 . S
C2709 C2701 1.433 . S
C2709 N2711 1.384 . S
N2710 C2706 1.427 . S
N2710 C2707 1.384 . S
N2711 C2703 1.427 . S
N2711 C2709 1.384 . S
H2712 C2718 0.930 . S
H2713 C2722 0.930 . S
H2714 C2727 0.929 . S
H2715 C2725 0.929 . S
H2716 C2720 0.929 . S
H2717 C2726 0.929 . S
C2718 H2712 0.930 . S
C2718 C2719 1.367 . S
C2718 C2726 1.378 . S
C2719 C2718 1.367 . S
C2719 C2727 1.433 . S
C2720 H2716 0.929 . S
C2720 C2722 1.378 . S
C2720 C2724 1.350 . S
C2721 C2724 1.463 . S
C2721 C2726 1.350 . S
C2721 N2729 1.427 . S
C2722 H2713 0.930 . S
C2722 C2720 1.378 . S
C2722 C2723 1.367 . S
C2723 C2722 1.367 . S
C2723 C2725 1.433 . S
C2724 C2720 1.350 . S
C2724 C2721 1.463 . S
C2724 N2728 1.427 . S
C2725 H2715 0.929 . S
C2725 C2723 1.433 . S
C2725 N2728 1.384 . S
C2726 H2717 0.929 . S
C2726 C2718 1.378 . S
C2726 C2721 1.350 . S
C2727 H2714 0.929 . S
C2727 C2719 1.433 . S
C2727 N2729 1.384 . S
N2728 C2724 1.427 . S
N2728 C2725 1.384 . S
N2729 C2721 1.427 . S
N2729 C2727 1.384 . S
H2730 C2736 0.930 . S
H2731 C2740 0.930 . S
H2732 C2745 0.929 . S
H2733 C2743 0.929 . S
H2734 C2738 0.929 . S
H2735 C2744 0.929 . S
C2736 H2730 0.930 . S
C2736 C2737 1.367 . S
C2736 C2744 1.378 . S
C2737 C2736 1.367 . S
C2737 C2745 1.433 . S
C2738 H2734 0.929 . S
C2738 C2740 1.378 . S
C2738 C2742 1.350 . S
C2739 C2742 1.463 . S
C2739 C2744 1.350 . S
C2739 N2747 1.427 . S
C2740 H2731 0.930 . S
C2740 C2738 1.378 . S
C2740 C2741 1.367 . S
C2741 C2740 1.367 . S
C2741 C2743 1.433 . S
C2742 C2738 1.350 . S
C2742 C2739 1.463 . S
C2742 N2746 1.427 . S
C2743 H2733 0.929 . S
C2743 C2741 1.433 . S
C2743 N2746 1.384 . S
C2744 H2735 0.929 . S
C2744 C2736 1.378 . S
C2744 C2739 1.350 . S
C2745 H2732 0.929 . S
C2745 C2737 1.433 . S
C2745 N2747 1.384 . S
N2746 C2742 1.427 . S
N2746 C2743 1.384 . S
N2747 C2739 1.427 . S
N2747 C2745 1.384 . S
H2748 C2754 0.930 . S
H2749 C2758 0.930 . S
H2750 C2763 0.929 . S
H2751 C2761 0.929 . S
H2752 C2756 0.929 . S
H2753 C2762 0.929 . S
C2754 H2748 0.930 . S
C2754 C2755 1.367 . S
C2754 C2762 1.378 . S
C2755 C2754 1.367 . S
C2755 C2763 1.433 . S
C2756 H2752 0.929 . S
C2756 C2758 1.378 . S
C2756 C2760 1.350 . S
C2757 C2760 1.463 . S
C2757 C2762 1.350 . S
C2757 N2765 1.427 . S
C2758 H2749 0.930 . S
C2758 C2756 1.378 . S
C2758 C2759 1.367 . S
C2759 C2758 1.367 . S
C2759 C2761 1.433 . S
C2760 C2756 1.350 . S
C2760 C2757 1.463 . S
C2760 N2764 1.427 . S
C2761 H2751 0.929 . S
C2761 C2759 1.433 . S
C2761 N2764 1.384 . S
C2762 H2753 0.929 . S
C2762 C2754 1.378 . S
C2762 C2757 1.350 . S
C2763 H2750 0.929 . S
C2763 C2755 1.433 . S
C2763 N2765 1.384 . S
N2764 C2760 1.427 . S
N2764 C2761 1.384 . S
N2765 C2757 1.427 . S
N2765 C2763 1.384 . S
H2766 C2772 0.930 . S
H2767 C2776 0.930 . S
H2768 C2781 0.929 . S
H2769 C2779 0.929 . S
H2770 C2774 0.929 . S
H2771 C2780 0.929 . S
C2772 H2766 0.930 . S
C2772 C2773 1.367 . S
C2772 C2780 1.378 . S
C2773 C2772 1.367 . S
C2773 C2781 1.433 . S
C2774 H2770 0.929 . S
C2774 C2776 1.378 . S
C2774 C2778 1.350 . S
C2775 C2778 1.463 . S
C2775 C2780 1.350 . S
C2775 N2783 1.427 . S
C2776 H2767 0.930 . S
C2776 C2774 1.378 . S
C2776 C2777 1.367 . S
C2777 C2776 1.367 . S
C2777 C2779 1.433 . S
C2778 C2774 1.350 . S
C2778 C2775 1.463 . S
C2778 N2782 1.427 . S
C2779 H2769 0.929 . S
C2779 C2777 1.433 . S
C2779 N2782 1.384 . S
C2780 H2771 0.929 . S
C2780 C2772 1.378 . S
C2780 C2775 1.350 . S
C2781 H2768 0.929 . S
C2781 C2773 1.433 . S
C2781 N2783 1.384 . S
N2782 C2778 1.427 . S
N2782 C2779 1.384 . S
N2783 C2775 1.427 . S
N2783 C2781 1.384 . S
H2784 C2790 0.930 . S
H2785 C2794 0.930 . S
H2786 C2799 0.929 . S
H2787 C2797 0.929 . S
H2788 C2792 0.929 . S
H2789 C2798 0.929 . S
C2790 H2784 0.930 . S
C2790 C2791 1.367 . S
C2790 C2798 1.378 . S
C2791 C2790 1.367 . S
C2791 C2799 1.433 . S
C2792 H2788 0.929 . S
C2792 C2794 1.378 . S
C2792 C2796 1.371 . S
C2793 C2796 1.420 1_655 S
C2793 C2798 1.350 . S
C2793 N2801 1.427 . S
C2794 H2785 0.930 . S
C2794 C2792 1.378 . S
C2794 C2795 1.367 . S
C2795 C2794 1.367 . S
C2795 C2797 1.433 . S
C2796 C2792 1.371 . S
C2796 C2793 1.420 1_455 S
C2796 N2800 1.448 . S
C2797 H2787 0.929 . S
C2797 C2795 1.433 . S
C2797 N2800 1.384 . S
C2798 H2789 0.929 . S
C2798 C2790 1.378 . S
C2798 C2793 1.350 . S
C2799 H2786 0.929 . S
C2799 C2791 1.433 . S
C2799 N2801 1.384 . S
N2800 C2796 1.448 . S
N2800 C2797 1.384 . S
N2801 C2793 1.427 . S
N2801 C2799 1.384 . S
H2802 C2808 0.930 . S
H2803 C2812 0.930 . S
H2804 C2817 0.929 . S
H2805 C2815 0.929 . S
H2806 C2810 0.929 . S
H2807 C2816 0.929 . S
C2808 H2802 0.930 . S
C2808 C2809 1.367 . S
C2808 C2816 1.378 . S
C2809 C2808 1.367 . S
C2809 C2817 1.433 . S
C2810 H2806 0.929 . S
C2810 C2812 1.378 . S
C2810 C2814 1.350 . S
C2811 C2814 1.463 1_545 S
C2811 C2816 1.350 . S
C2811 N2819 1.427 . S
C2812 H2803 0.930 . S
C2812 C2810 1.378 . S
C2812 C2813 1.367 . S
C2813 C2812 1.367 . S
C2813 C2815 1.433 . S
C2814 C2810 1.350 . S
C2814 C2811 1.463 1_565 S
C2814 N2818 1.427 . S
C2815 H2805 0.929 . S
C2815 C2813 1.433 . S
C2815 N2818 1.384 . S
C2816 H2807 0.929 . S
C2816 C2808 1.378 . S
C2816 C2811 1.350 . S
C2817 H2804 0.929 . S
C2817 C2809 1.433 . S
C2817 N2819 1.384 . S
N2818 C2814 1.427 . S
N2818 C2815 1.384 . S
N2819 C2811 1.427 . S
N2819 C2817 1.384 . S
H2820 C2826 0.930 . S
H2821 C2830 0.930 . S
H2822 C2835 0.929 . S
H2823 C2833 0.929 . S
H2824 C2828 0.929 . S
H2825 C2834 0.929 . S
C2826 H2820 0.930 . S
C2826 C2827 1.367 . S
C2826 C2834 1.378 . S
C2827 C2826 1.367 . S
C2827 C2835 1.433 . S
C2828 H2824 0.929 . S
C2828 C2830 1.378 . S
C2828 C2832 1.325 1_455 S
C2829 C2832 1.512 . S
C2829 C2834 1.350 . S
C2829 N2837 1.427 . S
C2830 H2821 0.930 . S
C2830 C2828 1.378 . S
C2830 C2831 1.367 . S
C2831 C2830 1.367 . S
C2831 C2833 1.433 . S
C2832 C2828 1.325 1_655 S
C2832 C2829 1.512 . S
C2832 N2836 1.406 1_655 S
C2833 H2823 0.929 . S
C2833 C2831 1.433 . S
C2833 N2836 1.384 . S
C2834 H2825 0.929 . S
C2834 C2826 1.378 . S
C2834 C2829 1.350 . S
C2835 H2822 0.929 . S
C2835 C2827 1.433 . S
C2835 N2837 1.384 . S
N2836 C2832 1.406 1_455 S
N2836 C2833 1.384 . S
N2837 C2829 1.427 . S
N2837 C2835 1.384 . S
H2838 C2844 0.930 . S
H2839 C2848 0.930 . S
H2840 C2853 0.929 . S
H2841 C2851 0.929 . S
H2842 C2846 0.929 . S
H2843 C2852 0.929 . S
C2844 H2838 0.930 . S
C2844 C2845 1.367 . S
C2844 C2852 1.378 . S
C2845 C2844 1.367 . S
C2845 C2853 1.433 . S
C2846 H2842 0.929 . S
C2846 C2848 1.378 . S
C2846 C2850 1.350 . S
C2847 C2850 1.463 1_545 S
C2847 C2852 1.350 . S
C2847 N2855 1.427 . S
C2848 H2839 0.930 . S
C2848 C2846 1.378 . S
C2848 C2849 1.367 . S
C2849 C2848 1.367 . S
C2849 C2851 1.433 . S
C2850 C2846 1.350 . S
C2850 C2847 1.463 1_565 S
C2850 N2854 1.427 . S
C2851 H2841 0.929 . S
C2851 C2849 1.433 . S
C2851 N2854 1.384 . S
C2852 H2843 0.929 . S
C2852 C2844 1.378 . S
C2852 C2847 1.350 . S
C2853 H2840 0.929 . S
C2853 C2845 1.433 . S
C2853 N2855 1.384 . S
N2854 C2850 1.427 . S
N2854 C2851 1.384 . S
N2855 C2847 1.427 . S
N2855 C2853 1.384 . S
H2856 C2862 0.930 . S
H2857 C2866 0.930 . S
H2858 C2871 0.929 . S
H2859 C2869 0.929 . S
H2860 C2864 0.929 . S
H2861 C2870 0.987 . S
C2862 H2856 0.930 . S
C2862 C2863 1.367 . S
C2862 C2870 1.378 . S
C2863 C2862 1.367 . S
C2863 C2871 1.433 . S
C2864 H2860 0.929 . S
C2864 C2866 1.378 . S
C2864 C2868 1.350 . S
C2865 C2868 1.513 . S
C2865 C2870 1.327 1_655 S
C2865 N2873 1.404 1_655 S
C2866 H2857 0.930 . S
C2866 C2864 1.378 . S
C2866 C2867 1.367 . S
C2867 C2866 1.367 . S
C2867 C2869 1.433 . S
C2868 C2864 1.350 . S
C2868 C2865 1.513 . S
C2868 N2872 1.427 . S
C2869 H2859 0.929 . S
C2869 C2867 1.433 . S
C2869 N2872 1.384 . S
C2870 H2861 0.987 . S
C2870 C2862 1.378 . S
C2870 C2865 1.327 1_455 S
C2871 H2858 0.929 . S
C2871 C2863 1.433 . S
C2871 N2873 1.384 . S
N2872 C2868 1.427 . S
N2872 C2869 1.384 . S
N2873 C2865 1.404 1_455 S
N2873 C2871 1.384 . S
H2874 C2880 0.930 . S
H2875 C2884 0.930 . S
H2876 C2889 0.929 . S
H2877 C2887 0.929 . S
H2878 C2882 0.929 . S
H2879 C2888 0.929 . S
C2880 H2874 0.930 . S
C2880 C2881 1.367 . S
C2880 C2888 1.378 . S
C2881 C2880 1.367 . S
C2881 C2889 1.433 . S
C2882 H2878 0.929 . S
C2882 C2884 1.378 . S
C2882 C2886 1.350 . S
C2883 C2886 1.463 1_565 S
C2883 C2888 1.350 . S
C2883 N2891 1.427 . S
C2884 H2875 0.930 . S
C2884 C2882 1.378 . S
C2884 C2885 1.367 . S
C2885 C2884 1.367 . S
C2885 C2887 1.433 . S
C2886 C2882 1.350 . S
C2886 C2883 1.463 1_545 S
C2886 N2890 1.427 . S
C2887 H2877 0.929 . S
C2887 C2885 1.433 . S
C2887 N2890 1.384 . S
C2888 H2879 0.929 . S
C2888 C2880 1.378 . S
C2888 C2883 1.350 . S
C2889 H2876 0.929 . S
C2889 C2881 1.433 . S
C2889 N2891 1.384 . S
N2890 C2886 1.427 . S
N2890 C2887 1.384 . S
N2891 C2883 1.427 . S
N2891 C2889 1.384 . S
H2892 C2898 0.930 . S
H2893 C2902 0.930 . S
H2894 C2907 0.929 . S
H2895 C2905 0.929 . S
H2896 C2900 0.929 . S
H2897 C2906 0.929 . S
C2898 H2892 0.930 . S
C2898 C2899 1.367 . S
C2898 C2906 1.378 . S
C2899 C2898 1.367 . S
C2899 C2907 1.433 . S
C2900 H2896 0.929 . S
C2900 C2902 1.378 . S
C2900 C2904 1.373 . S
C2901 C2904 1.418 1_655 S
C2901 C2906 1.350 . S
C2901 N2909 1.427 . S
C2902 H2893 0.930 . S
C2902 C2900 1.378 . S
C2902 C2903 1.367 . S
C2903 C2902 1.367 . S
C2903 C2905 1.433 . S
C2904 C2900 1.373 . S
C2904 C2901 1.418 1_455 S
C2904 N2908 1.448 . S
C2905 H2895 0.929 . S
C2905 C2903 1.433 . S
C2905 N2908 1.384 . S
C2906 H2897 0.929 . S
C2906 C2898 1.378 . S
C2906 C2901 1.350 . S
C2907 H2894 0.929 . S
C2907 C2899 1.433 . S
C2907 N2909 1.384 . S
N2908 C2904 1.448 . S
N2908 C2905 1.384 . S
N2909 C2901 1.427 . S
N2909 C2907 1.384 . S
H2910 C2916 0.930 . S
H2911 C2920 0.930 . S
H2912 C2925 0.929 . S
H2913 C2923 0.929 . S
H2914 C2918 0.929 . S
H2915 C2924 0.929 . S
C2916 H2910 0.930 . S
C2916 C2917 1.367 . S
C2916 C2924 1.378 . S
C2917 C2916 1.367 . S
C2917 C2925 1.433 . S
C2918 H2914 0.929 . S
C2918 C2920 1.378 . S
C2918 C2922 1.350 . S
C2919 C2922 1.463 1_565 S
C2919 C2924 1.350 . S
C2919 N2927 1.427 . S
C2920 H2911 0.930 . S
C2920 C2918 1.378 . S
C2920 C2921 1.367 . S
C2921 C2920 1.367 . S
C2921 C2923 1.433 . S
C2922 C2918 1.350 . S
C2922 C2919 1.463 1_545 S
C2922 N2926 1.427 . S
C2923 H2913 0.929 . S
C2923 C2921 1.433 . S
C2923 N2926 1.384 . S
C2924 H2915 0.929 . S
C2924 C2916 1.378 . S
C2924 C2919 1.350 . S
C2925 H2912 0.929 . S
C2925 C2917 1.433 . S
C2925 N2927 1.384 . S
N2926 C2922 1.427 . S
N2926 C2923 1.384 . S
N2927 C2919 1.427 . S
N2927 C2925 1.384 . S
H2928 C2934 0.930 . S
H2929 C2938 0.930 . S
H2930 C2943 0.929 . S
H2931 C2941 0.929 . S
H2932 C2936 0.929 . S
H2933 C2942 0.929 . S
C2934 H2928 0.930 . S
C2934 C2935 1.367 . S
C2934 C2942 1.378 . S
C2935 C2934 1.367 . S
C2935 C2943 1.433 . S
C2936 H2932 0.929 . S
C2936 C2938 1.378 . S
C2936 C2940 1.350 . S
C2937 C2940 1.463 1_556 S
C2937 C2942 1.350 . S
C2937 N2945 1.427 . S
C2938 H2929 0.930 . S
C2938 C2936 1.378 . S
C2938 C2939 1.367 . S
C2939 C2938 1.367 . S
C2939 C2941 1.433 . S
C2940 C2936 1.350 . S
C2940 C2937 1.463 1_554 S
C2940 N2944 1.427 . S
C2941 H2931 0.929 . S
C2941 C2939 1.433 . S
C2941 N2944 1.384 . S
C2942 H2933 0.929 . S
C2942 C2934 1.378 . S
C2942 C2937 1.350 . S
C2943 H2930 0.929 . S
C2943 C2935 1.433 . S
C2943 N2945 1.384 . S
N2944 C2940 1.427 . S
N2944 C2941 1.384 . S
N2945 C2937 1.427 . S
N2945 C2943 1.384 . S
H2946 C2952 0.930 . S
H2947 C2956 0.930 . S
H2948 C2961 0.929 . S
H2949 C2959 0.929 . S
H2950 C2954 0.929 . S
H2951 C2960 0.929 . S
C2952 H2946 0.930 . S
C2952 C2953 1.367 . S
C2952 C2960 1.378 . S
C2953 C2952 1.367 . S
C2953 C2961 1.433 . S
C2954 H2950 0.929 . S
C2954 C2956 1.378 . S
C2954 C2958 1.350 . S
C2955 C2958 1.463 1_556 S
C2955 C2960 1.350 . S
C2955 N2963 1.427 . S
C2956 H2947 0.930 . S
C2956 C2954 1.378 . S
C2956 C2957 1.367 . S
C2957 C2956 1.367 . S
C2957 C2959 1.433 . S
C2958 C2954 1.350 . S
C2958 C2955 1.463 1_554 S
C2958 N2962 1.427 . S
C2959 H2949 0.929 . S
C2959 C2957 1.433 . S
C2959 N2962 1.384 . S
C2960 H2951 0.929 . S
C2960 C2952 1.378 . S
C2960 C2955 1.350 . S
C2961 H2948 0.929 . S
C2961 C2953 1.433 . S
C2961 N2963 1.384 . S
N2962 C2958 1.427 . S
N2962 C2959 1.384 . S
N2963 C2955 1.427 . S
N2963 C2961 1.384 . S
H2964 C2970 0.930 . S
H2965 C2974 0.930 . S
H2966 C2979 0.929 . S
H2967 C2977 0.929 . S
H2968 C2972 0.929 . S
H2969 C2978 0.929 . S
C2970 H2964 0.930 . S
C2970 C2971 1.367 . S
C2970 C2978 1.378 . S
C2971 C2970 1.367 . S
C2971 C2979 1.433 . S
C2972 H2968 0.929 . S
C2972 C2974 1.378 . S
C2972 C2976 1.350 . S
C2973 C2976 1.463 1_554 S
C2973 C2978 1.350 . S
C2973 N2981 1.427 . S
C2974 H2965 0.930 . S
C2974 C2972 1.378 . S
C2974 C2975 1.367 . S
C2975 C2974 1.367 . S
C2975 C2977 1.433 . S
C2976 C2972 1.350 . S
C2976 C2973 1.463 1_556 S
C2976 N2980 1.427 . S
C2977 H2967 0.929 . S
C2977 C2975 1.433 . S
C2977 N2980 1.384 . S
C2978 H2969 0.929 . S
C2978 C2970 1.378 . S
C2978 C2973 1.350 . S
C2979 H2966 0.929 . S
C2979 C2971 1.433 . S
C2979 N2981 1.384 . S
N2980 C2976 1.427 . S
N2980 C2977 1.384 . S
N2981 C2973 1.427 . S
N2981 C2979 1.384 . S
H2982 C2988 0.930 . S
H2983 C2992 0.930 . S
H2984 C2997 0.929 . S
H2985 C2995 0.929 . S
H2986 C2990 0.929 . S
H2987 C2996 0.929 . S
C2988 H2982 0.930 . S
C2988 C2989 1.367 . S
C2988 C2996 1.378 . S
C2989 C2988 1.367 . S
C2989 C2997 1.433 . S
C2990 H2986 0.929 . S
C2990 C2992 1.378 . S
C2990 C2994 1.350 . S
C2991 C2994 1.463 1_554 S
C2991 C2996 1.350 . S
C2991 N2999 1.427 . S
C2992 H2983 0.930 . S
C2992 C2990 1.378 . S
C2992 C2993 1.367 . S
C2993 C2992 1.367 . S
C2993 C2995 1.433 . S
C2994 C2990 1.350 . S
C2994 C2991 1.463 1_556 S
C2994 N2998 1.427 . S
C2995 H2985 0.929 . S
C2995 C2993 1.433 . S
C2995 N2998 1.384 . S
C2996 H2987 0.929 . S
C2996 C2988 1.378 . S
C2996 C2991 1.350 . S
C2997 H2984 0.929 . S
C2997 C2989 1.433 . S
C2997 N2999 1.384 . S
N2998 C2994 1.427 . S
N2998 C2995 1.384 . S
N2999 C2991 1.427 . S
N2999 C2997 1.384 . S
H3000 C3006 0.930 . S
H3001 C3010 0.930 . S
H3002 C3015 0.929 . S
H3003 C3013 0.929 . S
H3004 C3008 0.929 . S
H3005 C3014 0.929 . S
C3006 H3000 0.930 . S
C3006 C3007 1.367 . S
C3006 C3014 1.378 . S
C3007 C3006 1.367 . S
C3007 C3015 1.433 . S
C3008 H3004 0.929 . S
C3008 C3010 1.378 . S
C3008 C3012 1.350 . S
C3009 C3012 1.463 . S
C3009 C3014 1.350 . S
C3009 N3017 1.427 . S
C3010 H3001 0.930 . S
C3010 C3008 1.378 . S
C3010 C3011 1.367 . S
C3011 C3010 1.367 . S
C3011 C3013 1.433 . S
C3012 C3008 1.350 . S
C3012 C3009 1.463 . S
C3012 N3016 1.427 . S
C3013 H3003 0.929 . S
C3013 C3011 1.433 . S
C3013 N3016 1.384 . S
C3014 H3005 0.929 . S
C3014 C3006 1.378 . S
C3014 C3009 1.350 . S
C3015 H3002 0.929 . S
C3015 C3007 1.433 . S
C3015 N3017 1.384 . S
N3016 C3012 1.427 . S
N3016 C3013 1.384 . S
N3017 C3009 1.427 . S
N3017 C3015 1.384 . S
H3018 C3024 0.930 . S
H3019 C3028 0.930 . S
H3020 C3033 0.929 . S
H3021 C3031 0.929 . S
H3022 C3026 0.929 . S
H3023 C3032 0.929 . S
C3024 H3018 0.930 . S
C3024 C3025 1.367 . S
C3024 C3032 1.378 . S
C3025 C3024 1.367 . S
C3025 C3033 1.433 . S
C3026 H3022 0.929 . S
C3026 C3028 1.378 . S
C3026 C3030 1.350 . S
C3027 C3030 1.463 . S
C3027 C3032 1.350 . S
C3027 N3035 1.427 . S
C3028 H3019 0.930 . S
C3028 C3026 1.378 . S
C3028 C3029 1.367 . S
C3029 C3028 1.367 . S
C3029 C3031 1.433 . S
C3030 C3026 1.350 . S
C3030 C3027 1.463 . S
C3030 N3034 1.427 . S
C3031 H3021 0.929 . S
C3031 C3029 1.433 . S
C3031 N3034 1.384 . S
C3032 H3023 0.929 . S
C3032 C3024 1.378 . S
C3032 C3027 1.350 . S
C3033 H3020 0.929 . S
C3033 C3025 1.433 . S
C3033 N3035 1.384 . S
N3034 C3030 1.427 . S
N3034 C3031 1.384 . S
N3035 C3027 1.427 . S
N3035 C3033 1.384 . S
H3036 C3042 0.930 . S
H3037 C3046 0.930 . S
H3038 C3051 0.929 . S
H3039 C3049 0.929 . S
H3040 C3044 0.929 . S
H3041 C3050 0.929 . S
C3042 H3036 0.930 . S
C3042 C3043 1.367 . S
C3042 C3050 1.378 . S
C3043 C3042 1.367 . S
C3043 C3051 1.433 . S
C3044 H3040 0.929 . S
C3044 C3046 1.378 . S
C3044 C3048 1.350 . S
C3045 C3048 1.463 . S
C3045 C3050 1.350 . S
C3045 N3053 1.427 . S
C3046 H3037 0.930 . S
C3046 C3044 1.378 . S
C3046 C3047 1.367 . S
C3047 C3046 1.367 . S
C3047 C3049 1.433 . S
C3048 C3044 1.350 . S
C3048 C3045 1.463 . S
C3048 N3052 1.427 . S
C3049 H3039 0.929 . S
C3049 C3047 1.433 . S
C3049 N3052 1.384 . S
C3050 H3041 0.929 . S
C3050 C3042 1.378 . S
C3050 C3045 1.350 . S
C3051 H3038 0.929 . S
C3051 C3043 1.433 . S
C3051 N3053 1.384 . S
N3052 C3048 1.427 . S
N3052 C3049 1.384 . S
N3053 C3045 1.427 . S
N3053 C3051 1.384 . S
H3054 C3060 0.930 . S
H3055 C3064 0.930 . S
H3056 C3069 0.929 . S
H3057 C3067 0.929 . S
H3058 C3062 0.929 . S
H3059 C3068 0.929 . S
C3060 H3054 0.930 . S
C3060 C3061 1.367 . S
C3060 C3068 1.378 . S
C3061 C3060 1.367 . S
C3061 C3069 1.433 . S
C3062 H3058 0.929 . S
C3062 C3064 1.378 . S
C3062 C3066 1.350 . S
C3063 C3066 1.463 . S
C3063 C3068 1.350 . S
C3063 N3071 1.427 . S
C3064 H3055 0.930 . S
C3064 C3062 1.378 . S
C3064 C3065 1.367 . S
C3065 C3064 1.367 . S
C3065 C3067 1.433 . S
C3066 C3062 1.350 . S
C3066 C3063 1.463 . S
C3066 N3070 1.427 . S
C3067 H3057 0.929 . S
C3067 C3065 1.433 . S
C3067 N3070 1.384 . S
C3068 H3059 0.929 . S
C3068 C3060 1.378 . S
C3068 C3063 1.350 . S
C3069 H3056 0.929 . S
C3069 C3061 1.433 . S
C3069 N3071 1.384 . S
N3070 C3066 1.427 . S
N3070 C3067 1.384 . S
N3071 C3063 1.427 . S
N3071 C3069 1.384 . S
H3072 C3078 0.930 . S
H3073 C3082 0.930 . S
H3074 C3087 0.929 . S
H3075 C3085 0.929 . S
H3076 C3080 0.929 . S
H3077 C3086 0.929 . S
C3078 H3072 0.930 . S
C3078 C3079 1.367 . S
C3078 C3086 1.378 . S
C3079 C3078 1.367 . S
C3079 C3087 1.433 . S
C3080 H3076 0.929 . S
C3080 C3082 1.378 . S
C3080 C3084 1.350 . S
C3081 C3084 1.463 . S
C3081 C3086 1.350 . S
C3081 N3089 1.427 . S
C3082 H3073 0.930 . S
C3082 C3080 1.378 . S
C3082 C3083 1.367 . S
C3083 C3082 1.367 . S
C3083 C3085 1.433 . S
C3084 C3080 1.350 . S
C3084 C3081 1.463 . S
C3084 N3088 1.427 . S
C3085 H3075 0.929 . S
C3085 C3083 1.433 . S
C3085 N3088 1.384 . S
C3086 H3077 0.929 . S
C3086 C3078 1.378 . S
C3086 C3081 1.350 . S
C3087 H3074 0.929 . S
C3087 C3079 1.433 . S
C3087 N3089 1.384 . S
N3088 C3084 1.427 . S
N3088 C3085 1.384 . S
N3089 C3081 1.427 . S
N3089 C3087 1.384 . S
H3090 C3096 0.930 . S
H3091 C3100 0.930 . S
H3092 C3105 0.929 . S
H3093 C3103 0.929 . S
H3094 C3098 0.929 . S
H3095 C3104 0.929 . S
C3096 H3090 0.930 . S
C3096 C3097 1.367 . S
C3096 C3104 1.378 . S
C3097 C3096 1.367 . S
C3097 C3105 1.433 . S
C3098 H3094 0.929 . S
C3098 C3100 1.378 . S
C3098 C3102 1.350 . S
C3099 C3102 1.463 . S
C3099 C3104 1.350 . S
C3099 N3107 1.427 . S
C3100 H3091 0.930 . S
C3100 C3098 1.378 . S
C3100 C3101 1.367 . S
C3101 C3100 1.367 . S
C3101 C3103 1.433 . S
C3102 C3098 1.350 . S
C3102 C3099 1.463 . S
C3102 N3106 1.427 . S
C3103 H3093 0.929 . S
C3103 C3101 1.433 . S
C3103 N3106 1.384 . S
C3104 H3095 0.929 . S
C3104 C3096 1.378 . S
C3104 C3099 1.350 . S
C3105 H3092 0.929 . S
C3105 C3097 1.433 . S
C3105 N3107 1.384 . S
N3106 C3102 1.427 . S
N3106 C3103 1.384 . S
N3107 C3099 1.427 . S
N3107 C3105 1.384 . S
H3108 C3114 0.930 . S
H3109 C3118 0.930 . S
H3110 C3123 0.929 . S
H3111 C3121 0.929 . S
H3112 C3116 0.929 . S
H3113 C3122 0.929 . S
C3114 H3108 0.930 . S
C3114 C3115 1.367 . S
C3114 C3122 1.378 . S
C3115 C3114 1.367 . S
C3115 C3123 1.433 . S
C3116 H3112 0.929 . S
C3116 C3118 1.378 . S
C3116 C3120 1.350 . S
C3117 C3120 1.463 . S
C3117 C3122 1.350 . S
C3117 N3125 1.427 . S
C3118 H3109 0.930 . S
C3118 C3116 1.378 . S
C3118 C3119 1.367 . S
C3119 C3118 1.367 . S
C3119 C3121 1.433 . S
C3120 C3116 1.350 . S
C3120 C3117 1.463 . S
C3120 N3124 1.427 . S
C3121 H3111 0.929 . S
C3121 C3119 1.433 . S
C3121 N3124 1.384 . S
C3122 H3113 0.929 . S
C3122 C3114 1.378 . S
C3122 C3117 1.350 . S
C3123 H3110 0.929 . S
C3123 C3115 1.433 . S
C3123 N3125 1.384 . S
N3124 C3120 1.427 . S
N3124 C3121 1.384 . S
N3125 C3117 1.427 . S
N3125 C3123 1.384 . S
H3126 C3132 0.930 . S
H3127 C3136 0.930 . S
H3128 C3141 0.929 . S
H3129 C3139 0.929 . S
H3130 C3134 0.929 . S
H3131 C3140 0.929 . S
C3132 H3126 0.930 . S
C3132 C3133 1.367 . S
C3132 C3140 1.378 . S
C3133 C3132 1.367 . S
C3133 C3141 1.433 . S
C3134 H3130 0.929 . S
C3134 C3136 1.378 . S
C3134 C3138 1.350 . S
C3135 C3138 1.463 . S
C3135 C3140 1.350 . S
C3135 N3143 1.427 . S
C3136 H3127 0.930 . S
C3136 C3134 1.378 . S
C3136 C3137 1.367 . S
C3137 C3136 1.367 . S
C3137 C3139 1.433 . S
C3138 C3134 1.350 . S
C3138 C3135 1.463 . S
C3138 N3142 1.427 . S
C3139 H3129 0.929 . S
C3139 C3137 1.433 . S
C3139 N3142 1.384 . S
C3140 H3131 0.929 . S
C3140 C3132 1.378 . S
C3140 C3135 1.350 . S
C3141 H3128 0.929 . S
C3141 C3133 1.433 . S
C3141 N3143 1.384 . S
N3142 C3138 1.427 . S
N3142 C3139 1.384 . S
N3143 C3135 1.427 . S
N3143 C3141 1.384 . S
H3144 C3150 0.930 . S
H3145 C3154 0.930 . S
H3146 C3159 0.929 . S
H3147 C3157 0.929 . S
H3148 C3152 0.929 . S
H3149 C3158 0.929 . S
C3150 H3144 0.930 . S
C3150 C3151 1.367 . S
C3150 C3158 1.378 . S
C3151 C3150 1.367 . S
C3151 C3159 1.433 . S
C3152 H3148 0.929 . S
C3152 C3154 1.378 . S
C3152 C3156 1.350 . S
C3153 C3156 1.463 . S
C3153 C3158 1.350 . S
C3153 N3161 1.427 . S
C3154 H3145 0.930 . S
C3154 C3152 1.378 . S
C3154 C3155 1.367 . S
C3155 C3154 1.367 . S
C3155 C3157 1.433 . S
C3156 C3152 1.350 . S
C3156 C3153 1.463 . S
C3156 N3160 1.427 . S
C3157 H3147 0.929 . S
C3157 C3155 1.433 . S
C3157 N3160 1.384 . S
C3158 H3149 0.929 . S
C3158 C3150 1.378 . S
C3158 C3153 1.350 . S
C3159 H3146 0.929 . S
C3159 C3151 1.433 . S
C3159 N3161 1.384 . S
N3160 C3156 1.427 . S
N3160 C3157 1.384 . S
N3161 C3153 1.427 . S
N3161 C3159 1.384 . S
H3162 C3168 0.930 . S
H3163 C3172 0.930 . S
H3164 C3177 0.929 . S
H3165 C3175 0.929 . S
H3166 C3170 0.929 . S
H3167 C3176 0.929 . S
C3168 H3162 0.930 . S
C3168 C3169 1.367 . S
C3168 C3176 1.378 . S
C3169 C3168 1.367 . S
C3169 C3177 1.433 . S
C3170 H3166 0.929 . S
C3170 C3172 1.378 . S
C3170 C3174 1.350 . S
C3171 C3174 1.463 . S
C3171 C3176 1.350 . S
C3171 N3179 1.427 . S
C3172 H3163 0.930 . S
C3172 C3170 1.378 . S
C3172 C3173 1.367 . S
C3173 C3172 1.367 . S
C3173 C3175 1.433 . S
C3174 C3170 1.350 . S
C3174 C3171 1.463 . S
C3174 N3178 1.427 . S
C3175 H3165 0.929 . S
C3175 C3173 1.433 . S
C3175 N3178 1.384 . S
C3176 H3167 0.929 . S
C3176 C3168 1.378 . S
C3176 C3171 1.350 . S
C3177 H3164 0.929 . S
C3177 C3169 1.433 . S
C3177 N3179 1.384 . S
N3178 C3174 1.427 . S
N3178 C3175 1.384 . S
N3179 C3171 1.427 . S
N3179 C3177 1.384 . S
H3180 C3186 0.930 . S
H3181 C3190 0.930 . S
H3182 C3195 0.929 . S
H3183 C3193 0.929 . S
H3184 C3188 0.929 . S
H3185 C3194 0.929 . S
C3186 H3180 0.930 . S
C3186 C3187 1.367 . S
C3186 C3194 1.378 . S
C3187 C3186 1.367 . S
C3187 C3195 1.433 . S
C3188 H3184 0.929 . S
C3188 C3190 1.378 . S
C3188 C3192 1.350 . S
C3189 C3192 1.463 . S
C3189 C3194 1.350 . S
C3189 N3197 1.427 . S
C3190 H3181 0.930 . S
C3190 C3188 1.378 . S
C3190 C3191 1.367 . S
C3191 C3190 1.367 . S
C3191 C3193 1.433 . S
C3192 C3188 1.350 . S
C3192 C3189 1.463 . S
C3192 N3196 1.427 . S
C3193 H3183 0.929 . S
C3193 C3191 1.433 . S
C3193 N3196 1.384 . S
C3194 H3185 0.929 . S
C3194 C3186 1.378 . S
C3194 C3189 1.350 . S
C3195 H3182 0.929 . S
C3195 C3187 1.433 . S
C3195 N3197 1.384 . S
N3196 C3192 1.427 . S
N3196 C3193 1.384 . S
N3197 C3189 1.427 . S
N3197 C3195 1.384 . S
H3198 C3204 0.930 . S
H3199 C3208 0.930 . S
H3200 C3213 0.929 . S
H3201 C3211 0.929 . S
H3202 C3206 0.929 . S
H3203 C3212 0.929 . S
C3204 H3198 0.930 . S
C3204 C3205 1.367 . S
C3204 C3212 1.378 . S
C3205 C3204 1.367 . S
C3205 C3213 1.433 . S
C3206 H3202 0.929 . S
C3206 C3208 1.378 . S
C3206 C3210 1.350 . S
C3207 C3210 1.463 . S
C3207 C3212 1.350 . S
C3207 N3215 1.427 . S
C3208 H3199 0.930 . S
C3208 C3206 1.378 . S
C3208 C3209 1.367 . S
C3209 C3208 1.367 . S
C3209 C3211 1.433 . S
C3210 C3206 1.350 . S
C3210 C3207 1.463 . S
C3210 N3214 1.427 . S
C3211 H3201 0.929 . S
C3211 C3209 1.433 . S
C3211 N3214 1.384 . S
C3212 H3203 0.929 . S
C3212 C3204 1.378 . S
C3212 C3207 1.350 . S
C3213 H3200 0.929 . S
C3213 C3205 1.433 . S
C3213 N3215 1.384 . S
N3214 C3210 1.427 . S
N3214 C3211 1.384 . S
N3215 C3207 1.427 . S
N3215 C3213 1.384 . S
C1927 C1762 1.529 . S
C1931 C2 1.532 . S
C1945 C1642 1.561 . S
C1949 C61 1.616 . S
C1963 C1701 1.656 . S
C1967 C82 1.605 . S
C1981 C122 1.560 . S
C1985 C1741 1.615 . S
C1999 C181 1.576 . S
C2003 C1882 1.534 . S
C2017 C202 1.569 . S
C2021 C1821 1.616 . S
C2035 C1861 1.665 . S
C2039 C261 1.664 . S
C2053 C301 1.616 . S
C2057 C1602 1.562 . S
C2071 C341 1.655 . S
C2075 C1581 1.654 . S
C2089 C1461 1.666 . S
C2093 C362 1.603 . S
C2107 C402 1.517 . S
C2111 C1501 1.567 . S
C2125 C1522 1.531 . S
C2129 C442 1.532 . S
C2143 C1322 1.605 . S
C2147 C501 1.666 . S
C2161 C541 1.566 . S
C2165 C1362 1.528 . S
C2179 C1402 1.536 . S
C2183 C562 1.534 . S
C2197 C621 1.655 . S
C2201 C1301 1.654 . S
C2215 C1261 1.616 . S
C2219 C642 1.566 . S
C2233 C682 1.561 . S
C2237 C1021 1.616 . S
C2251 C741 1.655 . S
C2255 C1042 1.595 . S
C2269 C1082 1.568 . S
C2273 C781 1.616 . S
C2287 C802 1.516 . S
C2291 C962 1.520 . S
C2305 C861 1.616 . S
C2309 C1162 1.572 . S
C2323 C1221 1.665 . S
C2327 C901 1.665 . S
C2341 C922 1.538 . S
C2345 C1141 1.576 . S
C2359 C602 1.646 . S
C2363 C1621 1.601 . S
C2377 C1901 1.568 . S
C2381 C482 1.604 . S
C2395 C1802 1.557 . S
C2399 C522 1.562 . S
C2413 C1842 1.605 . S
C2417 C581 1.565 . S
C2431 C1661 1.611 . S
C2435 C381 1.606 . S
C2449 C1682 1.607 . S
C2453 C421 1.575 . S
C2467 C461 1.540 . S
C2471 C1722 1.569 . S
C2485 C322 1.609 . S
C2489 C1781 1.577 . S
C2503 C981 1.526 . S
C2507 C282 1.560 . S
C2521 C162 1.569 . S
C2525 C1002 1.568 . S
C2539 C1061 1.599 . S
C2543 C221 1.601 . S
C2557 C1101 1.611 . S
C2561 C242 1.655 . S
C2575 C42 1.568 . S
C2579 C1122 1.569 . S
C2593 C1181 1.606 . S
C2597 C101 1.601 . S
C2611 C141 1.612 . S
C2615 C1202 1.655 . S
C2629 C21 1.525 . S
C2633 C1242 1.560 . S
C2647 C821 1.576 . S
C2651 C1282 1.610 . S
C2665 C1442 1.610 . S
C2669 C941 1.577 . S
C2683 C1482 1.558 . S
C2687 C842 1.562 . S
C2701 C1541 1.566 . S
C2705 C882 1.605 . S
C2719 C661 1.610 . S
C2723 C1562 1.647 . S
C2737 C722 1.609 . S
C2741 C1381 1.577 . S
C2755 C762 1.567 . S
C2759 C1421 1.534 . S
C2773 C701 1.622 . S
C2777 C1341 1.615 . S
C2791 C375 1.556 . S
C2795 C15 1.560 . S
C2809 C55 1.542 . S
C2813 C415 1.543 . S
C2827 C95 1.553 . S
C2831 C455 1.557 . S
C2845 C335 1.570 . S
C2849 C135 1.569 . S
C2863 C175 1.557 . S
C2867 C615 1.557 . S
C2881 C495 1.571 . S
C2885 C215 1.567 . S
C2899 C255 1.558 . S
C2903 C535 1.561 . S
C2917 C295 1.544 . S
C2921 C575 1.540 . S
C2935 C735 1.570 . S
C2939 C655 1.568 . S
C2953 C695 1.568 . S
C2957 C895 1.572 . S
C2971 C935 1.542 . S
C2975 C775 1.544 . S
C2989 C855 1.543 . S
C2993 C815 1.539 . S
C3007 C1335 1.557 . S
C3011 C975 1.560 . S
C3025 C1375 1.541 . S
C3029 C1015 1.543 . S
C3043 C1415 1.555 . S
C3047 C1055 1.556 . S
C3061 C1295 1.570 . S
C3065 C1095 1.568 . S
C3079 C1575 1.556 . S
C3083 C1135 1.558 . S
C3097 C1455 1.569 . S
C3101 C1175 1.570 . S
C3115 C1495 1.561 . S
C3119 C1215 1.557 . S
C3133 C1535 1.541 . S
C3137 C1255 1.543 . S
C3151 C1695 1.571 . S
C3155 C1615 1.566 . S
C3169 C1855 1.570 . S
C3173 C1655 1.569 . S
C3187 C1735 1.544 . S
C3191 C1895 1.541 . S
C3205 C1815 1.541 . S
C3209 C1775 1.542 . S
