# Generated by pormake.
# Topology smu, (6)-cn, num edge types: 1
# Building blocks:
#     Node 0, Type 0, BuildingBlock: BETGAK_clean_sbu_0, # of connection points: 6
#     Node 1, Type 0, BuildingBlock: BETGAK_clean_sbu_0, # of connection points: 6
#     Node 2, Type 0, BuildingBlock: BETGAK_clean_sbu_0, # of connection points: 6
#     Node 3, Type 0, BuildingBlock: BETGAK_clean_sbu_0, # of connection points: 6
#     Node 4, Type 0, BuildingBlock: BETGAK_clean_sbu_0, # of connection points: 6
#     Node 5, Type 0, BuildingBlock: BETGAK_clean_sbu_0, # of connection points: 6
#     Edge 6, Type (0, 0), BuildingBlock: XIVTED_clean_linker_0, # of connection points: 2
#     Edge 7, Type (0, 0), BuildingBlock: XIVTED_clean_linker_0, # of connection points: 2
#     Edge 8, Type (0, 0), BuildingBlock: XIVTED_clean_linker_0, # of connection points: 2
#     Edge 9, Type (0, 0), BuildingBlock: XIVTED_clean_linker_0, # of connection points: 2
#     Edge 10, Type (0, 0), BuildingBlock: XIVTED_clean_linker_0, # of connection points: 2
#     Edge 11, Type (0, 0), BuildingBlock: XIVTED_clean_linker_0, # of connection points: 2
#     Edge 12, Type (0, 0), BuildingBlock: XIVTED_clean_linker_0, # of connection points: 2
#     Edge 13, Type (0, 0), BuildingBlock: XIVTED_clean_linker_0, # of connection points: 2
#     Edge 14, Type (0, 0), BuildingBlock: XIVTED_clean_linker_0, # of connection points: 2
#     Edge 15, Type (0, 0), BuildingBlock: XIVTED_clean_linker_0, # of connection points: 2
#     Edge 16, Type (0, 0), BuildingBlock: XIVTED_clean_linker_0, # of connection points: 2
#     Edge 17, Type (0, 0), BuildingBlock: XIVTED_clean_linker_0, # of connection points: 2
#     Edge 18, Type (0, 0), BuildingBlock: XIVTED_clean_linker_0, # of connection points: 2
#     Edge 19, Type (0, 0), BuildingBlock: XIVTED_clean_linker_0, # of connection points: 2
#     Edge 20, Type (0, 0), BuildingBlock: XIVTED_clean_linker_0, # of connection points: 2
#     Edge 21, Type (0, 0), BuildingBlock: XIVTED_clean_linker_0, # of connection points: 2
#     Edge 22, Type (0, 0), BuildingBlock: XIVTED_clean_linker_0, # of connection points: 2
#     Edge 23, Type (0, 0), BuildingBlock: XIVTED_clean_linker_0, # of connection points: 2
# Relax obj value: 0.218
# Max RMSD: 0.311
# Mean RMSD: 0.311
data_MOF--net-smu--node1-BETGAK_clean_sbu_0--edge1-XIVTED_clean_linker_0
_symmetry_space_group_name_H-M    P1
_symmetry_Int_Tables_number       1
_symmetry_cell_setting            triclinic
loop_
_symmetry_equiv_pos_as_xyz
'x, y, z'
_cell_length_a     39.224562
_cell_length_b     39.236922
_cell_length_c     26.673453
_cell_angle_alpha  90.392614
_cell_angle_beta   90.196126
_cell_angle_gamma 120.09415
loop_
_atom_site_label
_atom_site_type_symbol
_atom_site_fract_x
_atom_site_fract_y
_atom_site_fract_z
_atom_type_partial_charge
La0 La 0.39935 0.09542 0.293 0.0
La1 La 0.34372 0.12682 0.30118 0.0
C2 C 0.44627 0.07116 0.27004 0.0
C3 C 0.49007 0.08937 0.27235 0.0
C4 C 0.50689 0.06815 0.29252 0.0
C5 C 0.548 0.08478 0.29541 0.0
C6 C 0.57369 0.1232 0.27801 0.0
C7 C 0.55666 0.14452 0.25812 0.0
C8 C 0.51549 0.1279 0.25543 0.0
C9 C 0.38428 0.10681 0.38813 0.0
C10 C 0.43471 0.18578 0.3048 0.0
C11 C 0.30951 0.16542 0.32088 0.0
C12 C 0.27752 0.17374 0.30781 0.0
C13 C 0.27962 0.19528 0.26472 0.0
C14 C 0.25404 0.21025 0.25836 0.0
C15 C 0.22597 0.2043 0.2951 0.0
C16 C 0.22253 0.18089 0.33672 0.0
C17 C 0.24805 0.16596 0.34305 0.0
C18 C 0.34807 0.10245 0.21003 0.0
C19 C 0.3058 0.0363 0.29842 0.0
O20 O 0.42808 0.06407 0.31294 0.0
O21 O 0.43183 0.08564 0.23775 0.0
O22 O 0.41807 0.11354 0.37133 0.0
O23 O 0.36123 0.0955 0.35094 0.0
O24 O 0.4402 0.15861 0.28317 0.0
O25 O 0.4006 0.1759 0.32542 0.0
O26 O 0.33875 0.17681 0.28951 0.0
O27 O 0.30066 0.13212 0.3426 0.0
O28 O 0.31792 0.10356 0.22727 0.0
O29 O 0.37642 0.12001 0.24093 0.0
O30 O 0.30167 0.06592 0.31476 0.0
O31 O 0.3404 0.04124 0.28299 0.0
H32 H 0.48814 0.03859 0.3063 0.0
H33 H 0.55959 0.06751 0.31193 0.0
H34 H 0.57508 0.17392 0.24377 0.0
H35 H 0.50361 0.14526 0.23995 0.0
H36 H 0.30221 0.20224 0.23697 0.0
H37 H 0.2577 0.22822 0.22596 0.0
H38 H 0.20075 0.17496 0.36529 0.0
H39 H 0.24588 0.14983 0.37683 0.0
La40 La 0.74395 0.66253 0.27997 0.0
La41 La 0.8285 0.72014 0.30212 0.0
C42 C 0.67908 0.60653 0.24609 0.0
C43 C 0.65698 0.56269 0.24901 0.0
C44 C 0.61693 0.54332 0.26169 0.0
C45 C 0.59555 0.50234 0.26761 0.0
C46 C 0.61362 0.47931 0.26124 0.0
C47 C 0.65369 0.49874 0.24746 0.0
C48 C 0.67508 0.5399 0.24139 0.0
C49 C 0.75626 0.68668 0.37417 0.0
C50 C 0.8017 0.62904 0.29797 0.0
C51 C 0.89859 0.75627 0.33466 0.0
C52 C 0.93879 0.79043 0.33115 0.0
C53 C 0.9541 0.80994 0.28569 0.0
C54 C 0.99465 0.83644 0.281 0.0
C55 C 1.02068 0.84363 0.32153 0.0
C56 C 1.00469 0.82503 0.36745 0.0
C57 C 0.96428 0.7989 0.37215 0.0
C58 C 0.80727 0.72305 0.20811 0.0
C59 C 0.77127 0.75233 0.29279 0.0
O60 O 0.68279 0.62523 0.28811 0.0
O61 O 0.71172 0.62366 0.22039 0.0
O62 O 0.72484 0.6771 0.34822 0.0
O63 O 0.77978 0.68004 0.34836 0.0
O64 O 0.76465 0.62037 0.29283 0.0
O65 O 0.83047 0.6658 0.30162 0.0
O66 O 0.88634 0.73182 0.29654 0.0
O67 O 0.87036 0.76044 0.35456 0.0
O68 O 0.83447 0.75272 0.23297 0.0
O69 O 0.79545 0.69258 0.23473 0.0
O70 O 0.80157 0.75541 0.31856 0.0
O71 O 0.74754 0.71999 0.26597 0.0
H72 H 0.60211 0.56005 0.26753 0.0
H73 H 0.56466 0.48871 0.27705 0.0
H74 H 0.66886 0.4823 0.24246 0.0
H75 H 0.70586 0.55392 0.23129 0.0
H76 H 0.93499 0.80355 0.25334 0.0
H77 H 1.00565 0.85067 0.24532 0.0
H78 H 1.02353 0.82909 0.39936 0.0
H79 H 0.95322 0.78362 0.40727 0.0
La80 La 0.95906 0.30672 0.27929 0.0
La81 La 0.94276 0.22613 0.30467 0.0
C82 C 0.9558 0.36449 0.24162 0.0
C83 C 0.93571 0.38758 0.25258 0.0
C84 C 0.94478 0.4114 0.29588 0.0
C85 C 0.92769 0.43502 0.30384 0.0
C86 C 0.90099 0.43563 0.26881 0.0
C87 C 0.89128 0.41108 0.22606 0.0
C88 C 0.90851 0.38755 0.21801 0.0
C89 C 0.9754 0.30223 0.37442 0.0
C90 C 0.87068 0.23833 0.29151 0.0
C91 C 0.92118 0.16037 0.3462 0.0
C92 C 0.89684 0.11747 0.33708 0.0
C93 C 0.87526 0.10158 0.29247 0.0
C94 C 0.85367 0.06051 0.28477 0.0
C95 C 0.85323 0.03465 0.32163 0.0
C96 C 0.87504 0.05107 0.36611 0.0
C97 C 0.89647 0.09187 0.37368 0.0
C98 C 0.96201 0.24406 0.20862 0.0
C99 C 1.02847 0.29059 0.29216 0.0
O100 O 0.9831 0.36802 0.27285 0.0
O101 O 0.9338 0.32799 0.22673 0.0
O102 O 0.99244 0.33345 0.34729 0.0
O103 O 0.94711 0.27473 0.34924 0.0
O104 O 0.89589 0.27647 0.29844 0.0
O105 O 0.8835 0.21323 0.28533 0.0
O106 O 0.90301 0.18039 0.35154 0.0
O107 O 0.95282 0.17929 0.3192 0.0
O108 O 0.96687 0.21868 0.2336 0.0
O109 O 0.9426 0.25464 0.23602 0.0
O110 O 1.00442 0.26304 0.32324 0.0
O111 O 1.01521 0.30849 0.26206 0.0
H112 H 0.9655 0.41226 0.32349 0.0
H113 H 0.93554 0.45293 0.33761 0.0
H114 H 0.87124 0.41092 0.19791 0.0
H115 H 0.90107 0.3698 0.18411 0.0
H116 H 0.87528 0.12089 0.26362 0.0
H117 H 0.83711 0.04902 0.2502 0.0
H118 H 0.87628 0.03241 0.39492 0.0
H119 H 0.91323 0.1035 0.40814 0.0
La120 La 0.13411 0.33031 0.79988 0.0
La121 La 0.10526 0.38673 0.7862 0.0
C122 C 0.16819 0.29252 0.82332 0.0
C123 C 0.17492 0.25971 0.80946 0.0
C124 C 0.19121 0.25872 0.76284 0.0
C125 C 0.20645 0.23357 0.75488 0.0
C126 C 0.20576 0.20888 0.79333 0.0
C127 C 0.18681 0.20793 0.83854 0.0
C128 C 0.17179 0.23318 0.84656 0.0
C129 C 0.11222 0.33277 0.70604 0.0
C130 C 0.04414 0.2957 0.78814 0.0
C131 C 0.09543 0.44468 0.76809 0.0
C132 C 0.11939 0.48774 0.75851 0.0
C133 C 0.15854 0.51026 0.77596 0.0
C134 C 0.17828 0.55166 0.77522 0.0
C135 C 0.15917 0.57162 0.75767 0.0
C136 C 0.12062 0.54888 0.73814 0.0
C137 C 0.10105 0.50754 0.73856 0.0
C138 C 0.09083 0.3553 0.87657 0.0
C139 C 0.1976 0.42033 0.80033 0.0
O140 O 0.18268 0.32265 0.79318 0.0
O141 O 0.13427 0.28487 0.8424 0.0
O142 O 0.11165 0.30278 0.72631 0.0
O143 O 0.1292 0.36173 0.73619 0.0
O144 O 0.07164 0.2918 0.81187 0.0
O145 O 0.05172 0.32972 0.76748 0.0
O146 O 0.09973 0.43391 0.81274 0.0
O147 O 0.09302 0.41963 0.73345 0.0
O148 O 0.06826 0.364 0.85115 0.0
O149 O 0.12252 0.36581 0.85212 0.0
O150 O 0.1696 0.42742 0.78565 0.0
O151 O 0.18903 0.38479 0.81359 0.0
H152 H 0.19421 0.2789 0.7334 0.0
H153 H 0.22076 0.23516 0.71963 0.0
H154 H 0.18478 0.18858 0.86857 0.0
H155 H 0.15958 0.23342 0.88286 0.0
H156 H 0.17328 0.49597 0.79248 0.0
H157 H 0.20775 0.56799 0.79092 0.0
H158 H 0.1051 0.56308 0.72361 0.0
H159 H 0.07083 0.49103 0.72529 0.0
La160 La 0.24618 0.92786 0.79803 0.0
La161 La 0.33134 0.95807 0.77952 0.0
C162 C 0.17462 0.89284 0.8241 0.0
C163 C 0.13382 0.88443 0.81326 0.0
C164 C 0.1142 0.86579 0.76824 0.0
C165 C 0.07336 0.85007 0.76299 0.0
C166 C 0.05097 0.85247 0.80262 0.0
C167 C 0.07114 0.87314 0.84649 0.0
C168 C 0.11191 0.88871 0.85177 0.0
C169 C 0.26722 0.94642 0.70225 0.0
C170 C 0.29906 1.01721 0.78149 0.0
C171 C 0.39956 0.96921 0.76099 0.0
C172 C 0.4197 0.94631 0.7505 0.0
C173 C 0.40647 0.90907 0.7719 0.0
C174 C 0.43008 0.89148 0.77102 0.0
C175 C 0.46764 0.91062 0.74875 0.0
C176 C 0.47972 0.9469 0.72494 0.0
C177 C 0.45614 0.96452 0.72599 0.0
C178 C 0.3178 0.97605 0.87015 0.0
C179 C 0.27433 0.86628 0.79717 0.0
O180 O 0.18988 0.87862 0.7925 0.0
O181 O 0.20109 0.92726 0.84263 0.0
O182 O 0.23885 0.94795 0.72441 0.0
O183 O 0.28039 0.93096 0.73255 0.0
O184 O 0.26943 0.99028 0.80796 0.0
O185 O 0.32512 1.00965 0.75911 0.0
O186 O 0.38431 0.96424 0.80562 0.0
O187 O 0.37676 0.9715 0.72662 0.0
O188 O 0.347 0.99832 0.84179 0.0
O189 O 0.29598 0.94295 0.84797 0.0
O190 O 0.30797 0.89372 0.77818 0.0
O191 O 0.24872 0.87538 0.81466 0.0
H192 H 0.13001 0.86162 0.73783 0.0
H193 H 0.05912 0.83431 0.72873 0.0
H194 H 0.05526 0.87652 0.87745 0.0
H195 H 0.12604 0.90258 0.88702 0.0
H196 H 0.37873 0.8944 0.79162 0.0
H197 H 0.4196 0.86376 0.79011 0.0
H198 H 0.50791 0.96229 0.70634 0.0
H199 H 0.46724 0.99331 0.7095 0.0
La200 La 0.74239 0.82095 0.80434 0.0
La201 La 0.67809 0.73961 0.77852 0.0
C202 C 0.78632 0.88796 0.84495 0.0
C203 C 0.80471 0.9305 0.83421 0.0
C204 C 0.80238 0.94445 0.7867 0.0
C205 C 0.8222 0.98517 0.77729 0.0
C206 C 0.84469 1.01268 0.81526 0.0
C207 C 0.84647 0.99822 0.86283 0.0
C208 C 0.82673 0.95772 0.87211 0.0
C209 C 0.74399 0.8011 0.70889 0.0
C210 C 0.76391 0.7567 0.7952 0.0
C211 C 0.6174 0.6809 0.73971 0.0
C212 C 0.57411 0.6579 0.74972 0.0
C213 C 0.55922 0.64359 0.79773 0.0
C214 C 0.5184 0.62031 0.80562 0.0
C215 C 0.49116 0.61073 0.76583 0.0
C216 C 0.50622 0.62581 0.71805 0.0
C217 C 0.54705 0.64893 0.71014 0.0
C218 C 0.69765 0.74607 0.87444 0.0
C219 C 0.65779 0.80779 0.78716 0.0
O220 O 0.74806 0.86787 0.84968 0.0
O221 O 0.79924 0.86832 0.81944 0.0
O222 O 0.77436 0.8267 0.73424 0.0
O223 O 0.71387 0.79106 0.73551 0.0
O224 O 0.7667 0.78451 0.82585 0.0
O225 O 0.73314 0.7382 0.76398 0.0
O226 O 0.64099 0.6781 0.7719 0.0
O227 O 0.63186 0.71713 0.72478 0.0
O228 O 0.68251 0.71405 0.84802 0.0
O229 O 0.69765 0.77323 0.84833 0.0
O230 O 0.64474 0.76982 0.79442 0.0
O231 O 0.69589 0.83308 0.78291 0.0
H232 H 0.7856 0.9239 0.75683 0.0
H233 H 0.8198 0.99506 0.74035 0.0
H234 H 0.86401 1.01816 0.8928 0.0
H235 H 0.82923 0.9476 0.9089 0.0
H236 H 0.57912 0.65011 0.82923 0.0
H237 H 0.50819 0.60991 0.84312 0.0
H238 H 0.48651 0.6189 0.68627 0.0
H239 H 0.55755 0.65939 0.67271 0.0
H240 H 0.34331 0.05081 0.89586 0.0
H241 H 0.36078 0.0406 0.188 0.0
H242 H 0.29092 0.93561 0.96167 0.0
H243 H 0.33009 0.12092 0.12004 0.0
H244 H 0.34761 1.00498 0.10698 0.0
H245 H 0.34953 0.07989 0.97829 0.0
C246 C 0.33184 0.03131 0.92763 0.0
C247 C 0.31494 0.99039 0.92116 0.0
C248 C 0.34403 0.03055 0.10992 0.0
C249 C 0.32503 1.02444 1.01747 0.0
C250 C 0.35227 0.05136 0.15584 0.0
C251 C 0.34763 0.08455 0.16044 0.0
C252 C 0.33178 0.04352 0.06819 0.0
C253 C 0.33497 0.09612 0.11793 0.0
C254 C 0.33605 0.04818 0.97495 0.0
C255 C 0.30297 0.96713 0.96457 0.0
N256 N 0.32804 0.07607 0.07369 0.0
N257 N 0.30875 0.98456 1.01112 0.0
H258 H 0.68375 0.74158 0.65383 0.0
H259 H 0.82195 0.73789 0.43269 0.0
H260 H 0.80948 0.81945 0.65319 0.0
H261 H 0.69561 0.66453 0.43725 0.0
H262 H 0.8201 0.76535 0.51575 0.0
H263 H 0.68893 0.71106 0.5761 0.0
C264 C 0.71244 0.75229 0.63736 0.0
C265 C 0.74612 0.7831 0.66028 0.0
C266 C 0.79287 0.74287 0.49869 0.0
C267 C 0.75262 0.74818 0.57062 0.0
C268 C 0.79404 0.72692 0.4515 0.0
C269 C 0.75893 0.69881 0.42785 0.0
C270 C 0.75634 0.73043 0.52229 0.0
C271 C 0.72348 0.68621 0.45382 0.0
C272 C 0.71551 0.73481 0.59285 0.0
C273 C 0.78264 0.79582 0.6368 0.0
N274 N 0.7231 0.70209 0.49909 0.0
N275 N 0.78495 0.77838 0.59343 0.0
H276 H 0.96465 0.30567 0.15572 0.0
H277 H 0.1005 0.30061 0.93205 0.0
H278 H 1.00661 0.22315 0.15167 0.0
H279 H 0.05813 0.38265 0.94231 0.0
H280 H 0.07067 0.27405 1.01456 0.0
H281 H 1.00122 0.33552 0.07877 0.0
C282 C 0.98141 0.29373 0.13861 0.0
C283 C 0.98236 0.26178 0.16034 0.0
C284 C 0.06847 0.2983 0.999 0.0
C285 C 1.02484 0.29599 0.07172 0.0
C286 C 0.08601 0.31379 0.9522 0.0
C287 C 0.0822 0.34419 0.93037 0.0
C288 C 0.04697 0.31332 1.02395 0.0
C289 C 0.062 0.35932 0.95768 0.0
C290 C 1.00251 0.31086 0.09461 0.0
C291 C 1.00483 0.24764 0.1362 0.0
N292 N 0.04514 0.34373 1.00249 0.0
N293 N 1.02507 0.26473 0.0934 0.0
H294 H 0.31273 0.08417 0.43061 0.0
H295 H 0.33323 0.95619 0.65018 0.0
H296 H 0.42149 0.08523 0.45898 0.0
H297 H 0.24301 0.98813 0.64645 0.0
H298 H 0.36421 0.99852 0.57686 0.0
H299 H 0.28506 0.04519 0.50655 0.0
C300 C 0.33106 0.0768 0.45327 0.0
C301 C 0.36971 0.08854 0.43842 0.0
C302 C 0.33771 0.99634 0.59233 0.0
C303 C 0.33763 0.04251 0.52523 0.0
C304 C 0.32013 0.97227 0.63438 0.0
C305 C 0.28588 0.96909 0.65545 0.0
C306 C 0.32047 1.0168 0.57046 0.0
C307 C 0.26948 0.98967 0.63194 0.0
C308 C 0.31514 0.05426 0.49656 0.0
C309 C 0.39175 0.07737 0.46909 0.0
N310 N 0.28677 1.0124 0.59104 0.0
N311 N 0.37534 0.05476 0.51059 0.0
H312 H 0.75148 0.80981 0.93419 0.0
H313 H 0.75248 0.66423 0.14617 0.0
H314 H 0.67571 0.68363 0.93409 0.0
H315 H 0.82424 0.79045 0.15839 0.0
H316 H 0.72408 0.67195 0.06814 0.0
H317 H 0.77808 0.80522 1.0167 0.0
C318 C 0.73996 0.78137 0.95178 0.0
C319 C 0.71124 0.7471 0.9271 0.0
C320 C 0.74592 0.69809 0.0879 0.0
C321 C 0.74187 0.74142 1.02073 0.0
C322 C 0.76198 0.69357 0.13275 0.0
C323 C 0.79033 0.72663 0.15946 0.0
C324 C 0.7584 0.73605 0.06904 0.0
C325 C 0.80232 0.76404 0.13918 0.0
C326 C 0.75534 0.77864 0.99865 0.0
C327 C 0.69789 0.71091 0.95142 0.0
N328 N 0.78636 0.76776 0.09539 0.0
N329 N 0.71329 0.70906 0.99632 0.0
H330 H 0.9384 0.2628 0.46239 0.0
H331 H 0.12004 0.29918 0.62104 0.0
H332 H 0.0524 0.33984 0.39884 0.0
H333 H 0.06053 0.35833 0.67784 0.0
H334 H 0.08419 0.28757 0.54104 0.0
H335 H 0.97104 0.27051 0.54511 0.0
C336 C 0.97017 0.28048 0.4655 0.0
C337 C 0.99276 0.30031 0.42348 0.0
C338 C 0.07907 0.30307 0.57118 0.0
C339 C 1.02991 0.30902 0.51708 0.0
C340 C 0.09976 0.31012 0.61656 0.0
C341 C 0.09417 0.33075 0.65594 0.0
C342 C 0.05123 0.31524 0.56562 0.0
C343 C 0.06673 0.34338 0.64829 0.0
C344 C 0.98866 0.28522 0.51262 0.0
C345 C 1.03385 0.32365 0.43001 0.0
N346 N 0.04603 0.33517 0.60419 0.0
N347 N 0.05107 0.32702 0.47551 0.0
H348 H 0.61673 0.08561 0.26536 0.0
H349 H 0.83033 0.2793 0.30037 0.0
H350 H 0.63229 0.20084 0.29529 0.0
H351 H 0.81107 0.16171 0.28003 0.0
H352 H 0.75861 0.25222 0.29743 0.0
H353 H 0.68796 0.1138 0.26979 0.0
C354 C 0.63492 0.11681 0.27325 0.0
C355 C 0.61782 0.1406 0.28018 0.0
C356 C 0.77013 0.23238 0.29368 0.0
C357 C 0.70061 0.17359 0.28447 0.0
C358 C 0.81117 0.24784 0.29539 0.0
C359 C 0.82712 0.22289 0.29048 0.0
C360 C 0.74463 0.19159 0.2869 0.0
C361 C 0.80049 0.18231 0.28397 0.0
C362 C 0.67589 0.13301 0.27543 0.0
C363 C 0.6437 0.18115 0.28908 0.0
N364 N 0.76088 0.16809 0.28235 0.0
N365 N 0.68356 0.19626 0.29099 0.0
H366 H 0.6179 0.41958 0.21033 0.0
H367 H 0.4367 0.24637 0.35844 0.0
H368 H 0.55671 0.43839 0.33194 0.0
H369 H 0.50248 0.22317 0.24754 0.0
H370 H 0.48217 0.31673 0.34997 0.0
H371 H 0.57814 0.34829 0.22387 0.0
C372 C 0.59639 0.40893 0.24009 0.0
C373 C 0.59064 0.43551 0.26965 0.0
C374 C 0.487 0.29641 0.32764 0.0
C375 C 0.54456 0.35339 0.28507 0.0
C376 C 0.46096 0.25599 0.33254 0.0
C377 C 0.46553 0.22847 0.30362 0.0
C378 C 0.51803 0.31003 0.29315 0.0
C379 C 0.49776 0.24314 0.27077 0.0
C380 C 0.57353 0.36808 0.24763 0.0
C381 C 0.56187 0.41944 0.3073 0.0
N382 N 0.52254 0.28285 0.26611 0.0
N383 N 0.54001 0.37975 0.31369 0.0
H384 H 0.93893 0.5115 0.30602 0.0
H385 H 0.75568 0.54861 0.2773 0.0
H386 H 0.82595 0.42257 0.24758 0.0
H387 H 0.87384 0.63766 0.31929 0.0
H388 H 0.7781 0.50024 0.27168 0.0
H389 H 0.91302 0.55599 0.31659 0.0
C390 C 0.9085 0.50104 0.29581 0.0
C391 C 0.88472 0.46287 0.27599 0.0
C392 C 0.799 0.53038 0.28226 0.0
C393 C 0.85461 0.51453 0.28758 0.0
C394 C 0.78616 0.55804 0.2856 0.0
C395 C 0.81281 0.5976 0.29838 0.0
C396 C 0.83875 0.54221 0.29218 0.0
C397 C 0.85202 0.60776 0.30895 0.0
C398 C 0.89372 0.52672 0.30156 0.0
C399 C 0.84565 0.45173 0.26256 0.0
N400 N 0.86365 0.58048 0.30553 0.0
N401 N 0.83185 0.47732 0.26862 0.0
H402 H 0.12455 0.61393 0.78792 0.0
H403 H 0.31285 0.82969 0.75482 0.0
H404 H 0.23679 0.62988 0.74133 0.0
H405 H 0.20725 0.80448 0.83452 0.0
H406 H 0.28681 0.75816 0.7455 0.0
H407 H 0.15474 0.68492 0.79911 0.0
C408 C 0.15553 0.63235 0.77951 0.0
C409 C 0.17793 0.61556 0.76324 0.0
C410 C 0.26961 0.76848 0.76532 0.0
C411 C 0.21327 0.69787 0.77674 0.0
C412 C 0.28453 0.80934 0.77084 0.0
C413 C 0.26231 0.82351 0.79541 0.0
C414 C 0.23205 0.7416 0.78404 0.0
C415 C 0.22563 0.79543 0.81509 0.0
C416 C 0.17293 0.67308 0.7864 0.0
C417 C 0.2183 0.64134 0.75411 0.0
N418 N 0.21172 0.75622 0.80865 0.0
N419 N 0.23461 0.68114 0.76071 0.0
H420 H 0.44953 0.83249 0.74746 0.0
H421 H 0.67436 0.88438 0.78109 0.0
H422 H 0.5485 0.95079 0.76057 0.0
H423 H 0.57627 0.76526 0.78233 0.0
H424 H 0.6283 0.90855 0.77124 0.0
H425 H 0.49472 0.80693 0.75786 0.0
C426 C 0.48066 0.85321 0.75257 0.0
C427 C 0.4949 0.89409 0.75289 0.0
C428 C 0.61671 0.87711 0.77374 0.0
C429 C 0.54717 0.86469 0.76449 0.0
C430 C 0.64311 0.86319 0.77939 0.0
C431 C 0.62938 0.82258 0.78265 0.0
C432 C 0.57596 0.8504 0.771 0.0
C433 C 0.58836 0.79679 0.78019 0.0
C434 C 0.50652 0.83849 0.75833 0.0
C435 C 0.53585 0.91916 0.75902 0.0
N436 N 0.56319 0.81109 0.77441 0.0
N437 N 0.5603 0.90411 0.76455 0.0
H438 H 0.23247 0.49374 0.75536 0.0
H439 H 0.45334 0.54528 0.82587 0.0
H440 H 0.26066 0.4187 0.84228 0.0
H441 H 0.42868 0.61526 0.72395 0.0
H442 H 0.38262 0.50187 0.8373 0.0
H443 H 0.30335 0.54154 0.7487 0.0
C444 C 0.25338 0.48745 0.7736 0.0
C445 C 0.24021 0.45191 0.79948 0.0
C446 C 0.39257 0.52676 0.81249 0.0
C447 C 0.32178 0.50659 0.7916 0.0
C448 C 0.43318 0.55187 0.80616 0.0
C449 C 0.44751 0.58432 0.77385 0.0
C450 C 0.36547 0.53386 0.78657 0.0
C451 C 0.41935 0.5905 0.7488 0.0
C452 C 0.29396 0.5147 0.76947 0.0
C453 C 0.26906 0.44546 0.8218 0.0
N454 N 0.3799 0.56566 0.7557 0.0
N455 N 0.30815 0.47231 0.81729 0.0
H456 H 0.20805 0.2396 0.37122 0.0
H457 H 0.06835 0.29111 0.20706 0.0
H458 H 0.19057 0.21625 0.2121 0.0
H459 H 0.07676 0.29656 0.36822 0.0
H460 H 0.12207 0.27574 0.2046 0.0
H461 H 0.1681 0.27095 0.36749 0.0
C462 C 0.19557 0.24077 0.33543 0.0
C463 C 0.20219 0.22444 0.29211 0.0
C464 C 0.11277 0.28132 0.2404 0.0
C465 C 0.15648 0.26127 0.28734 0.0
C466 C 0.08251 0.29065 0.24173 0.0
C467 C 0.06823 0.29535 0.28792 0.0
C468 C 0.12885 0.27703 0.28562 0.0
C469 C 0.08706 0.29357 0.3318 0.0
C470 C 0.17297 0.25909 0.33323 0.0
C471 C 0.18619 0.22825 0.24654 0.0
N472 N 0.116 0.28426 0.32959 0.0
N473 N 0.16379 0.24592 0.2454 0.0
H474 H 0.06666 0.85193 0.23891 0.0
H475 H 0.26809 0.99912 0.38213 0.0
H476 H 0.07506 0.89327 0.39146 0.0
H477 H 0.26103 0.98799 0.2212 0.0
H478 H 0.19896 0.94772 0.3874 0.0
H479 H 0.13852 0.89208 0.23238 0.0
C480 C 0.08338 0.86954 0.27096 0.0
C481 C 0.06436 0.869 0.3159 0.0
C482 C 0.21259 0.95577 0.35089 0.0
C483 C 0.14693 0.91408 0.30892 0.0
C484 C 0.25222 0.98463 0.34796 0.0
C485 C 0.27028 0.99718 0.30124 0.0
C486 C 0.19054 0.93966 0.30668 0.0
C487 C 0.24824 0.97839 0.25795 0.0
C488 C 0.1245 0.89213 0.26726 0.0
C489 C 0.08805 0.89194 0.35632 0.0
N490 N 0.20924 0.9508 0.26162 0.0
N491 N 0.12787 0.91334 0.35185 0.0
H492 H 0.8112 0.97757 0.39112 0.0
H493 H 0.76827 0.7945 0.21255 0.0
H494 H 0.84393 0.99118 0.23513 0.0
H495 H 0.76835 0.79217 0.37392 0.0
H496 H 0.78116 0.86281 0.21636 0.0
H497 H 0.78136 0.90644 0.38144 0.0
C498 C 0.81213 0.96569 0.35471 0.0
C499 C 0.83094 0.9908 0.31416 0.0
C500 C 0.77744 0.84698 0.25088 0.0
C501 C 0.79596 0.90858 0.30261 0.0
C502 C 0.7696 0.80788 0.24867 0.0
C503 C 0.76699 0.78769 0.293 0.0
C504 C 0.78225 0.86564 0.29778 0.0
C505 C 0.76987 0.80666 0.33888 0.0
C506 C 0.79481 0.9249 0.34916 0.0
C507 C 0.82989 0.97319 0.26754 0.0
N508 N 0.77751 0.84449 0.34008 0.0
N509 N 0.81309 0.93325 0.26315 0.0
H510 H 0.24982 0.19824 0.86441 0.0
H511 H 0.30265 0.06018 0.698 0.0
H512 H 0.21201 0.1696 0.71005 0.0
H513 H 0.29521 0.05899 0.85904 0.0
H514 H 0.28577 0.11306 0.69669 0.0
H515 H 0.28274 0.15989 0.85772 0.0
C516 C 0.24812 0.18364 0.82911 0.0
C517 C 0.22711 0.18644 0.78815 0.0
C518 C 0.28909 0.10189 0.73228 0.0
C519 C 0.26589 0.14289 0.77988 0.0
C520 C 0.29924 0.07219 0.73304 0.0
C521 C 0.30134 0.05588 0.77884 0.0
C522 C 0.28167 0.11545 0.7777 0.0
C523 C 0.2953 0.07152 0.82311 0.0
C524 C 0.26734 0.16202 0.82518 0.0
C525 C 0.22757 0.16807 0.74277 0.0
N526 N 0.28573 0.1002 0.82142 0.0
N527 N 0.24632 0.14673 0.73994 0.0
H528 H 0.99742 0.81385 0.87738 0.0
H529 H 0.80507 0.75839 0.71105 0.0
H530 H 1.00296 0.84253 0.72057 0.0
H531 H 0.80628 0.75177 0.87203 0.0
H532 H 0.87513 0.77706 0.71021 0.0
H533 H 0.92581 0.78106 0.87281 0.0
C534 C 0.98373 0.81361 0.84197 0.0
C535 C 1.00676 0.83177 0.79952 0.0
C536 C 0.85978 0.7706 0.74561 0.0
C537 C 0.92378 0.79299 0.79375 0.0
C538 C 0.81963 0.75935 0.74599 0.0
C539 C 0.79981 0.75337 0.79164 0.0
C540 C 0.88002 0.77555 0.79125 0.0
C541 C 0.82038 0.75586 0.83597 0.0
C542 C 0.94261 0.79442 0.83928 0.0
C543 C 0.98672 0.82902 0.75435 0.0
N544 N 0.85926 0.76705 0.8347 0.0
N545 N 0.94652 0.81028 0.75274 0.0
H546 H 0.99258 0.26264 0.86403 0.0
H547 H 0.88476 0.05163 0.72988 0.0
H548 H 1.00936 0.24603 0.70832 0.0
H549 H 0.85638 0.07351 0.87848 0.0
H550 H 0.92597 0.12283 0.7182 0.0
H551 H 0.9379 0.19462 0.86705 0.0
C552 C 0.98366 0.24497 0.82995 0.0
C553 C 1.00472 0.26015 0.78555 0.0
C554 C 0.91042 0.11205 0.75319 0.0
C555 C 0.94348 0.18143 0.78918 0.0
C556 C 0.88667 0.07127 0.75986 0.0
C557 C 0.86722 0.05616 0.80555 0.0
C558 C 0.91503 0.13813 0.79249 0.0
C559 C 0.8714 0.08344 0.84304 0.0
C560 C 0.95276 0.20595 0.83177 0.0
C561 C 0.99308 0.23563 0.74291 0.0
N562 N 0.89498 0.12284 0.83584 0.0
N563 N 0.96358 0.19731 0.74591 0.0
loop_
_geom_bond_atom_site_label_1
_geom_bond_atom_site_label_2
_geom_bond_distance
_geom_bond_site_symmetry_2
_ccdc_geom_bond_type
La0 C2 2.928 . S
La0 O20 2.521 . S
La0 O21 2.628 . S
La0 O22 2.554 . S
La0 O23 2.757 . S
La0 O24 2.470 . S
La0 O29 2.482 . S
La0 O31 2.503 . S
La1 C11 2.928 . S
La1 O23 2.482 . S
La1 O25 2.503 . S
La1 O26 2.521 . S
La1 O27 2.628 . S
La1 O28 2.554 . S
La1 O29 2.757 . S
La1 O30 2.470 . S
C2 La0 2.928 . S
C2 C3 1.503 . S
C2 O20 1.261 . S
C2 O21 1.243 . S
C3 C2 1.503 . S
C3 C4 1.394 . S
C3 C8 1.373 . S
C4 C3 1.394 . S
C4 C5 1.380 . S
C4 H32 0.930 . S
C5 C4 1.380 . S
C5 C6 1.376 . S
C5 H33 0.930 . S
C6 C5 1.376 . S
C6 C7 1.370 . S
C7 C6 1.370 . S
C7 C8 1.396 . S
C7 H34 0.929 . S
C8 C3 1.373 . S
C8 C7 1.396 . S
C8 H35 0.929 . S
C9 O22 1.240 . S
C9 O23 1.289 . S
C10 O24 1.258 . S
C10 O25 1.256 . S
C11 La1 2.928 . S
C11 C12 1.503 . S
C11 O26 1.261 . S
C11 O27 1.243 . S
C12 C11 1.503 . S
C12 C13 1.394 . S
C12 C17 1.373 . S
C13 C12 1.394 . S
C13 C14 1.380 . S
C13 H36 0.930 . S
C14 C13 1.380 . S
C14 C15 1.376 . S
C14 H37 0.930 . S
C15 C14 1.376 . S
C15 C16 1.370 . S
C16 C15 1.370 . S
C16 C17 1.396 . S
C16 H38 0.929 . S
C17 C12 1.373 . S
C17 C16 1.396 . S
C17 H39 0.929 . S
C18 O28 1.240 . S
C18 O29 1.289 . S
C19 O30 1.258 . S
C19 O31 1.256 . S
O20 La0 2.521 . S
O20 C2 1.261 . S
O21 La0 2.628 . S
O21 C2 1.243 . S
O22 La0 2.554 . S
O22 C9 1.240 . S
O23 La0 2.757 . S
O23 La1 2.482 . S
O23 C9 1.289 . S
O24 La0 2.470 . S
O24 C10 1.258 . S
O25 La1 2.503 . S
O25 C10 1.256 . S
O26 La1 2.521 . S
O26 C11 1.261 . S
O27 La1 2.628 . S
O27 C11 1.243 . S
O28 La1 2.554 . S
O28 C18 1.240 . S
O29 La0 2.482 . S
O29 La1 2.757 . S
O29 C18 1.289 . S
O30 La1 2.470 . S
O30 C19 1.258 . S
O31 La0 2.503 . S
O31 C19 1.256 . S
H32 C4 0.930 . S
H33 C5 0.930 . S
H34 C7 0.929 . S
H35 C8 0.929 . S
H36 C13 0.930 . S
H37 C14 0.930 . S
H38 C16 0.929 . S
H39 C17 0.929 . S
La40 C42 2.928 . S
La40 O60 2.521 . S
La40 O61 2.628 . S
La40 O62 2.554 . S
La40 O63 2.757 . S
La40 O64 2.470 . S
La40 O69 2.482 . S
La40 O71 2.503 . S
La41 C51 2.928 . S
La41 O63 2.482 . S
La41 O65 2.503 . S
La41 O66 2.521 . S
La41 O67 2.628 . S
La41 O68 2.554 . S
La41 O69 2.757 . S
La41 O70 2.470 . S
C42 La40 2.928 . S
C42 C43 1.503 . S
C42 O60 1.261 . S
C42 O61 1.243 . S
C43 C42 1.503 . S
C43 C44 1.394 . S
C43 C48 1.373 . S
C44 C43 1.394 . S
C44 C45 1.380 . S
C44 H72 0.930 . S
C45 C44 1.380 . S
C45 C46 1.376 . S
C45 H73 0.930 . S
C46 C45 1.376 . S
C46 C47 1.370 . S
C47 C46 1.370 . S
C47 C48 1.396 . S
C47 H74 0.929 . S
C48 C43 1.373 . S
C48 C47 1.396 . S
C48 H75 0.929 . S
C49 O62 1.240 . S
C49 O63 1.289 . S
C50 O64 1.258 . S
C50 O65 1.256 . S
C51 La41 2.928 . S
C51 C52 1.503 . S
C51 O66 1.261 . S
C51 O67 1.243 . S
C52 C51 1.503 . S
C52 C53 1.394 . S
C52 C57 1.373 . S
C53 C52 1.394 . S
C53 C54 1.380 . S
C53 H76 0.930 . S
C54 C53 1.380 . S
C54 C55 1.376 . S
C54 H77 0.930 1_655 S
C55 C54 1.376 . S
C55 C56 1.370 . S
C56 C55 1.370 . S
C56 C57 1.396 . S
C56 H78 0.929 . S
C57 C52 1.373 . S
C57 C56 1.396 . S
C57 H79 0.929 . S
C58 O68 1.240 . S
C58 O69 1.289 . S
C59 O70 1.258 . S
C59 O71 1.256 . S
O60 La40 2.521 . S
O60 C42 1.261 . S
O61 La40 2.628 . S
O61 C42 1.243 . S
O62 La40 2.554 . S
O62 C49 1.240 . S
O63 La40 2.757 . S
O63 La41 2.482 . S
O63 C49 1.289 . S
O64 La40 2.470 . S
O64 C50 1.258 . S
O65 La41 2.503 . S
O65 C50 1.256 . S
O66 La41 2.521 . S
O66 C51 1.261 . S
O67 La41 2.628 . S
O67 C51 1.243 . S
O68 La41 2.554 . S
O68 C58 1.240 . S
O69 La40 2.482 . S
O69 La41 2.757 . S
O69 C58 1.289 . S
O70 La41 2.470 . S
O70 C59 1.258 . S
O71 La40 2.503 . S
O71 C59 1.256 . S
H72 C44 0.930 . S
H73 C45 0.930 . S
H74 C47 0.929 . S
H75 C48 0.929 . S
H76 C53 0.930 . S
H77 C54 0.930 1_455 S
H78 C56 0.929 . S
H79 C57 0.929 . S
La80 C82 2.928 . S
La80 O100 2.521 . S
La80 O101 2.628 . S
La80 O102 2.554 . S
La80 O103 2.757 . S
La80 O104 2.470 . S
La80 O109 2.482 . S
La80 O111 2.503 . S
La81 C91 2.928 . S
La81 O103 2.482 . S
La81 O105 2.503 . S
La81 O106 2.521 . S
La81 O107 2.628 . S
La81 O108 2.554 . S
La81 O109 2.757 . S
La81 O110 2.470 . S
C82 La80 2.928 . S
C82 C83 1.503 . S
C82 O100 1.261 . S
C82 O101 1.243 . S
C83 C82 1.503 . S
C83 C84 1.394 . S
C83 C88 1.373 . S
C84 C83 1.394 . S
C84 C85 1.380 . S
C84 H112 0.930 . S
C85 C84 1.380 . S
C85 C86 1.376 . S
C85 H113 0.930 . S
C86 C85 1.376 . S
C86 C87 1.370 . S
C87 C86 1.370 . S
C87 C88 1.396 . S
C87 H114 0.929 . S
C88 C83 1.373 . S
C88 C87 1.396 . S
C88 H115 0.929 . S
C89 O102 1.240 . S
C89 O103 1.289 . S
C90 O104 1.258 . S
C90 O105 1.256 . S
C91 La81 2.928 . S
C91 C92 1.503 . S
C91 O106 1.261 . S
C91 O107 1.243 . S
C92 C91 1.503 . S
C92 C93 1.394 . S
C92 C97 1.373 . S
C93 C92 1.394 . S
C93 C94 1.380 . S
C93 H116 0.930 . S
C94 C93 1.380 . S
C94 C95 1.376 . S
C94 H117 0.930 1_545 S
C95 C94 1.376 . S
C95 C96 1.370 . S
C96 C95 1.370 . S
C96 C97 1.396 . S
C96 H118 0.929 . S
C97 C92 1.373 . S
C97 C96 1.396 . S
C97 H119 0.929 . S
C98 O108 1.240 . S
C98 O109 1.289 . S
C99 O110 1.258 . S
C99 O111 1.256 . S
O100 La80 2.521 . S
O100 C82 1.261 . S
O101 La80 2.628 . S
O101 C82 1.243 . S
O102 La80 2.554 . S
O102 C89 1.240 . S
O103 La80 2.757 . S
O103 La81 2.482 . S
O103 C89 1.289 . S
O104 La80 2.470 . S
O104 C90 1.258 . S
O105 La81 2.503 . S
O105 C90 1.256 . S
O106 La81 2.521 . S
O106 C91 1.261 . S
O107 La81 2.628 . S
O107 C91 1.243 . S
O108 La81 2.554 . S
O108 C98 1.240 . S
O109 La80 2.482 . S
O109 La81 2.757 . S
O109 C98 1.289 . S
O110 La81 2.470 . S
O110 C99 1.258 . S
O111 La80 2.503 . S
O111 C99 1.256 . S
H112 C84 0.930 . S
H113 C85 0.930 . S
H114 C87 0.929 . S
H115 C88 0.929 . S
H116 C93 0.930 . S
H117 C94 0.930 1_565 S
H118 C96 0.929 . S
H119 C97 0.929 . S
La120 C122 2.928 . S
La120 O140 2.521 . S
La120 O141 2.628 . S
La120 O142 2.554 . S
La120 O143 2.757 . S
La120 O144 2.470 . S
La120 O149 2.482 . S
La120 O151 2.503 . S
La121 C131 2.928 . S
La121 O143 2.482 . S
La121 O145 2.503 . S
La121 O146 2.521 . S
La121 O147 2.628 . S
La121 O148 2.554 . S
La121 O149 2.757 . S
La121 O150 2.470 . S
C122 La120 2.928 . S
C122 C123 1.503 . S
C122 O140 1.261 . S
C122 O141 1.243 . S
C123 C122 1.503 . S
C123 C124 1.394 . S
C123 C128 1.373 . S
C124 C123 1.394 . S
C124 C125 1.380 . S
C124 H152 0.930 . S
C125 C124 1.380 . S
C125 C126 1.376 . S
C125 H153 0.930 . S
C126 C125 1.376 . S
C126 C127 1.370 . S
C127 C126 1.370 . S
C127 C128 1.396 . S
C127 H154 0.929 . S
C128 C123 1.373 . S
C128 C127 1.396 . S
C128 H155 0.929 . S
C129 O142 1.240 . S
C129 O143 1.289 . S
C130 O144 1.258 . S
C130 O145 1.256 . S
C131 La121 2.928 . S
C131 C132 1.503 . S
C131 O146 1.261 . S
C131 O147 1.243 . S
C132 C131 1.503 . S
C132 C133 1.394 . S
C132 C137 1.373 . S
C133 C132 1.394 . S
C133 C134 1.380 . S
C133 H156 0.930 . S
C134 C133 1.380 . S
C134 C135 1.376 . S
C134 H157 0.930 . S
C135 C134 1.376 . S
C135 C136 1.370 . S
C136 C135 1.370 . S
C136 C137 1.396 . S
C136 H158 0.929 . S
C137 C132 1.373 . S
C137 C136 1.396 . S
C137 H159 0.929 . S
C138 O148 1.240 . S
C138 O149 1.289 . S
C139 O150 1.258 . S
C139 O151 1.256 . S
O140 La120 2.521 . S
O140 C122 1.261 . S
O141 La120 2.628 . S
O141 C122 1.243 . S
O142 La120 2.554 . S
O142 C129 1.240 . S
O143 La120 2.757 . S
O143 La121 2.482 . S
O143 C129 1.289 . S
O144 La120 2.470 . S
O144 C130 1.258 . S
O145 La121 2.503 . S
O145 C130 1.256 . S
O146 La121 2.521 . S
O146 C131 1.261 . S
O147 La121 2.628 . S
O147 C131 1.243 . S
O148 La121 2.554 . S
O148 C138 1.240 . S
O149 La120 2.482 . S
O149 La121 2.757 . S
O149 C138 1.289 . S
O150 La121 2.470 . S
O150 C139 1.258 . S
O151 La120 2.503 . S
O151 C139 1.256 . S
H152 C124 0.930 . S
H153 C125 0.930 . S
H154 C127 0.929 . S
H155 C128 0.929 . S
H156 C133 0.930 . S
H157 C134 0.930 . S
H158 C136 0.929 . S
H159 C137 0.929 . S
La160 C162 2.928 . S
La160 O180 2.521 . S
La160 O181 2.628 . S
La160 O182 2.554 . S
La160 O183 2.757 . S
La160 O184 2.470 . S
La160 O189 2.482 . S
La160 O191 2.503 . S
La161 C171 2.928 . S
La161 O183 2.482 . S
La161 O185 2.503 . S
La161 O186 2.521 . S
La161 O187 2.628 . S
La161 O188 2.554 . S
La161 O189 2.757 . S
La161 O190 2.470 . S
C162 La160 2.928 . S
C162 C163 1.503 . S
C162 O180 1.261 . S
C162 O181 1.243 . S
C163 C162 1.503 . S
C163 C164 1.394 . S
C163 C168 1.373 . S
C164 C163 1.394 . S
C164 C165 1.380 . S
C164 H192 0.930 . S
C165 C164 1.380 . S
C165 C166 1.376 . S
C165 H193 0.930 1_455 S
C166 C165 1.376 . S
C166 C167 1.370 . S
C167 C166 1.370 . S
C167 C168 1.396 . S
C167 H194 0.929 . S
C168 C163 1.373 . S
C168 C167 1.396 . S
C168 H195 0.929 . S
C169 O182 1.240 . S
C169 O183 1.289 . S
C170 O184 1.258 . S
C170 O185 1.256 . S
C171 La161 2.928 . S
C171 C172 1.503 . S
C171 O186 1.261 . S
C171 O187 1.243 . S
C172 C171 1.503 . S
C172 C173 1.394 . S
C172 C177 1.373 . S
C173 C172 1.394 . S
C173 C174 1.380 . S
C173 H196 0.930 . S
C174 C173 1.380 . S
C174 C175 1.376 . S
C174 H197 0.930 . S
C175 C174 1.376 . S
C175 C176 1.370 . S
C176 C175 1.370 . S
C176 C177 1.396 . S
C176 H198 0.929 . S
C177 C172 1.373 . S
C177 C176 1.396 . S
C177 H199 0.929 . S
C178 O188 1.240 . S
C178 O189 1.289 . S
C179 O190 1.258 . S
C179 O191 1.256 . S
O180 La160 2.521 . S
O180 C162 1.261 . S
O181 La160 2.628 . S
O181 C162 1.243 . S
O182 La160 2.554 . S
O182 C169 1.240 . S
O183 La160 2.757 . S
O183 La161 2.482 . S
O183 C169 1.289 . S
O184 La160 2.470 . S
O184 C170 1.258 . S
O185 La161 2.503 . S
O185 C170 1.256 . S
O186 La161 2.521 . S
O186 C171 1.261 . S
O187 La161 2.628 . S
O187 C171 1.243 . S
O188 La161 2.554 . S
O188 C178 1.240 . S
O189 La160 2.482 . S
O189 La161 2.757 . S
O189 C178 1.289 . S
O190 La161 2.470 . S
O190 C179 1.258 . S
O191 La160 2.503 . S
O191 C179 1.256 . S
H192 C164 0.930 . S
H193 C165 0.930 1_655 S
H194 C167 0.929 . S
H195 C168 0.929 . S
H196 C173 0.930 . S
H197 C174 0.930 . S
H198 C176 0.929 . S
H199 C177 0.929 . S
La200 C202 2.928 . S
La200 O220 2.521 . S
La200 O221 2.628 . S
La200 O222 2.554 . S
La200 O223 2.757 . S
La200 O224 2.470 . S
La200 O229 2.482 . S
La200 O231 2.503 . S
La201 C211 2.928 . S
La201 O223 2.482 . S
La201 O225 2.503 . S
La201 O226 2.521 . S
La201 O227 2.628 . S
La201 O228 2.554 . S
La201 O229 2.757 . S
La201 O230 2.470 . S
C202 La200 2.928 . S
C202 C203 1.503 . S
C202 O220 1.261 . S
C202 O221 1.243 . S
C203 C202 1.503 . S
C203 C204 1.394 . S
C203 C208 1.373 . S
C204 C203 1.394 . S
C204 C205 1.380 . S
C204 H232 0.930 . S
C205 C204 1.380 . S
C205 C206 1.376 . S
C205 H233 0.930 1_565 S
C206 C205 1.376 . S
C206 C207 1.370 . S
C207 C206 1.370 . S
C207 C208 1.396 . S
C207 H234 0.929 . S
C208 C203 1.373 . S
C208 C207 1.396 . S
C208 H235 0.929 . S
C209 O222 1.240 . S
C209 O223 1.289 . S
C210 O224 1.258 . S
C210 O225 1.256 . S
C211 La201 2.928 . S
C211 C212 1.503 . S
C211 O226 1.261 . S
C211 O227 1.243 . S
C212 C211 1.503 . S
C212 C213 1.394 . S
C212 C217 1.373 . S
C213 C212 1.394 . S
C213 C214 1.380 . S
C213 H236 0.930 . S
C214 C213 1.380 . S
C214 C215 1.376 . S
C214 H237 0.930 . S
C215 C214 1.376 . S
C215 C216 1.370 . S
C216 C215 1.370 . S
C216 C217 1.396 . S
C216 H238 0.929 . S
C217 C212 1.373 . S
C217 C216 1.396 . S
C217 H239 0.929 . S
C218 O228 1.240 . S
C218 O229 1.289 . S
C219 O230 1.258 . S
C219 O231 1.256 . S
O220 La200 2.521 . S
O220 C202 1.261 . S
O221 La200 2.628 . S
O221 C202 1.243 . S
O222 La200 2.554 . S
O222 C209 1.240 . S
O223 La200 2.757 . S
O223 La201 2.482 . S
O223 C209 1.289 . S
O224 La200 2.470 . S
O224 C210 1.258 . S
O225 La201 2.503 . S
O225 C210 1.256 . S
O226 La201 2.521 . S
O226 C211 1.261 . S
O227 La201 2.628 . S
O227 C211 1.243 . S
O228 La201 2.554 . S
O228 C218 1.240 . S
O229 La200 2.482 . S
O229 La201 2.757 . S
O229 C218 1.289 . S
O230 La201 2.470 . S
O230 C219 1.258 . S
O231 La200 2.503 . S
O231 C219 1.256 . S
H232 C204 0.930 . S
H233 C205 0.930 1_545 S
H234 C207 0.929 . S
H235 C208 0.929 . S
H236 C213 0.930 . S
H237 C214 0.930 . S
H238 C216 0.929 . S
H239 C217 0.929 . S
H240 C246 0.930 . S
H241 C250 0.930 . S
H242 C255 0.929 . S
H243 C253 0.929 . S
H244 C248 0.929 1_565 S
H245 C254 0.929 1_545 S
C246 H240 0.930 . S
C246 C247 1.367 . S
C246 C254 1.378 . S
C247 C246 1.367 . S
C247 C255 1.433 . S
C248 H244 0.929 1_545 S
C248 C250 1.378 . S
C248 C252 1.350 . S
C249 C252 1.463 1_566 S
C249 C254 1.350 . S
C249 N257 1.427 . S
C250 H241 0.930 . S
C250 C248 1.378 . S
C250 C251 1.367 . S
C251 C250 1.367 . S
C251 C253 1.433 . S
C252 C248 1.350 . S
C252 C249 1.463 1_544 S
C252 N256 1.427 . S
C253 H243 0.929 . S
C253 C251 1.433 . S
C253 N256 1.384 . S
C254 H245 0.929 1_565 S
C254 C246 1.378 . S
C254 C249 1.350 . S
C255 H242 0.929 . S
C255 C247 1.433 . S
C255 N257 1.384 . S
N256 C252 1.427 . S
N256 C253 1.384 . S
N257 C249 1.427 . S
N257 C255 1.384 . S
H258 C264 0.930 . S
H259 C268 0.930 . S
H260 C273 0.929 . S
H261 C271 0.929 . S
H262 C266 0.929 . S
H263 C272 0.929 . S
C264 H258 0.930 . S
C264 C265 1.367 . S
C264 C272 1.378 . S
C265 C264 1.367 . S
C265 C273 1.433 . S
C266 H262 0.929 . S
C266 C268 1.378 . S
C266 C270 1.350 . S
C267 C270 1.463 . S
C267 C272 1.350 . S
C267 N275 1.427 . S
C268 H259 0.930 . S
C268 C266 1.378 . S
C268 C269 1.367 . S
C269 C268 1.367 . S
C269 C271 1.433 . S
C270 C266 1.350 . S
C270 C267 1.463 . S
C270 N274 1.427 . S
C271 H261 0.929 . S
C271 C269 1.433 . S
C271 N274 1.384 . S
C272 H263 0.929 . S
C272 C264 1.378 . S
C272 C267 1.350 . S
C273 H260 0.929 . S
C273 C265 1.433 . S
C273 N275 1.384 . S
N274 C270 1.427 . S
N274 C271 1.384 . S
N275 C267 1.427 . S
N275 C273 1.384 . S
H276 C282 0.930 . S
H277 C286 0.930 . S
H278 C291 0.929 . S
H279 C289 0.929 . S
H280 C284 0.929 1_554 S
H281 C290 0.929 1_556 S
C282 H276 0.930 . S
C282 C283 1.367 . S
C282 C290 1.378 . S
C283 C282 1.367 . S
C283 C291 1.433 . S
C284 H280 0.929 1_556 S
C284 C286 1.378 . S
C284 C288 1.350 . S
C285 C288 1.463 1_654 S
C285 C290 1.350 . S
C285 N293 1.427 . S
C286 H277 0.930 . S
C286 C284 1.378 . S
C286 C287 1.367 . S
C287 C286 1.367 . S
C287 C289 1.433 . S
C288 C284 1.350 . S
C288 C285 1.463 1_456 S
C288 N292 1.427 . S
C289 H279 0.929 . S
C289 C287 1.433 . S
C289 N292 1.384 . S
C290 H281 0.929 1_554 S
C290 C282 1.378 . S
C290 C285 1.350 . S
C291 H278 0.929 . S
C291 C283 1.433 . S
C291 N293 1.384 . S
N292 C288 1.427 . S
N292 C289 1.384 . S
N293 C285 1.427 . S
N293 C291 1.384 . S
H294 C300 0.930 . S
H295 C304 0.930 . S
H296 C309 0.929 . S
H297 C307 0.929 . S
H298 C302 0.929 . S
H299 C308 0.929 . S
C300 H294 0.930 . S
C300 C301 1.367 . S
C300 C308 1.378 . S
C301 C300 1.367 . S
C301 C309 1.433 . S
C302 H298 0.929 . S
C302 C304 1.378 . S
C302 C306 1.350 . S
C303 C306 1.463 1_545 S
C303 C308 1.350 . S
C303 N311 1.427 . S
C304 H295 0.930 . S
C304 C302 1.378 . S
C304 C305 1.367 . S
C305 C304 1.367 . S
C305 C307 1.433 . S
C306 C302 1.350 . S
C306 C303 1.463 1_565 S
C306 N310 1.427 . S
C307 H297 0.929 . S
C307 C305 1.433 . S
C307 N310 1.384 . S
C308 H299 0.929 . S
C308 C300 1.378 . S
C308 C303 1.350 . S
C309 H296 0.929 . S
C309 C301 1.433 . S
C309 N311 1.384 . S
N310 C306 1.427 . S
N310 C307 1.384 . S
N311 C303 1.427 . S
N311 C309 1.384 . S
H312 C318 0.930 . S
H313 C322 0.930 . S
H314 C327 0.929 . S
H315 C325 0.929 . S
H316 C320 0.929 . S
H317 C326 0.929 . S
C318 H312 0.930 . S
C318 C319 1.367 . S
C318 C326 1.378 . S
C319 C318 1.367 . S
C319 C327 1.433 . S
C320 H316 0.929 . S
C320 C322 1.378 . S
C320 C324 1.350 . S
C321 C324 1.463 1_556 S
C321 C326 1.350 . S
C321 N329 1.427 . S
C322 H313 0.930 . S
C322 C320 1.378 . S
C322 C323 1.367 . S
C323 C322 1.367 . S
C323 C325 1.433 . S
C324 C320 1.350 . S
C324 C321 1.463 1_554 S
C324 N328 1.427 . S
C325 H315 0.929 . S
C325 C323 1.433 . S
C325 N328 1.384 . S
C326 H317 0.929 . S
C326 C318 1.378 . S
C326 C321 1.350 . S
C327 H314 0.929 . S
C327 C319 1.433 . S
C327 N329 1.384 . S
N328 C324 1.427 . S
N328 C325 1.384 . S
N329 C321 1.427 . S
N329 C327 1.384 . S
H330 C336 0.930 . S
H331 C340 0.930 . S
H332 C345 0.929 . S
H333 C343 0.929 . S
H334 C338 0.929 . S
H335 C344 0.929 . S
C336 H330 0.930 . S
C336 C337 1.367 . S
C336 C344 1.378 . S
C337 C336 1.367 . S
C337 C345 1.433 . S
C338 H334 0.929 . S
C338 C340 1.378 . S
C338 C342 1.350 . S
C339 C342 1.463 1_655 S
C339 C344 1.350 . S
C339 N347 1.433 . S
C340 H331 0.930 . S
C340 C338 1.378 . S
C340 C341 1.367 . S
C341 C340 1.367 . S
C341 C343 1.433 . S
C342 C338 1.350 . S
C342 C339 1.463 1_455 S
C342 N346 1.427 . S
C343 H333 0.929 . S
C343 C341 1.433 . S
C343 N346 1.384 . S
C344 H335 0.929 . S
C344 C336 1.378 . S
C344 C339 1.350 . S
C345 H332 0.929 . S
C345 C337 1.433 . S
C345 N347 1.392 . S
N346 C342 1.427 . S
N346 C343 1.384 . S
N347 C339 1.433 . S
N347 C345 1.392 . S
H348 C354 0.930 . S
H349 C358 0.930 . S
H350 C363 0.929 . S
H351 C361 0.929 . S
H352 C356 0.929 . S
H353 C362 0.929 . S
C354 H348 0.930 . S
C354 C355 1.367 . S
C354 C362 1.378 . S
C355 C354 1.367 . S
C355 C363 1.433 . S
C356 H352 0.929 . S
C356 C358 1.378 . S
C356 C360 1.350 . S
C357 C360 1.463 . S
C357 C362 1.350 . S
C357 N365 1.427 . S
C358 H349 0.930 . S
C358 C356 1.378 . S
C358 C359 1.367 . S
C359 C358 1.367 . S
C359 C361 1.433 . S
C360 C356 1.350 . S
C360 C357 1.463 . S
C360 N364 1.427 . S
C361 H351 0.929 . S
C361 C359 1.433 . S
C361 N364 1.384 . S
C362 H353 0.929 . S
C362 C354 1.378 . S
C362 C357 1.350 . S
C363 H350 0.929 . S
C363 C355 1.433 . S
C363 N365 1.384 . S
N364 C360 1.427 . S
N364 C361 1.384 . S
N365 C357 1.427 . S
N365 C363 1.384 . S
H366 C372 0.930 . S
H367 C376 0.930 . S
H368 C381 0.929 . S
H369 C379 0.929 . S
H370 C374 0.929 . S
H371 C380 0.929 . S
C372 H366 0.930 . S
C372 C373 1.367 . S
C372 C380 1.378 . S
C373 C372 1.367 . S
C373 C381 1.433 . S
C374 H370 0.929 . S
C374 C376 1.378 . S
C374 C378 1.350 . S
C375 C378 1.463 . S
C375 C380 1.350 . S
C375 N383 1.427 . S
C376 H367 0.930 . S
C376 C374 1.378 . S
C376 C377 1.367 . S
C377 C376 1.367 . S
C377 C379 1.433 . S
C378 C374 1.350 . S
C378 C375 1.463 . S
C378 N382 1.427 . S
C379 H369 0.929 . S
C379 C377 1.433 . S
C379 N382 1.384 . S
C380 H371 0.929 . S
C380 C372 1.378 . S
C380 C375 1.350 . S
C381 H368 0.929 . S
C381 C373 1.433 . S
C381 N383 1.384 . S
N382 C378 1.427 . S
N382 C379 1.384 . S
N383 C375 1.427 . S
N383 C381 1.384 . S
H384 C390 0.930 . S
H385 C394 0.930 . S
H386 C399 0.929 . S
H387 C397 0.929 . S
H388 C392 0.929 . S
H389 C398 0.929 . S
C390 H384 0.930 . S
C390 C391 1.367 . S
C390 C398 1.378 . S
C391 C390 1.367 . S
C391 C399 1.433 . S
C392 H388 0.929 . S
C392 C394 1.378 . S
C392 C396 1.350 . S
C393 C396 1.463 . S
C393 C398 1.350 . S
C393 N401 1.427 . S
C394 H385 0.930 . S
C394 C392 1.378 . S
C394 C395 1.367 . S
C395 C394 1.367 . S
C395 C397 1.433 . S
C396 C392 1.350 . S
C396 C393 1.463 . S
C396 N400 1.427 . S
C397 H387 0.929 . S
C397 C395 1.433 . S
C397 N400 1.384 . S
C398 H389 0.929 . S
C398 C390 1.378 . S
C398 C393 1.350 . S
C399 H386 0.929 . S
C399 C391 1.433 . S
C399 N401 1.384 . S
N400 C396 1.427 . S
N400 C397 1.384 . S
N401 C393 1.427 . S
N401 C399 1.384 . S
H402 C408 0.930 . S
H403 C412 0.930 . S
H404 C417 0.929 . S
H405 C415 0.929 . S
H406 C410 0.929 . S
H407 C416 0.929 . S
C408 H402 0.930 . S
C408 C409 1.367 . S
C408 C416 1.378 . S
C409 C408 1.367 . S
C409 C417 1.433 . S
C410 H406 0.929 . S
C410 C412 1.378 . S
C410 C414 1.350 . S
C411 C414 1.463 . S
C411 C416 1.350 . S
C411 N419 1.427 . S
C412 H403 0.930 . S
C412 C410 1.378 . S
C412 C413 1.367 . S
C413 C412 1.367 . S
C413 C415 1.433 . S
C414 C410 1.350 . S
C414 C411 1.463 . S
C414 N418 1.427 . S
C415 H405 0.929 . S
C415 C413 1.433 . S
C415 N418 1.384 . S
C416 H407 0.929 . S
C416 C408 1.378 . S
C416 C411 1.350 . S
C417 H404 0.929 . S
C417 C409 1.433 . S
C417 N419 1.384 . S
N418 C414 1.427 . S
N418 C415 1.384 . S
N419 C411 1.427 . S
N419 C417 1.384 . S
H420 C426 0.930 . S
H421 C430 0.930 . S
H422 C435 0.929 . S
H423 C433 0.929 . S
H424 C428 0.929 . S
H425 C434 0.929 . S
C426 H420 0.930 . S
C426 C427 1.367 . S
C426 C434 1.378 . S
C427 C426 1.367 . S
C427 C435 1.433 . S
C428 H424 0.929 . S
C428 C430 1.378 . S
C428 C432 1.350 . S
C429 C432 1.463 . S
C429 C434 1.350 . S
C429 N437 1.427 . S
C430 H421 0.930 . S
C430 C428 1.378 . S
C430 C431 1.367 . S
C431 C430 1.367 . S
C431 C433 1.433 . S
C432 C428 1.350 . S
C432 C429 1.463 . S
C432 N436 1.427 . S
C433 H423 0.929 . S
C433 C431 1.433 . S
C433 N436 1.384 . S
C434 H425 0.929 . S
C434 C426 1.378 . S
C434 C429 1.350 . S
C435 H422 0.929 . S
C435 C427 1.433 . S
C435 N437 1.384 . S
N436 C432 1.427 . S
N436 C433 1.384 . S
N437 C429 1.427 . S
N437 C435 1.384 . S
H438 C444 0.930 . S
H439 C448 0.930 . S
H440 C453 0.929 . S
H441 C451 0.929 . S
H442 C446 0.929 . S
H443 C452 0.929 . S
C444 H438 0.930 . S
C444 C445 1.367 . S
C444 C452 1.378 . S
C445 C444 1.367 . S
C445 C453 1.433 . S
C446 H442 0.929 . S
C446 C448 1.378 . S
C446 C450 1.350 . S
C447 C450 1.463 . S
C447 C452 1.350 . S
C447 N455 1.427 . S
C448 H439 0.930 . S
C448 C446 1.378 . S
C448 C449 1.367 . S
C449 C448 1.367 . S
C449 C451 1.433 . S
C450 C446 1.350 . S
C450 C447 1.463 . S
C450 N454 1.427 . S
C451 H441 0.929 . S
C451 C449 1.433 . S
C451 N454 1.384 . S
C452 H443 0.929 . S
C452 C444 1.378 . S
C452 C447 1.350 . S
C453 H440 0.929 . S
C453 C445 1.433 . S
C453 N455 1.384 . S
N454 C450 1.427 . S
N454 C451 1.384 . S
N455 C447 1.427 . S
N455 C453 1.384 . S
H456 C462 0.930 . S
H457 C466 0.930 . S
H458 C471 0.929 . S
H459 C469 0.929 . S
H460 C464 0.929 . S
H461 C470 0.929 . S
C462 H456 0.930 . S
C462 C463 1.367 . S
C462 C470 1.378 . S
C463 C462 1.367 . S
C463 C471 1.433 . S
C464 H460 0.929 . S
C464 C466 1.378 . S
C464 C468 1.350 . S
C465 C468 1.463 . S
C465 C470 1.350 . S
C465 N473 1.427 . S
C466 H457 0.930 . S
C466 C464 1.378 . S
C466 C467 1.367 1_455 S
C467 C466 1.367 1_655 S
C467 C469 1.433 . S
C468 C464 1.350 . S
C468 C465 1.463 . S
C468 N472 1.427 . S
C469 H459 0.929 . S
C469 C467 1.433 . S
C469 N472 1.384 1_655 S
C470 H461 0.929 . S
C470 C462 1.378 . S
C470 C465 1.350 . S
C471 H458 0.929 . S
C471 C463 1.433 . S
C471 N473 1.384 . S
N472 C468 1.427 . S
N472 C469 1.384 1_455 S
N473 C465 1.427 . S
N473 C471 1.384 . S
H474 C480 0.930 . S
H475 C484 0.930 . S
H476 C489 0.929 . S
H477 C487 0.929 . S
H478 C482 0.929 . S
H479 C488 0.929 . S
C480 H474 0.930 . S
C480 C481 1.367 . S
C480 C488 1.378 . S
C481 C480 1.367 . S
C481 C489 1.433 . S
C482 H478 0.929 . S
C482 C484 1.378 . S
C482 C486 1.350 1_545 S
C483 C486 1.463 . S
C483 C488 1.350 . S
C483 N491 1.427 . S
C484 H475 0.930 . S
C484 C482 1.378 . S
C484 C485 1.367 . S
C485 C484 1.367 . S
C485 C487 1.433 1_545 S
C486 C482 1.350 1_565 S
C486 C483 1.463 . S
C486 N490 1.427 . S
C487 H477 0.929 . S
C487 C485 1.433 1_565 S
C487 N490 1.384 . S
C488 H479 0.929 . S
C488 C480 1.378 . S
C488 C483 1.350 . S
C489 H476 0.929 . S
C489 C481 1.433 . S
C489 N491 1.384 . S
N490 C486 1.427 . S
N490 C487 1.384 . S
N491 C483 1.427 . S
N491 C489 1.384 . S
H492 C498 0.930 . S
H493 C502 0.930 . S
H494 C507 0.929 . S
H495 C505 0.929 . S
H496 C500 0.929 . S
H497 C506 0.929 . S
C498 H492 0.930 . S
C498 C499 1.367 . S
C498 C506 1.378 . S
C499 C498 1.367 . S
C499 C507 1.433 . S
C500 H496 0.929 . S
C500 C502 1.378 . S
C500 C504 1.350 . S
C501 C504 1.463 . S
C501 C506 1.350 . S
C501 N509 1.427 . S
C502 H493 0.930 . S
C502 C500 1.378 . S
C502 C503 1.367 . S
C503 C502 1.367 . S
C503 C505 1.433 . S
C504 C500 1.350 . S
C504 C501 1.463 . S
C504 N508 1.427 . S
C505 H495 0.929 . S
C505 C503 1.433 . S
C505 N508 1.384 . S
C506 H497 0.929 . S
C506 C498 1.378 . S
C506 C501 1.350 . S
C507 H494 0.929 . S
C507 C499 1.433 . S
C507 N509 1.384 . S
N508 C504 1.427 . S
N508 C505 1.384 . S
N509 C501 1.427 . S
N509 C507 1.384 . S
H510 C516 0.930 . S
H511 C520 0.930 . S
H512 C525 0.929 . S
H513 C523 0.929 . S
H514 C518 0.929 . S
H515 C524 0.929 . S
C516 H510 0.930 . S
C516 C517 1.367 . S
C516 C524 1.378 . S
C517 C516 1.367 . S
C517 C525 1.433 . S
C518 H514 0.929 . S
C518 C520 1.378 . S
C518 C522 1.350 . S
C519 C522 1.463 . S
C519 C524 1.350 . S
C519 N527 1.427 . S
C520 H511 0.930 . S
C520 C518 1.378 . S
C520 C521 1.367 1_545 S
C521 C520 1.367 1_565 S
C521 C523 1.433 . S
C522 C518 1.350 . S
C522 C519 1.463 . S
C522 N526 1.427 . S
C523 H513 0.929 . S
C523 C521 1.433 . S
C523 N526 1.384 1_565 S
C524 H515 0.929 . S
C524 C516 1.378 . S
C524 C519 1.350 . S
C525 H512 0.929 . S
C525 C517 1.433 . S
C525 N527 1.384 . S
N526 C522 1.427 . S
N526 C523 1.384 1_545 S
N527 C519 1.427 . S
N527 C525 1.384 . S
H528 C534 0.930 . S
H529 C538 0.930 . S
H530 C543 0.929 . S
H531 C541 0.929 . S
H532 C536 0.929 . S
H533 C542 0.929 . S
C534 H528 0.930 . S
C534 C535 1.367 . S
C534 C542 1.378 . S
C535 C534 1.367 . S
C535 C543 1.433 . S
C536 H532 0.929 . S
C536 C538 1.378 . S
C536 C540 1.350 . S
C537 C540 1.463 . S
C537 C542 1.350 . S
C537 N545 1.427 . S
C538 H529 0.930 . S
C538 C536 1.378 . S
C538 C539 1.367 . S
C539 C538 1.367 . S
C539 C541 1.433 . S
C540 C536 1.350 . S
C540 C537 1.463 . S
C540 N544 1.427 . S
C541 H531 0.929 . S
C541 C539 1.433 . S
C541 N544 1.384 . S
C542 H533 0.929 . S
C542 C534 1.378 . S
C542 C537 1.350 . S
C543 H530 0.929 . S
C543 C535 1.433 . S
C543 N545 1.384 . S
N544 C540 1.427 . S
N544 C541 1.384 . S
N545 C537 1.427 . S
N545 C543 1.384 . S
H546 C552 0.930 . S
H547 C556 0.930 . S
H548 C561 0.929 . S
H549 C559 0.929 . S
H550 C554 0.929 . S
H551 C560 0.929 . S
C552 H546 0.930 . S
C552 C553 1.367 1_655 S
C552 C560 1.378 . S
C553 C552 1.367 1_455 S
C553 C561 1.433 . S
C554 H550 0.929 . S
C554 C556 1.378 . S
C554 C558 1.350 . S
C555 C558 1.463 . S
C555 C560 1.350 . S
C555 N563 1.427 1_655 S
C556 H547 0.930 . S
C556 C554 1.378 . S
C556 C557 1.367 . S
C557 C556 1.367 . S
C557 C559 1.433 . S
C558 C554 1.350 . S
C558 C555 1.463 . S
C558 N562 1.427 . S
C559 H549 0.929 . S
C559 C557 1.433 . S
C559 N562 1.384 . S
C560 H551 0.929 . S
C560 C552 1.378 . S
C560 C555 1.350 . S
C561 H548 0.929 . S
C561 C553 1.433 . S
C561 N563 1.384 . S
N562 C558 1.427 . S
N562 C559 1.384 . S
N563 C555 1.427 1_455 S
N563 C561 1.384 . S
C247 C178 2.310 . S
C251 C18 2.519 . S
C265 C209 2.519 . S
C269 C49 2.310 . S
C283 C98 2.526 . S
C287 C138 2.323 . S
C301 C9 2.323 . S
C305 C169 2.526 . S
C319 C218 2.308 . S
C323 C58 2.517 . S
C337 C89 2.321 . S
C341 C129 2.523 . S
C355 C6 1.903 . S
C359 C90 1.834 . S
C373 C46 1.899 . S
C377 C10 1.824 . S
C391 C86 1.902 . S
C395 C50 1.835 . S
C409 C135 1.902 . S
C413 C179 1.829 . S
C427 C175 1.896 . S
C431 C219 1.828 . S
C445 C139 1.834 . S
C449 C215 1.900 . S
C463 C15 1.195 . S
C467 C99 1.223 . S
C481 C55 1.181 1_455 S
C485 C19 1.223 . S
C499 C95 1.185 1_565 S
C503 C59 1.218 . S
C517 C126 1.194 . S
C521 C170 1.223 . S
C535 C166 1.185 1_655 S
C539 C210 1.218 . S
C553 C130 1.233 . S
C557 C206 1.196 1_545 S
