# Generated by pormake.
# Topology gan, (5)-cn, num edge types: 1
# Building blocks:
#     Node 0, Type 0, BuildingBlock: BEQFEK_clean_sbu_0, # of connection points: 5
#     Node 1, Type 0, BuildingBlock: BEQFEK_clean_sbu_0, # of connection points: 5
#     Node 2, Type 0, BuildingBlock: BEQFEK_clean_sbu_0, # of connection points: 5
#     Node 3, Type 0, BuildingBlock: BEQFEK_clean_sbu_0, # of connection points: 5
#     Node 4, Type 0, BuildingBlock: BEQFEK_clean_sbu_0, # of connection points: 5
#     Node 5, Type 0, BuildingBlock: BEQFEK_clean_sbu_0, # of connection points: 5
#     Node 6, Type 0, BuildingBlock: BEQFEK_clean_sbu_0, # of connection points: 5
#     Node 7, Type 0, BuildingBlock: BEQFEK_clean_sbu_0, # of connection points: 5
#     Node 8, Type 0, BuildingBlock: BEQFEK_clean_sbu_0, # of connection points: 5
#     Node 9, Type 0, BuildingBlock: BEQFEK_clean_sbu_0, # of connection points: 5
#     Node 10, Type 0, BuildingBlock: BEQFEK_clean_sbu_0, # of connection points: 5
#     Node 11, Type 0, BuildingBlock: BEQFEK_clean_sbu_0, # of connection points: 5
#     Node 12, Type 0, BuildingBlock: BEQFEK_clean_sbu_0, # of connection points: 5
#     Node 13, Type 0, BuildingBlock: BEQFEK_clean_sbu_0, # of connection points: 5
#     Node 14, Type 0, BuildingBlock: BEQFEK_clean_sbu_0, # of connection points: 5
#     Node 15, Type 0, BuildingBlock: BEQFEK_clean_sbu_0, # of connection points: 5
#     Edge 16, Type (0, 0), BuildingBlock: MIFKUJ_clean_linker_0, # of connection points: 2
#     Edge 17, Type (0, 0), BuildingBlock: MIFKUJ_clean_linker_0, # of connection points: 2
#     Edge 18, Type (0, 0), BuildingBlock: MIFKUJ_clean_linker_0, # of connection points: 2
#     Edge 19, Type (0, 0), BuildingBlock: MIFKUJ_clean_linker_0, # of connection points: 2
#     Edge 20, Type (0, 0), BuildingBlock: MIFKUJ_clean_linker_0, # of connection points: 2
#     Edge 21, Type (0, 0), BuildingBlock: MIFKUJ_clean_linker_0, # of connection points: 2
#     Edge 22, Type (0, 0), BuildingBlock: MIFKUJ_clean_linker_0, # of connection points: 2
#     Edge 23, Type (0, 0), BuildingBlock: MIFKUJ_clean_linker_0, # of connection points: 2
#     Edge 24, Type (0, 0), BuildingBlock: MIFKUJ_clean_linker_0, # of connection points: 2
#     Edge 25, Type (0, 0), BuildingBlock: MIFKUJ_clean_linker_0, # of connection points: 2
#     Edge 26, Type (0, 0), BuildingBlock: MIFKUJ_clean_linker_0, # of connection points: 2
#     Edge 27, Type (0, 0), BuildingBlock: MIFKUJ_clean_linker_0, # of connection points: 2
#     Edge 28, Type (0, 0), BuildingBlock: MIFKUJ_clean_linker_0, # of connection points: 2
#     Edge 29, Type (0, 0), BuildingBlock: MIFKUJ_clean_linker_0, # of connection points: 2
#     Edge 30, Type (0, 0), BuildingBlock: MIFKUJ_clean_linker_0, # of connection points: 2
#     Edge 31, Type (0, 0), BuildingBlock: MIFKUJ_clean_linker_0, # of connection points: 2
#     Edge 32, Type (0, 0), BuildingBlock: MIFKUJ_clean_linker_0, # of connection points: 2
#     Edge 33, Type (0, 0), BuildingBlock: MIFKUJ_clean_linker_0, # of connection points: 2
#     Edge 34, Type (0, 0), BuildingBlock: MIFKUJ_clean_linker_0, # of connection points: 2
#     Edge 35, Type (0, 0), BuildingBlock: MIFKUJ_clean_linker_0, # of connection points: 2
#     Edge 36, Type (0, 0), BuildingBlock: MIFKUJ_clean_linker_0, # of connection points: 2
#     Edge 37, Type (0, 0), BuildingBlock: MIFKUJ_clean_linker_0, # of connection points: 2
#     Edge 38, Type (0, 0), BuildingBlock: MIFKUJ_clean_linker_0, # of connection points: 2
#     Edge 39, Type (0, 0), BuildingBlock: MIFKUJ_clean_linker_0, # of connection points: 2
#     Edge 40, Type (0, 0), BuildingBlock: MIFKUJ_clean_linker_0, # of connection points: 2
#     Edge 41, Type (0, 0), BuildingBlock: MIFKUJ_clean_linker_0, # of connection points: 2
#     Edge 42, Type (0, 0), BuildingBlock: MIFKUJ_clean_linker_0, # of connection points: 2
#     Edge 43, Type (0, 0), BuildingBlock: MIFKUJ_clean_linker_0, # of connection points: 2
#     Edge 44, Type (0, 0), BuildingBlock: MIFKUJ_clean_linker_0, # of connection points: 2
#     Edge 45, Type (0, 0), BuildingBlock: MIFKUJ_clean_linker_0, # of connection points: 2
#     Edge 46, Type (0, 0), BuildingBlock: MIFKUJ_clean_linker_0, # of connection points: 2
#     Edge 47, Type (0, 0), BuildingBlock: MIFKUJ_clean_linker_0, # of connection points: 2
#     Edge 48, Type (0, 0), BuildingBlock: MIFKUJ_clean_linker_0, # of connection points: 2
#     Edge 49, Type (0, 0), BuildingBlock: MIFKUJ_clean_linker_0, # of connection points: 2
#     Edge 50, Type (0, 0), BuildingBlock: MIFKUJ_clean_linker_0, # of connection points: 2
#     Edge 51, Type (0, 0), BuildingBlock: MIFKUJ_clean_linker_0, # of connection points: 2
#     Edge 52, Type (0, 0), BuildingBlock: MIFKUJ_clean_linker_0, # of connection points: 2
#     Edge 53, Type (0, 0), BuildingBlock: MIFKUJ_clean_linker_0, # of connection points: 2
#     Edge 54, Type (0, 0), BuildingBlock: MIFKUJ_clean_linker_0, # of connection points: 2
#     Edge 55, Type (0, 0), BuildingBlock: MIFKUJ_clean_linker_0, # of connection points: 2
# Relax obj value: 0.128
# Max RMSD: 0.208
# Mean RMSD: 0.186
data_MOF--net-gan--node1-BEQFEK_clean_sbu_0--edge1-MIFKUJ_clean_linker_0
_symmetry_space_group_name_H-M    P1
_symmetry_Int_Tables_number       1
_symmetry_cell_setting            triclinic
loop_
_symmetry_equiv_pos_as_xyz
'x, y, z'
_cell_length_a     55.891348
_cell_length_b     56.530575
_cell_length_c     55.481358
_cell_angle_alpha  92.029475
_cell_angle_beta   90.985615
_cell_angle_gamma 94.003019
loop_
_atom_site_label
_atom_site_type_symbol
_atom_site_fract_x
_atom_site_fract_y
_atom_site_fract_z
_atom_type_partial_charge
Co0 Co 0.1025 0.13708 0.12402 0.0
Co1 Co 0.14638 0.16452 0.15026 0.0
C2 C 0.12684 0.12012 0.16938 0.0
O3 O 0.11208 0.1182 0.15153 0.0
O4 O 0.14161 0.13824 0.17265 0.0
C5 C 0.0586 0.10772 0.12042 0.0
O6 O 0.06432 0.10166 0.14231 0.0
C7 C 0.18338 0.19259 0.18036 0.0
C8 C 0.19907 0.21545 0.15227 0.0
C9 C 0.20095 0.21063 0.17648 0.0
N10 N 0.17177 0.1871 0.15928 0.0
N11 N 0.18131 0.20075 0.14262 0.0
C12 C 0.17664 0.18172 0.20369 0.0
H13 H 0.15742 0.17525 0.20315 0.0
H14 H 0.18015 0.19473 0.21902 0.0
H15 H 0.18751 0.16632 0.20651 0.0
C16 C 0.08163 0.183 0.13247 0.0
N17 N 0.09979 0.16874 0.13417 0.0
N18 N 0.11788 0.18011 0.14608 0.0
C19 C 0.11166 0.20194 0.15277 0.0
C20 C 0.08858 0.20447 0.14422 0.0
C21 C 0.05782 0.17563 0.12078 0.0
H22 H 0.06053 0.16943 0.10189 0.0
H23 H 0.04931 0.16049 0.13046 0.0
H24 H 0.04563 0.1903 0.12103 0.0
O25 O 0.12619 0.13464 0.09862 0.0
O26 O 0.15733 0.15153 0.11934 0.0
H27 H 0.14248 0.2265 0.15473 0.0
H28 H 0.11797 0.23559 0.17266 0.0
C29 C 0.12774 0.22014 0.16652 0.0
H30 H 0.1358 0.21197 0.18233 0.0
H31 H 0.17555 0.20009 0.1246 0.0
O32 O 0.07198 0.1231 0.10997 0.0
C33 C 0.14841 0.14086 0.1004 0.0
Co34 Co 0.09969 0.88117 0.37744 0.0
Co35 Co 0.1356 0.85409 0.34222 0.0
C36 C 0.15121 0.87172 0.39128 0.0
O37 O 0.13052 0.87917 0.39521 0.0
O38 O 0.15627 0.86157 0.37123 0.0
C39 C 0.08497 0.92019 0.4098 0.0
O40 O 0.1079 0.92715 0.41 0.0
C41 C 0.17071 0.82508 0.31446 0.0
C42 C 0.15205 0.82203 0.27902 0.0
C43 C 0.17172 0.81444 0.29132 0.0
N44 N 0.15142 0.83833 0.31546 0.0
N45 N 0.14051 0.83629 0.29409 0.0
C46 C 0.18612 0.82064 0.33589 0.0
H47 H 0.17627 0.82355 0.35281 0.0
H48 H 0.20228 0.83322 0.33613 0.0
H49 H 0.19202 0.80229 0.33493 0.0
C50 C 0.10174 0.91387 0.33736 0.0
N51 N 0.10707 0.89326 0.34681 0.0
N52 N 0.12256 0.883 0.33284 0.0
C53 C 0.12799 0.89729 0.31445 0.0
C54 C 0.11487 0.91714 0.31669 0.0
C55 C 0.08501 0.93052 0.3484 0.0
H56 H 0.06953 0.92035 0.35623 0.0
H57 H 0.09465 0.9414 0.36302 0.0
H58 H 0.07838 0.94258 0.33481 0.0
O59 O 0.08349 0.84925 0.37318 0.0
O60 O 0.10946 0.83074 0.35067 0.0
H61 H 0.14038 0.88449 0.28054 0.0
H62 H 0.15641 0.91123 0.29202 0.0
C63 C 0.14786 0.89387 0.29718 0.0
H64 H 0.16163 0.88324 0.3053 0.0
H65 H 0.12447 0.84383 0.29007 0.0
O66 O 0.07777 0.90166 0.39714 0.0
C67 C 0.09003 0.83067 0.36228 0.0
Co68 Co 0.38433 0.91918 0.58872 0.0
Co69 Co 0.35552 0.87874 0.61684 0.0
C70 C 0.37252 0.9241 0.64159 0.0
O71 O 0.38115 0.93225 0.62219 0.0
O72 O 0.36228 0.90333 0.64229 0.0
C73 C 0.4172 0.96006 0.57917 0.0
O74 O 0.41219 0.96756 0.60107 0.0
C75 C 0.33217 0.84607 0.65183 0.0
C76 C 0.31856 0.8165 0.62706 0.0
C77 C 0.31887 0.82429 0.65102 0.0
N78 N 0.33946 0.85074 0.62933 0.0
N79 N 0.33131 0.83292 0.61471 0.0
C80 C 0.33576 0.86332 0.67287 0.0
H81 H 0.32966 0.88076 0.66781 0.0
H82 H 0.35518 0.86584 0.67751 0.0
H83 H 0.32574 0.85728 0.68885 0.0
C84 C 0.41485 0.87952 0.57879 0.0
N85 N 0.39571 0.88845 0.58922 0.0
N86 N 0.38451 0.87194 0.60186 0.0
C87 C 0.39665 0.85223 0.60057 0.0
C88 C 0.41612 0.85626 0.58565 0.0
C89 C 0.43067 0.89275 0.56156 0.0
H90 H 0.41952 0.90239 0.54901 0.0
H91 H 0.4428 0.90601 0.57183 0.0
H92 H 0.44155 0.88065 0.55088 0.0
O93 O 0.35314 0.91731 0.57165 0.0
O94 O 0.33315 0.88961 0.59222 0.0
H95 H 0.37778 0.81847 0.60476 0.0
H96 H 0.4072 0.82131 0.61879 0.0
C97 C 0.39087 0.83077 0.61503 0.0
H98 H 0.38286 0.83596 0.63241 0.0
H99 H 0.3339 0.8323 0.59613 0.0
O100 O 0.40723 0.94049 0.57081 0.0
C101 C 0.33413 0.90436 0.57538 0.0
Co102 Co 0.35718 0.13688 0.85593 0.0
Co103 Co 0.3884 0.1055 0.89287 0.0
C104 C 0.37102 0.08681 0.84394 0.0
O105 O 0.36108 0.10585 0.83913 0.0
O106 O 0.38205 0.08421 0.86397 0.0
C107 C 0.31563 0.15096 0.82486 0.0
O108 O 0.30805 0.12845 0.82517 0.0
C109 C 0.41627 0.07028 0.92206 0.0
C110 C 0.42463 0.09275 0.95479 0.0
C111 C 0.42858 0.07072 0.94444 0.0
N112 N 0.40565 0.09102 0.91967 0.0
N113 N 0.41086 0.10415 0.9395 0.0
C114 C 0.41641 0.05141 0.90251 0.0
H115 H 0.41386 0.05908 0.88462 0.0
H116 H 0.4014 0.03793 0.90528 0.0
H117 H 0.43348 0.04251 0.90297 0.0
C118 C 0.3261 0.13594 0.89829 0.0
N119 N 0.34661 0.1306 0.88772 0.0
N120 N 0.35849 0.11715 0.90214 0.0
C121 C 0.34548 0.11312 0.92195 0.0
C122 C 0.32467 0.12497 0.92019 0.0
C123 C 0.30835 0.15142 0.88762 0.0
H124 H 0.31789 0.16635 0.87851 0.0
H125 H 0.29695 0.14083 0.87403 0.0
H126 H 0.29666 0.15862 0.90166 0.0
O127 O 0.38921 0.1537 0.85797 0.0
O128 O 0.40983 0.13282 0.8835 0.0
H129 H 0.36318 0.10564 0.95495 0.0
H130 H 0.33509 0.08859 0.94956 0.0
C131 C 0.35151 0.09612 0.94086 0.0
H132 H 0.3612 0.08143 0.93278 0.0
H133 H 0.40553 0.12133 0.94235 0.0
O134 O 0.33505 0.1578 0.83644 0.0
C135 C 0.40835 0.1502 0.8697 0.0
Co136 Co 0.60671 0.38499 0.87981 0.0
Co137 Co 0.63938 0.35782 0.84114 0.0
C138 C 0.65714 0.37168 0.8913 0.0
O139 O 0.63772 0.38116 0.89665 0.0
O140 O 0.66017 0.36176 0.87062 0.0
C141 C 0.59158 0.41776 0.919 0.0
O142 O 0.61407 0.41804 0.92636 0.0
C143 C 0.67424 0.32916 0.81336 0.0
C144 C 0.65878 0.32946 0.77654 0.0
C145 C 0.67709 0.32046 0.78974 0.0
N146 N 0.65527 0.34281 0.81389 0.0
N147 N 0.64607 0.34256 0.79176 0.0
C148 C 0.68917 0.32461 0.83509 0.0
H149 H 0.6947 0.34173 0.84467 0.0
H150 H 0.70537 0.31538 0.83016 0.0
H151 H 0.6782 0.3137 0.84762 0.0
C152 C 0.60774 0.41909 0.84129 0.0
N153 N 0.61347 0.39808 0.84946 0.0
N154 N 0.62809 0.38822 0.83419 0.0
C155 C 0.63274 0.40334 0.81627 0.0
C156 C 0.61964 0.42306 0.82002 0.0
C157 C 0.59311 0.43601 0.85499 0.0
H158 H 0.60243 0.44135 0.87236 0.0
H159 H 0.59031 0.45218 0.84485 0.0
H160 H 0.57546 0.427 0.85912 0.0
O161 O 0.58977 0.3535 0.87504 0.0
O162 O 0.61167 0.33554 0.84775 0.0
H163 H 0.65919 0.41695 0.79145 0.0
H164 H 0.66429 0.3881 0.8027 0.0
C165 C 0.65038 0.39977 0.79672 0.0
H166 H 0.64077 0.39159 0.78052 0.0
H167 H 0.63053 0.35072 0.78712 0.0
O168 O 0.58502 0.4054 0.90001 0.0
C169 C 0.59368 0.33561 0.86148 0.0
Co170 Co 0.84021 0.37537 0.13695 0.0
Co171 Co 0.86774 0.41932 0.11298 0.0
C172 C 0.82786 0.39 0.08709 0.0
O173 O 0.82467 0.37641 0.10477 0.0
O174 O 0.84377 0.40732 0.08792 0.0
C175 C 0.80478 0.34501 0.15727 0.0
O176 O 0.79155 0.36108 0.1484 0.0
C177 C 0.89987 0.44678 0.07965 0.0
C178 C 0.91129 0.47773 0.10355 0.0
C179 C 0.91448 0.46789 0.08069 0.0
N180 N 0.88898 0.44433 0.10104 0.0
N181 N 0.89583 0.46301 0.11509 0.0
C182 C 0.8955 0.42967 0.05858 0.0
H183 H 0.87816 0.41918 0.06024 0.0
H184 H 0.90991 0.41715 0.05803 0.0
H185 H 0.89556 0.43925 0.04146 0.0
C186 C 0.88939 0.36053 0.14106 0.0
N187 N 0.8737 0.37589 0.13383 0.0
N188 N 0.88542 0.39416 0.12419 0.0
C189 C 0.90909 0.39099 0.1252 0.0
C190 C 0.91231 0.36965 0.13594 0.0
C191 C 0.8823 0.33726 0.15192 0.0
H192 H 0.86715 0.32813 0.14131 0.0
H193 H 0.89741 0.32556 0.15242 0.0
H194 H 0.87608 0.34055 0.17055 0.0
O195 O 0.83262 0.40256 0.15774 0.0
O196 O 0.85104 0.4335 0.14051 0.0
H197 H 0.94641 0.40401 0.12349 0.0
H198 H 0.92791 0.40949 0.0976 0.0
C199 C 0.92836 0.40871 0.11753 0.0
H200 H 0.92512 0.42651 0.12527 0.0
H201 H 0.89017 0.46558 0.13275 0.0
O202 O 0.82726 0.34681 0.15385 0.0
C203 C 0.83802 0.42473 0.15703 0.0
Co204 Co 0.85301 0.64284 0.36588 0.0
Co205 Co 0.88445 0.60754 0.39828 0.0
C206 C 0.85598 0.58969 0.35472 0.0
O207 O 0.84916 0.6104 0.35103 0.0
O208 O 0.86979 0.58554 0.3725 0.0
C209 C 0.80947 0.66312 0.34217 0.0
O210 O 0.79675 0.64467 0.35008 0.0
C211 C 0.91104 0.57027 0.42629 0.0
C212 C 0.92468 0.59319 0.45718 0.0
C213 C 0.92465 0.57015 0.44784 0.0
N214 N 0.90338 0.59233 0.4234 0.0
N215 N 0.91203 0.60579 0.44196 0.0
C216 C 0.90508 0.5497 0.40908 0.0
H217 H 0.88757 0.55162 0.3999 0.0
H218 H 0.90459 0.53274 0.41862 0.0
H219 H 0.91909 0.54935 0.39518 0.0
C220 C 0.8313 0.64981 0.41374 0.0
N221 N 0.8476 0.64016 0.39951 0.0
N222 N 0.85921 0.62486 0.41205 0.0
C223 C 0.84973 0.6237 0.43417 0.0
C224 C 0.8322 0.6397 0.436 0.0
C225 C 0.81412 0.6672 0.40576 0.0
H226 H 0.82256 0.67895 0.39225 0.0
H227 H 0.79801 0.65738 0.39744 0.0
H228 H 0.8083 0.67805 0.42138 0.0
O229 O 0.88646 0.65476 0.36215 0.0
O230 O 0.90773 0.63038 0.38313 0.0
H231 H 0.8704 0.61411 0.4646 0.0
H232 H 0.84011 0.60159 0.46403 0.0
C233 C 0.85572 0.60615 0.45258 0.0
H234 H 0.86148 0.58971 0.44365 0.0
H235 H 0.90931 0.62379 0.44424 0.0
O236 O 0.83197 0.66549 0.34727 0.0
C237 C 0.90647 0.6481 0.3697 0.0
Co238 Co 0.87197 0.87246 0.86286 0.0
Co239 Co 0.89468 0.90375 0.90582 0.0
C240 C 0.89147 0.92314 0.85733 0.0
O241 O 0.88133 0.90344 0.84941 0.0
O242 O 0.89811 0.92634 0.87936 0.0
C243 C 0.86116 0.85425 0.81456 0.0
O244 O 0.87137 0.87444 0.80767 0.0
C245 C 0.92433 0.93555 0.93928 0.0
C246 C 0.91428 0.9202 0.97412 0.0
C247 C 0.92812 0.93845 0.96405 0.0
N248 N 0.90879 0.91659 0.93506 0.0
N249 N 0.90291 0.90748 0.95593 0.0
C250 C 0.93617 0.94945 0.91977 0.0
H251 H 0.93841 0.93775 0.90361 0.0
H252 H 0.95396 0.9576 0.92595 0.0
H253 H 0.9246 0.96369 0.9146 0.0
C254 C 0.90996 0.84196 0.87645 0.0
N255 N 0.89784 0.86143 0.87988 0.0
N256 N 0.9082 0.87488 0.89743 0.0
C257 C 0.9276 0.86449 0.90559 0.0
C258 C 0.92933 0.84333 0.89248 0.0
C259 C 0.90267 0.82233 0.85842 0.0
H260 H 0.88302 0.81813 0.85904 0.0
H261 H 0.90703 0.82826 0.84005 0.0
H262 H 0.91192 0.80602 0.86196 0.0
O263 O 0.84417 0.8752 0.88346 0.0
O264 O 0.86038 0.89825 0.91329 0.0
H265 H 0.93701 0.87406 0.94227 0.0
H266 H 0.96216 0.8667 0.92413 0.0
C267 C 0.94504 0.87552 0.92419 0.0
H268 H 0.94875 0.89461 0.92074 0.0
H269 H 0.89094 0.89265 0.95772 0.0
O270 O 0.86083 0.84982 0.83681 0.0
C271 C 0.84234 0.88668 0.90332 0.0
Co272 Co 0.85156 0.13339 0.62803 0.0
Co273 Co 0.89073 0.10422 0.59844 0.0
C274 C 0.8391 0.10499 0.58221 0.0
O275 O 0.83317 0.1177 0.60035 0.0
O276 O 0.86049 0.09895 0.57945 0.0
C277 C 0.81055 0.14695 0.66004 0.0
O278 O 0.80074 0.12525 0.65682 0.0
C279 C 0.91805 0.06893 0.56802 0.0
C280 C 0.95489 0.0807 0.58009 0.0
C281 C 0.94219 0.06479 0.56424 0.0
N282 N 0.91684 0.08637 0.58532 0.0
N283 N 0.93907 0.09311 0.59233 0.0
C284 C 0.89677 0.0578 0.55411 0.0
H285 H 0.88164 0.06937 0.55485 0.0
H286 H 0.89102 0.04068 0.56216 0.0
H287 H 0.9014 0.05424 0.53501 0.0
C288 C 0.86938 0.10405 0.66681 0.0
N289 N 0.86955 0.11079 0.64379 0.0
N290 N 0.88467 0.09824 0.63153 0.0
C291 C 0.894 0.08273 0.64631 0.0
C292 C 0.88479 0.08607 0.66911 0.0
C293 C 0.85367 0.11373 0.68579 0.0
H294 H 0.83491 0.10671 0.68208 0.0
H295 H 0.85899 0.10856 0.7041 0.0
H296 H 0.85444 0.13335 0.6852 0.0
O297 O 0.8742 0.15749 0.61524 0.0
O298 O 0.90196 0.13798 0.5963 0.0
H299 H 0.92928 0.07497 0.63606 0.0
H300 H 0.914 0.05189 0.65253 0.0
C301 C 0.91165 0.0653 0.63875 0.0
H302 H 0.90566 0.05629 0.62138 0.0
H303 H 0.94351 0.10671 0.60518 0.0
O304 O 0.83051 0.15258 0.65015 0.0
C305 C 0.89342 0.15728 0.60335 0.0
Co306 Co 0.60928 0.10328 0.38796 0.0
Co307 Co 0.64124 0.13676 0.3546 0.0
C308 C 0.66151 0.1196 0.39922 0.0
O309 O 0.64147 0.1084 0.40339 0.0
O310 O 0.66477 0.13188 0.38054 0.0
C311 C 0.58696 0.0912 0.43302 0.0
O312 O 0.6014 0.1087 0.44218 0.0
C313 C 0.67267 0.17239 0.32824 0.0
C314 C 0.64902 0.17619 0.29647 0.0
C315 C 0.67106 0.18413 0.30662 0.0
N316 N 0.65244 0.15824 0.33053 0.0
N317 N 0.63853 0.16062 0.3114 0.0
C318 C 0.69228 0.17546 0.34698 0.0
H319 H 0.6849 0.17251 0.36514 0.0
H320 H 0.70153 0.19346 0.3466 0.0
H321 H 0.70556 0.16213 0.34334 0.0
C322 C 0.58002 0.14467 0.38854 0.0
N323 N 0.59866 0.13303 0.38052 0.0
N324 N 0.61283 0.14751 0.36818 0.0
C325 C 0.60404 0.16909 0.36864 0.0
C326 C 0.58294 0.16795 0.38149 0.0
C327 C 0.55966 0.13361 0.40238 0.0
H328 H 0.55608 0.11471 0.39658 0.0
H329 H 0.56444 0.13464 0.42189 0.0
H330 H 0.54314 0.14308 0.39964 0.0
O331 O 0.6112 0.08292 0.35882 0.0
O332 O 0.63482 0.1062 0.33664 0.0
H333 H 0.61294 0.19217 0.33998 0.0
H334 H 0.61164 0.20717 0.36908 0.0
C335 C 0.61709 0.1909 0.35949 0.0
H336 H 0.63672 0.18989 0.36194 0.0
H337 H 0.62171 0.15161 0.30862 0.0
O338 O 0.58736 0.0862 0.41051 0.0
C339 C 0.62287 0.08661 0.33971 0.0
Co340 Co 0.59953 0.8841 0.11083 0.0
Co341 Co 0.63677 0.85209 0.14057 0.0
C342 C 0.62169 0.89884 0.15989 0.0
O343 O 0.60838 0.90182 0.14143 0.0
O344 O 0.63371 0.88055 0.16194 0.0
C345 C 0.57949 0.92633 0.08786 0.0
O346 O 0.59414 0.93887 0.10293 0.0
C347 C 0.66991 0.82795 0.17558 0.0
C348 C 0.67982 0.79783 0.15246 0.0
C349 C 0.68318 0.80774 0.17556 0.0
N350 N 0.65953 0.82984 0.15346 0.0
N351 N 0.66545 0.81143 0.14002 0.0
C352 C 0.66722 0.84521 0.19621 0.0
H353 H 0.64899 0.84224 0.20362 0.0
H354 H 0.66905 0.86356 0.18971 0.0
H355 H 0.68078 0.84315 0.2107 0.0
C356 C 0.6363 0.87865 0.07454 0.0
N357 N 0.62813 0.87438 0.0967 0.0
N358 N 0.64404 0.86283 0.10878 0.0
C359 C 0.66324 0.86041 0.09471 0.0
C360 C 0.65866 0.86991 0.07256 0.0
C361 C 0.62334 0.892 0.05615 0.0
H362 H 0.60489 0.8837 0.05329 0.0
H363 H 0.62194 0.91049 0.06307 0.0
H364 H 0.63274 0.89241 0.0387 0.0
O365 O 0.57986 0.85554 0.11881 0.0
O366 O 0.60526 0.83387 0.13837 0.0
H367 H 0.6847 0.83071 0.09655 0.0
H368 H 0.7016 0.85847 0.09364 0.0
C369 C 0.68579 0.84973 0.10235 0.0
H370 H 0.68833 0.85147 0.1222 0.0
H371 H 0.65919 0.80778 0.12236 0.0
O372 O 0.57922 0.90366 0.08808 0.0
C373 C 0.58448 0.83688 0.12969 0.0
Co374 Co 0.35551 0.62895 0.13688 0.0
Co375 Co 0.39034 0.59395 0.10835 0.0
C376 C 0.34304 0.60613 0.08776 0.0
O377 O 0.33848 0.61896 0.1063 0.0
O378 O 0.36241 0.5955 0.08601 0.0
C379 C 0.31226 0.64982 0.15728 0.0
O380 O 0.30022 0.63675 0.14049 0.0
C381 C 0.41788 0.56173 0.07496 0.0
C382 C 0.4491 0.55692 0.09865 0.0
C383 C 0.43991 0.55118 0.07566 0.0
N384 N 0.41441 0.57273 0.09664 0.0
N385 N 0.43336 0.56977 0.11048 0.0
C386 C 0.40187 0.56372 0.05337 0.0
H387 H 0.39173 0.57982 0.05519 0.0
H388 H 0.38888 0.54795 0.05191 0.0
H389 H 0.41246 0.56451 0.03665 0.0
C390 C 0.36199 0.59433 0.17404 0.0
N391 N 0.36602 0.60177 0.15165 0.0
N392 N 0.37904 0.58662 0.13994 0.0
C393 C 0.38295 0.56863 0.15453 0.0
C394 C 0.37252 0.57309 0.17661 0.0
C395 C 0.34985 0.60843 0.193 0.0
H396 H 0.35642 0.62737 0.19245 0.0
H397 H 0.33024 0.60715 0.18915 0.0
H398 H 0.35324 0.60209 0.21134 0.0
O399 O 0.38354 0.64973 0.12924 0.0
O400 O 0.40762 0.62566 0.11046 0.0
H401 H 0.4143 0.54915 0.15216 0.0
H402 H 0.38714 0.5312 0.15665 0.0
C403 C 0.39498 0.54677 0.14712 0.0
H404 H 0.39302 0.54327 0.12738 0.0
H405 H 0.436 0.57735 0.12783 0.0
O406 O 0.33495 0.64866 0.15893 0.0
C407 C 0.4031 0.64609 0.11882 0.0
Co408 Co 0.11783 0.59507 0.8884 0.0
Co409 Co 0.14673 0.6295 0.85342 0.0
C410 C 0.16748 0.61804 0.90046 0.0
O411 O 0.14865 0.60508 0.90522 0.0
O412 O 0.16967 0.62877 0.8807 0.0
C413 C 0.09302 0.58414 0.9325 0.0
O414 O 0.1042 0.60406 0.94082 0.0
C415 C 0.17498 0.66815 0.82826 0.0
C416 C 0.15748 0.66371 0.79222 0.0
C417 C 0.17552 0.67701 0.80506 0.0
N418 N 0.15749 0.65047 0.82877 0.0
N419 N 0.14719 0.64802 0.80715 0.0
C420 C 0.18964 0.67701 0.84995 0.0
H421 H 0.17978 0.67301 0.86667 0.0
H422 H 0.19405 0.69642 0.8493 0.0
H423 H 0.20658 0.66789 0.85037 0.0
C424 C 0.08275 0.63166 0.88309 0.0
N425 N 0.1036 0.62233 0.87765 0.0
N426 N 0.11636 0.63731 0.8645 0.0
C427 C 0.10439 0.6569 0.86178 0.0
C428 C 0.08266 0.65389 0.87336 0.0
C429 C 0.06312 0.6195 0.89706 0.0
H430 H 0.06224 0.60009 0.89311 0.0
H431 H 0.06677 0.62294 0.91662 0.0
H432 H 0.04553 0.62635 0.8925 0.0
O433 O 0.12391 0.57338 0.86098 0.0
O434 O 0.14394 0.59803 0.83705 0.0
H435 H 0.113 0.67701 0.83081 0.0
H436 H 0.10571 0.69489 0.8569 0.0
C437 C 0.11484 0.67902 0.85073 0.0
H438 H 0.13417 0.68182 0.85558 0.0
H439 H 0.13309 0.63548 0.80257 0.0
O440 O 0.09642 0.57712 0.91087 0.0
C441 C 0.13484 0.57745 0.84148 0.0
Co442 Co 0.09405 0.38112 0.61267 0.0
Co443 Co 0.12452 0.34325 0.64294 0.0
C444 C 0.12381 0.3951 0.65745 0.0
O445 O 0.11042 0.4001 0.63966 0.0
O446 O 0.13012 0.37414 0.66072 0.0
C447 C 0.0797 0.42311 0.58405 0.0
O448 O 0.09931 0.43447 0.59312 0.0
C449 C 0.16095 0.31679 0.67311 0.0
C450 C 0.14864 0.28014 0.66187 0.0
C451 C 0.16516 0.29291 0.67708 0.0
N452 N 0.14294 0.31766 0.65638 0.0
N453 N 0.1359 0.29551 0.64994 0.0
C454 C 0.17262 0.3382 0.68627 0.0
H455 H 0.16144 0.35353 0.68488 0.0
H456 H 0.19024 0.34285 0.67812 0.0
H457 H 0.1757 0.33447 0.70554 0.0
C458 C 0.12443 0.36315 0.57435 0.0
N459 N 0.11711 0.36282 0.59729 0.0
N460 N 0.12971 0.348 0.60938 0.0
C461 C 0.14553 0.33867 0.59439 0.0
C462 C 0.1426 0.34784 0.57174 0.0
C463 C 0.11569 0.37967 0.55619 0.0
H464 H 0.11908 0.3982 0.5633 0.0
H465 H 0.12469 0.3778 0.53864 0.0
H466 H 0.09603 0.37618 0.55345 0.0
O467 O 0.06994 0.35887 0.62651 0.0
O468 O 0.09035 0.33277 0.64612 0.0
H469 H 0.15328 0.30444 0.60604 0.0
H470 H 0.176 0.31773 0.58736 0.0
C471 C 0.16317 0.32141 0.6018 0.0
H472 H 0.17309 0.32836 0.61834 0.0
H473 H 0.12191 0.29081 0.63761 0.0
O474 O 0.07502 0.40148 0.58952 0.0
C475 C 0.07063 0.3405 0.63907 0.0
Co476 Co 0.61168 0.6246 0.63063 0.0
Co477 Co 0.63667 0.66933 0.65723 0.0
C478 C 0.61935 0.62891 0.68487 0.0
O479 O 0.61215 0.61836 0.66521 0.0
O480 O 0.63008 0.6495 0.68539 0.0
C481 C 0.57113 0.59314 0.62583 0.0
O482 O 0.56577 0.60463 0.64579 0.0
C483 C 0.65496 0.70976 0.68869 0.0
C484 C 0.67149 0.7333 0.66168 0.0
C485 C 0.66832 0.73116 0.68624 0.0
N486 N 0.65071 0.69973 0.6666 0.0
N487 N 0.66043 0.71398 0.65054 0.0
C488 C 0.64591 0.69908 0.71137 0.0
H489 H 0.62745 0.69088 0.70822 0.0
H490 H 0.6458 0.71266 0.72631 0.0
H491 H 0.65756 0.68491 0.71657 0.0
C492 C 0.58217 0.66084 0.61048 0.0
N493 N 0.59938 0.65406 0.62549 0.0
N494 N 0.60879 0.67266 0.63809 0.0
C495 C 0.59741 0.69184 0.63197 0.0
C496 C 0.58049 0.68505 0.614 0.0
C497 C 0.56897 0.64473 0.592 0.0
H498 H 0.5809 0.63137 0.58488 0.0
H499 H 0.55349 0.63525 0.60061 0.0
H500 H 0.56216 0.65488 0.57688 0.0
O501 O 0.64392 0.62389 0.61728 0.0
O502 O 0.66132 0.65543 0.6371 0.0
H503 H 0.61645 0.72601 0.6345 0.0
H504 H 0.58553 0.72604 0.64287 0.0
C505 C 0.60184 0.71598 0.64387 0.0
H506 H 0.60717 0.71448 0.66306 0.0
H507 H 0.66011 0.71013 0.63199 0.0
O508 O 0.59058 0.59903 0.6154 0.0
C509 C 0.66225 0.638 0.62208 0.0
Co510 Co 0.36611 0.37373 0.37803 0.0
Co511 Co 0.38077 0.40468 0.42448 0.0
C512 C 0.38365 0.42515 0.37628 0.0
O513 O 0.37616 0.40517 0.36668 0.0
O514 O 0.38606 0.4284 0.39907 0.0
C515 C 0.35656 0.35765 0.32899 0.0
O516 O 0.35619 0.38032 0.32466 0.0
C517 C 0.40681 0.43434 0.46283 0.0
C518 C 0.39156 0.41767 0.49519 0.0
C519 C 0.40819 0.43509 0.48787 0.0
N520 N 0.39041 0.41687 0.45573 0.0
N521 N 0.38124 0.40715 0.47515 0.0
C522 C 0.41988 0.45055 0.44594 0.0
H523 H 0.40763 0.45503 0.43114 0.0
H524 H 0.4349 0.44142 0.43783 0.0
H525 H 0.42709 0.46723 0.45539 0.0
C526 C 0.40442 0.3459 0.39565 0.0
N527 N 0.39019 0.3639 0.39835 0.0
N528 N 0.39743 0.37725 0.41734 0.0
C529 C 0.4168 0.36814 0.42732 0.0
C530 C 0.42187 0.3481 0.41375 0.0
C531 C 0.40147 0.32722 0.37579 0.0
H532 H 0.38237 0.32049 0.37419 0.0
H533 H 0.40664 0.33518 0.35847 0.0
H534 H 0.41258 0.31212 0.37913 0.0
O535 O 0.33541 0.37375 0.39454 0.0
O536 O 0.34623 0.39574 0.42723 0.0
H537 H 0.42042 0.37911 0.46451 0.0
H538 H 0.44797 0.37047 0.45132 0.0
C539 C 0.43133 0.37957 0.44801 0.0
H540 H 0.43617 0.39839 0.44421 0.0
H541 H 0.36816 0.393 0.47469 0.0
O542 O 0.36099 0.35139 0.35025 0.0
C543 C 0.33036 0.38353 0.41457 0.0
H544 H 0.22566 0.19218 0.21392 0.0
H545 H 0.25708 0.21296 0.2396 0.0
H546 H 0.24825 0.27735 0.20189 0.0
H547 H 0.21686 0.2568 0.17639 0.0
H548 H 0.29501 0.2685 0.2066 0.0
H549 H 0.22523 0.26969 0.25728 0.0
H550 H 0.19106 0.25153 0.27926 0.0
H551 H 0.23912 0.21225 0.3208 0.0
H552 H 0.27357 0.22995 0.29881 0.0
H553 H 0.33816 0.36446 0.284 0.0
H554 H 0.31779 0.3344 0.25676 0.0
H555 H 0.33579 0.27963 0.30478 0.0
H556 H 0.35589 0.30959 0.33231 0.0
H557 H 0.2889 0.27767 0.29546 0.0
H558 H 0.35943 0.28168 0.24874 0.0
H559 H 0.39337 0.30059 0.22704 0.0
H560 H 0.34432 0.33055 0.17823 0.0
H561 H 0.31006 0.3121 0.19984 0.0
C562 C 0.23002 0.21088 0.21152 0.0
C563 C 0.21855 0.22301 0.19346 0.0
C564 C 0.24813 0.22266 0.22602 0.0
C565 C 0.25492 0.24668 0.22262 0.0
C566 C 0.24336 0.25877 0.20468 0.0
C567 C 0.22538 0.24704 0.19022 0.0
C568 C 0.27405 0.2595 0.23762 0.0
C569 C 0.29369 0.27063 0.22604 0.0
C570 C 0.27262 0.26154 0.263 0.0
C571 C 0.25193 0.2509 0.2762 0.0
C572 C 0.22849 0.25701 0.27095 0.0
C573 C 0.20908 0.24684 0.28343 0.0
C574 C 0.21291 0.23069 0.30135 0.0
C575 C 0.23617 0.22472 0.30687 0.0
C576 C 0.25565 0.23482 0.29441 0.0
C577 C 0.33822 0.34598 0.28853 0.0
C578 C 0.34827 0.33943 0.31047 0.0
C579 C 0.32668 0.3288 0.27287 0.0
C580 C 0.32528 0.30479 0.2788 0.0
C581 C 0.33662 0.29808 0.29996 0.0
C582 C 0.34808 0.31523 0.31564 0.0
C583 C 0.30962 0.28727 0.2644 0.0
C584 C 0.29058 0.27521 0.27609 0.0
C585 C 0.3116 0.28445 0.23912 0.0
C586 C 0.33216 0.29561 0.22603 0.0
C587 C 0.35587 0.29245 0.2335 0.0
C588 C 0.37517 0.30306 0.22118 0.0
C589 C 0.371 0.31679 0.20129 0.0
C590 C 0.34752 0.31991 0.19364 0.0
C591 C 0.32815 0.30935 0.2059 0.0
H592 H 0.38597 0.32499 0.19178 0.0
H593 H 0.19786 0.22284 0.31101 0.0
H594 H 0.98544 0.0727 0.54316 0.0
H595 H 0.00594 0.04687 0.51555 0.0
H596 H 0.94624 0.99441 0.51698 0.0
H597 H 0.92577 0.02007 0.54541 0.0
H598 H 0.98783 0.97337 0.51986 0.0
H599 H 0.95625 0.02836 0.46714 0.0
H600 H 0.94748 0.06751 0.45236 0.0
H601 H 0.02286 0.08635 0.44652 0.0
H602 H 0.03211 0.04743 0.46161 0.0
H603 H 0.03792 0.90753 0.42095 0.0
H604 H 0.0107 0.93031 0.44544 0.0
H605 H 0.06602 0.98702 0.45547 0.0
H606 H 0.09325 0.96439 0.43129 0.0
H607 H 0.02244 0.00395 0.44435 0.0
H608 H 0.05337 0.94949 0.50008 0.0
H609 H 0.06156 0.91006 0.51456 0.0
H610 H 0.98607 0.88974 0.51362 0.0
H611 H 0.97745 0.92898 0.49881 0.0
C612 C 0.97649 0.05572 0.53758 0.0
C613 C 0.95361 0.04882 0.54629 0.0
C614 C 0.98826 0.04096 0.52158 0.0
C615 C 0.97758 0.01873 0.51366 0.0
C616 C 0.95485 0.01154 0.52253 0.0
C617 C 0.94297 0.02642 0.5386 0.0
C618 C 0.99057 0.00309 0.49659 0.0
C619 C 0.99497 0.97994 0.50312 0.0
C620 C 1.00032 0.01158 0.4748 0.0
C621 C 0.99487 0.03503 0.4657 0.0
C622 C 0.97097 0.04092 0.46289 0.0
C623 C 0.96591 0.06306 0.45442 0.0
C624 C 0.9846 0.07943 0.44855 0.0
C625 C 0.0084 0.07366 0.45109 0.0
C626 C 0.01356 0.05155 0.45958 0.0
C627 C 0.04428 0.92487 0.42833 0.0
C628 C 0.06788 0.93403 0.42413 0.0
C629 C 0.0287 0.93786 0.44244 0.0
C630 C 0.03627 0.96042 0.45252 0.0
C631 C 0.05966 0.96971 0.44797 0.0
C632 C 0.07529 0.95666 0.43415 0.0
C633 C 0.02003 0.97445 0.46784 0.0
C634 C 0.01505 0.99731 0.46096 0.0
C635 C 0.00964 0.96563 0.48917 0.0
C636 C 0.01479 0.94206 0.49806 0.0
C637 C 0.03853 0.93654 0.50275 0.0
C638 C 0.04325 0.91424 0.51106 0.0
C639 C 0.02435 0.89738 0.51493 0.0
C640 C 1.00069 0.9028 0.51056 0.0
C641 C 0.99588 0.92507 0.50222 0.0
H642 H 0.02804 0.88013 0.52138 0.0
H643 H 0.98065 0.09656 0.442 0.0
H644 H 0.22294 0.69158 0.81703 0.0
H645 H 0.24953 0.7195 0.79547 0.0
H646 H 0.19181 0.73112 0.74576 0.0
H647 H 0.16487 0.70419 0.76767 0.0
H648 H 0.23576 0.71564 0.72475 0.0
H649 H 0.20724 0.77357 0.78207 0.0
H650 H 0.20084 0.79014 0.82297 0.0
H651 H 0.27682 0.795 0.83723 0.0
H652 H 0.28364 0.77811 0.7965 0.0
H653 H 0.27335 0.80468 0.64832 0.0
H654 H 0.25167 0.78183 0.67856 0.0
H655 H 0.31286 0.79229 0.72722 0.0
H656 H 0.33452 0.81577 0.69695 0.0
H657 H 0.27208 0.79495 0.75182 0.0
H658 H 0.30193 0.73991 0.69518 0.0
H659 H 0.30999 0.72228 0.65511 0.0
H660 H 0.23435 0.7097 0.64081 0.0
H661 H 0.22581 0.72757 0.68067 0.0
C662 C 0.21558 0.70071 0.80213 0.0
C663 C 0.19156 0.6958 0.79436 0.0
C664 C 0.23093 0.7165 0.78964 0.0
C665 C 0.22261 0.72734 0.76903 0.0
C666 C 0.19858 0.72291 0.76161 0.0
C667 C 0.18323 0.70746 0.77419 0.0
C668 C 0.2391 0.74187 0.75389 0.0
C669 C 0.24357 0.73306 0.73059 0.0
C670 C 0.25003 0.76413 0.76191 0.0
C671 C 0.24592 0.77428 0.78636 0.0
C672 C 0.22256 0.77793 0.79402 0.0
C673 C 0.21886 0.78744 0.81715 0.0
C674 C 0.23841 0.79354 0.83272 0.0
C675 C 0.26169 0.79022 0.82517 0.0
C676 C 0.26549 0.78068 0.80206 0.0
C677 C 0.28211 0.80227 0.66555 0.0
C678 C 0.30554 0.81208 0.67036 0.0
C679 C 0.26975 0.78914 0.6828 0.0
C680 C 0.28077 0.78493 0.70504 0.0
C681 C 0.30399 0.79527 0.7102 0.0
C682 C 0.31631 0.80872 0.69295 0.0
C683 C 0.26814 0.76904 0.72231 0.0
C684 C 0.26449 0.77745 0.74602 0.0
C685 C 0.25821 0.74614 0.71483 0.0
C686 C 0.26324 0.73524 0.69086 0.0
C687 C 0.28701 0.73352 0.68343 0.0
C688 C 0.29166 0.72347 0.66076 0.0
C689 C 0.27269 0.71492 0.6454 0.0
C690 C 0.24902 0.71635 0.65272 0.0
C691 C 0.24427 0.72641 0.67536 0.0
H692 H 0.27633 0.70714 0.62786 0.0
H693 H 0.23551 0.80092 0.85062 0.0
H694 H 0.42462 0.02113 0.94204 0.0
H695 H 0.44958 0.99398 0.96323 0.0
H696 H 0.49268 0.05383 0.99454 0.0
H697 H 0.46814 0.08081 0.97337 0.0
H698 H 0.52123 0.02018 0.9806 0.0
H699 H 0.44909 0.02256 0.02662 0.0
H700 H 0.40549 0.01798 0.03309 0.0
H701 H 0.40464 0.94418 0.01166 0.0
H702 H 0.44821 0.94841 0.00475 0.0
H703 H 0.57922 0.97411 0.08107 0.0
H704 H 0.55361 0.99513 0.05437 0.0
H705 H 0.51767 0.92867 0.02931 0.0
H706 H 0.54341 0.90733 0.05629 0.0
H707 H 0.48516 0.962 0.03673 0.0
H708 H 0.55787 0.95879 0.99374 0.0
H709 H 0.60156 0.96324 0.98783 0.0
H710 H 0.60145 0.03821 0.00317 0.0
H711 H 0.5578 0.03417 0.00956 0.0
C712 C 0.43966 0.02852 0.95306 0.0
C713 C 0.44437 0.05333 0.95566 0.0
C714 C 0.45383 0.01292 0.96548 0.0
C715 C 0.47314 0.02167 0.9808 0.0
C716 C 0.47806 0.04639 0.98293 0.0
C717 C 0.46385 0.0619 0.97078 0.0
C718 C 0.48812 0.00547 0.99494 0.0
C719 C 0.51326 0.00761 0.99298 0.0
C720 C 0.47801 0.98845 0.01078 0.0
C721 C 0.45184 0.98588 0.01487 0.0
C722 C 0.43956 0.00541 0.02308 0.0
C723 C 0.41487 0.00286 0.02687 0.0
C724 C 0.40229 0.98082 0.02271 0.0
C725 C 0.4144 0.96125 0.01482 0.0
C726 C 0.43909 0.96372 0.01097 0.0
C727 C 0.56595 0.9638 0.06989 0.0
C728 C 0.56362 0.93885 0.07094 0.0
C729 C 0.55127 0.97595 0.05445 0.0
C730 C 0.53369 0.96366 0.0394 0.0
C731 C 0.53104 0.93873 0.04058 0.0
C732 C 0.5459 0.92648 0.056 0.0
C733 C 0.51827 0.97701 0.02264 0.0
C734 C 0.4931 0.97438 0.02414 0.0
C735 C 0.52834 0.99357 0.00632 0.0
C736 C 0.55457 0.99614 0.00233 0.0
C737 C 0.56718 0.97621 0.99603 0.0
C738 C 0.59194 0.97866 0.99257 0.0
C739 C 0.60428 0.00099 0.99518 0.0
C740 C 0.59187 0.02092 0.00118 0.0
C741 C 0.56711 0.01857 0.0047 0.0
H742 H 0.62344 0.00284 0.9925 0.0
H743 H 0.38317 0.97888 0.02567 0.0
H744 H 0.33127 0.68176 0.19261 0.0
H745 H 0.31001 0.70999 0.21742 0.0
H746 H 0.24298 0.68365 0.18342 0.0
H747 H 0.26407 0.65581 0.1584 0.0
H748 H 0.24533 0.73014 0.18542 0.0
H749 H 0.26028 0.67047 0.24293 0.0
H750 H 0.28556 0.64519 0.26638 0.0
H751 H 0.32416 0.70714 0.29833 0.0
H752 H 0.2993 0.73281 0.27482 0.0
H753 H 0.15967 0.77776 0.2595 0.0
H754 H 0.1856 0.7506 0.23956 0.0
H755 H 0.24688 0.78404 0.27878 0.0
H756 H 0.22067 0.81126 0.29929 0.0
H757 H 0.25084 0.73681 0.27476 0.0
H758 H 0.23517 0.79651 0.21905 0.0
H759 H 0.21043 0.82224 0.19555 0.0
H760 H 0.17429 0.76091 0.15978 0.0
H761 H 0.19859 0.73478 0.18331 0.0
C762 C 0.31198 0.68188 0.1905 0.0
C763 C 0.29946 0.66641 0.17339 0.0
C764 C 0.29978 0.69802 0.20482 0.0
C765 C 0.27472 0.699 0.20256 0.0
C766 C 0.26226 0.68343 0.18561 0.0
C767 C 0.2744 0.66738 0.17129 0.0
C768 C 0.26139 0.71656 0.21715 0.0
C769 C 0.24638 0.73133 0.20497 0.0
C770 C 0.26325 0.71895 0.24269 0.0
C771 C 0.2781 0.70355 0.25692 0.0
C772 C 0.27427 0.6787 0.25482 0.0
C773 C 0.28851 0.6643 0.26815 0.0
C774 C 0.3065 0.67455 0.28378 0.0
C775 C 0.31024 0.69923 0.28618 0.0
C776 C 0.29608 0.71371 0.27288 0.0
C777 C 0.17865 0.77933 0.26408 0.0
C778 C 0.18798 0.79679 0.2811 0.0
C779 C 0.19354 0.76377 0.25251 0.0
C780 C 0.21842 0.76544 0.25713 0.0
C781 C 0.22779 0.78233 0.27474 0.0
C782 C 0.21275 0.79787 0.28659 0.0
C783 C 0.23436 0.74991 0.24299 0.0
C784 C 0.24989 0.73565 0.25521 0.0
C785 C 0.23312 0.74802 0.21741 0.0
C786 C 0.21859 0.76368 0.20309 0.0
C787 C 0.22184 0.7885 0.20628 0.0
C788 C 0.20791 0.80316 0.19295 0.0
C789 C 0.19077 0.79321 0.17622 0.0
C790 C 0.18757 0.76858 0.17276 0.0
C791 C 0.20143 0.75384 0.18607 0.0
H792 H 0.18 0.80459 0.16592 0.0
H793 H 0.3175 0.66337 0.29408 0.0
H794 H 0.43259 0.94896 0.53385 0.0
H795 H 0.46166 0.97174 0.50992 0.0
H796 H 0.47064 0.02537 0.56724 0.0
H797 H 0.44127 0.00285 0.59119 0.0
H798 H 0.46759 0.04538 0.5243 0.0
H799 H 0.51272 0.98555 0.55815 0.0
H800 H 0.5216 0.94489 0.56815 0.0
H801 H 0.52395 0.92538 0.49277 0.0
H802 H 0.51472 0.96586 0.48231 0.0
H803 H 0.57546 0.10207 0.47971 0.0
H804 H 0.54681 0.08019 0.50506 0.0
H805 H 0.53124 0.02836 0.44701 0.0
H806 H 0.55974 0.05015 0.4215 0.0
H807 H 0.53845 0.00799 0.49139 0.0
H808 H 0.49264 0.06846 0.45811 0.0
H809 H 0.48436 0.10948 0.4489 0.0
H810 H 0.4843 0.12821 0.52458 0.0
H811 H 0.49297 0.08736 0.53424 0.0
C812 C 0.44069 0.96562 0.54139 0.0
C813 C 0.43463 0.97403 0.56449 0.0
C814 C 0.45741 0.97858 0.52771 0.0
C815 C 0.46858 1.00014 0.53689 0.0
C816 C 0.4623 0.00877 0.55979 0.0
C817 C 0.44555 0.99582 0.5735 0.0
C818 C 0.48681 0.01364 0.52258 0.0
C819 C 0.48326 0.0373 0.51741 0.0
C820 C 0.50709 0.00301 0.51324 0.0
C821 C 0.51279 0.97868 0.51945 0.0
C822 C 0.51494 0.97254 0.5437 0.0
C823 C 0.52007 0.94953 0.54946 0.0
C824 C 0.52327 0.93254 0.53111 0.0
C825 C 0.52143 0.93855 0.50697 0.0
C826 C 0.51627 0.96153 0.50111 0.0
C827 C 0.56598 0.08599 0.47233 0.0
C828 C 0.56986 0.07788 0.44856 0.0
C829 C 0.54955 0.07356 0.48683 0.0
C830 C 0.5368 0.05272 0.47786 0.0
C831 C 0.54089 0.0444 0.45427 0.0
C832 C 0.55713 0.05693 0.4397 0.0
C833 C 0.51911 0.03962 0.49303 0.0
C834 C 0.52279 0.01605 0.49836 0.0
C835 C 0.49906 0.05038 0.50265 0.0
C836 C 0.49372 0.07491 0.49689 0.0
C837 C 0.49107 0.08137 0.47278 0.0
C838 C 0.48627 0.10459 0.46748 0.0
C839 C 0.48387 0.12146 0.48614 0.0
C840 C 0.4862 0.11513 0.51014 0.0
C841 C 0.49105 0.09195 0.51554 0.0
H842 H 0.48015 0.13942 0.482 0.0
H843 H 0.52723 0.91473 0.5356 0.0
H844 H 0.27081 0.14263 0.80421 0.0
H845 H 0.24768 0.16894 0.78069 0.0
H846 H 0.30464 0.22417 0.7896 0.0
H847 H 0.32776 0.19789 0.81399 0.0
H848 H 0.26331 0.24404 0.79205 0.0
H849 H 0.29444 0.18955 0.73515 0.0
H850 H 0.3031 0.15045 0.71758 0.0
H851 H 0.22764 0.13085 0.71021 0.0
H852 H 0.21853 0.16972 0.72803 0.0
H853 H 0.21017 0.30986 0.69654 0.0
H854 H 0.23722 0.28888 0.72225 0.0
H855 H 0.18578 0.22841 0.72139 0.0
H856 H 0.15881 0.24914 0.69602 0.0
H857 H 0.22807 0.21341 0.71347 0.0
H858 H 0.19753 0.26819 0.77226 0.0
H859 H 0.18972 0.30777 0.7892 0.0
H860 H 0.26532 0.32762 0.79168 0.0
H861 H 0.27356 0.28824 0.77445 0.0
C862 C 0.27855 0.16036 0.80126 0.0
C863 C 0.30142 0.16788 0.81098 0.0
C864 C 0.26524 0.17548 0.78757 0.0
C865 C 0.27441 0.19862 0.78264 0.0
C866 C 0.297 0.20646 0.79285 0.0
C867 C 0.31031 0.19133 0.80681 0.0
C868 C 0.26043 0.2142 0.76667 0.0
C869 C 0.25595 0.23739 0.7747 0.0
C870 C 0.25041 0.20583 0.74397 0.0
C871 C 0.25581 0.18249 0.73311 0.0
C872 C 0.2797 0.17684 0.72992 0.0
C873 C 0.28468 0.15473 0.7199 0.0
C874 C 0.26593 0.13816 0.71283 0.0
C875 C 0.24215 0.1437 0.71571 0.0
C876 C 0.23706 0.16578 0.72574 0.0
C877 C 0.20428 0.29236 0.70223 0.0
C878 C 0.18189 0.28152 0.69422 0.0
C879 C 0.21995 0.28021 0.71694 0.0
C880 C 0.21371 0.25689 0.72412 0.0
C881 C 0.19133 0.24624 0.71623 0.0
C882 C 0.17578 0.25827 0.70163 0.0
C883 C 0.23042 0.24302 0.73907 0.0
C884 C 0.2355 0.22011 0.73077 0.0
C885 C 0.24107 0.25176 0.76137 0.0
C886 C 0.23614 0.27537 0.77182 0.0
C887 C 0.21247 0.28106 0.77625 0.0
C888 C 0.20797 0.30345 0.78593 0.0
C889 C 0.22701 0.32023 0.79144 0.0
C890 C 0.25059 0.31463 0.78736 0.0
C891 C 0.25519 0.29227 0.77765 0.0
H892 H 0.22348 0.33756 0.79893 0.0
H893 H 0.26983 0.12105 0.70508 0.0
H894 H 0.03726 0.06439 0.13036 0.0
H895 H 0.01235 0.0381 0.10272 0.0
H896 H 0.01244 0.09306 0.05077 0.0
H897 H 0.03757 0.11949 0.0782 0.0
H898 H 0.9671 0.06394 0.05457 0.0
H899 H 0.05153 0.05799 0.04233 0.0
H900 H 0.09328 0.05339 0.05541 0.0
H901 H 0.07238 0.985 0.08265 0.0
H902 H 0.03039 0.98938 0.07008 0.0
H903 H 0.93528 0.98573 0.95428 0.0
H904 H 0.95676 0.01683 0.97952 0.0
H905 H 0.97261 0.96511 0.03182 0.0
H906 H 0.95218 0.93378 0.00612 0.0
H907 H 0.01057 0.99503 0.02569 0.0
H908 H 0.92592 0.00119 0.03875 0.0
H909 H 0.88406 0.00589 0.02608 0.0
H910 H 0.90504 0.07364 0.99743 0.0
H911 H 0.94711 0.06919 0.00965 0.0
C912 C 0.03149 0.07111 0.11333 0.0
C913 C 0.03963 0.09384 0.10625 0.0
C914 C 0.01732 0.05606 0.09757 0.0
C915 C 0.01093 0.06364 0.07468 0.0
C916 C 0.01731 0.08697 0.06837 0.0
C917 C 0.03172 0.10196 0.084 0.0
C918 C 1.0 0.04639 0.05647 0.0
C919 C 0.97662 0.049 0.04799 0.0
C920 C 0.01252 0.02693 0.04812 0.0
C921 C 0.03778 0.02413 0.0555 0.0
C922 C 0.05579 0.04207 0.05131 0.0
C923 C 0.07951 0.03948 0.05859 0.0
C924 C 0.08547 0.01895 0.06992 0.0
C925 C 0.06773 0.00092 0.07391 0.0
C926 C 0.04397 0.00344 0.0667 0.0
C927 C 0.944 0.98084 0.97075 0.0
C928 C 0.94248 0.95723 0.97802 0.0
C929 C 0.9559 0.99872 0.98536 0.0
C930 C 0.96603 0.99329 0.00765 0.0
C931 C 0.96492 0.96967 0.01468 0.0
C932 C 0.95318 0.95182 1.00004 0.0
C933 C 0.97735 0.01216 0.02406 0.0
C934 C 0.00097 0.00996 0.03215 0.0
C935 C 0.96499 0.03195 0.03203 0.0
C936 C 0.93969 0.03475 0.02489 0.0
C937 C 0.92163 0.01702 0.0296 0.0
C938 C 0.89786 0.01964 0.02252 0.0
C939 C 0.8919 0.04002 0.0109 0.0
C940 C 0.90969 0.05785 0.0064 0.0
C941 C 0.93349 0.05529 0.01341 0.0
H942 H 0.87349 0.04202 0.00543 0.0
H943 H 0.10384 0.01697 0.07554 0.0
H944 H 0.7785 0.13885 0.69617 0.0
H945 H 0.75815 0.16787 0.72052 0.0
H946 H 0.79347 0.2246 0.68149 0.0
H947 H 0.81505 0.19558 0.6582 0.0
H948 H 0.79159 0.24007 0.72386 0.0
H949 H 0.73035 0.20122 0.67251 0.0
H950 H 0.70545 0.16765 0.65356 0.0
H951 H 0.6802 0.14751 0.72308 0.0
H952 H 0.70519 0.18081 0.74248 0.0
H953 H 0.70317 0.32471 0.74897 0.0
H954 H 0.7278 0.29542 0.72967 0.0
H955 H 0.71248 0.24784 0.78728 0.0
H956 H 0.68824 0.27741 0.80697 0.0
H957 H 0.70417 0.22783 0.73728 0.0
H958 H 0.76534 0.2709 0.78697 0.0
H959 H 0.78872 0.30693 0.80267 0.0
H960 H 0.81207 0.32204 0.73115 0.0
H961 H 0.78852 0.28627 0.71497 0.0
C962 C 0.78197 0.15752 0.69279 0.0
C963 C 0.79833 0.16481 0.67507 0.0
C964 C 0.77011 0.17421 0.70665 0.0
C965 C 0.77357 0.19868 0.70263 0.0
C966 C 0.79024 0.20596 0.68512 0.0
C967 C 0.80258 0.1893 0.67168 0.0
C968 C 0.75997 0.21661 0.71662 0.0
C969 C 0.77242 0.23738 0.72644 0.0
C970 C 0.73489 0.21337 0.72055 0.0
C971 C 0.71984 0.19335 0.70896 0.0
C972 C 0.71961 0.18953 0.68376 0.0
C973 C 0.70546 0.17057 0.67294 0.0
C974 C 0.6913 0.15542 0.68711 0.0
C975 C 0.69121 0.15924 0.71213 0.0
C976 C 0.70535 0.17816 0.72305 0.0
C977 C 0.70542 0.30817 0.75775 0.0
C978 C 0.6941 0.30358 0.77973 0.0
C979 C 0.71947 0.29142 0.74667 0.0
C980 C 0.7221 0.26938 0.757 0.0
C981 C 0.71083 0.26472 0.77899 0.0
C982 C 0.69717 0.28173 0.79037 0.0
C983 C 0.73585 0.251 0.74428 0.0
C984 C 0.72337 0.23029 0.73467 0.0
C985 C 0.76072 0.25457 0.74001 0.0
C986 C 0.77497 0.27602 0.74973 0.0
C987 C 0.77528 0.28202 0.77456 0.0
C988 C 0.7886 0.30237 0.78355 0.0
C989 C 0.80183 0.3168 0.76791 0.0
C990 C 0.8018 0.31086 0.74325 0.0
C991 C 0.78848 0.29054 0.73416 0.0
H992 H 0.81213 0.33255 0.77491 0.0
H993 H 0.68036 0.14075 0.6787 0.0
H994 H 0.07396 0.53846 0.92543 0.0
H995 H 0.04379 0.51725 0.94952 0.0
H996 H 0.04068 0.57932 0.99665 0.0
H997 H 0.07158 0.60022 0.97322 0.0
H998 H 0.03937 0.54288 0.02268 0.0
H999 H 0.99661 0.56171 0.95107 0.0
H1000 H 0.98845 0.5628 0.90732 0.0
H1001 H 0.98201 0.48663 0.90229 0.0
H1002 H 0.99046 0.48509 0.94598 0.0
H1003 H 0.92775 0.51462 0.07631 0.0
H1004 H 0.95786 0.53267 0.04999 0.0
H1005 H 0.96948 0.46386 0.01823 0.0
H1006 H 0.94005 0.44546 0.04512 0.0
H1007 H 0.96647 0.50169 0.9841 0.0
H1008 H 0.00809 0.48452 0.0576 0.0
H1009 H 0.01448 0.48543 0.10171 0.0
H1010 H 0.02093 0.5616 0.1032 0.0
H1011 H 0.01421 0.56115 0.05911 0.0
C1012 C 0.06689 0.54756 0.94098 0.0
C1013 C 0.07514 0.57104 0.94739 0.0
C1014 C 0.0495 0.53545 0.95467 0.0
C1015 C 0.03953 0.54677 0.97472 0.0
C1016 C 0.04801 0.57015 0.98129 0.0
C1017 C 0.06569 0.58211 0.96785 0.0
C1018 C 0.02043 0.53429 0.98898 0.0
C1019 C 0.02334 0.53415 0.01418 0.0
C1020 C 0.9996 0.52242 0.978 0.0
C1021 C 0.99441 0.52329 0.95175 0.0
C1022 C 0.99362 0.54519 0.9406 0.0
C1023 C 0.98892 0.54589 0.91582 0.0
C1024 C 0.98478 0.5248 0.90202 0.0
C1025 C 0.98526 0.50296 0.91299 0.0
C1026 C 0.98999 0.50216 0.93777 0.0
C1027 C 0.93654 0.50326 0.06362 0.0
C1028 C 0.93105 0.47855 0.06267 0.0
C1029 C 0.95375 0.51365 0.04858 0.0
C1030 C 0.96593 0.4996 0.03221 0.0
C1031 C 0.96011 0.47503 0.03062 0.0
C1032 C 0.94301 0.46455 0.04588 0.0
C1033 C 0.98546 0.51058 0.0176 0.0
C1034 C 0.98261 0.5104 0.99244 0.0
C1035 C 0.00616 0.52249 0.0286 0.0
C1036 C 0.01043 0.52279 0.05508 0.0
C1037 C 0.01068 0.50146 0.06735 0.0
C1038 C 0.01439 0.5019 0.09235 0.0
C1039 C 0.01805 0.52356 0.10526 0.0
C1040 C 0.01807 0.54484 0.09318 0.0
C1041 C 0.01433 0.5445 0.06819 0.0
H1042 H 0.02092 0.52386 0.12462 0.0
H1043 H 0.98114 0.52537 0.88283 0.0
H1044 H 0.76232 0.67341 0.34221 0.0
H1045 H 0.74177 0.70014 0.31664 0.0
H1046 H 0.80809 0.71817 0.28076 0.0
H1047 H 0.82904 0.69248 0.30762 0.0
H1048 H 0.78672 0.75532 0.28185 0.0
H1049 H 0.75757 0.67702 0.25644 0.0
H1050 H 0.73957 0.63627 0.26032 0.0
H1051 H 0.67478 0.66372 0.28652 0.0
H1052 H 0.69252 0.70464 0.28307 0.0
H1053 H 0.72754 0.79071 0.17262 0.0
H1054 H 0.74925 0.76916 0.2027 0.0
H1055 H 0.69179 0.7768 0.2525 0.0
H1056 H 0.67026 0.79906 0.22257 0.0
H1057 H 0.70807 0.72767 0.24434 0.0
H1058 H 0.73959 0.80734 0.26595 0.0
H1059 H 0.75909 0.84663 0.25777 0.0
H1060 H 0.82165 0.8139 0.23293 0.0
H1061 H 0.80237 0.77436 0.24062 0.0
C1062 C 0.77262 0.68315 0.32896 0.0
C1063 C 0.79741 0.68056 0.327 0.0
C1064 C 0.76071 0.69837 0.31402 0.0
C1065 C 0.77294 0.71093 0.29589 0.0
C1066 C 0.79791 0.70878 0.29432 0.0
C1067 C 0.80997 0.69398 0.30974 0.0
C1068 C 0.75974 0.72613 0.27871 0.0
C1069 C 0.76968 0.74897 0.27351 0.0
C1070 C 0.7372 0.71845 0.26763 0.0
C1071 C 0.72647 0.69388 0.26974 0.0
C1072 C 0.73955 0.67436 0.26318 0.0
C1073 C 0.72938 0.65123 0.26528 0.0
C1074 C 0.70607 0.64741 0.27373 0.0
C1075 C 0.69285 0.66671 0.28002 0.0
C1076 C 0.70294 0.68987 0.27798 0.0
C1077 C 0.7197 0.7882 0.19015 0.0
C1078 C 0.69728 0.79702 0.19524 0.0
C1079 C 0.73215 0.77579 0.20736 0.0
C1080 C 0.7223 0.77125 0.23003 0.0
C1081 C 0.69991 0.78007 0.23524 0.0
C1082 C 0.68767 0.79302 0.21817 0.0
C1083 C 0.73507 0.7566 0.24776 0.0
C1084 C 0.72507 0.73388 0.25288 0.0
C1085 C 0.75779 0.76411 0.2582 0.0
C1086 C 0.76943 0.78787 0.25364 0.0
C1087 C 0.75742 0.8085 0.25853 0.0
C1088 C 0.76845 0.83082 0.25403 0.0
C1089 C 0.79157 0.83276 0.24477 0.0
C1090 C 0.80373 0.81237 0.24006 0.0
C1091 C 0.79276 0.79 0.24452 0.0
H1092 H 0.80008 0.85006 0.2413 0.0
H1093 H 0.69824 0.62949 0.27534 0.0
H1094 H 0.92672 0.56142 0.49569 0.0
H1095 H 0.95103 0.53413 0.51669 0.0
H1096 H 0.97755 0.50898 0.44862 0.0
H1097 H 0.95225 0.53584 0.42738 0.0
H1098 H 0.97457 0.47307 0.47677 0.0
H1099 H 0.0104 0.55191 0.48814 0.0
H1100 H 0.01214 0.59464 0.49921 0.0
H1101 H 0.99367 0.57867 0.57195 0.0
H1102 H 0.99152 0.53583 0.56123 0.0
H1103 H 0.08874 0.46582 0.56289 0.0
H1104 H 0.06215 0.48759 0.53793 0.0
H1105 H 0.00594 0.43205 0.54448 0.0
H1106 H 0.03301 0.40967 0.56878 0.0
H1107 H 0.02502 0.50824 0.54508 0.0
H1108 H 0.96442 0.43202 0.49866 0.0
H1109 H 0.96707 0.3905 0.48425 0.0
H1110 H 0.04303 0.4032 0.4756 0.0
H1111 H 0.04079 0.44485 0.48968 0.0
C1112 C 0.93745 0.54985 0.48508 0.0
C1113 C 0.93737 0.55091 0.45975 0.0
C1114 C 0.95162 0.53429 0.4972 0.0
C1115 C 0.96691 0.5197 0.48452 0.0
C1116 C 0.96614 0.51998 0.45907 0.0
C1117 C 0.95153 0.53534 0.44684 0.0
C1118 C 0.98419 0.50508 0.49796 0.0
C1119 C 0.98555 0.48083 0.49172 0.0
C1120 C 0.99919 0.51493 0.51727 0.0
C1121 C 1.00059 0.54067 0.52382 0.0
C1122 C 0.00657 0.55752 0.50646 0.0
C1123 C 0.00765 0.58176 0.51267 0.0
C1124 C 0.00297 0.58937 0.53625 0.0
C1125 C 0.99727 0.57275 0.55368 0.0
C1126 C 0.99613 0.54849 0.54755 0.0
C1127 C 0.07079 0.45804 0.5589 0.0
C1128 C 0.0632 0.43582 0.56796 0.0
C1129 C 0.05543 0.47066 0.54459 0.0
C1130 C 0.03178 0.46168 0.53888 0.0
C1131 C 0.02412 0.43943 0.54794 0.0
C1132 C 0.03965 0.4266 0.56205 0.0
C1133 C 0.01525 0.47608 0.52419 0.0
C1134 C 0.01403 0.50037 0.5302 0.0
C1135 C 0.00097 0.46638 0.50427 0.0
C1136 C 0.00245 0.44147 0.49547 0.0
C1137 C 0.98167 0.42596 0.49359 0.0
C1138 C 0.9831 0.40241 0.4855 0.0
C1139 C 0.00522 0.3942 0.47909 0.0
C1140 C 0.02593 0.40955 0.48066 0.0
C1141 C 0.02459 0.43313 0.48872 0.0
H1142 H 0.00629 0.37595 0.47286 0.0
H1143 H 0.00381 0.60814 0.54103 0.0
H1144 H 0.54313 0.42137 0.91007 0.0
H1145 H 0.51495 0.44319 0.93424 0.0
H1146 H 0.57245 0.46728 0.98389 0.0
H1147 H 0.60045 0.44533 0.96018 0.0
H1148 H 0.53494 0.45346 0.0085 0.0
H1149 H 0.54784 0.50384 0.94128 0.0
H1150 H 0.54858 0.51354 0.8983 0.0
H1151 H 0.47294 0.49471 0.89147 0.0
H1152 H 0.47181 0.48457 0.93436 0.0
H1153 H 0.48819 0.54854 0.07248 0.0
H1154 H 0.51064 0.52541 0.04405 0.0
H1155 H 0.44487 0.50019 0.00708 0.0
H1156 H 0.42197 0.52302 0.03601 0.0
H1157 H 0.48278 0.51222 0.97491 0.0
H1158 H 0.47008 0.46413 0.04338 0.0
H1159 H 0.47003 0.45537 0.0866 0.0
H1160 H 0.54634 0.47075 0.09108 0.0
H1161 H 0.5468 0.47995 0.04794 0.0
C1162 C 0.5498 0.43136 0.9261 0.0
C1163 C 0.57417 0.43148 0.93309 0.0
C1164 C 0.53363 0.44397 0.9399 0.0
C1165 C 0.54145 0.45716 0.96096 0.0
C1166 C 0.56579 0.45728 0.96785 0.0
C1167 C 0.58189 0.44471 0.95414 0.0
C1168 C 0.52445 0.47045 0.97622 0.0
C1169 C 0.52375 0.46646 0.00108 0.0
C1170 C 0.50918 0.48703 0.9667 0.0
C1171 C 0.5098 0.49318 0.94095 0.0
C1172 C 0.5314 0.50158 0.93056 0.0
C1173 C 0.53189 0.50719 0.90623 0.0
C1174 C 0.51083 0.50467 0.89214 0.0
C1175 C 0.48924 0.49661 0.90239 0.0
C1176 C 0.48866 0.49094 0.92671 0.0
C1177 C 0.47832 0.53819 0.0583 0.0
C1178 C 0.45311 0.53803 0.0566 0.0
C1179 C 0.4913 0.52491 0.04197 0.0
C1180 C 0.47956 0.51083 0.0234 0.0
C1181 C 0.45443 0.51098 0.02114 0.0
C1182 C 0.44132 0.52426 0.03766 0.0
C1183 C 0.49371 0.49548 0.00715 0.0
C1184 C 0.49385 0.49907 0.98219 0.0
C1185 C 0.50861 0.47857 0.01655 0.0
C1186 C 0.50843 0.47291 0.04247 0.0
C1187 C 0.48682 0.46582 0.05362 0.0
C1188 C 0.48673 0.46075 0.0781 0.0
C1189 C 0.50816 0.46255 0.09159 0.0
C1190 C 0.52974 0.46938 0.08061 0.0
C1191 C 0.52994 0.4745 0.05614 0.0
H1192 H 0.50805 0.45862 0.11054 0.0
H1193 H 0.51124 0.50903 0.87331 0.0
H1194 H 0.67856 0.77865 0.68547 0.0
H1195 H 0.70943 0.80181 0.70974 0.0
H1196 H 0.72015 0.74082 0.75212 0.0
H1197 H 0.68998 0.71744 0.72765 0.0
H1198 H 0.72585 0.7863 0.77869 0.0
H1199 H 0.75199 0.74546 0.70633 0.0
H1200 H 0.74964 0.73532 0.66271 0.0
H1201 H 0.76392 0.80876 0.6471 0.0
H1202 H 0.76592 0.81938 0.69067 0.0
H1203 H 0.84359 0.80879 0.82047 0.0
H1204 H 0.80961 0.78814 0.79854 0.0
H1205 H 0.80766 0.84605 0.75009 0.0
H1206 H 0.84201 0.86662 0.77161 0.0
H1207 H 0.79611 0.804 0.72699 0.0
H1208 H 0.77313 0.84492 0.79924 0.0
H1209 H 0.77497 0.85548 0.84278 0.0
H1210 H 0.75423 0.78328 0.85887 0.0
H1211 H 0.75267 0.77218 0.81542 0.0
C1212 C 0.68695 0.77042 0.70048 0.0
C1213 C 0.6817 0.7463 0.70476 0.0
C1214 C 0.7045 0.78366 0.71431 0.0
C1215 C 0.71709 0.77287 0.7325 0.0
C1216 C 0.71042 0.74943 0.73825 0.0
C1217 C 0.69297 0.73613 0.72432 0.0
C1218 C 0.73957 0.78454 0.74272 0.0
C1219 C 0.74129 0.79008 0.76751 0.0
C1220 C 0.75948 0.78966 0.7279 0.0
C1221 C 0.75885 0.78324 0.70173 0.0
C1222 C 0.75446 0.75946 0.69359 0.0
C1223 C 0.7532 0.75362 0.66888 0.0
C1224 C 0.75656 0.77139 0.65214 0.0
C1225 C 0.76128 0.79502 0.66008 0.0
C1226 C 0.76248 0.80096 0.68478 0.0
C1227 C 0.8363 0.81685 0.80477 0.0
C1228 C 0.84512 0.83947 0.79797 0.0
C1229 C 0.81683 0.80511 0.79237 0.0
C1230 C 0.80573 0.81598 0.77324 0.0
C1231 C 0.81586 0.83754 0.76502 0.0
C1232 C 0.83552 0.84922 0.77728 0.0
C1233 C 0.78255 0.80576 0.76307 0.0
C1234 C 0.78068 0.80042 0.73824 0.0
C1235 C 0.76249 0.80096 0.77789 0.0
C1236 C 0.763 0.80767 0.80405 0.0
C1237 C 0.76911 0.83125 0.81206 0.0
C1238 C 0.77009 0.83734 0.83673 0.0
C1239 C 0.76477 0.82005 0.85358 0.0
C1240 C 0.75838 0.79665 0.84579 0.0
C1241 C 0.75743 0.79045 0.82114 0.0
H1242 H 0.76556 0.82479 0.87268 0.0
H1243 H 0.75557 0.76684 0.63302 0.0
H1244 H 0.66015 0.22135 0.28026 0.0
H1245 H 0.68697 0.24665 0.25645 0.0
H1246 H 0.74755 0.21093 0.28228 0.0
H1247 H 0.72061 0.18523 0.30619 0.0
H1248 H 0.75715 0.26082 0.27903 0.0
H1249 H 0.72607 0.19494 0.22892 0.0
H1250 H 0.69468 0.16652 0.21104 0.0
H1251 H 0.66055 0.22357 0.17857 0.0
H1252 H 0.69155 0.2524 0.19657 0.0
H1253 H 0.82719 0.31251 0.18385 0.0
H1254 H 0.80838 0.2831 0.2104 0.0
H1255 H 0.73865 0.30589 0.19148 0.0
H1256 H 0.75718 0.33506 0.16495 0.0
H1257 H 0.73832 0.25819 0.19117 0.0
H1258 H 0.76665 0.32412 0.24452 0.0
H1259 H 0.79733 0.35306 0.26286 0.0
H1260 H 0.83642 0.29616 0.2891 0.0
H1261 H 0.80609 0.26687 0.27063 0.0
C1262 C 0.67922 0.21903 0.28115 0.0
C1263 C 0.68824 0.20134 0.29523 0.0
C1264 C 0.69453 0.2335 0.26749 0.0
C1265 C 0.71921 0.23046 0.26731 0.0
C1266 C 0.72854 0.21357 0.28219 0.0
C1267 C 0.71314 0.19901 0.29598 0.0
C1268 C 0.73472 0.24414 0.25045 0.0
C1269 C 0.75338 0.25993 0.25976 0.0
C1270 C 0.72962 0.24316 0.22533 0.0
C1271 C 0.71106 0.22585 0.21424 0.0
C1272 C 0.71179 0.20145 0.2181 0.0
C1273 C 0.69407 0.18526 0.20793 0.0
C1274 C 0.67561 0.19324 0.19371 0.0
C1275 C 0.67486 0.21742 0.18959 0.0
C1276 C 0.69252 0.23369 0.19976 0.0
C1277 C 0.80784 0.31113 0.18524 0.0
C1278 C 0.79369 0.32619 0.17232 0.0
C1279 C 0.79713 0.2944 0.20051 0.0
C1280 C 0.77211 0.29243 0.20311 0.0
C1281 C 0.75798 0.30708 0.18979 0.0
C1282 C 0.76863 0.32381 0.17465 0.0
C1283 C 0.76036 0.27536 0.21978 0.0
C1284 C 0.74238 0.25886 0.21039 0.0
C1285 C 0.76611 0.27574 0.24477 0.0
C1286 C 0.78427 0.29331 0.25596 0.0
C1287 C 0.78189 0.31778 0.25404 0.0
C1288 C 0.79919 0.33425 0.26448 0.0
C1289 C 0.81886 0.32645 0.27707 0.0
C1290 C 0.82121 0.30217 0.2793 0.0
C1291 C 0.80396 0.28563 0.26886 0.0
H1292 H 0.83223 0.33923 0.28515 0.0
H1293 H 0.66191 0.18068 0.18585 0.0
H1294 H 0.3978 0.45473 0.53139 0.0
H1295 H 0.42495 0.47891 0.559 0.0
H1296 H 0.48258 0.47241 0.50894 0.0
H1297 H 0.45573 0.44762 0.48169 0.0
H1298 H 0.49717 0.46674 0.55545 0.0
H1299 H 0.45259 0.52193 0.51133 0.0
H1300 H 0.41589 0.53879 0.49633 0.0
H1301 H 0.3942 0.55231 0.56912 0.0
H1302 H 0.43066 0.53521 0.58456 0.0
H1303 H 0.57742 0.56553 0.58547 0.0
H1304 H 0.54877 0.53571 0.56653 0.0
H1305 H 0.49834 0.54817 0.62281 0.0
H1306 H 0.52689 0.57822 0.64189 0.0
H1307 H 0.47822 0.5491 0.57759 0.0
H1308 H 0.52577 0.49824 0.62164 0.0
H1309 H 0.56323 0.4825 0.63613 0.0
H1310 H 0.57995 0.46136 0.56362 0.0
H1311 H 0.54278 0.47733 0.5486 0.0
C1312 C 0.41626 0.45852 0.52632 0.0
C1313 C 0.42452 0.45 0.50412 0.0
C1314 C 0.4317 0.47231 0.54204 0.0
C1315 C 0.45563 0.47769 0.53579 0.0
C1316 C 0.4641 0.46857 0.51396 0.0
C1317 C 0.44867 0.45478 0.49825 0.0
C1318 C 0.47173 0.49337 0.55169 0.0
C1319 C 0.49316 0.48481 0.56019 0.0
C1320 C 0.46606 0.51667 0.55835 0.0
C1321 C 0.4442 0.52705 0.54909 0.0
C1322 C 0.4399 0.52832 0.52414 0.0
C1323 C 0.41916 0.53795 0.51555 0.0
C1324 C 0.40269 0.54655 0.53176 0.0
C1325 C 0.40696 0.5456 0.55659 0.0
C1326 C 0.42766 0.53595 0.56526 0.0
C1327 C 0.5603 0.56183 0.59393 0.0
C1328 C 0.55433 0.57429 0.61509 0.0
C1329 C 0.54402 0.54471 0.58316 0.0
C1330 C 0.52157 0.53968 0.59342 0.0
C1331 C 0.51564 0.55184 0.6147 0.0
C1332 C 0.53196 0.56895 0.62555 0.0
C1333 C 0.50387 0.52262 0.58105 0.0
C1334 C 0.48212 0.53093 0.57318 0.0
C1335 C 0.50929 0.49912 0.57497 0.0
C1336 C 0.53152 0.48914 0.58396 0.0
C1337 C 0.5375 0.49038 0.60875 0.0
C1338 C 0.55869 0.48141 0.61706 0.0
C1339 C 0.57398 0.47098 0.6008 0.0
C1340 C 0.56809 0.46945 0.57619 0.0
C1341 C 0.54694 0.47844 0.56777 0.0
H1342 H 0.59038 0.46405 0.60728 0.0
H1343 H 0.38664 0.554 0.52508 0.0
H1344 H 0.10924 0.07473 0.16031 0.0
H1345 H 0.1083 0.04187 0.18739 0.0
H1346 H 0.14285 0.08767 0.24345 0.0
H1347 H 0.14472 0.12075 0.21585 0.0
H1348 H 0.16106 0.04593 0.24286 0.0
H1349 H 0.08167 0.07157 0.244 0.0
H1350 H 0.04361 0.08361 0.22678 0.0
H1351 H 0.03046 0.01483 0.19185 0.0
H1352 H 0.0686 0.00246 0.2086 0.0
H1353 H 0.12678 0.96229 0.33309 0.0
H1354 H 0.12997 0.99818 0.3094 0.0
H1355 H 0.1112 0.95593 0.24467 0.0
H1356 H 0.10829 0.91992 0.26835 0.0
H1357 H 0.08441 0.99777 0.25298 0.0
H1358 H 0.16562 0.97361 0.25129 0.0
H1359 H 0.2034 0.9623 0.26975 0.0
H1360 H 0.21214 0.02977 0.30808 0.0
H1361 H 0.17417 0.04134 0.29014 0.0
C1362 C 0.11662 0.0779 0.17841 0.0
C1363 C 0.12683 0.10039 0.18607 0.0
C1364 C 0.11596 0.05909 0.19392 0.0
C1365 C 0.12494 0.06246 0.21764 0.0
C1366 C 0.13565 0.08476 0.22526 0.0
C1367 C 0.13668 0.10361 0.20953 0.0
C1368 C 0.12319 0.04245 0.23419 0.0
C1369 C 0.14421 0.03568 0.24543 0.0
C1370 C 0.10124 0.02888 0.23731 0.0
C1371 C 0.0781 0.03614 0.22744 0.0
C1372 C 0.07073 0.05905 0.23254 0.0
C1373 C 0.04913 0.06593 0.22287 0.0
C1374 C 0.03465 0.05001 0.20819 0.0
C1375 C 0.0417 0.02714 0.20322 0.0
C1376 C 0.06329 0.02017 0.21283 0.0
C1377 C 0.12331 0.96077 0.31381 0.0
C1378 C 0.11712 0.93858 0.30241 0.0
C1379 C 0.12524 0.98116 0.30035 0.0
C1380 C 0.12082 0.97958 0.27538 0.0
C1381 C 0.11463 0.95739 0.26397 0.0
C1382 C 0.11305 0.93694 0.27739 0.0
C1383 C 0.12228 0.00117 0.26119 0.0
C1384 C 0.10117 0.00822 0.25051 0.0
C1385 C 0.14403 0.01513 0.25887 0.0
C1386 C 0.16691 0.00823 0.26959 0.0
C1387 C 0.17547 0.98594 0.26384 0.0
C1388 C 0.19695 0.9795 0.27418 0.0
C1389 C 0.21013 0.99528 0.29014 0.0
C1390 C 0.20189 0.01755 0.29575 0.0
C1391 C 0.1804 0.02406 0.28549 0.0
H1392 H 0.22676 0.99026 0.29811 0.0
H1393 H 0.01795 0.05538 0.2007 0.0
H1394 H 0.19787 0.85949 0.39039 0.0
H1395 H 0.22854 0.86692 0.42229 0.0
H1396 H 0.17737 0.90014 0.46732 0.0
H1397 H 0.14679 0.89315 0.43564 0.0
H1398 H 0.21973 0.92568 0.46843 0.0
H1399 H 0.19101 0.84413 0.47682 0.0
H1400 H 0.18135 0.80263 0.46276 0.0
H1401 H 0.25517 0.79577 0.44533 0.0
H1402 H 0.2652 0.83735 0.459 0.0
H1403 H 0.29041 0.87998 0.5783 0.0
H1404 H 0.25811 0.87674 0.54801 0.0
H1405 H 0.29881 0.92551 0.50371 0.0
H1406 H 0.33115 0.92917 0.53406 0.0
H1407 H 0.26091 0.85924 0.50287 0.0
H1408 H 0.2595 0.95515 0.46994 0.0
H1409 H 0.26695 0.99628 0.4861 0.0
H1410 H 0.24914 0.97374 0.55708 0.0
H1411 H 0.24128 0.93255 0.5413 0.0
C1412 C 0.19314 0.86835 0.40709 0.0
C1413 C 0.16985 0.87564 0.41049 0.0
C1414 C 0.21067 0.87257 0.42528 0.0
C1415 C 0.20513 0.88397 0.44716 0.0
C1416 C 0.18199 0.89139 0.45052 0.0
C1417 C 0.16451 0.88723 0.4324 0.0
C1418 C 0.22326 0.88794 0.46683 0.0
C1419 C 0.22881 0.91119 0.47595 0.0
C1420 C 0.23477 0.86895 0.4768 0.0
C1421 C 0.2288 0.84391 0.46871 0.0
C1422 C 0.20514 0.83382 0.46982 0.0
C1423 C 0.19961 0.81027 0.46195 0.0
C1424 C 0.21762 0.79659 0.4531 0.0
C1425 C 0.24122 0.8064 0.45216 0.0
C1426 C 0.24685 0.82995 0.45999 0.0
C1427 C 0.29239 0.89031 0.56229 0.0
C1428 C 0.31343 0.90475 0.55854 0.0
C1429 C 0.27394 0.88835 0.54497 0.0
C1430 C 0.27612 0.90084 0.52365 0.0
C1431 C 0.2967 0.9159 0.52017 0.0
C1432 C 0.31518 0.91793 0.53753 0.0
C1433 C 0.25744 0.897 0.50448 0.0
C1434 C 0.25189 0.87377 0.49535 0.0
C1435 C 0.24564 0.91596 0.49481 0.0
C1436 C 0.25005 0.94073 0.50446 0.0
C1437 C 0.25709 0.95899 0.48898 0.0
C1438 C 0.2614 0.98231 0.49808 0.0
C1439 C 0.2586 0.98761 0.52262 0.0
C1440 C 0.2514 0.9696 0.5381 0.0
C1441 C 0.24705 0.94626 0.52909 0.0
H1442 H 0.26196 0.00567 0.52962 0.0
H1443 H 0.2133 0.77836 0.44701 0.0
H1444 H 0.37241 0.90977 0.68795 0.0
H1445 H 0.37437 0.93481 0.72482 0.0
H1446 H 0.37732 0.99734 0.68214 0.0
H1447 H 0.37658 0.97237 0.64527 0.0
H1448 H 0.40662 0.00465 0.71804 0.0
H1449 H 0.32429 0.97336 0.70944 0.0
H1450 H 0.29164 0.94177 0.70478 0.0
H1451 H 0.31268 0.91324 0.77202 0.0
H1452 H 0.34567 0.94451 0.77692 0.0
H1453 H 0.36027 0.08987 0.79616 0.0
H1454 H 0.36221 0.05904 0.76452 0.0
H1455 H 0.38265 0.00958 0.81725 0.0
H1456 H 0.3811 0.0405 0.84924 0.0
H1457 H 0.34421 0.99302 0.77993 0.0
H1458 H 0.42505 0.02848 0.78884 0.0
H1459 H 0.4554 0.06229 0.79251 0.0
H1460 H 0.4341 0.08531 0.72291 0.0
H1461 H 0.40334 0.05184 0.71899 0.0
C1462 C 0.37352 0.92886 0.68647 0.0
C1463 C 0.37418 0.93917 0.6638 0.0
C1464 C 0.37455 0.94315 0.70753 0.0
C1465 C 0.37553 0.96795 0.70624 0.0
C1466 C 0.37657 0.97824 0.68358 0.0
C1467 C 0.37608 0.96398 0.66253 0.0
C1468 C 0.37523 0.9833 0.72839 0.0
C1469 C 0.39286 0.00214 0.73145 0.0
C1470 C 0.35758 0.97976 0.74621 0.0
C1471 C 0.3376 0.96111 0.74341 0.0
C1472 C 0.32204 0.96026 0.72316 0.0
C1473 C 0.30347 0.94242 0.72048 0.0
C1474 C 0.30014 0.92546 0.73805 0.0
C1475 C 0.31531 0.92636 0.75839 0.0
C1476 C 0.33394 0.94414 0.76114 0.0
C1477 C 0.36499 0.07241 0.80114 0.0
C1478 C 0.37066 0.06764 0.82518 0.0
C1479 C 0.36613 0.05487 0.78303 0.0
C1480 C 0.37271 0.03224 0.78867 0.0
C1481 C 0.37757 0.02705 0.81269 0.0
C1482 C 0.37677 0.04472 0.83085 0.0
C1483 C 0.37525 0.0144 0.7691 0.0
C1484 C 0.35809 0.99518 0.76659 0.0
C1485 C 0.39304 0.0178 0.75156 0.0
C1486 C 0.41177 0.03775 0.75371 0.0
C1487 C 0.42671 0.04086 0.7744 0.0
C1488 C 0.44401 0.05994 0.77651 0.0
C1489 C 0.44664 0.07597 0.75798 0.0
C1490 C 0.43203 0.0729 0.73726 0.0
C1491 C 0.41468 0.05385 0.73507 0.0
H1492 H 0.46004 0.09074 0.75965 0.0
H1493 H 0.28576 0.91165 0.73594 0.0
H1494 H 0.32723 0.13409 0.96843 0.0
H1495 H 0.29412 0.13236 0.99677 0.0
H1496 H 0.24417 0.11259 0.93808 0.0
H1497 H 0.27734 0.1144 0.90968 0.0
H1498 H 0.22783 0.14656 0.96793 0.0
H1499 H 0.26022 0.07128 0.97593 0.0
H1500 H 0.29216 0.04393 0.9816 0.0
H1501 H 0.30894 0.0758 0.05179 0.0
H1502 H 0.27736 0.10364 0.04639 0.0
H1503 H 0.136 0.12383 0.05464 0.0
H1504 H 0.16319 0.11654 0.02139 0.0
H1505 H 0.22391 0.13893 0.06778 0.0
H1506 H 0.19714 0.14621 0.10093 0.0
H1507 H 0.23079 0.09814 0.04068 0.0
H1508 H 0.20337 0.17668 0.0301 0.0
H1509 H 0.17266 0.20541 0.02461 0.0
H1510 H 0.14731 0.16777 0.9595 0.0
H1511 H 0.17769 0.13861 0.96481 0.0
C1512 C 0.30917 0.12931 0.96169 0.0
C1513 C 0.30467 0.1244 0.93704 0.0
C1514 C 0.29034 0.12826 0.9778 0.0
C1515 C 0.2668 0.12201 0.96949 0.0
C1516 C 0.26224 0.11739 0.94478 0.0
C1517 C 0.2811 0.11851 0.92864 0.0
C1518 C 0.24698 0.12074 0.98669 0.0
C1519 C 0.22817 0.13558 0.98357 0.0
C1520 C 0.24769 0.10661 0.0072 0.0
C1521 C 0.26649 0.08965 0.01068 0.0
C1522 C 0.27081 0.07256 0.99252 0.0
C1523 C 0.28885 0.05696 0.99569 0.0
C1524 C 0.30259 0.05815 0.01703 0.0
C1525 C 0.29828 0.07491 0.03527 0.0
C1526 C 0.28029 0.09058 0.03217 0.0
C1527 C 0.15515 0.12708 0.05775 0.0
C1528 C 0.16442 0.13572 0.08035 0.0
C1529 C 0.1706 0.12293 0.03878 0.0
C1530 C 0.19546 0.12729 0.04223 0.0
C1531 C 0.20475 0.13539 0.06486 0.0
C1532 C 0.18939 0.13968 0.08372 0.0
C1533 C 0.21204 0.12436 0.02217 0.0
C1534 C 0.23022 0.10871 0.02476 0.0
C1535 C 0.2108 0.13778 0.00123 0.0
C1536 C 0.19257 0.1553 0.99802 0.0
C1537 C 0.1911 0.17441 0.01473 0.0
C1538 C 0.17379 0.19079 0.01164 0.0
C1539 C 0.15799 0.18837 0.99177 0.0
C1540 C 0.15952 0.16959 0.97492 0.0
C1541 C 0.17678 0.15313 0.97796 0.0
H1542 H 0.1446 0.20107 0.98939 0.0
H1543 H 0.31656 0.04606 0.01944 0.0
H1544 H 0.07332 0.23125 0.10847 0.0
H1545 H 0.04801 0.26489 0.11226 0.0
H1546 H 0.0468 0.25763 0.18943 0.0
H1547 H 0.07229 0.22399 0.18558 0.0
H1548 H 0.00141 0.25899 0.16728 0.0
H1549 H 0.07725 0.30365 0.16934 0.0
H1550 H 0.11789 0.31529 0.15543 0.0
H1551 H 0.08847 0.33621 0.08808 0.0
H1552 H 0.04765 0.32434 0.10143 0.0
H1553 H 0.9295 0.35557 0.1787 0.0
H1554 H 0.96477 0.33295 0.18524 0.0
H1555 H 0.98051 0.33599 0.10944 0.0
H1556 H 0.94553 0.35904 0.10306 0.0
H1557 H 0.02124 0.33931 0.13662 0.0
H1558 H 0.94772 0.28928 0.13056 0.0
H1559 H 0.90647 0.27644 0.14183 0.0
H1560 H 0.93108 0.26394 0.2137 0.0
H1561 H 0.97246 0.27708 0.20294 0.0
C1562 C 0.06779 0.2371 0.1262 0.0
C1563 C 0.07457 0.22534 0.14676 0.0
C1564 C 0.05353 0.25628 0.12838 0.0
C1565 C 0.04581 0.26379 0.15116 0.0
C1566 C 0.05277 0.25212 0.17176 0.0
C1567 C 0.06725 0.23305 0.16958 0.0
C1568 C 0.02905 0.28274 0.15305 0.0
C1569 C 0.00589 0.27675 0.16115 0.0
C1570 C 0.03485 0.3056 0.14438 0.0
C1571 C 0.05938 0.31295 0.13635 0.0
C1572 C 0.07944 0.31057 0.15149 0.0
C1573 C 0.10252 0.31723 0.14371 0.0
C1574 C 0.10576 0.32645 0.12087 0.0
C1575 C 0.08593 0.32906 0.10577 0.0
C1576 C 0.06281 0.3224 0.11345 0.0
C1577 C 0.94079 0.35166 0.1636 0.0
C1578 C 0.9349 0.35865 0.14038 0.0
C1579 C 0.96085 0.33883 0.16731 0.0
C1580 C 0.97497 0.33252 0.14773 0.0
C1581 C 0.96983 0.34071 0.12476 0.0
C1582 C 0.94988 0.35374 0.12111 0.0
C1583 C 0.99354 0.31546 0.15061 0.0
C1584 C 0.01695 0.32173 0.14328 0.0
C1585 C 0.98791 0.29267 0.15963 0.0
C1586 C 0.96312 0.28442 0.16604 0.0
C1587 C 0.94431 0.28394 0.14881 0.0
C1588 C 0.92091 0.27659 0.1551 0.0
C1589 C 0.91615 0.26945 0.17849 0.0
C1590 C 0.93479 0.26953 0.19561 0.0
C1591 C 0.95822 0.27692 0.18943 0.0
H1592 H 0.89802 0.26379 0.18333 0.0
H1593 H 0.12364 0.3316 0.11488 0.0
H1594 H 0.58431 0.30256 0.82501 0.0
H1595 H 0.55487 0.26826 0.82468 0.0
H1596 H 0.53632 0.28633 0.89783 0.0
H1597 H 0.56515 0.32105 0.89813 0.0
H1598 H 0.5473 0.23255 0.87975 0.0
H1599 H 0.49926 0.30205 0.86876 0.0
H1600 H 0.49083 0.33818 0.8474 0.0
H1601 H 0.4845 0.29792 0.7802 0.0
H1602 H 0.49325 0.26161 0.80118 0.0
H1603 H 0.44035 0.1661 0.9049 0.0
H1604 H 0.47427 0.19533 0.90143 0.0
H1605 H 0.45847 0.19969 0.82525 0.0
H1606 H 0.42344 0.17176 0.82919 0.0
H1607 H 0.46762 0.24078 0.84129 0.0
H1608 H 0.5087 0.17072 0.8498 0.0
H1609 H 0.51925 0.13328 0.86739 0.0
H1610 H 0.54203 0.17093 0.93331 0.0
H1611 H 0.53131 0.20856 0.91625 0.0
C1612 C 0.57404 0.29912 0.84106 0.0
C1613 C 0.57683 0.31446 0.86156 0.0
C1614 C 0.55733 0.27959 0.84083 0.0
C1615 C 0.54365 0.27496 0.86125 0.0
C1616 C 0.54689 0.28976 0.88198 0.0
C1617 C 0.56319 0.30958 0.88205 0.0
C1618 C 0.52499 0.25534 0.86059 0.0
C1619 C 0.52976 0.23421 0.87154 0.0
C1620 C 0.50267 0.25747 0.84897 0.0
C1621 C 0.4972 0.27923 0.83647 0.0
C1622 C 0.49631 0.30097 0.8494 0.0
C1623 C 0.49142 0.32146 0.83737 0.0
C1624 C 0.48721 0.32037 0.81244 0.0
C1625 C 0.48781 0.29876 0.7995 0.0
C1626 C 0.49272 0.27822 0.81145 0.0
C1627 C 0.44426 0.17328 0.88743 0.0
C1628 C 0.42941 0.16684 0.86731 0.0
C1629 C 0.46376 0.18979 0.88538 0.0
C1630 C 0.46929 0.1994 0.86295 0.0
C1631 C 0.4546 0.19257 0.84274 0.0
C1632 C 0.43464 0.17663 0.84497 0.0
C1633 C 0.48949 0.2176 0.86092 0.0
C1634 C 0.48512 0.23865 0.84937 0.0
C1635 C 0.51242 0.21505 0.87147 0.0
C1636 C 0.51902 0.19246 0.88179 0.0
C1637 C 0.51581 0.171 0.8681 0.0
C1638 C 0.52184 0.14974 0.87797 0.0
C1639 C 0.53126 0.14972 0.90146 0.0
C1640 C 0.53472 0.17097 0.91512 0.0
C1641 C 0.5287 0.19228 0.90534 0.0
H1642 H 0.53591 0.13324 0.90907 0.0
H1643 H 0.48342 0.33625 0.80316 0.0
H1644 H 0.91011 0.69262 0.35254 0.0
H1645 H 0.94637 0.71777 0.34683 0.0
H1646 H 0.98947 0.66106 0.36754 0.0
H1647 H 0.9529 0.6359 0.37435 0.0
H1648 H 0.00539 0.69927 0.3901 0.0
H1649 H 0.98825 0.68081 0.30805 0.0
H1650 H 0.96422 0.67405 0.27046 0.0
H1651 H 0.94843 0.74733 0.27206 0.0
H1652 H 0.97205 0.75448 0.30987 0.0
H1653 H 0.10287 0.78529 0.35515 0.0
H1654 H 0.07625 0.74883 0.35317 0.0
H1655 H 0.0154 0.79001 0.36625 0.0
H1656 H 0.04181 0.82644 0.36889 0.0
H1657 H 0.01595 0.75319 0.32184 0.0
H1658 H 0.02786 0.76626 0.40999 0.0
H1659 H 0.05397 0.77125 0.44636 0.0
H1660 H 0.08322 0.70448 0.42966 0.0
H1661 H 0.05748 0.69929 0.39297 0.0
C1662 C 0.92727 0.6853 0.35556 0.0
C1663 C 0.92864 0.66228 0.36393 0.0
C1664 C 0.94806 0.69968 0.35209 0.0
C1665 C 0.9707 0.69117 0.35631 0.0
C1666 C 0.97218 0.66794 0.36407 0.0
C1667 C 0.9513 0.65361 0.36793 0.0
C1668 C 0.99246 0.70748 0.35466 0.0
C1669 C 0.00801 0.71061 0.37486 0.0
C1670 C 0.99606 0.72227 0.33476 0.0
C1671 C 0.98189 0.71816 0.31189 0.0
C1672 C 0.97954 0.69546 0.30048 0.0
C1673 C 0.966 0.69156 0.27911 0.0
C1674 C 0.9548 0.71024 0.26889 0.0
C1675 C 0.95714 0.73288 0.27999 0.0
C1676 C 0.97065 0.73688 0.30137 0.0
C1677 C 0.08382 0.78653 0.35774 0.0
C1678 C 0.07435 0.80865 0.36219 0.0
C1679 C 0.06874 0.76575 0.35661 0.0
C1680 C 0.04402 0.76695 0.35949 0.0
C1681 C 0.03451 0.78893 0.36396 0.0
C1682 C 0.0496 0.80963 0.36559 0.0
C1683 C 0.02778 0.74538 0.35758 0.0
C1684 C 0.0135 0.74132 0.33668 0.0
C1685 C 0.02568 0.72943 0.37653 0.0
C1686 C 0.04103 0.73256 0.39859 0.0
C1687 C 0.04005 0.75278 0.41393 0.0
C1688 C 0.05473 0.75561 0.43464 0.0
C1689 C 0.07032 0.73823 0.44027 0.0
C1690 C 0.07119 0.71795 0.42525 0.0
C1691 C 0.05656 0.71506 0.4045 0.0
H1692 H 0.08166 0.74045 0.45631 0.0
H1693 H 0.94431 0.70719 0.25235 0.0
H1694 H 0.5941 0.72656 0.59353 0.0
H1695 H 0.56783 0.7558 0.57841 0.0
H1696 H 0.50606 0.70762 0.58961 0.0
H1697 H 0.53231 0.67846 0.60535 0.0
H1698 H 0.50501 0.73844 0.54566 0.0
H1699 H 0.51748 0.74096 0.63346 0.0
H1700 H 0.54363 0.74224 0.66983 0.0
H1701 H 0.58048 0.8066 0.64707 0.0
H1702 H 0.55466 0.80552 0.61041 0.0
H1703 H 0.4092 0.80963 0.5718 0.0
H1704 H 0.43975 0.78109 0.56721 0.0
H1705 H 0.49521 0.83751 0.57985 0.0
H1706 H 0.46456 0.86573 0.5863 0.0
H1707 H 0.50294 0.804 0.60737 0.0
H1708 H 0.48569 0.80626 0.52343 0.0
H1709 H 0.46076 0.80526 0.48627 0.0
H1710 H 0.43463 0.73368 0.49918 0.0
H1711 H 0.45914 0.73435 0.53662 0.0
C1712 C 0.57494 0.72213 0.59245 0.0
C1713 C 0.56506 0.70061 0.60103 0.0
C1714 C 0.56004 0.73867 0.58357 0.0
C1715 C 0.53512 0.73379 0.58307 0.0
C1716 C 0.52532 0.71152 0.58976 0.0
C1717 C 0.54026 0.69498 0.5988 0.0
C1718 C 0.51933 0.75319 0.57959 0.0
C1719 C 0.50434 0.7528 0.55908 0.0
C1720 C 0.51916 0.7721 0.59689 0.0
C1721 C 0.53433 0.77303 0.61913 0.0
C1722 C 0.53125 0.7553 0.63616 0.0
C1723 C 0.54597 0.75602 0.65684 0.0
C1724 C 0.56375 0.77446 0.66073 0.0
C1725 C 0.56674 0.79231 0.64401 0.0
C1726 C 0.55204 0.79167 0.62331 0.0
C1727 C 0.42793 0.81589 0.5735 0.0
C1728 C 0.43459 0.83977 0.5796 0.0
C1729 C 0.4454 0.79967 0.57047 0.0
C1730 C 0.46982 0.80719 0.5729 0.0
C1731 C 0.47648 0.83132 0.57782 0.0
C1732 C 0.45899 0.84745 0.58132 0.0
C1733 C 0.48815 0.78952 0.57331 0.0
C1734 C 0.50369 0.79007 0.59349 0.0
C1735 C 0.48888 0.77097 0.55552 0.0
C1736 C 0.47415 0.77043 0.53295 0.0
C1737 C 0.4745 0.79036 0.51845 0.0
C1738 C 0.46046 0.78984 0.49731 0.0
C1739 C 0.44609 0.76944 0.49039 0.0
C1740 C 0.44577 0.74948 0.50457 0.0
C1741 C 0.45976 0.74991 0.52574 0.0
H1742 H 0.43524 0.76907 0.47402 0.0
H1743 H 0.57518 0.77494 0.6767 0.0
H1744 H 0.90404 0.10109 0.71281 0.0
H1745 H 0.90769 0.07736 0.74885 0.0
H1746 H 0.8768 0.01554 0.70864 0.0
H1747 H 0.87288 0.0393 0.67289 0.0
H1748 H 0.85563 0.02198 0.75186 0.0
H1749 H 0.93593 0.02203 0.72082 0.0
H1750 H 0.97445 0.04066 0.70755 0.0
H1751 H 0.98672 0.07442 0.77765 0.0
H1752 H 0.94806 0.05624 0.79124 0.0
H1753 H 0.88217 0.92096 0.80902 0.0
H1754 H 0.8837 0.95331 0.78146 0.0
H1755 H 0.90907 0.0023 0.83916 0.0
H1756 H 0.90774 0.96963 0.86731 0.0
H1757 H 0.93268 0.00854 0.7933 0.0
H1758 H 0.85362 0.0032 0.82529 0.0
H1759 H 0.81571 0.98251 0.83755 0.0
H1760 H 0.8014 0.95727 0.76446 0.0
H1761 H 0.83941 0.9775 0.75182 0.0
C1762 C 0.89818 0.08239 0.71182 0.0
C1763 C 0.88825 0.07182 0.69033 0.0
C1764 C 0.90032 0.06891 0.73226 0.0
C1765 C 0.89256 0.04473 0.73131 0.0
C1766 C 0.88284 0.0342 0.7097 0.0
C1767 C 0.88073 0.04765 0.68933 0.0
C1768 C 0.89384 0.03032 0.7529 0.0
C1769 C 0.87248 0.019 0.76089 0.0
C1770 C 0.91575 0.02712 0.7651 0.0
C1771 C 0.93897 0.03804 0.75694 0.0
C1772 C 0.94673 0.03362 0.73333 0.0
C1773 C 0.96861 0.04405 0.72577 0.0
C1774 C 0.98298 0.05878 0.74172 0.0
C1775 C 0.97553 0.06305 0.7653 0.0
C1776 C 0.95365 0.05268 0.77294 0.0
C1777 C 0.88824 0.9385 0.81599 0.0
C1778 C 0.89454 0.94273 0.84048 0.0
C1779 C 0.88908 0.957 0.80015 0.0
C1780 C 0.89609 0.98016 0.80843 0.0
C1781 C 0.90347 0.98447 0.83257 0.0
C1782 C 0.90265 0.96584 0.84857 0.0
C1783 C 0.89457 0.99968 0.79166 0.0
C1784 C 0.9158 0.01198 0.7846 0.0
C1785 C 0.87253 0.00373 0.78017 0.0
C1786 C 0.84944 0.9918 0.78763 0.0
C1787 C 0.84246 0.99312 0.81185 0.0
C1788 C 0.82094 0.98149 0.81887 0.0
C1789 C 0.80617 0.96856 0.8018 0.0
C1790 C 0.81286 0.9673 0.77766 0.0
C1791 C 0.83437 0.97888 0.77056 0.0
H1792 H 0.78952 0.95956 0.80727 0.0
H1793 H 0.99992 0.06684 0.73583 0.0
H1794 H 0.79042 0.10625 0.58425 0.0
H1795 H 0.76184 0.10275 0.55025 0.0
H1796 H 0.81895 0.08804 0.50185 0.0
H1797 H 0.84766 0.09129 0.53569 0.0
H1798 H 0.79222 0.12719 0.48995 0.0
H1799 H 0.7791 0.04542 0.50915 0.0
H1800 H 0.77054 0.01198 0.53577 0.0
H1801 H 0.7023 0.03814 0.55276 0.0
H1802 H 0.71058 0.07193 0.5265 0.0
H1803 H 0.70934 0.11984 0.38999 0.0
H1804 H 0.74162 0.11263 0.41868 0.0
H1805 H 0.69043 0.10863 0.47612 0.0
H1806 H 0.65814 0.11449 0.44734 0.0
H1807 H 0.71763 0.07463 0.47995 0.0
H1808 H 0.73169 0.15849 0.46727 0.0
H1809 H 0.7394 0.19406 0.44331 0.0
H1810 H 0.80443 0.16692 0.41736 0.0
H1811 H 0.79694 0.13103 0.44094 0.0
C1812 C 0.79682 0.1018 0.56645 0.0
C1813 C 0.82129 0.0992 0.56261 0.0
C1814 C 0.78048 0.09972 0.54709 0.0
C1815 C 0.7884 0.09516 0.52365 0.0
C1816 C 0.8126 0.09152 0.51988 0.0
C1817 C 0.82891 0.0933 0.53926 0.0
C1818 C 0.77182 0.09668 0.50295 0.0
C1819 C 0.77611 0.11543 0.48737 0.0
C1820 C 0.75062 0.08168 0.50021 0.0
C1821 C 0.74555 0.06131 0.51596 0.0
C1822 C 0.76235 0.04415 0.5187 0.0
C1823 C 0.75753 0.02511 0.5337 0.0
C1824 C 0.73591 0.02296 0.54598 0.0
C1825 C 0.71904 0.03983 0.54324 0.0
C1826 C 0.72377 0.05891 0.52827 0.0
C1827 C 0.70513 0.11761 0.40879 0.0
C1828 C 0.68136 0.11767 0.41654 0.0
C1829 C 0.72353 0.11353 0.42516 0.0
C1830 C 0.71846 0.11022 0.4496 0.0
C1831 C 0.69475 0.11091 0.45734 0.0
C1832 C 0.67634 0.11439 0.44093 0.0
C1833 C 0.7376 0.10564 0.46724 0.0
C1834 C 0.73384 0.08626 0.48225 0.0
C1835 C 0.75908 0.12039 0.4698 0.0
C1836 C 0.7636 0.14196 0.45563 0.0
C1837 C 0.74754 0.16003 0.4563 0.0
C1838 C 0.75188 0.18026 0.44282 0.0
C1839 C 0.77235 0.18271 0.42876 0.0
C1840 C 0.78856 0.16497 0.42821 0.0
C1841 C 0.78428 0.14469 0.44164 0.0
H1842 H 0.77569 0.19839 0.41834 0.0
H1843 H 0.73221 0.0082 0.55758 0.0
H1844 H 0.59297 0.04633 0.33427 0.0
H1845 H 0.59538 0.01404 0.30413 0.0
H1846 H 0.65755 0.0508 0.27394 0.0
H1847 H 0.65474 0.08348 0.30337 0.0
H1848 H 0.62974 0.03382 0.23948 0.0
H1849 H 0.66227 0.00258 0.31054 0.0
H1850 H 0.66362 0.9919 0.35323 0.0
H1851 H 0.60083 0.94435 0.34163 0.0
H1852 H 0.59891 0.95499 0.29893 0.0
H1853 H 0.65427 0.90455 0.19746 0.0
H1854 H 0.6574 0.93643 0.22858 0.0
H1855 H 0.59528 0.96622 0.1978 0.0
H1856 H 0.59237 0.93493 0.16639 0.0
H1857 H 0.6287 0.94988 0.26302 0.0
H1858 H 0.60129 0.0253 0.20154 0.0
H1859 H 0.60483 0.0362 0.15902 0.0
H1860 H 0.66693 0.99605 0.15194 0.0
H1861 H 0.66398 0.98519 0.1945 0.0
C1862 C 0.6071 0.04754 0.32115 0.0
C1863 C 0.62367 0.0674 0.32117 0.0
C1864 C 0.60856 0.02903 0.30406 0.0
C1865 C 0.6269 0.02986 0.28707 0.0
C1866 C 0.64328 0.0498 0.28691 0.0
C1867 C 0.64163 0.06846 0.30374 0.0
C1868 C 0.62876 0.01015 0.26913 0.0
C1869 C 0.62959 0.01548 0.24465 0.0
C1870 C 0.62919 0.98628 0.27593 0.0
C1871 C 0.63034 0.97973 0.30158 0.0
C1872 C 0.64866 0.98996 0.31713 0.0
C1873 C 0.64954 0.9839 0.34132 0.0
C1874 C 0.6323 0.96749 0.35015 0.0
C1875 C 0.61417 0.95707 0.33477 0.0
C1876 C 0.61319 0.96309 0.31057 0.0
C1877 C 0.64127 0.91787 0.19735 0.0
C1878 C 0.62321 0.91736 0.17935 0.0
C1879 C 0.64307 0.93603 0.21515 0.0
C1880 C 0.62681 0.95385 0.21521 0.0
C1881 C 0.60834 0.95292 0.19772 0.0
C1882 C 0.60667 0.93498 0.17983 0.0
C1883 C 0.62909 0.97357 0.23344 0.0
C1884 C 0.62902 0.96825 0.25793 0.0
C1885 C 0.63014 0.99752 0.22671 0.0
C1886 C 0.63227 0.00427 0.20117 0.0
C1887 C 0.61577 0.0189 0.19095 0.0
C1888 C 0.61766 0.02505 0.16683 0.0
C1889 C 0.63605 0.01677 0.15277 0.0
C1890 C 0.65264 0.00239 0.16283 0.0
C1891 C 0.65085 0.99621 0.18694 0.0
H1892 H 0.63746 0.02153 0.1341 0.0
H1893 H 0.63301 0.96282 0.36888 0.0
H1894 H 0.701 0.89553 0.06843 0.0
H1895 H 0.72597 0.89822 0.0326 0.0
H1896 H 0.6753 0.84935 0.99345 0.0
H1897 H 0.65033 0.84663 0.02947 0.0
H1898 H 0.72257 0.83865 0.98756 0.0
H1899 H 0.67588 0.90449 0.97965 0.0
H1900 H 0.65623 0.94038 0.9926 0.0
H1901 H 0.72501 0.97702 0.00782 0.0
H1902 H 0.7451 0.94121 0.99536 0.0
H1903 H 0.8001 0.86234 0.88874 0.0
H1904 H 0.76228 0.85987 0.91041 0.0
H1905 H 0.79414 0.90716 0.96669 0.0
H1906 H 0.83176 0.90998 0.94519 0.0
H1907 H 0.74802 0.91713 0.95546 0.0
H1908 H 0.79244 0.84728 0.97232 0.0
H1909 H 0.81186 0.81113 0.95952 0.0
H1910 H 0.74576 0.78227 0.92616 0.0
H1911 H 0.72602 0.81836 0.93863 0.0
C1912 C 0.69539 0.88529 0.05219 0.0
C1913 C 0.67405 0.87078 0.05147 0.0
C1914 C 0.70945 0.88696 0.03175 0.0
C1915 C 0.70224 0.87419 0.01037 0.0
C1916 C 0.68103 0.85939 0.00978 0.0
C1917 C 0.66689 0.85784 0.03022 0.0
C1918 C 0.71738 0.87609 0.98894 0.0
C1919 C 0.72771 0.8557 0.98009 0.0
C1920 C 0.72396 0.89836 0.97927 0.0
C1921 C 0.71201 0.92008 0.98666 0.0
C1922 C 0.68683 0.92013 0.98592 0.0
C1923 C 0.67561 0.94048 0.99315 0.0
C1924 C 0.68936 0.96096 0.00105 0.0
C1925 C 0.71438 0.96114 0.00169 0.0
C1926 C 0.7257 0.94083 0.99451 0.0
C1927 C 0.79897 0.87239 0.90562 0.0
C1928 C 0.819 0.88618 0.91539 0.0
C1929 C 0.77737 0.87095 0.91793 0.0
C1930 C 0.77555 0.88321 0.94018 0.0
C1931 C 0.79521 0.89764 0.94948 0.0
C1932 C 0.81675 0.8991 0.93724 0.0
C1933 C 0.75395 0.87988 0.95493 0.0
C1934 C 0.74236 0.9 0.96247 0.0
C1935 C 0.7461 0.85736 0.96329 0.0
C1936 C 0.75785 0.83556 0.95618 0.0
C1937 C 0.7821 0.83325 0.96217 0.0
C1938 C 0.79315 0.81278 0.95499 0.0
C1939 C 0.78007 0.79444 0.94198 0.0
C1940 C 0.75588 0.7965 0.93621 0.0
C1941 C 0.74475 0.81694 0.94335 0.0
H1942 H 0.78866 0.77862 0.93641 0.0
H1943 H 0.68064 0.97669 0.00664 0.0
H1944 H 0.0619 0.67983 0.83966 0.0
H1945 H 0.03657 0.71296 0.84687 0.0
H1946 H 0.03913 0.70136 0.92332 0.0
H1947 H 0.06468 0.66841 0.91617 0.0
H1948 H 0.99349 0.71129 0.90572 0.0
H1949 H 0.0753 0.74285 0.90323 0.0
H1950 H 0.11542 0.74763 0.88553 0.0
H1951 H 0.08524 0.77768 0.82286 0.0
H1952 H 0.04484 0.77265 0.83998 0.0
H1953 H 0.94524 0.82189 0.93228 0.0
H1954 H 0.97392 0.79091 0.93342 0.0
H1955 H 0.98379 0.79615 0.85672 0.0
H1956 H 0.95579 0.82746 0.85576 0.0
H1957 H 0.02546 0.79025 0.87958 0.0
H1958 H 0.94418 0.75468 0.8788 0.0
H1959 H 0.90322 0.74827 0.89424 0.0
H1960 H 0.93167 0.72491 0.96103 0.0
H1961 H 0.97285 0.73153 0.94609 0.0
C1962 C 0.05682 0.68429 0.85794 0.0
C1963 C 0.06519 0.67181 0.87738 0.0
C1964 C 0.04244 0.70311 0.86204 0.0
C1965 C 0.03636 0.70969 0.88565 0.0
C1966 C 0.04372 0.69649 0.905 0.0
C1967 C 0.05817 0.67768 0.90089 0.0
C1968 C 0.0233 0.7311 0.89014 0.0
C1969 C 1.0006 0.72865 0.90044 0.0
C1970 C 0.03262 0.75359 0.88291 0.0
C1971 C 0.057 0.75722 0.87283 0.0
C1972 C 0.07719 0.75035 0.88561 0.0
C1973 C 0.09999 0.75311 0.87568 0.0
C1974 C 0.10288 0.76292 0.85307 0.0
C1975 C 0.08298 0.77007 0.84037 0.0
C1976 C 0.06012 0.76729 0.85019 0.0
C1977 C 0.95395 0.81664 0.91584 0.0
C1978 C 0.94826 0.82665 0.89388 0.0
C1979 C 0.97015 0.79895 0.91646 0.0
C1980 C 0.98064 0.79105 0.89508 0.0
C1981 C 0.97582 0.80197 0.87339 0.0
C1982 C 0.95975 0.81966 0.8728 0.0
C1983 C 0.99538 0.7704 0.89473 0.0
C1984 C 0.01847 0.77298 0.88523 0.0
C1985 C 0.98633 0.74799 0.90251 0.0
C1986 C 0.96159 0.74387 0.91145 0.0
C1987 C 0.9417 0.74836 0.89685 0.0
C1988 C 0.91845 0.74466 0.9055 0.0
C1989 C 0.91484 0.73626 0.92863 0.0
C1990 C 0.93449 0.73147 0.94314 0.0
C1991 C 0.95779 0.73519 0.93459 0.0
H1992 H 0.89682 0.7334 0.9353 0.0
H1993 H 0.12054 0.76502 0.8454 0.0
H1994 H 0.45105 0.64354 0.112 0.0
H1995 H 0.48187 0.67653 0.11339 0.0
H1996 H 0.42741 0.72615 0.1238 0.0
H1997 H 0.39646 0.69332 0.12273 0.0
H1998 H 0.46444 0.73875 0.08883 0.0
H1999 H 0.4542 0.71343 0.1708 0.0
H2000 H 0.45226 0.68366 0.20227 0.0
H2001 H 0.52454 0.6672 0.18752 0.0
H2002 H 0.52677 0.69664 0.15569 0.0
H2003 H 0.53619 0.84041 0.12676 0.0
H2004 H 0.50496 0.80793 0.12545 0.0
H2005 H 0.55892 0.7575 0.13306 0.0
H2006 H 0.59015 0.78997 0.13539 0.0
H2007 H 0.52192 0.74471 0.15838 0.0
H2008 H 0.53364 0.76895 0.07731 0.0
H2009 H 0.5367 0.79715 0.04441 0.0
H2010 H 0.46372 0.81369 0.05504 0.0
H2011 H 0.46032 0.78582 0.08825 0.0
C2012 C 0.44561 0.6615 0.1143 0.0
C2013 C 0.42141 0.66591 0.11744 0.0
C2014 C 0.4632 0.68024 0.11515 0.0
C2015 C 0.45675 0.70357 0.11887 0.0
C2016 C 0.43257 0.70816 0.12095 0.0
C2017 C 0.415 0.68942 0.12045 0.0
C2018 C 0.47535 0.72316 0.12173 0.0
C2019 C 0.47689 0.7403 0.10413 0.0
C2020 C 0.4918 0.72458 0.14141 0.0
C2021 C 0.49056 0.70705 0.1607 0.0
C2022 C 0.4696 0.70332 0.17413 0.0
C2023 C 0.46846 0.68653 0.19205 0.0
C2024 C 0.48824 0.6735 0.19685 0.0
C2025 C 0.50922 0.67728 0.18377 0.0
C2026 C 0.51044 0.69402 0.16579 0.0
C2027 C 0.54134 0.8224 0.12836 0.0
C2028 C 0.56555 0.81763 0.13096 0.0
C2029 C 0.52353 0.80388 0.12749 0.0
C2030 C 0.52972 0.78031 0.12857 0.0
C2031 C 0.55381 0.77558 0.13208 0.0
C2032 C 0.5716 0.79413 0.1334 0.0
C2033 C 0.51115 0.76053 0.12545 0.0
C2034 C 0.50957 0.74328 0.14302 0.0
C2035 C 0.49488 0.75882 0.1055 0.0
C2036 C 0.4968 0.77546 0.08541 0.0
C2037 C 0.5183 0.77872 0.07274 0.0
C2038 C 0.52009 0.79463 0.05402 0.0
C2039 C 0.50044 0.80725 0.04768 0.0
C2040 C 0.47893 0.80393 0.06 0.0
C2041 C 0.47706 0.78806 0.07875 0.0
H2042 H 0.50186 0.81957 0.03319 0.0
H2043 H 0.48732 0.66051 0.21073 0.0
H2044 H 0.9413 0.16383 0.59537 0.0
H2045 H 0.96596 0.20105 0.60124 0.0
H2046 H 0.90244 0.23902 0.61146 0.0
H2047 H 0.8775 0.2018 0.60599 0.0
H2048 H 0.9493 0.26104 0.58279 0.0
H2049 H 0.91756 0.23067 0.65859 0.0
H2050 H 0.90755 0.19744 0.68513 0.0
H2051 H 0.98108 0.17987 0.68553 0.0
H2052 H 0.99141 0.21277 0.65862 0.0
H2053 H 0.02484 0.35414 0.6348 0.0
H2054 H 0.98816 0.3279 0.63173 0.0
H2055 H 0.02919 0.26802 0.64684 0.0
H2056 H 0.0656 0.29413 0.65084 0.0
H2057 H 0.98667 0.26136 0.66473 0.0
H2058 H 0.01901 0.28633 0.58817 0.0
H2059 H 0.03188 0.31598 0.55859 0.0
H2060 H 0.961 0.34078 0.55661 0.0
H2061 H 0.94781 0.31144 0.58644 0.0
C2062 C 0.9325 0.18017 0.59809 0.0
C2063 C 0.90754 0.17992 0.60066 0.0
C2064 C 0.9466 0.20136 0.60142 0.0
C2065 C 0.93586 0.2225 0.60699 0.0
C2066 C 0.91087 0.22275 0.60717 0.0
C2067 C 0.89674 0.2015 0.60417 0.0
C2068 C 0.95091 0.2432 0.6163 0.0
C2069 C 0.9571 0.26155 0.60087 0.0
C2070 C 0.96122 0.24334 0.63972 0.0
C2071 C 0.9552 0.22403 0.65647 0.0
C2072 C 0.93155 0.21961 0.66421 0.0
C2073 C 0.92582 0.20086 0.67933 0.0
C2074 C 0.94366 0.18652 0.68697 0.0
C2075 C 0.96728 0.19098 0.67958 0.0
C2076 C 0.97308 0.20969 0.66442 0.0
C2077 C 0.0259 0.33547 0.63809 0.0
C2078 C 0.04811 0.32607 0.64259 0.0
C2079 C 0.00497 0.32052 0.63626 0.0
C2080 C 0.00613 0.29598 0.63837 0.0
C2081 C 0.02794 0.28692 0.645 0.0
C2082 C 0.04877 0.30187 0.64723 0.0
C2083 C 0.98558 0.2793 0.6311 0.0
C2084 C 0.97838 0.26147 0.6469 0.0
C2085 C 0.97467 0.27948 0.60783 0.0
C2086 C 0.98251 0.29692 0.58973 0.0
C2087 C 0.00622 0.29821 0.58152 0.0
C2088 C 0.01357 0.31494 0.56471 0.0
C2089 C 0.99729 0.33031 0.55579 0.0
C2090 C 0.9736 0.32891 0.56359 0.0
C2091 C 0.96618 0.31223 0.58044 0.0
H2092 H 0.00301 0.34326 0.54278 0.0
H2093 H 0.93919 0.17199 0.69865 0.0
H2094 H 0.43603 0.32276 0.45169 0.0
H2095 H 0.46704 0.29385 0.45112 0.0
H2096 H 0.4851 0.31301 0.37871 0.0
H2097 H 0.45452 0.3419 0.37939 0.0
H2098 H 0.46991 0.26425 0.38485 0.0
H2099 H 0.5241 0.3272 0.42026 0.0
H2100 H 0.53693 0.35792 0.45136 0.0
H2101 H 0.5364 0.30508 0.50512 0.0
H2102 H 0.52322 0.27407 0.47437 0.0
H2103 H 0.56657 0.20018 0.35137 0.0
H2104 H 0.54141 0.23265 0.36151 0.0
H2105 H 0.53995 0.21187 0.43563 0.0
H2106 H 0.56609 0.18 0.42571 0.0
H2107 H 0.545 0.2595 0.43292 0.0
H2108 H 0.49279 0.19642 0.39904 0.0
H2109 H 0.47871 0.16477 0.36939 0.0
H2110 H 0.47308 0.2163 0.31492 0.0
H2111 H 0.48749 0.24825 0.34416 0.0
C2112 C 0.44716 0.32114 0.436 0.0
C2113 C 0.44293 0.33411 0.41547 0.0
C2114 C 0.46474 0.30472 0.43567 0.0
C2115 C 0.47809 0.30131 0.4148 0.0
C2116 C 0.47482 0.3154 0.3949 0.0
C2117 C 0.45743 0.3318 0.39529 0.0
C2118 C 0.49344 0.28131 0.41236 0.0
C2119 C 0.48647 0.26329 0.39517 0.0
C2120 C 0.51438 0.27974 0.42662 0.0
C2121 C 0.52239 0.29836 0.44507 0.0
C2122 C 0.52648 0.32216 0.43875 0.0
C2123 C 0.53388 0.33962 0.45631 0.0
C2124 C 0.5374 0.33347 0.48022 0.0
C2125 C 0.53362 0.30983 0.4866 0.0
C2126 C 0.5262 0.2923 0.46911 0.0
C2127 C 0.56105 0.20274 0.36985 0.0
C2128 C 0.56794 0.18756 0.38773 0.0
C2129 C 0.5466 0.22113 0.3756 0.0
C2130 C 0.53854 0.22435 0.39924 0.0
C2131 C 0.5459 0.20954 0.41727 0.0
C2132 C 0.56053 0.19124 0.41154 0.0
C2133 C 0.52187 0.24281 0.40479 0.0
C2134 C 0.5284 0.26038 0.42268 0.0
C2135 C 0.50025 0.24386 0.3914 0.0
C2136 C 0.4914 0.22471 0.37376 0.0
C2137 C 0.48872 0.20099 0.3807 0.0
C2138 C 0.48065 0.183 0.36397 0.0
C2139 C 0.47505 0.18852 0.34027 0.0
C2140 C 0.47744 0.21205 0.33328 0.0
C2141 C 0.48553 0.23012 0.34993 0.0
H2142 H 0.46881 0.17456 0.32735 0.0
H2143 H 0.54313 0.34701 0.49378 0.0
H2144 H 0.65668 0.45593 0.81411 0.0
H2145 H 0.6552 0.49374 0.79386 0.0
H2146 H 0.5805 0.47657 0.7754 0.0
H2147 H 0.58214 0.43864 0.79535 0.0
H2148 H 0.6049 0.49571 0.73803 0.0
H2149 H 0.59514 0.51336 0.82203 0.0
H2150 H 0.60559 0.51333 0.86537 0.0
H2151 H 0.67208 0.55333 0.85276 0.0
H2152 H 0.66219 0.55326 0.80924 0.0
H2153 H 0.57892 0.60533 0.69947 0.0
H2154 H 0.57675 0.57351 0.72819 0.0
H2155 H 0.65165 0.58896 0.74676 0.0
H2156 H 0.65354 0.62164 0.71872 0.0
H2157 H 0.62601 0.571 0.78489 0.0
H2158 H 0.6354 0.55139 0.69981 0.0
H2159 H 0.62333 0.55207 0.65687 0.0
H2160 H 0.55561 0.5156 0.67207 0.0
H2161 H 0.56712 0.51505 0.7152 0.0
C2162 C 0.64014 0.46014 0.80528 0.0
C2163 C 0.61958 0.44454 0.80592 0.0
C2164 C 0.63923 0.48174 0.79398 0.0
C2165 C 0.61766 0.48801 0.7834 0.0
C2166 C 0.59729 0.47204 0.78348 0.0
C2167 C 0.59821 0.45048 0.7948 0.0
C2168 C 0.61618 0.51142 0.77268 0.0
C2169 C 0.60923 0.51217 0.74834 0.0
C2170 C 0.6221 0.53284 0.78614 0.0
C2171 C 0.62803 0.5331 0.81233 0.0
C2172 C 0.61208 0.52199 0.82846 0.0
C2173 C 0.61788 0.52201 0.85307 0.0
C2174 C 0.63951 0.53327 0.86181 0.0
C2175 C 0.65535 0.54459 0.84596 0.0
C2176 C 0.64964 0.54457 0.82132 0.0
C2177 C 0.59461 0.60254 0.71047 0.0
C2178 C 0.61645 0.61561 0.7069 0.0
C2179 C 0.59341 0.58433 0.72673 0.0
C2180 C 0.61424 0.57846 0.73894 0.0
C2181 C 0.63544 0.59314 0.73732 0.0
C2182 C 0.63651 0.61179 0.72139 0.0
C2183 C 0.61478 0.55524 0.75028 0.0
C2184 C 0.62163 0.55451 0.77465 0.0
C2185 C 0.60863 0.53378 0.73688 0.0
C2186 C 0.60205 0.53336 0.71078 0.0
C2187 C 0.61791 0.54358 0.69401 0.0
C2188 C 0.61116 0.54396 0.66964 0.0
C2189 C 0.5887 0.53392 0.66175 0.0
C2190 C 0.57299 0.52339 0.67821 0.0
C2191 C 0.57963 0.52302 0.70262 0.0
H2192 H 0.58348 0.53426 0.64289 0.0
H2193 H 0.64398 0.53328 0.88087 0.0
H2194 H 0.69719 0.34628 0.89114 0.0
H2195 H 0.72817 0.34612 0.92285 0.0
H2196 H 0.69221 0.39841 0.96448 0.0
H2197 H 0.66104 0.39834 0.93328 0.0
H2198 H 0.75989 0.37906 0.94251 0.0
H2199 H 0.69556 0.38769 0.02304 0.0
H2200 H 0.65354 0.37611 0.03274 0.0
H2201 H 0.65242 0.3184 0.98019 0.0
H2202 H 0.69451 0.32943 0.97042 0.0
H2203 H 0.82272 0.41944 0.04955 0.0
H2204 H 0.79587 0.41286 0.01442 0.0
H2205 H 0.77207 0.34393 0.03961 0.0
H2206 H 0.79826 0.3507 0.07518 0.0
H2207 H 0.73535 0.36565 0.02675 0.0
H2208 H 0.80957 0.35077 0.99034 0.0
H2209 H 0.85206 0.35868 0.98007 0.0
H2210 H 0.83474 0.42115 0.94352 0.0
H2211 H 0.79218 0.4138 0.95385 0.0
C2212 C 0.69593 0.3578 0.90702 0.0
C2213 C 0.67652 0.37216 0.90979 0.0
C2214 C 0.71366 0.3577 0.92508 0.0
C2215 C 0.71226 0.37196 0.94616 0.0
C2216 C 0.69335 0.38688 0.94858 0.0
C2217 C 0.67556 0.38685 0.93069 0.0
C2218 C 0.73027 0.3711 0.96591 0.0
C2219 C 0.75459 0.37604 0.96093 0.0
C2220 C 0.72335 0.36656 0.98981 0.0
C2221 C 0.69814 0.35952 0.99588 0.0
C2222 C 0.68638 0.37246 0.01365 0.0
C2223 C 0.66255 0.366 0.01914 0.0
C2224 C 0.6503 0.34657 0.00704 0.0
C2225 C 0.6619 0.3335 0.98949 0.0
C2226 C 0.68574 0.33986 0.98395 0.0
C2227 C 0.81188 0.40282 0.04754 0.0
C2228 C 0.81254 0.38564 0.0652 0.0
C2229 C 0.79665 0.39902 0.02736 0.0
C2230 C 0.78215 0.37778 0.02424 0.0
C2231 C 0.78308 0.36046 0.04166 0.0
C2232 C 0.79807 0.36436 0.06198 0.0
C2233 C 0.76502 0.3742 0.00354 0.0
C2234 C 0.74078 0.36846 0.00833 0.0
C2235 C 0.77214 0.37741 0.97943 0.0
C2236 C 0.7977 0.38182 0.97303 0.0
C2237 C 0.81484 0.36629 0.98025 0.0
C2238 C 0.83894 0.37065 0.9744 0.0
C2239 C 0.8461 0.39043 0.96119 0.0
C2240 C 0.82917 0.40584 0.95376 0.0
C2241 C 0.80505 0.40157 0.95958 0.0
H2242 H 0.86477 0.39378 0.95668 0.0
H2243 H 0.63184 0.34162 0.0113 0.0
H2244 H 0.83012 0.41237 0.20324 0.0
H2245 H 0.82683 0.43903 0.23828 0.0
H2246 H 0.82723 0.49875 0.19179 0.0
H2247 H 0.83202 0.47217 0.15675 0.0
H2248 H 0.85829 0.50798 0.2247 0.0
H2249 H 0.77635 0.47746 0.22602 0.0
H2250 H 0.74279 0.44672 0.22574 0.0
H2251 H 0.76963 0.42027 0.29182 0.0
H2252 H 0.80353 0.45068 0.29234 0.0
H2253 H 0.83154 0.59361 0.31234 0.0
H2254 H 0.82252 0.56299 0.28097 0.0
H2255 H 0.85355 0.51139 0.3251 0.0
H2256 H 0.8631 0.54214 0.35683 0.0
H2257 H 0.8054 0.49776 0.29507 0.0
H2258 H 0.88906 0.52822 0.29057 0.0
H2259 H 0.9208 0.56078 0.29033 0.0
H2260 H 0.88735 0.58914 0.22845 0.0
H2261 H 0.85518 0.55692 0.22859 0.0
C2262 C 0.82898 0.43113 0.20045 0.0
C2263 C 0.83147 0.44028 0.17734 0.0
C2264 C 0.82695 0.44636 0.22051 0.0
C2265 C 0.82662 0.47093 0.21772 0.0
C2266 C 0.82758 0.47988 0.19441 0.0
C2267 C 0.83024 0.46471 0.17441 0.0
C2268 C 0.82812 0.48746 0.23912 0.0
C2269 C 0.84638 0.50586 0.23983 0.0
C2270 C 0.81308 0.48443 0.25927 0.0
C2271 C 0.7926 0.46624 0.25911 0.0
C2272 C 0.77519 0.46499 0.24041 0.0
C2273 C 0.75609 0.44764 0.24022 0.0
C2274 C 0.75411 0.43152 0.25872 0.0
C2275 C 0.77119 0.43276 0.27749 0.0
C2276 C 0.79033 0.45008 0.27776 0.0
C2277 C 0.83622 0.57573 0.31565 0.0
C2278 C 0.84835 0.57039 0.33701 0.0
C2279 C 0.83091 0.55825 0.29771 0.0
C2280 C 0.83742 0.5351 0.30084 0.0
C2281 C 0.84832 0.52925 0.32256 0.0
C2282 C 0.85391 0.54684 0.34053 0.0
C2283 C 0.83528 0.51799 0.28019 0.0
C2284 C 0.81708 0.49964 0.27973 0.0
C2285 C 0.8501 0.52115 0.26007 0.0
C2286 C 0.8696 0.54032 0.25975 0.0
C2287 C 0.88837 0.54152 0.27705 0.0
C2288 C 0.90645 0.55989 0.27691 0.0
C2289 C 0.90605 0.57706 0.25943 0.0
C2290 C 0.88761 0.57585 0.242 0.0
C2291 C 0.86946 0.55753 0.2421 0.0
H2292 H 0.92007 0.59127 0.25935 0.0
H2293 H 0.73932 0.41809 0.25853 0.0
H2294 H 0.70396 0.66626 0.62597 0.0
H2295 H 0.73758 0.6667 0.59849 0.0
H2296 H 0.70411 0.60569 0.55906 0.0
H2297 H 0.67045 0.6049 0.58655 0.0
H2298 H 0.75377 0.60477 0.56284 0.0
H2299 H 0.69432 0.65967 0.54111 0.0
H2300 H 0.66939 0.69325 0.54938 0.0
H2301 H 0.73278 0.73924 0.56409 0.0
H2302 H 0.75807 0.70582 0.55622 0.0
H2303 H 0.79319 0.61077 0.44452 0.0
H2304 H 0.7679 0.61167 0.48017 0.0
H2305 H 0.8093 0.67441 0.50791 0.0
H2306 H 0.83452 0.67353 0.47197 0.0
H2307 H 0.7606 0.67684 0.51406 0.0
H2308 H 0.82038 0.62342 0.52986 0.0
H2309 H 0.84542 0.5901 0.52102 0.0
H2310 H 0.78268 0.54164 0.51804 0.0
H2311 H 0.75717 0.57475 0.52635 0.0
C2312 C 0.70392 0.65262 0.61175 0.0
C2313 C 0.68432 0.63576 0.60819 0.0
C2314 C 0.72316 0.65294 0.59607 0.0
C2315 C 0.72304 0.63649 0.57657 0.0
C2316 C 0.70442 0.61858 0.574 0.0
C2317 C 0.68516 0.61823 0.58967 0.0
C2318 C 0.74095 0.63926 0.55747 0.0
C2319 C 0.75526 0.62045 0.5521 0.0
C2320 C 0.74324 0.66006 0.54396 0.0
C2321 C 0.72806 0.68021 0.54834 0.0
C2322 C 0.70292 0.67691 0.54627 0.0
C2323 C 0.68873 0.69591 0.55086 0.0
C2324 C 0.69949 0.71835 0.55733 0.0
C2325 C 0.72447 0.72184 0.55912 0.0
C2326 C 0.73874 0.70288 0.55459 0.0
C2327 C 0.79655 0.62489 0.45814 0.0
C2328 C 0.81555 0.64208 0.45585 0.0
C2329 C 0.78231 0.62533 0.47847 0.0
C2330 C 0.78707 0.64287 0.49678 0.0
C2331 C 0.80549 0.66069 0.49397 0.0
C2332 C 0.81978 0.66022 0.47358 0.0
C2333 C 0.77304 0.64211 0.51905 0.0
C2334 C 0.75946 0.6613 0.52503 0.0
C2335 C 0.77152 0.62171 0.53317 0.0
C2336 C 0.78683 0.60163 0.52857 0.0
C2337 C 0.81189 0.60568 0.52715 0.0
C2338 C 0.82617 0.58683 0.52224 0.0
C2339 C 0.81565 0.56377 0.51894 0.0
C2340 C 0.79081 0.55951 0.52059 0.0
C2341 C 0.77642 0.57833 0.52542 0.0
H2342 H 0.82674 0.54919 0.51514 0.0
H2343 H 0.68848 0.73304 0.56089 0.0
H2344 H 0.33579 0.55817 0.20508 0.0
H2345 H 0.33853 0.53734 0.24295 0.0
H2346 H 0.41512 0.53603 0.23494 0.0
H2347 H 0.41248 0.55746 0.19751 0.0
H2348 H 0.35318 0.49464 0.25132 0.0
H2349 H 0.44231 0.54098 0.29048 0.0
H2350 H 0.46467 0.58014 0.28984 0.0
H2351 H 0.39908 0.61317 0.27646 0.0
H2352 H 0.37629 0.57428 0.27738 0.0
H2353 H 0.40169 0.42189 0.33165 0.0
H2354 H 0.40222 0.45188 0.30117 0.0
H2355 H 0.37667 0.50234 0.35313 0.0
H2356 H 0.37668 0.47229 0.38417 0.0
H2357 H 0.40889 0.52291 0.31864 0.0
H2358 H 0.33616 0.47264 0.3209 0.0
H2359 H 0.31297 0.43403 0.32279 0.0
H2360 H 0.34197 0.41143 0.25532 0.0
H2361 H 0.36562 0.44982 0.2532 0.0
C2362 C 0.35318 0.55347 0.21155 0.0
C2363 C 0.37394 0.55937 0.19858 0.0
C2364 C 0.35472 0.54158 0.23306 0.0
C2365 C 0.37707 0.53549 0.24189 0.0
C2366 C 0.39777 0.54097 0.22864 0.0
C2367 C 0.39622 0.55289 0.20716 0.0
C2368 C 0.37866 0.52267 0.26454 0.0
C2369 C 0.36524 0.50092 0.26608 0.0
C2370 C 0.39412 0.5311 0.28394 0.0
C2371 C 0.40763 0.55466 0.28381 0.0
C2372 C 0.43264 0.55661 0.28754 0.0
C2373 C 0.4454 0.57876 0.2871 0.0
C2374 C 0.43331 0.59912 0.28305 0.0
C2375 C 0.40843 0.59738 0.27952 0.0
C2376 C 0.39559 0.57528 0.27997 0.0
C2377 C 0.39676 0.43956 0.33676 0.0
C2378 C 0.38873 0.44476 0.36006 0.0
C2379 C 0.3971 0.45664 0.31936 0.0
C2380 C 0.38895 0.47905 0.32484 0.0
C2381 C 0.3829 0.48504 0.34864 0.0
C2382 C 0.38289 0.46793 0.36628 0.0
C2383 C 0.38394 0.49471 0.30495 0.0
C2384 C 0.39667 0.51688 0.30394 0.0
C2385 C 0.36751 0.48691 0.28614 0.0
C2386 C 0.35275 0.46407 0.28696 0.0
C2387 C 0.33765 0.45941 0.30651 0.0
C2388 C 0.32443 0.43757 0.30762 0.0
C2389 C 0.326 0.42029 0.28919 0.0
C2390 C 0.34076 0.42485 0.26957 0.0
C2391 C 0.35405 0.44666 0.26838 0.0
H2392 H 0.31577 0.40338 0.2901 0.0
H2393 H 0.44323 0.61624 0.28269 0.0
H2394 H 0.16481 0.6137 0.94892 0.0
H2395 H 0.19814 0.61393 0.97808 0.0
H2396 H 0.24859 0.62569 0.92106 0.0
H2397 H 0.21522 0.62615 0.89171 0.0
H2398 H 0.25356 0.58391 0.95536 0.0
H2399 H 0.24877 0.66841 0.95225 0.0
H2400 H 0.22784 0.70539 0.95291 0.0
H2401 H 0.20327 0.69166 0.02431 0.0
H2402 H 0.22374 0.65438 0.02393 0.0
H2403 H 0.35204 0.59645 0.0403 0.0
H2404 H 0.32463 0.5994 0.0059 0.0
H2405 H 0.26808 0.61583 0.05449 0.0
H2406 H 0.29559 0.61377 0.0888 0.0
H2407 H 0.26984 0.64578 0.02036 0.0
H2408 H 0.27 0.56085 0.02347 0.0
H2409 H 0.28801 0.52226 0.02392 0.0
H2410 H 0.31807 0.53454 0.95439 0.0
H2411 H 0.30049 0.57337 0.95367 0.0
C2412 C 0.18299 0.61655 0.94263 0.0
C2413 C 0.1875 0.61986 0.91811 0.0
C2414 C 0.20194 0.61671 0.95926 0.0
C2415 C 0.22565 0.61979 0.95157 0.0
C2416 C 0.23031 0.62331 0.92718 0.0
C2417 C 0.2113 0.62367 0.91055 0.0
C2418 C 0.2454 0.61841 0.96919 0.0
C2419 C 0.2576 0.59759 0.96933 0.0
C2420 C 0.24991 0.63604 0.98763 0.0
C2421 C 0.23761 0.65848 0.98796 0.0
C2422 C 0.2387 0.67315 0.968 0.0
C2423 C 0.22696 0.6942 0.96835 0.0
C2424 C 0.21418 0.70084 0.98862 0.0
C2425 C 0.21316 0.68648 0.00861 0.0
C2426 C 0.22485 0.6654 0.00835 0.0
C2427 C 0.33367 0.60036 0.04363 0.0
C2428 C 0.32594 0.60497 0.0672 0.0
C2429 C 0.31802 0.60202 0.02397 0.0
C2430 C 0.29429 0.60779 0.02764 0.0
C2431 C 0.28637 0.61156 0.05123 0.0
C2432 C 0.30207 0.61028 0.07082 0.0
C2433 C 0.27785 0.61095 0.00699 0.0
C2434 C 0.26619 0.63214 0.00626 0.0
C2435 C 0.27357 0.59345 0.98824 0.0
C2436 C 0.28418 0.57013 0.98865 0.0
C2437 C 0.28063 0.55541 0.00837 0.0
C2438 C 0.29072 0.53348 0.00866 0.0
C2439 C 0.30424 0.52599 0.98923 0.0
C2440 C 0.30764 0.54039 0.96945 0.0
C2441 C 0.2976 0.56235 0.96908 0.0
H2442 H 0.31204 0.509 0.98948 0.0
H2443 H 0.20511 0.71715 0.98886 0.0
H2444 H 0.14629 0.58172 0.79431 0.0
H2445 H 0.1483 0.54998 0.76361 0.0
H2446 H 0.13029 0.49787 0.81648 0.0
H2447 H 0.12793 0.52961 0.84748 0.0
H2448 H 0.17046 0.48825 0.78297 0.0
H2449 H 0.08765 0.50842 0.78428 0.0
H2450 H 0.05563 0.53628 0.78355 0.0
H2451 H 0.07848 0.55944 0.71421 0.0
H2452 H 0.11089 0.53196 0.71471 0.0
H2453 H 0.13458 0.38963 0.70482 0.0
H2454 H 0.14088 0.42076 0.73625 0.0
H2455 H 0.13584 0.474 0.68279 0.0
H2456 H 0.12826 0.44281 0.65142 0.0
H2457 H 0.10859 0.48353 0.71741 0.0
H2458 H 0.1901 0.46313 0.71402 0.0
H2459 H 0.22335 0.43666 0.71403 0.0
H2460 H 0.20541 0.41556 0.78546 0.0
H2461 H 0.17184 0.44167 0.78576 0.0
C2462 C 0.1429 0.56351 0.79951 0.0
C2463 C 0.13681 0.55813 0.82327 0.0
C2464 C 0.14409 0.54546 0.78195 0.0
C2465 C 0.13941 0.52175 0.78792 0.0
C2466 C 0.13401 0.51616 0.81171 0.0
C2467 C 0.13251 0.53427 0.82928 0.0
C2468 C 0.13887 0.50298 0.76885 0.0
C2469 C 0.15684 0.48691 0.76872 0.0
C2470 C 0.12145 0.50193 0.75006 0.0
C2471 C 0.10185 0.51832 0.74965 0.0
C2472 C 0.08598 0.51961 0.76898 0.0
C2473 C 0.06774 0.5353 0.76859 0.0
C2474 C 0.06507 0.54967 0.74888 0.0
C2475 C 0.0806 0.54833 0.72948 0.0
C2476 C 0.09889 0.53268 0.7298 0.0
C2477 C 0.1352 0.40798 0.69973 0.0
C2478 C 0.1308 0.41387 0.67575 0.0
C2479 C 0.13896 0.42578 0.7177 0.0
C2480 C 0.13906 0.44974 0.71187 0.0
C2481 C 0.13575 0.45562 0.68771 0.0
C2482 C 0.13146 0.43783 0.66982 0.0
C2483 C 0.14039 0.46858 0.73115 0.0
C2484 C 0.12243 0.48475 0.73145 0.0
C2485 C 0.15804 0.46984 0.74988 0.0
C2486 C 0.17832 0.45422 0.74982 0.0
C2487 C 0.19314 0.45272 0.72967 0.0
C2488 C 0.21206 0.4378 0.72963 0.0
C2489 C 0.21645 0.4244 0.74971 0.0
C2490 C 0.20197 0.42594 0.7699 0.0
C2491 C 0.18301 0.44082 0.77003 0.0
H2492 H 0.2311 0.41285 0.74964 0.0
H2493 H 0.05093 0.56181 0.74861 0.0
H2494 H 0.2905 0.3608 0.39221 0.0
H2495 H 0.25246 0.34847 0.41116 0.0
H2496 H 0.27832 0.38237 0.47837 0.0
H2497 H 0.31597 0.39501 0.4598 0.0
H2498 H 0.26168 0.33009 0.4773 0.0
H2499 H 0.24099 0.40931 0.45257 0.0
H2500 H 0.23372 0.43834 0.42158 0.0
H2501 H 0.17983 0.38972 0.38771 0.0
H2502 H 0.18704 0.36027 0.41836 0.0
H2503 H 0.19028 0.35851 0.57117 0.0
H2504 H 0.21661 0.35664 0.53665 0.0
H2505 H 0.15642 0.331 0.49084 0.0
H2506 H 0.12986 0.33287 0.52576 0.0
H2507 H 0.18408 0.36728 0.47093 0.0
H2508 H 0.19709 0.29302 0.5028 0.0
H2509 H 0.20377 0.26416 0.53408 0.0
H2510 H 0.27145 0.30114 0.55348 0.0
H2511 H 0.26503 0.33046 0.52261 0.0
C2512 C 0.28791 0.36593 0.41093 0.0
C2513 C 0.30631 0.37871 0.42458 0.0
C2514 C 0.26623 0.35887 0.42165 0.0
C2515 C 0.2629 0.36439 0.4461 0.0
C2516 C 0.28079 0.37789 0.45946 0.0
C2517 C 0.30224 0.38516 0.44877 0.0
C2518 C 0.24151 0.35513 0.45867 0.0
C2519 C 0.24459 0.33799 0.47586 0.0
C2520 C 0.21907 0.36478 0.45585 0.0
C2521 C 0.21481 0.38248 0.4375 0.0
C2522 C 0.22779 0.40471 0.43835 0.0
C2523 C 0.22363 0.42127 0.42089 0.0
C2524 C 0.20639 0.41584 0.40262 0.0
C2525 C 0.19322 0.39387 0.40183 0.0
C2526 C 0.19734 0.37725 0.41923 0.0
C2527 C 0.1828 0.3521 0.55381 0.0
C2528 C 0.15828 0.34552 0.55098 0.0
C2529 C 0.19778 0.35101 0.53414 0.0
C2530 C 0.18849 0.34325 0.51133 0.0
C2531 C 0.16389 0.3368 0.50838 0.0
C2532 C 0.14884 0.33785 0.5282 0.0
C2533 C 0.20473 0.34327 0.49068 0.0
C2534 C 0.20075 0.35857 0.47186 0.0
C2535 C 0.22636 0.33175 0.49187 0.0
C2536 C 0.23055 0.31398 0.51033 0.0
C2537 C 0.21336 0.29508 0.5138 0.0
C2538 C 0.2171 0.27863 0.53147 0.0
C2539 C 0.23802 0.28082 0.54576 0.0
C2540 C 0.25526 0.29944 0.54237 0.0
C2541 C 0.25161 0.31596 0.52474 0.0
H2542 H 0.24087 0.26807 0.55944 0.0
H2543 H 0.20319 0.42868 0.38913 0.0
loop_
_geom_bond_atom_site_label_1
_geom_bond_atom_site_label_2
_geom_bond_distance
_geom_bond_site_symmetry_2
_ccdc_geom_bond_type
Co0 O3 1.970 . S
Co0 N17 1.989 . S
Co0 O25 1.967 . S
Co0 O32 1.920 . S
Co1 O4 1.966 . S
Co1 N10 2.022 . S
Co1 N18 1.993 . S
Co1 O26 1.941 . S
C2 O3 1.258 . S
C2 O4 1.263 . S
O3 Co0 1.970 . S
O3 C2 1.258 . S
O4 Co1 1.966 . S
O4 C2 1.263 . S
C5 O6 1.235 . S
C5 O32 1.289 . S
O6 C5 1.235 . S
C7 C9 1.400 . S
C7 N10 1.351 . S
C7 C12 1.501 . S
C8 C9 1.387 . S
C8 N11 1.341 . S
C9 C7 1.400 . S
C9 C8 1.387 . S
N10 Co1 2.022 . S
N10 C7 1.351 . S
N10 N11 1.365 . S
N11 C8 1.341 . S
N11 N10 1.365 . S
N11 H31 0.862 . S
C12 C7 1.501 . S
C12 H13 0.961 . S
C12 H14 0.961 . S
C12 H15 0.960 . S
H13 C12 0.961 . S
H14 C12 0.961 . S
H15 C12 0.960 . S
C16 N17 1.342 . S
C16 C20 1.401 . S
C16 C21 1.499 . S
N17 Co0 1.989 . S
N17 C16 1.342 . S
N17 N18 1.388 . S
N18 Co1 1.993 . S
N18 N17 1.388 . S
N18 C19 1.346 . S
C19 N18 1.346 . S
C19 C20 1.396 . S
C19 C29 1.510 . S
C20 C16 1.401 . S
C20 C19 1.396 . S
C21 C16 1.499 . S
C21 H22 0.959 . S
C21 H23 0.960 . S
C21 H24 0.961 . S
H22 C21 0.959 . S
H23 C21 0.960 . S
H24 C21 0.961 . S
O25 Co0 1.967 . S
O25 C33 1.258 . S
O26 Co1 1.941 . S
O26 C33 1.266 . S
H27 C29 0.959 . S
H28 C29 0.961 . S
C29 C19 1.510 . S
C29 H27 0.959 . S
C29 H28 0.961 . S
C29 H30 0.960 . S
H30 C29 0.960 . S
H31 N11 0.862 . S
O32 Co0 1.920 . S
O32 C5 1.289 . S
C33 O25 1.258 . S
C33 O26 1.266 . S
Co34 O37 1.970 . S
Co34 N51 1.989 . S
Co34 O59 1.967 . S
Co34 O66 1.920 . S
Co35 O38 1.966 . S
Co35 N44 2.022 . S
Co35 N52 1.993 . S
Co35 O60 1.941 . S
C36 O37 1.258 . S
C36 O38 1.263 . S
O37 Co34 1.970 . S
O37 C36 1.258 . S
O38 Co35 1.966 . S
O38 C36 1.263 . S
C39 O40 1.235 . S
C39 O66 1.289 . S
O40 C39 1.235 . S
C41 C43 1.400 . S
C41 N44 1.351 . S
C41 C46 1.501 . S
C42 C43 1.387 . S
C42 N45 1.341 . S
C43 C41 1.400 . S
C43 C42 1.387 . S
N44 Co35 2.022 . S
N44 C41 1.351 . S
N44 N45 1.365 . S
N45 C42 1.341 . S
N45 N44 1.365 . S
N45 H65 0.862 . S
C46 C41 1.501 . S
C46 H47 0.961 . S
C46 H48 0.961 . S
C46 H49 0.960 . S
H47 C46 0.961 . S
H48 C46 0.961 . S
H49 C46 0.960 . S
C50 N51 1.342 . S
C50 C54 1.401 . S
C50 C55 1.499 . S
N51 Co34 1.989 . S
N51 C50 1.342 . S
N51 N52 1.388 . S
N52 Co35 1.993 . S
N52 N51 1.388 . S
N52 C53 1.346 . S
C53 N52 1.346 . S
C53 C54 1.396 . S
C53 C63 1.510 . S
C54 C50 1.401 . S
C54 C53 1.396 . S
C55 C50 1.499 . S
C55 H56 0.959 . S
C55 H57 0.960 . S
C55 H58 0.961 . S
H56 C55 0.959 . S
H57 C55 0.960 . S
H58 C55 0.961 . S
O59 Co34 1.967 . S
O59 C67 1.258 . S
O60 Co35 1.941 . S
O60 C67 1.266 . S
H61 C63 0.959 . S
H62 C63 0.961 . S
C63 C53 1.510 . S
C63 H61 0.959 . S
C63 H62 0.961 . S
C63 H64 0.960 . S
H64 C63 0.960 . S
H65 N45 0.862 . S
O66 Co34 1.920 . S
O66 C39 1.289 . S
C67 O59 1.258 . S
C67 O60 1.266 . S
Co68 O71 1.970 . S
Co68 N85 1.989 . S
Co68 O93 1.967 . S
Co68 O100 1.920 . S
Co69 O72 1.966 . S
Co69 N78 2.022 . S
Co69 N86 1.993 . S
Co69 O94 1.941 . S
C70 O71 1.258 . S
C70 O72 1.263 . S
O71 Co68 1.970 . S
O71 C70 1.258 . S
O72 Co69 1.966 . S
O72 C70 1.263 . S
C73 O74 1.235 . S
C73 O100 1.289 . S
O74 C73 1.235 . S
C75 C77 1.400 . S
C75 N78 1.351 . S
C75 C80 1.501 . S
C76 C77 1.387 . S
C76 N79 1.341 . S
C77 C75 1.400 . S
C77 C76 1.387 . S
N78 Co69 2.022 . S
N78 C75 1.351 . S
N78 N79 1.365 . S
N79 C76 1.341 . S
N79 N78 1.365 . S
N79 H99 0.862 . S
C80 C75 1.501 . S
C80 H81 0.961 . S
C80 H82 0.961 . S
C80 H83 0.960 . S
H81 C80 0.961 . S
H82 C80 0.961 . S
H83 C80 0.960 . S
C84 N85 1.342 . S
C84 C88 1.401 . S
C84 C89 1.499 . S
N85 Co68 1.989 . S
N85 C84 1.342 . S
N85 N86 1.388 . S
N86 Co69 1.993 . S
N86 N85 1.388 . S
N86 C87 1.346 . S
C87 N86 1.346 . S
C87 C88 1.396 . S
C87 C97 1.510 . S
C88 C84 1.401 . S
C88 C87 1.396 . S
C89 C84 1.499 . S
C89 H90 0.959 . S
C89 H91 0.960 . S
C89 H92 0.961 . S
H90 C89 0.959 . S
H91 C89 0.960 . S
H92 C89 0.961 . S
O93 Co68 1.967 . S
O93 C101 1.258 . S
O94 Co69 1.941 . S
O94 C101 1.266 . S
H95 C97 0.959 . S
H96 C97 0.961 . S
C97 C87 1.510 . S
C97 H95 0.959 . S
C97 H96 0.961 . S
C97 H98 0.960 . S
H98 C97 0.960 . S
H99 N79 0.862 . S
O100 Co68 1.920 . S
O100 C73 1.289 . S
C101 O93 1.258 . S
C101 O94 1.266 . S
Co102 O105 1.970 . S
Co102 N119 1.989 . S
Co102 O127 1.967 . S
Co102 O134 1.920 . S
Co103 O106 1.966 . S
Co103 N112 2.022 . S
Co103 N120 1.993 . S
Co103 O128 1.941 . S
C104 O105 1.258 . S
C104 O106 1.263 . S
O105 Co102 1.970 . S
O105 C104 1.258 . S
O106 Co103 1.966 . S
O106 C104 1.263 . S
C107 O108 1.235 . S
C107 O134 1.289 . S
O108 C107 1.235 . S
C109 C111 1.400 . S
C109 N112 1.351 . S
C109 C114 1.501 . S
C110 C111 1.387 . S
C110 N113 1.341 . S
C111 C109 1.400 . S
C111 C110 1.387 . S
N112 Co103 2.022 . S
N112 C109 1.351 . S
N112 N113 1.365 . S
N113 C110 1.341 . S
N113 N112 1.365 . S
N113 H133 0.862 . S
C114 C109 1.501 . S
C114 H115 0.961 . S
C114 H116 0.961 . S
C114 H117 0.960 . S
H115 C114 0.961 . S
H116 C114 0.961 . S
H117 C114 0.960 . S
C118 N119 1.342 . S
C118 C122 1.401 . S
C118 C123 1.499 . S
N119 Co102 1.989 . S
N119 C118 1.342 . S
N119 N120 1.388 . S
N120 Co103 1.993 . S
N120 N119 1.388 . S
N120 C121 1.346 . S
C121 N120 1.346 . S
C121 C122 1.396 . S
C121 C131 1.510 . S
C122 C118 1.401 . S
C122 C121 1.396 . S
C123 C118 1.499 . S
C123 H124 0.959 . S
C123 H125 0.960 . S
C123 H126 0.961 . S
H124 C123 0.959 . S
H125 C123 0.960 . S
H126 C123 0.961 . S
O127 Co102 1.967 . S
O127 C135 1.258 . S
O128 Co103 1.941 . S
O128 C135 1.266 . S
H129 C131 0.959 . S
H130 C131 0.961 . S
C131 C121 1.510 . S
C131 H129 0.959 . S
C131 H130 0.961 . S
C131 H132 0.960 . S
H132 C131 0.960 . S
H133 N113 0.862 . S
O134 Co102 1.920 . S
O134 C107 1.289 . S
C135 O127 1.258 . S
C135 O128 1.266 . S
Co136 O139 1.970 . S
Co136 N153 1.989 . S
Co136 O161 1.967 . S
Co136 O168 1.920 . S
Co137 O140 1.966 . S
Co137 N146 2.022 . S
Co137 N154 1.993 . S
Co137 O162 1.941 . S
C138 O139 1.258 . S
C138 O140 1.263 . S
O139 Co136 1.970 . S
O139 C138 1.258 . S
O140 Co137 1.966 . S
O140 C138 1.263 . S
C141 O142 1.235 . S
C141 O168 1.289 . S
O142 C141 1.235 . S
C143 C145 1.400 . S
C143 N146 1.351 . S
C143 C148 1.501 . S
C144 C145 1.387 . S
C144 N147 1.341 . S
C145 C143 1.400 . S
C145 C144 1.387 . S
N146 Co137 2.022 . S
N146 C143 1.351 . S
N146 N147 1.365 . S
N147 C144 1.341 . S
N147 N146 1.365 . S
N147 H167 0.862 . S
C148 C143 1.501 . S
C148 H149 0.961 . S
C148 H150 0.961 . S
C148 H151 0.960 . S
H149 C148 0.961 . S
H150 C148 0.961 . S
H151 C148 0.960 . S
C152 N153 1.342 . S
C152 C156 1.401 . S
C152 C157 1.499 . S
N153 Co136 1.989 . S
N153 C152 1.342 . S
N153 N154 1.388 . S
N154 Co137 1.993 . S
N154 N153 1.388 . S
N154 C155 1.346 . S
C155 N154 1.346 . S
C155 C156 1.396 . S
C155 C165 1.510 . S
C156 C152 1.401 . S
C156 C155 1.396 . S
C157 C152 1.499 . S
C157 H158 0.959 . S
C157 H159 0.960 . S
C157 H160 0.961 . S
H158 C157 0.959 . S
H159 C157 0.960 . S
H160 C157 0.961 . S
O161 Co136 1.967 . S
O161 C169 1.258 . S
O162 Co137 1.941 . S
O162 C169 1.266 . S
H163 C165 0.959 . S
H164 C165 0.961 . S
C165 C155 1.510 . S
C165 H163 0.959 . S
C165 H164 0.961 . S
C165 H166 0.960 . S
H166 C165 0.960 . S
H167 N147 0.862 . S
O168 Co136 1.920 . S
O168 C141 1.289 . S
C169 O161 1.258 . S
C169 O162 1.266 . S
Co170 O173 1.970 . S
Co170 N187 1.989 . S
Co170 O195 1.967 . S
Co170 O202 1.920 . S
Co171 O174 1.966 . S
Co171 N180 2.022 . S
Co171 N188 1.993 . S
Co171 O196 1.941 . S
C172 O173 1.258 . S
C172 O174 1.263 . S
O173 Co170 1.970 . S
O173 C172 1.258 . S
O174 Co171 1.966 . S
O174 C172 1.263 . S
C175 O176 1.235 . S
C175 O202 1.289 . S
O176 C175 1.235 . S
C177 C179 1.400 . S
C177 N180 1.351 . S
C177 C182 1.501 . S
C178 C179 1.387 . S
C178 N181 1.341 . S
C179 C177 1.400 . S
C179 C178 1.387 . S
N180 Co171 2.022 . S
N180 C177 1.351 . S
N180 N181 1.365 . S
N181 C178 1.341 . S
N181 N180 1.365 . S
N181 H201 0.862 . S
C182 C177 1.501 . S
C182 H183 0.961 . S
C182 H184 0.961 . S
C182 H185 0.960 . S
H183 C182 0.961 . S
H184 C182 0.961 . S
H185 C182 0.960 . S
C186 N187 1.342 . S
C186 C190 1.401 . S
C186 C191 1.499 . S
N187 Co170 1.989 . S
N187 C186 1.342 . S
N187 N188 1.388 . S
N188 Co171 1.993 . S
N188 N187 1.388 . S
N188 C189 1.346 . S
C189 N188 1.346 . S
C189 C190 1.396 . S
C189 C199 1.510 . S
C190 C186 1.401 . S
C190 C189 1.396 . S
C191 C186 1.499 . S
C191 H192 0.959 . S
C191 H193 0.960 . S
C191 H194 0.961 . S
H192 C191 0.959 . S
H193 C191 0.960 . S
H194 C191 0.961 . S
O195 Co170 1.967 . S
O195 C203 1.258 . S
O196 Co171 1.941 . S
O196 C203 1.266 . S
H197 C199 0.959 . S
H198 C199 0.961 . S
C199 C189 1.510 . S
C199 H197 0.959 . S
C199 H198 0.961 . S
C199 H200 0.960 . S
H200 C199 0.960 . S
H201 N181 0.862 . S
O202 Co170 1.920 . S
O202 C175 1.289 . S
C203 O195 1.258 . S
C203 O196 1.266 . S
Co204 O207 1.970 . S
Co204 N221 1.989 . S
Co204 O229 1.967 . S
Co204 O236 1.920 . S
Co205 O208 1.966 . S
Co205 N214 2.022 . S
Co205 N222 1.993 . S
Co205 O230 1.941 . S
C206 O207 1.258 . S
C206 O208 1.263 . S
O207 Co204 1.970 . S
O207 C206 1.258 . S
O208 Co205 1.966 . S
O208 C206 1.263 . S
C209 O210 1.235 . S
C209 O236 1.289 . S
O210 C209 1.235 . S
C211 C213 1.400 . S
C211 N214 1.351 . S
C211 C216 1.501 . S
C212 C213 1.387 . S
C212 N215 1.341 . S
C213 C211 1.400 . S
C213 C212 1.387 . S
N214 Co205 2.022 . S
N214 C211 1.351 . S
N214 N215 1.365 . S
N215 C212 1.341 . S
N215 N214 1.365 . S
N215 H235 0.862 . S
C216 C211 1.501 . S
C216 H217 0.961 . S
C216 H218 0.961 . S
C216 H219 0.960 . S
H217 C216 0.961 . S
H218 C216 0.961 . S
H219 C216 0.960 . S
C220 N221 1.342 . S
C220 C224 1.401 . S
C220 C225 1.499 . S
N221 Co204 1.989 . S
N221 C220 1.342 . S
N221 N222 1.388 . S
N222 Co205 1.993 . S
N222 N221 1.388 . S
N222 C223 1.346 . S
C223 N222 1.346 . S
C223 C224 1.396 . S
C223 C233 1.510 . S
C224 C220 1.401 . S
C224 C223 1.396 . S
C225 C220 1.499 . S
C225 H226 0.959 . S
C225 H227 0.960 . S
C225 H228 0.961 . S
H226 C225 0.959 . S
H227 C225 0.960 . S
H228 C225 0.961 . S
O229 Co204 1.967 . S
O229 C237 1.258 . S
O230 Co205 1.941 . S
O230 C237 1.266 . S
H231 C233 0.959 . S
H232 C233 0.961 . S
C233 C223 1.510 . S
C233 H231 0.959 . S
C233 H232 0.961 . S
C233 H234 0.960 . S
H234 C233 0.960 . S
H235 N215 0.862 . S
O236 Co204 1.920 . S
O236 C209 1.289 . S
C237 O229 1.258 . S
C237 O230 1.266 . S
Co238 O241 1.970 . S
Co238 N255 1.989 . S
Co238 O263 1.967 . S
Co238 O270 1.920 . S
Co239 O242 1.966 . S
Co239 N248 2.022 . S
Co239 N256 1.993 . S
Co239 O264 1.941 . S
C240 O241 1.258 . S
C240 O242 1.263 . S
O241 Co238 1.970 . S
O241 C240 1.258 . S
O242 Co239 1.966 . S
O242 C240 1.263 . S
C243 O244 1.235 . S
C243 O270 1.289 . S
O244 C243 1.235 . S
C245 C247 1.400 . S
C245 N248 1.351 . S
C245 C250 1.501 . S
C246 C247 1.387 . S
C246 N249 1.341 . S
C247 C245 1.400 . S
C247 C246 1.387 . S
N248 Co239 2.022 . S
N248 C245 1.351 . S
N248 N249 1.365 . S
N249 C246 1.341 . S
N249 N248 1.365 . S
N249 H269 0.862 . S
C250 C245 1.501 . S
C250 H251 0.961 . S
C250 H252 0.961 . S
C250 H253 0.960 . S
H251 C250 0.961 . S
H252 C250 0.961 . S
H253 C250 0.960 . S
C254 N255 1.342 . S
C254 C258 1.401 . S
C254 C259 1.499 . S
N255 Co238 1.989 . S
N255 C254 1.342 . S
N255 N256 1.388 . S
N256 Co239 1.993 . S
N256 N255 1.388 . S
N256 C257 1.346 . S
C257 N256 1.346 . S
C257 C258 1.396 . S
C257 C267 1.510 . S
C258 C254 1.401 . S
C258 C257 1.396 . S
C259 C254 1.499 . S
C259 H260 0.959 . S
C259 H261 0.960 . S
C259 H262 0.961 . S
H260 C259 0.959 . S
H261 C259 0.960 . S
H262 C259 0.961 . S
O263 Co238 1.967 . S
O263 C271 1.258 . S
O264 Co239 1.941 . S
O264 C271 1.266 . S
H265 C267 0.959 . S
H266 C267 0.961 . S
C267 C257 1.510 . S
C267 H265 0.959 . S
C267 H266 0.961 . S
C267 H268 0.960 . S
H268 C267 0.960 . S
H269 N249 0.862 . S
O270 Co238 1.920 . S
O270 C243 1.289 . S
C271 O263 1.258 . S
C271 O264 1.266 . S
Co272 O275 1.970 . S
Co272 N289 1.989 . S
Co272 O297 1.967 . S
Co272 O304 1.920 . S
Co273 O276 1.966 . S
Co273 N282 2.022 . S
Co273 N290 1.993 . S
Co273 O298 1.941 . S
C274 O275 1.258 . S
C274 O276 1.263 . S
O275 Co272 1.970 . S
O275 C274 1.258 . S
O276 Co273 1.966 . S
O276 C274 1.263 . S
C277 O278 1.235 . S
C277 O304 1.289 . S
O278 C277 1.235 . S
C279 C281 1.400 . S
C279 N282 1.351 . S
C279 C284 1.501 . S
C280 C281 1.387 . S
C280 N283 1.341 . S
C281 C279 1.400 . S
C281 C280 1.387 . S
N282 Co273 2.022 . S
N282 C279 1.351 . S
N282 N283 1.365 . S
N283 C280 1.341 . S
N283 N282 1.365 . S
N283 H303 0.862 . S
C284 C279 1.501 . S
C284 H285 0.961 . S
C284 H286 0.961 . S
C284 H287 0.960 . S
H285 C284 0.961 . S
H286 C284 0.961 . S
H287 C284 0.960 . S
C288 N289 1.342 . S
C288 C292 1.401 . S
C288 C293 1.499 . S
N289 Co272 1.989 . S
N289 C288 1.342 . S
N289 N290 1.388 . S
N290 Co273 1.993 . S
N290 N289 1.388 . S
N290 C291 1.346 . S
C291 N290 1.346 . S
C291 C292 1.396 . S
C291 C301 1.510 . S
C292 C288 1.401 . S
C292 C291 1.396 . S
C293 C288 1.499 . S
C293 H294 0.959 . S
C293 H295 0.960 . S
C293 H296 0.961 . S
H294 C293 0.959 . S
H295 C293 0.960 . S
H296 C293 0.961 . S
O297 Co272 1.967 . S
O297 C305 1.258 . S
O298 Co273 1.941 . S
O298 C305 1.266 . S
H299 C301 0.959 . S
H300 C301 0.961 . S
C301 C291 1.510 . S
C301 H299 0.959 . S
C301 H300 0.961 . S
C301 H302 0.960 . S
H302 C301 0.960 . S
H303 N283 0.862 . S
O304 Co272 1.920 . S
O304 C277 1.289 . S
C305 O297 1.258 . S
C305 O298 1.266 . S
Co306 O309 1.970 . S
Co306 N323 1.989 . S
Co306 O331 1.967 . S
Co306 O338 1.920 . S
Co307 O310 1.966 . S
Co307 N316 2.022 . S
Co307 N324 1.993 . S
Co307 O332 1.941 . S
C308 O309 1.258 . S
C308 O310 1.263 . S
O309 Co306 1.970 . S
O309 C308 1.258 . S
O310 Co307 1.966 . S
O310 C308 1.263 . S
C311 O312 1.235 . S
C311 O338 1.289 . S
O312 C311 1.235 . S
C313 C315 1.400 . S
C313 N316 1.351 . S
C313 C318 1.501 . S
C314 C315 1.387 . S
C314 N317 1.341 . S
C315 C313 1.400 . S
C315 C314 1.387 . S
N316 Co307 2.022 . S
N316 C313 1.351 . S
N316 N317 1.365 . S
N317 C314 1.341 . S
N317 N316 1.365 . S
N317 H337 0.862 . S
C318 C313 1.501 . S
C318 H319 0.961 . S
C318 H320 0.961 . S
C318 H321 0.960 . S
H319 C318 0.961 . S
H320 C318 0.961 . S
H321 C318 0.960 . S
C322 N323 1.342 . S
C322 C326 1.401 . S
C322 C327 1.499 . S
N323 Co306 1.989 . S
N323 C322 1.342 . S
N323 N324 1.388 . S
N324 Co307 1.993 . S
N324 N323 1.388 . S
N324 C325 1.346 . S
C325 N324 1.346 . S
C325 C326 1.396 . S
C325 C335 1.510 . S
C326 C322 1.401 . S
C326 C325 1.396 . S
C327 C322 1.499 . S
C327 H328 0.959 . S
C327 H329 0.960 . S
C327 H330 0.961 . S
H328 C327 0.959 . S
H329 C327 0.960 . S
H330 C327 0.961 . S
O331 Co306 1.967 . S
O331 C339 1.258 . S
O332 Co307 1.941 . S
O332 C339 1.266 . S
H333 C335 0.959 . S
H334 C335 0.961 . S
C335 C325 1.510 . S
C335 H333 0.959 . S
C335 H334 0.961 . S
C335 H336 0.960 . S
H336 C335 0.960 . S
H337 N317 0.862 . S
O338 Co306 1.920 . S
O338 C311 1.289 . S
C339 O331 1.258 . S
C339 O332 1.266 . S
Co340 O343 1.970 . S
Co340 N357 1.989 . S
Co340 O365 1.967 . S
Co340 O372 1.920 . S
Co341 O344 1.966 . S
Co341 N350 2.022 . S
Co341 N358 1.993 . S
Co341 O366 1.941 . S
C342 O343 1.258 . S
C342 O344 1.263 . S
O343 Co340 1.970 . S
O343 C342 1.258 . S
O344 Co341 1.966 . S
O344 C342 1.263 . S
C345 O346 1.235 . S
C345 O372 1.289 . S
O346 C345 1.235 . S
C347 C349 1.400 . S
C347 N350 1.351 . S
C347 C352 1.501 . S
C348 C349 1.387 . S
C348 N351 1.341 . S
C349 C347 1.400 . S
C349 C348 1.387 . S
N350 Co341 2.022 . S
N350 C347 1.351 . S
N350 N351 1.365 . S
N351 C348 1.341 . S
N351 N350 1.365 . S
N351 H371 0.862 . S
C352 C347 1.501 . S
C352 H353 0.961 . S
C352 H354 0.961 . S
C352 H355 0.960 . S
H353 C352 0.961 . S
H354 C352 0.961 . S
H355 C352 0.960 . S
C356 N357 1.342 . S
C356 C360 1.401 . S
C356 C361 1.499 . S
N357 Co340 1.989 . S
N357 C356 1.342 . S
N357 N358 1.388 . S
N358 Co341 1.993 . S
N358 N357 1.388 . S
N358 C359 1.346 . S
C359 N358 1.346 . S
C359 C360 1.396 . S
C359 C369 1.510 . S
C360 C356 1.401 . S
C360 C359 1.396 . S
C361 C356 1.499 . S
C361 H362 0.959 . S
C361 H363 0.960 . S
C361 H364 0.961 . S
H362 C361 0.959 . S
H363 C361 0.960 . S
H364 C361 0.961 . S
O365 Co340 1.967 . S
O365 C373 1.258 . S
O366 Co341 1.941 . S
O366 C373 1.266 . S
H367 C369 0.959 . S
H368 C369 0.961 . S
C369 C359 1.510 . S
C369 H367 0.959 . S
C369 H368 0.961 . S
C369 H370 0.960 . S
H370 C369 0.960 . S
H371 N351 0.862 . S
O372 Co340 1.920 . S
O372 C345 1.289 . S
C373 O365 1.258 . S
C373 O366 1.266 . S
Co374 O377 1.970 . S
Co374 N391 1.989 . S
Co374 O399 1.967 . S
Co374 O406 1.920 . S
Co375 O378 1.966 . S
Co375 N384 2.022 . S
Co375 N392 1.993 . S
Co375 O400 1.941 . S
C376 O377 1.258 . S
C376 O378 1.263 . S
O377 Co374 1.970 . S
O377 C376 1.258 . S
O378 Co375 1.966 . S
O378 C376 1.263 . S
C379 O380 1.235 . S
C379 O406 1.289 . S
O380 C379 1.235 . S
C381 C383 1.400 . S
C381 N384 1.351 . S
C381 C386 1.501 . S
C382 C383 1.387 . S
C382 N385 1.341 . S
C383 C381 1.400 . S
C383 C382 1.387 . S
N384 Co375 2.022 . S
N384 C381 1.351 . S
N384 N385 1.365 . S
N385 C382 1.341 . S
N385 N384 1.365 . S
N385 H405 0.862 . S
C386 C381 1.501 . S
C386 H387 0.961 . S
C386 H388 0.961 . S
C386 H389 0.960 . S
H387 C386 0.961 . S
H388 C386 0.961 . S
H389 C386 0.960 . S
C390 N391 1.342 . S
C390 C394 1.401 . S
C390 C395 1.499 . S
N391 Co374 1.989 . S
N391 C390 1.342 . S
N391 N392 1.388 . S
N392 Co375 1.993 . S
N392 N391 1.388 . S
N392 C393 1.346 . S
C393 N392 1.346 . S
C393 C394 1.396 . S
C393 C403 1.510 . S
C394 C390 1.401 . S
C394 C393 1.396 . S
C395 C390 1.499 . S
C395 H396 0.959 . S
C395 H397 0.960 . S
C395 H398 0.961 . S
H396 C395 0.959 . S
H397 C395 0.960 . S
H398 C395 0.961 . S
O399 Co374 1.967 . S
O399 C407 1.258 . S
O400 Co375 1.941 . S
O400 C407 1.266 . S
H401 C403 0.959 . S
H402 C403 0.961 . S
C403 C393 1.510 . S
C403 H401 0.959 . S
C403 H402 0.961 . S
C403 H404 0.960 . S
H404 C403 0.960 . S
H405 N385 0.862 . S
O406 Co374 1.920 . S
O406 C379 1.289 . S
C407 O399 1.258 . S
C407 O400 1.266 . S
Co408 O411 1.970 . S
Co408 N425 1.989 . S
Co408 O433 1.967 . S
Co408 O440 1.920 . S
Co409 O412 1.966 . S
Co409 N418 2.022 . S
Co409 N426 1.993 . S
Co409 O434 1.941 . S
C410 O411 1.258 . S
C410 O412 1.263 . S
O411 Co408 1.970 . S
O411 C410 1.258 . S
O412 Co409 1.966 . S
O412 C410 1.263 . S
C413 O414 1.235 . S
C413 O440 1.289 . S
O414 C413 1.235 . S
C415 C417 1.400 . S
C415 N418 1.351 . S
C415 C420 1.501 . S
C416 C417 1.387 . S
C416 N419 1.341 . S
C417 C415 1.400 . S
C417 C416 1.387 . S
N418 Co409 2.022 . S
N418 C415 1.351 . S
N418 N419 1.365 . S
N419 C416 1.341 . S
N419 N418 1.365 . S
N419 H439 0.862 . S
C420 C415 1.501 . S
C420 H421 0.961 . S
C420 H422 0.961 . S
C420 H423 0.960 . S
H421 C420 0.961 . S
H422 C420 0.961 . S
H423 C420 0.960 . S
C424 N425 1.342 . S
C424 C428 1.401 . S
C424 C429 1.499 . S
N425 Co408 1.989 . S
N425 C424 1.342 . S
N425 N426 1.388 . S
N426 Co409 1.993 . S
N426 N425 1.388 . S
N426 C427 1.346 . S
C427 N426 1.346 . S
C427 C428 1.396 . S
C427 C437 1.510 . S
C428 C424 1.401 . S
C428 C427 1.396 . S
C429 C424 1.499 . S
C429 H430 0.959 . S
C429 H431 0.960 . S
C429 H432 0.961 . S
H430 C429 0.959 . S
H431 C429 0.960 . S
H432 C429 0.961 . S
O433 Co408 1.967 . S
O433 C441 1.258 . S
O434 Co409 1.941 . S
O434 C441 1.266 . S
H435 C437 0.959 . S
H436 C437 0.961 . S
C437 C427 1.510 . S
C437 H435 0.959 . S
C437 H436 0.961 . S
C437 H438 0.960 . S
H438 C437 0.960 . S
H439 N419 0.862 . S
O440 Co408 1.920 . S
O440 C413 1.289 . S
C441 O433 1.258 . S
C441 O434 1.266 . S
Co442 O445 1.970 . S
Co442 N459 1.989 . S
Co442 O467 1.967 . S
Co442 O474 1.920 . S
Co443 O446 1.966 . S
Co443 N452 2.022 . S
Co443 N460 1.993 . S
Co443 O468 1.941 . S
C444 O445 1.258 . S
C444 O446 1.263 . S
O445 Co442 1.970 . S
O445 C444 1.258 . S
O446 Co443 1.966 . S
O446 C444 1.263 . S
C447 O448 1.235 . S
C447 O474 1.289 . S
O448 C447 1.235 . S
C449 C451 1.400 . S
C449 N452 1.351 . S
C449 C454 1.501 . S
C450 C451 1.387 . S
C450 N453 1.341 . S
C451 C449 1.400 . S
C451 C450 1.387 . S
N452 Co443 2.022 . S
N452 C449 1.351 . S
N452 N453 1.365 . S
N453 C450 1.341 . S
N453 N452 1.365 . S
N453 H473 0.862 . S
C454 C449 1.501 . S
C454 H455 0.961 . S
C454 H456 0.961 . S
C454 H457 0.960 . S
H455 C454 0.961 . S
H456 C454 0.961 . S
H457 C454 0.960 . S
C458 N459 1.342 . S
C458 C462 1.401 . S
C458 C463 1.499 . S
N459 Co442 1.989 . S
N459 C458 1.342 . S
N459 N460 1.388 . S
N460 Co443 1.993 . S
N460 N459 1.388 . S
N460 C461 1.346 . S
C461 N460 1.346 . S
C461 C462 1.396 . S
C461 C471 1.510 . S
C462 C458 1.401 . S
C462 C461 1.396 . S
C463 C458 1.499 . S
C463 H464 0.959 . S
C463 H465 0.960 . S
C463 H466 0.961 . S
H464 C463 0.959 . S
H465 C463 0.960 . S
H466 C463 0.961 . S
O467 Co442 1.967 . S
O467 C475 1.258 . S
O468 Co443 1.941 . S
O468 C475 1.266 . S
H469 C471 0.959 . S
H470 C471 0.961 . S
C471 C461 1.510 . S
C471 H469 0.959 . S
C471 H470 0.961 . S
C471 H472 0.960 . S
H472 C471 0.960 . S
H473 N453 0.862 . S
O474 Co442 1.920 . S
O474 C447 1.289 . S
C475 O467 1.258 . S
C475 O468 1.266 . S
Co476 O479 1.970 . S
Co476 N493 1.989 . S
Co476 O501 1.967 . S
Co476 O508 1.920 . S
Co477 O480 1.966 . S
Co477 N486 2.022 . S
Co477 N494 1.993 . S
Co477 O502 1.941 . S
C478 O479 1.258 . S
C478 O480 1.263 . S
O479 Co476 1.970 . S
O479 C478 1.258 . S
O480 Co477 1.966 . S
O480 C478 1.263 . S
C481 O482 1.235 . S
C481 O508 1.289 . S
O482 C481 1.235 . S
C483 C485 1.400 . S
C483 N486 1.351 . S
C483 C488 1.501 . S
C484 C485 1.387 . S
C484 N487 1.341 . S
C485 C483 1.400 . S
C485 C484 1.387 . S
N486 Co477 2.022 . S
N486 C483 1.351 . S
N486 N487 1.365 . S
N487 C484 1.341 . S
N487 N486 1.365 . S
N487 H507 0.862 . S
C488 C483 1.501 . S
C488 H489 0.961 . S
C488 H490 0.961 . S
C488 H491 0.960 . S
H489 C488 0.961 . S
H490 C488 0.961 . S
H491 C488 0.960 . S
C492 N493 1.342 . S
C492 C496 1.401 . S
C492 C497 1.499 . S
N493 Co476 1.989 . S
N493 C492 1.342 . S
N493 N494 1.388 . S
N494 Co477 1.993 . S
N494 N493 1.388 . S
N494 C495 1.346 . S
C495 N494 1.346 . S
C495 C496 1.396 . S
C495 C505 1.510 . S
C496 C492 1.401 . S
C496 C495 1.396 . S
C497 C492 1.499 . S
C497 H498 0.959 . S
C497 H499 0.960 . S
C497 H500 0.961 . S
H498 C497 0.959 . S
H499 C497 0.960 . S
H500 C497 0.961 . S
O501 Co476 1.967 . S
O501 C509 1.258 . S
O502 Co477 1.941 . S
O502 C509 1.266 . S
H503 C505 0.959 . S
H504 C505 0.961 . S
C505 C495 1.510 . S
C505 H503 0.959 . S
C505 H504 0.961 . S
C505 H506 0.960 . S
H506 C505 0.960 . S
H507 N487 0.862 . S
O508 Co476 1.920 . S
O508 C481 1.289 . S
C509 O501 1.258 . S
C509 O502 1.266 . S
Co510 O513 1.970 . S
Co510 N527 1.989 . S
Co510 O535 1.967 . S
Co510 O542 1.920 . S
Co511 O514 1.966 . S
Co511 N520 2.022 . S
Co511 N528 1.993 . S
Co511 O536 1.941 . S
C512 O513 1.258 . S
C512 O514 1.263 . S
O513 Co510 1.970 . S
O513 C512 1.258 . S
O514 Co511 1.966 . S
O514 C512 1.263 . S
C515 O516 1.235 . S
C515 O542 1.289 . S
O516 C515 1.235 . S
C517 C519 1.400 . S
C517 N520 1.351 . S
C517 C522 1.501 . S
C518 C519 1.387 . S
C518 N521 1.341 . S
C519 C517 1.400 . S
C519 C518 1.387 . S
N520 Co511 2.022 . S
N520 C517 1.351 . S
N520 N521 1.365 . S
N521 C518 1.341 . S
N521 N520 1.365 . S
N521 H541 0.862 . S
C522 C517 1.501 . S
C522 H523 0.961 . S
C522 H524 0.961 . S
C522 H525 0.960 . S
H523 C522 0.961 . S
H524 C522 0.961 . S
H525 C522 0.960 . S
C526 N527 1.342 . S
C526 C530 1.401 . S
C526 C531 1.499 . S
N527 Co510 1.989 . S
N527 C526 1.342 . S
N527 N528 1.388 . S
N528 Co511 1.993 . S
N528 N527 1.388 . S
N528 C529 1.346 . S
C529 N528 1.346 . S
C529 C530 1.396 . S
C529 C539 1.510 . S
C530 C526 1.401 . S
C530 C529 1.396 . S
C531 C526 1.499 . S
C531 H532 0.959 . S
C531 H533 0.960 . S
C531 H534 0.961 . S
H532 C531 0.959 . S
H533 C531 0.960 . S
H534 C531 0.961 . S
O535 Co510 1.967 . S
O535 C543 1.258 . S
O536 Co511 1.941 . S
O536 C543 1.266 . S
H537 C539 0.959 . S
H538 C539 0.961 . S
C539 C529 1.510 . S
C539 H537 0.959 . S
C539 H538 0.961 . S
C539 H540 0.960 . S
H540 C539 0.960 . S
H541 N521 0.862 . S
O542 Co510 1.920 . S
O542 C515 1.289 . S
C543 O535 1.258 . S
C543 O536 1.266 . S
H544 C562 0.951 . S
H545 C564 0.951 . S
H546 C566 0.950 . S
H547 C567 0.950 . S
H548 C569 0.950 . S
H549 C572 0.950 . S
H550 C573 0.950 . S
H551 C575 0.950 . S
H552 C576 0.950 . S
H553 C577 0.951 . S
H554 C579 0.951 . S
H555 C581 0.950 . S
H556 C582 0.950 . S
H557 C584 0.950 . S
H558 C587 0.950 . S
H559 C588 0.950 . S
H560 C590 0.950 . S
H561 C591 0.950 . S
C562 H544 0.951 . S
C562 C563 1.366 . S
C562 C564 1.388 . S
C563 C562 1.366 . S
C563 C567 1.385 . S
C564 H545 0.951 . S
C564 C562 1.388 . S
C564 C565 1.366 . S
C565 C564 1.366 . S
C565 C566 1.414 . S
C565 C568 1.499 . S
C566 H546 0.950 . S
C566 C565 1.414 . S
C566 C567 1.374 . S
C567 H547 0.950 . S
C567 C563 1.385 . S
C567 C566 1.374 . S
C568 C565 1.499 . S
C568 C569 1.373 . S
C568 C570 1.389 . S
C569 H548 0.950 . S
C569 C568 1.373 . S
C569 C585 1.377 . S
C570 C568 1.389 . S
C570 C571 1.524 . S
C570 C584 1.377 . S
C571 C570 1.524 . S
C571 C572 1.397 . S
C571 C576 1.363 . S
C572 H549 0.950 . S
C572 C571 1.397 . S
C572 C573 1.334 . S
C573 H550 0.950 . S
C573 C572 1.334 . S
C573 C574 1.287 . S
C574 C573 1.287 . S
C574 C575 1.524 . S
C574 H593 0.913 . S
C575 H551 0.950 . S
C575 C574 1.524 . S
C575 C576 1.415 . S
C576 H552 0.950 . S
C576 C571 1.363 . S
C576 C575 1.415 . S
C577 H553 0.951 . S
C577 C578 1.366 . S
C577 C579 1.388 . S
C578 C577 1.366 . S
C578 C582 1.385 . S
C579 H554 0.951 . S
C579 C577 1.388 . S
C579 C580 1.366 . S
C580 C579 1.366 . S
C580 C581 1.414 . S
C580 C583 1.499 . S
C581 H555 0.950 . S
C581 C580 1.414 . S
C581 C582 1.374 . S
C582 H556 0.950 . S
C582 C578 1.385 . S
C582 C581 1.374 . S
C583 C580 1.499 . S
C583 C584 1.373 . S
C583 C585 1.389 . S
C584 H557 0.950 . S
C584 C570 1.377 . S
C584 C583 1.373 . S
C585 C569 1.377 . S
C585 C583 1.389 . S
C585 C586 1.524 . S
C586 C585 1.524 . S
C586 C587 1.397 . S
C586 C591 1.363 . S
C587 H558 0.950 . S
C587 C586 1.397 . S
C587 C588 1.334 . S
C588 H559 0.950 . S
C588 C587 1.334 . S
C588 C589 1.287 . S
C589 C588 1.287 . S
C589 C590 1.524 . S
C589 H592 0.999 . S
C590 H560 0.950 . S
C590 C589 1.524 . S
C590 C591 1.415 . S
C591 H561 0.950 . S
C591 C586 1.363 . S
C591 C590 1.415 . S
H592 C589 0.999 . S
H593 C574 0.913 . S
H594 C612 0.951 . S
H595 C614 0.951 . S
H596 C616 0.985 . S
H597 C617 0.950 . S
H598 C619 0.951 . S
H599 C622 0.950 1_565 S
H600 C623 0.950 . S
H601 C625 0.950 . S
H602 C626 0.950 . S
H603 C627 0.951 . S
H604 C629 0.951 . S
H605 C631 0.950 . S
H606 C632 0.950 . S
H607 C634 0.950 . S
H608 C637 0.950 . S
H609 C638 0.950 . S
H610 C640 0.950 . S
H611 C641 0.950 . S
C612 H594 0.951 . S
C612 C613 1.366 . S
C612 C614 1.388 . S
C613 C612 1.366 . S
C613 C617 1.385 . S
C614 H595 0.951 . S
C614 C612 1.388 . S
C614 C615 1.366 . S
C615 C614 1.366 . S
C615 C616 1.397 1_545 S
C615 C618 1.497 . S
C616 H596 0.985 . S
C616 C615 1.397 1_565 S
C616 C617 1.357 1_565 S
C617 H597 0.950 . S
C617 C613 1.385 . S
C617 C616 1.357 1_545 S
C618 C615 1.497 . S
C618 C619 1.383 1_545 S
C618 C620 1.389 . S
C619 H598 0.951 . S
C619 C618 1.383 1_565 S
C619 C635 1.368 1_655 S
C620 C618 1.389 . S
C620 C621 1.524 . S
C620 C634 1.377 1_645 S
C621 C620 1.524 . S
C621 C622 1.397 . S
C621 C626 1.363 . S
C622 H599 0.950 1_545 S
C622 C621 1.397 . S
C622 C623 1.334 . S
C623 H600 0.950 . S
C623 C622 1.334 . S
C623 C624 1.287 . S
C624 C623 1.287 . S
C624 C625 1.524 . S
C624 H643 0.913 . S
C625 H601 0.950 . S
C625 C624 1.524 . S
C625 C626 1.415 . S
C626 H602 0.950 . S
C626 C621 1.363 . S
C626 C625 1.415 . S
C627 H603 0.951 . S
C627 C628 1.366 . S
C627 C629 1.388 . S
C628 C627 1.366 . S
C628 C632 1.385 . S
C629 H604 0.951 . S
C629 C627 1.388 . S
C629 C630 1.366 . S
C630 C629 1.366 . S
C630 C631 1.414 . S
C630 C633 1.499 . S
C631 H605 0.950 . S
C631 C630 1.414 . S
C631 C632 1.374 . S
C632 H606 0.950 . S
C632 C628 1.385 . S
C632 C631 1.374 . S
C633 C630 1.499 . S
C633 C634 1.373 . S
C633 C635 1.389 . S
C634 H607 0.950 . S
C634 C620 1.377 1_465 S
C634 C633 1.373 . S
C635 C619 1.368 1_455 S
C635 C633 1.389 . S
C635 C636 1.524 . S
C636 C635 1.524 . S
C636 C637 1.397 . S
C636 C641 1.363 . S
C637 H608 0.950 . S
C637 C636 1.397 . S
C637 C638 1.334 . S
C638 H609 0.950 . S
C638 C637 1.334 . S
C638 C639 1.287 . S
C639 C638 1.287 . S
C639 C640 1.524 . S
C639 H642 0.999 . S
C640 H610 0.950 . S
C640 C639 1.524 . S
C640 C641 1.415 . S
C641 H611 0.950 . S
C641 C636 1.363 . S
C641 C640 1.415 . S
H642 C639 0.999 . S
H643 C624 0.913 . S
H644 C662 0.951 . S
H645 C664 0.951 . S
H646 C666 0.950 . S
H647 C667 0.950 . S
H648 C669 0.950 . S
H649 C672 0.950 . S
H650 C673 0.950 . S
H651 C675 0.950 . S
H652 C676 0.950 . S
H653 C677 0.951 . S
H654 C679 0.951 . S
H655 C681 0.950 . S
H656 C682 0.950 . S
H657 C684 0.950 . S
H658 C687 0.950 . S
H659 C688 0.950 . S
H660 C690 0.950 . S
H661 C691 0.950 . S
C662 H644 0.951 . S
C662 C663 1.366 . S
C662 C664 1.388 . S
C663 C662 1.366 . S
C663 C667 1.385 . S
C664 H645 0.951 . S
C664 C662 1.388 . S
C664 C665 1.366 . S
C665 C664 1.366 . S
C665 C666 1.414 . S
C665 C668 1.499 . S
C666 H646 0.950 . S
C666 C665 1.414 . S
C666 C667 1.374 . S
C667 H647 0.950 . S
C667 C663 1.385 . S
C667 C666 1.374 . S
C668 C665 1.499 . S
C668 C669 1.373 . S
C668 C670 1.389 . S
C669 H648 0.950 . S
C669 C668 1.373 . S
C669 C685 1.377 . S
C670 C668 1.389 . S
C670 C671 1.524 . S
C670 C684 1.377 . S
C671 C670 1.524 . S
C671 C672 1.397 . S
C671 C676 1.363 . S
C672 H649 0.950 . S
C672 C671 1.397 . S
C672 C673 1.334 . S
C673 H650 0.950 . S
C673 C672 1.334 . S
C673 C674 1.287 . S
C674 C673 1.287 . S
C674 C675 1.524 . S
C674 H693 0.913 . S
C675 H651 0.950 . S
C675 C674 1.524 . S
C675 C676 1.415 . S
C676 H652 0.950 . S
C676 C671 1.363 . S
C676 C675 1.415 . S
C677 H653 0.951 . S
C677 C678 1.366 . S
C677 C679 1.388 . S
C678 C677 1.366 . S
C678 C682 1.385 . S
C679 H654 0.951 . S
C679 C677 1.388 . S
C679 C680 1.366 . S
C680 C679 1.366 . S
C680 C681 1.414 . S
C680 C683 1.499 . S
C681 H655 0.950 . S
C681 C680 1.414 . S
C681 C682 1.374 . S
C682 H656 0.950 . S
C682 C678 1.385 . S
C682 C681 1.374 . S
C683 C680 1.499 . S
C683 C684 1.373 . S
C683 C685 1.389 . S
C684 H657 0.950 . S
C684 C670 1.377 . S
C684 C683 1.373 . S
C685 C669 1.377 . S
C685 C683 1.389 . S
C685 C686 1.524 . S
C686 C685 1.524 . S
C686 C687 1.397 . S
C686 C691 1.363 . S
C687 H658 0.950 . S
C687 C686 1.397 . S
C687 C688 1.334 . S
C688 H659 0.950 . S
C688 C687 1.334 . S
C688 C689 1.287 . S
C689 C688 1.287 . S
C689 C690 1.524 . S
C689 H692 0.999 . S
C690 H660 0.950 . S
C690 C689 1.524 . S
C690 C691 1.415 . S
C691 H661 0.950 . S
C691 C686 1.363 . S
C691 C690 1.415 . S
H692 C689 0.999 . S
H693 C674 0.913 . S
H694 C712 0.951 . S
H695 C714 0.981 . S
H696 C716 0.950 . S
H697 C717 0.950 . S
H698 C719 0.950 . S
H699 C722 0.950 . S
H700 C723 0.950 . S
H701 C725 0.952 . S
H702 C726 0.950 . S
H703 C727 0.951 . S
H704 C729 0.951 . S
H705 C731 0.950 . S
H706 C732 0.950 . S
H707 C734 0.950 . S
H708 C737 0.950 . S
H709 C738 0.950 . S
H710 C740 0.950 . S
H711 C741 0.945 1_545 S
C712 H694 0.951 . S
C712 C713 1.366 . S
C712 C714 1.388 . S
C713 C712 1.366 . S
C713 C717 1.385 . S
C714 H695 0.981 . S
C714 C712 1.388 . S
C714 C715 1.366 . S
C715 C714 1.366 . S
C715 C716 1.414 . S
C715 C718 1.494 1_556 S
C716 H696 0.950 . S
C716 C715 1.414 . S
C716 C717 1.374 . S
C717 H697 0.950 . S
C717 C713 1.385 . S
C717 C716 1.374 . S
C718 C715 1.494 1_554 S
C718 C719 1.369 1_544 S
C718 C720 1.400 . S
C719 H698 0.950 . S
C719 C718 1.369 1_566 S
C719 C735 1.377 1_556 S
C720 C718 1.400 . S
C720 C721 1.528 . S
C720 C734 1.372 1_545 S
C721 C720 1.528 . S
C721 C722 1.397 . S
C721 C726 1.363 1_545 S
C722 H699 0.950 . S
C722 C721 1.397 . S
C722 C723 1.334 . S
C723 H700 0.950 . S
C723 C722 1.334 . S
C723 C724 1.287 . S
C724 C723 1.287 . S
C724 C725 1.524 . S
C724 H743 0.913 . S
C725 H701 0.952 . S
C725 C724 1.524 . S
C725 C726 1.415 1_545 S
C726 H702 0.950 . S
C726 C721 1.363 1_565 S
C726 C725 1.415 1_565 S
C727 H703 0.951 . S
C727 C728 1.366 . S
C727 C729 1.388 . S
C728 C727 1.366 . S
C728 C732 1.385 . S
C729 H704 0.951 . S
C729 C727 1.388 . S
C729 C730 1.366 . S
C730 C729 1.366 . S
C730 C731 1.414 . S
C730 C733 1.499 . S
C731 H705 0.950 . S
C731 C730 1.414 . S
C731 C732 1.374 . S
C732 H706 0.950 . S
C732 C728 1.385 . S
C732 C731 1.374 . S
C733 C730 1.499 . S
C733 C734 1.373 . S
C733 C735 1.389 . S
C734 H707 0.950 . S
C734 C720 1.372 1_565 S
C734 C733 1.373 . S
C735 C719 1.377 1_554 S
C735 C733 1.389 . S
C735 C736 1.524 1_554 S
C736 C735 1.524 1_556 S
C736 C737 1.397 . S
C736 C741 1.363 . S
C737 H708 0.950 . S
C737 C736 1.397 . S
C737 C738 1.334 . S
C738 H709 0.950 . S
C738 C737 1.334 . S
C738 C739 1.287 . S
C739 C738 1.287 . S
C739 C740 1.524 . S
C739 H742 0.999 . S
C740 H710 0.950 . S
C740 C739 1.524 . S
C740 C741 1.415 . S
C741 H711 0.945 1_565 S
C741 C736 1.363 . S
C741 C740 1.415 . S
H742 C739 0.999 . S
H743 C724 0.913 . S
H744 C762 0.951 . S
H745 C764 0.951 . S
H746 C766 0.950 . S
H747 C767 0.950 . S
H748 C769 0.950 . S
H749 C772 0.950 . S
H750 C773 0.950 . S
H751 C775 0.950 . S
H752 C776 0.950 . S
H753 C777 0.951 . S
H754 C779 0.951 . S
H755 C781 0.950 . S
H756 C782 0.950 . S
H757 C784 0.950 . S
H758 C787 0.950 . S
H759 C788 0.950 . S
H760 C790 0.950 . S
H761 C791 0.950 . S
C762 H744 0.951 . S
C762 C763 1.366 . S
C762 C764 1.388 . S
C763 C762 1.366 . S
C763 C767 1.385 . S
C764 H745 0.951 . S
C764 C762 1.388 . S
C764 C765 1.366 . S
C765 C764 1.366 . S
C765 C766 1.414 . S
C765 C768 1.499 . S
C766 H746 0.950 . S
C766 C765 1.414 . S
C766 C767 1.374 . S
C767 H747 0.950 . S
C767 C763 1.385 . S
C767 C766 1.374 . S
C768 C765 1.499 . S
C768 C769 1.373 . S
C768 C770 1.389 . S
C769 H748 0.950 . S
C769 C768 1.373 . S
C769 C785 1.377 . S
C770 C768 1.389 . S
C770 C771 1.524 . S
C770 C784 1.377 . S
C771 C770 1.524 . S
C771 C772 1.397 . S
C771 C776 1.363 . S
C772 H749 0.950 . S
C772 C771 1.397 . S
C772 C773 1.334 . S
C773 H750 0.950 . S
C773 C772 1.334 . S
C773 C774 1.287 . S
C774 C773 1.287 . S
C774 C775 1.524 . S
C774 H793 0.913 . S
C775 H751 0.950 . S
C775 C774 1.524 . S
C775 C776 1.415 . S
C776 H752 0.950 . S
C776 C771 1.363 . S
C776 C775 1.415 . S
C777 H753 0.951 . S
C777 C778 1.366 . S
C777 C779 1.388 . S
C778 C777 1.366 . S
C778 C782 1.385 . S
C779 H754 0.951 . S
C779 C777 1.388 . S
C779 C780 1.366 . S
C780 C779 1.366 . S
C780 C781 1.414 . S
C780 C783 1.499 . S
C781 H755 0.950 . S
C781 C780 1.414 . S
C781 C782 1.374 . S
C782 H756 0.950 . S
C782 C778 1.385 . S
C782 C781 1.374 . S
C783 C780 1.499 . S
C783 C784 1.373 . S
C783 C785 1.389 . S
C784 H757 0.950 . S
C784 C770 1.377 . S
C784 C783 1.373 . S
C785 C769 1.377 . S
C785 C783 1.389 . S
C785 C786 1.524 . S
C786 C785 1.524 . S
C786 C787 1.397 . S
C786 C791 1.363 . S
C787 H758 0.950 . S
C787 C786 1.397 . S
C787 C788 1.334 . S
C788 H759 0.950 . S
C788 C787 1.334 . S
C788 C789 1.287 . S
C789 C788 1.287 . S
C789 C790 1.524 . S
C789 H792 0.999 . S
C790 H760 0.950 . S
C790 C789 1.524 . S
C790 C791 1.415 . S
C791 H761 0.950 . S
C791 C786 1.363 . S
C791 C790 1.415 . S
H792 C789 0.999 . S
H793 C774 0.913 . S
H794 C812 0.951 . S
H795 C814 0.951 . S
H796 C816 0.950 1_545 S
H797 C817 0.950 . S
H798 C819 0.950 . S
H799 C822 0.950 . S
H800 C823 0.950 . S
H801 C825 0.950 . S
H802 C826 0.950 . S
H803 C827 0.951 . S
H804 C829 0.951 . S
H805 C831 0.950 . S
H806 C832 0.950 . S
H807 C834 0.950 . S
H808 C837 0.950 . S
H809 C838 0.950 . S
H810 C840 0.950 . S
H811 C841 0.950 . S
C812 H794 0.951 . S
C812 C813 1.366 . S
C812 C814 1.388 . S
C813 C812 1.366 . S
C813 C817 1.385 . S
C814 H795 0.951 . S
C814 C812 1.388 . S
C814 C815 1.366 . S
C815 C814 1.366 . S
C815 C816 1.414 . S
C815 C818 1.499 1_565 S
C816 H796 0.950 1_565 S
C816 C815 1.414 . S
C816 C817 1.374 . S
C817 H797 0.950 . S
C817 C813 1.385 . S
C817 C816 1.374 . S
C818 C815 1.499 1_545 S
C818 C819 1.373 . S
C818 C820 1.389 1_545 S
C819 H798 0.950 . S
C819 C818 1.373 . S
C819 C835 1.377 . S
C820 C818 1.389 1_565 S
C820 C821 1.524 . S
C820 C834 1.377 1_565 S
C821 C820 1.524 . S
C821 C822 1.397 . S
C821 C826 1.363 . S
C822 H799 0.950 . S
C822 C821 1.397 . S
C822 C823 1.334 . S
C823 H800 0.950 . S
C823 C822 1.334 . S
C823 C824 1.287 . S
C824 C823 1.287 . S
C824 C825 1.524 . S
C824 H843 0.913 . S
C825 H801 0.950 . S
C825 C824 1.524 . S
C825 C826 1.415 . S
C826 H802 0.950 . S
C826 C821 1.363 . S
C826 C825 1.415 . S
C827 H803 0.951 . S
C827 C828 1.366 . S
C827 C829 1.388 . S
C828 C827 1.366 . S
C828 C832 1.385 . S
C829 H804 0.951 . S
C829 C827 1.388 . S
C829 C830 1.366 . S
C830 C829 1.366 . S
C830 C831 1.414 . S
C830 C833 1.499 . S
C831 H805 0.950 . S
C831 C830 1.414 . S
C831 C832 1.374 . S
C832 H806 0.950 . S
C832 C828 1.385 . S
C832 C831 1.374 . S
C833 C830 1.499 . S
C833 C834 1.373 . S
C833 C835 1.389 . S
C834 H807 0.950 . S
C834 C820 1.377 1_545 S
C834 C833 1.373 . S
C835 C819 1.377 . S
C835 C833 1.389 . S
C835 C836 1.524 . S
C836 C835 1.524 . S
C836 C837 1.397 . S
C836 C841 1.363 . S
C837 H808 0.950 . S
C837 C836 1.397 . S
C837 C838 1.334 . S
C838 H809 0.950 . S
C838 C837 1.334 . S
C838 C839 1.287 . S
C839 C838 1.287 . S
C839 C840 1.524 . S
C839 H842 0.999 . S
C840 H810 0.950 . S
C840 C839 1.524 . S
C840 C841 1.415 . S
C841 H811 0.950 . S
C841 C836 1.363 . S
C841 C840 1.415 . S
H842 C839 0.999 . S
H843 C824 0.913 . S
H844 C862 0.951 . S
H845 C864 0.951 . S
H846 C866 0.950 . S
H847 C867 0.950 . S
H848 C869 0.950 . S
H849 C872 0.950 . S
H850 C873 0.950 . S
H851 C875 0.950 . S
H852 C876 0.950 . S
H853 C877 0.951 . S
H854 C879 0.951 . S
H855 C881 0.950 . S
H856 C882 0.950 . S
H857 C884 0.950 . S
H858 C887 0.950 . S
H859 C888 0.950 . S
H860 C890 0.950 . S
H861 C891 0.950 . S
C862 H844 0.951 . S
C862 C863 1.366 . S
C862 C864 1.388 . S
C863 C862 1.366 . S
C863 C867 1.385 . S
C864 H845 0.951 . S
C864 C862 1.388 . S
C864 C865 1.366 . S
C865 C864 1.366 . S
C865 C866 1.414 . S
C865 C868 1.499 . S
C866 H846 0.950 . S
C866 C865 1.414 . S
C866 C867 1.374 . S
C867 H847 0.950 . S
C867 C863 1.385 . S
C867 C866 1.374 . S
C868 C865 1.499 . S
C868 C869 1.373 . S
C868 C870 1.389 . S
C869 H848 0.950 . S
C869 C868 1.373 . S
C869 C885 1.377 . S
C870 C868 1.389 . S
C870 C871 1.524 . S
C870 C884 1.377 . S
C871 C870 1.524 . S
C871 C872 1.397 . S
C871 C876 1.363 . S
C872 H849 0.950 . S
C872 C871 1.397 . S
C872 C873 1.334 . S
C873 H850 0.950 . S
C873 C872 1.334 . S
C873 C874 1.287 . S
C874 C873 1.287 . S
C874 C875 1.524 . S
C874 H893 0.913 . S
C875 H851 0.950 . S
C875 C874 1.524 . S
C875 C876 1.415 . S
C876 H852 0.950 . S
C876 C871 1.363 . S
C876 C875 1.415 . S
C877 H853 0.951 . S
C877 C878 1.366 . S
C877 C879 1.388 . S
C878 C877 1.366 . S
C878 C882 1.385 . S
C879 H854 0.951 . S
C879 C877 1.388 . S
C879 C880 1.366 . S
C880 C879 1.366 . S
C880 C881 1.414 . S
C880 C883 1.499 . S
C881 H855 0.950 . S
C881 C880 1.414 . S
C881 C882 1.374 . S
C882 H856 0.950 . S
C882 C878 1.385 . S
C882 C881 1.374 . S
C883 C880 1.499 . S
C883 C884 1.373 . S
C883 C885 1.389 . S
C884 H857 0.950 . S
C884 C870 1.377 . S
C884 C883 1.373 . S
C885 C869 1.377 . S
C885 C883 1.389 . S
C885 C886 1.524 . S
C886 C885 1.524 . S
C886 C887 1.397 . S
C886 C891 1.363 . S
C887 H858 0.950 . S
C887 C886 1.397 . S
C887 C888 1.334 . S
C888 H859 0.950 . S
C888 C887 1.334 . S
C888 C889 1.287 . S
C889 C888 1.287 . S
C889 C890 1.524 . S
C889 H892 0.999 . S
C890 H860 0.950 . S
C890 C889 1.524 . S
C890 C891 1.415 . S
C891 H861 0.950 . S
C891 C886 1.363 . S
C891 C890 1.415 . S
H892 C889 0.999 . S
H893 C874 0.913 . S
H894 C912 0.951 . S
H895 C914 0.951 . S
H896 C916 0.950 . S
H897 C917 0.950 . S
H898 C919 0.950 . S
H899 C922 0.950 . S
H900 C923 0.950 . S
H901 C925 0.950 . S
H902 C926 0.950 . S
H903 C927 0.951 . S
H904 C929 0.951 1_545 S
H905 C931 0.950 . S
H906 C932 0.950 . S
H907 C934 0.950 . S
H908 C937 0.950 1_554 S
H909 C938 0.950 . S
H910 C940 0.950 . S
H911 C941 0.950 . S
C912 H894 0.951 . S
C912 C913 1.366 . S
C912 C914 1.388 . S
C913 C912 1.366 . S
C913 C917 1.385 . S
C914 H895 0.951 . S
C914 C912 1.388 . S
C914 C915 1.366 . S
C915 C914 1.366 . S
C915 C916 1.414 . S
C915 C918 1.499 . S
C916 H896 0.950 . S
C916 C915 1.414 . S
C916 C917 1.374 . S
C917 H897 0.950 . S
C917 C913 1.385 . S
C917 C916 1.374 . S
C918 C915 1.499 . S
C918 C919 1.373 . S
C918 C920 1.389 . S
C919 H898 0.950 . S
C919 C918 1.373 . S
C919 C935 1.377 1_454 S
C920 C918 1.389 . S
C920 C921 1.524 1_545 S
C920 C934 1.377 1_545 S
C921 C920 1.524 1_565 S
C921 C922 1.397 1_565 S
C921 C926 1.363 . S
C922 H899 0.950 . S
C922 C921 1.397 1_545 S
C922 C923 1.334 . S
C923 H900 0.950 . S
C923 C922 1.334 . S
C923 C924 1.287 1_545 S
C924 C923 1.287 1_565 S
C924 C925 1.524 . S
C924 H943 0.913 . S
C925 H901 0.950 . S
C925 C924 1.524 . S
C925 C926 1.415 . S
C926 H902 0.950 . S
C926 C921 1.363 . S
C926 C925 1.415 . S
C927 H903 0.951 . S
C927 C928 1.366 . S
C927 C929 1.388 . S
C928 C927 1.366 . S
C928 C932 1.385 . S
C929 H904 0.951 1_565 S
C929 C927 1.388 . S
C929 C930 1.366 . S
C930 C929 1.366 . S
C930 C931 1.414 . S
C930 C933 1.515 . S
C931 H905 0.950 . S
C931 C930 1.414 . S
C931 C932 1.374 . S
C932 H906 0.950 . S
C932 C928 1.385 . S
C932 C931 1.374 . S
C933 C930 1.515 . S
C933 C934 1.384 1_656 S
C933 C935 1.362 1_565 S
C934 H907 0.950 . S
C934 C920 1.377 1_565 S
C934 C933 1.384 1_454 S
C935 C919 1.377 1_656 S
C935 C933 1.362 1_545 S
C935 C936 1.524 . S
C936 C935 1.524 . S
C936 C937 1.397 . S
C936 C941 1.363 . S
C937 H908 0.950 1_556 S
C937 C936 1.397 . S
C937 C938 1.334 . S
C938 H909 0.950 . S
C938 C937 1.334 . S
C938 C939 1.287 . S
C939 C938 1.287 . S
C939 C940 1.524 . S
C939 H942 0.999 . S
C940 H910 0.950 . S
C940 C939 1.524 . S
C940 C941 1.415 . S
C941 H911 0.950 . S
C941 C936 1.363 . S
C941 C940 1.415 . S
H942 C939 0.999 . S
H943 C924 0.913 . S
H944 C962 0.951 . S
H945 C964 0.951 . S
H946 C966 0.950 . S
H947 C967 0.950 . S
H948 C969 0.950 . S
H949 C972 0.950 . S
H950 C973 0.950 . S
H951 C975 0.950 . S
H952 C976 0.950 . S
H953 C977 0.951 . S
H954 C979 0.951 . S
H955 C981 0.950 . S
H956 C982 0.950 . S
H957 C984 0.950 . S
H958 C987 0.950 . S
H959 C988 0.950 . S
H960 C990 0.950 . S
H961 C991 0.950 . S
C962 H944 0.951 . S
C962 C963 1.366 . S
C962 C964 1.388 . S
C963 C962 1.366 . S
C963 C967 1.385 . S
C964 H945 0.951 . S
C964 C962 1.388 . S
C964 C965 1.366 . S
C965 C964 1.366 . S
C965 C966 1.414 . S
C965 C968 1.499 . S
C966 H946 0.950 . S
C966 C965 1.414 . S
C966 C967 1.374 . S
C967 H947 0.950 . S
C967 C963 1.385 . S
C967 C966 1.374 . S
C968 C965 1.499 . S
C968 C969 1.373 . S
C968 C970 1.389 . S
C969 H948 0.950 . S
C969 C968 1.373 . S
C969 C985 1.377 . S
C970 C968 1.389 . S
C970 C971 1.524 . S
C970 C984 1.377 . S
C971 C970 1.524 . S
C971 C972 1.397 . S
C971 C976 1.363 . S
C972 H949 0.950 . S
C972 C971 1.397 . S
C972 C973 1.334 . S
C973 H950 0.950 . S
C973 C972 1.334 . S
C973 C974 1.287 . S
C974 C973 1.287 . S
C974 C975 1.524 . S
C974 H993 0.913 . S
C975 H951 0.950 . S
C975 C974 1.524 . S
C975 C976 1.415 . S
C976 H952 0.950 . S
C976 C971 1.363 . S
C976 C975 1.415 . S
C977 H953 0.951 . S
C977 C978 1.366 . S
C977 C979 1.388 . S
C978 C977 1.366 . S
C978 C982 1.385 . S
C979 H954 0.951 . S
C979 C977 1.388 . S
C979 C980 1.366 . S
C980 C979 1.366 . S
C980 C981 1.414 . S
C980 C983 1.499 . S
C981 H955 0.950 . S
C981 C980 1.414 . S
C981 C982 1.374 . S
C982 H956 0.950 . S
C982 C978 1.385 . S
C982 C981 1.374 . S
C983 C980 1.499 . S
C983 C984 1.373 . S
C983 C985 1.389 . S
C984 H957 0.950 . S
C984 C970 1.377 . S
C984 C983 1.373 . S
C985 C969 1.377 . S
C985 C983 1.389 . S
C985 C986 1.524 . S
C986 C985 1.524 . S
C986 C987 1.397 . S
C986 C991 1.363 . S
C987 H958 0.950 . S
C987 C986 1.397 . S
C987 C988 1.334 . S
C988 H959 0.950 . S
C988 C987 1.334 . S
C988 C989 1.287 . S
C989 C988 1.287 . S
C989 C990 1.524 . S
C989 H992 0.999 . S
C990 H960 0.950 . S
C990 C989 1.524 . S
C990 C991 1.415 . S
C991 H961 0.950 . S
C991 C986 1.363 . S
C991 C990 1.415 . S
H992 C989 0.999 . S
H993 C974 0.913 . S
H994 C1012 0.951 . S
H995 C1014 0.951 . S
H996 C1016 0.950 . S
H997 C1017 0.950 . S
H998 C1019 0.950 . S
H999 C1022 0.950 . S
H1000 C1023 0.950 . S
H1001 C1025 0.950 . S
H1002 C1026 0.950 . S
H1003 C1027 0.951 . S
H1004 C1029 0.951 . S
H1005 C1031 0.950 . S
H1006 C1032 0.950 . S
H1007 C1034 0.949 1_655 S
H1008 C1037 0.950 1_455 S
H1009 C1038 0.950 . S
H1010 C1040 0.950 . S
H1011 C1041 0.950 . S
C1012 H994 0.951 . S
C1012 C1013 1.366 . S
C1012 C1014 1.388 . S
C1013 C1012 1.366 . S
C1013 C1017 1.385 . S
C1014 H995 0.951 . S
C1014 C1012 1.388 . S
C1014 C1015 1.366 . S
C1015 C1014 1.366 . S
C1015 C1016 1.414 . S
C1015 C1018 1.499 . S
C1016 H996 0.950 . S
C1016 C1015 1.414 . S
C1016 C1017 1.374 . S
C1017 H997 0.950 . S
C1017 C1013 1.385 . S
C1017 C1016 1.374 . S
C1018 C1015 1.499 . S
C1018 C1019 1.373 1_556 S
C1018 C1020 1.389 . S
C1019 H998 0.950 . S
C1019 C1018 1.373 1_554 S
C1019 C1035 1.377 1_455 S
C1020 C1018 1.389 . S
C1020 C1021 1.524 . S
C1020 C1034 1.383 . S
C1021 C1020 1.524 . S
C1021 C1022 1.397 . S
C1021 C1026 1.363 . S
C1022 H999 0.950 . S
C1022 C1021 1.397 . S
C1022 C1023 1.334 . S
C1023 H1000 0.950 . S
C1023 C1022 1.334 . S
C1023 C1024 1.287 . S
C1024 C1023 1.287 . S
C1024 C1025 1.524 . S
C1024 H1043 0.913 . S
C1025 H1001 0.950 . S
C1025 C1024 1.524 . S
C1025 C1026 1.415 . S
C1026 H1002 0.950 . S
C1026 C1021 1.363 . S
C1026 C1025 1.415 . S
C1027 H1003 0.951 . S
C1027 C1028 1.366 . S
C1027 C1029 1.388 . S
C1028 C1027 1.366 . S
C1028 C1032 1.385 . S
C1029 H1004 0.951 . S
C1029 C1027 1.388 . S
C1029 C1030 1.366 . S
C1030 C1029 1.366 . S
C1030 C1031 1.414 . S
C1030 C1033 1.499 . S
C1031 H1005 0.950 . S
C1031 C1030 1.414 . S
C1031 C1032 1.374 . S
C1032 H1006 0.950 . S
C1032 C1028 1.385 . S
C1032 C1031 1.374 . S
C1033 C1030 1.499 . S
C1033 C1034 1.368 1_654 S
C1033 C1035 1.389 . S
C1034 H1007 0.949 1_455 S
C1034 C1020 1.383 . S
C1034 C1033 1.368 1_456 S
C1035 C1019 1.377 1_655 S
C1035 C1033 1.389 . S
C1035 C1036 1.524 . S
C1036 C1035 1.524 . S
C1036 C1037 1.397 . S
C1036 C1041 1.363 . S
C1037 H1008 0.950 1_655 S
C1037 C1036 1.397 . S
C1037 C1038 1.334 . S
C1038 H1009 0.950 . S
C1038 C1037 1.334 . S
C1038 C1039 1.287 . S
C1039 C1038 1.287 . S
C1039 C1040 1.524 . S
C1039 H1042 0.999 . S
C1040 H1010 0.950 . S
C1040 C1039 1.524 . S
C1040 C1041 1.415 . S
C1041 H1011 0.950 . S
C1041 C1036 1.363 . S
C1041 C1040 1.415 . S
H1042 C1039 0.999 . S
H1043 C1024 0.913 . S
H1044 C1062 0.951 . S
H1045 C1064 0.951 . S
H1046 C1066 0.950 . S
H1047 C1067 0.950 . S
H1048 C1069 0.950 . S
H1049 C1072 0.950 . S
H1050 C1073 0.950 . S
H1051 C1075 0.950 . S
H1052 C1076 0.950 . S
H1053 C1077 0.951 . S
H1054 C1079 0.951 . S
H1055 C1081 0.950 . S
H1056 C1082 0.950 . S
H1057 C1084 0.950 . S
H1058 C1087 0.950 . S
H1059 C1088 0.950 . S
H1060 C1090 0.950 . S
H1061 C1091 0.950 . S
C1062 H1044 0.951 . S
C1062 C1063 1.366 . S
C1062 C1064 1.388 . S
C1063 C1062 1.366 . S
C1063 C1067 1.385 . S
C1064 H1045 0.951 . S
C1064 C1062 1.388 . S
C1064 C1065 1.366 . S
C1065 C1064 1.366 . S
C1065 C1066 1.414 . S
C1065 C1068 1.499 . S
C1066 H1046 0.950 . S
C1066 C1065 1.414 . S
C1066 C1067 1.374 . S
C1067 H1047 0.950 . S
C1067 C1063 1.385 . S
C1067 C1066 1.374 . S
C1068 C1065 1.499 . S
C1068 C1069 1.373 . S
C1068 C1070 1.389 . S
C1069 H1048 0.950 . S
C1069 C1068 1.373 . S
C1069 C1085 1.377 . S
C1070 C1068 1.389 . S
C1070 C1071 1.524 . S
C1070 C1084 1.377 . S
C1071 C1070 1.524 . S
C1071 C1072 1.397 . S
C1071 C1076 1.363 . S
C1072 H1049 0.950 . S
C1072 C1071 1.397 . S
C1072 C1073 1.334 . S
C1073 H1050 0.950 . S
C1073 C1072 1.334 . S
C1073 C1074 1.287 . S
C1074 C1073 1.287 . S
C1074 C1075 1.524 . S
C1074 H1093 0.913 . S
C1075 H1051 0.950 . S
C1075 C1074 1.524 . S
C1075 C1076 1.415 . S
C1076 H1052 0.950 . S
C1076 C1071 1.363 . S
C1076 C1075 1.415 . S
C1077 H1053 0.951 . S
C1077 C1078 1.366 . S
C1077 C1079 1.388 . S
C1078 C1077 1.366 . S
C1078 C1082 1.385 . S
C1079 H1054 0.951 . S
C1079 C1077 1.388 . S
C1079 C1080 1.366 . S
C1080 C1079 1.366 . S
C1080 C1081 1.414 . S
C1080 C1083 1.499 . S
C1081 H1055 0.950 . S
C1081 C1080 1.414 . S
C1081 C1082 1.374 . S
C1082 H1056 0.950 . S
C1082 C1078 1.385 . S
C1082 C1081 1.374 . S
C1083 C1080 1.499 . S
C1083 C1084 1.373 . S
C1083 C1085 1.389 . S
C1084 H1057 0.950 . S
C1084 C1070 1.377 . S
C1084 C1083 1.373 . S
C1085 C1069 1.377 . S
C1085 C1083 1.389 . S
C1085 C1086 1.524 . S
C1086 C1085 1.524 . S
C1086 C1087 1.397 . S
C1086 C1091 1.363 . S
C1087 H1058 0.950 . S
C1087 C1086 1.397 . S
C1087 C1088 1.334 . S
C1088 H1059 0.950 . S
C1088 C1087 1.334 . S
C1088 C1089 1.287 . S
C1089 C1088 1.287 . S
C1089 C1090 1.524 . S
C1089 H1092 0.999 . S
C1090 H1060 0.950 . S
C1090 C1089 1.524 . S
C1090 C1091 1.415 . S
C1091 H1061 0.950 . S
C1091 C1086 1.363 . S
C1091 C1090 1.415 . S
H1092 C1089 0.999 . S
H1093 C1074 0.913 . S
H1094 C1112 0.951 . S
H1095 C1114 0.951 . S
H1096 C1116 0.950 . S
H1097 C1117 0.950 . S
H1098 C1119 0.950 . S
H1099 C1122 0.950 . S
H1100 C1123 0.950 . S
H1101 C1125 0.950 . S
H1102 C1126 0.950 . S
H1103 C1127 0.951 . S
H1104 C1129 0.951 . S
H1105 C1131 0.950 . S
H1106 C1132 0.950 . S
H1107 C1134 0.952 . S
H1108 C1137 0.950 1_655 S
H1109 C1138 0.950 . S
H1110 C1140 0.950 . S
H1111 C1141 0.950 . S
C1112 H1094 0.951 . S
C1112 C1113 1.366 . S
C1112 C1114 1.388 . S
C1113 C1112 1.366 . S
C1113 C1117 1.385 . S
C1114 H1095 0.951 . S
C1114 C1112 1.388 . S
C1114 C1115 1.366 . S
C1115 C1114 1.366 . S
C1115 C1116 1.414 . S
C1115 C1118 1.499 . S
C1116 H1096 0.950 . S
C1116 C1115 1.414 . S
C1116 C1117 1.374 . S
C1117 H1097 0.950 . S
C1117 C1113 1.385 . S
C1117 C1116 1.374 . S
C1118 C1115 1.499 . S
C1118 C1119 1.373 . S
C1118 C1120 1.389 . S
C1119 H1098 0.950 . S
C1119 C1118 1.373 . S
C1119 C1135 1.347 1_655 S
C1120 C1118 1.389 . S
C1120 C1121 1.524 . S
C1120 C1134 1.377 . S
C1121 C1120 1.524 . S
C1121 C1122 1.397 . S
C1121 C1126 1.363 . S
C1122 H1099 0.950 . S
C1122 C1121 1.397 . S
C1122 C1123 1.334 . S
C1123 H1100 0.950 . S
C1123 C1122 1.334 . S
C1123 C1124 1.287 . S
C1124 C1123 1.287 . S
C1124 C1125 1.524 . S
C1124 H1143 0.913 . S
C1125 H1101 0.950 . S
C1125 C1124 1.524 . S
C1125 C1126 1.415 . S
C1126 H1102 0.950 . S
C1126 C1121 1.363 . S
C1126 C1125 1.415 . S
C1127 H1103 0.951 . S
C1127 C1128 1.366 . S
C1127 C1129 1.388 . S
C1128 C1127 1.366 . S
C1128 C1132 1.385 . S
C1129 H1104 0.951 . S
C1129 C1127 1.388 . S
C1129 C1130 1.366 . S
C1130 C1129 1.366 . S
C1130 C1131 1.414 . S
C1130 C1133 1.499 . S
C1131 H1105 0.950 . S
C1131 C1130 1.414 . S
C1131 C1132 1.374 . S
C1132 H1106 0.950 . S
C1132 C1128 1.385 . S
C1132 C1131 1.374 . S
C1133 C1130 1.499 . S
C1133 C1134 1.373 1_455 S
C1133 C1135 1.399 . S
C1134 H1107 0.952 . S
C1134 C1120 1.377 . S
C1134 C1133 1.373 1_655 S
C1135 C1119 1.347 1_455 S
C1135 C1133 1.399 . S
C1135 C1136 1.543 . S
C1136 C1135 1.543 . S
C1136 C1137 1.397 . S
C1136 C1141 1.363 . S
C1137 H1108 0.950 1_455 S
C1137 C1136 1.397 . S
C1137 C1138 1.334 . S
C1138 H1109 0.950 . S
C1138 C1137 1.334 . S
C1138 C1139 1.287 . S
C1139 C1138 1.287 . S
C1139 C1140 1.524 . S
C1139 H1142 0.999 . S
C1140 H1110 0.950 . S
C1140 C1139 1.524 . S
C1140 C1141 1.415 . S
C1141 H1111 0.950 . S
C1141 C1136 1.363 . S
C1141 C1140 1.415 . S
H1142 C1139 0.999 . S
H1143 C1124 0.913 . S
H1144 C1162 0.951 . S
H1145 C1164 0.951 . S
H1146 C1166 0.950 . S
H1147 C1167 0.950 . S
H1148 C1169 0.950 1_554 S
H1149 C1172 0.950 . S
H1150 C1173 0.950 . S
H1151 C1175 0.950 . S
H1152 C1176 0.950 . S
H1153 C1177 0.951 . S
H1154 C1179 0.951 . S
H1155 C1181 0.950 1_556 S
H1156 C1182 0.950 . S
H1157 C1184 0.950 . S
H1158 C1187 0.950 . S
H1159 C1188 0.950 . S
H1160 C1190 0.950 . S
H1161 C1191 0.950 . S
C1162 H1144 0.951 . S
C1162 C1163 1.366 . S
C1162 C1164 1.388 . S
C1163 C1162 1.366 . S
C1163 C1167 1.385 . S
C1164 H1145 0.951 . S
C1164 C1162 1.388 . S
C1164 C1165 1.366 . S
C1165 C1164 1.366 . S
C1165 C1166 1.414 . S
C1165 C1168 1.499 . S
C1166 H1146 0.950 . S
C1166 C1165 1.414 . S
C1166 C1167 1.374 . S
C1167 H1147 0.950 . S
C1167 C1163 1.385 . S
C1167 C1166 1.374 . S
C1168 C1165 1.499 . S
C1168 C1169 1.373 . S
C1168 C1170 1.389 . S
C1169 H1148 0.950 1_556 S
C1169 C1168 1.373 . S
C1169 C1185 1.377 1_556 S
C1170 C1168 1.389 . S
C1170 C1171 1.524 . S
C1170 C1184 1.377 . S
C1171 C1170 1.524 . S
C1171 C1172 1.397 . S
C1171 C1176 1.363 . S
C1172 H1149 0.950 . S
C1172 C1171 1.397 . S
C1172 C1173 1.334 . S
C1173 H1150 0.950 . S
C1173 C1172 1.334 . S
C1173 C1174 1.287 . S
C1174 C1173 1.287 . S
C1174 C1175 1.524 . S
C1174 H1193 0.913 . S
C1175 H1151 0.950 . S
C1175 C1174 1.524 . S
C1175 C1176 1.415 . S
C1176 H1152 0.950 . S
C1176 C1171 1.363 . S
C1176 C1175 1.415 . S
C1177 H1153 0.951 . S
C1177 C1178 1.366 . S
C1177 C1179 1.388 . S
C1178 C1177 1.366 . S
C1178 C1182 1.385 . S
C1179 H1154 0.951 . S
C1179 C1177 1.388 . S
C1179 C1180 1.366 . S
C1180 C1179 1.366 . S
C1180 C1181 1.414 . S
C1180 C1183 1.489 1_554 S
C1181 H1155 0.950 1_554 S
C1181 C1180 1.414 . S
C1181 C1182 1.374 . S
C1182 H1156 0.950 . S
C1182 C1178 1.385 . S
C1182 C1181 1.374 . S
C1183 C1180 1.489 1_556 S
C1183 C1184 1.390 . S
C1183 C1185 1.383 1_556 S
C1184 H1157 0.950 . S
C1184 C1170 1.377 . S
C1184 C1183 1.390 . S
C1185 C1169 1.377 1_554 S
C1185 C1183 1.383 1_554 S
C1185 C1186 1.524 . S
C1186 C1185 1.524 . S
C1186 C1187 1.397 . S
C1186 C1191 1.363 . S
C1187 H1158 0.950 . S
C1187 C1186 1.397 . S
C1187 C1188 1.334 . S
C1188 H1159 0.950 . S
C1188 C1187 1.334 . S
C1188 C1189 1.287 . S
C1189 C1188 1.287 . S
C1189 C1190 1.524 . S
C1189 H1192 0.999 . S
C1190 H1160 0.950 . S
C1190 C1189 1.524 . S
C1190 C1191 1.415 . S
C1191 H1161 0.950 . S
C1191 C1186 1.363 . S
C1191 C1190 1.415 . S
H1192 C1189 0.999 . S
H1193 C1174 0.913 . S
H1194 C1212 0.951 . S
H1195 C1214 0.951 . S
H1196 C1216 0.950 . S
H1197 C1217 0.950 . S
H1198 C1219 0.950 . S
H1199 C1222 0.950 . S
H1200 C1223 0.950 . S
H1201 C1225 0.950 . S
H1202 C1226 0.950 . S
H1203 C1227 0.951 . S
H1204 C1229 0.951 . S
H1205 C1231 0.950 . S
H1206 C1232 0.950 . S
H1207 C1234 0.950 . S
H1208 C1237 0.950 . S
H1209 C1238 0.950 . S
H1210 C1240 0.950 . S
H1211 C1241 0.950 . S
C1212 H1194 0.951 . S
C1212 C1213 1.366 . S
C1212 C1214 1.388 . S
C1213 C1212 1.366 . S
C1213 C1217 1.385 . S
C1214 H1195 0.951 . S
C1214 C1212 1.388 . S
C1214 C1215 1.366 . S
C1215 C1214 1.366 . S
C1215 C1216 1.414 . S
C1215 C1218 1.499 . S
C1216 H1196 0.950 . S
C1216 C1215 1.414 . S
C1216 C1217 1.374 . S
C1217 H1197 0.950 . S
C1217 C1213 1.385 . S
C1217 C1216 1.374 . S
C1218 C1215 1.499 . S
C1218 C1219 1.373 . S
C1218 C1220 1.389 . S
C1219 H1198 0.950 . S
C1219 C1218 1.373 . S
C1219 C1235 1.377 . S
C1220 C1218 1.389 . S
C1220 C1221 1.524 . S
C1220 C1234 1.377 . S
C1221 C1220 1.524 . S
C1221 C1222 1.397 . S
C1221 C1226 1.363 . S
C1222 H1199 0.950 . S
C1222 C1221 1.397 . S
C1222 C1223 1.334 . S
C1223 H1200 0.950 . S
C1223 C1222 1.334 . S
C1223 C1224 1.287 . S
C1224 C1223 1.287 . S
C1224 C1225 1.524 . S
C1224 H1243 0.913 . S
C1225 H1201 0.950 . S
C1225 C1224 1.524 . S
C1225 C1226 1.415 . S
C1226 H1202 0.950 . S
C1226 C1221 1.363 . S
C1226 C1225 1.415 . S
C1227 H1203 0.951 . S
C1227 C1228 1.366 . S
C1227 C1229 1.388 . S
C1228 C1227 1.366 . S
C1228 C1232 1.385 . S
C1229 H1204 0.951 . S
C1229 C1227 1.388 . S
C1229 C1230 1.366 . S
C1230 C1229 1.366 . S
C1230 C1231 1.414 . S
C1230 C1233 1.499 . S
C1231 H1205 0.950 . S
C1231 C1230 1.414 . S
C1231 C1232 1.374 . S
C1232 H1206 0.950 . S
C1232 C1228 1.385 . S
C1232 C1231 1.374 . S
C1233 C1230 1.499 . S
C1233 C1234 1.373 . S
C1233 C1235 1.389 . S
C1234 H1207 0.950 . S
C1234 C1220 1.377 . S
C1234 C1233 1.373 . S
C1235 C1219 1.377 . S
C1235 C1233 1.389 . S
C1235 C1236 1.524 . S
C1236 C1235 1.524 . S
C1236 C1237 1.397 . S
C1236 C1241 1.363 . S
C1237 H1208 0.950 . S
C1237 C1236 1.397 . S
C1237 C1238 1.334 . S
C1238 H1209 0.950 . S
C1238 C1237 1.334 . S
C1238 C1239 1.287 . S
C1239 C1238 1.287 . S
C1239 C1240 1.524 . S
C1239 H1242 0.999 . S
C1240 H1210 0.950 . S
C1240 C1239 1.524 . S
C1240 C1241 1.415 . S
C1241 H1211 0.950 . S
C1241 C1236 1.363 . S
C1241 C1240 1.415 . S
H1242 C1239 0.999 . S
H1243 C1224 0.913 . S
H1244 C1262 0.951 . S
H1245 C1264 0.951 . S
H1246 C1266 0.950 . S
H1247 C1267 0.950 . S
H1248 C1269 0.950 . S
H1249 C1272 0.950 . S
H1250 C1273 0.950 . S
H1251 C1275 0.950 . S
H1252 C1276 0.950 . S
H1253 C1277 0.951 . S
H1254 C1279 0.951 . S
H1255 C1281 0.950 . S
H1256 C1282 0.950 . S
H1257 C1284 0.950 . S
H1258 C1287 0.950 . S
H1259 C1288 0.950 . S
H1260 C1290 0.950 . S
H1261 C1291 0.950 . S
C1262 H1244 0.951 . S
C1262 C1263 1.366 . S
C1262 C1264 1.388 . S
C1263 C1262 1.366 . S
C1263 C1267 1.385 . S
C1264 H1245 0.951 . S
C1264 C1262 1.388 . S
C1264 C1265 1.366 . S
C1265 C1264 1.366 . S
C1265 C1266 1.414 . S
C1265 C1268 1.499 . S
C1266 H1246 0.950 . S
C1266 C1265 1.414 . S
C1266 C1267 1.374 . S
C1267 H1247 0.950 . S
C1267 C1263 1.385 . S
C1267 C1266 1.374 . S
C1268 C1265 1.499 . S
C1268 C1269 1.373 . S
C1268 C1270 1.389 . S
C1269 H1248 0.950 . S
C1269 C1268 1.373 . S
C1269 C1285 1.377 . S
C1270 C1268 1.389 . S
C1270 C1271 1.524 . S
C1270 C1284 1.377 . S
C1271 C1270 1.524 . S
C1271 C1272 1.397 . S
C1271 C1276 1.363 . S
C1272 H1249 0.950 . S
C1272 C1271 1.397 . S
C1272 C1273 1.334 . S
C1273 H1250 0.950 . S
C1273 C1272 1.334 . S
C1273 C1274 1.287 . S
C1274 C1273 1.287 . S
C1274 C1275 1.524 . S
C1274 H1293 0.913 . S
C1275 H1251 0.950 . S
C1275 C1274 1.524 . S
C1275 C1276 1.415 . S
C1276 H1252 0.950 . S
C1276 C1271 1.363 . S
C1276 C1275 1.415 . S
C1277 H1253 0.951 . S
C1277 C1278 1.366 . S
C1277 C1279 1.388 . S
C1278 C1277 1.366 . S
C1278 C1282 1.385 . S
C1279 H1254 0.951 . S
C1279 C1277 1.388 . S
C1279 C1280 1.366 . S
C1280 C1279 1.366 . S
C1280 C1281 1.414 . S
C1280 C1283 1.499 . S
C1281 H1255 0.950 . S
C1281 C1280 1.414 . S
C1281 C1282 1.374 . S
C1282 H1256 0.950 . S
C1282 C1278 1.385 . S
C1282 C1281 1.374 . S
C1283 C1280 1.499 . S
C1283 C1284 1.373 . S
C1283 C1285 1.389 . S
C1284 H1257 0.950 . S
C1284 C1270 1.377 . S
C1284 C1283 1.373 . S
C1285 C1269 1.377 . S
C1285 C1283 1.389 . S
C1285 C1286 1.524 . S
C1286 C1285 1.524 . S
C1286 C1287 1.397 . S
C1286 C1291 1.363 . S
C1287 H1258 0.950 . S
C1287 C1286 1.397 . S
C1287 C1288 1.334 . S
C1288 H1259 0.950 . S
C1288 C1287 1.334 . S
C1288 C1289 1.287 . S
C1289 C1288 1.287 . S
C1289 C1290 1.524 . S
C1289 H1292 0.999 . S
C1290 H1260 0.950 . S
C1290 C1289 1.524 . S
C1290 C1291 1.415 . S
C1291 H1261 0.950 . S
C1291 C1286 1.363 . S
C1291 C1290 1.415 . S
H1292 C1289 0.999 . S
H1293 C1274 0.913 . S
H1294 C1312 0.951 . S
H1295 C1314 0.951 . S
H1296 C1316 0.950 . S
H1297 C1317 0.950 . S
H1298 C1319 0.950 . S
H1299 C1322 0.950 . S
H1300 C1323 0.950 . S
H1301 C1325 0.950 . S
H1302 C1326 0.950 . S
H1303 C1327 0.951 . S
H1304 C1329 0.951 . S
H1305 C1331 0.950 . S
H1306 C1332 0.950 . S
H1307 C1334 0.950 . S
H1308 C1337 0.950 . S
H1309 C1338 0.950 . S
H1310 C1340 0.950 . S
H1311 C1341 0.950 . S
C1312 H1294 0.951 . S
C1312 C1313 1.366 . S
C1312 C1314 1.388 . S
C1313 C1312 1.366 . S
C1313 C1317 1.385 . S
C1314 H1295 0.951 . S
C1314 C1312 1.388 . S
C1314 C1315 1.366 . S
C1315 C1314 1.366 . S
C1315 C1316 1.414 . S
C1315 C1318 1.499 . S
C1316 H1296 0.950 . S
C1316 C1315 1.414 . S
C1316 C1317 1.374 . S
C1317 H1297 0.950 . S
C1317 C1313 1.385 . S
C1317 C1316 1.374 . S
C1318 C1315 1.499 . S
C1318 C1319 1.373 . S
C1318 C1320 1.389 . S
C1319 H1298 0.950 . S
C1319 C1318 1.373 . S
C1319 C1335 1.377 . S
C1320 C1318 1.389 . S
C1320 C1321 1.524 . S
C1320 C1334 1.377 . S
C1321 C1320 1.524 . S
C1321 C1322 1.397 . S
C1321 C1326 1.363 . S
C1322 H1299 0.950 . S
C1322 C1321 1.397 . S
C1322 C1323 1.334 . S
C1323 H1300 0.950 . S
C1323 C1322 1.334 . S
C1323 C1324 1.287 . S
C1324 C1323 1.287 . S
C1324 C1325 1.524 . S
C1324 H1343 0.913 . S
C1325 H1301 0.950 . S
C1325 C1324 1.524 . S
C1325 C1326 1.415 . S
C1326 H1302 0.950 . S
C1326 C1321 1.363 . S
C1326 C1325 1.415 . S
C1327 H1303 0.951 . S
C1327 C1328 1.366 . S
C1327 C1329 1.388 . S
C1328 C1327 1.366 . S
C1328 C1332 1.385 . S
C1329 H1304 0.951 . S
C1329 C1327 1.388 . S
C1329 C1330 1.366 . S
C1330 C1329 1.366 . S
C1330 C1331 1.414 . S
C1330 C1333 1.499 . S
C1331 H1305 0.950 . S
C1331 C1330 1.414 . S
C1331 C1332 1.374 . S
C1332 H1306 0.950 . S
C1332 C1328 1.385 . S
C1332 C1331 1.374 . S
C1333 C1330 1.499 . S
C1333 C1334 1.373 . S
C1333 C1335 1.389 . S
C1334 H1307 0.950 . S
C1334 C1320 1.377 . S
C1334 C1333 1.373 . S
C1335 C1319 1.377 . S
C1335 C1333 1.389 . S
C1335 C1336 1.524 . S
C1336 C1335 1.524 . S
C1336 C1337 1.397 . S
C1336 C1341 1.363 . S
C1337 H1308 0.950 . S
C1337 C1336 1.397 . S
C1337 C1338 1.334 . S
C1338 H1309 0.950 . S
C1338 C1337 1.334 . S
C1338 C1339 1.287 . S
C1339 C1338 1.287 . S
C1339 C1340 1.524 . S
C1339 H1342 0.999 . S
C1340 H1310 0.950 . S
C1340 C1339 1.524 . S
C1340 C1341 1.415 . S
C1341 H1311 0.950 . S
C1341 C1336 1.363 . S
C1341 C1340 1.415 . S
H1342 C1339 0.999 . S
H1343 C1324 0.913 . S
H1344 C1362 0.951 . S
H1345 C1364 0.951 . S
H1346 C1366 0.950 . S
H1347 C1367 0.950 . S
H1348 C1369 0.950 . S
H1349 C1372 0.950 . S
H1350 C1373 0.950 . S
H1351 C1375 0.950 . S
H1352 C1376 0.950 1_565 S
H1353 C1377 0.951 . S
H1354 C1379 0.951 . S
H1355 C1381 0.950 . S
H1356 C1382 0.950 . S
H1357 C1384 0.950 . S
H1358 C1387 0.950 . S
H1359 C1388 0.950 . S
H1360 C1390 0.950 1_545 S
H1361 C1391 0.950 . S
C1362 H1344 0.951 . S
C1362 C1363 1.366 . S
C1362 C1364 1.388 . S
C1363 C1362 1.366 . S
C1363 C1367 1.385 . S
C1364 H1345 0.951 . S
C1364 C1362 1.388 . S
C1364 C1365 1.366 . S
C1365 C1364 1.366 . S
C1365 C1366 1.414 . S
C1365 C1368 1.499 . S
C1366 H1346 0.950 . S
C1366 C1365 1.414 . S
C1366 C1367 1.374 . S
C1367 H1347 0.950 . S
C1367 C1363 1.385 . S
C1367 C1366 1.374 . S
C1368 C1365 1.499 . S
C1368 C1369 1.373 . S
C1368 C1370 1.389 . S
C1369 H1348 0.950 . S
C1369 C1368 1.373 . S
C1369 C1385 1.394 . S
C1370 C1368 1.389 . S
C1370 C1371 1.524 . S
C1370 C1384 1.377 1_545 S
C1371 C1370 1.524 . S
C1371 C1372 1.397 . S
C1371 C1376 1.363 . S
C1372 H1349 0.950 . S
C1372 C1371 1.397 . S
C1372 C1373 1.334 . S
C1373 H1350 0.950 . S
C1373 C1372 1.334 . S
C1373 C1374 1.287 . S
C1374 C1373 1.287 . S
C1374 C1375 1.524 . S
C1374 H1393 0.913 . S
C1375 H1351 0.950 . S
C1375 C1374 1.524 . S
C1375 C1376 1.415 . S
C1376 H1352 0.950 1_545 S
C1376 C1371 1.363 . S
C1376 C1375 1.415 . S
C1377 H1353 0.951 . S
C1377 C1378 1.366 . S
C1377 C1379 1.388 . S
C1378 C1377 1.366 . S
C1378 C1382 1.385 . S
C1379 H1354 0.951 . S
C1379 C1377 1.388 . S
C1379 C1380 1.366 . S
C1380 C1379 1.366 . S
C1380 C1381 1.414 . S
C1380 C1383 1.499 . S
C1381 H1355 0.950 . S
C1381 C1380 1.414 . S
C1381 C1382 1.374 . S
C1382 H1356 0.950 . S
C1382 C1378 1.385 . S
C1382 C1381 1.374 . S
C1383 C1380 1.499 . S
C1383 C1384 1.373 . S
C1383 C1385 1.381 1_565 S
C1384 H1357 0.950 . S
C1384 C1370 1.377 1_565 S
C1384 C1383 1.373 . S
C1385 C1369 1.394 . S
C1385 C1383 1.381 1_545 S
C1385 C1386 1.515 1_545 S
C1386 C1385 1.515 1_565 S
C1386 C1387 1.397 . S
C1386 C1391 1.363 1_565 S
C1387 H1358 0.950 . S
C1387 C1386 1.397 . S
C1387 C1388 1.334 . S
C1388 H1359 0.950 . S
C1388 C1387 1.334 . S
C1388 C1389 1.287 . S
C1389 C1388 1.287 . S
C1389 C1390 1.524 . S
C1389 H1392 0.999 . S
C1390 H1360 0.950 1_565 S
C1390 C1389 1.524 . S
C1390 C1391 1.415 1_565 S
C1391 H1361 0.950 . S
C1391 C1386 1.363 1_545 S
C1391 C1390 1.415 1_545 S
H1392 C1389 0.999 . S
H1393 C1374 0.913 . S
H1394 C1412 0.951 . S
H1395 C1414 0.951 . S
H1396 C1416 0.950 . S
H1397 C1417 0.950 . S
H1398 C1419 0.950 . S
H1399 C1422 0.950 . S
H1400 C1423 0.950 . S
H1401 C1425 0.950 . S
H1402 C1426 0.950 . S
H1403 C1427 0.951 . S
H1404 C1429 0.951 . S
H1405 C1431 0.950 . S
H1406 C1432 0.950 . S
H1407 C1434 0.950 . S
H1408 C1437 0.950 . S
H1409 C1438 0.950 . S
H1410 C1440 0.950 . S
H1411 C1441 0.950 . S
C1412 H1394 0.951 . S
C1412 C1413 1.366 . S
C1412 C1414 1.388 . S
C1413 C1412 1.366 . S
C1413 C1417 1.385 . S
C1414 H1395 0.951 . S
C1414 C1412 1.388 . S
C1414 C1415 1.366 . S
C1415 C1414 1.366 . S
C1415 C1416 1.414 . S
C1415 C1418 1.499 . S
C1416 H1396 0.950 . S
C1416 C1415 1.414 . S
C1416 C1417 1.374 . S
C1417 H1397 0.950 . S
C1417 C1413 1.385 . S
C1417 C1416 1.374 . S
C1418 C1415 1.499 . S
C1418 C1419 1.373 . S
C1418 C1420 1.389 . S
C1419 H1398 0.950 . S
C1419 C1418 1.373 . S
C1419 C1435 1.377 . S
C1420 C1418 1.389 . S
C1420 C1421 1.524 . S
C1420 C1434 1.377 . S
C1421 C1420 1.524 . S
C1421 C1422 1.397 . S
C1421 C1426 1.363 . S
C1422 H1399 0.950 . S
C1422 C1421 1.397 . S
C1422 C1423 1.334 . S
C1423 H1400 0.950 . S
C1423 C1422 1.334 . S
C1423 C1424 1.287 . S
C1424 C1423 1.287 . S
C1424 C1425 1.524 . S
C1424 H1443 0.913 . S
C1425 H1401 0.950 . S
C1425 C1424 1.524 . S
C1425 C1426 1.415 . S
C1426 H1402 0.950 . S
C1426 C1421 1.363 . S
C1426 C1425 1.415 . S
C1427 H1403 0.951 . S
C1427 C1428 1.366 . S
C1427 C1429 1.388 . S
C1428 C1427 1.366 . S
C1428 C1432 1.385 . S
C1429 H1404 0.951 . S
C1429 C1427 1.388 . S
C1429 C1430 1.366 . S
C1430 C1429 1.366 . S
C1430 C1431 1.414 . S
C1430 C1433 1.499 . S
C1431 H1405 0.950 . S
C1431 C1430 1.414 . S
C1431 C1432 1.374 . S
C1432 H1406 0.950 . S
C1432 C1428 1.385 . S
C1432 C1431 1.374 . S
C1433 C1430 1.499 . S
C1433 C1434 1.373 . S
C1433 C1435 1.389 . S
C1434 H1407 0.950 . S
C1434 C1420 1.377 . S
C1434 C1433 1.373 . S
C1435 C1419 1.377 . S
C1435 C1433 1.389 . S
C1435 C1436 1.524 . S
C1436 C1435 1.524 . S
C1436 C1437 1.397 . S
C1436 C1441 1.363 . S
C1437 H1408 0.950 . S
C1437 C1436 1.397 . S
C1437 C1438 1.334 . S
C1438 H1409 0.950 . S
C1438 C1437 1.334 . S
C1438 C1439 1.287 . S
C1439 C1438 1.287 . S
C1439 C1440 1.524 . S
C1439 H1442 0.999 . S
C1440 H1410 0.950 . S
C1440 C1439 1.524 . S
C1440 C1441 1.415 . S
C1441 H1411 0.950 . S
C1441 C1436 1.363 . S
C1441 C1440 1.415 . S
H1442 C1439 0.999 . S
H1443 C1424 0.913 . S
H1444 C1462 0.951 . S
H1445 C1464 0.951 . S
H1446 C1466 0.950 1_545 S
H1447 C1467 0.950 . S
H1448 C1469 0.950 . S
H1449 C1472 0.950 . S
H1450 C1473 0.950 . S
H1451 C1475 0.950 . S
H1452 C1476 0.950 . S
H1453 C1477 0.951 . S
H1454 C1479 0.951 . S
H1455 C1481 0.950 . S
H1456 C1482 0.950 . S
H1457 C1484 0.950 . S
H1458 C1487 0.950 . S
H1459 C1488 0.950 . S
H1460 C1490 0.950 . S
H1461 C1491 0.950 . S
C1462 H1444 0.951 . S
C1462 C1463 1.366 . S
C1462 C1464 1.388 . S
C1463 C1462 1.366 . S
C1463 C1467 1.385 . S
C1464 H1445 0.951 . S
C1464 C1462 1.388 . S
C1464 C1465 1.366 . S
C1465 C1464 1.366 . S
C1465 C1466 1.414 . S
C1465 C1468 1.495 1_565 S
C1466 H1446 0.950 1_565 S
C1466 C1465 1.414 . S
C1466 C1467 1.374 . S
C1467 H1447 0.950 . S
C1467 C1463 1.385 . S
C1467 C1466 1.374 . S
C1468 C1465 1.495 1_545 S
C1468 C1469 1.378 . S
C1468 C1470 1.388 1_545 S
C1469 H1448 0.950 . S
C1469 C1468 1.378 . S
C1469 C1485 1.377 . S
C1470 C1468 1.388 1_565 S
C1470 C1471 1.524 . S
C1470 C1484 1.377 1_565 S
C1471 C1470 1.524 . S
C1471 C1472 1.397 . S
C1471 C1476 1.363 . S
C1472 H1449 0.950 . S
C1472 C1471 1.397 . S
C1472 C1473 1.334 . S
C1473 H1450 0.950 . S
C1473 C1472 1.334 . S
C1473 C1474 1.287 . S
C1474 C1473 1.287 . S
C1474 C1475 1.524 . S
C1474 H1493 0.913 . S
C1475 H1451 0.950 . S
C1475 C1474 1.524 . S
C1475 C1476 1.415 . S
C1476 H1452 0.950 . S
C1476 C1471 1.363 . S
C1476 C1475 1.415 . S
C1477 H1453 0.951 . S
C1477 C1478 1.366 . S
C1477 C1479 1.388 . S
C1478 C1477 1.366 . S
C1478 C1482 1.385 . S
C1479 H1454 0.951 . S
C1479 C1477 1.388 . S
C1479 C1480 1.366 . S
C1480 C1479 1.366 . S
C1480 C1481 1.414 . S
C1480 C1483 1.499 . S
C1481 H1455 0.950 . S
C1481 C1480 1.414 . S
C1481 C1482 1.374 . S
C1482 H1456 0.950 . S
C1482 C1478 1.385 . S
C1482 C1481 1.374 . S
C1483 C1480 1.499 . S
C1483 C1484 1.373 . S
C1483 C1485 1.389 . S
C1484 H1457 0.950 . S
C1484 C1470 1.377 1_545 S
C1484 C1483 1.373 . S
C1485 C1469 1.377 . S
C1485 C1483 1.389 . S
C1485 C1486 1.524 . S
C1486 C1485 1.524 . S
C1486 C1487 1.397 . S
C1486 C1491 1.363 . S
C1487 H1458 0.950 . S
C1487 C1486 1.397 . S
C1487 C1488 1.334 . S
C1488 H1459 0.950 . S
C1488 C1487 1.334 . S
C1488 C1489 1.287 . S
C1489 C1488 1.287 . S
C1489 C1490 1.524 . S
C1489 H1492 0.999 . S
C1490 H1460 0.950 . S
C1490 C1489 1.524 . S
C1490 C1491 1.415 . S
C1491 H1461 0.950 . S
C1491 C1486 1.363 . S
C1491 C1490 1.415 . S
H1492 C1489 0.999 . S
H1493 C1474 0.913 . S
H1494 C1512 0.951 . S
H1495 C1514 0.951 . S
H1496 C1516 0.950 . S
H1497 C1517 0.950 . S
H1498 C1519 0.950 1_556 S
H1499 C1522 0.950 . S
H1500 C1523 0.950 . S
H1501 C1525 0.950 . S
H1502 C1526 0.950 . S
H1503 C1527 0.951 . S
H1504 C1529 0.951 . S
H1505 C1531 0.950 . S
H1506 C1532 0.950 . S
H1507 C1534 0.950 . S
H1508 C1537 0.950 . S
H1509 C1538 0.950 . S
H1510 C1540 0.950 . S
H1511 C1541 0.950 1_556 S
C1512 H1494 0.951 . S
C1512 C1513 1.366 . S
C1512 C1514 1.388 . S
C1513 C1512 1.366 . S
C1513 C1517 1.385 . S
C1514 H1495 0.951 . S
C1514 C1512 1.388 . S
C1514 C1515 1.366 . S
C1515 C1514 1.366 . S
C1515 C1516 1.414 . S
C1515 C1518 1.499 . S
C1516 H1496 0.950 . S
C1516 C1515 1.414 . S
C1516 C1517 1.374 . S
C1517 H1497 0.950 . S
C1517 C1513 1.385 . S
C1517 C1516 1.374 . S
C1518 C1515 1.499 . S
C1518 C1519 1.373 1_556 S
C1518 C1520 1.389 1_556 S
C1519 H1498 0.950 1_554 S
C1519 C1518 1.373 1_554 S
C1519 C1535 1.377 . S
C1520 C1518 1.389 1_554 S
C1520 C1521 1.524 . S
C1520 C1534 1.377 . S
C1521 C1520 1.524 . S
C1521 C1522 1.397 1_554 S
C1521 C1526 1.363 . S
C1522 H1499 0.950 . S
C1522 C1521 1.397 1_556 S
C1522 C1523 1.334 . S
C1523 H1500 0.950 . S
C1523 C1522 1.334 . S
C1523 C1524 1.287 . S
C1524 C1523 1.287 . S
C1524 C1525 1.524 1_556 S
C1524 H1543 0.913 . S
C1525 H1501 0.950 . S
C1525 C1524 1.524 1_554 S
C1525 C1526 1.415 . S
C1526 H1502 0.950 . S
C1526 C1521 1.363 . S
C1526 C1525 1.415 . S
C1527 H1503 0.951 . S
C1527 C1528 1.366 . S
C1527 C1529 1.388 . S
C1528 C1527 1.366 . S
C1528 C1532 1.385 . S
C1529 H1504 0.951 . S
C1529 C1527 1.388 . S
C1529 C1530 1.366 . S
C1530 C1529 1.366 . S
C1530 C1531 1.414 . S
C1530 C1533 1.499 . S
C1531 H1505 0.950 . S
C1531 C1530 1.414 . S
C1531 C1532 1.374 . S
C1532 H1506 0.950 . S
C1532 C1528 1.385 . S
C1532 C1531 1.374 . S
C1533 C1530 1.499 . S
C1533 C1534 1.373 . S
C1533 C1535 1.389 . S
C1534 H1507 0.950 . S
C1534 C1520 1.377 . S
C1534 C1533 1.373 . S
C1535 C1519 1.377 . S
C1535 C1533 1.389 . S
C1535 C1536 1.524 . S
C1536 C1535 1.524 . S
C1536 C1537 1.397 . S
C1536 C1541 1.363 . S
C1537 H1508 0.950 . S
C1537 C1536 1.397 . S
C1537 C1538 1.334 . S
C1538 H1509 0.950 . S
C1538 C1537 1.334 . S
C1538 C1539 1.287 . S
C1539 C1538 1.287 . S
C1539 C1540 1.524 . S
C1539 H1542 0.999 . S
C1540 H1510 0.950 . S
C1540 C1539 1.524 . S
C1540 C1541 1.415 . S
C1541 H1511 0.950 1_554 S
C1541 C1536 1.363 . S
C1541 C1540 1.415 . S
H1542 C1539 0.999 . S
H1543 C1524 0.913 . S
H1544 C1562 0.951 . S
H1545 C1564 0.951 . S
H1546 C1566 0.950 . S
H1547 C1567 0.950 . S
H1548 C1569 0.948 1_655 S
H1549 C1572 0.950 . S
H1550 C1573 0.950 . S
H1551 C1575 0.950 . S
H1552 C1576 0.950 . S
H1553 C1577 0.951 . S
H1554 C1579 0.951 . S
H1555 C1581 0.950 . S
H1556 C1582 0.950 . S
H1557 C1584 0.950 . S
H1558 C1587 0.950 . S
H1559 C1588 0.950 . S
H1560 C1590 0.950 . S
H1561 C1591 0.950 . S
C1562 H1544 0.951 . S
C1562 C1563 1.366 . S
C1562 C1564 1.388 . S
C1563 C1562 1.366 . S
C1563 C1567 1.385 . S
C1564 H1545 0.951 . S
C1564 C1562 1.388 . S
C1564 C1565 1.366 . S
C1565 C1564 1.366 . S
C1565 C1566 1.414 . S
C1565 C1568 1.499 . S
C1566 H1546 0.950 . S
C1566 C1565 1.414 . S
C1566 C1567 1.374 . S
C1567 H1547 0.950 . S
C1567 C1563 1.385 . S
C1567 C1566 1.374 . S
C1568 C1565 1.499 . S
C1568 C1569 1.384 . S
C1568 C1570 1.389 . S
C1569 H1548 0.948 1_455 S
C1569 C1568 1.384 . S
C1569 C1585 1.368 1_455 S
C1570 C1568 1.389 . S
C1570 C1571 1.524 . S
C1570 C1584 1.377 . S
C1571 C1570 1.524 . S
C1571 C1572 1.397 . S
C1571 C1576 1.363 . S
C1572 H1549 0.950 . S
C1572 C1571 1.397 . S
C1572 C1573 1.334 . S
C1573 H1550 0.950 . S
C1573 C1572 1.334 . S
C1573 C1574 1.287 . S
C1574 C1573 1.287 . S
C1574 C1575 1.524 . S
C1574 H1593 0.913 . S
C1575 H1551 0.950 . S
C1575 C1574 1.524 . S
C1575 C1576 1.415 . S
C1576 H1552 0.950 . S
C1576 C1571 1.363 . S
C1576 C1575 1.415 . S
C1577 H1553 0.951 . S
C1577 C1578 1.366 . S
C1577 C1579 1.388 . S
C1578 C1577 1.366 . S
C1578 C1582 1.385 . S
C1579 H1554 0.951 . S
C1579 C1577 1.388 . S
C1579 C1580 1.366 . S
C1580 C1579 1.366 . S
C1580 C1581 1.414 . S
C1580 C1583 1.499 . S
C1581 H1555 0.950 . S
C1581 C1580 1.414 . S
C1581 C1582 1.374 . S
C1582 H1556 0.950 . S
C1582 C1578 1.385 . S
C1582 C1581 1.374 . S
C1583 C1580 1.499 . S
C1583 C1584 1.373 1_655 S
C1583 C1585 1.389 . S
C1584 H1557 0.950 . S
C1584 C1570 1.377 . S
C1584 C1583 1.373 1_455 S
C1585 C1569 1.368 1_655 S
C1585 C1583 1.389 . S
C1585 C1586 1.524 . S
C1586 C1585 1.524 . S
C1586 C1587 1.397 . S
C1586 C1591 1.363 . S
C1587 H1558 0.950 . S
C1587 C1586 1.397 . S
C1587 C1588 1.334 . S
C1588 H1559 0.950 . S
C1588 C1587 1.334 . S
C1588 C1589 1.287 . S
C1589 C1588 1.287 . S
C1589 C1590 1.524 . S
C1589 H1592 0.999 . S
C1590 H1560 0.950 . S
C1590 C1589 1.524 . S
C1590 C1591 1.415 . S
C1591 H1561 0.950 . S
C1591 C1586 1.363 . S
C1591 C1590 1.415 . S
H1592 C1589 0.999 . S
H1593 C1574 0.913 . S
H1594 C1612 0.951 . S
H1595 C1614 0.951 . S
H1596 C1616 0.950 . S
H1597 C1617 0.950 . S
H1598 C1619 0.950 . S
H1599 C1622 0.950 . S
H1600 C1623 0.950 . S
H1601 C1625 0.950 . S
H1602 C1626 0.950 . S
H1603 C1627 0.951 . S
H1604 C1629 0.951 . S
H1605 C1631 0.950 . S
H1606 C1632 0.950 . S
H1607 C1634 0.950 . S
H1608 C1637 0.950 . S
H1609 C1638 0.950 . S
H1610 C1640 0.950 . S
H1611 C1641 0.950 . S
C1612 H1594 0.951 . S
C1612 C1613 1.366 . S
C1612 C1614 1.388 . S
C1613 C1612 1.366 . S
C1613 C1617 1.385 . S
C1614 H1595 0.951 . S
C1614 C1612 1.388 . S
C1614 C1615 1.366 . S
C1615 C1614 1.366 . S
C1615 C1616 1.414 . S
C1615 C1618 1.499 . S
C1616 H1596 0.950 . S
C1616 C1615 1.414 . S
C1616 C1617 1.374 . S
C1617 H1597 0.950 . S
C1617 C1613 1.385 . S
C1617 C1616 1.374 . S
C1618 C1615 1.499 . S
C1618 C1619 1.373 . S
C1618 C1620 1.389 . S
C1619 H1598 0.950 . S
C1619 C1618 1.373 . S
C1619 C1635 1.377 . S
C1620 C1618 1.389 . S
C1620 C1621 1.524 . S
C1620 C1634 1.377 . S
C1621 C1620 1.524 . S
C1621 C1622 1.397 . S
C1621 C1626 1.363 . S
C1622 H1599 0.950 . S
C1622 C1621 1.397 . S
C1622 C1623 1.334 . S
C1623 H1600 0.950 . S
C1623 C1622 1.334 . S
C1623 C1624 1.287 . S
C1624 C1623 1.287 . S
C1624 C1625 1.524 . S
C1624 H1643 0.913 . S
C1625 H1601 0.950 . S
C1625 C1624 1.524 . S
C1625 C1626 1.415 . S
C1626 H1602 0.950 . S
C1626 C1621 1.363 . S
C1626 C1625 1.415 . S
C1627 H1603 0.951 . S
C1627 C1628 1.366 . S
C1627 C1629 1.388 . S
C1628 C1627 1.366 . S
C1628 C1632 1.385 . S
C1629 H1604 0.951 . S
C1629 C1627 1.388 . S
C1629 C1630 1.366 . S
C1630 C1629 1.366 . S
C1630 C1631 1.414 . S
C1630 C1633 1.499 . S
C1631 H1605 0.950 . S
C1631 C1630 1.414 . S
C1631 C1632 1.374 . S
C1632 H1606 0.950 . S
C1632 C1628 1.385 . S
C1632 C1631 1.374 . S
C1633 C1630 1.499 . S
C1633 C1634 1.373 . S
C1633 C1635 1.389 . S
C1634 H1607 0.950 . S
C1634 C1620 1.377 . S
C1634 C1633 1.373 . S
C1635 C1619 1.377 . S
C1635 C1633 1.389 . S
C1635 C1636 1.524 . S
C1636 C1635 1.524 . S
C1636 C1637 1.397 . S
C1636 C1641 1.363 . S
C1637 H1608 0.950 . S
C1637 C1636 1.397 . S
C1637 C1638 1.334 . S
C1638 H1609 0.950 . S
C1638 C1637 1.334 . S
C1638 C1639 1.287 . S
C1639 C1638 1.287 . S
C1639 C1640 1.524 . S
C1639 H1642 0.999 . S
C1640 H1610 0.950 . S
C1640 C1639 1.524 . S
C1640 C1641 1.415 . S
C1641 H1611 0.950 . S
C1641 C1636 1.363 . S
C1641 C1640 1.415 . S
H1642 C1639 0.999 . S
H1643 C1624 0.913 . S
H1644 C1662 0.951 . S
H1645 C1664 0.951 . S
H1646 C1666 0.950 . S
H1647 C1667 0.950 . S
H1648 C1669 0.950 . S
H1649 C1672 0.950 . S
H1650 C1673 0.950 . S
H1651 C1675 0.950 . S
H1652 C1676 0.950 . S
H1653 C1677 0.951 . S
H1654 C1679 0.951 . S
H1655 C1681 0.950 . S
H1656 C1682 0.950 . S
H1657 C1684 0.950 . S
H1658 C1687 0.950 . S
H1659 C1688 0.950 . S
H1660 C1690 0.950 . S
H1661 C1691 0.950 . S
C1662 H1644 0.951 . S
C1662 C1663 1.366 . S
C1662 C1664 1.388 . S
C1663 C1662 1.366 . S
C1663 C1667 1.385 . S
C1664 H1645 0.951 . S
C1664 C1662 1.388 . S
C1664 C1665 1.366 . S
C1665 C1664 1.366 . S
C1665 C1666 1.414 . S
C1665 C1668 1.499 . S
C1666 H1646 0.950 . S
C1666 C1665 1.414 . S
C1666 C1667 1.374 . S
C1667 H1647 0.950 . S
C1667 C1663 1.385 . S
C1667 C1666 1.374 . S
C1668 C1665 1.499 . S
C1668 C1669 1.373 1_655 S
C1668 C1670 1.389 . S
C1669 H1648 0.950 . S
C1669 C1668 1.373 1_455 S
C1669 C1685 1.377 . S
C1670 C1668 1.389 . S
C1670 C1671 1.524 . S
C1670 C1684 1.377 . S
C1671 C1670 1.524 . S
C1671 C1672 1.397 . S
C1671 C1676 1.363 . S
C1672 H1649 0.950 . S
C1672 C1671 1.397 . S
C1672 C1673 1.334 . S
C1673 H1650 0.950 . S
C1673 C1672 1.334 . S
C1673 C1674 1.287 . S
C1674 C1673 1.287 . S
C1674 C1675 1.524 . S
C1674 H1693 0.913 . S
C1675 H1651 0.950 . S
C1675 C1674 1.524 . S
C1675 C1676 1.415 . S
C1676 H1652 0.950 . S
C1676 C1671 1.363 . S
C1676 C1675 1.415 . S
C1677 H1653 0.951 . S
C1677 C1678 1.366 . S
C1677 C1679 1.388 . S
C1678 C1677 1.366 . S
C1678 C1682 1.385 . S
C1679 H1654 0.951 . S
C1679 C1677 1.388 . S
C1679 C1680 1.366 . S
C1680 C1679 1.366 . S
C1680 C1681 1.414 . S
C1680 C1683 1.499 . S
C1681 H1655 0.950 . S
C1681 C1680 1.414 . S
C1681 C1682 1.374 . S
C1682 H1656 0.950 . S
C1682 C1678 1.385 . S
C1682 C1681 1.374 . S
C1683 C1680 1.499 . S
C1683 C1684 1.373 1_455 S
C1683 C1685 1.389 . S
C1684 H1657 0.950 . S
C1684 C1670 1.377 . S
C1684 C1683 1.373 1_655 S
C1685 C1669 1.377 . S
C1685 C1683 1.389 . S
C1685 C1686 1.524 . S
C1686 C1685 1.524 . S
C1686 C1687 1.397 . S
C1686 C1691 1.363 . S
C1687 H1658 0.950 . S
C1687 C1686 1.397 . S
C1687 C1688 1.334 . S
C1688 H1659 0.950 . S
C1688 C1687 1.334 . S
C1688 C1689 1.287 . S
C1689 C1688 1.287 . S
C1689 C1690 1.524 . S
C1689 H1692 0.999 . S
C1690 H1660 0.950 . S
C1690 C1689 1.524 . S
C1690 C1691 1.415 . S
C1691 H1661 0.950 . S
C1691 C1686 1.363 . S
C1691 C1690 1.415 . S
H1692 C1689 0.999 . S
H1693 C1674 0.913 . S
H1694 C1712 0.951 . S
H1695 C1714 0.951 . S
H1696 C1716 0.950 . S
H1697 C1717 0.950 . S
H1698 C1719 0.950 . S
H1699 C1722 0.950 . S
H1700 C1723 0.950 . S
H1701 C1725 0.950 . S
H1702 C1726 0.950 . S
H1703 C1727 0.951 . S
H1704 C1729 0.951 . S
H1705 C1731 0.950 . S
H1706 C1732 0.950 . S
H1707 C1734 0.950 . S
H1708 C1737 0.950 . S
H1709 C1738 0.950 . S
H1710 C1740 0.950 . S
H1711 C1741 0.950 . S
C1712 H1694 0.951 . S
C1712 C1713 1.366 . S
C1712 C1714 1.388 . S
C1713 C1712 1.366 . S
C1713 C1717 1.385 . S
C1714 H1695 0.951 . S
C1714 C1712 1.388 . S
C1714 C1715 1.366 . S
C1715 C1714 1.366 . S
C1715 C1716 1.414 . S
C1715 C1718 1.499 . S
C1716 H1696 0.950 . S
C1716 C1715 1.414 . S
C1716 C1717 1.374 . S
C1717 H1697 0.950 . S
C1717 C1713 1.385 . S
C1717 C1716 1.374 . S
C1718 C1715 1.499 . S
C1718 C1719 1.373 . S
C1718 C1720 1.389 . S
C1719 H1698 0.950 . S
C1719 C1718 1.373 . S
C1719 C1735 1.377 . S
C1720 C1718 1.389 . S
C1720 C1721 1.524 . S
C1720 C1734 1.377 . S
C1721 C1720 1.524 . S
C1721 C1722 1.397 . S
C1721 C1726 1.363 . S
C1722 H1699 0.950 . S
C1722 C1721 1.397 . S
C1722 C1723 1.334 . S
C1723 H1700 0.950 . S
C1723 C1722 1.334 . S
C1723 C1724 1.287 . S
C1724 C1723 1.287 . S
C1724 C1725 1.524 . S
C1724 H1743 0.913 . S
C1725 H1701 0.950 . S
C1725 C1724 1.524 . S
C1725 C1726 1.415 . S
C1726 H1702 0.950 . S
C1726 C1721 1.363 . S
C1726 C1725 1.415 . S
C1727 H1703 0.951 . S
C1727 C1728 1.366 . S
C1727 C1729 1.388 . S
C1728 C1727 1.366 . S
C1728 C1732 1.385 . S
C1729 H1704 0.951 . S
C1729 C1727 1.388 . S
C1729 C1730 1.366 . S
C1730 C1729 1.366 . S
C1730 C1731 1.414 . S
C1730 C1733 1.499 . S
C1731 H1705 0.950 . S
C1731 C1730 1.414 . S
C1731 C1732 1.374 . S
C1732 H1706 0.950 . S
C1732 C1728 1.385 . S
C1732 C1731 1.374 . S
C1733 C1730 1.499 . S
C1733 C1734 1.373 . S
C1733 C1735 1.389 . S
C1734 H1707 0.950 . S
C1734 C1720 1.377 . S
C1734 C1733 1.373 . S
C1735 C1719 1.377 . S
C1735 C1733 1.389 . S
C1735 C1736 1.524 . S
C1736 C1735 1.524 . S
C1736 C1737 1.397 . S
C1736 C1741 1.363 . S
C1737 H1708 0.950 . S
C1737 C1736 1.397 . S
C1737 C1738 1.334 . S
C1738 H1709 0.950 . S
C1738 C1737 1.334 . S
C1738 C1739 1.287 . S
C1739 C1738 1.287 . S
C1739 C1740 1.524 . S
C1739 H1742 0.999 . S
C1740 H1710 0.950 . S
C1740 C1739 1.524 . S
C1740 C1741 1.415 . S
C1741 H1711 0.950 . S
C1741 C1736 1.363 . S
C1741 C1740 1.415 . S
H1742 C1739 0.999 . S
H1743 C1724 0.913 . S
H1744 C1762 0.951 . S
H1745 C1764 0.951 . S
H1746 C1766 0.950 . S
H1747 C1767 0.950 . S
H1748 C1769 0.954 . S
H1749 C1772 0.950 . S
H1750 C1773 0.950 . S
H1751 C1775 0.950 . S
H1752 C1776 0.950 . S
H1753 C1777 0.951 . S
H1754 C1779 0.951 . S
H1755 C1781 0.950 . S
H1756 C1782 0.950 . S
H1757 C1784 0.950 . S
H1758 C1787 0.950 . S
H1759 C1788 0.950 . S
H1760 C1790 0.950 . S
H1761 C1791 0.950 . S
C1762 H1744 0.951 . S
C1762 C1763 1.366 . S
C1762 C1764 1.388 . S
C1763 C1762 1.366 . S
C1763 C1767 1.385 . S
C1764 H1745 0.951 . S
C1764 C1762 1.388 . S
C1764 C1765 1.366 . S
C1765 C1764 1.366 . S
C1765 C1766 1.414 . S
C1765 C1768 1.499 . S
C1766 H1746 0.950 . S
C1766 C1765 1.414 . S
C1766 C1767 1.374 . S
C1767 H1747 0.950 . S
C1767 C1763 1.385 . S
C1767 C1766 1.374 . S
C1768 C1765 1.499 . S
C1768 C1769 1.373 1_545 S
C1768 C1770 1.389 . S
C1769 H1748 0.954 . S
C1769 C1768 1.373 1_565 S
C1769 C1785 1.377 . S
C1770 C1768 1.389 . S
C1770 C1771 1.524 . S
C1770 C1784 1.377 1_545 S
C1771 C1770 1.524 . S
C1771 C1772 1.397 . S
C1771 C1776 1.363 . S
C1772 H1749 0.950 . S
C1772 C1771 1.397 . S
C1772 C1773 1.334 . S
C1773 H1750 0.950 . S
C1773 C1772 1.334 . S
C1773 C1774 1.287 . S
C1774 C1773 1.287 . S
C1774 C1775 1.524 . S
C1774 H1793 0.913 . S
C1775 H1751 0.950 . S
C1775 C1774 1.524 . S
C1775 C1776 1.415 . S
C1776 H1752 0.950 . S
C1776 C1771 1.363 . S
C1776 C1775 1.415 . S
C1777 H1753 0.951 . S
C1777 C1778 1.366 . S
C1777 C1779 1.388 . S
C1778 C1777 1.366 . S
C1778 C1782 1.385 . S
C1779 H1754 0.951 . S
C1779 C1777 1.388 . S
C1779 C1780 1.366 . S
C1780 C1779 1.366 . S
C1780 C1781 1.414 . S
C1780 C1783 1.499 . S
C1781 H1755 0.950 . S
C1781 C1780 1.414 . S
C1781 C1782 1.374 . S
C1782 H1756 0.950 . S
C1782 C1778 1.385 . S
C1782 C1781 1.374 . S
C1783 C1780 1.499 . S
C1783 C1784 1.373 . S
C1783 C1785 1.389 . S
C1784 H1757 0.950 . S
C1784 C1770 1.377 1_565 S
C1784 C1783 1.373 . S
C1785 C1769 1.377 . S
C1785 C1783 1.389 . S
C1785 C1786 1.524 . S
C1786 C1785 1.524 . S
C1786 C1787 1.397 . S
C1786 C1791 1.363 . S
C1787 H1758 0.950 . S
C1787 C1786 1.397 . S
C1787 C1788 1.334 . S
C1788 H1759 0.950 . S
C1788 C1787 1.334 . S
C1788 C1789 1.287 . S
C1789 C1788 1.287 . S
C1789 C1790 1.524 . S
C1789 H1792 0.999 . S
C1790 H1760 0.950 . S
C1790 C1789 1.524 . S
C1790 C1791 1.415 . S
C1791 H1761 0.950 . S
C1791 C1786 1.363 . S
C1791 C1790 1.415 . S
H1792 C1789 0.999 . S
H1793 C1774 0.913 . S
H1794 C1812 0.951 . S
H1795 C1814 0.951 . S
H1796 C1816 0.950 . S
H1797 C1817 0.950 . S
H1798 C1819 0.950 . S
H1799 C1822 0.950 . S
H1800 C1823 0.950 . S
H1801 C1825 0.950 . S
H1802 C1826 0.950 . S
H1803 C1827 0.951 . S
H1804 C1829 0.951 . S
H1805 C1831 0.950 . S
H1806 C1832 0.950 . S
H1807 C1834 0.950 . S
H1808 C1837 0.950 . S
H1809 C1838 0.950 . S
H1810 C1840 0.950 . S
H1811 C1841 0.950 . S
C1812 H1794 0.951 . S
C1812 C1813 1.366 . S
C1812 C1814 1.388 . S
C1813 C1812 1.366 . S
C1813 C1817 1.385 . S
C1814 H1795 0.951 . S
C1814 C1812 1.388 . S
C1814 C1815 1.366 . S
C1815 C1814 1.366 . S
C1815 C1816 1.414 . S
C1815 C1818 1.499 . S
C1816 H1796 0.950 . S
C1816 C1815 1.414 . S
C1816 C1817 1.374 . S
C1817 H1797 0.950 . S
C1817 C1813 1.385 . S
C1817 C1816 1.374 . S
C1818 C1815 1.499 . S
C1818 C1819 1.373 . S
C1818 C1820 1.389 . S
C1819 H1798 0.950 . S
C1819 C1818 1.373 . S
C1819 C1835 1.377 . S
C1820 C1818 1.389 . S
C1820 C1821 1.524 . S
C1820 C1834 1.377 . S
C1821 C1820 1.524 . S
C1821 C1822 1.397 . S
C1821 C1826 1.363 . S
C1822 H1799 0.950 . S
C1822 C1821 1.397 . S
C1822 C1823 1.334 . S
C1823 H1800 0.950 . S
C1823 C1822 1.334 . S
C1823 C1824 1.287 . S
C1824 C1823 1.287 . S
C1824 C1825 1.524 . S
C1824 H1843 0.913 . S
C1825 H1801 0.950 . S
C1825 C1824 1.524 . S
C1825 C1826 1.415 . S
C1826 H1802 0.950 . S
C1826 C1821 1.363 . S
C1826 C1825 1.415 . S
C1827 H1803 0.951 . S
C1827 C1828 1.366 . S
C1827 C1829 1.388 . S
C1828 C1827 1.366 . S
C1828 C1832 1.385 . S
C1829 H1804 0.951 . S
C1829 C1827 1.388 . S
C1829 C1830 1.366 . S
C1830 C1829 1.366 . S
C1830 C1831 1.414 . S
C1830 C1833 1.499 . S
C1831 H1805 0.950 . S
C1831 C1830 1.414 . S
C1831 C1832 1.374 . S
C1832 H1806 0.950 . S
C1832 C1828 1.385 . S
C1832 C1831 1.374 . S
C1833 C1830 1.499 . S
C1833 C1834 1.373 . S
C1833 C1835 1.389 . S
C1834 H1807 0.950 . S
C1834 C1820 1.377 . S
C1834 C1833 1.373 . S
C1835 C1819 1.377 . S
C1835 C1833 1.389 . S
C1835 C1836 1.524 . S
C1836 C1835 1.524 . S
C1836 C1837 1.397 . S
C1836 C1841 1.363 . S
C1837 H1808 0.950 . S
C1837 C1836 1.397 . S
C1837 C1838 1.334 . S
C1838 H1809 0.950 . S
C1838 C1837 1.334 . S
C1838 C1839 1.287 . S
C1839 C1838 1.287 . S
C1839 C1840 1.524 . S
C1839 H1842 0.999 . S
C1840 H1810 0.950 . S
C1840 C1839 1.524 . S
C1840 C1841 1.415 . S
C1841 H1811 0.950 . S
C1841 C1836 1.363 . S
C1841 C1840 1.415 . S
H1842 C1839 0.999 . S
H1843 C1824 0.913 . S
H1844 C1862 0.951 . S
H1845 C1864 0.951 . S
H1846 C1866 0.950 . S
H1847 C1867 0.950 . S
H1848 C1869 0.950 . S
H1849 C1872 0.950 . S
H1850 C1873 0.950 . S
H1851 C1875 0.950 . S
H1852 C1876 0.950 . S
H1853 C1877 0.951 . S
H1854 C1879 0.951 . S
H1855 C1881 0.950 . S
H1856 C1882 0.950 . S
H1857 C1884 0.950 . S
H1858 C1887 0.950 . S
H1859 C1888 0.949 1_565 S
H1860 C1890 0.950 . S
H1861 C1891 0.950 . S
C1862 H1844 0.951 . S
C1862 C1863 1.366 . S
C1862 C1864 1.388 . S
C1863 C1862 1.366 . S
C1863 C1867 1.385 . S
C1864 H1845 0.951 . S
C1864 C1862 1.388 . S
C1864 C1865 1.366 . S
C1865 C1864 1.366 . S
C1865 C1866 1.414 . S
C1865 C1868 1.499 . S
C1866 H1846 0.950 . S
C1866 C1865 1.414 . S
C1866 C1867 1.374 . S
C1867 H1847 0.950 . S
C1867 C1863 1.385 . S
C1867 C1866 1.374 . S
C1868 C1865 1.499 . S
C1868 C1869 1.373 . S
C1868 C1870 1.389 1_545 S
C1869 H1848 0.950 . S
C1869 C1868 1.373 . S
C1869 C1885 1.377 1_545 S
C1870 C1868 1.389 1_565 S
C1870 C1871 1.524 . S
C1870 C1884 1.377 . S
C1871 C1870 1.524 . S
C1871 C1872 1.397 . S
C1871 C1876 1.363 . S
C1872 H1849 0.950 . S
C1872 C1871 1.397 . S
C1872 C1873 1.334 . S
C1873 H1850 0.950 . S
C1873 C1872 1.334 . S
C1873 C1874 1.287 . S
C1874 C1873 1.287 . S
C1874 C1875 1.524 . S
C1874 H1893 0.913 . S
C1875 H1851 0.950 . S
C1875 C1874 1.524 . S
C1875 C1876 1.415 . S
C1876 H1852 0.950 . S
C1876 C1871 1.363 . S
C1876 C1875 1.415 . S
C1877 H1853 0.951 . S
C1877 C1878 1.366 . S
C1877 C1879 1.388 . S
C1878 C1877 1.366 . S
C1878 C1882 1.385 . S
C1879 H1854 0.951 . S
C1879 C1877 1.388 . S
C1879 C1880 1.366 . S
C1880 C1879 1.366 . S
C1880 C1881 1.414 . S
C1880 C1883 1.499 . S
C1881 H1855 0.950 . S
C1881 C1880 1.414 . S
C1881 C1882 1.374 . S
C1882 H1856 0.950 . S
C1882 C1878 1.385 . S
C1882 C1881 1.374 . S
C1883 C1880 1.499 . S
C1883 C1884 1.373 . S
C1883 C1885 1.389 . S
C1884 H1857 0.950 . S
C1884 C1870 1.377 . S
C1884 C1883 1.373 . S
C1885 C1869 1.377 1_565 S
C1885 C1883 1.389 . S
C1885 C1886 1.528 . S
C1886 C1885 1.528 . S
C1886 C1887 1.397 . S
C1886 C1891 1.357 1_565 S
C1887 H1858 0.950 . S
C1887 C1886 1.397 . S
C1887 C1888 1.334 1_565 S
C1888 H1859 0.949 1_545 S
C1888 C1887 1.334 1_545 S
C1888 C1889 1.287 . S
C1889 C1888 1.287 . S
C1889 C1890 1.524 . S
C1889 H1892 0.999 . S
C1890 H1860 0.950 . S
C1890 C1889 1.524 . S
C1890 C1891 1.415 . S
C1891 H1861 0.950 . S
C1891 C1886 1.357 1_545 S
C1891 C1890 1.415 . S
H1892 C1889 0.999 . S
H1893 C1874 0.913 . S
H1894 C1912 0.951 . S
H1895 C1914 0.951 . S
H1896 C1916 0.950 . S
H1897 C1917 0.950 . S
H1898 C1919 0.950 . S
H1899 C1922 0.950 . S
H1900 C1923 0.950 . S
H1901 C1925 0.950 . S
H1902 C1926 0.950 . S
H1903 C1927 0.951 . S
H1904 C1929 0.951 . S
H1905 C1931 0.950 . S
H1906 C1932 0.950 . S
H1907 C1934 0.950 . S
H1908 C1937 0.950 1_554 S
H1909 C1938 0.946 1_554 S
H1910 C1940 0.950 . S
H1911 C1941 0.950 . S
C1912 H1894 0.951 . S
C1912 C1913 1.366 . S
C1912 C1914 1.388 . S
C1913 C1912 1.366 . S
C1913 C1917 1.385 . S
C1914 H1895 0.951 . S
C1914 C1912 1.388 . S
C1914 C1915 1.366 . S
C1915 C1914 1.366 . S
C1915 C1916 1.414 . S
C1915 C1918 1.499 . S
C1916 H1896 0.950 . S
C1916 C1915 1.414 . S
C1916 C1917 1.374 . S
C1917 H1897 0.950 . S
C1917 C1913 1.385 . S
C1917 C1916 1.374 . S
C1918 C1915 1.499 . S
C1918 C1919 1.373 . S
C1918 C1920 1.389 . S
C1919 H1898 0.950 . S
C1919 C1918 1.373 . S
C1919 C1935 1.377 1_554 S
C1920 C1918 1.389 . S
C1920 C1921 1.524 . S
C1920 C1934 1.377 1_554 S
C1921 C1920 1.524 . S
C1921 C1922 1.397 1_554 S
C1921 C1926 1.363 . S
C1922 H1899 0.950 . S
C1922 C1921 1.397 1_556 S
C1922 C1923 1.334 . S
C1923 H1900 0.950 . S
C1923 C1922 1.334 . S
C1923 C1924 1.285 1_556 S
C1924 C1923 1.285 1_554 S
C1924 C1925 1.527 . S
C1924 H1943 0.914 . S
C1925 H1901 0.950 . S
C1925 C1924 1.527 . S
C1925 C1926 1.415 . S
C1926 H1902 0.950 . S
C1926 C1921 1.363 . S
C1926 C1925 1.415 . S
C1927 H1903 0.951 . S
C1927 C1928 1.366 . S
C1927 C1929 1.388 . S
C1928 C1927 1.366 . S
C1928 C1932 1.385 . S
C1929 H1904 0.951 . S
C1929 C1927 1.388 . S
C1929 C1930 1.366 . S
C1930 C1929 1.366 . S
C1930 C1931 1.414 . S
C1930 C1933 1.499 . S
C1931 H1905 0.950 . S
C1931 C1930 1.414 . S
C1931 C1932 1.374 . S
C1932 H1906 0.950 . S
C1932 C1928 1.385 . S
C1932 C1931 1.374 . S
C1933 C1930 1.499 . S
C1933 C1934 1.373 . S
C1933 C1935 1.389 . S
C1934 H1907 0.950 . S
C1934 C1920 1.377 1_556 S
C1934 C1933 1.373 . S
C1935 C1919 1.377 1_556 S
C1935 C1933 1.389 . S
C1935 C1936 1.524 . S
C1936 C1935 1.524 . S
C1936 C1937 1.397 . S
C1936 C1941 1.363 . S
C1937 H1908 0.950 1_556 S
C1937 C1936 1.397 . S
C1937 C1938 1.334 . S
C1938 H1909 0.946 1_556 S
C1938 C1937 1.334 . S
C1938 C1939 1.287 . S
C1939 C1938 1.287 . S
C1939 C1940 1.524 . S
C1939 H1942 0.999 . S
C1940 H1910 0.950 . S
C1940 C1939 1.524 . S
C1940 C1941 1.415 . S
C1941 H1911 0.950 . S
C1941 C1936 1.363 . S
C1941 C1940 1.415 . S
H1942 C1939 0.999 . S
H1943 C1924 0.914 . S
H1944 C1962 0.951 . S
H1945 C1964 0.951 . S
H1946 C1966 0.950 . S
H1947 C1967 0.950 . S
H1948 C1969 0.950 . S
H1949 C1972 0.950 . S
H1950 C1973 0.950 . S
H1951 C1975 0.950 1_655 S
H1952 C1976 0.950 . S
H1953 C1977 0.951 . S
H1954 C1979 0.951 . S
H1955 C1981 0.950 . S
H1956 C1982 0.950 . S
H1957 C1984 0.950 . S
H1958 C1987 0.950 . S
H1959 C1988 0.950 . S
H1960 C1990 0.927 1_455 S
H1961 C1991 0.950 1_455 S
C1962 H1944 0.951 . S
C1962 C1963 1.366 . S
C1962 C1964 1.388 . S
C1963 C1962 1.366 . S
C1963 C1967 1.385 . S
C1964 H1945 0.951 . S
C1964 C1962 1.388 . S
C1964 C1965 1.366 . S
C1965 C1964 1.366 . S
C1965 C1966 1.414 . S
C1965 C1968 1.499 . S
C1966 H1946 0.950 . S
C1966 C1965 1.414 . S
C1966 C1967 1.374 . S
C1967 H1947 0.950 . S
C1967 C1963 1.385 . S
C1967 C1966 1.374 . S
C1968 C1965 1.499 . S
C1968 C1969 1.373 . S
C1968 C1970 1.389 . S
C1969 H1948 0.950 . S
C1969 C1968 1.373 . S
C1969 C1985 1.377 1_455 S
C1970 C1968 1.389 . S
C1970 C1971 1.524 . S
C1970 C1984 1.377 1_455 S
C1971 C1970 1.524 . S
C1971 C1972 1.397 . S
C1971 C1976 1.363 1_455 S
C1972 H1949 0.950 . S
C1972 C1971 1.397 . S
C1972 C1973 1.334 . S
C1973 H1950 0.950 . S
C1973 C1972 1.334 . S
C1973 C1974 1.287 . S
C1974 C1973 1.287 . S
C1974 C1975 1.524 . S
C1974 H1993 0.913 . S
C1975 H1951 0.950 1_455 S
C1975 C1974 1.524 . S
C1975 C1976 1.415 1_455 S
C1976 H1952 0.950 . S
C1976 C1971 1.363 1_655 S
C1976 C1975 1.415 1_655 S
C1977 H1953 0.951 . S
C1977 C1978 1.366 . S
C1977 C1979 1.388 . S
C1978 C1977 1.366 . S
C1978 C1982 1.385 . S
C1979 H1954 0.951 . S
C1979 C1977 1.388 . S
C1979 C1980 1.366 . S
C1980 C1979 1.366 . S
C1980 C1981 1.414 . S
C1980 C1983 1.499 . S
C1981 H1955 0.950 . S
C1981 C1980 1.414 . S
C1981 C1982 1.374 . S
C1982 H1956 0.950 . S
C1982 C1978 1.385 . S
C1982 C1981 1.374 . S
C1983 C1980 1.499 . S
C1983 C1984 1.373 . S
C1983 C1985 1.389 . S
C1984 H1957 0.950 . S
C1984 C1970 1.377 1_655 S
C1984 C1983 1.373 . S
C1985 C1969 1.377 1_655 S
C1985 C1983 1.389 . S
C1985 C1986 1.524 . S
C1986 C1985 1.524 . S
C1986 C1987 1.397 . S
C1986 C1991 1.363 . S
C1987 H1958 0.950 . S
C1987 C1986 1.397 . S
C1987 C1988 1.334 . S
C1988 H1959 0.950 . S
C1988 C1987 1.334 . S
C1988 C1989 1.287 . S
C1989 C1988 1.287 . S
C1989 C1990 1.524 . S
C1989 H1992 0.999 . S
C1990 H1960 0.927 1_655 S
C1990 C1989 1.524 . S
C1990 C1991 1.415 . S
C1991 H1961 0.950 1_655 S
C1991 C1986 1.363 . S
C1991 C1990 1.415 . S
H1992 C1989 0.999 . S
H1993 C1974 0.913 . S
H1994 C2012 0.951 . S
H1995 C2014 0.951 . S
H1996 C2016 0.950 . S
H1997 C2017 0.950 . S
H1998 C2019 0.950 . S
H1999 C2022 0.950 . S
H2000 C2023 0.950 . S
H2001 C2025 0.950 . S
H2002 C2026 0.950 . S
H2003 C2027 0.951 . S
H2004 C2029 0.951 . S
H2005 C2031 0.950 . S
H2006 C2032 0.950 . S
H2007 C2034 0.950 . S
H2008 C2037 0.950 . S
H2009 C2038 0.950 . S
H2010 C2040 0.950 . S
H2011 C2041 0.950 . S
C2012 H1994 0.951 . S
C2012 C2013 1.366 . S
C2012 C2014 1.388 . S
C2013 C2012 1.366 . S
C2013 C2017 1.385 . S
C2014 H1995 0.951 . S
C2014 C2012 1.388 . S
C2014 C2015 1.366 . S
C2015 C2014 1.366 . S
C2015 C2016 1.414 . S
C2015 C2018 1.499 . S
C2016 H1996 0.950 . S
C2016 C2015 1.414 . S
C2016 C2017 1.374 . S
C2017 H1997 0.950 . S
C2017 C2013 1.385 . S
C2017 C2016 1.374 . S
C2018 C2015 1.499 . S
C2018 C2019 1.373 . S
C2018 C2020 1.389 . S
C2019 H1998 0.950 . S
C2019 C2018 1.373 . S
C2019 C2035 1.377 . S
C2020 C2018 1.389 . S
C2020 C2021 1.524 . S
C2020 C2034 1.377 . S
C2021 C2020 1.524 . S
C2021 C2022 1.397 . S
C2021 C2026 1.363 . S
C2022 H1999 0.950 . S
C2022 C2021 1.397 . S
C2022 C2023 1.334 . S
C2023 H2000 0.950 . S
C2023 C2022 1.334 . S
C2023 C2024 1.287 . S
C2024 C2023 1.287 . S
C2024 C2025 1.524 . S
C2024 H2043 0.913 . S
C2025 H2001 0.950 . S
C2025 C2024 1.524 . S
C2025 C2026 1.415 . S
C2026 H2002 0.950 . S
C2026 C2021 1.363 . S
C2026 C2025 1.415 . S
C2027 H2003 0.951 . S
C2027 C2028 1.366 . S
C2027 C2029 1.388 . S
C2028 C2027 1.366 . S
C2028 C2032 1.385 . S
C2029 H2004 0.951 . S
C2029 C2027 1.388 . S
C2029 C2030 1.366 . S
C2030 C2029 1.366 . S
C2030 C2031 1.414 . S
C2030 C2033 1.499 . S
C2031 H2005 0.950 . S
C2031 C2030 1.414 . S
C2031 C2032 1.374 . S
C2032 H2006 0.950 . S
C2032 C2028 1.385 . S
C2032 C2031 1.374 . S
C2033 C2030 1.499 . S
C2033 C2034 1.373 . S
C2033 C2035 1.389 . S
C2034 H2007 0.950 . S
C2034 C2020 1.377 . S
C2034 C2033 1.373 . S
C2035 C2019 1.377 . S
C2035 C2033 1.389 . S
C2035 C2036 1.524 . S
C2036 C2035 1.524 . S
C2036 C2037 1.397 . S
C2036 C2041 1.363 . S
C2037 H2008 0.950 . S
C2037 C2036 1.397 . S
C2037 C2038 1.334 . S
C2038 H2009 0.950 . S
C2038 C2037 1.334 . S
C2038 C2039 1.287 . S
C2039 C2038 1.287 . S
C2039 C2040 1.524 . S
C2039 H2042 0.999 . S
C2040 H2010 0.950 . S
C2040 C2039 1.524 . S
C2040 C2041 1.415 . S
C2041 H2011 0.950 . S
C2041 C2036 1.363 . S
C2041 C2040 1.415 . S
H2042 C2039 0.999 . S
H2043 C2024 0.913 . S
H2044 C2062 0.951 . S
H2045 C2064 0.951 . S
H2046 C2066 0.950 . S
H2047 C2067 0.950 . S
H2048 C2069 0.950 . S
H2049 C2072 0.950 . S
H2050 C2073 0.950 . S
H2051 C2075 0.950 . S
H2052 C2076 0.950 . S
H2053 C2077 0.951 . S
H2054 C2079 0.951 . S
H2055 C2081 0.950 . S
H2056 C2082 0.950 . S
H2057 C2084 0.950 . S
H2058 C2087 0.950 . S
H2059 C2088 0.950 . S
H2060 C2090 0.950 . S
H2061 C2091 0.950 . S
C2062 H2044 0.951 . S
C2062 C2063 1.366 . S
C2062 C2064 1.388 . S
C2063 C2062 1.366 . S
C2063 C2067 1.385 . S
C2064 H2045 0.951 . S
C2064 C2062 1.388 . S
C2064 C2065 1.366 . S
C2065 C2064 1.366 . S
C2065 C2066 1.414 . S
C2065 C2068 1.499 . S
C2066 H2046 0.950 . S
C2066 C2065 1.414 . S
C2066 C2067 1.374 . S
C2067 H2047 0.950 . S
C2067 C2063 1.385 . S
C2067 C2066 1.374 . S
C2068 C2065 1.499 . S
C2068 C2069 1.373 . S
C2068 C2070 1.389 . S
C2069 H2048 0.950 . S
C2069 C2068 1.373 . S
C2069 C2085 1.377 . S
C2070 C2068 1.389 . S
C2070 C2071 1.524 . S
C2070 C2084 1.377 1_655 S
C2071 C2070 1.524 . S
C2071 C2072 1.397 . S
C2071 C2076 1.363 1_655 S
C2072 H2049 0.950 . S
C2072 C2071 1.397 . S
C2072 C2073 1.334 . S
C2073 H2050 0.950 . S
C2073 C2072 1.334 . S
C2073 C2074 1.287 1_655 S
C2074 C2073 1.287 1_455 S
C2074 C2075 1.524 . S
C2074 H2093 0.913 . S
C2075 H2051 0.950 . S
C2075 C2074 1.524 . S
C2075 C2076 1.415 . S
C2076 H2052 0.950 . S
C2076 C2071 1.363 1_455 S
C2076 C2075 1.415 . S
C2077 H2053 0.951 . S
C2077 C2078 1.366 . S
C2077 C2079 1.388 . S
C2078 C2077 1.366 . S
C2078 C2082 1.385 . S
C2079 H2054 0.951 . S
C2079 C2077 1.388 . S
C2079 C2080 1.366 . S
C2080 C2079 1.366 . S
C2080 C2081 1.414 . S
C2080 C2083 1.499 . S
C2081 H2055 0.950 . S
C2081 C2080 1.414 . S
C2081 C2082 1.374 . S
C2082 H2056 0.950 . S
C2082 C2078 1.385 . S
C2082 C2081 1.374 . S
C2083 C2080 1.499 . S
C2083 C2084 1.373 . S
C2083 C2085 1.389 1_455 S
C2084 H2057 0.950 . S
C2084 C2070 1.377 1_455 S
C2084 C2083 1.373 . S
C2085 C2069 1.377 . S
C2085 C2083 1.389 1_655 S
C2085 C2086 1.524 . S
C2086 C2085 1.524 . S
C2086 C2087 1.397 . S
C2086 C2091 1.363 . S
C2087 H2058 0.950 . S
C2087 C2086 1.397 . S
C2087 C2088 1.334 . S
C2088 H2059 0.950 . S
C2088 C2087 1.334 . S
C2088 C2089 1.287 . S
C2089 C2088 1.287 . S
C2089 C2090 1.524 . S
C2089 H2092 0.999 . S
C2090 H2060 0.950 . S
C2090 C2089 1.524 . S
C2090 C2091 1.415 . S
C2091 H2061 0.950 . S
C2091 C2086 1.363 . S
C2091 C2090 1.415 . S
H2092 C2089 0.999 . S
H2093 C2074 0.913 . S
H2094 C2112 0.951 . S
H2095 C2114 0.951 . S
H2096 C2116 0.950 . S
H2097 C2117 0.950 . S
H2098 C2119 0.950 . S
H2099 C2122 0.950 . S
H2100 C2123 0.950 . S
H2101 C2125 0.950 . S
H2102 C2126 0.950 . S
H2103 C2127 0.951 . S
H2104 C2129 0.951 . S
H2105 C2131 0.950 . S
H2106 C2132 0.950 . S
H2107 C2134 0.950 . S
H2108 C2137 0.950 . S
H2109 C2138 0.950 . S
H2110 C2140 0.950 . S
H2111 C2141 0.950 . S
C2112 H2094 0.951 . S
C2112 C2113 1.366 . S
C2112 C2114 1.388 . S
C2113 C2112 1.366 . S
C2113 C2117 1.385 . S
C2114 H2095 0.951 . S
C2114 C2112 1.388 . S
C2114 C2115 1.366 . S
C2115 C2114 1.366 . S
C2115 C2116 1.414 . S
C2115 C2118 1.499 . S
C2116 H2096 0.950 . S
C2116 C2115 1.414 . S
C2116 C2117 1.374 . S
C2117 H2097 0.950 . S
C2117 C2113 1.385 . S
C2117 C2116 1.374 . S
C2118 C2115 1.499 . S
C2118 C2119 1.373 . S
C2118 C2120 1.389 . S
C2119 H2098 0.950 . S
C2119 C2118 1.373 . S
C2119 C2135 1.377 . S
C2120 C2118 1.389 . S
C2120 C2121 1.524 . S
C2120 C2134 1.377 . S
C2121 C2120 1.524 . S
C2121 C2122 1.397 . S
C2121 C2126 1.363 . S
C2122 H2099 0.950 . S
C2122 C2121 1.397 . S
C2122 C2123 1.334 . S
C2123 H2100 0.950 . S
C2123 C2122 1.334 . S
C2123 C2124 1.287 . S
C2124 C2123 1.287 . S
C2124 C2125 1.524 . S
C2124 H2143 0.913 . S
C2125 H2101 0.950 . S
C2125 C2124 1.524 . S
C2125 C2126 1.415 . S
C2126 H2102 0.950 . S
C2126 C2121 1.363 . S
C2126 C2125 1.415 . S
C2127 H2103 0.951 . S
C2127 C2128 1.366 . S
C2127 C2129 1.388 . S
C2128 C2127 1.366 . S
C2128 C2132 1.385 . S
C2129 H2104 0.951 . S
C2129 C2127 1.388 . S
C2129 C2130 1.366 . S
C2130 C2129 1.366 . S
C2130 C2131 1.414 . S
C2130 C2133 1.499 . S
C2131 H2105 0.950 . S
C2131 C2130 1.414 . S
C2131 C2132 1.374 . S
C2132 H2106 0.950 . S
C2132 C2128 1.385 . S
C2132 C2131 1.374 . S
C2133 C2130 1.499 . S
C2133 C2134 1.373 . S
C2133 C2135 1.389 . S
C2134 H2107 0.950 . S
C2134 C2120 1.377 . S
C2134 C2133 1.373 . S
C2135 C2119 1.377 . S
C2135 C2133 1.389 . S
C2135 C2136 1.524 . S
C2136 C2135 1.524 . S
C2136 C2137 1.397 . S
C2136 C2141 1.363 . S
C2137 H2108 0.950 . S
C2137 C2136 1.397 . S
C2137 C2138 1.334 . S
C2138 H2109 0.950 . S
C2138 C2137 1.334 . S
C2138 C2139 1.287 . S
C2139 C2138 1.287 . S
C2139 C2140 1.524 . S
C2139 H2142 0.999 . S
C2140 H2110 0.950 . S
C2140 C2139 1.524 . S
C2140 C2141 1.415 . S
C2141 H2111 0.950 . S
C2141 C2136 1.363 . S
C2141 C2140 1.415 . S
H2142 C2139 0.999 . S
H2143 C2124 0.913 . S
H2144 C2162 0.951 . S
H2145 C2164 0.951 . S
H2146 C2166 0.950 . S
H2147 C2167 0.950 . S
H2148 C2169 0.950 . S
H2149 C2172 0.950 . S
H2150 C2173 0.950 . S
H2151 C2175 0.950 . S
H2152 C2176 0.950 . S
H2153 C2177 0.951 . S
H2154 C2179 0.951 . S
H2155 C2181 0.950 . S
H2156 C2182 0.950 . S
H2157 C2184 0.950 . S
H2158 C2187 0.950 . S
H2159 C2188 0.950 . S
H2160 C2190 0.950 . S
H2161 C2191 0.950 . S
C2162 H2144 0.951 . S
C2162 C2163 1.366 . S
C2162 C2164 1.388 . S
C2163 C2162 1.366 . S
C2163 C2167 1.385 . S
C2164 H2145 0.951 . S
C2164 C2162 1.388 . S
C2164 C2165 1.366 . S
C2165 C2164 1.366 . S
C2165 C2166 1.414 . S
C2165 C2168 1.499 . S
C2166 H2146 0.950 . S
C2166 C2165 1.414 . S
C2166 C2167 1.374 . S
C2167 H2147 0.950 . S
C2167 C2163 1.385 . S
C2167 C2166 1.374 . S
C2168 C2165 1.499 . S
C2168 C2169 1.373 . S
C2168 C2170 1.389 . S
C2169 H2148 0.950 . S
C2169 C2168 1.373 . S
C2169 C2185 1.377 . S
C2170 C2168 1.389 . S
C2170 C2171 1.524 . S
C2170 C2184 1.377 . S
C2171 C2170 1.524 . S
C2171 C2172 1.397 . S
C2171 C2176 1.363 . S
C2172 H2149 0.950 . S
C2172 C2171 1.397 . S
C2172 C2173 1.334 . S
C2173 H2150 0.950 . S
C2173 C2172 1.334 . S
C2173 C2174 1.287 . S
C2174 C2173 1.287 . S
C2174 C2175 1.524 . S
C2174 H2193 0.913 . S
C2175 H2151 0.950 . S
C2175 C2174 1.524 . S
C2175 C2176 1.415 . S
C2176 H2152 0.950 . S
C2176 C2171 1.363 . S
C2176 C2175 1.415 . S
C2177 H2153 0.951 . S
C2177 C2178 1.366 . S
C2177 C2179 1.388 . S
C2178 C2177 1.366 . S
C2178 C2182 1.385 . S
C2179 H2154 0.951 . S
C2179 C2177 1.388 . S
C2179 C2180 1.366 . S
C2180 C2179 1.366 . S
C2180 C2181 1.414 . S
C2180 C2183 1.499 . S
C2181 H2155 0.950 . S
C2181 C2180 1.414 . S
C2181 C2182 1.374 . S
C2182 H2156 0.950 . S
C2182 C2178 1.385 . S
C2182 C2181 1.374 . S
C2183 C2180 1.499 . S
C2183 C2184 1.373 . S
C2183 C2185 1.389 . S
C2184 H2157 0.950 . S
C2184 C2170 1.377 . S
C2184 C2183 1.373 . S
C2185 C2169 1.377 . S
C2185 C2183 1.389 . S
C2185 C2186 1.524 . S
C2186 C2185 1.524 . S
C2186 C2187 1.397 . S
C2186 C2191 1.363 . S
C2187 H2158 0.950 . S
C2187 C2186 1.397 . S
C2187 C2188 1.334 . S
C2188 H2159 0.950 . S
C2188 C2187 1.334 . S
C2188 C2189 1.287 . S
C2189 C2188 1.287 . S
C2189 C2190 1.524 . S
C2189 H2192 0.999 . S
C2190 H2160 0.950 . S
C2190 C2189 1.524 . S
C2190 C2191 1.415 . S
C2191 H2161 0.950 . S
C2191 C2186 1.363 . S
C2191 C2190 1.415 . S
H2192 C2189 0.999 . S
H2193 C2174 0.913 . S
H2194 C2212 0.951 . S
H2195 C2214 0.951 . S
H2196 C2216 0.950 . S
H2197 C2217 0.950 . S
H2198 C2219 0.950 . S
H2199 C2222 0.950 . S
H2200 C2223 0.950 . S
H2201 C2225 0.950 . S
H2202 C2226 0.950 . S
H2203 C2227 0.951 . S
H2204 C2229 0.951 . S
H2205 C2231 0.950 . S
H2206 C2232 0.950 . S
H2207 C2234 0.950 . S
H2208 C2237 0.950 . S
H2209 C2238 0.950 . S
H2210 C2240 0.950 . S
H2211 C2241 0.950 . S
C2212 H2194 0.951 . S
C2212 C2213 1.366 . S
C2212 C2214 1.388 . S
C2213 C2212 1.366 . S
C2213 C2217 1.385 . S
C2214 H2195 0.951 . S
C2214 C2212 1.388 . S
C2214 C2215 1.366 . S
C2215 C2214 1.366 . S
C2215 C2216 1.414 . S
C2215 C2218 1.499 . S
C2216 H2196 0.950 . S
C2216 C2215 1.414 . S
C2216 C2217 1.374 . S
C2217 H2197 0.950 . S
C2217 C2213 1.385 . S
C2217 C2216 1.374 . S
C2218 C2215 1.499 . S
C2218 C2219 1.373 . S
C2218 C2220 1.389 1_556 S
C2219 H2198 0.950 . S
C2219 C2218 1.373 . S
C2219 C2235 1.377 . S
C2220 C2218 1.389 1_554 S
C2220 C2221 1.524 . S
C2220 C2234 1.377 . S
C2221 C2220 1.524 . S
C2221 C2222 1.397 . S
C2221 C2226 1.363 . S
C2222 H2199 0.950 . S
C2222 C2221 1.397 . S
C2222 C2223 1.334 . S
C2223 H2200 0.950 . S
C2223 C2222 1.334 . S
C2223 C2224 1.287 . S
C2224 C2223 1.287 . S
C2224 C2225 1.524 . S
C2224 H2243 0.913 . S
C2225 H2201 0.950 . S
C2225 C2224 1.524 . S
C2225 C2226 1.415 . S
C2226 H2202 0.950 . S
C2226 C2221 1.363 . S
C2226 C2225 1.415 . S
C2227 H2203 0.951 . S
C2227 C2228 1.366 . S
C2227 C2229 1.388 . S
C2228 C2227 1.366 . S
C2228 C2232 1.385 . S
C2229 H2204 0.951 . S
C2229 C2227 1.388 . S
C2229 C2230 1.366 . S
C2230 C2229 1.366 . S
C2230 C2231 1.414 . S
C2230 C2233 1.499 . S
C2231 H2205 0.950 . S
C2231 C2230 1.414 . S
C2231 C2232 1.374 . S
C2232 H2206 0.950 . S
C2232 C2228 1.385 . S
C2232 C2231 1.374 . S
C2233 C2230 1.499 . S
C2233 C2234 1.373 . S
C2233 C2235 1.389 1_554 S
C2234 H2207 0.950 . S
C2234 C2220 1.377 . S
C2234 C2233 1.373 . S
C2235 C2219 1.377 . S
C2235 C2233 1.389 1_556 S
C2235 C2236 1.524 . S
C2236 C2235 1.524 . S
C2236 C2237 1.397 . S
C2236 C2241 1.363 . S
C2237 H2208 0.950 . S
C2237 C2236 1.397 . S
C2237 C2238 1.334 . S
C2238 H2209 0.950 . S
C2238 C2237 1.334 . S
C2238 C2239 1.287 . S
C2239 C2238 1.287 . S
C2239 C2240 1.524 . S
C2239 H2242 0.999 . S
C2240 H2210 0.950 . S
C2240 C2239 1.524 . S
C2240 C2241 1.415 . S
C2241 H2211 0.950 . S
C2241 C2236 1.363 . S
C2241 C2240 1.415 . S
H2242 C2239 0.999 . S
H2243 C2224 0.913 . S
H2244 C2262 0.951 . S
H2245 C2264 0.951 . S
H2246 C2266 0.950 . S
H2247 C2267 0.950 . S
H2248 C2269 0.950 . S
H2249 C2272 0.950 . S
H2250 C2273 0.950 . S
H2251 C2275 0.950 . S
H2252 C2276 0.950 . S
H2253 C2277 0.951 . S
H2254 C2279 0.951 . S
H2255 C2281 0.950 . S
H2256 C2282 0.950 . S
H2257 C2284 0.950 . S
H2258 C2287 0.950 . S
H2259 C2288 0.950 . S
H2260 C2290 0.950 . S
H2261 C2291 0.950 . S
C2262 H2244 0.951 . S
C2262 C2263 1.366 . S
C2262 C2264 1.388 . S
C2263 C2262 1.366 . S
C2263 C2267 1.385 . S
C2264 H2245 0.951 . S
C2264 C2262 1.388 . S
C2264 C2265 1.366 . S
C2265 C2264 1.366 . S
C2265 C2266 1.414 . S
C2265 C2268 1.499 . S
C2266 H2246 0.950 . S
C2266 C2265 1.414 . S
C2266 C2267 1.374 . S
C2267 H2247 0.950 . S
C2267 C2263 1.385 . S
C2267 C2266 1.374 . S
C2268 C2265 1.499 . S
C2268 C2269 1.373 . S
C2268 C2270 1.389 . S
C2269 H2248 0.950 . S
C2269 C2268 1.373 . S
C2269 C2285 1.377 . S
C2270 C2268 1.389 . S
C2270 C2271 1.524 . S
C2270 C2284 1.377 . S
C2271 C2270 1.524 . S
C2271 C2272 1.397 . S
C2271 C2276 1.363 . S
C2272 H2249 0.950 . S
C2272 C2271 1.397 . S
C2272 C2273 1.334 . S
C2273 H2250 0.950 . S
C2273 C2272 1.334 . S
C2273 C2274 1.287 . S
C2274 C2273 1.287 . S
C2274 C2275 1.524 . S
C2274 H2293 0.913 . S
C2275 H2251 0.950 . S
C2275 C2274 1.524 . S
C2275 C2276 1.415 . S
C2276 H2252 0.950 . S
C2276 C2271 1.363 . S
C2276 C2275 1.415 . S
C2277 H2253 0.951 . S
C2277 C2278 1.366 . S
C2277 C2279 1.388 . S
C2278 C2277 1.366 . S
C2278 C2282 1.385 . S
C2279 H2254 0.951 . S
C2279 C2277 1.388 . S
C2279 C2280 1.366 . S
C2280 C2279 1.366 . S
C2280 C2281 1.414 . S
C2280 C2283 1.499 . S
C2281 H2255 0.950 . S
C2281 C2280 1.414 . S
C2281 C2282 1.374 . S
C2282 H2256 0.950 . S
C2282 C2278 1.385 . S
C2282 C2281 1.374 . S
C2283 C2280 1.499 . S
C2283 C2284 1.373 . S
C2283 C2285 1.389 . S
C2284 H2257 0.950 . S
C2284 C2270 1.377 . S
C2284 C2283 1.373 . S
C2285 C2269 1.377 . S
C2285 C2283 1.389 . S
C2285 C2286 1.524 . S
C2286 C2285 1.524 . S
C2286 C2287 1.397 . S
C2286 C2291 1.363 . S
C2287 H2258 0.950 . S
C2287 C2286 1.397 . S
C2287 C2288 1.334 . S
C2288 H2259 0.950 . S
C2288 C2287 1.334 . S
C2288 C2289 1.287 . S
C2289 C2288 1.287 . S
C2289 C2290 1.524 . S
C2289 H2292 0.999 . S
C2290 H2260 0.950 . S
C2290 C2289 1.524 . S
C2290 C2291 1.415 . S
C2291 H2261 0.950 . S
C2291 C2286 1.363 . S
C2291 C2290 1.415 . S
H2292 C2289 0.999 . S
H2293 C2274 0.913 . S
H2294 C2312 0.951 . S
H2295 C2314 0.951 . S
H2296 C2316 0.950 . S
H2297 C2317 0.950 . S
H2298 C2319 0.950 . S
H2299 C2322 0.950 . S
H2300 C2323 0.950 . S
H2301 C2325 0.950 . S
H2302 C2326 0.950 . S
H2303 C2327 0.951 . S
H2304 C2329 0.951 . S
H2305 C2331 0.950 . S
H2306 C2332 0.950 . S
H2307 C2334 0.950 . S
H2308 C2337 0.950 . S
H2309 C2338 0.950 . S
H2310 C2340 0.950 . S
H2311 C2341 0.950 . S
C2312 H2294 0.951 . S
C2312 C2313 1.366 . S
C2312 C2314 1.388 . S
C2313 C2312 1.366 . S
C2313 C2317 1.385 . S
C2314 H2295 0.951 . S
C2314 C2312 1.388 . S
C2314 C2315 1.366 . S
C2315 C2314 1.366 . S
C2315 C2316 1.414 . S
C2315 C2318 1.499 . S
C2316 H2296 0.950 . S
C2316 C2315 1.414 . S
C2316 C2317 1.374 . S
C2317 H2297 0.950 . S
C2317 C2313 1.385 . S
C2317 C2316 1.374 . S
C2318 C2315 1.499 . S
C2318 C2319 1.373 . S
C2318 C2320 1.389 . S
C2319 H2298 0.950 . S
C2319 C2318 1.373 . S
C2319 C2335 1.377 . S
C2320 C2318 1.389 . S
C2320 C2321 1.524 . S
C2320 C2334 1.377 . S
C2321 C2320 1.524 . S
C2321 C2322 1.397 . S
C2321 C2326 1.363 . S
C2322 H2299 0.950 . S
C2322 C2321 1.397 . S
C2322 C2323 1.334 . S
C2323 H2300 0.950 . S
C2323 C2322 1.334 . S
C2323 C2324 1.287 . S
C2324 C2323 1.287 . S
C2324 C2325 1.524 . S
C2324 H2343 0.913 . S
C2325 H2301 0.950 . S
C2325 C2324 1.524 . S
C2325 C2326 1.415 . S
C2326 H2302 0.950 . S
C2326 C2321 1.363 . S
C2326 C2325 1.415 . S
C2327 H2303 0.951 . S
C2327 C2328 1.366 . S
C2327 C2329 1.388 . S
C2328 C2327 1.366 . S
C2328 C2332 1.385 . S
C2329 H2304 0.951 . S
C2329 C2327 1.388 . S
C2329 C2330 1.366 . S
C2330 C2329 1.366 . S
C2330 C2331 1.414 . S
C2330 C2333 1.499 . S
C2331 H2305 0.950 . S
C2331 C2330 1.414 . S
C2331 C2332 1.374 . S
C2332 H2306 0.950 . S
C2332 C2328 1.385 . S
C2332 C2331 1.374 . S
C2333 C2330 1.499 . S
C2333 C2334 1.373 . S
C2333 C2335 1.389 . S
C2334 H2307 0.950 . S
C2334 C2320 1.377 . S
C2334 C2333 1.373 . S
C2335 C2319 1.377 . S
C2335 C2333 1.389 . S
C2335 C2336 1.524 . S
C2336 C2335 1.524 . S
C2336 C2337 1.397 . S
C2336 C2341 1.363 . S
C2337 H2308 0.950 . S
C2337 C2336 1.397 . S
C2337 C2338 1.334 . S
C2338 H2309 0.950 . S
C2338 C2337 1.334 . S
C2338 C2339 1.287 . S
C2339 C2338 1.287 . S
C2339 C2340 1.524 . S
C2339 H2342 0.999 . S
C2340 H2310 0.950 . S
C2340 C2339 1.524 . S
C2340 C2341 1.415 . S
C2341 H2311 0.950 . S
C2341 C2336 1.363 . S
C2341 C2340 1.415 . S
H2342 C2339 0.999 . S
H2343 C2324 0.913 . S
H2344 C2362 0.951 . S
H2345 C2364 0.951 . S
H2346 C2366 0.950 . S
H2347 C2367 0.950 . S
H2348 C2369 0.950 . S
H2349 C2372 0.950 . S
H2350 C2373 0.950 . S
H2351 C2375 0.950 . S
H2352 C2376 0.950 . S
H2353 C2377 0.951 . S
H2354 C2379 0.951 . S
H2355 C2381 0.950 . S
H2356 C2382 0.950 . S
H2357 C2384 0.950 . S
H2358 C2387 0.950 . S
H2359 C2388 0.950 . S
H2360 C2390 0.950 . S
H2361 C2391 0.950 . S
C2362 H2344 0.951 . S
C2362 C2363 1.366 . S
C2362 C2364 1.388 . S
C2363 C2362 1.366 . S
C2363 C2367 1.385 . S
C2364 H2345 0.951 . S
C2364 C2362 1.388 . S
C2364 C2365 1.366 . S
C2365 C2364 1.366 . S
C2365 C2366 1.414 . S
C2365 C2368 1.499 . S
C2366 H2346 0.950 . S
C2366 C2365 1.414 . S
C2366 C2367 1.374 . S
C2367 H2347 0.950 . S
C2367 C2363 1.385 . S
C2367 C2366 1.374 . S
C2368 C2365 1.499 . S
C2368 C2369 1.373 . S
C2368 C2370 1.389 . S
C2369 H2348 0.950 . S
C2369 C2368 1.373 . S
C2369 C2385 1.377 . S
C2370 C2368 1.389 . S
C2370 C2371 1.524 . S
C2370 C2384 1.377 . S
C2371 C2370 1.524 . S
C2371 C2372 1.397 . S
C2371 C2376 1.363 . S
C2372 H2349 0.950 . S
C2372 C2371 1.397 . S
C2372 C2373 1.334 . S
C2373 H2350 0.950 . S
C2373 C2372 1.334 . S
C2373 C2374 1.287 . S
C2374 C2373 1.287 . S
C2374 C2375 1.524 . S
C2374 H2393 0.913 . S
C2375 H2351 0.950 . S
C2375 C2374 1.524 . S
C2375 C2376 1.415 . S
C2376 H2352 0.950 . S
C2376 C2371 1.363 . S
C2376 C2375 1.415 . S
C2377 H2353 0.951 . S
C2377 C2378 1.366 . S
C2377 C2379 1.388 . S
C2378 C2377 1.366 . S
C2378 C2382 1.385 . S
C2379 H2354 0.951 . S
C2379 C2377 1.388 . S
C2379 C2380 1.366 . S
C2380 C2379 1.366 . S
C2380 C2381 1.414 . S
C2380 C2383 1.499 . S
C2381 H2355 0.950 . S
C2381 C2380 1.414 . S
C2381 C2382 1.374 . S
C2382 H2356 0.950 . S
C2382 C2378 1.385 . S
C2382 C2381 1.374 . S
C2383 C2380 1.499 . S
C2383 C2384 1.373 . S
C2383 C2385 1.389 . S
C2384 H2357 0.950 . S
C2384 C2370 1.377 . S
C2384 C2383 1.373 . S
C2385 C2369 1.377 . S
C2385 C2383 1.389 . S
C2385 C2386 1.524 . S
C2386 C2385 1.524 . S
C2386 C2387 1.397 . S
C2386 C2391 1.363 . S
C2387 H2358 0.950 . S
C2387 C2386 1.397 . S
C2387 C2388 1.334 . S
C2388 H2359 0.950 . S
C2388 C2387 1.334 . S
C2388 C2389 1.287 . S
C2389 C2388 1.287 . S
C2389 C2390 1.524 . S
C2389 H2392 0.999 . S
C2390 H2360 0.950 . S
C2390 C2389 1.524 . S
C2390 C2391 1.415 . S
C2391 H2361 0.950 . S
C2391 C2386 1.363 . S
C2391 C2390 1.415 . S
H2392 C2389 0.999 . S
H2393 C2374 0.913 . S
H2394 C2412 0.951 . S
H2395 C2414 0.951 . S
H2396 C2416 0.950 . S
H2397 C2417 0.950 . S
H2398 C2419 0.950 . S
H2399 C2422 0.950 . S
H2400 C2423 0.950 . S
H2401 C2425 0.950 . S
H2402 C2426 0.950 1_554 S
H2403 C2427 0.951 . S
H2404 C2429 0.951 . S
H2405 C2431 0.950 . S
H2406 C2432 0.950 . S
H2407 C2434 0.961 . S
H2408 C2437 0.950 . S
H2409 C2438 0.950 . S
H2410 C2440 0.931 1_556 S
H2411 C2441 0.950 . S
C2412 H2394 0.951 . S
C2412 C2413 1.366 . S
C2412 C2414 1.388 . S
C2413 C2412 1.366 . S
C2413 C2417 1.385 . S
C2414 H2395 0.951 . S
C2414 C2412 1.388 . S
C2414 C2415 1.366 . S
C2415 C2414 1.366 . S
C2415 C2416 1.414 . S
C2415 C2418 1.499 . S
C2416 H2396 0.950 . S
C2416 C2415 1.414 . S
C2416 C2417 1.374 . S
C2417 H2397 0.950 . S
C2417 C2413 1.385 . S
C2417 C2416 1.374 . S
C2418 C2415 1.499 . S
C2418 C2419 1.373 . S
C2418 C2420 1.389 . S
C2419 H2398 0.950 . S
C2419 C2418 1.373 . S
C2419 C2435 1.377 1_556 S
C2420 C2418 1.389 . S
C2420 C2421 1.524 . S
C2420 C2434 1.352 1_556 S
C2421 C2420 1.524 . S
C2421 C2422 1.397 . S
C2421 C2426 1.363 . S
C2422 H2399 0.950 . S
C2422 C2421 1.397 . S
C2422 C2423 1.334 . S
C2423 H2400 0.950 . S
C2423 C2422 1.334 . S
C2423 C2424 1.287 . S
C2424 C2423 1.287 . S
C2424 C2425 1.524 . S
C2424 H2443 0.913 . S
C2425 H2401 0.950 . S
C2425 C2424 1.524 . S
C2425 C2426 1.415 . S
C2426 H2402 0.950 1_556 S
C2426 C2421 1.363 . S
C2426 C2425 1.415 . S
C2427 H2403 0.951 . S
C2427 C2428 1.366 . S
C2427 C2429 1.388 . S
C2428 C2427 1.366 . S
C2428 C2432 1.385 . S
C2429 H2404 0.951 . S
C2429 C2427 1.388 . S
C2429 C2430 1.366 . S
C2430 C2429 1.366 . S
C2430 C2431 1.414 . S
C2430 C2433 1.499 . S
C2431 H2405 0.950 . S
C2431 C2430 1.414 . S
C2431 C2432 1.374 . S
C2432 H2406 0.950 . S
C2432 C2428 1.385 . S
C2432 C2431 1.374 . S
C2433 C2430 1.499 . S
C2433 C2434 1.388 . S
C2433 C2435 1.389 . S
C2434 H2407 0.961 . S
C2434 C2420 1.352 1_554 S
C2434 C2433 1.388 . S
C2435 C2419 1.377 1_554 S
C2435 C2433 1.389 . S
C2435 C2436 1.524 . S
C2436 C2435 1.524 . S
C2436 C2437 1.397 . S
C2436 C2441 1.363 1_554 S
C2437 H2408 0.950 . S
C2437 C2436 1.397 . S
C2437 C2438 1.334 . S
C2438 H2409 0.950 . S
C2438 C2437 1.334 . S
C2438 C2439 1.287 . S
C2439 C2438 1.287 . S
C2439 C2440 1.524 . S
C2439 H2442 0.999 . S
C2440 H2410 0.931 1_554 S
C2440 C2439 1.524 . S
C2440 C2441 1.415 1_554 S
C2441 H2411 0.950 . S
C2441 C2436 1.363 1_556 S
C2441 C2440 1.415 1_556 S
H2442 C2439 0.999 . S
H2443 C2424 0.913 . S
H2444 C2462 0.951 . S
H2445 C2464 0.951 . S
H2446 C2466 0.950 . S
H2447 C2467 0.950 . S
H2448 C2469 0.950 . S
H2449 C2472 0.950 . S
H2450 C2473 0.950 . S
H2451 C2475 0.950 . S
H2452 C2476 0.950 . S
H2453 C2477 0.951 . S
H2454 C2479 0.951 . S
H2455 C2481 0.950 . S
H2456 C2482 0.950 . S
H2457 C2484 0.950 . S
H2458 C2487 0.950 . S
H2459 C2488 0.950 . S
H2460 C2490 0.950 . S
H2461 C2491 0.950 . S
C2462 H2444 0.951 . S
C2462 C2463 1.366 . S
C2462 C2464 1.388 . S
C2463 C2462 1.366 . S
C2463 C2467 1.385 . S
C2464 H2445 0.951 . S
C2464 C2462 1.388 . S
C2464 C2465 1.366 . S
C2465 C2464 1.366 . S
C2465 C2466 1.414 . S
C2465 C2468 1.499 . S
C2466 H2446 0.950 . S
C2466 C2465 1.414 . S
C2466 C2467 1.374 . S
C2467 H2447 0.950 . S
C2467 C2463 1.385 . S
C2467 C2466 1.374 . S
C2468 C2465 1.499 . S
C2468 C2469 1.373 . S
C2468 C2470 1.389 . S
C2469 H2448 0.950 . S
C2469 C2468 1.373 . S
C2469 C2485 1.377 . S
C2470 C2468 1.389 . S
C2470 C2471 1.524 . S
C2470 C2484 1.377 . S
C2471 C2470 1.524 . S
C2471 C2472 1.397 . S
C2471 C2476 1.363 . S
C2472 H2449 0.950 . S
C2472 C2471 1.397 . S
C2472 C2473 1.334 . S
C2473 H2450 0.950 . S
C2473 C2472 1.334 . S
C2473 C2474 1.287 . S
C2474 C2473 1.287 . S
C2474 C2475 1.524 . S
C2474 H2493 0.913 . S
C2475 H2451 0.950 . S
C2475 C2474 1.524 . S
C2475 C2476 1.415 . S
C2476 H2452 0.950 . S
C2476 C2471 1.363 . S
C2476 C2475 1.415 . S
C2477 H2453 0.951 . S
C2477 C2478 1.366 . S
C2477 C2479 1.388 . S
C2478 C2477 1.366 . S
C2478 C2482 1.385 . S
C2479 H2454 0.951 . S
C2479 C2477 1.388 . S
C2479 C2480 1.366 . S
C2480 C2479 1.366 . S
C2480 C2481 1.414 . S
C2480 C2483 1.499 . S
C2481 H2455 0.950 . S
C2481 C2480 1.414 . S
C2481 C2482 1.374 . S
C2482 H2456 0.950 . S
C2482 C2478 1.385 . S
C2482 C2481 1.374 . S
C2483 C2480 1.499 . S
C2483 C2484 1.373 . S
C2483 C2485 1.389 . S
C2484 H2457 0.950 . S
C2484 C2470 1.377 . S
C2484 C2483 1.373 . S
C2485 C2469 1.377 . S
C2485 C2483 1.389 . S
C2485 C2486 1.524 . S
C2486 C2485 1.524 . S
C2486 C2487 1.397 . S
C2486 C2491 1.363 . S
C2487 H2458 0.950 . S
C2487 C2486 1.397 . S
C2487 C2488 1.334 . S
C2488 H2459 0.950 . S
C2488 C2487 1.334 . S
C2488 C2489 1.287 . S
C2489 C2488 1.287 . S
C2489 C2490 1.524 . S
C2489 H2492 0.999 . S
C2490 H2460 0.950 . S
C2490 C2489 1.524 . S
C2490 C2491 1.415 . S
C2491 H2461 0.950 . S
C2491 C2486 1.363 . S
C2491 C2490 1.415 . S
H2492 C2489 0.999 . S
H2493 C2474 0.913 . S
H2494 C2512 0.951 . S
H2495 C2514 0.951 . S
H2496 C2516 0.950 . S
H2497 C2517 0.950 . S
H2498 C2519 0.950 . S
H2499 C2522 0.950 . S
H2500 C2523 0.950 . S
H2501 C2525 0.950 . S
H2502 C2526 0.950 . S
H2503 C2527 0.951 . S
H2504 C2529 0.951 . S
H2505 C2531 0.950 . S
H2506 C2532 0.950 . S
H2507 C2534 0.950 . S
H2508 C2537 0.950 . S
H2509 C2538 0.950 . S
H2510 C2540 0.950 . S
H2511 C2541 0.950 . S
C2512 H2494 0.951 . S
C2512 C2513 1.366 . S
C2512 C2514 1.388 . S
C2513 C2512 1.366 . S
C2513 C2517 1.385 . S
C2514 H2495 0.951 . S
C2514 C2512 1.388 . S
C2514 C2515 1.366 . S
C2515 C2514 1.366 . S
C2515 C2516 1.414 . S
C2515 C2518 1.499 . S
C2516 H2496 0.950 . S
C2516 C2515 1.414 . S
C2516 C2517 1.374 . S
C2517 H2497 0.950 . S
C2517 C2513 1.385 . S
C2517 C2516 1.374 . S
C2518 C2515 1.499 . S
C2518 C2519 1.373 . S
C2518 C2520 1.389 . S
C2519 H2498 0.950 . S
C2519 C2518 1.373 . S
C2519 C2535 1.377 . S
C2520 C2518 1.389 . S
C2520 C2521 1.524 . S
C2520 C2534 1.377 . S
C2521 C2520 1.524 . S
C2521 C2522 1.397 . S
C2521 C2526 1.363 . S
C2522 H2499 0.950 . S
C2522 C2521 1.397 . S
C2522 C2523 1.334 . S
C2523 H2500 0.950 . S
C2523 C2522 1.334 . S
C2523 C2524 1.287 . S
C2524 C2523 1.287 . S
C2524 C2525 1.524 . S
C2524 H2543 0.913 . S
C2525 H2501 0.950 . S
C2525 C2524 1.524 . S
C2525 C2526 1.415 . S
C2526 H2502 0.950 . S
C2526 C2521 1.363 . S
C2526 C2525 1.415 . S
C2527 H2503 0.951 . S
C2527 C2528 1.366 . S
C2527 C2529 1.388 . S
C2528 C2527 1.366 . S
C2528 C2532 1.385 . S
C2529 H2504 0.951 . S
C2529 C2527 1.388 . S
C2529 C2530 1.366 . S
C2530 C2529 1.366 . S
C2530 C2531 1.414 . S
C2530 C2533 1.499 . S
C2531 H2505 0.950 . S
C2531 C2530 1.414 . S
C2531 C2532 1.374 . S
C2532 H2506 0.950 . S
C2532 C2528 1.385 . S
C2532 C2531 1.374 . S
C2533 C2530 1.499 . S
C2533 C2534 1.373 . S
C2533 C2535 1.389 . S
C2534 H2507 0.950 . S
C2534 C2520 1.377 . S
C2534 C2533 1.373 . S
C2535 C2519 1.377 . S
C2535 C2533 1.389 . S
C2535 C2536 1.524 . S
C2536 C2535 1.524 . S
C2536 C2537 1.397 . S
C2536 C2541 1.363 . S
C2537 H2508 0.950 . S
C2537 C2536 1.397 . S
C2537 C2538 1.334 . S
C2538 H2509 0.950 . S
C2538 C2537 1.334 . S
C2538 C2539 1.287 . S
C2539 C2538 1.287 . S
C2539 C2540 1.524 . S
C2539 H2542 0.999 . S
C2540 H2510 0.950 . S
C2540 C2539 1.524 . S
C2540 C2541 1.415 . S
C2541 H2511 0.950 . S
C2541 C2536 1.363 . S
C2541 C2540 1.415 . S
H2542 C2539 0.999 . S
H2543 C2524 0.913 . S
C563 C9 0.857 . S
C578 C515 0.895 . S
C613 C281 1.976 . S
C628 C39 2.155 . S
C663 C417 1.265 . S
C678 C77 1.279 . S
C713 C111 1.948 . S
C728 C345 2.071 . S
C763 C379 1.759 . S
C778 C43 1.613 . S
C813 C73 1.646 . S
C828 C311 1.640 . S
C863 C107 2.059 . S
C878 C451 1.909 . S
C913 C5 1.212 . S
C928 C247 1.123 . S
C963 C277 1.835 . S
C978 C145 1.692 . S
C1013 C413 1.301 . S
C1028 C179 1.211 . S
C1063 C209 2.167 . S
C1078 C349 2.008 . S
C1113 C213 1.863 . S
C1128 C447 1.990 . S
C1163 C141 2.045 . S
C1178 C383 1.875 . S
C1213 C485 0.970 . S
C1228 C243 1.028 . S
C1263 C315 1.631 . S
C1278 C175 1.776 . S
C1313 C519 1.005 . S
C1328 C481 1.073 . S
C1363 C2 1.334 . S
C1378 C54 1.330 . S
C1413 C36 1.695 . S
C1428 C101 1.709 . S
C1463 C70 1.516 . S
C1478 C104 1.526 . S
C1513 C122 0.869 . S
C1528 C33 0.871 . S
C1563 C20 1.317 . S
C1578 C190 1.317 . S
C1613 C169 1.060 . S
C1628 C135 1.060 . S
C1663 C237 1.368 . S
C1678 C67 1.368 . S
C1713 C496 1.311 . S
C1728 C88 1.312 . S
C1763 C292 1.583 . S
C1778 C240 1.570 . S
C1813 C274 1.471 . S
C1828 C308 1.473 . S
C1863 C339 1.614 . S
C1878 C342 1.588 . S
C1913 C360 1.347 . S
C1928 C271 1.358 . S
C1963 C428 1.218 . S
C1978 C258 1.217 . S
C2013 C407 0.901 . S
C2028 C373 0.899 . S
C2063 C305 0.893 . S
C2078 C475 0.892 . S
C2113 C530 1.131 . S
C2128 C326 1.132 . S
C2163 C156 1.496 . S
C2178 C478 1.498 . S
C2213 C138 1.910 . S
C2228 C172 1.907 . S
C2263 C203 1.314 . S
C2278 C206 1.309 . S
C2313 C509 0.704 . S
C2328 C224 0.705 . S
C2363 C394 1.557 . S
C2378 C512 1.544 . S
C2413 C410 1.374 . S
C2428 C376 1.373 . S
C2463 C441 1.535 . S
C2478 C444 1.509 . S
C2513 C543 1.331 . S
C2528 C462 1.319 . S
