# Generated by pormake.
# Topology ske, (6)-cn, num edge types: 1
# Building blocks:
#     Node 0, Type 0, BuildingBlock: HISSIN_clean_sbu_0, # of connection points: 6
#     Node 1, Type 0, BuildingBlock: HISSIN_clean_sbu_0, # of connection points: 6
#     Node 2, Type 0, BuildingBlock: HISSIN_clean_sbu_0, # of connection points: 6
#     Node 3, Type 0, BuildingBlock: HISSIN_clean_sbu_0, # of connection points: 6
#     Node 4, Type 0, BuildingBlock: HISSIN_clean_sbu_0, # of connection points: 6
#     Node 5, Type 0, BuildingBlock: HISSIN_clean_sbu_0, # of connection points: 6
#     Node 6, Type 0, BuildingBlock: HISSIN_clean_sbu_0, # of connection points: 6
#     Node 7, Type 0, BuildingBlock: HISSIN_clean_sbu_0, # of connection points: 6
#     Edge 8, Type (0, 0), BuildingBlock: XIVTED_clean_linker_0, # of connection points: 2
#     Edge 9, Type (0, 0), BuildingBlock: XIVTED_clean_linker_0, # of connection points: 2
#     Edge 10, Type (0, 0), BuildingBlock: XIVTED_clean_linker_0, # of connection points: 2
#     Edge 11, Type (0, 0), BuildingBlock: XIVTED_clean_linker_0, # of connection points: 2
#     Edge 12, Type (0, 0), BuildingBlock: XIVTED_clean_linker_0, # of connection points: 2
#     Edge 13, Type (0, 0), BuildingBlock: XIVTED_clean_linker_0, # of connection points: 2
#     Edge 14, Type (0, 0), BuildingBlock: XIVTED_clean_linker_0, # of connection points: 2
#     Edge 15, Type (0, 0), BuildingBlock: XIVTED_clean_linker_0, # of connection points: 2
#     Edge 16, Type (0, 0), BuildingBlock: XIVTED_clean_linker_0, # of connection points: 2
#     Edge 17, Type (0, 0), BuildingBlock: XIVTED_clean_linker_0, # of connection points: 2
#     Edge 18, Type (0, 0), BuildingBlock: XIVTED_clean_linker_0, # of connection points: 2
#     Edge 19, Type (0, 0), BuildingBlock: XIVTED_clean_linker_0, # of connection points: 2
#     Edge 20, Type (0, 0), BuildingBlock: XIVTED_clean_linker_0, # of connection points: 2
#     Edge 21, Type (0, 0), BuildingBlock: XIVTED_clean_linker_0, # of connection points: 2
#     Edge 22, Type (0, 0), BuildingBlock: XIVTED_clean_linker_0, # of connection points: 2
#     Edge 23, Type (0, 0), BuildingBlock: XIVTED_clean_linker_0, # of connection points: 2
#     Edge 24, Type (0, 0), BuildingBlock: XIVTED_clean_linker_0, # of connection points: 2
#     Edge 25, Type (0, 0), BuildingBlock: XIVTED_clean_linker_0, # of connection points: 2
#     Edge 26, Type (0, 0), BuildingBlock: XIVTED_clean_linker_0, # of connection points: 2
#     Edge 27, Type (0, 0), BuildingBlock: XIVTED_clean_linker_0, # of connection points: 2
#     Edge 28, Type (0, 0), BuildingBlock: XIVTED_clean_linker_0, # of connection points: 2
#     Edge 29, Type (0, 0), BuildingBlock: XIVTED_clean_linker_0, # of connection points: 2
#     Edge 30, Type (0, 0), BuildingBlock: XIVTED_clean_linker_0, # of connection points: 2
#     Edge 31, Type (0, 0), BuildingBlock: XIVTED_clean_linker_0, # of connection points: 2
# Relax obj value: 0.191
# Max RMSD: 0.201
# Mean RMSD: 0.194
data_MOF--net-ske--node1-HISSIN_clean_sbu_0--edge1-XIVTED_clean_linker_0
_symmetry_space_group_name_H-M    P1
_symmetry_Int_Tables_number       1
_symmetry_cell_setting            triclinic
loop_
_symmetry_equiv_pos_as_xyz
'x, y, z'
_cell_length_a     105.11514
_cell_length_b     30.388812
_cell_length_c     15.59409
_cell_angle_alpha  90.117127
_cell_angle_beta   89.981472
_cell_angle_gamma 97.766578
loop_
_atom_site_label
_atom_site_type_symbol
_atom_site_fract_x
_atom_site_fract_y
_atom_site_fract_z
_atom_type_partial_charge
Eu0 Eu 0.11502 0.25303 0.58753 0.0
Eu1 Eu 0.14728 0.26035 0.58618 0.0
C2 C 0.13285 0.34464 0.57843 0.0
C3 C 0.07749 0.24155 0.5483 0.0
C4 C 0.07192 0.27642 0.5109 0.0
C5 C 0.05741 0.19267 0.52471 0.0
C6 C 0.05919 0.26976 0.48222 0.0
C7 C 0.07015 0.19937 0.55353 0.0
C8 C 0.05165 0.22806 0.49059 0.0
C9 C 0.09003 0.25118 0.59301 0.0
O10 O 0.14191 0.27072 0.72406 0.0
O11 O 0.12068 0.23932 0.7229 0.0
C12 C 0.13126 0.25472 0.76406 0.0
O13 O 0.12019 0.18703 0.54509 0.0
O14 O 0.16595 0.29874 0.6139 0.0
O15 O 0.16497 0.23413 0.55253 0.0
O16 O 0.1392 0.19014 0.61847 0.0
C17 C 0.12945 0.16748 0.5783 0.0
O18 O 0.12039 0.2634 0.44828 0.0
O19 O 0.1413 0.24746 0.44884 0.0
O20 O 0.14153 0.3246 0.54004 0.0
O21 O 0.09594 0.21822 0.61782 0.0
O22 O 0.09799 0.2855 0.56802 0.0
O23 O 0.12379 0.32201 0.6242 0.0
C24 C 0.18433 0.26062 0.62943 0.0
C25 C 0.1884 0.2184 0.63168 0.0
C26 C 0.20476 0.29198 0.69283 0.0
C27 C 0.20059 0.21318 0.66313 0.0
C28 C 0.19258 0.29718 0.66145 0.0
C29 C 0.20903 0.25008 0.6925 0.0
C30 C 0.17241 0.26823 0.58408 0.0
C31 C 0.13085 0.25517 0.40819 0.0
H32 H 0.0772 0.30954 0.50728 0.0
H33 H 0.05196 0.15995 0.53109 0.0
H34 H 0.05508 0.298 0.45755 0.0
H35 H 0.07408 0.17187 0.58282 0.0
H36 H 0.18236 0.18958 0.60651 0.0
H37 H 0.2109 0.32102 0.71619 0.0
H38 H 0.2036 0.18049 0.66109 0.0
H39 H 0.18979 0.33021 0.6597 0.0
Eu40 Eu 0.89346 0.24965 0.47437 0.0
Eu41 Eu 0.86117 0.24097 0.46876 0.0
C42 C 0.87605 0.15661 0.47848 0.0
C43 C 0.93106 0.24694 0.4536 0.0
C44 C 0.93427 0.20352 0.45709 0.0
C45 C 0.95334 0.27422 0.41943 0.0
C46 C 0.94697 0.19576 0.4441 0.0
C47 C 0.94066 0.28196 0.43251 0.0
C48 C 0.95674 0.2312 0.4276 0.0
C49 C 0.91853 0.2575 0.48523 0.0
O50 O 0.86612 0.25466 0.60783 0.0
O51 O 0.88679 0.23689 0.61039 0.0
C52 C 0.87638 0.246 0.6496 0.0
O53 O 0.88745 0.31442 0.51511 0.0
O54 O 0.84221 0.20317 0.44364 0.0
O55 O 0.84392 0.2728 0.47943 0.0
O56 O 0.86974 0.30966 0.42992 0.0
C57 C 0.87872 0.33332 0.4748 0.0
O58 O 0.88852 0.25848 0.33514 0.0
O59 O 0.86719 0.22773 0.33375 0.0
O60 O 0.86675 0.17578 0.51208 0.0
O61 O 0.91247 0.28514 0.44219 0.0
O62 O 0.91075 0.22617 0.5225 0.0
O63 O 0.88577 0.17965 0.43901 0.0
C64 C 0.82402 0.22827 0.51144 0.0
C65 C 0.82185 0.25369 0.58412 0.0
C66 C 0.80175 0.19362 0.51777 0.0
C67 C 0.80967 0.24975 0.62209 0.0
C68 C 0.81391 0.1977 0.47966 0.0
C69 C 0.79938 0.2203 0.58837 0.0
C70 C 0.83613 0.23672 0.46196 0.0
C71 C 0.87792 0.24291 0.29391 0.0
H72 H 0.9271 0.17577 0.47345 0.0
H73 H 0.96059 0.30242 0.40778 0.0
H74 H 0.9492 0.16211 0.44947 0.0
H75 H 0.9385 0.31581 0.43059 0.0
H76 H 0.82943 0.27775 0.60996 0.0
H77 H 0.79414 0.17002 0.49095 0.0
H78 H 0.80823 0.27119 0.67574 0.0
H79 H 0.81531 0.17787 0.42347 0.0
Eu80 Eu 0.14707 0.76054 0.46314 0.0
Eu81 Eu 0.11483 0.75211 0.46166 0.0
C82 C 0.12955 0.66726 0.47079 0.0
C83 C 0.1842 0.76168 0.42141 0.0
C84 C 0.18849 0.7198 0.42145 0.0
C85 C 0.20458 0.7933 0.35792 0.0
C86 C 0.20077 0.7149 0.39123 0.0
C87 C 0.19232 0.79819 0.38819 0.0
C88 C 0.20908 0.75178 0.36062 0.0
C89 C 0.17221 0.76918 0.46597 0.0
O90 O 0.12011 0.76305 0.60097 0.0
O91 O 0.14107 0.74772 0.60041 0.0
C92 C 0.1306 0.75523 0.64107 0.0
O93 O 0.14114 0.82457 0.50943 0.0
O94 O 0.09587 0.71575 0.43157 0.0
O95 O 0.0976 0.78338 0.4801 0.0
O96 O 0.12331 0.82148 0.42597 0.0
C97 C 0.13238 0.84434 0.47142 0.0
O98 O 0.14172 0.77079 0.3253 0.0
O99 O 0.12057 0.73866 0.32622 0.0
O100 O 0.12027 0.68662 0.50437 0.0
O101 O 0.16568 0.79927 0.43539 0.0
O102 O 0.16482 0.73507 0.49775 0.0
O103 O 0.13922 0.69011 0.43038 0.0
C104 C 0.07739 0.73805 0.50117 0.0
C105 C 0.07434 0.76272 0.57294 0.0
C106 C 0.05524 0.70205 0.49711 0.0
C107 C 0.06178 0.75784 0.60507 0.0
C108 C 0.06778 0.70702 0.46489 0.0
C109 C 0.052 0.72827 0.56616 0.0
C110 C 0.08981 0.74845 0.45579 0.0
C111 C 0.13111 0.75448 0.28516 0.0
H112 H 0.18253 0.691 0.44724 0.0
H113 H 0.21074 0.82256 0.33593 0.0
H114 H 0.20385 0.68231 0.39315 0.0
H115 H 0.18939 0.83103 0.3887 0.0
H116 H 0.08152 0.78699 0.60237 0.0
H117 H 0.04795 0.67932 0.46486 0.0
H118 H 0.05967 0.77807 0.65913 0.0
H119 H 0.06982 0.688 0.40889 0.0
Eu120 Eu 0.8617 0.74168 0.58005 0.0
Eu121 Eu 0.89396 0.74939 0.57778 0.0
C122 C 0.8795 0.83371 0.57504 0.0
C123 C 0.82464 0.72934 0.53424 0.0
C124 C 0.82267 0.75412 0.46053 0.0
C125 C 0.80232 0.69525 0.52693 0.0
C126 C 0.81057 0.75013 0.42151 0.0
C127 C 0.81441 0.69935 0.56606 0.0
C128 C 0.80016 0.72129 0.45522 0.0
C129 C 0.83666 0.73789 0.58459 0.0
O130 O 0.8888 0.759 0.71647 0.0
O131 O 0.86741 0.72902 0.71582 0.0
C132 C 0.87807 0.74394 0.75667 0.0
O133 O 0.86724 0.67604 0.5383 0.0
O134 O 0.91301 0.78391 0.61057 0.0
O135 O 0.91118 0.72453 0.53104 0.0
O136 O 0.88597 0.67998 0.6145 0.0
C137 C 0.87637 0.65684 0.574 0.0
O138 O 0.86698 0.75503 0.44154 0.0
O139 O 0.88752 0.73616 0.44134 0.0
O140 O 0.8883 0.81441 0.53614 0.0
O141 O 0.84266 0.70432 0.60397 0.0
O142 O 0.84453 0.77376 0.56721 0.0
O143 O 0.87032 0.81045 0.61879 0.0
C144 C 0.93145 0.74453 0.60114 0.0
C145 C 0.93712 0.71034 0.56179 0.0
C146 C 0.9515 0.76698 0.67772 0.0
C147 C 0.94991 0.70522 0.57847 0.0
C148 C 0.9387 0.77219 0.6608 0.0
C149 C 0.9574 0.73427 0.63477 0.0
C150 C 0.91902 0.75568 0.56852 0.0
C151 C 0.87727 0.74579 0.40094 0.0
H152 H 0.83035 0.77771 0.43463 0.0
H153 H 0.79462 0.67211 0.5538 0.0
H154 H 0.80927 0.77108 0.36699 0.0
H155 H 0.81566 0.68003 0.62303 0.0
H156 H 0.9319 0.68892 0.51437 0.0
H157 H 0.9569 0.78952 0.72254 0.0
H158 H 0.95411 0.68003 0.54322 0.0
H159 H 0.93468 0.79915 0.69164 0.0
Eu160 Eu 0.62037 0.75277 0.09747 0.0
Eu161 Eu 0.65249 0.76002 0.09164 0.0
C162 C 0.63803 0.84474 0.08207 0.0
C163 C 0.58215 0.74047 0.08023 0.0
C164 C 0.57692 0.76852 1.02211 0.0
C165 C 0.56065 0.70193 0.10611 0.0
C166 C 0.56364 0.76401 1.00793 0.0
C167 C 0.5739 0.70636 0.12011 0.0
C168 C 0.55531 0.73166 0.05219 0.0
C169 C 0.59551 0.75128 0.11183 0.0
O170 O 0.6476 0.77154 0.22987 0.0
O171 O 0.62662 0.73832 0.23112 0.0
C172 C 0.63717 0.75479 0.27122 0.0
O173 O 0.6251 0.6866 0.05198 0.0
O174 O 0.67127 0.79865 0.11554 0.0
O175 O 0.67005 0.73295 0.05847 0.0
O176 O 0.64451 0.68894 0.12022 0.0
C177 C 0.63456 0.66667 0.08118 0.0
O178 O 0.62503 0.76107 0.95667 0.0
O179 O 0.64628 0.74872 0.95443 0.0
O180 O 0.64673 0.82433 0.04454 0.0
O181 O 0.60163 0.71943 0.13935 0.0
O182 O 0.60309 0.78377 0.07643 0.0
O183 O 0.62912 0.82253 0.12968 0.0
C184 C 0.68947 0.76055 0.13103 0.0
C185 C 0.68986 0.72625 0.19082 0.0
C186 C 0.71251 0.78083 0.1466 0.0
C187 C 0.70159 0.71913 0.22784 0.0
C188 C 0.70084 0.78797 0.11009 0.0
C189 C 0.71309 0.74601 0.20511 0.0
C190 C 0.6776 0.76775 0.08609 0.0
C191 C 0.63556 0.75464 0.91527 0.0
H192 H 0.58298 0.7955 0.99105 0.0
H193 H 0.55452 0.6762 0.14016 0.0
H194 H 0.55985 0.78762 0.96637 0.0
H195 H 0.5776 0.68451 0.16589 0.0
H196 H 0.68117 0.70469 0.20784 0.0
H197 H 0.72111 0.8027 0.12891 0.0
H198 H 0.70171 0.69194 0.27248 0.0
H199 H 0.70073 0.81471 0.06431 0.0
Eu200 Eu 0.39508 0.72613 0.09609 0.0
Eu201 Eu 0.36287 0.72112 0.09386 0.0
C202 C 0.37678 0.63523 0.07896 0.0
C203 C 0.43328 0.73688 0.07693 0.0
C204 C 0.43838 0.71047 1.0149 0.0
C205 C 0.4549 0.77346 0.10654 0.0
C206 C 0.45166 0.7148 1.00047 0.0
C207 C 0.44166 0.76924 0.12073 0.0
C208 C 0.4601 0.74527 0.04841 0.0
C209 C 0.4199 0.72578 0.10793 0.0
O210 O 0.36799 0.70902 0.23137 0.0
O211 O 0.38922 0.73979 0.23096 0.0
C212 C 0.37863 0.72451 0.2718 0.0
O213 O 0.39078 0.79362 0.05638 0.0
O214 O 0.34402 0.68386 0.12019 0.0
O215 O 0.3454 0.74913 0.06176 0.0
O216 O 0.37124 0.79168 0.12362 0.0
C217 C 0.38141 0.81372 0.08665 0.0
O218 O 0.39006 0.71995 0.95559 0.0
O219 O 0.36882 0.73261 0.95635 0.0
O220 O 0.36803 0.65642 0.04442 0.0
O221 O 0.41396 0.75711 0.13995 0.0
O222 O 0.41216 0.6948 0.06917 0.0
O223 O 0.38605 0.65642 0.12535 0.0
C224 C 0.32594 0.72328 0.13803 0.0
C225 C 0.3218 0.7654 0.1382 0.0
C226 C 0.30566 0.69262 0.20405 0.0
C227 C 0.30963 0.77088 0.16977 0.0
C228 C 0.3178 0.68715 0.17246 0.0
C229 C 0.30129 0.73437 0.20149 0.0
C230 C 0.33776 0.71521 0.09196 0.0
C231 C 0.37945 0.72679 0.91577 0.0
H232 H 0.43222 0.68483 0.98073 0.0
H233 H 0.46112 0.79773 0.14357 0.0
H234 H 0.45535 0.69241 0.95559 0.0
H235 H 0.43805 0.78977 0.16955 0.0
H236 H 0.32777 0.79391 0.11149 0.0
H237 H 0.29947 0.66362 0.22686 0.0
H238 H 0.30666 0.80363 0.16792 0.0
H239 H 0.32061 0.65413 0.17186 0.0
Eu240 Eu 0.65092 0.25893 0.94258 0.0
Eu241 Eu 0.61872 0.25101 0.94052 0.0
C242 C 0.63327 0.16551 0.95303 0.0
C243 C 0.68795 0.25987 0.90126 0.0
C244 C 0.68856 0.22429 0.84443 0.0
C245 C 0.71092 0.28158 0.88443 0.0
C246 C 0.70037 0.21725 0.8083 0.0
C247 C 0.69917 0.28865 0.91998 0.0
C248 C 0.71172 0.24547 0.82909 0.0
C249 C 0.67604 0.26688 0.94614 0.0
O250 O 0.62372 0.25981 0.08069 0.0
O251 O 0.64496 0.24723 0.08019 0.0
C252 C 0.63435 0.25332 0.12073 0.0
O253 O 0.64524 0.32302 0.9914 0.0
O254 O 0.59986 0.21588 0.90405 0.0
O255 O 0.60142 0.28196 0.9602 0.0
O256 O 0.62723 0.32132 0.90998 0.0
C257 C 0.6364 0.34345 0.95589 0.0
O258 O 0.64567 0.27071 0.8052 0.0
O259 O 0.62469 0.23733 0.80577 0.0
O260 O 0.62387 0.1851 0.98448 0.0
O261 O 0.66964 0.29761 0.91699 0.0
O262 O 0.66857 0.23207 0.97419 0.0
O263 O 0.64296 0.18811 0.91221 0.0
C264 C 0.5806 0.23818 0.9647 0.0
C265 C 0.5762 0.26449 0.02973 0.0
C266 C 0.55863 0.20256 0.94333 0.0
C267 C 0.5631 0.2606 0.04979 0.0
C268 C 0.57171 0.20649 0.92326 0.0
C269 C 0.5541 0.23048 1.00509 0.0
C270 C 0.59376 0.24831 0.9292 0.0
C271 C 0.63515 0.25396 0.76479 0.0
H272 H 0.68 0.20163 0.82918 0.0
H273 H 0.7194 0.30445 0.90052 0.0
H274 H 0.70067 0.18907 0.7661 0.0
H275 H 0.69889 0.31635 0.96354 0.0
H276 H 0.58277 0.28944 0.06265 0.0
H277 H 0.552 0.17933 0.90687 0.0
H278 H 0.55998 0.28213 0.09869 0.0
H279 H 0.57479 0.18626 0.87193 0.0
Eu280 Eu 0.36268 0.21288 0.93622 0.0
Eu281 Eu 0.39497 0.2359 0.93626 0.0
C282 C 0.37694 0.31392 0.93727 0.0
C283 C 0.32534 0.20137 0.8981 0.0
C284 C 0.32168 0.24414 0.90228 0.0
C285 C 0.30428 0.17336 0.84048 0.0
C286 C 0.30932 0.25127 0.87671 0.0
C287 C 0.31659 0.16631 0.86588 0.0
C288 C 0.30039 0.21575 0.84694 0.0
C289 C 0.33768 0.19118 0.93319 0.0
O290 O 0.38924 0.24165 0.07507 0.0
O291 O 0.36861 0.20399 0.07357 0.0
C292 C 0.37883 0.22302 0.1149 0.0
O293 O 0.37082 0.1483 0.92383 0.0
O294 O 0.41308 0.27573 0.9738 0.0
O295 O 0.4131 0.22249 0.88111 0.0
O296 O 0.39083 0.16579 0.98392 0.0
C297 C 0.38108 0.13659 0.96073 0.0
O298 O 0.36815 0.23665 0.80266 0.0
O299 O 0.38839 0.21675 0.80181 0.0
O300 O 0.38755 0.30056 0.90869 0.0
O301 O 0.34548 0.1745 0.88109 0.0
O302 O 0.34372 0.21857 0.98878 0.0
O303 O 0.3669 0.28615 0.96104 0.0
C304 C 0.43267 0.24345 0.95847 0.0
C305 C 0.4386 0.209 0.92219 0.0
C306 C 0.45242 0.26779 0.03719 0.0
C307 C 0.45135 0.20447 0.942 0.0
C308 C 0.43967 0.27237 1.01723 0.0
C309 C 0.45853 0.2344 0.99832 0.0
C310 C 0.42006 0.25312 0.92578 0.0
C311 C 0.37833 0.2275 0.76103 0.0
H312 H 0.32823 0.2718 0.92711 0.0
H313 H 0.29777 0.14542 0.81636 0.0
H314 H 0.30663 0.28429 0.88298 0.0
H315 H 0.31919 0.13303 0.86219 0.0
H316 H 0.43359 0.18654 0.87555 0.0
H317 H 0.45757 0.29107 0.08181 0.0
H318 H 0.45574 0.17873 0.90982 0.0
H319 H 0.43546 0.29959 0.04556 0.0
H320 H 0.21751 0.18266 0.78517 0.0
H321 H 0.29191 0.28569 0.76186 0.0
H322 H 0.2312 0.30642 0.65934 0.0
H323 H 0.27814 0.16075 0.88309 0.0
H324 H 0.26972 0.29494 0.72682 0.0
H325 H 0.23964 0.17472 0.82355 0.0
C326 C 0.22516 0.20814 0.76542 0.0
C327 C 0.22243 0.2453 0.71897 0.0
C328 C 0.27156 0.26549 0.76107 0.0
C329 C 0.24787 0.23655 0.76331 0.0
C330 C 0.28423 0.26029 0.78149 0.0
C331 C 0.28695 0.22227 0.82518 0.0
C332 C 0.26147 0.23252 0.78474 0.0
C333 C 0.27657 0.19026 0.84808 0.0
C334 C 0.2378 0.20369 0.78772 0.0
C335 C 0.23277 0.27753 0.69627 0.0
N336 N 0.26434 0.19611 0.82763 0.0
N337 N 0.245 0.27236 0.71847 0.0
H338 H 0.73452 0.2506 0.91569 0.0
H339 H 0.77642 0.21127 0.50098 0.0
H340 H 0.71798 0.22152 0.66539 0.0
H341 H 0.79202 0.22714 0.757 0.0
H342 H 0.75496 0.21313 0.55961 0.0
H343 H 0.75558 0.24117 0.85836 0.0
C344 C 0.73532 0.2423 0.84849 0.0
C345 C 0.72445 0.23727 0.79513 0.0
C346 C 0.76307 0.21597 0.60301 0.0
C347 C 0.74864 0.22607 0.72888 0.0
C348 C 0.77536 0.2146 0.56965 0.0
C349 C 0.78614 0.21909 0.62397 0.0
C350 C 0.76148 0.22209 0.69145 0.0
C351 C 0.78408 0.22422 0.71228 0.0
C352 C 0.74736 0.23666 0.81587 0.0
C353 C 0.72607 0.22558 0.70898 0.0
N354 N 0.77203 0.22574 0.74308 0.0
N355 N 0.73794 0.22069 0.67841 0.0
H356 H 0.28458 0.78399 0.12395 0.0
H357 H 0.22585 0.70271 0.43915 0.0
H358 H 0.28721 0.69487 0.33647 0.0
H359 H 0.22326 0.79195 0.22678 0.0
H360 H 0.24824 0.69893 0.40183 0.0
H361 H 0.26225 0.78825 0.1621 0.0
C362 C 0.28053 0.76568 0.17927 0.0
C363 C 0.28786 0.73906 0.22707 0.0
C364 C 0.24277 0.71928 0.36325 0.0
C365 C 0.2621 0.74319 0.27027 0.0
C366 C 0.22992 0.72117 0.38407 0.0
C367 C 0.22258 0.74764 0.33598 0.0
C368 C 0.2484 0.74402 0.2937 0.0
C369 C 0.22854 0.77149 0.26636 0.0
C370 C 0.26771 0.76784 0.20057 0.0
C371 C 0.28193 0.71542 0.29705 0.0
N372 N 0.24107 0.76912 0.2474 0.0
N373 N 0.26943 0.71802 0.31642 0.0
H374 H 0.73594 0.74787 0.11995 0.0
H375 H 0.77707 0.71411 0.54078 0.0
H376 H 0.71907 0.7253 0.37099 0.0
H377 H 0.79312 0.72631 0.28568 0.0
H378 H 0.75574 0.71586 0.48006 0.0
H379 H 0.75685 0.7386 0.17971 0.0
C380 C 0.73663 0.74104 0.18781 0.0
C381 C 0.72572 0.7378 0.24064 0.0
C382 C 0.76391 0.71792 0.43731 0.0
C383 C 0.74974 0.72676 0.30968 0.0
C384 C 0.77613 0.71662 0.47188 0.0
C385 C 0.787 0.7201 0.41842 0.0
C386 C 0.76249 0.72294 0.34848 0.0
C387 C 0.7851 0.72418 0.32972 0.0
C388 C 0.74859 0.73549 0.22183 0.0
C389 C 0.7272 0.72793 0.32776 0.0
N390 N 0.77313 0.72564 0.29772 0.0
N391 N 0.73899 0.72307 0.35964 0.0
H392 H 0.14975 0.90198 0.5605 0.0
H393 H 0.11155 0.10962 0.49297 0.0
H394 H 0.11469 0.8958 0.41379 0.0
H395 H 0.14712 0.11567 0.63407 0.0
H396 H 0.11225 0.03089 0.46567 0.0
H397 H 0.14882 0.98036 0.58861 0.0
C398 C 0.14188 0.91714 0.53384 0.0
C399 C 0.13228 0.8923 0.48474 0.0
C400 C 0.11988 0.04944 0.50277 0.0
C401 C 0.13112 0.98201 0.51715 0.0
C402 C 0.11947 0.09438 0.51863 0.0
C403 C 0.12931 0.11931 0.56577 0.0
C404 C 0.13019 0.02933 0.53426 0.0
C405 C 0.13933 0.09779 0.59734 0.0
C406 C 0.14134 0.96191 0.5501 0.0
C407 C 0.12231 0.91371 0.45189 0.0
N408 N 0.13953 0.05405 0.58083 0.0
N409 N 0.12198 0.95737 0.46888 0.0
H410 H 0.86125 0.38337 0.40933 0.0
H411 H 0.89367 0.60607 0.63822 0.0
H412 H 0.89555 0.39242 0.5645 0.0
H413 H 0.85923 0.59817 0.48463 0.0
H414 H 0.89434 0.52743 0.6125 0.0
H415 H 0.86039 0.46219 0.43479 0.0
C416 C 0.86864 0.40197 0.44834 0.0
C417 C 0.87848 0.38132 0.48499 0.0
C418 C 0.88661 0.54284 0.58456 0.0
C419 C 0.8775 0.47125 0.51477 0.0
C420 C 0.8862 0.58776 0.5994 0.0
C421 C 0.87639 0.60874 0.56332 0.0
C422 C 0.87715 0.51871 0.5332 0.0
C423 C 0.86697 0.58332 0.51365 0.0
C424 C 0.86812 0.44691 0.46307 0.0
C425 C 0.88778 0.40697 0.53507 0.0
N426 N 0.86761 0.53958 0.49982 0.0
N427 N 0.88704 0.45061 0.54864 0.0
H428 H 0.89705 0.89236 0.49015 0.0
H429 H 0.85828 0.0981 0.56263 0.0
H430 H 0.86176 0.88433 0.63495 0.0
H431 H 0.89398 0.10591 0.42241 0.0
H432 H 0.85922 0.01948 0.58855 0.0
H433 H 0.89609 0.97094 0.46547 0.0
C434 C 0.88913 0.90717 0.51715 0.0
C435 C 0.87945 0.88177 0.56454 0.0
C436 C 0.86683 0.03841 0.55198 0.0
C437 C 0.87826 0.9716 0.53604 0.0
C438 C 0.86628 0.08326 0.53691 0.0
C439 C 0.87608 0.1086 0.49038 0.0
C440 C 0.87724 0.01885 0.52027 0.0
C441 C 0.88621 0.08766 0.45867 0.0
C442 C 0.88858 0.95203 0.50285 0.0
C443 C 0.86943 0.9027 0.59803 0.0
N444 N 0.88654 0.04398 0.47438 0.0
N445 N 0.86907 0.94645 0.58288 0.0
H446 H 0.11178 0.6093 0.55633 0.0
H447 H 0.15014 0.40198 0.48839 0.0
H448 H 0.14735 0.61577 0.41515 0.0
H449 H 0.11527 0.39634 0.63702 0.0
H450 H 0.14918 0.48032 0.46013 0.0
H451 H 0.11263 0.53079 0.58388 0.0
C452 C 0.11974 0.59419 0.53071 0.0
C453 C 0.12952 0.61919 0.48346 0.0
C454 C 0.14176 0.46199 0.49911 0.0
C455 C 0.13059 0.52941 0.51527 0.0
C456 C 0.14231 0.41726 0.51546 0.0
C457 C 0.13277 0.39258 0.56513 0.0
C458 C 0.13157 0.48218 0.53252 0.0
C459 C 0.12285 0.41411 0.59848 0.0
C460 C 0.12023 0.54937 0.54672 0.0
C461 C 0.1396 0.59782 0.45194 0.0
N462 N 0.12249 0.4577 0.58136 0.0
N463 N 0.13988 0.55416 0.4686 0.0
H464 H 0.6162 0.60978 0.9972 0.0
H465 H 0.65418 0.39986 0.04486 0.0
H466 H 0.65247 0.61368 0.12901 0.0
H467 H 0.61861 0.39641 0.90487 0.0
H468 H 0.65356 0.47806 0.07723 0.0
H469 H 0.61663 0.53129 0.96549 0.0
C470 C 0.62423 0.59414 1.01993 0.0
C471 C 0.63432 0.61848 0.06586 0.0
C472 C 0.6459 0.46027 0.03926 0.0
C473 C 0.6349 0.52854 0.02919 0.0
C474 C 0.64625 0.41556 1.02055 0.0
C475 C 0.63643 0.39146 0.97199 0.0
C476 C 0.63563 0.48116 1.00942 0.0
C477 C 0.62641 0.41367 0.94237 0.0
C478 C 0.62448 0.54929 1.00152 0.0
C479 C 0.64447 0.59633 0.09344 0.0
N480 N 0.62626 0.45724 0.96173 0.0
N481 N 0.64451 0.55268 0.07454 0.0
H482 H 0.40231 0.87405 0.04511 0.0
H483 H 0.36086 0.07015 0.96208 0.0
H484 H 0.36172 0.86358 0.09941 0.0
H485 H 0.40186 0.0948 1.0021 0.0
H486 H 0.3612 -0.00784 0.99698 0.0
H487 H 0.40256 0.95339 1.0161 0.0
C488 C 0.39347 0.88845 0.05134 0.0
C489 C 0.38197 0.86215 0.07463 0.0
C490 C 0.37012 0.01464 0.99824 0.0
C491 C 0.38218 0.95249 0.04049 0.0
C492 C 0.36996 0.05913 0.97773 0.0
C493 C 0.38136 0.08905 0.97905 0.0
C494 C 0.38179 -0.0003 1.01917 0.0
C495 C 0.39284 0.07287 1.0005 0.0
C496 C 0.39364 0.93369 0.03495 0.0
C497 C 0.37082 0.88257 0.08196 0.0
N498 N 0.39278 0.02915 1.01931 0.0
N499 N 0.37118 0.92644 0.06419 0.0
H500 H 0.35584 0.35688 0.95691 0.0
H501 H 0.39644 0.58562 0.09845 0.0
H502 H 0.39725 0.38023 0.94675 0.0
H503 H 0.35698 0.57654 1.01551 0.0
H504 H 0.39646 0.50774 0.05861 0.0
H505 H 0.35564 0.43544 0.99093 0.0
C506 C 0.36488 0.37858 0.96115 0.0
C507 C 0.37658 0.36199 0.94895 0.0
C508 C 0.3878 0.52285 0.04918 0.0
C509 C 0.37641 0.45154 0.98929 0.0
C510 C 0.38775 0.56715 0.07253 0.0
C511 C 0.37668 0.58754 0.06032 0.0
C512 C 0.37667 0.49861 1.01449 0.0
C513 C 0.36573 0.56212 0.0258 0.0
C514 C 0.36475 0.42337 0.98055 0.0
C515 C 0.38801 0.39163 0.95515 0.0
N516 N 0.36598 0.51888 1.0044 0.0
N517 N 0.38764 0.4349 0.97576 0.0
H518 H 0.61575 0.10808 0.04247 0.0
H519 H 0.65496 0.90143 0.98742 0.0
H520 H 0.6512 0.11363 0.90032 0.0
H521 H 0.62031 0.89681 0.13785 0.0
H522 H 0.65361 0.97905 0.95391 0.0
H523 H 0.61694 0.03018 0.07518 0.0
C524 C 0.62374 0.0929 1.01763 0.0
C525 C 0.63339 0.11754 0.96857 0.0
C526 C 0.64632 0.96112 0.99445 0.0
C527 C 0.63486 0.02835 1.0064 0.0
C528 C 0.6471 0.91677 1.01382 0.0
C529 C 0.63774 0.89251 0.0656 0.0
C530 C 0.63608 0.98144 0.02686 0.0
C531 C 0.62776 0.9142 0.09781 0.0
C532 C 0.62444 0.04842 0.03664 0.0
C533 C 0.64354 0.09603 0.93838 0.0
N534 N 0.62718 0.95739 0.07773 0.0
N535 N 0.64401 0.05274 0.95793 0.0
H536 H 0.15156 0.25416 0.30201 0.0
H537 H 0.11038 0.2384 0.87001 0.0
H538 H 0.11052 0.25533 0.29751 0.0
H539 H 0.15169 0.27001 0.87489 0.0
H540 H 0.11021 0.23827 0.02655 0.0
H541 H 0.1517 0.25377 0.14557 0.0
C542 C 0.14256 0.25425 0.26825 0.0
C543 C 0.131 0.25479 0.31321 0.0
C544 C 0.1193 0.24529 0.99335 0.0
C545 C 0.13113 0.25425 0.13368 0.0
C546 C 0.11943 0.24522 0.90388 0.0
C547 C 0.13108 0.25425 0.85903 0.0
C548 C 0.13092 0.25404 0.03856 0.0
C549 C 0.14248 0.26302 0.90663 0.0
C550 C 0.14267 0.25418 0.17881 0.0
C551 C 0.11967 0.25505 0.26569 0.0
N552 N 0.14211 0.26254 0.99379 0.0
N553 N 0.12001 0.25463 0.17851 0.0
H554 H 0.89856 0.25823 0.18491 0.0
H555 H 0.85586 0.24787 0.75849 0.0
H556 H 0.85721 0.22857 0.18595 0.0
H557 H 0.89681 0.24464 0.75762 0.0
H558 H 0.85621 0.24723 0.91551 0.0
H559 H 0.89815 0.25958 0.02814 0.0
C560 C 0.8894 0.25198 0.15231 0.0
C561 C 0.87791 0.24316 0.19886 0.0
C562 C 0.8651 0.24661 0.8808 0.0
C563 C 0.87737 0.24496 1.01931 0.0
C564 C 0.86492 0.24713 0.79116 0.0
C565 C 0.87632 0.24619 0.74463 0.0
C566 C 0.87678 0.24562 0.92424 0.0
C567 C 0.88777 0.24515 0.7906 0.0
C568 C 0.88917 0.25268 0.06276 0.0
C569 C 0.86632 0.23528 0.15291 0.0
N570 N 0.88771 0.24502 0.8777 0.0
N571 N 0.86634 0.23653 0.06578 0.0
H572 H 0.11023 0.73754 0.17929 0.0
H573 H 0.15135 0.75511 0.74704 0.0
H574 H 0.1515 0.77071 0.17424 0.0
H575 H 0.11025 0.75481 0.75191 0.0
H576 H 0.15151 0.75476 0.90345 0.0
H577 H 0.11003 0.73764 1.02277 0.0
C578 C 0.11927 0.74475 0.14538 0.0
C579 C 0.13091 0.75415 0.19019 0.0
C580 C 0.14246 0.75485 0.87031 0.0
C581 C 0.13071 0.7542 1.01066 0.0
C582 C 0.14234 0.75489 0.78088 0.0
C583 C 0.13076 0.75499 0.73603 0.0
C584 C 0.13091 0.75449 0.91555 0.0
C585 C 0.11941 0.75488 0.78365 0.0
C586 C 0.11912 0.74495 0.05592 0.0
C587 C 0.14229 0.76342 0.14254 0.0
N588 N 0.11977 0.75447 0.87083 0.0
N589 N 0.14191 0.76306 0.05538 0.0
H590 H 0.8571 0.73025 0.86226 0.0
H591 H 0.89794 0.74329 0.29525 0.0
H592 H 0.89848 0.75813 0.868 0.0
H593 H 0.8571 0.74874 0.28977 0.0
H594 H 0.89818 0.74306 0.13888 0.0
H595 H 0.85682 0.73116 1.01874 0.0
C596 C 0.86614 0.73645 0.89631 0.0
C597 C 0.87785 0.74408 0.85168 0.0
C598 C 0.88917 0.74441 0.17185 0.0
C599 C 0.87756 0.74509 0.03124 0.0
C600 C 0.889 0.74438 0.26127 0.0
C601 C 0.87746 0.74598 0.30595 0.0
C602 C 0.87771 0.74562 0.1264 0.0
C603 C 0.86622 0.74758 0.25814 0.0
C604 C 0.86596 0.73714 0.98576 0.0
C605 C 0.88924 0.75216 0.89955 0.0
N606 N 0.86661 0.74715 0.17094 0.0
N607 N 0.88881 0.75228 0.98672 0.0
H608 H 0.65773 0.77299 0.38031 0.0
H609 H 0.61489 0.75174 0.80646 0.0
H610 H 0.61657 0.7365 0.37885 0.0
H611 H 0.65617 0.75736 0.80725 0.0
H612 H 0.61526 0.75176 0.64953 0.0
H613 H 0.6573 0.77304 0.53715 0.0
C614 C 0.6486 0.76501 0.41284 0.0
C615 C 0.63717 0.75466 0.3662 0.0
C616 C 0.62423 0.7529 0.68419 0.0
C617 C 0.63662 0.75487 0.54571 0.0
C618 C 0.62402 0.75301 0.77379 0.0
C619 C 0.6355 0.75446 0.82028 0.0
C620 C 0.636 0.7547 0.64074 0.0
C621 C 0.64706 0.75599 0.7743 0.0
C622 C 0.64837 0.76494 0.50241 0.0
C623 C 0.62563 0.7445 0.41199 0.0
N624 N 0.64701 0.75622 0.68721 0.0
N625 N 0.62565 0.74501 0.49911 0.0
H626 H 0.35862 0.72607 0.81017 0.0
H627 H 0.39953 0.74134 0.37718 0.0
H628 H 0.39979 0.72824 0.8045 0.0
H629 H 0.35825 0.70887 0.38316 0.0
H630 H 0.3998 0.74232 0.53352 0.0
H631 H 0.35836 0.72559 0.65383 0.0
C632 C 0.36763 0.72658 0.77618 0.0
C633 C 0.37926 0.7272 0.82081 0.0
C634 C 0.39069 0.73491 0.50066 0.0
C635 C 0.37898 0.72666 0.64132 0.0
C636 C 0.3905 0.73446 0.41126 0.0
C637 C 0.37883 0.725 0.36675 0.0
C638 C 0.37911 0.7262 0.54622 0.0
C639 C 0.36747 0.7162 0.41466 0.0
C640 C 0.36744 0.72613 0.68678 0.0
C641 C 0.39059 0.72765 0.77297 0.0
N642 N 0.36789 0.71716 0.50182 0.0
N643 N 0.39017 0.72749 0.68581 0.0
H644 H 0.65522 0.25578 0.22636 0.0
H645 H 0.6143 0.23546 0.65932 0.0
H646 H 0.61397 0.25078 0.23195 0.0
H647 H 0.65545 0.27191 0.65353 0.0
H648 H 0.61403 0.23526 0.50288 0.0
H649 H 0.65547 0.256 0.38272 0.0
C650 C 0.64619 0.25462 0.26034 0.0
C651 C 0.63454 0.25323 0.21569 0.0
C652 C 0.62311 0.24337 0.53582 0.0
C653 C 0.6348 0.25343 0.39521 0.0
C654 C 0.6233 0.24335 0.62525 0.0
C655 C 0.63493 0.25372 0.66984 0.0
C656 C 0.63465 0.25343 0.49033 0.0
C657 C 0.64626 0.26385 0.62198 0.0
C658 C 0.64637 0.25492 0.34976 0.0
C659 C 0.62318 0.25199 0.26352 0.0
N660 N 0.64584 0.26329 0.53481 0.0
N661 N 0.62359 0.25196 0.35069 0.0
H662 H 0.35798 0.2049 0.22138 0.0
H663 H 0.39901 0.22728 0.65441 0.0
H664 H 0.39908 0.24241 0.22626 0.0
H665 H 0.35802 0.22877 0.65 0.0
H666 H 0.39914 0.22655 0.49777 0.0
H667 H 0.35775 0.20694 0.37825 0.0
C668 C 0.36697 0.21341 0.25529 0.0
C669 C 0.37858 0.22346 0.21023 0.0
C670 C 0.39012 0.22716 0.53101 0.0
C671 C 0.37835 0.22571 0.39025 0.0
C672 C 0.39002 0.22744 0.62059 0.0
C673 C 0.37848 0.22805 0.66573 0.0
C674 C 0.37857 0.22691 0.48571 0.0
C675 C 0.36715 0.22844 0.61806 0.0
C676 C 0.36681 0.21477 0.34494 0.0
C677 C 0.3899 0.23451 0.258 0.0
N678 N 0.36747 0.22759 0.53073 0.0
N679 N 0.3895 0.23513 0.34525 0.0
H680 H 0.03945 0.26468 0.35715 0.0
H681 H 0.96884 0.17687 0.53114 0.0
H682 H 0.03178 0.1797 0.57787 0.0
H683 H 0.97623 0.2702 0.3229 0.0
H684 H 0.99173 0.17093 0.53797 0.0
H685 H 0.01632 0.26121 0.33394 0.0
C686 C 0.03293 0.24514 0.4006 0.0
C687 C 0.03765 0.22267 0.46997 0.0
C688 C 0.98835 0.19248 0.49031 0.0
C689 C 0.01107 0.21832 0.44323 0.0
C690 C 0.97523 0.19561 0.48581 0.0
C691 C 0.97053 0.22419 0.42642 0.0
C692 C 0.99693 0.21812 0.43512 0.0
C693 C 0.97939 0.24821 0.37054 0.0
C694 C 0.0197 0.24305 0.38705 0.0
C695 C 0.02867 0.19723 0.52302 0.0
N696 N 0.99215 0.24479 0.37653 0.0
N697 N 0.01586 0.196 0.50887 0.0
H698 H 0.97675 0.80443 0.64728 0.0
H699 H 0.03329 0.6559 0.58166 0.0
H700 H 0.97039 0.66114 0.63712 0.0
H701 H 0.03939 0.79855 0.60894 0.0
H702 H 0.01042 0.65642 0.61076 0.0
H703 H 0.99982 0.80219 0.64437 0.0
C704 C 0.98017 0.77239 0.64594 0.0
C705 C 0.97151 0.7329 0.64216 0.0
C706 C 0.01679 0.68756 0.61118 0.0
C707 C 0.99811 0.73019 0.63671 0.0
C708 C 0.02985 0.68731 0.59422 0.0
C709 C 0.03832 0.72726 0.59245 0.0
C710 C 0.0121 0.72809 0.62595 0.0
C711 C 0.0333 0.76687 0.61045 0.0
C712 C 0.9934 0.77117 0.64352 0.0
C713 C 0.97664 0.6925 0.63871 0.0
N714 N 0.02054 0.76629 0.62569 0.0
N715 N 0.98957 0.69221 0.63544 0.0
H716 H 0.53841 0.72227 0.18593 0.0
H717 H 0.47541 0.73937 0.90605 0.0
H718 H 0.53994 0.74217 0.91202 0.0
H719 H 0.47696 0.74873 0.18207 0.0
H720 H 0.4986 0.7351 0.90405 0.0
H721 H 0.5154 0.72553 0.18274 0.0
C722 C 0.53388 0.72678 0.12479 0.0
C723 C 0.54114 0.73163 0.049 0.0
C724 C 0.49385 0.73834 0.9649 0.0
C725 C 0.51467 0.73614 0.04509 0.0
C726 C 0.48062 0.74065 0.96612 0.0
C727 C 0.47423 0.74475 0.04431 0.0
C728 C 0.50068 0.73951 0.04252 0.0
C729 C 0.48148 0.74636 0.12017 0.0
C730 C 0.52073 0.72909 0.12315 0.0
C731 C 0.53473 0.73845 0.97202 0.0
N732 N 0.49426 0.74354 0.11735 0.0
N733 N 0.52185 0.74038 0.97195 0.0
H734 H 0.47109 0.16066 1.01275 0.0
H735 H 0.54118 0.30228 0.02791 0.0
H736 H 0.47805 0.30396 1.01289 0.0
H737 H 0.53478 0.1593 1.00834 0.0
H738 H 0.51803 0.30281 0.03645 0.0
H739 H 0.49425 0.15895 0.02301 0.0
C740 C 0.47746 0.19179 1.01512 0.0
C741 C 0.47253 0.23254 1.01165 0.0
C742 C 0.52167 0.27126 0.03084 0.0
C743 C 0.49913 0.23075 0.02411 0.0
C744 C 0.53494 0.27088 0.02671 0.0
C745 C 0.54001 0.23066 1.01738 0.0
C746 C 0.51333 0.23114 0.02558 0.0
C747 C 0.53134 0.19115 1.01446 0.0
C748 C 0.49069 0.19076 1.02135 0.0
C749 C 0.48131 0.27173 1.01647 0.0
N750 N 0.51845 0.1924 1.01825 0.0
N751 N 0.49413 0.26983 1.02202 0.0
loop_
_geom_bond_atom_site_label_1
_geom_bond_atom_site_label_2
_geom_bond_distance
_geom_bond_site_symmetry_2
_ccdc_geom_bond_type
Eu0 C9 2.828 . S
Eu0 O11 2.392 . S
Eu0 O13 2.418 . S
Eu0 O18 2.373 . S
Eu0 O21 2.488 . S
Eu0 O22 2.471 . S
Eu0 O23 2.349 . S
Eu1 O10 2.373 . S
Eu1 O14 2.488 . S
Eu1 O15 2.471 . S
Eu1 O16 2.349 . S
Eu1 O19 2.392 . S
Eu1 O20 2.418 . S
Eu1 C30 2.828 . S
C2 O20 1.244 . S
C2 O23 1.265 . S
C3 C4 1.379 . S
C3 C7 1.373 . S
C3 C9 1.505 . S
C4 C3 1.379 . S
C4 C6 1.369 . S
C4 H32 0.930 . S
C5 C7 1.383 . S
C5 C8 1.382 . S
C5 H33 0.930 . S
C6 C4 1.369 . S
C6 C8 1.392 . S
C6 H34 0.930 . S
C7 C3 1.373 . S
C7 C5 1.383 . S
C7 H35 0.931 . S
C8 C5 1.382 . S
C8 C6 1.392 . S
C9 Eu0 2.828 . S
C9 C3 1.505 . S
C9 O21 1.249 . S
C9 O22 1.244 . S
O10 Eu1 2.373 . S
O10 C12 1.258 . S
O11 Eu0 2.392 . S
O11 C12 1.242 . S
C12 O10 1.258 . S
C12 O11 1.242 . S
O13 Eu0 2.418 . S
O13 C17 1.244 . S
O14 Eu1 2.488 . S
O14 C30 1.249 . S
O15 Eu1 2.471 . S
O15 C30 1.244 . S
O16 Eu1 2.349 . S
O16 C17 1.265 . S
C17 O13 1.244 . S
C17 O16 1.265 . S
O18 Eu0 2.373 . S
O18 C31 1.258 . S
O19 Eu1 2.392 . S
O19 C31 1.242 . S
O20 Eu1 2.418 . S
O20 C2 1.244 . S
O21 Eu0 2.488 . S
O21 C9 1.249 . S
O22 Eu0 2.471 . S
O22 C9 1.244 . S
O23 Eu0 2.349 . S
O23 C2 1.265 . S
C24 C25 1.379 . S
C24 C28 1.373 . S
C24 C30 1.505 . S
C25 C24 1.379 . S
C25 C27 1.369 . S
C25 H36 0.930 . S
C26 C28 1.383 . S
C26 C29 1.382 . S
C26 H37 0.930 . S
C27 C25 1.369 . S
C27 C29 1.392 . S
C27 H38 0.930 . S
C28 C24 1.373 . S
C28 C26 1.383 . S
C28 H39 0.931 . S
C29 C26 1.382 . S
C29 C27 1.392 . S
C30 Eu1 2.828 . S
C30 O14 1.249 . S
C30 O15 1.244 . S
C30 C24 1.505 . S
C31 O18 1.258 . S
C31 O19 1.242 . S
H32 C4 0.930 . S
H33 C5 0.930 . S
H34 C6 0.930 . S
H35 C7 0.931 . S
H36 C25 0.930 . S
H37 C26 0.930 . S
H38 C27 0.930 . S
H39 C28 0.931 . S
Eu40 C49 2.828 . S
Eu40 O51 2.392 . S
Eu40 O53 2.418 . S
Eu40 O58 2.373 . S
Eu40 O61 2.488 . S
Eu40 O62 2.471 . S
Eu40 O63 2.349 . S
Eu41 O50 2.373 . S
Eu41 O54 2.488 . S
Eu41 O55 2.471 . S
Eu41 O56 2.349 . S
Eu41 O59 2.392 . S
Eu41 O60 2.418 . S
Eu41 C70 2.828 . S
C42 O60 1.244 . S
C42 O63 1.265 . S
C43 C44 1.379 . S
C43 C47 1.373 . S
C43 C49 1.505 . S
C44 C43 1.379 . S
C44 C46 1.369 . S
C44 H72 0.930 . S
C45 C47 1.383 . S
C45 C48 1.382 . S
C45 H73 0.930 . S
C46 C44 1.369 . S
C46 C48 1.392 . S
C46 H74 0.930 . S
C47 C43 1.373 . S
C47 C45 1.383 . S
C47 H75 0.931 . S
C48 C45 1.382 . S
C48 C46 1.392 . S
C49 Eu40 2.828 . S
C49 C43 1.505 . S
C49 O61 1.249 . S
C49 O62 1.244 . S
O50 Eu41 2.373 . S
O50 C52 1.258 . S
O51 Eu40 2.392 . S
O51 C52 1.242 . S
C52 O50 1.258 . S
C52 O51 1.242 . S
O53 Eu40 2.418 . S
O53 C57 1.244 . S
O54 Eu41 2.488 . S
O54 C70 1.249 . S
O55 Eu41 2.471 . S
O55 C70 1.244 . S
O56 Eu41 2.349 . S
O56 C57 1.265 . S
C57 O53 1.244 . S
C57 O56 1.265 . S
O58 Eu40 2.373 . S
O58 C71 1.258 . S
O59 Eu41 2.392 . S
O59 C71 1.242 . S
O60 Eu41 2.418 . S
O60 C42 1.244 . S
O61 Eu40 2.488 . S
O61 C49 1.249 . S
O62 Eu40 2.471 . S
O62 C49 1.244 . S
O63 Eu40 2.349 . S
O63 C42 1.265 . S
C64 C65 1.379 . S
C64 C68 1.373 . S
C64 C70 1.505 . S
C65 C64 1.379 . S
C65 C67 1.369 . S
C65 H76 0.930 . S
C66 C68 1.383 . S
C66 C69 1.382 . S
C66 H77 0.930 . S
C67 C65 1.369 . S
C67 C69 1.392 . S
C67 H78 0.930 . S
C68 C64 1.373 . S
C68 C66 1.383 . S
C68 H79 0.931 . S
C69 C66 1.382 . S
C69 C67 1.392 . S
C70 Eu41 2.828 . S
C70 O54 1.249 . S
C70 O55 1.244 . S
C70 C64 1.505 . S
C71 O58 1.258 . S
C71 O59 1.242 . S
H72 C44 0.930 . S
H73 C45 0.930 . S
H74 C46 0.930 . S
H75 C47 0.931 . S
H76 C65 0.930 . S
H77 C66 0.930 . S
H78 C67 0.930 . S
H79 C68 0.931 . S
Eu80 C89 2.828 . S
Eu80 O91 2.392 . S
Eu80 O93 2.418 . S
Eu80 O98 2.373 . S
Eu80 O101 2.488 . S
Eu80 O102 2.471 . S
Eu80 O103 2.349 . S
Eu81 O90 2.373 . S
Eu81 O94 2.488 . S
Eu81 O95 2.471 . S
Eu81 O96 2.349 . S
Eu81 O99 2.392 . S
Eu81 O100 2.418 . S
Eu81 C110 2.828 . S
C82 O100 1.244 . S
C82 O103 1.265 . S
C83 C84 1.379 . S
C83 C87 1.373 . S
C83 C89 1.505 . S
C84 C83 1.379 . S
C84 C86 1.369 . S
C84 H112 0.930 . S
C85 C87 1.383 . S
C85 C88 1.382 . S
C85 H113 0.930 . S
C86 C84 1.369 . S
C86 C88 1.392 . S
C86 H114 0.930 . S
C87 C83 1.373 . S
C87 C85 1.383 . S
C87 H115 0.931 . S
C88 C85 1.382 . S
C88 C86 1.392 . S
C89 Eu80 2.828 . S
C89 C83 1.505 . S
C89 O101 1.249 . S
C89 O102 1.244 . S
O90 Eu81 2.373 . S
O90 C92 1.258 . S
O91 Eu80 2.392 . S
O91 C92 1.242 . S
C92 O90 1.258 . S
C92 O91 1.242 . S
O93 Eu80 2.418 . S
O93 C97 1.244 . S
O94 Eu81 2.488 . S
O94 C110 1.249 . S
O95 Eu81 2.471 . S
O95 C110 1.244 . S
O96 Eu81 2.349 . S
O96 C97 1.265 . S
C97 O93 1.244 . S
C97 O96 1.265 . S
O98 Eu80 2.373 . S
O98 C111 1.258 . S
O99 Eu81 2.392 . S
O99 C111 1.242 . S
O100 Eu81 2.418 . S
O100 C82 1.244 . S
O101 Eu80 2.488 . S
O101 C89 1.249 . S
O102 Eu80 2.471 . S
O102 C89 1.244 . S
O103 Eu80 2.349 . S
O103 C82 1.265 . S
C104 C105 1.379 . S
C104 C108 1.373 . S
C104 C110 1.505 . S
C105 C104 1.379 . S
C105 C107 1.369 . S
C105 H116 0.930 . S
C106 C108 1.383 . S
C106 C109 1.382 . S
C106 H117 0.930 . S
C107 C105 1.369 . S
C107 C109 1.392 . S
C107 H118 0.930 . S
C108 C104 1.373 . S
C108 C106 1.383 . S
C108 H119 0.931 . S
C109 C106 1.382 . S
C109 C107 1.392 . S
C110 Eu81 2.828 . S
C110 O94 1.249 . S
C110 O95 1.244 . S
C110 C104 1.505 . S
C111 O98 1.258 . S
C111 O99 1.242 . S
H112 C84 0.930 . S
H113 C85 0.930 . S
H114 C86 0.930 . S
H115 C87 0.931 . S
H116 C105 0.930 . S
H117 C106 0.930 . S
H118 C107 0.930 . S
H119 C108 0.931 . S
Eu120 C129 2.828 . S
Eu120 O131 2.392 . S
Eu120 O133 2.418 . S
Eu120 O138 2.373 . S
Eu120 O141 2.488 . S
Eu120 O142 2.471 . S
Eu120 O143 2.349 . S
Eu121 O130 2.373 . S
Eu121 O134 2.488 . S
Eu121 O135 2.471 . S
Eu121 O136 2.349 . S
Eu121 O139 2.392 . S
Eu121 O140 2.418 . S
Eu121 C150 2.828 . S
C122 O140 1.244 . S
C122 O143 1.265 . S
C123 C124 1.379 . S
C123 C127 1.373 . S
C123 C129 1.505 . S
C124 C123 1.379 . S
C124 C126 1.369 . S
C124 H152 0.930 . S
C125 C127 1.383 . S
C125 C128 1.382 . S
C125 H153 0.930 . S
C126 C124 1.369 . S
C126 C128 1.392 . S
C126 H154 0.930 . S
C127 C123 1.373 . S
C127 C125 1.383 . S
C127 H155 0.931 . S
C128 C125 1.382 . S
C128 C126 1.392 . S
C129 Eu120 2.828 . S
C129 C123 1.505 . S
C129 O141 1.249 . S
C129 O142 1.244 . S
O130 Eu121 2.373 . S
O130 C132 1.258 . S
O131 Eu120 2.392 . S
O131 C132 1.242 . S
C132 O130 1.258 . S
C132 O131 1.242 . S
O133 Eu120 2.418 . S
O133 C137 1.244 . S
O134 Eu121 2.488 . S
O134 C150 1.249 . S
O135 Eu121 2.471 . S
O135 C150 1.244 . S
O136 Eu121 2.349 . S
O136 C137 1.265 . S
C137 O133 1.244 . S
C137 O136 1.265 . S
O138 Eu120 2.373 . S
O138 C151 1.258 . S
O139 Eu121 2.392 . S
O139 C151 1.242 . S
O140 Eu121 2.418 . S
O140 C122 1.244 . S
O141 Eu120 2.488 . S
O141 C129 1.249 . S
O142 Eu120 2.471 . S
O142 C129 1.244 . S
O143 Eu120 2.349 . S
O143 C122 1.265 . S
C144 C145 1.379 . S
C144 C148 1.373 . S
C144 C150 1.505 . S
C145 C144 1.379 . S
C145 C147 1.369 . S
C145 H156 0.930 . S
C146 C148 1.383 . S
C146 C149 1.382 . S
C146 H157 0.930 . S
C147 C145 1.369 . S
C147 C149 1.392 . S
C147 H158 0.930 . S
C148 C144 1.373 . S
C148 C146 1.383 . S
C148 H159 0.931 . S
C149 C146 1.382 . S
C149 C147 1.392 . S
C150 Eu121 2.828 . S
C150 O134 1.249 . S
C150 O135 1.244 . S
C150 C144 1.505 . S
C151 O138 1.258 . S
C151 O139 1.242 . S
H152 C124 0.930 . S
H153 C125 0.930 . S
H154 C126 0.930 . S
H155 C127 0.931 . S
H156 C145 0.930 . S
H157 C146 0.930 . S
H158 C147 0.930 . S
H159 C148 0.931 . S
Eu160 C169 2.828 1_554 S
Eu160 O171 2.392 . S
Eu160 O173 2.418 . S
Eu160 O178 2.373 1_554 S
Eu160 O181 2.488 1_554 S
Eu160 O182 2.471 1_554 S
Eu160 O183 2.349 . S
Eu161 O170 2.373 1_556 S
Eu161 O174 2.488 1_556 S
Eu161 O175 2.471 1_556 S
Eu161 O176 2.349 . S
Eu161 O179 2.392 . S
Eu161 O180 2.418 . S
Eu161 C190 2.828 1_556 S
C162 O180 1.244 1_554 S
C162 O183 1.265 . S
C163 C164 1.379 . S
C163 C167 1.373 . S
C163 C169 1.505 . S
C164 C163 1.379 . S
C164 C166 1.369 . S
C164 H192 0.930 . S
C165 C167 1.383 . S
C165 C168 1.382 . S
C165 H193 0.930 . S
C166 C164 1.369 . S
C166 C168 1.392 . S
C166 H194 0.930 . S
C167 C163 1.373 . S
C167 C165 1.383 . S
C167 H195 0.931 . S
C168 C165 1.382 . S
C168 C166 1.392 . S
C169 Eu160 2.828 1_556 S
C169 C163 1.505 . S
C169 O181 1.249 . S
C169 O182 1.244 . S
O170 Eu161 2.373 1_554 S
O170 C172 1.258 . S
O171 Eu160 2.392 . S
O171 C172 1.242 . S
C172 O170 1.258 . S
C172 O171 1.242 . S
O173 Eu160 2.418 . S
O173 C177 1.244 1_554 S
O174 Eu161 2.488 1_554 S
O174 C190 1.249 . S
O175 Eu161 2.471 1_554 S
O175 C190 1.244 . S
O176 Eu161 2.349 . S
O176 C177 1.265 . S
C177 O173 1.244 1_556 S
C177 O176 1.265 . S
O178 Eu160 2.373 1_556 S
O178 C191 1.258 . S
O179 Eu161 2.392 . S
O179 C191 1.242 . S
O180 Eu161 2.418 . S
O180 C162 1.244 1_556 S
O181 Eu160 2.488 1_556 S
O181 C169 1.249 . S
O182 Eu160 2.471 1_556 S
O182 C169 1.244 . S
O183 Eu160 2.349 . S
O183 C162 1.265 . S
C184 C185 1.379 . S
C184 C188 1.373 . S
C184 C190 1.505 . S
C185 C184 1.379 . S
C185 C187 1.369 . S
C185 H196 0.930 . S
C186 C188 1.383 . S
C186 C189 1.382 . S
C186 H197 0.930 . S
C187 C185 1.369 . S
C187 C189 1.392 . S
C187 H198 0.930 . S
C188 C184 1.373 . S
C188 C186 1.383 . S
C188 H199 0.931 . S
C189 C186 1.382 . S
C189 C187 1.392 . S
C190 Eu161 2.828 1_554 S
C190 O174 1.249 . S
C190 O175 1.244 . S
C190 C184 1.505 . S
C191 O178 1.258 . S
C191 O179 1.242 . S
H192 C164 0.930 . S
H193 C165 0.930 . S
H194 C166 0.930 . S
H195 C167 0.931 . S
H196 C185 0.930 . S
H197 C186 0.930 . S
H198 C187 0.930 . S
H199 C188 0.931 . S
Eu200 C209 2.828 1_554 S
Eu200 O211 2.392 . S
Eu200 O213 2.418 . S
Eu200 O218 2.373 1_554 S
Eu200 O221 2.488 1_554 S
Eu200 O222 2.471 1_554 S
Eu200 O223 2.349 . S
Eu201 O210 2.373 1_556 S
Eu201 O214 2.488 1_556 S
Eu201 O215 2.471 1_556 S
Eu201 O216 2.349 . S
Eu201 O219 2.392 . S
Eu201 O220 2.418 . S
Eu201 C230 2.828 1_556 S
C202 O220 1.244 1_554 S
C202 O223 1.265 . S
C203 C204 1.379 . S
C203 C207 1.373 . S
C203 C209 1.505 . S
C204 C203 1.379 . S
C204 C206 1.369 . S
C204 H232 0.930 . S
C205 C207 1.383 . S
C205 C208 1.382 . S
C205 H233 0.930 . S
C206 C204 1.369 . S
C206 C208 1.392 . S
C206 H234 0.930 . S
C207 C203 1.373 . S
C207 C205 1.383 . S
C207 H235 0.931 . S
C208 C205 1.382 . S
C208 C206 1.392 . S
C209 Eu200 2.828 1_556 S
C209 C203 1.505 . S
C209 O221 1.249 . S
C209 O222 1.244 . S
O210 Eu201 2.373 1_554 S
O210 C212 1.258 . S
O211 Eu200 2.392 . S
O211 C212 1.242 . S
C212 O210 1.258 . S
C212 O211 1.242 . S
O213 Eu200 2.418 . S
O213 C217 1.244 1_554 S
O214 Eu201 2.488 1_554 S
O214 C230 1.249 . S
O215 Eu201 2.471 1_554 S
O215 C230 1.244 . S
O216 Eu201 2.349 . S
O216 C217 1.265 . S
C217 O213 1.244 1_556 S
C217 O216 1.265 . S
O218 Eu200 2.373 1_556 S
O218 C231 1.258 . S
O219 Eu201 2.392 . S
O219 C231 1.242 . S
O220 Eu201 2.418 . S
O220 C202 1.244 1_556 S
O221 Eu200 2.488 1_556 S
O221 C209 1.249 . S
O222 Eu200 2.471 1_556 S
O222 C209 1.244 . S
O223 Eu200 2.349 . S
O223 C202 1.265 . S
C224 C225 1.379 . S
C224 C228 1.373 . S
C224 C230 1.505 . S
C225 C224 1.379 . S
C225 C227 1.369 . S
C225 H236 0.930 . S
C226 C228 1.383 . S
C226 C229 1.382 . S
C226 H237 0.930 . S
C227 C225 1.369 . S
C227 C229 1.392 . S
C227 H238 0.930 . S
C228 C224 1.373 . S
C228 C226 1.383 . S
C228 H239 0.931 . S
C229 C226 1.382 . S
C229 C227 1.392 . S
C230 Eu201 2.828 1_554 S
C230 O214 1.249 . S
C230 O215 1.244 . S
C230 C224 1.505 . S
C231 O218 1.258 . S
C231 O219 1.242 . S
H232 C204 0.930 . S
H233 C205 0.930 . S
H234 C206 0.930 . S
H235 C207 0.931 . S
H236 C225 0.930 . S
H237 C226 0.930 . S
H238 C227 0.930 . S
H239 C228 0.931 . S
Eu240 C249 2.828 1_554 S
Eu240 O251 2.392 . S
Eu240 O253 2.418 . S
Eu240 O258 2.373 1_554 S
Eu240 O261 2.488 1_554 S
Eu240 O262 2.471 1_554 S
Eu240 O263 2.349 . S
Eu241 O250 2.373 1_556 S
Eu241 O254 2.488 1_556 S
Eu241 O255 2.471 1_556 S
Eu241 O256 2.349 . S
Eu241 O259 2.392 . S
Eu241 O260 2.418 . S
Eu241 C270 2.828 1_556 S
C242 O260 1.244 1_554 S
C242 O263 1.265 . S
C243 C244 1.379 . S
C243 C247 1.373 . S
C243 C249 1.505 . S
C244 C243 1.379 . S
C244 C246 1.369 . S
C244 H272 0.930 . S
C245 C247 1.383 . S
C245 C248 1.382 . S
C245 H273 0.930 . S
C246 C244 1.369 . S
C246 C248 1.392 . S
C246 H274 0.930 . S
C247 C243 1.373 . S
C247 C245 1.383 . S
C247 H275 0.931 . S
C248 C245 1.382 . S
C248 C246 1.392 . S
C249 Eu240 2.828 1_556 S
C249 C243 1.505 . S
C249 O261 1.249 . S
C249 O262 1.244 . S
O250 Eu241 2.373 1_554 S
O250 C252 1.258 . S
O251 Eu240 2.392 . S
O251 C252 1.242 . S
C252 O250 1.258 . S
C252 O251 1.242 . S
O253 Eu240 2.418 . S
O253 C257 1.244 1_554 S
O254 Eu241 2.488 1_554 S
O254 C270 1.249 . S
O255 Eu241 2.471 1_554 S
O255 C270 1.244 . S
O256 Eu241 2.349 . S
O256 C257 1.265 . S
C257 O253 1.244 1_556 S
C257 O256 1.265 . S
O258 Eu240 2.373 1_556 S
O258 C271 1.258 . S
O259 Eu241 2.392 . S
O259 C271 1.242 . S
O260 Eu241 2.418 . S
O260 C242 1.244 1_556 S
O261 Eu240 2.488 1_556 S
O261 C249 1.249 . S
O262 Eu240 2.471 1_556 S
O262 C249 1.244 . S
O263 Eu240 2.349 . S
O263 C242 1.265 . S
C264 C265 1.379 . S
C264 C268 1.373 . S
C264 C270 1.505 . S
C265 C264 1.379 . S
C265 C267 1.369 . S
C265 H276 0.930 . S
C266 C268 1.383 . S
C266 C269 1.382 . S
C266 H277 0.930 . S
C267 C265 1.369 . S
C267 C269 1.392 . S
C267 H278 0.930 . S
C268 C264 1.373 . S
C268 C266 1.383 . S
C268 H279 0.931 . S
C269 C266 1.382 . S
C269 C267 1.392 . S
C270 Eu241 2.828 1_554 S
C270 O254 1.249 . S
C270 O255 1.244 . S
C270 C264 1.505 . S
C271 O258 1.258 . S
C271 O259 1.242 . S
H272 C244 0.930 . S
H273 C245 0.930 . S
H274 C246 0.930 . S
H275 C247 0.931 . S
H276 C265 0.930 . S
H277 C266 0.930 . S
H278 C267 0.930 . S
H279 C268 0.931 . S
Eu280 C289 2.828 1_554 S
Eu280 O291 2.392 . S
Eu280 O293 2.418 . S
Eu280 O298 2.373 1_554 S
Eu280 O301 2.488 1_554 S
Eu280 O302 2.471 1_554 S
Eu280 O303 2.349 . S
Eu281 O290 2.373 1_556 S
Eu281 O294 2.488 1_556 S
Eu281 O295 2.471 1_556 S
Eu281 O296 2.349 . S
Eu281 O299 2.392 . S
Eu281 O300 2.418 . S
Eu281 C310 2.828 1_556 S
C282 O300 1.244 1_554 S
C282 O303 1.265 . S
C283 C284 1.379 . S
C283 C287 1.373 . S
C283 C289 1.505 . S
C284 C283 1.379 . S
C284 C286 1.369 . S
C284 H312 0.930 . S
C285 C287 1.383 . S
C285 C288 1.382 . S
C285 H313 0.930 . S
C286 C284 1.369 . S
C286 C288 1.392 . S
C286 H314 0.930 . S
C287 C283 1.373 . S
C287 C285 1.383 . S
C287 H315 0.931 . S
C288 C285 1.382 . S
C288 C286 1.392 . S
C289 Eu280 2.828 1_556 S
C289 C283 1.505 . S
C289 O301 1.249 . S
C289 O302 1.244 . S
O290 Eu281 2.373 1_554 S
O290 C292 1.258 . S
O291 Eu280 2.392 . S
O291 C292 1.242 . S
C292 O290 1.258 . S
C292 O291 1.242 . S
O293 Eu280 2.418 . S
O293 C297 1.244 1_554 S
O294 Eu281 2.488 1_554 S
O294 C310 1.249 . S
O295 Eu281 2.471 1_554 S
O295 C310 1.244 . S
O296 Eu281 2.349 . S
O296 C297 1.265 . S
C297 O293 1.244 1_556 S
C297 O296 1.265 . S
O298 Eu280 2.373 1_556 S
O298 C311 1.258 . S
O299 Eu281 2.392 . S
O299 C311 1.242 . S
O300 Eu281 2.418 . S
O300 C282 1.244 1_556 S
O301 Eu280 2.488 1_556 S
O301 C289 1.249 . S
O302 Eu280 2.471 1_556 S
O302 C289 1.244 . S
O303 Eu280 2.349 . S
O303 C282 1.265 . S
C304 C305 1.379 . S
C304 C308 1.373 . S
C304 C310 1.505 . S
C305 C304 1.379 . S
C305 C307 1.369 . S
C305 H316 0.930 . S
C306 C308 1.383 . S
C306 C309 1.382 . S
C306 H317 0.930 . S
C307 C305 1.369 . S
C307 C309 1.392 . S
C307 H318 0.930 . S
C308 C304 1.373 . S
C308 C306 1.383 . S
C308 H319 0.931 . S
C309 C306 1.382 . S
C309 C307 1.392 . S
C310 Eu281 2.828 1_554 S
C310 O294 1.249 . S
C310 O295 1.244 . S
C310 C304 1.505 . S
C311 O298 1.258 . S
C311 O299 1.242 . S
H312 C284 0.930 . S
H313 C285 0.930 . S
H314 C286 0.930 . S
H315 C287 0.931 . S
H316 C305 0.930 . S
H317 C306 0.930 . S
H318 C307 0.930 . S
H319 C308 0.931 . S
H320 C326 0.930 . S
H321 C330 0.930 . S
H322 C335 0.929 . S
H323 C333 0.929 . S
H324 C328 0.929 . S
H325 C334 0.929 . S
C326 H320 0.930 . S
C326 C327 1.367 . S
C326 C334 1.378 . S
C327 C326 1.367 . S
C327 C335 1.433 . S
C328 H324 0.929 . S
C328 C330 1.378 . S
C328 C332 1.350 . S
C329 C332 1.463 . S
C329 C334 1.350 . S
C329 N337 1.427 . S
C330 H321 0.930 . S
C330 C328 1.378 . S
C330 C331 1.367 . S
C331 C330 1.367 . S
C331 C333 1.433 . S
C332 C328 1.350 . S
C332 C329 1.463 . S
C332 N336 1.427 . S
C333 H323 0.929 . S
C333 C331 1.433 . S
C333 N336 1.384 . S
C334 H325 0.929 . S
C334 C326 1.378 . S
C334 C329 1.350 . S
C335 H322 0.929 . S
C335 C327 1.433 . S
C335 N337 1.384 . S
N336 C332 1.427 . S
N336 C333 1.384 . S
N337 C329 1.427 . S
N337 C335 1.384 . S
H338 C344 0.930 . S
H339 C348 0.930 . S
H340 C353 0.929 . S
H341 C351 0.929 . S
H342 C346 0.929 . S
H343 C352 0.929 . S
C344 H338 0.930 . S
C344 C345 1.367 . S
C344 C352 1.378 . S
C345 C344 1.367 . S
C345 C353 1.433 . S
C346 H342 0.929 . S
C346 C348 1.378 . S
C346 C350 1.350 . S
C347 C350 1.463 . S
C347 C352 1.350 . S
C347 N355 1.427 . S
C348 H339 0.930 . S
C348 C346 1.378 . S
C348 C349 1.367 . S
C349 C348 1.367 . S
C349 C351 1.433 . S
C350 C346 1.350 . S
C350 C347 1.463 . S
C350 N354 1.427 . S
C351 H341 0.929 . S
C351 C349 1.433 . S
C351 N354 1.384 . S
C352 H343 0.929 . S
C352 C344 1.378 . S
C352 C347 1.350 . S
C353 H340 0.929 . S
C353 C345 1.433 . S
C353 N355 1.384 . S
N354 C350 1.427 . S
N354 C351 1.384 . S
N355 C347 1.427 . S
N355 C353 1.384 . S
H356 C362 0.930 . S
H357 C366 0.930 . S
H358 C371 0.929 . S
H359 C369 0.929 . S
H360 C364 0.929 . S
H361 C370 0.929 . S
C362 H356 0.930 . S
C362 C363 1.367 . S
C362 C370 1.378 . S
C363 C362 1.367 . S
C363 C371 1.433 . S
C364 H360 0.929 . S
C364 C366 1.378 . S
C364 C368 1.350 . S
C365 C368 1.463 . S
C365 C370 1.350 . S
C365 N373 1.427 . S
C366 H357 0.930 . S
C366 C364 1.378 . S
C366 C367 1.367 . S
C367 C366 1.367 . S
C367 C369 1.433 . S
C368 C364 1.350 . S
C368 C365 1.463 . S
C368 N372 1.427 . S
C369 H359 0.929 . S
C369 C367 1.433 . S
C369 N372 1.384 . S
C370 H361 0.929 . S
C370 C362 1.378 . S
C370 C365 1.350 . S
C371 H358 0.929 . S
C371 C363 1.433 . S
C371 N373 1.384 . S
N372 C368 1.427 . S
N372 C369 1.384 . S
N373 C365 1.427 . S
N373 C371 1.384 . S
H374 C380 0.930 . S
H375 C384 0.930 . S
H376 C389 0.929 . S
H377 C387 0.929 . S
H378 C382 0.929 . S
H379 C388 0.929 . S
C380 H374 0.930 . S
C380 C381 1.367 . S
C380 C388 1.378 . S
C381 C380 1.367 . S
C381 C389 1.433 . S
C382 H378 0.929 . S
C382 C384 1.378 . S
C382 C386 1.350 . S
C383 C386 1.463 . S
C383 C388 1.350 . S
C383 N391 1.427 . S
C384 H375 0.930 . S
C384 C382 1.378 . S
C384 C385 1.367 . S
C385 C384 1.367 . S
C385 C387 1.433 . S
C386 C382 1.350 . S
C386 C383 1.463 . S
C386 N390 1.427 . S
C387 H377 0.929 . S
C387 C385 1.433 . S
C387 N390 1.384 . S
C388 H379 0.929 . S
C388 C380 1.378 . S
C388 C383 1.350 . S
C389 H376 0.929 . S
C389 C381 1.433 . S
C389 N391 1.384 . S
N390 C386 1.427 . S
N390 C387 1.384 . S
N391 C383 1.427 . S
N391 C389 1.384 . S
H392 C398 0.930 . S
H393 C402 0.930 . S
H394 C407 0.929 . S
H395 C405 0.929 . S
H396 C400 0.929 . S
H397 C406 0.929 . S
C398 H392 0.930 . S
C398 C399 1.367 . S
C398 C406 1.378 . S
C399 C398 1.367 . S
C399 C407 1.433 . S
C400 H396 0.929 . S
C400 C402 1.378 . S
C400 C404 1.350 . S
C401 C404 1.463 1_565 S
C401 C406 1.350 . S
C401 N409 1.427 . S
C402 H393 0.930 . S
C402 C400 1.378 . S
C402 C403 1.367 . S
C403 C402 1.367 . S
C403 C405 1.433 . S
C404 C400 1.350 . S
C404 C401 1.463 1_545 S
C404 N408 1.427 . S
C405 H395 0.929 . S
C405 C403 1.433 . S
C405 N408 1.384 . S
C406 H397 0.929 . S
C406 C398 1.378 . S
C406 C401 1.350 . S
C407 H394 0.929 . S
C407 C399 1.433 . S
C407 N409 1.384 . S
N408 C404 1.427 . S
N408 C405 1.384 . S
N409 C401 1.427 . S
N409 C407 1.384 . S
H410 C416 0.930 . S
H411 C420 0.930 . S
H412 C425 0.929 . S
H413 C423 0.929 . S
H414 C418 0.929 . S
H415 C424 0.929 . S
C416 H410 0.930 . S
C416 C417 1.367 . S
C416 C424 1.378 . S
C417 C416 1.367 . S
C417 C425 1.433 . S
C418 H414 0.929 . S
C418 C420 1.378 . S
C418 C422 1.350 . S
C419 C422 1.463 . S
C419 C424 1.350 . S
C419 N427 1.427 . S
C420 H411 0.930 . S
C420 C418 1.378 . S
C420 C421 1.367 . S
C421 C420 1.367 . S
C421 C423 1.433 . S
C422 C418 1.350 . S
C422 C419 1.463 . S
C422 N426 1.427 . S
C423 H413 0.929 . S
C423 C421 1.433 . S
C423 N426 1.384 . S
C424 H415 0.929 . S
C424 C416 1.378 . S
C424 C419 1.350 . S
C425 H412 0.929 . S
C425 C417 1.433 . S
C425 N427 1.384 . S
N426 C422 1.427 . S
N426 C423 1.384 . S
N427 C419 1.427 . S
N427 C425 1.384 . S
H428 C434 0.930 . S
H429 C438 0.930 . S
H430 C443 0.929 . S
H431 C441 0.929 . S
H432 C436 0.929 . S
H433 C442 0.929 . S
C434 H428 0.930 . S
C434 C435 1.367 . S
C434 C442 1.378 . S
C435 C434 1.367 . S
C435 C443 1.433 . S
C436 H432 0.929 . S
C436 C438 1.378 . S
C436 C440 1.350 . S
C437 C440 1.463 1_565 S
C437 C442 1.350 . S
C437 N445 1.427 . S
C438 H429 0.930 . S
C438 C436 1.378 . S
C438 C439 1.367 . S
C439 C438 1.367 . S
C439 C441 1.433 . S
C440 C436 1.350 . S
C440 C437 1.463 1_545 S
C440 N444 1.427 . S
C441 H431 0.929 . S
C441 C439 1.433 . S
C441 N444 1.384 . S
C442 H433 0.929 . S
C442 C434 1.378 . S
C442 C437 1.350 . S
C443 H430 0.929 . S
C443 C435 1.433 . S
C443 N445 1.384 . S
N444 C440 1.427 . S
N444 C441 1.384 . S
N445 C437 1.427 . S
N445 C443 1.384 . S
H446 C452 0.930 . S
H447 C456 0.930 . S
H448 C461 0.929 . S
H449 C459 0.929 . S
H450 C454 0.929 . S
H451 C460 0.929 . S
C452 H446 0.930 . S
C452 C453 1.367 . S
C452 C460 1.378 . S
C453 C452 1.367 . S
C453 C461 1.433 . S
C454 H450 0.929 . S
C454 C456 1.378 . S
C454 C458 1.350 . S
C455 C458 1.463 . S
C455 C460 1.350 . S
C455 N463 1.427 . S
C456 H447 0.930 . S
C456 C454 1.378 . S
C456 C457 1.367 . S
C457 C456 1.367 . S
C457 C459 1.433 . S
C458 C454 1.350 . S
C458 C455 1.463 . S
C458 N462 1.427 . S
C459 H449 0.929 . S
C459 C457 1.433 . S
C459 N462 1.384 . S
C460 H451 0.929 . S
C460 C452 1.378 . S
C460 C455 1.350 . S
C461 H448 0.929 . S
C461 C453 1.433 . S
C461 N463 1.384 . S
N462 C458 1.427 . S
N462 C459 1.384 . S
N463 C455 1.427 . S
N463 C461 1.384 . S
H464 C470 0.930 . S
H465 C474 0.930 . S
H466 C479 0.929 . S
H467 C477 0.929 . S
H468 C472 0.929 . S
H469 C478 0.929 . S
C470 H464 0.930 . S
C470 C471 1.367 . S
C470 C478 1.378 . S
C471 C470 1.367 . S
C471 C479 1.433 1_556 S
C472 H468 0.929 . S
C472 C474 1.378 . S
C472 C476 1.350 1_554 S
C473 C476 1.463 . S
C473 C478 1.350 . S
C473 N481 1.427 1_556 S
C474 H465 0.930 . S
C474 C472 1.378 . S
C474 C475 1.367 1_554 S
C475 C474 1.367 1_556 S
C475 C477 1.433 . S
C476 C472 1.350 1_556 S
C476 C473 1.463 . S
C476 N480 1.427 . S
C477 H467 0.929 . S
C477 C475 1.433 . S
C477 N480 1.384 . S
C478 H469 0.929 . S
C478 C470 1.378 . S
C478 C473 1.350 . S
C479 H466 0.929 . S
C479 C471 1.433 1_554 S
C479 N481 1.384 . S
N480 C476 1.427 . S
N480 C477 1.384 . S
N481 C473 1.427 1_554 S
N481 C479 1.384 . S
H482 C488 0.930 . S
H483 C492 0.930 . S
H484 C497 0.929 . S
H485 C495 0.929 . S
H486 C490 0.929 . S
H487 C496 0.929 . S
C488 H482 0.930 . S
C488 C489 1.367 1_554 S
C488 C496 1.378 . S
C489 C488 1.367 1_556 S
C489 C497 1.433 . S
C490 H486 0.929 . S
C490 C492 1.378 . S
C490 C494 1.350 . S
C491 C494 1.463 1_565 S
C491 C496 1.350 1_556 S
C491 N499 1.427 . S
C492 H483 0.930 . S
C492 C490 1.378 . S
C492 C493 1.367 . S
C493 C492 1.367 . S
C493 C495 1.433 1_556 S
C494 C490 1.350 . S
C494 C491 1.463 1_545 S
C494 N498 1.427 1_556 S
C495 H485 0.929 . S
C495 C493 1.433 1_554 S
C495 N498 1.384 . S
C496 H487 0.929 . S
C496 C488 1.378 . S
C496 C491 1.350 1_554 S
C497 H484 0.929 . S
C497 C489 1.433 . S
C497 N499 1.384 . S
N498 C494 1.427 1_554 S
N498 C495 1.384 . S
N499 C491 1.427 . S
N499 C497 1.384 . S
H500 C506 0.930 . S
H501 C510 0.930 . S
H502 C515 0.929 . S
H503 C513 0.929 . S
H504 C508 0.929 . S
H505 C514 0.929 . S
C506 H500 0.930 . S
C506 C507 1.367 . S
C506 C514 1.378 . S
C507 C506 1.367 . S
C507 C515 1.433 1_554 S
C508 H504 0.929 . S
C508 C510 1.378 . S
C508 C512 1.350 1_556 S
C509 C512 1.463 . S
C509 C514 1.350 . S
C509 N517 1.427 1_554 S
C510 H501 0.930 . S
C510 C508 1.378 . S
C510 C511 1.367 1_556 S
C511 C510 1.367 1_554 S
C511 C513 1.433 . S
C512 C508 1.350 1_554 S
C512 C509 1.463 . S
C512 N516 1.427 . S
C513 H503 0.929 . S
C513 C511 1.433 . S
C513 N516 1.384 . S
C514 H505 0.929 . S
C514 C506 1.378 . S
C514 C509 1.350 . S
C515 H502 0.929 . S
C515 C507 1.433 1_556 S
C515 N517 1.384 . S
N516 C512 1.427 . S
N516 C513 1.384 . S
N517 C509 1.427 1_556 S
N517 C515 1.384 . S
H518 C524 0.930 . S
H519 C528 0.930 . S
H520 C533 0.929 . S
H521 C531 0.929 . S
H522 C526 0.929 . S
H523 C532 0.929 . S
C524 H518 0.930 . S
C524 C525 1.367 . S
C524 C532 1.378 . S
C525 C524 1.367 . S
C525 C533 1.433 1_554 S
C526 H522 0.929 . S
C526 C528 1.378 . S
C526 C530 1.350 1_556 S
C527 C530 1.463 1_545 S
C527 C532 1.350 . S
C527 N535 1.427 1_554 S
C528 H519 0.930 . S
C528 C526 1.378 . S
C528 C529 1.367 1_556 S
C529 C528 1.367 1_554 S
C529 C531 1.433 . S
C530 C526 1.350 1_554 S
C530 C527 1.463 1_565 S
C530 N534 1.427 . S
C531 H521 0.929 . S
C531 C529 1.433 . S
C531 N534 1.384 . S
C532 H523 0.929 . S
C532 C524 1.378 . S
C532 C527 1.350 . S
C533 H520 0.929 . S
C533 C525 1.433 1_556 S
C533 N535 1.384 . S
N534 C530 1.427 . S
N534 C531 1.384 . S
N535 C527 1.427 1_556 S
N535 C533 1.384 . S
H536 C542 0.930 . S
H537 C546 0.930 . S
H538 C551 0.929 . S
H539 C549 0.929 . S
H540 C544 0.929 . S
H541 C550 0.929 . S
C542 H536 0.930 . S
C542 C543 1.367 . S
C542 C550 1.378 . S
C543 C542 1.367 . S
C543 C551 1.433 . S
C544 H540 0.929 . S
C544 C546 1.378 . S
C544 C548 1.350 . S
C545 C548 1.463 . S
C545 C550 1.350 1_556 S
C545 N553 1.427 1_556 S
C546 H537 0.930 . S
C546 C544 1.378 . S
C546 C547 1.367 . S
C547 C546 1.367 . S
C547 C549 1.433 . S
C548 C544 1.350 . S
C548 C545 1.463 . S
C548 N552 1.427 . S
C549 H539 0.929 . S
C549 C547 1.433 . S
C549 N552 1.384 . S
C550 H541 0.929 . S
C550 C542 1.378 . S
C550 C545 1.350 1_554 S
C551 H538 0.929 . S
C551 C543 1.433 . S
C551 N553 1.384 . S
N552 C548 1.427 . S
N552 C549 1.384 . S
N553 C545 1.427 1_554 S
N553 C551 1.384 . S
H554 C560 0.930 . S
H555 C564 0.930 . S
H556 C569 0.929 . S
H557 C567 0.929 . S
H558 C562 0.929 . S
H559 C568 0.929 1_556 S
C560 H554 0.930 . S
C560 C561 1.367 . S
C560 C568 1.378 . S
C561 C560 1.367 . S
C561 C569 1.433 . S
C562 H558 0.929 . S
C562 C564 1.378 . S
C562 C566 1.350 . S
C563 C566 1.463 . S
C563 C568 1.350 1_556 S
C563 N571 1.427 1_556 S
C564 H555 0.930 . S
C564 C562 1.378 . S
C564 C565 1.367 . S
C565 C564 1.367 . S
C565 C567 1.433 . S
C566 C562 1.350 . S
C566 C563 1.463 . S
C566 N570 1.427 . S
C567 H557 0.929 . S
C567 C565 1.433 . S
C567 N570 1.384 . S
C568 H559 0.929 1_554 S
C568 C560 1.378 . S
C568 C563 1.350 1_554 S
C569 H556 0.929 . S
C569 C561 1.433 . S
C569 N571 1.384 . S
N570 C566 1.427 . S
N570 C567 1.384 . S
N571 C563 1.427 1_554 S
N571 C569 1.384 . S
H572 C578 0.930 . S
H573 C582 0.930 . S
H574 C587 0.929 . S
H575 C585 0.929 . S
H576 C580 0.929 1_554 S
H577 C586 0.929 . S
C578 H572 0.930 . S
C578 C579 1.367 . S
C578 C586 1.378 . S
C579 C578 1.367 . S
C579 C587 1.433 . S
C580 H576 0.929 1_556 S
C580 C582 1.378 . S
C580 C584 1.350 1_556 S
C581 C584 1.463 . S
C581 C586 1.350 . S
C581 N589 1.427 . S
C582 H573 0.930 . S
C582 C580 1.378 . S
C582 C583 1.367 . S
C583 C582 1.367 . S
C583 C585 1.433 . S
C584 C580 1.350 1_554 S
C584 C581 1.463 . S
C584 N588 1.427 1_554 S
C585 H575 0.929 . S
C585 C583 1.433 . S
C585 N588 1.384 . S
C586 H577 0.929 . S
C586 C578 1.378 . S
C586 C581 1.350 . S
C587 H574 0.929 . S
C587 C579 1.433 . S
C587 N589 1.384 . S
N588 C584 1.427 1_556 S
N588 C585 1.384 . S
N589 C581 1.427 . S
N589 C587 1.384 . S
H590 C596 0.930 . S
H591 C600 0.930 . S
H592 C605 0.929 . S
H593 C603 0.929 . S
H594 C598 0.929 . S
H595 C604 0.929 . S
C596 H590 0.930 . S
C596 C597 1.367 . S
C596 C604 1.378 . S
C597 C596 1.367 . S
C597 C605 1.433 . S
C598 H594 0.929 . S
C598 C600 1.378 . S
C598 C602 1.350 . S
C599 C602 1.463 . S
C599 C604 1.350 1_554 S
C599 N607 1.427 1_554 S
C600 H591 0.930 . S
C600 C598 1.378 . S
C600 C601 1.367 . S
C601 C600 1.367 . S
C601 C603 1.433 . S
C602 C598 1.350 . S
C602 C599 1.463 . S
C602 N606 1.427 . S
C603 H593 0.929 . S
C603 C601 1.433 . S
C603 N606 1.384 . S
C604 H595 0.929 . S
C604 C596 1.378 . S
C604 C599 1.350 1_556 S
C605 H592 0.929 . S
C605 C597 1.433 . S
C605 N607 1.384 . S
N606 C602 1.427 . S
N606 C603 1.384 . S
N607 C599 1.427 1_556 S
N607 C605 1.384 . S
H608 C614 0.930 . S
H609 C618 0.930 . S
H610 C623 0.929 . S
H611 C621 0.929 . S
H612 C616 0.929 . S
H613 C622 0.929 . S
C614 H608 0.930 . S
C614 C615 1.367 . S
C614 C622 1.378 . S
C615 C614 1.367 . S
C615 C623 1.433 . S
C616 H612 0.929 . S
C616 C618 1.378 . S
C616 C620 1.350 . S
C617 C620 1.463 . S
C617 C622 1.350 . S
C617 N625 1.427 . S
C618 H609 0.930 . S
C618 C616 1.378 . S
C618 C619 1.367 . S
C619 C618 1.367 . S
C619 C621 1.433 . S
C620 C616 1.350 . S
C620 C617 1.463 . S
C620 N624 1.427 . S
C621 H611 0.929 . S
C621 C619 1.433 . S
C621 N624 1.384 . S
C622 H613 0.929 . S
C622 C614 1.378 . S
C622 C617 1.350 . S
C623 H610 0.929 . S
C623 C615 1.433 . S
C623 N625 1.384 . S
N624 C620 1.427 . S
N624 C621 1.384 . S
N625 C617 1.427 . S
N625 C623 1.384 . S
H626 C632 0.930 . S
H627 C636 0.930 . S
H628 C641 0.929 . S
H629 C639 0.929 . S
H630 C634 0.929 . S
H631 C640 0.929 . S
C632 H626 0.930 . S
C632 C633 1.367 . S
C632 C640 1.378 . S
C633 C632 1.367 . S
C633 C641 1.433 . S
C634 H630 0.929 . S
C634 C636 1.378 . S
C634 C638 1.350 . S
C635 C638 1.463 . S
C635 C640 1.350 . S
C635 N643 1.427 . S
C636 H627 0.930 . S
C636 C634 1.378 . S
C636 C637 1.367 . S
C637 C636 1.367 . S
C637 C639 1.433 . S
C638 C634 1.350 . S
C638 C635 1.463 . S
C638 N642 1.427 . S
C639 H629 0.929 . S
C639 C637 1.433 . S
C639 N642 1.384 . S
C640 H631 0.929 . S
C640 C632 1.378 . S
C640 C635 1.350 . S
C641 H628 0.929 . S
C641 C633 1.433 . S
C641 N643 1.384 . S
N642 C638 1.427 . S
N642 C639 1.384 . S
N643 C635 1.427 . S
N643 C641 1.384 . S
H644 C650 0.930 . S
H645 C654 0.930 . S
H646 C659 0.929 . S
H647 C657 0.929 . S
H648 C652 0.929 . S
H649 C658 0.929 . S
C650 H644 0.930 . S
C650 C651 1.367 . S
C650 C658 1.378 . S
C651 C650 1.367 . S
C651 C659 1.433 . S
C652 H648 0.929 . S
C652 C654 1.378 . S
C652 C656 1.350 . S
C653 C656 1.463 . S
C653 C658 1.350 . S
C653 N661 1.427 . S
C654 H645 0.930 . S
C654 C652 1.378 . S
C654 C655 1.367 . S
C655 C654 1.367 . S
C655 C657 1.433 . S
C656 C652 1.350 . S
C656 C653 1.463 . S
C656 N660 1.427 . S
C657 H647 0.929 . S
C657 C655 1.433 . S
C657 N660 1.384 . S
C658 H649 0.929 . S
C658 C650 1.378 . S
C658 C653 1.350 . S
C659 H646 0.929 . S
C659 C651 1.433 . S
C659 N661 1.384 . S
N660 C656 1.427 . S
N660 C657 1.384 . S
N661 C653 1.427 . S
N661 C659 1.384 . S
H662 C668 0.930 . S
H663 C672 0.930 . S
H664 C677 0.929 . S
H665 C675 0.929 . S
H666 C670 0.929 . S
H667 C676 0.929 . S
C668 H662 0.930 . S
C668 C669 1.367 . S
C668 C676 1.378 . S
C669 C668 1.367 . S
C669 C677 1.433 . S
C670 H666 0.929 . S
C670 C672 1.378 . S
C670 C674 1.350 . S
C671 C674 1.463 . S
C671 C676 1.350 . S
C671 N679 1.427 . S
C672 H663 0.930 . S
C672 C670 1.378 . S
C672 C673 1.367 . S
C673 C672 1.367 . S
C673 C675 1.433 . S
C674 C670 1.350 . S
C674 C671 1.463 . S
C674 N678 1.427 . S
C675 H665 0.929 . S
C675 C673 1.433 . S
C675 N678 1.384 . S
C676 H667 0.929 . S
C676 C668 1.378 . S
C676 C671 1.350 . S
C677 H664 0.929 . S
C677 C669 1.433 . S
C677 N679 1.384 . S
N678 C674 1.427 . S
N678 C675 1.384 . S
N679 C671 1.427 . S
N679 C677 1.384 . S
H680 C686 0.930 . S
H681 C690 0.930 . S
H682 C695 0.929 . S
H683 C693 0.929 . S
H684 C688 0.929 . S
H685 C694 0.929 . S
C686 H680 0.930 . S
C686 C687 1.367 . S
C686 C694 1.378 . S
C687 C686 1.367 . S
C687 C695 1.433 . S
C688 H684 0.929 . S
C688 C690 1.378 . S
C688 C692 1.350 . S
C689 C692 1.463 1_455 S
C689 C694 1.350 . S
C689 N697 1.427 . S
C690 H681 0.930 . S
C690 C688 1.378 . S
C690 C691 1.367 . S
C691 C690 1.367 . S
C691 C693 1.433 . S
C692 C688 1.350 . S
C692 C689 1.463 1_655 S
C692 N696 1.427 . S
C693 H683 0.929 . S
C693 C691 1.433 . S
C693 N696 1.384 . S
C694 H685 0.929 . S
C694 C686 1.378 . S
C694 C689 1.350 . S
C695 H682 0.929 . S
C695 C687 1.433 . S
C695 N697 1.384 . S
N696 C692 1.427 . S
N696 C693 1.384 . S
N697 C689 1.427 . S
N697 C695 1.384 . S
H698 C704 0.930 . S
H699 C708 0.930 . S
H700 C713 0.929 . S
H701 C711 0.929 . S
H702 C706 0.929 . S
H703 C712 0.929 . S
C704 H698 0.930 . S
C704 C705 1.367 . S
C704 C712 1.378 . S
C705 C704 1.367 . S
C705 C713 1.433 . S
C706 H702 0.929 . S
C706 C708 1.378 . S
C706 C710 1.350 . S
C707 C710 1.463 1_655 S
C707 C712 1.350 . S
C707 N715 1.427 . S
C708 H699 0.930 . S
C708 C706 1.378 . S
C708 C709 1.367 . S
C709 C708 1.367 . S
C709 C711 1.433 . S
C710 C706 1.350 . S
C710 C707 1.463 1_455 S
C710 N714 1.427 . S
C711 H701 0.929 . S
C711 C709 1.433 . S
C711 N714 1.384 . S
C712 H703 0.929 . S
C712 C704 1.378 . S
C712 C707 1.350 . S
C713 H700 0.929 . S
C713 C705 1.433 . S
C713 N715 1.384 . S
N714 C710 1.427 . S
N714 C711 1.384 . S
N715 C707 1.427 . S
N715 C713 1.384 . S
H716 C722 0.930 . S
H717 C726 0.930 . S
H718 C731 0.929 . S
H719 C729 0.929 . S
H720 C724 0.929 . S
H721 C730 0.929 . S
C722 H716 0.930 . S
C722 C723 1.367 . S
C722 C730 1.378 . S
C723 C722 1.367 . S
C723 C731 1.433 . S
C724 H720 0.929 . S
C724 C726 1.378 . S
C724 C728 1.350 . S
C725 C728 1.463 . S
C725 C730 1.350 . S
C725 N733 1.427 . S
C726 H717 0.930 . S
C726 C724 1.378 . S
C726 C727 1.367 . S
C727 C726 1.367 . S
C727 C729 1.433 . S
C728 C724 1.350 . S
C728 C725 1.463 . S
C728 N732 1.427 . S
C729 H719 0.929 . S
C729 C727 1.433 . S
C729 N732 1.384 . S
C730 H721 0.929 . S
C730 C722 1.378 . S
C730 C725 1.350 . S
C731 H718 0.929 . S
C731 C723 1.433 . S
C731 N733 1.384 . S
N732 C728 1.427 . S
N732 C729 1.384 . S
N733 C725 1.427 . S
N733 C731 1.384 . S
H734 C740 0.930 . S
H735 C744 0.930 . S
H736 C749 0.929 . S
H737 C747 0.929 . S
H738 C742 0.929 . S
H739 C748 0.929 . S
C740 H734 0.930 . S
C740 C741 1.367 . S
C740 C748 1.378 . S
C741 C740 1.367 . S
C741 C749 1.433 . S
C742 H738 0.929 . S
C742 C744 1.378 . S
C742 C746 1.350 . S
C743 C746 1.463 . S
C743 C748 1.350 . S
C743 N751 1.427 . S
C744 H735 0.930 . S
C744 C742 1.378 . S
C744 C745 1.367 . S
C745 C744 1.367 . S
C745 C747 1.433 . S
C746 C742 1.350 . S
C746 C743 1.463 . S
C746 N750 1.427 . S
C747 H737 0.929 . S
C747 C745 1.433 . S
C747 N750 1.384 . S
C748 H739 0.929 . S
C748 C740 1.378 . S
C748 C743 1.350 . S
C749 H736 0.929 . S
C749 C741 1.433 . S
C749 N751 1.384 . S
N750 C746 1.427 . S
N750 C747 1.384 . S
N751 C743 1.427 . S
N751 C749 1.384 . S
C327 C29 1.656 . S
C331 C288 1.655 . S
C345 C248 1.649 . S
C349 C69 1.649 . S
C363 C229 1.651 . S
C367 C88 1.650 . S
C381 C189 1.648 . S
C385 C128 1.648 . S
C399 C97 1.570 . S
C403 C17 1.556 . S
C417 C57 1.562 . S
C421 C137 1.577 . S
C435 C122 1.554 . S
C439 C42 1.569 . S
C453 C82 1.557 . S
C457 C2 1.571 . S
C471 C177 1.447 . S
C475 C257 1.445 . S
C489 C217 1.447 . S
C493 C297 1.448 . S
C507 C282 1.459 . S
C511 C202 1.458 . S
C525 C242 1.448 . S
C529 C162 1.446 . S
C543 C31 2.053 . S
C547 C12 2.053 . S
C561 C71 2.057 . S
C565 C52 2.057 . S
C579 C111 2.054 . S
C583 C92 2.054 . S
C597 C132 2.051 . S
C601 C151 2.051 . S
C615 C172 2.056 . S
C619 C191 2.056 . S
C633 C231 2.052 . S
C637 C212 2.052 . S
C651 C252 2.054 . S
C655 C271 2.054 . S
C669 C292 2.054 . S
C673 C311 2.054 . S
C687 C8 2.257 . S
C691 C48 2.250 . S
C705 C149 2.247 . S
C709 C109 2.257 . S
C723 C168 2.249 . S
C727 C208 2.259 . S
C741 C309 2.257 . S
C745 C269 2.252 . S
