# Generated by pormake.
# Topology srs-a, (3)-cn, num edge types: 1
# Building blocks:
#     Node 0, Type 0, BuildingBlock: WUSLED_clean_sbu_0, # of connection points: 3
#     Node 1, Type 0, BuildingBlock: WUSLED_clean_sbu_0, # of connection points: 3
#     Node 2, Type 0, BuildingBlock: WUSLED_clean_sbu_0, # of connection points: 3
#     Node 3, Type 0, BuildingBlock: WUSLED_clean_sbu_0, # of connection points: 3
#     Node 4, Type 0, BuildingBlock: WUSLED_clean_sbu_0, # of connection points: 3
#     Node 5, Type 0, BuildingBlock: WUSLED_clean_sbu_0, # of connection points: 3
#     Node 6, Type 0, BuildingBlock: WUSLED_clean_sbu_0, # of connection points: 3
#     Node 7, Type 0, BuildingBlock: WUSLED_clean_sbu_0, # of connection points: 3
#     Node 8, Type 0, BuildingBlock: WUSLED_clean_sbu_0, # of connection points: 3
#     Node 9, Type 0, BuildingBlock: WUSLED_clean_sbu_0, # of connection points: 3
#     Node 10, Type 0, BuildingBlock: WUSLED_clean_sbu_0, # of connection points: 3
#     Node 11, Type 0, BuildingBlock: WUSLED_clean_sbu_0, # of connection points: 3
#     Node 12, Type 0, BuildingBlock: WUSLED_clean_sbu_0, # of connection points: 3
#     Node 13, Type 0, BuildingBlock: WUSLED_clean_sbu_0, # of connection points: 3
#     Node 14, Type 0, BuildingBlock: WUSLED_clean_sbu_0, # of connection points: 3
#     Node 15, Type 0, BuildingBlock: WUSLED_clean_sbu_0, # of connection points: 3
#     Node 16, Type 0, BuildingBlock: WUSLED_clean_sbu_0, # of connection points: 3
#     Node 17, Type 0, BuildingBlock: WUSLED_clean_sbu_0, # of connection points: 3
#     Node 18, Type 0, BuildingBlock: WUSLED_clean_sbu_0, # of connection points: 3
#     Node 19, Type 0, BuildingBlock: WUSLED_clean_sbu_0, # of connection points: 3
#     Node 20, Type 0, BuildingBlock: WUSLED_clean_sbu_0, # of connection points: 3
#     Node 21, Type 0, BuildingBlock: WUSLED_clean_sbu_0, # of connection points: 3
#     Node 22, Type 0, BuildingBlock: WUSLED_clean_sbu_0, # of connection points: 3
#     Node 23, Type 0, BuildingBlock: WUSLED_clean_sbu_0, # of connection points: 3
#     Edge 24, Type (0, 0), BuildingBlock: OJICUG_clean_linker_0, # of connection points: 2
#     Edge 25, Type (0, 0), BuildingBlock: OJICUG_clean_linker_0, # of connection points: 2
#     Edge 26, Type (0, 0), BuildingBlock: OJICUG_clean_linker_0, # of connection points: 2
#     Edge 27, Type (0, 0), BuildingBlock: OJICUG_clean_linker_0, # of connection points: 2
#     Edge 28, Type (0, 0), BuildingBlock: OJICUG_clean_linker_0, # of connection points: 2
#     Edge 29, Type (0, 0), BuildingBlock: OJICUG_clean_linker_0, # of connection points: 2
#     Edge 30, Type (0, 0), BuildingBlock: OJICUG_clean_linker_0, # of connection points: 2
#     Edge 31, Type (0, 0), BuildingBlock: OJICUG_clean_linker_0, # of connection points: 2
#     Edge 32, Type (0, 0), BuildingBlock: OJICUG_clean_linker_0, # of connection points: 2
#     Edge 33, Type (0, 0), BuildingBlock: OJICUG_clean_linker_0, # of connection points: 2
#     Edge 34, Type (0, 0), BuildingBlock: OJICUG_clean_linker_0, # of connection points: 2
#     Edge 35, Type (0, 0), BuildingBlock: OJICUG_clean_linker_0, # of connection points: 2
#     Edge 36, Type (0, 0), BuildingBlock: OJICUG_clean_linker_0, # of connection points: 2
#     Edge 37, Type (0, 0), BuildingBlock: OJICUG_clean_linker_0, # of connection points: 2
#     Edge 38, Type (0, 0), BuildingBlock: OJICUG_clean_linker_0, # of connection points: 2
#     Edge 39, Type (0, 0), BuildingBlock: OJICUG_clean_linker_0, # of connection points: 2
#     Edge 40, Type (0, 0), BuildingBlock: OJICUG_clean_linker_0, # of connection points: 2
#     Edge 41, Type (0, 0), BuildingBlock: OJICUG_clean_linker_0, # of connection points: 2
#     Edge 42, Type (0, 0), BuildingBlock: OJICUG_clean_linker_0, # of connection points: 2
#     Edge 43, Type (0, 0), BuildingBlock: OJICUG_clean_linker_0, # of connection points: 2
#     Edge 44, Type (0, 0), BuildingBlock: OJICUG_clean_linker_0, # of connection points: 2
#     Edge 45, Type (0, 0), BuildingBlock: OJICUG_clean_linker_0, # of connection points: 2
#     Edge 46, Type (0, 0), BuildingBlock: OJICUG_clean_linker_0, # of connection points: 2
#     Edge 47, Type (0, 0), BuildingBlock: OJICUG_clean_linker_0, # of connection points: 2
#     Edge 48, Type (0, 0), BuildingBlock: OJICUG_clean_linker_0, # of connection points: 2
#     Edge 49, Type (0, 0), BuildingBlock: OJICUG_clean_linker_0, # of connection points: 2
#     Edge 50, Type (0, 0), BuildingBlock: OJICUG_clean_linker_0, # of connection points: 2
#     Edge 51, Type (0, 0), BuildingBlock: OJICUG_clean_linker_0, # of connection points: 2
#     Edge 52, Type (0, 0), BuildingBlock: OJICUG_clean_linker_0, # of connection points: 2
#     Edge 53, Type (0, 0), BuildingBlock: OJICUG_clean_linker_0, # of connection points: 2
#     Edge 54, Type (0, 0), BuildingBlock: OJICUG_clean_linker_0, # of connection points: 2
#     Edge 55, Type (0, 0), BuildingBlock: OJICUG_clean_linker_0, # of connection points: 2
#     Edge 56, Type (0, 0), BuildingBlock: OJICUG_clean_linker_0, # of connection points: 2
#     Edge 57, Type (0, 0), BuildingBlock: OJICUG_clean_linker_0, # of connection points: 2
#     Edge 58, Type (0, 0), BuildingBlock: OJICUG_clean_linker_0, # of connection points: 2
#     Edge 59, Type (0, 0), BuildingBlock: OJICUG_clean_linker_0, # of connection points: 2
# Relax obj value: 0.408
# Max RMSD: 0.290
# Mean RMSD: 0.284
data_MOF--net-srs-a--node1-WUSLED_clean_sbu_0--edge1-OJICUG_clean_linker_0
_symmetry_space_group_name_H-M    P1
_symmetry_Int_Tables_number       1
_symmetry_cell_setting            triclinic
loop_
_symmetry_equiv_pos_as_xyz
'x, y, z'
_cell_length_a     101.91993
_cell_length_b     89.457688
_cell_length_c     104.72733
_cell_angle_alpha  92.880442
_cell_angle_beta   103.82011
_cell_angle_gamma 101.72263
loop_
_atom_site_label
_atom_site_type_symbol
_atom_site_fract_x
_atom_site_fract_y
_atom_site_fract_z
_atom_type_partial_charge
C0 C 0.01609 0.19505 0.09252 0.0
C1 C 0.02138 0.18436 0.08616 0.0
C2 C 0.01434 0.16514 0.10029 0.0
C3 C 0.02046 0.16953 0.08996 0.0
C4 C 0.00855 0.17572 0.10628 0.0
C5 C 0.00943 0.19058 0.10242 0.0
U6 U 0.03807 0.22682 0.07985 0.0
O7 O 0.03337 0.2464 0.06907 0.0
O8 O 0.04833 0.25037 0.08852 0.0
C9 C 0.04105 0.25652 0.07893 0.0
C10 C 0.01902 0.21123 0.08997 0.0
C11 C 0.0342 0.26801 0.0833 0.0
C12 C 0.01934 0.2756 0.09623 0.0
C13 C 0.02528 0.26437 0.09158 0.0
C14 C 0.03094 0.29412 0.08413 0.0
C15 C 0.02217 0.29063 0.09262 0.0
C16 C 0.03692 0.28289 0.07954 0.0
C17 C 0.06727 0.2157 0.06673 0.0
C18 C 0.08493 0.23392 0.06005 0.0
C19 C 0.08704 0.20757 0.06202 0.0
C20 C 0.07454 0.20421 0.06564 0.0
C21 C 0.0925 0.22251 0.05941 0.0
C22 C 0.07241 0.23055 0.06377 0.0
C23 C 0.05492 0.21209 0.07185 0.0
O24 O 0.03098 0.21929 0.09719 0.0
O25 O 0.01669 0.21376 0.07744 0.0
O26 O 0.04323 0.21377 0.06404 0.0
O27 O 0.05676 0.21744 0.0842 0.0
H28 H 0.02676 0.18768 0.07863 0.0
H29 H 0.02524 0.16179 0.08529 0.0
H30 H 0.00368 0.17265 0.1142 0.0
H31 H 0.00539 0.19873 0.10751 0.0
H32 H 0.01249 0.27252 0.10262 0.0
H33 H 0.02303 0.25288 0.09454 0.0
H34 H 0.03343 0.30562 0.08129 0.0
H35 H 0.04382 0.28588 0.07318 0.0
H36 H 0.08894 0.24553 0.05813 0.0
H37 H 0.09254 0.1985 0.06141 0.0
H38 H 0.07071 0.1927 0.06789 0.0
H39 H 0.06692 0.23958 0.06465 0.0
C40 C 0.05312 0.82842 0.32995 0.0
C41 C 0.06292 0.8343 0.32304 0.0
C42 C 0.05196 0.85578 0.31789 0.0
C43 C 0.06232 0.84779 0.31702 0.0
C44 C 0.04171 0.84942 0.32422 0.0
C45 C 0.0423 0.83584 0.33022 0.0
U46 U 0.07889 0.80963 0.35075 0.0
O47 O 0.08139 0.80331 0.37106 0.0
O48 O 0.07926 0.78581 0.35476 0.0
C49 C 0.07989 0.78867 0.36737 0.0
C50 C 0.05551 0.81623 0.33856 0.0
C51 C 0.06977 0.77821 0.37249 0.0
C52 C 0.04607 0.76547 0.37147 0.0
C53 C 0.05557 0.77524 0.36626 0.0
C54 C 0.0649 0.7617 0.38923 0.0
C55 C 0.05063 0.75859 0.38303 0.0
C56 C 0.07437 0.77141 0.38399 0.0
C57 C 0.11679 0.82723 0.3523 0.0
C58 C 0.13609 0.82424 0.37 0.0
C59 C 0.1403 0.83953 0.35233 0.0
C60 C 0.1261 0.83622 0.34635 0.0
C61 C 0.14543 0.83393 0.36442 0.0
C62 C 0.12187 0.8209 0.36397 0.0
C63 C 0.10188 0.82587 0.34694 0.0
O64 O 0.06047 0.80526 0.33385 0.0
O65 O 0.062 0.82144 0.35087 0.0
O66 O 0.09547 0.83045 0.35539 0.0
O67 O 0.09496 0.813 0.33966 0.0
H68 H 0.07152 0.82894 0.32292 0.0
H69 H 0.07053 0.85246 0.31246 0.0
H70 H 0.03355 0.85525 0.32498 0.0
H71 H 0.03473 0.83157 0.33563 0.0
H72 H 0.03518 0.76319 0.36637 0.0
H73 H 0.05185 0.78048 0.35739 0.0
H74 H 0.06874 0.75681 0.39826 0.0
H75 H 0.08531 0.77371 0.38897 0.0
H76 H 0.13974 0.81962 0.37923 0.0
H77 H 0.14716 0.8472 0.34785 0.0
H78 H 0.12233 0.84124 0.33737 0.0
H79 H 0.11479 0.81388 0.36868 0.0
C80 C 0.46516 0.8678 0.67566 0.0
C81 C 0.46428 0.88254 0.6801 0.0
C82 C 0.44634 0.87158 0.69081 0.0
C83 C 0.45503 0.88442 0.68763 0.0
C84 C 0.44785 0.85681 0.68702 0.0
C85 C 0.45717 0.85495 0.67948 0.0
U86 U 0.47507 0.88376 0.6465 0.0
O87 O 0.4932 0.88551 0.63823 0.0
O88 O 0.47253 0.87357 0.62633 0.0
C89 C 0.4859 0.87714 0.62718 0.0
C90 C 0.47229 0.86596 0.66518 0.0
C91 C 0.49172 0.86468 0.62281 0.0
C92 C 0.49407 0.8382 0.62239 0.0
C93 C 0.48897 0.8501 0.62722 0.0
C94 C 0.50496 0.85546 0.60892 0.0
C95 C 0.50204 0.84072 0.61309 0.0
C96 C 0.49982 0.86731 0.61373 0.0
C97 C 0.46228 0.92071 0.6386 0.0
C98 C 0.45515 0.92899 0.61677 0.0
C99 C 0.45388 0.94414 0.6361 0.0
C100 C 0.45938 0.93381 0.64418 0.0
C101 C 0.45114 0.94149 0.62226 0.0
C102 C 0.46069 0.91866 0.62489 0.0
C103 C 0.46488 0.90839 0.64693 0.0
O104 O 0.46391 0.86322 0.65325 0.0
O105 O 0.48368 0.8764 0.66592 0.0
O106 O 0.47787 0.90845 0.65262 0.0
O107 O 0.45737 0.89467 0.642 0.0
H108 H 0.47012 0.89266 0.67706 0.0
H109 H 0.45401 0.89595 0.69014 0.0
H110 H 0.44141 0.84669 0.68941 0.0
H111 H 0.45758 0.84347 0.67602 0.0
H112 H 0.49153 0.82695 0.62572 0.0
H113 H 0.48272 0.84788 0.63425 0.0
H114 H 0.51127 0.85788 0.60197 0.0
H115 H 0.50208 0.87853 0.61026 0.0
H116 H 0.45332 0.92675 0.60616 0.0
H117 H 0.45079 0.95352 0.64067 0.0
H118 H 0.46051 0.93553 0.65474 0.0
H119 H 0.46294 0.90861 0.62041 0.0
C120 C 0.44214 0.21688 0.93681 0.0
C121 C 0.43932 0.21119 0.94838 0.0
C122 C 0.41512 0.21232 0.94045 0.0
C123 C 0.42597 0.20902 0.9502 0.0
C124 C 0.41827 0.21957 0.9296 0.0
C125 C 0.43169 0.22186 0.92782 0.0
U126 U 0.4624 0.18873 0.92997 0.0
O127 O 0.47051 0.18388 0.91293 0.0
O128 O 0.4845 0.1888 0.9329 0.0
C129 C 0.48338 0.18655 0.92013 0.0
C130 C 0.45454 0.21451 0.9327 0.0
C131 C 0.49338 0.19721 0.91504 0.0
C132 C 0.50442 0.22314 0.91227 0.0
C133 C 0.49506 0.21314 0.91746 0.0
C134 C 0.51038 0.20135 0.90212 0.0
C135 C 0.51218 0.21735 0.90452 0.0
C136 C 0.50106 0.19138 0.90735 0.0
C137 C 0.44543 0.14763 0.93549 0.0
C138 C 0.4451 0.12356 0.92348 0.0
C139 C 0.43374 0.12354 0.94133 0.0
C140 C 0.43804 0.13949 0.94357 0.0
C141 C 0.43673 0.11543 0.93091 0.0
C142 C 0.44942 0.13956 0.92575 0.0
C143 C 0.44701 0.16435 0.93617 0.0
O144 O 0.46427 0.21054 0.94176 0.0
O145 O 0.45163 0.20618 0.92128 0.0
O146 O 0.44401 0.1699 0.92471 0.0
O147 O 0.45801 0.17279 0.94463 0.0
H148 H 0.44712 0.20728 0.95556 0.0
H149 H 0.42391 0.20371 0.95881 0.0
H150 H 0.41015 0.22225 0.92191 0.0
H151 H 0.43359 0.22627 0.91883 0.0
H152 H 0.50567 0.23538 0.91444 0.0
H153 H 0.48913 0.21782 0.92334 0.0
H154 H 0.516 0.19651 0.89602 0.0
H155 H 0.49977 0.1791 0.9053 0.0
H156 H 0.44774 0.11763 0.91549 0.0
H157 H 0.42719 0.11773 0.94715 0.0
H158 H 0.43484 0.14555 0.95111 0.0
H159 H 0.45519 0.14568 0.91943 0.0
C160 C 0.04265 0.08881 0.13273 0.0
C161 C 0.04395 0.09356 0.12044 0.0
C162 C 0.02797 0.11027 0.12104 0.0
C163 C 0.03665 0.10414 0.11463 0.0
C164 C 0.02625 0.10499 0.13311 0.0
C165 C 0.03355 0.09434 0.13891 0.0
U166 U 0.07622 0.07651 0.13698 0.0
O167 O 0.09267 0.07583 0.15467 0.0
O168 O 0.08247 0.05478 0.14134 0.0
C169 C 0.09107 0.06087 0.15273 0.0
C170 C 0.05205 0.07973 0.13976 0.0
C171 C 0.08928 0.0526 0.16416 0.0
C172 C 0.07767 0.047 0.18165 0.0
C173 C 0.07896 0.05451 0.17048 0.0
C174 C 0.09683 0.03539 0.18011 0.0
C175 C 0.08665 0.03742 0.18665 0.0
C176 C 0.09814 0.04294 0.16897 0.0
C177 C 0.09815 0.09333 0.11362 0.0
C178 C 0.1232 0.0982 0.11755 0.0
C179 C 0.10911 0.10268 0.09655 0.0
C180 C 0.09717 0.0977 0.10085 0.0
C181 C 0.12231 0.10339 0.10496 0.0
C182 C 0.1112 0.09319 0.12185 0.0
C183 C 0.0856 0.09055 0.1185 0.0
O184 O 0.05361 0.06799 0.13264 0.0
O185 O 0.06385 0.08807 0.14706 0.0
O186 O 0.08697 0.09727 0.13033 0.0
O187 O 0.07812 0.07641 0.11643 0.0
H188 H 0.05111 0.08962 0.11561 0.0
H189 H 0.03843 0.10814 0.10547 0.0
H190 H 0.01957 0.10942 0.13824 0.0
H191 H 0.03252 0.09089 0.14846 0.0
H192 H 0.06982 0.04895 0.18652 0.0
H193 H 0.07202 0.06194 0.16686 0.0
H194 H 0.10375 0.02789 0.18355 0.0
H195 H 0.10611 0.04131 0.16415 0.0
H196 H 0.13319 0.09846 0.12421 0.0
H197 H 0.108 0.10682 0.08689 0.0
H198 H 0.08719 0.09794 0.0944 0.0
H199 H 0.11213 0.08978 0.13175 0.0
C200 C 0.22239 0.89207 0.40371 0.0
C201 C 0.21621 0.89133 0.39014 0.0
C202 C 0.2004 0.86731 0.3911 0.0
C203 C 0.20537 0.87905 0.38388 0.0
C204 C 0.20712 0.86767 0.40456 0.0
C205 C 0.21803 0.87999 0.41082 0.0
U206 U 0.23324 0.93457 0.40453 0.0
O207 O 0.23693 0.95317 0.42035 0.0
O208 O 0.25338 0.95104 0.41059 0.0
C209 C 0.25001 0.9579 0.42035 0.0
C210 C 0.23174 0.90638 0.4107 0.0
C211 C 0.25985 0.95932 0.43334 0.0
C212 C 0.27074 0.94771 0.45234 0.0
C213 C 0.2616 0.94625 0.43982 0.0
C214 C 0.27649 0.97532 0.45196 0.0
C215 C 0.27827 0.96227 0.45857 0.0
C216 C 0.26734 0.97384 0.43944 0.0
C217 C 0.21229 0.95082 0.37462 0.0
C218 C 0.2059 0.97554 0.37323 0.0
C219 C 0.20116 0.95807 0.35342 0.0
C220 C 0.20718 0.94761 0.3609 0.0
C221 C 0.2001 0.972 0.35953 0.0
C222 C 0.21196 0.96503 0.38073 0.0
C223 C 0.21647 0.93852 0.38233 0.0
O224 O 0.24084 0.91321 0.40461 0.0
O225 O 0.22538 0.91588 0.41545 0.0
O226 O 0.21287 0.93742 0.39355 0.0
O227 O 0.22902 0.93642 0.38307 0.0
H228 H 0.21926 0.90067 0.3845 0.0
H229 H 0.20031 0.87931 0.37357 0.0
H230 H 0.20359 0.85874 0.41037 0.0
H231 H 0.22259 0.88044 0.42134 0.0
H232 H 0.27201 0.93743 0.45709 0.0
H233 H 0.25587 0.93494 0.43521 0.0
H234 H 0.28201 0.9867 0.45655 0.0
H235 H 0.26603 0.98404 0.43457 0.0
H236 H 0.20539 0.98624 0.37821 0.0
H237 H 0.19663 0.95483 0.34294 0.0
H238 H 0.20729 0.93666 0.35603 0.0
H239 H 0.21591 0.96775 0.39134 0.0
C240 C 0.3322 0.94511 0.69933 0.0
C241 C 0.3407 0.95717 0.69499 0.0
C242 C 0.32373 0.95438 0.67376 0.0
C243 C 0.33653 0.96171 0.68237 0.0
C244 C 0.31502 0.94264 0.67823 0.0
C245 C 0.31919 0.9381 0.6909 0.0
U246 U 0.35438 0.92241 0.72152 0.0
O247 O 0.36787 0.92844 0.74164 0.0
O248 O 0.35046 0.90837 0.73746 0.0
C249 C 0.36031 0.91766 0.74655 0.0
C250 C 0.33696 0.93962 0.71242 0.0
C251 C 0.35623 0.92302 0.7582 0.0
C252 C 0.34284 0.93753 0.76816 0.0
C253 C 0.34582 0.93137 0.75691 0.0
C254 C 0.3605 0.92679 0.78207 0.0
C255 C 0.35029 0.9355 0.78089 0.0
C256 C 0.36343 0.92061 0.77082 0.0
C257 C 0.37707 0.902 0.70522 0.0
C258 C 0.39845 0.89481 0.71609 0.0
C259 C 0.38806 0.88702 0.69276 0.0
C260 C 0.37724 0.8942 0.69336 0.0
C261 C 0.39895 0.88749 0.70405 0.0
C262 C 0.38757 0.90199 0.71668 0.0
C263 C 0.3665 0.91103 0.70505 0.0
O264 O 0.333 0.9248 0.71312 0.0
O265 O 0.35 0.94522 0.71872 0.0
O266 O 0.37101 0.92493 0.71129 0.0
O267 O 0.35469 0.90378 0.70704 0.0
H268 H 0.35074 0.96295 0.70122 0.0
H269 H 0.34358 0.97066 0.67921 0.0
H270 H 0.30502 0.93689 0.67189 0.0
H271 H 0.31232 0.92892 0.69402 0.0
H272 H 0.33482 0.94402 0.76689 0.0
H273 H 0.34018 0.93337 0.74721 0.0
H274 H 0.36659 0.9252 0.79169 0.0
H275 H 0.37158 0.91429 0.77198 0.0
H276 H 0.4066 0.89525 0.72499 0.0
H277 H 0.38819 0.88174 0.68328 0.0
H278 H 0.36926 0.89415 0.68441 0.0
H279 H 0.38758 0.90792 0.72596 0.0
C280 C 0.27682 0.11286 0.92997 0.0
C281 C 0.28549 0.1036 0.9363 0.0
C282 C 0.27759 0.08461 0.91704 0.0
C283 C 0.28589 0.08969 0.92991 0.0
C284 C 0.26851 0.09356 0.91089 0.0
C285 C 0.2681 0.10751 0.91731 0.0
U286 U 0.29571 0.15433 0.94006 0.0
O287 O 0.28852 0.17589 0.94081 0.0
O288 O 0.30058 0.1688 0.95887 0.0
C289 C 0.29315 0.17845 0.95375 0.0
C290 C 0.27733 0.12829 0.93624 0.0
C291 C 0.2831 0.18136 0.96099 0.0
C292 C 0.26194 0.17253 0.96784 0.0
C293 C 0.27077 0.17043 0.95987 0.0
C294 C 0.27755 0.19665 0.97793 0.0
C295 C 0.26536 0.18553 0.97713 0.0
C296 C 0.28635 0.19456 0.96992 0.0
C297 C 0.33081 0.16531 0.93131 0.0
C298 C 0.3482 0.18883 0.93994 0.0
C299 C 0.35342 0.16875 0.92684 0.0
C300 C 0.34008 0.15995 0.9253 0.0
C301 C 0.35772 0.18311 0.93442 0.0
C302 C 0.33481 0.17991 0.93846 0.0
C303 C 0.3176 0.15484 0.93091 0.0
O304 O 0.28693 0.13297 0.94735 0.0
O305 O 0.27627 0.13914 0.92826 0.0
O306 O 0.3063 0.15853 0.92411 0.0
O307 O 0.31648 0.1499 0.94228 0.0
H308 H 0.29231 0.10725 0.94608 0.0
H309 H 0.29313 0.08321 0.93489 0.0
H310 H 0.26185 0.08987 0.90105 0.0
H311 H 0.26118 0.11429 0.91225 0.0
H312 H 0.25273 0.16366 0.96711 0.0
H313 H 0.26819 0.16008 0.95311 0.0
H314 H 0.28039 0.20685 0.98489 0.0
H315 H 0.29586 0.20307 0.97093 0.0
H316 H 0.3513 0.19985 0.94585 0.0
H317 H 0.3605 0.16418 0.92234 0.0
H318 H 0.33715 0.1487 0.91975 0.0
H319 H 0.32775 0.18417 0.94322 0.0
C320 C 0.13612 0.00197 0.30677 0.0
C321 C 0.13455 0.99447 0.31793 0.0
C322 C 0.1596 0.99901 0.3263 0.0
C323 C 0.14616 0.99304 0.32761 0.0
C324 C 0.16112 0.00716 0.31539 0.0
C325 C 0.14946 0.0086 0.30568 0.0
U326 U 0.10001 0.98137 0.28937 0.0
O327 O 0.09059 0.97253 0.26853 0.0
O328 O 0.0817 0.98888 0.27823 0.0
C329 C 0.08169 0.98146 0.26705 0.0
C330 C 0.12403 0.00092 0.29555 0.0
C331 C 0.08157 0.99061 0.25581 0.0
C332 C 0.09188 0.01245 0.2459 0.0
C333 C 0.09143 0.00437 0.25691 0.0
C334 C 0.07254 0.99314 0.23258 0.0
C335 C 0.08254 0.00684 0.23355 0.0
C336 C 0.07207 0.9851 0.24363 0.0
C337 C 0.08499 0.94706 0.30631 0.0
C338 C 0.06753 0.9243 0.29568 0.0
C339 C 0.07656 0.9276 0.31949 0.0
C340 C 0.08496 0.94173 0.31863 0.0
C341 C 0.06802 0.91851 0.308 0.0
C342 C 0.07595 0.93849 0.29484 0.0
C343 C 0.09552 0.96067 0.30562 0.0
O344 O 0.12129 0.98845 0.28734 0.0
O345 O 0.11294 0.00395 0.29851 0.0
O346 O 0.0921 0.97402 0.30644 0.0
O347 O 0.10232 0.95926 0.29659 0.0
H348 H 0.12434 0.98904 0.31883 0.0
H349 H 0.14455 0.98645 0.33572 0.0
H350 H 0.17133 0.01198 0.31414 0.0
H351 H 0.15086 0.01431 0.29706 0.0
H352 H 0.09958 0.02307 0.24704 0.0
H353 H 0.0989 0.00874 0.26625 0.0
H354 H 0.06532 0.98838 0.2232 0.0
H355 H 0.06448 0.97441 0.24259 0.0
H356 H 0.06096 0.91766 0.28666 0.0
H357 H 0.07738 0.92344 0.32912 0.0
H358 H 0.09192 0.94817 0.32757 0.0
H359 H 0.07581 0.94248 0.28522 0.0
C360 C 0.31853 0.97352 0.59386 0.0
C361 C 0.32909 0.98131 0.60475 0.0
C362 C 0.31636 0.96941 0.61989 0.0
C363 C 0.32798 0.97935 0.61761 0.0
C364 C 0.30558 0.96201 0.60897 0.0
C365 C 0.30666 0.96407 0.59605 0.0
U366 U 0.34388 0.97466 0.57336 0.0
O367 O 0.34343 0.96079 0.55527 0.0
O368 O 0.34695 0.98588 0.55577 0.0
C369 C 0.34482 0.97276 0.54853 0.0
C370 C 0.32082 0.97354 0.58049 0.0
C371 C 0.33489 0.97116 0.53558 0.0
C372 C 0.31144 0.96852 0.52207 0.0
C373 C 0.32073 0.96999 0.53452 0.0
C374 C 0.33041 0.96939 0.51168 0.0
C375 C 0.31619 0.96825 0.5105 0.0
C376 C 0.33967 0.97084 0.52412 0.0
C377 C 0.38107 0.97637 0.59369 0.0
C378 C 0.39876 0.96699 0.58579 0.0
C379 C 0.40375 0.97826 0.60844 0.0
C380 C 0.39045 0.98106 0.60605 0.0
C381 C 0.4079 0.97067 0.59849 0.0
C382 C 0.38542 0.96982 0.58341 0.0
C383 C 0.36646 0.97665 0.5923 0.0
O384 O 0.32827 0.98635 0.57795 0.0
O385 O 0.32454 0.96122 0.57658 0.0
O386 O 0.35762 0.96365 0.58731 0.0
O387 O 0.36236 0.98876 0.58762 0.0
H388 H 0.3385 0.98841 0.60335 0.0
H389 H 0.33658 0.985 0.62577 0.0
H390 H 0.29647 0.95435 0.61041 0.0
H391 H 0.29849 0.95781 0.58779 0.0
H392 H 0.30058 0.96783 0.5215 0.0
H393 H 0.3169 0.97025 0.54331 0.0
H394 H 0.33437 0.96899 0.50298 0.0
H395 H 0.35057 0.97168 0.5248 0.0
H396 H 0.4017 0.9613 0.57789 0.0
H397 H 0.41041 0.98108 0.61837 0.0
H398 H 0.38722 0.98609 0.61409 0.0
H399 H 0.37829 0.96619 0.57376 0.0
C400 C 0.30614 0.01496 0.87986 0.0
C401 C 0.31085 0.02025 0.89337 0.0
C402 C 0.29235 0.0341 0.89147 0.0
C403 C 0.30399 0.02964 0.89913 0.0
C404 C 0.28737 0.02835 0.87804 0.0
C405 C 0.2942 0.01884 0.87229 0.0
U406 U 0.34172 0.01157 0.87883 0.0
O407 O 0.35111 0.99224 0.87493 0.0
O408 O 0.35198 0.01148 0.86265 0.0
C409 C 0.35454 0.99781 0.8645 0.0
C410 C 0.31472 0.00732 0.87339 0.0
C411 C 0.35126 0.98691 0.85257 0.0
C412 C 0.33891 0.97821 0.82968 0.0
C413 C 0.34074 0.98764 0.84133 0.0
C414 C 0.35766 0.96676 0.84056 0.0
C415 C 0.34751 0.96784 0.82911 0.0
C416 C 0.35952 0.97623 0.85216 0.0
C417 C 0.3707 0.03903 0.90492 0.0
C418 C 0.39391 0.04918 0.90262 0.0
C419 C 0.38738 0.05682 0.92233 0.0
C420 C 0.37424 0.04728 0.91742 0.0
C421 C 0.39719 0.05833 0.91477 0.0
C422 C 0.38075 0.03958 0.89773 0.0
C423 C 0.35611 0.03166 0.89891 0.0
O424 O 0.32232 0.01648 0.86721 0.0
O425 O 0.32159 0.99835 0.88054 0.0
O426 O 0.35224 0.01696 0.90008 0.0
O427 O 0.35108 0.03539 0.88705 0.0
H428 H 0.3202 0.01769 0.89937 0.0
H429 H 0.30826 0.03408 0.90943 0.0
H430 H 0.27839 0.03153 0.87191 0.0
H431 H 0.29051 0.01502 0.86182 0.0
H432 H 0.3309 0.97918 0.82106 0.0
H433 H 0.33417 0.99573 0.84145 0.0
H434 H 0.36456 0.95905 0.84042 0.0
H435 H 0.36773 0.97554 0.86072 0.0
H436 H 0.40129 0.04995 0.89663 0.0
H437 H 0.38947 0.06383 0.93164 0.0
H438 H 0.36659 0.04701 0.92308 0.0
H439 H 0.37818 0.03323 0.88805 0.0
C440 C 0.16957 0.22511 0.04065 0.0
C441 C 0.17002 0.23085 0.05354 0.0
C442 C 0.14557 0.23131 0.04676 0.0
C443 C 0.15815 0.23396 0.05654 0.0
C444 C 0.14547 0.22707 0.03362 0.0
C445 C 0.15739 0.22403 0.03059 0.0
U446 U 0.18789 0.19364 0.0487 0.0
O447 O 0.19307 0.17607 0.03658 0.0
O448 O 0.20952 0.19133 0.05198 0.0
C449 C 0.20646 0.18067 0.04196 0.0
C450 C 0.1805 0.21751 0.0382 0.0
C451 C 0.21524 0.1831 0.03265 0.0
C452 C 0.21959 0.19179 0.01212 0.0
C453 C 0.21135 0.19024 0.02113 0.0
C454 C 0.23584 0.17951 0.02627 0.0
C455 C 0.23188 0.18636 0.01457 0.0
C456 C 0.22757 0.17788 0.03521 0.0
C457 C 0.173 0.16966 0.0741 0.0
C458 C 0.16846 0.14225 0.07609 0.0
C459 C 0.16427 0.15975 0.09231 0.0
C460 C 0.16903 0.17213 0.08579 0.0
C461 C 0.16338 0.1446 0.08724 0.0
C462 C 0.17321 0.15469 0.06954 0.0
C463 C 0.17466 0.18247 0.06594 0.0
O464 O 0.19148 0.21871 0.04817 0.0
O465 O 0.17579 0.20348 0.03225 0.0
O466 O 0.16992 0.17892 0.0531 0.0
O467 O 0.1864 0.19281 0.06937 0.0
H468 H 0.17923 0.23195 0.06154 0.0
H469 H 0.15863 0.23755 0.0667 0.0
H470 H 0.13594 0.22492 0.02586 0.0
H471 H 0.15676 0.21966 0.02058 0.0
H472 H 0.21635 0.19725 0.00327 0.0
H473 H 0.2019 0.19445 0.01905 0.0
H474 H 0.24516 0.17505 0.02836 0.0
H475 H 0.23071 0.17234 0.04405 0.0
H476 H 0.16812 0.13075 0.07205 0.0
H477 H 0.16031 0.16205 0.10075 0.0
H478 H 0.16874 0.18359 0.08941 0.0
H479 H 0.17631 0.15255 0.06054 0.0
C480 C 0.72231 0.39188 0.90271 0.0
C481 C 0.71605 0.39126 0.88916 0.0
C482 C 0.70012 0.36732 0.8901 0.0
C483 C 0.70512 0.37908 0.88291 0.0
C484 C 0.7069 0.36757 0.90354 0.0
C485 C 0.7179 0.37979 0.9098 0.0
U486 U 0.73393 0.43428 0.90343 0.0
O487 O 0.73774 0.4531 0.91904 0.0
O488 O 0.75435 0.45029 0.9097 0.0
C489 C 0.75094 0.45737 0.91932 0.0
C490 C 0.73184 0.40608 0.9097 0.0
C491 C 0.76058 0.45874 0.93245 0.0
C492 C 0.76744 0.44939 0.95388 0.0
C493 C 0.75841 0.44778 0.9413 0.0
C494 C 0.78116 0.47272 0.94878 0.0
C495 C 0.77889 0.4619 0.95777 0.0
C496 C 0.77204 0.47116 0.93624 0.0
C497 C 0.71343 0.45075 0.87336 0.0
C498 C 0.70718 0.47554 0.87193 0.0
C499 C 0.70213 0.45789 0.85217 0.0
C500 C 0.70818 0.44744 0.85966 0.0
C501 C 0.70119 0.47188 0.85826 0.0
C502 C 0.71327 0.46504 0.87943 0.0
C503 C 0.71745 0.43841 0.88112 0.0
O504 O 0.74108 0.41264 0.90365 0.0
O505 O 0.72564 0.41583 0.91435 0.0
O506 O 0.71374 0.43743 0.89228 0.0
O507 O 0.72996 0.43614 0.88196 0.0
H508 H 0.71914 0.40061 0.88356 0.0
H509 H 0.70001 0.37943 0.87263 0.0
H510 H 0.70336 0.35863 0.90932 0.0
H511 H 0.72253 0.38016 0.92029 0.0
H512 H 0.76555 0.44078 0.96053 0.0
H513 H 0.74969 0.438 0.9385 0.0
H514 H 0.78984 0.48252 0.95155 0.0
H515 H 0.77388 0.47971 0.92952 0.0
H516 H 0.70677 0.48629 0.87688 0.0
H517 H 0.69746 0.45457 0.84172 0.0
H518 H 0.70815 0.43643 0.85482 0.0
H519 H 0.71733 0.46783 0.89001 0.0
C520 C 0.8328 0.44527 0.20003 0.0
C521 C 0.84149 0.45713 0.19566 0.0
C522 C 0.82454 0.45458 0.17445 0.0
C523 C 0.83743 0.46168 0.18303 0.0
C524 C 0.81566 0.44304 0.17893 0.0
C525 C 0.81972 0.43849 0.19161 0.0
U526 U 0.85408 0.42183 0.22236 0.0
O527 O 0.86794 0.42782 0.2423 0.0
O528 O 0.84984 0.40858 0.23866 0.0
C529 C 0.86006 0.41771 0.24753 0.0
C530 C 0.83742 0.43982 0.21316 0.0
C531 C 0.85639 0.42402 0.25907 0.0
C532 C 0.84594 0.44216 0.26892 0.0
C533 C 0.84816 0.43494 0.25773 0.0
C534 C 0.85971 0.42719 0.28286 0.0
C535 C 0.85191 0.43859 0.28164 0.0
C536 C 0.86195 0.42 0.27165 0.0
C537 C 0.87576 0.39983 0.2061 0.0
C538 C 0.89704 0.39243 0.21691 0.0
C539 C 0.88644 0.38448 0.19364 0.0
C540 C 0.87574 0.39183 0.19426 0.0
C541 C 0.89741 0.38498 0.20487 0.0
C542 C 0.88628 0.39979 0.21753 0.0
C543 C 0.86549 0.40927 0.20589 0.0
O544 O 0.83296 0.42512 0.21404 0.0
O545 O 0.85057 0.44495 0.21932 0.0
O546 O 0.87042 0.42327 0.21185 0.0
O547 O 0.85365 0.40255 0.20815 0.0
H548 H 0.85159 0.46274 0.20189 0.0
H549 H 0.84461 0.47047 0.17986 0.0
H550 H 0.80559 0.43748 0.17262 0.0
H551 H 0.8127 0.42949 0.19475 0.0
H552 H 0.83975 0.45076 0.26765 0.0
H553 H 0.84379 0.43817 0.24806 0.0
H554 H 0.86458 0.4243 0.29251 0.0
H555 H 0.86838 0.41164 0.27284 0.0
H556 H 0.90525 0.3929 0.22577 0.0
H557 H 0.88647 0.37909 0.18415 0.0
H558 H 0.86774 0.39181 0.18534 0.0
H559 H 0.88644 0.40588 0.22679 0.0
C560 C 0.77505 0.61311 0.42346 0.0
C561 C 0.78269 0.61332 0.41394 0.0
C562 C 0.77656 0.5854 0.41037 0.0
C563 C 0.78339 0.59962 0.40742 0.0
C564 C 0.76863 0.58526 0.4197 0.0
C565 C 0.76788 0.59902 0.42619 0.0
U566 U 0.79443 0.65326 0.43703 0.0
O567 O 0.78763 0.67464 0.44039 0.0
O568 O 0.79985 0.66526 0.45701 0.0
C569 C 0.79245 0.67546 0.45329 0.0
C570 C 0.77574 0.62739 0.43144 0.0
C571 C 0.7825 0.67708 0.46106 0.0
C572 C 0.76392 0.66559 0.4707 0.0
C573 C 0.77294 0.66416 0.46279 0.0
C574 C 0.77366 0.69297 0.47495 0.0
C575 C 0.76422 0.68 0.47696 0.0
C576 C 0.78274 0.6915 0.46708 0.0
C577 C 0.82898 0.66623 0.42762 0.0
C578 C 0.84615 0.68969 0.43706 0.0
C579 C 0.85182 0.67027 0.42363 0.0
C580 C 0.83849 0.6613 0.42167 0.0
C581 C 0.85589 0.68438 0.43158 0.0
C582 C 0.83276 0.68059 0.43517 0.0
C583 C 0.81578 0.65552 0.42678 0.0
O584 O 0.78589 0.63046 0.44227 0.0
O585 O 0.77457 0.63941 0.42486 0.0
O586 O 0.80442 0.6599 0.42104 0.0
O587 O 0.81499 0.64899 0.4376 0.0
H588 H 0.7885 0.62407 0.41185 0.0
H589 H 0.78979 0.60015 0.40049 0.0
H590 H 0.76321 0.5745 0.42214 0.0
H591 H 0.76204 0.59864 0.4336 0.0
H592 H 0.75696 0.65532 0.47217 0.0
H593 H 0.77263 0.65292 0.4582 0.0
H594 H 0.77403 0.70426 0.47947 0.0
H595 H 0.79003 0.7016 0.46578 0.0
H596 H 0.84907 0.70051 0.44325 0.0
H597 H 0.8591 0.66602 0.41918 0.0
H598 H 0.83573 0.65024 0.41584 0.0
H599 H 0.82553 0.6845 0.4399 0.0
C600 C 0.80861 0.51487 0.37939 0.0
C601 C 0.813 0.52126 0.39263 0.0
C602 C 0.7934 0.53356 0.38944 0.0
C603 C 0.80544 0.53044 0.39763 0.0
C604 C 0.78866 0.52652 0.37635 0.0
C605 C 0.79623 0.51726 0.37137 0.0
U606 U 0.84512 0.51329 0.38048 0.0
O607 O 0.85556 0.49515 0.37607 0.0
O608 O 0.85657 0.51551 0.3651 0.0
C609 C 0.85948 0.50192 0.36629 0.0
C610 C 0.81803 0.50802 0.37349 0.0
C611 C 0.85705 0.49229 0.35378 0.0
C612 C 0.84419 0.47047 0.33779 0.0
C613 C 0.846 0.47939 0.34972 0.0
C614 C 0.86429 0.48738 0.33381 0.0
C615 C 0.8533 0.47442 0.32969 0.0
C616 C 0.86615 0.49619 0.34573 0.0
C617 C 0.87241 0.54019 0.40814 0.0
C618 C 0.89596 0.55045 0.40682 0.0
C619 C 0.88815 0.55876 0.42555 0.0
C620 C 0.8752 0.54893 0.42033 0.0
C621 C 0.8985 0.56007 0.41861 0.0
C622 C 0.88299 0.54058 0.40162 0.0
C623 C 0.85804 0.5325 0.40159 0.0
O624 O 0.82597 0.51789 0.36814 0.0
O625 O 0.82483 0.49908 0.38077 0.0
O626 O 0.8546 0.51758 0.40199 0.0
O627 O 0.85326 0.53684 0.38991 0.0
H628 H 0.82268 0.51983 0.39894 0.0
H629 H 0.80952 0.53586 0.40767 0.0
H630 H 0.77937 0.5286 0.36983 0.0
H631 H 0.79277 0.51258 0.36108 0.0
H632 H 0.83558 0.46059 0.33482 0.0
H633 H 0.83879 0.47622 0.35575 0.0
H634 H 0.87161 0.49059 0.32789 0.0
H635 H 0.87475 0.50607 0.34871 0.0
H636 H 0.90377 0.55107 0.40132 0.0
H637 H 0.88967 0.56612 0.43456 0.0
H638 H 0.86712 0.54881 0.42545 0.0
H639 H 0.88098 0.53387 0.39217 0.0
C640 C 0.63641 0.50162 0.8063 0.0
C641 C 0.63507 0.4942 0.81755 0.0
C642 C 0.66016 0.49864 0.82546 0.0
C643 C 0.64682 0.49276 0.82705 0.0
C644 C 0.66146 0.50669 0.81445 0.0
C645 C 0.64966 0.50814 0.80493 0.0
U646 U 0.59994 0.4814 0.78962 0.0
O647 O 0.58166 0.48914 0.77874 0.0
O648 O 0.59005 0.47242 0.76889 0.0
C649 C 0.58131 0.48154 0.76753 0.0
C650 C 0.62414 0.50063 0.79529 0.0
C651 C 0.58109 0.49055 0.75619 0.0
C652 C 0.59148 0.51203 0.74595 0.0
C653 C 0.59108 0.50415 0.75708 0.0
C654 C 0.5718 0.49287 0.73297 0.0
C655 C 0.58196 0.50637 0.73371 0.0
C656 C 0.57139 0.48502 0.74413 0.0
C657 C 0.58493 0.44748 0.8069 0.0
C658 C 0.56696 0.42509 0.7964 0.0
C659 C 0.57664 0.42799 0.82012 0.0
C660 C 0.58517 0.44201 0.81922 0.0
C661 C 0.5677 0.41914 0.80868 0.0
C662 C 0.57551 0.43918 0.79551 0.0
C663 C 0.59557 0.46093 0.80608 0.0
O664 O 0.62108 0.48806 0.78713 0.0
O665 O 0.61325 0.5039 0.7985 0.0
O666 O 0.59234 0.47438 0.80693 0.0
O667 O 0.60215 0.4593 0.79691 0.0
H668 H 0.62493 0.48886 0.81868 0.0
H669 H 0.64539 0.48625 0.83525 0.0
H670 H 0.67158 0.51144 0.81298 0.0
H671 H 0.65087 0.51378 0.79623 0.0
H672 H 0.5993 0.52251 0.74691 0.0
H673 H 0.59872 0.50852 0.76633 0.0
H674 H 0.56443 0.48808 0.72367 0.0
H675 H 0.56369 0.47445 0.74327 0.0
H676 H 0.56009 0.41864 0.78743 0.0
H677 H 0.57766 0.42369 0.82971 0.0
H678 H 0.59243 0.44826 0.82809 0.0
H679 H 0.57516 0.44328 0.78591 0.0
C680 C 0.51825 0.69761 0.59549 0.0
C681 C 0.51181 0.68502 0.58589 0.0
C682 C 0.51609 0.66723 0.60251 0.0
C683 C 0.51071 0.67 0.58938 0.0
C684 C 0.5218 0.67987 0.61219 0.0
C685 C 0.52275 0.69484 0.60873 0.0
U686 U 0.53962 0.72841 0.58059 0.0
O687 O 0.53432 0.74726 0.56908 0.0
O688 O 0.54982 0.7523 0.58821 0.0
C689 C 0.54213 0.75787 0.57849 0.0
C690 C 0.52122 0.71351 0.59183 0.0
C691 C 0.53525 0.76941 0.58272 0.0
C692 C 0.52044 0.77714 0.59563 0.0
C693 C 0.52632 0.76585 0.59099 0.0
C694 C 0.53211 0.79557 0.58351 0.0
C695 C 0.52336 0.79216 0.59202 0.0
C696 C 0.53804 0.78427 0.57892 0.0
C697 C 0.56861 0.71677 0.56747 0.0
C698 C 0.58636 0.73482 0.56075 0.0
C699 C 0.58807 0.70831 0.56237 0.0
C700 C 0.57563 0.70512 0.56612 0.0
C701 C 0.59371 0.72325 0.5599 0.0
C702 C 0.5739 0.73162 0.5646 0.0
C703 C 0.55644 0.71338 0.57289 0.0
O704 O 0.5332 0.72209 0.59852 0.0
O705 O 0.51845 0.71525 0.57913 0.0
O706 O 0.54457 0.71457 0.56511 0.0
O707 O 0.55848 0.71936 0.5851 0.0
H708 H 0.508 0.68672 0.57562 0.0
H709 H 0.50596 0.66057 0.5817 0.0
H710 H 0.52621 0.67829 0.62237 0.0
H711 H 0.5276 0.7043 0.61638 0.0
H712 H 0.5136 0.77413 0.60204 0.0
H713 H 0.52405 0.75438 0.59398 0.0
H714 H 0.53466 0.80706 0.58066 0.0
H715 H 0.54496 0.7872 0.57258 0.0
H716 H 0.59051 0.74644 0.55895 0.0
H717 H 0.5934 0.69912 0.5616 0.0
H718 H 0.57168 0.69361 0.56831 0.0
H719 H 0.5686 0.74077 0.56567 0.0
C720 C 0.5525 0.32886 0.82999 0.0
C721 C 0.56206 0.33467 0.82281 0.0
C722 C 0.55125 0.35636 0.81818 0.0
C723 C 0.56141 0.34823 0.81692 0.0
C724 C 0.54122 0.35006 0.82478 0.0
C725 C 0.54186 0.33641 0.83065 0.0
U726 U 0.57853 0.31002 0.85036 0.0
O727 O 0.58127 0.30352 0.87063 0.0
O728 O 0.57904 0.28618 0.85418 0.0
C729 C 0.57979 0.28892 0.86682 0.0
C730 C 0.55503 0.31661 0.83849 0.0
C731 C 0.56978 0.27834 0.87197 0.0
C732 C 0.54615 0.2654 0.87103 0.0
C733 C 0.55556 0.27532 0.86583 0.0
C734 C 0.56512 0.26159 0.88862 0.0
C735 C 0.55083 0.25842 0.8825 0.0
C736 C 0.5745 0.27145 0.88338 0.0
C737 C 0.61631 0.32774 0.85166 0.0
C738 C 0.63569 0.32453 0.86916 0.0
C739 C 0.63978 0.34005 0.85159 0.0
C740 C 0.62556 0.33681 0.8457 0.0
C741 C 0.64498 0.3343 0.86358 0.0
C742 C 0.62145 0.32126 0.86323 0.0
C743 C 0.60138 0.32641 0.84641 0.0
O744 O 0.55996 0.3057 0.83362 0.0
O745 O 0.56163 0.32173 0.85079 0.0
O746 O 0.59507 0.33089 0.85498 0.0
O747 O 0.59443 0.31359 0.83908 0.0
H748 H 0.57054 0.32922 0.82238 0.0
H749 H 0.56945 0.35286 0.81214 0.0
H750 H 0.53322 0.35599 0.82584 0.0
H751 H 0.53448 0.33218 0.83627 0.0
H752 H 0.53524 0.26308 0.86599 0.0
H753 H 0.55174 0.28063 0.85703 0.0
H754 H 0.56906 0.25662 0.89758 0.0
H755 H 0.58545 0.27379 0.8883 0.0
H756 H 0.63939 0.31981 0.87832 0.0
H757 H 0.64661 0.34778 0.84713 0.0
H758 H 0.62174 0.34194 0.8368 0.0
H759 H 0.61441 0.31417 0.86793 0.0
C760 C 0.9633 0.3659 0.17566 0.0
C761 C 0.96232 0.38059 0.18012 0.0
C762 C 0.94462 0.36943 0.19103 0.0
C763 C 0.95313 0.38234 0.18776 0.0
C764 C 0.94621 0.35472 0.18719 0.0
C765 C 0.95546 0.35297 0.17954 0.0
U766 U 0.97339 0.3821 0.14662 0.0
O767 O 0.9916 0.38384 0.13848 0.0
O768 O 0.97097 0.37199 0.12644 0.0
C769 C 0.98435 0.37553 0.12738 0.0
C770 C 0.97044 0.36417 0.16518 0.0
C771 C 0.99018 0.36304 0.12305 0.0
C772 C 0.99256 0.33657 0.12274 0.0
C773 C 0.98743 0.34849 0.12752 0.0
C774 C 0.00344 0.35377 0.10922 0.0
C775 C 0.00054 0.33905 0.11345 0.0
C776 C 0.99827 0.36564 0.11397 0.0
C777 C 0.96093 0.41922 0.13874 0.0
C778 C 0.95419 0.42768 0.11693 0.0
C779 C 0.95296 0.44291 0.13624 0.0
C780 C 0.95817 0.43241 0.14432 0.0
C781 C 0.95036 0.44032 0.1224 0.0
C782 C 0.95945 0.41719 0.12505 0.0
C783 C 0.96333 0.40683 0.14706 0.0
O784 O 0.96208 0.36156 0.15323 0.0
O785 O 0.98186 0.37459 0.16601 0.0
O786 O 0.97628 0.40677 0.15284 0.0
O787 O 0.95578 0.39315 0.14205 0.0
H788 H 0.96804 0.39075 0.17704 0.0
H789 H 0.95205 0.39383 0.1903 0.0
H790 H 0.93989 0.34454 0.18964 0.0
H791 H 0.95595 0.34153 0.17606 0.0
H792 H 0.99004 0.32535 0.12611 0.0
H793 H 0.98118 0.3463 0.13455 0.0
H794 H 0.00975 0.35616 0.10228 0.0
H795 H 0.00053 0.37683 0.11047 0.0
H796 H 0.95246 0.42548 0.10633 0.0
H797 H 0.94999 0.4524 0.14079 0.0
H798 H 0.95922 0.43412 0.15487 0.0
H799 H 0.9616 0.40707 0.12058 0.0
C800 C 0.94074 0.71881 0.43637 0.0
C801 C 0.93757 0.71304 0.44778 0.0
C802 C 0.91342 0.71404 0.43922 0.0
C803 C 0.92406 0.71076 0.44921 0.0
C804 C 0.91689 0.72135 0.42852 0.0
C805 C 0.93047 0.72374 0.42712 0.0
U806 U 0.96175 0.69087 0.43114 0.0
O807 O 0.97015 0.6853 0.41446 0.0
O808 O 0.98396 0.69132 0.43446 0.0
C809 C 0.98298 0.68845 0.42178 0.0
C810 C 0.95334 0.71647 0.43264 0.0
C811 C 0.99293 0.69886 0.41642 0.0
C812 C 0.004 0.72455 0.41309 0.0
C813 C 0.99465 0.71482 0.4185 0.0
C814 C 0.00983 0.70242 0.40337 0.0
C815 C 0.01169 0.71846 0.40546 0.0
C816 C 0.00054 0.69272 0.40882 0.0
C817 C 0.94528 0.65016 0.43802 0.0
C818 C 0.94582 0.62575 0.42714 0.0
C819 C 0.93347 0.62634 0.4442 0.0
C820 C 0.93752 0.64233 0.44597 0.0
C821 C 0.93709 0.61789 0.43438 0.0
C822 C 0.94988 0.64179 0.42893 0.0
C823 C 0.9466 0.66681 0.43805 0.0
O824 O 0.9631 0.7131 0.44205 0.0
O825 O 0.9507 0.70763 0.42151 0.0
O826 O 0.94362 0.67172 0.42632 0.0
O827 O 0.95747 0.6757 0.44636 0.0
H828 H 0.94523 0.70913 0.45512 0.0
H829 H 0.92175 0.70539 0.4577 0.0
H830 H 0.90893 0.72399 0.42064 0.0
H831 H 0.93264 0.72818 0.41823 0.0
H832 H 0.00529 0.73684 0.41502 0.0
H833 H 0.98878 0.71974 0.42429 0.0
H834 H 0.01541 0.69733 0.39737 0.0
H835 H 0.99921 0.6804 0.40703 0.0
H836 H 0.94895 0.61957 0.41963 0.0
H837 H 0.92663 0.62074 0.44985 0.0
H838 H 0.93384 0.64863 0.453 0.0
H839 H 0.95594 0.64767 0.42273 0.0
C840 C 0.5446 0.58924 0.63129 0.0
C841 C 0.54914 0.59747 0.62153 0.0
C842 C 0.53032 0.61089 0.61932 0.0
C843 C 0.54211 0.60819 0.61563 0.0
C844 C 0.52548 0.60214 0.62876 0.0
C845 C 0.53261 0.59142 0.63474 0.0
U846 U 0.57765 0.57597 0.6369 0.0
O847 O 0.59334 0.5746 0.65497 0.0
O848 O 0.58323 0.55388 0.64118 0.0
C849 C 0.59154 0.55963 0.6528 0.0
C850 C 0.55323 0.57959 0.63857 0.0
C851 C 0.58926 0.55112 0.66397 0.0
C852 C 0.57748 0.54583 0.6814 0.0
C853 C 0.579 0.55334 0.67028 0.0
C854 C 0.5962 0.5335 0.67977 0.0
C855 C 0.58617 0.53594 0.68635 0.0
C856 C 0.59774 0.54106 0.66869 0.0
C857 C 0.60119 0.59327 0.61496 0.0
C858 C 0.62635 0.59907 0.61986 0.0
C859 C 0.61276 0.60223 0.59818 0.0
C860 C 0.6006 0.59705 0.60207 0.0
C861 C 0.6258 0.60375 0.60714 0.0
C862 C 0.61412 0.59385 0.62375 0.0
C863 C 0.58832 0.59043 0.61932 0.0
O864 O 0.55493 0.56798 0.63139 0.0
O865 O 0.56488 0.58742 0.64653 0.0
O866 O 0.58922 0.59684 0.63115 0.0
O867 O 0.58065 0.57639 0.61673 0.0
H868 H 0.55847 0.59602 0.61884 0.0
H869 H 0.54637 0.61488 0.60865 0.0
H870 H 0.51636 0.60379 0.63173 0.0
H871 H 0.529 0.58517 0.64229 0.0
H872 H 0.56975 0.54808 0.6863 0.0
H873 H 0.57235 0.56109 0.66674 0.0
H874 H 0.60289 0.52575 0.68317 0.0
H875 H 0.60567 0.53919 0.66389 0.0
H876 H 0.63621 0.59994 0.62694 0.0
H877 H 0.61189 0.60595 0.58839 0.0
H878 H 0.59071 0.59672 0.59519 0.0
H879 H 0.61477 0.5909 0.63375 0.0
C880 C 0.81923 0.47382 0.09451 0.0
C881 C 0.82999 0.48131 0.10535 0.0
C882 C 0.81727 0.46963 0.12058 0.0
C883 C 0.82899 0.47931 0.11824 0.0
C884 C 0.80631 0.46249 0.1097 0.0
C885 C 0.80729 0.46459 0.09677 0.0
U886 U 0.84417 0.47539 0.07352 0.0
O887 O 0.84365 0.46181 0.05528 0.0
O888 O 0.84675 0.48691 0.05589 0.0
C889 C 0.84452 0.47384 0.04854 0.0
C890 C 0.8213 0.474 0.08106 0.0
C891 C 0.83444 0.47226 0.03558 0.0
C892 C 0.81293 0.4594 0.0198 0.0
C893 C 0.82202 0.46101 0.03237 0.0
C894 C 0.82836 0.48051 0.01359 0.0
C895 C 0.81601 0.4691 0.01023 0.0
C896 C 0.83749 0.48202 0.02611 0.0
C897 C 0.88155 0.47701 0.09349 0.0
C898 C 0.89907 0.46722 0.08564 0.0
C899 C 0.90419 0.47865 0.10825 0.0
C900 C 0.89097 0.48168 0.10583 0.0
C901 C 0.90821 0.47082 0.09835 0.0
C902 C 0.88582 0.47028 0.08323 0.0
C903 C 0.86695 0.4773 0.09218 0.0
O904 O 0.82863 0.48689 0.07854 0.0
O905 O 0.825 0.46176 0.07695 0.0
O906 O 0.85809 0.46431 0.08719 0.0
O907 O 0.86281 0.48944 0.08763 0.0
H908 H 0.83945 0.48823 0.10388 0.0
H909 H 0.83772 0.48475 0.12636 0.0
H910 H 0.79713 0.45502 0.1112 0.0
H911 H 0.79895 0.45856 0.08853 0.0
H912 H 0.80361 0.45037 0.01752 0.0
H913 H 0.81938 0.45333 0.03949 0.0
H914 H 0.83096 0.48836 0.00658 0.0
H915 H 0.84699 0.49081 0.0284 0.0
H916 H 0.90192 0.46136 0.07776 0.0
H917 H 0.91084 0.48142 0.11819 0.0
H918 H 0.88781 0.48685 0.11386 0.0
H919 H 0.87866 0.46664 0.0736 0.0
C920 C 0.67072 0.7252 0.54122 0.0
C921 C 0.67118 0.73063 0.55419 0.0
C922 C 0.64687 0.73172 0.54741 0.0
C923 C 0.65939 0.73392 0.55723 0.0
C924 C 0.64681 0.72781 0.53422 0.0
C925 C 0.65865 0.7246 0.53116 0.0
U926 U 0.68876 0.69366 0.54978 0.0
O927 O 0.69258 0.675 0.53765 0.0
O928 O 0.70995 0.69031 0.55215 0.0
C929 C 0.70609 0.67921 0.54239 0.0
C930 C 0.68135 0.71719 0.53867 0.0
C931 C 0.71418 0.68035 0.53243 0.0
C932 C 0.72878 0.69522 0.52017 0.0
C933 C 0.72099 0.69459 0.52955 0.0
C934 C 0.72276 0.66745 0.51625 0.0
C935 C 0.72973 0.68164 0.51342 0.0
C936 C 0.7151 0.66683 0.52569 0.0
C937 C 0.67509 0.67137 0.5765 0.0
C938 C 0.67197 0.64417 0.57923 0.0
C939 C 0.66609 0.66135 0.59452 0.0
C940 C 0.67047 0.67373 0.58783 0.0
C941 C 0.66626 0.64632 0.59 0.0
C942 C 0.67633 0.65662 0.5725 0.0
C943 C 0.67644 0.68393 0.56807 0.0
O944 O 0.69262 0.71861 0.54836 0.0
O945 O 0.67627 0.70297 0.53326 0.0
O946 O 0.67099 0.68004 0.55536 0.0
O947 O 0.68838 0.69393 0.5708 0.0
H948 H 0.6803 0.73129 0.56221 0.0
H949 H 0.65985 0.73726 0.56744 0.0
H950 H 0.63733 0.72599 0.52643 0.0
H951 H 0.65802 0.72043 0.52108 0.0
H952 H 0.73395 0.70631 0.5181 0.0
H953 H 0.72033 0.7052 0.53456 0.0
H954 H 0.72344 0.65679 0.51133 0.0
H955 H 0.70992 0.65574 0.52778 0.0
H956 H 0.67244 0.63279 0.5756 0.0
H957 H 0.66161 0.66348 0.60264 0.0
H958 H 0.66938 0.68503 0.59101 0.0
H959 H 0.67994 0.6546 0.56378 0.0
C960 C 0.01704 0.12362 0.10211 0.0
C961 C 0.02204 0.12327 0.1158 0.0
H962 H 0.01037 0.13704 0.08645 0.0
C963 C 0.02278 0.1362 0.12436 0.0
H964 H 0.01612 0.11375 0.09526 0.0
C965 C 0.01948 0.14951 0.11933 0.0
C966 C 0.01536 0.15021 0.1056 0.0
H967 H 0.02674 0.13639 0.13495 0.0
H968 H 0.02099 0.15956 0.12618 0.0
C969 C 0.01375 0.13695 0.09707 0.0
C970 C 0.1769 0.85275 0.39186 0.0
C971 C 0.18722 0.85602 0.38494 0.0
H972 H 0.15562 0.84327 0.39078 0.0
C973 C 0.18412 0.85003 0.37162 0.0
H974 H 0.17886 0.85733 0.40207 0.0
C975 C 0.17073 0.84196 0.36511 0.0
C976 C 0.16016 0.83969 0.37179 0.0
H977 H 0.19192 0.85213 0.36608 0.0
H978 H 0.16852 0.83802 0.35471 0.0
C979 C 0.16353 0.84467 0.38536 0.0
C980 C 0.43628 0.88635 0.7057 0.0
C981 C 0.43466 0.87375 0.69642 0.0
H982 H 0.4263 0.90061 0.71536 0.0
C983 C 0.42133 0.86444 0.69119 0.0
H984 H 0.44643 0.89362 0.71009 0.0
C985 C 0.4098 0.86832 0.69437 0.0
C986 C 0.41131 0.88163 0.7028 0.0
H987 H 0.41965 0.8547 0.68396 0.0
H988 H 0.39962 0.86125 0.68974 0.0
C989 C 0.42474 0.89026 0.70884 0.0
C990 C 0.39673 0.19055 0.94314 0.0
C991 C 0.40049 0.20583 0.94042 0.0
H992 H 0.38033 0.17154 0.94343 0.0
C993 C 0.39003 0.21402 0.93646 0.0
H994 H 0.40447 0.1838 0.94597 0.0
C995 C 0.37608 0.20689 0.93496 0.0
C996 C 0.3724 0.19141 0.93717 0.0
H997 H 0.39262 0.22581 0.93431 0.0
H998 H 0.36815 0.21327 0.93161 0.0
C999 C 0.38288 0.18344 0.94152 0.0
C1000 C 0.05138 0.88347 0.32199 0.0
C1001 C 0.05306 0.87153 0.31369 0.0
H1002 H 0.05448 0.90772 0.32652 0.0
C1003 C 0.05765 0.87516 0.30235 0.0
H1004 H 0.04793 0.88111 0.33084 0.0
C1005 C 0.0616 0.89046 0.29999 0.0
C1006 C 0.06101 0.90245 0.30889 0.0
H1007 H 0.05885 0.86621 0.29564 0.0
H1008 H 0.06599 0.89286 0.29166 0.0
C1009 C 0.0553 0.89876 0.3196 0.0
C1010 C 0.42025 0.94931 0.59776 0.0
C1011 C 0.42069 0.9646 0.60203 0.0
H1012 H 0.42957 0.93004 0.60081 0.0
C1013 C 0.43261 0.97303 0.61131 0.0
H1014 H 0.41119 0.94241 0.59074 0.0
C1015 C 0.44322 0.96588 0.61713 0.0
C1016 C 0.44211 0.95017 0.61378 0.0
H1017 H 0.43338 0.98492 0.61461 0.0
H1018 H 0.45191 0.97242 0.62479 0.0
C1019 C 0.43084 0.94218 0.60357 0.0
C1020 C 0.42666 0.08898 0.93598 0.0
C1021 C 0.42934 0.09917 0.92664 0.0
H1022 H 0.41458 0.06778 0.93953 0.0
C1023 C 0.42307 0.09447 0.91317 0.0
H1024 H 0.43153 0.09214 0.94642 0.0
C1025 C 0.41341 0.08054 0.90923 0.0
C1026 C 0.40978 0.07099 0.91868 0.0
H1027 H 0.42475 0.10207 0.9057 0.0
H1028 H 0.40799 0.07788 0.89887 0.0
C1029 C 0.41697 0.07504 0.93204 0.0
C1030 C 0.12149 0.23636 0.04284 0.0
C1031 C 0.13235 0.2307 0.05059 0.0
H1032 H 0.1003 0.23834 0.03963 0.0
C1033 C 0.13014 0.22314 0.06159 0.0
H1034 H 0.12289 0.24227 0.03432 0.0
C1035 C 0.11732 0.22086 0.06456 0.0
C1036 C 0.10634 0.22611 0.05663 0.0
H1037 H 0.13818 0.2184 0.06765 0.0
H1038 H 0.11592 0.21477 0.07299 0.0
C1039 C 0.10861 0.23418 0.0459 0.0
C1040 C 0.13556 0.10977 0.08784 0.0
C1041 C 0.13488 0.11125 0.10108 0.0
H1042 H 0.14507 0.11914 0.07306 0.0
C1043 C 0.14537 0.12199 0.11018 0.0
H1044 H 0.12782 0.10139 0.08063 0.0
C1045 C 0.15549 0.132 0.10589 0.0
C1046 C 0.15527 0.13157 0.0924 0.0
H1047 H 0.1452 0.12347 0.12046 0.0
H1048 H 0.16298 0.14068 0.11303 0.0
C1049 C 0.1456 0.11984 0.08353 0.0
C1050 C 0.18195 0.99019 0.33049 0.0
C1051 C 0.17172 0.99511 0.33547 0.0
H1052 H 0.1992 0.97938 0.33427 0.0
C1053 C 0.17226 0.99441 0.34897 0.0
H1054 H 0.18183 0.99049 0.32014 0.0
C1055 C 0.1821 0.9878 0.35703 0.0
C1056 C 0.19166 0.9818 0.35178 0.0
H1057 H 0.16467 0.99833 0.35317 0.0
H1058 H 0.18163 0.98654 0.36715 0.0
C1059 C 0.19183 0.98364 0.33856 0.0
C1060 C 0.31421 0.94691 0.64933 0.0
C1061 C 0.31996 0.95846 0.65996 0.0
H1062 H 0.3086 0.94131 0.62834 0.0
C1063 C 0.3231 0.97382 0.65723 0.0
H1064 H 0.3118 0.93495 0.65107 0.0
C1065 C 0.32127 0.97747 0.6442 0.0
C1066 C 0.31623 0.96584 0.63358 0.0
H1067 H 0.32729 0.98302 0.6652 0.0
H1068 H 0.32413 0.98938 0.64244 0.0
C1069 C 0.31236 0.95056 0.63628 0.0
C1070 C 0.27988 0.07055 0.89659 0.0
C1071 C 0.27922 0.0706 0.90985 0.0
H1072 H 0.28458 0.05901 0.88041 0.0
C1073 C 0.28139 0.05769 0.91651 0.0
H1074 H 0.27842 0.08036 0.89121 0.0
C1075 C 0.28495 0.04545 0.91031 0.0
C1076 C 0.28639 0.04581 0.89731 0.0
H1077 H 0.28069 0.05722 0.92664 0.0
H1078 H 0.28695 0.03588 0.91584 0.0
C1079 C 0.28342 0.05829 0.89038 0.0
C1080 C 0.68368 0.35024 0.8706 0.0
C1081 C 0.68688 0.35612 0.88396 0.0
H1082 H 0.66795 0.3384 0.8537 0.0
C1083 C 0.67662 0.35283 0.89094 0.0
H1084 H 0.69142 0.35234 0.86501 0.0
C1085 C 0.66321 0.34484 0.88448 0.0
C1086 C 0.65974 0.33996 0.87089 0.0
H1087 H 0.67867 0.35734 0.90119 0.0
H1088 H 0.65535 0.34342 0.88996 0.0
C1089 C 0.67025 0.34226 0.86413 0.0
C1090 C 0.91971 0.36206 0.19173 0.0
C1091 C 0.93302 0.37146 0.19683 0.0
H1092 H 0.89804 0.35873 0.19053 0.0
C1093 C 0.93469 0.38402 0.20616 0.0
H1094 H 0.918 0.35234 0.18448 0.0
C1095 C 0.92318 0.38785 0.20945 0.0
C1096 C 0.90975 0.37915 0.20353 0.0
H1097 H 0.94483 0.39136 0.21044 0.0
H1098 H 0.92477 0.39819 0.21598 0.0
C1099 C 0.90822 0.36585 0.19507 0.0
C1100 C 0.88825 0.71556 0.43462 0.0
C1101 C 0.8987 0.70742 0.43878 0.0
H1102 H 0.86634 0.71467 0.42924 0.0
C1103 C 0.8949 0.69207 0.44132 0.0
H1104 H 0.89088 0.7274 0.43259 0.0
C1105 C 0.88102 0.68485 0.43931 0.0
C1106 C 0.87055 0.69279 0.43477 0.0
H1107 H 0.90264 0.68536 0.4443 0.0
H1108 H 0.87843 0.6729 0.44106 0.0
C1109 C 0.87426 0.70833 0.43274 0.0
C1110 C 0.91496 0.5821 0.41314 0.0
C1111 C 0.9109 0.57296 0.42267 0.0
H1112 H 0.92639 0.60345 0.40938 0.0
C1113 C 0.91743 0.57761 0.4361 0.0
H1114 H 0.91004 0.57897 0.40271 0.0
C1115 C 0.9269 0.59173 0.43996 0.0
C1116 C 0.93 0.60149 0.43045 0.0
H1117 H 0.91471 0.57069 0.44367 0.0
H1118 H 0.93126 0.59534 0.4504 0.0
C1119 C 0.92439 0.5962 0.41698 0.0
C1120 C 0.5607 0.39117 0.80038 0.0
C1121 C 0.56055 0.40313 0.80954 0.0
H1122 H 0.55752 0.36691 0.79573 0.0
C1123 C 0.55515 0.39942 0.82043 0.0
H1124 H 0.56483 0.39359 0.7919 0.0
C1125 C 0.55113 0.38411 0.82271 0.0
C1126 C 0.55239 0.37217 0.81414 0.0
H1127 H 0.55467 0.40837 0.82755 0.0
H1128 H 0.54795 0.38171 0.83169 0.0
C1129 C 0.55664 0.37586 0.80264 0.0
C1130 C 0.52373 0.6275 0.60123 0.0
C1131 C 0.52406 0.62376 0.61417 0.0
H1132 H 0.52121 0.64413 0.58747 0.0
C1133 C 0.51979 0.63345 0.6226 0.0
H1134 H 0.52662 0.62013 0.59435 0.0
C1135 C 0.51627 0.64707 0.6185 0.0
C1136 C 0.5171 0.65145 0.60595 0.0
H1137 H 0.51992 0.631 0.63264 0.0
H1138 H 0.51344 0.65447 0.6254 0.0
C1139 C 0.5204 0.64121 0.5972 0.0
C1140 C 0.93036 0.44154 0.10358 0.0
C1141 C 0.94166 0.44928 0.11388 0.0
H1142 H 0.91094 0.44229 0.0906 0.0
C1143 C 0.94309 0.46505 0.11725 0.0
H1144 H 0.92885 0.42937 0.10081 0.0
C1145 C 0.93276 0.47252 0.11134 0.0
C1146 C 0.92079 0.46437 0.10197 0.0
H1147 H 0.95181 0.47139 0.12499 0.0
H1148 H 0.93377 0.48447 0.11465 0.0
C1149 C 0.92005 0.44899 0.09769 0.0
C1150 C 0.61841 0.72115 0.56496 0.0
C1151 C 0.60757 0.7267 0.55714 0.0
H1152 H 0.63919 0.71838 0.56801 0.0
C1153 C 0.61 0.735 0.54657 0.0
H1154 H 0.6169 0.71489 0.57327 0.0
C1155 C 0.62291 0.73712 0.54356 0.0
C1156 C 0.63363 0.73117 0.55121 0.0
H1157 H 0.6018 0.7394 0.54039 0.0
H1158 H 0.62443 0.74322 0.53517 0.0
C1159 C 0.63126 0.72336 0.56204 0.0
C1160 C 0.64827 0.62338 0.61274 0.0
C1161 C 0.63846 0.612 0.60363 0.0
H1162 H 0.66515 0.6429 0.61568 0.0
C1163 C 0.63978 0.61027 0.59061 0.0
H1164 H 0.6476 0.62506 0.62286 0.0
C1165 C 0.64968 0.62071 0.58643 0.0
C1166 C 0.65856 0.63305 0.59522 0.0
H1167 H 0.63259 0.60141 0.58341 0.0
H1168 H 0.64958 0.61977 0.57606 0.0
C1169 C 0.65825 0.63375 0.60859 0.0
C1170 C 0.68321 0.4877 0.85598 0.0
C1171 C 0.69262 0.48162 0.85057 0.0
H1172 H 0.66578 0.49822 0.85238 0.0
C1173 C 0.6925 0.4833 0.83726 0.0
H1174 H 0.68295 0.48656 0.86617 0.0
C1175 C 0.68249 0.48978 0.8293 0.0
C1176 C 0.67241 0.49478 0.83447 0.0
H1177 H 0.69975 0.47897 0.83284 0.0
H1178 H 0.68215 0.48995 0.81889 0.0
C1179 C 0.67324 0.49423 0.84803 0.0
C1180 C 0.82247 0.47769 0.14491 0.0
C1181 C 0.81717 0.46609 0.13428 0.0
H1182 H 0.82865 0.48321 0.16591 0.0
C1183 C 0.81303 0.45086 0.13697 0.0
H1184 H 0.82554 0.48957 0.14315 0.0
C1185 C 0.81485 0.4472 0.15001 0.0
C1186 C 0.82085 0.4587 0.16065 0.0
H1187 H 0.80906 0.44163 0.12901 0.0
H1188 H 0.81222 0.43525 0.15174 0.0
C1189 C 0.82427 0.47404 0.15794 0.0
C1190 C 0.78308 0.55668 0.38605 0.0
C1191 C 0.78683 0.54541 0.39419 0.0
H1192 H 0.77667 0.57803 0.38472 0.0
C1193 C 0.78566 0.54657 0.4073 0.0
H1194 H 0.78396 0.55623 0.37595 0.0
C1195 C 0.78161 0.55917 0.41237 0.0
C1196 C 0.77867 0.5709 0.40444 0.0
H1197 H 0.78833 0.53799 0.41378 0.0
H1198 H 0.78149 0.5601 0.42269 0.0
C1199 C 0.77905 0.56928 0.39112 0.0
C1200 C 0.01092 0.31312 0.0896 0.0
C1201 C 0.01623 0.30272 0.09788 0.0
H1202 H 0.00154 0.3325 0.08794 0.0
C1203 C 0.01609 0.30413 0.11127 0.0
H1204 H 0.01069 0.31218 0.07919 0.0
C1205 C 0.01092 0.31584 0.11632 0.0
C1206 C 0.00574 0.32636 0.10807 0.0
H1207 H 0.02027 0.2964 0.11794 0.0
H1208 H 0.01126 0.31684 0.12675 0.0
C1209 C 0.00571 0.32478 0.09463 0.0
C1210 C 0.04379 0.73495 0.394 0.0
C1211 C 0.04057 0.74826 0.38866 0.0
H1212 H 0.03736 0.7153 0.40366 0.0
C1213 C 0.02775 0.75168 0.38886 0.0
H1214 H 0.0535 0.73186 0.39387 0.0
C1215 C 0.01839 0.74204 0.3943 0.0
C1216 C 0.02163 0.72875 0.39968 0.0
H1217 H 0.025 0.76193 0.38497 0.0
H1218 H 0.00854 0.74492 0.39416 0.0
C1219 C 0.03445 0.72534 0.39947 0.0
C1220 C 0.5123 0.81481 0.58912 0.0
C1221 C 0.51754 0.80433 0.59734 0.0
H1222 H 0.50303 0.83428 0.58755 0.0
C1223 C 0.51744 0.80571 0.61075 0.0
H1224 H 0.51205 0.8139 0.57871 0.0
C1225 C 0.51235 0.81745 0.61585 0.0
C1226 C 0.50721 0.82803 0.60765 0.0
H1227 H 0.52159 0.79793 0.61738 0.0
H1228 H 0.51271 0.81841 0.62629 0.0
C1229 C 0.50716 0.82651 0.5942 0.0
C1230 C 0.51874 0.24128 0.89376 0.0
C1231 C 0.52208 0.22793 0.89891 0.0
H1232 H 0.52521 0.26144 0.88468 0.0
C1233 C 0.53494 0.22469 0.8986 0.0
H1234 H 0.50886 0.24404 0.89371 0.0
C1235 C 0.54421 0.23453 0.89323 0.0
C1236 C 0.54088 0.24789 0.88809 0.0
H1237 H 0.53792 0.21459 0.90262 0.0
H1238 H 0.55395 0.23157 0.893 0.0
C1239 C 0.52803 0.25116 0.88842 0.0
C1240 C 0.07152 0.01614 0.21218 0.0
C1241 C 0.08353 0.01495 0.22165 0.0
H1242 H 0.06306 0.02395 0.19365 0.0
C1243 C 0.09655 0.02131 0.21956 0.0
H1244 H 0.06133 0.01149 0.21355 0.0
C1245 C 0.09754 0.02863 0.20825 0.0
C1246 C 0.08554 0.02973 0.19873 0.0
H1247 H 0.10601 0.02043 0.22656 0.0
H1248 H 0.10774 0.03353 0.20703 0.0
C1249 C 0.07251 0.02343 0.20084 0.0
C1250 C 0.28427 0.95508 0.48181 0.0
C1251 C 0.28794 0.96385 0.47191 0.0
H1252 H 0.29031 0.94952 0.5017 0.0
C1253 C 0.30092 0.97414 0.47484 0.0
H1254 H 0.27428 0.94717 0.47991 0.0
C1255 C 0.31004 0.9756 0.48736 0.0
C1256 C 0.30639 0.96681 0.49725 0.0
H1257 H 0.30412 0.98096 0.4674 0.0
H1258 H 0.31992 0.98371 0.48932 0.0
C1259 C 0.29338 0.95656 0.49434 0.0
C1260 C 0.34798 0.94362 0.81615 0.0
C1261 C 0.34663 0.95895 0.81644 0.0
H1262 H 0.34985 0.92405 0.80465 0.0
C1263 C 0.34547 0.96612 0.80471 0.0
H1264 H 0.3487 0.93771 0.82499 0.0
C1265 C 0.3462 0.95833 0.79308 0.0
C1266 C 0.34808 0.94318 0.79289 0.0
H1267 H 0.34462 0.97799 0.80464 0.0
H1268 H 0.3459 0.96445 0.78438 0.0
C1269 C 0.34867 0.93581 0.8045 0.0
C1270 C 0.23408 0.1833 0.99126 0.0
C1271 C 0.24039 0.18734 0.00482 0.0
H1272 H 0.23703 0.17967 0.97185 0.0
C1273 C 0.25491 0.19162 0.00906 0.0
H1274 H 0.22291 0.17985 0.9877 0.0
C1275 C 0.26298 0.19146 1.00001 0.0
C1276 C 0.2567 0.18696 0.98651 0.0
H1277 H 0.26006 0.19494 0.01942 0.0
H1278 H 0.27416 0.19439 0.00366 0.0
C1279 C 0.24216 0.18306 0.98221 0.0
C1280 C 0.80281 0.46751 0.97292 0.0
C1281 C 0.78839 0.4637 0.97118 0.0
H1282 H 0.82281 0.47181 0.98651 0.0
C1283 C 0.78308 0.46166 0.98233 0.0
H1284 H 0.80719 0.46896 0.96448 0.0
C1285 C 0.79202 0.46347 0.99499 0.0
C1286 C 0.80647 0.46724 0.99677 0.0
H1287 H 0.772 0.45891 0.9813 0.0
H1288 H 0.78757 0.46212 0.00339 0.0
C1289 C 0.81175 0.46919 0.98556 0.0
C1290 C 0.84891 0.44027 0.30481 0.0
C1291 C 0.85094 0.44751 0.2936 0.0
H1292 H 0.84799 0.44309 0.32501 0.0
C1293 C 0.85286 0.46356 0.29414 0.0
H1294 H 0.84728 0.4279 0.30466 0.0
C1295 C 0.85322 0.47222 0.30574 0.0
C1296 C 0.85163 0.46503 0.31707 0.0
H1297 H 0.8546 0.46953 0.28574 0.0
H1298 H 0.85496 0.48459 0.30589 0.0
C1299 C 0.84919 0.44894 0.31642 0.0
C1300 C 0.7331 0.67276 0.49159 0.0
C1301 C 0.73819 0.68214 0.50366 0.0
H1302 H 0.73715 0.66505 0.47355 0.0
C1303 C 0.75162 0.69146 0.50657 0.0
H1304 H 0.7227 0.66564 0.48899 0.0
C1305 C 0.75996 0.69102 0.49779 0.0
C1306 C 0.75502 0.68133 0.48586 0.0
H1307 H 0.75585 0.69868 0.51586 0.0
H1308 H 0.77045 0.6979 0.50057 0.0
C1309 C 0.7414 0.6724 0.48277 0.0
C1310 C 0.57197 0.52258 0.7008 0.0
C1311 C 0.585 0.52845 0.69851 0.0
H1312 H 0.56078 0.51121 0.71375 0.0
C1313 C 0.59698 0.52719 0.70799 0.0
H1314 H 0.56253 0.52325 0.69365 0.0
C1315 C 0.59597 0.52013 0.7194 0.0
C1316 C 0.58295 0.5142 0.72168 0.0
H1317 H 0.60719 0.53178 0.70664 0.0
H1318 H 0.60542 0.51912 0.72636 0.0
C1319 C 0.57096 0.51553 0.71225 0.0
loop_
_geom_bond_atom_site_label_1
_geom_bond_atom_site_label_2
_geom_bond_distance
_geom_bond_site_symmetry_2
_ccdc_geom_bond_type
C0 C1 1.264 . S
C0 C5 1.479 1_455 S
C0 C10 1.465 . S
C1 C0 1.264 . S
C1 C3 1.339 . S
C1 H28 0.931 . S
C2 C3 1.395 . S
C2 C4 1.320 1_455 S
C3 C1 1.339 . S
C3 C2 1.395 . S
C3 H29 0.929 . S
C4 C2 1.320 1_655 S
C4 C5 1.405 . S
C4 H30 0.930 . S
C5 C0 1.479 1_655 S
C5 C4 1.405 . S
C5 H31 0.931 . S
U6 O7 2.454 . S
U6 O8 2.458 . S
U6 C9 2.984 . S
U6 C10 2.847 . S
U6 C23 2.882 . S
U6 O24 2.441 . S
U6 O25 2.420 . S
U6 O26 2.455 . S
U6 O27 2.449 . S
O7 U6 2.454 . S
O7 C9 1.353 . S
O8 U6 2.458 . S
O8 C9 1.286 . S
C9 U6 2.984 . S
C9 O7 1.353 . S
C9 O8 1.286 . S
C9 C11 1.363 . S
C10 C0 1.465 . S
C10 U6 2.847 . S
C10 O24 1.249 . S
C10 O25 1.202 . S
C11 C9 1.363 . S
C11 C13 1.408 1_455 S
C11 C16 1.342 . S
C12 C13 1.310 . S
C12 C15 1.461 . S
C12 H32 0.932 . S
C13 C11 1.408 1_655 S
C13 C12 1.310 . S
C13 H33 0.930 . S
C14 C15 1.474 1_455 S
C14 C16 1.285 . S
C14 H34 0.929 . S
C15 C12 1.461 . S
C15 C14 1.474 1_655 S
C16 C11 1.342 . S
C16 C14 1.285 . S
C16 H35 0.930 . S
C17 C20 1.424 . S
C17 C22 1.245 . S
C17 C23 1.428 . S
C18 C21 1.260 . S
C18 C22 1.477 . S
C18 H36 0.932 . S
C19 C20 1.384 . S
C19 C21 1.479 . S
C19 H37 0.929 . S
C20 C17 1.424 . S
C20 C19 1.384 . S
C20 H38 0.928 . S
C21 C18 1.260 . S
C21 C19 1.479 . S
C22 C17 1.245 . S
C22 C18 1.477 . S
C22 H39 0.932 . S
C23 U6 2.882 . S
C23 C17 1.428 . S
C23 O26 1.301 . S
C23 O27 1.282 . S
O24 U6 2.441 . S
O24 C10 1.249 . S
O25 U6 2.420 . S
O25 C10 1.202 . S
O26 U6 2.455 . S
O26 C23 1.301 . S
O27 U6 2.449 . S
O27 C23 1.282 . S
H28 C1 0.931 . S
H29 C3 0.929 . S
H30 C4 0.930 . S
H31 C5 0.931 . S
H32 C12 0.932 . S
H33 C13 0.930 . S
H34 C14 0.929 . S
H35 C16 0.930 . S
H36 C18 0.932 . S
H37 C19 0.929 . S
H38 C20 0.928 . S
H39 C22 0.932 . S
C40 C41 1.264 . S
C40 C45 1.479 . S
C40 C50 1.465 . S
C41 C40 1.264 . S
C41 C43 1.339 . S
C41 H68 0.931 . S
C42 C43 1.395 . S
C42 C44 1.320 . S
C43 C41 1.339 . S
C43 C42 1.395 . S
C43 H69 0.929 . S
C44 C42 1.320 . S
C44 C45 1.405 . S
C44 H70 0.930 . S
C45 C40 1.479 . S
C45 C44 1.405 . S
C45 H71 0.931 . S
U46 O47 2.454 . S
U46 O48 2.458 . S
U46 C49 2.984 . S
U46 C50 2.847 . S
U46 C63 2.882 . S
U46 O64 2.441 . S
U46 O65 2.420 . S
U46 O66 2.455 . S
U46 O67 2.449 . S
O47 U46 2.454 . S
O47 C49 1.353 . S
O48 U46 2.458 . S
O48 C49 1.286 . S
C49 U46 2.984 . S
C49 O47 1.353 . S
C49 O48 1.286 . S
C49 C51 1.363 . S
C50 C40 1.465 . S
C50 U46 2.847 . S
C50 O64 1.249 . S
C50 O65 1.202 . S
C51 C49 1.363 . S
C51 C53 1.408 . S
C51 C56 1.342 . S
C52 C53 1.310 . S
C52 C55 1.461 . S
C52 H72 0.932 . S
C53 C51 1.408 . S
C53 C52 1.310 . S
C53 H73 0.930 . S
C54 C55 1.474 . S
C54 C56 1.285 . S
C54 H74 0.929 . S
C55 C52 1.461 . S
C55 C54 1.474 . S
C56 C51 1.342 . S
C56 C54 1.285 . S
C56 H75 0.930 . S
C57 C60 1.424 . S
C57 C62 1.245 . S
C57 C63 1.428 . S
C58 C61 1.260 . S
C58 C62 1.477 . S
C58 H76 0.932 . S
C59 C60 1.384 . S
C59 C61 1.479 . S
C59 H77 0.929 . S
C60 C57 1.424 . S
C60 C59 1.384 . S
C60 H78 0.928 . S
C61 C58 1.260 . S
C61 C59 1.479 . S
C62 C57 1.245 . S
C62 C58 1.477 . S
C62 H79 0.932 . S
C63 U46 2.882 . S
C63 C57 1.428 . S
C63 O66 1.301 . S
C63 O67 1.282 . S
O64 U46 2.441 . S
O64 C50 1.249 . S
O65 U46 2.420 . S
O65 C50 1.202 . S
O66 U46 2.455 . S
O66 C63 1.301 . S
O67 U46 2.449 . S
O67 C63 1.282 . S
H68 C41 0.931 . S
H69 C43 0.929 . S
H70 C44 0.930 . S
H71 C45 0.931 . S
H72 C52 0.932 . S
H73 C53 0.930 . S
H74 C54 0.929 . S
H75 C56 0.930 . S
H76 C58 0.932 . S
H77 C59 0.929 . S
H78 C60 0.928 . S
H79 C62 0.932 . S
C80 C81 1.264 . S
C80 C85 1.479 . S
C80 C90 1.465 . S
C81 C80 1.264 . S
C81 C83 1.339 . S
C81 H108 0.931 . S
C82 C83 1.395 . S
C82 C84 1.320 . S
C83 C81 1.339 . S
C83 C82 1.395 . S
C83 H109 0.929 . S
C84 C82 1.320 . S
C84 C85 1.405 . S
C84 H110 0.930 . S
C85 C80 1.479 . S
C85 C84 1.405 . S
C85 H111 0.931 . S
U86 O87 2.454 . S
U86 O88 2.458 . S
U86 C89 2.984 . S
U86 C90 2.847 . S
U86 C103 2.882 . S
U86 O104 2.441 . S
U86 O105 2.420 . S
U86 O106 2.455 . S
U86 O107 2.449 . S
O87 U86 2.454 . S
O87 C89 1.353 . S
O88 U86 2.458 . S
O88 C89 1.286 . S
C89 U86 2.984 . S
C89 O87 1.353 . S
C89 O88 1.286 . S
C89 C91 1.363 . S
C90 C80 1.465 . S
C90 U86 2.847 . S
C90 O104 1.249 . S
C90 O105 1.202 . S
C91 C89 1.363 . S
C91 C93 1.408 . S
C91 C96 1.342 . S
C92 C93 1.310 . S
C92 C95 1.461 . S
C92 H112 0.932 . S
C93 C91 1.408 . S
C93 C92 1.310 . S
C93 H113 0.930 . S
C94 C95 1.474 . S
C94 C96 1.285 . S
C94 H114 0.929 . S
C95 C92 1.461 . S
C95 C94 1.474 . S
C96 C91 1.342 . S
C96 C94 1.285 . S
C96 H115 0.930 . S
C97 C100 1.424 . S
C97 C102 1.245 . S
C97 C103 1.428 . S
C98 C101 1.260 . S
C98 C102 1.477 . S
C98 H116 0.932 . S
C99 C100 1.384 . S
C99 C101 1.479 . S
C99 H117 0.929 . S
C100 C97 1.424 . S
C100 C99 1.384 . S
C100 H118 0.928 . S
C101 C98 1.260 . S
C101 C99 1.479 . S
C102 C97 1.245 . S
C102 C98 1.477 . S
C102 H119 0.932 . S
C103 U86 2.882 . S
C103 C97 1.428 . S
C103 O106 1.301 . S
C103 O107 1.282 . S
O104 U86 2.441 . S
O104 C90 1.249 . S
O105 U86 2.420 . S
O105 C90 1.202 . S
O106 U86 2.455 . S
O106 C103 1.301 . S
O107 U86 2.449 . S
O107 C103 1.282 . S
H108 C81 0.931 . S
H109 C83 0.929 . S
H110 C84 0.930 . S
H111 C85 0.931 . S
H112 C92 0.932 . S
H113 C93 0.930 . S
H114 C94 0.929 . S
H115 C96 0.930 . S
H116 C98 0.932 . S
H117 C99 0.929 . S
H118 C100 0.928 . S
H119 C102 0.932 . S
C120 C121 1.264 . S
C120 C125 1.479 . S
C120 C130 1.465 . S
C121 C120 1.264 . S
C121 C123 1.339 . S
C121 H148 0.931 . S
C122 C123 1.395 . S
C122 C124 1.320 . S
C123 C121 1.339 . S
C123 C122 1.395 . S
C123 H149 0.929 . S
C124 C122 1.320 . S
C124 C125 1.405 . S
C124 H150 0.930 . S
C125 C120 1.479 . S
C125 C124 1.405 . S
C125 H151 0.931 . S
U126 O127 2.454 . S
U126 O128 2.458 . S
U126 C129 2.984 . S
U126 C130 2.847 . S
U126 C143 2.882 . S
U126 O144 2.441 . S
U126 O145 2.420 . S
U126 O146 2.455 . S
U126 O147 2.449 . S
O127 U126 2.454 . S
O127 C129 1.353 . S
O128 U126 2.458 . S
O128 C129 1.286 . S
C129 U126 2.984 . S
C129 O127 1.353 . S
C129 O128 1.286 . S
C129 C131 1.363 . S
C130 C120 1.465 . S
C130 U126 2.847 . S
C130 O144 1.249 . S
C130 O145 1.202 . S
C131 C129 1.363 . S
C131 C133 1.408 . S
C131 C136 1.342 . S
C132 C133 1.310 . S
C132 C135 1.461 . S
C132 H152 0.932 . S
C133 C131 1.408 . S
C133 C132 1.310 . S
C133 H153 0.930 . S
C134 C135 1.474 . S
C134 C136 1.285 . S
C134 H154 0.929 . S
C135 C132 1.461 . S
C135 C134 1.474 . S
C136 C131 1.342 . S
C136 C134 1.285 . S
C136 H155 0.930 . S
C137 C140 1.424 . S
C137 C142 1.245 . S
C137 C143 1.428 . S
C138 C141 1.260 . S
C138 C142 1.477 . S
C138 H156 0.932 . S
C139 C140 1.384 . S
C139 C141 1.479 . S
C139 H157 0.929 . S
C140 C137 1.424 . S
C140 C139 1.384 . S
C140 H158 0.928 . S
C141 C138 1.260 . S
C141 C139 1.479 . S
C142 C137 1.245 . S
C142 C138 1.477 . S
C142 H159 0.932 . S
C143 U126 2.882 . S
C143 C137 1.428 . S
C143 O146 1.301 . S
C143 O147 1.282 . S
O144 U126 2.441 . S
O144 C130 1.249 . S
O145 U126 2.420 . S
O145 C130 1.202 . S
O146 U126 2.455 . S
O146 C143 1.301 . S
O147 U126 2.449 . S
O147 C143 1.282 . S
H148 C121 0.931 . S
H149 C123 0.929 . S
H150 C124 0.930 . S
H151 C125 0.931 . S
H152 C132 0.932 . S
H153 C133 0.930 . S
H154 C134 0.929 . S
H155 C136 0.930 . S
H156 C138 0.932 . S
H157 C139 0.929 . S
H158 C140 0.928 . S
H159 C142 0.932 . S
C160 C161 1.264 . S
C160 C165 1.479 . S
C160 C170 1.465 . S
C161 C160 1.264 . S
C161 C163 1.339 . S
C161 H188 0.931 . S
C162 C163 1.395 . S
C162 C164 1.320 . S
C163 C161 1.339 . S
C163 C162 1.395 . S
C163 H189 0.929 . S
C164 C162 1.320 . S
C164 C165 1.405 . S
C164 H190 0.930 . S
C165 C160 1.479 . S
C165 C164 1.405 . S
C165 H191 0.931 . S
U166 O167 2.454 . S
U166 O168 2.458 . S
U166 C169 2.984 . S
U166 C170 2.847 . S
U166 C183 2.882 . S
U166 O184 2.441 . S
U166 O185 2.420 . S
U166 O186 2.455 . S
U166 O187 2.449 . S
O167 U166 2.454 . S
O167 C169 1.353 . S
O168 U166 2.458 . S
O168 C169 1.286 . S
C169 U166 2.984 . S
C169 O167 1.353 . S
C169 O168 1.286 . S
C169 C171 1.363 . S
C170 C160 1.465 . S
C170 U166 2.847 . S
C170 O184 1.249 . S
C170 O185 1.202 . S
C171 C169 1.363 . S
C171 C173 1.408 . S
C171 C176 1.342 . S
C172 C173 1.310 . S
C172 C175 1.461 . S
C172 H192 0.932 . S
C173 C171 1.408 . S
C173 C172 1.310 . S
C173 H193 0.930 . S
C174 C175 1.474 . S
C174 C176 1.285 . S
C174 H194 0.929 . S
C175 C172 1.461 . S
C175 C174 1.474 . S
C176 C171 1.342 . S
C176 C174 1.285 . S
C176 H195 0.930 . S
C177 C180 1.424 . S
C177 C182 1.245 . S
C177 C183 1.428 . S
C178 C181 1.260 . S
C178 C182 1.477 . S
C178 H196 0.932 . S
C179 C180 1.384 . S
C179 C181 1.479 . S
C179 H197 0.929 . S
C180 C177 1.424 . S
C180 C179 1.384 . S
C180 H198 0.928 . S
C181 C178 1.260 . S
C181 C179 1.479 . S
C182 C177 1.245 . S
C182 C178 1.477 . S
C182 H199 0.932 . S
C183 U166 2.882 . S
C183 C177 1.428 . S
C183 O186 1.301 . S
C183 O187 1.282 . S
O184 U166 2.441 . S
O184 C170 1.249 . S
O185 U166 2.420 . S
O185 C170 1.202 . S
O186 U166 2.455 . S
O186 C183 1.301 . S
O187 U166 2.449 . S
O187 C183 1.282 . S
H188 C161 0.931 . S
H189 C163 0.929 . S
H190 C164 0.930 . S
H191 C165 0.931 . S
H192 C172 0.932 . S
H193 C173 0.930 . S
H194 C174 0.929 . S
H195 C176 0.930 . S
H196 C178 0.932 . S
H197 C179 0.929 . S
H198 C180 0.928 . S
H199 C182 0.932 . S
C200 C201 1.264 . S
C200 C205 1.479 . S
C200 C210 1.465 . S
C201 C200 1.264 . S
C201 C203 1.339 . S
C201 H228 0.931 . S
C202 C203 1.395 . S
C202 C204 1.320 . S
C203 C201 1.339 . S
C203 C202 1.395 . S
C203 H229 0.929 . S
C204 C202 1.320 . S
C204 C205 1.405 . S
C204 H230 0.930 . S
C205 C200 1.479 . S
C205 C204 1.405 . S
C205 H231 0.931 . S
U206 O207 2.454 . S
U206 O208 2.458 . S
U206 C209 2.984 . S
U206 C210 2.847 . S
U206 C223 2.882 . S
U206 O224 2.441 . S
U206 O225 2.420 . S
U206 O226 2.455 . S
U206 O227 2.449 . S
O207 U206 2.454 . S
O207 C209 1.353 . S
O208 U206 2.458 . S
O208 C209 1.286 . S
C209 U206 2.984 . S
C209 O207 1.353 . S
C209 O208 1.286 . S
C209 C211 1.363 . S
C210 C200 1.465 . S
C210 U206 2.847 . S
C210 O224 1.249 . S
C210 O225 1.202 . S
C211 C209 1.363 . S
C211 C213 1.408 . S
C211 C216 1.342 . S
C212 C213 1.310 . S
C212 C215 1.461 . S
C212 H232 0.932 . S
C213 C211 1.408 . S
C213 C212 1.310 . S
C213 H233 0.930 . S
C214 C215 1.474 . S
C214 C216 1.285 . S
C214 H234 0.929 . S
C215 C212 1.461 . S
C215 C214 1.474 . S
C216 C211 1.342 . S
C216 C214 1.285 . S
C216 H235 0.930 . S
C217 C220 1.424 . S
C217 C222 1.245 . S
C217 C223 1.428 . S
C218 C221 1.260 . S
C218 C222 1.477 . S
C218 H236 0.932 . S
C219 C220 1.384 . S
C219 C221 1.479 . S
C219 H237 0.929 . S
C220 C217 1.424 . S
C220 C219 1.384 . S
C220 H238 0.928 . S
C221 C218 1.260 . S
C221 C219 1.479 . S
C222 C217 1.245 . S
C222 C218 1.477 . S
C222 H239 0.932 . S
C223 U206 2.882 . S
C223 C217 1.428 . S
C223 O226 1.301 . S
C223 O227 1.282 . S
O224 U206 2.441 . S
O224 C210 1.249 . S
O225 U206 2.420 . S
O225 C210 1.202 . S
O226 U206 2.455 . S
O226 C223 1.301 . S
O227 U206 2.449 . S
O227 C223 1.282 . S
H228 C201 0.931 . S
H229 C203 0.929 . S
H230 C204 0.930 . S
H231 C205 0.931 . S
H232 C212 0.932 . S
H233 C213 0.930 . S
H234 C214 0.929 . S
H235 C216 0.930 . S
H236 C218 0.932 . S
H237 C219 0.929 . S
H238 C220 0.928 . S
H239 C222 0.932 . S
C240 C241 1.264 . S
C240 C245 1.479 . S
C240 C250 1.465 . S
C241 C240 1.264 . S
C241 C243 1.339 . S
C241 H268 0.931 . S
C242 C243 1.395 . S
C242 C244 1.320 . S
C243 C241 1.339 . S
C243 C242 1.395 . S
C243 H269 0.929 . S
C244 C242 1.320 . S
C244 C245 1.405 . S
C244 H270 0.930 . S
C245 C240 1.479 . S
C245 C244 1.405 . S
C245 H271 0.931 . S
U246 O247 2.454 . S
U246 O248 2.458 . S
U246 C249 2.984 . S
U246 C250 2.847 . S
U246 C263 2.882 . S
U246 O264 2.441 . S
U246 O265 2.420 . S
U246 O266 2.455 . S
U246 O267 2.449 . S
O247 U246 2.454 . S
O247 C249 1.353 . S
O248 U246 2.458 . S
O248 C249 1.286 . S
C249 U246 2.984 . S
C249 O247 1.353 . S
C249 O248 1.286 . S
C249 C251 1.363 . S
C250 C240 1.465 . S
C250 U246 2.847 . S
C250 O264 1.249 . S
C250 O265 1.202 . S
C251 C249 1.363 . S
C251 C253 1.408 . S
C251 C256 1.342 . S
C252 C253 1.310 . S
C252 C255 1.461 . S
C252 H272 0.932 . S
C253 C251 1.408 . S
C253 C252 1.310 . S
C253 H273 0.930 . S
C254 C255 1.474 . S
C254 C256 1.285 . S
C254 H274 0.929 . S
C255 C252 1.461 . S
C255 C254 1.474 . S
C256 C251 1.342 . S
C256 C254 1.285 . S
C256 H275 0.930 . S
C257 C260 1.424 . S
C257 C262 1.245 . S
C257 C263 1.428 . S
C258 C261 1.260 . S
C258 C262 1.477 . S
C258 H276 0.932 . S
C259 C260 1.384 . S
C259 C261 1.479 . S
C259 H277 0.929 . S
C260 C257 1.424 . S
C260 C259 1.384 . S
C260 H278 0.928 . S
C261 C258 1.260 . S
C261 C259 1.479 . S
C262 C257 1.245 . S
C262 C258 1.477 . S
C262 H279 0.932 . S
C263 U246 2.882 . S
C263 C257 1.428 . S
C263 O266 1.301 . S
C263 O267 1.282 . S
O264 U246 2.441 . S
O264 C250 1.249 . S
O265 U246 2.420 . S
O265 C250 1.202 . S
O266 U246 2.455 . S
O266 C263 1.301 . S
O267 U246 2.449 . S
O267 C263 1.282 . S
H268 C241 0.931 . S
H269 C243 0.929 . S
H270 C244 0.930 . S
H271 C245 0.931 . S
H272 C252 0.932 . S
H273 C253 0.930 . S
H274 C254 0.929 . S
H275 C256 0.930 . S
H276 C258 0.932 . S
H277 C259 0.929 . S
H278 C260 0.928 . S
H279 C262 0.932 . S
C280 C281 1.264 . S
C280 C285 1.479 . S
C280 C290 1.465 . S
C281 C280 1.264 . S
C281 C283 1.339 . S
C281 H308 0.931 . S
C282 C283 1.395 . S
C282 C284 1.320 . S
C283 C281 1.339 . S
C283 C282 1.395 . S
C283 H309 0.929 . S
C284 C282 1.320 . S
C284 C285 1.405 . S
C284 H310 0.930 . S
C285 C280 1.479 . S
C285 C284 1.405 . S
C285 H311 0.931 . S
U286 O287 2.454 . S
U286 O288 2.458 . S
U286 C289 2.984 . S
U286 C290 2.847 . S
U286 C303 2.882 . S
U286 O304 2.441 . S
U286 O305 2.420 . S
U286 O306 2.455 . S
U286 O307 2.449 . S
O287 U286 2.454 . S
O287 C289 1.353 . S
O288 U286 2.458 . S
O288 C289 1.286 . S
C289 U286 2.984 . S
C289 O287 1.353 . S
C289 O288 1.286 . S
C289 C291 1.363 . S
C290 C280 1.465 . S
C290 U286 2.847 . S
C290 O304 1.249 . S
C290 O305 1.202 . S
C291 C289 1.363 . S
C291 C293 1.408 . S
C291 C296 1.342 . S
C292 C293 1.310 . S
C292 C295 1.461 . S
C292 H312 0.932 . S
C293 C291 1.408 . S
C293 C292 1.310 . S
C293 H313 0.930 . S
C294 C295 1.474 . S
C294 C296 1.285 . S
C294 H314 0.929 . S
C295 C292 1.461 . S
C295 C294 1.474 . S
C296 C291 1.342 . S
C296 C294 1.285 . S
C296 H315 0.930 . S
C297 C300 1.424 . S
C297 C302 1.245 . S
C297 C303 1.428 . S
C298 C301 1.260 . S
C298 C302 1.477 . S
C298 H316 0.932 . S
C299 C300 1.384 . S
C299 C301 1.479 . S
C299 H317 0.929 . S
C300 C297 1.424 . S
C300 C299 1.384 . S
C300 H318 0.928 . S
C301 C298 1.260 . S
C301 C299 1.479 . S
C302 C297 1.245 . S
C302 C298 1.477 . S
C302 H319 0.932 . S
C303 U286 2.882 . S
C303 C297 1.428 . S
C303 O306 1.301 . S
C303 O307 1.282 . S
O304 U286 2.441 . S
O304 C290 1.249 . S
O305 U286 2.420 . S
O305 C290 1.202 . S
O306 U286 2.455 . S
O306 C303 1.301 . S
O307 U286 2.449 . S
O307 C303 1.282 . S
H308 C281 0.931 . S
H309 C283 0.929 . S
H310 C284 0.930 . S
H311 C285 0.931 . S
H312 C292 0.932 . S
H313 C293 0.930 . S
H314 C294 0.929 . S
H315 C296 0.930 . S
H316 C298 0.932 . S
H317 C299 0.929 . S
H318 C300 0.928 . S
H319 C302 0.932 . S
C320 C321 1.264 . S
C320 C325 1.479 . S
C320 C330 1.465 . S
C321 C320 1.264 . S
C321 C323 1.339 . S
C321 H348 0.931 1_545 S
C322 C323 1.395 . S
C322 C324 1.320 . S
C323 C321 1.339 . S
C323 C322 1.395 . S
C323 H349 0.929 1_545 S
C324 C322 1.320 . S
C324 C325 1.405 . S
C324 H350 0.930 . S
C325 C320 1.479 . S
C325 C324 1.405 . S
C325 H351 0.931 . S
U326 O327 2.479 . S
U326 O328 2.469 . S
U326 C329 3.005 . S
U326 C330 2.849 . S
U326 C343 2.858 1_545 S
U326 O344 2.454 . S
U326 O345 2.416 . S
U326 O346 2.439 1_545 S
U326 O347 2.423 1_545 S
O327 U326 2.479 . S
O327 C329 1.353 . S
O328 U326 2.469 . S
O328 C329 1.286 . S
C329 U326 3.005 . S
C329 O327 1.353 . S
C329 O328 1.286 . S
C329 C331 1.363 . S
C330 C320 1.465 . S
C330 U326 2.849 . S
C330 O344 1.249 . S
C330 O345 1.210 . S
C331 C329 1.363 . S
C331 C333 1.408 . S
C331 C336 1.342 . S
C332 C333 1.310 . S
C332 C335 1.461 . S
C332 H352 0.932 . S
C333 C331 1.408 . S
C333 C332 1.310 . S
C333 H353 0.930 . S
C334 C335 1.474 . S
C334 C336 1.285 . S
C334 H354 0.929 . S
C335 C332 1.461 . S
C335 C334 1.474 . S
C336 C331 1.342 . S
C336 C334 1.285 . S
C336 H355 0.930 . S
C337 C340 1.424 . S
C337 C342 1.245 . S
C337 C343 1.428 . S
C338 C341 1.260 . S
C338 C342 1.477 . S
C338 H356 0.932 . S
C339 C340 1.384 . S
C339 C341 1.479 . S
C339 H357 0.929 . S
C340 C337 1.424 . S
C340 C339 1.384 . S
C340 H358 0.928 . S
C341 C338 1.260 . S
C341 C339 1.479 . S
C342 C337 1.245 . S
C342 C338 1.477 . S
C342 H359 0.932 . S
C343 U326 2.858 1_565 S
C343 C337 1.428 . S
C343 O346 1.301 . S
C343 O347 1.282 . S
O344 U326 2.454 . S
O344 C330 1.249 . S
O345 U326 2.416 . S
O345 C330 1.210 . S
O346 U326 2.439 1_565 S
O346 C343 1.301 . S
O347 U326 2.423 1_565 S
O347 C343 1.282 . S
H348 C321 0.931 1_565 S
H349 C323 0.929 1_565 S
H350 C324 0.930 . S
H351 C325 0.931 . S
H352 C332 0.932 . S
H353 C333 0.930 . S
H354 C334 0.929 . S
H355 C336 0.930 . S
H356 C338 0.932 . S
H357 C339 0.929 . S
H358 C340 0.928 . S
H359 C342 0.932 . S
C360 C361 1.264 . S
C360 C365 1.479 . S
C360 C370 1.465 . S
C361 C360 1.264 . S
C361 C363 1.339 . S
C361 H388 0.931 . S
C362 C363 1.395 . S
C362 C364 1.320 . S
C363 C361 1.339 . S
C363 C362 1.395 . S
C363 H389 0.929 . S
C364 C362 1.320 . S
C364 C365 1.405 . S
C364 H390 0.930 . S
C365 C360 1.479 . S
C365 C364 1.405 . S
C365 H391 0.931 . S
U366 O367 2.454 . S
U366 O368 2.458 . S
U366 C369 2.984 . S
U366 C370 2.847 . S
U366 C383 2.882 . S
U366 O384 2.441 . S
U366 O385 2.420 . S
U366 O386 2.455 . S
U366 O387 2.449 . S
O367 U366 2.454 . S
O367 C369 1.353 . S
O368 U366 2.458 . S
O368 C369 1.286 . S
C369 U366 2.984 . S
C369 O367 1.353 . S
C369 O368 1.286 . S
C369 C371 1.363 . S
C370 C360 1.465 . S
C370 U366 2.847 . S
C370 O384 1.249 . S
C370 O385 1.202 . S
C371 C369 1.363 . S
C371 C373 1.408 . S
C371 C376 1.342 . S
C372 C373 1.310 . S
C372 C375 1.461 . S
C372 H392 0.932 . S
C373 C371 1.408 . S
C373 C372 1.310 . S
C373 H393 0.930 . S
C374 C375 1.474 . S
C374 C376 1.285 . S
C374 H394 0.929 . S
C375 C372 1.461 . S
C375 C374 1.474 . S
C376 C371 1.342 . S
C376 C374 1.285 . S
C376 H395 0.930 . S
C377 C380 1.424 . S
C377 C382 1.245 . S
C377 C383 1.428 . S
C378 C381 1.260 . S
C378 C382 1.477 . S
C378 H396 0.932 . S
C379 C380 1.384 . S
C379 C381 1.479 . S
C379 H397 0.929 . S
C380 C377 1.424 . S
C380 C379 1.384 . S
C380 H398 0.928 . S
C381 C378 1.260 . S
C381 C379 1.479 . S
C382 C377 1.245 . S
C382 C378 1.477 . S
C382 H399 0.932 . S
C383 U366 2.882 . S
C383 C377 1.428 . S
C383 O386 1.301 . S
C383 O387 1.282 . S
O384 U366 2.441 . S
O384 C370 1.249 . S
O385 U366 2.420 . S
O385 C370 1.202 . S
O386 U366 2.455 . S
O386 C383 1.301 . S
O387 U366 2.449 . S
O387 C383 1.282 . S
H388 C361 0.931 . S
H389 C363 0.929 . S
H390 C364 0.930 . S
H391 C365 0.931 . S
H392 C372 0.932 . S
H393 C373 0.930 . S
H394 C374 0.929 . S
H395 C376 0.930 . S
H396 C378 0.932 . S
H397 C379 0.929 . S
H398 C380 0.928 . S
H399 C382 0.932 . S
C400 C401 1.264 . S
C400 C405 1.479 . S
C400 C410 1.465 . S
C401 C400 1.264 . S
C401 C403 1.339 . S
C401 H428 0.931 . S
C402 C403 1.395 . S
C402 C404 1.320 . S
C403 C401 1.339 . S
C403 C402 1.395 . S
C403 H429 0.929 . S
C404 C402 1.320 . S
C404 C405 1.405 . S
C404 H430 0.930 . S
C405 C400 1.479 . S
C405 C404 1.405 . S
C405 H431 0.991 . S
U406 O407 2.454 1_545 S
U406 O408 2.458 1_545 S
U406 C409 2.984 1_545 S
U406 C410 2.847 . S
U406 C423 2.882 . S
U406 O424 2.440 . S
U406 O425 2.420 . S
U406 O426 2.455 . S
U406 O427 2.449 . S
O407 U406 2.454 1_565 S
O407 C409 1.353 . S
O408 U406 2.458 1_565 S
O408 C409 1.286 . S
C409 U406 2.984 1_565 S
C409 O407 1.353 . S
C409 O408 1.286 . S
C409 C411 1.363 . S
C410 C400 1.465 . S
C410 U406 2.847 . S
C410 O424 1.251 . S
C410 O425 1.202 . S
C411 C409 1.363 . S
C411 C413 1.408 . S
C411 C416 1.342 . S
C412 C413 1.310 . S
C412 C415 1.461 . S
C412 H432 0.932 . S
C413 C411 1.408 . S
C413 C412 1.310 . S
C413 H433 0.930 . S
C414 C415 1.474 . S
C414 C416 1.285 . S
C414 H434 0.929 . S
C415 C412 1.461 . S
C415 C414 1.474 . S
C416 C411 1.342 . S
C416 C414 1.285 . S
C416 H435 0.930 . S
C417 C420 1.424 . S
C417 C422 1.245 . S
C417 C423 1.428 . S
C418 C421 1.260 . S
C418 C422 1.477 . S
C418 H436 0.932 . S
C419 C420 1.384 . S
C419 C421 1.479 . S
C419 H437 0.929 . S
C420 C417 1.424 . S
C420 C419 1.384 . S
C420 H438 0.928 . S
C421 C418 1.260 . S
C421 C419 1.479 . S
C422 C417 1.245 . S
C422 C418 1.477 . S
C422 H439 0.932 . S
C423 U406 2.882 . S
C423 C417 1.428 . S
C423 O426 1.301 . S
C423 O427 1.282 . S
O424 U406 2.440 . S
O424 C410 1.251 . S
O425 U406 2.420 . S
O425 C410 1.202 . S
O426 U406 2.455 . S
O426 C423 1.301 . S
O427 U406 2.449 . S
O427 C423 1.282 . S
H428 C401 0.931 . S
H429 C403 0.929 . S
H430 C404 0.930 . S
H431 C405 0.991 . S
H432 C412 0.932 . S
H433 C413 0.930 . S
H434 C414 0.929 . S
H435 C416 0.930 . S
H436 C418 0.932 . S
H437 C419 0.929 . S
H438 C420 0.928 . S
H439 C422 0.932 . S
C440 C441 1.264 . S
C440 C445 1.479 . S
C440 C450 1.465 . S
C441 C440 1.264 . S
C441 C443 1.339 . S
C441 H468 0.931 . S
C442 C443 1.395 . S
C442 C444 1.320 . S
C443 C441 1.339 . S
C443 C442 1.395 . S
C443 H469 0.929 . S
C444 C442 1.320 . S
C444 C445 1.405 . S
C444 H470 0.930 . S
C445 C440 1.479 . S
C445 C444 1.405 . S
C445 H471 0.931 . S
U446 O447 2.454 . S
U446 O448 2.458 . S
U446 C449 2.984 . S
U446 C450 2.847 . S
U446 C463 2.882 . S
U446 O464 2.441 . S
U446 O465 2.420 . S
U446 O466 2.455 . S
U446 O467 2.449 . S
O447 U446 2.454 . S
O447 C449 1.353 . S
O448 U446 2.458 . S
O448 C449 1.286 . S
C449 U446 2.984 . S
C449 O447 1.353 . S
C449 O448 1.286 . S
C449 C451 1.363 . S
C450 C440 1.465 . S
C450 U446 2.847 . S
C450 O464 1.249 . S
C450 O465 1.202 . S
C451 C449 1.363 . S
C451 C453 1.408 . S
C451 C456 1.342 . S
C452 C453 1.310 . S
C452 C455 1.461 . S
C452 H472 0.932 . S
C453 C451 1.408 . S
C453 C452 1.310 . S
C453 H473 0.930 . S
C454 C455 1.474 . S
C454 C456 1.285 . S
C454 H474 0.929 . S
C455 C452 1.461 . S
C455 C454 1.474 . S
C456 C451 1.342 . S
C456 C454 1.285 . S
C456 H475 0.930 . S
C457 C460 1.424 . S
C457 C462 1.245 . S
C457 C463 1.428 . S
C458 C461 1.260 . S
C458 C462 1.477 . S
C458 H476 0.932 . S
C459 C460 1.384 . S
C459 C461 1.479 . S
C459 H477 0.929 . S
C460 C457 1.424 . S
C460 C459 1.384 . S
C460 H478 0.928 . S
C461 C458 1.260 . S
C461 C459 1.479 . S
C462 C457 1.245 . S
C462 C458 1.477 . S
C462 H479 0.932 . S
C463 U446 2.882 . S
C463 C457 1.428 . S
C463 O466 1.301 . S
C463 O467 1.282 . S
O464 U446 2.441 . S
O464 C450 1.249 . S
O465 U446 2.420 . S
O465 C450 1.202 . S
O466 U446 2.455 . S
O466 C463 1.301 . S
O467 U446 2.449 . S
O467 C463 1.282 . S
H468 C441 0.931 . S
H469 C443 0.929 . S
H470 C444 0.930 . S
H471 C445 0.931 . S
H472 C452 0.932 . S
H473 C453 0.930 . S
H474 C454 0.929 . S
H475 C456 0.930 . S
H476 C458 0.932 . S
H477 C459 0.929 . S
H478 C460 0.928 . S
H479 C462 0.932 . S
C480 C481 1.264 . S
C480 C485 1.479 . S
C480 C490 1.465 . S
C481 C480 1.264 . S
C481 C483 1.339 . S
C481 H508 0.931 . S
C482 C483 1.395 . S
C482 C484 1.320 . S
C483 C481 1.339 . S
C483 C482 1.395 . S
C483 H509 0.929 . S
C484 C482 1.320 . S
C484 C485 1.405 . S
C484 H510 0.930 . S
C485 C480 1.479 . S
C485 C484 1.405 . S
C485 H511 0.931 . S
U486 O487 2.454 . S
U486 O488 2.458 . S
U486 C489 2.984 . S
U486 C490 2.847 . S
U486 C503 2.882 . S
U486 O504 2.441 . S
U486 O505 2.420 . S
U486 O506 2.455 . S
U486 O507 2.449 . S
O487 U486 2.454 . S
O487 C489 1.353 . S
O488 U486 2.458 . S
O488 C489 1.286 . S
C489 U486 2.984 . S
C489 O487 1.353 . S
C489 O488 1.286 . S
C489 C491 1.363 . S
C490 C480 1.465 . S
C490 U486 2.847 . S
C490 O504 1.249 . S
C490 O505 1.202 . S
C491 C489 1.363 . S
C491 C493 1.408 . S
C491 C496 1.342 . S
C492 C493 1.310 . S
C492 C495 1.461 . S
C492 H512 0.932 . S
C493 C491 1.408 . S
C493 C492 1.310 . S
C493 H513 0.930 . S
C494 C495 1.474 . S
C494 C496 1.285 . S
C494 H514 0.929 . S
C495 C492 1.461 . S
C495 C494 1.474 . S
C496 C491 1.342 . S
C496 C494 1.285 . S
C496 H515 0.930 . S
C497 C500 1.424 . S
C497 C502 1.245 . S
C497 C503 1.428 . S
C498 C501 1.260 . S
C498 C502 1.477 . S
C498 H516 0.932 . S
C499 C500 1.384 . S
C499 C501 1.479 . S
C499 H517 0.929 . S
C500 C497 1.424 . S
C500 C499 1.384 . S
C500 H518 0.928 . S
C501 C498 1.260 . S
C501 C499 1.479 . S
C502 C497 1.245 . S
C502 C498 1.477 . S
C502 H519 0.932 . S
C503 U486 2.882 . S
C503 C497 1.428 . S
C503 O506 1.301 . S
C503 O507 1.282 . S
O504 U486 2.441 . S
O504 C490 1.249 . S
O505 U486 2.420 . S
O505 C490 1.202 . S
O506 U486 2.455 . S
O506 C503 1.301 . S
O507 U486 2.449 . S
O507 C503 1.282 . S
H508 C481 0.931 . S
H509 C483 0.929 . S
H510 C484 0.930 . S
H511 C485 0.931 . S
H512 C492 0.932 . S
H513 C493 0.930 . S
H514 C494 0.929 . S
H515 C496 0.930 . S
H516 C498 0.932 . S
H517 C499 0.929 . S
H518 C500 0.928 . S
H519 C502 0.932 . S
C520 C521 1.264 . S
C520 C525 1.479 . S
C520 C530 1.465 . S
C521 C520 1.264 . S
C521 C523 1.339 . S
C521 H548 0.931 . S
C522 C523 1.395 . S
C522 C524 1.320 . S
C523 C521 1.339 . S
C523 C522 1.395 . S
C523 H549 0.929 . S
C524 C522 1.320 . S
C524 C525 1.405 . S
C524 H550 0.930 . S
C525 C520 1.479 . S
C525 C524 1.405 . S
C525 H551 0.931 . S
U526 O527 2.454 . S
U526 O528 2.458 . S
U526 C529 2.984 . S
U526 C530 2.847 . S
U526 C543 2.882 . S
U526 O544 2.441 . S
U526 O545 2.420 . S
U526 O546 2.455 . S
U526 O547 2.449 . S
O527 U526 2.454 . S
O527 C529 1.353 . S
O528 U526 2.458 . S
O528 C529 1.286 . S
C529 U526 2.984 . S
C529 O527 1.353 . S
C529 O528 1.286 . S
C529 C531 1.363 . S
C530 C520 1.465 . S
C530 U526 2.847 . S
C530 O544 1.249 . S
C530 O545 1.202 . S
C531 C529 1.363 . S
C531 C533 1.408 . S
C531 C536 1.342 . S
C532 C533 1.310 . S
C532 C535 1.461 . S
C532 H552 0.932 . S
C533 C531 1.408 . S
C533 C532 1.310 . S
C533 H553 0.930 . S
C534 C535 1.474 . S
C534 C536 1.285 . S
C534 H554 0.929 . S
C535 C532 1.461 . S
C535 C534 1.474 . S
C536 C531 1.342 . S
C536 C534 1.285 . S
C536 H555 0.930 . S
C537 C540 1.424 . S
C537 C542 1.245 . S
C537 C543 1.428 . S
C538 C541 1.260 . S
C538 C542 1.477 . S
C538 H556 0.932 . S
C539 C540 1.384 . S
C539 C541 1.479 . S
C539 H557 0.929 . S
C540 C537 1.424 . S
C540 C539 1.384 . S
C540 H558 0.928 . S
C541 C538 1.260 . S
C541 C539 1.479 . S
C542 C537 1.245 . S
C542 C538 1.477 . S
C542 H559 0.932 . S
C543 U526 2.882 . S
C543 C537 1.428 . S
C543 O546 1.301 . S
C543 O547 1.282 . S
O544 U526 2.441 . S
O544 C530 1.249 . S
O545 U526 2.420 . S
O545 C530 1.202 . S
O546 U526 2.455 . S
O546 C543 1.301 . S
O547 U526 2.449 . S
O547 C543 1.282 . S
H548 C521 0.931 . S
H549 C523 0.929 . S
H550 C524 0.930 . S
H551 C525 0.931 . S
H552 C532 0.932 . S
H553 C533 0.930 . S
H554 C534 0.929 . S
H555 C536 0.930 . S
H556 C538 0.932 . S
H557 C539 0.929 . S
H558 C540 0.928 . S
H559 C542 0.932 . S
C560 C561 1.264 . S
C560 C565 1.479 . S
C560 C570 1.465 . S
C561 C560 1.264 . S
C561 C563 1.339 . S
C561 H588 0.931 . S
C562 C563 1.395 . S
C562 C564 1.320 . S
C563 C561 1.339 . S
C563 C562 1.395 . S
C563 H589 0.929 . S
C564 C562 1.320 . S
C564 C565 1.405 . S
C564 H590 0.930 . S
C565 C560 1.479 . S
C565 C564 1.405 . S
C565 H591 0.931 . S
U566 O567 2.454 . S
U566 O568 2.458 . S
U566 C569 2.984 . S
U566 C570 2.847 . S
U566 C583 2.882 . S
U566 O584 2.441 . S
U566 O585 2.420 . S
U566 O586 2.455 . S
U566 O587 2.449 . S
O567 U566 2.454 . S
O567 C569 1.353 . S
O568 U566 2.458 . S
O568 C569 1.286 . S
C569 U566 2.984 . S
C569 O567 1.353 . S
C569 O568 1.286 . S
C569 C571 1.363 . S
C570 C560 1.465 . S
C570 U566 2.847 . S
C570 O584 1.249 . S
C570 O585 1.202 . S
C571 C569 1.363 . S
C571 C573 1.408 . S
C571 C576 1.342 . S
C572 C573 1.310 . S
C572 C575 1.461 . S
C572 H592 0.932 . S
C573 C571 1.408 . S
C573 C572 1.310 . S
C573 H593 0.930 . S
C574 C575 1.474 . S
C574 C576 1.285 . S
C574 H594 0.929 . S
C575 C572 1.461 . S
C575 C574 1.474 . S
C576 C571 1.342 . S
C576 C574 1.285 . S
C576 H595 0.930 . S
C577 C580 1.424 . S
C577 C582 1.245 . S
C577 C583 1.428 . S
C578 C581 1.260 . S
C578 C582 1.477 . S
C578 H596 0.932 . S
C579 C580 1.384 . S
C579 C581 1.479 . S
C579 H597 0.929 . S
C580 C577 1.424 . S
C580 C579 1.384 . S
C580 H598 0.928 . S
C581 C578 1.260 . S
C581 C579 1.479 . S
C582 C577 1.245 . S
C582 C578 1.477 . S
C582 H599 0.932 . S
C583 U566 2.882 . S
C583 C577 1.428 . S
C583 O586 1.301 . S
C583 O587 1.282 . S
O584 U566 2.441 . S
O584 C570 1.249 . S
O585 U566 2.420 . S
O585 C570 1.202 . S
O586 U566 2.455 . S
O586 C583 1.301 . S
O587 U566 2.449 . S
O587 C583 1.282 . S
H588 C561 0.931 . S
H589 C563 0.929 . S
H590 C564 0.930 . S
H591 C565 0.931 . S
H592 C572 0.932 . S
H593 C573 0.930 . S
H594 C574 0.929 . S
H595 C576 0.930 . S
H596 C578 0.932 . S
H597 C579 0.929 . S
H598 C580 0.928 . S
H599 C582 0.932 . S
C600 C601 1.264 . S
C600 C605 1.479 . S
C600 C610 1.465 . S
C601 C600 1.264 . S
C601 C603 1.339 . S
C601 H628 0.931 . S
C602 C603 1.395 . S
C602 C604 1.320 . S
C603 C601 1.339 . S
C603 C602 1.395 . S
C603 H629 0.929 . S
C604 C602 1.320 . S
C604 C605 1.405 . S
C604 H630 0.930 . S
C605 C600 1.479 . S
C605 C604 1.405 . S
C605 H631 0.931 . S
U606 O607 2.454 . S
U606 O608 2.458 . S
U606 C609 2.984 . S
U606 C610 2.847 . S
U606 C623 2.882 . S
U606 O624 2.441 . S
U606 O625 2.420 . S
U606 O626 2.455 . S
U606 O627 2.449 . S
O607 U606 2.454 . S
O607 C609 1.353 . S
O608 U606 2.458 . S
O608 C609 1.286 . S
C609 U606 2.984 . S
C609 O607 1.353 . S
C609 O608 1.286 . S
C609 C611 1.363 . S
C610 C600 1.465 . S
C610 U606 2.847 . S
C610 O624 1.249 . S
C610 O625 1.202 . S
C611 C609 1.363 . S
C611 C613 1.408 . S
C611 C616 1.342 . S
C612 C613 1.310 . S
C612 C615 1.461 . S
C612 H632 0.932 . S
C613 C611 1.408 . S
C613 C612 1.310 . S
C613 H633 0.930 . S
C614 C615 1.474 . S
C614 C616 1.285 . S
C614 H634 0.929 . S
C615 C612 1.461 . S
C615 C614 1.474 . S
C616 C611 1.342 . S
C616 C614 1.285 . S
C616 H635 0.930 . S
C617 C620 1.424 . S
C617 C622 1.245 . S
C617 C623 1.428 . S
C618 C621 1.260 . S
C618 C622 1.477 . S
C618 H636 0.932 . S
C619 C620 1.384 . S
C619 C621 1.479 . S
C619 H637 0.929 . S
C620 C617 1.424 . S
C620 C619 1.384 . S
C620 H638 0.928 . S
C621 C618 1.260 . S
C621 C619 1.479 . S
C622 C617 1.245 . S
C622 C618 1.477 . S
C622 H639 0.932 . S
C623 U606 2.882 . S
C623 C617 1.428 . S
C623 O626 1.301 . S
C623 O627 1.282 . S
O624 U606 2.441 . S
O624 C610 1.249 . S
O625 U606 2.420 . S
O625 C610 1.202 . S
O626 U606 2.455 . S
O626 C623 1.301 . S
O627 U606 2.449 . S
O627 C623 1.282 . S
H628 C601 0.931 . S
H629 C603 0.929 . S
H630 C604 0.930 . S
H631 C605 0.931 . S
H632 C612 0.932 . S
H633 C613 0.930 . S
H634 C614 0.929 . S
H635 C616 0.930 . S
H636 C618 0.932 . S
H637 C619 0.929 . S
H638 C620 0.928 . S
H639 C622 0.932 . S
C640 C641 1.264 . S
C640 C645 1.479 . S
C640 C650 1.465 . S
C641 C640 1.264 . S
C641 C643 1.339 . S
C641 H668 0.931 . S
C642 C643 1.395 . S
C642 C644 1.320 . S
C643 C641 1.339 . S
C643 C642 1.395 . S
C643 H669 0.929 . S
C644 C642 1.320 . S
C644 C645 1.405 . S
C644 H670 0.930 . S
C645 C640 1.479 . S
C645 C644 1.405 . S
C645 H671 0.931 . S
U646 O647 2.454 . S
U646 O648 2.458 . S
U646 C649 2.984 . S
U646 C650 2.847 . S
U646 C663 2.882 . S
U646 O664 2.441 . S
U646 O665 2.420 . S
U646 O666 2.455 . S
U646 O667 2.449 . S
O647 U646 2.454 . S
O647 C649 1.353 . S
O648 U646 2.458 . S
O648 C649 1.286 . S
C649 U646 2.984 . S
C649 O647 1.353 . S
C649 O648 1.286 . S
C649 C651 1.363 . S
C650 C640 1.465 . S
C650 U646 2.847 . S
C650 O664 1.249 . S
C650 O665 1.202 . S
C651 C649 1.363 . S
C651 C653 1.408 . S
C651 C656 1.342 . S
C652 C653 1.310 . S
C652 C655 1.461 . S
C652 H672 0.932 . S
C653 C651 1.408 . S
C653 C652 1.310 . S
C653 H673 0.930 . S
C654 C655 1.474 . S
C654 C656 1.285 . S
C654 H674 0.929 . S
C655 C652 1.461 . S
C655 C654 1.474 . S
C656 C651 1.342 . S
C656 C654 1.285 . S
C656 H675 0.930 . S
C657 C660 1.424 . S
C657 C662 1.245 . S
C657 C663 1.428 . S
C658 C661 1.260 . S
C658 C662 1.477 . S
C658 H676 0.932 . S
C659 C660 1.384 . S
C659 C661 1.479 . S
C659 H677 0.929 . S
C660 C657 1.424 . S
C660 C659 1.384 . S
C660 H678 0.928 . S
C661 C658 1.260 . S
C661 C659 1.479 . S
C662 C657 1.245 . S
C662 C658 1.477 . S
C662 H679 0.932 . S
C663 U646 2.882 . S
C663 C657 1.428 . S
C663 O666 1.301 . S
C663 O667 1.282 . S
O664 U646 2.441 . S
O664 C650 1.249 . S
O665 U646 2.420 . S
O665 C650 1.202 . S
O666 U646 2.455 . S
O666 C663 1.301 . S
O667 U646 2.449 . S
O667 C663 1.282 . S
H668 C641 0.931 . S
H669 C643 0.929 . S
H670 C644 0.930 . S
H671 C645 0.931 . S
H672 C652 0.932 . S
H673 C653 0.930 . S
H674 C654 0.929 . S
H675 C656 0.930 . S
H676 C658 0.932 . S
H677 C659 0.929 . S
H678 C660 0.928 . S
H679 C662 0.932 . S
C680 C681 1.264 . S
C680 C685 1.479 . S
C680 C690 1.465 . S
C681 C680 1.264 . S
C681 C683 1.339 . S
C681 H708 0.931 . S
C682 C683 1.395 . S
C682 C684 1.320 . S
C683 C681 1.339 . S
C683 C682 1.395 . S
C683 H709 0.929 . S
C684 C682 1.320 . S
C684 C685 1.405 . S
C684 H710 0.930 . S
C685 C680 1.479 . S
C685 C684 1.405 . S
C685 H711 0.931 . S
U686 O687 2.454 . S
U686 O688 2.458 . S
U686 C689 2.984 . S
U686 C690 2.847 . S
U686 C703 2.882 . S
U686 O704 2.441 . S
U686 O705 2.420 . S
U686 O706 2.455 . S
U686 O707 2.449 . S
O687 U686 2.454 . S
O687 C689 1.353 . S
O688 U686 2.458 . S
O688 C689 1.286 . S
C689 U686 2.984 . S
C689 O687 1.353 . S
C689 O688 1.286 . S
C689 C691 1.363 . S
C690 C680 1.465 . S
C690 U686 2.847 . S
C690 O704 1.249 . S
C690 O705 1.202 . S
C691 C689 1.363 . S
C691 C693 1.408 . S
C691 C696 1.342 . S
C692 C693 1.310 . S
C692 C695 1.461 . S
C692 H712 0.932 . S
C693 C691 1.408 . S
C693 C692 1.310 . S
C693 H713 0.930 . S
C694 C695 1.474 . S
C694 C696 1.285 . S
C694 H714 0.929 . S
C695 C692 1.461 . S
C695 C694 1.474 . S
C696 C691 1.342 . S
C696 C694 1.285 . S
C696 H715 0.930 . S
C697 C700 1.424 . S
C697 C702 1.245 . S
C697 C703 1.428 . S
C698 C701 1.260 . S
C698 C702 1.477 . S
C698 H716 0.932 . S
C699 C700 1.384 . S
C699 C701 1.479 . S
C699 H717 0.929 . S
C700 C697 1.424 . S
C700 C699 1.384 . S
C700 H718 0.928 . S
C701 C698 1.260 . S
C701 C699 1.479 . S
C702 C697 1.245 . S
C702 C698 1.477 . S
C702 H719 0.932 . S
C703 U686 2.882 . S
C703 C697 1.428 . S
C703 O706 1.301 . S
C703 O707 1.282 . S
O704 U686 2.441 . S
O704 C690 1.249 . S
O705 U686 2.420 . S
O705 C690 1.202 . S
O706 U686 2.455 . S
O706 C703 1.301 . S
O707 U686 2.449 . S
O707 C703 1.282 . S
H708 C681 0.931 . S
H709 C683 0.929 . S
H710 C684 0.930 . S
H711 C685 0.931 . S
H712 C692 0.932 . S
H713 C693 0.930 . S
H714 C694 0.929 . S
H715 C696 0.930 . S
H716 C698 0.932 . S
H717 C699 0.929 . S
H718 C700 0.928 . S
H719 C702 0.932 . S
C720 C721 1.264 . S
C720 C725 1.479 . S
C720 C730 1.465 . S
C721 C720 1.264 . S
C721 C723 1.339 . S
C721 H748 0.931 . S
C722 C723 1.395 . S
C722 C724 1.320 . S
C723 C721 1.339 . S
C723 C722 1.395 . S
C723 H749 0.929 . S
C724 C722 1.320 . S
C724 C725 1.405 . S
C724 H750 0.930 . S
C725 C720 1.479 . S
C725 C724 1.405 . S
C725 H751 0.931 . S
U726 O727 2.454 . S
U726 O728 2.458 . S
U726 C729 2.984 . S
U726 C730 2.847 . S
U726 C743 2.882 . S
U726 O744 2.441 . S
U726 O745 2.420 . S
U726 O746 2.455 . S
U726 O747 2.449 . S
O727 U726 2.454 . S
O727 C729 1.353 . S
O728 U726 2.458 . S
O728 C729 1.286 . S
C729 U726 2.984 . S
C729 O727 1.353 . S
C729 O728 1.286 . S
C729 C731 1.363 . S
C730 C720 1.465 . S
C730 U726 2.847 . S
C730 O744 1.249 . S
C730 O745 1.202 . S
C731 C729 1.363 . S
C731 C733 1.408 . S
C731 C736 1.342 . S
C732 C733 1.310 . S
C732 C735 1.461 . S
C732 H752 0.932 . S
C733 C731 1.408 . S
C733 C732 1.310 . S
C733 H753 0.930 . S
C734 C735 1.474 . S
C734 C736 1.285 . S
C734 H754 0.929 . S
C735 C732 1.461 . S
C735 C734 1.474 . S
C736 C731 1.342 . S
C736 C734 1.285 . S
C736 H755 0.930 . S
C737 C740 1.424 . S
C737 C742 1.245 . S
C737 C743 1.428 . S
C738 C741 1.260 . S
C738 C742 1.477 . S
C738 H756 0.932 . S
C739 C740 1.384 . S
C739 C741 1.479 . S
C739 H757 0.929 . S
C740 C737 1.424 . S
C740 C739 1.384 . S
C740 H758 0.928 . S
C741 C738 1.260 . S
C741 C739 1.479 . S
C742 C737 1.245 . S
C742 C738 1.477 . S
C742 H759 0.932 . S
C743 U726 2.882 . S
C743 C737 1.428 . S
C743 O746 1.301 . S
C743 O747 1.282 . S
O744 U726 2.441 . S
O744 C730 1.249 . S
O745 U726 2.420 . S
O745 C730 1.202 . S
O746 U726 2.455 . S
O746 C743 1.301 . S
O747 U726 2.449 . S
O747 C743 1.282 . S
H748 C721 0.931 . S
H749 C723 0.929 . S
H750 C724 0.930 . S
H751 C725 0.931 . S
H752 C732 0.932 . S
H753 C733 0.930 . S
H754 C734 0.929 . S
H755 C736 0.930 . S
H756 C738 0.932 . S
H757 C739 0.929 . S
H758 C740 0.928 . S
H759 C742 0.932 . S
C760 C761 1.264 . S
C760 C765 1.479 . S
C760 C770 1.465 . S
C761 C760 1.264 . S
C761 C763 1.339 . S
C761 H788 0.931 . S
C762 C763 1.395 . S
C762 C764 1.320 . S
C763 C761 1.339 . S
C763 C762 1.395 . S
C763 H789 0.929 . S
C764 C762 1.320 . S
C764 C765 1.405 . S
C764 H790 0.930 . S
C765 C760 1.479 . S
C765 C764 1.405 . S
C765 H791 0.931 . S
U766 O767 2.454 . S
U766 O768 2.458 . S
U766 C769 2.984 1_655 S
U766 C770 2.847 . S
U766 C783 2.882 . S
U766 O784 2.441 . S
U766 O785 2.420 . S
U766 O786 2.455 . S
U766 O787 2.449 . S
O767 U766 2.454 . S
O767 C769 1.353 1_655 S
O768 U766 2.458 . S
O768 C769 1.286 1_655 S
C769 U766 2.984 1_455 S
C769 O767 1.353 1_455 S
C769 O768 1.286 1_455 S
C769 C771 1.363 . S
C770 C760 1.465 . S
C770 U766 2.847 . S
C770 O784 1.249 . S
C770 O785 1.202 . S
C771 C769 1.363 . S
C771 C773 1.408 . S
C771 C776 1.342 . S
C772 C773 1.310 . S
C772 C775 1.461 . S
C772 H792 0.932 . S
C773 C771 1.408 . S
C773 C772 1.310 . S
C773 H793 0.930 . S
C774 C775 1.474 . S
C774 C776 1.285 . S
C774 H794 0.929 . S
C775 C772 1.461 . S
C775 C774 1.474 . S
C776 C771 1.342 . S
C776 C774 1.285 . S
C776 H795 0.930 . S
C777 C780 1.424 . S
C777 C782 1.245 . S
C777 C783 1.428 . S
C778 C781 1.260 . S
C778 C782 1.477 . S
C778 H796 0.932 . S
C779 C780 1.384 . S
C779 C781 1.479 . S
C779 H797 0.929 . S
C780 C777 1.424 . S
C780 C779 1.384 . S
C780 H798 0.928 . S
C781 C778 1.260 . S
C781 C779 1.479 . S
C782 C777 1.245 . S
C782 C778 1.477 . S
C782 H799 0.932 . S
C783 U766 2.882 . S
C783 C777 1.428 . S
C783 O786 1.301 . S
C783 O787 1.282 . S
O784 U766 2.441 . S
O784 C770 1.249 . S
O785 U766 2.420 . S
O785 C770 1.202 . S
O786 U766 2.455 . S
O786 C783 1.301 . S
O787 U766 2.449 . S
O787 C783 1.282 . S
H788 C761 0.931 . S
H789 C763 0.929 . S
H790 C764 0.930 . S
H791 C765 0.931 . S
H792 C772 0.932 . S
H793 C773 0.930 . S
H794 C774 0.929 . S
H795 C776 0.930 . S
H796 C778 0.932 . S
H797 C779 0.929 . S
H798 C780 0.928 . S
H799 C782 0.932 . S
C800 C801 1.264 . S
C800 C805 1.479 . S
C800 C810 1.465 . S
C801 C800 1.264 . S
C801 C803 1.339 . S
C801 H828 0.931 . S
C802 C803 1.395 . S
C802 C804 1.320 . S
C803 C801 1.339 . S
C803 C802 1.395 . S
C803 H829 0.929 . S
C804 C802 1.320 . S
C804 C805 1.405 . S
C804 H830 0.930 . S
C805 C800 1.479 . S
C805 C804 1.405 . S
C805 H831 0.931 . S
U806 O807 2.454 . S
U806 O808 2.458 . S
U806 C809 2.984 . S
U806 C810 2.847 . S
U806 C823 2.882 . S
U806 O824 2.441 . S
U806 O825 2.420 . S
U806 O826 2.455 . S
U806 O827 2.449 . S
O807 U806 2.454 . S
O807 C809 1.353 . S
O808 U806 2.458 . S
O808 C809 1.286 . S
C809 U806 2.984 . S
C809 O807 1.353 . S
C809 O808 1.286 . S
C809 C811 1.363 . S
C810 C800 1.465 . S
C810 U806 2.847 . S
C810 O824 1.249 . S
C810 O825 1.202 . S
C811 C809 1.363 . S
C811 C813 1.408 . S
C811 C816 1.342 1_655 S
C812 C813 1.310 1_455 S
C812 C815 1.461 . S
C812 H832 0.932 . S
C813 C811 1.408 . S
C813 C812 1.310 1_655 S
C813 H833 0.930 . S
C814 C815 1.474 . S
C814 C816 1.285 . S
C814 H834 0.929 . S
C815 C812 1.461 . S
C815 C814 1.474 . S
C816 C811 1.342 1_455 S
C816 C814 1.285 . S
C816 H835 0.930 . S
C817 C820 1.424 . S
C817 C822 1.245 . S
C817 C823 1.428 . S
C818 C821 1.260 . S
C818 C822 1.477 . S
C818 H836 0.932 . S
C819 C820 1.384 . S
C819 C821 1.479 . S
C819 H837 0.929 . S
C820 C817 1.424 . S
C820 C819 1.384 . S
C820 H838 0.928 . S
C821 C818 1.260 . S
C821 C819 1.479 . S
C822 C817 1.245 . S
C822 C818 1.477 . S
C822 H839 0.932 . S
C823 U806 2.882 . S
C823 C817 1.428 . S
C823 O826 1.301 . S
C823 O827 1.282 . S
O824 U806 2.441 . S
O824 C810 1.249 . S
O825 U806 2.420 . S
O825 C810 1.202 . S
O826 U806 2.455 . S
O826 C823 1.301 . S
O827 U806 2.449 . S
O827 C823 1.282 . S
H828 C801 0.931 . S
H829 C803 0.929 . S
H830 C804 0.930 . S
H831 C805 0.931 . S
H832 C812 0.932 . S
H833 C813 0.930 . S
H834 C814 0.929 . S
H835 C816 0.930 . S
H836 C818 0.932 . S
H837 C819 0.929 . S
H838 C820 0.928 . S
H839 C822 0.932 . S
C840 C841 1.264 . S
C840 C845 1.479 . S
C840 C850 1.465 . S
C841 C840 1.264 . S
C841 C843 1.339 . S
C841 H868 0.931 . S
C842 C843 1.395 . S
C842 C844 1.320 . S
C843 C841 1.339 . S
C843 C842 1.395 . S
C843 H869 0.929 . S
C844 C842 1.320 . S
C844 C845 1.405 . S
C844 H870 0.930 . S
C845 C840 1.479 . S
C845 C844 1.405 . S
C845 H871 0.931 . S
U846 O847 2.454 . S
U846 O848 2.458 . S
U846 C849 2.984 . S
U846 C850 2.847 . S
U846 C863 2.882 . S
U846 O864 2.441 . S
U846 O865 2.420 . S
U846 O866 2.455 . S
U846 O867 2.449 . S
O847 U846 2.454 . S
O847 C849 1.353 . S
O848 U846 2.458 . S
O848 C849 1.286 . S
C849 U846 2.984 . S
C849 O847 1.353 . S
C849 O848 1.286 . S
C849 C851 1.363 . S
C850 C840 1.465 . S
C850 U846 2.847 . S
C850 O864 1.249 . S
C850 O865 1.202 . S
C851 C849 1.363 . S
C851 C853 1.408 . S
C851 C856 1.342 . S
C852 C853 1.310 . S
C852 C855 1.461 . S
C852 H872 0.932 . S
C853 C851 1.408 . S
C853 C852 1.310 . S
C853 H873 0.930 . S
C854 C855 1.474 . S
C854 C856 1.285 . S
C854 H874 0.929 . S
C855 C852 1.461 . S
C855 C854 1.474 . S
C856 C851 1.342 . S
C856 C854 1.285 . S
C856 H875 0.930 . S
C857 C860 1.424 . S
C857 C862 1.245 . S
C857 C863 1.428 . S
C858 C861 1.260 . S
C858 C862 1.477 . S
C858 H876 0.932 . S
C859 C860 1.384 . S
C859 C861 1.479 . S
C859 H877 0.929 . S
C860 C857 1.424 . S
C860 C859 1.384 . S
C860 H878 0.928 . S
C861 C858 1.260 . S
C861 C859 1.479 . S
C862 C857 1.245 . S
C862 C858 1.477 . S
C862 H879 0.932 . S
C863 U846 2.882 . S
C863 C857 1.428 . S
C863 O866 1.301 . S
C863 O867 1.282 . S
O864 U846 2.441 . S
O864 C850 1.249 . S
O865 U846 2.420 . S
O865 C850 1.202 . S
O866 U846 2.455 . S
O866 C863 1.301 . S
O867 U846 2.449 . S
O867 C863 1.282 . S
H868 C841 0.931 . S
H869 C843 0.929 . S
H870 C844 0.930 . S
H871 C845 0.931 . S
H872 C852 0.932 . S
H873 C853 0.930 . S
H874 C854 0.929 . S
H875 C856 0.930 . S
H876 C858 0.932 . S
H877 C859 0.929 . S
H878 C860 0.928 . S
H879 C862 0.932 . S
C880 C881 1.264 . S
C880 C885 1.479 . S
C880 C890 1.465 . S
C881 C880 1.264 . S
C881 C883 1.339 . S
C881 H908 0.931 . S
C882 C883 1.395 . S
C882 C884 1.320 . S
C883 C881 1.339 . S
C883 C882 1.395 . S
C883 H909 0.929 . S
C884 C882 1.320 . S
C884 C885 1.405 . S
C884 H910 0.930 . S
C885 C880 1.479 . S
C885 C884 1.405 . S
C885 H911 0.931 . S
U886 O887 2.454 . S
U886 O888 2.458 . S
U886 C889 2.984 . S
U886 C890 2.847 . S
U886 C903 2.882 . S
U886 O904 2.441 . S
U886 O905 2.420 . S
U886 O906 2.455 . S
U886 O907 2.449 . S
O887 U886 2.454 . S
O887 C889 1.353 . S
O888 U886 2.458 . S
O888 C889 1.286 . S
C889 U886 2.984 . S
C889 O887 1.353 . S
C889 O888 1.286 . S
C889 C891 1.363 . S
C890 C880 1.465 . S
C890 U886 2.847 . S
C890 O904 1.249 . S
C890 O905 1.202 . S
C891 C889 1.363 . S
C891 C893 1.408 . S
C891 C896 1.342 . S
C892 C893 1.310 . S
C892 C895 1.461 . S
C892 H912 0.932 . S
C893 C891 1.408 . S
C893 C892 1.310 . S
C893 H913 0.930 . S
C894 C895 1.474 . S
C894 C896 1.285 . S
C894 H914 0.929 . S
C895 C892 1.461 . S
C895 C894 1.474 . S
C896 C891 1.342 . S
C896 C894 1.285 . S
C896 H915 0.930 . S
C897 C900 1.424 . S
C897 C902 1.245 . S
C897 C903 1.428 . S
C898 C901 1.260 . S
C898 C902 1.477 . S
C898 H916 0.932 . S
C899 C900 1.384 . S
C899 C901 1.479 . S
C899 H917 0.929 . S
C900 C897 1.424 . S
C900 C899 1.384 . S
C900 H918 0.928 . S
C901 C898 1.260 . S
C901 C899 1.479 . S
C902 C897 1.245 . S
C902 C898 1.477 . S
C902 H919 0.932 . S
C903 U886 2.882 . S
C903 C897 1.428 . S
C903 O906 1.301 . S
C903 O907 1.282 . S
O904 U886 2.441 . S
O904 C890 1.249 . S
O905 U886 2.420 . S
O905 C890 1.202 . S
O906 U886 2.455 . S
O906 C903 1.301 . S
O907 U886 2.449 . S
O907 C903 1.282 . S
H908 C881 0.931 . S
H909 C883 0.929 . S
H910 C884 0.930 . S
H911 C885 0.931 . S
H912 C892 0.932 . S
H913 C893 0.930 . S
H914 C894 0.929 . S
H915 C896 0.930 . S
H916 C898 0.932 . S
H917 C899 0.929 . S
H918 C900 0.928 . S
H919 C902 0.932 . S
C920 C921 1.264 . S
C920 C925 1.479 . S
C920 C930 1.465 . S
C921 C920 1.264 . S
C921 C923 1.339 . S
C921 H948 0.931 . S
C922 C923 1.395 . S
C922 C924 1.320 . S
C923 C921 1.339 . S
C923 C922 1.395 . S
C923 H949 0.929 . S
C924 C922 1.320 . S
C924 C925 1.405 . S
C924 H950 0.930 . S
C925 C920 1.479 . S
C925 C924 1.405 . S
C925 H951 0.931 . S
U926 O927 2.454 . S
U926 O928 2.458 . S
U926 C929 2.984 . S
U926 C930 2.847 . S
U926 C943 2.882 . S
U926 O944 2.441 . S
U926 O945 2.420 . S
U926 O946 2.455 . S
U926 O947 2.449 . S
O927 U926 2.454 . S
O927 C929 1.353 . S
O928 U926 2.458 . S
O928 C929 1.286 . S
C929 U926 2.984 . S
C929 O927 1.353 . S
C929 O928 1.286 . S
C929 C931 1.363 . S
C930 C920 1.465 . S
C930 U926 2.847 . S
C930 O944 1.249 . S
C930 O945 1.202 . S
C931 C929 1.363 . S
C931 C933 1.408 . S
C931 C936 1.342 . S
C932 C933 1.310 . S
C932 C935 1.461 . S
C932 H952 0.932 . S
C933 C931 1.408 . S
C933 C932 1.310 . S
C933 H953 0.930 . S
C934 C935 1.474 . S
C934 C936 1.285 . S
C934 H954 0.929 . S
C935 C932 1.461 . S
C935 C934 1.474 . S
C936 C931 1.342 . S
C936 C934 1.285 . S
C936 H955 0.930 . S
C937 C940 1.424 . S
C937 C942 1.245 . S
C937 C943 1.428 . S
C938 C941 1.260 . S
C938 C942 1.477 . S
C938 H956 0.932 . S
C939 C940 1.384 . S
C939 C941 1.479 . S
C939 H957 0.929 . S
C940 C937 1.424 . S
C940 C939 1.384 . S
C940 H958 0.928 . S
C941 C938 1.260 . S
C941 C939 1.479 . S
C942 C937 1.245 . S
C942 C938 1.477 . S
C942 H959 0.932 . S
C943 U926 2.882 . S
C943 C937 1.428 . S
C943 O946 1.301 . S
C943 O947 1.282 . S
O944 U926 2.441 . S
O944 C930 1.249 . S
O945 U926 2.420 . S
O945 C930 1.202 . S
O946 U926 2.455 . S
O946 C943 1.301 . S
O947 U926 2.449 . S
O947 C943 1.282 . S
H948 C921 0.931 . S
H949 C923 0.929 . S
H950 C924 0.930 . S
H951 C925 0.931 . S
H952 C932 0.932 . S
H953 C933 0.930 . S
H954 C934 0.929 . S
H955 C936 0.930 . S
H956 C938 0.932 . S
H957 C939 0.929 . S
H958 C940 0.928 . S
H959 C942 0.932 . S
C960 C961 1.387 . S
C960 H964 0.950 . S
C960 C969 1.390 . S
C961 C960 1.387 . S
C961 C963 1.387 . S
H962 C969 0.946 1_655 S
C963 C961 1.387 . S
C963 C965 1.390 . S
C963 H967 0.950 . S
H964 C960 0.950 . S
C965 C963 1.390 . S
C965 C966 1.387 . S
C965 H968 0.950 . S
C966 C965 1.387 . S
C966 C969 1.387 . S
H967 C963 0.950 . S
H968 C965 0.950 . S
C969 C960 1.390 . S
C969 H962 0.946 1_455 S
C969 C966 1.387 . S
C970 C971 1.387 . S
C970 H974 0.950 . S
C970 C979 1.390 . S
C971 C970 1.387 . S
C971 C973 1.387 . S
H972 C979 0.950 . S
C973 C971 1.387 . S
C973 C975 1.390 . S
C973 H977 0.950 . S
H974 C970 0.950 . S
C975 C973 1.390 . S
C975 C976 1.387 . S
C975 H978 0.950 . S
C976 C975 1.387 . S
C976 C979 1.387 . S
H977 C973 0.950 . S
H978 C975 0.950 . S
C979 C970 1.390 . S
C979 H972 0.950 . S
C979 C976 1.387 . S
C980 C981 1.387 . S
C980 H984 0.950 . S
C980 C989 1.390 . S
C981 C980 1.387 . S
C981 C983 1.387 . S
H982 C989 0.950 . S
C983 C981 1.387 . S
C983 C985 1.390 . S
C983 H987 0.950 . S
H984 C980 0.950 . S
C985 C983 1.390 . S
C985 C986 1.387 . S
C985 H988 0.950 . S
C986 C985 1.387 . S
C986 C989 1.387 . S
H987 C983 0.950 . S
H988 C985 0.950 . S
C989 C980 1.390 . S
C989 H982 0.950 . S
C989 C986 1.387 . S
C990 C991 1.387 . S
C990 H994 0.950 . S
C990 C999 1.390 . S
C991 C990 1.387 . S
C991 C993 1.387 . S
H992 C999 0.950 . S
C993 C991 1.387 . S
C993 C995 1.390 . S
C993 H997 0.950 . S
H994 C990 0.950 . S
C995 C993 1.390 . S
C995 C996 1.387 . S
C995 H998 0.950 . S
C996 C995 1.387 . S
C996 C999 1.387 . S
H997 C993 0.950 . S
H998 C995 0.950 . S
C999 C990 1.390 . S
C999 H992 0.950 . S
C999 C996 1.387 . S
C1000 C1001 1.387 . S
C1000 H1004 0.950 . S
C1000 C1009 1.390 . S
C1001 C1000 1.387 . S
C1001 C1003 1.387 . S
H1002 C1009 0.950 . S
C1003 C1001 1.387 . S
C1003 C1005 1.390 . S
C1003 H1007 0.950 . S
H1004 C1000 0.950 . S
C1005 C1003 1.390 . S
C1005 C1006 1.387 . S
C1005 H1008 0.950 . S
C1006 C1005 1.387 . S
C1006 C1009 1.387 . S
H1007 C1003 0.950 . S
H1008 C1005 0.950 . S
C1009 C1000 1.390 . S
C1009 H1002 0.950 . S
C1009 C1006 1.387 . S
C1010 C1011 1.387 . S
C1010 H1014 0.950 . S
C1010 C1019 1.390 . S
C1011 C1010 1.387 . S
C1011 C1013 1.387 . S
H1012 C1019 0.950 . S
C1013 C1011 1.387 . S
C1013 C1015 1.390 . S
C1013 H1017 0.950 . S
H1014 C1010 0.950 . S
C1015 C1013 1.390 . S
C1015 C1016 1.387 . S
C1015 H1018 0.950 . S
C1016 C1015 1.387 . S
C1016 C1019 1.387 . S
H1017 C1013 0.950 . S
H1018 C1015 0.950 . S
C1019 C1010 1.390 . S
C1019 H1012 0.950 . S
C1019 C1016 1.387 . S
C1020 C1021 1.387 . S
C1020 H1024 0.950 . S
C1020 C1029 1.390 . S
C1021 C1020 1.387 . S
C1021 C1023 1.387 . S
H1022 C1029 0.950 . S
C1023 C1021 1.387 . S
C1023 C1025 1.390 . S
C1023 H1027 0.950 . S
H1024 C1020 0.950 . S
C1025 C1023 1.390 . S
C1025 C1026 1.387 . S
C1025 H1028 0.950 . S
C1026 C1025 1.387 . S
C1026 C1029 1.387 . S
H1027 C1023 0.950 . S
H1028 C1025 0.950 . S
C1029 C1020 1.390 . S
C1029 H1022 0.950 . S
C1029 C1026 1.387 . S
C1030 C1031 1.387 . S
C1030 H1034 0.950 . S
C1030 C1039 1.390 . S
C1031 C1030 1.387 . S
C1031 C1033 1.387 . S
H1032 C1039 0.950 . S
C1033 C1031 1.387 . S
C1033 C1035 1.390 . S
C1033 H1037 0.950 . S
H1034 C1030 0.950 . S
C1035 C1033 1.390 . S
C1035 C1036 1.387 . S
C1035 H1038 0.950 . S
C1036 C1035 1.387 . S
C1036 C1039 1.387 . S
H1037 C1033 0.950 . S
H1038 C1035 0.950 . S
C1039 C1030 1.390 . S
C1039 H1032 0.950 . S
C1039 C1036 1.387 . S
C1040 C1041 1.387 . S
C1040 H1044 0.950 . S
C1040 C1049 1.390 . S
C1041 C1040 1.387 . S
C1041 C1043 1.387 . S
H1042 C1049 0.950 . S
C1043 C1041 1.387 . S
C1043 C1045 1.390 . S
C1043 H1047 0.950 . S
H1044 C1040 0.950 . S
C1045 C1043 1.390 . S
C1045 C1046 1.387 . S
C1045 H1048 0.950 . S
C1046 C1045 1.387 . S
C1046 C1049 1.387 . S
H1047 C1043 0.950 . S
H1048 C1045 0.950 . S
C1049 C1040 1.390 . S
C1049 H1042 0.950 . S
C1049 C1046 1.387 . S
C1050 C1051 1.387 . S
C1050 H1054 0.950 . S
C1050 C1059 1.390 . S
C1051 C1050 1.387 . S
C1051 C1053 1.387 1_545 S
H1052 C1059 0.950 . S
C1053 C1051 1.387 1_565 S
C1053 C1055 1.390 . S
C1053 H1057 0.950 . S
H1054 C1050 0.950 . S
C1055 C1053 1.390 . S
C1055 C1056 1.387 . S
C1055 H1058 0.950 . S
C1056 C1055 1.387 . S
C1056 C1059 1.387 1_565 S
H1057 C1053 0.950 . S
H1058 C1055 0.950 . S
C1059 C1050 1.390 . S
C1059 H1052 0.950 . S
C1059 C1056 1.387 1_545 S
C1060 C1061 1.387 . S
C1060 H1064 0.950 . S
C1060 C1069 1.390 . S
C1061 C1060 1.387 . S
C1061 C1063 1.387 . S
H1062 C1069 0.950 . S
C1063 C1061 1.387 . S
C1063 C1065 1.390 . S
C1063 H1067 0.950 . S
H1064 C1060 0.950 . S
C1065 C1063 1.390 . S
C1065 C1066 1.387 . S
C1065 H1068 0.950 . S
C1066 C1065 1.387 . S
C1066 C1069 1.387 . S
H1067 C1063 0.950 . S
H1068 C1065 0.950 . S
C1069 C1060 1.390 . S
C1069 H1062 0.950 . S
C1069 C1066 1.387 . S
C1070 C1071 1.387 . S
C1070 H1074 0.950 . S
C1070 C1079 1.390 . S
C1071 C1070 1.387 . S
C1071 C1073 1.387 . S
H1072 C1079 0.950 . S
C1073 C1071 1.387 . S
C1073 C1075 1.390 . S
C1073 H1077 0.950 . S
H1074 C1070 0.950 . S
C1075 C1073 1.390 . S
C1075 C1076 1.387 . S
C1075 H1078 0.950 . S
C1076 C1075 1.387 . S
C1076 C1079 1.387 . S
H1077 C1073 0.950 . S
H1078 C1075 0.950 . S
C1079 C1070 1.390 . S
C1079 H1072 0.950 . S
C1079 C1076 1.387 . S
C1080 C1081 1.387 . S
C1080 H1084 0.950 . S
C1080 C1089 1.390 . S
C1081 C1080 1.387 . S
C1081 C1083 1.387 . S
H1082 C1089 0.950 . S
C1083 C1081 1.387 . S
C1083 C1085 1.390 . S
C1083 H1087 0.950 . S
H1084 C1080 0.950 . S
C1085 C1083 1.390 . S
C1085 C1086 1.387 . S
C1085 H1088 0.950 . S
C1086 C1085 1.387 . S
C1086 C1089 1.387 . S
H1087 C1083 0.950 . S
H1088 C1085 0.950 . S
C1089 C1080 1.390 . S
C1089 H1082 0.950 . S
C1089 C1086 1.387 . S
C1090 C1091 1.387 . S
C1090 H1094 0.950 . S
C1090 C1099 1.390 . S
C1091 C1090 1.387 . S
C1091 C1093 1.387 . S
H1092 C1099 0.950 . S
C1093 C1091 1.387 . S
C1093 C1095 1.390 . S
C1093 H1097 0.950 . S
H1094 C1090 0.950 . S
C1095 C1093 1.390 . S
C1095 C1096 1.387 . S
C1095 H1098 0.950 . S
C1096 C1095 1.387 . S
C1096 C1099 1.387 . S
H1097 C1093 0.950 . S
H1098 C1095 0.950 . S
C1099 C1090 1.390 . S
C1099 H1092 0.950 . S
C1099 C1096 1.387 . S
C1100 C1101 1.387 . S
C1100 H1104 0.950 . S
C1100 C1109 1.390 . S
C1101 C1100 1.387 . S
C1101 C1103 1.387 . S
H1102 C1109 0.950 . S
C1103 C1101 1.387 . S
C1103 C1105 1.390 . S
C1103 H1107 0.950 . S
H1104 C1100 0.950 . S
C1105 C1103 1.390 . S
C1105 C1106 1.387 . S
C1105 H1108 0.950 . S
C1106 C1105 1.387 . S
C1106 C1109 1.387 . S
H1107 C1103 0.950 . S
H1108 C1105 0.950 . S
C1109 C1100 1.390 . S
C1109 H1102 0.950 . S
C1109 C1106 1.387 . S
C1110 C1111 1.387 . S
C1110 H1114 0.950 . S
C1110 C1119 1.390 . S
C1111 C1110 1.387 . S
C1111 C1113 1.387 . S
H1112 C1119 0.950 . S
C1113 C1111 1.387 . S
C1113 C1115 1.390 . S
C1113 H1117 0.950 . S
H1114 C1110 0.950 . S
C1115 C1113 1.390 . S
C1115 C1116 1.387 . S
C1115 H1118 0.950 . S
C1116 C1115 1.387 . S
C1116 C1119 1.387 . S
H1117 C1113 0.950 . S
H1118 C1115 0.950 . S
C1119 C1110 1.390 . S
C1119 H1112 0.950 . S
C1119 C1116 1.387 . S
C1120 C1121 1.387 . S
C1120 H1124 0.950 . S
C1120 C1129 1.390 . S
C1121 C1120 1.387 . S
C1121 C1123 1.387 . S
H1122 C1129 0.950 . S
C1123 C1121 1.387 . S
C1123 C1125 1.390 . S
C1123 H1127 0.950 . S
H1124 C1120 0.950 . S
C1125 C1123 1.390 . S
C1125 C1126 1.387 . S
C1125 H1128 0.950 . S
C1126 C1125 1.387 . S
C1126 C1129 1.387 . S
H1127 C1123 0.950 . S
H1128 C1125 0.950 . S
C1129 C1120 1.390 . S
C1129 H1122 0.950 . S
C1129 C1126 1.387 . S
C1130 C1131 1.387 . S
C1130 H1134 0.950 . S
C1130 C1139 1.390 . S
C1131 C1130 1.387 . S
C1131 C1133 1.387 . S
H1132 C1139 0.950 . S
C1133 C1131 1.387 . S
C1133 C1135 1.390 . S
C1133 H1137 0.950 . S
H1134 C1130 0.950 . S
C1135 C1133 1.390 . S
C1135 C1136 1.387 . S
C1135 H1138 0.950 . S
C1136 C1135 1.387 . S
C1136 C1139 1.387 . S
H1137 C1133 0.950 . S
H1138 C1135 0.950 . S
C1139 C1130 1.390 . S
C1139 H1132 0.950 . S
C1139 C1136 1.387 . S
C1140 C1141 1.387 . S
C1140 H1144 0.950 . S
C1140 C1149 1.390 . S
C1141 C1140 1.387 . S
C1141 C1143 1.387 . S
H1142 C1149 0.950 . S
C1143 C1141 1.387 . S
C1143 C1145 1.390 . S
C1143 H1147 0.950 . S
H1144 C1140 0.950 . S
C1145 C1143 1.390 . S
C1145 C1146 1.387 . S
C1145 H1148 0.950 . S
C1146 C1145 1.387 . S
C1146 C1149 1.387 . S
H1147 C1143 0.950 . S
H1148 C1145 0.950 . S
C1149 C1140 1.390 . S
C1149 H1142 0.950 . S
C1149 C1146 1.387 . S
C1150 C1151 1.387 . S
C1150 H1154 0.950 . S
C1150 C1159 1.390 . S
C1151 C1150 1.387 . S
C1151 C1153 1.387 . S
H1152 C1159 0.950 . S
C1153 C1151 1.387 . S
C1153 C1155 1.390 . S
C1153 H1157 0.950 . S
H1154 C1150 0.950 . S
C1155 C1153 1.390 . S
C1155 C1156 1.387 . S
C1155 H1158 0.950 . S
C1156 C1155 1.387 . S
C1156 C1159 1.387 . S
H1157 C1153 0.950 . S
H1158 C1155 0.950 . S
C1159 C1150 1.390 . S
C1159 H1152 0.950 . S
C1159 C1156 1.387 . S
C1160 C1161 1.387 . S
C1160 H1164 0.950 . S
C1160 C1169 1.390 . S
C1161 C1160 1.387 . S
C1161 C1163 1.387 . S
H1162 C1169 0.950 . S
C1163 C1161 1.387 . S
C1163 C1165 1.390 . S
C1163 H1167 0.950 . S
H1164 C1160 0.950 . S
C1165 C1163 1.390 . S
C1165 C1166 1.387 . S
C1165 H1168 0.950 . S
C1166 C1165 1.387 . S
C1166 C1169 1.387 . S
H1167 C1163 0.950 . S
H1168 C1165 0.950 . S
C1169 C1160 1.390 . S
C1169 H1162 0.950 . S
C1169 C1166 1.387 . S
C1170 C1171 1.387 . S
C1170 H1174 0.950 . S
C1170 C1179 1.390 . S
C1171 C1170 1.387 . S
C1171 C1173 1.387 . S
H1172 C1179 0.950 . S
C1173 C1171 1.387 . S
C1173 C1175 1.390 . S
C1173 H1177 0.950 . S
H1174 C1170 0.950 . S
C1175 C1173 1.390 . S
C1175 C1176 1.387 . S
C1175 H1178 0.950 . S
C1176 C1175 1.387 . S
C1176 C1179 1.387 . S
H1177 C1173 0.950 . S
H1178 C1175 0.950 . S
C1179 C1170 1.390 . S
C1179 H1172 0.950 . S
C1179 C1176 1.387 . S
C1180 C1181 1.387 . S
C1180 H1184 0.950 . S
C1180 C1189 1.390 . S
C1181 C1180 1.387 . S
C1181 C1183 1.387 . S
H1182 C1189 0.950 . S
C1183 C1181 1.387 . S
C1183 C1185 1.390 . S
C1183 H1187 0.950 . S
H1184 C1180 0.950 . S
C1185 C1183 1.390 . S
C1185 C1186 1.387 . S
C1185 H1188 0.950 . S
C1186 C1185 1.387 . S
C1186 C1189 1.387 . S
H1187 C1183 0.950 . S
H1188 C1185 0.950 . S
C1189 C1180 1.390 . S
C1189 H1182 0.950 . S
C1189 C1186 1.387 . S
C1190 C1191 1.387 . S
C1190 H1194 0.950 . S
C1190 C1199 1.390 . S
C1191 C1190 1.387 . S
C1191 C1193 1.387 . S
H1192 C1199 0.950 . S
C1193 C1191 1.387 . S
C1193 C1195 1.390 . S
C1193 H1197 0.950 . S
H1194 C1190 0.950 . S
C1195 C1193 1.390 . S
C1195 C1196 1.387 . S
C1195 H1198 0.950 . S
C1196 C1195 1.387 . S
C1196 C1199 1.387 . S
H1197 C1193 0.950 . S
H1198 C1195 0.950 . S
C1199 C1190 1.390 . S
C1199 H1192 0.950 . S
C1199 C1196 1.387 . S
C1200 C1201 1.387 1_655 S
C1200 H1204 0.950 . S
C1200 C1209 1.390 1_655 S
C1201 C1200 1.387 1_455 S
C1201 C1203 1.387 . S
H1202 C1209 0.950 . S
C1203 C1201 1.387 . S
C1203 C1205 1.390 . S
C1203 H1207 0.950 . S
H1204 C1200 0.950 . S
C1205 C1203 1.390 . S
C1205 C1206 1.387 . S
C1205 H1208 0.950 . S
C1206 C1205 1.387 . S
C1206 C1209 1.387 . S
H1207 C1203 0.950 . S
H1208 C1205 0.950 . S
C1209 C1200 1.390 1_455 S
C1209 H1202 0.950 . S
C1209 C1206 1.387 . S
C1210 C1211 1.387 . S
C1210 H1214 0.950 . S
C1210 C1219 1.390 . S
C1211 C1210 1.387 . S
C1211 C1213 1.387 . S
H1212 C1219 0.950 . S
C1213 C1211 1.387 . S
C1213 C1215 1.390 . S
C1213 H1217 0.950 . S
H1214 C1210 0.950 . S
C1215 C1213 1.390 . S
C1215 C1216 1.387 . S
C1215 H1218 0.950 . S
C1216 C1215 1.387 . S
C1216 C1219 1.387 . S
H1217 C1213 0.950 . S
H1218 C1215 0.950 . S
C1219 C1210 1.390 . S
C1219 H1212 0.950 . S
C1219 C1216 1.387 . S
C1220 C1221 1.387 . S
C1220 H1224 0.950 . S
C1220 C1229 1.390 . S
C1221 C1220 1.387 . S
C1221 C1223 1.387 . S
H1222 C1229 0.950 . S
C1223 C1221 1.387 . S
C1223 C1225 1.390 . S
C1223 H1227 0.950 . S
H1224 C1220 0.950 . S
C1225 C1223 1.390 . S
C1225 C1226 1.387 . S
C1225 H1228 0.950 . S
C1226 C1225 1.387 . S
C1226 C1229 1.387 . S
H1227 C1223 0.950 . S
H1228 C1225 0.950 . S
C1229 C1220 1.390 . S
C1229 H1222 0.950 . S
C1229 C1226 1.387 . S
C1230 C1231 1.387 . S
C1230 H1234 0.950 . S
C1230 C1239 1.390 . S
C1231 C1230 1.387 . S
C1231 C1233 1.387 . S
H1232 C1239 0.950 . S
C1233 C1231 1.387 . S
C1233 C1235 1.390 . S
C1233 H1237 0.950 . S
H1234 C1230 0.950 . S
C1235 C1233 1.390 . S
C1235 C1236 1.387 . S
C1235 H1238 0.950 . S
C1236 C1235 1.387 . S
C1236 C1239 1.387 . S
H1237 C1233 0.950 . S
H1238 C1235 0.950 . S
C1239 C1230 1.390 . S
C1239 H1232 0.950 . S
C1239 C1236 1.387 . S
C1240 C1241 1.387 . S
C1240 H1244 0.950 . S
C1240 C1249 1.390 . S
C1241 C1240 1.387 . S
C1241 C1243 1.387 . S
H1242 C1249 0.950 . S
C1243 C1241 1.387 . S
C1243 C1245 1.390 . S
C1243 H1247 0.950 . S
H1244 C1240 0.950 . S
C1245 C1243 1.390 . S
C1245 C1246 1.387 . S
C1245 H1248 0.950 . S
C1246 C1245 1.387 . S
C1246 C1249 1.387 . S
H1247 C1243 0.950 . S
H1248 C1245 0.950 . S
C1249 C1240 1.390 . S
C1249 H1242 0.950 . S
C1249 C1246 1.387 . S
C1250 C1251 1.387 . S
C1250 H1254 0.950 . S
C1250 C1259 1.390 . S
C1251 C1250 1.387 . S
C1251 C1253 1.387 . S
H1252 C1259 0.950 . S
C1253 C1251 1.387 . S
C1253 C1255 1.390 . S
C1253 H1257 0.950 . S
H1254 C1250 0.950 . S
C1255 C1253 1.390 . S
C1255 C1256 1.387 . S
C1255 H1258 0.950 . S
C1256 C1255 1.387 . S
C1256 C1259 1.387 . S
H1257 C1253 0.950 . S
H1258 C1255 0.950 . S
C1259 C1250 1.390 . S
C1259 H1252 0.950 . S
C1259 C1256 1.387 . S
C1260 C1261 1.387 . S
C1260 H1264 0.950 . S
C1260 C1269 1.390 . S
C1261 C1260 1.387 . S
C1261 C1263 1.387 . S
H1262 C1269 0.950 . S
C1263 C1261 1.387 . S
C1263 C1265 1.390 . S
C1263 H1267 0.950 . S
H1264 C1260 0.950 . S
C1265 C1263 1.390 . S
C1265 C1266 1.387 . S
C1265 H1268 0.950 . S
C1266 C1265 1.387 . S
C1266 C1269 1.387 . S
H1267 C1263 0.950 . S
H1268 C1265 0.950 . S
C1269 C1260 1.390 . S
C1269 H1262 0.950 . S
C1269 C1266 1.387 . S
C1270 C1271 1.387 . S
C1270 H1274 0.950 . S
C1270 C1279 1.390 1_554 S
C1271 C1270 1.387 . S
C1271 C1273 1.387 . S
H1272 C1279 0.950 . S
C1273 C1271 1.387 . S
C1273 C1275 1.390 1_554 S
C1273 H1277 0.950 . S
H1274 C1270 0.950 . S
C1275 C1273 1.390 1_556 S
C1275 C1276 1.387 . S
C1275 H1278 0.950 . S
C1276 C1275 1.387 . S
C1276 C1279 1.387 . S
H1277 C1273 0.950 . S
H1278 C1275 0.950 . S
C1279 C1270 1.390 1_556 S
C1279 H1272 0.950 . S
C1279 C1276 1.387 . S
C1280 C1281 1.387 . S
C1280 H1284 0.950 . S
C1280 C1289 1.390 . S
C1281 C1280 1.387 . S
C1281 C1283 1.387 . S
H1282 C1289 0.950 . S
C1283 C1281 1.387 . S
C1283 C1285 1.390 . S
C1283 H1287 0.950 . S
H1284 C1280 0.950 . S
C1285 C1283 1.390 . S
C1285 C1286 1.387 . S
C1285 H1288 0.950 . S
C1286 C1285 1.387 . S
C1286 C1289 1.387 . S
H1287 C1283 0.950 . S
H1288 C1285 0.950 . S
C1289 C1280 1.390 . S
C1289 H1282 0.950 . S
C1289 C1286 1.387 . S
C1290 C1291 1.387 . S
C1290 H1294 0.950 . S
C1290 C1299 1.390 . S
C1291 C1290 1.387 . S
C1291 C1293 1.387 . S
H1292 C1299 0.950 . S
C1293 C1291 1.387 . S
C1293 C1295 1.390 . S
C1293 H1297 0.950 . S
H1294 C1290 0.950 . S
C1295 C1293 1.390 . S
C1295 C1296 1.387 . S
C1295 H1298 0.950 . S
C1296 C1295 1.387 . S
C1296 C1299 1.387 . S
H1297 C1293 0.950 . S
H1298 C1295 0.950 . S
C1299 C1290 1.390 . S
C1299 H1292 0.950 . S
C1299 C1296 1.387 . S
C1300 C1301 1.387 . S
C1300 H1304 0.950 . S
C1300 C1309 1.390 . S
C1301 C1300 1.387 . S
C1301 C1303 1.387 . S
H1302 C1309 0.950 . S
C1303 C1301 1.387 . S
C1303 C1305 1.390 . S
C1303 H1307 0.950 . S
H1304 C1300 0.950 . S
C1305 C1303 1.390 . S
C1305 C1306 1.387 . S
C1305 H1308 0.950 . S
C1306 C1305 1.387 . S
C1306 C1309 1.387 . S
H1307 C1303 0.950 . S
H1308 C1305 0.950 . S
C1309 C1300 1.390 . S
C1309 H1302 0.950 . S
C1309 C1306 1.387 . S
C1310 C1311 1.387 . S
C1310 H1314 0.950 . S
C1310 C1319 1.390 . S
C1311 C1310 1.387 . S
C1311 C1313 1.387 . S
H1312 C1319 0.950 . S
C1313 C1311 1.387 . S
C1313 C1315 1.390 . S
C1313 H1317 0.950 . S
H1314 C1310 0.950 . S
C1315 C1313 1.390 . S
C1315 C1316 1.387 . S
C1315 H1318 0.950 . S
C1316 C1315 1.387 . S
C1316 C1319 1.387 . S
H1317 C1313 0.950 . S
H1318 C1315 0.950 . S
C1319 C1310 1.390 . S
C1319 H1312 0.950 . S
C1319 C1316 1.387 . S
C961 C162 1.630 . S
C966 C2 1.704 . S
C971 C202 1.551 . S
C976 C61 1.537 . S
C981 C82 2.247 . S
C986 C261 2.021 . S
C991 C122 1.988 . S
C996 C301 2.242 . S
C1001 C42 1.970 . S
C1006 C341 2.194 . S
C1011 C381 1.530 . S
C1016 C101 1.625 . S
C1021 C141 1.597 . S
C1026 C421 1.677 . S
C1031 C442 1.907 . S
C1036 C21 2.163 . S
C1041 C181 1.920 . S
C1046 C461 1.895 . S
C1051 C322 2.178 . S
C1056 C221 1.983 . S
C1061 C242 2.027 . S
C1066 C362 2.026 . S
C1071 C282 2.239 . S
C1076 C402 2.228 . S
C1081 C482 1.546 . S
C1086 C741 1.541 . S
C1091 C762 2.246 . S
C1096 C541 2.025 . S
C1101 C802 1.992 . S
C1106 C581 2.245 . S
C1111 C621 1.680 . S
C1116 C821 1.595 . S
C1121 C661 2.196 . S
C1126 C722 1.968 . S
C1131 C842 1.629 . S
C1136 C682 1.703 . S
C1141 C781 1.624 . S
C1146 C901 1.530 . S
C1151 C701 2.162 . S
C1156 C922 1.904 . S
C1161 C861 1.917 . S
C1166 C941 1.897 . S
C1171 C501 1.981 . S
C1176 C642 2.179 . S
C1181 C882 2.023 . S
C1186 C522 2.027 . S
C1191 C602 2.228 . S
C1196 C562 2.239 . S
C1201 C15 2.714 1_455 S
C1206 C775 2.704 . S
C1211 C55 2.681 . S
C1216 C815 2.666 . S
C1221 C695 2.713 . S
C1226 C95 2.704 . S
C1231 C135 2.662 . S
C1236 C735 2.677 . S
C1241 C335 2.676 . S
C1246 C175 2.670 . S
C1251 C215 2.447 . S
C1256 C375 2.434 . S
C1261 C415 2.162 . S
C1266 C255 2.151 . S
C1271 C455 2.612 . S
C1276 C295 2.632 . S
C1281 C495 2.449 . S
C1286 C895 2.437 1_556 S
C1291 C535 2.151 . S
C1296 C615 2.162 . S
C1301 C935 2.612 . S
C1306 C575 2.632 . S
C1311 C855 2.670 . S
C1316 C655 2.676 . S
