# Generated by pormake.
# Topology ubt, (5)-cn, num edge types: 1
# Building blocks:
#     Node 0, Type 0, BuildingBlock: BEQFEK_clean_sbu_0, # of connection points: 5
#     Node 1, Type 0, BuildingBlock: BEQFEK_clean_sbu_0, # of connection points: 5
#     Node 2, Type 0, BuildingBlock: BEQFEK_clean_sbu_0, # of connection points: 5
#     Node 3, Type 0, BuildingBlock: BEQFEK_clean_sbu_0, # of connection points: 5
#     Node 4, Type 0, BuildingBlock: BEQFEK_clean_sbu_0, # of connection points: 5
#     Node 5, Type 0, BuildingBlock: BEQFEK_clean_sbu_0, # of connection points: 5
#     Node 6, Type 0, BuildingBlock: BEQFEK_clean_sbu_0, # of connection points: 5
#     Node 7, Type 0, BuildingBlock: BEQFEK_clean_sbu_0, # of connection points: 5
#     Node 8, Type 0, BuildingBlock: BEQFEK_clean_sbu_0, # of connection points: 5
#     Node 9, Type 0, BuildingBlock: BEQFEK_clean_sbu_0, # of connection points: 5
#     Node 10, Type 0, BuildingBlock: BEQFEK_clean_sbu_0, # of connection points: 5
#     Node 11, Type 0, BuildingBlock: BEQFEK_clean_sbu_0, # of connection points: 5
#     Node 12, Type 0, BuildingBlock: BEQFEK_clean_sbu_0, # of connection points: 5
#     Node 13, Type 0, BuildingBlock: BEQFEK_clean_sbu_0, # of connection points: 5
#     Node 14, Type 0, BuildingBlock: BEQFEK_clean_sbu_0, # of connection points: 5
#     Node 15, Type 0, BuildingBlock: BEQFEK_clean_sbu_0, # of connection points: 5
#     Node 16, Type 0, BuildingBlock: BEQFEK_clean_sbu_0, # of connection points: 5
#     Node 17, Type 0, BuildingBlock: BEQFEK_clean_sbu_0, # of connection points: 5
#     Node 18, Type 0, BuildingBlock: BEQFEK_clean_sbu_0, # of connection points: 5
#     Node 19, Type 0, BuildingBlock: BEQFEK_clean_sbu_0, # of connection points: 5
#     Node 20, Type 0, BuildingBlock: BEQFEK_clean_sbu_0, # of connection points: 5
#     Node 21, Type 0, BuildingBlock: BEQFEK_clean_sbu_0, # of connection points: 5
#     Node 22, Type 0, BuildingBlock: BEQFEK_clean_sbu_0, # of connection points: 5
#     Node 23, Type 0, BuildingBlock: BEQFEK_clean_sbu_0, # of connection points: 5
#     Node 24, Type 0, BuildingBlock: BEQFEK_clean_sbu_0, # of connection points: 5
#     Node 25, Type 0, BuildingBlock: BEQFEK_clean_sbu_0, # of connection points: 5
#     Node 26, Type 0, BuildingBlock: BEQFEK_clean_sbu_0, # of connection points: 5
#     Node 27, Type 0, BuildingBlock: BEQFEK_clean_sbu_0, # of connection points: 5
#     Node 28, Type 0, BuildingBlock: BEQFEK_clean_sbu_0, # of connection points: 5
#     Node 29, Type 0, BuildingBlock: BEQFEK_clean_sbu_0, # of connection points: 5
#     Node 30, Type 0, BuildingBlock: BEQFEK_clean_sbu_0, # of connection points: 5
#     Node 31, Type 0, BuildingBlock: BEQFEK_clean_sbu_0, # of connection points: 5
#     Node 32, Type 0, BuildingBlock: BEQFEK_clean_sbu_0, # of connection points: 5
#     Node 33, Type 0, BuildingBlock: BEQFEK_clean_sbu_0, # of connection points: 5
#     Node 34, Type 0, BuildingBlock: BEQFEK_clean_sbu_0, # of connection points: 5
#     Node 35, Type 0, BuildingBlock: BEQFEK_clean_sbu_0, # of connection points: 5
#     Node 36, Type 0, BuildingBlock: BEQFEK_clean_sbu_0, # of connection points: 5
#     Node 37, Type 0, BuildingBlock: BEQFEK_clean_sbu_0, # of connection points: 5
#     Node 38, Type 0, BuildingBlock: BEQFEK_clean_sbu_0, # of connection points: 5
#     Node 39, Type 0, BuildingBlock: BEQFEK_clean_sbu_0, # of connection points: 5
#     Node 40, Type 0, BuildingBlock: BEQFEK_clean_sbu_0, # of connection points: 5
#     Node 41, Type 0, BuildingBlock: BEQFEK_clean_sbu_0, # of connection points: 5
#     Node 42, Type 0, BuildingBlock: BEQFEK_clean_sbu_0, # of connection points: 5
#     Node 43, Type 0, BuildingBlock: BEQFEK_clean_sbu_0, # of connection points: 5
#     Node 44, Type 0, BuildingBlock: BEQFEK_clean_sbu_0, # of connection points: 5
#     Node 45, Type 0, BuildingBlock: BEQFEK_clean_sbu_0, # of connection points: 5
#     Node 46, Type 0, BuildingBlock: BEQFEK_clean_sbu_0, # of connection points: 5
#     Node 47, Type 0, BuildingBlock: BEQFEK_clean_sbu_0, # of connection points: 5
#     Edge 48, Type (0, 0), BuildingBlock: CIFDUS_clean_linker_0, # of connection points: 2
#     Edge 49, Type (0, 0), BuildingBlock: CIFDUS_clean_linker_0, # of connection points: 2
#     Edge 50, Type (0, 0), BuildingBlock: CIFDUS_clean_linker_0, # of connection points: 2
#     Edge 51, Type (0, 0), BuildingBlock: CIFDUS_clean_linker_0, # of connection points: 2
#     Edge 52, Type (0, 0), BuildingBlock: CIFDUS_clean_linker_0, # of connection points: 2
#     Edge 53, Type (0, 0), BuildingBlock: CIFDUS_clean_linker_0, # of connection points: 2
#     Edge 54, Type (0, 0), BuildingBlock: CIFDUS_clean_linker_0, # of connection points: 2
#     Edge 55, Type (0, 0), BuildingBlock: CIFDUS_clean_linker_0, # of connection points: 2
#     Edge 56, Type (0, 0), BuildingBlock: CIFDUS_clean_linker_0, # of connection points: 2
#     Edge 57, Type (0, 0), BuildingBlock: CIFDUS_clean_linker_0, # of connection points: 2
#     Edge 58, Type (0, 0), BuildingBlock: CIFDUS_clean_linker_0, # of connection points: 2
#     Edge 59, Type (0, 0), BuildingBlock: CIFDUS_clean_linker_0, # of connection points: 2
#     Edge 60, Type (0, 0), BuildingBlock: CIFDUS_clean_linker_0, # of connection points: 2
#     Edge 61, Type (0, 0), BuildingBlock: CIFDUS_clean_linker_0, # of connection points: 2
#     Edge 62, Type (0, 0), BuildingBlock: CIFDUS_clean_linker_0, # of connection points: 2
#     Edge 63, Type (0, 0), BuildingBlock: CIFDUS_clean_linker_0, # of connection points: 2
#     Edge 64, Type (0, 0), BuildingBlock: CIFDUS_clean_linker_0, # of connection points: 2
#     Edge 65, Type (0, 0), BuildingBlock: CIFDUS_clean_linker_0, # of connection points: 2
#     Edge 66, Type (0, 0), BuildingBlock: CIFDUS_clean_linker_0, # of connection points: 2
#     Edge 67, Type (0, 0), BuildingBlock: CIFDUS_clean_linker_0, # of connection points: 2
#     Edge 68, Type (0, 0), BuildingBlock: CIFDUS_clean_linker_0, # of connection points: 2
#     Edge 69, Type (0, 0), BuildingBlock: CIFDUS_clean_linker_0, # of connection points: 2
#     Edge 70, Type (0, 0), BuildingBlock: CIFDUS_clean_linker_0, # of connection points: 2
#     Edge 71, Type (0, 0), BuildingBlock: CIFDUS_clean_linker_0, # of connection points: 2
#     Edge 72, Type (0, 0), BuildingBlock: CIFDUS_clean_linker_0, # of connection points: 2
#     Edge 73, Type (0, 0), BuildingBlock: CIFDUS_clean_linker_0, # of connection points: 2
#     Edge 74, Type (0, 0), BuildingBlock: CIFDUS_clean_linker_0, # of connection points: 2
#     Edge 75, Type (0, 0), BuildingBlock: CIFDUS_clean_linker_0, # of connection points: 2
#     Edge 76, Type (0, 0), BuildingBlock: CIFDUS_clean_linker_0, # of connection points: 2
#     Edge 77, Type (0, 0), BuildingBlock: CIFDUS_clean_linker_0, # of connection points: 2
#     Edge 78, Type (0, 0), BuildingBlock: CIFDUS_clean_linker_0, # of connection points: 2
#     Edge 79, Type (0, 0), BuildingBlock: CIFDUS_clean_linker_0, # of connection points: 2
#     Edge 80, Type (0, 0), BuildingBlock: CIFDUS_clean_linker_0, # of connection points: 2
#     Edge 81, Type (0, 0), BuildingBlock: CIFDUS_clean_linker_0, # of connection points: 2
#     Edge 82, Type (0, 0), BuildingBlock: CIFDUS_clean_linker_0, # of connection points: 2
#     Edge 83, Type (0, 0), BuildingBlock: CIFDUS_clean_linker_0, # of connection points: 2
#     Edge 84, Type (0, 0), BuildingBlock: CIFDUS_clean_linker_0, # of connection points: 2
#     Edge 85, Type (0, 0), BuildingBlock: CIFDUS_clean_linker_0, # of connection points: 2
#     Edge 86, Type (0, 0), BuildingBlock: CIFDUS_clean_linker_0, # of connection points: 2
#     Edge 87, Type (0, 0), BuildingBlock: CIFDUS_clean_linker_0, # of connection points: 2
#     Edge 88, Type (0, 0), BuildingBlock: CIFDUS_clean_linker_0, # of connection points: 2
#     Edge 89, Type (0, 0), BuildingBlock: CIFDUS_clean_linker_0, # of connection points: 2
#     Edge 90, Type (0, 0), BuildingBlock: CIFDUS_clean_linker_0, # of connection points: 2
#     Edge 91, Type (0, 0), BuildingBlock: CIFDUS_clean_linker_0, # of connection points: 2
#     Edge 92, Type (0, 0), BuildingBlock: CIFDUS_clean_linker_0, # of connection points: 2
#     Edge 93, Type (0, 0), BuildingBlock: CIFDUS_clean_linker_0, # of connection points: 2
#     Edge 94, Type (0, 0), BuildingBlock: CIFDUS_clean_linker_0, # of connection points: 2
#     Edge 95, Type (0, 0), BuildingBlock: CIFDUS_clean_linker_0, # of connection points: 2
#     Edge 96, Type (0, 0), BuildingBlock: CIFDUS_clean_linker_0, # of connection points: 2
#     Edge 97, Type (0, 0), BuildingBlock: CIFDUS_clean_linker_0, # of connection points: 2
#     Edge 98, Type (0, 0), BuildingBlock: CIFDUS_clean_linker_0, # of connection points: 2
#     Edge 99, Type (0, 0), BuildingBlock: CIFDUS_clean_linker_0, # of connection points: 2
#     Edge 100, Type (0, 0), BuildingBlock: CIFDUS_clean_linker_0, # of connection points: 2
#     Edge 101, Type (0, 0), BuildingBlock: CIFDUS_clean_linker_0, # of connection points: 2
#     Edge 102, Type (0, 0), BuildingBlock: CIFDUS_clean_linker_0, # of connection points: 2
#     Edge 103, Type (0, 0), BuildingBlock: CIFDUS_clean_linker_0, # of connection points: 2
#     Edge 104, Type (0, 0), BuildingBlock: CIFDUS_clean_linker_0, # of connection points: 2
#     Edge 105, Type (0, 0), BuildingBlock: CIFDUS_clean_linker_0, # of connection points: 2
#     Edge 106, Type (0, 0), BuildingBlock: CIFDUS_clean_linker_0, # of connection points: 2
#     Edge 107, Type (0, 0), BuildingBlock: CIFDUS_clean_linker_0, # of connection points: 2
#     Edge 108, Type (0, 0), BuildingBlock: CIFDUS_clean_linker_0, # of connection points: 2
#     Edge 109, Type (0, 0), BuildingBlock: CIFDUS_clean_linker_0, # of connection points: 2
#     Edge 110, Type (0, 0), BuildingBlock: CIFDUS_clean_linker_0, # of connection points: 2
#     Edge 111, Type (0, 0), BuildingBlock: CIFDUS_clean_linker_0, # of connection points: 2
#     Edge 112, Type (0, 0), BuildingBlock: CIFDUS_clean_linker_0, # of connection points: 2
#     Edge 113, Type (0, 0), BuildingBlock: CIFDUS_clean_linker_0, # of connection points: 2
#     Edge 114, Type (0, 0), BuildingBlock: CIFDUS_clean_linker_0, # of connection points: 2
#     Edge 115, Type (0, 0), BuildingBlock: CIFDUS_clean_linker_0, # of connection points: 2
#     Edge 116, Type (0, 0), BuildingBlock: CIFDUS_clean_linker_0, # of connection points: 2
#     Edge 117, Type (0, 0), BuildingBlock: CIFDUS_clean_linker_0, # of connection points: 2
#     Edge 118, Type (0, 0), BuildingBlock: CIFDUS_clean_linker_0, # of connection points: 2
#     Edge 119, Type (0, 0), BuildingBlock: CIFDUS_clean_linker_0, # of connection points: 2
#     Edge 120, Type (0, 0), BuildingBlock: CIFDUS_clean_linker_0, # of connection points: 2
#     Edge 121, Type (0, 0), BuildingBlock: CIFDUS_clean_linker_0, # of connection points: 2
#     Edge 122, Type (0, 0), BuildingBlock: CIFDUS_clean_linker_0, # of connection points: 2
#     Edge 123, Type (0, 0), BuildingBlock: CIFDUS_clean_linker_0, # of connection points: 2
#     Edge 124, Type (0, 0), BuildingBlock: CIFDUS_clean_linker_0, # of connection points: 2
#     Edge 125, Type (0, 0), BuildingBlock: CIFDUS_clean_linker_0, # of connection points: 2
#     Edge 126, Type (0, 0), BuildingBlock: CIFDUS_clean_linker_0, # of connection points: 2
#     Edge 127, Type (0, 0), BuildingBlock: CIFDUS_clean_linker_0, # of connection points: 2
#     Edge 128, Type (0, 0), BuildingBlock: CIFDUS_clean_linker_0, # of connection points: 2
#     Edge 129, Type (0, 0), BuildingBlock: CIFDUS_clean_linker_0, # of connection points: 2
#     Edge 130, Type (0, 0), BuildingBlock: CIFDUS_clean_linker_0, # of connection points: 2
#     Edge 131, Type (0, 0), BuildingBlock: CIFDUS_clean_linker_0, # of connection points: 2
#     Edge 132, Type (0, 0), BuildingBlock: CIFDUS_clean_linker_0, # of connection points: 2
#     Edge 133, Type (0, 0), BuildingBlock: CIFDUS_clean_linker_0, # of connection points: 2
#     Edge 134, Type (0, 0), BuildingBlock: CIFDUS_clean_linker_0, # of connection points: 2
#     Edge 135, Type (0, 0), BuildingBlock: CIFDUS_clean_linker_0, # of connection points: 2
#     Edge 136, Type (0, 0), BuildingBlock: CIFDUS_clean_linker_0, # of connection points: 2
#     Edge 137, Type (0, 0), BuildingBlock: CIFDUS_clean_linker_0, # of connection points: 2
#     Edge 138, Type (0, 0), BuildingBlock: CIFDUS_clean_linker_0, # of connection points: 2
#     Edge 139, Type (0, 0), BuildingBlock: CIFDUS_clean_linker_0, # of connection points: 2
#     Edge 140, Type (0, 0), BuildingBlock: CIFDUS_clean_linker_0, # of connection points: 2
#     Edge 141, Type (0, 0), BuildingBlock: CIFDUS_clean_linker_0, # of connection points: 2
#     Edge 142, Type (0, 0), BuildingBlock: CIFDUS_clean_linker_0, # of connection points: 2
#     Edge 143, Type (0, 0), BuildingBlock: CIFDUS_clean_linker_0, # of connection points: 2
#     Edge 144, Type (0, 0), BuildingBlock: CIFDUS_clean_linker_0, # of connection points: 2
#     Edge 145, Type (0, 0), BuildingBlock: CIFDUS_clean_linker_0, # of connection points: 2
#     Edge 146, Type (0, 0), BuildingBlock: CIFDUS_clean_linker_0, # of connection points: 2
#     Edge 147, Type (0, 0), BuildingBlock: CIFDUS_clean_linker_0, # of connection points: 2
#     Edge 148, Type (0, 0), BuildingBlock: CIFDUS_clean_linker_0, # of connection points: 2
#     Edge 149, Type (0, 0), BuildingBlock: CIFDUS_clean_linker_0, # of connection points: 2
#     Edge 150, Type (0, 0), BuildingBlock: CIFDUS_clean_linker_0, # of connection points: 2
#     Edge 151, Type (0, 0), BuildingBlock: CIFDUS_clean_linker_0, # of connection points: 2
#     Edge 152, Type (0, 0), BuildingBlock: CIFDUS_clean_linker_0, # of connection points: 2
#     Edge 153, Type (0, 0), BuildingBlock: CIFDUS_clean_linker_0, # of connection points: 2
#     Edge 154, Type (0, 0), BuildingBlock: CIFDUS_clean_linker_0, # of connection points: 2
#     Edge 155, Type (0, 0), BuildingBlock: CIFDUS_clean_linker_0, # of connection points: 2
#     Edge 156, Type (0, 0), BuildingBlock: CIFDUS_clean_linker_0, # of connection points: 2
#     Edge 157, Type (0, 0), BuildingBlock: CIFDUS_clean_linker_0, # of connection points: 2
#     Edge 158, Type (0, 0), BuildingBlock: CIFDUS_clean_linker_0, # of connection points: 2
#     Edge 159, Type (0, 0), BuildingBlock: CIFDUS_clean_linker_0, # of connection points: 2
#     Edge 160, Type (0, 0), BuildingBlock: CIFDUS_clean_linker_0, # of connection points: 2
#     Edge 161, Type (0, 0), BuildingBlock: CIFDUS_clean_linker_0, # of connection points: 2
#     Edge 162, Type (0, 0), BuildingBlock: CIFDUS_clean_linker_0, # of connection points: 2
#     Edge 163, Type (0, 0), BuildingBlock: CIFDUS_clean_linker_0, # of connection points: 2
#     Edge 164, Type (0, 0), BuildingBlock: CIFDUS_clean_linker_0, # of connection points: 2
#     Edge 165, Type (0, 0), BuildingBlock: CIFDUS_clean_linker_0, # of connection points: 2
#     Edge 166, Type (0, 0), BuildingBlock: CIFDUS_clean_linker_0, # of connection points: 2
#     Edge 167, Type (0, 0), BuildingBlock: CIFDUS_clean_linker_0, # of connection points: 2
# Relax obj value: 0.498
# Max RMSD: 0.208
# Mean RMSD: 0.186
data_MOF--net-ubt--node1-BEQFEK_clean_sbu_0--edge1-CIFDUS_clean_linker_0
_symmetry_space_group_name_H-M    P1
_symmetry_Int_Tables_number       1
_symmetry_cell_setting            triclinic
loop_
_symmetry_equiv_pos_as_xyz
'x, y, z'
_cell_length_a     60.461108
_cell_length_b     60.873908
_cell_length_c     60.871592
_cell_angle_alpha  94.603338
_cell_angle_beta   91.333398
_cell_angle_gamma 91.880002
loop_
_atom_site_label
_atom_site_type_symbol
_atom_site_fract_x
_atom_site_fract_y
_atom_site_fract_z
_atom_type_partial_charge
Co0 Co 0.01317 0.17748 0.25131 0.0
Co1 Co 0.04947 0.20536 0.22876 0.0
C2 C 0.00546 0.19734 0.20777 0.0
O3 O -0.00024 0.18607 0.22351 0.0
O4 O 0.02474 0.20619 0.20718 0.0
C5 C 0.97324 0.15465 0.25531 0.0
O6 O 0.96573 0.17279 0.248 0.0
C7 C 0.08022 0.22546 0.19888 0.0
C8 C 0.10974 0.23251 0.22074 0.0
C9 C 0.10215 0.23313 0.19915 0.0
N10 N 0.07542 0.2199 0.21918 0.0
N11 N 0.09294 0.22465 0.23228 0.0
C12 C 0.06358 0.22464 0.1802 0.0
H13 H 0.04792 0.23164 0.18618 0.0
H14 H 0.06009 0.20722 0.17393 0.0
H15 H 0.06937 0.23432 0.16664 0.0
C16 C 0.04954 0.14692 0.2525 0.0
N17 N 0.04097 0.16561 0.24626 0.0
N18 N 0.05573 0.1763 0.23525 0.0
C19 C 0.07412 0.16443 0.23371 0.0
C20 C 0.07085 0.14556 0.24478 0.0
C21 C 0.0382 0.13194 0.26738 0.0
H22 H 0.02919 0.14183 0.28016 0.0
H23 H 0.02595 0.12105 0.25752 0.0
H24 H 0.05013 0.12159 0.27557 0.0
O25 O 0.01531 0.20333 0.27281 0.0
O26 O 0.0413 0.22201 0.25596 0.0
H27 H 0.1053 0.18185 0.23286 0.0
H28 H 0.10369 0.15605 0.2162 0.0
C29 C 0.09434 0.17082 0.22167 0.0
H30 H 0.08966 0.17964 0.20711 0.0
H31 H 0.09367 0.22175 0.24895 0.0
O32 O 0.99353 0.15399 0.26077 0.0
C33 C 0.02816 0.22017 0.27177 0.0
Co34 Co 0.84875 0.04414 0.2009 0.0
Co35 Co 0.87899 0.00927 0.22202 0.0
C36 C 0.89737 0.05232 0.21079 0.0
O37 O 0.87858 0.05706 0.20325 0.0
O38 O 0.90041 0.03411 0.21905 0.0
C39 C 0.84202 0.06747 0.16435 0.0
O40 O 0.85816 0.05462 0.15814 0.0
C41 C 0.91538 0.97867 0.22449 0.0
C42 C 0.90104 0.95283 0.24389 0.0
C43 C 0.91964 0.95844 0.2324 0.0
N44 N 0.89514 0.98469 0.2309 0.0
N45 N 0.88683 0.96934 0.24282 0.0
C46 C 0.92905 0.99081 0.2089 0.0
H47 H 0.91815 -0.00088 0.19746 0.0
H48 H 0.93994 0.97951 0.19931 0.0
H49 H 0.93955 0.00364 0.2185 0.0
C50 C 0.83466 0.00455 0.17243 0.0
N51 N 0.84832 0.01509 0.18789 0.0
N52 N 0.86172 0.00087 0.19587 0.0
C53 C 0.85717 0.98084 0.18539 0.0
C54 C 0.83966 0.98248 0.17058 0.0
C55 C 0.81593 0.01501 0.16119 0.0
H56 H 0.80894 0.02805 0.17249 0.0
H57 H 0.82225 0.02273 0.14656 0.0
H58 H 0.80274 0.00257 0.15558 0.0
O59 O 0.83759 0.04401 0.23099 0.0
O60 O 0.85822 0.01868 0.24549 0.0
H61 H 0.86433 0.95416 0.20491 0.0
H62 H 0.86646 0.94741 0.17566 0.0
C63 C 0.86955 0.96052 0.1892 0.0
H64 H 0.88753 0.96455 0.19025 0.0
H65 H 0.87106 0.96969 0.24944 0.0
O66 O 0.83308 0.06484 0.18272 0.0
C67 C 0.84301 0.03276 0.24697 0.0
Co68 Co 0.02124 0.82049 0.1847 0.0
Co69 Co 0.05119 0.85072 0.2176 0.0
C70 C 0.0069 0.86506 0.20427 0.0
O71 O 0.00355 0.84678 0.19287 0.0
O72 O 0.02531 0.86959 0.21437 0.0
C73 C 0.98356 0.80459 0.16144 0.0
O74 O 0.97553 0.80898 0.18113 0.0
C75 C 0.07969 0.8888 0.23012 0.0
C76 C 0.09914 0.87898 0.25866 0.0
C77 C 0.09656 0.89592 0.24501 0.0
N78 N 0.07272 0.86854 0.23458 0.0
N79 N 0.08416 0.86282 0.25186 0.0
C80 C 0.06975 0.90113 0.21219 0.0
H81 H 0.06392 0.88948 0.19814 0.0
H82 H 0.08152 0.91364 0.20647 0.0
H83 H 0.05514 0.9098 0.21874 0.0
C84 C 0.06066 0.82326 0.15702 0.0
N85 N 0.04994 0.82843 0.1758 0.0
N86 N 0.06308 0.84074 0.18964 0.0
C87 C 0.08283 0.84351 0.18005 0.0
C88 C 0.08191 0.83266 0.15903 0.0
C89 C 0.05016 0.81055 0.13719 0.0
H90 H 0.03487 0.81871 0.13231 0.0
H91 H 0.06138 0.80942 0.12303 0.0
H92 H 0.04531 0.79371 0.1415 0.0
O93 O 0.0228 0.8021 0.21012 0.0
O94 O 0.04187 0.82522 0.23441 0.0
H95 H 0.11818 0.84973 0.18317 0.0
H96 H 0.10156 0.87324 0.18932 0.0
C97 C 0.10273 0.85533 0.191 0.0
H98 H 0.10358 0.85243 0.20873 0.0
H99 H 0.08217 0.84768 0.2586 0.0
O100 O 0.00439 0.80552 0.15938 0.0
C101 C 0.03114 0.80703 0.2294 0.0
Co102 Co 0.23352 -0.00376 0.20027 0.0
Co103 Co 0.21158 0.02771 0.23542 0.0
C104 C 0.19015 0.98454 0.21988 0.0
O105 O 0.2058 0.98058 0.20678 0.0
O106 O 0.19019 0.00226 0.23238 0.0
C107 C 0.23161 0.97666 0.15798 0.0
O108 O 0.21288 0.98704 0.15841 0.0
C109 C 0.17836 0.05733 0.25082 0.0
C110 C 0.19444 0.07627 0.2797 0.0
C111 C 0.17515 0.07442 0.26678 0.0
N112 N 0.19851 0.04955 0.25415 0.0
N113 N 0.20798 0.06062 0.27163 0.0
C114 C 0.16387 0.04992 0.23113 0.0
H115 H 0.17353 0.04084 0.21829 0.0
H116 H 0.15623 0.06423 0.22411 0.0
H117 H 0.15049 0.03863 0.23618 0.0
C118 C 0.23725 0.03751 0.17775 0.0
N119 N 0.22901 0.02567 0.19366 0.0
N120 N 0.21915 0.03894 0.20822 0.0
C121 C 0.22077 0.05969 0.20198 0.0
C122 C 0.23219 0.05939 0.18249 0.0
C123 C 0.25066 0.02818 0.15904 0.0
H124 H 0.23936 0.01959 0.1463 0.0
H125 H 0.26008 0.04107 0.15103 0.0
H126 H 0.26229 0.01612 0.16499 0.0
O127 O 0.25514 -0.00338 0.22501 0.0
O128 O 0.23929 0.02008 0.24939 0.0
H129 H 0.22169 0.09515 0.20972 0.0
H130 H 0.19649 0.08083 0.21627 0.0
C131 C 0.21474 0.07985 0.21602 0.0
H132 H 0.22109 0.07885 0.23312 0.0
H133 H 0.22393 0.05802 0.27754 0.0
O134 O 0.24457 0.97874 0.17475 0.0
C135 C 0.25508 0.00777 0.24361 0.0
Co136 Co 0.0031 0.89218 0.84365 0.0
Co137 Co 0.0412 0.86225 0.85699 0.0
C138 C 0.00754 0.87461 0.88865 0.0
O139 O -0.00275 0.88457 0.87415 0.0
O140 O 0.02604 0.86609 0.88481 0.0
C141 C 0.96785 0.91624 0.82513 0.0
O142 O 0.96065 0.89752 0.81475 0.0
C143 C 0.07855 0.84588 0.8805 0.0
C144 C 0.0981 0.82982 0.85398 0.0
C145 C 0.0982 0.83556 0.87646 0.0
N146 N 0.06711 0.8461 0.86139 0.0
N147 N 0.07863 0.83602 0.84561 0.0
C148 C 0.07211 0.85799 0.90168 0.0
H149 H 0.06721 0.8749 0.89857 0.0
H150 H 0.08571 0.85896 0.9143 0.0
H151 H 0.05762 0.84924 0.90824 0.0
C152 C 0.04043 0.91732 0.82763 0.0
N153 N 0.03237 0.90074 0.83868 0.0
N154 N 0.04876 0.88945 0.84588 0.0
C155 C 0.06804 0.89929 0.84074 0.0
C156 C 0.06334 0.91722 0.82877 0.0
C157 C 0.02635 0.93119 0.8141 0.0
H158 H 0.01201 0.92119 0.80668 0.0
H159 H 0.02008 0.94503 0.8249 0.0
H160 H 0.03585 0.93799 0.80066 0.0
O161 O -0.00516 0.86663 0.8242 0.0
O162 O 0.02054 0.84453 0.83606 0.0
H163 H 0.09603 0.87896 0.83651 0.0
H164 H 0.10265 0.9063 0.84919 0.0
C165 C 0.09031 0.89235 0.84825 0.0
H166 H 0.08924 0.88609 0.86477 0.0
H167 H 0.07384 0.83462 0.82897 0.0
O168 O 0.98471 0.91673 0.83793 0.0
C169 C 0.00341 0.84791 0.82429 0.0
Co170 Co 0.22179 0.07688 0.87217 0.0
Co171 Co 0.19869 0.04191 0.83889 0.0
C172 C 0.17594 0.08279 0.85159 0.0
O173 O 0.19314 0.08976 0.86284 0.0
O174 O 0.17504 0.06358 0.84173 0.0
C175 C 0.21602 0.0973 0.91276 0.0
O176 O 0.19704 0.08662 0.9081 0.0
C177 C 0.16766 0.00873 0.81985 0.0
C178 C 0.18681 0.99035 0.79433 0.0
C179 C 0.16617 0.99118 0.80376 0.0
N180 N 0.18806 0.01784 0.81975 0.0
N181 N 0.19944 0.00705 0.80433 0.0
C182 C 0.15109 0.01559 0.83682 0.0
H183 H 0.15939 0.0251 0.85118 0.0
H184 H 0.14216 0.00101 0.8426 0.0
H185 H 0.13891 0.02633 0.8295 0.0
C186 C 0.22664 0.03747 0.89755 0.0
N187 N 0.21841 0.04736 0.88024 0.0
N188 N 0.20826 0.03241 0.86642 0.0
C189 C 0.20951 0.0125 0.87463 0.0
C190 C 0.22118 0.01507 0.89471 0.0
C191 C 0.24172 0.04877 0.91512 0.0
H192 H 0.25216 0.06167 0.90815 0.0
H193 H 0.23162 0.05668 0.92832 0.0
H194 H 0.25261 0.03687 0.92254 0.0
O195 O 0.24347 0.07754 0.84814 0.0
O196 O 0.22416 0.05438 0.82429 0.0
H197 H 0.20804 0.98809 0.84726 0.0
H198 H 0.20186 0.97726 0.87338 0.0
C199 C 0.19994 0.99146 0.86329 0.0
H200 H 0.18206 0.99322 0.85998 0.0
H201 H 0.21592 0.01079 0.80097 0.0
O202 O 0.23137 0.09568 0.89885 0.0
C203 C 0.24079 0.06734 0.82908 0.0
Co204 Co -0.00194 0.23448 0.89809 0.0
Co205 Co 0.03263 0.20946 0.86766 0.0
C206 C 0.98627 0.1932 0.86819 0.0
O207 O 0.98274 0.20958 0.88171 0.0
O208 O 0.00567 0.18935 0.86143 0.0
C209 C 0.97354 0.23027 0.93563 0.0
O210 O 0.9844 0.21189 0.93469 0.0
C211 C 0.06665 0.1772 0.85399 0.0
C212 C 0.09078 0.19908 0.83894 0.0
C213 C 0.08784 0.17791 0.84549 0.0
N214 N 0.05791 0.19724 0.85307 0.0
N215 N 0.07221 0.20996 0.84341 0.0
C216 C 0.05591 0.15875 0.86516 0.0
H217 H 0.04222 0.16489 0.87555 0.0
H218 H 0.06826 0.15071 0.87534 0.0
H219 H 0.04903 0.14617 0.85241 0.0
C220 C 0.03441 0.23273 0.93079 0.0
N221 N 0.02525 0.22693 0.91068 0.0
N222 N 0.03956 0.21586 0.89851 0.0
C223 C 0.0583 0.21427 0.91075 0.0
C224 C 0.05545 0.22473 0.93149 0.0
C225 C 0.02451 0.248 0.9481 0.0
H226 H 0.0132 0.25934 0.94046 0.0
H227 H 0.01514 0.23818 0.95958 0.0
H228 H 0.03765 0.25781 0.95789 0.0
O229 O 0.00317 0.25644 0.87686 0.0
O230 O 0.02693 0.23834 0.85503 0.0
H231 H 0.08452 0.21148 0.88777 0.0
H232 H 0.09258 0.20557 0.91529 0.0
C233 C 0.07898 0.20383 0.90268 0.0
H234 H 0.07555 0.18602 0.89857 0.0
H235 H 0.06991 0.22657 0.84125 0.0
O236 O 0.97696 0.24394 0.92122 0.0
C237 C 0.01536 0.25514 0.86004 0.0
Co238 Co 0.86308 0.06964 0.86508 0.0
Co239 Co 0.83757 0.03556 0.89245 0.0
C240 C 0.85647 0.07775 0.91363 0.0
O241 O 0.86441 0.08292 0.89557 0.0
O242 O 0.84541 0.05985 0.91505 0.0
C243 C 0.88567 0.10744 0.85068 0.0
O244 O 0.86856 0.11762 0.859 0.0
C245 C 0.83474 0.00216 0.92362 0.0
C246 C 0.80615 0.98107 0.91072 0.0
C247 C 0.82329 0.98251 0.92633 0.0
N248 N 0.82531 0.01149 0.90668 0.0
N249 N 0.80791 -0.00089 0.89933 0.0
C250 C 0.85461 0.01194 0.93649 0.0
H251 H 0.85108 0.02896 0.94302 0.0
H252 H 0.86886 0.01315 0.92545 0.0
H253 H 0.85903 0.00222 0.9505 0.0
C254 C 0.88443 0.02973 0.8485 0.0
N255 N 0.87127 0.04023 0.86308 0.0
N256 N 0.86137 0.0258 0.87485 0.0
C257 C 0.86803 0.00548 0.86804 0.0
C258 C 0.88269 0.00741 0.85106 0.0
C259 C 0.89651 0.04067 0.83091 0.0
H260 H 0.88526 0.05174 0.82277 0.0
H261 H 0.91064 0.05083 0.83858 0.0
H262 H 0.90281 0.02846 0.81826 0.0
O263 O 0.83254 0.07072 0.85275 0.0
O264 O 0.81542 0.04577 0.87212 0.0
H265 H 0.8422 0.98231 0.87485 0.0
H266 H 0.8685 0.96991 0.86992 0.0
C267 C 0.86036 0.98461 0.87739 0.0
H268 H 0.86435 0.98577 0.89524 0.0
H269 H 0.79797 0.00236 0.88582 0.0
O270 O 0.88566 0.08657 0.84987 0.0
C271 C 0.81527 0.05952 0.8574 0.0
Co272 Co 0.20011 0.22807 0.03125 0.0
Co273 Co 0.22871 0.19995 0.06138 0.0
C274 C 0.20984 0.18064 0.01881 0.0
O275 O 0.20095 0.19868 0.01551 0.0
O276 O 0.22151 0.17844 0.03602 0.0
C277 C 0.15951 0.2309 0.01245 0.0
O278 O 0.15798 0.21299 0.02309 0.0
C279 C 0.23463 0.16478 0.08953 0.0
C280 C 0.26097 0.1778 0.1133 0.0
C281 C 0.24579 0.16039 0.10872 0.0
N282 N 0.24229 0.18424 0.08345 0.0
N283 N 0.25837 0.19178 0.0974 0.0
C284 C 0.21688 0.15094 0.07693 0.0
H285 H 0.223 0.14574 0.06036 0.0
H286 H 0.20209 0.1609 0.07457 0.0
H287 H 0.21227 0.13585 0.08503 0.0
C288 C 0.17493 0.2352 0.07231 0.0
N289 N 0.1916 0.22633 0.06065 0.0
N290 N 0.20329 0.21422 0.07331 0.0
C291 C 0.19426 0.2151 0.09343 0.0
C292 C 0.17605 0.22825 0.09329 0.0
C293 C 0.1584 0.25051 0.06397 0.0
H294 H 0.16592 0.26067 0.05161 0.0
H295 H 0.14401 0.24075 0.05631 0.0
H296 H 0.15224 0.26149 0.07778 0.0
O297 O 0.22959 0.24286 0.03085 0.0
O298 O 0.24992 0.22206 0.05156 0.0
H299 H 0.22035 0.2064 0.11512 0.0
H300 H 0.19387 0.20858 0.12789 0.0
C301 C 0.20232 0.20323 0.11248 0.0
H302 H 0.19895 0.18532 0.10887 0.0
H303 H 0.26677 0.20695 0.09672 0.0
O304 O 0.17747 0.24243 0.01404 0.0
C305 C 0.24806 0.23815 0.03955 0.0
Co306 Co 0.208 0.85012 0.04201 0.0
Co307 Co 0.23857 0.87287 0.008 0.0
C308 C 0.22826 0.89596 0.05045 0.0
O309 O 0.2184 0.8788 0.0563 0.0
O310 O 0.23594 0.89679 0.03137 0.0
C311 C 0.17169 0.85648 0.0684 0.0
O312 O 0.17436 0.87529 0.05945 0.0
C313 C 0.24343 0.90569 0.97676 0.0
C314 C 0.27219 0.89583 0.95711 0.0
C315 C 0.25611 0.91161 0.95928 0.0
N316 N 0.25162 0.88747 0.9845 0.0
N317 N 0.26897 0.88172 0.97284 0.0
C318 C 0.22255 0.91577 0.98489 0.0
H319 H 0.21252 0.90384 0.99364 0.0
H320 H 0.21256 0.92136 0.97099 0.0
H321 H 0.22683 0.9302 -0.00329 0.0
C322 C 0.17861 0.84381 0.00186 0.0
N323 N 0.19709 0.8522 0.01272 0.0
N324 N 0.21073 0.85994 -0.00157 0.0
C325 C 0.20186 0.85589 0.97799 0.0
C326 C 0.18104 0.8459 0.97942 0.0
C327 C 0.15916 0.83411 0.01292 0.0
H328 H 0.16372 0.81819 0.01917 0.0
H329 H 0.15467 0.84534 0.02718 0.0
H330 H 0.14447 0.83152 0.00168 0.0
O331 O 0.23438 0.83121 0.04072 0.0
O332 O 0.25703 0.84949 0.01924 0.0
H333 H 0.23206 0.85509 0.96009 0.0
H334 H 0.20773 0.84705 0.94349 0.0
C335 C 0.21438 0.85852 0.95734 0.0
H336 H 0.21304 0.87565 0.95261 0.0
H337 H 0.2783 0.86798 0.97532 0.0
O338 O 0.18403 0.84065 0.06221 0.0
C339 C 0.25304 0.83379 0.03153 0.0
Co340 Co 0.84508 0.20828 0.03812 0.0
Co341 Co 0.87153 0.23105 0.07887 0.0
C342 C 0.89175 0.22643 0.03505 0.0
O343 O 0.87363 0.21833 0.02666 0.0
O344 O 0.89405 0.23128 0.05564 0.0
C345 C 0.84876 0.17324 0.00923 0.0
O346 O 0.86739 0.17492 0.02089 0.0
C347 C 0.90695 0.23366 0.11109 0.0
C348 C 0.89693 0.25869 0.13691 0.0
C349 C 0.91353 0.24433 0.13114 0.0
N350 N 0.88729 0.2412 0.10518 0.0
N351 N 0.88138 0.25632 0.12054 0.0
C352 C 0.91948 0.21712 0.0972 0.0
H353 H 0.93074 0.22605 0.08657 0.0
H354 H 0.90794 0.2063 0.08642 0.0
H355 H 0.92972 0.20692 0.10745 0.0
C356 C 0.83986 0.17296 0.069 0.0
N357 N 0.84772 0.19298 0.0642 0.0
N358 N 0.85895 0.20231 0.08145 0.0
C359 C 0.85849 0.18847 0.09776 0.0
C360 C 0.84658 0.16934 0.09026 0.0
C361 C 0.82538 0.15769 0.05397 0.0
H362 H 0.81437 0.16721 0.04376 0.0
H363 H 0.83589 0.14726 0.04302 0.0
H364 H 0.81512 0.14662 0.06357 0.0
O365 O 0.82798 0.23518 0.0436 0.0
O366 O 0.84755 0.25156 0.0724 0.0
H367 H 0.8673 0.21029 0.12628 0.0
H368 H 0.86357 0.18179 0.13192 0.0
C369 C 0.86983 0.19304 0.11986 0.0
H370 H 0.88781 0.1906 0.11819 0.0
H371 H 0.86669 0.2648 0.11997 0.0
O372 O 0.8337 0.18687 0.0139 0.0
C373 C 0.83167 0.25129 0.05815 0.0
Co374 Co 0.86447 0.86536 0.05092 0.0
Co375 Co 0.88969 0.83281 0.01961 0.0
C376 C 0.90136 0.84031 0.06803 0.0
O377 O 0.88598 0.85387 0.07111 0.0
O378 O 0.90518 0.83152 0.04885 0.0
C379 C 0.83288 0.88749 0.07931 0.0
O380 O 0.8255 0.86786 0.0838 0.0
C381 C 0.92573 0.8264 0.99051 0.0
C382 C 0.91248 0.79992 0.96644 0.0
C383 C 0.92957 0.8157 0.97007 0.0
N384 N 0.90694 0.81792 -0.00191 0.0
N385 N 0.8995 0.80149 0.98411 0.0
C386 C 0.93744 0.84684 0.00094 0.0
H387 H 0.92908 0.85311 0.0161 0.0
H388 H 0.93819 0.85981 0.98915 0.0
H389 H 0.95469 0.84299 0.00541 0.0
C390 C 0.87423 0.89549 0.01767 0.0
N391 N 0.87764 0.87628 0.02639 0.0
N392 N 0.88542 0.86212 0.01134 0.0
C393 C 0.886 0.87166 0.99201 0.0
C394 C 0.87907 0.89317 0.99555 0.0
C395 C 0.86413 0.91495 0.02966 0.0
H396 H 0.846 0.9118 0.03044 0.0
H397 H 0.8712 0.91748 0.04668 0.0
H398 H 0.86719 0.93015 0.02111 0.0
O399 O 0.84248 0.84205 0.04118 0.0
O400 O 0.86071 0.81734 0.02036 0.0
H401 H 0.88419 0.84171 0.97057 0.0
H402 H 0.87808 0.86632 0.9572 0.0
C403 C 0.88865 0.85943 0.96993 0.0
H404 H 0.90607 0.86127 0.96492 0.0
H405 H 0.88448 0.79288 0.98555 0.0
O406 O 0.849 0.8893 0.06655 0.0
C407 C 0.84309 0.8238 0.02951 0.0
Co408 Co 0.00194 0.69199 0.74379 0.0
Co409 Co 0.03451 0.72931 0.73124 0.0
C410 C 0.00406 0.70751 0.69774 0.0
O411 O -0.00368 0.69529 0.71187 0.0
O412 O 0.0198 0.72132 0.70283 0.0
C413 C 0.96723 0.66348 0.74062 0.0
O414 O 0.95954 0.68112 0.73244 0.0
C415 C 0.06758 0.75125 0.70751 0.0
C416 C 0.07709 0.78153 0.72851 0.0
C417 C 0.08048 0.77047 0.70814 0.0
N418 N 0.0566 0.75106 0.72631 0.0
N419 N 0.06231 0.76916 0.73893 0.0
C420 C 0.06669 0.7325 0.68993 0.0
H421 H 0.06224 0.71679 0.69709 0.0
H422 H 0.08285 0.73095 0.68177 0.0
H423 H 0.05387 0.73555 0.6773 0.0
C424 C 0.04127 0.68047 0.76817 0.0
N425 N 0.03181 0.69128 0.75227 0.0
N426 N 0.04625 0.70541 0.74509 0.0
C427 C 0.06596 0.7031 0.75523 0.0
C428 C 0.06344 0.68741 0.77062 0.0
C429 C 0.02811 0.66695 0.78309 0.0
H430 H 0.01115 0.67321 0.78462 0.0
H431 H 0.02673 0.64962 0.77587 0.0
H432 H 0.03599 0.66744 0.79978 0.0
O433 O 0.98891 0.71641 0.76088 0.0
O434 O 0.01194 0.74274 0.75031 0.0
H435 H 0.08784 0.73146 0.76047 0.0
H436 H 0.10152 0.70607 0.75277 0.0
C437 C 0.0866 0.71568 0.74997 0.0
H438 H 0.08607 0.71946 0.73249 0.0
H439 H 0.05588 0.77323 0.75443 0.0
O440 O 0.98661 0.6643 0.74904 0.0
C441 C -0.00487 0.73653 0.7608 0.0
Co442 Co 0.8342 0.55501 0.69776 0.0
Co443 Co 0.86034 0.52867 0.73238 0.0
C444 C 0.8816 0.56529 0.71044 0.0
O445 O 0.86391 0.56836 0.69971 0.0
O446 O 0.88262 0.55033 0.72376 0.0
C447 C 0.82106 0.58975 0.67395 0.0
O448 O 0.82562 0.60012 0.69339 0.0
C449 C 0.89663 0.50225 0.74615 0.0
C450 C 0.88247 0.48384 0.77261 0.0
C451 C 0.90137 0.48642 0.76048 0.0
N452 N 0.87591 0.50886 0.7496 0.0
N453 N 0.86762 0.49803 0.76569 0.0
C454 C 0.91066 0.50927 0.72783 0.0
H455 H 0.90008 0.51226 0.71331 0.0
H456 H 0.92285 0.49665 0.72297 0.0
H457 H 0.91979 0.5249 0.73346 0.0
C458 C 0.83036 0.51047 0.67476 0.0
N459 N 0.83584 0.52422 0.69263 0.0
N460 N 0.84589 0.51318 0.70745 0.0
C461 C 0.84637 0.49189 0.69975 0.0
C462 C 0.83702 0.48952 0.67866 0.0
C463 C 0.82195 0.51804 0.65343 0.0
H464 H 0.80649 0.52705 0.65631 0.0
H465 H 0.83432 0.52973 0.6472 0.0
H466 H 0.81869 0.50403 0.64084 0.0
O467 O 0.81954 0.56327 0.7261 0.0
O468 O 0.83891 0.5453 0.75025 0.0
H469 H 0.85185 0.47529 0.72902 0.0
H470 H 0.85195 0.45753 0.70388 0.0
C471 C 0.85691 0.47416 0.71161 0.0
H472 H 0.87517 0.47622 0.71111 0.0
H473 H 0.85157 0.49974 0.77138 0.0
O474 O 0.82114 0.56879 0.67212 0.0
C475 C 0.82383 0.55855 0.74581 0.0
Co476 Co 0.01555 0.35626 0.73076 0.0
Co477 Co 0.0437 0.39115 0.7608 0.0
C478 C -0.0035 0.39873 0.74892 0.0
O479 O -0.00501 0.38027 0.73761 0.0
O480 O 0.01456 0.40534 0.75877 0.0
C481 C 0.99452 0.34588 0.69055 0.0
O482 O 0.00195 0.36609 0.6884 0.0
C483 C 0.06655 0.43348 0.7705 0.0
C484 C 0.09057 0.4272 0.79697 0.0
C485 C 0.08389 0.4432 0.78351 0.0
N486 N 0.06343 0.41263 0.7757 0.0
N487 N 0.07753 0.40904 0.79184 0.0
C488 C 0.05263 0.44374 0.75366 0.0
H489 H 0.05222 0.43327 0.73787 0.0
H490 H 0.05845 0.46076 0.75104 0.0
H491 H 0.03541 0.44443 0.75945 0.0
C492 C 0.05517 0.36001 0.7024 0.0
N493 N 0.0433 0.36643 0.72019 0.0
N494 N 0.05479 0.38178 0.73248 0.0
C495 C 0.07414 0.38586 0.72263 0.0
C496 C 0.07488 0.3724 0.70319 0.0
C497 C 0.04817 0.34186 0.68534 0.0
H498 H 0.03785 0.32919 0.69279 0.0
H499 H 0.03847 0.34884 0.67205 0.0
H500 H 0.06261 0.3339 0.67765 0.0
O501 O 0.02045 0.34075 0.7575 0.0
O502 O 0.04151 0.36516 0.77866 0.0
H503 H 0.0951 0.39764 0.75027 0.0
H504 H 0.10847 0.39739 0.72412 0.0
C505 C 0.09272 0.40048 0.73265 0.0
H506 H 0.08863 0.41793 0.73134 0.0
H507 H 0.07879 0.394 0.79877 0.0
O508 O -0.00104 0.33687 0.70814 0.0
C509 C 0.0315 0.34639 0.77524 0.0
Co510 Co 0.20115 0.55242 0.71976 0.0
Co511 Co 0.1895 0.58003 0.76286 0.0
C512 C 0.16364 0.53874 0.74642 0.0
O513 O 0.17521 0.53627 0.72937 0.0
O514 O 0.16765 0.55465 0.76092 0.0
C515 C 0.19186 0.53229 0.67743 0.0
O516 O 0.17164 0.5376 0.68265 0.0
C517 C 0.15888 0.60441 0.78813 0.0
C518 C 0.17777 0.62092 0.81665 0.0
C519 C 0.15663 0.61771 0.80736 0.0
N520 N 0.18007 0.59932 0.78633 0.0
N521 N 0.19144 0.60901 0.80347 0.0
C522 C 0.1416 0.59818 0.77047 0.0
H523 H 0.14938 0.59298 0.75466 0.0
H524 H 0.13086 0.61227 0.76801 0.0
H525 H 0.13107 0.58427 0.77549 0.0
C526 C 0.20188 0.59598 0.70276 0.0
N527 N 0.19608 0.58262 0.71832 0.0
N528 N 0.19177 0.59461 0.73657 0.0
C529 C 0.19525 0.6161 0.73336 0.0
C530 C 0.20204 0.61763 0.71185 0.0
C531 C 0.209 0.58794 0.6802 0.0
H532 H 0.22463 0.57904 0.68156 0.0
H533 H 0.19615 0.57629 0.67239 0.0
H534 H 0.21135 0.60162 0.66941 0.0
O535 O 0.22683 0.54891 0.73981 0.0
O536 O 0.21865 0.57012 0.76993 0.0
H537 H 0.20724 0.62961 0.76508 0.0
H538 H 0.2019 0.65014 0.74591 0.0
C539 C 0.19605 0.63415 0.7516 0.0
H540 H 0.17927 0.63594 0.75837 0.0
H541 H 0.20844 0.60771 0.80605 0.0
O542 O 0.20779 0.53816 0.69079 0.0
C543 C 0.23164 0.55757 0.75914 0.0
Co544 Co 0.02225 0.37257 0.36171 0.0
Co545 Co 0.06248 0.35538 0.38843 0.0
C546 C 0.01751 0.35579 0.40637 0.0
O547 O 0.00988 0.36448 0.38966 0.0
O548 O 0.03774 0.35124 0.40809 0.0
C549 C -0.00349 0.40729 0.36262 0.0
O550 O 0.00907 0.4101 0.38061 0.0
C551 C 0.09266 0.34794 0.42501 0.0
C552 C 0.12494 0.34674 0.4088 0.0
C553 C 0.11526 0.34731 0.42927 0.0
N554 N 0.08927 0.34874 0.4032 0.0
N555 N 0.10857 0.34733 0.39352 0.0
C556 C 0.0744 0.34618 0.44106 0.0
H557 H 0.06185 0.33363 0.43428 0.0
H558 H 0.06637 0.36229 0.4436 0.0
H559 H 0.08047 0.34093 0.45708 0.0
C560 C 0.05508 0.40859 0.35653 0.0
N561 N 0.04858 0.39011 0.3657 0.0
N562 N 0.06446 0.38427 0.37894 0.0
C563 C 0.0812 0.39948 0.37936 0.0
C564 C 0.07587 0.41518 0.365 0.0
C565 C 0.04296 0.41812 0.33798 0.0
H566 H 0.03217 0.40531 0.32874 0.0
H567 H 0.03263 0.43165 0.34478 0.0
H568 H 0.05477 0.42515 0.32651 0.0
O569 O 0.02806 0.34513 0.34402 0.0
O570 O 0.05773 0.3343 0.36243 0.0
H571 H 0.1144 0.38958 0.38437 0.0
H572 H 0.10881 0.41634 0.3972 0.0
C573 C 0.10183 0.39933 0.3934 0.0
H574 H 0.09827 0.39194 0.40905 0.0
H575 H 0.11065 0.34792 0.37661 0.0
O576 O -0.00109 0.39031 0.34944 0.0
C577 C 0.0435 0.33172 0.34657 0.0
Co578 Co 0.23063 0.58409 0.40954 0.0
Co579 Co 0.20551 0.55053 0.3757 0.0
C580 C 0.18711 0.59344 0.38546 0.0
O581 O 0.20444 0.59888 0.39715 0.0
O582 O 0.18395 0.57387 0.37691 0.0
C583 C 0.22055 0.60477 0.44868 0.0
O584 O 0.20284 0.5928 0.44196 0.0
C585 C 0.17378 0.51749 0.35676 0.0
C586 C 0.19324 0.49881 0.33176 0.0
C587 C 0.17273 0.49923 0.3415 0.0
N588 N 0.19396 0.52712 0.35616 0.0
N589 N 0.20541 0.51625 0.34086 0.0
C590 C 0.1571 0.52447 0.37354 0.0
H591 H 0.16498 0.53554 0.38706 0.0
H592 H 0.14928 0.50992 0.38053 0.0
H593 H 0.14396 0.53357 0.36551 0.0
C594 C 0.22979 0.54464 0.43576 0.0
N595 N 0.22408 0.55491 0.41771 0.0
N596 N 0.2131 0.54077 0.40364 0.0
C597 C 0.21144 0.52111 0.41237 0.0
C598 C 0.22176 0.52298 0.43302 0.0
C599 C 0.24265 0.55535 0.45527 0.0
H600 H 0.25481 0.56773 0.44991 0.0
H601 H 0.23107 0.56382 0.46671 0.0
H602 H 0.2514 0.54299 0.46433 0.0
O603 O 0.25368 0.58272 0.38629 0.0
O604 O 0.23233 0.56141 0.36241 0.0
H605 H 0.20722 0.49875 0.38336 0.0
H606 H 0.20716 0.48555 0.40879 0.0
C607 C 0.20186 0.50026 0.40066 0.0
H608 H 0.18357 0.50054 0.40086 0.0
H609 H 0.22182 0.52013 0.33737 0.0
O610 O 0.23775 0.60352 0.43697 0.0
C611 C 0.24999 0.5729 0.36712 0.0
Co612 Co -0.00493 0.72819 0.37834 0.0
Co613 Co 0.03576 0.70432 0.35665 0.0
C614 C 0.99377 0.67981 0.36209 0.0
O615 O 0.98496 0.69741 0.3696 0.0
O616 O 0.01393 0.67966 0.35682 0.0
C617 C 0.96952 0.72631 0.41477 0.0
O618 O 0.98359 0.7105 0.41649 0.0
C619 C 0.0706 0.67241 0.35295 0.0
C620 C 0.09718 0.69006 0.33648 0.0
C621 C 0.09221 0.6707 0.34615 0.0
N622 N 0.06309 0.6919 0.34765 0.0
N623 N 0.07891 0.70221 0.33742 0.0
C624 C 0.0583 0.65715 0.36686 0.0
H625 H 0.04756 0.66662 0.37843 0.0
H626 H 0.06984 0.6475 0.3764 0.0
H627 H 0.04767 0.6455 0.35596 0.0
C628 C 0.02954 0.74034 0.41342 0.0
N629 N 0.0227 0.72953 0.3941 0.0
N630 N 0.03956 0.71924 0.38519 0.0
C631 C 0.05751 0.72303 0.39869 0.0
C632 C 0.05169 0.7365 0.41687 0.0
C633 C 0.01573 0.75531 0.42768 0.0
H634 H 0.00308 0.76296 0.41756 0.0
H635 H 0.00734 0.74563 0.43994 0.0
H636 H 0.02626 0.76842 0.43686 0.0
O637 O -0.00119 0.74469 0.35159 0.0
O638 O 0.02623 0.72596 0.33569 0.0
H639 H 0.0863 0.71945 0.37914 0.0
H640 H 0.09181 0.71849 0.40825 0.0
C641 C 0.07976 0.71364 0.39459 0.0
H642 H 0.07812 0.69543 0.39284 0.0
H643 H 0.07761 0.71797 0.33204 0.0
O644 O 0.9711 0.73832 0.3986 0.0
C645 C 0.01213 0.74117 0.33575 0.0
Co646 Co 0.87031 0.55319 0.37727 0.0
Co647 Co 0.84897 0.51461 0.40137 0.0
C648 C 0.85037 0.55997 0.42216 0.0
O649 O 0.85902 0.56696 0.40511 0.0
O650 O 0.84631 0.53958 0.4237 0.0
C651 C 0.90511 0.58397 0.37639 0.0
O652 O 0.9103 0.57481 0.39456 0.0
C653 C 0.84643 0.48273 0.43404 0.0
C654 C 0.82419 0.45633 0.41805 0.0
C655 C 0.83717 0.46209 0.4368 0.0
N656 N 0.8395 0.48884 0.41445 0.0
N657 N 0.82592 0.47318 0.40506 0.0
C658 C 0.86146 0.49671 0.44977 0.0
H659 H 0.85119 0.50705 0.46107 0.0
H660 H 0.87213 0.50787 0.44067 0.0
H661 H 0.87184 0.48652 0.4599 0.0
C662 C 0.9069 0.52198 0.37292 0.0
N663 N 0.88738 0.52824 0.3812 0.0
N664 N 0.87844 0.51192 0.39132 0.0
C665 C 0.89214 0.49484 0.38993 0.0
C666 C 0.91054 0.50078 0.37833 0.0
C667 C 0.92049 0.53469 0.3577 0.0
H668 H 0.90969 0.54445 0.34752 0.0
H669 H 0.93233 0.54602 0.36756 0.0
H670 H 0.93019 0.52346 0.34668 0.0
O671 O 0.84558 0.54366 0.35729 0.0
O672 O 0.82899 0.51788 0.37583 0.0
H673 H 0.87095 0.46646 0.39335 0.0
H674 H 0.90005 0.46083 0.3943 0.0
C675 C 0.88755 0.4731 0.3991 0.0
H676 H 0.88788 0.4755 0.41731 0.0
H677 H 0.8184 0.47371 0.38952 0.0
O678 O 0.88805 0.5769 0.36511 0.0
C679 C 0.83007 0.52937 0.35928 0.0
Co680 Co 0.17235 0.74263 0.5404 0.0
Co681 Co 0.20323 0.72792 0.57824 0.0
C682 C 0.18976 0.69607 0.54168 0.0
O683 O 0.17874 0.71099 0.53339 0.0
O684 O 0.20044 0.69967 0.55992 0.0
C685 C 0.13014 0.73707 0.52183 0.0
O686 O 0.12925 0.72278 0.53689 0.0
C687 C 0.21985 0.70726 0.61657 0.0
C688 C 0.23288 0.73615 0.63781 0.0
C689 C 0.22805 0.71376 0.63763 0.0
N690 N 0.21959 0.72503 0.60491 0.0
N691 N 0.22811 0.74212 0.61744 0.0
C692 C 0.20905 0.68544 0.60873 0.0
H693 H 0.19238 0.68793 0.60154 0.0
H694 H 0.20766 0.67425 0.62219 0.0
H695 H 0.21904 0.67754 0.59543 0.0
C696 C 0.14722 0.76007 0.5786 0.0
N697 N 0.16393 0.74859 0.56969 0.0
N698 N 0.1755 0.74036 0.58542 0.0
C699 C 0.16583 0.74548 0.60481 0.0
C700 C 0.14783 0.75847 0.60118 0.0
C701 C 0.13209 0.77374 0.56595 0.0
H702 H 0.14057 0.77963 0.55146 0.0
H703 H 0.11723 0.76358 0.56011 0.0
H704 H 0.12658 0.7881 0.57659 0.0
O705 O 0.19891 0.76041 0.53495 0.0
O706 O 0.22064 0.74801 0.56101 0.0
H707 H 0.18587 0.74719 0.63432 0.0
H708 H 0.15832 0.73587 0.63738 0.0
C709 C 0.17242 0.73652 0.62609 0.0
H710 H 0.17824 0.71959 0.62293 0.0
H711 H 0.22884 0.75823 0.6127 0.0
O712 O 0.14782 0.74864 0.52023 0.0
C713 C 0.2176 0.75971 0.54485 0.0
Co714 Co 0.24446 0.39475 0.54071 0.0
Co715 Co 0.21579 0.37039 0.57477 0.0
C716 C 0.20169 0.36782 0.529 0.0
O717 O 0.21966 0.37782 0.52476 0.0
O718 O 0.19615 0.36513 0.54862 0.0
C719 C 0.23718 0.42704 0.5135 0.0
O720 O 0.21791 0.4224 0.52188 0.0
C721 C 0.18013 0.36018 0.60463 0.0
C722 C 0.19802 0.34443 0.63091 0.0
C723 C 0.17733 0.35138 0.6248 0.0
N724 N 0.20155 0.35886 0.59934 0.0
N725 N 0.21211 0.34921 0.615 0.0
C726 C 0.16273 0.3685 0.58977 0.0
H727 H 0.16062 0.35681 0.57487 0.0
H728 H 0.16827 0.38462 0.58413 0.0
H729 H 0.14651 0.36993 0.59776 0.0
C730 C 0.23967 0.43173 0.5747 0.0
N731 N 0.23558 0.41059 0.56691 0.0
N732 N 0.22304 0.40074 0.58082 0.0
C733 C 0.21845 0.41544 0.59771 0.0
C734 C 0.22866 0.43548 0.5942 0.0
C735 C 0.25353 0.44815 0.56357 0.0
H736 H 0.24293 0.45636 0.5518 0.0
H737 H 0.26086 0.46109 0.57567 0.0
H738 H 0.26696 0.4398 0.55446 0.0
O739 O 0.26599 0.37249 0.54777 0.0
O740 O 0.24315 0.35394 0.56861 0.0
H741 H 0.20685 0.42406 0.63061 0.0
H742 H 0.18791 0.40726 0.61263 0.0
C743 C 0.20557 0.4103 0.61749 0.0
H744 H 0.21191 0.39531 0.62428 0.0
H745 H 0.22902 0.34634 0.61507 0.0
O746 O 0.25389 0.41649 0.51944 0.0
C747 C 0.26144 0.35596 0.55874 0.0
Co748 Co 0.8434 0.70503 0.52739 0.0
Co749 Co 0.87437 0.73169 0.5621 0.0
C750 C 0.88911 0.72182 0.51639 0.0
O751 O 0.87045 0.71261 0.51083 0.0
O752 O 0.89327 0.72937 0.53611 0.0
C753 C 0.84018 0.66481 0.50517 0.0
O754 O 0.85823 0.66428 0.51753 0.0
C755 C 0.9135 0.73686 0.58992 0.0
C756 C 0.90561 0.76301 0.6155 0.0
C757 C 0.92175 0.74836 0.60901 0.0
N758 N 0.89332 0.74411 0.58542 0.0
N759 N 0.88875 0.76001 0.60054 0.0
C760 C 0.92452 0.71925 0.57594 0.0
H761 H 0.91201 0.70694 0.5685 0.0
H762 H 0.93722 0.71093 0.58537 0.0
H763 H 0.9329 0.72701 0.56236 0.0
C764 C 0.83845 0.67653 0.56471 0.0
N765 N 0.84886 0.69303 0.55498 0.0
N766 N 0.86263 0.70379 0.56939 0.0
C767 C 0.86183 0.69411 0.58858 0.0
C768 C 0.8464 0.67655 0.58629 0.0
C769 C 0.81884 0.66333 0.55479 0.0
H770 H 0.80984 0.67284 0.54286 0.0
H771 H 0.82461 0.64796 0.54604 0.0
H772 H 0.80735 0.65865 0.56772 0.0
O773 O 0.82597 0.73162 0.53365 0.0
O774 O 0.84899 0.75134 0.55747 0.0
H775 H 0.87077 0.71909 0.61436 0.0
H776 H 0.87245 0.69125 0.62261 0.0
C777 C 0.87507 0.70196 0.60897 0.0
H778 H 0.89286 0.70179 0.60522 0.0
H779 H 0.87392 0.76828 0.60103 0.0
O780 O 0.82872 0.682 0.50671 0.0
C781 C 0.83077 0.749 0.54629 0.0
Co782 Co 0.8796 0.35305 0.57512 0.0
Co783 Co 0.90006 0.32087 0.53959 0.0
C784 C 0.91777 0.32606 0.5859 0.0
O785 O 0.90258 0.33897 0.59173 0.0
O786 O 0.91931 0.3184 0.56601 0.0
C787 C 0.88403 0.38874 0.60581 0.0
O788 O 0.90485 0.38395 0.60287 0.0
C789 C 0.93512 0.313 0.50962 0.0
C790 C 0.92316 0.28469 0.48713 0.0
C791 C 0.94058 0.29998 0.49109 0.0
N792 N 0.91545 0.3059 0.51645 0.0
N793 N 0.9085 0.28861 0.50327 0.0
C794 C 0.94765 0.33315 0.51958 0.0
H795 H 0.94194 0.33793 0.53641 0.0
H796 H 0.94504 0.34704 0.5092 0.0
H797 H 0.96565 0.33012 0.52008 0.0
C798 C 0.88616 0.38429 0.54133 0.0
N799 N 0.89002 0.36475 0.54937 0.0
N800 N 0.89664 0.35084 0.53338 0.0
C801 C 0.89644 0.36101 0.51446 0.0
C802 C 0.89026 0.38255 0.51902 0.0
C803 C 0.87635 0.40347 0.55414 0.0
H804 H 0.86017 0.39831 0.56064 0.0
H805 H 0.88762 0.40913 0.56821 0.0
H806 H 0.87403 0.41757 0.54396 0.0
O807 O 0.85513 0.33227 0.56624 0.0
O808 O 0.87005 0.30744 0.54252 0.0
H809 H 0.89626 0.33146 0.49212 0.0
H810 H 0.88312 0.35458 0.48148 0.0
C811 C 0.89717 0.34957 0.49181 0.0
H812 H 0.91254 0.35496 0.48399 0.0
H813 H 0.89336 0.28021 0.50463 0.0
O814 O 0.86901 0.37701 0.59516 0.0
C815 C 0.85359 0.3148 0.55325 0.0
Co816 Co 0.47932 0.21341 0.7321 0.0
Co817 Co 0.51739 0.23263 0.705 0.0
C818 C 0.47447 0.22218 0.68388 0.0
O819 O 0.46712 0.21699 0.70222 0.0
O820 O 0.49464 0.22777 0.68176 0.0
C821 C 0.45769 0.17461 0.73422 0.0
O822 O 0.47148 0.17109 0.71804 0.0
C823 C 0.55109 0.24012 0.67281 0.0
C824 C 0.57352 0.26482 0.6913 0.0
C825 C 0.57029 0.25295 0.671 0.0
N826 N 0.54336 0.24442 0.69311 0.0
N827 N 0.55672 0.25926 0.70406 0.0
C828 C 0.54106 0.22268 0.65647 0.0
H829 H 0.53068 0.21075 0.66492 0.0
H830 H 0.55414 0.21373 0.64734 0.0
H831 H 0.53035 0.23053 0.64452 0.0
C832 C 0.51567 0.18466 0.74432 0.0
N833 N 0.50742 0.20017 0.73214 0.0
N834 N 0.52296 0.20711 0.71934 0.0
C835 C 0.54143 0.1959 0.72253 0.0
C836 C 0.53737 0.18129 0.73847 0.0
C837 C 0.50406 0.17531 0.76312 0.0
H838 H 0.49155 0.18678 0.76981 0.0
H839 H 0.49567 0.15936 0.75724 0.0
H840 H 0.51608 0.17213 0.77647 0.0
O841 O 0.48188 0.24241 0.74824 0.0
O842 O 0.50822 0.25525 0.72728 0.0
H843 H 0.57087 0.21514 0.71779 0.0
H844 H 0.57396 0.18575 0.7125 0.0
C845 C 0.56259 0.19949 0.71085 0.0
H846 H 0.55899 0.20089 0.69312 0.0
H847 H 0.5545 0.26542 0.72031 0.0
O848 O 0.45756 0.19358 0.74453 0.0
C849 C 0.49507 0.25782 0.74322 0.0
Co850 Co 0.33948 0.06448 0.6883 0.0
Co851 Co 0.35983 0.02575 0.71368 0.0
C852 C 0.38112 0.06922 0.71778 0.0
O853 O 0.3653 0.07629 0.70652 0.0
O854 O 0.38258 0.04895 0.72083 0.0
C855 C 0.35114 0.09521 0.65928 0.0
O856 O 0.3703 0.08751 0.66498 0.0
C857 C 0.39056 0.99336 0.72908 0.0
C858 C 0.37063 0.96241 0.72301 0.0
C859 C 0.39213 0.97043 0.72774 0.0
N860 N 0.36962 -0.00167 0.7239 0.0
N861 N 0.35761 0.97975 0.72119 0.0
C862 C 0.40812 0.0105 0.7363 0.0
H863 H 0.40064 0.02448 0.74591 0.0
H864 H 0.41594 0.01678 0.72161 0.0
H865 H 0.42086 0.00376 0.74705 0.0
C866 C 0.34194 0.03104 0.65094 0.0
N867 N 0.34552 0.0378 0.67239 0.0
N868 N 0.35504 0.0221 0.68249 0.0
C869 C 0.35861 0.00523 0.66742 0.0
C870 C 0.35016 0.01026 0.64724 0.0
C871 C 0.33025 0.0439 0.63455 0.0
H872 H 0.31647 0.05284 0.6425 0.0
H873 H 0.34209 0.0562 0.62849 0.0
H874 H 0.32377 0.03293 0.62023 0.0
O875 O 0.31582 0.05983 0.70891 0.0
O876 O 0.33228 0.03545 0.72898 0.0
H877 H 0.37752 0.97719 0.65622 0.0
H878 H 0.38435 0.98878 0.68375 0.0
C879 C 0.3706 0.98482 0.67163 0.0
H880 H 0.35882 0.97261 0.67789 0.0
H881 H 0.34094 0.97879 0.7163 0.0
O882 O 0.33355 0.08732 0.66722 0.0
C883 C 0.31643 0.04824 0.72544 0.0
Co884 Co 0.50322 0.83528 0.70033 0.0
Co885 Co 0.52965 0.87 0.73181 0.0
C886 C 0.48431 0.87893 0.71665 0.0
O887 O 0.48241 0.85974 0.70673 0.0
O888 O 0.50236 0.88581 0.72626 0.0
C889 C 0.46796 0.8151 0.67531 0.0
O890 O 0.45797 0.8201 0.6939 0.0
C891 C 0.55251 0.91146 0.74456 0.0
C892 C 0.57316 0.90441 0.77341 0.0
C893 C 0.56801 0.92087 0.75988 0.0
N894 N 0.54876 0.89039 0.7487 0.0
N895 N 0.5609 0.88627 0.76614 0.0
C896 C 0.54045 0.92238 0.72684 0.0
H897 H 0.5238 0.92663 0.73279 0.0
H898 H 0.53811 0.9108 0.71187 0.0
H899 H 0.54901 0.93782 0.7227 0.0
C900 C 0.543 0.84107 0.67318 0.0
N901 N 0.53148 0.8457 0.69159 0.0
N902 N 0.54323 0.85967 0.70514 0.0
C903 C 0.5629 0.86395 0.69594 0.0
C904 C 0.56336 0.85238 0.67533 0.0
C905 C 0.53463 0.82602 0.65394 0.0
H906 H 0.52933 0.80989 0.65974 0.0
H907 H 0.51992 0.8332 0.64639 0.0
H908 H 0.54746 0.82341 0.64133 0.0
O909 O 0.50589 0.81863 0.72714 0.0
O910 O 0.52208 0.84527 0.74983 0.0
H911 H 0.58266 0.87703 0.72398 0.0
H912 H 0.59666 0.8771 0.69806 0.0
C913 C 0.58061 0.87949 0.70622 0.0
H914 H 0.57572 0.89668 0.70458 0.0
H915 H 0.56114 0.871 0.77278 0.0
O916 O 0.48886 0.81761 0.67497 0.0
C917 C 0.51321 0.82599 0.74626 0.0
Co918 Co 0.70034 0.02487 0.72911 0.0
Co919 Co 0.67435 0.061 0.75605 0.0
C920 C 0.65273 0.01818 0.74035 0.0
O921 O 0.67028 0.01241 0.7308 0.0
O922 O 0.65172 0.03659 0.75163 0.0
C923 C 0.70638 0.00174 0.68858 0.0
O924 O 0.69012 0.01428 0.68327 0.0
C925 C 0.64091 0.09336 0.76502 0.0
C926 C 0.6576 0.11692 0.7901 0.0
C927 C 0.63825 0.11318 0.77748 0.0
N928 N 0.66088 0.0859 0.76999 0.0
N929 N 0.67066 0.09979 0.78527 0.0
C930 C 0.62622 0.08294 0.74663 0.0
H931 H 0.63574 0.07182 0.73534 0.0
H932 H 0.61866 0.09571 0.73712 0.0
H933 H 0.61278 0.07305 0.75365 0.0
C934 C 0.71209 0.06294 0.70396 0.0
N935 N 0.70021 0.05346 0.71928 0.0
N936 N 0.68789 0.06832 0.72948 0.0
C937 C 0.69114 0.08767 0.72048 0.0
C938 C 0.70664 0.08487 0.70408 0.0
C939 C 0.73049 0.05209 0.69163 0.0
H940 H 0.73774 0.03925 0.70123 0.0
H941 H 0.7239 0.04428 0.67562 0.0
H942 H 0.74369 0.06438 0.68823 0.0
O943 O 0.71556 0.02601 0.75801 0.0
O944 O 0.69801 0.05316 0.77629 0.0
H945 H 0.68583 0.11467 0.74428 0.0
H946 H 0.68235 0.12138 0.71601 0.0
C947 C 0.67971 0.10842 0.72755 0.0
H948 H 0.66171 0.10487 0.72815 0.0
H949 H 0.68656 0.09802 0.79175 0.0
O950 O 0.71462 0.00394 0.70804 0.0
C951 C 0.71291 0.03888 0.77521 0.0
Co952 Co 0.52366 0.87776 0.36056 0.0
Co953 Co 0.55648 0.84564 0.38027 0.0
C954 C 0.51656 0.85987 0.40416 0.0
O955 O 0.51088 0.87224 0.38932 0.0
O956 O 0.53399 0.84894 0.40261 0.0
C957 C 0.4974 0.90753 0.33502 0.0
O958 O 0.49187 0.89145 0.32 0.0
C959 C 0.58511 0.83294 0.41427 0.0
C960 C 0.60486 0.80625 0.39893 0.0
C961 C 0.60133 0.81837 0.41876 0.0
N962 N 0.57888 0.82938 0.39301 0.0
N963 N 0.59057 0.81329 0.38382 0.0
C964 C 0.57726 0.85172 0.42923 0.0
H965 H 0.57103 0.86498 0.41949 0.0
H966 H 0.59083 0.8587 0.44054 0.0
H967 H 0.56359 0.84567 0.43926 0.0
C968 C 0.56491 0.90114 0.35279 0.0
N969 N 0.55398 0.88475 0.36176 0.0
N970 N 0.56813 0.87276 0.37174 0.0
C971 C 0.58865 0.88199 0.37046 0.0
C972 C 0.58709 0.90051 0.35856 0.0
C973 C 0.55492 0.91488 0.33604 0.0
H974 H 0.54215 0.905 0.32588 0.0
H975 H 0.54725 0.9293 0.34461 0.0
H976 H 0.56762 0.92091 0.32487 0.0
O977 O 0.51799 0.85177 0.34032 0.0
O978 O 0.54137 0.82874 0.35485 0.0
H979 H 0.61268 0.85709 0.37126 0.0
H980 H 0.62359 0.88467 0.37956 0.0
C981 C 0.60911 0.87312 0.38025 0.0
H982 H 0.60635 0.87012 0.39769 0.0
H983 H 0.58903 0.80735 0.36728 0.0
O984 O 0.50918 0.90385 0.35172 0.0
C985 C 0.52644 0.83294 0.34073 0.0
Co986 Co 0.73412 0.07563 0.37947 0.0
Co987 Co 0.71484 0.0369 0.3482 0.0
C988 C 0.69151 0.07905 0.35296 0.0
O989 O 0.7071 0.08684 0.36589 0.0
O990 O 0.69155 0.05914 0.34486 0.0
C991 C 0.72454 0.09992 0.41647 0.0
O992 O 0.70731 0.08624 0.41308 0.0
C993 C 0.68491 0.00084 0.33554 0.0
C994 C 0.70376 0.97901 0.31258 0.0
C995 C 0.68388 0.98037 0.32351 0.0
N996 N 0.70441 0.01074 0.33202 0.0
N997 N 0.71553 -0.00207 0.31798 0.0
C998 C 0.66929 0.01019 0.35241 0.0
H999 H 0.67769 0.0234 0.36348 0.0
H1000 H 0.66271 -0.00276 0.36254 0.0
H1001 H 0.65527 0.01757 0.34389 0.0
C1002 C 0.73507 0.04012 0.41091 0.0
N1003 N 0.72964 0.04764 0.39125 0.0
N1004 N 0.72107 0.03117 0.37808 0.0
C1005 C 0.72087 0.01267 0.38899 0.0
C1006 C 0.7293 0.01784 0.41019 0.0
C1007 C 0.74616 0.05378 0.42983 0.0
H1008 H 0.75748 0.06646 0.42368 0.0
H1009 H 0.73336 0.06212 0.43991 0.0
H1010 H 0.75561 0.04347 0.44066 0.0
O1011 O 0.75771 0.07403 0.35746 0.0
O1012 O 0.74282 0.04615 0.33538 0.0
H1013 H 0.72199 0.98793 0.36183 0.0
H1014 H 0.72342 0.97727 0.3885 0.0
C1015 C 0.71572 0.9898 0.37878 0.0
H1016 H 0.6976 0.98653 0.37834 0.0
H1017 H 0.73152 0.00161 0.31298 0.0
O1018 O 0.74069 0.0983 0.40353 0.0
C1019 C 0.75825 0.06054 0.34038 0.0
Co1020 Co 0.5124 0.22897 0.37372 0.0
Co1021 Co 0.55179 0.20757 0.34748 0.0
C1022 C 0.50697 0.18705 0.3436 0.0
O1023 O 0.49982 0.20325 0.35543 0.0
O1024 O 0.52746 0.1852 0.33994 0.0
C1025 C 0.47977 0.22032 0.40311 0.0
O1026 O 0.48783 0.20078 0.39827 0.0
C1027 C 0.58701 0.17585 0.33889 0.0
C1028 C 0.61244 0.19635 0.32397 0.0
C1029 C 0.60866 0.17573 0.33163 0.0
N1030 N 0.57867 0.19572 0.33601 0.0
N1031 N 0.59379 0.20768 0.32655 0.0
C1032 C 0.57534 0.15849 0.35082 0.0
H1033 H 0.56149 0.16558 0.36036 0.0
H1034 H 0.58704 0.15084 0.36202 0.0
H1035 H 0.56851 0.14537 0.33858 0.0
C1036 C 0.54438 0.22742 0.41081 0.0
N1037 N 0.53833 0.22249 0.38949 0.0
N1038 N 0.55523 0.21431 0.3787 0.0
C1039 C 0.57272 0.21411 0.39292 0.0
C1040 C 0.56631 0.22228 0.41367 0.0
C1041 C 0.53008 0.23877 0.42762 0.0
H1042 H 0.51766 0.22668 0.43308 0.0
H1043 H 0.53997 0.24586 0.44223 0.0
H1044 H 0.52115 0.25211 0.42022 0.0
O1045 O 0.51973 0.25231 0.35427 0.0
O1046 O 0.54518 0.23559 0.33338 0.0
H1047 H 0.60777 0.21073 0.40023 0.0
H1048 H 0.59466 0.18855 0.38328 0.0
C1049 C 0.59528 0.20666 0.3868 0.0
H1050 H 0.60064 0.21444 0.37188 0.0
H1051 H 0.59184 0.22401 0.32305 0.0
O1052 O 0.48843 0.23688 0.39457 0.0
C1053 C 0.53291 0.25195 0.33818 0.0
Co1054 Co 0.38498 0.05972 0.36012 0.0
Co1055 Co 0.35959 0.01756 0.37502 0.0
C1056 C 0.35533 0.06065 0.39964 0.0
O1057 O 0.36778 0.06965 0.38611 0.0
O1058 O 0.35135 0.03997 0.3982 0.0
C1059 C 0.41138 0.0953 0.34109 0.0
O1060 O 0.39718 0.09492 0.32439 0.0
C1061 C 0.35148 0.97998 0.40053 0.0
C1062 C 0.33544 0.9553 0.37618 0.0
C1063 C 0.34411 0.95817 0.3975 0.0
N1064 N 0.34775 0.98955 0.38178 0.0
N1065 N 0.33758 0.9749 0.36743 0.0
C1066 C 0.36365 0.99113 0.42029 0.0
H1067 H 0.37283 0.00616 0.41586 0.0
H1068 H 0.37526 0.97978 0.42754 0.0
H1069 H 0.35148 -0.00403 0.433 0.0
C1070 C 0.41864 0.02731 0.35253 0.0
N1071 N 0.40015 0.0336 0.3629 0.0
N1072 N 0.39029 0.01631 0.37058 0.0
C1073 C 0.40257 -0.0014 0.36573 0.0
C1074 C 0.42051 0.00495 0.35383 0.0
C1075 C 0.43162 0.0414 0.33804 0.0
H1076 H 0.42014 0.04938 0.3269 0.0
H1077 H 0.4409 0.0545 0.34847 0.0
H1078 H 0.44356 0.03169 0.32804 0.0
O1079 O 0.36406 0.05419 0.33501 0.0
O1080 O 0.34649 0.02451 0.34665 0.0
H1081 H 0.38135 0.96977 0.36017 0.0
H1082 H 0.40977 0.96399 0.36638 0.0
C1083 C 0.39626 0.97548 0.3702 0.0
H1084 H 0.3928 0.97515 0.38788 0.0
H1085 H 0.33341 0.97787 0.35123 0.0
O1086 O 0.40807 0.08278 0.35648 0.0
C1087 C 0.34943 0.03855 0.33242 0.0
Co1088 Co 0.69858 0.23141 0.53029 0.0
Co1089 Co 0.72094 0.20199 0.56383 0.0
C1090 C 0.70657 0.18258 0.52089 0.0
O1091 O 0.70167 0.20159 0.51556 0.0
O1092 O 0.71313 0.17936 0.54023 0.0
C1093 C 0.65911 0.23375 0.50832 0.0
O1094 O 0.65612 0.21703 0.52045 0.0
C1095 C 0.72745 0.16795 0.59376 0.0
C1096 C 0.75362 0.18272 0.61683 0.0
C1097 C 0.73995 0.16408 0.61236 0.0
N1098 N 0.73351 0.18786 0.58753 0.0
N1099 N 0.74936 0.19653 0.60116 0.0
C1100 C 0.70833 0.15423 0.58342 0.0
H1101 H 0.69684 0.16461 0.57471 0.0
H1102 H 0.69909 0.1458 0.59605 0.0
H1103 H 0.71466 0.14155 0.57126 0.0
C1104 C 0.67156 0.24288 0.56925 0.0
N1105 N 0.68736 0.23114 0.55902 0.0
N1106 N 0.69634 0.21839 0.57298 0.0
C1107 C 0.68628 0.22132 0.59246 0.0
C1108 C 0.67031 0.237 0.59071 0.0
C1109 C 0.65911 0.26059 0.55922 0.0
H1110 H 0.66941 0.26849 0.54703 0.0
H1111 H 0.64391 0.25319 0.55068 0.0
H1112 H 0.6541 0.27328 0.57211 0.0
O1113 O 0.72826 0.2456 0.53201 0.0
O1114 O 0.74407 0.2218 0.55309 0.0
H1115 H 0.70837 0.21327 0.61835 0.0
H1116 H 0.6795 0.21174 0.6254 0.0
C1117 C 0.69136 0.20871 0.612 0.0
H1118 H 0.69058 0.19086 0.6069 0.0
H1119 H 0.75683 0.21208 0.60011 0.0
O1120 O 0.67739 0.24479 0.51036 0.0
C1121 C 0.74524 0.23824 0.54141 0.0
Co1122 Co 0.70944 0.86514 0.57867 0.0
Co1123 Co 0.73669 0.89254 0.54558 0.0
C1124 C 0.72373 0.91318 0.58846 0.0
O1125 O 0.7153 0.89495 0.59357 0.0
O1126 O 0.73221 0.91508 0.56982 0.0
C1127 C 0.66785 0.86164 0.59803 0.0
O1128 O 0.665 0.87804 0.58559 0.0
C1129 C 0.74507 0.92698 0.51541 0.0
C1130 C 0.77038 0.91246 0.49363 0.0
C1131 C 0.75751 0.93078 0.49711 0.0
N1132 N 0.75005 0.90716 0.52215 0.0
N1133 N 0.76539 0.89868 0.50921 0.0
C1134 C 0.72931 0.9421 0.52706 0.0
H1135 H 0.73678 0.9482 0.54331 0.0
H1136 H 0.71372 0.93286 0.53018 0.0
H1137 H 0.72573 0.95657 0.51781 0.0
C1138 C 0.68394 0.85248 0.53764 0.0
N1139 N 0.69886 0.86593 0.54925 0.0
N1140 N 0.70943 0.87818 0.5357 0.0
C1141 C 0.70089 0.87352 0.51515 0.0
C1142 C 0.68476 0.85679 0.51562 0.0
C1143 C 0.67197 0.8335 0.54687 0.0
H1144 H 0.68182 0.8275 0.56062 0.0
H1145 H 0.65588 0.83907 0.55328 0.0
H1146 H 0.6687 0.81971 0.53403 0.0
O1147 O 0.73701 0.84864 0.57683 0.0
O1148 O 0.75677 0.86919 0.55492 0.0
H1149 H 0.72484 0.87887 0.49062 0.0
H1150 H 0.69649 0.88142 0.48123 0.0
C1151 C 0.7083 0.88467 0.49541 0.0
H1152 H 0.70951 0.9027 0.49949 0.0
H1153 H 0.77213 0.88331 0.51074 0.0
O1154 O 0.68627 0.85201 0.5974 0.0
C1155 C 0.75468 0.85267 0.56653 0.0
Co1156 Co 0.36325 0.22009 0.55324 0.0
Co1157 Co 0.32665 0.19623 0.52284 0.0
C1158 C 0.33988 0.17827 0.56489 0.0
O1159 O 0.35392 0.19415 0.56856 0.0
O1160 O 0.32776 0.17669 0.54751 0.0
C1161 C 0.40442 0.21704 0.57223 0.0
O1162 O 0.40267 0.19817 0.56015 0.0
C1163 C 0.31266 0.15994 0.49269 0.0
C1164 C 0.28754 0.17362 0.47126 0.0
C1165 C 0.29983 0.15503 0.47367 0.0
N1166 N 0.30842 0.18042 0.50087 0.0
N1167 N 0.29286 0.18835 0.48845 0.0
C1168 C 0.33144 0.14704 0.50096 0.0
H1169 H 0.32463 0.13354 0.51029 0.0
H1170 H 0.34284 0.15768 0.51201 0.0
H1171 H 0.34094 0.13952 0.48709 0.0
C1172 C 0.38832 0.21765 0.51183 0.0
N1173 N 0.37041 0.21287 0.52361 0.0
N1174 N 0.35514 0.20249 0.51051 0.0
C1175 C 0.36313 0.20015 0.48989 0.0
C1176 C 0.3844 0.20945 0.49016 0.0
C1177 C 0.40871 0.23003 0.52111 0.0
H1178 H 0.40438 0.24223 0.53468 0.0
H1179 H 0.42036 0.21823 0.52751 0.0
H1180 H 0.41741 0.23881 0.50843 0.0
O1181 O 0.34005 0.24205 0.55412 0.0
O1182 O 0.31317 0.2245 0.53315 0.0
H1183 H 0.33298 0.19696 0.47042 0.0
H1184 H 0.35774 0.19692 0.45454 0.0
C1185 C 0.35017 0.19132 0.46966 0.0
H1186 H 0.34998 0.17307 0.46844 0.0
H1187 H 0.28718 0.20434 0.49071 0.0
O1188 O 0.38924 0.23088 0.57108 0.0
C1189 C 0.32069 0.2413 0.54529 0.0
Co1190 Co 0.3533 0.8596 0.55213 0.0
Co1191 Co 0.38134 0.82603 0.5245 0.0
C1192 C 0.39038 0.83671 0.5727 0.0
O1193 O 0.37448 0.84976 0.57365 0.0
O1194 O 0.39556 0.8268 0.55449 0.0
C1195 C 0.35281 0.89929 0.57493 0.0
O1196 O 0.37383 0.89662 0.57076 0.0
C1197 C 0.42103 0.82183 0.50085 0.0
C1198 C 0.4165 0.79097 0.47937 0.0
C1199 C 0.43073 0.80916 0.48415 0.0
N1200 N 0.40175 0.81201 0.50546 0.0
N1201 N 0.3992 0.79331 0.4929 0.0
C1202 C 0.42954 0.84344 0.51192 0.0
H1203 H 0.42366 0.84558 0.52904 0.0
H1204 H 0.42317 0.85713 0.50289 0.0
H1205 H 0.44791 0.84449 0.51198 0.0
C1206 C 0.35932 0.88516 0.51409 0.0
N1207 N 0.3658 0.8689 0.52632 0.0
N1208 N 0.37565 0.8539 0.51363 0.0
C1209 C 0.37496 0.85977 0.49268 0.0
C1210 C 0.3647 0.87978 0.49239 0.0
C1211 C 0.34605 0.9043 0.52249 0.0
H1212 H 0.35583 0.91434 0.53547 0.0
H1213 H 0.34204 0.91536 0.50948 0.0
H1214 H 0.33049 0.89823 0.52959 0.0
O1215 O 0.33246 0.83502 0.54292 0.0
O1216 O 0.35263 0.80966 0.52465 0.0
H1217 H 0.3701 0.8491 0.45802 0.0
H1218 H 0.39717 0.84513 0.46943 0.0
C1219 C 0.37927 0.84444 0.47286 0.0
H1220 H 0.37432 0.82729 0.47596 0.0
H1221 H 0.38531 0.78271 0.49288 0.0
O1222 O 0.33873 0.88426 0.568 0.0
C1223 C 0.33429 0.81623 0.53233 0.0
Co1224 Co 0.50552 0.67747 0.25061 0.0
Co1225 Co 0.54071 0.70992 0.23348 0.0
C1226 C 0.50214 0.69475 0.20537 0.0
O1227 O 0.49486 0.68317 0.22035 0.0
O1228 O 0.52042 0.70564 0.20786 0.0
C1229 C 0.47588 0.65254 0.27577 0.0
O1230 O 0.47314 0.67115 0.2877 0.0
C1231 C 0.57413 0.72932 0.2073 0.0
C1232 C 0.59071 0.75467 0.2307 0.0
C1233 C 0.59059 0.74585 0.20898 0.0
N1234 N 0.56479 0.72865 0.22695 0.0
N1235 N 0.57466 0.74383 0.24091 0.0
C1236 C 0.5684 0.71298 0.18811 0.0
H1237 H 0.56113 0.69757 0.19392 0.0
H1238 H 0.58326 0.70905 0.17839 0.0
H1239 H 0.55589 0.72001 0.17729 0.0
C1240 C 0.54554 0.6555 0.26341 0.0
N1241 N 0.5355 0.6708 0.25239 0.0
N1242 N 0.5505 0.68343 0.24387 0.0
C1243 C 0.57071 0.67603 0.24845 0.0
C1244 C 0.56821 0.65812 0.26117 0.0
C1245 C 0.53373 0.64099 0.27843 0.0
H1246 H 0.52107 0.6505 0.28757 0.0
H1247 H 0.52529 0.627 0.26843 0.0
H1248 H 0.54521 0.63449 0.29062 0.0
O1249 O 0.50032 0.70334 0.27075 0.0
O1250 O 0.52464 0.72613 0.25659 0.0
H1251 H 0.59658 0.70094 0.25182 0.0
H1252 H 0.60545 0.67423 0.24088 0.0
C1253 C 0.59185 0.68601 0.24083 0.0
H1254 H 0.5895 0.691 0.22387 0.0
H1255 H 0.57045 0.74677 0.25739 0.0
O1256 O 0.48839 0.65208 0.25934 0.0
C1257 C 0.50948 0.72231 0.27003 0.0
Co1258 Co 0.33832 0.56212 0.21965 0.0
Co1259 Co 0.35861 0.52388 0.24588 0.0
C1260 C 0.37878 0.56746 0.25077 0.0
O1261 O 0.36311 0.57407 0.23902 0.0
O1262 O 0.38106 0.54719 0.25336 0.0
C1263 C 0.35358 0.5891 0.18941 0.0
O1264 O 0.37088 0.57855 0.19585 0.0
C1265 C 0.38927 0.49122 0.26077 0.0
C1266 C 0.36798 0.46097 0.25827 0.0
C1267 C 0.38992 0.46835 0.261 0.0
N1268 N 0.36823 0.49675 0.25679 0.0
N1269 N 0.3555 0.47864 0.25608 0.0
C1270 C 0.40812 0.50776 0.2646 0.0
H1271 H 0.40273 0.52217 0.27518 0.0
H1272 H 0.41329 0.51352 0.2486 0.0
H1273 H 0.42238 0.50075 0.27308 0.0
C1274 C 0.34189 0.52818 0.18284 0.0
N1275 N 0.34456 0.53503 0.20436 0.0
N1276 N 0.35395 0.51953 0.21482 0.0
C1277 C 0.35807 0.50254 0.20003 0.0
C1278 C 0.35036 0.50744 0.17948 0.0
C1279 C 0.33072 0.54082 0.16592 0.0
H1280 H 0.31779 0.55119 0.17361 0.0
H1281 H 0.3432 0.55164 0.15862 0.0
H1282 H 0.32313 0.52946 0.15244 0.0
O1283 O 0.31433 0.55843 0.24041 0.0
O1284 O 0.33136 0.53471 0.26092 0.0
H1285 H 0.35969 0.47084 0.21252 0.0
H1286 H 0.37733 0.47438 0.18964 0.0
C1287 C 0.37078 0.48274 0.20488 0.0
H1288 H 0.38489 0.48772 0.21629 0.0
H1289 H 0.33855 0.4781 0.25238 0.0
O1290 O 0.33489 0.58476 0.19765 0.0
C1291 C 0.31556 0.54765 0.25756 0.0
Co1292 Co 0.51046 0.35797 0.20797 0.0
Co1293 Co 0.54423 0.3861 0.23911 0.0
C1294 C 0.49808 0.40027 0.2332 0.0
O1295 O 0.4932 0.3828 0.22102 0.0
O1296 O 0.51765 0.40441 0.24075 0.0
C1297 C 0.48665 0.35674 0.16882 0.0
O1298 O 0.49679 0.37621 0.16942 0.0
C1299 C 0.57431 0.42392 0.24846 0.0
C1300 C 0.59624 0.414 0.27515 0.0
C1301 C 0.59271 0.43075 0.26147 0.0
N1302 N 0.5674 0.40393 0.25392 0.0
N1303 N 0.58037 0.39818 0.27012 0.0
C1304 C 0.56317 0.43627 0.23124 0.0
H1305 H 0.55336 0.44945 0.23954 0.0
H1306 H 0.55187 0.4251 0.22055 0.0
H1307 H 0.57551 0.4443 0.22103 0.0
C1308 C 0.54783 0.36079 0.177 0.0
N1309 N 0.53799 0.36682 0.19617 0.0
N1310 N 0.55243 0.37828 0.20942 0.0
C1311 C 0.57189 0.37976 0.19905 0.0
C1312 C 0.56939 0.36917 0.17814 0.0
C1313 C 0.53811 0.34474 0.15917 0.0
H1314 H 0.52685 0.33257 0.16622 0.0
H1315 H 0.52866 0.35383 0.1472 0.0
H1316 H 0.55129 0.33589 0.15008 0.0
O1317 O 0.51685 0.33743 0.23059 0.0
O1318 O 0.53915 0.35828 0.25417 0.0
H1319 H 0.59475 0.38473 0.22668 0.0
H1320 H 0.60769 0.38317 0.20024 0.0
C1321 C 0.59316 0.38918 0.20944 0.0
H1322 H 0.59332 0.40733 0.20926 0.0
H1323 H 0.57882 0.38322 0.27726 0.0
O1324 O 0.49032 0.34436 0.18425 0.0
C1325 C 0.52847 0.34016 0.24844 0.0
Co1326 Co 0.73059 0.52819 0.21128 0.0
Co1327 Co 0.71074 0.55771 0.24946 0.0
C1328 C 0.68656 0.51712 0.23113 0.0
O1329 O 0.70182 0.5131 0.21748 0.0
O1330 O 0.68772 0.53417 0.24458 0.0
C1331 C 0.72584 0.5134 0.16761 0.0
O1332 O 0.70728 0.52369 0.1709 0.0
C1333 C 0.6793 0.58504 0.27151 0.0
C1334 C 0.69873 0.60446 0.29799 0.0
C1335 C 0.67759 0.60127 0.28867 0.0
N1336 N 0.70027 0.57879 0.27087 0.0
N1337 N 0.71186 0.59017 0.28687 0.0
C1338 C 0.66224 0.57749 0.25396 0.0
H1339 H 0.67028 0.57082 0.23878 0.0
H1340 H 0.65179 0.59128 0.24975 0.0
H1341 H 0.65148 0.56424 0.25997 0.0
C1342 C 0.73588 0.57135 0.19266 0.0
N1343 N 0.72807 0.55863 0.20803 0.0
N1344 N 0.71842 0.57107 0.22338 0.0
C1345 C 0.71905 0.59211 0.21783 0.0
C1346 C 0.7302 0.59298 0.19813 0.0
C1347 C 0.75099 0.56343 0.17476 0.0
H1348 H 0.76104 0.54986 0.18021 0.0
H1349 H 0.74096 0.55721 0.15994 0.0
H1350 H 0.76228 0.57698 0.17021 0.0
O1351 O 0.75238 0.52426 0.23497 0.0
O1352 O 0.73682 0.54471 0.26202 0.0
H1353 H 0.7189 0.61486 0.24649 0.0
H1354 H 0.70788 0.62574 0.22181 0.0
C1355 C 0.70896 0.61085 0.23106 0.0
H1356 H 0.69201 0.60598 0.23551 0.0
H1357 H 0.72878 0.58863 0.28981 0.0
O1358 O 0.73988 0.51332 0.18344 0.0
C1359 C 0.75188 0.53204 0.25497 0.0
Co1360 Co 0.52891 0.38765 0.86103 0.0
Co1361 Co 0.5659 0.35629 0.8744 0.0
C1362 C 0.52381 0.35885 0.89832 0.0
O1363 O 0.51698 0.37297 0.88573 0.0
O1364 O 0.54301 0.35108 0.89654 0.0
C1365 C 0.4944 0.41155 0.84182 0.0
O1366 O 0.48996 0.39342 0.82907 0.0
C1367 C 0.59697 0.33144 0.89909 0.0
C1368 C 0.62663 0.33285 0.87876 0.0
C1369 C 0.61944 0.3271 0.89909 0.0
N1370 N 0.59171 0.34052 0.88038 0.0
N1371 N 0.60923 0.34039 0.86784 0.0
C1372 C 0.58018 0.32552 0.91553 0.0
H1373 H 0.56481 0.31886 0.90676 0.0
H1374 H 0.57606 0.34051 0.92603 0.0
H1375 H 0.58628 0.31274 0.92595 0.0
C1376 C 0.56654 0.41838 0.86099 0.0
N1377 N 0.55776 0.39898 0.86606 0.0
N1378 N 0.57335 0.38685 0.87361 0.0
C1379 C 0.5926 0.39883 0.87474 0.0
C1380 C 0.58891 0.4191 0.86651 0.0
C1381 C 0.55443 0.43404 0.84763 0.0
H1382 H 0.54271 0.42475 0.83575 0.0
H1383 H 0.54493 0.44526 0.85883 0.0
H1384 H 0.56588 0.44403 0.83816 0.0
O1385 O 0.52781 0.36679 0.83558 0.0
O1386 O 0.55453 0.34462 0.84483 0.0
H1387 H 0.62339 0.383 0.8702 0.0
H1388 H 0.62435 0.40563 0.89101 0.0
C1389 C 0.61405 0.39131 0.88374 0.0
H1390 H 0.61099 0.37967 0.89652 0.0
H1391 H 0.60969 0.34687 0.85249 0.0
O1392 O 0.50981 0.412 0.85633 0.0
C1393 C 0.53959 0.35019 0.83147 0.0
Co1394 Co 0.73766 0.58589 0.89693 0.0
Co1395 Co 0.71947 0.55118 0.86 0.0
C1396 C 0.69509 0.59161 0.87095 0.0
O1397 O 0.71024 0.59853 0.88482 0.0
O1398 O 0.696 0.57276 0.86064 0.0
C1399 C 0.72579 0.60736 0.93521 0.0
O1400 O 0.70795 0.59565 0.92834 0.0
C1401 C 0.68842 0.51735 0.84537 0.0
C1402 C 0.7039 0.49832 0.81772 0.0
C1403 C 0.68531 0.49877 0.83074 0.0
N1404 N 0.70778 0.52724 0.84125 0.0
N1405 N 0.7169 0.51614 0.82446 0.0
C1406 C 0.67502 0.5243 0.86505 0.0
H1407 H 0.68479 0.5356 0.877 0.0
H1408 H 0.6692 0.50978 0.87351 0.0
H1409 H 0.66045 0.53325 0.8596 0.0
C1410 C 0.73898 0.54534 0.92198 0.0
N1411 N 0.73392 0.55593 0.9039 0.0
N1412 N 0.72731 0.54127 0.88786 0.0
C1413 C 0.72852 0.52092 0.89497 0.0
C1414 C 0.73549 0.52275 0.91692 0.0
C1415 C 0.74664 0.55677 0.94364 0.0
H1416 H 0.75992 0.5692 0.94096 0.0
H1417 H 0.7326 0.56552 0.95127 0.0
H1418 H 0.75269 0.54506 0.95524 0.0
O1419 O 0.76109 0.5881 0.87415 0.0
O1420 O 0.74532 0.56473 0.84764 0.0
H1421 H 0.73203 0.50221 0.86384 0.0
H1422 H 0.73508 0.48646 0.88741 0.0
C1423 C 0.72582 0.49986 0.88048 0.0
H1424 H 0.70808 0.49461 0.87916 0.0
H1425 H 0.73236 0.52013 0.81832 0.0
O1426 O 0.74348 0.60515 0.92442 0.0
C1427 C 0.76052 0.57872 0.85455 0.0
Co1428 Co 0.50417 0.73213 0.88469 0.0
Co1429 Co 0.54767 0.71289 0.86404 0.0
C1430 C 0.50983 0.6837 0.8721 0.0
O1431 O 0.49856 0.70021 0.87808 0.0
O1432 O 0.52993 0.68577 0.8671 0.0
C1433 C 0.47932 0.72921 0.92179 0.0
O1434 O 0.49588 0.71629 0.92502 0.0
C1435 C 0.58728 0.68773 0.86602 0.0
C1436 C 0.60634 0.69689 0.83745 0.0
C1437 C 0.60667 0.68383 0.85507 0.0
N1438 N 0.57597 0.70264 0.85563 0.0
N1439 N 0.58741 0.70805 0.83849 0.0
C1440 C 0.57899 0.67654 0.88541 0.0
H1441 H 0.56588 0.68619 0.89374 0.0
H1442 H 0.59274 0.67428 0.89731 0.0
H1443 H 0.57195 0.65997 0.87959 0.0
C1444 C 0.53746 0.75233 0.91783 0.0
N1445 N 0.53186 0.73914 0.89953 0.0
N1446 N 0.55004 0.73154 0.89063 0.0
C1447 C 0.5677 0.73993 0.90284 0.0
C1448 C 0.56025 0.7532 0.92052 0.0
C1449 C 0.52154 0.76476 0.93213 0.0
H1450 H 0.50723 0.76963 0.92211 0.0
H1451 H 0.5155 0.75413 0.94485 0.0
H1452 H 0.52981 0.77971 0.94072 0.0
O1453 O 0.50452 0.74582 0.85598 0.0
O1454 O 0.53388 0.7296 0.84077 0.0
H1455 H 0.60305 0.74706 0.90688 0.0
H1456 H 0.59493 0.71846 0.90343 0.0
C1457 C 0.59129 0.73493 0.89805 0.0
H1458 H 0.59408 0.73504 0.88015 0.0
H1459 H 0.58224 0.71921 0.82745 0.0
O1460 O 0.479 0.7398 0.90453 0.0
C1461 C 0.51745 0.74223 0.83979 0.0
Co1462 Co 0.38235 0.56287 0.85448 0.0
Co1463 Co 0.34972 0.52877 0.8735 0.0
C1464 C 0.36782 0.56821 0.90094 0.0
O1465 O 0.37969 0.57389 0.88535 0.0
O1466 O 0.35476 0.55141 0.89859 0.0
C1467 C 0.42383 0.58338 0.85589 0.0
O1468 O 0.42554 0.57126 0.87274 0.0
C1469 C 0.34044 0.4964 0.90375 0.0
C1470 C 0.31165 0.47687 0.88889 0.0
C1471 C 0.32659 0.4783 0.90667 0.0
N1472 N 0.33403 0.50515 0.88524 0.0
N1473 N 0.3166 0.49369 0.87651 0.0
C1474 C 0.36118 0.50391 0.91657 0.0
H1475 H 0.37239 0.51338 0.90635 0.0
H1476 H 0.37004 0.48965 0.92227 0.0
H1477 H 0.35681 0.51486 0.93117 0.0
C1478 C 0.4055 0.52228 0.84104 0.0
N1479 N 0.38937 0.53297 0.8518 0.0
N1480 N 0.37603 0.51853 0.86025 0.0
C1481 C 0.38328 0.4981 0.85501 0.0
C1482 C 0.40217 0.49992 0.84273 0.0
C1483 C 0.42307 0.53304 0.82824 0.0
H1484 H 0.41614 0.54683 0.81976 0.0
H1485 H 0.43663 0.53969 0.83971 0.0
H1486 H 0.43011 0.52102 0.81584 0.0
O1487 O 0.3546 0.56658 0.83785 0.0
O1488 O 0.33208 0.54076 0.85033 0.0
H1489 H 0.35457 0.47694 0.85743 0.0
H1490 H 0.37984 0.46233 0.85397 0.0
C1491 C 0.37247 0.4773 0.86182 0.0
H1492 H 0.37445 0.47682 0.87989 0.0
H1493 H 0.30862 0.49686 0.86178 0.0
O1494 O 0.40624 0.58162 0.84396 0.0
C1495 C 0.3361 0.55593 0.8376 0.0
Co1496 Co 0.6818 0.74799 0.03852 0.0
Co1497 Co 0.71384 0.72383 0.06908 0.0
C1498 C 0.69726 0.70201 0.02661 0.0
O1499 O 0.68585 0.71852 0.02279 0.0
O1500 O 0.70894 0.70178 0.04413 0.0
C1501 C 0.63932 0.74754 0.02249 0.0
O1502 O 0.63956 0.72997 0.0337 0.0
C1503 C 0.72674 0.68908 0.09566 0.0
C1504 C 0.75306 0.70465 0.11804 0.0
C1505 C 0.74098 0.68503 0.11298 0.0
N1506 N 0.73028 0.70997 0.09074 0.0
N1507 N 0.7462 0.71919 0.10397 0.0
C1508 C 0.70822 0.67441 0.08546 0.0
H1509 H 0.69518 0.68435 0.0784 0.0
H1510 H 0.7007 0.66422 0.09782 0.0
H1511 H 0.71477 0.66334 0.07194 0.0
C1512 C 0.65856 0.75543 0.08043 0.0
N1513 N 0.67482 0.74643 0.06838 0.0
N1514 N 0.68725 0.73497 0.08094 0.0
C1515 C 0.67877 0.73564 0.10128 0.0
C1516 C 0.66027 0.74866 0.10156 0.0
C1517 C 0.64299 0.77195 0.07259 0.0
H1518 H 0.65087 0.78149 0.05993 0.0
H1519 H 0.62781 0.76327 0.0653 0.0
H1520 H 0.63803 0.78346 0.08654 0.0
O1521 O 0.70913 0.76599 0.03673 0.0
O1522 O 0.73178 0.74799 0.05802 0.0
H1523 H 0.70452 0.72987 0.12463 0.0
H1524 H 0.67702 0.72394 0.13414 0.0
C1525 C 0.6877 0.72321 0.11962 0.0
H1526 H 0.68894 0.70566 0.11376 0.0
H1527 H 0.75197 0.7355 0.10376 0.0
O1528 O 0.65678 0.75973 0.02237 0.0
C1529 C 0.72812 0.76334 0.04545 0.0
Co1530 Co 0.73314 0.38545 0.01283 0.0
Co1531 Co 0.71012 0.36204 0.05162 0.0
C1532 C 0.69314 0.35392 0.0062 0.0
O1533 O 0.70878 0.36584 -0.00066 0.0
O1534 O 0.69074 0.35162 0.02654 0.0
C1535 C 0.72285 0.41481 0.98264 0.0
O1536 O 0.70363 0.40794 0.98963 0.0
C1537 C 0.6764 0.3504 0.08313 0.0
C1538 C 0.69682 0.3449 0.11262 0.0
C1539 C 0.67508 0.34616 0.10518 0.0
N1540 N 0.69789 0.35228 0.07807 0.0
N1541 N 0.71 0.34853 0.09564 0.0
C1542 C 0.65772 0.352 0.06679 0.0
H1543 H 0.66061 0.34094 0.05186 0.0
H1544 H 0.65719 0.3691 0.06176 0.0
H1545 H 0.64156 0.34703 0.07342 0.0
C1546 C 0.72622 0.42436 0.04404 0.0
N1547 N 0.72379 0.40255 0.03816 0.0
N1548 N 0.71299 0.39306 0.05359 0.0
C1549 C 0.70765 0.40861 0.06939 0.0
C1550 C 0.71569 0.42884 0.06369 0.0
C1551 C 0.73953 0.44041 0.03192 0.0
H1552 H 0.75369 0.43218 0.02391 0.0
H1553 H 0.72883 0.44692 0.01908 0.0
H1554 H 0.74579 0.45459 0.04322 0.0
O1555 O 0.75705 0.36571 0.02076 0.0
O1556 O 0.73963 0.34926 0.04733 0.0
H1557 H 0.707 0.39312 0.09968 0.0
H1558 H 0.69427 0.41952 0.10105 0.0
C1559 C 0.69668 0.40414 0.09044 0.0
H1560 H 0.68031 0.39584 0.08664 0.0
H1561 H 0.72726 0.34932 0.0963 0.0
O1562 O 0.74037 0.4067 0.99021 0.0
C1563 C 0.75639 0.35162 0.03525 0.0
Co1564 Co 0.35336 0.69243 0.02945 0.0
Co1565 Co 0.37831 0.72407 0.06526 0.0
C1566 C 0.39674 0.71532 0.02042 0.0
O1567 O 0.37976 0.70356 0.01398 0.0
O1568 O 0.39878 0.72351 0.04021 0.0
C1569 C 0.35742 0.65485 0.00407 0.0
O1570 O 0.37672 0.65871 0.01428 0.0
C1571 C 0.41375 0.72775 0.09743 0.0
C1572 C 0.40799 0.75824 0.11832 0.0
C1573 C 0.4217 0.74041 0.11594 0.0
N1574 N 0.39589 0.73726 0.0894 0.0
N1575 N 0.39261 0.75567 0.10177 0.0
C1576 C 0.42316 0.7069 0.08733 0.0
H1577 H 0.41764 0.70364 0.06988 0.0
H1578 H 0.41744 0.69273 0.09631 0.0
H1579 H 0.44152 0.70795 0.08854 0.0
C1580 C 0.35195 0.66351 0.06677 0.0
N1581 N 0.35939 0.6817 0.05744 0.0
N1582 N 0.36847 0.69571 0.07287 0.0
C1583 C 0.36651 0.68719 0.09257 0.0
C1584 C 0.35645 0.66636 0.08934 0.0
C1585 C 0.33999 0.64425 0.05439 0.0
H1586 H 0.35163 0.63558 0.0432 0.0
H1587 H 0.33335 0.63224 0.06549 0.0
H1588 H 0.32628 0.65016 0.04422 0.0
O1589 O 0.33274 0.71702 0.03401 0.0
O1590 O 0.35172 0.74095 0.05791 0.0
H1591 H 0.35864 0.69407 0.12682 0.0
H1592 H 0.38721 0.698 0.12066 0.0
C1593 C 0.37011 0.70009 0.11447 0.0
H1594 H 0.36739 0.71782 0.113 0.0
H1595 H 0.37966 0.76614 0.09925 0.0
O1596 O 0.34179 0.66775 0.00879 0.0
C1597 C 0.33467 0.73555 0.04553 0.0
Co1598 Co 0.36225 0.37303 0.05793 0.0
Co1599 Co 0.38545 0.34546 0.02043 0.0
C1600 C 0.40601 0.35212 0.06492 0.0
O1601 O 0.38933 0.36252 0.07177 0.0
O1602 O 0.40747 0.34497 0.04486 0.0
C1603 C 0.36259 0.4117 0.08543 0.0
O1604 O 0.38129 0.41471 0.07532 0.0
C1605 C 0.41878 0.33525 0.98795 0.0
C1606 C 0.39999 0.31391 0.96248 0.0
C1607 C 0.42052 0.32425 0.96726 0.0
N1608 N 0.39818 0.33172 0.99494 0.0
N1609 N 0.38715 0.31853 0.97991 0.0
C1610 C 0.43528 0.35127 -0.00033 0.0
H1611 H 0.44776 0.34199 0.00844 0.0
H1612 H 0.42701 0.3625 0.01191 0.0
H1613 H 0.44399 0.36115 0.98777 0.0
C1614 C 0.35921 0.40435 0.02365 0.0
N1615 N 0.36737 0.38607 0.03137 0.0
N1616 N 0.37758 0.37484 0.01547 0.0
C1617 C 0.37673 0.38603 -0.00279 0.0
C1618 C 0.36507 0.40508 0.00187 0.0
C1619 C 0.34281 0.41862 0.03549 0.0
H1620 H 0.33273 0.40885 0.04643 0.0
H1621 H 0.35181 0.43221 0.04557 0.0
H1622 H 0.33154 0.42603 0.02371 0.0
O1623 O 0.34062 0.3491 0.05146 0.0
O1624 O 0.35798 0.328 0.02615 0.0
H1625 H 0.37768 0.36245 0.96923 0.0
H1626 H 0.38447 0.39047 0.96313 0.0
C1627 C 0.38612 0.37822 0.97553 0.0
H1628 H 0.40394 0.37533 0.97786 0.0
H1629 H 0.37057 0.31359 0.98107 0.0
O1630 O 0.3507 0.39442 0.08022 0.0
C1631 C 0.34139 0.33191 0.03825 0.0
H1632 H 0.00927 0.30387 0.33451 0.0
H1633 H 0.07945 0.31461 0.32707 0.0
H1634 H 0.08102 0.27989 0.304 0.0
H1635 H 0.06229 0.24713 0.28569 0.0
H1636 H 0.99253 0.23489 0.29467 0.0
H1637 H 0.99091 0.26945 0.31813 0.0
C1638 C 0.02479 0.29859 0.32758 0.0
C1639 C 0.04414 0.31169 0.33187 0.0
C1640 C 0.02566 0.27835 0.31509 0.0
C1641 C 0.06438 0.30469 0.32357 0.0
C1642 C 0.06528 0.28489 0.31056 0.0
C1643 C 0.04677 0.25198 0.29296 0.0
C1644 C 0.02752 0.23878 0.28846 0.0
C1645 C 0.04603 0.27166 0.30624 0.0
C1646 C 0.00756 0.24488 0.29811 0.0
C1647 C 0.0066 0.26467 0.31128 0.0
H1648 H 0.82556 0.07018 0.26505 0.0
H1649 H 0.83292 0.00129 0.27457 0.0
H1650 H 0.80859 0.00449 0.30608 0.0
H1651 H 0.78237 0.02596 0.32829 0.0
H1652 H 0.77601 0.09515 0.32027 0.0
H1653 H 0.80318 0.09297 0.29084 0.0
C1654 C 0.82196 0.05597 0.2742 0.0
C1655 C 0.83061 0.03546 0.2674 0.0
C1656 C 0.80823 0.05802 0.29243 0.0
C1657 C 0.8263 0.01721 0.27954 0.0
C1658 C 0.81238 0.01901 0.29746 0.0
C1659 C 0.78733 0.04061 0.32032 0.0
C1660 C 0.77731 0.06062 0.32606 0.0
C1661 C 0.80286 0.03918 0.30368 0.0
C1662 C 0.78374 0.07963 0.31598 0.0
C1663 C 0.79907 0.07832 0.29912 0.0
H1664 H 0.0221 0.7306 0.29308 0.0
H1665 H 0.00345 0.78491 0.33795 0.0
H1666 H 0.00829 0.81027 0.30907 0.0
H1667 H 0.01928 0.81719 0.27141 0.0
H1668 H 0.03472 0.76247 0.22562 0.0
H1669 H 0.0298 0.73701 0.25449 0.0
C1670 C 0.01893 0.74797 0.29644 0.0
C1671 C 0.01256 0.75593 0.31762 0.0
C1672 C 0.02137 0.76235 0.27966 0.0
C1673 C 0.00825 0.7784 0.32174 0.0
C1674 C 0.01116 0.79292 0.30528 0.0
C1675 C 0.02157 0.79968 0.26784 0.0
C1676 C 0.02767 0.79166 0.24662 0.0
C1677 C 0.01799 0.78512 0.28428 0.0
C1678 C 0.03014 0.76894 0.24192 0.0
C1679 C 0.02733 0.75442 0.2584 0.0
H1680 H 0.33357 0.00086 0.31105 0.0
H1681 H 0.33294 0.07165 0.31019 0.0
H1682 H 0.30394 0.06798 0.28124 0.0
H1683 H 0.27648 0.04472 0.25921 0.0
H1684 H 0.2779 0.97395 0.25882 0.0
H1685 H 0.3092 0.97739 0.2855 0.0
C1686 C 0.32721 0.01544 0.30429 0.0
C1687 C 0.33491 0.03649 0.3128 0.0
C1688 C 0.31071 0.01316 0.28778 0.0
C1689 C 0.32708 0.05532 0.30379 0.0
C1690 C 0.31047 0.05322 0.28742 0.0
C1691 C 0.28383 0.03009 0.26493 0.0
C1692 C 0.27493 0.00915 0.2577 0.0
C1693 C 0.30179 0.03226 0.27981 0.0
C1694 C 0.2846 0.99018 0.26454 0.0
C1695 C 0.30236 0.99218 0.27971 0.0
H1696 H 0.9944 0.80734 0.83631 0.0
H1697 H 0.98948 0.84801 0.78173 0.0
H1698 H 0.97963 0.8155 0.7567 0.0
H1699 H 0.98139 0.77542 0.74974 0.0
H1700 H 0.98736 0.73477 0.80417 0.0
H1701 H 0.98675 0.76741 0.83029 0.0
C1702 C 0.99069 0.80899 0.819 0.0
C1703 C 0.99333 0.82955 0.81045 0.0
C1704 C 0.98511 0.79035 0.80489 0.0
C1705 C 0.98789 0.83204 0.78832 0.0
C1706 C 0.98227 0.81354 0.7741 0.0
C1707 C 0.98152 0.77377 0.76737 0.0
C1708 C 0.98489 0.75316 0.77527 0.0
C1709 C 0.98205 0.79256 0.78205 0.0
C1710 C 0.98483 0.75071 0.79796 0.0
C1711 C 0.98485 0.76935 0.81281 0.0
H1712 H 0.32346 0.05614 0.7692 0.0
H1713 H 0.27199 0.0492 0.71867 0.0
H1714 H 0.24394 0.0565 0.74649 0.0
H1715 H 0.23422 0.06355 0.78514 0.0
H1716 H 0.28561 0.07256 0.83571 0.0
H1717 H 0.31382 0.06649 0.80777 0.0
C1718 C 0.30605 0.05606 0.76441 0.0
C1719 C 0.29955 0.05164 0.74215 0.0
C1720 C 0.29021 0.06104 0.78036 0.0
C1721 C 0.27716 0.05225 0.73584 0.0
C1722 C 0.26122 0.05654 0.75167 0.0
C1723 C 0.25164 0.0645 0.79 0.0
C1724 C 0.25792 0.06836 0.81238 0.0
C1725 C 0.26758 0.06087 0.77396 0.0
C1726 C 0.28046 0.06979 0.81852 0.0
C1727 C 0.29653 0.06605 0.8026 0.0
H1728 H -0.00296 0.32731 0.7942 0.0
H1729 H 0.06829 0.33058 0.79394 0.0
H1730 H 0.06981 0.30196 0.8201 0.0
H1731 H 0.05049 0.27516 0.84212 0.0
H1732 H 0.97932 0.27497 0.84512 0.0
H1733 H 0.97797 0.30331 0.81886 0.0
C1734 C 0.01284 0.32178 0.80006 0.0
C1735 C 0.03252 0.33068 0.79221 0.0
C1736 C 0.01353 0.30591 0.81547 0.0
C1737 C 0.05299 0.3238 0.79993 0.0
C1738 C 0.05383 0.30745 0.81476 0.0
C1739 C 0.03476 0.28147 0.83702 0.0
C1740 C 0.01502 0.27301 0.84524 0.0
C1741 C 0.03418 0.29824 0.82249 0.0
C1742 C -0.00531 0.28137 0.83891 0.0
C1743 C 0.99391 0.29748 0.8239 0.0
H1744 H 0.78789 0.02533 0.84469 0.0
H1745 H 0.79813 0.09513 0.83927 0.0
H1746 H 0.76511 0.09513 0.81504 0.0
H1747 H 0.73493 0.07461 0.79378 0.0
H1748 H 0.72805 0.00408 0.79558 0.0
H1749 H 0.75821 0.00488 0.8233 0.0
C1750 C 0.78269 0.0406 0.83842 0.0
C1751 C 0.7951 0.06026 0.84378 0.0
C1752 C 0.76443 0.04023 0.82396 0.0
C1753 C 0.78866 0.07986 0.83526 0.0
C1754 C 0.76986 0.07983 0.82149 0.0
C1755 C 0.7399 0.05953 0.80058 0.0
C1756 C 0.72937 0.03935 0.79312 0.0
C1757 C 0.75783 0.06005 0.81554 0.0
C1758 C 0.73604 0.01974 0.80139 0.0
C1759 C 0.75322 0.02022 0.81709 0.0
H1760 H 0.2491 0.28183 0.03568 0.0
H1761 H 0.29086 0.22587 0.03735 0.0
H1762 H 0.32382 0.24994 0.03504 0.0
H1763 H 0.34072 0.28732 0.03486 0.0
H1764 H 0.29873 0.34332 0.03724 0.0
H1765 H 0.26579 0.31887 0.0355 0.0
C1766 C 0.26542 0.27492 0.03525 0.0
C1767 C 0.26769 0.25225 0.03659 0.0
C1768 C 0.28419 0.28888 0.03478 0.0
C1769 C 0.28885 0.2434 0.03639 0.0
C1770 C 0.30764 0.2571 0.03507 0.0
C1771 C 0.32432 0.29402 0.03481 0.0
C1772 C 0.32195 0.3169 0.03621 0.0
C1773 C 0.30552 0.27992 0.03462 0.0
C1774 C 0.30076 0.32565 0.03636 0.0
C1775 C 0.28199 0.31173 0.03532 0.0
H1776 H 0.24843 0.78988 0.0357 0.0
H1777 H 0.29724 0.84313 0.03551 0.0
H1778 H 0.32683 0.81761 0.04137 0.0
H1779 H 0.33889 0.77993 0.04554 0.0
H1780 H 0.29043 0.72613 0.04195 0.0
H1781 H 0.2606 0.752 0.03865 0.0
C1782 C 0.26555 0.79585 0.03707 0.0
C1783 C 0.27071 0.81829 0.03531 0.0
C1784 C 0.2825 0.78098 0.03972 0.0
C1785 C 0.29293 0.82586 0.03676 0.0
C1786 C 0.30983 0.81131 0.04015 0.0
C1787 C 0.32177 0.77396 0.04419 0.0
C1788 C 0.31677 0.75127 0.04413 0.0
C1789 C 0.30482 0.78882 0.04153 0.0
C1790 C 0.29461 0.74358 0.042 0.0
C1791 C 0.27758 0.75834 0.04013 0.0
H1792 H 0.82222 0.27404 0.02313 0.0
H1793 H 0.81135 0.27227 0.09268 0.0
H1794 H 0.78809 0.30448 0.09212 0.0
H1795 H 0.76954 0.33188 0.07132 0.0
H1796 H 0.78249 0.33532 0.00227 0.0
H1797 H 0.8068 0.30403 0.00319 0.0
C1798 C 0.81467 0.28076 0.0381 0.0
C1799 C 0.81795 0.27071 0.05783 0.0
C1800 C 0.802 0.29965 0.03775 0.0
C1801 C 0.80872 0.27974 0.07731 0.0
C1802 C 0.79553 0.29812 0.07698 0.0
C1803 C 0.77796 0.32596 0.05657 0.0
C1804 C 0.77416 0.33574 0.03673 0.0
C1805 C 0.79191 0.30807 0.05725 0.0
C1806 C 0.7853 0.32812 0.01776 0.0
C1807 C 0.799 0.3101 0.01823 0.0
H1808 H 0.76912 0.75068 0.03649 0.0
H1809 H 0.72845 0.80763 0.04204 0.0
H1810 H 0.76069 0.8316 0.03578 0.0
H1811 H 0.8008 0.83625 0.03159 0.0
H1812 H 0.84105 0.77898 0.02438 0.0
H1813 H 0.80836 0.75496 0.02799 0.0
C1814 C 0.76739 0.76835 0.03624 0.0
C1815 C 0.74678 0.77761 0.04011 0.0
C1816 C 0.78577 0.7818 0.03226 0.0
C1817 C 0.74435 0.80034 0.03924 0.0
C1818 C 0.76271 0.81397 0.03569 0.0
C1819 C 0.80232 0.81849 0.03057 0.0
C1820 C 0.8232 0.80931 0.02807 0.0
C1821 C 0.78355 0.80488 0.03259 0.0
C1822 C 0.82506 0.78633 0.02634 0.0
C1823 C 0.80645 0.77263 0.02855 0.0
H1824 H 0.75347 0.59048 0.8139 0.0
H1825 H 0.80523 0.57551 0.85959 0.0
H1826 H 0.83084 0.57 0.82909 0.0
H1827 H 0.83595 0.56311 0.78915 0.0
H1828 H 0.78331 0.57684 0.74359 0.0
H1829 H 0.76044 0.58927 0.7744 0.0
C1830 C 0.77062 0.58678 0.81718 0.0
C1831 C 0.77761 0.5833 0.83873 0.0
C1832 C 0.78478 0.58286 0.79958 0.0
C1833 C 0.7997 0.57847 0.84306 0.0
C1834 C 0.81417 0.57498 0.8256 0.0
C1835 C 0.81954 0.56901 0.78596 0.0
C1836 C 0.81106 0.56852 0.76417 0.0
C1837 C 0.80649 0.57604 0.80374 0.0
C1838 C 0.79005 0.57677 0.76023 0.0
C1839 C 0.777 0.58389 0.77782 0.0
H1840 H 0.25884 0.5882 0.77989 0.0
H1841 H 0.25171 0.51847 0.76119 0.0
H1842 H 0.28477 0.51187 0.78353 0.0
H1843 H 0.31325 0.52589 0.81103 0.0
H1844 H 0.32155 0.59584 0.82807 0.0
H1845 H 0.29026 0.60268 0.80347 0.0
C1846 C 0.26478 0.57162 0.78056 0.0
C1847 C 0.25299 0.55374 0.76941 0.0
C1848 C 0.28369 0.5681 0.79315 0.0
C1849 C 0.26074 0.53235 0.76983 0.0
C1850 C 0.27945 0.52862 0.78263 0.0
C1851 C 0.30821 0.54261 0.80914 0.0
C1852 C 0.31908 0.56038 0.82142 0.0
C1853 C 0.29065 0.54633 0.7948 0.0
C1854 C 0.31307 0.58203 0.81873 0.0
C1855 C 0.29527 0.58589 0.80478 0.0
H1856 H 0.32594 0.5522 0.30106 0.0
H1857 H 0.27178 0.55648 0.25437 0.0
H1858 H 0.2473 0.56742 0.28453 0.0
H1859 H 0.24111 0.5741 0.32401 0.0
H1860 H 0.29518 0.57092 0.37096 0.0
H1861 H 0.32036 0.56199 0.34066 0.0
C1862 C 0.3087 0.5553 0.29756 0.0
C1863 C 0.30041 0.553 0.27565 0.0
C1864 C 0.29499 0.56222 0.31489 0.0
C1865 C 0.27832 0.55781 0.27116 0.0
C1866 C 0.26443 0.56419 0.28835 0.0
C1867 C 0.25852 0.57183 0.32758 0.0
C1868 C 0.26636 0.57306 0.3496 0.0
C1869 C 0.27259 0.56633 0.31023 0.0
C1870 C 0.2889 0.57028 0.3541 0.0
C1871 C 0.30315 0.56486 0.33682 0.0
H1872 H 0.83613 0.52984 0.31574 0.0
H1873 H 0.78622 0.52087 0.36402 0.0
H1874 H 0.7573 0.51867 0.33505 0.0
H1875 H 0.7463 0.52294 0.29672 0.0
H1876 H 0.79609 0.53041 0.24806 0.0
H1877 H 0.82533 0.52911 0.27649 0.0
C1878 C 0.8189 0.52727 0.3198 0.0
C1879 C 0.81305 0.52598 0.34182 0.0
C1880 C 0.80255 0.52569 0.3031 0.0
C1881 C 0.79089 0.52208 0.34707 0.0
C1882 C 0.77444 0.52085 0.33058 0.0
C1883 C 0.7636 0.52392 0.29237 0.0
C1884 C 0.76927 0.52706 0.27063 0.0
C1885 C 0.78008 0.52315 0.30866 0.0
C1886 C 0.79156 0.52798 0.26483 0.0
C1887 C 0.80817 0.52742 0.28105 0.0
H1888 H 0.25872 0.74543 0.54048 0.0
H1889 H 0.21869 0.80171 0.53254 0.0
H1890 H 0.25189 0.82405 0.52552 0.0
H1891 H 0.29243 0.82825 0.52611 0.0
H1892 H 0.3323 0.77162 0.53308 0.0
H1893 H 0.29882 0.74834 0.53564 0.0
C1894 C 0.25734 0.76253 0.53694 0.0
C1895 C 0.23662 0.77222 0.5374 0.0
C1896 C 0.27632 0.77504 0.53284 0.0
C1897 C 0.23466 0.79413 0.53235 0.0
C1898 C 0.25357 0.80684 0.52845 0.0
C1899 C 0.2937 0.81074 0.52788 0.0
C1900 C 0.31458 0.80159 0.52985 0.0
C1901 C 0.2745 0.7976 0.52933 0.0
C1902 C 0.31626 0.77889 0.53164 0.0
C1903 C 0.2972 0.76567 0.53324 0.0
H1904 H 0.33438 0.28424 0.55003 0.0
H1905 H 0.27597 0.2414 0.54828 0.0
H1906 H 0.25274 0.27339 0.55398 0.0
H1907 H 0.24902 0.31326 0.55832 0.0
H1908 H 0.3067 0.3566 0.55645 0.0
H1909 H 0.33045 0.3246 0.55336 0.0
C1910 C 0.31657 0.28198 0.55104 0.0
C1911 C 0.30682 0.26059 0.5489 0.0
C1912 C 0.30331 0.30045 0.55364 0.0
C1913 C 0.28375 0.25776 0.54985 0.0
C1914 C 0.27052 0.276 0.55315 0.0
C1915 C 0.26683 0.31572 0.55749 0.0
C1916 C 0.27621 0.33718 0.5579 0.0
C1917 C 0.28012 0.29737 0.55495 0.0
C1918 C 0.2992 0.34018 0.55626 0.0
C1919 C 0.31272 0.32193 0.55449 0.0
H1920 H 0.74826 0.80883 0.55969 0.0
H1921 H 0.79955 0.85972 0.56948 0.0
H1922 H 0.82796 0.83195 0.56464 0.0
H1923 H 0.83797 0.79309 0.55666 0.0
H1924 H 0.78611 0.74311 0.54304 0.0
H1925 H 0.75811 0.7706 0.55009 0.0
C1926 C 0.76568 0.81375 0.56106 0.0
C1927 C 0.77193 0.83612 0.56537 0.0
C1928 C 0.78175 0.79788 0.55727 0.0
C1929 C 0.79447 0.84249 0.56643 0.0
C1930 C 0.81065 0.82665 0.56357 0.0
C1931 C 0.82053 0.78829 0.5552 0.0
C1932 C 0.8141 0.76612 0.54934 0.0
C1933 C 0.80447 0.8043 0.5588 0.0
C1934 C 0.79147 0.7601 0.54733 0.0
C1935 C 0.77545 0.77577 0.5515 0.0
H1936 H 0.84466 0.27121 0.54326 0.0
H1937 H 0.81378 0.3338 0.55524 0.0
H1938 H 0.77721 0.31577 0.54997 0.0
H1939 H 0.75399 0.28197 0.54411 0.0
H1940 H 0.78466 0.21902 0.5359 0.0
H1941 H 0.82136 0.23734 0.53722 0.0
C1942 C 0.82988 0.28083 0.54458 0.0
C1943 C 0.83178 0.30367 0.54973 0.0
C1944 C 0.80893 0.2703 0.54214 0.0
C1945 C 0.81262 0.31608 0.55155 0.0
C1946 C 0.79173 0.30584 0.54844 0.0
C1947 C 0.76875 0.27239 0.54225 0.0
C1948 C 0.76687 0.24935 0.53978 0.0
C1949 C 0.78969 0.28294 0.544 0.0
C1950 C 0.78594 0.23688 0.53781 0.0
C1951 C 0.80685 0.2473 0.53862 0.0
H1952 H 0.53256 0.28199 0.74981 0.0
H1953 H 0.4648 0.2778 0.7703 0.0
H1954 H 0.47237 0.30872 0.79815 0.0
H1955 H 0.49935 0.33416 0.81868 0.0
H1956 H 0.56801 0.33403 0.80108 0.0
H1957 H 0.55904 0.30741 0.76954 0.0
C1958 C 0.51929 0.2881 0.76004 0.0
C1959 C 0.49814 0.27786 0.75804 0.0
C1960 C 0.52405 0.30487 0.77649 0.0
C1961 C 0.4812 0.28557 0.77167 0.0
C1962 C 0.48555 0.30312 0.78754 0.0
C1963 C 0.51219 0.32845 0.80766 0.0
C1964 C 0.53421 0.33581 0.81178 0.0
C1965 C 0.50706 0.31248 0.79041 0.0
C1966 C 0.55098 0.32831 0.79794 0.0
C1967 C 0.54585 0.31321 0.78004 0.0
H1968 H 0.51759 0.78164 0.74703 0.0
H1969 H 0.50352 0.8404 0.78795 0.0
H1970 H 0.50108 0.81913 0.8202 0.0
H1971 H 0.50531 0.78431 0.83729 0.0
H1972 H 0.52344 0.7263 0.7974 0.0
H1973 H 0.52176 0.74656 0.76427 0.0
C1974 C 0.51379 0.78966 0.763 0.0
C1975 C 0.51074 0.81249 0.76518 0.0
C1976 C 0.51318 0.77744 0.78166 0.0
C1977 C 0.50607 0.82283 0.78595 0.0
C1978 C 0.50463 0.81069 0.80438 0.0
C1979 C 0.50854 0.77608 0.82128 0.0
C1980 C 0.51432 0.75388 0.81968 0.0
C1981 C 0.50847 0.78806 0.8025 0.0
C1982 C 0.51893 0.74343 0.79895 0.0
C1983 C 0.51802 0.755 0.78004 0.0
H1984 H 0.51687 0.79144 0.34968 0.0
H1985 H 0.51666 0.8351 0.29729 0.0
H1986 H 0.50667 0.80405 0.27042 0.0
H1987 H 0.50389 0.7641 0.26168 0.0
H1988 H 0.5041 0.72038 0.31398 0.0
H1989 H 0.50737 0.75206 0.34148 0.0
C1990 C 0.51441 0.79406 0.33238 0.0
C1991 C 0.51807 0.8151 0.32511 0.0
C1992 C 0.50851 0.7763 0.31725 0.0
C1993 C 0.51422 0.81879 0.30295 0.0
C1994 C 0.5085 0.80113 0.28769 0.0
C1995 C 0.50399 0.76165 0.27915 0.0
C1996 C 0.50417 0.74026 0.28604 0.0
C1997 C 0.5064 0.77976 0.29461 0.0
C1998 C 0.50397 0.7369 0.30853 0.0
C1999 C 0.50612 0.75493 0.32415 0.0
H2000 H 0.53458 0.2508 0.29375 0.0
H2001 H 0.53205 0.29538 0.35225 0.0
H2002 H 0.53172 0.32694 0.3297 0.0
H2003 H 0.53106 0.34175 0.29316 0.0
H2004 H 0.52955 0.29673 0.23468 0.0
H2005 H 0.5325 0.26546 0.25727 0.0
C2006 C 0.53415 0.26747 0.30149 0.0
C2007 C 0.53355 0.27088 0.32454 0.0
C2008 C 0.53309 0.28541 0.2884 0.0
C2009 C 0.53254 0.29245 0.33448 0.0
C2010 C 0.53235 0.31046 0.32161 0.0
C2011 C 0.53146 0.32508 0.28543 0.0
C2012 C 0.53017 0.32149 0.26235 0.0
C2013 C 0.53245 0.30713 0.29854 0.0
C2014 C 0.53041 0.29984 0.25246 0.0
C2015 C 0.53216 0.28198 0.26535 0.0
H2016 H 0.13126 0.06547 0.25837 0.0
H2017 H 0.1785 0.1186 0.27746 0.0
H2018 H 0.14982 0.14546 0.27347 0.0
H2019 H 0.11222 0.15386 0.26145 0.0
H2020 H 0.06585 0.10092 0.23952 0.0
H2021 H 0.09345 0.07378 0.24721 0.0
C2022 C 0.13534 0.08293 0.26137 0.0
C2023 C 0.15708 0.09012 0.26748 0.0
C2024 C 0.11902 0.09823 0.25827 0.0
C2025 C 0.16188 0.1127 0.27253 0.0
C2026 C 0.14557 0.12806 0.27007 0.0
C2027 C 0.1083 0.13638 0.25819 0.0
C2028 C 0.0873 0.12925 0.24968 0.0
C2029 C 0.12428 0.12102 0.26236 0.0
C2030 C 0.08203 0.10663 0.24605 0.0
C2031 C 0.09776 0.09118 0.25042 0.0
H2032 H 0.92922 0.05921 0.24298 0.0
H2033 H 0.90258 0.08602 0.18479 0.0
H2034 H 0.9233 0.12063 0.19418 0.0
H2035 H 0.94614 0.14424 0.22042 0.0
H2036 H 0.97396 0.11793 0.27823 0.0
H2037 H 0.95515 0.08213 0.26779 0.0
C2038 C 0.92849 0.07242 0.23206 0.0
C2039 C 0.91436 0.07019 0.21331 0.0
C2040 C 0.93998 0.09251 0.23788 0.0
C2041 C 0.91334 0.08746 0.19936 0.0
C2042 C 0.92497 0.10731 0.20483 0.0
C2043 C 0.94783 0.13075 0.23089 0.0
C2044 C 0.96074 0.13374 0.25038 0.0
C2045 C 0.93767 0.11024 0.22442 0.0
C2046 C 0.9636 0.11597 0.26339 0.0
C2047 C 0.95307 0.09553 0.25731 0.0
H2048 H 0.91789 0.91572 0.21659 0.0
H2049 H 0.96366 0.9695 0.23731 0.0
H2050 H -0.00504 0.94551 0.23019 0.0
H2051 H 0.00916 0.90881 0.21882 0.0
H2052 H 0.96297 0.85583 0.19595 0.0
H2053 H 0.93208 0.87991 0.20293 0.0
C2054 C 0.93475 0.92211 0.21954 0.0
C2055 C 0.93857 0.94421 0.22758 0.0
C2056 C 0.95257 0.90838 0.21495 0.0
C2057 C 0.96042 0.9525 0.23107 0.0
C2058 C 0.97827 0.93879 0.22704 0.0
C2059 C 0.99234 0.90258 0.21528 0.0
C2060 C 0.98845 0.88047 0.20702 0.0
C2061 C 0.97455 0.91664 0.21906 0.0
C2062 C 0.96653 0.87274 0.20229 0.0
C2063 C 0.94879 0.88648 0.20636 0.0
H2064 H 0.16279 0.97854 0.25399 0.0
H2065 H 0.1771 0.95291 0.18782 0.0
H2066 H 0.14866 0.92383 0.1896 0.0
H2067 H 0.121 0.9047 0.2104 0.0
H2068 H 0.10753 0.92855 0.27708 0.0
H2069 H 0.13458 0.95928 0.27487 0.0
C2070 C 0.1595 0.9667 0.23992 0.0
C2071 C 0.172 0.96786 0.22081 0.0
C2072 C 0.14343 0.94969 0.24122 0.0
C2073 C 0.16777 0.95229 0.20276 0.0
C2074 C 0.15152 0.93567 0.20374 0.0
C2075 C 0.12375 0.91688 0.22428 0.0
C2076 C 0.11208 0.91484 0.24368 0.0
C2077 C 0.13944 0.93409 0.22294 0.0
C2078 C 0.11625 0.93011 0.26191 0.0
C2079 C 0.13166 0.9476 0.26062 0.0
H2080 H 0.10239 0.90919 0.80871 0.0
H2081 H 0.05914 0.96152 0.82951 0.0
H2082 H 0.08534 0.98873 0.81716 0.0
H2083 H 0.12223 -0.00196 0.80516 0.0
H2084 H 0.16918 0.94693 0.79335 0.0
H2085 H 0.13982 0.91876 0.79645 0.0
C2086 C 0.09882 0.92656 0.8107 0.0
C2087 C 0.07891 0.93333 0.82008 0.0
C2088 C 0.11467 0.9423 0.80504 0.0
C2089 C 0.07418 0.95583 0.82198 0.0
C2090 C 0.08923 0.97144 0.8151 0.0
C2091 C 0.12613 0.98075 0.80358 0.0
C2092 C 0.14795 0.97454 0.80019 0.0
C2093 C 0.10977 0.9649 0.80732 0.0
C2094 C 0.15249 0.95209 0.79644 0.0
C2095 C 0.13579 0.93601 0.79846 0.0
H2096 H 0.08684 0.13281 0.83714 0.0
H2097 H 0.12981 0.18846 0.85956 0.0
H2098 H 0.16049 0.1641 0.86409 0.0
H2099 H 0.17545 0.12716 0.86136 0.0
H2100 H 0.13344 0.07127 0.83742 0.0
H2101 H 0.10219 0.09541 0.83395 0.0
C2102 C 0.10289 0.13951 0.84315 0.0
C2103 C 0.106 0.16241 0.84807 0.0
C2104 C 0.12069 0.12536 0.84544 0.0
C2105 C 0.127 0.17092 0.85551 0.0
C2106 C 0.14456 0.15699 0.85819 0.0
C2107 C 0.15945 0.1202 0.85546 0.0
C2108 C 0.15685 0.0974 0.84972 0.0
C2109 C 0.14165 0.13421 0.85315 0.0
C2110 C 0.13598 0.08877 0.84191 0.0
C2111 C 0.11806 0.10257 0.83994 0.0
H2112 H 0.98269 0.14867 0.85568 0.0
H2113 H 0.94555 0.20814 0.86154 0.0
H2114 H 0.91123 0.18697 0.85342 0.0
H2115 H 0.89118 0.15156 0.84954 0.0
H2116 H 0.92722 0.09146 0.84463 0.0
H2117 H 0.96229 0.11275 0.84699 0.0
C2118 C 0.96711 0.15692 0.85474 0.0
C2119 C 0.96662 0.17985 0.85966 0.0
C2120 C 0.94712 0.14454 0.8504 0.0
C2121 C 0.94632 0.19041 0.8583 0.0
C2122 C 0.92664 0.17835 0.8536 0.0
C2123 C 0.90669 0.1431 0.84859 0.0
C2124 C 0.90654 0.12 0.8473 0.0
C2125 C 0.92675 0.15538 0.85041 0.0
C2126 C 0.92682 0.10928 0.84578 0.0
C2127 C 0.94693 0.12145 0.84727 0.0
H2128 H 0.92649 0.00702 0.84724 0.0
H2129 H 0.86655 0.96909 0.82907 0.0
H2130 H 0.88825 0.93759 0.81576 0.0
H2131 H 0.92422 0.91959 0.81465 0.0
H2132 H 0.98372 0.95811 0.83408 0.0
H2133 H 0.96232 0.99095 0.84081 0.0
C2134 C 0.91826 0.99201 0.83986 0.0
C2135 C 0.89518 0.98992 0.83956 0.0
C2136 C 0.93076 0.97415 0.83253 0.0
C2137 C 0.88446 0.97062 0.82989 0.0
C2138 C 0.89682 0.95272 0.82227 0.0
C2139 C 0.93249 0.9353 0.81982 0.0
C2140 C 0.95538 0.93641 0.82429 0.0
C2141 C 0.91999 0.95405 0.82431 0.0
C2142 C 0.96602 0.95683 0.83089 0.0
C2143 C 0.95382 0.97561 0.8348 0.0
H2144 H 0.20522 0.0882 0.16576 0.0
H2145 H 0.27401 0.0735 0.17337 0.0
H2146 H 0.2846 0.10414 0.15154 0.0
H2147 H 0.27383 0.13416 0.12887 0.0
H2148 H 0.20494 0.1494 0.12281 0.0
H2149 H 0.19475 0.11972 0.14561 0.0
C2150 C 0.2225 0.09185 0.16265 0.0
C2151 C 0.23881 0.07847 0.17048 0.0
C2152 C 0.22838 0.10949 0.15033 0.0
C2153 C 0.2612 0.08336 0.16682 0.0
C2154 C 0.26723 0.1009 0.15451 0.0
C2155 C 0.25664 0.13093 0.13265 0.0
C2156 C 0.24007 0.14328 0.12357 0.0
C2157 C 0.25092 0.11389 0.1459 0.0
C2158 C 0.21788 0.13945 0.12893 0.0
C2159 C 0.21205 0.12261 0.14209 0.0
H2160 H 0.92079 0.20572 0.14773 0.0
H2161 H 0.94838 0.27157 0.1454 0.0
H2162 H 0.98085 0.26211 0.16732 0.0
H2163 H 0.00074 0.2351 0.18776 0.0
H2164 H 0.9715 0.17 0.19188 0.0
H2165 H 0.94046 0.17888 0.16812 0.0
C2166 C 0.93404 0.21789 0.15199 0.0
C2167 C 0.93257 0.23917 0.14495 0.0
C2168 C 0.95235 0.21236 0.16462 0.0
C2169 C 0.9494 0.25508 0.15075 0.0
C2170 C 0.96792 0.24963 0.16312 0.0
C2171 C 0.98775 0.22279 0.18309 0.0
C2172 C 0.98843 0.20187 0.19126 0.0
C2173 C 0.96956 0.2283 0.17013 0.0
C2174 C 0.9713 0.18616 0.18561 0.0
C2175 C 0.95354 0.19126 0.17215 0.0
H2176 H 0.81774 0.89119 0.12093 0.0
H2177 H 0.83262 0.92879 0.0657 0.0
H2178 H 0.83153 0.96305 0.08919 0.0
H2179 H 0.83433 0.98127 0.12658 0.0
H2180 H 0.82205 0.94362 0.18225 0.0
H2181 H 0.81374 0.91047 0.15758 0.0
C2182 C 0.82 0.90693 0.11395 0.0
C2183 C 0.82577 0.90755 0.09183 0.0
C2184 C 0.82019 0.92652 0.12775 0.0
C2185 C 0.82862 0.92798 0.08286 0.0
C2186 C 0.82805 0.94757 0.09628 0.0
C2187 C 0.82912 0.96594 0.13317 0.0
C2188 C 0.82921 0.96451 0.15598 0.0
C2189 C 0.82511 0.94692 0.11895 0.0
C2190 C 0.82241 0.94475 0.16459 0.0
C2191 C 0.81774 0.92586 0.15053 0.0
H2192 H 0.15335 0.81921 0.0848 0.0
H2193 H 0.15296 0.89037 0.09169 0.0
H2194 H 0.1259 0.88921 0.12046 0.0
H2195 H 0.10173 0.86833 0.14353 0.0
H2196 H 0.10035 0.79738 0.13654 0.0
H2197 H 0.12849 0.79804 0.10809 0.0
C2198 C 0.14735 0.83441 0.09265 0.0
C2199 C 0.15521 0.85482 0.08598 0.0
C2200 C 0.13138 0.83369 0.10919 0.0
C2201 C 0.14715 0.87439 0.09629 0.0
C2202 C 0.13166 0.8738 0.11285 0.0
C2203 C 0.10772 0.85304 0.13582 0.0
C2204 C 0.09909 0.83286 0.14203 0.0
C2205 C 0.1236 0.8536 0.11939 0.0
C2206 C 0.10675 0.81312 0.13185 0.0
C2207 C 0.12284 0.81351 0.11565 0.0
H2208 H 0.24105 0.95288 0.97024 0.0
H2209 H 0.26398 0.91124 0.91535 0.0
H2210 H 0.25594 0.93977 0.89047 0.0
H2211 H 0.24094 0.97609 0.88413 0.0
H2212 H 0.21556 0.0162 0.93882 0.0
H2213 H 0.22562 0.98857 0.96396 0.0
C2214 C 0.2438 0.94973 0.95279 0.0
C2215 C 0.25244 0.9296 0.9446 0.0
C2216 C 0.23862 0.96596 0.93853 0.0
C2217 C 0.25714 0.9265 0.92208 0.0
C2218 C 0.25244 0.94276 0.90781 0.0
C2219 C 0.23735 0.97858 0.90151 0.0
C2220 C 0.22726 -0.00202 0.90961 0.0
C2221 C 0.24286 0.96243 0.9158 0.0
C2222 C 0.22329 0.00136 0.93224 0.0
C2223 C 0.229 0.98556 0.94659 0.0
H2224 H 0.11686 0.21739 0.01452 0.0
H2225 H 0.16129 0.25572 0.97699 0.0
H2226 H 0.13207 0.25862 0.94894 0.0
H2227 H 0.09507 0.24677 0.93338 0.0
H2228 H 0.05095 0.20853 0.97113 0.0
H2229 H 0.07884 0.20911 0.00104 0.0
C2230 C 0.12005 0.22661 0.00032 0.0
C2231 C 0.1412 0.23605 -0.00242 0.0
C2232 C 0.10332 0.22801 0.98429 0.0
C2233 C 0.14509 0.24828 0.97938 0.0
C2234 C 0.12846 0.24981 0.96329 0.0
C2235 C 0.09165 0.23877 0.9483 0.0
C2236 C 0.0714 0.22725 0.95014 0.0
C2237 C 0.10774 0.23919 0.96529 0.0
C2238 C 0.06666 0.21726 0.9695 0.0
C2239 C 0.08256 0.21757 0.98649 0.0
H2240 H 0.82367 0.09427 0.9385 0.0
H2241 H 0.89426 0.09804 0.93029 0.0
H2242 H 0.89796 0.12793 0.95966 0.0
H2243 H 0.881 0.15366 0.98644 0.0
H2244 H 0.81011 0.15259 0.99291 0.0
H2245 H 0.80641 0.12109 0.96505 0.0
C2246 C 0.83983 0.10149 0.9435 0.0
C2247 C 0.85876 0.0939 0.93275 0.0
C2248 C 0.84166 0.11927 0.95968 0.0
C2249 C 0.8796 0.1036 0.93868 0.0
C2250 C 0.88167 0.1207 0.95531 0.0
C2251 C 0.86472 0.14651 0.98178 0.0
C2252 C 0.84584 0.15528 0.99166 0.0
C2253 C 0.86279 0.1288 0.9657 0.0
C2254 C 0.82483 0.14613 0.98533 0.0
C2255 C 0.82276 0.12808 0.96956 0.0
H2256 H 0.96453 0.86337 0.88961 0.0
H2257 H 0.0244 0.86907 0.92982 0.0
H2258 H 0.00561 0.8505 0.95885 0.0
H2259 H 0.97257 0.83066 0.97156 0.0
H2260 H 0.9139 0.82309 0.92955 0.0
H2261 H 0.93209 0.84365 0.90197 0.0
C2262 C 0.9733 0.86107 0.90498 0.0
C2263 C -0.00439 0.86792 0.90788 0.0
C2264 C 0.96282 0.8494 0.92088 0.0
C2265 C 0.00706 0.86419 0.92749 0.0
C2266 C -0.00358 0.85337 0.94391 0.0
C2267 C 0.96388 0.83353 0.95633 0.0
C2268 C 0.94201 0.82539 0.95252 0.0
C2269 C 0.97442 0.84548 0.94055 0.0
C2270 C 0.9309 0.8289 0.93266 0.0
C2271 C 0.94115 0.84092 0.91703 0.0
H2272 H 0.09966 0.2125 0.15785 0.0
H2273 H 0.13766 0.26177 0.19894 0.0
H2274 H 0.16375 0.26565 0.16921 0.0
H2275 H 0.17671 0.25327 0.13209 0.0
H2276 H 0.13715 0.20554 0.09091 0.0
H2277 H 0.10991 0.20348 0.11987 0.0
C2278 C 0.11297 0.22488 0.16005 0.0
C2279 C 0.11629 0.23734 0.18036 0.0
C2280 C 0.12761 0.22722 0.14288 0.0
C2281 C 0.13462 0.25217 0.18333 0.0
C2282 C 0.14953 0.25439 0.16637 0.0
C2283 C 0.16188 0.24277 0.1295 0.0
C2284 C 0.15869 0.22953 0.10969 0.0
C2285 C 0.14633 0.24177 0.14617 0.0
C2286 C 0.13966 0.21586 0.10618 0.0
C2287 C 0.12422 0.21462 0.1227 0.0
H2288 H 0.10996 0.80808 0.90712 0.0
H2289 H 0.12845 0.86891 0.87973 0.0
H2290 H 0.15564 0.87776 0.90978 0.0
H2291 H 0.17143 0.86972 0.94536 0.0
H2292 H 0.15609 0.80739 0.97147 0.0
H2293 H 0.12971 0.79775 0.94077 0.0
C2294 C 0.12048 0.82289 0.90752 0.0
C2295 C 0.11765 0.83775 0.89132 0.0
C2296 C 0.136 0.82785 0.92487 0.0
C2297 C 0.13084 0.85716 0.89196 0.0
C2298 C 0.14612 0.86231 0.90922 0.0
C2299 C 0.16264 0.85383 0.94413 0.0
C2300 C 0.16537 0.83946 0.96082 0.0
C2301 C 0.14844 0.84802 0.926 0.0
C2302 C 0.15369 0.81905 0.95917 0.0
C2303 C 0.13887 0.8134 0.94147 0.0
H2304 H 0.24244 0.15801 -0.00109 0.0
H2305 H 0.17163 0.16398 -0.00043 0.0
H2306 H 0.16729 0.13722 0.96742 0.0
H2307 H 0.18378 0.11445 0.93776 0.0
H2308 H 0.25479 0.11111 0.93445 0.0
H2309 H 0.25908 0.13471 0.96897 0.0
C2310 C 0.2261 0.15303 0.99217 0.0
C2311 C 0.20733 0.16253 0.00154 0.0
C2312 C 0.22386 0.13848 0.97311 0.0
C2313 C 0.18622 0.15659 0.99255 0.0
C2314 C 0.18377 0.14145 0.97418 0.0
C2315 C 0.2002 0.11874 0.94468 0.0
C2316 C 0.21895 0.11113 0.93366 0.0
C2317 C 0.20249 0.13265 0.96409 0.0
C2318 C 0.24013 0.11697 0.94263 0.0
C2319 C 0.24257 0.13035 0.96237 0.0
H2320 H 0.97704 0.22076 0.97809 0.0
H2321 H 0.93351 0.24878 0.93156 0.0
H2322 H 0.90436 0.25102 0.95886 0.0
H2323 H 0.89045 0.24216 0.99493 0.0
H2324 H 0.93476 0.21672 0.04246 0.0
H2325 H 0.96465 0.21649 0.0159 0.0
C2326 C 0.96123 0.22758 0.97409 0.0
C2327 C 0.9572 0.23437 0.95288 0.0
C2328 C 0.94478 0.2292 0.98998 0.0
C2329 C 0.93688 0.24349 0.94785 0.0
C2330 C 0.92022 0.24467 0.96339 0.0
C2331 C 0.90676 0.23685 -0.0005 0.0
C2332 C 0.91048 0.22926 0.02042 0.0
C2333 C 0.92386 0.23715 0.98433 0.0
C2334 C 0.93165 0.22267 0.02641 0.0
C2335 C 0.94864 0.22242 0.01121 0.0
H2336 H 0.83762 0.90606 0.98833 0.0
H2337 H 0.90431 0.91296 0.96582 0.0
H2338 H 0.89275 0.94127 0.94175 0.0
H2339 H 0.86398 0.96544 0.92909 0.0
H2340 H 0.79737 0.95858 0.952 0.0
H2341 H 0.80851 0.92875 0.9742 0.0
C2342 C 0.84955 0.91378 0.97806 0.0
C2343 C 0.8718 0.90791 0.97895 0.0
C2344 C 0.84283 0.93011 0.96468 0.0
C2345 C 0.88713 0.91746 0.96533 0.0
C2346 C 0.88054 0.93366 0.95176 0.0
C2347 C 0.85201 0.95757 0.93917 0.0
C2348 C 0.83006 0.96454 0.93957 0.0
C2349 C 0.85853 0.94044 0.9517 0.0
C2350 C 0.81443 0.95365 0.95186 0.0
C2351 C 0.82078 0.93663 0.96446 0.0
H2352 H 0.94282 0.82115 0.15997 0.0
H2353 H 0.99237 0.79128 0.11855 0.0
H2354 H 0.97083 0.79899 0.08561 0.0
H2355 H 0.93917 0.81679 0.06877 0.0
H2356 H 0.89149 0.84885 0.11113 0.0
H2357 H 0.91126 0.83794 0.14348 0.0
C2358 C 0.94874 0.8159 0.14376 0.0
C2359 C 0.96908 0.80553 0.1417 0.0
C2360 C 0.93681 0.82119 0.12504 0.0
C2361 C 0.97667 0.79919 0.12055 0.0
C2362 C 0.96446 0.80375 0.10173 0.0
C2363 C 0.93311 0.82134 0.08508 0.0
C2364 C 0.91395 0.83377 0.08746 0.0
C2365 C 0.94474 0.81522 0.10379 0.0
C2366 C 0.90631 0.83951 0.10874 0.0
C2367 C 0.91752 0.83317 0.12731 0.0
H2368 H 0.24802 0.89655 0.09013 0.0
H2369 H 0.2142 0.9374 0.04655 0.0
H2370 H 0.21342 0.96726 0.07614 0.0
H2371 H 0.21923 0.97986 0.11546 0.0
H2372 H 0.25493 0.93941 0.15822 0.0
H2373 H 0.25852 0.91121 0.12776 0.0
C2374 C 0.24085 0.91218 0.08712 0.0
C2375 C 0.23099 0.91498 0.06656 0.0
C2376 C 0.24074 0.92913 0.10401 0.0
C2377 C 0.22187 0.93516 0.06244 0.0
C2378 C 0.22134 0.95207 0.07932 0.0
C2379 C 0.22801 0.96496 0.11795 0.0
C2380 C 0.2365 0.96143 0.13898 0.0
C2381 C 0.23022 0.94898 0.10033 0.0
C2382 C 0.24822 0.94236 0.1421 0.0
C2383 C 0.25019 0.92622 0.12476 0.0
H2384 H 0.85502 0.07462 0.12322 0.0
H2385 H 0.81872 0.10394 0.17763 0.0
H2386 H 0.81615 0.13806 0.15914 0.0
H2387 H 0.8268 0.16056 0.12858 0.0
H2388 H 0.8631 0.13079 0.07454 0.0
H2389 H 0.86308 0.09584 0.09174 0.0
C2390 C 0.84631 0.08837 0.13095 0.0
C2391 C 0.83725 0.08678 0.15186 0.0
C2392 C 0.84511 0.10796 0.12037 0.0
C2393 C 0.82584 0.1047 0.16153 0.0
C2394 C 0.82449 0.12428 0.15103 0.0
C2395 C 0.83464 0.14634 0.12067 0.0
C2396 C 0.84521 0.14817 0.10055 0.0
C2397 C 0.83452 0.12627 0.13068 0.0
C2398 C 0.85498 0.12966 0.09012 0.0
C2399 C 0.85499 0.10974 0.09994 0.0
H2400 H 0.15158 0.66165 0.81507 0.0
H2401 H 0.11627 0.59884 0.81259 0.0
H2402 H 0.08202 0.61605 0.80262 0.0
H2403 H 0.06619 0.64633 0.78449 0.0
H2404 H 0.09859 0.71083 0.79218 0.0
H2405 H 0.13067 0.69528 0.80949 0.0
C2406 C 0.13613 0.65201 0.81354 0.0
C2407 C 0.13636 0.62899 0.81352 0.0
C2408 C 0.11653 0.66201 0.80758 0.0
C2409 C 0.11634 0.61659 0.81201 0.0
C2410 C 0.09686 0.62635 0.80602 0.0
C2411 C 0.07962 0.65739 0.79087 0.0
C2412 C 0.0804 0.67952 0.78588 0.0
C2413 C 0.09729 0.6487 0.80211 0.0
C2414 C 0.0982 0.69337 0.79433 0.0
C2415 C 0.11639 0.6846 0.80468 0.0
H2416 H 0.93882 0.65168 0.70713 0.0
H2417 H 0.96892 0.62795 0.76523 0.0
H2418 H 0.94701 0.59328 0.75905 0.0
H2419 H 0.91686 0.57163 0.73896 0.0
H2420 H 0.88709 0.59605 0.68084 0.0
H2421 H 0.91196 0.62843 0.68485 0.0
C2422 C 0.94053 0.63892 0.71847 0.0
C2423 C 0.95487 0.6424 0.7369 0.0
C2424 C 0.9282 0.61917 0.71466 0.0
C2425 C 0.95761 0.62559 0.75111 0.0
C2426 C 0.94519 0.60583 0.74753 0.0
C2427 C 0.91614 0.58379 0.7269 0.0
C2428 C 0.89991 0.58168 0.70989 0.0
C2429 C 0.93012 0.60265 0.72958 0.0
C2430 C 0.89927 0.59747 0.69427 0.0
C2431 C 0.91337 0.61605 0.6966 0.0
H2432 H -0.00526 0.4431 0.75939 0.0
H2433 H 0.95342 0.3846 0.74329 0.0
H2434 H 0.92033 0.40633 0.74698 0.0
H2435 H 0.90298 0.44216 0.75395 0.0
H2436 H 0.9441 0.50106 0.76708 0.0
H2437 H 0.9774 0.47909 0.76557 0.0
C2438 C 0.9785 0.43511 0.75676 0.0
C2439 C 0.9766 0.41225 0.75111 0.0
C2440 C 0.95949 0.4478 0.75845 0.0
C2441 C 0.9554 0.40219 0.74755 0.0
C2442 C 0.93643 0.41459 0.74972 0.0
C2443 C 0.91927 0.45006 0.75671 0.0
C2444 C 0.92125 0.47305 0.76084 0.0
C2445 C 0.93827 0.4374 0.75509 0.0
C2446 C 0.94233 0.48331 0.76397 0.0
C2447 C 0.96131 0.47077 0.76305 0.0
H2448 H 0.14487 0.52935 0.78504 0.0
H2449 H 0.14334 0.5103 0.71511 0.0
H2450 H 0.11734 0.47992 0.72045 0.0
H2451 H 0.09757 0.45705 0.74507 0.0
H2452 H 0.09961 0.47447 0.8151 0.0
H2453 H 0.12322 0.50712 0.80975 0.0
C2454 C 0.13858 0.51872 0.77097 0.0
C2455 C 0.1461 0.522 0.74974 0.0
C2456 C 0.12394 0.50093 0.7742 0.0
C2457 C 0.13794 0.50802 0.73165 0.0
C2458 C 0.12309 0.49063 0.73467 0.0
C2459 C 0.10264 0.46834 0.75909 0.0
C2460 C 0.09645 0.46381 0.78037 0.0
C2461 C 0.11632 0.48671 0.75588 0.0
C2462 C 0.104 0.47793 0.79854 0.0
C2463 C 0.11747 0.49652 0.79547 0.0
H2464 H 0.11774 0.41194 0.35136 0.0
H2465 H 0.06582 0.45809 0.3623 0.0
H2466 H 0.0906 0.48822 0.35241 0.0
H2467 H 0.12789 0.50159 0.34372 0.0
H2468 H 0.18041 0.45555 0.33573 0.0
H2469 H 0.15435 0.42498 0.34056 0.0
C2470 C 0.11197 0.42865 0.35169 0.0
C2471 C 0.09031 0.43307 0.35797 0.0
C2472 C 0.12632 0.44576 0.34632 0.0
C2473 C 0.08259 0.45451 0.35764 0.0
C2474 C 0.09671 0.47166 0.35202 0.0
C2475 C 0.13362 0.48489 0.34316 0.0
C2476 C 0.15612 0.48088 0.34013 0.0
C2477 C 0.11875 0.46753 0.34682 0.0
C2478 C 0.16317 0.45906 0.33827 0.0
C2479 C 0.14834 0.4416 0.34124 0.0
H2480 H 0.14666 0.58732 0.36477 0.0
H2481 H 0.1918 0.63804 0.39492 0.0
H2482 H 0.16688 0.66639 0.3845 0.0
H2483 H 0.13238 0.67692 0.36641 0.0
H2484 H 0.08655 0.62634 0.33776 0.0
H2485 H 0.11169 0.59777 0.34778 0.0
C2486 C 0.15103 0.60457 0.36915 0.0
C2487 C 0.17115 0.61049 0.38054 0.0
C2488 C 0.13658 0.62082 0.36319 0.0
C2489 C 0.17644 0.63295 0.38619 0.0
C2490 C 0.16224 0.64921 0.38015 0.0
C2491 C 0.12808 0.65962 0.36223 0.0
C2492 C 0.10784 0.65361 0.35125 0.0
C2493 C 0.14236 0.64336 0.36851 0.0
C2494 C 0.10213 0.63122 0.3462 0.0
C2495 C 0.11645 0.61494 0.35196 0.0
H2496 H 0.94996 0.67328 0.35291 0.0
H2497 H 0.00859 0.63979 0.37105 0.0
H2498 H 0.98624 0.60652 0.37633 0.0
H2499 H 0.94961 0.58819 0.3789 0.0
H2500 H 0.89122 0.62068 0.35842 0.0
H2501 H 0.91385 0.65319 0.3508 0.0
C2502 C 0.95781 0.65856 0.3577 0.0
C2503 C 0.98078 0.65893 0.36176 0.0
C2504 C 0.9449 0.63947 0.36046 0.0
C2505 C 0.99091 0.63978 0.36772 0.0
C2506 C 0.97814 0.62084 0.37091 0.0
C2507 C 0.94195 0.60236 0.37257 0.0
C2508 C 0.91889 0.60235 0.36949 0.0
C2509 C 0.95508 0.62069 0.36782 0.0
C2510 C 0.90901 0.62049 0.36093 0.0
C2511 C 0.92191 0.63904 0.35666 0.0
H2512 H -0.00138 0.45013 0.3768 0.0
H2513 H 0.957 0.40072 0.33982 0.0
H2514 H 0.92677 0.4266 0.33944 0.0
H2515 H 0.91107 0.46179 0.35372 0.0
H2516 H 0.95291 0.51061 0.39109 0.0
H2517 H 0.98447 0.48655 0.38704 0.0
C2518 C 0.98299 0.44513 0.36842 0.0
C2519 C 0.97976 0.42354 0.35871 0.0
C2520 C 0.96581 0.45992 0.36851 0.0
C2521 C 0.95973 0.4173 0.34748 0.0
C2522 C 0.94245 0.43202 0.34739 0.0
C2523 C 0.92722 0.4671 0.36071 0.0
C2524 C 0.92983 0.48753 0.37307 0.0
C2525 C 0.94511 0.45311 0.35849 0.0
C2526 C 0.95072 0.49474 0.38173 0.0
C2527 C 0.96864 0.48101 0.37948 0.0
H2528 H 0.25195 0.68133 0.65275 0.0
H2529 H 0.19398 0.71914 0.66516 0.0
H2530 H 0.18142 0.69358 0.69171 0.0
H2531 H 0.18451 0.65743 0.70705 0.0
H2532 H 0.24334 0.62053 0.69572 0.0
H2533 H 0.25827 0.64882 0.67337 0.0
C2534 C 0.23696 0.68423 0.66184 0.0
C2535 C 0.2238 0.70182 0.65715 0.0
C2536 C 0.22988 0.66947 0.67697 0.0
C2537 C 0.2043 0.70559 0.66872 0.0
C2538 C 0.19707 0.69094 0.68375 0.0
C2539 C 0.2008 0.65594 0.70008 0.0
C2540 C 0.21255 0.63676 0.70231 0.0
C2541 C 0.20932 0.67236 0.68737 0.0
C2542 C 0.23378 0.63498 0.69357 0.0
C2543 C 0.24233 0.65113 0.68086 0.0
H2544 H 0.92978 0.70929 0.6248 0.0
H2545 H 0.95601 0.77587 0.62399 0.0
H2546 H 0.9867 0.76757 0.64875 0.0
H2547 H 0.00364 0.74247 0.6731 0.0
H2548 H 0.9752 0.67688 0.67657 0.0
H2549 H 0.94817 0.68335 0.64747 0.0
C2550 C 0.94254 0.72178 0.62969 0.0
C2551 C 0.94103 0.74303 0.62246 0.0
C2552 C 0.95969 0.71699 0.64422 0.0
C2553 C 0.9571 0.75938 0.62935 0.0
C2554 C 0.97458 0.75461 0.64341 0.0
C2555 C 0.99192 0.72936 0.6671 0.0
C2556 C 0.99142 0.7092 0.67695 0.0
C2557 C 0.97578 0.73359 0.65125 0.0
C2558 C 0.97592 0.69251 0.6692 0.0
C2559 C 0.96037 0.69627 0.65273 0.0
H2560 H 0.87683 0.47585 0.66734 0.0
H2561 H 0.80725 0.46302 0.65341 0.0
H2562 H 0.81569 0.43043 0.62884 0.0
H2563 H 0.8431 0.40479 0.61319 0.0
H2564 H 0.91262 0.41764 0.62903 0.0
H2565 H 0.90395 0.45098 0.65145 0.0
C2566 C 0.86356 0.46588 0.65884 0.0
C2567 C 0.84152 0.47144 0.66212 0.0
C2568 C 0.86853 0.44715 0.64542 0.0
C2569 C 0.82434 0.45883 0.65095 0.0
C2570 C 0.82918 0.44022 0.63711 0.0
C2571 C 0.85633 0.41488 0.62157 0.0
C2572 C 0.87846 0.40868 0.61956 0.0
C2573 C 0.85123 0.43404 0.63454 0.0
C2574 C 0.89545 0.42197 0.6304 0.0
C2575 C 0.89053 0.44108 0.64317 0.0
H2576 H 0.15053 0.38539 0.63525 0.0
H2577 H 0.16108 0.31754 0.64672 0.0
H2578 H 0.13 0.31776 0.67184 0.0
H2579 H 0.10038 0.33769 0.69129 0.0
H2580 H 0.09011 0.40559 0.68004 0.0
H2581 H 0.12046 0.40503 0.65402 0.0
C2582 C 0.14562 0.37051 0.64281 0.0
C2583 C 0.1576 0.35127 0.6387 0.0
C2584 C 0.12791 0.37086 0.65737 0.0
C2585 C 0.15183 0.33242 0.64943 0.0
C2586 C 0.13411 0.33256 0.6638 0.0
C2587 C 0.10461 0.35219 0.68281 0.0
C2588 C 0.0929 0.37154 0.68716 0.0
C2589 C 0.12209 0.35172 0.66796 0.0
C2590 C 0.09889 0.3905 0.67671 0.0
C2591 C 0.11619 0.39016 0.66187 0.0
H2592 H 0.20345 0.44892 0.4969 0.0
H2593 H 0.27461 0.44553 0.4963 0.0
H2594 H 0.27639 0.47573 0.47189 0.0
H2595 H 0.25726 0.5029 0.45025 0.0
H2596 H 0.1861 0.50492 0.45102 0.0
H2597 H 0.18473 0.47546 0.476 0.0
C2598 C 0.21943 0.45473 0.49151 0.0
C2599 C 0.23889 0.44494 0.49842 0.0
C2600 C 0.22027 0.47194 0.47758 0.0
C2601 C 0.25938 0.45272 0.49115 0.0
C2602 C 0.26039 0.47002 0.47726 0.0
C2603 C 0.24156 0.49697 0.45618 0.0
C2604 C 0.22178 0.50608 0.44912 0.0
C2605 C 0.24091 0.47977 0.47035 0.0
C2606 C 0.20146 0.49813 0.45643 0.0
C2607 C 0.20069 0.4813 0.47063 0.0
H2608 H 0.04694 0.7238 0.45773 0.0
H2609 H 0.08807 0.76384 0.41884 0.0
H2610 H 0.11531 0.76977 0.44939 0.0
H2611 H 0.12919 0.75975 0.48524 0.0
H2612 H 0.08901 0.71758 0.52323 0.0
H2613 H 0.0595 0.71637 0.49507 0.0
C2614 C 0.06166 0.73422 0.45628 0.0
C2615 C 0.06575 0.7434 0.43634 0.0
C2616 C 0.07747 0.73687 0.47357 0.0
C2617 C 0.08481 0.75671 0.43424 0.0
C2618 C 0.10036 0.75996 0.45159 0.0
C2619 C 0.11387 0.75054 0.48751 0.0
C2620 C 0.11141 0.73854 0.50613 0.0
C2621 C 0.09718 0.74952 0.47106 0.0
C2622 C 0.09141 0.72675 0.50889 0.0
C2623 C 0.07452 0.72605 0.49281 0.0
H2624 H 0.84598 0.62178 0.50931 0.0
H2625 H 0.82407 0.6673 0.46333 0.0
H2626 H 0.82411 0.63804 0.43324 0.0
H2627 H 0.83473 0.60073 0.41961 0.0
H2628 H 0.85499 0.5548 0.46593 0.0
H2629 H 0.85119 0.58301 0.49649 0.0
C2630 C 0.84078 0.62511 0.49275 0.0
C2631 C 0.83525 0.64656 0.48835 0.0
C2632 C 0.84086 0.60827 0.47567 0.0
C2633 C 0.82829 0.65081 0.467 0.0
C2634 C 0.82854 0.63416 0.44981 0.0
C2635 C 0.83807 0.59691 0.43645 0.0
C2636 C 0.8455 0.57598 0.44063 0.0
C2637 C 0.8355 0.61305 0.45387 0.0
C2638 C 0.84937 0.57091 0.46243 0.0
C2639 C 0.84725 0.58701 0.47985 0.0
H2640 H 0.93885 0.33465 0.46732 0.0
H2641 H 0.97853 0.27934 0.47946 0.0
H2642 H 0.00704 0.29265 0.455 0.0
H2643 H 0.02033 0.32047 0.43052 0.0
H2644 H 0.97967 0.37549 0.41859 0.0
H2645 H 0.95192 0.36232 0.4434 0.0
C2646 C 0.95379 0.32564 0.46464 0.0
C2647 C 0.95686 0.30627 0.47508 0.0
C2648 C 0.96992 0.33354 0.45099 0.0
C2649 C 0.97598 0.2943 0.47136 0.0
C2650 C 0.99225 0.30199 0.45759 0.0
C2651 C 0.00553 0.3297 0.43364 0.0
C2652 C 0.00202 0.34899 0.42296 0.0
C2653 C 0.98943 0.32172 0.44747 0.0
C2654 C 0.98265 0.36062 0.42671 0.0
C2655 C 0.96678 0.35307 0.44078 0.0
H2656 H 0.15686 0.77835 0.64209 0.0
H2657 H 0.10294 0.75691 0.59695 0.0
H2658 H 0.07645 0.7643 0.62594 0.0
H2659 H 0.06934 0.77035 0.66519 0.0
H2660 H 0.12344 0.78587 0.71172 0.0
H2661 H 0.14919 0.78781 0.68128 0.0
C2662 C 0.13928 0.77549 0.63863 0.0
C2663 C 0.13184 0.76678 0.61756 0.0
C2664 C 0.12426 0.77855 0.65572 0.0
C2665 C 0.10905 0.76371 0.613 0.0
C2666 C 0.09391 0.76772 0.62964 0.0
C2667 C 0.08676 0.77435 0.6686 0.0
C2668 C 0.09476 0.77727 0.69048 0.0
C2669 C 0.10144 0.77415 0.65121 0.0
C2670 C 0.11708 0.78334 0.69489 0.0
C2671 C 0.13177 0.78422 0.67753 0.0
H2672 H 0.15546 0.33226 0.43931 0.0
H2673 H 0.10332 0.37185 0.46669 0.0
H2674 H 0.1241 0.37854 0.50128 0.0
H2675 H 0.15856 0.37588 0.52293 0.0
H2676 H 0.2131 0.34166 0.4935 0.0
H2677 H 0.1902 0.33025 0.46059 0.0
C2678 C 0.14857 0.34212 0.45296 0.0
C2679 C 0.12737 0.35054 0.45073 0.0
C2680 C 0.16122 0.34708 0.47242 0.0
C2681 C 0.11892 0.36389 0.46832 0.0
C2682 C 0.13102 0.36815 0.48805 0.0
C2683 C 0.16518 0.36563 0.50939 0.0
C2684 C 0.18721 0.35936 0.51047 0.0
C2685 C 0.15228 0.36004 0.49021 0.0
C2686 C 0.19603 0.34652 0.49282 0.0
C2687 C 0.183 0.34007 0.47407 0.0
H2688 H 0.22796 0.6782 0.52838 0.0
H2689 H 0.15703 0.66863 0.52356 0.0
H2690 H 0.16074 0.63782 0.49563 0.0
H2691 H 0.18375 0.61638 0.47023 0.0
H2692 H 0.25457 0.62812 0.47179 0.0
H2693 H 0.25142 0.65544 0.50337 0.0
C2694 C 0.21342 0.66892 0.52155 0.0
C2695 C 0.19225 0.67526 0.52814 0.0
C2696 C 0.21568 0.65199 0.5047 0.0
C2697 C 0.17343 0.66372 0.51883 0.0
C2698 C 0.17557 0.64628 0.5028 0.0
C2699 C 0.19859 0.62471 0.47757 0.0
C2700 C 0.21938 0.62027 0.46862 0.0
C2701 C 0.19656 0.64069 0.49521 0.0
C2702 C 0.23837 0.63133 0.4783 0.0
C2703 C 0.23656 0.64691 0.49636 0.0
H2704 H 0.88476 0.73173 0.4736 0.0
H2705 H 0.9327 0.71492 0.5225 0.0
H2706 H 0.96197 0.71582 0.49557 0.0
H2707 H 0.97369 0.71992 0.45784 0.0
H2708 H 0.92687 0.73922 0.40914 0.0
H2709 H 0.89742 0.7392 0.43627 0.0
C2710 C 0.90164 0.72831 0.47827 0.0
C2711 C 0.9066 0.72308 0.49993 0.0
C2712 C 0.91854 0.72943 0.4628 0.0
C2713 C 0.92855 0.71903 0.50596 0.0
C2714 C 0.94526 0.7195 0.49056 0.0
C2715 C 0.95707 0.72433 0.45323 0.0
C2716 C 0.95236 0.72941 0.43153 0.0
C2717 C 0.94043 0.72452 0.46892 0.0
C2718 C 0.93087 0.73536 0.4258 0.0
C2719 C 0.91403 0.73517 0.44126 0.0
H2720 H 0.84939 0.39715 0.51122 0.0
H2721 H 0.91676 0.40121 0.48998 0.0
H2722 H 0.90622 0.42659 0.46253 0.0
H2723 H 0.87775 0.44756 0.44483 0.0
H2724 H 0.81011 0.44267 0.46509 0.0
H2725 H 0.82067 0.41753 0.49285 0.0
C2726 C 0.86171 0.40384 0.50067 0.0
C2727 C 0.88384 0.39789 0.50272 0.0
C2728 C 0.85545 0.41815 0.48491 0.0
C2729 C 0.89969 0.40595 0.4887 0.0
C2730 C 0.89367 0.42038 0.47308 0.0
C2731 C 0.86544 0.44114 0.45555 0.0
C2732 C 0.84335 0.44718 0.45349 0.0
C2733 C 0.87162 0.42664 0.47113 0.0
C2734 C 0.82727 0.43832 0.46677 0.0
C2735 C 0.8333 0.42402 0.48255 0.0
H2736 H 0.91329 0.31837 0.62863 0.0
H2737 H 0.9619 0.32744 0.57917 0.0
H2738 H 0.99123 0.33216 0.60771 0.0
H2739 H 0.00167 0.33965 0.64708 0.0
H2740 H 0.95352 0.32861 0.69643 0.0
H2741 H 0.92524 0.3184 0.66761 0.0
C2742 C 0.93042 0.32075 0.62414 0.0
C2743 C 0.93554 0.32284 0.60203 0.0
C2744 C 0.94711 0.32335 0.64059 0.0
C2745 C 0.9577 0.32573 0.59618 0.0
C2746 C 0.9744 0.32863 0.61248 0.0
C2747 C 0.98511 0.33443 0.65139 0.0
C2748 C 0.97941 0.33503 0.67361 0.0
C2749 C 0.96912 0.32838 0.63478 0.0
C2750 C 0.95809 0.32815 0.6793 0.0
C2751 C 0.94195 0.32248 0.66287 0.0
H2752 H 0.23126 0.51754 0.66313 0.0
H2753 H 0.16105 0.51322 0.64778 0.0
H2754 H 0.16679 0.48393 0.61893 0.0
H2755 H 0.1912 0.45688 0.60098 0.0
H2756 H 0.26101 0.46019 0.61714 0.0
H2757 H 0.2561 0.49275 0.64279 0.0
C2758 C 0.21724 0.51041 0.65328 0.0
C2759 C 0.19573 0.51729 0.6578 0.0
C2760 C 0.2206 0.49333 0.63703 0.0
C2761 C 0.17776 0.50808 0.64474 0.0
C2762 C 0.18101 0.49128 0.6283 0.0
C2763 C 0.2053 0.46503 0.60995 0.0
C2764 C 0.22638 0.45644 0.60743 0.0
C2765 C 0.20224 0.48337 0.62478 0.0
C2766 C 0.24468 0.46684 0.6189 0.0
C2767 C 0.24184 0.48529 0.63358 0.0
H2768 H 0.84088 0.63191 0.5849 0.0
H2769 H 0.83182 0.6914 0.62657 0.0
H2770 H 0.82107 0.66967 0.65688 0.0
H2771 H 0.81733 0.63388 0.67245 0.0
H2772 H 0.82552 0.57407 0.63083 0.0
H2773 H 0.83286 0.59571 0.59947 0.0
C2774 C 0.83631 0.64003 0.60057 0.0
C2775 C 0.83785 0.66317 0.6038 0.0
C2776 C 0.82991 0.62738 0.6179 0.0
C2777 C 0.83151 0.67358 0.624 0.0
C2778 C 0.82521 0.66117 0.64127 0.0
C2779 C 0.82038 0.62554 0.65645 0.0
C2780 C 0.8211 0.60239 0.6541 0.0
C2781 C 0.82485 0.63807 0.63857 0.0
C2782 C 0.82486 0.59186 0.63315 0.0
C2783 C 0.82923 0.60424 0.61522 0.0
H2784 H 0.57879 0.19132 0.75477 0.0
H2785 H 0.53022 0.1379 0.74396 0.0
H2786 H 0.55648 0.11231 0.75798 0.0
H2787 H 0.59405 0.1048 0.77066 0.0
H2788 H 0.64346 0.15774 0.77888 0.0
H2789 H 0.61595 0.18406 0.76912 0.0
C2790 C 0.57408 0.17405 0.75543 0.0
C2791 C 0.55288 0.1663 0.74806 0.0
C2792 C 0.58935 0.15945 0.7631 0.0
C2793 C 0.54657 0.1441 0.74953 0.0
C2794 C 0.56156 0.1295 0.75746 0.0
C2795 C 0.59882 0.12205 0.77013 0.0
C2796 C 0.62085 0.12924 0.77479 0.0
C2797 C 0.58313 0.13692 0.76385 0.0
C2798 C 0.6266 0.15181 0.77514 0.0
C2799 C 0.61094 0.16683 0.76941 0.0
H2800 H 0.37555 0.11072 0.73453 0.0
H2801 H 0.42542 0.06299 0.72012 0.0
H2802 H 0.45454 0.09178 0.72724 0.0
H2803 H 0.46492 0.13127 0.73174 0.0
H2804 H 0.41506 0.17889 0.74667 0.0
H2805 H 0.3866 0.14924 0.74564 0.0
C2806 C 0.39284 0.10663 0.73338 0.0
C2807 C 0.39852 0.08508 0.72638 0.0
C2808 C 0.40932 0.12318 0.73745 0.0
C2809 C 0.42084 0.07962 0.72535 0.0
C2810 C 0.43741 0.09605 0.7293 0.0
C2811 C 0.44787 0.13503 0.73522 0.0
C2812 C 0.44182 0.15705 0.73883 0.0
C2813 C 0.43173 0.118 0.73447 0.0
C2814 C 0.41991 0.16195 0.74377 0.0
C2815 C 0.40368 0.14506 0.74302 0.0
H2816 H 0.48381 0.92339 0.7163 0.0
H2817 H 0.44122 0.86583 0.72076 0.0
H2818 H 0.4093 0.88921 0.72635 0.0
H2819 H 0.39366 0.9261 0.73031 0.0
H2820 H 0.43575 0.98272 0.71936 0.0
H2821 H 0.46753 0.95986 0.71684 0.0
C2822 C 0.46752 0.91601 0.71848 0.0
C2823 C 0.46486 0.89299 0.71829 0.0
C2824 C 0.44917 0.92948 0.72109 0.0
C2825 C 0.44363 0.88355 0.72076 0.0
C2826 C 0.42541 0.89691 0.72409 0.0
C2827 C 0.40979 0.93356 0.72757 0.0
C2828 C 0.41215 0.9566 0.72659 0.0
C2829 C 0.42801 0.91994 0.7244 0.0
C2830 C 0.43321 0.96558 0.72213 0.0
C2831 C 0.45156 0.95231 0.72002 0.0
H2832 H 0.58865 0.93556 0.72516 0.0
H2833 H 0.57589 0.95252 0.79363 0.0
H2834 H 0.599 0.98641 0.79294 0.0
H2835 H 0.62511 0.0095 0.77328 0.0
H2836 H 0.63931 0.99045 0.70542 0.0
H2837 H 0.61265 0.95943 0.70509 0.0
C2838 C 0.59044 0.94703 0.73974 0.0
C2839 C 0.58029 0.94202 0.75927 0.0
C2840 C 0.60393 0.96606 0.73924 0.0
C2841 C 0.58346 0.95635 0.77837 0.0
C2842 C 0.5966 0.97565 0.77795 0.0
C2843 C 0.62191 -0.00119 0.75833 0.0
C2844 C 0.63399 0.00216 0.73938 0.0
C2845 C 0.60719 0.9805 0.75853 0.0
C2846 C 0.63012 0.98807 0.72017 0.0
C2847 C 0.615 0.97032 0.72001 0.0
H2848 H 0.62862 0.89435 0.34219 0.0
H2849 H 0.58303 0.94433 0.36366 0.0
H2850 H 0.60691 0.9727 0.34992 0.0
H2851 H 0.64001 0.98317 0.33138 0.0
H2852 H 0.69065 0.93593 0.31868 0.0
H2853 H 0.66499 0.9062 0.32783 0.0
C2854 C 0.62429 0.91151 0.34438 0.0
C2855 C 0.60399 0.91726 0.35361 0.0
C2856 C 0.63867 0.92804 0.33741 0.0
C2857 C 0.59839 0.93951 0.35615 0.0
C2858 C 0.61197 0.95574 0.34827 0.0
C2859 C 0.64591 0.96661 0.33148 0.0
C2860 C 0.66757 0.96205 0.32548 0.0
C2861 C 0.63204 0.95016 0.3388 0.0
C2862 C 0.67408 0.94 0.32362 0.0
C2863 C 0.65955 0.92303 0.32913 0.0
H2864 H 0.69262 0.12365 0.35727 0.0
H2865 H 0.64989 0.06759 0.33557 0.0
H2866 H 0.6202 0.09238 0.32713 0.0
H2867 H 0.60636 0.13036 0.32618 0.0
H2868 H 0.6504 0.1858 0.3467 0.0
H2869 H 0.67957 0.1609 0.35517 0.0
C2870 C 0.67681 0.11678 0.35072 0.0
C2871 C 0.67347 0.09376 0.34721 0.0
C2872 C 0.66002 0.13108 0.34564 0.0
C2873 C 0.65293 0.08523 0.33843 0.0
C2874 C 0.63593 0.09941 0.33364 0.0
C2875 C 0.62232 0.13691 0.33261 0.0
C2876 C 0.62613 0.15992 0.33596 0.0
C2877 C 0.63926 0.12241 0.33724 0.0
C2878 C 0.64704 0.16819 0.34388 0.0
C2879 C 0.66373 0.15396 0.34882 0.0
H2880 H 0.5023 0.14783 0.36012 0.0
H2881 H 0.4748 0.18803 0.31204 0.0
H2882 H 0.44302 0.16202 0.30555 0.0
H2883 H 0.42141 0.12973 0.31645 0.0
H2884 H 0.44781 0.09193 0.3675 0.0
H2885 H 0.48151 0.11496 0.36997 0.0
C2886 C 0.48963 0.15042 0.34776 0.0
C2887 C 0.49094 0.16933 0.33615 0.0
C2888 C 0.47099 0.13604 0.345 0.0
C2889 C 0.47418 0.17319 0.32075 0.0
C2890 C 0.45595 0.15848 0.31725 0.0
C2891 C 0.43462 0.12645 0.32797 0.0
C2892 C 0.432 0.10917 0.34178 0.0
C2893 C 0.45388 0.14015 0.32973 0.0
C2894 C 0.44926 0.10519 0.35671 0.0
C2895 C 0.46863 0.11832 0.35814 0.0
H2896 H 0.46095 0.91977 0.31258 0.0
H2897 H 0.51507 0.9453 0.35577 0.0
H2898 H 0.49787 0.98063 0.36101 0.0
H2899 H 0.46404 0.00131 0.35991 0.0
H2900 H 0.40816 0.97502 0.32004 0.0
H2901 H 0.42932 0.94326 0.30662 0.0
C2902 C 0.4692 0.93329 0.32262 0.0
C2903 C 0.48906 0.92984 0.33397 0.0
C2904 C 0.45868 0.95338 0.32644 0.0
C2905 C 0.49967 0.94746 0.34693 0.0
C2906 C 0.48981 0.96771 0.35007 0.0
C2907 C 0.45691 0.98895 0.3477 0.0
C2908 C 0.43477 0.99001 0.34111 0.0
C2909 C 0.46881 0.97044 0.34088 0.0
C2910 C 0.42533 0.97414 0.32533 0.0
C2911 C 0.43732 0.95599 0.31783 0.0
H2912 H 0.71169 0.08041 0.66014 0.0
H2913 H 0.7231 0.12624 0.71732 0.0
H2914 H 0.73602 0.15462 0.69387 0.0
H2915 H 0.74157 0.16692 0.65685 0.0
H2916 H 0.73218 0.1203 0.59993 0.0
H2917 H 0.72143 0.09142 0.62359 0.0
C2918 C 0.71732 0.09652 0.66745 0.0
C2919 C 0.71598 0.10151 0.69026 0.0
C2920 C 0.72503 0.11253 0.65394 0.0
C2921 C 0.72337 0.12235 0.69965 0.0
C2922 C 0.73092 0.13847 0.6863 0.0
C2923 C 0.7375 0.15034 0.64968 0.0
C2924 C 0.73691 0.14587 0.62669 0.0
C2925 C 0.73143 0.13384 0.66338 0.0
C2926 C 0.7319 0.1243 0.61757 0.0
C2927 C 0.72589 0.10777 0.63108 0.0
H2928 H 0.48358 0.21551 0.64055 0.0
H2929 H 0.43074 0.23035 0.68526 0.0
H2930 H 0.4049 0.2325 0.65418 0.0
H2931 H 0.39707 0.22899 0.61447 0.0
H2932 H 0.44846 0.21001 0.56966 0.0
H2933 H 0.47541 0.21097 0.60057 0.0
C2934 C 0.46641 0.21926 0.6434 0.0
C2935 C 0.45899 0.22279 0.66504 0.0
C2936 C 0.45154 0.21991 0.62549 0.0
C2937 C 0.43671 0.22741 0.66868 0.0
C2938 C 0.42198 0.22876 0.65096 0.0
C2939 C 0.41428 0.22547 0.61153 0.0
C2940 C 0.42109 0.21989 0.59005 0.0
C2941 C 0.42921 0.22498 0.62934 0.0
C2942 C 0.44314 0.21462 0.58623 0.0
C2943 C 0.45842 0.21505 0.60383 0.0
H2944 H 0.37308 0.93914 0.57389 0.0
H2945 H 0.31691 0.90591 0.60058 0.0
H2946 H 0.30857 0.93968 0.62306 0.0
H2947 H 0.32081 0.97672 0.63887 0.0
H2948 H 0.37722 0.00956 0.61251 0.0
H2949 H 0.38178 0.97799 0.58555 0.0
C2950 C 0.35888 0.9394 0.58447 0.0
C2951 C 0.34589 0.92009 0.5861 0.0
C2952 C 0.35424 0.95877 0.5972 0.0
C2953 C 0.32721 0.92063 0.59933 0.0
C2954 C 0.32249 0.93987 0.61216 0.0
C2955 C 0.33354 0.97715 0.62661 0.0
C2956 C 0.34862 0.99518 0.6273 0.0
C2957 C 0.33632 0.95879 0.61172 0.0
C2958 C 0.36534 -0.00421 0.61183 0.0
C2959 C 0.36807 0.97769 0.5967 0.0
H2960 H 0.62468 0.87228 0.59639 0.0
H2961 H 0.6716 0.83815 0.63452 0.0
H2962 H 0.64336 0.83198 0.66181 0.0
H2963 H 0.60554 0.83793 0.67576 0.0
H2964 H 0.55868 0.87098 0.63675 0.0
H2965 H 0.5866 0.876 0.60889 0.0
C2966 C 0.62873 0.86336 0.6106 0.0
C2967 C 0.6503 0.85583 0.61347 0.0
C2968 C 0.6124 0.85983 0.62614 0.0
C2969 C 0.65514 0.8441 0.63187 0.0
C2970 C 0.63902 0.84067 0.64755 0.0
C2971 C 0.60155 0.84614 0.66108 0.0
C2972 C 0.58024 0.85426 0.65826 0.0
C2973 C 0.61766 0.84872 0.64502 0.0
C2974 C 0.57504 0.86468 0.63917 0.0
C2975 C 0.59098 0.86755 0.6233 0.0
H2976 H 0.72034 0.94629 0.47904 0.0
H2977 H 0.7914 0.95465 0.48105 0.0
H2978 H 0.78914 0.98328 0.45501 0.0
H2979 H 0.76676 0.00514 0.43071 0.0
H2980 H 0.6958 -0.0042 0.42821 0.0
H2981 H 0.69805 0.96857 0.4556 0.0
C2982 C 0.73528 0.95479 0.47418 0.0
C2983 C 0.75598 0.94887 0.48236 0.0
C2984 C 0.73381 0.971 0.45908 0.0
C2985 C 0.77528 0.95921 0.47515 0.0
C2986 C 0.77398 0.97554 0.46028 0.0
C2987 C 0.75184 -0.00262 0.43653 0.0
C2988 C 0.73111 0.00262 0.42786 0.0
C2989 C 0.75333 0.98152 0.45206 0.0
C2990 C 0.71188 0.99208 0.43492 0.0
C2991 C 0.71318 0.97651 0.45051 0.0
H2992 H 0.61755 0.21598 0.50362 0.0
H2993 H 0.66344 0.25988 0.47392 0.0
H2994 H 0.63782 0.26147 0.44242 0.0
H2995 H 0.60379 0.24758 0.42183 0.0
H2996 H 0.55857 0.20318 0.45143 0.0
H2997 H 0.58242 0.20468 0.48464 0.0
C2998 C 0.62189 0.2261 0.49037 0.0
C2999 C 0.64249 0.23757 0.49097 0.0
C3000 C 0.60726 0.22667 0.47225 0.0
C3001 C 0.64771 0.25084 0.47382 0.0
C3002 C 0.63312 0.25165 0.45575 0.0
C3003 C 0.59924 0.23835 0.43566 0.0
C3004 C 0.57982 0.22495 0.43424 0.0
C3005 C 0.61312 0.23918 0.45454 0.0
C3006 C 0.57363 0.21341 0.45226 0.0
C3007 C 0.58725 0.21424 0.47115 0.0
H3008 H 0.30532 0.11129 0.47701 0.0
H3009 H 0.3064 0.16141 0.4308 0.0
H3010 H 0.32369 0.13628 0.40362 0.0
H3011 H 0.34191 0.10161 0.39449 0.0
H3012 H 0.34101 0.05101 0.44019 0.0
H3013 H 0.3207 0.07497 0.46642 0.0
C3014 C 0.30904 0.11649 0.46083 0.0
C3015 C 0.30487 0.13816 0.45593 0.0
C3016 C 0.31954 0.10214 0.44552 0.0
C3017 C 0.30938 0.14474 0.43487 0.0
C3018 C 0.31956 0.1305 0.41946 0.0
C3019 C 0.33737 0.09588 0.41026 0.0
C3020 C 0.34335 0.07486 0.41571 0.0
C3021 C 0.32537 0.10947 0.4249 0.0
C3022 C 0.3368 0.06731 0.43584 0.0
C3023 C 0.32513 0.08093 0.45074 0.0
H3024 H 0.43698 0.84816 0.46679 0.0
H3025 H 0.46577 0.78478 0.47122 0.0
H3026 H 0.49662 0.79607 0.44864 0.0
H3027 H 0.51412 0.82337 0.42652 0.0
H3028 H 0.48364 0.8858 0.42021 0.0
H3029 H 0.45481 0.87572 0.44546 0.0
C3030 C 0.45023 0.83698 0.46321 0.0
C3031 C 0.44948 0.81585 0.47095 0.0
C3032 C 0.46753 0.84348 0.45007 0.0
C3033 C 0.46623 0.80117 0.46548 0.0
C3034 C 0.48381 0.80765 0.45268 0.0
C3035 C 0.50141 0.83496 0.43098 0.0
C3036 C 0.50103 0.85537 0.42165 0.0
C3037 C 0.48452 0.82872 0.44479 0.0
C3038 C 0.48426 0.87004 0.42726 0.0
C3039 C 0.46776 0.86424 0.44157 0.0
H3040 H 0.62605 0.23827 0.58554 0.0
H3041 H 0.67946 0.25278 0.63313 0.0
H3042 H 0.65284 0.26045 0.66222 0.0
H3043 H 0.61454 0.2596 0.67441 0.0
H3044 H 0.56104 0.24705 0.6264 0.0
H3045 H 0.58757 0.24214 0.59701 0.0
C3046 C 0.63178 0.24354 0.6022 0.0
C3047 C 0.65451 0.24457 0.60745 0.0
C3048 C 0.61643 0.24793 0.61871 0.0
C3049 C 0.66192 0.25145 0.62899 0.0
C3050 C 0.64675 0.25586 0.64554 0.0
C3051 C 0.60866 0.25603 0.65748 0.0
C3052 C 0.5859 0.25267 0.65271 0.0
C3053 C 0.62398 0.25358 0.64066 0.0
C3054 C 0.57851 0.24852 0.63068 0.0
C3055 C 0.59366 0.24601 0.61381 0.0
H3056 H 0.64584 0.81763 0.42376 0.0
H3057 H 0.5856 0.81938 0.46023 0.0
H3058 H 0.6066 0.83012 0.49437 0.0
H3059 H 0.64138 0.84461 0.51242 0.0
H3060 H 0.70202 0.84088 0.47667 0.0
H3061 H 0.68162 0.82545 0.44355 0.0
C3062 C 0.63745 0.81973 0.43931 0.0
C3063 C 0.61427 0.81847 0.43954 0.0
C3064 C 0.64962 0.82609 0.45881 0.0
C3065 C 0.60347 0.82095 0.45972 0.0
C3066 C 0.61543 0.82711 0.47919 0.0
C3067 C 0.65015 0.83997 0.49751 0.0
C3068 C 0.67295 0.84462 0.49665 0.0
C3069 C 0.6384 0.83071 0.47873 0.0
C3070 C 0.68425 0.8383 0.47737 0.0
C3071 C 0.67266 0.82927 0.45851 0.0
H3072 H 0.72555 0.18482 0.48201 0.0
H3073 H 0.69068 0.14032 0.52181 0.0
H3074 H 0.69336 0.11031 0.49262 0.0
H3075 H 0.70545 0.09724 0.45567 0.0
H3076 H 0.7434 0.14108 0.41757 0.0
H3077 H 0.74006 0.17106 0.44646 0.0
C3078 C 0.71841 0.16855 0.48412 0.0
C3079 C 0.70753 0.16464 0.50357 0.0
C3080 C 0.72081 0.15141 0.46778 0.0
C3081 C 0.69888 0.14352 0.50669 0.0
C3082 C 0.70048 0.12647 0.49011 0.0
C3083 C 0.71306 0.11336 0.45382 0.0
C3084 C 0.72449 0.11717 0.43463 0.0
C3085 C 0.7114 0.13027 0.4706 0.0
C3086 C 0.7346 0.1379 0.43236 0.0
C3087 C 0.73257 0.15501 0.44874 0.0
H3088 H 0.45479 0.18737 0.41811 0.0
H3089 H 0.46299 0.2583 0.42254 0.0
H3090 H 0.43317 0.26136 0.44909 0.0
H3091 H 0.40555 0.2436 0.47198 0.0
H3092 H 0.39826 0.17272 0.46763 0.0
H3093 H 0.42664 0.16987 0.43965 0.0
C3094 C 0.45009 0.20354 0.42484 0.0
C3095 C 0.46123 0.22258 0.41849 0.0
C3096 C 0.43304 0.20514 0.44003 0.0
C3097 C 0.45471 0.24338 0.4272 0.0
C3098 C 0.43769 0.24513 0.44238 0.0
C3099 C 0.41036 0.22758 0.46496 0.0
C3100 C 0.40027 0.20835 0.47205 0.0
C3101 C 0.42689 0.2261 0.44909 0.0
C3102 C 0.40598 0.18768 0.46242 0.0
C3103 C 0.42224 0.18607 0.44653 0.0
H3104 H 0.38912 0.89485 0.45996 0.0
H3105 H 0.32203 0.88767 0.48123 0.0
H3106 H 0.30908 0.91019 0.45228 0.0
H3107 H 0.31767 0.93523 0.42338 0.0
H3108 H 0.3847 0.94151 0.40171 0.0
H3109 H 0.39693 0.91595 0.42804 0.0
C3110 C 0.37166 0.89801 0.45795 0.0
C3111 C 0.3566 0.89036 0.47294 0.0
C3112 C 0.3644 0.91095 0.44133 0.0
C3113 C 0.33394 0.89405 0.47011 0.0
C3114 C 0.32654 0.90685 0.45359 0.0
C3115 C 0.33484 0.93066 0.42431 0.0
C3116 C 0.35041 0.94047 0.41116 0.0
C3117 C 0.34173 0.91595 0.43952 0.0
C3118 C 0.37259 0.93443 0.41213 0.0
C3119 C 0.37957 0.91979 0.42712 0.0
H3120 H 0.43024 0.81732 0.57811 0.0
H3121 H 0.37589 0.84554 0.61417 0.0
H3122 H 0.39385 0.83837 0.64883 0.0
H3123 H 0.42565 0.82634 0.66913 0.0
H3124 H 0.48174 0.80075 0.63415 0.0
H3125 H 0.46223 0.80413 0.5989 0.0
C3126 C 0.42234 0.82182 0.59356 0.0
C3127 C 0.40183 0.83212 0.5935 0.0
C3128 C 0.43297 0.81796 0.61365 0.0
C3129 C 0.3918 0.83785 0.61368 0.0
C3130 C 0.40198 0.83364 0.63357 0.0
C3131 C 0.4335 0.82107 0.65384 0.0
C3132 C 0.45507 0.81323 0.65427 0.0
C3133 C 0.42264 0.82395 0.63376 0.0
C3134 C 0.46508 0.80678 0.63425 0.0
C3135 C 0.454 0.80886 0.6141 0.0
H3136 H 0.72894 0.91453 0.63267 0.0
H3137 H 0.71603 0.95527 0.57938 0.0
H3138 H 0.71043 0.98692 0.60585 0.0
H3139 H 0.70669 0.00213 0.64425 0.0
H3140 H 0.72189 0.96194 0.69745 0.0
H3141 H 0.72937 0.93091 0.67094 0.0
C3142 C 0.72508 0.93042 0.62693 0.0
C3143 C 0.72267 0.93265 0.60425 0.0
C3144 C 0.72227 0.94853 0.64219 0.0
C3145 C 0.71801 0.95329 0.59683 0.0
C3146 C 0.7147 0.97131 0.61193 0.0
C3147 C 0.71185 0.98661 0.64996 0.0
C3148 C 0.71352 0.98413 0.67265 0.0
C3149 C 0.71642 0.969 0.63465 0.0
C3150 C 0.72053 0.96416 0.68 0.0
C3151 C 0.72469 0.9464 0.66487 0.0
H3152 H 0.36833 0.17253 0.59874 0.0
H3153 H 0.30711 0.14629 0.56771 0.0
H3154 H 0.30421 0.11902 0.5951 0.0
H3155 H 0.31974 0.10208 0.62765 0.0
H3156 H 0.38208 0.12766 0.65666 0.0
H3157 H 0.38372 0.15587 0.63046 0.0
C3158 C 0.35427 0.16093 0.59796 0.0
C3159 C 0.33793 0.16153 0.58122 0.0
C3160 C 0.35287 0.14519 0.6135 0.0
C3161 C 0.31996 0.14618 0.58039 0.0
C3162 C 0.31826 0.13062 0.59609 0.0
C3163 C 0.3335 0.11402 0.62831 0.0
C3164 C 0.35071 0.11291 0.64409 0.0
C3165 C 0.33467 0.12992 0.61272 0.0
C3166 C 0.36867 0.12819 0.64461 0.0
C3167 C 0.36964 0.14431 0.62963 0.0
H3168 H 0.60729 0.6727 0.28135 0.0
H3169 H 0.56764 0.61371 0.26224 0.0
H3170 H 0.59652 0.5911 0.27604 0.0
H3171 H 0.63468 0.58778 0.28839 0.0
H3172 H 0.67754 0.6458 0.29886 0.0
H3173 H 0.64578 0.66926 0.29471 0.0
C3174 C 0.6051 0.6549 0.28004 0.0
C3175 C 0.5855 0.64485 0.2706 0.0
C3176 C 0.62236 0.6419 0.28669 0.0
C3177 C 0.58253 0.62182 0.26962 0.0
C3178 C 0.59906 0.60887 0.27742 0.0
C3179 C 0.63704 0.60557 0.28975 0.0
C3180 C 0.65839 0.6151 0.29292 0.0
C3181 C 0.61926 0.6187 0.28527 0.0
C3182 C 0.66119 0.63813 0.29602 0.0
C3183 C 0.64312 0.6515 0.29333 0.0
H3184 H 0.4227 0.56375 0.25815 0.0
H3185 H 0.36896 0.60808 0.26795 0.0
H3186 H 0.39487 0.63776 0.28192 0.0
H3187 H 0.43289 0.65249 0.28539 0.0
H3188 H 0.48683 0.60963 0.27067 0.0
H3189 H 0.46097 0.57782 0.2652 0.0
C3190 C 0.41675 0.57982 0.26376 0.0
C3191 C 0.3942 0.58401 0.26177 0.0
C3192 C 0.43181 0.59703 0.27085 0.0
C3193 C 0.38644 0.60478 0.26901 0.0
C3194 C 0.40119 0.62168 0.27705 0.0
C3195 C 0.43896 0.63605 0.28169 0.0
C3196 C 0.46151 0.63321 0.27832 0.0
C3197 C 0.42394 0.61823 0.27722 0.0
C3198 C 0.46938 0.61201 0.27322 0.0
C3199 C 0.45462 0.59391 0.26995 0.0
H3200 H 0.45846 0.39188 0.25114 0.0
H3201 H 0.49889 0.44391 0.22708 0.0
H3202 H 0.46907 0.46981 0.23357 0.0
H3203 H 0.43089 0.47667 0.24375 0.0
H3204 H 0.39191 0.42611 0.27236 0.0
H3205 H 0.42161 0.4003 0.26583 0.0
C3206 C 0.4607 0.40895 0.2475 0.0
C3207 C 0.48063 0.41605 0.23847 0.0
C3208 C 0.44378 0.42387 0.25197 0.0
C3209 C 0.48361 0.43818 0.23402 0.0
C3210 C 0.46657 0.45293 0.23768 0.0
C3211 C 0.42912 0.46048 0.24972 0.0
C3212 C 0.40926 0.45375 0.25932 0.0
C3213 C 0.44654 0.44592 0.24655 0.0
C3214 C 0.40704 0.43192 0.26521 0.0
C3215 C 0.42402 0.4171 0.26146 0.0
H3216 H 0.65998 0.51231 0.26588 0.0
H3217 H 0.67167 0.48531 0.19957 0.0
H3218 H 0.6426 0.45696 0.20278 0.0
H3219 H 0.61537 0.43867 0.22515 0.0
H3220 H 0.60525 0.46401 0.29212 0.0
H3221 H 0.63239 0.49422 0.28809 0.0
C3222 C 0.656 0.50037 0.25204 0.0
C3223 C 0.66794 0.50093 0.23248 0.0
C3224 C 0.63969 0.48379 0.25421 0.0
C3225 C 0.66277 0.48519 0.2148 0.0
C3226 C 0.64617 0.46898 0.21663 0.0
C3227 C 0.61884 0.45107 0.23868 0.0
C3228 C 0.60811 0.44953 0.25875 0.0
C3229 C 0.63473 0.46797 0.23634 0.0
C3230 C 0.61323 0.46514 0.27648 0.0
C3231 C 0.62871 0.48233 0.27416 0.0
H3232 H 0.62872 0.41346 0.84715 0.0
H3233 H 0.58519 0.46323 0.87351 0.0
H3234 H 0.60921 0.49205 0.86027 0.0
H3235 H 0.64225 0.50288 0.84133 0.0
H3236 H 0.69001 0.45441 0.82209 0.0
H3237 H 0.66398 0.42491 0.83101 0.0
C3238 C 0.62482 0.43063 0.8505 0.0
C3239 C 0.60522 0.43629 0.86121 0.0
C3240 C 0.6391 0.44715 0.84353 0.0
C3241 C 0.6001 0.45856 0.86505 0.0
C3242 C 0.61374 0.47499 0.85743 0.0
C3243 C 0.64731 0.48595 0.83968 0.0
C3244 C 0.66837 0.48092 0.832 0.0
C3245 C 0.63322 0.46944 0.84663 0.0
C3246 C 0.67393 0.45873 0.82825 0.0
C3247 C 0.65921 0.44191 0.83364 0.0
H3248 H 0.68333 0.6296 0.89391 0.0
H3249 H 0.66607 0.58648 0.83579 0.0
H3250 H 0.63773 0.61156 0.82537 0.0
H3251 H 0.61807 0.64617 0.83238 0.0
H3252 H 0.63392 0.68838 0.89118 0.0
H3253 H 0.66267 0.66341 0.90169 0.0
C3254 C 0.67332 0.62565 0.879 0.0
C3255 C 0.67692 0.60622 0.86562 0.0
C3256 C 0.65689 0.64009 0.87315 0.0
C3257 C 0.66365 0.60129 0.84645 0.0
C3258 C 0.64748 0.61567 0.84039 0.0
C3259 C 0.62795 0.64983 0.84741 0.0
C3260 C 0.62419 0.66898 0.86097 0.0
C3261 C 0.64405 0.63518 0.85352 0.0
C3262 C 0.63674 0.67363 0.88056 0.0
C3263 C 0.65309 0.65938 0.88655 0.0
H3264 H 0.47659 0.67167 0.84372 0.0
H3265 H 0.51821 0.64776 0.89433 0.0
H3266 H 0.49612 0.613 0.89234 0.0
H3267 H 0.46299 0.59125 0.87837 0.0
H3268 H 0.42204 0.61529 0.82699 0.0
H3269 H 0.44628 0.64803 0.82661 0.0
C3270 C 0.48089 0.65865 0.85406 0.0
C3271 C 0.49862 0.66203 0.86929 0.0
C3272 C 0.46834 0.63886 0.85263 0.0
C3273 C 0.50447 0.64525 0.88254 0.0
C3274 C 0.49186 0.62552 0.88142 0.0
C3275 C 0.45954 0.6035 0.86688 0.0
C3276 C 0.44052 0.60104 0.85302 0.0
C3277 C 0.47346 0.62237 0.86684 0.0
C3278 C 0.43645 0.61688 0.83798 0.0
C3279 C 0.45023 0.63566 0.83781 0.0
H3280 H 0.44444 0.49971 0.85581 0.0
H3281 H 0.39445 0.46182 0.81636 0.0
H3282 H 0.4197 0.4312 0.81072 0.0
H3283 H 0.45482 0.41431 0.82019 0.0
H3284 H 0.50407 0.45274 0.8606 0.0
H3285 H 0.48043 0.4843 0.86236 0.0
C3286 C 0.4393 0.48486 0.84566 0.0
C3287 C 0.41775 0.48263 0.83676 0.0
C3288 C 0.4537 0.46749 0.84278 0.0
C3289 C 0.41101 0.4635 0.82362 0.0
C3290 C 0.42539 0.44611 0.82041 0.0
C3291 C 0.46045 0.42969 0.82912 0.0
C3292 C 0.48098 0.43111 0.84049 0.0
C3293 C 0.4466 0.44773 0.83041 0.0
C3294 C 0.48818 0.45114 0.85193 0.0
C3295 C 0.47471 0.46922 0.85296 0.0
H3296 H 0.72626 0.59455 0.15409 0.0
H3297 H 0.74551 0.63445 0.21361 0.0
H3298 H 0.75118 0.66657 0.19237 0.0
H3299 H 0.74911 0.68344 0.15685 0.0
H3300 H 0.73489 0.64182 0.09711 0.0
H3301 H 0.72951 0.60998 0.11841 0.0
C3302 C 0.7321 0.61016 0.16239 0.0
C3303 C 0.73495 0.61227 0.18542 0.0
C3304 C 0.73623 0.6282 0.15002 0.0
C3305 C 0.74242 0.63263 0.19596 0.0
C3306 C 0.74593 0.65091 0.1838 0.0
C3307 C 0.7451 0.66735 0.14849 0.0
C3308 C 0.74131 0.6652 0.12552 0.0
C3309 C 0.74262 0.64893 0.16082 0.0
C3310 C 0.73668 0.64417 0.11486 0.0
C3311 C 0.73382 0.62588 0.12701 0.0
H3312 H 0.5013 0.73114 0.18275 0.0
H3313 H 0.46953 0.66701 0.18614 0.0
H3314 H 0.44227 0.67532 0.15788 0.0
H3315 H 0.42611 0.70177 0.13433 0.0
H3316 H 0.45612 0.76681 0.13289 0.0
H3317 H 0.48537 0.7574 0.15878 0.0
C3318 C 0.48866 0.71881 0.17701 0.0
C3319 C 0.48753 0.69839 0.18633 0.0
C3320 C 0.4726 0.72404 0.16145 0.0
C3321 C 0.47078 0.68279 0.1791 0.0
C3322 C 0.45515 0.68758 0.16306 0.0
C3323 C 0.43929 0.71373 0.13936 0.0
C3324 C 0.43931 0.7348 0.13148 0.0
C3325 C 0.4557 0.70828 0.15443 0.0
C3326 C 0.45593 0.75047 0.13875 0.0
C3327 C 0.47263 0.74505 0.15344 0.0
H3328 H 0.33263 0.46664 0.17068 0.0
H3329 H 0.37117 0.51747 0.14237 0.0
H3330 H 0.37765 0.49235 0.10976 0.0
H3331 H 0.37471 0.45499 0.09101 0.0
H3332 H 0.33515 0.40452 0.11905 0.0
H3333 H 0.32652 0.43045 0.15014 0.0
C3334 C 0.34218 0.47218 0.15716 0.0
C3335 C 0.35161 0.49358 0.15872 0.0
C3336 C 0.34576 0.45771 0.13865 0.0
C3337 C 0.3638 0.50094 0.14127 0.0
C3338 C 0.36759 0.48659 0.12279 0.0
C3339 C 0.36411 0.44975 0.10389 0.0
C3340 C 0.35583 0.42788 0.103 0.0
C3341 C 0.35906 0.46478 0.12156 0.0
C3342 C 0.34177 0.42131 0.11949 0.0
C3343 C 0.33687 0.43608 0.13727 0.0
H3344 H 0.6024 0.34025 0.17766 0.0
H3345 H 0.57452 0.39132 0.14183 0.0
H3346 H 0.60455 0.38841 0.11546 0.0
H3347 H 0.63987 0.37293 0.10423 0.0
H3348 H 0.66734 0.32085 0.13917 0.0
H3349 H 0.63662 0.32282 0.16469 0.0
C3350 C 0.60292 0.35051 0.1639 0.0
C3351 C 0.58654 0.366 0.16151 0.0
C3352 C 0.62017 0.34866 0.14886 0.0
C3353 C 0.5871 0.37931 0.14379 0.0
C3354 C 0.60425 0.37767 0.12882 0.0
C3355 C 0.63874 0.36142 0.11688 0.0
C3356 C 0.6555 0.34626 0.11937 0.0
C3357 C 0.62098 0.36255 0.13133 0.0
C3358 C 0.65445 0.33244 0.13675 0.0
C3359 C 0.63692 0.33357 0.15133 0.0
H3360 H 0.75649 0.44536 0.97736 0.0
H3361 H 0.68985 0.42559 0.95541 0.0
H3362 H 0.68778 0.45758 0.93406 0.0
H3363 H 0.70415 0.4917 0.92237 0.0
H3364 H 0.77089 0.51194 0.94277 0.0
H3365 H 0.77354 0.47969 0.96441 0.0
C3366 C 0.74168 0.44795 0.96764 0.0
C3367 C 0.72336 0.43307 0.96796 0.0
C3368 C 0.74044 0.46671 0.95551 0.0
C3369 C 0.70416 0.43679 0.95552 0.0
C3370 C 0.70291 0.45513 0.94334 0.0
C3371 C 0.71928 0.48904 0.93158 0.0
C3372 C 0.73716 0.50428 0.93129 0.0
C3373 C 0.7208 0.47031 0.94343 0.0
C3374 C 0.75669 0.50069 0.94323 0.0
C3375 C 0.75829 0.48211 0.95535 0.0
H3376 H 0.6365 0.77552 0.98993 0.0
H3377 H 0.5983 0.72823 0.02392 0.0
H3378 H 0.56813 0.72913 -0.00319 0.0
H3379 H 0.55545 0.7385 0.96036 0.0
H3380 H 0.59414 0.78405 0.9251 0.0
H3381 H 0.62117 0.78908 0.95593 0.0
C3382 C 0.62138 0.76578 0.99164 0.0
C3383 C 0.6198 0.75148 0.00859 0.0
C3384 C 0.6043 0.76595 0.97567 0.0
C3385 C 0.60007 0.73907 0.01075 0.0
C3386 C 0.5828 0.73956 0.99527 0.0
C3387 C 0.56947 0.75003 0.95981 0.0
C3388 C 0.57318 0.76069 0.94062 0.0
C3389 C 0.58513 0.75222 0.9772 0.0
C3390 C 0.59129 0.77556 0.93981 0.0
C3391 C 0.60672 0.77831 0.95733 0.0
H3392 H 0.33385 0.5824 0.9261 0.0
H3393 H 0.40499 0.58501 0.92204 0.0
H3394 H 0.40791 0.61079 0.95492 0.0
H3395 H 0.39032 0.63435 0.98294 0.0
H3396 H 0.31911 0.63512 0.98558 0.0
H3397 H 0.316 0.60623 0.95502 0.0
C3398 C 0.34994 0.58842 0.93272 0.0
C3399 C 0.36921 0.58185 0.92193 0.0
C3400 C 0.35142 0.60395 0.95111 0.0
C3401 C 0.39 0.58994 0.93022 0.0
C3402 C 0.39165 0.60467 0.94893 0.0
C3403 C 0.37408 0.62807 0.97702 0.0
C3404 C 0.35497 0.63678 0.98648 0.0
C3405 C 0.37248 0.61207 0.95922 0.0
C3406 C 0.33406 0.62867 0.97846 0.0
C3407 C 0.33229 0.61217 0.96104 0.0
H3408 H 0.48019 0.35292 0.89126 0.0
H3409 H 0.53216 0.34424 0.93917 0.0
H3410 H 0.50464 0.33119 0.9647 0.0
H3411 H 0.46536 0.32422 0.97375 0.0
H3412 H 0.41424 0.33222 0.92465 0.0
H3413 H 0.442 0.34312 0.89889 0.0
C3414 C 0.48551 0.34822 0.90733 0.0
C3415 C 0.50801 0.34996 0.91363 0.0
C3416 C 0.46978 0.34048 0.92154 0.0
C3417 C 0.51483 0.34321 0.93415 0.0
C3418 C 0.49913 0.33577 0.94868 0.0
C3419 C 0.46041 0.32828 0.95737 0.0
C3420 C 0.43783 0.32778 0.95116 0.0
C3421 C 0.4765 0.33463 0.94263 0.0
C3422 C 0.43154 0.3325 0.92976 0.0
C3423 C 0.44737 0.33889 0.91509 0.0
H3424 H 0.58087 0.74798 0.16561 0.0
H3425 H 0.6341 0.75896 0.21398 0.0
H3426 H 0.66036 0.76425 0.18465 0.0
H3427 H 0.66864 0.76112 0.145 0.0
H3428 H 0.6157 0.74399 0.09735 0.0
H3429 H 0.58878 0.74577 0.12651 0.0
C3430 C 0.59826 0.75115 0.16973 0.0
C3431 C 0.60575 0.7521 0.19176 0.0
C3432 C 0.61328 0.75304 0.15285 0.0
C3433 C 0.62807 0.75775 0.19702 0.0
C3434 C 0.64307 0.76064 0.18028 0.0
C3435 C 0.65121 0.75769 0.14111 0.0
C3436 C 0.64414 0.75212 0.11918 0.0
C3437 C 0.63596 0.75753 0.1581 0.0
C3438 C 0.62149 0.74844 0.11413 0.0
C3439 C 0.60612 0.74926 0.1308 0.0
H3440 H 0.69999 0.33348 0.966 0.0
H3441 H 0.64884 0.35344 0.01083 0.0
H3442 H 0.62062 0.34426 0.98189 0.0
H3443 H 0.61195 0.33692 0.94309 0.0
H3444 H 0.66189 0.31344 0.89819 0.0
H3445 H 0.68958 0.31811 0.92821 0.0
C3446 C 0.68259 0.33533 0.96944 0.0
C3447 C 0.67634 0.34439 0.99022 0.0
C3448 C 0.66648 0.32973 0.95284 0.0
C3449 C 0.65388 0.34651 0.99484 0.0
C3450 C 0.63781 0.34139 0.97831 0.0
C3451 C 0.62837 0.33138 0.93976 0.0
C3452 C 0.63453 0.32447 0.91821 0.0
C3453 C 0.64404 0.3337 0.95708 0.0
C3454 C 0.6566 0.3188 0.91458 0.0
C3455 C 0.67248 0.32153 0.93172 0.0
H3456 H 0.68965 0.62931 0.94716 0.0
H3457 H 0.75851 0.62292 0.96479 0.0
H3458 H 0.75517 0.65077 -0.0041 0.0
H3459 H 0.73271 0.67741 0.01736 0.0
H3460 H 0.66482 0.68596 -0.00265 0.0
H3461 H 0.66761 0.65651 0.9678 0.0
C3462 C 0.70389 0.63391 0.95792 0.0
C3463 C 0.72425 0.62403 0.95393 0.0
C3464 C 0.70195 0.65022 0.97526 0.0
C3465 C 0.7427 0.63039 0.96764 0.0
C3466 C 0.74076 0.64621 0.9854 0.0
C3467 C 0.71848 0.67262 0.00665 0.0
C3468 C 0.69851 0.68357 0.00957 0.0
C3469 C 0.72047 0.65627 0.98929 0.0
C3470 C 0.68031 0.67764 0.99537 0.0
C3471 C 0.68192 0.66087 0.97852 0.0
H3472 H 0.39244 0.72182 0.97678 0.0
H3473 H 0.44099 0.71799 0.02924 0.0
H3474 H 0.47085 0.72297 0.00347 0.0
H3475 H 0.48317 0.72672 0.96573 0.0
H3476 H 0.43502 0.73342 0.91359 0.0
H3477 H 0.40493 0.7294 0.93952 0.0
C3478 C 0.40958 0.72212 0.98251 0.0
C3479 C 0.41456 0.71925 0.0048 0.0
C3480 C 0.42667 0.72563 0.9677 0.0
C3481 C 0.43678 0.7201 0.01215 0.0
C3482 C 0.45384 0.72293 -0.00257 0.0
C3483 C 0.46607 0.72755 0.96012 0.0
C3484 C 0.46126 0.73021 0.93779 0.0
C3485 C 0.44898 0.72551 0.97515 0.0
C3486 C 0.4391 0.73151 0.93074 0.0
C3487 C 0.42192 0.72903 0.94552 0.0
H3488 H 0.33941 0.48593 0.94976 0.0
H3489 H 0.31898 0.43384 0.90059 0.0
H3490 H 0.32819 0.40626 0.92616 0.0
H3491 H 0.34463 0.39709 0.96163 0.0
H3492 H 0.36869 0.44947 0.00889 0.0
H3493 H 0.35605 0.47696 0.98471 0.0
C3494 C 0.33736 0.46856 0.94446 0.0
C3495 C 0.32927 0.46191 0.92308 0.0
C3496 C 0.34361 0.4529 0.95882 0.0
C3497 C 0.3254 0.43935 0.91693 0.0
C3498 C 0.33085 0.42359 0.93146 0.0
C3499 C 0.34741 0.41453 0.96639 0.0
C3500 C 0.35792 0.42137 0.98673 0.0
C3501 C 0.3405 0.43019 0.95223 0.0
C3502 C 0.36076 0.44394 0.99317 0.0
C3503 C 0.35352 0.45961 0.97941 0.0
H3504 H 0.49144 0.36145 0.12557 0.0
H3505 H 0.44581 0.33772 0.17234 0.0
H3506 H 0.41665 0.33276 0.14356 0.0
H3507 H 0.40336 0.33902 0.10604 0.0
H3508 H 0.4497 0.36002 0.05856 0.0
H3509 H 0.47964 0.36199 0.08658 0.0
C3510 C 0.47519 0.35484 0.12928 0.0
C3511 C 0.47053 0.35017 0.15093 0.0
C3512 C 0.45874 0.3517 0.11261 0.0
C3513 C 0.44963 0.34136 0.15569 0.0
C3514 C 0.43298 0.33867 0.1393 0.0
C3515 C 0.42013 0.34366 0.10183 0.0
C3516 C 0.42445 0.34965 0.08052 0.0
C3517 C 0.43721 0.34435 0.11787 0.0
C3518 C 0.44615 0.35536 0.07496 0.0
C3519 C 0.46318 0.3566 0.09097 0.0
H3520 H 0.74951 0.44491 0.08993 0.0
H3521 H 0.68275 0.45746 0.06967 0.0
H3522 H 0.68098 0.48735 0.09902 0.0
H3523 H 0.69682 0.5062 0.13307 0.0
H3524 H 0.76287 0.49179 0.15486 0.0
H3525 H 0.76676 0.46647 0.12211 0.0
C3526 C 0.73489 0.4547 0.09169 0.0
C3527 C 0.71635 0.44944 0.07785 0.0
C3528 C 0.7338 0.4712 0.10899 0.0
C3529 C 0.69721 0.46166 0.08021 0.0
C3530 C 0.69618 0.47853 0.09702 0.0
C3531 C 0.71219 0.49778 0.13051 0.0
C3532 C 0.72939 0.50057 0.14651 0.0
C3533 C 0.71412 0.48291 0.11195 0.0
C3534 C 0.74927 0.48968 0.14289 0.0
C3535 C 0.75152 0.4752 0.12419 0.0
H3536 H 0.32244 0.60347 0.16062 0.0
H3537 H 0.39165 0.61023 0.17993 0.0
H3538 H 0.39846 0.63439 0.15073 0.0
H3539 H 0.3853 0.65294 0.11907 0.0
H3540 H 0.31648 0.64699 0.099 0.0
H3541 H 0.30898 0.62303 0.12877 0.0
C3542 C 0.33892 0.61044 0.15851 0.0
C3543 C 0.35649 0.60503 0.17245 0.0
C3544 C 0.34287 0.62421 0.14133 0.0
C3545 C 0.37783 0.614 0.16939 0.0
C3546 C 0.38179 0.62783 0.15266 0.0
C3547 C 0.36867 0.64634 0.12124 0.0
C3548 C 0.35156 0.65129 0.1067 0.0
C3549 C 0.36453 0.63286 0.13842 0.0
C3550 C 0.33004 0.64285 0.10968 0.0
C3551 C 0.32572 0.62936 0.12682 0.0
loop_
_geom_bond_atom_site_label_1
_geom_bond_atom_site_label_2
_geom_bond_distance
_geom_bond_site_symmetry_2
_ccdc_geom_bond_type
Co0 O3 1.970 1_455 S
Co0 N17 1.989 . S
Co0 O25 1.967 . S
Co0 O32 1.920 1_455 S
Co1 O4 1.966 . S
Co1 N10 2.022 . S
Co1 N18 1.993 . S
Co1 O26 1.941 . S
C2 O3 1.258 1_455 S
C2 O4 1.263 . S
O3 Co0 1.970 1_655 S
O3 C2 1.258 1_655 S
O4 Co1 1.966 . S
O4 C2 1.263 . S
C5 O6 1.235 . S
C5 O32 1.289 . S
O6 C5 1.235 . S
C7 C9 1.400 . S
C7 N10 1.351 . S
C7 C12 1.501 . S
C8 C9 1.387 . S
C8 N11 1.341 . S
C9 C7 1.400 . S
C9 C8 1.387 . S
N10 Co1 2.022 . S
N10 C7 1.351 . S
N10 N11 1.365 . S
N11 C8 1.341 . S
N11 N10 1.365 . S
N11 H31 0.862 . S
C12 C7 1.501 . S
C12 H13 0.961 . S
C12 H14 0.961 . S
C12 H15 0.960 . S
H13 C12 0.961 . S
H14 C12 0.961 . S
H15 C12 0.960 . S
C16 N17 1.342 . S
C16 C20 1.401 . S
C16 C21 1.499 . S
N17 Co0 1.989 . S
N17 C16 1.342 . S
N17 N18 1.388 . S
N18 Co1 1.993 . S
N18 N17 1.388 . S
N18 C19 1.346 . S
C19 N18 1.346 . S
C19 C20 1.396 . S
C19 C29 1.510 . S
C20 C16 1.401 . S
C20 C19 1.396 . S
C21 C16 1.499 . S
C21 H22 0.959 . S
C21 H23 0.960 . S
C21 H24 0.961 . S
H22 C21 0.959 . S
H23 C21 0.960 . S
H24 C21 0.961 . S
O25 Co0 1.967 . S
O25 C33 1.258 . S
O26 Co1 1.941 . S
O26 C33 1.266 . S
H27 C29 0.959 . S
H28 C29 0.961 . S
C29 C19 1.510 . S
C29 H27 0.959 . S
C29 H28 0.961 . S
C29 H30 0.960 . S
H30 C29 0.960 . S
H31 N11 0.862 . S
O32 Co0 1.920 1_655 S
O32 C5 1.289 . S
C33 O25 1.258 . S
C33 O26 1.266 . S
Co34 O37 1.970 . S
Co34 N51 1.989 . S
Co34 O59 1.967 . S
Co34 O66 1.920 . S
Co35 O38 1.966 . S
Co35 N44 2.022 1_545 S
Co35 N52 1.993 . S
Co35 O60 1.941 . S
C36 O37 1.258 . S
C36 O38 1.263 . S
O37 Co34 1.970 . S
O37 C36 1.258 . S
O38 Co35 1.966 . S
O38 C36 1.263 . S
C39 O40 1.235 . S
C39 O66 1.289 . S
O40 C39 1.235 . S
C41 C43 1.400 . S
C41 N44 1.351 . S
C41 C46 1.501 1_565 S
C42 C43 1.387 . S
C42 N45 1.341 . S
C43 C41 1.400 . S
C43 C42 1.387 . S
N44 Co35 2.022 1_565 S
N44 C41 1.351 . S
N44 N45 1.365 . S
N45 C42 1.341 . S
N45 N44 1.365 . S
N45 H65 0.862 . S
C46 C41 1.501 1_545 S
C46 H47 0.961 . S
C46 H48 0.961 . S
C46 H49 0.960 . S
H47 C46 0.961 . S
H48 C46 0.961 . S
H49 C46 0.960 . S
C50 N51 1.342 . S
C50 C54 1.401 1_545 S
C50 C55 1.499 . S
N51 Co34 1.989 . S
N51 C50 1.342 . S
N51 N52 1.388 . S
N52 Co35 1.993 . S
N52 N51 1.388 . S
N52 C53 1.346 1_545 S
C53 N52 1.346 1_565 S
C53 C54 1.396 . S
C53 C63 1.510 . S
C54 C50 1.401 1_565 S
C54 C53 1.396 . S
C55 C50 1.499 . S
C55 H56 0.959 . S
C55 H57 0.960 . S
C55 H58 0.961 . S
H56 C55 0.959 . S
H57 C55 0.960 . S
H58 C55 0.961 . S
O59 Co34 1.967 . S
O59 C67 1.258 . S
O60 Co35 1.941 . S
O60 C67 1.266 . S
H61 C63 0.959 . S
H62 C63 0.961 . S
C63 C53 1.510 . S
C63 H61 0.959 . S
C63 H62 0.961 . S
C63 H64 0.960 . S
H64 C63 0.960 . S
H65 N45 0.862 . S
O66 Co34 1.920 . S
O66 C39 1.289 . S
C67 O59 1.258 . S
C67 O60 1.266 . S
Co68 O71 1.970 . S
Co68 N85 1.989 . S
Co68 O93 1.967 . S
Co68 O100 1.912 1_455 S
Co69 O72 1.966 . S
Co69 N78 2.022 . S
Co69 N86 1.993 . S
Co69 O94 1.941 . S
C70 O71 1.258 . S
C70 O72 1.263 . S
O71 Co68 1.970 . S
O71 C70 1.258 . S
O72 Co69 1.966 . S
O72 C70 1.263 . S
C73 O74 1.235 . S
C73 O100 1.295 . S
O74 C73 1.235 . S
C75 C77 1.400 . S
C75 N78 1.351 . S
C75 C80 1.501 . S
C76 C77 1.387 . S
C76 N79 1.341 . S
C77 C75 1.400 . S
C77 C76 1.387 . S
N78 Co69 2.022 . S
N78 C75 1.351 . S
N78 N79 1.365 . S
N79 C76 1.341 . S
N79 N78 1.365 . S
N79 H99 0.862 . S
C80 C75 1.501 . S
C80 H81 0.961 . S
C80 H82 0.961 . S
C80 H83 0.960 . S
H81 C80 0.961 . S
H82 C80 0.961 . S
H83 C80 0.960 . S
C84 N85 1.342 . S
C84 C88 1.401 . S
C84 C89 1.499 . S
N85 Co68 1.989 . S
N85 C84 1.342 . S
N85 N86 1.388 . S
N86 Co69 1.993 . S
N86 N85 1.388 . S
N86 C87 1.346 . S
C87 N86 1.346 . S
C87 C88 1.396 . S
C87 C97 1.510 . S
C88 C84 1.401 . S
C88 C87 1.396 . S
C89 C84 1.499 . S
C89 H90 0.959 . S
C89 H91 0.960 . S
C89 H92 0.961 . S
H90 C89 0.959 . S
H91 C89 0.960 . S
H92 C89 0.961 . S
O93 Co68 1.967 . S
O93 C101 1.258 . S
O94 Co69 1.941 . S
O94 C101 1.266 . S
H95 C97 0.959 . S
H96 C97 0.961 . S
C97 C87 1.510 . S
C97 H95 0.959 . S
C97 H96 0.961 . S
C97 H98 0.960 . S
H98 C97 0.960 . S
H99 N79 0.862 . S
O100 Co68 1.912 1_655 S
O100 C73 1.295 . S
C101 O93 1.258 . S
C101 O94 1.266 . S
Co102 O105 1.970 . S
Co102 N119 1.989 . S
Co102 O127 1.967 . S
Co102 O134 1.920 . S
Co103 O106 1.966 . S
Co103 N112 2.022 . S
Co103 N120 1.993 . S
Co103 O128 1.941 . S
C104 O105 1.258 . S
C104 O106 1.263 . S
O105 Co102 1.970 . S
O105 C104 1.258 . S
O106 Co103 1.966 . S
O106 C104 1.263 . S
C107 O108 1.235 . S
C107 O134 1.289 1_565 S
O108 C107 1.235 . S
C109 C111 1.400 . S
C109 N112 1.351 . S
C109 C114 1.501 . S
C110 C111 1.387 . S
C110 N113 1.341 . S
C111 C109 1.400 . S
C111 C110 1.387 . S
N112 Co103 2.022 . S
N112 C109 1.351 . S
N112 N113 1.365 . S
N113 C110 1.341 . S
N113 N112 1.365 . S
N113 H133 0.862 . S
C114 C109 1.501 . S
C114 H115 0.961 . S
C114 H116 0.961 . S
C114 H117 0.960 . S
H115 C114 0.961 . S
H116 C114 0.961 . S
H117 C114 0.960 . S
C118 N119 1.342 . S
C118 C122 1.401 . S
C118 C123 1.499 . S
N119 Co102 1.989 . S
N119 C118 1.342 . S
N119 N120 1.388 . S
N120 Co103 1.993 . S
N120 N119 1.388 . S
N120 C121 1.346 . S
C121 N120 1.346 . S
C121 C122 1.396 . S
C121 C131 1.510 . S
C122 C118 1.401 . S
C122 C121 1.396 . S
C123 C118 1.499 . S
C123 H124 0.959 . S
C123 H125 0.960 . S
C123 H126 0.961 . S
H124 C123 0.959 . S
H125 C123 0.960 . S
H126 C123 0.961 . S
O127 Co102 1.967 . S
O127 C135 1.258 . S
O128 Co103 1.941 . S
O128 C135 1.266 . S
H129 C131 0.959 . S
H130 C131 0.961 . S
C131 C121 1.510 . S
C131 H129 0.959 . S
C131 H130 0.961 . S
C131 H132 0.960 . S
H132 C131 0.960 . S
H133 N113 0.862 . S
O134 Co102 1.920 . S
O134 C107 1.289 1_545 S
C135 O127 1.258 . S
C135 O128 1.266 . S
Co136 O139 1.970 1_455 S
Co136 N153 1.989 . S
Co136 O161 1.967 . S
Co136 O168 1.920 1_455 S
Co137 O140 1.966 . S
Co137 N146 2.022 . S
Co137 N154 1.993 . S
Co137 O162 1.941 . S
C138 O139 1.258 1_455 S
C138 O140 1.263 . S
O139 Co136 1.970 1_655 S
O139 C138 1.258 1_655 S
O140 Co137 1.966 . S
O140 C138 1.263 . S
C141 O142 1.235 . S
C141 O168 1.289 . S
O142 C141 1.235 . S
C143 C145 1.400 . S
C143 N146 1.351 . S
C143 C148 1.501 . S
C144 C145 1.387 . S
C144 N147 1.341 . S
C145 C143 1.400 . S
C145 C144 1.387 . S
N146 Co137 2.022 . S
N146 C143 1.351 . S
N146 N147 1.365 . S
N147 C144 1.341 . S
N147 N146 1.365 . S
N147 H167 0.862 . S
C148 C143 1.501 . S
C148 H149 0.961 . S
C148 H150 0.961 . S
C148 H151 0.960 . S
H149 C148 0.961 . S
H150 C148 0.961 . S
H151 C148 0.960 . S
C152 N153 1.342 . S
C152 C156 1.401 . S
C152 C157 1.499 . S
N153 Co136 1.989 . S
N153 C152 1.342 . S
N153 N154 1.388 . S
N154 Co137 1.993 . S
N154 N153 1.388 . S
N154 C155 1.346 . S
C155 N154 1.346 . S
C155 C156 1.396 . S
C155 C165 1.510 . S
C156 C152 1.401 . S
C156 C155 1.396 . S
C157 C152 1.499 . S
C157 H158 0.959 . S
C157 H159 0.960 . S
C157 H160 0.961 . S
H158 C157 0.959 . S
H159 C157 0.960 . S
H160 C157 0.961 . S
O161 Co136 1.967 . S
O161 C169 1.258 . S
O162 Co137 1.941 . S
O162 C169 1.266 . S
H163 C165 0.959 . S
H164 C165 0.961 . S
C165 C155 1.510 . S
C165 H163 0.959 . S
C165 H164 0.961 . S
C165 H166 0.960 . S
H166 C165 0.960 . S
H167 N147 0.862 . S
O168 Co136 1.920 1_655 S
O168 C141 1.289 . S
C169 O161 1.258 . S
C169 O162 1.266 . S
Co170 O173 1.970 . S
Co170 N187 1.989 . S
Co170 O195 1.967 . S
Co170 O202 1.920 . S
Co171 O174 1.966 . S
Co171 N180 2.022 . S
Co171 N188 1.993 . S
Co171 O196 1.941 . S
C172 O173 1.258 . S
C172 O174 1.263 . S
O173 Co170 1.970 . S
O173 C172 1.258 . S
O174 Co171 1.966 . S
O174 C172 1.263 . S
C175 O176 1.235 . S
C175 O202 1.289 . S
O176 C175 1.235 . S
C177 C179 1.400 1_545 S
C177 N180 1.351 . S
C177 C182 1.501 . S
C178 C179 1.387 . S
C178 N181 1.341 1_565 S
C179 C177 1.400 1_565 S
C179 C178 1.387 . S
N180 Co171 2.022 . S
N180 C177 1.351 . S
N180 N181 1.365 . S
N181 C178 1.341 1_545 S
N181 N180 1.365 . S
N181 H201 0.871 . S
C182 C177 1.501 . S
C182 H183 0.961 . S
C182 H184 0.961 . S
C182 H185 0.960 . S
H183 C182 0.961 . S
H184 C182 0.961 . S
H185 C182 0.960 . S
C186 N187 1.342 . S
C186 C190 1.401 . S
C186 C191 1.499 . S
N187 Co170 1.989 . S
N187 C186 1.342 . S
N187 N188 1.388 . S
N188 Co171 1.993 . S
N188 N187 1.388 . S
N188 C189 1.346 . S
C189 N188 1.346 . S
C189 C190 1.396 . S
C189 C199 1.510 . S
C190 C186 1.401 . S
C190 C189 1.396 . S
C191 C186 1.499 . S
C191 H192 0.959 . S
C191 H193 0.960 . S
C191 H194 0.961 . S
H192 C191 0.959 . S
H193 C191 0.960 . S
H194 C191 0.961 . S
O195 Co170 1.967 . S
O195 C203 1.258 . S
O196 Co171 1.941 . S
O196 C203 1.266 . S
H197 C199 0.959 1_565 S
H198 C199 0.961 1_565 S
C199 C189 1.510 . S
C199 H197 0.959 1_545 S
C199 H198 0.961 1_545 S
C199 H200 0.960 . S
H200 C199 0.960 . S
H201 N181 0.871 . S
O202 Co170 1.920 . S
O202 C175 1.289 . S
C203 O195 1.258 . S
C203 O196 1.266 . S
Co204 O207 1.970 1_455 S
Co204 N221 1.989 . S
Co204 O229 1.967 . S
Co204 O236 1.920 1_455 S
Co205 O208 1.966 . S
Co205 N214 2.022 . S
Co205 N222 1.993 . S
Co205 O230 1.941 . S
C206 O207 1.257 1_455 S
C206 O208 1.265 . S
O207 Co204 1.970 1_655 S
O207 C206 1.257 1_655 S
O208 Co205 1.966 . S
O208 C206 1.265 . S
C209 O210 1.235 . S
C209 O236 1.289 . S
O210 C209 1.235 . S
C211 C213 1.400 . S
C211 N214 1.351 . S
C211 C216 1.501 . S
C212 C213 1.387 . S
C212 N215 1.341 . S
C213 C211 1.400 . S
C213 C212 1.387 . S
N214 Co205 2.022 . S
N214 C211 1.351 . S
N214 N215 1.365 . S
N215 C212 1.341 . S
N215 N214 1.365 . S
N215 H235 0.862 . S
C216 C211 1.501 . S
C216 H217 0.961 . S
C216 H218 0.961 . S
C216 H219 0.960 . S
H217 C216 0.961 . S
H218 C216 0.961 . S
H219 C216 0.960 . S
C220 N221 1.342 . S
C220 C224 1.401 . S
C220 C225 1.499 . S
N221 Co204 1.989 . S
N221 C220 1.342 . S
N221 N222 1.388 . S
N222 Co205 1.993 . S
N222 N221 1.388 . S
N222 C223 1.346 . S
C223 N222 1.346 . S
C223 C224 1.396 . S
C223 C233 1.510 . S
C224 C220 1.401 . S
C224 C223 1.396 . S
C225 C220 1.499 . S
C225 H226 0.959 . S
C225 H227 0.960 . S
C225 H228 0.961 . S
H226 C225 0.959 . S
H227 C225 0.960 . S
H228 C225 0.961 . S
O229 Co204 1.967 . S
O229 C237 1.258 . S
O230 Co205 1.941 . S
O230 C237 1.266 . S
H231 C233 0.959 . S
H232 C233 0.961 . S
C233 C223 1.510 . S
C233 H231 0.959 . S
C233 H232 0.961 . S
C233 H234 0.960 . S
H234 C233 0.960 . S
H235 N215 0.862 . S
O236 Co204 1.920 1_655 S
O236 C209 1.289 . S
C237 O229 1.258 . S
C237 O230 1.266 . S
Co238 O241 1.970 . S
Co238 N255 1.989 . S
Co238 O263 1.967 . S
Co238 O270 1.920 . S
Co239 O242 1.966 . S
Co239 N248 2.025 . S
Co239 N256 1.993 . S
Co239 O264 1.941 . S
C240 O241 1.258 . S
C240 O242 1.263 . S
O241 Co238 1.970 . S
O241 C240 1.258 . S
O242 Co239 1.966 . S
O242 C240 1.263 . S
C243 O244 1.235 . S
C243 O270 1.289 . S
O244 C243 1.235 . S
C245 C247 1.400 . S
C245 N248 1.350 1_565 S
C245 C250 1.501 1_565 S
C246 C247 1.387 . S
C246 N249 1.341 . S
C247 C245 1.400 . S
C247 C246 1.387 . S
N248 Co239 2.025 . S
N248 C245 1.350 1_545 S
N248 N249 1.363 1_545 S
N249 C246 1.341 . S
N249 N248 1.363 1_565 S
N249 H269 0.862 . S
C250 C245 1.501 1_545 S
C250 H251 0.961 . S
C250 H252 0.961 . S
C250 H253 0.960 . S
H251 C250 0.961 . S
H252 C250 0.961 . S
H253 C250 0.960 . S
C254 N255 1.342 . S
C254 C258 1.401 . S
C254 C259 1.499 . S
N255 Co238 1.989 . S
N255 C254 1.342 . S
N255 N256 1.388 . S
N256 Co239 1.993 . S
N256 N255 1.388 . S
N256 C257 1.346 . S
C257 N256 1.346 . S
C257 C258 1.396 . S
C257 C267 1.510 1_545 S
C258 C254 1.401 . S
C258 C257 1.396 . S
C259 C254 1.499 . S
C259 H260 0.959 . S
C259 H261 0.960 . S
C259 H262 0.961 . S
H260 C259 0.959 . S
H261 C259 0.960 . S
H262 C259 0.961 . S
O263 Co238 1.967 . S
O263 C271 1.258 . S
O264 Co239 1.941 . S
O264 C271 1.266 . S
H265 C267 0.959 . S
H266 C267 0.961 . S
C267 C257 1.510 1_565 S
C267 H265 0.959 . S
C267 H266 0.961 . S
C267 H268 0.960 . S
H268 C267 0.960 . S
H269 N249 0.862 . S
O270 Co238 1.920 . S
O270 C243 1.289 . S
C271 O263 1.258 . S
C271 O264 1.266 . S
Co272 O275 1.970 . S
Co272 N289 1.989 . S
Co272 O297 1.967 . S
Co272 O304 1.920 . S
Co273 O276 1.966 . S
Co273 N282 2.022 . S
Co273 N290 1.993 . S
Co273 O298 1.941 . S
C274 O275 1.258 . S
C274 O276 1.263 . S
O275 Co272 1.970 . S
O275 C274 1.258 . S
O276 Co273 1.966 . S
O276 C274 1.263 . S
C277 O278 1.235 . S
C277 O304 1.289 . S
O278 C277 1.235 . S
C279 C281 1.400 . S
C279 N282 1.351 . S
C279 C284 1.501 . S
C280 C281 1.387 . S
C280 N283 1.341 . S
C281 C279 1.400 . S
C281 C280 1.387 . S
N282 Co273 2.022 . S
N282 C279 1.351 . S
N282 N283 1.365 . S
N283 C280 1.341 . S
N283 N282 1.365 . S
N283 H303 0.862 . S
C284 C279 1.501 . S
C284 H285 0.961 . S
C284 H286 0.961 . S
C284 H287 0.960 . S
H285 C284 0.961 . S
H286 C284 0.961 . S
H287 C284 0.960 . S
C288 N289 1.342 . S
C288 C292 1.401 . S
C288 C293 1.499 . S
N289 Co272 1.989 . S
N289 C288 1.342 . S
N289 N290 1.388 . S
N290 Co273 1.993 . S
N290 N289 1.388 . S
N290 C291 1.346 . S
C291 N290 1.346 . S
C291 C292 1.396 . S
C291 C301 1.510 . S
C292 C288 1.401 . S
C292 C291 1.396 . S
C293 C288 1.499 . S
C293 H294 0.959 . S
C293 H295 0.960 . S
C293 H296 0.961 . S
H294 C293 0.959 . S
H295 C293 0.960 . S
H296 C293 0.961 . S
O297 Co272 1.967 . S
O297 C305 1.258 . S
O298 Co273 1.941 . S
O298 C305 1.266 . S
H299 C301 0.959 . S
H300 C301 0.961 . S
C301 C291 1.510 . S
C301 H299 0.959 . S
C301 H300 0.961 . S
C301 H302 0.960 . S
H302 C301 0.960 . S
H303 N283 0.862 . S
O304 Co272 1.920 . S
O304 C277 1.289 . S
C305 O297 1.258 . S
C305 O298 1.266 . S
Co306 O309 1.970 . S
Co306 N323 1.989 . S
Co306 O331 1.967 . S
Co306 O338 1.920 . S
Co307 O310 1.966 . S
Co307 N316 2.056 . S
Co307 N324 1.993 . S
Co307 O332 1.941 . S
C308 O309 1.258 . S
C308 O310 1.263 . S
O309 Co306 1.970 . S
O309 C308 1.258 . S
O310 Co307 1.966 . S
O310 C308 1.263 . S
C311 O312 1.235 . S
C311 O338 1.289 . S
O312 C311 1.235 . S
C313 C315 1.400 . S
C313 N316 1.344 1_556 S
C313 C318 1.501 1_556 S
C314 C315 1.387 . S
C314 N317 1.341 . S
C315 C313 1.400 . S
C315 C314 1.387 . S
N316 Co307 2.056 . S
N316 C313 1.344 1_554 S
N316 N317 1.326 1_554 S
N317 C314 1.341 . S
N317 N316 1.326 1_556 S
N317 H337 0.862 . S
C318 C313 1.501 1_554 S
C318 H319 0.961 . S
C318 H320 0.961 . S
C318 H321 0.960 . S
H319 C318 0.961 . S
H320 C318 0.961 . S
H321 C318 0.960 . S
C322 N323 1.342 . S
C322 C326 1.401 1_554 S
C322 C327 1.499 . S
N323 Co306 1.989 . S
N323 C322 1.342 . S
N323 N324 1.388 . S
N324 Co307 1.993 . S
N324 N323 1.388 . S
N324 C325 1.346 1_554 S
C325 N324 1.346 1_556 S
C325 C326 1.396 . S
C325 C335 1.510 . S
C326 C322 1.401 1_556 S
C326 C325 1.396 . S
C327 C322 1.499 . S
C327 H328 0.959 . S
C327 H329 0.960 . S
C327 H330 0.961 . S
H328 C327 0.959 . S
H329 C327 0.960 . S
H330 C327 0.961 . S
O331 Co306 1.967 . S
O331 C339 1.258 . S
O332 Co307 1.941 . S
O332 C339 1.266 . S
H333 C335 0.959 . S
H334 C335 0.961 . S
C335 C325 1.510 . S
C335 H333 0.959 . S
C335 H334 0.961 . S
C335 H336 0.960 . S
H336 C335 0.960 . S
H337 N317 0.862 . S
O338 Co306 1.920 . S
O338 C311 1.289 . S
C339 O331 1.258 . S
C339 O332 1.266 . S
Co340 O343 1.970 . S
Co340 N357 1.989 . S
Co340 O365 1.967 . S
Co340 O372 1.920 . S
Co341 O344 1.966 . S
Co341 N350 2.022 . S
Co341 N358 1.993 . S
Co341 O366 1.941 . S
C342 O343 1.258 . S
C342 O344 1.263 . S
O343 Co340 1.970 . S
O343 C342 1.258 . S
O344 Co341 1.966 . S
O344 C342 1.263 . S
C345 O346 1.235 . S
C345 O372 1.289 1_556 S
O346 C345 1.235 . S
C347 C349 1.400 . S
C347 N350 1.351 . S
C347 C352 1.501 . S
C348 C349 1.387 . S
C348 N351 1.341 . S
C349 C347 1.400 . S
C349 C348 1.387 . S
N350 Co341 2.022 . S
N350 C347 1.351 . S
N350 N351 1.365 . S
N351 C348 1.341 . S
N351 N350 1.365 . S
N351 H371 0.862 . S
C352 C347 1.501 . S
C352 H353 0.961 . S
C352 H354 0.961 . S
C352 H355 0.960 . S
H353 C352 0.961 . S
H354 C352 0.961 . S
H355 C352 0.960 . S
C356 N357 1.342 . S
C356 C360 1.401 . S
C356 C361 1.499 . S
N357 Co340 1.989 . S
N357 C356 1.342 . S
N357 N358 1.388 . S
N358 Co341 1.993 . S
N358 N357 1.388 . S
N358 C359 1.346 . S
C359 N358 1.346 . S
C359 C360 1.396 . S
C359 C369 1.510 . S
C360 C356 1.401 . S
C360 C359 1.396 . S
C361 C356 1.499 . S
C361 H362 0.959 . S
C361 H363 0.960 . S
C361 H364 0.961 . S
H362 C361 0.959 . S
H363 C361 0.960 . S
H364 C361 0.961 . S
O365 Co340 1.967 . S
O365 C373 1.258 . S
O366 Co341 1.941 . S
O366 C373 1.266 . S
H367 C369 0.959 . S
H368 C369 0.961 . S
C369 C359 1.510 . S
C369 H367 0.959 . S
C369 H368 0.961 . S
C369 H370 0.960 . S
H370 C369 0.960 . S
H371 N351 0.862 . S
O372 Co340 1.920 . S
O372 C345 1.289 1_554 S
C373 O365 1.258 . S
C373 O366 1.266 . S
Co374 O377 1.970 . S
Co374 N391 1.989 . S
Co374 O399 1.967 . S
Co374 O406 1.920 . S
Co375 O378 1.966 . S
Co375 N384 2.022 1_554 S
Co375 N392 1.993 . S
Co375 O400 1.941 . S
C376 O377 1.258 . S
C376 O378 1.263 . S
O377 Co374 1.970 . S
O377 C376 1.258 . S
O378 Co375 1.966 . S
O378 C376 1.263 . S
C379 O380 1.235 . S
C379 O406 1.289 . S
O380 C379 1.235 . S
C381 C383 1.400 . S
C381 N384 1.351 . S
C381 C386 1.501 1_556 S
C382 C383 1.387 . S
C382 N385 1.341 . S
C383 C381 1.400 . S
C383 C382 1.387 . S
N384 Co375 2.022 1_556 S
N384 C381 1.351 . S
N384 N385 1.365 . S
N385 C382 1.341 . S
N385 N384 1.365 . S
N385 H405 0.862 . S
C386 C381 1.501 1_554 S
C386 H387 0.961 . S
C386 H388 0.958 1_554 S
C386 H389 0.960 . S
H387 C386 0.961 . S
H388 C386 0.958 1_556 S
H389 C386 0.960 . S
C390 N391 1.342 . S
C390 C394 1.401 1_554 S
C390 C395 1.499 . S
N391 Co374 1.989 . S
N391 C390 1.342 . S
N391 N392 1.388 . S
N392 Co375 1.993 . S
N392 N391 1.388 . S
N392 C393 1.346 1_554 S
C393 N392 1.346 1_556 S
C393 C394 1.396 . S
C393 C403 1.510 . S
C394 C390 1.401 1_556 S
C394 C393 1.396 . S
C395 C390 1.499 . S
C395 H396 0.959 . S
C395 H397 0.960 . S
C395 H398 0.961 . S
H396 C395 0.959 . S
H397 C395 0.960 . S
H398 C395 0.961 . S
O399 Co374 1.967 . S
O399 C407 1.258 . S
O400 Co375 1.941 . S
O400 C407 1.266 . S
H401 C403 0.959 . S
H402 C403 0.961 . S
C403 C393 1.510 . S
C403 H401 0.959 . S
C403 H402 0.961 . S
C403 H404 0.960 . S
H404 C403 0.960 . S
H405 N385 0.862 . S
O406 Co374 1.920 . S
O406 C379 1.289 . S
C407 O399 1.258 . S
C407 O400 1.266 . S
Co408 O411 1.970 . S
Co408 N425 1.989 1_655 S
Co408 O433 1.967 1_655 S
Co408 O440 1.920 . S
Co409 O412 1.966 . S
Co409 N418 2.022 . S
Co409 N426 1.993 . S
Co409 O434 1.941 . S
C410 O411 1.258 . S
C410 O412 1.263 1_655 S
O411 Co408 1.970 . S
O411 C410 1.258 . S
O412 Co409 1.966 . S
O412 C410 1.263 1_455 S
C413 O414 1.235 . S
C413 O440 1.289 . S
O414 C413 1.235 . S
C415 C417 1.400 . S
C415 N418 1.351 . S
C415 C420 1.501 . S
C416 C417 1.387 . S
C416 N419 1.341 . S
C417 C415 1.400 . S
C417 C416 1.387 . S
N418 Co409 2.022 . S
N418 C415 1.351 . S
N418 N419 1.365 . S
N419 C416 1.341 . S
N419 N418 1.365 . S
N419 H439 0.862 . S
C420 C415 1.501 . S
C420 H421 0.961 . S
C420 H422 0.961 . S
C420 H423 0.960 . S
H421 C420 0.961 . S
H422 C420 0.961 . S
H423 C420 0.960 . S
C424 N425 1.342 . S
C424 C428 1.401 . S
C424 C429 1.499 . S
N425 Co408 1.989 1_455 S
N425 C424 1.342 . S
N425 N426 1.388 . S
N426 Co409 1.993 . S
N426 N425 1.388 . S
N426 C427 1.346 . S
C427 N426 1.346 . S
C427 C428 1.396 . S
C427 C437 1.510 . S
C428 C424 1.401 . S
C428 C427 1.396 . S
C429 C424 1.499 . S
C429 H430 0.959 . S
C429 H431 0.960 . S
C429 H432 0.961 . S
H430 C429 0.959 . S
H431 C429 0.960 . S
H432 C429 0.961 . S
O433 Co408 1.967 1_455 S
O433 C441 1.258 . S
O434 Co409 1.941 . S
O434 C441 1.266 . S
H435 C437 0.959 . S
H436 C437 0.961 . S
C437 C427 1.510 . S
C437 H435 0.959 . S
C437 H436 0.961 . S
C437 H438 0.960 . S
H438 C437 0.960 . S
H439 N419 0.862 . S
O440 Co408 1.920 . S
O440 C413 1.289 . S
C441 O433 1.258 . S
C441 O434 1.266 . S
Co442 O445 1.970 . S
Co442 N459 1.989 . S
Co442 O467 1.967 . S
Co442 O474 1.920 . S
Co443 O446 1.966 . S
Co443 N452 2.022 . S
Co443 N460 1.993 . S
Co443 O468 1.941 . S
C444 O445 1.258 . S
C444 O446 1.263 . S
O445 Co442 1.970 . S
O445 C444 1.258 . S
O446 Co443 1.966 . S
O446 C444 1.263 . S
C447 O448 1.235 . S
C447 O474 1.289 . S
O448 C447 1.235 . S
C449 C451 1.400 . S
C449 N452 1.351 . S
C449 C454 1.501 . S
C450 C451 1.387 . S
C450 N453 1.341 . S
C451 C449 1.400 . S
C451 C450 1.387 . S
N452 Co443 2.022 . S
N452 C449 1.351 . S
N452 N453 1.365 . S
N453 C450 1.341 . S
N453 N452 1.365 . S
N453 H473 0.862 . S
C454 C449 1.501 . S
C454 H455 0.961 . S
C454 H456 0.961 . S
C454 H457 0.960 . S
H455 C454 0.961 . S
H456 C454 0.961 . S
H457 C454 0.960 . S
C458 N459 1.342 . S
C458 C462 1.401 . S
C458 C463 1.499 . S
N459 Co442 1.989 . S
N459 C458 1.342 . S
N459 N460 1.388 . S
N460 Co443 1.993 . S
N460 N459 1.388 . S
N460 C461 1.346 . S
C461 N460 1.346 . S
C461 C462 1.396 . S
C461 C471 1.510 . S
C462 C458 1.401 . S
C462 C461 1.396 . S
C463 C458 1.499 . S
C463 H464 0.959 . S
C463 H465 0.960 . S
C463 H466 0.961 . S
H464 C463 0.959 . S
H465 C463 0.960 . S
H466 C463 0.961 . S
O467 Co442 1.967 . S
O467 C475 1.258 . S
O468 Co443 1.941 . S
O468 C475 1.266 . S
H469 C471 0.959 . S
H470 C471 0.961 . S
C471 C461 1.510 . S
C471 H469 0.959 . S
C471 H470 0.961 . S
C471 H472 0.960 . S
H472 C471 0.960 . S
H473 N453 0.862 . S
O474 Co442 1.920 . S
O474 C447 1.289 . S
C475 O467 1.258 . S
C475 O468 1.266 . S
Co476 O479 1.970 1_455 S
Co476 N493 1.989 . S
Co476 O501 1.967 . S
Co476 O508 1.920 1_455 S
Co477 O480 1.966 . S
Co477 N486 2.022 . S
Co477 N494 1.993 . S
Co477 O502 1.941 . S
C478 O479 1.270 . S
C478 O480 1.223 1_655 S
O479 Co476 1.970 1_655 S
O479 C478 1.270 . S
O480 Co477 1.966 . S
O480 C478 1.223 1_455 S
C481 O482 1.235 . S
C481 O508 1.289 . S
O482 C481 1.235 . S
C483 C485 1.400 . S
C483 N486 1.351 . S
C483 C488 1.501 . S
C484 C485 1.387 . S
C484 N487 1.341 . S
C485 C483 1.400 . S
C485 C484 1.387 . S
N486 Co477 2.022 . S
N486 C483 1.351 . S
N486 N487 1.365 . S
N487 C484 1.341 . S
N487 N486 1.365 . S
N487 H507 0.862 . S
C488 C483 1.501 . S
C488 H489 0.961 . S
C488 H490 0.961 . S
C488 H491 0.960 . S
H489 C488 0.961 . S
H490 C488 0.961 . S
H491 C488 0.960 . S
C492 N493 1.342 . S
C492 C496 1.401 . S
C492 C497 1.499 . S
N493 Co476 1.989 . S
N493 C492 1.342 . S
N493 N494 1.388 . S
N494 Co477 1.993 . S
N494 N493 1.388 . S
N494 C495 1.346 . S
C495 N494 1.346 . S
C495 C496 1.396 . S
C495 C505 1.510 . S
C496 C492 1.401 . S
C496 C495 1.396 . S
C497 C492 1.499 . S
C497 H498 0.959 . S
C497 H499 0.960 . S
C497 H500 0.961 . S
H498 C497 0.959 . S
H499 C497 0.960 . S
H500 C497 0.961 . S
O501 Co476 1.967 . S
O501 C509 1.258 . S
O502 Co477 1.941 . S
O502 C509 1.266 . S
H503 C505 0.959 . S
H504 C505 0.961 . S
C505 C495 1.510 . S
C505 H503 0.959 . S
C505 H504 0.961 . S
C505 H506 0.960 . S
H506 C505 0.960 . S
H507 N487 0.862 . S
O508 Co476 1.920 1_655 S
O508 C481 1.289 . S
C509 O501 1.258 . S
C509 O502 1.266 . S
Co510 O513 1.970 . S
Co510 N527 1.989 . S
Co510 O535 1.967 . S
Co510 O542 1.920 . S
Co511 O514 1.966 . S
Co511 N520 2.022 . S
Co511 N528 1.993 . S
Co511 O536 1.941 . S
C512 O513 1.258 . S
C512 O514 1.263 . S
O513 Co510 1.970 . S
O513 C512 1.258 . S
O514 Co511 1.966 . S
O514 C512 1.263 . S
C515 O516 1.235 . S
C515 O542 1.289 . S
O516 C515 1.235 . S
C517 C519 1.400 . S
C517 N520 1.351 . S
C517 C522 1.501 . S
C518 C519 1.387 . S
C518 N521 1.341 . S
C519 C517 1.400 . S
C519 C518 1.387 . S
N520 Co511 2.022 . S
N520 C517 1.351 . S
N520 N521 1.365 . S
N521 C518 1.341 . S
N521 N520 1.365 . S
N521 H541 0.862 . S
C522 C517 1.501 . S
C522 H523 0.961 . S
C522 H524 0.961 . S
C522 H525 0.960 . S
H523 C522 0.961 . S
H524 C522 0.961 . S
H525 C522 0.960 . S
C526 N527 1.342 . S
C526 C530 1.401 . S
C526 C531 1.499 . S
N527 Co510 1.989 . S
N527 C526 1.342 . S
N527 N528 1.388 . S
N528 Co511 1.993 . S
N528 N527 1.388 . S
N528 C529 1.346 . S
C529 N528 1.346 . S
C529 C530 1.396 . S
C529 C539 1.510 . S
C530 C526 1.401 . S
C530 C529 1.396 . S
C531 C526 1.499 . S
C531 H532 0.959 . S
C531 H533 0.960 . S
C531 H534 0.961 . S
H532 C531 0.959 . S
H533 C531 0.960 . S
H534 C531 0.961 . S
O535 Co510 1.967 . S
O535 C543 1.258 . S
O536 Co511 1.941 . S
O536 C543 1.266 . S
H537 C539 0.959 . S
H538 C539 0.961 . S
C539 C529 1.510 . S
C539 H537 0.959 . S
C539 H538 0.961 . S
C539 H540 0.960 . S
H540 C539 0.960 . S
H541 N521 0.862 . S
O542 Co510 1.920 . S
O542 C515 1.289 . S
C543 O535 1.258 . S
C543 O536 1.266 . S
Co544 O547 1.970 . S
Co544 N561 1.989 . S
Co544 O569 1.967 . S
Co544 O576 1.920 . S
Co545 O548 1.966 . S
Co545 N554 2.022 . S
Co545 N562 1.993 . S
Co545 O570 1.941 . S
C546 O547 1.258 . S
C546 O548 1.263 . S
O547 Co544 1.970 . S
O547 C546 1.258 . S
O548 Co545 1.966 . S
O548 C546 1.263 . S
C549 O550 1.230 1_655 S
C549 O576 1.268 1_655 S
O550 C549 1.230 1_455 S
C551 C553 1.400 . S
C551 N554 1.351 . S
C551 C556 1.501 . S
C552 C553 1.387 . S
C552 N555 1.341 . S
C553 C551 1.400 . S
C553 C552 1.387 . S
N554 Co545 2.022 . S
N554 C551 1.351 . S
N554 N555 1.365 . S
N555 C552 1.341 . S
N555 N554 1.365 . S
N555 H575 0.862 . S
C556 C551 1.501 . S
C556 H557 0.961 . S
C556 H558 0.961 . S
C556 H559 0.960 . S
H557 C556 0.961 . S
H558 C556 0.961 . S
H559 C556 0.960 . S
C560 N561 1.342 . S
C560 C564 1.401 . S
C560 C565 1.499 . S
N561 Co544 1.989 . S
N561 C560 1.342 . S
N561 N562 1.388 . S
N562 Co545 1.993 . S
N562 N561 1.388 . S
N562 C563 1.346 . S
C563 N562 1.346 . S
C563 C564 1.396 . S
C563 C573 1.510 . S
C564 C560 1.401 . S
C564 C563 1.396 . S
C565 C560 1.499 . S
C565 H566 0.959 . S
C565 H567 0.960 . S
C565 H568 0.961 . S
H566 C565 0.959 . S
H567 C565 0.960 . S
H568 C565 0.961 . S
O569 Co544 1.967 . S
O569 C577 1.258 . S
O570 Co545 1.941 . S
O570 C577 1.266 . S
H571 C573 0.959 . S
H572 C573 0.961 . S
C573 C563 1.510 . S
C573 H571 0.959 . S
C573 H572 0.961 . S
C573 H574 0.960 . S
H574 C573 0.960 . S
H575 N555 0.862 . S
O576 Co544 1.920 . S
O576 C549 1.268 1_455 S
C577 O569 1.258 . S
C577 O570 1.266 . S
Co578 O581 1.970 . S
Co578 N595 1.989 . S
Co578 O603 1.967 . S
Co578 O610 1.920 . S
Co579 O582 1.966 . S
Co579 N588 2.022 . S
Co579 N596 1.993 . S
Co579 O604 1.941 . S
C580 O581 1.258 . S
C580 O582 1.263 . S
O581 Co578 1.970 . S
O581 C580 1.258 . S
O582 Co579 1.966 . S
O582 C580 1.263 . S
C583 O584 1.235 . S
C583 O610 1.289 . S
O584 C583 1.235 . S
C585 C587 1.400 . S
C585 N588 1.351 . S
C585 C590 1.501 . S
C586 C587 1.387 . S
C586 N589 1.341 . S
C587 C585 1.400 . S
C587 C586 1.387 . S
N588 Co579 2.022 . S
N588 C585 1.351 . S
N588 N589 1.365 . S
N589 C586 1.341 . S
N589 N588 1.365 . S
N589 H609 0.862 . S
C590 C585 1.501 . S
C590 H591 0.961 . S
C590 H592 0.961 . S
C590 H593 0.960 . S
H591 C590 0.961 . S
H592 C590 0.961 . S
H593 C590 0.960 . S
C594 N595 1.342 . S
C594 C598 1.401 . S
C594 C599 1.499 . S
N595 Co578 1.989 . S
N595 C594 1.342 . S
N595 N596 1.388 . S
N596 Co579 1.993 . S
N596 N595 1.388 . S
N596 C597 1.346 . S
C597 N596 1.346 . S
C597 C598 1.396 . S
C597 C607 1.510 . S
C598 C594 1.401 . S
C598 C597 1.396 . S
C599 C594 1.499 . S
C599 H600 0.959 . S
C599 H601 0.960 . S
C599 H602 0.961 . S
H600 C599 0.959 . S
H601 C599 0.960 . S
H602 C599 0.961 . S
O603 Co578 1.967 . S
O603 C611 1.258 . S
O604 Co579 1.941 . S
O604 C611 1.266 . S
H605 C607 0.959 . S
H606 C607 0.961 . S
C607 C597 1.510 . S
C607 H605 0.959 . S
C607 H606 0.961 . S
C607 H608 0.960 . S
H608 C607 0.960 . S
H609 N589 0.862 . S
O610 Co578 1.920 . S
O610 C583 1.289 . S
C611 O603 1.258 . S
C611 O604 1.266 . S
Co612 O615 1.970 . S
Co612 N629 1.989 . S
Co612 O637 1.967 . S
Co612 O644 1.920 1_455 S
Co613 O616 1.966 . S
Co613 N622 2.022 . S
Co613 N630 1.993 . S
Co613 O638 1.941 . S
C614 O615 1.258 . S
C614 O616 1.263 . S
O615 Co612 1.970 . S
O615 C614 1.258 . S
O616 Co613 1.966 . S
O616 C614 1.263 . S
C617 O618 1.235 . S
C617 O644 1.289 . S
O618 C617 1.235 . S
C619 C621 1.400 . S
C619 N622 1.351 . S
C619 C624 1.501 . S
C620 C621 1.387 . S
C620 N623 1.341 . S
C621 C619 1.400 . S
C621 C620 1.387 . S
N622 Co613 2.022 . S
N622 C619 1.351 . S
N622 N623 1.365 . S
N623 C620 1.341 . S
N623 N622 1.365 . S
N623 H643 0.862 . S
C624 C619 1.501 . S
C624 H625 0.961 . S
C624 H626 0.961 . S
C624 H627 0.960 . S
H625 C624 0.961 . S
H626 C624 0.961 . S
H627 C624 0.960 . S
C628 N629 1.342 . S
C628 C632 1.401 . S
C628 C633 1.499 . S
N629 Co612 1.989 . S
N629 C628 1.342 . S
N629 N630 1.388 . S
N630 Co613 1.993 . S
N630 N629 1.388 . S
N630 C631 1.346 . S
C631 N630 1.346 . S
C631 C632 1.396 . S
C631 C641 1.510 . S
C632 C628 1.401 . S
C632 C631 1.396 . S
C633 C628 1.499 . S
C633 H634 0.959 . S
C633 H635 0.960 . S
C633 H636 0.961 . S
H634 C633 0.959 . S
H635 C633 0.960 . S
H636 C633 0.961 . S
O637 Co612 1.967 . S
O637 C645 1.258 . S
O638 Co613 1.941 . S
O638 C645 1.266 . S
H639 C641 0.959 . S
H640 C641 0.961 . S
C641 C631 1.510 . S
C641 H639 0.959 . S
C641 H640 0.961 . S
C641 H642 0.960 . S
H642 C641 0.960 . S
H643 N623 0.862 . S
O644 Co612 1.920 1_655 S
O644 C617 1.289 . S
C645 O637 1.258 . S
C645 O638 1.266 . S
Co646 O649 1.970 . S
Co646 N663 1.989 . S
Co646 O671 1.967 . S
Co646 O678 1.920 . S
Co647 O650 1.966 . S
Co647 N656 2.022 . S
Co647 N664 1.993 . S
Co647 O672 1.941 . S
C648 O649 1.258 . S
C648 O650 1.263 . S
O649 Co646 1.970 . S
O649 C648 1.258 . S
O650 Co647 1.966 . S
O650 C648 1.263 . S
C651 O652 1.235 . S
C651 O678 1.289 . S
O652 C651 1.235 . S
C653 C655 1.400 . S
C653 N656 1.351 . S
C653 C658 1.501 . S
C654 C655 1.387 . S
C654 N657 1.341 . S
C655 C653 1.400 . S
C655 C654 1.387 . S
N656 Co647 2.022 . S
N656 C653 1.351 . S
N656 N657 1.365 . S
N657 C654 1.341 . S
N657 N656 1.365 . S
N657 H677 0.862 . S
C658 C653 1.501 . S
C658 H659 0.961 . S
C658 H660 0.961 . S
C658 H661 0.960 . S
H659 C658 0.961 . S
H660 C658 0.961 . S
H661 C658 0.960 . S
C662 N663 1.342 . S
C662 C666 1.401 . S
C662 C667 1.499 . S
N663 Co646 1.989 . S
N663 C662 1.342 . S
N663 N664 1.388 . S
N664 Co647 1.993 . S
N664 N663 1.388 . S
N664 C665 1.346 . S
C665 N664 1.346 . S
C665 C666 1.396 . S
C665 C675 1.510 . S
C666 C662 1.401 . S
C666 C665 1.396 . S
C667 C662 1.499 . S
C667 H668 0.959 . S
C667 H669 0.960 . S
C667 H670 0.961 . S
H668 C667 0.959 . S
H669 C667 0.960 . S
H670 C667 0.961 . S
O671 Co646 1.967 . S
O671 C679 1.258 . S
O672 Co647 1.941 . S
O672 C679 1.266 . S
H673 C675 0.959 . S
H674 C675 0.961 . S
C675 C665 1.510 . S
C675 H673 0.959 . S
C675 H674 0.961 . S
C675 H676 0.960 . S
H676 C675 0.960 . S
H677 N657 0.862 . S
O678 Co646 1.920 . S
O678 C651 1.289 . S
C679 O671 1.258 . S
C679 O672 1.266 . S
Co680 O683 1.970 . S
Co680 N697 1.989 . S
Co680 O705 1.967 . S
Co680 O712 1.920 . S
Co681 O684 1.966 . S
Co681 N690 2.022 . S
Co681 N698 1.993 . S
Co681 O706 1.941 . S
C682 O683 1.258 . S
C682 O684 1.263 . S
O683 Co680 1.970 . S
O683 C682 1.258 . S
O684 Co681 1.966 . S
O684 C682 1.263 . S
C685 O686 1.235 . S
C685 O712 1.289 . S
O686 C685 1.235 . S
C687 C689 1.400 . S
C687 N690 1.351 . S
C687 C692 1.501 . S
C688 C689 1.387 . S
C688 N691 1.341 . S
C689 C687 1.400 . S
C689 C688 1.387 . S
N690 Co681 2.022 . S
N690 C687 1.351 . S
N690 N691 1.365 . S
N691 C688 1.341 . S
N691 N690 1.365 . S
N691 H711 0.862 . S
C692 C687 1.501 . S
C692 H693 0.961 . S
C692 H694 0.961 . S
C692 H695 0.960 . S
H693 C692 0.961 . S
H694 C692 0.961 . S
H695 C692 0.960 . S
C696 N697 1.342 . S
C696 C700 1.401 . S
C696 C701 1.499 . S
N697 Co680 1.989 . S
N697 C696 1.342 . S
N697 N698 1.388 . S
N698 Co681 1.993 . S
N698 N697 1.388 . S
N698 C699 1.346 . S
C699 N698 1.346 . S
C699 C700 1.396 . S
C699 C709 1.510 . S
C700 C696 1.401 . S
C700 C699 1.396 . S
C701 C696 1.499 . S
C701 H702 0.959 . S
C701 H703 0.960 . S
C701 H704 0.961 . S
H702 C701 0.959 . S
H703 C701 0.960 . S
H704 C701 0.961 . S
O705 Co680 1.967 . S
O705 C713 1.258 . S
O706 Co681 1.941 . S
O706 C713 1.266 . S
H707 C709 0.959 . S
H708 C709 0.961 . S
C709 C699 1.510 . S
C709 H707 0.959 . S
C709 H708 0.961 . S
C709 H710 0.960 . S
H710 C709 0.960 . S
H711 N691 0.862 . S
O712 Co680 1.920 . S
O712 C685 1.289 . S
C713 O705 1.258 . S
C713 O706 1.266 . S
Co714 O717 1.970 . S
Co714 N731 1.989 . S
Co714 O739 1.967 . S
Co714 O746 1.920 . S
Co715 O718 1.966 . S
Co715 N724 2.022 . S
Co715 N732 1.993 . S
Co715 O740 1.941 . S
C716 O717 1.258 . S
C716 O718 1.263 . S
O717 Co714 1.970 . S
O717 C716 1.258 . S
O718 Co715 1.966 . S
O718 C716 1.263 . S
C719 O720 1.235 . S
C719 O746 1.289 . S
O720 C719 1.235 . S
C721 C723 1.400 . S
C721 N724 1.351 . S
C721 C726 1.501 . S
C722 C723 1.387 . S
C722 N725 1.341 . S
C723 C721 1.400 . S
C723 C722 1.387 . S
N724 Co715 2.022 . S
N724 C721 1.351 . S
N724 N725 1.365 . S
N725 C722 1.341 . S
N725 N724 1.365 . S
N725 H745 0.862 . S
C726 C721 1.501 . S
C726 H727 0.961 . S
C726 H728 0.961 . S
C726 H729 0.960 . S
H727 C726 0.961 . S
H728 C726 0.961 . S
H729 C726 0.960 . S
C730 N731 1.342 . S
C730 C734 1.401 . S
C730 C735 1.499 . S
N731 Co714 1.989 . S
N731 C730 1.342 . S
N731 N732 1.388 . S
N732 Co715 1.993 . S
N732 N731 1.388 . S
N732 C733 1.346 . S
C733 N732 1.346 . S
C733 C734 1.396 . S
C733 C743 1.510 . S
C734 C730 1.401 . S
C734 C733 1.396 . S
C735 C730 1.499 . S
C735 H736 0.959 . S
C735 H737 0.960 . S
C735 H738 0.961 . S
H736 C735 0.959 . S
H737 C735 0.960 . S
H738 C735 0.961 . S
O739 Co714 1.967 . S
O739 C747 1.258 . S
O740 Co715 1.941 . S
O740 C747 1.266 . S
H741 C743 0.959 . S
H742 C743 0.961 . S
C743 C733 1.510 . S
C743 H741 0.959 . S
C743 H742 0.961 . S
C743 H744 0.960 . S
H744 C743 0.960 . S
H745 N725 0.862 . S
O746 Co714 1.920 . S
O746 C719 1.289 . S
C747 O739 1.258 . S
C747 O740 1.266 . S
Co748 O751 1.970 . S
Co748 N765 1.989 . S
Co748 O773 1.967 . S
Co748 O780 1.920 . S
Co749 O752 1.966 . S
Co749 N758 2.022 . S
Co749 N766 1.993 . S
Co749 O774 1.941 . S
C750 O751 1.258 . S
C750 O752 1.263 . S
O751 Co748 1.970 . S
O751 C750 1.258 . S
O752 Co749 1.966 . S
O752 C750 1.263 . S
C753 O754 1.235 . S
C753 O780 1.289 . S
O754 C753 1.235 . S
C755 C757 1.400 . S
C755 N758 1.351 . S
C755 C760 1.501 . S
C756 C757 1.387 . S
C756 N759 1.341 . S
C757 C755 1.400 . S
C757 C756 1.387 . S
N758 Co749 2.022 . S
N758 C755 1.351 . S
N758 N759 1.365 . S
N759 C756 1.341 . S
N759 N758 1.365 . S
N759 H779 0.862 . S
C760 C755 1.501 . S
C760 H761 0.961 . S
C760 H762 0.961 . S
C760 H763 0.960 . S
H761 C760 0.961 . S
H762 C760 0.961 . S
H763 C760 0.960 . S
C764 N765 1.342 . S
C764 C768 1.401 . S
C764 C769 1.499 . S
N765 Co748 1.989 . S
N765 C764 1.342 . S
N765 N766 1.388 . S
N766 Co749 1.993 . S
N766 N765 1.388 . S
N766 C767 1.346 . S
C767 N766 1.346 . S
C767 C768 1.396 . S
C767 C777 1.510 . S
C768 C764 1.401 . S
C768 C767 1.396 . S
C769 C764 1.499 . S
C769 H770 0.959 . S
C769 H771 0.960 . S
C769 H772 0.961 . S
H770 C769 0.959 . S
H771 C769 0.960 . S
H772 C769 0.961 . S
O773 Co748 1.967 . S
O773 C781 1.258 . S
O774 Co749 1.941 . S
O774 C781 1.266 . S
H775 C777 0.959 . S
H776 C777 0.961 . S
C777 C767 1.510 . S
C777 H775 0.959 . S
C777 H776 0.961 . S
C777 H778 0.960 . S
H778 C777 0.960 . S
H779 N759 0.862 . S
O780 Co748 1.920 . S
O780 C753 1.289 . S
C781 O773 1.258 . S
C781 O774 1.266 . S
Co782 O785 1.970 . S
Co782 N799 1.989 . S
Co782 O807 1.967 . S
Co782 O814 1.920 . S
Co783 O786 1.966 . S
Co783 N792 2.022 . S
Co783 N800 1.993 . S
Co783 O808 1.941 . S
C784 O785 1.258 . S
C784 O786 1.263 . S
O785 Co782 1.970 . S
O785 C784 1.258 . S
O786 Co783 1.966 . S
O786 C784 1.263 . S
C787 O788 1.235 . S
C787 O814 1.289 . S
O788 C787 1.235 . S
C789 C791 1.400 . S
C789 N792 1.351 . S
C789 C794 1.501 . S
C790 C791 1.387 . S
C790 N793 1.341 . S
C791 C789 1.400 . S
C791 C790 1.387 . S
N792 Co783 2.022 . S
N792 C789 1.351 . S
N792 N793 1.365 . S
N793 C790 1.341 . S
N793 N792 1.365 . S
N793 H813 0.862 . S
C794 C789 1.501 . S
C794 H795 0.961 . S
C794 H796 0.961 . S
C794 H797 0.960 . S
H795 C794 0.961 . S
H796 C794 0.961 . S
H797 C794 0.960 . S
C798 N799 1.342 . S
C798 C802 1.401 . S
C798 C803 1.499 . S
N799 Co782 1.989 . S
N799 C798 1.342 . S
N799 N800 1.388 . S
N800 Co783 1.993 . S
N800 N799 1.388 . S
N800 C801 1.346 . S
C801 N800 1.346 . S
C801 C802 1.396 . S
C801 C811 1.510 . S
C802 C798 1.401 . S
C802 C801 1.396 . S
C803 C798 1.499 . S
C803 H804 0.959 . S
C803 H805 0.960 . S
C803 H806 0.961 . S
H804 C803 0.959 . S
H805 C803 0.960 . S
H806 C803 0.961 . S
O807 Co782 1.967 . S
O807 C815 1.258 . S
O808 Co783 1.941 . S
O808 C815 1.266 . S
H809 C811 0.959 . S
H810 C811 0.961 . S
C811 C801 1.510 . S
C811 H809 0.959 . S
C811 H810 0.961 . S
C811 H812 0.960 . S
H812 C811 0.960 . S
H813 N793 0.862 . S
O814 Co782 1.920 . S
O814 C787 1.289 . S
C815 O807 1.258 . S
C815 O808 1.266 . S
Co816 O819 1.970 . S
Co816 N833 1.989 . S
Co816 O841 1.967 . S
Co816 O848 1.920 . S
Co817 O820 1.966 . S
Co817 N826 2.022 . S
Co817 N834 1.993 . S
Co817 O842 1.941 . S
C818 O819 1.258 . S
C818 O820 1.263 . S
O819 Co816 1.970 . S
O819 C818 1.258 . S
O820 Co817 1.966 . S
O820 C818 1.263 . S
C821 O822 1.235 . S
C821 O848 1.289 . S
O822 C821 1.235 . S
C823 C825 1.400 . S
C823 N826 1.351 . S
C823 C828 1.501 . S
C824 C825 1.387 . S
C824 N827 1.341 . S
C825 C823 1.400 . S
C825 C824 1.387 . S
N826 Co817 2.022 . S
N826 C823 1.351 . S
N826 N827 1.365 . S
N827 C824 1.341 . S
N827 N826 1.365 . S
N827 H847 0.862 . S
C828 C823 1.501 . S
C828 H829 0.961 . S
C828 H830 0.961 . S
C828 H831 0.960 . S
H829 C828 0.961 . S
H830 C828 0.961 . S
H831 C828 0.960 . S
C832 N833 1.342 . S
C832 C836 1.401 . S
C832 C837 1.499 . S
N833 Co816 1.989 . S
N833 C832 1.342 . S
N833 N834 1.388 . S
N834 Co817 1.993 . S
N834 N833 1.388 . S
N834 C835 1.346 . S
C835 N834 1.346 . S
C835 C836 1.396 . S
C835 C845 1.510 . S
C836 C832 1.401 . S
C836 C835 1.396 . S
C837 C832 1.499 . S
C837 H838 0.959 . S
C837 H839 0.960 . S
C837 H840 0.961 . S
H838 C837 0.959 . S
H839 C837 0.960 . S
H840 C837 0.961 . S
O841 Co816 1.967 . S
O841 C849 1.258 . S
O842 Co817 1.941 . S
O842 C849 1.266 . S
H843 C845 0.959 . S
H844 C845 0.961 . S
C845 C835 1.510 . S
C845 H843 0.959 . S
C845 H844 0.961 . S
C845 H846 0.960 . S
H846 C845 0.960 . S
H847 N827 0.862 . S
O848 Co816 1.920 . S
O848 C821 1.289 . S
C849 O841 1.258 . S
C849 O842 1.266 . S
Co850 O853 1.970 . S
Co850 N867 1.989 . S
Co850 O875 1.967 . S
Co850 O882 1.920 . S
Co851 O854 1.966 . S
Co851 N860 2.022 . S
Co851 N868 1.993 . S
Co851 O876 1.941 . S
C852 O853 1.258 . S
C852 O854 1.263 . S
O853 Co850 1.970 . S
O853 C852 1.258 . S
O854 Co851 1.966 . S
O854 C852 1.263 . S
C855 O856 1.235 . S
C855 O882 1.289 . S
O856 C855 1.235 . S
C857 C859 1.400 1_545 S
C857 N860 1.351 . S
C857 C862 1.501 . S
C858 C859 1.387 . S
C858 N861 1.341 . S
C859 C857 1.400 1_565 S
C859 C858 1.387 . S
N860 Co851 2.022 . S
N860 C857 1.351 . S
N860 N861 1.365 1_545 S
N861 C858 1.341 . S
N861 N860 1.365 1_565 S
N861 H881 0.862 . S
C862 C857 1.501 . S
C862 H863 0.961 . S
C862 H864 0.961 . S
C862 H865 0.960 . S
H863 C862 0.961 . S
H864 C862 0.961 . S
H865 C862 0.960 . S
C866 N867 1.342 . S
C866 C870 1.401 . S
C866 C871 1.499 . S
N867 Co850 1.989 . S
N867 C866 1.342 . S
N867 N868 1.388 . S
N868 Co851 1.993 . S
N868 N867 1.388 . S
N868 C869 1.346 . S
C869 N868 1.346 . S
C869 C870 1.396 . S
C869 C879 1.510 1_545 S
C870 C866 1.401 . S
C870 C869 1.396 . S
C871 C866 1.499 . S
C871 H872 0.959 . S
C871 H873 0.960 . S
C871 H874 0.961 . S
H872 C871 0.959 . S
H873 C871 0.960 . S
H874 C871 0.961 . S
O875 Co850 1.967 . S
O875 C883 1.258 . S
O876 Co851 1.941 . S
O876 C883 1.266 . S
H877 C879 0.959 . S
H878 C879 0.961 . S
C879 C869 1.510 1_565 S
C879 H877 0.959 . S
C879 H878 0.961 . S
C879 H880 0.960 . S
H880 C879 0.960 . S
H881 N861 0.862 . S
O882 Co850 1.920 . S
O882 C855 1.289 . S
C883 O875 1.258 . S
C883 O876 1.266 . S
Co884 O887 1.970 . S
Co884 N901 1.989 . S
Co884 O909 1.967 . S
Co884 O916 1.920 . S
Co885 O888 1.966 . S
Co885 N894 2.022 . S
Co885 N902 1.993 . S
Co885 O910 1.941 . S
C886 O887 1.258 . S
C886 O888 1.263 . S
O887 Co884 1.970 . S
O887 C886 1.258 . S
O888 Co885 1.966 . S
O888 C886 1.263 . S
C889 O890 1.235 . S
C889 O916 1.289 . S
O890 C889 1.235 . S
C891 C893 1.400 . S
C891 N894 1.351 . S
C891 C896 1.501 . S
C892 C893 1.387 . S
C892 N895 1.341 . S
C893 C891 1.400 . S
C893 C892 1.387 . S
N894 Co885 2.022 . S
N894 C891 1.351 . S
N894 N895 1.365 . S
N895 C892 1.341 . S
N895 N894 1.365 . S
N895 H915 0.862 . S
C896 C891 1.501 . S
C896 H897 0.961 . S
C896 H898 0.961 . S
C896 H899 0.960 . S
H897 C896 0.961 . S
H898 C896 0.961 . S
H899 C896 0.960 . S
C900 N901 1.342 . S
C900 C904 1.401 . S
C900 C905 1.499 . S
N901 Co884 1.989 . S
N901 C900 1.342 . S
N901 N902 1.388 . S
N902 Co885 1.993 . S
N902 N901 1.388 . S
N902 C903 1.346 . S
C903 N902 1.346 . S
C903 C904 1.396 . S
C903 C913 1.510 . S
C904 C900 1.401 . S
C904 C903 1.396 . S
C905 C900 1.499 . S
C905 H906 0.959 . S
C905 H907 0.960 . S
C905 H908 0.961 . S
H906 C905 0.959 . S
H907 C905 0.960 . S
H908 C905 0.961 . S
O909 Co884 1.967 . S
O909 C917 1.258 . S
O910 Co885 1.941 . S
O910 C917 1.266 . S
H911 C913 0.959 . S
H912 C913 0.961 . S
C913 C903 1.510 . S
C913 H911 0.959 . S
C913 H912 0.961 . S
C913 H914 0.960 . S
H914 C913 0.960 . S
H915 N895 0.862 . S
O916 Co884 1.920 . S
O916 C889 1.289 . S
C917 O909 1.258 . S
C917 O910 1.266 . S
Co918 O921 1.970 . S
Co918 N935 1.989 . S
Co918 O943 1.967 . S
Co918 O950 1.920 . S
Co919 O922 1.966 . S
Co919 N928 2.022 . S
Co919 N936 1.993 . S
Co919 O944 1.941 . S
C920 O921 1.258 . S
C920 O922 1.263 . S
O921 Co918 1.970 . S
O921 C920 1.258 . S
O922 Co919 1.966 . S
O922 C920 1.263 . S
C923 O924 1.235 1_565 S
C923 O950 1.289 1_565 S
O924 C923 1.235 1_545 S
C925 C927 1.400 . S
C925 N928 1.351 . S
C925 C930 1.501 . S
C926 C927 1.387 . S
C926 N929 1.341 . S
C927 C925 1.400 . S
C927 C926 1.387 . S
N928 Co919 2.022 . S
N928 C925 1.351 . S
N928 N929 1.365 . S
N929 C926 1.341 . S
N929 N928 1.365 . S
N929 H949 0.862 . S
C930 C925 1.501 . S
C930 H931 0.961 . S
C930 H932 0.961 . S
C930 H933 0.960 . S
H931 C930 0.961 . S
H932 C930 0.961 . S
H933 C930 0.960 . S
C934 N935 1.342 . S
C934 C938 1.401 . S
C934 C939 1.499 . S
N935 Co918 1.989 . S
N935 C934 1.342 . S
N935 N936 1.388 . S
N936 Co919 1.993 . S
N936 N935 1.388 . S
N936 C937 1.346 . S
C937 N936 1.346 . S
C937 C938 1.396 . S
C937 C947 1.510 . S
C938 C934 1.401 . S
C938 C937 1.396 . S
C939 C934 1.499 . S
C939 H940 0.959 . S
C939 H941 0.960 . S
C939 H942 0.961 . S
H940 C939 0.959 . S
H941 C939 0.960 . S
H942 C939 0.961 . S
O943 Co918 1.967 . S
O943 C951 1.258 . S
O944 Co919 1.941 . S
O944 C951 1.266 . S
H945 C947 0.959 . S
H946 C947 0.961 . S
C947 C937 1.510 . S
C947 H945 0.959 . S
C947 H946 0.961 . S
C947 H948 0.960 . S
H948 C947 0.960 . S
H949 N929 0.862 . S
O950 Co918 1.920 . S
O950 C923 1.289 1_545 S
C951 O943 1.258 . S
C951 O944 1.266 . S
Co952 O955 1.970 . S
Co952 N969 1.989 . S
Co952 O977 1.967 . S
Co952 O984 1.920 . S
Co953 O956 1.966 . S
Co953 N962 2.022 . S
Co953 N970 1.993 . S
Co953 O978 1.941 . S
C954 O955 1.258 . S
C954 O956 1.263 . S
O955 Co952 1.970 . S
O955 C954 1.258 . S
O956 Co953 1.966 . S
O956 C954 1.263 . S
C957 O958 1.235 . S
C957 O984 1.289 . S
O958 C957 1.235 . S
C959 C961 1.400 . S
C959 N962 1.351 . S
C959 C964 1.501 . S
C960 C961 1.387 . S
C960 N963 1.341 . S
C961 C959 1.400 . S
C961 C960 1.387 . S
N962 Co953 2.022 . S
N962 C959 1.351 . S
N962 N963 1.365 . S
N963 C960 1.341 . S
N963 N962 1.365 . S
N963 H983 0.862 . S
C964 C959 1.501 . S
C964 H965 0.961 . S
C964 H966 0.961 . S
C964 H967 0.960 . S
H965 C964 0.961 . S
H966 C964 0.961 . S
H967 C964 0.960 . S
C968 N969 1.342 . S
C968 C972 1.401 . S
C968 C973 1.499 . S
N969 Co952 1.989 . S
N969 C968 1.342 . S
N969 N970 1.388 . S
N970 Co953 1.993 . S
N970 N969 1.388 . S
N970 C971 1.346 . S
C971 N970 1.346 . S
C971 C972 1.396 . S
C971 C981 1.510 . S
C972 C968 1.401 . S
C972 C971 1.396 . S
C973 C968 1.499 . S
C973 H974 0.959 . S
C973 H975 0.960 . S
C973 H976 0.961 . S
H974 C973 0.959 . S
H975 C973 0.960 . S
H976 C973 0.961 . S
O977 Co952 1.967 . S
O977 C985 1.258 . S
O978 Co953 1.941 . S
O978 C985 1.266 . S
H979 C981 0.959 . S
H980 C981 0.961 . S
C981 C971 1.510 . S
C981 H979 0.959 . S
C981 H980 0.961 . S
C981 H982 0.960 . S
H982 C981 0.960 . S
H983 N963 0.862 . S
O984 Co952 1.920 . S
O984 C957 1.289 . S
C985 O977 1.258 . S
C985 O978 1.266 . S
Co986 O989 1.970 . S
Co986 N1003 1.989 . S
Co986 O1011 1.967 . S
Co986 O1018 1.920 . S
Co987 O990 1.966 . S
Co987 N996 2.022 . S
Co987 N1004 1.993 . S
Co987 O1012 1.941 . S
C988 O989 1.258 . S
C988 O990 1.263 . S
O989 Co986 1.970 . S
O989 C988 1.258 . S
O990 Co987 1.966 . S
O990 C988 1.263 . S
C991 O992 1.235 . S
C991 O1018 1.289 . S
O992 C991 1.235 . S
C993 C995 1.400 1_545 S
C993 N996 1.351 . S
C993 C998 1.501 . S
C994 C995 1.387 . S
C994 N997 1.341 . S
C995 C993 1.400 1_565 S
C995 C994 1.387 . S
N996 Co987 2.022 . S
N996 C993 1.351 . S
N996 N997 1.365 1_545 S
N997 C994 1.341 . S
N997 N996 1.365 1_565 S
N997 H1017 0.862 . S
C998 C993 1.501 . S
C998 H999 0.961 . S
C998 H1000 0.961 . S
C998 H1001 0.960 . S
H999 C998 0.961 . S
H1000 C998 0.961 . S
H1001 C998 0.960 . S
C1002 N1003 1.342 . S
C1002 C1006 1.401 . S
C1002 C1007 1.499 . S
N1003 Co986 1.989 . S
N1003 C1002 1.342 . S
N1003 N1004 1.388 . S
N1004 Co987 1.993 . S
N1004 N1003 1.388 . S
N1004 C1005 1.346 . S
C1005 N1004 1.346 . S
C1005 C1006 1.396 . S
C1005 C1015 1.510 1_545 S
C1006 C1002 1.401 . S
C1006 C1005 1.396 . S
C1007 C1002 1.499 . S
C1007 H1008 0.959 . S
C1007 H1009 0.960 . S
C1007 H1010 0.961 . S
H1008 C1007 0.959 . S
H1009 C1007 0.960 . S
H1010 C1007 0.961 . S
O1011 Co986 1.967 . S
O1011 C1019 1.258 . S
O1012 Co987 1.941 . S
O1012 C1019 1.266 . S
H1013 C1015 0.959 . S
H1014 C1015 0.961 . S
C1015 C1005 1.510 1_565 S
C1015 H1013 0.959 . S
C1015 H1014 0.961 . S
C1015 H1016 0.960 . S
H1016 C1015 0.960 . S
H1017 N997 0.862 . S
O1018 Co986 1.920 . S
O1018 C991 1.289 . S
C1019 O1011 1.258 . S
C1019 O1012 1.266 . S
Co1020 O1023 1.970 . S
Co1020 N1037 1.989 . S
Co1020 O1045 1.967 . S
Co1020 O1052 1.920 . S
Co1021 O1024 1.966 . S
Co1021 N1030 2.022 . S
Co1021 N1038 1.993 . S
Co1021 O1046 1.941 . S
C1022 O1023 1.258 . S
C1022 O1024 1.263 . S
O1023 Co1020 1.970 . S
O1023 C1022 1.258 . S
O1024 Co1021 1.966 . S
O1024 C1022 1.263 . S
C1025 O1026 1.235 . S
C1025 O1052 1.289 . S
O1026 C1025 1.235 . S
C1027 C1029 1.400 . S
C1027 N1030 1.351 . S
C1027 C1032 1.501 . S
C1028 C1029 1.387 . S
C1028 N1031 1.341 . S
C1029 C1027 1.400 . S
C1029 C1028 1.387 . S
N1030 Co1021 2.022 . S
N1030 C1027 1.351 . S
N1030 N1031 1.365 . S
N1031 C1028 1.341 . S
N1031 N1030 1.365 . S
N1031 H1051 0.862 . S
C1032 C1027 1.501 . S
C1032 H1033 0.961 . S
C1032 H1034 0.961 . S
C1032 H1035 0.960 . S
H1033 C1032 0.961 . S
H1034 C1032 0.961 . S
H1035 C1032 0.960 . S
C1036 N1037 1.342 . S
C1036 C1040 1.401 . S
C1036 C1041 1.499 . S
N1037 Co1020 1.989 . S
N1037 C1036 1.342 . S
N1037 N1038 1.388 . S
N1038 Co1021 1.993 . S
N1038 N1037 1.388 . S
N1038 C1039 1.346 . S
C1039 N1038 1.346 . S
C1039 C1040 1.396 . S
C1039 C1049 1.510 . S
C1040 C1036 1.401 . S
C1040 C1039 1.396 . S
C1041 C1036 1.499 . S
C1041 H1042 0.959 . S
C1041 H1043 0.960 . S
C1041 H1044 0.961 . S
H1042 C1041 0.959 . S
H1043 C1041 0.960 . S
H1044 C1041 0.961 . S
O1045 Co1020 1.967 . S
O1045 C1053 1.258 . S
O1046 Co1021 1.941 . S
O1046 C1053 1.266 . S
H1047 C1049 0.959 . S
H1048 C1049 0.961 . S
C1049 C1039 1.510 . S
C1049 H1047 0.959 . S
C1049 H1048 0.961 . S
C1049 H1050 0.960 . S
H1050 C1049 0.960 . S
H1051 N1031 0.862 . S
O1052 Co1020 1.920 . S
O1052 C1025 1.289 . S
C1053 O1045 1.258 . S
C1053 O1046 1.266 . S
Co1054 O1057 1.970 . S
Co1054 N1071 1.989 . S
Co1054 O1079 1.967 . S
Co1054 O1086 1.920 . S
Co1055 O1058 1.966 . S
Co1055 N1064 2.022 1_545 S
Co1055 N1072 1.993 . S
Co1055 O1080 1.941 . S
C1056 O1057 1.258 . S
C1056 O1058 1.263 . S
O1057 Co1054 1.970 . S
O1057 C1056 1.258 . S
O1058 Co1055 1.966 . S
O1058 C1056 1.263 . S
C1059 O1060 1.235 . S
C1059 O1086 1.289 . S
O1060 C1059 1.235 . S
C1061 C1063 1.400 . S
C1061 N1064 1.351 . S
C1061 C1066 1.501 1_565 S
C1062 C1063 1.387 . S
C1062 N1065 1.341 . S
C1063 C1061 1.400 . S
C1063 C1062 1.387 . S
N1064 Co1055 2.022 1_565 S
N1064 C1061 1.351 . S
N1064 N1065 1.365 . S
N1065 C1062 1.341 . S
N1065 N1064 1.365 . S
N1065 H1085 0.862 . S
C1066 C1061 1.501 1_545 S
C1066 H1067 0.961 . S
C1066 H1068 0.961 . S
C1066 H1069 0.960 . S
H1067 C1066 0.961 . S
H1068 C1066 0.961 . S
H1069 C1066 0.960 . S
C1070 N1071 1.342 . S
C1070 C1074 1.401 1_545 S
C1070 C1075 1.499 . S
N1071 Co1054 1.989 . S
N1071 C1070 1.342 . S
N1071 N1072 1.388 . S
N1072 Co1055 1.993 . S
N1072 N1071 1.388 . S
N1072 C1073 1.346 1_545 S
C1073 N1072 1.346 1_565 S
C1073 C1074 1.396 . S
C1073 C1083 1.510 . S
C1074 C1070 1.401 1_565 S
C1074 C1073 1.396 . S
C1075 C1070 1.499 . S
C1075 H1076 0.959 . S
C1075 H1077 0.960 . S
C1075 H1078 0.961 . S
H1076 C1075 0.959 . S
H1077 C1075 0.960 . S
H1078 C1075 0.961 . S
O1079 Co1054 1.967 . S
O1079 C1087 1.258 . S
O1080 Co1055 1.941 . S
O1080 C1087 1.266 . S
H1081 C1083 0.959 . S
H1082 C1083 0.961 . S
C1083 C1073 1.510 . S
C1083 H1081 0.959 . S
C1083 H1082 0.961 . S
C1083 H1084 0.960 . S
H1084 C1083 0.960 . S
H1085 N1065 0.862 . S
O1086 Co1054 1.920 . S
O1086 C1059 1.289 . S
C1087 O1079 1.258 . S
C1087 O1080 1.266 . S
Co1088 O1091 1.970 . S
Co1088 N1105 1.989 . S
Co1088 O1113 1.967 . S
Co1088 O1120 1.920 . S
Co1089 O1092 1.966 . S
Co1089 N1098 2.022 . S
Co1089 N1106 1.993 . S
Co1089 O1114 1.941 . S
C1090 O1091 1.258 . S
C1090 O1092 1.263 . S
O1091 Co1088 1.970 . S
O1091 C1090 1.258 . S
O1092 Co1089 1.966 . S
O1092 C1090 1.263 . S
C1093 O1094 1.235 . S
C1093 O1120 1.289 . S
O1094 C1093 1.235 . S
C1095 C1097 1.400 . S
C1095 N1098 1.351 . S
C1095 C1100 1.501 . S
C1096 C1097 1.387 . S
C1096 N1099 1.341 . S
C1097 C1095 1.400 . S
C1097 C1096 1.387 . S
N1098 Co1089 2.022 . S
N1098 C1095 1.351 . S
N1098 N1099 1.365 . S
N1099 C1096 1.341 . S
N1099 N1098 1.365 . S
N1099 H1119 0.862 . S
C1100 C1095 1.501 . S
C1100 H1101 0.961 . S
C1100 H1102 0.961 . S
C1100 H1103 0.960 . S
H1101 C1100 0.961 . S
H1102 C1100 0.961 . S
H1103 C1100 0.960 . S
C1104 N1105 1.342 . S
C1104 C1108 1.401 . S
C1104 C1109 1.499 . S
N1105 Co1088 1.989 . S
N1105 C1104 1.342 . S
N1105 N1106 1.388 . S
N1106 Co1089 1.993 . S
N1106 N1105 1.388 . S
N1106 C1107 1.346 . S
C1107 N1106 1.346 . S
C1107 C1108 1.396 . S
C1107 C1117 1.510 . S
C1108 C1104 1.401 . S
C1108 C1107 1.396 . S
C1109 C1104 1.499 . S
C1109 H1110 0.959 . S
C1109 H1111 0.960 . S
C1109 H1112 0.961 . S
H1110 C1109 0.959 . S
H1111 C1109 0.960 . S
H1112 C1109 0.961 . S
O1113 Co1088 1.967 . S
O1113 C1121 1.258 . S
O1114 Co1089 1.941 . S
O1114 C1121 1.266 . S
H1115 C1117 0.959 . S
H1116 C1117 0.961 . S
C1117 C1107 1.510 . S
C1117 H1115 0.959 . S
C1117 H1116 0.961 . S
C1117 H1118 0.960 . S
H1118 C1117 0.960 . S
H1119 N1099 0.862 . S
O1120 Co1088 1.920 . S
O1120 C1093 1.289 . S
C1121 O1113 1.258 . S
C1121 O1114 1.266 . S
Co1122 O1125 1.970 . S
Co1122 N1139 1.989 . S
Co1122 O1147 1.967 . S
Co1122 O1154 1.920 . S
Co1123 O1126 1.966 . S
Co1123 N1132 2.022 . S
Co1123 N1140 1.993 . S
Co1123 O1148 1.941 . S
C1124 O1125 1.258 . S
C1124 O1126 1.263 . S
O1125 Co1122 1.970 . S
O1125 C1124 1.258 . S
O1126 Co1123 1.966 . S
O1126 C1124 1.263 . S
C1127 O1128 1.235 . S
C1127 O1154 1.289 . S
O1128 C1127 1.235 . S
C1129 C1131 1.400 . S
C1129 N1132 1.351 . S
C1129 C1134 1.501 . S
C1130 C1131 1.387 . S
C1130 N1133 1.341 . S
C1131 C1129 1.400 . S
C1131 C1130 1.387 . S
N1132 Co1123 2.022 . S
N1132 C1129 1.351 . S
N1132 N1133 1.365 . S
N1133 C1130 1.341 . S
N1133 N1132 1.365 . S
N1133 H1153 0.862 . S
C1134 C1129 1.501 . S
C1134 H1135 0.961 . S
C1134 H1136 0.961 . S
C1134 H1137 0.960 . S
H1135 C1134 0.961 . S
H1136 C1134 0.961 . S
H1137 C1134 0.960 . S
C1138 N1139 1.342 . S
C1138 C1142 1.401 . S
C1138 C1143 1.499 . S
N1139 Co1122 1.989 . S
N1139 C1138 1.342 . S
N1139 N1140 1.388 . S
N1140 Co1123 1.993 . S
N1140 N1139 1.388 . S
N1140 C1141 1.346 . S
C1141 N1140 1.346 . S
C1141 C1142 1.396 . S
C1141 C1151 1.510 . S
C1142 C1138 1.401 . S
C1142 C1141 1.396 . S
C1143 C1138 1.499 . S
C1143 H1144 0.959 . S
C1143 H1145 0.960 . S
C1143 H1146 0.961 . S
H1144 C1143 0.959 . S
H1145 C1143 0.960 . S
H1146 C1143 0.961 . S
O1147 Co1122 1.967 . S
O1147 C1155 1.258 . S
O1148 Co1123 1.941 . S
O1148 C1155 1.266 . S
H1149 C1151 0.959 . S
H1150 C1151 0.961 . S
C1151 C1141 1.510 . S
C1151 H1149 0.959 . S
C1151 H1150 0.961 . S
C1151 H1152 0.960 . S
H1152 C1151 0.960 . S
H1153 N1133 0.862 . S
O1154 Co1122 1.920 . S
O1154 C1127 1.289 . S
C1155 O1147 1.258 . S
C1155 O1148 1.266 . S
Co1156 O1159 1.970 . S
Co1156 N1173 1.989 . S
Co1156 O1181 1.967 . S
Co1156 O1188 1.920 . S
Co1157 O1160 1.966 . S
Co1157 N1166 2.022 . S
Co1157 N1174 1.993 . S
Co1157 O1182 1.941 . S
C1158 O1159 1.258 . S
C1158 O1160 1.263 . S
O1159 Co1156 1.970 . S
O1159 C1158 1.258 . S
O1160 Co1157 1.966 . S
O1160 C1158 1.263 . S
C1161 O1162 1.235 . S
C1161 O1188 1.289 . S
O1162 C1161 1.235 . S
C1163 C1165 1.400 . S
C1163 N1166 1.351 . S
C1163 C1168 1.501 . S
C1164 C1165 1.387 . S
C1164 N1167 1.341 . S
C1165 C1163 1.400 . S
C1165 C1164 1.387 . S
N1166 Co1157 2.022 . S
N1166 C1163 1.351 . S
N1166 N1167 1.365 . S
N1167 C1164 1.341 . S
N1167 N1166 1.365 . S
N1167 H1187 0.862 . S
C1168 C1163 1.501 . S
C1168 H1169 0.961 . S
C1168 H1170 0.961 . S
C1168 H1171 0.960 . S
H1169 C1168 0.961 . S
H1170 C1168 0.961 . S
H1171 C1168 0.960 . S
C1172 N1173 1.342 . S
C1172 C1176 1.401 . S
C1172 C1177 1.499 . S
N1173 Co1156 1.989 . S
N1173 C1172 1.342 . S
N1173 N1174 1.388 . S
N1174 Co1157 1.993 . S
N1174 N1173 1.388 . S
N1174 C1175 1.346 . S
C1175 N1174 1.346 . S
C1175 C1176 1.396 . S
C1175 C1185 1.510 . S
C1176 C1172 1.401 . S
C1176 C1175 1.396 . S
C1177 C1172 1.499 . S
C1177 H1178 0.959 . S
C1177 H1179 0.960 . S
C1177 H1180 0.961 . S
H1178 C1177 0.959 . S
H1179 C1177 0.960 . S
H1180 C1177 0.961 . S
O1181 Co1156 1.967 . S
O1181 C1189 1.258 . S
O1182 Co1157 1.941 . S
O1182 C1189 1.266 . S
H1183 C1185 0.959 . S
H1184 C1185 0.961 . S
C1185 C1175 1.510 . S
C1185 H1183 0.959 . S
C1185 H1184 0.961 . S
C1185 H1186 0.960 . S
H1186 C1185 0.960 . S
H1187 N1167 0.862 . S
O1188 Co1156 1.920 . S
O1188 C1161 1.289 . S
C1189 O1181 1.258 . S
C1189 O1182 1.266 . S
Co1190 O1193 1.970 . S
Co1190 N1207 1.989 . S
Co1190 O1215 1.967 . S
Co1190 O1222 1.920 . S
Co1191 O1194 1.966 . S
Co1191 N1200 2.022 . S
Co1191 N1208 1.993 . S
Co1191 O1216 1.941 . S
C1192 O1193 1.258 . S
C1192 O1194 1.263 . S
O1193 Co1190 1.970 . S
O1193 C1192 1.258 . S
O1194 Co1191 1.966 . S
O1194 C1192 1.263 . S
C1195 O1196 1.235 . S
C1195 O1222 1.289 . S
O1196 C1195 1.235 . S
C1197 C1199 1.400 . S
C1197 N1200 1.351 . S
C1197 C1202 1.501 . S
C1198 C1199 1.387 . S
C1198 N1201 1.341 . S
C1199 C1197 1.400 . S
C1199 C1198 1.387 . S
N1200 Co1191 2.022 . S
N1200 C1197 1.351 . S
N1200 N1201 1.365 . S
N1201 C1198 1.341 . S
N1201 N1200 1.365 . S
N1201 H1221 0.862 . S
C1202 C1197 1.501 . S
C1202 H1203 0.961 . S
C1202 H1204 0.961 . S
C1202 H1205 0.960 . S
H1203 C1202 0.961 . S
H1204 C1202 0.961 . S
H1205 C1202 0.960 . S
C1206 N1207 1.342 . S
C1206 C1210 1.401 . S
C1206 C1211 1.499 . S
N1207 Co1190 1.989 . S
N1207 C1206 1.342 . S
N1207 N1208 1.388 . S
N1208 Co1191 1.993 . S
N1208 N1207 1.388 . S
N1208 C1209 1.346 . S
C1209 N1208 1.346 . S
C1209 C1210 1.396 . S
C1209 C1219 1.510 . S
C1210 C1206 1.401 . S
C1210 C1209 1.396 . S
C1211 C1206 1.499 . S
C1211 H1212 0.959 . S
C1211 H1213 0.960 . S
C1211 H1214 0.961 . S
H1212 C1211 0.959 . S
H1213 C1211 0.960 . S
H1214 C1211 0.961 . S
O1215 Co1190 1.967 . S
O1215 C1223 1.258 . S
O1216 Co1191 1.941 . S
O1216 C1223 1.266 . S
H1217 C1219 0.959 . S
H1218 C1219 0.961 . S
C1219 C1209 1.510 . S
C1219 H1217 0.959 . S
C1219 H1218 0.961 . S
C1219 H1220 0.960 . S
H1220 C1219 0.960 . S
H1221 N1201 0.862 . S
O1222 Co1190 1.920 . S
O1222 C1195 1.289 . S
C1223 O1215 1.258 . S
C1223 O1216 1.266 . S
Co1224 O1227 1.970 . S
Co1224 N1241 1.989 . S
Co1224 O1249 1.967 . S
Co1224 O1256 1.920 . S
Co1225 O1228 1.966 . S
Co1225 N1234 2.022 . S
Co1225 N1242 1.993 . S
Co1225 O1250 1.941 . S
C1226 O1227 1.258 . S
C1226 O1228 1.263 . S
O1227 Co1224 1.970 . S
O1227 C1226 1.258 . S
O1228 Co1225 1.966 . S
O1228 C1226 1.263 . S
C1229 O1230 1.235 . S
C1229 O1256 1.289 . S
O1230 C1229 1.235 . S
C1231 C1233 1.400 . S
C1231 N1234 1.351 . S
C1231 C1236 1.501 . S
C1232 C1233 1.387 . S
C1232 N1235 1.341 . S
C1233 C1231 1.400 . S
C1233 C1232 1.387 . S
N1234 Co1225 2.022 . S
N1234 C1231 1.351 . S
N1234 N1235 1.365 . S
N1235 C1232 1.341 . S
N1235 N1234 1.365 . S
N1235 H1255 0.862 . S
C1236 C1231 1.501 . S
C1236 H1237 0.961 . S
C1236 H1238 0.961 . S
C1236 H1239 0.960 . S
H1237 C1236 0.961 . S
H1238 C1236 0.961 . S
H1239 C1236 0.960 . S
C1240 N1241 1.342 . S
C1240 C1244 1.401 . S
C1240 C1245 1.499 . S
N1241 Co1224 1.989 . S
N1241 C1240 1.342 . S
N1241 N1242 1.388 . S
N1242 Co1225 1.993 . S
N1242 N1241 1.388 . S
N1242 C1243 1.346 . S
C1243 N1242 1.346 . S
C1243 C1244 1.396 . S
C1243 C1253 1.510 . S
C1244 C1240 1.401 . S
C1244 C1243 1.396 . S
C1245 C1240 1.499 . S
C1245 H1246 0.959 . S
C1245 H1247 0.960 . S
C1245 H1248 0.961 . S
H1246 C1245 0.959 . S
H1247 C1245 0.960 . S
H1248 C1245 0.961 . S
O1249 Co1224 1.967 . S
O1249 C1257 1.258 . S
O1250 Co1225 1.941 . S
O1250 C1257 1.266 . S
H1251 C1253 0.959 . S
H1252 C1253 0.961 . S
C1253 C1243 1.510 . S
C1253 H1251 0.959 . S
C1253 H1252 0.961 . S
C1253 H1254 0.960 . S
H1254 C1253 0.960 . S
H1255 N1235 0.862 . S
O1256 Co1224 1.920 . S
O1256 C1229 1.289 . S
C1257 O1249 1.258 . S
C1257 O1250 1.266 . S
Co1258 O1261 1.970 . S
Co1258 N1275 1.989 . S
Co1258 O1283 1.967 . S
Co1258 O1290 1.920 . S
Co1259 O1262 1.966 . S
Co1259 N1268 2.022 . S
Co1259 N1276 1.993 . S
Co1259 O1284 1.941 . S
C1260 O1261 1.258 . S
C1260 O1262 1.263 . S
O1261 Co1258 1.970 . S
O1261 C1260 1.258 . S
O1262 Co1259 1.966 . S
O1262 C1260 1.263 . S
C1263 O1264 1.235 . S
C1263 O1290 1.289 . S
O1264 C1263 1.235 . S
C1265 C1267 1.400 . S
C1265 N1268 1.351 . S
C1265 C1270 1.501 . S
C1266 C1267 1.387 . S
C1266 N1269 1.341 . S
C1267 C1265 1.400 . S
C1267 C1266 1.387 . S
N1268 Co1259 2.022 . S
N1268 C1265 1.351 . S
N1268 N1269 1.365 . S
N1269 C1266 1.341 . S
N1269 N1268 1.365 . S
N1269 H1289 0.862 . S
C1270 C1265 1.501 . S
C1270 H1271 0.961 . S
C1270 H1272 0.961 . S
C1270 H1273 0.960 . S
H1271 C1270 0.961 . S
H1272 C1270 0.961 . S
H1273 C1270 0.960 . S
C1274 N1275 1.342 . S
C1274 C1278 1.401 . S
C1274 C1279 1.499 . S
N1275 Co1258 1.989 . S
N1275 C1274 1.342 . S
N1275 N1276 1.388 . S
N1276 Co1259 1.993 . S
N1276 N1275 1.388 . S
N1276 C1277 1.346 . S
C1277 N1276 1.346 . S
C1277 C1278 1.396 . S
C1277 C1287 1.510 . S
C1278 C1274 1.401 . S
C1278 C1277 1.396 . S
C1279 C1274 1.499 . S
C1279 H1280 0.959 . S
C1279 H1281 0.960 . S
C1279 H1282 0.961 . S
H1280 C1279 0.959 . S
H1281 C1279 0.960 . S
H1282 C1279 0.961 . S
O1283 Co1258 1.967 . S
O1283 C1291 1.258 . S
O1284 Co1259 1.941 . S
O1284 C1291 1.266 . S
H1285 C1287 0.959 . S
H1286 C1287 0.961 . S
C1287 C1277 1.510 . S
C1287 H1285 0.959 . S
C1287 H1286 0.961 . S
C1287 H1288 0.960 . S
H1288 C1287 0.960 . S
H1289 N1269 0.862 . S
O1290 Co1258 1.920 . S
O1290 C1263 1.289 . S
C1291 O1283 1.258 . S
C1291 O1284 1.266 . S
Co1292 O1295 1.970 . S
Co1292 N1309 1.989 . S
Co1292 O1317 1.967 . S
Co1292 O1324 1.920 . S
Co1293 O1296 1.966 . S
Co1293 N1302 2.022 . S
Co1293 N1310 1.993 . S
Co1293 O1318 1.941 . S
C1294 O1295 1.258 . S
C1294 O1296 1.263 . S
O1295 Co1292 1.970 . S
O1295 C1294 1.258 . S
O1296 Co1293 1.966 . S
O1296 C1294 1.263 . S
C1297 O1298 1.235 . S
C1297 O1324 1.289 . S
O1298 C1297 1.235 . S
C1299 C1301 1.400 . S
C1299 N1302 1.351 . S
C1299 C1304 1.501 . S
C1300 C1301 1.387 . S
C1300 N1303 1.341 . S
C1301 C1299 1.400 . S
C1301 C1300 1.387 . S
N1302 Co1293 2.022 . S
N1302 C1299 1.351 . S
N1302 N1303 1.365 . S
N1303 C1300 1.341 . S
N1303 N1302 1.365 . S
N1303 H1323 0.862 . S
C1304 C1299 1.501 . S
C1304 H1305 0.961 . S
C1304 H1306 0.961 . S
C1304 H1307 0.960 . S
H1305 C1304 0.961 . S
H1306 C1304 0.961 . S
H1307 C1304 0.960 . S
C1308 N1309 1.342 . S
C1308 C1312 1.401 . S
C1308 C1313 1.499 . S
N1309 Co1292 1.989 . S
N1309 C1308 1.342 . S
N1309 N1310 1.388 . S
N1310 Co1293 1.993 . S
N1310 N1309 1.388 . S
N1310 C1311 1.346 . S
C1311 N1310 1.346 . S
C1311 C1312 1.396 . S
C1311 C1321 1.510 . S
C1312 C1308 1.401 . S
C1312 C1311 1.396 . S
C1313 C1308 1.499 . S
C1313 H1314 0.959 . S
C1313 H1315 0.960 . S
C1313 H1316 0.961 . S
H1314 C1313 0.959 . S
H1315 C1313 0.960 . S
H1316 C1313 0.961 . S
O1317 Co1292 1.967 . S
O1317 C1325 1.258 . S
O1318 Co1293 1.941 . S
O1318 C1325 1.266 . S
H1319 C1321 0.959 . S
H1320 C1321 0.961 . S
C1321 C1311 1.510 . S
C1321 H1319 0.959 . S
C1321 H1320 0.961 . S
C1321 H1322 0.960 . S
H1322 C1321 0.960 . S
H1323 N1303 0.862 . S
O1324 Co1292 1.920 . S
O1324 C1297 1.289 . S
C1325 O1317 1.258 . S
C1325 O1318 1.266 . S
Co1326 O1329 1.970 . S
Co1326 N1343 1.989 . S
Co1326 O1351 1.967 . S
Co1326 O1358 1.920 . S
Co1327 O1330 1.966 . S
Co1327 N1336 2.022 . S
Co1327 N1344 1.993 . S
Co1327 O1352 1.941 . S
C1328 O1329 1.258 . S
C1328 O1330 1.263 . S
O1329 Co1326 1.970 . S
O1329 C1328 1.258 . S
O1330 Co1327 1.966 . S
O1330 C1328 1.263 . S
C1331 O1332 1.235 . S
C1331 O1358 1.289 . S
O1332 C1331 1.235 . S
C1333 C1335 1.400 . S
C1333 N1336 1.351 . S
C1333 C1338 1.501 . S
C1334 C1335 1.387 . S
C1334 N1337 1.341 . S
C1335 C1333 1.400 . S
C1335 C1334 1.387 . S
N1336 Co1327 2.022 . S
N1336 C1333 1.351 . S
N1336 N1337 1.365 . S
N1337 C1334 1.341 . S
N1337 N1336 1.365 . S
N1337 H1357 0.862 . S
C1338 C1333 1.501 . S
C1338 H1339 0.961 . S
C1338 H1340 0.961 . S
C1338 H1341 0.960 . S
H1339 C1338 0.961 . S
H1340 C1338 0.961 . S
H1341 C1338 0.960 . S
C1342 N1343 1.342 . S
C1342 C1346 1.401 . S
C1342 C1347 1.499 . S
N1343 Co1326 1.989 . S
N1343 C1342 1.342 . S
N1343 N1344 1.388 . S
N1344 Co1327 1.993 . S
N1344 N1343 1.388 . S
N1344 C1345 1.346 . S
C1345 N1344 1.346 . S
C1345 C1346 1.396 . S
C1345 C1355 1.510 . S
C1346 C1342 1.401 . S
C1346 C1345 1.396 . S
C1347 C1342 1.499 . S
C1347 H1348 0.959 . S
C1347 H1349 0.960 . S
C1347 H1350 0.961 . S
H1348 C1347 0.959 . S
H1349 C1347 0.960 . S
H1350 C1347 0.961 . S
O1351 Co1326 1.967 . S
O1351 C1359 1.258 . S
O1352 Co1327 1.941 . S
O1352 C1359 1.266 . S
H1353 C1355 0.959 . S
H1354 C1355 0.961 . S
C1355 C1345 1.510 . S
C1355 H1353 0.959 . S
C1355 H1354 0.961 . S
C1355 H1356 0.960 . S
H1356 C1355 0.960 . S
H1357 N1337 0.862 . S
O1358 Co1326 1.920 . S
O1358 C1331 1.289 . S
C1359 O1351 1.258 . S
C1359 O1352 1.266 . S
Co1360 O1363 1.970 . S
Co1360 N1377 1.989 . S
Co1360 O1385 1.967 . S
Co1360 O1392 1.920 . S
Co1361 O1364 1.966 . S
Co1361 N1370 2.022 . S
Co1361 N1378 1.993 . S
Co1361 O1386 1.941 . S
C1362 O1363 1.258 . S
C1362 O1364 1.263 . S
O1363 Co1360 1.970 . S
O1363 C1362 1.258 . S
O1364 Co1361 1.966 . S
O1364 C1362 1.263 . S
C1365 O1366 1.235 . S
C1365 O1392 1.289 . S
O1366 C1365 1.235 . S
C1367 C1369 1.400 . S
C1367 N1370 1.351 . S
C1367 C1372 1.501 . S
C1368 C1369 1.387 . S
C1368 N1371 1.341 . S
C1369 C1367 1.400 . S
C1369 C1368 1.387 . S
N1370 Co1361 2.022 . S
N1370 C1367 1.351 . S
N1370 N1371 1.365 . S
N1371 C1368 1.341 . S
N1371 N1370 1.365 . S
N1371 H1391 0.862 . S
C1372 C1367 1.501 . S
C1372 H1373 0.961 . S
C1372 H1374 0.961 . S
C1372 H1375 0.960 . S
H1373 C1372 0.961 . S
H1374 C1372 0.961 . S
H1375 C1372 0.960 . S
C1376 N1377 1.342 . S
C1376 C1380 1.401 . S
C1376 C1381 1.499 . S
N1377 Co1360 1.989 . S
N1377 C1376 1.342 . S
N1377 N1378 1.388 . S
N1378 Co1361 1.993 . S
N1378 N1377 1.388 . S
N1378 C1379 1.346 . S
C1379 N1378 1.346 . S
C1379 C1380 1.396 . S
C1379 C1389 1.510 . S
C1380 C1376 1.401 . S
C1380 C1379 1.396 . S
C1381 C1376 1.499 . S
C1381 H1382 0.959 . S
C1381 H1383 0.960 . S
C1381 H1384 0.961 . S
H1382 C1381 0.959 . S
H1383 C1381 0.960 . S
H1384 C1381 0.961 . S
O1385 Co1360 1.967 . S
O1385 C1393 1.258 . S
O1386 Co1361 1.941 . S
O1386 C1393 1.266 . S
H1387 C1389 0.959 . S
H1388 C1389 0.961 . S
C1389 C1379 1.510 . S
C1389 H1387 0.959 . S
C1389 H1388 0.961 . S
C1389 H1390 0.960 . S
H1390 C1389 0.960 . S
H1391 N1371 0.862 . S
O1392 Co1360 1.920 . S
O1392 C1365 1.289 . S
C1393 O1385 1.258 . S
C1393 O1386 1.266 . S
Co1394 O1397 1.970 . S
Co1394 N1411 1.989 . S
Co1394 O1419 1.967 . S
Co1394 O1426 1.920 . S
Co1395 O1398 1.966 . S
Co1395 N1404 2.022 . S
Co1395 N1412 1.993 . S
Co1395 O1420 1.941 . S
C1396 O1397 1.258 . S
C1396 O1398 1.263 . S
O1397 Co1394 1.970 . S
O1397 C1396 1.258 . S
O1398 Co1395 1.966 . S
O1398 C1396 1.263 . S
C1399 O1400 1.235 . S
C1399 O1426 1.289 . S
O1400 C1399 1.235 . S
C1401 C1403 1.400 . S
C1401 N1404 1.351 . S
C1401 C1406 1.501 . S
C1402 C1403 1.387 . S
C1402 N1405 1.341 . S
C1403 C1401 1.400 . S
C1403 C1402 1.387 . S
N1404 Co1395 2.022 . S
N1404 C1401 1.351 . S
N1404 N1405 1.365 . S
N1405 C1402 1.341 . S
N1405 N1404 1.365 . S
N1405 H1425 0.862 . S
C1406 C1401 1.501 . S
C1406 H1407 0.961 . S
C1406 H1408 0.961 . S
C1406 H1409 0.960 . S
H1407 C1406 0.961 . S
H1408 C1406 0.961 . S
H1409 C1406 0.960 . S
C1410 N1411 1.342 . S
C1410 C1414 1.401 . S
C1410 C1415 1.499 . S
N1411 Co1394 1.989 . S
N1411 C1410 1.342 . S
N1411 N1412 1.388 . S
N1412 Co1395 1.993 . S
N1412 N1411 1.388 . S
N1412 C1413 1.346 . S
C1413 N1412 1.346 . S
C1413 C1414 1.396 . S
C1413 C1423 1.510 . S
C1414 C1410 1.401 . S
C1414 C1413 1.396 . S
C1415 C1410 1.499 . S
C1415 H1416 0.959 . S
C1415 H1417 0.960 . S
C1415 H1418 0.961 . S
H1416 C1415 0.959 . S
H1417 C1415 0.960 . S
H1418 C1415 0.961 . S
O1419 Co1394 1.967 . S
O1419 C1427 1.258 . S
O1420 Co1395 1.941 . S
O1420 C1427 1.266 . S
H1421 C1423 0.959 . S
H1422 C1423 0.961 . S
C1423 C1413 1.510 . S
C1423 H1421 0.959 . S
C1423 H1422 0.961 . S
C1423 H1424 0.960 . S
H1424 C1423 0.960 . S
H1425 N1405 0.862 . S
O1426 Co1394 1.920 . S
O1426 C1399 1.289 . S
C1427 O1419 1.258 . S
C1427 O1420 1.266 . S
Co1428 O1431 1.970 . S
Co1428 N1445 1.989 . S
Co1428 O1453 1.967 . S
Co1428 O1460 1.920 . S
Co1429 O1432 1.966 . S
Co1429 N1438 2.022 . S
Co1429 N1446 1.993 . S
Co1429 O1454 1.941 . S
C1430 O1431 1.258 . S
C1430 O1432 1.263 . S
O1431 Co1428 1.970 . S
O1431 C1430 1.258 . S
O1432 Co1429 1.966 . S
O1432 C1430 1.263 . S
C1433 O1434 1.235 . S
C1433 O1460 1.289 . S
O1434 C1433 1.235 . S
C1435 C1437 1.400 . S
C1435 N1438 1.351 . S
C1435 C1440 1.501 . S
C1436 C1437 1.387 . S
C1436 N1439 1.341 . S
C1437 C1435 1.400 . S
C1437 C1436 1.387 . S
N1438 Co1429 2.022 . S
N1438 C1435 1.351 . S
N1438 N1439 1.365 . S
N1439 C1436 1.341 . S
N1439 N1438 1.365 . S
N1439 H1459 0.862 . S
C1440 C1435 1.501 . S
C1440 H1441 0.961 . S
C1440 H1442 0.961 . S
C1440 H1443 0.960 . S
H1441 C1440 0.961 . S
H1442 C1440 0.961 . S
H1443 C1440 0.960 . S
C1444 N1445 1.342 . S
C1444 C1448 1.401 . S
C1444 C1449 1.499 . S
N1445 Co1428 1.989 . S
N1445 C1444 1.342 . S
N1445 N1446 1.388 . S
N1446 Co1429 1.993 . S
N1446 N1445 1.388 . S
N1446 C1447 1.346 . S
C1447 N1446 1.346 . S
C1447 C1448 1.396 . S
C1447 C1457 1.510 . S
C1448 C1444 1.401 . S
C1448 C1447 1.396 . S
C1449 C1444 1.499 . S
C1449 H1450 0.959 . S
C1449 H1451 0.960 . S
C1449 H1452 0.961 . S
H1450 C1449 0.959 . S
H1451 C1449 0.960 . S
H1452 C1449 0.961 . S
O1453 Co1428 1.967 . S
O1453 C1461 1.258 . S
O1454 Co1429 1.941 . S
O1454 C1461 1.266 . S
H1455 C1457 0.959 . S
H1456 C1457 0.961 . S
C1457 C1447 1.510 . S
C1457 H1455 0.959 . S
C1457 H1456 0.961 . S
C1457 H1458 0.960 . S
H1458 C1457 0.960 . S
H1459 N1439 0.862 . S
O1460 Co1428 1.920 . S
O1460 C1433 1.289 . S
C1461 O1453 1.258 . S
C1461 O1454 1.266 . S
Co1462 O1465 1.970 . S
Co1462 N1479 1.989 . S
Co1462 O1487 1.967 . S
Co1462 O1494 1.920 . S
Co1463 O1466 1.966 . S
Co1463 N1472 2.022 . S
Co1463 N1480 1.993 . S
Co1463 O1488 1.941 . S
C1464 O1465 1.258 . S
C1464 O1466 1.263 . S
O1465 Co1462 1.970 . S
O1465 C1464 1.258 . S
O1466 Co1463 1.966 . S
O1466 C1464 1.263 . S
C1467 O1468 1.235 . S
C1467 O1494 1.289 . S
O1468 C1467 1.235 . S
C1469 C1471 1.400 . S
C1469 N1472 1.351 . S
C1469 C1474 1.501 . S
C1470 C1471 1.387 . S
C1470 N1473 1.341 . S
C1471 C1469 1.400 . S
C1471 C1470 1.387 . S
N1472 Co1463 2.022 . S
N1472 C1469 1.351 . S
N1472 N1473 1.365 . S
N1473 C1470 1.341 . S
N1473 N1472 1.365 . S
N1473 H1493 0.862 . S
C1474 C1469 1.501 . S
C1474 H1475 0.961 . S
C1474 H1476 0.961 . S
C1474 H1477 0.960 . S
H1475 C1474 0.961 . S
H1476 C1474 0.961 . S
H1477 C1474 0.960 . S
C1478 N1479 1.342 . S
C1478 C1482 1.401 . S
C1478 C1483 1.499 . S
N1479 Co1462 1.989 . S
N1479 C1478 1.342 . S
N1479 N1480 1.388 . S
N1480 Co1463 1.993 . S
N1480 N1479 1.388 . S
N1480 C1481 1.346 . S
C1481 N1480 1.346 . S
C1481 C1482 1.396 . S
C1481 C1491 1.510 . S
C1482 C1478 1.401 . S
C1482 C1481 1.396 . S
C1483 C1478 1.499 . S
C1483 H1484 0.959 . S
C1483 H1485 0.960 . S
C1483 H1486 0.961 . S
H1484 C1483 0.959 . S
H1485 C1483 0.960 . S
H1486 C1483 0.961 . S
O1487 Co1462 1.967 . S
O1487 C1495 1.258 . S
O1488 Co1463 1.941 . S
O1488 C1495 1.266 . S
H1489 C1491 0.959 . S
H1490 C1491 0.961 . S
C1491 C1481 1.510 . S
C1491 H1489 0.959 . S
C1491 H1490 0.961 . S
C1491 H1492 0.960 . S
H1492 C1491 0.960 . S
H1493 N1473 0.862 . S
O1494 Co1462 1.920 . S
O1494 C1467 1.289 . S
C1495 O1487 1.258 . S
C1495 O1488 1.266 . S
Co1496 O1499 1.970 . S
Co1496 N1513 1.989 . S
Co1496 O1521 1.967 . S
Co1496 O1528 1.920 . S
Co1497 O1500 1.966 . S
Co1497 N1506 2.022 . S
Co1497 N1514 1.993 . S
Co1497 O1522 1.941 . S
C1498 O1499 1.258 . S
C1498 O1500 1.263 . S
O1499 Co1496 1.970 . S
O1499 C1498 1.258 . S
O1500 Co1497 1.966 . S
O1500 C1498 1.263 . S
C1501 O1502 1.235 . S
C1501 O1528 1.289 . S
O1502 C1501 1.235 . S
C1503 C1505 1.400 . S
C1503 N1506 1.351 . S
C1503 C1508 1.501 . S
C1504 C1505 1.387 . S
C1504 N1507 1.341 . S
C1505 C1503 1.400 . S
C1505 C1504 1.387 . S
N1506 Co1497 2.022 . S
N1506 C1503 1.351 . S
N1506 N1507 1.365 . S
N1507 C1504 1.341 . S
N1507 N1506 1.365 . S
N1507 H1527 0.862 . S
C1508 C1503 1.501 . S
C1508 H1509 0.961 . S
C1508 H1510 0.961 . S
C1508 H1511 0.960 . S
H1509 C1508 0.961 . S
H1510 C1508 0.961 . S
H1511 C1508 0.960 . S
C1512 N1513 1.342 . S
C1512 C1516 1.401 . S
C1512 C1517 1.499 . S
N1513 Co1496 1.989 . S
N1513 C1512 1.342 . S
N1513 N1514 1.388 . S
N1514 Co1497 1.993 . S
N1514 N1513 1.388 . S
N1514 C1515 1.346 . S
C1515 N1514 1.346 . S
C1515 C1516 1.396 . S
C1515 C1525 1.510 . S
C1516 C1512 1.401 . S
C1516 C1515 1.396 . S
C1517 C1512 1.499 . S
C1517 H1518 0.959 . S
C1517 H1519 0.960 . S
C1517 H1520 0.961 . S
H1518 C1517 0.959 . S
H1519 C1517 0.960 . S
H1520 C1517 0.961 . S
O1521 Co1496 1.967 . S
O1521 C1529 1.258 . S
O1522 Co1497 1.941 . S
O1522 C1529 1.266 . S
H1523 C1525 0.959 . S
H1524 C1525 0.961 . S
C1525 C1515 1.510 . S
C1525 H1523 0.959 . S
C1525 H1524 0.961 . S
C1525 H1526 0.960 . S
H1526 C1525 0.960 . S
H1527 N1507 0.862 . S
O1528 Co1496 1.920 . S
O1528 C1501 1.289 . S
C1529 O1521 1.258 . S
C1529 O1522 1.266 . S
Co1530 O1533 1.970 . S
Co1530 N1547 1.989 . S
Co1530 O1555 1.967 . S
Co1530 O1562 1.920 . S
Co1531 O1534 1.966 . S
Co1531 N1540 2.022 . S
Co1531 N1548 1.993 . S
Co1531 O1556 1.941 . S
C1532 O1533 1.258 . S
C1532 O1534 1.263 . S
O1533 Co1530 1.970 . S
O1533 C1532 1.258 . S
O1534 Co1531 1.966 . S
O1534 C1532 1.263 . S
C1535 O1536 1.235 . S
C1535 O1562 1.289 . S
O1536 C1535 1.235 . S
C1537 C1539 1.400 . S
C1537 N1540 1.351 . S
C1537 C1542 1.501 . S
C1538 C1539 1.387 . S
C1538 N1541 1.341 . S
C1539 C1537 1.400 . S
C1539 C1538 1.387 . S
N1540 Co1531 2.022 . S
N1540 C1537 1.351 . S
N1540 N1541 1.365 . S
N1541 C1538 1.341 . S
N1541 N1540 1.365 . S
N1541 H1561 0.862 . S
C1542 C1537 1.501 . S
C1542 H1543 0.961 . S
C1542 H1544 0.961 . S
C1542 H1545 0.960 . S
H1543 C1542 0.961 . S
H1544 C1542 0.961 . S
H1545 C1542 0.960 . S
C1546 N1547 1.342 . S
C1546 C1550 1.401 . S
C1546 C1551 1.499 . S
N1547 Co1530 1.989 . S
N1547 C1546 1.342 . S
N1547 N1548 1.388 . S
N1548 Co1531 1.993 . S
N1548 N1547 1.388 . S
N1548 C1549 1.346 . S
C1549 N1548 1.346 . S
C1549 C1550 1.396 . S
C1549 C1559 1.510 . S
C1550 C1546 1.401 . S
C1550 C1549 1.396 . S
C1551 C1546 1.499 . S
C1551 H1552 0.959 . S
C1551 H1553 0.960 . S
C1551 H1554 0.961 . S
H1552 C1551 0.959 . S
H1553 C1551 0.960 . S
H1554 C1551 0.961 . S
O1555 Co1530 1.967 . S
O1555 C1563 1.258 . S
O1556 Co1531 1.941 . S
O1556 C1563 1.266 . S
H1557 C1559 0.959 . S
H1558 C1559 0.961 . S
C1559 C1549 1.510 . S
C1559 H1557 0.959 . S
C1559 H1558 0.961 . S
C1559 H1560 0.960 . S
H1560 C1559 0.960 . S
H1561 N1541 0.862 . S
O1562 Co1530 1.920 . S
O1562 C1535 1.289 . S
C1563 O1555 1.258 . S
C1563 O1556 1.266 . S
Co1564 O1567 1.970 . S
Co1564 N1581 1.989 . S
Co1564 O1589 1.967 . S
Co1564 O1596 1.920 . S
Co1565 O1568 1.966 . S
Co1565 N1574 2.022 . S
Co1565 N1582 1.993 . S
Co1565 O1590 1.941 . S
C1566 O1567 1.258 . S
C1566 O1568 1.263 . S
O1567 Co1564 1.970 . S
O1567 C1566 1.258 . S
O1568 Co1565 1.966 . S
O1568 C1566 1.263 . S
C1569 O1570 1.235 . S
C1569 O1596 1.289 . S
O1570 C1569 1.235 . S
C1571 C1573 1.400 . S
C1571 N1574 1.351 . S
C1571 C1576 1.501 . S
C1572 C1573 1.387 . S
C1572 N1575 1.341 . S
C1573 C1571 1.400 . S
C1573 C1572 1.387 . S
N1574 Co1565 2.022 . S
N1574 C1571 1.351 . S
N1574 N1575 1.365 . S
N1575 C1572 1.341 . S
N1575 N1574 1.365 . S
N1575 H1595 0.862 . S
C1576 C1571 1.501 . S
C1576 H1577 0.961 . S
C1576 H1578 0.961 . S
C1576 H1579 0.960 . S
H1577 C1576 0.961 . S
H1578 C1576 0.961 . S
H1579 C1576 0.960 . S
C1580 N1581 1.342 . S
C1580 C1584 1.401 . S
C1580 C1585 1.499 . S
N1581 Co1564 1.989 . S
N1581 C1580 1.342 . S
N1581 N1582 1.388 . S
N1582 Co1565 1.993 . S
N1582 N1581 1.388 . S
N1582 C1583 1.346 . S
C1583 N1582 1.346 . S
C1583 C1584 1.396 . S
C1583 C1593 1.510 . S
C1584 C1580 1.401 . S
C1584 C1583 1.396 . S
C1585 C1580 1.499 . S
C1585 H1586 0.959 . S
C1585 H1587 0.960 . S
C1585 H1588 0.961 . S
H1586 C1585 0.959 . S
H1587 C1585 0.960 . S
H1588 C1585 0.961 . S
O1589 Co1564 1.967 . S
O1589 C1597 1.258 . S
O1590 Co1565 1.941 . S
O1590 C1597 1.266 . S
H1591 C1593 0.959 . S
H1592 C1593 0.961 . S
C1593 C1583 1.510 . S
C1593 H1591 0.959 . S
C1593 H1592 0.961 . S
C1593 H1594 0.960 . S
H1594 C1593 0.960 . S
H1595 N1575 0.862 . S
O1596 Co1564 1.920 . S
O1596 C1569 1.289 . S
C1597 O1589 1.258 . S
C1597 O1590 1.266 . S
Co1598 O1601 1.970 . S
Co1598 N1615 1.989 . S
Co1598 O1623 1.967 . S
Co1598 O1630 1.920 . S
Co1599 O1602 1.966 . S
Co1599 N1608 2.022 1_554 S
Co1599 N1616 1.993 . S
Co1599 O1624 1.941 . S
C1600 O1601 1.258 . S
C1600 O1602 1.263 . S
O1601 Co1598 1.970 . S
O1601 C1600 1.258 . S
O1602 Co1599 1.966 . S
O1602 C1600 1.263 . S
C1603 O1604 1.235 . S
C1603 O1630 1.289 . S
O1604 C1603 1.235 . S
C1605 C1607 1.400 . S
C1605 N1608 1.351 . S
C1605 C1610 1.501 1_556 S
C1606 C1607 1.387 . S
C1606 N1609 1.341 . S
C1607 C1605 1.400 . S
C1607 C1606 1.387 . S
N1608 Co1599 2.022 1_556 S
N1608 C1605 1.351 . S
N1608 N1609 1.365 . S
N1609 C1606 1.341 . S
N1609 N1608 1.365 . S
N1609 H1629 0.862 . S
C1610 C1605 1.501 1_554 S
C1610 H1611 0.961 . S
C1610 H1612 0.961 . S
C1610 H1613 0.960 . S
H1611 C1610 0.961 . S
H1612 C1610 0.961 . S
H1613 C1610 0.960 . S
C1614 N1615 1.342 . S
C1614 C1618 1.401 . S
C1614 C1619 1.499 . S
N1615 Co1598 1.989 . S
N1615 C1614 1.342 . S
N1615 N1616 1.388 . S
N1616 Co1599 1.993 . S
N1616 N1615 1.388 . S
N1616 C1617 1.346 1_554 S
C1617 N1616 1.346 1_556 S
C1617 C1618 1.396 1_556 S
C1617 C1627 1.510 . S
C1618 C1614 1.401 . S
C1618 C1617 1.396 1_554 S
C1619 C1614 1.499 . S
C1619 H1620 0.959 . S
C1619 H1621 0.960 . S
C1619 H1622 0.961 . S
H1620 C1619 0.959 . S
H1621 C1619 0.960 . S
H1622 C1619 0.961 . S
O1623 Co1598 1.967 . S
O1623 C1631 1.258 . S
O1624 Co1599 1.941 . S
O1624 C1631 1.266 . S
H1625 C1627 0.959 . S
H1626 C1627 0.961 . S
C1627 C1617 1.510 . S
C1627 H1625 0.959 . S
C1627 H1626 0.961 . S
C1627 H1628 0.960 . S
H1628 C1627 0.960 . S
H1629 N1609 0.862 . S
O1630 Co1598 1.920 . S
O1630 C1603 1.289 . S
C1631 O1623 1.258 . S
C1631 O1624 1.266 . S
H1632 C1638 0.930 . S
H1633 C1641 0.930 . S
H1634 C1642 0.930 . S
H1635 C1643 0.930 . S
H1636 C1646 0.930 . S
H1637 C1647 0.930 . S
C1638 H1632 0.930 . S
C1638 C1639 1.355 . S
C1638 C1640 1.415 . S
C1639 C1638 1.355 . S
C1639 C1641 1.419 . S
C1640 C1638 1.415 . S
C1640 C1645 1.425 . S
C1640 C1647 1.409 . S
C1641 H1633 0.930 . S
C1641 C1639 1.419 . S
C1641 C1642 1.362 . S
C1642 H1634 0.930 . S
C1642 C1641 1.362 . S
C1642 C1645 1.409 . S
C1643 H1635 0.930 . S
C1643 C1644 1.355 . S
C1643 C1645 1.415 . S
C1644 C1643 1.355 . S
C1644 C1646 1.419 . S
C1645 C1640 1.425 . S
C1645 C1642 1.409 . S
C1645 C1643 1.415 . S
C1646 H1636 0.930 . S
C1646 C1644 1.419 . S
C1646 C1647 1.362 . S
C1647 H1637 0.930 . S
C1647 C1640 1.409 . S
C1647 C1646 1.362 . S
H1648 C1654 0.930 . S
H1649 C1657 0.930 . S
H1650 C1658 0.930 . S
H1651 C1659 0.930 . S
H1652 C1662 0.930 . S
H1653 C1663 0.930 . S
C1654 H1648 0.930 . S
C1654 C1655 1.355 . S
C1654 C1656 1.415 . S
C1655 C1654 1.355 . S
C1655 C1657 1.419 . S
C1656 C1654 1.415 . S
C1656 C1661 1.425 . S
C1656 C1663 1.409 . S
C1657 H1649 0.930 . S
C1657 C1655 1.419 . S
C1657 C1658 1.362 . S
C1658 H1650 0.930 . S
C1658 C1657 1.362 . S
C1658 C1661 1.409 . S
C1659 H1651 0.930 . S
C1659 C1660 1.355 . S
C1659 C1661 1.415 . S
C1660 C1659 1.355 . S
C1660 C1662 1.419 . S
C1661 C1656 1.425 . S
C1661 C1658 1.409 . S
C1661 C1659 1.415 . S
C1662 H1652 0.930 . S
C1662 C1660 1.419 . S
C1662 C1663 1.362 . S
C1663 H1653 0.930 . S
C1663 C1656 1.409 . S
C1663 C1662 1.362 . S
H1664 C1670 0.930 . S
H1665 C1673 0.930 1_655 S
H1666 C1674 0.930 1_655 S
H1667 C1675 0.930 . S
H1668 C1678 0.930 . S
H1669 C1679 0.930 . S
C1670 H1664 0.930 . S
C1670 C1671 1.355 . S
C1670 C1672 1.415 . S
C1671 C1670 1.355 . S
C1671 C1673 1.419 . S
C1672 C1670 1.415 . S
C1672 C1677 1.425 . S
C1672 C1679 1.409 . S
C1673 H1665 0.930 1_455 S
C1673 C1671 1.419 . S
C1673 C1674 1.362 . S
C1674 H1666 0.930 1_455 S
C1674 C1673 1.362 . S
C1674 C1677 1.409 . S
C1675 H1667 0.930 . S
C1675 C1676 1.355 . S
C1675 C1677 1.415 . S
C1676 C1675 1.355 . S
C1676 C1678 1.419 . S
C1677 C1672 1.425 . S
C1677 C1674 1.409 . S
C1677 C1675 1.415 . S
C1678 H1668 0.930 . S
C1678 C1676 1.419 . S
C1678 C1679 1.362 . S
C1679 H1669 0.930 . S
C1679 C1672 1.409 . S
C1679 C1678 1.362 . S
H1680 C1686 0.930 . S
H1681 C1689 0.930 . S
H1682 C1690 0.930 . S
H1683 C1691 0.930 . S
H1684 C1694 0.930 . S
H1685 C1695 0.930 . S
C1686 H1680 0.930 . S
C1686 C1687 1.355 . S
C1686 C1688 1.415 . S
C1687 C1686 1.355 . S
C1687 C1689 1.419 . S
C1688 C1686 1.415 . S
C1688 C1693 1.425 . S
C1688 C1695 1.409 . S
C1689 H1681 0.930 . S
C1689 C1687 1.419 . S
C1689 C1690 1.362 . S
C1690 H1682 0.930 . S
C1690 C1689 1.362 . S
C1690 C1693 1.409 . S
C1691 H1683 0.930 . S
C1691 C1692 1.355 . S
C1691 C1693 1.415 . S
C1692 C1691 1.355 . S
C1692 C1694 1.419 . S
C1693 C1688 1.425 . S
C1693 C1690 1.409 . S
C1693 C1691 1.415 . S
C1694 H1684 0.930 . S
C1694 C1692 1.419 . S
C1694 C1695 1.362 . S
C1695 H1685 0.930 . S
C1695 C1688 1.409 . S
C1695 C1694 1.362 . S
H1696 C1702 0.930 . S
H1697 C1705 0.954 . S
H1698 C1706 0.930 . S
H1699 C1707 0.934 . S
H1700 C1710 0.930 . S
H1701 C1711 0.930 . S
C1702 H1696 0.930 . S
C1702 C1703 1.355 . S
C1702 C1704 1.415 . S
C1703 C1702 1.355 . S
C1703 C1705 1.419 . S
C1704 C1702 1.415 . S
C1704 C1709 1.425 . S
C1704 C1711 1.409 . S
C1705 H1697 0.954 . S
C1705 C1703 1.419 . S
C1705 C1706 1.362 1_455 S
C1706 H1698 0.930 . S
C1706 C1705 1.362 1_655 S
C1706 C1709 1.409 1_655 S
C1707 H1699 0.934 . S
C1707 C1708 1.352 1_655 S
C1707 C1709 1.413 1_655 S
C1708 C1707 1.352 1_455 S
C1708 C1710 1.419 . S
C1709 C1704 1.425 . S
C1709 C1706 1.409 1_455 S
C1709 C1707 1.413 1_455 S
C1710 H1700 0.930 . S
C1710 C1708 1.419 . S
C1710 C1711 1.362 . S
C1711 H1701 0.930 . S
C1711 C1704 1.409 . S
C1711 C1710 1.362 . S
H1712 C1718 0.930 . S
H1713 C1721 0.930 . S
H1714 C1722 0.930 . S
H1715 C1723 0.930 . S
H1716 C1726 0.930 . S
H1717 C1727 0.930 . S
C1718 H1712 0.930 . S
C1718 C1719 1.355 . S
C1718 C1720 1.415 . S
C1719 C1718 1.355 . S
C1719 C1721 1.419 . S
C1720 C1718 1.415 . S
C1720 C1725 1.425 . S
C1720 C1727 1.409 . S
C1721 H1713 0.930 . S
C1721 C1719 1.419 . S
C1721 C1722 1.362 . S
C1722 H1714 0.930 . S
C1722 C1721 1.362 . S
C1722 C1725 1.409 . S
C1723 H1715 0.930 . S
C1723 C1724 1.355 . S
C1723 C1725 1.415 . S
C1724 C1723 1.355 . S
C1724 C1726 1.419 . S
C1725 C1720 1.425 . S
C1725 C1722 1.409 . S
C1725 C1723 1.415 . S
C1726 H1716 0.930 . S
C1726 C1724 1.419 . S
C1726 C1727 1.362 . S
C1727 H1717 0.930 . S
C1727 C1720 1.409 . S
C1727 C1726 1.362 . S
H1728 C1734 0.930 1_655 S
H1729 C1737 0.930 . S
H1730 C1738 0.930 . S
H1731 C1739 0.930 . S
H1732 C1742 0.930 . S
H1733 C1743 0.930 . S
C1734 H1728 0.930 1_455 S
C1734 C1735 1.355 . S
C1734 C1736 1.415 . S
C1735 C1734 1.355 . S
C1735 C1737 1.419 . S
C1736 C1734 1.415 . S
C1736 C1741 1.425 . S
C1736 C1743 1.409 1_455 S
C1737 H1729 0.930 . S
C1737 C1735 1.419 . S
C1737 C1738 1.362 . S
C1738 H1730 0.930 . S
C1738 C1737 1.362 . S
C1738 C1741 1.409 . S
C1739 H1731 0.930 . S
C1739 C1740 1.355 . S
C1739 C1741 1.415 . S
C1740 C1739 1.355 . S
C1740 C1742 1.419 1_455 S
C1741 C1736 1.425 . S
C1741 C1738 1.409 . S
C1741 C1739 1.415 . S
C1742 H1732 0.930 . S
C1742 C1740 1.419 1_655 S
C1742 C1743 1.362 . S
C1743 H1733 0.930 . S
C1743 C1736 1.409 1_655 S
C1743 C1742 1.362 . S
H1744 C1750 0.930 . S
H1745 C1753 0.930 . S
H1746 C1754 0.930 . S
H1747 C1755 0.930 . S
H1748 C1758 0.930 . S
H1749 C1759 0.930 . S
C1750 H1744 0.930 . S
C1750 C1751 1.355 . S
C1750 C1752 1.415 . S
C1751 C1750 1.355 . S
C1751 C1753 1.419 . S
C1752 C1750 1.415 . S
C1752 C1757 1.425 . S
C1752 C1759 1.409 . S
C1753 H1745 0.930 . S
C1753 C1751 1.419 . S
C1753 C1754 1.362 . S
C1754 H1746 0.930 . S
C1754 C1753 1.362 . S
C1754 C1757 1.409 . S
C1755 H1747 0.930 . S
C1755 C1756 1.355 . S
C1755 C1757 1.415 . S
C1756 C1755 1.355 . S
C1756 C1758 1.419 . S
C1757 C1752 1.425 . S
C1757 C1754 1.409 . S
C1757 C1755 1.415 . S
C1758 H1748 0.930 . S
C1758 C1756 1.419 . S
C1758 C1759 1.362 . S
C1759 H1749 0.930 . S
C1759 C1752 1.409 . S
C1759 C1758 1.362 . S
H1760 C1766 0.930 . S
H1761 C1769 0.930 . S
H1762 C1770 0.930 . S
H1763 C1771 0.930 . S
H1764 C1774 0.930 . S
H1765 C1775 0.930 . S
C1766 H1760 0.930 . S
C1766 C1767 1.355 . S
C1766 C1768 1.415 . S
C1767 C1766 1.355 . S
C1767 C1769 1.419 . S
C1768 C1766 1.415 . S
C1768 C1773 1.425 . S
C1768 C1775 1.409 . S
C1769 H1761 0.930 . S
C1769 C1767 1.419 . S
C1769 C1770 1.362 . S
C1770 H1762 0.930 . S
C1770 C1769 1.362 . S
C1770 C1773 1.409 . S
C1771 H1763 0.930 . S
C1771 C1772 1.355 . S
C1771 C1773 1.415 . S
C1772 C1771 1.355 . S
C1772 C1774 1.419 . S
C1773 C1768 1.425 . S
C1773 C1770 1.409 . S
C1773 C1771 1.415 . S
C1774 H1764 0.930 . S
C1774 C1772 1.419 . S
C1774 C1775 1.362 . S
C1775 H1765 0.930 . S
C1775 C1768 1.409 . S
C1775 C1774 1.362 . S
H1776 C1782 0.930 . S
H1777 C1785 0.930 . S
H1778 C1786 0.930 . S
H1779 C1787 0.930 . S
H1780 C1790 0.930 . S
H1781 C1791 0.930 . S
C1782 H1776 0.930 . S
C1782 C1783 1.355 . S
C1782 C1784 1.415 . S
C1783 C1782 1.355 . S
C1783 C1785 1.419 . S
C1784 C1782 1.415 . S
C1784 C1789 1.425 . S
C1784 C1791 1.409 . S
C1785 H1777 0.930 . S
C1785 C1783 1.419 . S
C1785 C1786 1.362 . S
C1786 H1778 0.930 . S
C1786 C1785 1.362 . S
C1786 C1789 1.409 . S
C1787 H1779 0.930 . S
C1787 C1788 1.355 . S
C1787 C1789 1.415 . S
C1788 C1787 1.355 . S
C1788 C1790 1.419 . S
C1789 C1784 1.425 . S
C1789 C1786 1.409 . S
C1789 C1787 1.415 . S
C1790 H1780 0.930 . S
C1790 C1788 1.419 . S
C1790 C1791 1.362 . S
C1791 H1781 0.930 . S
C1791 C1784 1.409 . S
C1791 C1790 1.362 . S
H1792 C1798 0.930 . S
H1793 C1801 0.930 . S
H1794 C1802 0.930 . S
H1795 C1803 0.930 . S
H1796 C1806 0.930 . S
H1797 C1807 0.930 . S
C1798 H1792 0.930 . S
C1798 C1799 1.355 . S
C1798 C1800 1.415 . S
C1799 C1798 1.355 . S
C1799 C1801 1.419 . S
C1800 C1798 1.415 . S
C1800 C1805 1.425 . S
C1800 C1807 1.409 . S
C1801 H1793 0.930 . S
C1801 C1799 1.419 . S
C1801 C1802 1.362 . S
C1802 H1794 0.930 . S
C1802 C1801 1.362 . S
C1802 C1805 1.409 . S
C1803 H1795 0.930 . S
C1803 C1804 1.355 . S
C1803 C1805 1.415 . S
C1804 C1803 1.355 . S
C1804 C1806 1.419 . S
C1805 C1800 1.425 . S
C1805 C1802 1.409 . S
C1805 C1803 1.415 . S
C1806 H1796 0.930 . S
C1806 C1804 1.419 . S
C1806 C1807 1.362 . S
C1807 H1797 0.930 . S
C1807 C1800 1.409 . S
C1807 C1806 1.362 . S
H1808 C1814 0.930 . S
H1809 C1817 0.930 . S
H1810 C1818 0.930 . S
H1811 C1819 0.930 . S
H1812 C1822 0.930 . S
H1813 C1823 0.930 . S
C1814 H1808 0.930 . S
C1814 C1815 1.355 . S
C1814 C1816 1.415 . S
C1815 C1814 1.355 . S
C1815 C1817 1.419 . S
C1816 C1814 1.415 . S
C1816 C1821 1.425 . S
C1816 C1823 1.409 . S
C1817 H1809 0.930 . S
C1817 C1815 1.419 . S
C1817 C1818 1.362 . S
C1818 H1810 0.930 . S
C1818 C1817 1.362 . S
C1818 C1821 1.409 . S
C1819 H1811 0.930 . S
C1819 C1820 1.355 . S
C1819 C1821 1.415 . S
C1820 C1819 1.355 . S
C1820 C1822 1.419 . S
C1821 C1816 1.425 . S
C1821 C1818 1.409 . S
C1821 C1819 1.415 . S
C1822 H1812 0.930 . S
C1822 C1820 1.419 . S
C1822 C1823 1.362 . S
C1823 H1813 0.930 . S
C1823 C1816 1.409 . S
C1823 C1822 1.362 . S
H1824 C1830 0.930 . S
H1825 C1833 0.930 . S
H1826 C1834 0.930 . S
H1827 C1835 0.930 . S
H1828 C1838 0.930 . S
H1829 C1839 0.930 . S
C1830 H1824 0.930 . S
C1830 C1831 1.355 . S
C1830 C1832 1.415 . S
C1831 C1830 1.355 . S
C1831 C1833 1.419 . S
C1832 C1830 1.415 . S
C1832 C1837 1.425 . S
C1832 C1839 1.409 . S
C1833 H1825 0.930 . S
C1833 C1831 1.419 . S
C1833 C1834 1.362 . S
C1834 H1826 0.930 . S
C1834 C1833 1.362 . S
C1834 C1837 1.409 . S
C1835 H1827 0.930 . S
C1835 C1836 1.355 . S
C1835 C1837 1.415 . S
C1836 C1835 1.355 . S
C1836 C1838 1.419 . S
C1837 C1832 1.425 . S
C1837 C1834 1.409 . S
C1837 C1835 1.415 . S
C1838 H1828 0.930 . S
C1838 C1836 1.419 . S
C1838 C1839 1.362 . S
C1839 H1829 0.930 . S
C1839 C1832 1.409 . S
C1839 C1838 1.362 . S
H1840 C1846 0.930 . S
H1841 C1849 0.930 . S
H1842 C1850 0.930 . S
H1843 C1851 0.930 . S
H1844 C1854 0.930 . S
H1845 C1855 0.930 . S
C1846 H1840 0.930 . S
C1846 C1847 1.355 . S
C1846 C1848 1.415 . S
C1847 C1846 1.355 . S
C1847 C1849 1.419 . S
C1848 C1846 1.415 . S
C1848 C1853 1.425 . S
C1848 C1855 1.409 . S
C1849 H1841 0.930 . S
C1849 C1847 1.419 . S
C1849 C1850 1.362 . S
C1850 H1842 0.930 . S
C1850 C1849 1.362 . S
C1850 C1853 1.409 . S
C1851 H1843 0.930 . S
C1851 C1852 1.355 . S
C1851 C1853 1.415 . S
C1852 C1851 1.355 . S
C1852 C1854 1.419 . S
C1853 C1848 1.425 . S
C1853 C1850 1.409 . S
C1853 C1851 1.415 . S
C1854 H1844 0.930 . S
C1854 C1852 1.419 . S
C1854 C1855 1.362 . S
C1855 H1845 0.930 . S
C1855 C1848 1.409 . S
C1855 C1854 1.362 . S
H1856 C1862 0.930 . S
H1857 C1865 0.930 . S
H1858 C1866 0.930 . S
H1859 C1867 0.930 . S
H1860 C1870 0.930 . S
H1861 C1871 0.930 . S
C1862 H1856 0.930 . S
C1862 C1863 1.355 . S
C1862 C1864 1.415 . S
C1863 C1862 1.355 . S
C1863 C1865 1.419 . S
C1864 C1862 1.415 . S
C1864 C1869 1.425 . S
C1864 C1871 1.409 . S
C1865 H1857 0.930 . S
C1865 C1863 1.419 . S
C1865 C1866 1.362 . S
C1866 H1858 0.930 . S
C1866 C1865 1.362 . S
C1866 C1869 1.409 . S
C1867 H1859 0.930 . S
C1867 C1868 1.355 . S
C1867 C1869 1.415 . S
C1868 C1867 1.355 . S
C1868 C1870 1.419 . S
C1869 C1864 1.425 . S
C1869 C1866 1.409 . S
C1869 C1867 1.415 . S
C1870 H1860 0.930 . S
C1870 C1868 1.419 . S
C1870 C1871 1.362 . S
C1871 H1861 0.930 . S
C1871 C1864 1.409 . S
C1871 C1870 1.362 . S
H1872 C1878 0.930 . S
H1873 C1881 0.930 . S
H1874 C1882 0.930 . S
H1875 C1883 0.930 . S
H1876 C1886 0.930 . S
H1877 C1887 0.930 . S
C1878 H1872 0.930 . S
C1878 C1879 1.355 . S
C1878 C1880 1.415 . S
C1879 C1878 1.355 . S
C1879 C1881 1.419 . S
C1880 C1878 1.415 . S
C1880 C1885 1.425 . S
C1880 C1887 1.409 . S
C1881 H1873 0.930 . S
C1881 C1879 1.419 . S
C1881 C1882 1.362 . S
C1882 H1874 0.930 . S
C1882 C1881 1.362 . S
C1882 C1885 1.409 . S
C1883 H1875 0.930 . S
C1883 C1884 1.355 . S
C1883 C1885 1.415 . S
C1884 C1883 1.355 . S
C1884 C1886 1.419 . S
C1885 C1880 1.425 . S
C1885 C1882 1.409 . S
C1885 C1883 1.415 . S
C1886 H1876 0.930 . S
C1886 C1884 1.419 . S
C1886 C1887 1.362 . S
C1887 H1877 0.930 . S
C1887 C1880 1.409 . S
C1887 C1886 1.362 . S
H1888 C1894 0.930 . S
H1889 C1897 0.930 . S
H1890 C1898 0.930 . S
H1891 C1899 0.930 . S
H1892 C1902 0.930 . S
H1893 C1903 0.930 . S
C1894 H1888 0.930 . S
C1894 C1895 1.355 . S
C1894 C1896 1.415 . S
C1895 C1894 1.355 . S
C1895 C1897 1.419 . S
C1896 C1894 1.415 . S
C1896 C1901 1.425 . S
C1896 C1903 1.409 . S
C1897 H1889 0.930 . S
C1897 C1895 1.419 . S
C1897 C1898 1.362 . S
C1898 H1890 0.930 . S
C1898 C1897 1.362 . S
C1898 C1901 1.409 . S
C1899 H1891 0.930 . S
C1899 C1900 1.355 . S
C1899 C1901 1.415 . S
C1900 C1899 1.355 . S
C1900 C1902 1.419 . S
C1901 C1896 1.425 . S
C1901 C1898 1.409 . S
C1901 C1899 1.415 . S
C1902 H1892 0.930 . S
C1902 C1900 1.419 . S
C1902 C1903 1.362 . S
C1903 H1893 0.930 . S
C1903 C1896 1.409 . S
C1903 C1902 1.362 . S
H1904 C1910 0.930 . S
H1905 C1913 0.930 . S
H1906 C1914 0.930 . S
H1907 C1915 0.930 . S
H1908 C1918 0.930 . S
H1909 C1919 0.930 . S
C1910 H1904 0.930 . S
C1910 C1911 1.355 . S
C1910 C1912 1.415 . S
C1911 C1910 1.355 . S
C1911 C1913 1.419 . S
C1912 C1910 1.415 . S
C1912 C1917 1.425 . S
C1912 C1919 1.409 . S
C1913 H1905 0.930 . S
C1913 C1911 1.419 . S
C1913 C1914 1.362 . S
C1914 H1906 0.930 . S
C1914 C1913 1.362 . S
C1914 C1917 1.409 . S
C1915 H1907 0.930 . S
C1915 C1916 1.355 . S
C1915 C1917 1.415 . S
C1916 C1915 1.355 . S
C1916 C1918 1.419 . S
C1917 C1912 1.425 . S
C1917 C1914 1.409 . S
C1917 C1915 1.415 . S
C1918 H1908 0.930 . S
C1918 C1916 1.419 . S
C1918 C1919 1.362 . S
C1919 H1909 0.930 . S
C1919 C1912 1.409 . S
C1919 C1918 1.362 . S
H1920 C1926 0.930 . S
H1921 C1929 0.930 . S
H1922 C1930 0.930 . S
H1923 C1931 0.930 . S
H1924 C1934 0.930 . S
H1925 C1935 0.930 . S
C1926 H1920 0.930 . S
C1926 C1927 1.355 . S
C1926 C1928 1.415 . S
C1927 C1926 1.355 . S
C1927 C1929 1.419 . S
C1928 C1926 1.415 . S
C1928 C1933 1.425 . S
C1928 C1935 1.409 . S
C1929 H1921 0.930 . S
C1929 C1927 1.419 . S
C1929 C1930 1.362 . S
C1930 H1922 0.930 . S
C1930 C1929 1.362 . S
C1930 C1933 1.409 . S
C1931 H1923 0.930 . S
C1931 C1932 1.355 . S
C1931 C1933 1.415 . S
C1932 C1931 1.355 . S
C1932 C1934 1.419 . S
C1933 C1928 1.425 . S
C1933 C1930 1.409 . S
C1933 C1931 1.415 . S
C1934 H1924 0.930 . S
C1934 C1932 1.419 . S
C1934 C1935 1.362 . S
C1935 H1925 0.930 . S
C1935 C1928 1.409 . S
C1935 C1934 1.362 . S
H1936 C1942 0.930 . S
H1937 C1945 0.930 . S
H1938 C1946 0.930 . S
H1939 C1947 0.930 . S
H1940 C1950 0.930 . S
H1941 C1951 0.930 . S
C1942 H1936 0.930 . S
C1942 C1943 1.355 . S
C1942 C1944 1.415 . S
C1943 C1942 1.355 . S
C1943 C1945 1.419 . S
C1944 C1942 1.415 . S
C1944 C1949 1.425 . S
C1944 C1951 1.409 . S
C1945 H1937 0.930 . S
C1945 C1943 1.419 . S
C1945 C1946 1.362 . S
C1946 H1938 0.930 . S
C1946 C1945 1.362 . S
C1946 C1949 1.409 . S
C1947 H1939 0.930 . S
C1947 C1948 1.355 . S
C1947 C1949 1.415 . S
C1948 C1947 1.355 . S
C1948 C1950 1.419 . S
C1949 C1944 1.425 . S
C1949 C1946 1.409 . S
C1949 C1947 1.415 . S
C1950 H1940 0.930 . S
C1950 C1948 1.419 . S
C1950 C1951 1.362 . S
C1951 H1941 0.930 . S
C1951 C1944 1.409 . S
C1951 C1950 1.362 . S
H1952 C1958 0.930 . S
H1953 C1961 0.930 . S
H1954 C1962 0.930 . S
H1955 C1963 0.930 . S
H1956 C1966 0.930 . S
H1957 C1967 0.930 . S
C1958 H1952 0.930 . S
C1958 C1959 1.355 . S
C1958 C1960 1.415 . S
C1959 C1958 1.355 . S
C1959 C1961 1.419 . S
C1960 C1958 1.415 . S
C1960 C1965 1.425 . S
C1960 C1967 1.409 . S
C1961 H1953 0.930 . S
C1961 C1959 1.419 . S
C1961 C1962 1.362 . S
C1962 H1954 0.930 . S
C1962 C1961 1.362 . S
C1962 C1965 1.409 . S
C1963 H1955 0.930 . S
C1963 C1964 1.355 . S
C1963 C1965 1.415 . S
C1964 C1963 1.355 . S
C1964 C1966 1.419 . S
C1965 C1960 1.425 . S
C1965 C1962 1.409 . S
C1965 C1963 1.415 . S
C1966 H1956 0.930 . S
C1966 C1964 1.419 . S
C1966 C1967 1.362 . S
C1967 H1957 0.930 . S
C1967 C1960 1.409 . S
C1967 C1966 1.362 . S
H1968 C1974 0.930 . S
H1969 C1977 0.930 . S
H1970 C1978 0.930 . S
H1971 C1979 0.930 . S
H1972 C1982 0.930 . S
H1973 C1983 0.930 . S
C1974 H1968 0.930 . S
C1974 C1975 1.355 . S
C1974 C1976 1.415 . S
C1975 C1974 1.355 . S
C1975 C1977 1.419 . S
C1976 C1974 1.415 . S
C1976 C1981 1.425 . S
C1976 C1983 1.409 . S
C1977 H1969 0.930 . S
C1977 C1975 1.419 . S
C1977 C1978 1.362 . S
C1978 H1970 0.930 . S
C1978 C1977 1.362 . S
C1978 C1981 1.409 . S
C1979 H1971 0.930 . S
C1979 C1980 1.355 . S
C1979 C1981 1.415 . S
C1980 C1979 1.355 . S
C1980 C1982 1.419 . S
C1981 C1976 1.425 . S
C1981 C1978 1.409 . S
C1981 C1979 1.415 . S
C1982 H1972 0.930 . S
C1982 C1980 1.419 . S
C1982 C1983 1.362 . S
C1983 H1973 0.930 . S
C1983 C1976 1.409 . S
C1983 C1982 1.362 . S
H1984 C1990 0.930 . S
H1985 C1993 0.930 . S
H1986 C1994 0.930 . S
H1987 C1995 0.930 . S
H1988 C1998 0.930 . S
H1989 C1999 0.930 . S
C1990 H1984 0.930 . S
C1990 C1991 1.355 . S
C1990 C1992 1.415 . S
C1991 C1990 1.355 . S
C1991 C1993 1.419 . S
C1992 C1990 1.415 . S
C1992 C1997 1.425 . S
C1992 C1999 1.409 . S
C1993 H1985 0.930 . S
C1993 C1991 1.419 . S
C1993 C1994 1.362 . S
C1994 H1986 0.930 . S
C1994 C1993 1.362 . S
C1994 C1997 1.409 . S
C1995 H1987 0.930 . S
C1995 C1996 1.355 . S
C1995 C1997 1.415 . S
C1996 C1995 1.355 . S
C1996 C1998 1.419 . S
C1997 C1992 1.425 . S
C1997 C1994 1.409 . S
C1997 C1995 1.415 . S
C1998 H1988 0.930 . S
C1998 C1996 1.419 . S
C1998 C1999 1.362 . S
C1999 H1989 0.930 . S
C1999 C1992 1.409 . S
C1999 C1998 1.362 . S
H2000 C2006 0.930 . S
H2001 C2009 0.930 . S
H2002 C2010 0.930 . S
H2003 C2011 0.930 . S
H2004 C2014 0.930 . S
H2005 C2015 0.930 . S
C2006 H2000 0.930 . S
C2006 C2007 1.355 . S
C2006 C2008 1.415 . S
C2007 C2006 1.355 . S
C2007 C2009 1.419 . S
C2008 C2006 1.415 . S
C2008 C2013 1.425 . S
C2008 C2015 1.409 . S
C2009 H2001 0.930 . S
C2009 C2007 1.419 . S
C2009 C2010 1.362 . S
C2010 H2002 0.930 . S
C2010 C2009 1.362 . S
C2010 C2013 1.409 . S
C2011 H2003 0.930 . S
C2011 C2012 1.355 . S
C2011 C2013 1.415 . S
C2012 C2011 1.355 . S
C2012 C2014 1.419 . S
C2013 C2008 1.425 . S
C2013 C2010 1.409 . S
C2013 C2011 1.415 . S
C2014 H2004 0.930 . S
C2014 C2012 1.419 . S
C2014 C2015 1.362 . S
C2015 H2005 0.930 . S
C2015 C2008 1.409 . S
C2015 C2014 1.362 . S
H2016 C2022 0.930 . S
H2017 C2025 0.930 . S
H2018 C2026 0.930 . S
H2019 C2027 0.930 . S
H2020 C2030 0.930 . S
H2021 C2031 0.930 . S
C2022 H2016 0.930 . S
C2022 C2023 1.355 . S
C2022 C2024 1.415 . S
C2023 C2022 1.355 . S
C2023 C2025 1.419 . S
C2024 C2022 1.415 . S
C2024 C2029 1.425 . S
C2024 C2031 1.409 . S
C2025 H2017 0.930 . S
C2025 C2023 1.419 . S
C2025 C2026 1.362 . S
C2026 H2018 0.930 . S
C2026 C2025 1.362 . S
C2026 C2029 1.409 . S
C2027 H2019 0.930 . S
C2027 C2028 1.355 . S
C2027 C2029 1.415 . S
C2028 C2027 1.355 . S
C2028 C2030 1.419 . S
C2029 C2024 1.425 . S
C2029 C2026 1.409 . S
C2029 C2027 1.415 . S
C2030 H2020 0.930 . S
C2030 C2028 1.419 . S
C2030 C2031 1.362 . S
C2031 H2021 0.930 . S
C2031 C2024 1.409 . S
C2031 C2030 1.362 . S
H2032 C2038 0.930 . S
H2033 C2041 0.930 . S
H2034 C2042 0.930 . S
H2035 C2043 0.930 . S
H2036 C2046 0.930 . S
H2037 C2047 0.930 . S
C2038 H2032 0.930 . S
C2038 C2039 1.355 . S
C2038 C2040 1.415 . S
C2039 C2038 1.355 . S
C2039 C2041 1.419 . S
C2040 C2038 1.415 . S
C2040 C2045 1.425 . S
C2040 C2047 1.409 . S
C2041 H2033 0.930 . S
C2041 C2039 1.419 . S
C2041 C2042 1.362 . S
C2042 H2034 0.930 . S
C2042 C2041 1.362 . S
C2042 C2045 1.409 . S
C2043 H2035 0.930 . S
C2043 C2044 1.355 . S
C2043 C2045 1.415 . S
C2044 C2043 1.355 . S
C2044 C2046 1.419 . S
C2045 C2040 1.425 . S
C2045 C2042 1.409 . S
C2045 C2043 1.415 . S
C2046 H2036 0.930 . S
C2046 C2044 1.419 . S
C2046 C2047 1.362 . S
C2047 H2037 0.930 . S
C2047 C2040 1.409 . S
C2047 C2046 1.362 . S
H2048 C2054 0.930 . S
H2049 C2057 0.930 . S
H2050 C2058 0.930 . S
H2051 C2059 0.930 1_455 S
H2052 C2062 0.930 . S
H2053 C2063 0.930 . S
C2054 H2048 0.930 . S
C2054 C2055 1.355 . S
C2054 C2056 1.415 . S
C2055 C2054 1.355 . S
C2055 C2057 1.419 . S
C2056 C2054 1.415 . S
C2056 C2061 1.425 . S
C2056 C2063 1.409 . S
C2057 H2049 0.930 . S
C2057 C2055 1.419 . S
C2057 C2058 1.362 . S
C2058 H2050 0.930 . S
C2058 C2057 1.362 . S
C2058 C2061 1.409 . S
C2059 H2051 0.930 1_655 S
C2059 C2060 1.355 . S
C2059 C2061 1.415 . S
C2060 C2059 1.355 . S
C2060 C2062 1.419 . S
C2061 C2056 1.425 . S
C2061 C2058 1.409 . S
C2061 C2059 1.415 . S
C2062 H2052 0.930 . S
C2062 C2060 1.419 . S
C2062 C2063 1.362 . S
C2063 H2053 0.930 . S
C2063 C2056 1.409 . S
C2063 C2062 1.362 . S
H2064 C2070 0.930 . S
H2065 C2073 0.930 . S
H2066 C2074 0.930 . S
H2067 C2075 0.930 . S
H2068 C2078 0.930 . S
H2069 C2079 0.930 . S
C2070 H2064 0.930 . S
C2070 C2071 1.355 . S
C2070 C2072 1.415 . S
C2071 C2070 1.355 . S
C2071 C2073 1.419 . S
C2072 C2070 1.415 . S
C2072 C2077 1.425 . S
C2072 C2079 1.409 . S
C2073 H2065 0.930 . S
C2073 C2071 1.419 . S
C2073 C2074 1.362 . S
C2074 H2066 0.930 . S
C2074 C2073 1.362 . S
C2074 C2077 1.409 . S
C2075 H2067 0.930 . S
C2075 C2076 1.355 . S
C2075 C2077 1.415 . S
C2076 C2075 1.355 . S
C2076 C2078 1.419 . S
C2077 C2072 1.425 . S
C2077 C2074 1.409 . S
C2077 C2075 1.415 . S
C2078 H2068 0.930 . S
C2078 C2076 1.419 . S
C2078 C2079 1.362 . S
C2079 H2069 0.930 . S
C2079 C2072 1.409 . S
C2079 C2078 1.362 . S
H2080 C2086 0.930 . S
H2081 C2089 0.930 . S
H2082 C2090 0.930 . S
H2083 C2091 0.930 . S
H2084 C2094 0.930 . S
H2085 C2095 0.930 . S
C2086 H2080 0.930 . S
C2086 C2087 1.355 . S
C2086 C2088 1.415 . S
C2087 C2086 1.355 . S
C2087 C2089 1.419 . S
C2088 C2086 1.415 . S
C2088 C2093 1.425 . S
C2088 C2095 1.409 . S
C2089 H2081 0.930 . S
C2089 C2087 1.419 . S
C2089 C2090 1.362 . S
C2090 H2082 0.930 . S
C2090 C2089 1.362 . S
C2090 C2093 1.409 . S
C2091 H2083 0.930 . S
C2091 C2092 1.355 . S
C2091 C2093 1.415 . S
C2092 C2091 1.355 . S
C2092 C2094 1.419 . S
C2093 C2088 1.425 . S
C2093 C2090 1.409 . S
C2093 C2091 1.415 . S
C2094 H2084 0.930 . S
C2094 C2092 1.419 . S
C2094 C2095 1.362 . S
C2095 H2085 0.930 . S
C2095 C2088 1.409 . S
C2095 C2094 1.362 . S
H2096 C2102 0.930 . S
H2097 C2105 0.930 . S
H2098 C2106 0.930 . S
H2099 C2107 0.930 . S
H2100 C2110 0.930 . S
H2101 C2111 0.930 . S
C2102 H2096 0.930 . S
C2102 C2103 1.355 . S
C2102 C2104 1.415 . S
C2103 C2102 1.355 . S
C2103 C2105 1.419 . S
C2104 C2102 1.415 . S
C2104 C2109 1.425 . S
C2104 C2111 1.409 . S
C2105 H2097 0.930 . S
C2105 C2103 1.419 . S
C2105 C2106 1.362 . S
C2106 H2098 0.930 . S
C2106 C2105 1.362 . S
C2106 C2109 1.409 . S
C2107 H2099 0.930 . S
C2107 C2108 1.355 . S
C2107 C2109 1.415 . S
C2108 C2107 1.355 . S
C2108 C2110 1.419 . S
C2109 C2104 1.425 . S
C2109 C2106 1.409 . S
C2109 C2107 1.415 . S
C2110 H2100 0.930 . S
C2110 C2108 1.419 . S
C2110 C2111 1.362 . S
C2111 H2101 0.930 . S
C2111 C2104 1.409 . S
C2111 C2110 1.362 . S
H2112 C2118 0.930 . S
H2113 C2121 0.930 . S
H2114 C2122 0.930 . S
H2115 C2123 0.930 . S
H2116 C2126 0.930 . S
H2117 C2127 0.930 . S
C2118 H2112 0.930 . S
C2118 C2119 1.355 . S
C2118 C2120 1.415 . S
C2119 C2118 1.355 . S
C2119 C2121 1.419 . S
C2120 C2118 1.415 . S
C2120 C2125 1.425 . S
C2120 C2127 1.409 . S
C2121 H2113 0.930 . S
C2121 C2119 1.419 . S
C2121 C2122 1.362 . S
C2122 H2114 0.930 . S
C2122 C2121 1.362 . S
C2122 C2125 1.409 . S
C2123 H2115 0.930 . S
C2123 C2124 1.355 . S
C2123 C2125 1.415 . S
C2124 C2123 1.355 . S
C2124 C2126 1.419 . S
C2125 C2120 1.425 . S
C2125 C2122 1.409 . S
C2125 C2123 1.415 . S
C2126 H2116 0.930 . S
C2126 C2124 1.419 . S
C2126 C2127 1.362 . S
C2127 H2117 0.930 . S
C2127 C2120 1.409 . S
C2127 C2126 1.362 . S
H2128 C2134 0.930 . S
H2129 C2137 0.930 . S
H2130 C2138 0.930 . S
H2131 C2139 0.930 . S
H2132 C2142 0.930 . S
H2133 C2143 0.930 . S
C2134 H2128 0.930 . S
C2134 C2135 1.355 . S
C2134 C2136 1.415 . S
C2135 C2134 1.355 . S
C2135 C2137 1.419 . S
C2136 C2134 1.415 . S
C2136 C2141 1.425 . S
C2136 C2143 1.409 . S
C2137 H2129 0.930 . S
C2137 C2135 1.419 . S
C2137 C2138 1.362 . S
C2138 H2130 0.930 . S
C2138 C2137 1.362 . S
C2138 C2141 1.409 . S
C2139 H2131 0.930 . S
C2139 C2140 1.355 . S
C2139 C2141 1.415 . S
C2140 C2139 1.355 . S
C2140 C2142 1.419 . S
C2141 C2136 1.425 . S
C2141 C2138 1.409 . S
C2141 C2139 1.415 . S
C2142 H2132 0.930 . S
C2142 C2140 1.419 . S
C2142 C2143 1.362 . S
C2143 H2133 0.930 . S
C2143 C2136 1.409 . S
C2143 C2142 1.362 . S
H2144 C2150 0.930 . S
H2145 C2153 0.930 . S
H2146 C2154 0.930 . S
H2147 C2155 0.930 . S
H2148 C2158 0.930 . S
H2149 C2159 0.930 . S
C2150 H2144 0.930 . S
C2150 C2151 1.355 . S
C2150 C2152 1.415 . S
C2151 C2150 1.355 . S
C2151 C2153 1.419 . S
C2152 C2150 1.415 . S
C2152 C2157 1.425 . S
C2152 C2159 1.409 . S
C2153 H2145 0.930 . S
C2153 C2151 1.419 . S
C2153 C2154 1.362 . S
C2154 H2146 0.930 . S
C2154 C2153 1.362 . S
C2154 C2157 1.409 . S
C2155 H2147 0.930 . S
C2155 C2156 1.355 . S
C2155 C2157 1.415 . S
C2156 C2155 1.355 . S
C2156 C2158 1.419 . S
C2157 C2152 1.425 . S
C2157 C2154 1.409 . S
C2157 C2155 1.415 . S
C2158 H2148 0.930 . S
C2158 C2156 1.419 . S
C2158 C2159 1.362 . S
C2159 H2149 0.930 . S
C2159 C2152 1.409 . S
C2159 C2158 1.362 . S
H2160 C2166 0.930 . S
H2161 C2169 0.930 . S
H2162 C2170 0.930 . S
H2163 C2171 0.930 . S
H2164 C2174 0.930 . S
H2165 C2175 0.930 . S
C2166 H2160 0.930 . S
C2166 C2167 1.355 . S
C2166 C2168 1.415 . S
C2167 C2166 1.355 . S
C2167 C2169 1.419 . S
C2168 C2166 1.415 . S
C2168 C2173 1.425 . S
C2168 C2175 1.409 . S
C2169 H2161 0.930 . S
C2169 C2167 1.419 . S
C2169 C2170 1.362 . S
C2170 H2162 0.930 . S
C2170 C2169 1.362 . S
C2170 C2173 1.409 . S
C2171 H2163 0.930 . S
C2171 C2172 1.355 . S
C2171 C2173 1.415 . S
C2172 C2171 1.355 . S
C2172 C2174 1.419 . S
C2173 C2168 1.425 . S
C2173 C2170 1.409 . S
C2173 C2171 1.415 . S
C2174 H2164 0.930 . S
C2174 C2172 1.419 . S
C2174 C2175 1.362 . S
C2175 H2165 0.930 . S
C2175 C2168 1.409 . S
C2175 C2174 1.362 . S
H2176 C2182 0.930 . S
H2177 C2185 0.930 . S
H2178 C2186 0.930 . S
H2179 C2187 0.930 . S
H2180 C2190 0.930 . S
H2181 C2191 0.930 . S
C2182 H2176 0.930 . S
C2182 C2183 1.355 . S
C2182 C2184 1.415 . S
C2183 C2182 1.355 . S
C2183 C2185 1.419 . S
C2184 C2182 1.415 . S
C2184 C2189 1.425 . S
C2184 C2191 1.409 . S
C2185 H2177 0.930 . S
C2185 C2183 1.419 . S
C2185 C2186 1.362 . S
C2186 H2178 0.930 . S
C2186 C2185 1.362 . S
C2186 C2189 1.409 . S
C2187 H2179 0.930 . S
C2187 C2188 1.355 . S
C2187 C2189 1.415 . S
C2188 C2187 1.355 . S
C2188 C2190 1.419 . S
C2189 C2184 1.425 . S
C2189 C2186 1.409 . S
C2189 C2187 1.415 . S
C2190 H2180 0.930 . S
C2190 C2188 1.419 . S
C2190 C2191 1.362 . S
C2191 H2181 0.930 . S
C2191 C2184 1.409 . S
C2191 C2190 1.362 . S
H2192 C2198 0.930 . S
H2193 C2201 0.930 . S
H2194 C2202 0.930 . S
H2195 C2203 0.930 . S
H2196 C2206 0.930 . S
H2197 C2207 0.930 . S
C2198 H2192 0.930 . S
C2198 C2199 1.355 . S
C2198 C2200 1.415 . S
C2199 C2198 1.355 . S
C2199 C2201 1.419 . S
C2200 C2198 1.415 . S
C2200 C2205 1.425 . S
C2200 C2207 1.409 . S
C2201 H2193 0.930 . S
C2201 C2199 1.419 . S
C2201 C2202 1.362 . S
C2202 H2194 0.930 . S
C2202 C2201 1.362 . S
C2202 C2205 1.409 . S
C2203 H2195 0.930 . S
C2203 C2204 1.355 . S
C2203 C2205 1.415 . S
C2204 C2203 1.355 . S
C2204 C2206 1.419 . S
C2205 C2200 1.425 . S
C2205 C2202 1.409 . S
C2205 C2203 1.415 . S
C2206 H2196 0.930 . S
C2206 C2204 1.419 . S
C2206 C2207 1.362 . S
C2207 H2197 0.930 . S
C2207 C2200 1.409 . S
C2207 C2206 1.362 . S
H2208 C2214 0.930 . S
H2209 C2217 0.930 . S
H2210 C2218 0.930 . S
H2211 C2219 0.930 . S
H2212 C2222 0.930 . S
H2213 C2223 0.930 . S
C2214 H2208 0.930 . S
C2214 C2215 1.355 . S
C2214 C2216 1.415 . S
C2215 C2214 1.355 . S
C2215 C2217 1.419 . S
C2216 C2214 1.415 . S
C2216 C2221 1.425 . S
C2216 C2223 1.409 1_565 S
C2217 H2209 0.930 . S
C2217 C2215 1.419 . S
C2217 C2218 1.362 . S
C2218 H2210 0.930 . S
C2218 C2217 1.362 . S
C2218 C2221 1.409 . S
C2219 H2211 0.930 . S
C2219 C2220 1.355 1_565 S
C2219 C2221 1.415 . S
C2220 C2219 1.355 1_545 S
C2220 C2222 1.419 . S
C2221 C2216 1.425 . S
C2221 C2218 1.409 . S
C2221 C2219 1.415 . S
C2222 H2212 0.930 . S
C2222 C2220 1.419 . S
C2222 C2223 1.362 . S
C2223 H2213 0.930 . S
C2223 C2216 1.409 1_545 S
C2223 C2222 1.362 . S
H2224 C2230 0.930 . S
H2225 C2233 0.930 . S
H2226 C2234 0.930 . S
H2227 C2235 0.930 . S
H2228 C2238 0.930 . S
H2229 C2239 0.930 . S
C2230 H2224 0.930 . S
C2230 C2231 1.355 . S
C2230 C2232 1.415 . S
C2231 C2230 1.355 . S
C2231 C2233 1.419 . S
C2232 C2230 1.415 . S
C2232 C2237 1.425 . S
C2232 C2239 1.409 . S
C2233 H2225 0.930 . S
C2233 C2231 1.419 . S
C2233 C2234 1.362 . S
C2234 H2226 0.930 . S
C2234 C2233 1.362 . S
C2234 C2237 1.409 . S
C2235 H2227 0.930 . S
C2235 C2236 1.355 . S
C2235 C2237 1.415 . S
C2236 C2235 1.355 . S
C2236 C2238 1.419 . S
C2237 C2232 1.425 . S
C2237 C2234 1.409 . S
C2237 C2235 1.415 . S
C2238 H2228 0.930 . S
C2238 C2236 1.419 . S
C2238 C2239 1.362 . S
C2239 H2229 0.930 . S
C2239 C2232 1.409 . S
C2239 C2238 1.362 . S
H2240 C2246 0.930 . S
H2241 C2249 0.930 . S
H2242 C2250 0.930 . S
H2243 C2251 0.930 . S
H2244 C2254 0.930 . S
H2245 C2255 0.930 . S
C2246 H2240 0.930 . S
C2246 C2247 1.355 . S
C2246 C2248 1.415 . S
C2247 C2246 1.355 . S
C2247 C2249 1.419 . S
C2248 C2246 1.415 . S
C2248 C2253 1.425 . S
C2248 C2255 1.409 . S
C2249 H2241 0.930 . S
C2249 C2247 1.419 . S
C2249 C2250 1.362 . S
C2250 H2242 0.930 . S
C2250 C2249 1.362 . S
C2250 C2253 1.409 . S
C2251 H2243 0.930 . S
C2251 C2252 1.355 . S
C2251 C2253 1.415 . S
C2252 C2251 1.355 . S
C2252 C2254 1.419 . S
C2253 C2248 1.425 . S
C2253 C2250 1.409 . S
C2253 C2251 1.415 . S
C2254 H2244 0.930 . S
C2254 C2252 1.419 . S
C2254 C2255 1.362 . S
C2255 H2245 0.930 . S
C2255 C2248 1.409 . S
C2255 C2254 1.362 . S
H2256 C2262 0.930 . S
H2257 C2265 0.930 1_455 S
H2258 C2266 0.930 . S
H2259 C2267 0.930 . S
H2260 C2270 0.930 . S
H2261 C2271 0.930 . S
C2262 H2256 0.930 . S
C2262 C2263 1.355 . S
C2262 C2264 1.415 . S
C2263 C2262 1.355 . S
C2263 C2265 1.419 . S
C2264 C2262 1.415 . S
C2264 C2269 1.425 . S
C2264 C2271 1.409 . S
C2265 H2257 0.930 1_655 S
C2265 C2263 1.419 . S
C2265 C2266 1.362 . S
C2266 H2258 0.930 . S
C2266 C2265 1.362 . S
C2266 C2269 1.409 . S
C2267 H2259 0.930 . S
C2267 C2268 1.355 . S
C2267 C2269 1.415 . S
C2268 C2267 1.355 . S
C2268 C2270 1.419 . S
C2269 C2264 1.425 . S
C2269 C2266 1.409 . S
C2269 C2267 1.415 . S
C2270 H2260 0.930 . S
C2270 C2268 1.419 . S
C2270 C2271 1.362 . S
C2271 H2261 0.930 . S
C2271 C2264 1.409 . S
C2271 C2270 1.362 . S
H2272 C2278 0.930 . S
H2273 C2281 0.930 . S
H2274 C2282 0.930 . S
H2275 C2283 0.930 . S
H2276 C2286 0.930 . S
H2277 C2287 0.930 . S
C2278 H2272 0.930 . S
C2278 C2279 1.355 . S
C2278 C2280 1.415 . S
C2279 C2278 1.355 . S
C2279 C2281 1.419 . S
C2280 C2278 1.415 . S
C2280 C2285 1.425 . S
C2280 C2287 1.409 . S
C2281 H2273 0.930 . S
C2281 C2279 1.419 . S
C2281 C2282 1.362 . S
C2282 H2274 0.930 . S
C2282 C2281 1.362 . S
C2282 C2285 1.409 . S
C2283 H2275 0.930 . S
C2283 C2284 1.355 . S
C2283 C2285 1.415 . S
C2284 C2283 1.355 . S
C2284 C2286 1.419 . S
C2285 C2280 1.425 . S
C2285 C2282 1.409 . S
C2285 C2283 1.415 . S
C2286 H2276 0.930 . S
C2286 C2284 1.419 . S
C2286 C2287 1.362 . S
C2287 H2277 0.930 . S
C2287 C2280 1.409 . S
C2287 C2286 1.362 . S
H2288 C2294 0.930 . S
H2289 C2297 0.930 . S
H2290 C2298 0.930 . S
H2291 C2299 0.930 . S
H2292 C2302 0.930 . S
H2293 C2303 0.930 . S
C2294 H2288 0.930 . S
C2294 C2295 1.355 . S
C2294 C2296 1.415 . S
C2295 C2294 1.355 . S
C2295 C2297 1.419 . S
C2296 C2294 1.415 . S
C2296 C2301 1.425 . S
C2296 C2303 1.409 . S
C2297 H2289 0.930 . S
C2297 C2295 1.419 . S
C2297 C2298 1.362 . S
C2298 H2290 0.930 . S
C2298 C2297 1.362 . S
C2298 C2301 1.409 . S
C2299 H2291 0.930 . S
C2299 C2300 1.355 . S
C2299 C2301 1.415 . S
C2300 C2299 1.355 . S
C2300 C2302 1.419 . S
C2301 C2296 1.425 . S
C2301 C2298 1.409 . S
C2301 C2299 1.415 . S
C2302 H2292 0.930 . S
C2302 C2300 1.419 . S
C2302 C2303 1.362 . S
C2303 H2293 0.930 . S
C2303 C2296 1.409 . S
C2303 C2302 1.362 . S
H2304 C2310 0.930 . S
H2305 C2313 0.930 1_554 S
H2306 C2314 0.930 . S
H2307 C2315 0.930 . S
H2308 C2318 0.930 . S
H2309 C2319 0.930 . S
C2310 H2304 0.930 . S
C2310 C2311 1.355 1_556 S
C2310 C2312 1.415 . S
C2311 C2310 1.355 1_554 S
C2311 C2313 1.419 1_554 S
C2312 C2310 1.415 . S
C2312 C2317 1.425 . S
C2312 C2319 1.409 . S
C2313 H2305 0.930 1_556 S
C2313 C2311 1.419 1_556 S
C2313 C2314 1.362 . S
C2314 H2306 0.930 . S
C2314 C2313 1.362 . S
C2314 C2317 1.409 . S
C2315 H2307 0.930 . S
C2315 C2316 1.355 . S
C2315 C2317 1.415 . S
C2316 C2315 1.355 . S
C2316 C2318 1.419 . S
C2317 C2312 1.425 . S
C2317 C2314 1.409 . S
C2317 C2315 1.415 . S
C2318 H2308 0.930 . S
C2318 C2316 1.419 . S
C2318 C2319 1.362 . S
C2319 H2309 0.930 . S
C2319 C2312 1.409 . S
C2319 C2318 1.362 . S
H2320 C2326 0.930 . S
H2321 C2329 0.930 . S
H2322 C2330 0.930 . S
H2323 C2331 0.930 . S
H2324 C2334 0.930 . S
H2325 C2335 0.930 1_554 S
C2326 H2320 0.930 . S
C2326 C2327 1.355 . S
C2326 C2328 1.415 . S
C2327 C2326 1.355 . S
C2327 C2329 1.419 . S
C2328 C2326 1.415 . S
C2328 C2333 1.425 . S
C2328 C2335 1.409 . S
C2329 H2321 0.930 . S
C2329 C2327 1.419 . S
C2329 C2330 1.362 . S
C2330 H2322 0.930 . S
C2330 C2329 1.362 . S
C2330 C2333 1.409 . S
C2331 H2323 0.930 . S
C2331 C2332 1.355 1_556 S
C2331 C2333 1.415 . S
C2332 C2331 1.355 1_554 S
C2332 C2334 1.419 . S
C2333 C2328 1.425 . S
C2333 C2330 1.409 . S
C2333 C2331 1.415 . S
C2334 H2324 0.930 . S
C2334 C2332 1.419 . S
C2334 C2335 1.362 1_554 S
C2335 H2325 0.930 1_556 S
C2335 C2328 1.409 . S
C2335 C2334 1.362 1_556 S
H2336 C2342 0.930 . S
H2337 C2345 0.930 . S
H2338 C2346 0.930 . S
H2339 C2347 0.930 . S
H2340 C2350 0.930 . S
H2341 C2351 0.930 . S
C2342 H2336 0.930 . S
C2342 C2343 1.355 . S
C2342 C2344 1.415 . S
C2343 C2342 1.355 . S
C2343 C2345 1.419 . S
C2344 C2342 1.415 . S
C2344 C2349 1.425 . S
C2344 C2351 1.409 . S
C2345 H2337 0.930 . S
C2345 C2343 1.419 . S
C2345 C2346 1.362 . S
C2346 H2338 0.930 . S
C2346 C2345 1.362 . S
C2346 C2349 1.409 . S
C2347 H2339 0.930 . S
C2347 C2348 1.355 . S
C2347 C2349 1.415 . S
C2348 C2347 1.355 . S
C2348 C2350 1.419 . S
C2349 C2344 1.425 . S
C2349 C2346 1.409 . S
C2349 C2347 1.415 . S
C2350 H2340 0.930 . S
C2350 C2348 1.419 . S
C2350 C2351 1.362 . S
C2351 H2341 0.930 . S
C2351 C2344 1.409 . S
C2351 C2350 1.362 . S
H2352 C2358 0.930 . S
H2353 C2361 0.930 . S
H2354 C2362 0.930 . S
H2355 C2363 0.930 . S
H2356 C2366 0.930 . S
H2357 C2367 0.930 . S
C2358 H2352 0.930 . S
C2358 C2359 1.355 . S
C2358 C2360 1.415 . S
C2359 C2358 1.355 . S
C2359 C2361 1.419 . S
C2360 C2358 1.415 . S
C2360 C2365 1.425 . S
C2360 C2367 1.409 . S
C2361 H2353 0.930 . S
C2361 C2359 1.419 . S
C2361 C2362 1.362 . S
C2362 H2354 0.930 . S
C2362 C2361 1.362 . S
C2362 C2365 1.409 . S
C2363 H2355 0.930 . S
C2363 C2364 1.355 . S
C2363 C2365 1.415 . S
C2364 C2363 1.355 . S
C2364 C2366 1.419 . S
C2365 C2360 1.425 . S
C2365 C2362 1.409 . S
C2365 C2363 1.415 . S
C2366 H2356 0.930 . S
C2366 C2364 1.419 . S
C2366 C2367 1.362 . S
C2367 H2357 0.930 . S
C2367 C2360 1.409 . S
C2367 C2366 1.362 . S
H2368 C2374 0.930 . S
H2369 C2377 0.930 . S
H2370 C2378 0.930 . S
H2371 C2379 0.930 . S
H2372 C2382 0.930 . S
H2373 C2383 0.930 . S
C2374 H2368 0.930 . S
C2374 C2375 1.355 . S
C2374 C2376 1.415 . S
C2375 C2374 1.355 . S
C2375 C2377 1.419 . S
C2376 C2374 1.415 . S
C2376 C2381 1.425 . S
C2376 C2383 1.409 . S
C2377 H2369 0.930 . S
C2377 C2375 1.419 . S
C2377 C2378 1.362 . S
C2378 H2370 0.930 . S
C2378 C2377 1.362 . S
C2378 C2381 1.409 . S
C2379 H2371 0.930 . S
C2379 C2380 1.355 . S
C2379 C2381 1.415 . S
C2380 C2379 1.355 . S
C2380 C2382 1.419 . S
C2381 C2376 1.425 . S
C2381 C2378 1.409 . S
C2381 C2379 1.415 . S
C2382 H2372 0.930 . S
C2382 C2380 1.419 . S
C2382 C2383 1.362 . S
C2383 H2373 0.930 . S
C2383 C2376 1.409 . S
C2383 C2382 1.362 . S
H2384 C2390 0.930 . S
H2385 C2393 0.930 . S
H2386 C2394 0.930 . S
H2387 C2395 0.930 . S
H2388 C2398 0.930 . S
H2389 C2399 0.930 . S
C2390 H2384 0.930 . S
C2390 C2391 1.355 . S
C2390 C2392 1.415 . S
C2391 C2390 1.355 . S
C2391 C2393 1.419 . S
C2392 C2390 1.415 . S
C2392 C2397 1.425 . S
C2392 C2399 1.409 . S
C2393 H2385 0.930 . S
C2393 C2391 1.419 . S
C2393 C2394 1.362 . S
C2394 H2386 0.930 . S
C2394 C2393 1.362 . S
C2394 C2397 1.409 . S
C2395 H2387 0.930 . S
C2395 C2396 1.355 . S
C2395 C2397 1.415 . S
C2396 C2395 1.355 . S
C2396 C2398 1.419 . S
C2397 C2392 1.425 . S
C2397 C2394 1.409 . S
C2397 C2395 1.415 . S
C2398 H2388 0.930 . S
C2398 C2396 1.419 . S
C2398 C2399 1.362 . S
C2399 H2389 0.930 . S
C2399 C2392 1.409 . S
C2399 C2398 1.362 . S
H2400 C2406 0.930 . S
H2401 C2409 0.930 . S
H2402 C2410 0.930 . S
H2403 C2411 0.930 . S
H2404 C2414 0.930 . S
H2405 C2415 0.930 . S
C2406 H2400 0.930 . S
C2406 C2407 1.355 . S
C2406 C2408 1.415 . S
C2407 C2406 1.355 . S
C2407 C2409 1.419 . S
C2408 C2406 1.415 . S
C2408 C2413 1.425 . S
C2408 C2415 1.409 . S
C2409 H2401 0.930 . S
C2409 C2407 1.419 . S
C2409 C2410 1.362 . S
C2410 H2402 0.930 . S
C2410 C2409 1.362 . S
C2410 C2413 1.409 . S
C2411 H2403 0.930 . S
C2411 C2412 1.355 . S
C2411 C2413 1.415 . S
C2412 C2411 1.355 . S
C2412 C2414 1.419 . S
C2413 C2408 1.425 . S
C2413 C2410 1.409 . S
C2413 C2411 1.415 . S
C2414 H2404 0.930 . S
C2414 C2412 1.419 . S
C2414 C2415 1.362 . S
C2415 H2405 0.930 . S
C2415 C2408 1.409 . S
C2415 C2414 1.362 . S
H2416 C2422 0.930 . S
H2417 C2425 0.930 . S
H2418 C2426 0.930 . S
H2419 C2427 0.930 . S
H2420 C2430 0.930 . S
H2421 C2431 0.930 . S
C2422 H2416 0.930 . S
C2422 C2423 1.355 . S
C2422 C2424 1.415 . S
C2423 C2422 1.355 . S
C2423 C2425 1.419 . S
C2424 C2422 1.415 . S
C2424 C2429 1.425 . S
C2424 C2431 1.409 . S
C2425 H2417 0.930 . S
C2425 C2423 1.419 . S
C2425 C2426 1.362 . S
C2426 H2418 0.930 . S
C2426 C2425 1.362 . S
C2426 C2429 1.409 . S
C2427 H2419 0.930 . S
C2427 C2428 1.355 . S
C2427 C2429 1.415 . S
C2428 C2427 1.355 . S
C2428 C2430 1.419 . S
C2429 C2424 1.425 . S
C2429 C2426 1.409 . S
C2429 C2427 1.415 . S
C2430 H2420 0.930 . S
C2430 C2428 1.419 . S
C2430 C2431 1.362 . S
C2431 H2421 0.930 . S
C2431 C2424 1.409 . S
C2431 C2430 1.362 . S
H2432 C2438 0.930 . S
H2433 C2441 0.930 . S
H2434 C2442 0.930 . S
H2435 C2443 0.930 . S
H2436 C2446 0.930 . S
H2437 C2447 0.930 . S
C2438 H2432 0.930 . S
C2438 C2439 1.355 . S
C2438 C2440 1.415 . S
C2439 C2438 1.355 . S
C2439 C2441 1.419 . S
C2440 C2438 1.415 . S
C2440 C2445 1.425 . S
C2440 C2447 1.409 . S
C2441 H2433 0.930 . S
C2441 C2439 1.419 . S
C2441 C2442 1.362 . S
C2442 H2434 0.930 . S
C2442 C2441 1.362 . S
C2442 C2445 1.409 . S
C2443 H2435 0.930 . S
C2443 C2444 1.355 . S
C2443 C2445 1.415 . S
C2444 C2443 1.355 . S
C2444 C2446 1.419 . S
C2445 C2440 1.425 . S
C2445 C2442 1.409 . S
C2445 C2443 1.415 . S
C2446 H2436 0.930 . S
C2446 C2444 1.419 . S
C2446 C2447 1.362 . S
C2447 H2437 0.930 . S
C2447 C2440 1.409 . S
C2447 C2446 1.362 . S
H2448 C2454 0.930 . S
H2449 C2457 0.930 . S
H2450 C2458 0.930 . S
H2451 C2459 0.930 . S
H2452 C2462 0.930 . S
H2453 C2463 0.930 . S
C2454 H2448 0.930 . S
C2454 C2455 1.355 . S
C2454 C2456 1.415 . S
C2455 C2454 1.355 . S
C2455 C2457 1.419 . S
C2456 C2454 1.415 . S
C2456 C2461 1.425 . S
C2456 C2463 1.409 . S
C2457 H2449 0.930 . S
C2457 C2455 1.419 . S
C2457 C2458 1.362 . S
C2458 H2450 0.930 . S
C2458 C2457 1.362 . S
C2458 C2461 1.409 . S
C2459 H2451 0.930 . S
C2459 C2460 1.355 . S
C2459 C2461 1.415 . S
C2460 C2459 1.355 . S
C2460 C2462 1.419 . S
C2461 C2456 1.425 . S
C2461 C2458 1.409 . S
C2461 C2459 1.415 . S
C2462 H2452 0.930 . S
C2462 C2460 1.419 . S
C2462 C2463 1.362 . S
C2463 H2453 0.930 . S
C2463 C2456 1.409 . S
C2463 C2462 1.362 . S
H2464 C2470 0.930 . S
H2465 C2473 0.930 . S
H2466 C2474 0.930 . S
H2467 C2475 0.930 . S
H2468 C2478 0.930 . S
H2469 C2479 0.930 . S
C2470 H2464 0.930 . S
C2470 C2471 1.355 . S
C2470 C2472 1.415 . S
C2471 C2470 1.355 . S
C2471 C2473 1.419 . S
C2472 C2470 1.415 . S
C2472 C2477 1.425 . S
C2472 C2479 1.409 . S
C2473 H2465 0.930 . S
C2473 C2471 1.419 . S
C2473 C2474 1.362 . S
C2474 H2466 0.930 . S
C2474 C2473 1.362 . S
C2474 C2477 1.409 . S
C2475 H2467 0.930 . S
C2475 C2476 1.355 . S
C2475 C2477 1.415 . S
C2476 C2475 1.355 . S
C2476 C2478 1.419 . S
C2477 C2472 1.425 . S
C2477 C2474 1.409 . S
C2477 C2475 1.415 . S
C2478 H2468 0.930 . S
C2478 C2476 1.419 . S
C2478 C2479 1.362 . S
C2479 H2469 0.930 . S
C2479 C2472 1.409 . S
C2479 C2478 1.362 . S
H2480 C2486 0.930 . S
H2481 C2489 0.930 . S
H2482 C2490 0.930 . S
H2483 C2491 0.930 . S
H2484 C2494 0.930 . S
H2485 C2495 0.930 . S
C2486 H2480 0.930 . S
C2486 C2487 1.355 . S
C2486 C2488 1.415 . S
C2487 C2486 1.355 . S
C2487 C2489 1.419 . S
C2488 C2486 1.415 . S
C2488 C2493 1.425 . S
C2488 C2495 1.409 . S
C2489 H2481 0.930 . S
C2489 C2487 1.419 . S
C2489 C2490 1.362 . S
C2490 H2482 0.930 . S
C2490 C2489 1.362 . S
C2490 C2493 1.409 . S
C2491 H2483 0.930 . S
C2491 C2492 1.355 . S
C2491 C2493 1.415 . S
C2492 C2491 1.355 . S
C2492 C2494 1.419 . S
C2493 C2488 1.425 . S
C2493 C2490 1.409 . S
C2493 C2491 1.415 . S
C2494 H2484 0.930 . S
C2494 C2492 1.419 . S
C2494 C2495 1.362 . S
C2495 H2485 0.930 . S
C2495 C2488 1.409 . S
C2495 C2494 1.362 . S
H2496 C2502 0.930 . S
H2497 C2505 0.968 . S
H2498 C2506 0.930 . S
H2499 C2507 0.930 . S
H2500 C2510 0.930 . S
H2501 C2511 0.930 . S
C2502 H2496 0.930 . S
C2502 C2503 1.355 . S
C2502 C2504 1.415 . S
C2503 C2502 1.355 . S
C2503 C2505 1.402 1_655 S
C2504 C2502 1.415 . S
C2504 C2509 1.425 . S
C2504 C2511 1.409 . S
C2505 H2497 0.968 . S
C2505 C2503 1.402 1_455 S
C2505 C2506 1.343 1_455 S
C2506 H2498 0.930 . S
C2506 C2505 1.343 1_655 S
C2506 C2509 1.409 . S
C2507 H2499 0.930 . S
C2507 C2508 1.355 . S
C2507 C2509 1.415 . S
C2508 C2507 1.355 . S
C2508 C2510 1.419 . S
C2509 C2504 1.425 . S
C2509 C2506 1.409 . S
C2509 C2507 1.415 . S
C2510 H2500 0.930 . S
C2510 C2508 1.419 . S
C2510 C2511 1.362 . S
C2511 H2501 0.930 . S
C2511 C2504 1.409 . S
C2511 C2510 1.362 . S
H2512 C2518 0.930 . S
H2513 C2521 0.930 . S
H2514 C2522 0.930 . S
H2515 C2523 0.930 . S
H2516 C2526 0.930 . S
H2517 C2527 0.930 . S
C2518 H2512 0.930 . S
C2518 C2519 1.355 . S
C2518 C2520 1.415 . S
C2519 C2518 1.355 . S
C2519 C2521 1.419 . S
C2520 C2518 1.415 . S
C2520 C2525 1.425 . S
C2520 C2527 1.409 . S
C2521 H2513 0.930 . S
C2521 C2519 1.419 . S
C2521 C2522 1.362 . S
C2522 H2514 0.930 . S
C2522 C2521 1.362 . S
C2522 C2525 1.409 . S
C2523 H2515 0.930 . S
C2523 C2524 1.355 . S
C2523 C2525 1.415 . S
C2524 C2523 1.355 . S
C2524 C2526 1.419 . S
C2525 C2520 1.425 . S
C2525 C2522 1.409 . S
C2525 C2523 1.415 . S
C2526 H2516 0.930 . S
C2526 C2524 1.419 . S
C2526 C2527 1.362 . S
C2527 H2517 0.930 . S
C2527 C2520 1.409 . S
C2527 C2526 1.362 . S
H2528 C2534 0.930 . S
H2529 C2537 0.930 . S
H2530 C2538 0.930 . S
H2531 C2539 0.930 . S
H2532 C2542 0.930 . S
H2533 C2543 0.930 . S
C2534 H2528 0.930 . S
C2534 C2535 1.355 . S
C2534 C2536 1.415 . S
C2535 C2534 1.355 . S
C2535 C2537 1.419 . S
C2536 C2534 1.415 . S
C2536 C2541 1.425 . S
C2536 C2543 1.409 . S
C2537 H2529 0.930 . S
C2537 C2535 1.419 . S
C2537 C2538 1.362 . S
C2538 H2530 0.930 . S
C2538 C2537 1.362 . S
C2538 C2541 1.409 . S
C2539 H2531 0.930 . S
C2539 C2540 1.355 . S
C2539 C2541 1.415 . S
C2540 C2539 1.355 . S
C2540 C2542 1.419 . S
C2541 C2536 1.425 . S
C2541 C2538 1.409 . S
C2541 C2539 1.415 . S
C2542 H2532 0.930 . S
C2542 C2540 1.419 . S
C2542 C2543 1.362 . S
C2543 H2533 0.930 . S
C2543 C2536 1.409 . S
C2543 C2542 1.362 . S
H2544 C2550 0.930 . S
H2545 C2553 0.930 . S
H2546 C2554 0.930 . S
H2547 C2555 0.930 . S
H2548 C2558 0.930 . S
H2549 C2559 0.930 . S
C2550 H2544 0.930 . S
C2550 C2551 1.355 . S
C2550 C2552 1.415 . S
C2551 C2550 1.355 . S
C2551 C2553 1.419 . S
C2552 C2550 1.415 . S
C2552 C2557 1.425 . S
C2552 C2559 1.409 . S
C2553 H2545 0.930 . S
C2553 C2551 1.419 . S
C2553 C2554 1.362 . S
C2554 H2546 0.930 . S
C2554 C2553 1.362 . S
C2554 C2557 1.409 . S
C2555 H2547 0.930 . S
C2555 C2556 1.355 . S
C2555 C2557 1.415 . S
C2556 C2555 1.355 . S
C2556 C2558 1.419 . S
C2557 C2552 1.425 . S
C2557 C2554 1.409 . S
C2557 C2555 1.415 . S
C2558 H2548 0.930 . S
C2558 C2556 1.419 . S
C2558 C2559 1.362 . S
C2559 H2549 0.930 . S
C2559 C2552 1.409 . S
C2559 C2558 1.362 . S
H2560 C2566 0.930 . S
H2561 C2569 0.930 . S
H2562 C2570 0.930 . S
H2563 C2571 0.930 . S
H2564 C2574 0.930 . S
H2565 C2575 0.930 . S
C2566 H2560 0.930 . S
C2566 C2567 1.355 . S
C2566 C2568 1.415 . S
C2567 C2566 1.355 . S
C2567 C2569 1.419 . S
C2568 C2566 1.415 . S
C2568 C2573 1.425 . S
C2568 C2575 1.409 . S
C2569 H2561 0.930 . S
C2569 C2567 1.419 . S
C2569 C2570 1.362 . S
C2570 H2562 0.930 . S
C2570 C2569 1.362 . S
C2570 C2573 1.409 . S
C2571 H2563 0.930 . S
C2571 C2572 1.355 . S
C2571 C2573 1.415 . S
C2572 C2571 1.355 . S
C2572 C2574 1.419 . S
C2573 C2568 1.425 . S
C2573 C2570 1.409 . S
C2573 C2571 1.415 . S
C2574 H2564 0.930 . S
C2574 C2572 1.419 . S
C2574 C2575 1.362 . S
C2575 H2565 0.930 . S
C2575 C2568 1.409 . S
C2575 C2574 1.362 . S
H2576 C2582 0.930 . S
H2577 C2585 0.930 . S
H2578 C2586 0.930 . S
H2579 C2587 0.930 . S
H2580 C2590 0.930 . S
H2581 C2591 0.930 . S
C2582 H2576 0.930 . S
C2582 C2583 1.355 . S
C2582 C2584 1.415 . S
C2583 C2582 1.355 . S
C2583 C2585 1.419 . S
C2584 C2582 1.415 . S
C2584 C2589 1.425 . S
C2584 C2591 1.409 . S
C2585 H2577 0.930 . S
C2585 C2583 1.419 . S
C2585 C2586 1.362 . S
C2586 H2578 0.930 . S
C2586 C2585 1.362 . S
C2586 C2589 1.409 . S
C2587 H2579 0.930 . S
C2587 C2588 1.355 . S
C2587 C2589 1.415 . S
C2588 C2587 1.355 . S
C2588 C2590 1.419 . S
C2589 C2584 1.425 . S
C2589 C2586 1.409 . S
C2589 C2587 1.415 . S
C2590 H2580 0.930 . S
C2590 C2588 1.419 . S
C2590 C2591 1.362 . S
C2591 H2581 0.930 . S
C2591 C2584 1.409 . S
C2591 C2590 1.362 . S
H2592 C2598 0.930 . S
H2593 C2601 0.930 . S
H2594 C2602 0.930 . S
H2595 C2603 0.930 . S
H2596 C2606 0.930 . S
H2597 C2607 0.930 . S
C2598 H2592 0.930 . S
C2598 C2599 1.355 . S
C2598 C2600 1.415 . S
C2599 C2598 1.355 . S
C2599 C2601 1.419 . S
C2600 C2598 1.415 . S
C2600 C2605 1.425 . S
C2600 C2607 1.409 . S
C2601 H2593 0.930 . S
C2601 C2599 1.419 . S
C2601 C2602 1.362 . S
C2602 H2594 0.930 . S
C2602 C2601 1.362 . S
C2602 C2605 1.409 . S
C2603 H2595 0.930 . S
C2603 C2604 1.355 . S
C2603 C2605 1.415 . S
C2604 C2603 1.355 . S
C2604 C2606 1.419 . S
C2605 C2600 1.425 . S
C2605 C2602 1.409 . S
C2605 C2603 1.415 . S
C2606 H2596 0.930 . S
C2606 C2604 1.419 . S
C2606 C2607 1.362 . S
C2607 H2597 0.930 . S
C2607 C2600 1.409 . S
C2607 C2606 1.362 . S
H2608 C2614 0.930 . S
H2609 C2617 0.930 . S
H2610 C2618 0.930 . S
H2611 C2619 0.930 . S
H2612 C2622 0.930 . S
H2613 C2623 0.930 . S
C2614 H2608 0.930 . S
C2614 C2615 1.355 . S
C2614 C2616 1.415 . S
C2615 C2614 1.355 . S
C2615 C2617 1.419 . S
C2616 C2614 1.415 . S
C2616 C2621 1.425 . S
C2616 C2623 1.409 . S
C2617 H2609 0.930 . S
C2617 C2615 1.419 . S
C2617 C2618 1.362 . S
C2618 H2610 0.930 . S
C2618 C2617 1.362 . S
C2618 C2621 1.409 . S
C2619 H2611 0.930 . S
C2619 C2620 1.355 . S
C2619 C2621 1.415 . S
C2620 C2619 1.355 . S
C2620 C2622 1.419 . S
C2621 C2616 1.425 . S
C2621 C2618 1.409 . S
C2621 C2619 1.415 . S
C2622 H2612 0.930 . S
C2622 C2620 1.419 . S
C2622 C2623 1.362 . S
C2623 H2613 0.930 . S
C2623 C2616 1.409 . S
C2623 C2622 1.362 . S
H2624 C2630 0.930 . S
H2625 C2633 0.930 . S
H2626 C2634 0.930 . S
H2627 C2635 0.930 . S
H2628 C2638 0.930 . S
H2629 C2639 0.930 . S
C2630 H2624 0.930 . S
C2630 C2631 1.355 . S
C2630 C2632 1.415 . S
C2631 C2630 1.355 . S
C2631 C2633 1.419 . S
C2632 C2630 1.415 . S
C2632 C2637 1.425 . S
C2632 C2639 1.409 . S
C2633 H2625 0.930 . S
C2633 C2631 1.419 . S
C2633 C2634 1.362 . S
C2634 H2626 0.930 . S
C2634 C2633 1.362 . S
C2634 C2637 1.409 . S
C2635 H2627 0.930 . S
C2635 C2636 1.355 . S
C2635 C2637 1.415 . S
C2636 C2635 1.355 . S
C2636 C2638 1.419 . S
C2637 C2632 1.425 . S
C2637 C2634 1.409 . S
C2637 C2635 1.415 . S
C2638 H2628 0.930 . S
C2638 C2636 1.419 . S
C2638 C2639 1.362 . S
C2639 H2629 0.930 . S
C2639 C2632 1.409 . S
C2639 C2638 1.362 . S
H2640 C2646 0.930 . S
H2641 C2649 0.930 . S
H2642 C2650 0.930 . S
H2643 C2651 0.930 . S
H2644 C2654 0.930 1_455 S
H2645 C2655 0.930 . S
C2646 H2640 0.930 . S
C2646 C2647 1.355 . S
C2646 C2648 1.415 . S
C2647 C2646 1.355 . S
C2647 C2649 1.419 . S
C2648 C2646 1.415 . S
C2648 C2653 1.425 . S
C2648 C2655 1.409 . S
C2649 H2641 0.930 . S
C2649 C2647 1.419 . S
C2649 C2650 1.362 . S
C2650 H2642 0.930 . S
C2650 C2649 1.362 . S
C2650 C2653 1.409 . S
C2651 H2643 0.930 . S
C2651 C2652 1.355 1_655 S
C2651 C2653 1.415 . S
C2652 C2651 1.355 1_455 S
C2652 C2654 1.419 1_455 S
C2653 C2648 1.425 . S
C2653 C2650 1.409 . S
C2653 C2651 1.415 . S
C2654 H2644 0.930 1_655 S
C2654 C2652 1.419 1_655 S
C2654 C2655 1.362 . S
C2655 H2645 0.930 . S
C2655 C2648 1.409 . S
C2655 C2654 1.362 . S
H2656 C2662 0.930 . S
H2657 C2665 0.930 . S
H2658 C2666 0.930 . S
H2659 C2667 0.930 . S
H2660 C2670 0.930 . S
H2661 C2671 0.930 . S
C2662 H2656 0.930 . S
C2662 C2663 1.355 . S
C2662 C2664 1.415 . S
C2663 C2662 1.355 . S
C2663 C2665 1.419 . S
C2664 C2662 1.415 . S
C2664 C2669 1.425 . S
C2664 C2671 1.409 . S
C2665 H2657 0.930 . S
C2665 C2663 1.419 . S
C2665 C2666 1.362 . S
C2666 H2658 0.930 . S
C2666 C2665 1.362 . S
C2666 C2669 1.409 . S
C2667 H2659 0.930 . S
C2667 C2668 1.355 . S
C2667 C2669 1.415 . S
C2668 C2667 1.355 . S
C2668 C2670 1.419 . S
C2669 C2664 1.425 . S
C2669 C2666 1.409 . S
C2669 C2667 1.415 . S
C2670 H2660 0.930 . S
C2670 C2668 1.419 . S
C2670 C2671 1.362 . S
C2671 H2661 0.930 . S
C2671 C2664 1.409 . S
C2671 C2670 1.362 . S
H2672 C2678 0.930 . S
H2673 C2681 0.930 . S
H2674 C2682 0.930 . S
H2675 C2683 0.930 . S
H2676 C2686 0.930 . S
H2677 C2687 0.930 . S
C2678 H2672 0.930 . S
C2678 C2679 1.355 . S
C2678 C2680 1.415 . S
C2679 C2678 1.355 . S
C2679 C2681 1.419 . S
C2680 C2678 1.415 . S
C2680 C2685 1.425 . S
C2680 C2687 1.409 . S
C2681 H2673 0.930 . S
C2681 C2679 1.419 . S
C2681 C2682 1.362 . S
C2682 H2674 0.930 . S
C2682 C2681 1.362 . S
C2682 C2685 1.409 . S
C2683 H2675 0.930 . S
C2683 C2684 1.355 . S
C2683 C2685 1.415 . S
C2684 C2683 1.355 . S
C2684 C2686 1.419 . S
C2685 C2680 1.425 . S
C2685 C2682 1.409 . S
C2685 C2683 1.415 . S
C2686 H2676 0.930 . S
C2686 C2684 1.419 . S
C2686 C2687 1.362 . S
C2687 H2677 0.930 . S
C2687 C2680 1.409 . S
C2687 C2686 1.362 . S
H2688 C2694 0.930 . S
H2689 C2697 0.930 . S
H2690 C2698 0.930 . S
H2691 C2699 0.930 . S
H2692 C2702 0.930 . S
H2693 C2703 0.930 . S
C2694 H2688 0.930 . S
C2694 C2695 1.355 . S
C2694 C2696 1.415 . S
C2695 C2694 1.355 . S
C2695 C2697 1.419 . S
C2696 C2694 1.415 . S
C2696 C2701 1.425 . S
C2696 C2703 1.409 . S
C2697 H2689 0.930 . S
C2697 C2695 1.419 . S
C2697 C2698 1.362 . S
C2698 H2690 0.930 . S
C2698 C2697 1.362 . S
C2698 C2701 1.409 . S
C2699 H2691 0.930 . S
C2699 C2700 1.355 . S
C2699 C2701 1.415 . S
C2700 C2699 1.355 . S
C2700 C2702 1.419 . S
C2701 C2696 1.425 . S
C2701 C2698 1.409 . S
C2701 C2699 1.415 . S
C2702 H2692 0.930 . S
C2702 C2700 1.419 . S
C2702 C2703 1.362 . S
C2703 H2693 0.930 . S
C2703 C2696 1.409 . S
C2703 C2702 1.362 . S
H2704 C2710 0.930 . S
H2705 C2713 0.930 . S
H2706 C2714 0.930 . S
H2707 C2715 0.930 . S
H2708 C2718 0.930 . S
H2709 C2719 0.930 . S
C2710 H2704 0.930 . S
C2710 C2711 1.355 . S
C2710 C2712 1.415 . S
C2711 C2710 1.355 . S
C2711 C2713 1.419 . S
C2712 C2710 1.415 . S
C2712 C2717 1.425 . S
C2712 C2719 1.409 . S
C2713 H2705 0.930 . S
C2713 C2711 1.419 . S
C2713 C2714 1.362 . S
C2714 H2706 0.930 . S
C2714 C2713 1.362 . S
C2714 C2717 1.409 . S
C2715 H2707 0.930 . S
C2715 C2716 1.355 . S
C2715 C2717 1.415 . S
C2716 C2715 1.355 . S
C2716 C2718 1.419 . S
C2717 C2712 1.425 . S
C2717 C2714 1.409 . S
C2717 C2715 1.415 . S
C2718 H2708 0.930 . S
C2718 C2716 1.419 . S
C2718 C2719 1.362 . S
C2719 H2709 0.930 . S
C2719 C2712 1.409 . S
C2719 C2718 1.362 . S
H2720 C2726 0.930 . S
H2721 C2729 0.930 . S
H2722 C2730 0.930 . S
H2723 C2731 0.930 . S
H2724 C2734 0.930 . S
H2725 C2735 0.930 . S
C2726 H2720 0.930 . S
C2726 C2727 1.355 . S
C2726 C2728 1.415 . S
C2727 C2726 1.355 . S
C2727 C2729 1.419 . S
C2728 C2726 1.415 . S
C2728 C2733 1.425 . S
C2728 C2735 1.409 . S
C2729 H2721 0.930 . S
C2729 C2727 1.419 . S
C2729 C2730 1.362 . S
C2730 H2722 0.930 . S
C2730 C2729 1.362 . S
C2730 C2733 1.409 . S
C2731 H2723 0.930 . S
C2731 C2732 1.355 . S
C2731 C2733 1.415 . S
C2732 C2731 1.355 . S
C2732 C2734 1.419 . S
C2733 C2728 1.425 . S
C2733 C2730 1.409 . S
C2733 C2731 1.415 . S
C2734 H2724 0.930 . S
C2734 C2732 1.419 . S
C2734 C2735 1.362 . S
C2735 H2725 0.930 . S
C2735 C2728 1.409 . S
C2735 C2734 1.362 . S
H2736 C2742 0.930 . S
H2737 C2745 0.930 . S
H2738 C2746 0.930 . S
H2739 C2747 0.930 . S
H2740 C2750 0.930 . S
H2741 C2751 0.930 . S
C2742 H2736 0.930 . S
C2742 C2743 1.355 . S
C2742 C2744 1.415 . S
C2743 C2742 1.355 . S
C2743 C2745 1.419 . S
C2744 C2742 1.415 . S
C2744 C2749 1.425 . S
C2744 C2751 1.409 . S
C2745 H2737 0.930 . S
C2745 C2743 1.419 . S
C2745 C2746 1.362 . S
C2746 H2738 0.930 . S
C2746 C2745 1.362 . S
C2746 C2749 1.409 . S
C2747 H2739 0.930 . S
C2747 C2748 1.355 . S
C2747 C2749 1.415 . S
C2748 C2747 1.355 . S
C2748 C2750 1.419 . S
C2749 C2744 1.425 . S
C2749 C2746 1.409 . S
C2749 C2747 1.415 . S
C2750 H2740 0.930 . S
C2750 C2748 1.419 . S
C2750 C2751 1.362 . S
C2751 H2741 0.930 . S
C2751 C2744 1.409 . S
C2751 C2750 1.362 . S
H2752 C2758 0.930 . S
H2753 C2761 0.930 . S
H2754 C2762 0.930 . S
H2755 C2763 0.930 . S
H2756 C2766 0.930 . S
H2757 C2767 0.930 . S
C2758 H2752 0.930 . S
C2758 C2759 1.355 . S
C2758 C2760 1.415 . S
C2759 C2758 1.355 . S
C2759 C2761 1.419 . S
C2760 C2758 1.415 . S
C2760 C2765 1.425 . S
C2760 C2767 1.409 . S
C2761 H2753 0.930 . S
C2761 C2759 1.419 . S
C2761 C2762 1.362 . S
C2762 H2754 0.930 . S
C2762 C2761 1.362 . S
C2762 C2765 1.409 . S
C2763 H2755 0.930 . S
C2763 C2764 1.355 . S
C2763 C2765 1.415 . S
C2764 C2763 1.355 . S
C2764 C2766 1.419 . S
C2765 C2760 1.425 . S
C2765 C2762 1.409 . S
C2765 C2763 1.415 . S
C2766 H2756 0.930 . S
C2766 C2764 1.419 . S
C2766 C2767 1.362 . S
C2767 H2757 0.930 . S
C2767 C2760 1.409 . S
C2767 C2766 1.362 . S
H2768 C2774 0.930 . S
H2769 C2777 0.930 . S
H2770 C2778 0.930 . S
H2771 C2779 0.930 . S
H2772 C2782 0.930 . S
H2773 C2783 0.930 . S
C2774 H2768 0.930 . S
C2774 C2775 1.355 . S
C2774 C2776 1.415 . S
C2775 C2774 1.355 . S
C2775 C2777 1.419 . S
C2776 C2774 1.415 . S
C2776 C2781 1.425 . S
C2776 C2783 1.409 . S
C2777 H2769 0.930 . S
C2777 C2775 1.419 . S
C2777 C2778 1.362 . S
C2778 H2770 0.930 . S
C2778 C2777 1.362 . S
C2778 C2781 1.409 . S
C2779 H2771 0.930 . S
C2779 C2780 1.355 . S
C2779 C2781 1.415 . S
C2780 C2779 1.355 . S
C2780 C2782 1.419 . S
C2781 C2776 1.425 . S
C2781 C2778 1.409 . S
C2781 C2779 1.415 . S
C2782 H2772 0.930 . S
C2782 C2780 1.419 . S
C2782 C2783 1.362 . S
C2783 H2773 0.930 . S
C2783 C2776 1.409 . S
C2783 C2782 1.362 . S
H2784 C2790 0.930 . S
H2785 C2793 0.930 . S
H2786 C2794 0.930 . S
H2787 C2795 0.930 . S
H2788 C2798 0.930 . S
H2789 C2799 0.930 . S
C2790 H2784 0.930 . S
C2790 C2791 1.355 . S
C2790 C2792 1.415 . S
C2791 C2790 1.355 . S
C2791 C2793 1.419 . S
C2792 C2790 1.415 . S
C2792 C2797 1.425 . S
C2792 C2799 1.409 . S
C2793 H2785 0.930 . S
C2793 C2791 1.419 . S
C2793 C2794 1.362 . S
C2794 H2786 0.930 . S
C2794 C2793 1.362 . S
C2794 C2797 1.409 . S
C2795 H2787 0.930 . S
C2795 C2796 1.355 . S
C2795 C2797 1.415 . S
C2796 C2795 1.355 . S
C2796 C2798 1.419 . S
C2797 C2792 1.425 . S
C2797 C2794 1.409 . S
C2797 C2795 1.415 . S
C2798 H2788 0.930 . S
C2798 C2796 1.419 . S
C2798 C2799 1.362 . S
C2799 H2789 0.930 . S
C2799 C2792 1.409 . S
C2799 C2798 1.362 . S
H2800 C2806 0.930 . S
H2801 C2809 0.930 . S
H2802 C2810 0.930 . S
H2803 C2811 0.930 . S
H2804 C2814 0.930 . S
H2805 C2815 0.930 . S
C2806 H2800 0.930 . S
C2806 C2807 1.355 . S
C2806 C2808 1.415 . S
C2807 C2806 1.355 . S
C2807 C2809 1.419 . S
C2808 C2806 1.415 . S
C2808 C2813 1.425 . S
C2808 C2815 1.409 . S
C2809 H2801 0.930 . S
C2809 C2807 1.419 . S
C2809 C2810 1.362 . S
C2810 H2802 0.930 . S
C2810 C2809 1.362 . S
C2810 C2813 1.409 . S
C2811 H2803 0.930 . S
C2811 C2812 1.355 . S
C2811 C2813 1.415 . S
C2812 C2811 1.355 . S
C2812 C2814 1.419 . S
C2813 C2808 1.425 . S
C2813 C2810 1.409 . S
C2813 C2811 1.415 . S
C2814 H2804 0.930 . S
C2814 C2812 1.419 . S
C2814 C2815 1.362 . S
C2815 H2805 0.930 . S
C2815 C2808 1.409 . S
C2815 C2814 1.362 . S
H2816 C2822 0.930 . S
H2817 C2825 0.930 . S
H2818 C2826 0.930 . S
H2819 C2827 0.930 . S
H2820 C2830 0.930 . S
H2821 C2831 0.930 . S
C2822 H2816 0.930 . S
C2822 C2823 1.355 . S
C2822 C2824 1.415 . S
C2823 C2822 1.355 . S
C2823 C2825 1.419 . S
C2824 C2822 1.415 . S
C2824 C2829 1.425 . S
C2824 C2831 1.409 . S
C2825 H2817 0.930 . S
C2825 C2823 1.419 . S
C2825 C2826 1.362 . S
C2826 H2818 0.930 . S
C2826 C2825 1.362 . S
C2826 C2829 1.409 . S
C2827 H2819 0.930 . S
C2827 C2828 1.355 . S
C2827 C2829 1.415 . S
C2828 C2827 1.355 . S
C2828 C2830 1.419 . S
C2829 C2824 1.425 . S
C2829 C2826 1.409 . S
C2829 C2827 1.415 . S
C2830 H2820 0.930 . S
C2830 C2828 1.419 . S
C2830 C2831 1.362 . S
C2831 H2821 0.930 . S
C2831 C2824 1.409 . S
C2831 C2830 1.362 . S
H2832 C2838 0.930 . S
H2833 C2841 0.930 . S
H2834 C2842 0.930 . S
H2835 C2843 0.930 . S
H2836 C2846 0.930 . S
H2837 C2847 0.930 . S
C2838 H2832 0.930 . S
C2838 C2839 1.355 . S
C2838 C2840 1.415 . S
C2839 C2838 1.355 . S
C2839 C2841 1.419 . S
C2840 C2838 1.415 . S
C2840 C2845 1.425 . S
C2840 C2847 1.409 . S
C2841 H2833 0.930 . S
C2841 C2839 1.419 . S
C2841 C2842 1.362 . S
C2842 H2834 0.930 . S
C2842 C2841 1.362 . S
C2842 C2845 1.409 . S
C2843 H2835 0.930 . S
C2843 C2844 1.355 1_565 S
C2843 C2845 1.415 . S
C2844 C2843 1.355 1_545 S
C2844 C2846 1.419 1_545 S
C2845 C2840 1.425 . S
C2845 C2842 1.409 . S
C2845 C2843 1.415 . S
C2846 H2836 0.930 . S
C2846 C2844 1.419 1_565 S
C2846 C2847 1.362 . S
C2847 H2837 0.930 . S
C2847 C2840 1.409 . S
C2847 C2846 1.362 . S
H2848 C2854 0.930 . S
H2849 C2857 0.930 . S
H2850 C2858 0.930 . S
H2851 C2859 0.930 . S
H2852 C2862 0.930 . S
H2853 C2863 0.930 . S
C2854 H2848 0.930 . S
C2854 C2855 1.355 . S
C2854 C2856 1.415 . S
C2855 C2854 1.355 . S
C2855 C2857 1.419 . S
C2856 C2854 1.415 . S
C2856 C2861 1.425 . S
C2856 C2863 1.409 . S
C2857 H2849 0.930 . S
C2857 C2855 1.419 . S
C2857 C2858 1.362 . S
C2858 H2850 0.930 . S
C2858 C2857 1.362 . S
C2858 C2861 1.409 . S
C2859 H2851 0.930 . S
C2859 C2860 1.355 . S
C2859 C2861 1.415 . S
C2860 C2859 1.355 . S
C2860 C2862 1.419 . S
C2861 C2856 1.425 . S
C2861 C2858 1.409 . S
C2861 C2859 1.415 . S
C2862 H2852 0.930 . S
C2862 C2860 1.419 . S
C2862 C2863 1.362 . S
C2863 H2853 0.930 . S
C2863 C2856 1.409 . S
C2863 C2862 1.362 . S
H2864 C2870 0.930 . S
H2865 C2873 0.930 . S
H2866 C2874 0.930 . S
H2867 C2875 0.930 . S
H2868 C2878 0.930 . S
H2869 C2879 0.930 . S
C2870 H2864 0.930 . S
C2870 C2871 1.355 . S
C2870 C2872 1.415 . S
C2871 C2870 1.355 . S
C2871 C2873 1.419 . S
C2872 C2870 1.415 . S
C2872 C2877 1.425 . S
C2872 C2879 1.409 . S
C2873 H2865 0.930 . S
C2873 C2871 1.419 . S
C2873 C2874 1.362 . S
C2874 H2866 0.930 . S
C2874 C2873 1.362 . S
C2874 C2877 1.409 . S
C2875 H2867 0.930 . S
C2875 C2876 1.355 . S
C2875 C2877 1.415 . S
C2876 C2875 1.355 . S
C2876 C2878 1.419 . S
C2877 C2872 1.425 . S
C2877 C2874 1.409 . S
C2877 C2875 1.415 . S
C2878 H2868 0.930 . S
C2878 C2876 1.419 . S
C2878 C2879 1.362 . S
C2879 H2869 0.930 . S
C2879 C2872 1.409 . S
C2879 C2878 1.362 . S
H2880 C2886 0.930 . S
H2881 C2889 0.930 . S
H2882 C2890 0.930 . S
H2883 C2891 0.930 . S
H2884 C2894 0.930 . S
H2885 C2895 0.930 . S
C2886 H2880 0.930 . S
C2886 C2887 1.355 . S
C2886 C2888 1.415 . S
C2887 C2886 1.355 . S
C2887 C2889 1.419 . S
C2888 C2886 1.415 . S
C2888 C2893 1.425 . S
C2888 C2895 1.409 . S
C2889 H2881 0.930 . S
C2889 C2887 1.419 . S
C2889 C2890 1.362 . S
C2890 H2882 0.930 . S
C2890 C2889 1.362 . S
C2890 C2893 1.409 . S
C2891 H2883 0.930 . S
C2891 C2892 1.355 . S
C2891 C2893 1.415 . S
C2892 C2891 1.355 . S
C2892 C2894 1.419 . S
C2893 C2888 1.425 . S
C2893 C2890 1.409 . S
C2893 C2891 1.415 . S
C2894 H2884 0.930 . S
C2894 C2892 1.419 . S
C2894 C2895 1.362 . S
C2895 H2885 0.930 . S
C2895 C2888 1.409 . S
C2895 C2894 1.362 . S
H2896 C2902 0.930 . S
H2897 C2905 0.930 . S
H2898 C2906 0.930 . S
H2899 C2907 0.930 . S
H2900 C2910 0.930 . S
H2901 C2911 0.930 . S
C2902 H2896 0.930 . S
C2902 C2903 1.355 . S
C2902 C2904 1.415 . S
C2903 C2902 1.355 . S
C2903 C2905 1.419 . S
C2904 C2902 1.415 . S
C2904 C2909 1.425 . S
C2904 C2911 1.409 . S
C2905 H2897 0.930 . S
C2905 C2903 1.419 . S
C2905 C2906 1.362 . S
C2906 H2898 0.930 . S
C2906 C2905 1.362 . S
C2906 C2909 1.409 . S
C2907 H2899 0.930 . S
C2907 C2908 1.355 . S
C2907 C2909 1.415 . S
C2908 C2907 1.355 . S
C2908 C2910 1.419 . S
C2909 C2904 1.425 . S
C2909 C2906 1.409 . S
C2909 C2907 1.415 . S
C2910 H2900 0.930 . S
C2910 C2908 1.419 . S
C2910 C2911 1.362 . S
C2911 H2901 0.930 . S
C2911 C2904 1.409 . S
C2911 C2910 1.362 . S
H2912 C2918 0.930 . S
H2913 C2921 0.930 . S
H2914 C2922 0.930 . S
H2915 C2923 0.930 . S
H2916 C2926 0.930 . S
H2917 C2927 0.930 . S
C2918 H2912 0.930 . S
C2918 C2919 1.355 . S
C2918 C2920 1.415 . S
C2919 C2918 1.355 . S
C2919 C2921 1.419 . S
C2920 C2918 1.415 . S
C2920 C2925 1.425 . S
C2920 C2927 1.409 . S
C2921 H2913 0.930 . S
C2921 C2919 1.419 . S
C2921 C2922 1.362 . S
C2922 H2914 0.930 . S
C2922 C2921 1.362 . S
C2922 C2925 1.409 . S
C2923 H2915 0.930 . S
C2923 C2924 1.355 . S
C2923 C2925 1.415 . S
C2924 C2923 1.355 . S
C2924 C2926 1.419 . S
C2925 C2920 1.425 . S
C2925 C2922 1.409 . S
C2925 C2923 1.415 . S
C2926 H2916 0.930 . S
C2926 C2924 1.419 . S
C2926 C2927 1.362 . S
C2927 H2917 0.930 . S
C2927 C2920 1.409 . S
C2927 C2926 1.362 . S
H2928 C2934 0.930 . S
H2929 C2937 0.930 . S
H2930 C2938 0.930 . S
H2931 C2939 0.930 . S
H2932 C2942 0.930 . S
H2933 C2943 0.930 . S
C2934 H2928 0.930 . S
C2934 C2935 1.355 . S
C2934 C2936 1.415 . S
C2935 C2934 1.355 . S
C2935 C2937 1.419 . S
C2936 C2934 1.415 . S
C2936 C2941 1.425 . S
C2936 C2943 1.409 . S
C2937 H2929 0.930 . S
C2937 C2935 1.419 . S
C2937 C2938 1.362 . S
C2938 H2930 0.930 . S
C2938 C2937 1.362 . S
C2938 C2941 1.409 . S
C2939 H2931 0.930 . S
C2939 C2940 1.355 . S
C2939 C2941 1.415 . S
C2940 C2939 1.355 . S
C2940 C2942 1.419 . S
C2941 C2936 1.425 . S
C2941 C2938 1.409 . S
C2941 C2939 1.415 . S
C2942 H2932 0.930 . S
C2942 C2940 1.419 . S
C2942 C2943 1.362 . S
C2943 H2933 0.930 . S
C2943 C2936 1.409 . S
C2943 C2942 1.362 . S
H2944 C2950 0.930 . S
H2945 C2953 0.930 . S
H2946 C2954 0.930 . S
H2947 C2955 0.930 . S
H2948 C2958 0.930 . S
H2949 C2959 0.930 . S
C2950 H2944 0.930 . S
C2950 C2951 1.355 . S
C2950 C2952 1.415 . S
C2951 C2950 1.355 . S
C2951 C2953 1.419 . S
C2952 C2950 1.415 . S
C2952 C2957 1.425 . S
C2952 C2959 1.409 . S
C2953 H2945 0.930 . S
C2953 C2951 1.419 . S
C2953 C2954 1.362 . S
C2954 H2946 0.930 . S
C2954 C2953 1.362 . S
C2954 C2957 1.409 . S
C2955 H2947 0.930 . S
C2955 C2956 1.355 . S
C2955 C2957 1.415 . S
C2956 C2955 1.355 . S
C2956 C2958 1.419 . S
C2957 C2952 1.425 . S
C2957 C2954 1.409 . S
C2957 C2955 1.415 . S
C2958 H2948 0.930 . S
C2958 C2956 1.419 . S
C2958 C2959 1.362 . S
C2959 H2949 0.930 . S
C2959 C2952 1.409 . S
C2959 C2958 1.362 . S
H2960 C2966 0.930 . S
H2961 C2969 0.930 . S
H2962 C2970 0.930 . S
H2963 C2971 0.930 . S
H2964 C2974 0.930 . S
H2965 C2975 0.930 . S
C2966 H2960 0.930 . S
C2966 C2967 1.355 . S
C2966 C2968 1.415 . S
C2967 C2966 1.355 . S
C2967 C2969 1.419 . S
C2968 C2966 1.415 . S
C2968 C2973 1.425 . S
C2968 C2975 1.409 . S
C2969 H2961 0.930 . S
C2969 C2967 1.419 . S
C2969 C2970 1.362 . S
C2970 H2962 0.930 . S
C2970 C2969 1.362 . S
C2970 C2973 1.409 . S
C2971 H2963 0.930 . S
C2971 C2972 1.355 . S
C2971 C2973 1.415 . S
C2972 C2971 1.355 . S
C2972 C2974 1.419 . S
C2973 C2968 1.425 . S
C2973 C2970 1.409 . S
C2973 C2971 1.415 . S
C2974 H2964 0.930 . S
C2974 C2972 1.419 . S
C2974 C2975 1.362 . S
C2975 H2965 0.930 . S
C2975 C2968 1.409 . S
C2975 C2974 1.362 . S
H2976 C2982 0.930 . S
H2977 C2985 0.930 . S
H2978 C2986 0.930 . S
H2979 C2987 0.930 . S
H2980 C2990 0.930 . S
H2981 C2991 0.930 . S
C2982 H2976 0.930 . S
C2982 C2983 1.355 . S
C2982 C2984 1.415 . S
C2983 C2982 1.355 . S
C2983 C2985 1.419 . S
C2984 C2982 1.415 . S
C2984 C2989 1.425 . S
C2984 C2991 1.409 . S
C2985 H2977 0.930 . S
C2985 C2983 1.419 . S
C2985 C2986 1.362 . S
C2986 H2978 0.930 . S
C2986 C2985 1.362 . S
C2986 C2989 1.409 . S
C2987 H2979 0.930 . S
C2987 C2988 1.355 1_565 S
C2987 C2989 1.415 . S
C2988 C2987 1.355 1_545 S
C2988 C2990 1.419 . S
C2989 C2984 1.425 . S
C2989 C2986 1.409 . S
C2989 C2987 1.415 . S
C2990 H2980 0.930 . S
C2990 C2988 1.419 . S
C2990 C2991 1.362 1_545 S
C2991 H2981 0.930 . S
C2991 C2984 1.409 . S
C2991 C2990 1.362 1_565 S
H2992 C2998 0.930 . S
H2993 C3001 0.930 . S
H2994 C3002 0.930 . S
H2995 C3003 0.930 . S
H2996 C3006 0.930 . S
H2997 C3007 0.930 . S
C2998 H2992 0.930 . S
C2998 C2999 1.355 . S
C2998 C3000 1.415 . S
C2999 C2998 1.355 . S
C2999 C3001 1.419 . S
C3000 C2998 1.415 . S
C3000 C3005 1.425 . S
C3000 C3007 1.409 . S
C3001 H2993 0.930 . S
C3001 C2999 1.419 . S
C3001 C3002 1.362 . S
C3002 H2994 0.930 . S
C3002 C3001 1.362 . S
C3002 C3005 1.409 . S
C3003 H2995 0.930 . S
C3003 C3004 1.355 . S
C3003 C3005 1.415 . S
C3004 C3003 1.355 . S
C3004 C3006 1.419 . S
C3005 C3000 1.425 . S
C3005 C3002 1.409 . S
C3005 C3003 1.415 . S
C3006 H2996 0.930 . S
C3006 C3004 1.419 . S
C3006 C3007 1.362 . S
C3007 H2997 0.930 . S
C3007 C3000 1.409 . S
C3007 C3006 1.362 . S
H3008 C3014 0.930 . S
H3009 C3017 0.930 . S
H3010 C3018 0.930 . S
H3011 C3019 0.930 . S
H3012 C3022 0.930 . S
H3013 C3023 0.930 . S
C3014 H3008 0.930 . S
C3014 C3015 1.355 . S
C3014 C3016 1.415 . S
C3015 C3014 1.355 . S
C3015 C3017 1.419 . S
C3016 C3014 1.415 . S
C3016 C3021 1.425 . S
C3016 C3023 1.409 . S
C3017 H3009 0.930 . S
C3017 C3015 1.419 . S
C3017 C3018 1.362 . S
C3018 H3010 0.930 . S
C3018 C3017 1.362 . S
C3018 C3021 1.409 . S
C3019 H3011 0.930 . S
C3019 C3020 1.355 . S
C3019 C3021 1.415 . S
C3020 C3019 1.355 . S
C3020 C3022 1.419 . S
C3021 C3016 1.425 . S
C3021 C3018 1.409 . S
C3021 C3019 1.415 . S
C3022 H3012 0.930 . S
C3022 C3020 1.419 . S
C3022 C3023 1.362 . S
C3023 H3013 0.930 . S
C3023 C3016 1.409 . S
C3023 C3022 1.362 . S
H3024 C3030 0.930 . S
H3025 C3033 0.930 . S
H3026 C3034 0.930 . S
H3027 C3035 0.930 . S
H3028 C3038 0.930 . S
H3029 C3039 0.930 . S
C3030 H3024 0.930 . S
C3030 C3031 1.355 . S
C3030 C3032 1.415 . S
C3031 C3030 1.355 . S
C3031 C3033 1.419 . S
C3032 C3030 1.415 . S
C3032 C3037 1.425 . S
C3032 C3039 1.409 . S
C3033 H3025 0.930 . S
C3033 C3031 1.419 . S
C3033 C3034 1.362 . S
C3034 H3026 0.930 . S
C3034 C3033 1.362 . S
C3034 C3037 1.409 . S
C3035 H3027 0.930 . S
C3035 C3036 1.355 . S
C3035 C3037 1.415 . S
C3036 C3035 1.355 . S
C3036 C3038 1.419 . S
C3037 C3032 1.425 . S
C3037 C3034 1.409 . S
C3037 C3035 1.415 . S
C3038 H3028 0.930 . S
C3038 C3036 1.419 . S
C3038 C3039 1.362 . S
C3039 H3029 0.930 . S
C3039 C3032 1.409 . S
C3039 C3038 1.362 . S
H3040 C3046 0.930 . S
H3041 C3049 0.930 . S
H3042 C3050 0.930 . S
H3043 C3051 0.930 . S
H3044 C3054 0.930 . S
H3045 C3055 0.930 . S
C3046 H3040 0.930 . S
C3046 C3047 1.355 . S
C3046 C3048 1.415 . S
C3047 C3046 1.355 . S
C3047 C3049 1.419 . S
C3048 C3046 1.415 . S
C3048 C3053 1.425 . S
C3048 C3055 1.409 . S
C3049 H3041 0.930 . S
C3049 C3047 1.419 . S
C3049 C3050 1.362 . S
C3050 H3042 0.930 . S
C3050 C3049 1.362 . S
C3050 C3053 1.409 . S
C3051 H3043 0.930 . S
C3051 C3052 1.355 . S
C3051 C3053 1.415 . S
C3052 C3051 1.355 . S
C3052 C3054 1.419 . S
C3053 C3048 1.425 . S
C3053 C3050 1.409 . S
C3053 C3051 1.415 . S
C3054 H3044 0.930 . S
C3054 C3052 1.419 . S
C3054 C3055 1.362 . S
C3055 H3045 0.930 . S
C3055 C3048 1.409 . S
C3055 C3054 1.362 . S
H3056 C3062 0.930 . S
H3057 C3065 0.930 . S
H3058 C3066 0.930 . S
H3059 C3067 0.930 . S
H3060 C3070 0.930 . S
H3061 C3071 0.930 . S
C3062 H3056 0.930 . S
C3062 C3063 1.355 . S
C3062 C3064 1.415 . S
C3063 C3062 1.355 . S
C3063 C3065 1.419 . S
C3064 C3062 1.415 . S
C3064 C3069 1.425 . S
C3064 C3071 1.409 . S
C3065 H3057 0.930 . S
C3065 C3063 1.419 . S
C3065 C3066 1.362 . S
C3066 H3058 0.930 . S
C3066 C3065 1.362 . S
C3066 C3069 1.409 . S
C3067 H3059 0.930 . S
C3067 C3068 1.355 . S
C3067 C3069 1.415 . S
C3068 C3067 1.355 . S
C3068 C3070 1.419 . S
C3069 C3064 1.425 . S
C3069 C3066 1.409 . S
C3069 C3067 1.415 . S
C3070 H3060 0.930 . S
C3070 C3068 1.419 . S
C3070 C3071 1.362 . S
C3071 H3061 0.930 . S
C3071 C3064 1.409 . S
C3071 C3070 1.362 . S
H3072 C3078 0.930 . S
H3073 C3081 0.930 . S
H3074 C3082 0.930 . S
H3075 C3083 0.930 . S
H3076 C3086 0.930 . S
H3077 C3087 0.930 . S
C3078 H3072 0.930 . S
C3078 C3079 1.355 . S
C3078 C3080 1.415 . S
C3079 C3078 1.355 . S
C3079 C3081 1.419 . S
C3080 C3078 1.415 . S
C3080 C3085 1.425 . S
C3080 C3087 1.409 . S
C3081 H3073 0.930 . S
C3081 C3079 1.419 . S
C3081 C3082 1.362 . S
C3082 H3074 0.930 . S
C3082 C3081 1.362 . S
C3082 C3085 1.409 . S
C3083 H3075 0.930 . S
C3083 C3084 1.355 . S
C3083 C3085 1.415 . S
C3084 C3083 1.355 . S
C3084 C3086 1.419 . S
C3085 C3080 1.425 . S
C3085 C3082 1.409 . S
C3085 C3083 1.415 . S
C3086 H3076 0.930 . S
C3086 C3084 1.419 . S
C3086 C3087 1.362 . S
C3087 H3077 0.930 . S
C3087 C3080 1.409 . S
C3087 C3086 1.362 . S
H3088 C3094 0.930 . S
H3089 C3097 0.930 . S
H3090 C3098 0.930 . S
H3091 C3099 0.930 . S
H3092 C3102 0.930 . S
H3093 C3103 0.930 . S
C3094 H3088 0.930 . S
C3094 C3095 1.355 . S
C3094 C3096 1.415 . S
C3095 C3094 1.355 . S
C3095 C3097 1.419 . S
C3096 C3094 1.415 . S
C3096 C3101 1.425 . S
C3096 C3103 1.409 . S
C3097 H3089 0.930 . S
C3097 C3095 1.419 . S
C3097 C3098 1.362 . S
C3098 H3090 0.930 . S
C3098 C3097 1.362 . S
C3098 C3101 1.409 . S
C3099 H3091 0.930 . S
C3099 C3100 1.355 . S
C3099 C3101 1.415 . S
C3100 C3099 1.355 . S
C3100 C3102 1.419 . S
C3101 C3096 1.425 . S
C3101 C3098 1.409 . S
C3101 C3099 1.415 . S
C3102 H3092 0.930 . S
C3102 C3100 1.419 . S
C3102 C3103 1.362 . S
C3103 H3093 0.930 . S
C3103 C3096 1.409 . S
C3103 C3102 1.362 . S
H3104 C3110 0.930 . S
H3105 C3113 0.930 . S
H3106 C3114 0.930 . S
H3107 C3115 0.930 . S
H3108 C3118 0.930 . S
H3109 C3119 0.930 . S
C3110 H3104 0.930 . S
C3110 C3111 1.355 . S
C3110 C3112 1.415 . S
C3111 C3110 1.355 . S
C3111 C3113 1.419 . S
C3112 C3110 1.415 . S
C3112 C3117 1.425 . S
C3112 C3119 1.409 . S
C3113 H3105 0.930 . S
C3113 C3111 1.419 . S
C3113 C3114 1.362 . S
C3114 H3106 0.930 . S
C3114 C3113 1.362 . S
C3114 C3117 1.409 . S
C3115 H3107 0.930 . S
C3115 C3116 1.355 . S
C3115 C3117 1.415 . S
C3116 C3115 1.355 . S
C3116 C3118 1.419 . S
C3117 C3112 1.425 . S
C3117 C3114 1.409 . S
C3117 C3115 1.415 . S
C3118 H3108 0.930 . S
C3118 C3116 1.419 . S
C3118 C3119 1.362 . S
C3119 H3109 0.930 . S
C3119 C3112 1.409 . S
C3119 C3118 1.362 . S
H3120 C3126 0.930 . S
H3121 C3129 0.930 . S
H3122 C3130 0.930 . S
H3123 C3131 0.930 . S
H3124 C3134 0.930 . S
H3125 C3135 0.930 . S
C3126 H3120 0.930 . S
C3126 C3127 1.355 . S
C3126 C3128 1.415 . S
C3127 C3126 1.355 . S
C3127 C3129 1.419 . S
C3128 C3126 1.415 . S
C3128 C3133 1.425 . S
C3128 C3135 1.409 . S
C3129 H3121 0.930 . S
C3129 C3127 1.419 . S
C3129 C3130 1.362 . S
C3130 H3122 0.930 . S
C3130 C3129 1.362 . S
C3130 C3133 1.409 . S
C3131 H3123 0.930 . S
C3131 C3132 1.355 . S
C3131 C3133 1.415 . S
C3132 C3131 1.355 . S
C3132 C3134 1.419 . S
C3133 C3128 1.425 . S
C3133 C3130 1.409 . S
C3133 C3131 1.415 . S
C3134 H3124 0.930 . S
C3134 C3132 1.419 . S
C3134 C3135 1.362 . S
C3135 H3125 0.930 . S
C3135 C3128 1.409 . S
C3135 C3134 1.362 . S
H3136 C3142 0.930 . S
H3137 C3145 0.930 . S
H3138 C3146 0.930 . S
H3139 C3147 0.930 . S
H3140 C3150 0.930 . S
H3141 C3151 0.930 . S
C3142 H3136 0.930 . S
C3142 C3143 1.355 . S
C3142 C3144 1.415 . S
C3143 C3142 1.355 . S
C3143 C3145 1.419 . S
C3144 C3142 1.415 . S
C3144 C3149 1.425 . S
C3144 C3151 1.409 . S
C3145 H3137 0.930 . S
C3145 C3143 1.419 . S
C3145 C3146 1.362 . S
C3146 H3138 0.930 . S
C3146 C3145 1.362 . S
C3146 C3149 1.409 . S
C3147 H3139 0.930 . S
C3147 C3148 1.355 . S
C3147 C3149 1.415 . S
C3148 C3147 1.355 . S
C3148 C3150 1.419 . S
C3149 C3144 1.425 . S
C3149 C3146 1.409 . S
C3149 C3147 1.415 . S
C3150 H3140 0.930 . S
C3150 C3148 1.419 . S
C3150 C3151 1.362 . S
C3151 H3141 0.930 . S
C3151 C3144 1.409 . S
C3151 C3150 1.362 . S
H3152 C3158 0.930 . S
H3153 C3161 0.930 . S
H3154 C3162 0.930 . S
H3155 C3163 0.930 . S
H3156 C3166 0.930 . S
H3157 C3167 0.930 . S
C3158 H3152 0.930 . S
C3158 C3159 1.355 . S
C3158 C3160 1.415 . S
C3159 C3158 1.355 . S
C3159 C3161 1.419 . S
C3160 C3158 1.415 . S
C3160 C3165 1.425 . S
C3160 C3167 1.409 . S
C3161 H3153 0.930 . S
C3161 C3159 1.419 . S
C3161 C3162 1.362 . S
C3162 H3154 0.930 . S
C3162 C3161 1.362 . S
C3162 C3165 1.409 . S
C3163 H3155 0.930 . S
C3163 C3164 1.355 . S
C3163 C3165 1.415 . S
C3164 C3163 1.355 . S
C3164 C3166 1.419 . S
C3165 C3160 1.425 . S
C3165 C3162 1.409 . S
C3165 C3163 1.415 . S
C3166 H3156 0.930 . S
C3166 C3164 1.419 . S
C3166 C3167 1.362 . S
C3167 H3157 0.930 . S
C3167 C3160 1.409 . S
C3167 C3166 1.362 . S
H3168 C3174 0.930 . S
H3169 C3177 0.930 . S
H3170 C3178 0.930 . S
H3171 C3179 0.930 . S
H3172 C3182 0.930 . S
H3173 C3183 0.930 . S
C3174 H3168 0.930 . S
C3174 C3175 1.355 . S
C3174 C3176 1.415 . S
C3175 C3174 1.355 . S
C3175 C3177 1.419 . S
C3176 C3174 1.415 . S
C3176 C3181 1.425 . S
C3176 C3183 1.409 . S
C3177 H3169 0.930 . S
C3177 C3175 1.419 . S
C3177 C3178 1.362 . S
C3178 H3170 0.930 . S
C3178 C3177 1.362 . S
C3178 C3181 1.409 . S
C3179 H3171 0.930 . S
C3179 C3180 1.355 . S
C3179 C3181 1.415 . S
C3180 C3179 1.355 . S
C3180 C3182 1.419 . S
C3181 C3176 1.425 . S
C3181 C3178 1.409 . S
C3181 C3179 1.415 . S
C3182 H3172 0.930 . S
C3182 C3180 1.419 . S
C3182 C3183 1.362 . S
C3183 H3173 0.930 . S
C3183 C3176 1.409 . S
C3183 C3182 1.362 . S
H3184 C3190 0.930 . S
H3185 C3193 0.930 . S
H3186 C3194 0.930 . S
H3187 C3195 0.930 . S
H3188 C3198 0.930 . S
H3189 C3199 0.930 . S
C3190 H3184 0.930 . S
C3190 C3191 1.355 . S
C3190 C3192 1.415 . S
C3191 C3190 1.355 . S
C3191 C3193 1.419 . S
C3192 C3190 1.415 . S
C3192 C3197 1.425 . S
C3192 C3199 1.409 . S
C3193 H3185 0.930 . S
C3193 C3191 1.419 . S
C3193 C3194 1.362 . S
C3194 H3186 0.930 . S
C3194 C3193 1.362 . S
C3194 C3197 1.409 . S
C3195 H3187 0.930 . S
C3195 C3196 1.355 . S
C3195 C3197 1.415 . S
C3196 C3195 1.355 . S
C3196 C3198 1.419 . S
C3197 C3192 1.425 . S
C3197 C3194 1.409 . S
C3197 C3195 1.415 . S
C3198 H3188 0.930 . S
C3198 C3196 1.419 . S
C3198 C3199 1.362 . S
C3199 H3189 0.930 . S
C3199 C3192 1.409 . S
C3199 C3198 1.362 . S
H3200 C3206 0.930 . S
H3201 C3209 0.930 . S
H3202 C3210 0.930 . S
H3203 C3211 0.930 . S
H3204 C3214 0.930 . S
H3205 C3215 0.930 . S
C3206 H3200 0.930 . S
C3206 C3207 1.355 . S
C3206 C3208 1.415 . S
C3207 C3206 1.355 . S
C3207 C3209 1.419 . S
C3208 C3206 1.415 . S
C3208 C3213 1.425 . S
C3208 C3215 1.409 . S
C3209 H3201 0.930 . S
C3209 C3207 1.419 . S
C3209 C3210 1.362 . S
C3210 H3202 0.930 . S
C3210 C3209 1.362 . S
C3210 C3213 1.409 . S
C3211 H3203 0.930 . S
C3211 C3212 1.355 . S
C3211 C3213 1.415 . S
C3212 C3211 1.355 . S
C3212 C3214 1.419 . S
C3213 C3208 1.425 . S
C3213 C3210 1.409 . S
C3213 C3211 1.415 . S
C3214 H3204 0.930 . S
C3214 C3212 1.419 . S
C3214 C3215 1.362 . S
C3215 H3205 0.930 . S
C3215 C3208 1.409 . S
C3215 C3214 1.362 . S
H3216 C3222 0.930 . S
H3217 C3225 0.930 . S
H3218 C3226 0.930 . S
H3219 C3227 0.930 . S
H3220 C3230 0.930 . S
H3221 C3231 0.930 . S
C3222 H3216 0.930 . S
C3222 C3223 1.355 . S
C3222 C3224 1.415 . S
C3223 C3222 1.355 . S
C3223 C3225 1.419 . S
C3224 C3222 1.415 . S
C3224 C3229 1.425 . S
C3224 C3231 1.409 . S
C3225 H3217 0.930 . S
C3225 C3223 1.419 . S
C3225 C3226 1.362 . S
C3226 H3218 0.930 . S
C3226 C3225 1.362 . S
C3226 C3229 1.409 . S
C3227 H3219 0.930 . S
C3227 C3228 1.355 . S
C3227 C3229 1.415 . S
C3228 C3227 1.355 . S
C3228 C3230 1.419 . S
C3229 C3224 1.425 . S
C3229 C3226 1.409 . S
C3229 C3227 1.415 . S
C3230 H3220 0.930 . S
C3230 C3228 1.419 . S
C3230 C3231 1.362 . S
C3231 H3221 0.930 . S
C3231 C3224 1.409 . S
C3231 C3230 1.362 . S
H3232 C3238 0.930 . S
H3233 C3241 0.930 . S
H3234 C3242 0.930 . S
H3235 C3243 0.930 . S
H3236 C3246 0.930 . S
H3237 C3247 0.930 . S
C3238 H3232 0.930 . S
C3238 C3239 1.355 . S
C3238 C3240 1.415 . S
C3239 C3238 1.355 . S
C3239 C3241 1.419 . S
C3240 C3238 1.415 . S
C3240 C3245 1.425 . S
C3240 C3247 1.409 . S
C3241 H3233 0.930 . S
C3241 C3239 1.419 . S
C3241 C3242 1.362 . S
C3242 H3234 0.930 . S
C3242 C3241 1.362 . S
C3242 C3245 1.409 . S
C3243 H3235 0.930 . S
C3243 C3244 1.355 . S
C3243 C3245 1.415 . S
C3244 C3243 1.355 . S
C3244 C3246 1.419 . S
C3245 C3240 1.425 . S
C3245 C3242 1.409 . S
C3245 C3243 1.415 . S
C3246 H3236 0.930 . S
C3246 C3244 1.419 . S
C3246 C3247 1.362 . S
C3247 H3237 0.930 . S
C3247 C3240 1.409 . S
C3247 C3246 1.362 . S
H3248 C3254 0.930 . S
H3249 C3257 0.930 . S
H3250 C3258 0.930 . S
H3251 C3259 0.930 . S
H3252 C3262 0.930 . S
H3253 C3263 0.930 . S
C3254 H3248 0.930 . S
C3254 C3255 1.355 . S
C3254 C3256 1.415 . S
C3255 C3254 1.355 . S
C3255 C3257 1.419 . S
C3256 C3254 1.415 . S
C3256 C3261 1.425 . S
C3256 C3263 1.409 . S
C3257 H3249 0.930 . S
C3257 C3255 1.419 . S
C3257 C3258 1.362 . S
C3258 H3250 0.930 . S
C3258 C3257 1.362 . S
C3258 C3261 1.409 . S
C3259 H3251 0.930 . S
C3259 C3260 1.355 . S
C3259 C3261 1.415 . S
C3260 C3259 1.355 . S
C3260 C3262 1.419 . S
C3261 C3256 1.425 . S
C3261 C3258 1.409 . S
C3261 C3259 1.415 . S
C3262 H3252 0.930 . S
C3262 C3260 1.419 . S
C3262 C3263 1.362 . S
C3263 H3253 0.930 . S
C3263 C3256 1.409 . S
C3263 C3262 1.362 . S
H3264 C3270 0.930 . S
H3265 C3273 0.930 . S
H3266 C3274 0.930 . S
H3267 C3275 0.930 . S
H3268 C3278 0.930 . S
H3269 C3279 0.930 . S
C3270 H3264 0.930 . S
C3270 C3271 1.355 . S
C3270 C3272 1.415 . S
C3271 C3270 1.355 . S
C3271 C3273 1.419 . S
C3272 C3270 1.415 . S
C3272 C3277 1.425 . S
C3272 C3279 1.409 . S
C3273 H3265 0.930 . S
C3273 C3271 1.419 . S
C3273 C3274 1.362 . S
C3274 H3266 0.930 . S
C3274 C3273 1.362 . S
C3274 C3277 1.409 . S
C3275 H3267 0.930 . S
C3275 C3276 1.355 . S
C3275 C3277 1.415 . S
C3276 C3275 1.355 . S
C3276 C3278 1.419 . S
C3277 C3272 1.425 . S
C3277 C3274 1.409 . S
C3277 C3275 1.415 . S
C3278 H3268 0.930 . S
C3278 C3276 1.419 . S
C3278 C3279 1.362 . S
C3279 H3269 0.930 . S
C3279 C3272 1.409 . S
C3279 C3278 1.362 . S
H3280 C3286 0.930 . S
H3281 C3289 0.930 . S
H3282 C3290 0.930 . S
H3283 C3291 0.930 . S
H3284 C3294 0.930 . S
H3285 C3295 0.930 . S
C3286 H3280 0.930 . S
C3286 C3287 1.355 . S
C3286 C3288 1.415 . S
C3287 C3286 1.355 . S
C3287 C3289 1.419 . S
C3288 C3286 1.415 . S
C3288 C3293 1.425 . S
C3288 C3295 1.409 . S
C3289 H3281 0.930 . S
C3289 C3287 1.419 . S
C3289 C3290 1.362 . S
C3290 H3282 0.930 . S
C3290 C3289 1.362 . S
C3290 C3293 1.409 . S
C3291 H3283 0.930 . S
C3291 C3292 1.355 . S
C3291 C3293 1.415 . S
C3292 C3291 1.355 . S
C3292 C3294 1.419 . S
C3293 C3288 1.425 . S
C3293 C3290 1.409 . S
C3293 C3291 1.415 . S
C3294 H3284 0.930 . S
C3294 C3292 1.419 . S
C3294 C3295 1.362 . S
C3295 H3285 0.930 . S
C3295 C3288 1.409 . S
C3295 C3294 1.362 . S
H3296 C3302 0.930 . S
H3297 C3305 0.930 . S
H3298 C3306 0.930 . S
H3299 C3307 0.930 . S
H3300 C3310 0.930 . S
H3301 C3311 0.930 . S
C3302 H3296 0.930 . S
C3302 C3303 1.355 . S
C3302 C3304 1.415 . S
C3303 C3302 1.355 . S
C3303 C3305 1.419 . S
C3304 C3302 1.415 . S
C3304 C3309 1.425 . S
C3304 C3311 1.409 . S
C3305 H3297 0.930 . S
C3305 C3303 1.419 . S
C3305 C3306 1.362 . S
C3306 H3298 0.930 . S
C3306 C3305 1.362 . S
C3306 C3309 1.409 . S
C3307 H3299 0.930 . S
C3307 C3308 1.355 . S
C3307 C3309 1.415 . S
C3308 C3307 1.355 . S
C3308 C3310 1.419 . S
C3309 C3304 1.425 . S
C3309 C3306 1.409 . S
C3309 C3307 1.415 . S
C3310 H3300 0.930 . S
C3310 C3308 1.419 . S
C3310 C3311 1.362 . S
C3311 H3301 0.930 . S
C3311 C3304 1.409 . S
C3311 C3310 1.362 . S
H3312 C3318 0.930 . S
H3313 C3321 0.930 . S
H3314 C3322 0.930 . S
H3315 C3323 0.930 . S
H3316 C3326 0.930 . S
H3317 C3327 0.930 . S
C3318 H3312 0.930 . S
C3318 C3319 1.355 . S
C3318 C3320 1.415 . S
C3319 C3318 1.355 . S
C3319 C3321 1.419 . S
C3320 C3318 1.415 . S
C3320 C3325 1.425 . S
C3320 C3327 1.409 . S
C3321 H3313 0.930 . S
C3321 C3319 1.419 . S
C3321 C3322 1.362 . S
C3322 H3314 0.930 . S
C3322 C3321 1.362 . S
C3322 C3325 1.409 . S
C3323 H3315 0.930 . S
C3323 C3324 1.355 . S
C3323 C3325 1.415 . S
C3324 C3323 1.355 . S
C3324 C3326 1.419 . S
C3325 C3320 1.425 . S
C3325 C3322 1.409 . S
C3325 C3323 1.415 . S
C3326 H3316 0.930 . S
C3326 C3324 1.419 . S
C3326 C3327 1.362 . S
C3327 H3317 0.930 . S
C3327 C3320 1.409 . S
C3327 C3326 1.362 . S
H3328 C3334 0.930 . S
H3329 C3337 0.930 . S
H3330 C3338 0.930 . S
H3331 C3339 0.930 . S
H3332 C3342 0.930 . S
H3333 C3343 0.930 . S
C3334 H3328 0.930 . S
C3334 C3335 1.355 . S
C3334 C3336 1.415 . S
C3335 C3334 1.355 . S
C3335 C3337 1.419 . S
C3336 C3334 1.415 . S
C3336 C3341 1.425 . S
C3336 C3343 1.409 . S
C3337 H3329 0.930 . S
C3337 C3335 1.419 . S
C3337 C3338 1.362 . S
C3338 H3330 0.930 . S
C3338 C3337 1.362 . S
C3338 C3341 1.409 . S
C3339 H3331 0.930 . S
C3339 C3340 1.355 . S
C3339 C3341 1.415 . S
C3340 C3339 1.355 . S
C3340 C3342 1.419 . S
C3341 C3336 1.425 . S
C3341 C3338 1.409 . S
C3341 C3339 1.415 . S
C3342 H3332 0.930 . S
C3342 C3340 1.419 . S
C3342 C3343 1.362 . S
C3343 H3333 0.930 . S
C3343 C3336 1.409 . S
C3343 C3342 1.362 . S
H3344 C3350 0.930 . S
H3345 C3353 0.930 . S
H3346 C3354 0.930 . S
H3347 C3355 0.930 . S
H3348 C3358 0.930 . S
H3349 C3359 0.930 . S
C3350 H3344 0.930 . S
C3350 C3351 1.355 . S
C3350 C3352 1.415 . S
C3351 C3350 1.355 . S
C3351 C3353 1.419 . S
C3352 C3350 1.415 . S
C3352 C3357 1.425 . S
C3352 C3359 1.409 . S
C3353 H3345 0.930 . S
C3353 C3351 1.419 . S
C3353 C3354 1.362 . S
C3354 H3346 0.930 . S
C3354 C3353 1.362 . S
C3354 C3357 1.409 . S
C3355 H3347 0.930 . S
C3355 C3356 1.355 . S
C3355 C3357 1.415 . S
C3356 C3355 1.355 . S
C3356 C3358 1.419 . S
C3357 C3352 1.425 . S
C3357 C3354 1.409 . S
C3357 C3355 1.415 . S
C3358 H3348 0.930 . S
C3358 C3356 1.419 . S
C3358 C3359 1.362 . S
C3359 H3349 0.930 . S
C3359 C3352 1.409 . S
C3359 C3358 1.362 . S
H3360 C3366 0.930 . S
H3361 C3369 0.930 . S
H3362 C3370 0.930 . S
H3363 C3371 0.930 . S
H3364 C3374 0.930 . S
H3365 C3375 0.930 . S
C3366 H3360 0.930 . S
C3366 C3367 1.355 . S
C3366 C3368 1.415 . S
C3367 C3366 1.355 . S
C3367 C3369 1.419 . S
C3368 C3366 1.415 . S
C3368 C3373 1.425 . S
C3368 C3375 1.409 . S
C3369 H3361 0.930 . S
C3369 C3367 1.419 . S
C3369 C3370 1.362 . S
C3370 H3362 0.930 . S
C3370 C3369 1.362 . S
C3370 C3373 1.409 . S
C3371 H3363 0.930 . S
C3371 C3372 1.355 . S
C3371 C3373 1.415 . S
C3372 C3371 1.355 . S
C3372 C3374 1.419 . S
C3373 C3368 1.425 . S
C3373 C3370 1.409 . S
C3373 C3371 1.415 . S
C3374 H3364 0.930 . S
C3374 C3372 1.419 . S
C3374 C3375 1.362 . S
C3375 H3365 0.930 . S
C3375 C3368 1.409 . S
C3375 C3374 1.362 . S
H3376 C3382 0.932 . S
H3377 C3385 0.930 . S
H3378 C3386 0.930 . S
H3379 C3387 0.930 . S
H3380 C3390 0.930 . S
H3381 C3391 0.930 . S
C3382 H3376 0.932 . S
C3382 C3383 1.352 1_556 S
C3382 C3384 1.415 . S
C3383 C3382 1.352 1_554 S
C3383 C3385 1.417 1_554 S
C3384 C3382 1.415 . S
C3384 C3389 1.425 . S
C3384 C3391 1.409 . S
C3385 H3377 0.930 . S
C3385 C3383 1.417 1_556 S
C3385 C3386 1.362 . S
C3386 H3378 0.930 . S
C3386 C3385 1.362 . S
C3386 C3389 1.409 . S
C3387 H3379 0.930 . S
C3387 C3388 1.355 . S
C3387 C3389 1.415 . S
C3388 C3387 1.355 . S
C3388 C3390 1.419 . S
C3389 C3384 1.425 . S
C3389 C3386 1.409 . S
C3389 C3387 1.415 . S
C3390 H3380 0.930 . S
C3390 C3388 1.419 . S
C3390 C3391 1.362 . S
C3391 H3381 0.930 . S
C3391 C3384 1.409 . S
C3391 C3390 1.362 . S
H3392 C3398 0.930 . S
H3393 C3401 0.930 . S
H3394 C3402 0.930 . S
H3395 C3403 0.930 . S
H3396 C3406 0.930 . S
H3397 C3407 0.930 . S
C3398 H3392 0.930 . S
C3398 C3399 1.355 . S
C3398 C3400 1.415 . S
C3399 C3398 1.355 . S
C3399 C3401 1.419 . S
C3400 C3398 1.415 . S
C3400 C3405 1.425 . S
C3400 C3407 1.409 . S
C3401 H3393 0.930 . S
C3401 C3399 1.419 . S
C3401 C3402 1.362 . S
C3402 H3394 0.930 . S
C3402 C3401 1.362 . S
C3402 C3405 1.409 . S
C3403 H3395 0.930 . S
C3403 C3404 1.355 . S
C3403 C3405 1.415 . S
C3404 C3403 1.355 . S
C3404 C3406 1.419 . S
C3405 C3400 1.425 . S
C3405 C3402 1.409 . S
C3405 C3403 1.415 . S
C3406 H3396 0.930 . S
C3406 C3404 1.419 . S
C3406 C3407 1.362 . S
C3407 H3397 0.930 . S
C3407 C3400 1.409 . S
C3407 C3406 1.362 . S
H3408 C3414 0.930 . S
H3409 C3417 0.930 . S
H3410 C3418 0.930 . S
H3411 C3419 0.930 . S
H3412 C3422 0.930 . S
H3413 C3423 0.930 . S
C3414 H3408 0.930 . S
C3414 C3415 1.355 . S
C3414 C3416 1.415 . S
C3415 C3414 1.355 . S
C3415 C3417 1.419 . S
C3416 C3414 1.415 . S
C3416 C3421 1.425 . S
C3416 C3423 1.409 . S
C3417 H3409 0.930 . S
C3417 C3415 1.419 . S
C3417 C3418 1.362 . S
C3418 H3410 0.930 . S
C3418 C3417 1.362 . S
C3418 C3421 1.409 . S
C3419 H3411 0.930 . S
C3419 C3420 1.355 . S
C3419 C3421 1.415 . S
C3420 C3419 1.355 . S
C3420 C3422 1.419 . S
C3421 C3416 1.425 . S
C3421 C3418 1.409 . S
C3421 C3419 1.415 . S
C3422 H3412 0.930 . S
C3422 C3420 1.419 . S
C3422 C3423 1.362 . S
C3423 H3413 0.930 . S
C3423 C3416 1.409 . S
C3423 C3422 1.362 . S
H3424 C3430 0.930 . S
H3425 C3433 0.930 . S
H3426 C3434 0.930 . S
H3427 C3435 0.930 . S
H3428 C3438 0.930 . S
H3429 C3439 0.930 . S
C3430 H3424 0.930 . S
C3430 C3431 1.355 . S
C3430 C3432 1.415 . S
C3431 C3430 1.355 . S
C3431 C3433 1.419 . S
C3432 C3430 1.415 . S
C3432 C3437 1.425 . S
C3432 C3439 1.409 . S
C3433 H3425 0.930 . S
C3433 C3431 1.419 . S
C3433 C3434 1.362 . S
C3434 H3426 0.930 . S
C3434 C3433 1.362 . S
C3434 C3437 1.409 . S
C3435 H3427 0.930 . S
C3435 C3436 1.355 . S
C3435 C3437 1.415 . S
C3436 C3435 1.355 . S
C3436 C3438 1.419 . S
C3437 C3432 1.425 . S
C3437 C3434 1.409 . S
C3437 C3435 1.415 . S
C3438 H3428 0.930 . S
C3438 C3436 1.419 . S
C3438 C3439 1.362 . S
C3439 H3429 0.930 . S
C3439 C3432 1.409 . S
C3439 C3438 1.362 . S
H3440 C3446 0.930 . S
H3441 C3449 0.930 . S
H3442 C3450 0.930 . S
H3443 C3451 0.930 . S
H3444 C3454 0.930 . S
H3445 C3455 0.930 . S
C3446 H3440 0.930 . S
C3446 C3447 1.393 . S
C3446 C3448 1.415 . S
C3447 C3446 1.393 . S
C3447 C3449 1.411 1_556 S
C3448 C3446 1.415 . S
C3448 C3453 1.425 . S
C3448 C3455 1.409 . S
C3449 H3441 0.930 . S
C3449 C3447 1.411 1_554 S
C3449 C3450 1.362 1_554 S
C3450 H3442 0.930 . S
C3450 C3449 1.362 1_556 S
C3450 C3453 1.409 . S
C3451 H3443 0.930 . S
C3451 C3452 1.355 . S
C3451 C3453 1.415 . S
C3452 C3451 1.355 . S
C3452 C3454 1.419 . S
C3453 C3448 1.425 . S
C3453 C3450 1.409 . S
C3453 C3451 1.415 . S
C3454 H3444 0.930 . S
C3454 C3452 1.419 . S
C3454 C3455 1.362 . S
C3455 H3445 0.930 . S
C3455 C3448 1.409 . S
C3455 C3454 1.362 . S
H3456 C3462 0.930 . S
H3457 C3465 0.930 . S
H3458 C3466 0.930 . S
H3459 C3467 0.930 . S
H3460 C3470 0.930 . S
H3461 C3471 0.930 . S
C3462 H3456 0.930 . S
C3462 C3463 1.355 . S
C3462 C3464 1.415 . S
C3463 C3462 1.355 . S
C3463 C3465 1.419 . S
C3464 C3462 1.415 . S
C3464 C3469 1.425 . S
C3464 C3471 1.409 . S
C3465 H3457 0.930 . S
C3465 C3463 1.419 . S
C3465 C3466 1.362 . S
C3466 H3458 0.930 . S
C3466 C3465 1.362 . S
C3466 C3469 1.409 . S
C3467 H3459 0.930 . S
C3467 C3468 1.355 . S
C3467 C3469 1.415 1_554 S
C3468 C3467 1.355 . S
C3468 C3470 1.419 . S
C3469 C3464 1.425 . S
C3469 C3466 1.409 . S
C3469 C3467 1.415 1_556 S
C3470 H3460 0.930 . S
C3470 C3468 1.419 . S
C3470 C3471 1.362 1_554 S
C3471 H3461 0.930 . S
C3471 C3464 1.409 . S
C3471 C3470 1.362 1_556 S
H3472 C3478 0.930 . S
H3473 C3481 0.930 . S
H3474 C3482 0.930 . S
H3475 C3483 0.930 . S
H3476 C3486 0.930 . S
H3477 C3487 0.930 . S
C3478 H3472 0.930 . S
C3478 C3479 1.355 1_556 S
C3478 C3480 1.415 . S
C3479 C3478 1.355 1_554 S
C3479 C3481 1.419 . S
C3480 C3478 1.415 . S
C3480 C3485 1.425 . S
C3480 C3487 1.409 . S
C3481 H3473 0.930 . S
C3481 C3479 1.419 . S
C3481 C3482 1.362 . S
C3482 H3474 0.930 . S
C3482 C3481 1.362 . S
C3482 C3485 1.409 1_554 S
C3483 H3475 0.930 . S
C3483 C3484 1.355 . S
C3483 C3485 1.415 . S
C3484 C3483 1.355 . S
C3484 C3486 1.419 . S
C3485 C3480 1.425 . S
C3485 C3482 1.409 1_556 S
C3485 C3483 1.415 . S
C3486 H3476 0.930 . S
C3486 C3484 1.419 . S
C3486 C3487 1.362 . S
C3487 H3477 0.930 . S
C3487 C3480 1.409 . S
C3487 C3486 1.362 . S
H3488 C3494 0.930 . S
H3489 C3497 0.930 . S
H3490 C3498 0.930 . S
H3491 C3499 0.930 . S
H3492 C3502 0.930 1_554 S
H3493 C3503 0.930 . S
C3494 H3488 0.930 . S
C3494 C3495 1.355 . S
C3494 C3496 1.415 . S
C3495 C3494 1.355 . S
C3495 C3497 1.419 . S
C3496 C3494 1.415 . S
C3496 C3501 1.425 . S
C3496 C3503 1.409 . S
C3497 H3489 0.930 . S
C3497 C3495 1.419 . S
C3497 C3498 1.362 . S
C3498 H3490 0.930 . S
C3498 C3497 1.362 . S
C3498 C3501 1.409 . S
C3499 H3491 0.930 . S
C3499 C3500 1.355 . S
C3499 C3501 1.415 . S
C3500 C3499 1.355 . S
C3500 C3502 1.419 . S
C3501 C3496 1.425 . S
C3501 C3498 1.409 . S
C3501 C3499 1.415 . S
C3502 H3492 0.930 1_556 S
C3502 C3500 1.419 . S
C3502 C3503 1.362 . S
C3503 H3493 0.930 . S
C3503 C3496 1.409 . S
C3503 C3502 1.362 . S
H3504 C3510 0.930 . S
H3505 C3513 0.930 . S
H3506 C3514 0.930 . S
H3507 C3515 0.930 . S
H3508 C3518 0.930 . S
H3509 C3519 0.930 . S
C3510 H3504 0.930 . S
C3510 C3511 1.355 . S
C3510 C3512 1.415 . S
C3511 C3510 1.355 . S
C3511 C3513 1.419 . S
C3512 C3510 1.415 . S
C3512 C3517 1.425 . S
C3512 C3519 1.409 . S
C3513 H3505 0.930 . S
C3513 C3511 1.419 . S
C3513 C3514 1.362 . S
C3514 H3506 0.930 . S
C3514 C3513 1.362 . S
C3514 C3517 1.409 . S
C3515 H3507 0.930 . S
C3515 C3516 1.355 . S
C3515 C3517 1.415 . S
C3516 C3515 1.355 . S
C3516 C3518 1.419 . S
C3517 C3512 1.425 . S
C3517 C3514 1.409 . S
C3517 C3515 1.415 . S
C3518 H3508 0.930 . S
C3518 C3516 1.419 . S
C3518 C3519 1.362 . S
C3519 H3509 0.930 . S
C3519 C3512 1.409 . S
C3519 C3518 1.362 . S
H3520 C3526 0.930 . S
H3521 C3529 0.930 . S
H3522 C3530 0.930 . S
H3523 C3531 0.930 . S
H3524 C3534 0.930 . S
H3525 C3535 0.930 . S
C3526 H3520 0.930 . S
C3526 C3527 1.355 . S
C3526 C3528 1.415 . S
C3527 C3526 1.355 . S
C3527 C3529 1.419 . S
C3528 C3526 1.415 . S
C3528 C3533 1.425 . S
C3528 C3535 1.409 . S
C3529 H3521 0.930 . S
C3529 C3527 1.419 . S
C3529 C3530 1.362 . S
C3530 H3522 0.930 . S
C3530 C3529 1.362 . S
C3530 C3533 1.409 . S
C3531 H3523 0.930 . S
C3531 C3532 1.355 . S
C3531 C3533 1.415 . S
C3532 C3531 1.355 . S
C3532 C3534 1.419 . S
C3533 C3528 1.425 . S
C3533 C3530 1.409 . S
C3533 C3531 1.415 . S
C3534 H3524 0.930 . S
C3534 C3532 1.419 . S
C3534 C3535 1.362 . S
C3535 H3525 0.930 . S
C3535 C3528 1.409 . S
C3535 C3534 1.362 . S
H3536 C3542 0.930 . S
H3537 C3545 0.930 . S
H3538 C3546 0.930 . S
H3539 C3547 0.930 . S
H3540 C3550 0.930 . S
H3541 C3551 0.930 . S
C3542 H3536 0.930 . S
C3542 C3543 1.355 . S
C3542 C3544 1.415 . S
C3543 C3542 1.355 . S
C3543 C3545 1.419 . S
C3544 C3542 1.415 . S
C3544 C3549 1.425 . S
C3544 C3551 1.409 . S
C3545 H3537 0.930 . S
C3545 C3543 1.419 . S
C3545 C3546 1.362 . S
C3546 H3538 0.930 . S
C3546 C3545 1.362 . S
C3546 C3549 1.409 . S
C3547 H3539 0.930 . S
C3547 C3548 1.355 . S
C3547 C3549 1.415 . S
C3548 C3547 1.355 . S
C3548 C3550 1.419 . S
C3549 C3544 1.425 . S
C3549 C3546 1.409 . S
C3549 C3547 1.415 . S
C3550 H3540 0.930 . S
C3550 C3548 1.419 . S
C3550 C3551 1.362 . S
C3551 H3541 0.930 . S
C3551 C3544 1.409 . S
C3551 C3550 1.362 . S
C1639 C577 0.094 . S
C1644 C33 0.210 . S
C1655 C67 0.426 . S
C1660 C1019 0.397 . S
C1671 C645 1.165 . S
C1676 C101 1.138 . S
C1687 C1087 0.257 . S
C1692 C135 0.259 . S
C1703 C169 0.695 . S
C1708 C441 0.738 . S
C1719 C883 0.637 . S
C1724 C203 0.677 . S
C1735 C509 0.573 . S
C1740 C237 0.633 . S
C1751 C271 0.217 . S
C1756 C951 0.198 . S
C1767 C305 0.166 . S
C1772 C1631 0.134 . S
C1783 C339 0.573 . S
C1788 C1597 0.583 . S
C1799 C373 0.585 . S
C1804 C1563 0.601 . S
C1815 C1529 0.437 . S
C1820 C407 0.399 . S
C1831 C1427 0.592 . S
C1836 C475 0.579 . S
C1847 C543 0.188 . S
C1852 C1495 0.202 . S
C1863 C1291 0.754 . S
C1868 C611 0.732 . S
C1879 C679 0.210 . S
C1884 C1359 0.203 . S
C1895 C713 0.389 . S
C1900 C1223 0.337 . S
C1911 C1189 0.628 . S
C1916 C747 0.627 . S
C1927 C1155 0.636 . S
C1932 C781 0.650 . S
C1943 C815 0.032 . S
C1948 C1121 0.066 . S
C1959 C849 0.232 . S
C1964 C1393 0.072 . S
C1975 C917 1.142 . S
C1980 C1461 1.128 . S
C1991 C985 0.702 . S
C1996 C1257 0.811 . S
C2007 C1053 0.676 . S
C2012 C1325 0.709 . S
C2023 C111 1.524 . S
C2028 C20 1.572 . S
C2039 C36 1.871 . S
C2044 C5 1.648 . S
C2055 C43 1.873 . S
C2060 C70 1.882 1_655 S
C2071 C104 1.733 1_565 S
C2076 C77 1.736 . S
C2087 C156 1.490 . S
C2092 C179 1.451 . S
C2103 C213 1.734 . S
C2108 C172 1.804 . S
C2119 C206 2.027 1_655 S
C2124 C243 1.837 . S
C2135 C258 1.627 1_565 S
C2140 C141 1.432 . S
C2151 C122 1.474 . S
C2156 C281 1.428 . S
C2167 C349 1.719 . S
C2172 C2 1.741 1_655 S
C2183 C379 1.456 . S
C2188 C54 1.591 . S
C2199 C311 1.624 . S
C2204 C88 1.785 . S
C2215 C315 1.640 . S
C2220 C190 1.691 . S
C2231 C277 1.685 1_556 S
C2236 C224 1.783 . S
C2247 C240 1.926 . S
C2252 C345 1.788 . S
C2263 C138 1.773 1_655 S
C2268 C383 1.697 . S
C2279 C9 1.400 . S
C2284 C292 1.425 . S
C2295 C145 1.364 . S
C2300 C326 1.394 . S
C2311 C274 1.918 . S
C2316 C175 1.758 . S
C2327 C209 1.849 . S
C2332 C342 2.067 . S
C2343 C394 1.558 . S
C2348 C247 1.553 . S
C2359 C73 1.921 . S
C2364 C376 2.148 . S
C2375 C308 1.903 . S
C2380 C107 1.793 . S
C2391 C39 1.777 . S
C2396 C360 1.907 . S
C2407 C519 1.491 . S
C2412 C428 1.479 . S
C2423 C413 1.798 . S
C2428 C444 2.002 . S
C2439 C478 1.747 . S
C2444 C451 1.703 . S
C2455 C512 1.897 . S
C2460 C485 1.892 . S
C2471 C564 1.318 . S
C2476 C587 1.277 . S
C2487 C580 1.943 . S
C2492 C621 1.917 . S
C2503 C614 1.924 1_655 S
C2508 C651 1.796 . S
C2519 C549 1.712 . S
C2524 C666 1.766 . S
C2535 C689 1.489 . S
C2540 C530 1.532 . S
C2551 C757 1.534 . S
C2556 C410 1.537 . S
C2567 C462 1.729 . S
C2572 C787 1.563 . S
C2583 C723 1.408 . S
C2588 C496 1.417 . S
C2599 C719 1.835 . S
C2604 C598 1.952 . S
C2615 C632 1.663 . S
C2620 C685 1.521 . S
C2631 C753 1.934 . S
C2636 C648 2.116 . S
C2647 C791 1.620 . S
C2652 C546 1.657 . S
C2663 C700 1.508 . S
C2668 C417 1.483 . S
C2679 C553 1.826 . S
C2684 C716 1.829 . S
C2695 C682 1.961 . S
C2700 C583 1.765 . S
C2711 C750 2.266 . S
C2716 C617 2.025 . S
C2727 C802 1.441 . S
C2732 C655 1.428 . S
C2743 C784 2.130 . S
C2748 C481 1.971 . S
C2759 C515 1.388 . S
C2764 C734 1.547 . S
C2775 C768 1.817 . S
C2780 C447 1.586 . S
C2791 C836 1.652 . S
C2796 C927 1.613 . S
C2807 C852 1.770 . S
C2812 C821 1.661 . S
C2823 C886 1.993 . S
C2828 C859 1.953 . S
C2839 C893 1.660 . S
C2844 C920 1.682 . S
C2855 C972 1.548 . S
C2860 C995 1.504 . S
C2871 C988 1.733 . S
C2876 C1029 1.675 . S
C2887 C1022 2.104 . S
C2892 C1059 1.944 . S
C2903 C957 1.382 . S
C2908 C1074 1.508 . S
C2919 C938 1.414 . S
C2924 C1097 1.418 . S
C2935 C818 1.935 . S
C2940 C1161 1.797 . S
C2951 C1195 1.615 . S
C2956 C870 1.672 1_565 S
C2967 C1127 1.696 . S
C2972 C904 1.840 . S
C2983 C1131 1.536 . S
C2988 C1006 1.578 . S
C2999 C1093 1.601 . S
C3004 C1040 1.714 . S
C3015 C1165 1.739 . S
C3020 C1056 1.782 . S
C3031 C1199 1.734 . S
C3036 C954 1.801 . S
C3047 C1108 1.481 . S
C3052 C825 1.469 . S
C3063 C961 1.367 . S
C3068 C1142 1.359 . S
C3079 C1090 1.967 . S
C3084 C991 1.796 . S
C3095 C1025 1.656 . S
C3100 C1176 1.769 . S
C3111 C1210 1.515 . S
C3116 C1063 1.468 . S
C3127 C1192 2.080 . S
C3132 C889 1.845 . S
C3143 C1124 1.939 . S
C3148 C923 1.855 . S
C3159 C1158 2.226 . S
C3164 C855 2.005 . S
C3175 C1244 1.491 . S
C3180 C1335 1.459 . S
C3191 C1260 1.986 . S
C3196 C1229 1.750 . S
C3207 C1294 1.740 . S
C3212 C1267 1.711 . S
C3223 C1328 1.864 . S
C3228 C1301 1.830 . S
C3239 C1380 1.347 . S
C3244 C1403 1.314 . S
C3255 C1396 1.923 . S
C3260 C1437 1.859 . S
C3271 C1430 1.936 . S
C3276 C1467 1.805 . S
C3287 C1482 1.741 . S
C3292 C1365 1.575 . S
C3303 C1346 1.458 . S
C3308 C1505 1.454 . S
C3319 C1226 1.590 . S
C3324 C1573 1.570 . S
C3335 C1278 1.694 . S
C3340 C1603 1.619 . S
C3351 C1312 1.440 . S
C3356 C1539 1.421 . S
C3367 C1535 1.639 1_556 S
C3372 C1414 1.886 . S
C3383 C1501 1.530 . S
C3388 C1448 1.712 . S
C3399 C1464 2.060 . S
C3404 C1569 1.916 1_556 S
C3415 C1362 1.718 . S
C3420 C1607 1.658 . S
C3431 C1233 1.472 . S
C3436 C1516 1.515 . S
C3447 C1532 1.764 1_556 S
C3452 C1369 1.768 . S
C3463 C1399 1.788 . S
C3468 C1498 1.961 . S
C3479 C1566 2.236 . S
C3484 C1433 2.023 . S
C3495 C1471 1.398 . S
C3500 C1618 1.447 1_556 S
C3511 C1297 1.902 . S
C3516 C1600 2.106 . S
C3527 C1550 1.612 . S
C3532 C1331 1.549 . S
C3543 C1263 1.657 . S
C3548 C1584 1.880 . S
