# Generated by pormake.
# Topology ukt, (4)-cn, num edge types: 1
# Building blocks:
#     Node 0, Type 0, BuildingBlock: CEKHIL_clean_sbu_0, # of connection points: 4
#     Node 1, Type 0, BuildingBlock: CEKHIL_clean_sbu_0, # of connection points: 4
#     Node 2, Type 0, BuildingBlock: CEKHIL_clean_sbu_0, # of connection points: 4
#     Node 3, Type 0, BuildingBlock: CEKHIL_clean_sbu_0, # of connection points: 4
#     Node 4, Type 0, BuildingBlock: CEKHIL_clean_sbu_0, # of connection points: 4
#     Node 5, Type 0, BuildingBlock: CEKHIL_clean_sbu_0, # of connection points: 4
#     Node 6, Type 0, BuildingBlock: CEKHIL_clean_sbu_0, # of connection points: 4
#     Node 7, Type 0, BuildingBlock: CEKHIL_clean_sbu_0, # of connection points: 4
#     Node 8, Type 0, BuildingBlock: CEKHIL_clean_sbu_0, # of connection points: 4
#     Node 9, Type 0, BuildingBlock: CEKHIL_clean_sbu_0, # of connection points: 4
#     Node 10, Type 0, BuildingBlock: CEKHIL_clean_sbu_0, # of connection points: 4
#     Node 11, Type 0, BuildingBlock: CEKHIL_clean_sbu_0, # of connection points: 4
#     Node 12, Type 0, BuildingBlock: CEKHIL_clean_sbu_0, # of connection points: 4
#     Node 13, Type 0, BuildingBlock: CEKHIL_clean_sbu_0, # of connection points: 4
#     Node 14, Type 0, BuildingBlock: CEKHIL_clean_sbu_0, # of connection points: 4
#     Node 15, Type 0, BuildingBlock: CEKHIL_clean_sbu_0, # of connection points: 4
#     Edge 16, Type (0, 0), BuildingBlock: AJUNOK_clean_linker_0, # of connection points: 2
#     Edge 17, Type (0, 0), BuildingBlock: AJUNOK_clean_linker_0, # of connection points: 2
#     Edge 18, Type (0, 0), BuildingBlock: AJUNOK_clean_linker_0, # of connection points: 2
#     Edge 19, Type (0, 0), BuildingBlock: AJUNOK_clean_linker_0, # of connection points: 2
#     Edge 20, Type (0, 0), BuildingBlock: AJUNOK_clean_linker_0, # of connection points: 2
#     Edge 21, Type (0, 0), BuildingBlock: AJUNOK_clean_linker_0, # of connection points: 2
#     Edge 22, Type (0, 0), BuildingBlock: AJUNOK_clean_linker_0, # of connection points: 2
#     Edge 23, Type (0, 0), BuildingBlock: AJUNOK_clean_linker_0, # of connection points: 2
#     Edge 24, Type (0, 0), BuildingBlock: AJUNOK_clean_linker_0, # of connection points: 2
#     Edge 25, Type (0, 0), BuildingBlock: AJUNOK_clean_linker_0, # of connection points: 2
#     Edge 26, Type (0, 0), BuildingBlock: AJUNOK_clean_linker_0, # of connection points: 2
#     Edge 27, Type (0, 0), BuildingBlock: AJUNOK_clean_linker_0, # of connection points: 2
#     Edge 28, Type (0, 0), BuildingBlock: AJUNOK_clean_linker_0, # of connection points: 2
#     Edge 29, Type (0, 0), BuildingBlock: AJUNOK_clean_linker_0, # of connection points: 2
#     Edge 30, Type (0, 0), BuildingBlock: AJUNOK_clean_linker_0, # of connection points: 2
#     Edge 31, Type (0, 0), BuildingBlock: AJUNOK_clean_linker_0, # of connection points: 2
#     Edge 32, Type (0, 0), BuildingBlock: AJUNOK_clean_linker_0, # of connection points: 2
#     Edge 33, Type (0, 0), BuildingBlock: AJUNOK_clean_linker_0, # of connection points: 2
#     Edge 34, Type (0, 0), BuildingBlock: AJUNOK_clean_linker_0, # of connection points: 2
#     Edge 35, Type (0, 0), BuildingBlock: AJUNOK_clean_linker_0, # of connection points: 2
#     Edge 36, Type (0, 0), BuildingBlock: AJUNOK_clean_linker_0, # of connection points: 2
#     Edge 37, Type (0, 0), BuildingBlock: AJUNOK_clean_linker_0, # of connection points: 2
#     Edge 38, Type (0, 0), BuildingBlock: AJUNOK_clean_linker_0, # of connection points: 2
#     Edge 39, Type (0, 0), BuildingBlock: AJUNOK_clean_linker_0, # of connection points: 2
#     Edge 40, Type (0, 0), BuildingBlock: AJUNOK_clean_linker_0, # of connection points: 2
#     Edge 41, Type (0, 0), BuildingBlock: AJUNOK_clean_linker_0, # of connection points: 2
#     Edge 42, Type (0, 0), BuildingBlock: AJUNOK_clean_linker_0, # of connection points: 2
#     Edge 43, Type (0, 0), BuildingBlock: AJUNOK_clean_linker_0, # of connection points: 2
#     Edge 44, Type (0, 0), BuildingBlock: AJUNOK_clean_linker_0, # of connection points: 2
#     Edge 45, Type (0, 0), BuildingBlock: AJUNOK_clean_linker_0, # of connection points: 2
#     Edge 46, Type (0, 0), BuildingBlock: AJUNOK_clean_linker_0, # of connection points: 2
#     Edge 47, Type (0, 0), BuildingBlock: AJUNOK_clean_linker_0, # of connection points: 2
# Relax obj value: 0.281
# Max RMSD: 0.165
# Mean RMSD: 0.165
data_MOF--net-ukt--node1-CEKHIL_clean_sbu_0--edge1-AJUNOK_clean_linker_0
_symmetry_space_group_name_H-M    P1
_symmetry_Int_Tables_number       1
_symmetry_cell_setting            triclinic
loop_
_symmetry_equiv_pos_as_xyz
'x, y, z'
_cell_length_a     30.783208
_cell_length_b     30.781176
_cell_length_c     25.029512
_cell_angle_alpha  90.008481
_cell_angle_beta   90.036048
_cell_angle_gamma 89.997684
loop_
_atom_site_label
_atom_site_type_symbol
_atom_site_fract_x
_atom_site_fract_y
_atom_site_fract_z
_atom_type_partial_charge
Co0 Co 0.54245 0.14682 0.09632 0.0
O1 O 0.52791 0.08675 0.11338 0.0
O2 O 0.51126 0.11974 0.03793 0.0
C3 C 0.52628 0.18203 0.17517 0.0
O4 O 0.55188 0.20568 0.06182 0.0
Co5 Co 0.61864 0.19394 0.15433 0.0
O6 O 0.60137 0.24386 0.10855 0.0
C7 C 0.63828 0.12729 0.07482 0.0
C8 C 0.51301 0.08362 0.0647 0.0
C9 C 0.57468 0.24002 0.06985 0.0
O10 O 0.59787 0.1259 0.0623 0.0
O11 O 0.65293 0.14929 0.11425 0.0
O12 O 0.49539 0.17188 0.14168 0.0
O13 O 0.56332 0.16502 0.16344 0.0
Co14 Co 0.35908 0.53966 0.10876 0.0
O15 O 0.41948 0.52579 0.12366 0.0
O16 O 0.38445 0.50836 0.04967 0.0
C17 C 0.32545 0.52355 0.18807 0.0
O18 O 0.29909 0.54807 0.07749 0.0
Co19 Co 0.31446 0.6166 0.167 0.0
O20 O 0.26261 0.59785 0.12546 0.0
C21 C 0.3786 0.63551 0.0847 0.0
C22 C 0.42126 0.51072 0.07498 0.0
C23 C 0.26473 0.57026 0.08753 0.0
O24 O 0.37891 0.59494 0.07289 0.0
O25 O 0.35799 0.65077 0.12486 0.0
O26 O 0.33563 0.49257 0.15478 0.0
O27 O 0.3425 0.56068 0.1763 0.0
Co28 Co 0.96279 0.35652 0.0899 0.0
O29 O 0.97668 0.41643 0.10669 0.0
O30 O 0.9956 0.38278 0.03237 0.0
C31 C 0.97625 0.32369 0.1709 0.0
O32 O 0.9539 0.29719 0.05655 0.0
Co33 Co 0.88523 0.31033 0.14656 0.0
O34 O 0.90393 0.2596 0.10318 0.0
C35 C 0.86778 0.37599 0.06465 0.0
C36 C 0.99264 0.41916 0.05857 0.0
C37 C 0.93109 0.26292 0.06495 0.0
O38 O 0.9084 0.37712 0.0533 0.0
O39 O 0.85236 0.3548 0.10432 0.0
O40 O 0.00833 0.332 0.13838 0.0
O41 O 0.93988 0.34025 0.15601 0.0
Co42 Co 0.14669 0.96665 0.09707 0.0
O43 O 0.08787 0.98622 0.11211 0.0
O44 O 0.12112 0.99316 0.03449 0.0
C45 C 0.18351 0.98881 0.17185 0.0
O46 O 0.20439 0.95055 0.06396 0.0
Co47 Co 0.189 0.89355 0.16528 0.0
O48 O 0.23853 0.901 0.11508 0.0
C49 C 0.1238 0.87015 0.08516 0.0
C50 C 0.08518 0.99596 0.06146 0.0
C51 C 0.23648 0.92515 0.07375 0.0
O52 O 0.12234 0.91014 0.07136 0.0
O53 O 0.14593 0.85664 0.12516 0.0
O54 O 0.17487 0.01621 0.13357 0.0
O55 O 0.16438 0.95167 0.16711 0.0
Co56 Co 0.54024 0.35546 0.41811 0.0
O57 O 0.52362 0.41541 0.40298 0.0
O58 O 0.50873 0.38028 0.47748 0.0
C59 C 0.52459 0.32095 0.33872 0.0
O60 O 0.55187 0.29633 0.45088 0.0
Co61 Co 0.61762 0.31217 0.35839 0.0
O62 O 0.60275 0.26093 0.40323 0.0
C63 C 0.63545 0.37816 0.43934 0.0
C64 C 0.50921 0.41702 0.45198 0.0
C65 C 0.57601 0.26305 0.44204 0.0
O66 O 0.59513 0.37766 0.45223 0.0
O67 O 0.65065 0.35744 0.39919 0.0
O68 O 0.49365 0.32963 0.37272 0.0
O69 O 0.56114 0.33912 0.35033 0.0
Co70 Co 0.14219 0.53995 0.41625 0.0
O71 O 0.08284 0.52061 0.40284 0.0
O72 O 0.11905 0.51071 0.47796 0.0
C73 C 0.17783 0.52183 0.33885 0.0
O74 O 0.20083 0.55483 0.44776 0.0
Co75 Co 0.18246 0.61603 0.3517 0.0
O76 O 0.23497 0.6036 0.39565 0.0
C77 C 0.1153 0.63504 0.43001 0.0
C78 C 0.08214 0.50883 0.45299 0.0
C79 C 0.23383 0.57839 0.43603 0.0
O80 O 0.11798 0.59557 0.44612 0.0
O81 O 0.13531 0.6491 0.38876 0.0
O82 O 0.16974 0.49219 0.37479 0.0
O83 O 0.15792 0.55812 0.34715 0.0
Co84 Co 0.96026 0.15188 0.41917 0.0
O85 O 0.97599 0.09274 0.39987 0.0
O86 O 0.99456 0.12545 0.47499 0.0
C87 C 0.9722 0.18948 0.34047 0.0
O88 O 0.95017 0.20974 0.45553 0.0
Co89 Co 0.87846 0.19252 0.36791 0.0
O90 O 0.88973 0.23971 0.42064 0.0
C91 C 0.8673 0.12282 0.44314 0.0
C92 C 0.99239 0.08955 0.44783 0.0
C93 C 0.92135 0.23982 0.45347 0.0
O94 O 0.90723 0.12793 0.45642 0.0
O95 O 0.85031 0.14168 0.40285 0.0
O96 O 0.00458 0.17938 0.37174 0.0
O97 O 0.93629 0.17052 0.35349 0.0
Co98 Co 0.36015 0.96467 0.40155 0.0
O99 O 0.42039 0.98083 0.38927 0.0
O100 O 0.38488 0.99111 0.46477 0.0
C101 C 0.32712 0.98742 0.32486 0.0
O102 O 0.30019 0.95298 0.43101 0.0
Co103 Co 0.31543 0.89328 0.33368 0.0
O104 O 0.263 0.9089 0.37615 0.0
C105 C 0.37759 0.86712 0.41631 0.0
C106 C 0.42177 0.99189 0.43956 0.0
C107 C 0.26544 0.93254 0.41791 0.0
O108 O 0.38044 0.90715 0.43002 0.0
O109 O 0.35556 0.85447 0.3758 0.0
O110 O 0.33614 0.01503 0.3628 0.0
O111 O 0.3443 0.94944 0.33099 0.0
Co112 Co 0.46564 0.85708 0.90981 0.0
O113 O 0.48465 0.91683 0.89801 0.0
O114 O 0.49224 0.88081 0.97352 0.0
C115 C 0.48795 0.82322 0.83317 0.0
O116 O 0.45076 0.79795 0.93999 0.0
Co117 Co 0.39406 0.81371 0.84036 0.0
O118 O 0.40489 0.76189 0.88615 0.0
C119 C 0.36882 0.87775 0.92154 0.0
C120 C 0.49511 0.91767 0.94857 0.0
C121 C 0.42802 0.76431 0.92834 0.0
O122 O 0.4086 0.87973 0.93656 0.0
O123 O 0.35633 0.85568 0.88099 0.0
O124 O 0.51539 0.83076 0.87182 0.0
O125 O 0.45061 0.84166 0.83895 0.0
Co126 Co 0.64142 0.46862 0.9086 0.0
O127 O 0.58253 0.4906 0.90042 0.0
O128 O 0.6206 0.49245 0.97516 0.0
C129 C 0.67488 0.49404 0.83347 0.0
O130 O 0.70058 0.44974 0.93465 0.0
Co131 Co 0.67804 0.39857 0.832 0.0
O132 O 0.73227 0.40589 0.87437 0.0
C133 C 0.61665 0.37199 0.9152 0.0
C134 C 0.58337 0.49812 0.95174 0.0
C135 C 0.73286 0.42703 0.91817 0.0
O136 O 0.61681 0.41134 0.93188 0.0
O137 O 0.63693 0.36003 0.87305 0.0
O138 O 0.6689 0.51933 0.87458 0.0
O139 O 0.65467 0.45725 0.83607 0.0
Co140 Co 0.04224 0.64486 0.91081 0.0
O141 O 0.02326 0.58606 0.89399 0.0
O142 O 0.0081 0.62139 0.96842 0.0
C143 C 0.03037 0.68204 0.83197 0.0
O144 O 0.05554 0.70307 0.94479 0.0
Co145 Co 0.12422 0.68141 0.85729 0.0
O146 O 0.11118 0.73392 0.90065 0.0
C147 C 0.13474 0.61279 0.93392 0.0
C148 C 0.00786 0.58481 0.94258 0.0
C149 C 0.08195 0.73462 0.93663 0.0
O150 O 0.09495 0.61903 0.94713 0.0
O151 O 0.15207 0.63105 0.89348 0.0
O152 O 0.99824 0.67375 0.86439 0.0
O153 O 0.06552 0.66118 0.84393 0.0
Co154 Co 0.85988 0.03541 0.90421 0.0
O155 O 0.91875 0.01392 0.89266 0.0
O156 O 0.88301 0.01047 0.96889 0.0
C157 C 0.82375 0.01158 0.82985 0.0
O158 O 0.80184 0.05349 0.93435 0.0
Co159 Co 0.81998 0.10702 0.83224 0.0
O160 O 0.76864 0.10119 0.88005 0.0
C161 C 0.8852 0.13173 0.91182 0.0
C162 C 0.91962 0.00575 0.94387 0.0
C163 C 0.76982 0.07835 0.92252 0.0
O164 O 0.88512 0.09225 0.92795 0.0
O165 O 0.8636 0.14438 0.87097 0.0
O166 O 0.83131 0.98535 0.86968 0.0
O167 O 0.84381 0.04842 0.83287 0.0
Co168 Co 0.46429 0.64694 0.59899 0.0
O169 O 0.48258 0.58788 0.61549 0.0
O170 O 0.49157 0.62004 0.53757 0.0
C171 C 0.48595 0.68358 0.67437 0.0
O172 O 0.44969 0.70471 0.5644 0.0
Co173 Co 0.39121 0.69183 0.66469 0.0
O174 O 0.40047 0.74071 0.614 0.0
C175 C 0.36765 0.62554 0.58561 0.0
C176 C 0.49343 0.5844 0.56528 0.0
C177 C 0.42493 0.73756 0.57308 0.0
O178 O 0.40772 0.6233 0.57229 0.0
O179 O 0.35425 0.64857 0.62489 0.0
O180 O 0.51375 0.67443 0.63673 0.0
O181 O 0.44844 0.66547 0.66847 0.0
Co182 Co 0.85692 0.46984 0.61072 0.0
O183 O 0.91562 0.49052 0.62369 0.0
O184 O 0.88162 0.49398 0.54615 0.0
C185 C 0.82049 0.49472 0.68398 0.0
O186 O 0.7989 0.45227 0.57986 0.0
Co187 Co 0.81513 0.39969 0.68337 0.0
O188 O 0.76382 0.40728 0.63576 0.0
C189 C 0.88048 0.37305 0.60504 0.0
C190 C 0.91773 0.49836 0.57252 0.0
C191 C 0.76591 0.42896 0.59241 0.0
O192 O 0.88153 0.4124 0.58847 0.0
O193 O 0.85819 0.36114 0.64562 0.0
O194 O 0.82861 0.52058 0.64394 0.0
O195 O 0.84017 0.45769 0.68184 0.0
Co196 Co 0.04055 0.8641 0.59858 0.0
O197 O 0.02469 0.92405 0.61358 0.0
O198 O 0.00598 0.88762 0.54115 0.0
C199 C 0.02919 0.83008 0.67951 0.0
O200 O 0.05038 0.80437 0.56709 0.0
Co201 Co 0.1216 0.82408 0.65122 0.0
O202 O 0.1036 0.77071 0.61261 0.0
C203 C 0.13389 0.89035 0.57123 0.0
C204 C 0.00798 0.92479 0.56562 0.0
C205 C 0.07446 0.77118 0.57643 0.0
O206 O 0.09351 0.88634 0.55936 0.0
O207 O 0.15109 0.87183 0.61163 0.0
O208 O 0.99655 0.83859 0.64789 0.0
O209 O 0.06483 0.84887 0.66509 0.0
Co210 Co 0.64298 0.03354 0.60541 0.0
O211 O 0.58344 0.01327 0.6146 0.0
O212 O 0.62132 0.00835 0.54005 0.0
C213 C 0.67678 0.00983 0.68116 0.0
O214 O 0.70237 0.0499 0.57817 0.0
Co215 Co 0.6825 0.10477 0.67812 0.0
O216 O 0.73612 0.09476 0.63532 0.0
C217 C 0.62026 0.13042 0.59538 0.0
C218 C 0.58397 0.00433 0.56359 0.0
C219 C 0.7355 0.07228 0.59251 0.0
O220 O 0.61971 0.09078 0.57973 0.0
O221 O 0.64105 0.14287 0.63696 0.0
O222 O 0.66954 0.98326 0.64156 0.0
O223 O 0.65714 0.04684 0.67722 0.0
C224 C 0.57965 0.3177 0.0431 0.0
C225 C 0.57543 0.27399 0.02828 0.0
C226 C 0.58969 0.34957 0.0052 0.0
C227 C 0.59717 0.3388 0.95111 0.0
H228 H 0.57693 0.32709 0.08469 0.0
H229 H 0.59424 0.38251 0.01938 0.0
S230 S 0.5863 0.22894 0.89141 0.0
N231 N 0.57589 0.22166 0.9555 0.0
N232 N 0.59585 0.28142 0.88423 0.0
C233 C 0.59059 0.29542 0.93531 0.0
C234 C 0.57946 0.26306 0.9739 0.0
C235 C 0.15491 0.59308 0.02712 0.0
C236 C 0.16367 0.59035 0.97204 0.0
C237 C 0.18689 0.58298 0.06489 0.0
C238 C 0.22842 0.56908 0.04891 0.0
H239 H 0.12444 0.60645 0.04124 0.0
H240 H 0.17986 0.58861 0.10674 0.0
S241 S 0.26436 0.54806 0.90964 0.0
N242 N 0.2143 0.56664 0.90353 0.0
N243 N 0.27433 0.54697 0.97443 0.0
C244 C 0.2359 0.56166 0.99415 0.0
C245 C 0.20352 0.57254 0.9557 0.0
C246 C 0.91364 0.15353 1.00128 0.0
C247 C 0.90614 0.16432 0.94721 0.0
C248 C 0.92485 0.18524 0.03887 0.0
C249 C 0.93023 0.22874 0.02369 0.0
H250 H 0.90803 0.12082 0.01572 0.0
H251 H 0.92732 0.17601 0.08054 0.0
S252 S 0.92035 0.27334 0.88646 0.0
N253 N 0.90908 0.22116 0.87979 0.0
N254 N 0.93123 0.28066 0.95044 0.0
C255 C 0.92644 0.23951 0.96922 0.0
C256 C 0.91411 0.20732 0.93097 0.0
C257 C 0.34593 0.90262 0.01201 0.0
C258 C 0.33581 0.89707 0.95745 0.0
C259 C 0.31392 0.91366 0.04924 0.0
C260 C 0.27083 0.92064 0.0332 0.0
H261 H 0.37836 0.89607 0.0268 0.0
H262 H 0.32271 0.91551 0.09112 0.0
S263 S 0.2279 0.91447 0.89484 0.0
N264 N 0.27994 0.90232 0.88893 0.0
N265 N 0.21988 0.92406 0.95899 0.0
C266 C 0.26065 0.9179 0.97849 0.0
C267 C 0.29311 0.90583 0.94059 0.0
C268 C 0.58565 0.18529 0.46683 0.0
C269 C 0.57796 0.22832 0.48268 0.0
C270 C 0.59632 0.15329 0.50433 0.0
C271 C 0.60088 0.1633 0.55908 0.0
H272 H 0.58505 0.17664 0.42487 0.0
H273 H 0.60357 0.121 0.48958 0.0
S274 S 0.58059 0.27074 0.62149 0.0
N275 N 0.57223 0.27886 0.55708 0.0
N276 N 0.59335 0.21885 0.62757 0.0
C277 C 0.59106 0.2058 0.57577 0.0
C278 C 0.57929 0.23826 0.53758 0.0
C279 C 0.29159 0.6016 0.56553 0.0
C280 C 0.33529 0.605 0.54957 0.0
C281 C 0.25917 0.58969 0.52906 0.0
C282 C 0.26923 0.58155 0.47521 0.0
H283 H 0.28202 0.6099 0.6059 0.0
H284 H 0.22567 0.58956 0.54234 0.0
S285 S 0.37862 0.57988 0.41413 0.0
N286 N 0.38719 0.59394 0.47691 0.0
N287 N 0.32561 0.57315 0.40852 0.0
C288 C 0.31277 0.58216 0.45929 0.0
C289 C 0.346 0.59336 0.49651 0.0
C290 C 0.90698 0.3498 0.51552 0.0
C291 C 0.90038 0.33972 0.56995 0.0
C292 C 0.91673 0.31747 0.47822 0.0
C293 C 0.92163 0.27415 0.49412 0.0
H294 H 0.90168 0.38243 0.50064 0.0
H295 H 0.91848 0.3261 0.43628 0.0
S296 S 0.91359 0.23103 0.63196 0.0
N297 N 0.90341 0.2835 0.63823 0.0
N298 N 0.92313 0.22285 0.56779 0.0
C299 C 0.9187 0.26393 0.54868 0.0
C300 C 0.90774 0.29672 0.58672 0.0
C301 C 0.15565 0.90586 0.47735 0.0
C302 C 0.16318 0.91127 0.53237 0.0
C303 C 0.18796 0.91576 0.43988 0.0
C304 C 0.22866 0.93193 0.45611 0.0
H305 H 0.12588 0.89091 0.46332 0.0
H306 H 0.18174 0.90854 0.3982 0.0
S307 S 0.26071 0.96004 0.59517 0.0
N308 N 0.2114 0.93949 0.60084 0.0
N309 N 0.27201 0.9589 0.53073 0.0
C310 C 0.23477 0.94159 0.5107 0.0
C311 C 0.20206 0.93095 0.54879 0.0
C312 C 0.41139 0.68741 0.95357 0.0
C313 C 0.42362 0.7296 0.96899 0.0
C314 C 0.39956 0.65621 0.9917 0.0
C315 C 0.39866 0.66635 0.04659 0.0
H316 H 0.40948 0.67887 0.91164 0.0
H317 H 0.3887 0.62472 0.97772 0.0
S318 S 0.43199 0.7707 0.10827 0.0
N319 N 0.43771 0.77867 0.04344 0.0
N320 N 0.41475 0.7202 0.11475 0.0
C321 C 0.41308 0.7076 0.06273 0.0
C322 C 0.42581 0.73916 0.02403 0.0
C323 C 0.76283 0.42133 0.01004 0.0
C324 C 0.77011 0.42132 0.95456 0.0
C325 C 0.79541 0.40867 0.0457 0.0
C326 C 0.83671 0.39631 0.02727 0.0
H327 H 0.73098 0.42876 0.02602 0.0
H328 H 0.78769 0.40715 0.08789 0.0
S329 S 0.87399 0.39666 0.88612 0.0
N330 N 0.82265 0.412 0.88304 0.0
N331 N 0.88443 0.38888 0.95013 0.0
C332 C 0.8454 0.39921 0.97212 0.0
C333 C 0.81191 0.41146 0.93571 0.0
C334 C 0.08443 0.76255 0.02965 0.0
C335 C 0.08259 0.77102 0.97452 0.0
C336 C 0.09545 0.79542 0.066 0.0
C337 C 0.10405 0.83797 0.0484 0.0
H338 H 0.08036 0.7297 0.04442 0.0
H339 H 0.09904 0.78702 0.1078 0.0
S340 S 0.09715 0.87739 0.90801 0.0
N341 N 0.08603 0.82503 0.90421 0.0
N342 N 0.10531 0.88742 0.97202 0.0
C343 C 0.09871 0.84738 0.99351 0.0
C344 C 0.08841 0.81369 0.95664 0.0
C345 C 0.66078 0.10697 0.9826 0.0
C346 C 0.66981 0.10742 0.03776 0.0
C347 C 0.69282 0.09572 0.94541 0.0
C348 C 0.7347 0.08366 0.96213 0.0
H349 H 0.62952 0.11777 0.96776 0.0
H350 H 0.68512 0.09772 0.90323 0.0
S351 S 0.77323 0.07501 0.10243 0.0
N352 N 0.72241 0.09165 0.10752 0.0
N353 N 0.78254 0.06972 0.03781 0.0
C354 C 0.74327 0.08129 0.01736 0.0
C355 C 0.71086 0.09343 0.05514 0.0
C356 C 0.41416 0.81459 0.54566 0.0
C357 C 0.42064 0.77104 0.53119 0.0
C358 C 0.40282 0.84578 0.50743 0.0
C359 C 0.39638 0.83444 0.45335 0.0
H360 H 0.41663 0.82439 0.58714 0.0
H361 H 0.39687 0.87864 0.52112 0.0
S362 S 0.41188 0.72481 0.39467 0.0
N363 N 0.4224 0.7183 0.45887 0.0
N364 N 0.40006 0.77679 0.38701 0.0
C365 C 0.40447 0.79122 0.43804 0.0
C366 C 0.4169 0.75958 0.47694 0.0
C367 C 0.68926 0.41009 0.56917 0.0
C368 C 0.73073 0.42366 0.55265 0.0
C369 C 0.6575 0.39824 0.53186 0.0
C370 C 0.66638 0.39872 0.47668 0.0
H371 H 0.6817 0.40722 0.6113 0.0
H372 H 0.62667 0.38621 0.54659 0.0
S373 S 0.76814 0.43606 0.4123 0.0
N374 N 0.77759 0.44065 0.47698 0.0
N375 N 0.71799 0.41757 0.40709 0.0
C376 C 0.70679 0.4145 0.45948 0.0
C377 C 0.73893 0.42724 0.49741 0.0
C378 C 0.09411 0.65931 0.5211 0.0
C379 C 0.09418 0.66692 0.46561 0.0
C380 C 0.08436 0.69262 0.55713 0.0
C381 C 0.07335 0.73434 0.53893 0.0
H382 H 0.10486 0.62843 0.53713 0.0
H383 H 0.08775 0.68631 0.59953 0.0
S384 S 0.06137 0.7688 0.39761 0.0
N385 N 0.07705 0.71758 0.3941 0.0
N386 N 0.05782 0.7801 0.46194 0.0
C387 C 0.06911 0.7412 0.4836 0.0
C388 C 0.07981 0.70748 0.44686 0.0
C389 C 0.81227 0.09324 0.57249 0.0
C390 C 0.77243 0.07595 0.55491 0.0
C391 C 0.84465 0.10502 0.536 0.0
C392 C 0.83802 0.10046 0.48067 0.0
H393 H 0.81775 0.09963 0.61453 0.0
H394 H 0.87373 0.12061 0.55111 0.0
S395 S 0.7428 0.05033 0.4143 0.0
N396 N 0.73075 0.04956 0.47853 0.0
N397 N 0.79151 0.07249 0.41029 0.0
C398 C 0.79997 0.08005 0.4628 0.0
C399 C 0.7672 0.06751 0.49987 0.0
C400 C 0.49584 0.99983 0.95317 0.0
C401 C 0.50214 0.95947 0.97862 0.0
C402 C 0.49787 0.03935 0.98167 0.0
C403 C 0.5063 0.04066 0.03715 0.0
H404 H 0.48871 1.00102 0.91082 0.0
H405 H 0.49325 0.06926 0.9596 0.0
S406 S 0.52522 0.94428 0.12338 0.0
N407 N 0.51715 0.9236 0.06333 0.0
N408 N 0.52109 0.99745 0.11632 0.0
C409 C 0.51265 1.00056 0.06317 0.0
C410 C 0.51059 0.96025 0.03415 0.0
C411 C 0.46307 0.499 0.98966 0.0
C412 C 0.46335 0.5052 0.04557 0.0
C413 C 0.50169 0.49856 0.95953 0.0
C414 C 0.54262 0.50417 0.98374 0.0
H415 H 0.4326 0.49502 0.96857 0.0
H416 H 0.49936 0.49307 0.91688 0.0
S417 S 0.56184 0.52158 0.12891 0.0
N418 N 0.50855 0.51725 0.1238 0.0
N419 N 0.58087 0.51612 0.06762 0.0
C420 C 0.54346 0.51038 0.03966 0.0
C421 C 0.50403 0.51092 0.07036 0.0
C422 C 0.01019 0.50274 0.94713 0.0
C423 C 1.00033 0.54277 0.97164 0.0
C424 C 0.00912 0.46334 0.97591 0.0
C425 C 0.99837 0.46199 0.03073 0.0
H426 H 0.01957 0.50178 0.90545 0.0
H427 H 0.01648 0.43358 0.95468 0.0
S428 S 0.96927 0.5575 0.11416 0.0
N429 N 0.97883 0.57819 0.0545 0.0
N430 N 0.97716 0.5047 0.10813 0.0
C431 C 0.9883 0.50176 0.05571 0.0
C432 C 0.98911 0.54184 0.02637 0.0
C433 C 0.04123 0.00388 0.97675 0.0
C434 C 0.04244 1.0009 0.03307 0.0
C435 C 1.00172 0.00373 0.94815 0.0
C436 C 0.96137 1.00039 0.97437 0.0
H437 H 0.07118 0.00588 0.9542 0.0
H438 H 0.00291 0.00682 0.90507 0.0
S439 S 0.94604 0.9914 0.12145 0.0
N440 N 0.99921 0.99428 0.11384 0.0
N441 N 0.92541 0.99387 0.06065 0.0
C442 C 0.96209 0.9972 0.03072 0.0
C443 C 1.00235 0.99754 0.05983 0.0
C444 C 0.50728 0.53921 0.48255 0.0
C445 C 0.49941 0.54119 0.53811 0.0
C446 C 0.50885 0.49932 0.45475 0.0
C447 C 0.50224 0.45933 0.48096 0.0
H448 H 0.51204 0.56885 0.45999 0.0
H449 H 0.5158 0.49992 0.41235 0.0
S450 S 0.47951 0.44606 0.62608 0.0
N451 N 0.4844 0.49905 0.61808 0.0
N452 N 0.487 0.42463 0.56634 0.0
C453 C 0.49394 0.46085 0.53649 0.0
C454 C 0.49267 0.50147 0.56483 0.0
C455 C 0.99999 0.50887 0.45825 0.0
C456 C 0.0405 0.50302 0.48351 0.0
C457 C 0.9608 0.50879 0.4875 0.0
C458 C 0.96015 0.50327 0.54353 0.0
H459 H 0.99846 0.51413 0.41551 0.0
H460 H 0.93065 0.51285 0.46573 0.0
S461 S 0.05715 0.4863 0.62939 0.0
N462 N 0.07715 0.49104 0.56852 0.0
N463 N 0.00404 0.49136 0.6229 0.0
C464 C 1.00041 0.4974 0.5693 0.0
C465 C 0.04028 0.49708 0.53953 0.0
C466 C 0.01336 0.00646 0.55867 0.0
C467 C 1.00099 0.96653 0.53573 0.0
C468 C 0.01224 0.04549 0.52925 0.0
C469 C 0.99884 0.04664 0.47528 0.0
H470 H 0.02465 0.00765 0.59963 0.0
H471 H 0.02156 0.0752 0.54942 0.0
S472 S 0.96273 0.95122 0.39596 0.0
N473 N 0.97459 0.93084 0.4552 0.0
N474 N 0.97255 0.00382 0.40036 0.0
C475 C 0.98641 0.00694 0.45177 0.0
C476 C 0.98739 0.96715 0.4818 0.0
C477 C 0.50207 0.00299 0.55585 0.0
C478 C 0.54309 0.99833 0.53158 0.0
C479 C 0.46339 1.00235 0.52562 0.0
C480 C 0.46373 0.99713 0.46954 0.0
H481 H 0.4997 0.00778 0.59862 0.0
H482 H 0.43284 0.00558 0.5467 0.0
S483 S 0.56247 0.98348 0.38597 0.0
N484 N 0.58141 0.98818 0.44741 0.0
N485 N 0.50914 0.98703 0.39114 0.0
C486 C 0.50452 0.99242 0.44472 0.0
C487 C 0.54394 0.99294 0.4755 0.0
C488 C 0.56089 0.2694 0.27503 0.0
C489 C 0.522 0.28608 0.2964 0.0
C490 C 0.56131 0.2355 0.23761 0.0
C491 C 0.52284 0.21707 0.21719 0.0
H492 H 0.59193 0.28216 0.28754 0.0
H493 H 0.59268 0.22409 0.22442 0.0
S494 S 0.41138 0.24915 0.2581 0.0
N495 N 0.4432 0.281 0.29417 0.0
N496 N 0.44396 0.21871 0.22127 0.0
C497 C 0.48332 0.23372 0.23728 0.0
C498 C 0.48291 0.26775 0.27719 0.0
C499 C 0.23222 0.55809 0.27892 0.0
C500 C 0.21498 0.51926 0.29974 0.0
C501 C 0.26868 0.55864 0.24553 0.0
C502 C 0.28884 0.52024 0.22779 0.0
H503 H 0.21798 0.58906 0.28869 0.0
H504 H 0.28046 0.59002 0.23299 0.0
S505 S 0.25612 0.4088 0.26804 0.0
N506 N 0.22161 0.44056 0.30022 0.0
N507 N 0.28822 0.44139 0.23343 0.0
C508 C 0.27163 0.48071 0.24708 0.0
C509 C 0.23523 0.48025 0.28359 0.0
C510 C 0.01403 0.26518 0.22782 0.0
C511 C 0.97768 0.29177 0.21664 0.0
C512 C 0.01265 0.23277 0.26837 0.0
C513 C 0.97446 0.22461 0.2982 0.0
H514 H 0.04351 0.269 0.20472 0.0
H515 H 0.04132 0.2132 0.2754 0.0
S516 S 0.87168 0.2878 0.28772 0.0
N517 N 0.90412 0.31034 0.2435 0.0
N518 N 0.90031 0.24798 0.31389 0.0
C519 C 0.93845 0.2515 0.28738 0.0
C520 C 0.9404 0.28536 0.24831 0.0
C521 C 0.29777 0.98372 0.2311 0.0
C522 C 0.29147 0.99457 0.28518 0.0
C523 C 0.26321 0.98486 0.19406 0.0
C524 C 0.22047 0.99497 0.20992 0.0
H525 H 0.32962 0.97374 0.2174 0.0
H526 H 0.26993 0.97645 0.153 0.0
S527 S 0.18636 0.02581 0.34676 0.0
N528 N 0.23924 0.01766 0.35216 0.0
N529 N 0.17403 0.01663 0.28347 0.0
C530 C 0.2138 0.0064 0.26367 0.0
C531 C 0.2493 0.00693 0.30102 0.0
C532 C 0.48333 0.7963 0.73834 0.0
C533 C 0.49428 0.78838 0.79213 0.0
C534 C 0.48334 0.76269 0.69994 0.0
C535 C 0.4928 0.71938 0.71397 0.0
H536 H 0.47398 0.82871 0.72596 0.0
H537 H 0.47452 0.77057 0.65926 0.0
S538 S 0.5223 0.68084 0.84957 0.0
N539 N 0.51544 0.73374 0.85711 0.0
N540 N 0.51322 0.6705 0.78572 0.0
C541 C 0.5041 0.71103 0.76746 0.0
C542 C 0.50538 0.74549 0.80629 0.0
C543 C 0.79008 0.49797 0.77722 0.0
C544 C 0.78355 0.50173 0.72174 0.0
C545 C 0.75488 0.49868 0.81331 0.0
C546 C 0.71154 0.50072 0.79524 0.0
H547 H 0.82266 0.49386 0.79284 0.0
H548 H 0.76166 0.49575 0.85557 0.0
S549 S 0.67669 0.51215 0.65418 0.0
N550 N 0.73029 0.51067 0.65091 0.0
N551 N 0.66428 0.50777 0.7182 0.0
C552 C 0.70459 0.50503 0.74 0.0
C553 C 0.74052 0.50652 0.70344 0.0
C554 C 0.98988 0.77317 0.73701 0.0
C555 C 0.02865 0.79405 0.72083 0.0
C556 C 0.99029 0.73728 0.7729 0.0
C557 C 0.02958 0.71897 0.79179 0.0
H558 H 0.95894 0.78478 0.72219 0.0
H559 H 0.95958 0.72335 0.7852 0.0
S560 S 0.14016 0.76107 0.76139 0.0
N561 N 0.107 0.79556 0.73217 0.0
N562 N 0.10821 0.72397 0.7876 0.0
C563 C 0.06826 0.73883 0.77411 0.0
C564 C 0.06767 0.77735 0.742 0.0
C565 C 0.70801 0.01225 0.77427 0.0
C566 C 0.71373 0.00384 0.71943 0.0
C567 C 0.74341 0.01186 0.81019 0.0
C568 C 0.78636 0.00523 0.79242 0.0
H569 H 0.67591 0.0196 0.78951 0.0
H570 H 0.73714 0.01825 0.85194 0.0
S571 S 0.81922 0.98161 0.65297 0.0
N572 N 0.76582 0.98647 0.6497 0.0
N573 N 0.83238 0.98947 0.71627 0.0
C574 C 0.79251 0.99644 0.73784 0.0
C575 C 0.75626 0.99487 0.70164 0.0
loop_
_geom_bond_atom_site_label_1
_geom_bond_atom_site_label_2
_geom_bond_distance
_geom_bond_site_symmetry_2
_ccdc_geom_bond_type
Co0 O1 2.216 . S
Co0 O2 2.091 . S
Co0 O4 2.004 . S
Co0 O10 2.021 . S
Co0 O12 2.137 . S
Co0 O13 2.244 . S
O1 Co0 2.216 . S
O1 C8 1.247 . S
O2 Co0 2.091 . S
O2 C8 1.261 . S
C3 O12 1.247 . S
C3 O13 1.272 . S
O4 Co0 2.004 . S
O4 C9 1.259 . S
Co5 O6 2.061 . S
Co5 O11 2.052 . S
Co5 O13 2.135 . S
O6 Co5 2.061 . S
O6 C9 1.235 . S
C7 O10 1.238 . S
C7 O11 1.241 . S
C8 O1 1.247 . S
C8 O2 1.261 . S
C9 O4 1.259 . S
C9 O6 1.235 . S
O10 Co0 2.021 . S
O10 C7 1.238 . S
O11 Co5 2.052 . S
O11 C7 1.241 . S
O12 Co0 2.137 . S
O12 C3 1.247 . S
O13 Co0 2.244 . S
O13 C3 1.272 . S
O13 Co5 2.135 . S
Co14 O15 2.216 . S
Co14 O16 2.091 . S
Co14 O18 2.004 . S
Co14 O24 2.021 . S
Co14 O26 2.137 . S
Co14 O27 2.244 . S
O15 Co14 2.216 . S
O15 C22 1.247 . S
O16 Co14 2.091 . S
O16 C22 1.261 . S
C17 O26 1.247 . S
C17 O27 1.272 . S
O18 Co14 2.004 . S
O18 C23 1.259 . S
Co19 O20 2.061 . S
Co19 O25 2.052 . S
Co19 O27 2.135 . S
O20 Co19 2.061 . S
O20 C23 1.235 . S
C21 O24 1.238 . S
C21 O25 1.241 . S
C22 O15 1.247 . S
C22 O16 1.261 . S
C23 O18 1.259 . S
C23 O20 1.235 . S
O24 Co14 2.021 . S
O24 C21 1.238 . S
O25 Co19 2.052 . S
O25 C21 1.241 . S
O26 Co14 2.137 . S
O26 C17 1.247 . S
O27 Co14 2.244 . S
O27 C17 1.272 . S
O27 Co19 2.135 . S
Co28 O29 2.216 . S
Co28 O30 2.091 1_655 S
Co28 O32 2.004 . S
Co28 O38 2.021 . S
Co28 O40 2.137 1_655 S
Co28 O41 2.244 . S
O29 Co28 2.216 . S
O29 C36 1.247 1_655 S
O30 Co28 2.091 1_455 S
O30 C36 1.261 . S
C31 O40 1.247 1_655 S
C31 O41 1.272 . S
O32 Co28 2.004 . S
O32 C37 1.259 . S
Co33 O34 2.061 . S
Co33 O39 2.052 . S
Co33 O41 2.135 . S
O34 Co33 2.061 . S
O34 C37 1.235 . S
C35 O38 1.238 . S
C35 O39 1.241 . S
C36 O29 1.247 1_455 S
C36 O30 1.261 . S
C37 O32 1.259 . S
C37 O34 1.235 . S
O38 Co28 2.021 . S
O38 C35 1.238 . S
O39 Co33 2.052 . S
O39 C35 1.241 . S
O40 Co28 2.137 1_455 S
O40 C31 1.247 1_455 S
O41 Co28 2.244 . S
O41 C31 1.272 . S
O41 Co33 2.135 . S
Co42 O43 2.216 . S
Co42 O44 2.091 1_565 S
Co42 O46 2.004 . S
Co42 O52 2.021 . S
Co42 O54 2.137 1_565 S
Co42 O55 2.244 . S
O43 Co42 2.216 . S
O43 C50 1.247 1_565 S
O44 Co42 2.091 1_545 S
O44 C50 1.261 . S
C45 O54 1.247 1_565 S
C45 O55 1.272 . S
O46 Co42 2.004 . S
O46 C51 1.259 . S
Co47 O48 2.061 . S
Co47 O53 2.052 . S
Co47 O55 2.135 . S
O48 Co47 2.061 . S
O48 C51 1.235 . S
C49 O52 1.238 . S
C49 O53 1.241 . S
C50 O43 1.247 1_545 S
C50 O44 1.261 . S
C51 O46 1.259 . S
C51 O48 1.235 . S
O52 Co42 2.021 . S
O52 C49 1.238 . S
O53 Co47 2.052 . S
O53 C49 1.241 . S
O54 Co42 2.137 1_545 S
O54 C45 1.247 1_545 S
O55 Co42 2.244 . S
O55 C45 1.272 . S
O55 Co47 2.135 . S
Co56 O57 2.216 . S
Co56 O58 2.091 . S
Co56 O60 2.004 . S
Co56 O66 2.021 . S
Co56 O68 2.137 . S
Co56 O69 2.244 . S
O57 Co56 2.216 . S
O57 C64 1.247 . S
O58 Co56 2.091 . S
O58 C64 1.261 . S
C59 O68 1.247 . S
C59 O69 1.272 . S
O60 Co56 2.004 . S
O60 C65 1.259 . S
Co61 O62 2.061 . S
Co61 O67 2.052 . S
Co61 O69 2.135 . S
O62 Co61 2.061 . S
O62 C65 1.235 . S
C63 O66 1.238 . S
C63 O67 1.241 . S
C64 O57 1.247 . S
C64 O58 1.261 . S
C65 O60 1.259 . S
C65 O62 1.235 . S
O66 Co56 2.021 . S
O66 C63 1.238 . S
O67 Co61 2.052 . S
O67 C63 1.241 . S
O68 Co56 2.137 . S
O68 C59 1.247 . S
O69 Co56 2.244 . S
O69 C59 1.272 . S
O69 Co61 2.135 . S
Co70 O71 2.216 . S
Co70 O72 2.091 . S
Co70 O74 2.004 . S
Co70 O80 2.021 . S
Co70 O82 2.137 . S
Co70 O83 2.244 . S
O71 Co70 2.216 . S
O71 C78 1.247 . S
O72 Co70 2.091 . S
O72 C78 1.261 . S
C73 O82 1.247 . S
C73 O83 1.272 . S
O74 Co70 2.004 . S
O74 C79 1.259 . S
Co75 O76 2.061 . S
Co75 O81 2.052 . S
Co75 O83 2.135 . S
O76 Co75 2.061 . S
O76 C79 1.235 . S
C77 O80 1.238 . S
C77 O81 1.241 . S
C78 O71 1.247 . S
C78 O72 1.261 . S
C79 O74 1.259 . S
C79 O76 1.235 . S
O80 Co70 2.021 . S
O80 C77 1.238 . S
O81 Co75 2.052 . S
O81 C77 1.241 . S
O82 Co70 2.137 . S
O82 C73 1.247 . S
O83 Co70 2.244 . S
O83 C73 1.272 . S
O83 Co75 2.135 . S
Co84 O85 2.216 . S
Co84 O86 2.091 1_655 S
Co84 O88 2.004 . S
Co84 O94 2.021 . S
Co84 O96 2.137 1_655 S
Co84 O97 2.244 . S
O85 Co84 2.216 . S
O85 C92 1.247 1_655 S
O86 Co84 2.091 1_455 S
O86 C92 1.261 . S
C87 O96 1.247 1_655 S
C87 O97 1.272 . S
O88 Co84 2.004 . S
O88 C93 1.259 . S
Co89 O90 2.061 . S
Co89 O95 2.052 . S
Co89 O97 2.135 . S
O90 Co89 2.061 . S
O90 C93 1.235 . S
C91 O94 1.238 . S
C91 O95 1.241 . S
C92 O85 1.247 1_455 S
C92 O86 1.261 . S
C93 O88 1.259 . S
C93 O90 1.235 . S
O94 Co84 2.021 . S
O94 C91 1.238 . S
O95 Co89 2.052 . S
O95 C91 1.241 . S
O96 Co84 2.137 1_455 S
O96 C87 1.247 1_455 S
O97 Co84 2.244 . S
O97 C87 1.272 . S
O97 Co89 2.135 . S
Co98 O99 2.216 . S
Co98 O100 2.091 1_565 S
Co98 O102 2.004 . S
Co98 O108 2.021 . S
Co98 O110 2.137 1_565 S
Co98 O111 2.244 . S
O99 Co98 2.216 . S
O99 C106 1.247 1_565 S
O100 Co98 2.091 1_545 S
O100 C106 1.261 . S
C101 O110 1.247 1_565 S
C101 O111 1.272 . S
O102 Co98 2.004 . S
O102 C107 1.259 . S
Co103 O104 2.061 . S
Co103 O109 2.052 . S
Co103 O111 2.135 . S
O104 Co103 2.061 . S
O104 C107 1.235 . S
C105 O108 1.238 . S
C105 O109 1.241 . S
C106 O99 1.247 1_545 S
C106 O100 1.261 . S
C107 O102 1.259 . S
C107 O104 1.235 . S
O108 Co98 2.021 . S
O108 C105 1.238 . S
O109 Co103 2.052 . S
O109 C105 1.241 . S
O110 Co98 2.137 1_545 S
O110 C101 1.247 1_545 S
O111 Co98 2.244 . S
O111 C101 1.272 . S
O111 Co103 2.135 . S
Co112 O113 2.216 . S
Co112 O114 2.091 . S
Co112 O116 2.004 . S
Co112 O122 2.021 . S
Co112 O124 2.137 . S
Co112 O125 2.244 . S
O113 Co112 2.216 . S
O113 C120 1.247 . S
O114 Co112 2.091 . S
O114 C120 1.261 . S
C115 O124 1.247 . S
C115 O125 1.272 . S
O116 Co112 2.004 . S
O116 C121 1.259 . S
Co117 O118 2.061 . S
Co117 O123 2.052 . S
Co117 O125 2.135 . S
O118 Co117 2.061 . S
O118 C121 1.235 . S
C119 O122 1.238 . S
C119 O123 1.241 . S
C120 O113 1.247 . S
C120 O114 1.261 . S
C121 O116 1.259 . S
C121 O118 1.235 . S
O122 Co112 2.021 . S
O122 C119 1.238 . S
O123 Co117 2.052 . S
O123 C119 1.241 . S
O124 Co112 2.137 . S
O124 C115 1.247 . S
O125 Co112 2.244 . S
O125 C115 1.272 . S
O125 Co117 2.135 . S
Co126 O127 2.216 . S
Co126 O128 2.091 . S
Co126 O130 2.004 . S
Co126 O136 2.021 . S
Co126 O138 2.137 . S
Co126 O139 2.244 . S
O127 Co126 2.216 . S
O127 C134 1.247 . S
O128 Co126 2.091 . S
O128 C134 1.261 . S
C129 O138 1.247 . S
C129 O139 1.272 . S
O130 Co126 2.004 . S
O130 C135 1.259 . S
Co131 O132 2.061 . S
Co131 O137 2.052 . S
Co131 O139 2.135 . S
O132 Co131 2.061 . S
O132 C135 1.235 . S
C133 O136 1.238 . S
C133 O137 1.241 . S
C134 O127 1.247 . S
C134 O128 1.261 . S
C135 O130 1.259 . S
C135 O132 1.235 . S
O136 Co126 2.021 . S
O136 C133 1.238 . S
O137 Co131 2.052 . S
O137 C133 1.241 . S
O138 Co126 2.137 . S
O138 C129 1.247 . S
O139 Co126 2.244 . S
O139 C129 1.272 . S
O139 Co131 2.135 . S
Co140 O141 2.216 . S
Co140 O142 2.091 1_455 S
Co140 O144 2.004 . S
Co140 O150 2.021 . S
Co140 O152 2.137 1_455 S
Co140 O153 2.244 . S
O141 Co140 2.216 . S
O141 C148 1.247 1_455 S
O142 Co140 2.091 1_655 S
O142 C148 1.261 . S
C143 O152 1.247 1_455 S
C143 O153 1.272 . S
O144 Co140 2.004 . S
O144 C149 1.259 . S
Co145 O146 2.061 . S
Co145 O151 2.052 . S
Co145 O153 2.135 . S
O146 Co145 2.061 . S
O146 C149 1.235 . S
C147 O150 1.238 . S
C147 O151 1.241 . S
C148 O141 1.247 1_655 S
C148 O142 1.261 . S
C149 O144 1.259 . S
C149 O146 1.235 . S
O150 Co140 2.021 . S
O150 C147 1.238 . S
O151 Co145 2.052 . S
O151 C147 1.241 . S
O152 Co140 2.137 1_655 S
O152 C143 1.247 1_655 S
O153 Co140 2.244 . S
O153 C143 1.272 . S
O153 Co145 2.135 . S
Co154 O155 2.216 . S
Co154 O156 2.091 1_545 S
Co154 O158 2.004 . S
Co154 O164 2.021 . S
Co154 O166 2.137 1_545 S
Co154 O167 2.244 . S
O155 Co154 2.216 . S
O155 C162 1.247 1_545 S
O156 Co154 2.091 1_565 S
O156 C162 1.261 . S
C157 O166 1.247 1_545 S
C157 O167 1.272 . S
O158 Co154 2.004 . S
O158 C163 1.259 . S
Co159 O160 2.061 . S
Co159 O165 2.052 . S
Co159 O167 2.135 . S
O160 Co159 2.061 . S
O160 C163 1.235 . S
C161 O164 1.238 . S
C161 O165 1.241 . S
C162 O155 1.247 1_565 S
C162 O156 1.261 . S
C163 O158 1.259 . S
C163 O160 1.235 . S
O164 Co154 2.021 . S
O164 C161 1.238 . S
O165 Co159 2.052 . S
O165 C161 1.241 . S
O166 Co154 2.137 1_565 S
O166 C157 1.247 1_565 S
O167 Co154 2.244 . S
O167 C157 1.272 . S
O167 Co159 2.135 . S
Co168 O169 2.216 . S
Co168 O170 2.091 . S
Co168 O172 2.004 . S
Co168 O178 2.021 . S
Co168 O180 2.137 . S
Co168 O181 2.244 . S
O169 Co168 2.216 . S
O169 C176 1.247 . S
O170 Co168 2.091 . S
O170 C176 1.261 . S
C171 O180 1.247 . S
C171 O181 1.272 . S
O172 Co168 2.004 . S
O172 C177 1.259 . S
Co173 O174 2.061 . S
Co173 O179 2.052 . S
Co173 O181 2.135 . S
O174 Co173 2.061 . S
O174 C177 1.235 . S
C175 O178 1.238 . S
C175 O179 1.241 . S
C176 O169 1.247 . S
C176 O170 1.261 . S
C177 O172 1.259 . S
C177 O174 1.235 . S
O178 Co168 2.021 . S
O178 C175 1.238 . S
O179 Co173 2.052 . S
O179 C175 1.241 . S
O180 Co168 2.137 . S
O180 C171 1.247 . S
O181 Co168 2.244 . S
O181 C171 1.272 . S
O181 Co173 2.135 . S
Co182 O183 2.216 . S
Co182 O184 2.091 . S
Co182 O186 2.004 . S
Co182 O192 2.021 . S
Co182 O194 2.137 . S
Co182 O195 2.244 . S
O183 Co182 2.216 . S
O183 C190 1.247 . S
O184 Co182 2.091 . S
O184 C190 1.261 . S
C185 O194 1.247 . S
C185 O195 1.272 . S
O186 Co182 2.004 . S
O186 C191 1.259 . S
Co187 O188 2.061 . S
Co187 O193 2.052 . S
Co187 O195 2.135 . S
O188 Co187 2.061 . S
O188 C191 1.235 . S
C189 O192 1.238 . S
C189 O193 1.241 . S
C190 O183 1.247 . S
C190 O184 1.261 . S
C191 O186 1.259 . S
C191 O188 1.235 . S
O192 Co182 2.021 . S
O192 C189 1.238 . S
O193 Co187 2.052 . S
O193 C189 1.241 . S
O194 Co182 2.137 . S
O194 C185 1.247 . S
O195 Co182 2.244 . S
O195 C185 1.272 . S
O195 Co187 2.135 . S
Co196 O197 2.216 . S
Co196 O198 2.091 1_455 S
Co196 O200 2.004 . S
Co196 O206 2.021 . S
Co196 O208 2.137 1_455 S
Co196 O209 2.244 . S
O197 Co196 2.216 . S
O197 C204 1.247 1_455 S
O198 Co196 2.091 1_655 S
O198 C204 1.261 . S
C199 O208 1.247 1_455 S
C199 O209 1.272 . S
O200 Co196 2.004 . S
O200 C205 1.259 . S
Co201 O202 2.061 . S
Co201 O207 2.052 . S
Co201 O209 2.135 . S
O202 Co201 2.061 . S
O202 C205 1.235 . S
C203 O206 1.238 . S
C203 O207 1.241 . S
C204 O197 1.247 1_655 S
C204 O198 1.261 . S
C205 O200 1.259 . S
C205 O202 1.235 . S
O206 Co196 2.021 . S
O206 C203 1.238 . S
O207 Co201 2.052 . S
O207 C203 1.241 . S
O208 Co196 2.137 1_655 S
O208 C199 1.247 1_655 S
O209 Co196 2.244 . S
O209 C199 1.272 . S
O209 Co201 2.135 . S
Co210 O211 2.216 . S
Co210 O212 2.091 1_545 S
Co210 O214 2.004 . S
Co210 O220 2.021 . S
Co210 O222 2.137 1_545 S
Co210 O223 2.244 . S
O211 Co210 2.216 . S
O211 C218 1.247 1_545 S
O212 Co210 2.091 1_565 S
O212 C218 1.261 . S
C213 O222 1.247 1_545 S
C213 O223 1.272 . S
O214 Co210 2.004 . S
O214 C219 1.259 . S
Co215 O216 2.061 . S
Co215 O221 2.052 . S
Co215 O223 2.135 . S
O216 Co215 2.061 . S
O216 C219 1.235 . S
C217 O220 1.238 . S
C217 O221 1.241 . S
C218 O211 1.247 1_565 S
C218 O212 1.261 . S
C219 O214 1.259 . S
C219 O216 1.235 . S
O220 Co210 2.021 . S
O220 C217 1.238 . S
O221 Co215 2.052 . S
O221 C217 1.241 . S
O222 Co210 2.137 1_565 S
O222 C213 1.247 1_565 S
O223 Co210 2.244 . S
O223 C213 1.272 . S
O223 Co215 2.135 . S
C224 C225 1.369 . S
C224 C226 1.419 . S
C224 H228 0.930 . S
C225 C224 1.369 . S
C225 C234 1.429 1_556 S
C226 C224 1.419 . S
C226 C227 1.363 . S
C226 H229 0.929 . S
C227 C226 1.363 . S
C227 C233 1.428 . S
H228 C224 0.930 . S
H229 C226 0.929 . S
S230 N231 1.613 . S
S230 N232 1.610 . S
N231 S230 1.613 . S
N231 C234 1.350 . S
N232 S230 1.610 . S
N232 C233 1.351 1_554 S
C233 C227 1.428 . S
C233 N232 1.351 1_556 S
C233 C234 1.434 1_556 S
C234 C225 1.429 1_554 S
C234 N231 1.350 . S
C234 C233 1.434 1_554 S
C235 C236 1.369 1_554 S
C235 C237 1.419 . S
C235 H239 0.930 . S
C236 C235 1.369 1_556 S
C236 C245 1.429 . S
C237 C235 1.419 . S
C237 C238 1.363 1_554 S
C237 H240 0.929 . S
C238 C237 1.363 1_556 S
C238 C244 1.428 . S
H239 C235 0.930 . S
H240 C237 0.929 . S
S241 N242 1.613 . S
S241 N243 1.610 . S
N242 S241 1.613 . S
N242 C245 1.350 . S
N243 S241 1.610 . S
N243 C244 1.351 . S
C244 C238 1.428 . S
C244 N243 1.351 . S
C244 C245 1.434 . S
C245 C236 1.429 . S
C245 N242 1.350 . S
C245 C244 1.434 . S
C246 C247 1.369 1_554 S
C246 C248 1.419 . S
C246 H250 0.930 . S
C247 C246 1.369 1_556 S
C247 C256 1.429 . S
C248 C246 1.419 . S
C248 C249 1.363 1_554 S
C248 H251 0.929 . S
C249 C248 1.363 1_556 S
C249 C255 1.428 . S
H250 C246 0.930 . S
H251 C248 0.929 . S
S252 N253 1.613 . S
S252 N254 1.610 . S
N253 S252 1.613 . S
N253 C256 1.350 . S
N254 S252 1.610 . S
N254 C255 1.351 . S
C255 C249 1.428 . S
C255 N254 1.351 . S
C255 C256 1.434 . S
C256 C247 1.429 . S
C256 N253 1.350 . S
C256 C255 1.434 . S
C257 C258 1.369 1_554 S
C257 C259 1.419 . S
C257 H261 0.930 . S
C258 C257 1.369 1_556 S
C258 C267 1.429 . S
C259 C257 1.419 . S
C259 C260 1.363 1_554 S
C259 H262 0.929 . S
C260 C259 1.363 1_556 S
C260 C266 1.428 . S
H261 C257 0.930 . S
H262 C259 0.929 . S
S263 N264 1.613 . S
S263 N265 1.610 . S
N264 S263 1.613 . S
N264 C267 1.350 . S
N265 S263 1.610 . S
N265 C266 1.351 . S
C266 C260 1.428 . S
C266 N265 1.351 . S
C266 C267 1.434 . S
C267 C258 1.429 . S
C267 N264 1.350 . S
C267 C266 1.434 . S
C268 C269 1.369 . S
C268 C270 1.419 . S
C268 H272 0.930 . S
C269 C268 1.369 . S
C269 C278 1.429 . S
C270 C268 1.419 . S
C270 C271 1.363 . S
C270 H273 0.929 . S
C271 C270 1.363 . S
C271 C277 1.428 . S
H272 C268 0.930 . S
H273 C270 0.929 . S
S274 N275 1.613 . S
S274 N276 1.610 . S
N275 S274 1.613 . S
N275 C278 1.350 . S
N276 S274 1.610 . S
N276 C277 1.351 . S
C277 C271 1.428 . S
C277 N276 1.351 . S
C277 C278 1.434 . S
C278 C269 1.429 . S
C278 N275 1.350 . S
C278 C277 1.434 . S
C279 C280 1.369 . S
C279 C281 1.419 . S
C279 H283 0.930 . S
C280 C279 1.369 . S
C280 C289 1.429 . S
C281 C279 1.419 . S
C281 C282 1.363 . S
C281 H284 0.929 . S
C282 C281 1.363 . S
C282 C288 1.428 . S
H283 C279 0.930 . S
H284 C281 0.929 . S
S285 N286 1.613 . S
S285 N287 1.610 . S
N286 S285 1.613 . S
N286 C289 1.350 . S
N287 S285 1.610 . S
N287 C288 1.351 . S
C288 C282 1.428 . S
C288 N287 1.351 . S
C288 C289 1.434 . S
C289 C280 1.429 . S
C289 N286 1.350 . S
C289 C288 1.434 . S
C290 C291 1.369 . S
C290 C292 1.419 . S
C290 H294 0.930 . S
C291 C290 1.369 . S
C291 C300 1.429 . S
C292 C290 1.419 . S
C292 C293 1.363 . S
C292 H295 0.929 . S
C293 C292 1.363 . S
C293 C299 1.428 . S
H294 C290 0.930 . S
H295 C292 0.929 . S
S296 N297 1.613 . S
S296 N298 1.610 . S
N297 S296 1.613 . S
N297 C300 1.350 . S
N298 S296 1.610 . S
N298 C299 1.351 . S
C299 C293 1.428 . S
C299 N298 1.351 . S
C299 C300 1.434 . S
C300 C291 1.429 . S
C300 N297 1.350 . S
C300 C299 1.434 . S
C301 C302 1.369 . S
C301 C303 1.419 . S
C301 H305 0.930 . S
C302 C301 1.369 . S
C302 C311 1.429 . S
C303 C301 1.419 . S
C303 C304 1.363 . S
C303 H306 0.929 . S
C304 C303 1.363 . S
C304 C310 1.428 . S
H305 C301 0.930 . S
H306 C303 0.929 . S
S307 N308 1.613 . S
S307 N309 1.610 . S
N308 S307 1.613 . S
N308 C311 1.350 . S
N309 S307 1.610 . S
N309 C310 1.351 . S
C310 C304 1.428 . S
C310 N309 1.351 . S
C310 C311 1.434 . S
C311 C302 1.429 . S
C311 N308 1.350 . S
C311 C310 1.434 . S
C312 C313 1.369 1_556 S
C312 C314 1.419 . S
C312 H316 0.930 . S
C313 C312 1.369 1_554 S
C313 C322 1.429 . S
C314 C312 1.419 . S
C314 C315 1.363 1_556 S
C314 H317 0.929 . S
C315 C314 1.363 1_554 S
C315 C321 1.428 . S
H316 C312 0.930 . S
H317 C314 0.929 . S
S318 N319 1.613 . S
S318 N320 1.610 . S
N319 S318 1.613 . S
N319 C322 1.350 . S
N320 S318 1.610 . S
N320 C321 1.351 . S
C321 C315 1.428 . S
C321 N320 1.351 . S
C321 C322 1.434 . S
C322 C313 1.429 . S
C322 N319 1.350 . S
C322 C321 1.434 . S
C323 C324 1.369 . S
C323 C325 1.419 . S
C323 H327 0.930 . S
C324 C323 1.369 . S
C324 C333 1.429 1_554 S
C325 C323 1.419 . S
C325 C326 1.363 . S
C325 H328 0.929 . S
C326 C325 1.363 . S
C326 C332 1.428 1_554 S
H327 C323 0.930 . S
H328 C325 0.929 . S
S329 N330 1.613 . S
S329 N331 1.610 . S
N330 S329 1.613 . S
N330 C333 1.350 . S
N331 S329 1.610 . S
N331 C332 1.351 . S
C332 C326 1.428 1_556 S
C332 N331 1.351 . S
C332 C333 1.434 . S
C333 C324 1.429 1_556 S
C333 N330 1.350 . S
C333 C332 1.434 . S
C334 C335 1.369 . S
C334 C336 1.419 . S
C334 H338 0.930 . S
C335 C334 1.369 . S
C335 C344 1.429 1_554 S
C336 C334 1.419 . S
C336 C337 1.363 . S
C336 H339 0.929 . S
C337 C336 1.363 . S
C337 C343 1.428 1_554 S
H338 C334 0.930 . S
H339 C336 0.929 . S
S340 N341 1.613 . S
S340 N342 1.610 . S
N341 S340 1.613 . S
N341 C344 1.350 . S
N342 S340 1.610 . S
N342 C343 1.351 . S
C343 C337 1.428 1_556 S
C343 N342 1.351 . S
C343 C344 1.434 . S
C344 C335 1.429 1_556 S
C344 N341 1.350 . S
C344 C343 1.434 . S
C345 C346 1.369 . S
C345 C347 1.419 . S
C345 H349 0.930 . S
C346 C345 1.369 . S
C346 C355 1.429 1_554 S
C347 C345 1.419 . S
C347 C348 1.363 . S
C347 H350 0.929 . S
C348 C347 1.363 . S
C348 C354 1.428 1_554 S
H349 C345 0.930 . S
H350 C347 0.929 . S
S351 N352 1.613 . S
S351 N353 1.610 . S
N352 S351 1.613 . S
N352 C355 1.350 . S
N353 S351 1.610 . S
N353 C354 1.351 . S
C354 C348 1.428 1_556 S
C354 N353 1.351 . S
C354 C355 1.434 . S
C355 C346 1.429 1_556 S
C355 N352 1.350 . S
C355 C354 1.434 . S
C356 C357 1.369 . S
C356 C358 1.419 . S
C356 H360 0.930 . S
C357 C356 1.369 . S
C357 C366 1.429 . S
C358 C356 1.419 . S
C358 C359 1.363 . S
C358 H361 0.929 . S
C359 C358 1.363 . S
C359 C365 1.428 . S
H360 C356 0.930 . S
H361 C358 0.929 . S
S362 N363 1.613 . S
S362 N364 1.610 . S
N363 S362 1.613 . S
N363 C366 1.350 . S
N364 S362 1.610 . S
N364 C365 1.351 . S
C365 C359 1.428 . S
C365 N364 1.351 . S
C365 C366 1.434 . S
C366 C357 1.429 . S
C366 N363 1.350 . S
C366 C365 1.434 . S
C367 C368 1.369 . S
C367 C369 1.419 . S
C367 H371 0.930 . S
C368 C367 1.369 . S
C368 C377 1.429 . S
C369 C367 1.419 . S
C369 C370 1.363 . S
C369 H372 0.929 . S
C370 C369 1.363 . S
C370 C376 1.428 . S
H371 C367 0.930 . S
H372 C369 0.929 . S
S373 N374 1.613 . S
S373 N375 1.610 . S
N374 S373 1.613 . S
N374 C377 1.350 . S
N375 S373 1.610 . S
N375 C376 1.351 . S
C376 C370 1.428 . S
C376 N375 1.351 . S
C376 C377 1.434 . S
C377 C368 1.429 . S
C377 N374 1.350 . S
C377 C376 1.434 . S
C378 C379 1.369 . S
C378 C380 1.419 . S
C378 H382 0.930 . S
C379 C378 1.369 . S
C379 C388 1.429 . S
C380 C378 1.419 . S
C380 C381 1.363 . S
C380 H383 0.929 . S
C381 C380 1.363 . S
C381 C387 1.428 . S
H382 C378 0.930 . S
H383 C380 0.929 . S
S384 N385 1.613 . S
S384 N386 1.610 . S
N385 S384 1.613 . S
N385 C388 1.350 . S
N386 S384 1.610 . S
N386 C387 1.351 . S
C387 C381 1.428 . S
C387 N386 1.351 . S
C387 C388 1.434 . S
C388 C379 1.429 . S
C388 N385 1.350 . S
C388 C387 1.434 . S
C389 C390 1.369 . S
C389 C391 1.419 . S
C389 H393 0.930 . S
C390 C389 1.369 . S
C390 C399 1.429 . S
C391 C389 1.419 . S
C391 C392 1.363 . S
C391 H394 0.929 . S
C392 C391 1.363 . S
C392 C398 1.428 . S
H393 C389 0.930 . S
H394 C391 0.929 . S
S395 N396 1.613 . S
S395 N397 1.610 . S
N396 S395 1.613 . S
N396 C399 1.350 . S
N397 S395 1.610 . S
N397 C398 1.351 . S
C398 C392 1.428 . S
C398 N397 1.351 . S
C398 C399 1.434 . S
C399 C390 1.429 . S
C399 N396 1.350 . S
C399 C398 1.434 . S
C400 C401 1.369 . S
C400 C402 1.419 1_565 S
C400 H404 0.930 . S
C401 C400 1.369 . S
C401 C410 1.429 1_556 S
C402 C400 1.419 1_545 S
C402 C403 1.363 1_556 S
C402 H405 0.929 . S
C403 C402 1.363 1_554 S
C403 C409 1.428 . S
H404 C400 0.930 . S
H405 C402 0.929 . S
S406 N407 1.613 1_545 S
S406 N408 1.610 . S
N407 S406 1.613 1_565 S
N407 C410 1.350 . S
N408 S406 1.610 . S
N408 C409 1.351 . S
C409 C403 1.428 . S
C409 N408 1.351 . S
C409 C410 1.434 1_545 S
C410 C401 1.429 1_554 S
C410 N407 1.350 . S
C410 C409 1.434 1_565 S
C411 C412 1.369 . S
C411 C413 1.419 1_554 S
C411 H415 0.930 . S
C412 C411 1.369 . S
C412 C421 1.429 . S
C413 C411 1.419 1_556 S
C413 C414 1.363 . S
C413 H416 0.929 . S
C414 C413 1.363 . S
C414 C420 1.428 . S
H415 C411 0.930 . S
H416 C413 0.929 . S
S417 N418 1.613 . S
S417 N419 1.610 . S
N418 S417 1.613 . S
N418 C421 1.350 . S
N419 S417 1.610 . S
N419 C420 1.351 1_554 S
C420 C414 1.428 . S
C420 N419 1.351 1_556 S
C420 C421 1.434 1_556 S
C421 C412 1.429 . S
C421 N418 1.350 . S
C421 C420 1.434 1_554 S
C422 C423 1.369 1_455 S
C422 C424 1.419 . S
C422 H426 0.930 . S
C423 C422 1.369 1_655 S
C423 C432 1.429 1_556 S
C424 C422 1.419 . S
C424 C425 1.363 1_556 S
C424 H427 0.929 . S
C425 C424 1.363 1_554 S
C425 C431 1.428 1_455 S
H426 C422 0.930 . S
H427 C424 0.929 . S
S428 N429 1.613 . S
S428 N430 1.610 . S
N429 S428 1.613 . S
N429 C432 1.350 . S
N430 S428 1.610 . S
N430 C431 1.351 . S
C431 C425 1.428 1_655 S
C431 N430 1.351 . S
C431 C432 1.434 . S
C432 C423 1.429 1_554 S
C432 N429 1.350 . S
C432 C431 1.434 . S
C433 C434 1.369 . S
C433 C435 1.419 1_454 S
C433 H437 0.930 . S
C434 C433 1.369 . S
C434 C443 1.429 1_545 S
C435 C433 1.419 1_656 S
C435 C436 1.363 1_545 S
C435 H438 0.929 . S
C436 C435 1.363 1_565 S
C436 C442 1.428 . S
H437 C433 0.930 . S
H438 C435 0.929 . S
S439 N440 1.613 . S
S439 N441 1.610 1_454 S
N440 S439 1.613 . S
N440 C443 1.350 . S
N441 S439 1.610 1_656 S
N441 C442 1.351 . S
C442 C436 1.428 . S
C442 N441 1.351 . S
C442 C443 1.434 1_656 S
C443 C434 1.429 1_565 S
C443 N440 1.350 . S
C443 C442 1.434 1_454 S
C444 C445 1.369 . S
C444 C446 1.419 . S
C444 H448 0.930 . S
C445 C444 1.369 . S
C445 C454 1.429 . S
C446 C444 1.419 . S
C446 C447 1.363 . S
C446 H449 0.929 . S
C447 C446 1.363 . S
C447 C453 1.428 . S
H448 C444 0.930 . S
H449 C446 0.929 . S
S450 N451 1.613 . S
S450 N452 1.610 . S
N451 S450 1.613 . S
N451 C454 1.350 . S
N452 S450 1.610 . S
N452 C453 1.351 . S
C453 C447 1.428 . S
C453 N452 1.351 . S
C453 C454 1.434 . S
C454 C445 1.429 . S
C454 N451 1.350 . S
C454 C453 1.434 . S
C455 C456 1.369 . S
C455 C457 1.419 1_455 S
C455 H459 0.930 . S
C456 C455 1.369 . S
C456 C465 1.429 . S
C457 C455 1.419 1_655 S
C457 C458 1.363 . S
C457 H460 0.929 . S
C458 C457 1.363 . S
C458 C464 1.428 . S
H459 C455 0.930 . S
H460 C457 0.929 . S
S461 N462 1.613 . S
S461 N463 1.610 1_455 S
N462 S461 1.613 . S
N462 C465 1.350 . S
N463 S461 1.610 1_655 S
N463 C464 1.351 . S
C464 C458 1.428 . S
C464 N463 1.351 . S
C464 C465 1.434 1_655 S
C465 C456 1.429 . S
C465 N462 1.350 . S
C465 C464 1.434 1_455 S
C466 C467 1.369 1_455 S
C466 C468 1.419 1_565 S
C466 H470 0.930 . S
C467 C466 1.369 1_655 S
C467 C476 1.429 . S
C468 C466 1.419 1_545 S
C468 C469 1.363 . S
C468 H471 0.929 . S
C469 C468 1.363 . S
C469 C475 1.428 1_455 S
H470 C466 0.930 . S
H471 C468 0.929 . S
S472 N473 1.613 1_545 S
S472 N474 1.610 . S
N473 S472 1.613 1_565 S
N473 C476 1.350 . S
N474 S472 1.610 . S
N474 C475 1.351 . S
C475 C469 1.428 1_655 S
C475 N474 1.351 . S
C475 C476 1.434 1_545 S
C476 C467 1.429 . S
C476 N473 1.350 . S
C476 C475 1.434 1_565 S
C477 C478 1.369 . S
C477 C479 1.419 . S
C477 H481 0.930 . S
C478 C477 1.369 . S
C478 C487 1.429 1_565 S
C479 C477 1.419 . S
C479 C480 1.363 1_565 S
C479 H482 0.929 . S
C480 C479 1.363 1_545 S
C480 C486 1.428 . S
H481 C477 0.930 . S
H482 C479 0.929 . S
S483 N484 1.613 . S
S483 N485 1.610 . S
N484 S483 1.613 . S
N484 C487 1.350 . S
N485 S483 1.610 . S
N485 C486 1.351 . S
C486 C480 1.428 . S
C486 N485 1.351 . S
C486 C487 1.434 . S
C487 C478 1.429 1_545 S
C487 N484 1.350 . S
C487 C486 1.434 . S
C488 C489 1.369 . S
C488 C490 1.419 . S
C488 H492 0.930 . S
C489 C488 1.369 . S
C489 C498 1.429 . S
C490 C488 1.419 . S
C490 C491 1.363 . S
C490 H493 0.929 . S
C491 C490 1.363 . S
C491 C497 1.428 . S
H492 C488 0.930 . S
H493 C490 0.929 . S
S494 N495 1.613 . S
S494 N496 1.610 . S
N495 S494 1.613 . S
N495 C498 1.350 . S
N496 S494 1.610 . S
N496 C497 1.351 . S
C497 C491 1.428 . S
C497 N496 1.351 . S
C497 C498 1.434 . S
C498 C489 1.429 . S
C498 N495 1.350 . S
C498 C497 1.434 . S
C499 C500 1.369 . S
C499 C501 1.419 . S
C499 H503 0.930 . S
C500 C499 1.369 . S
C500 C509 1.429 . S
C501 C499 1.419 . S
C501 C502 1.363 . S
C501 H504 0.929 . S
C502 C501 1.363 . S
C502 C508 1.428 . S
H503 C499 0.930 . S
H504 C501 0.929 . S
S505 N506 1.613 . S
S505 N507 1.610 . S
N506 S505 1.613 . S
N506 C509 1.350 . S
N507 S505 1.610 . S
N507 C508 1.351 . S
C508 C502 1.428 . S
C508 N507 1.351 . S
C508 C509 1.434 . S
C509 C500 1.429 . S
C509 N506 1.350 . S
C509 C508 1.434 . S
C510 C511 1.369 1_455 S
C510 C512 1.419 . S
C510 H514 0.930 . S
C511 C510 1.369 1_655 S
C511 C520 1.429 . S
C512 C510 1.419 . S
C512 C513 1.363 1_455 S
C512 H515 0.929 . S
C513 C512 1.363 1_655 S
C513 C519 1.428 . S
H514 C510 0.930 . S
H515 C512 0.929 . S
S516 N517 1.613 . S
S516 N518 1.610 . S
N517 S516 1.613 . S
N517 C520 1.350 . S
N518 S516 1.610 . S
N518 C519 1.351 . S
C519 C513 1.428 . S
C519 N518 1.351 . S
C519 C520 1.434 . S
C520 C511 1.429 . S
C520 N517 1.350 . S
C520 C519 1.434 . S
C521 C522 1.369 . S
C521 C523 1.419 . S
C521 H525 0.930 . S
C522 C521 1.369 . S
C522 C531 1.429 . S
C523 C521 1.419 . S
C523 C524 1.363 . S
C523 H526 0.929 . S
C524 C523 1.363 . S
C524 C530 1.428 . S
H525 C521 0.930 . S
H526 C523 0.929 . S
S527 N528 1.613 . S
S527 N529 1.610 . S
N528 S527 1.613 . S
N528 C531 1.350 . S
N529 S527 1.610 . S
N529 C530 1.351 . S
C530 C524 1.428 . S
C530 N529 1.351 . S
C530 C531 1.434 . S
C531 C522 1.429 . S
C531 N528 1.350 . S
C531 C530 1.434 . S
C532 C533 1.369 . S
C532 C534 1.419 . S
C532 H536 0.930 . S
C533 C532 1.369 . S
C533 C542 1.429 . S
C534 C532 1.419 . S
C534 C535 1.363 . S
C534 H537 0.929 . S
C535 C534 1.363 . S
C535 C541 1.428 . S
H536 C532 0.930 . S
H537 C534 0.929 . S
S538 N539 1.613 . S
S538 N540 1.610 . S
N539 S538 1.613 . S
N539 C542 1.350 . S
N540 S538 1.610 . S
N540 C541 1.351 . S
C541 C535 1.428 . S
C541 N540 1.351 . S
C541 C542 1.434 . S
C542 C533 1.429 . S
C542 N539 1.350 . S
C542 C541 1.434 . S
C543 C544 1.369 . S
C543 C545 1.419 . S
C543 H547 0.930 . S
C544 C543 1.369 . S
C544 C553 1.429 . S
C545 C543 1.419 . S
C545 C546 1.363 . S
C545 H548 0.929 . S
C546 C545 1.363 . S
C546 C552 1.428 . S
H547 C543 0.930 . S
H548 C545 0.929 . S
S549 N550 1.613 . S
S549 N551 1.610 . S
N550 S549 1.613 . S
N550 C553 1.350 . S
N551 S549 1.610 . S
N551 C552 1.351 . S
C552 C546 1.428 . S
C552 N551 1.351 . S
C552 C553 1.434 . S
C553 C544 1.429 . S
C553 N550 1.350 . S
C553 C552 1.434 . S
C554 C555 1.369 1_655 S
C554 C556 1.419 . S
C554 H558 0.930 . S
C555 C554 1.369 1_455 S
C555 C564 1.429 . S
C556 C554 1.419 . S
C556 C557 1.363 1_655 S
C556 H559 0.929 . S
C557 C556 1.363 1_455 S
C557 C563 1.428 . S
H558 C554 0.930 . S
H559 C556 0.929 . S
S560 N561 1.613 . S
S560 N562 1.610 . S
N561 S560 1.613 . S
N561 C564 1.350 . S
N562 S560 1.610 . S
N562 C563 1.351 . S
C563 C557 1.428 . S
C563 N562 1.351 . S
C563 C564 1.434 . S
C564 C555 1.429 . S
C564 N561 1.350 . S
C564 C563 1.434 . S
C565 C566 1.369 . S
C565 C567 1.419 . S
C565 H569 0.930 . S
C566 C565 1.369 . S
C566 C575 1.429 . S
C567 C565 1.419 . S
C567 C568 1.363 . S
C567 H570 0.929 . S
C568 C567 1.363 . S
C568 C574 1.428 . S
H569 C565 0.930 . S
H570 C567 0.929 . S
S571 N572 1.613 . S
S571 N573 1.610 . S
N572 S571 1.613 . S
N572 C575 1.350 . S
N573 S571 1.610 . S
N573 C574 1.351 . S
C574 C568 1.428 . S
C574 N573 1.351 . S
C574 C575 1.434 . S
C575 C566 1.429 . S
C575 N572 1.350 . S
C575 C574 1.434 . S
C225 C9 1.001 1_556 S
C227 C133 1.089 . S
C236 C147 1.088 . S
C238 C23 1.019 1_556 S
C247 C161 1.085 . S
C249 C37 1.017 1_556 S
C258 C119 1.084 . S
C260 C51 1.015 1_556 S
C269 C65 1.018 . S
C271 C217 1.086 . S
C280 C175 1.090 . S
C282 C79 1.018 . S
C291 C189 1.085 . S
C293 C93 1.011 . S
C302 C203 1.085 . S
C304 C107 1.010 . S
C313 C121 1.021 1_554 S
C315 C21 1.088 . S
C324 C135 1.013 1_554 S
C326 C35 1.092 . S
C335 C149 1.006 1_554 S
C337 C49 1.092 . S
C346 C7 1.090 . S
C348 C163 1.004 1_554 S
C357 C177 1.016 . S
C359 C105 1.085 . S
C368 C191 1.014 . S
C370 C63 1.091 . S
C379 C77 1.086 . S
C381 C205 1.009 . S
C390 C219 1.008 . S
C392 C91 1.086 . S
C401 C120 1.885 . S
C403 C8 1.880 . S
C412 C22 1.887 . S
C414 C134 1.879 . S
C423 C148 1.882 . S
C425 C36 1.883 . S
C434 C50 1.877 . S
C436 C162 1.886 . S
C445 C176 1.880 . S
C447 C64 1.885 . S
C456 C78 1.879 . S
C458 C190 1.885 . S
C467 C204 1.886 . S
C469 C92 1.880 . S
C478 C218 1.877 . S
C480 C106 1.887 . S
C489 C59 1.692 . S
C491 C3 1.697 . S
C500 C73 1.696 . S
C502 C17 1.694 . S
C511 C31 1.696 . S
C513 C87 1.692 . S
C522 C101 1.691 . S
C524 C45 1.696 . S
C533 C115 1.691 . S
C535 C171 1.696 . S
C544 C185 1.692 . S
C546 C129 1.696 . S
C555 C199 1.691 . S
C557 C143 1.695 . S
C566 C213 1.692 . S
C568 C157 1.697 . S
