# Generated by pormake.
# Topology fnh, (5)-cn, num edge types: 1
# Building blocks:
#     Node 0, Type 0, BuildingBlock: XOMCOT_clean_sbu_0, # of connection points: 5
#     Node 1, Type 0, BuildingBlock: XOMCOT_clean_sbu_0, # of connection points: 5
#     Node 2, Type 0, BuildingBlock: XOMCOT_clean_sbu_0, # of connection points: 5
#     Node 3, Type 0, BuildingBlock: XOMCOT_clean_sbu_0, # of connection points: 5
#     Node 4, Type 0, BuildingBlock: XOMCOT_clean_sbu_0, # of connection points: 5
#     Node 5, Type 0, BuildingBlock: XOMCOT_clean_sbu_0, # of connection points: 5
#     Node 6, Type 0, BuildingBlock: XOMCOT_clean_sbu_0, # of connection points: 5
#     Node 7, Type 0, BuildingBlock: XOMCOT_clean_sbu_0, # of connection points: 5
#     Node 8, Type 0, BuildingBlock: XOMCOT_clean_sbu_0, # of connection points: 5
#     Node 9, Type 0, BuildingBlock: XOMCOT_clean_sbu_0, # of connection points: 5
#     Node 10, Type 0, BuildingBlock: XOMCOT_clean_sbu_0, # of connection points: 5
#     Node 11, Type 0, BuildingBlock: XOMCOT_clean_sbu_0, # of connection points: 5
#     Node 12, Type 0, BuildingBlock: XOMCOT_clean_sbu_0, # of connection points: 5
#     Node 13, Type 0, BuildingBlock: XOMCOT_clean_sbu_0, # of connection points: 5
#     Node 14, Type 0, BuildingBlock: XOMCOT_clean_sbu_0, # of connection points: 5
#     Node 15, Type 0, BuildingBlock: XOMCOT_clean_sbu_0, # of connection points: 5
#     Node 16, Type 0, BuildingBlock: XOMCOT_clean_sbu_0, # of connection points: 5
#     Node 17, Type 0, BuildingBlock: XOMCOT_clean_sbu_0, # of connection points: 5
#     Edge 18, Type (0, 0), BuildingBlock: XIVTED_clean_linker_0, # of connection points: 2
#     Edge 19, Type (0, 0), BuildingBlock: XIVTED_clean_linker_0, # of connection points: 2
#     Edge 20, Type (0, 0), BuildingBlock: XIVTED_clean_linker_0, # of connection points: 2
#     Edge 21, Type (0, 0), BuildingBlock: XIVTED_clean_linker_0, # of connection points: 2
#     Edge 22, Type (0, 0), BuildingBlock: XIVTED_clean_linker_0, # of connection points: 2
#     Edge 23, Type (0, 0), BuildingBlock: XIVTED_clean_linker_0, # of connection points: 2
#     Edge 24, Type (0, 0), BuildingBlock: XIVTED_clean_linker_0, # of connection points: 2
#     Edge 25, Type (0, 0), BuildingBlock: XIVTED_clean_linker_0, # of connection points: 2
#     Edge 26, Type (0, 0), BuildingBlock: XIVTED_clean_linker_0, # of connection points: 2
#     Edge 27, Type (0, 0), BuildingBlock: XIVTED_clean_linker_0, # of connection points: 2
#     Edge 28, Type (0, 0), BuildingBlock: XIVTED_clean_linker_0, # of connection points: 2
#     Edge 29, Type (0, 0), BuildingBlock: XIVTED_clean_linker_0, # of connection points: 2
#     Edge 30, Type (0, 0), BuildingBlock: XIVTED_clean_linker_0, # of connection points: 2
#     Edge 31, Type (0, 0), BuildingBlock: XIVTED_clean_linker_0, # of connection points: 2
#     Edge 32, Type (0, 0), BuildingBlock: XIVTED_clean_linker_0, # of connection points: 2
#     Edge 33, Type (0, 0), BuildingBlock: XIVTED_clean_linker_0, # of connection points: 2
#     Edge 34, Type (0, 0), BuildingBlock: XIVTED_clean_linker_0, # of connection points: 2
#     Edge 35, Type (0, 0), BuildingBlock: XIVTED_clean_linker_0, # of connection points: 2
#     Edge 36, Type (0, 0), BuildingBlock: XIVTED_clean_linker_0, # of connection points: 2
#     Edge 37, Type (0, 0), BuildingBlock: XIVTED_clean_linker_0, # of connection points: 2
#     Edge 38, Type (0, 0), BuildingBlock: XIVTED_clean_linker_0, # of connection points: 2
#     Edge 39, Type (0, 0), BuildingBlock: XIVTED_clean_linker_0, # of connection points: 2
#     Edge 40, Type (0, 0), BuildingBlock: XIVTED_clean_linker_0, # of connection points: 2
#     Edge 41, Type (0, 0), BuildingBlock: XIVTED_clean_linker_0, # of connection points: 2
#     Edge 42, Type (0, 0), BuildingBlock: XIVTED_clean_linker_0, # of connection points: 2
#     Edge 43, Type (0, 0), BuildingBlock: XIVTED_clean_linker_0, # of connection points: 2
#     Edge 44, Type (0, 0), BuildingBlock: XIVTED_clean_linker_0, # of connection points: 2
#     Edge 45, Type (0, 0), BuildingBlock: XIVTED_clean_linker_0, # of connection points: 2
#     Edge 46, Type (0, 0), BuildingBlock: XIVTED_clean_linker_0, # of connection points: 2
#     Edge 47, Type (0, 0), BuildingBlock: XIVTED_clean_linker_0, # of connection points: 2
#     Edge 48, Type (0, 0), BuildingBlock: XIVTED_clean_linker_0, # of connection points: 2
#     Edge 49, Type (0, 0), BuildingBlock: XIVTED_clean_linker_0, # of connection points: 2
#     Edge 50, Type (0, 0), BuildingBlock: XIVTED_clean_linker_0, # of connection points: 2
#     Edge 51, Type (0, 0), BuildingBlock: XIVTED_clean_linker_0, # of connection points: 2
#     Edge 52, Type (0, 0), BuildingBlock: XIVTED_clean_linker_0, # of connection points: 2
#     Edge 53, Type (0, 0), BuildingBlock: XIVTED_clean_linker_0, # of connection points: 2
#     Edge 54, Type (0, 0), BuildingBlock: XIVTED_clean_linker_0, # of connection points: 2
#     Edge 55, Type (0, 0), BuildingBlock: XIVTED_clean_linker_0, # of connection points: 2
#     Edge 56, Type (0, 0), BuildingBlock: XIVTED_clean_linker_0, # of connection points: 2
#     Edge 57, Type (0, 0), BuildingBlock: XIVTED_clean_linker_0, # of connection points: 2
#     Edge 58, Type (0, 0), BuildingBlock: XIVTED_clean_linker_0, # of connection points: 2
#     Edge 59, Type (0, 0), BuildingBlock: XIVTED_clean_linker_0, # of connection points: 2
#     Edge 60, Type (0, 0), BuildingBlock: XIVTED_clean_linker_0, # of connection points: 2
#     Edge 61, Type (0, 0), BuildingBlock: XIVTED_clean_linker_0, # of connection points: 2
#     Edge 62, Type (0, 0), BuildingBlock: XIVTED_clean_linker_0, # of connection points: 2
# Relax obj value: 0.209
# Max RMSD: 0.209
# Mean RMSD: 0.209
data_MOF--net-fnh--node1-XOMCOT_clean_sbu_0--edge1-XIVTED_clean_linker_0
_symmetry_space_group_name_H-M    P1
_symmetry_Int_Tables_number       1
_symmetry_cell_setting            triclinic
loop_
_symmetry_equiv_pos_as_xyz
'x, y, z'
_cell_length_a     68.527006
_cell_length_b     68.312842
_cell_length_c     23.431014
_cell_angle_alpha  90.003603
_cell_angle_beta   90.10629
_cell_angle_gamma 119.89914
loop_
_atom_site_label
_atom_site_type_symbol
_atom_site_fract_x
_atom_site_fract_y
_atom_site_fract_z
_atom_type_partial_charge
Co0 Co 0.11073 0.18984 0.29961 0.0
C1 C 0.07602 0.19835 0.34941 0.0
C2 C 0.06683 0.16363 0.35809 0.0
C3 C 0.05064 0.16691 0.384 0.0
N4 N 0.08309 0.18358 0.33752 0.0
N5 N 0.05667 0.18886 0.37861 0.0
H6 H 0.08471 0.21597 0.338 0.0
H7 H 0.06702 0.14791 0.35652 0.0
C8 C 0.08062 0.19001 0.20196 0.0
O9 O 0.07967 0.20613 0.22995 0.0
N10 N 0.13785 0.19603 0.26124 0.0
C11 C 0.15912 0.21115 0.27623 0.0
C12 C 0.17328 0.21224 0.23315 0.0
C13 C 0.13922 0.18796 0.21016 0.0
N14 N 0.16066 0.19775 0.1915 0.0
C15 C 0.12655 0.23286 0.35158 0.0
C16 C 0.13873 0.25974 0.25567 0.0
C17 C 0.14301 0.27027 0.30977 0.0
C18 C 0.13675 0.25623 0.35775 0.0
C19 C 0.12819 0.23591 0.25126 0.0
N20 N 0.12162 0.22265 0.2991 0.0
H21 H 0.12212 0.22282 0.38995 0.0
H22 H 0.12582 0.22823 0.2096 0.0
H23 H 0.16388 0.22131 0.31462 0.0
H24 H 0.12472 0.17539 0.18691 0.0
O25 O 0.12441 0.18956 0.37298 0.0
O26 O 0.10587 0.15936 0.3203 0.0
O27 O 0.09332 0.18254 0.22175 0.0
C28 C 0.11732 0.16826 0.36712 0.0
H29 H 0.03651 0.15454 0.40867 0.0
H30 H 0.1913 0.22347 0.23171 0.0
H31 H 0.14353 0.26977 0.21709 0.0
H32 H 0.1402 0.2632 0.40048 0.0
Co33 Co 0.85626 0.9302 0.3053 0.0
C34 C 0.84919 0.8859 0.34363 0.0
C35 C 0.88322 0.91189 0.35815 0.0
C36 C 0.88048 0.89175 0.37875 0.0
N37 N 0.86334 0.90827 0.33727 0.0
N38 N 0.85894 0.8755 0.36976 0.0
H39 H 0.83176 0.87704 0.33087 0.0
H40 H 0.89847 0.92809 0.36055 0.0
C41 C 0.85608 0.90272 0.20076 0.0
O42 O 0.83953 0.88507 0.22561 0.0
N43 N 0.84929 0.95175 0.27301 0.0
C44 C 0.8328 0.95589 0.28904 0.0
C45 C 0.83299 0.97188 0.25289 0.0
C46 C 0.85957 0.96541 0.2286 0.0
N47 N 0.8499 0.97782 0.21539 0.0
C48 C 0.81397 0.90087 0.3569 0.0
C49 C 0.78635 0.88997 0.2625 0.0
C50 C 0.77629 0.88286 0.31672 0.0
C51 C 0.79067 0.88829 0.36383 0.0
C52 C 0.81009 0.90278 0.25731 0.0
N53 N 0.8237 0.90785 0.30432 0.0
H54 H 0.82435 0.90499 0.39465 0.0
H55 H 0.81744 0.90933 0.21597 0.0
H56 H 0.82125 0.9476 0.32389 0.0
H57 H 0.87347 0.96585 0.20555 0.0
O58 O 0.85655 0.94227 0.38155 0.0
O59 O 0.88643 0.95572 0.32747 0.0
O60 O 0.8636 0.92232 0.22441 0.0
C61 C 0.8776 0.9571 0.37567 0.0
H62 H 0.89284 0.88964 0.40261 0.0
H63 H 0.82167 0.97864 0.254 0.0
H64 H 0.77599 0.88651 0.22477 0.0
H65 H 0.78399 0.88299 0.40642 0.0
Co66 Co 0.11609 0.9402 0.29971 0.0
C67 C 0.16054 0.97533 0.34223 0.0
C68 C 0.13543 0.98448 0.35872 0.0
C69 C 0.15564 1.00083 0.38139 0.0
N70 N 0.13843 0.96814 0.33529 0.0
N71 N 0.1713 0.99482 0.37113 0.0
H72 H 0.16893 0.96638 0.32836 0.0
H73 H 0.11956 0.98422 0.36151 0.0
C74 C 0.14524 0.96806 0.19808 0.0
O75 O 0.1621 0.9676 0.2233 0.0
N76 N 0.09418 0.91264 0.26382 0.0
C77 C 0.08486 0.89171 0.28624 0.0
C78 C 0.07013 0.87655 0.24699 0.0
C79 C 0.08532 0.91003 0.2113 0.0
N80 N 0.07064 0.88817 0.20005 0.0
C81 C 0.14361 0.92478 0.35087 0.0
C82 C 0.15473 0.90862 0.25582 0.0
C83 C 0.16145 0.90502 0.31001 0.0
C84 C 0.15583 0.91361 0.35747 0.0
C85 C 0.14225 0.92 0.25097 0.0
N86 N 0.13726 0.92845 0.29829 0.0
H87 H 0.13949 0.93088 0.38889 0.0
H88 H 0.13614 0.92148 0.20952 0.0
H89 H 0.08865 0.8877 0.328 0.0
H90 H 0.08926 0.92377 0.18209 0.0
O91 O 0.10304 0.92715 0.37387 0.0
O92 O 0.09123 0.94597 0.32303 0.0
O93 O 0.12546 0.95692 0.22081 0.0
C94 C 0.08883 0.93425 0.3693 0.0
H95 H 0.15815 1.01498 0.40749 0.0
H96 H 0.06012 0.85841 0.25202 0.0
H97 H 0.15834 0.90198 0.21782 0.0
H98 H 0.16078 0.91168 0.40009 0.0
Co99 Co 0.19831 0.09987 0.74354 0.0
C100 C 0.20524 0.06245 0.7063 0.0
C101 C 0.17149 0.05484 0.68919 0.0
C102 C 0.17425 0.03739 0.66907 0.0
N103 N 0.19122 0.07088 0.71138 0.0
N104 N 0.1956 0.04242 0.67968 0.0
H105 H 0.22258 0.07089 0.71989 0.0
H106 H 0.15638 0.056 0.6855 0.0
C107 C 0.19898 0.07292 0.84838 0.0
O108 O 0.21593 0.07236 0.82421 0.0
N109 N 0.20521 0.12831 0.77616 0.0
C110 C 0.22152 0.14903 0.7601 0.0
C111 C 0.22113 0.16471 0.79634 0.0
C112 C 0.19485 0.13151 0.82066 0.0
N113 N 0.20428 0.15357 0.83393 0.0
C114 C 0.24045 0.11231 0.69165 0.0
C115 C 0.26827 0.12979 0.7854 0.0
C116 C 0.27824 0.13164 0.73145 0.0
C117 C 0.26372 0.12255 0.68456 0.0
C118 C 0.24457 0.1191 0.79082 0.0
N119 N 0.23085 0.11007 0.74421 0.0
H120 H 0.22998 0.10601 0.65406 0.0
H121 H 0.23733 0.11876 0.83203 0.0
H122 H 0.23305 0.15243 0.72513 0.0
H123 H 0.18105 0.11795 0.84369 0.0
O124 O 0.19803 0.11174 0.66751 0.0
O125 O 0.16815 0.09524 0.72167 0.0
O126 O 0.19104 0.08454 0.82426 0.0
C127 C 0.17699 0.10554 0.67357 0.0
H128 H 0.16207 0.02307 0.64436 0.0
H129 H 0.23227 0.18281 0.79523 0.0
H130 H 0.27866 0.13673 0.82307 0.0
H131 H 0.27023 0.12399 0.64177 0.0
Co132 Co 0.94589 0.10672 0.75317 0.0
C133 C 0.98284 0.15014 0.71041 0.0
C134 C 0.99068 0.12369 0.70049 0.0
C135 C 1.00859 0.14359 0.68103 0.0
N136 N 0.97428 0.12776 0.71787 0.0
N137 N 1.00346 0.16013 0.68741 0.0
H138 H 0.97449 0.15942 0.72169 0.0
H139 H 0.98974 0.10743 0.70106 0.0
C140 C 0.97454 0.13595 0.85428 0.0
O141 O 0.97497 0.15319 0.82851 0.0
N142 N 0.91813 0.08605 0.78953 0.0
C143 C 0.89709 0.08021 0.77292 0.0
C144 C 0.88239 0.0674 0.81551 0.0
C145 C 0.91608 0.07668 0.84102 0.0
N146 N 0.89448 0.06543 0.85842 0.0
C147 C 0.93274 0.13594 0.7005 0.0
C148 C 0.91722 0.14808 0.79491 0.0
C149 C 0.91456 0.15554 0.74072 0.0
C150 C 0.92261 0.14915 0.69348 0.0
C151 C 0.92774 0.13483 0.80021 0.0
N152 N 0.93589 0.12931 0.75324 0.0
H153 H 0.93829 0.13108 0.66269 0.0
H154 H 0.92875 0.12848 0.84174 0.0
H155 H 0.89287 0.08572 0.73385 0.0
H156 H 0.93022 0.07839 0.86556 0.0
O157 O 0.93278 0.09359 0.67869 0.0
O158 O 0.94995 0.08062 0.7322 0.0
O159 O 0.96262 0.11605 0.83214 0.0
C160 C 0.9391 0.07877 0.68471 0.0
H161 H 1.02363 0.14548 0.66082 0.0
H162 H 0.8644 0.0609 0.81585 0.0
H163 H 0.91106 0.15224 0.83288 0.0
H164 H 0.92046 0.15363 0.65055 0.0
Co165 Co 0.93866 0.85455 0.74532 0.0
C166 C 0.89429 0.84768 0.71006 0.0
C167 C 0.92064 0.88005 0.68299 0.0
C168 C 0.9004 0.87692 0.66265 0.0
N169 N 0.91684 0.86133 0.71147 0.0
N170 N 0.88392 0.85635 0.67923 0.0
H171 H 0.88541 0.83087 0.72757 0.0
H172 H 0.93699 0.89453 0.67464 0.0
C173 C 0.91062 0.85239 0.85088 0.0
O174 O 0.8941 0.83387 0.82895 0.0
N175 N 0.96016 0.84794 0.77984 0.0
C176 C 0.96912 0.83616 0.75632 0.0
C177 C 0.98375 0.83518 0.79498 0.0
C178 C 0.96916 0.85376 0.83233 0.0
N179 N 0.98352 0.84611 0.84258 0.0
C180 C 0.90824 0.81251 0.69318 0.0
C181 C 0.90113 0.78399 0.78379 0.0
C182 C 0.89169 0.77439 0.73032 0.0
C183 C 0.89536 0.78919 0.68508 0.0
C184 C 0.91361 0.80774 0.79052 0.0
N185 N 0.91668 0.82182 0.74558 0.0
H186 H 0.91158 0.82328 0.65644 0.0
H187 H 0.92134 0.81475 0.83133 0.0
H188 H 0.96517 0.82865 0.71424 0.0
H189 H 0.96553 0.86358 0.86226 0.0
O190 O 0.95109 0.85427 0.6705 0.0
O191 O 0.96412 0.88483 0.72234 0.0
O192 O 0.92987 0.86202 0.82504 0.0
C193 C 0.96595 0.87539 0.67556 0.0
H194 H 0.89828 0.88795 0.63325 0.0
H195 H 0.99348 0.82681 0.78908 0.0
H196 H 0.89909 0.77326 0.81994 0.0
H197 H 0.88913 0.78282 0.64265 0.0
Co198 Co 0.78271 0.52585 0.6329 0.0
C199 C 0.7582 0.54022 0.70798 0.0
C200 C 0.73663 0.50645 0.67774 0.0
C201 C 0.72424 0.51265 0.71194 0.0
N202 N 0.75785 0.52394 0.67506 0.0
N203 N 0.73795 0.53393 0.73057 0.0
H204 H 0.77294 0.55629 0.71637 0.0
H205 H 0.73066 0.49041 0.6564 0.0
C206 C 0.74765 0.52242 0.54353 0.0
O207 O 0.74294 0.53462 0.57816 0.0
N208 N 0.80798 0.52823 0.59155 0.0
C209 C 0.82955 0.53883 0.6093 0.0
C210 C 0.84295 0.53979 0.56462 0.0
C211 C 0.80847 0.52271 0.53672 0.0
N212 N 0.82968 0.52976 0.51882 0.0
C213 C 0.81196 0.57115 0.6711 0.0
C214 C 0.80367 0.5953 0.59014 0.0
C215 C 0.81833 0.60722 0.63575 0.0
C216 C 0.82234 0.59453 0.67594 0.0
C217 C 0.7935 0.57142 0.5866 0.0
N218 N 0.79697 0.55937 0.62827 0.0
H219 H 0.81579 0.5627 0.70411 0.0
H220 H 0.78319 0.56301 0.55001 0.0
H221 H 0.83531 0.5461 0.65116 0.0
H222 H 0.79361 0.51397 0.51039 0.0
O223 O 0.7964 0.52443 0.70534 0.0
O224 O 0.77418 0.49439 0.65589 0.0
O225 O 0.76397 0.51885 0.55688 0.0
C226 C 0.78674 0.50276 0.70128 0.0
H227 H 0.70683 0.502 0.72423 0.0
H228 H 0.86112 0.54798 0.56562 0.0
H229 H 0.80039 0.60432 0.55699 0.0
H230 H 0.83316 0.60251 0.71243 0.0
Co231 Co 0.52643 0.26356 0.6396 0.0
C232 C 0.51797 0.22012 0.68846 0.0
C233 C 0.55187 0.24618 0.70437 0.0
C234 C 0.54835 0.22661 0.7305 0.0
N235 N 0.53252 0.24222 0.67916 0.0
N236 N 0.5269 0.21036 0.72066 0.0
H237 H 0.50074 0.21108 0.674 0.0
H238 H 0.56721 0.26232 0.70617 0.0
C239 C 0.52679 0.2334 0.54192 0.0
O240 O 0.51002 0.21643 0.56819 0.0
N241 N 0.52032 0.2844 0.59973 0.0
C242 C 0.50551 0.29096 0.615 0.0
C243 C 0.50394 0.30357 0.57133 0.0
C244 C 0.5277 0.29311 0.54769 0.0
N245 N 0.51779 0.30474 0.52894 0.0
C246 C 0.48355 0.23604 0.68981 0.0
C247 C 0.45681 0.22301 0.5935 0.0
C248 C 0.44627 0.21727 0.64749 0.0
C249 C 0.46022 0.22376 0.69562 0.0
C250 C 0.48062 0.23554 0.58943 0.0
N251 N 0.49378 0.24162 0.63749 0.0
H252 H 0.49355 0.24094 0.72833 0.0
H253 H 0.48837 0.24098 0.54796 0.0
H254 H 0.49583 0.28609 0.65404 0.0
H255 H 0.53982 0.2907 0.52383 0.0
O256 O 0.52557 0.27761 0.71161 0.0
O257 O 0.55654 0.28925 0.66296 0.0
O258 O 0.53458 0.25347 0.56283 0.0
C259 C 0.5468 0.29198 0.70781 0.0
H260 H 0.56003 0.22501 0.75865 0.0
H261 H 0.4928 0.31053 0.57007 0.0
H262 H 0.44677 0.21865 0.55493 0.0
H263 H 0.45318 0.21951 0.73817 0.0
Co264 Co 0.78186 0.27042 0.63876 0.0
C265 C 0.81976 0.28927 0.71776 0.0
C266 C 0.8106 0.31415 0.69567 0.0
C267 C 0.82842 0.32364 0.73339 0.0
N268 N 0.80581 0.29286 0.68457 0.0
N269 N 0.83411 0.30791 0.74677 0.0
H270 H 0.81888 0.27311 0.72252 0.0
H271 H 0.80167 0.32208 0.6779 0.0
C272 C 0.81248 0.30877 0.55269 0.0
O273 O 0.82889 0.31652 0.59015 0.0
N274 N 0.75768 0.24735 0.59393 0.0
C275 C 0.73784 0.23005 0.61207 0.0
C276 C 0.72661 0.21659 0.56616 0.0
C277 C 0.75826 0.24405 0.53747 0.0
N278 N 0.73951 0.22546 0.5195 0.0
C279 C 0.78996 0.23357 0.64655 0.0
C280 C 0.83452 0.25496 0.61394 0.0
C281 C 0.82549 0.23369 0.64064 0.0
C282 C 0.80252 0.22271 0.65443 0.0
C283 C 0.82118 0.26521 0.60617 0.0
N284 N 0.79942 0.25502 0.62524 0.0
H285 H 0.77273 0.22504 0.66104 0.0
H286 H 0.82903 0.28187 0.58844 0.0
H287 H 0.73189 0.22697 0.65557 0.0
H288 H 0.77232 0.25469 0.51018 0.0
O289 O 0.76751 0.25475 0.70996 0.0
O290 O 0.76073 0.27976 0.66998 0.0
O291 O 0.79352 0.29081 0.56484 0.0
C292 C 0.75663 0.26573 0.71224 0.0
H293 H 0.83574 0.34031 0.75215 0.0
H294 H 0.71008 0.20167 0.56685 0.0
H295 H 0.85207 0.26423 0.60179 0.0
H296 H 0.79426 0.20596 0.67289 0.0
Co297 Co 0.86237 0.43075 0.08092 0.0
C298 C 0.86402 0.38937 0.05227 0.0
C299 C 0.83067 0.38422 0.04463 0.0
C300 C 0.82988 0.36392 0.03595 0.0
N301 N 0.8522 0.40032 0.05417 0.0
N302 N 0.85092 0.3672 0.0412 0.0
H303 H 0.88177 0.39713 0.06087 0.0
H304 H 0.81633 0.38677 0.04508 0.0
C305 C 0.8632 0.40582 0.1897 0.0
O306 O 0.87947 0.40391 0.16593 0.0
N307 N 0.87188 0.46055 0.10867 0.0
C308 C 0.88883 0.48034 0.0893 0.0
C309 C 0.88958 0.49755 0.1217 0.0
C310 C 0.86221 0.46582 0.15108 0.0
N311 N 0.8727 0.48826 0.15993 0.0
C312 C 0.903 0.43852 0.02738 0.0
C313 C 0.93227 0.45949 0.11705 0.0
C314 C 0.94147 0.4598 0.06292 0.0
C315 C 0.92621 0.44869 1.01824 0.0
C316 C 0.90872 0.44895 0.12451 0.0
N317 N 0.89426 0.43851 0.07988 0.0
H318 H 0.89188 0.43111 0.99122 0.0
H319 H 0.90216 0.45023 0.16544 0.0
H320 H 0.89994 0.48209 0.05449 0.0
H321 H 0.84803 0.45345 0.1756 0.0
O322 O 0.86186 0.4411 1.00313 0.0
O323 O 0.83295 0.42815 0.06072 0.0
O324 O 0.85561 0.41745 0.1639 0.0
C325 C 0.84142 0.43682 1.01093 0.0
H326 H 0.81497 0.34812 1.02529 0.0
H327 H 0.90146 0.51542 0.11747 0.0
H328 H 0.94315 0.46777 0.15322 0.0
H329 H 0.93207 0.44875 0.97534 0.0
Co330 Co 0.61589 0.44154 0.08861 0.0
C331 C 0.65526 0.48444 0.05135 0.0
C332 C 0.66132 0.45672 0.04347 0.0
C333 C 0.68071 0.4763 0.02937 0.0
N334 N 0.64517 0.46179 0.0564 0.0
N335 N 0.67679 0.4937 0.03463 0.0
H336 H 0.64748 0.49436 0.06133 0.0
H337 H 0.65939 0.44003 0.04471 0.0
C338 C 0.64341 0.46916 0.19274 0.0
O339 O 0.64456 0.48685 0.16765 0.0
N340 N 0.5872 0.42139 0.12158 0.0
C341 C 0.56691 0.41808 0.10499 0.0
C342 C 0.55074 0.40217 0.14028 0.0
C343 C 0.58323 0.4073 0.16545 0.0
N344 N 0.56112 0.39542 0.17777 0.0
C345 C 0.60575 0.47297 0.03593 0.0
C346 C 0.58826 0.48383 0.12865 0.0
C347 C 0.58665 0.49198 0.07443 0.0
C348 C 0.59582 0.48634 0.02809 0.0
C349 C 0.5985 0.47036 0.13476 0.0
N350 N 0.60744 0.4653 0.08864 0.0
H351 H 0.61193 0.46846 0.9987 0.0
H352 H 0.59842 0.46326 0.17608 0.0
H353 H 0.56413 0.42671 0.06995 0.0
H354 H 0.59628 0.406 0.18833 0.0
O355 O 0.6032 0.42944 1.01333 0.0
O356 O 0.61883 0.4148 0.06658 0.0
O357 O 0.63148 0.4495 0.1692 0.0
C358 C 0.60835 0.41374 1.01896 0.0
H359 H 0.69621 0.47748 1.01456 0.0
H360 H 0.5328 0.39588 0.13829 0.0
H361 H 0.58136 0.48747 0.16603 0.0
H362 H 0.59455 0.49137 0.98506 0.0
Co363 Co 0.60752 0.18393 0.08543 0.0
C364 C 0.56344 0.17847 0.05305 0.0
C365 C 0.58985 0.21223 0.03716 0.0
C366 C 0.56965 0.21028 1.02036 0.0
N367 N 0.58595 0.19201 0.05654 0.0
N368 N 0.55311 0.18891 0.03025 0.0
H369 H 0.55445 0.16095 0.06539 0.0
H370 H 0.60621 0.22721 0.03352 0.0
C371 C 0.58043 0.1818 0.1927 0.0
O372 O 0.56296 0.16473 0.16861 0.0
N373 N 0.62885 0.17608 0.11465 0.0
C374 C 0.63272 0.15969 0.09562 0.0
C375 C 0.65038 0.16072 0.12621 0.0
C376 C 0.64434 0.18717 0.15518 0.0
N377 N 0.65769 0.17813 0.16305 0.0
C378 C 0.57721 0.1428 0.02947 0.0
C379 C 0.56737 0.1131 0.11896 0.0
C380 C 0.5596 0.10419 0.0639 0.0
C381 C 0.56449 0.1196 1.01935 0.0
C382 C 0.58031 0.13675 0.12739 0.0
N383 N 0.58487 0.1514 0.08286 0.0
H384 H 0.58106 0.15405 0.99356 0.0
H385 H 0.58739 0.14321 0.16909 0.0
H386 H 0.62348 0.14797 0.0616 0.0
H387 H 0.64575 0.2015 0.17854 0.0
O388 O 0.61938 0.18529 1.00849 0.0
O389 O 0.63325 0.21432 0.06632 0.0
O390 O 0.59983 0.19016 0.16781 0.0
C391 C 0.63453 0.20615 1.01689 0.0
H392 H 0.56755 0.2231 0.99862 0.0
H393 H 0.65753 0.14981 0.12128 0.0
H394 H 0.56435 0.10191 0.15473 0.0
H395 H 0.55871 0.11381 0.97631 0.0
Co396 Co 0.4405 0.85597 0.96501 0.0
C397 C 0.4041 0.86296 1.01005 0.0
C398 C 0.39702 0.82916 1.02537 0.0
C399 C 0.38 0.8318 0.04861 0.0
N400 N 0.41248 0.84897 1.00225 0.0
N401 N 0.38468 0.85317 0.03903 0.0
H402 H 0.412 0.88027 0.99601 0.0
H403 H 0.39827 0.81402 0.02726 0.0
C404 C 0.41016 0.85401 0.86405 0.0
O405 O 0.40792 0.86992 0.88926 0.0
N406 N 0.46797 0.8629 0.9272 0.0
C407 C 0.48905 0.87847 0.94255 0.0
C408 C 0.50355 0.87995 0.89994 0.0
C409 C 0.4698 0.85497 0.87635 0.0
N410 N 0.49132 0.86527 0.85823 0.0
C411 C 0.454 0.89854 1.01587 0.0
C412 C 0.4679 0.9257 0.92043 0.0
C413 C 0.47129 0.93606 0.9746 0.0
C414 C 0.46403 0.92185 1.02229 0.0
C415 C 0.4574 0.90186 0.91572 0.0
N416 N 0.45023 0.88849 0.96334 0.0
H417 H 0.449 0.88838 0.05409 0.0
H418 H 0.45573 0.89427 0.87418 0.0
H419 H 0.49343 0.88865 0.98086 0.0
H420 H 0.45558 0.84211 0.85284 0.0
O421 O 0.45477 0.85693 0.03821 0.0
O422 O 0.43667 0.82601 0.98802 0.0
O423 O 0.42334 0.84767 0.88677 0.0
C424 C 0.44853 0.83577 0.03378 0.0
H425 H 0.36619 0.8195 0.07427 0.0
H426 H 0.5215 0.89155 0.89882 0.0
H427 H 0.47344 0.93588 0.88213 0.0
H428 H 0.46671 0.92868 0.06512 0.0
Co429 Co 0.18914 0.5958 0.96498 0.0
C430 C 0.18124 0.55171 1.00774 0.0
C431 C 0.21521 0.57765 1.02336 0.0
C432 C 0.21205 0.55769 0.04624 0.0
N433 N 0.19561 0.57398 1.00036 0.0
N434 N 0.19056 0.54149 0.03659 0.0
H435 H 0.16394 0.54281 0.99388 0.0
H436 H 0.23052 0.59381 1.02571 0.0
C437 C 0.18969 0.56748 0.86315 0.0
O438 O 0.1731 0.54998 0.8884 0.0
N439 N 0.18275 0.61721 0.92942 0.0
C440 C 0.16643 0.62182 0.94386 0.0
C441 C 0.16703 0.6376 0.90632 0.0
C442 C 0.19332 0.63036 0.88439 0.0
N443 N 0.18399 0.64291 0.86935 0.0
C444 C 0.1464 0.56718 1.01492 0.0
C445 C 0.11948 0.55505 0.91898 0.0
C446 C 0.10905 0.54848 0.97295 0.0
C447 C 0.12309 0.55454 1.02087 0.0
C448 C 0.14327 0.56797 0.91477 0.0
N449 N 0.15653 0.57361 0.96261 0.0
H450 H 0.15648 0.57168 0.05328 0.0
H451 H 0.15091 0.57407 0.87346 0.0
H452 H 0.15475 0.61404 0.97876 0.0
H453 H 0.20719 0.63036 0.86237 0.0
O454 O 0.18851 0.60862 0.03923 0.0
O455 O 0.21924 0.62128 0.989 0.0
O456 O 0.19716 0.58722 0.88587 0.0
C457 C 0.20969 0.62325 0.03524 0.0
H458 H 0.22407 0.55571 0.07208 0.0
H459 H 0.15598 0.64468 0.90624 0.0
H460 H 0.10936 0.55106 0.88063 0.0
H461 H 0.11611 0.54968 0.06335 0.0
Co462 Co 0.45156 0.60444 0.97253 0.0
C463 C 0.49187 0.6256 0.04334 0.0
C464 C 0.48133 0.64946 1.02172 0.0
C465 C 0.49995 0.6599 0.05673 0.0
N466 N 0.47678 0.62816 1.01219 0.0
N467 N 0.5065 0.64478 0.07006 0.0
H468 H 0.49143 0.60968 0.04898 0.0
H469 H 0.47154 0.65668 1.00531 0.0
C470 C 0.4798 0.64045 0.87942 0.0
O471 O 0.49715 0.64888 0.9141 0.0
N472 N 0.42582 0.57983 0.93493 0.0
C473 C 0.40885 0.56155 0.96062 0.0
C474 C 0.39412 0.54765 0.92011 0.0
C475 C 0.4211 0.57664 0.87867 0.0
N476 N 0.40174 0.55716 0.86872 0.0
C477 C 0.46044 0.56817 0.98515 0.0
C478 C 0.50344 0.58814 0.94153 0.0
C479 C 0.49563 0.56805 0.97327 0.0
C480 C 0.47332 0.55767 0.99247 0.0
C481 C 0.4897 0.59801 0.93416 0.0
N482 N 0.46879 0.58864 0.9586 0.0
H483 H 0.44404 0.56025 1.00453 0.0
H484 H 0.49666 0.6138 0.91205 0.0
H485 H 0.40716 0.55801 1.00579 0.0
H486 H 0.43129 0.58838 0.84576 0.0
O487 O 0.4394 0.59083 0.04677 0.0
O488 O 0.43116 0.61453 1.00554 0.0
O489 O 0.46112 0.62278 0.89507 0.0
C490 C 0.42787 0.60114 0.04882 0.0
H491 H 0.50709 0.67674 0.07435 0.0
H492 H 0.37901 0.53167 0.92792 0.0
H493 H 0.52042 0.59687 0.92491 0.0
H494 H 0.46585 0.54172 1.01494 0.0
Co495 Co 0.52864 0.76603 0.4138 0.0
C496 C 0.53243 0.72656 0.37729 0.0
C497 C 0.49869 0.72027 0.36937 0.0
C498 C 0.49881 0.70059 0.3576 0.0
N499 N 0.51989 0.73671 0.38115 0.0
N500 N 0.52009 0.70463 0.3631 0.0
H501 H 0.55009 0.7345 0.38734 0.0
H502 H 0.48392 0.7221 0.37076 0.0
C503 C 0.52861 0.73845 0.51801 0.0
O504 O 0.54524 0.73749 0.49321 0.0
N505 N 0.53682 0.79467 0.44736 0.0
C506 C 0.5537 0.81517 0.43184 0.0
C507 C 0.55375 0.83109 0.46804 0.0
C508 C 0.52654 0.79826 0.49142 0.0
N509 N 0.53658 0.82033 0.50497 0.0
C510 C 0.57029 0.7764 0.36218 0.0
C511 C 0.59832 0.79432 0.45545 0.0
C512 C 0.6082 0.79595 0.4015 0.0
C513 C 0.59356 0.78653 0.35489 0.0
C514 C 0.57465 0.78383 0.46103 0.0
N515 N 0.56081 0.77471 0.41463 0.0
H516 H 0.55971 0.77008 0.32474 0.0
H517 H 0.56753 0.78388 0.50215 0.0
H518 H 0.56525 0.81827 0.39708 0.0
H519 H 0.51225 0.78495 0.51369 0.0
O520 O 0.52938 0.77887 0.33863 0.0
O521 O 0.49904 0.76291 0.39108 0.0
O522 O 0.52085 0.75031 0.49421 0.0
C523 C 0.50854 0.77357 0.34381 0.0
H524 H 0.4844 0.68468 0.34509 0.0
H525 H 0.56532 0.84912 0.46711 0.0
H526 H 0.60874 0.80141 0.49299 0.0
H527 H 0.59997 0.78777 0.31207 0.0
Co528 Co 0.27995 0.77528 0.40941 0.0
C529 C 0.31854 0.81839 0.37701 0.0
C530 C 0.32091 0.79122 0.33808 0.0
C531 C 0.33874 0.81143 0.32015 0.0
N532 N 0.30794 0.79571 0.37262 0.0
N533 N 0.33698 0.82845 0.34416 0.0
H534 H 0.31215 0.82759 0.40068 0.0
H535 H 0.31724 0.77462 0.3244 0.0
C536 C 0.31323 0.78421 0.50369 0.0
O537 O 0.31927 0.7726 0.47076 0.0
N538 N 0.25247 0.7554 0.44785 0.0
C539 C 0.2314 0.75011 0.43319 0.0
C540 C 0.21701 0.73697 0.47587 0.0
C541 C 0.25077 0.74539 0.49821 0.0
N542 N 0.22932 0.7342 0.51682 0.0
C543 C 0.26883 0.80552 0.35417 0.0
C544 C 0.25301 0.81823 0.44707 0.0
C545 C 0.25054 0.82539 0.39226 0.0
C546 C 0.25904 0.819 0.34586 0.0
C547 C 0.26326 0.80479 0.45371 0.0
N548 N 0.27079 0.79838 0.40727 0.0
H549 H 0.27453 0.80037 0.31713 0.0
H550 H 0.26429 0.7988 0.49571 0.0
H551 H 0.22695 0.75601 0.39516 0.0
H552 H 0.26505 0.74647 0.52077 0.0
O553 O 0.26574 0.76103 0.33717 0.0
O554 O 0.28367 0.74871 0.38999 0.0
O555 O 0.29671 0.78684 0.48694 0.0
C556 C 0.27173 0.74601 0.34388 0.0
H557 H 0.35072 0.81344 0.28738 0.0
H558 H 0.19906 0.73062 0.47741 0.0
H559 H 0.24685 0.82273 0.48448 0.0
H560 H 0.25734 0.82356 0.30263 0.0
Co561 Co 0.2725 0.51935 0.40843 0.0
C562 C 0.22817 0.5114 0.36948 0.0
C563 C 0.25382 0.54535 0.35192 0.0
C564 C 0.23348 0.54229 0.33244 0.0
N565 N 0.25051 0.52571 0.37409 0.0
N566 N 0.21745 0.52082 0.34346 0.0
H567 H 0.21956 0.49406 0.38337 0.0
H568 H 0.2699 0.56069 0.34839 0.0
C569 C 0.24354 0.51714 0.51193 0.0
O570 O 0.22673 0.49949 0.48762 0.0
N571 N 0.29411 0.51307 0.44312 0.0
C572 C 0.30329 0.50135 0.42042 0.0
C573 C 0.3181 0.5009 0.45948 0.0
C574 C 0.30319 0.51945 0.49521 0.0
N575 N 0.31774 0.51214 0.50628 0.0
C576 C 0.24408 0.47704 0.35512 0.0
C577 C 0.2344 0.44888 0.44795 0.0
C578 C 0.22709 0.43903 0.39346 0.0
C579 C 0.23195 0.45369 0.34713 0.0
C580 C 0.24669 0.47266 0.4542 0.0
N581 N 0.25102 0.48653 0.40805 0.0
H582 H 0.24789 0.48768 0.31794 0.0
H583 H 0.25327 0.47988 0.49572 0.0
H584 H 0.29934 0.49353 0.37869 0.0
H585 H 0.29939 0.52936 0.52443 0.0
O586 O 0.28564 0.51985 0.33415 0.0
O587 O 0.29768 0.54997 0.38742 0.0
O588 O 0.26315 0.52621 0.48805 0.0
C589 C 0.30021 0.541 0.34068 0.0
H590 H 0.23098 0.55439 0.30837 0.0
H591 H 0.32792 0.49257 0.45459 0.0
H592 H 0.23143 0.43833 0.48509 0.0
H593 H 0.22653 0.4472 0.30437 0.0
H594 H 0.16237 0.14039 0.87048 0.0
H595 H 0.2027 0.20643 0.16277 0.0
H596 H 0.23236 0.18749 0.90392 0.0
H597 H 0.13573 0.18143 0.09483 0.0
H598 H 0.21426 0.19867 0.07075 0.0
H599 H 0.15218 0.15387 0.95574 0.0
C600 C 0.17554 0.15369 0.89582 0.0
C601 C 0.19817 0.16284 0.88073 0.0
C602 C 0.19709 0.19506 0.07614 0.0
C603 C 0.18682 0.17818 0.97814 0.0
C604 C 0.19047 0.19949 0.12859 0.0
C605 C 0.1681 0.19424 0.13705 0.0
C606 C 0.18115 0.18513 0.03224 0.0
C607 C 0.15296 0.18515 0.09113 0.0
C608 C 0.16976 0.16145 0.94416 0.0
C609 C 0.21471 0.18017 0.91431 0.0
N610 N 0.15972 0.18069 0.04093 0.0
N611 N 0.20872 0.18713 0.96212 0.0
H612 H 0.8524 0.03169 0.88522 0.0
H613 H 0.89174 1.00745 0.1804 0.0
H614 H 0.91826 0.07535 0.95714 0.0
H615 H 0.82162 0.98289 0.14437 0.0
H616 H 0.90186 0.03134 0.09559 0.0
H617 H 0.84029 1.01246 0.97745 0.0
C618 C 0.86424 0.03736 0.92036 0.0
C619 C 0.88652 0.05485 0.91301 0.0
C620 C 0.88425 0.02093 0.1065 0.0
C621 C 0.87289 0.03288 1.01788 0.0
C622 C 0.87853 1.00728 0.15457 0.0
C623 C 0.85589 0.99327 0.16879 0.0
C624 C 0.86716 0.02018 0.07186 0.0
C625 C 0.83927 0.99364 0.13461 0.0
C626 C 0.85733 0.02639 0.97288 0.0
C627 C 0.90117 0.06149 0.96007 0.0
N628 N 0.84522 1.0067 0.087 0.0
N629 N 0.89416 0.05034 1.01026 0.0
H630 H 1.02726 0.85531 0.19082 0.0
H631 H 1.02678 0.85611 0.85105 0.0
H632 H 0.0856 0.90074 0.09265 0.0
H633 H 0.96862 0.84306 0.95023 0.0
H634 H 0.04866 0.86387 0.93974 0.0
H635 H 1.00539 0.84189 0.10196 0.0
C636 C 0.03545 0.86221 0.15039 0.0
C637 C 0.05808 0.87921 0.14853 0.0
C638 C 0.03106 0.85913 0.9419 0.0
C639 C 0.03355 0.86394 0.0478 0.0
C640 C 1.01863 0.85463 0.89165 0.0
C641 C 0.99606 0.84918 0.89389 0.0
C642 C 1.02059 0.85766 0.99438 0.0
C643 C 0.98612 0.84753 0.94716 0.0
C644 C 1.02303 0.85468 0.10005 0.0
C645 C 0.06807 0.88781 0.09547 0.0
N646 N 0.99847 0.85173 0.99555 0.0
N647 N 0.05572 0.88003 0.04694 0.0
H648 H 0.89632 0.93099 0.13976 0.0
H649 H 0.87481 0.82998 0.92218 0.0
H650 H 0.83837 0.86405 0.13729 0.0
H651 H 0.93377 0.89568 0.90385 0.0
H652 H 0.86312 0.84362 1.00309 0.0
H653 H 0.91151 0.92044 0.0563 0.0
C654 C 0.88664 0.91422 0.12175 0.0
C655 C 0.86584 0.89851 0.14661 0.0
C656 C 0.87868 0.85526 0.98195 0.0
C657 C 0.88343 0.88614 0.05067 0.0
C658 C 0.88553 0.84738 0.93511 0.0
C659 C 0.90547 0.86151 0.90488 0.0
C660 C 0.89161 0.87779 1.00045 0.0
C661 C 0.91835 0.88394 0.92536 0.0
C662 C 0.89544 0.90815 0.07406 0.0
C663 C 0.85442 0.87696 0.12079 0.0
N664 N 0.9112 0.89136 0.97144 0.0
N665 N 0.86327 0.87158 0.07527 0.0
H666 H 0.15763 0.05871 0.90593 0.0
H667 H 0.18307 0.9847 0.13277 0.0
H668 H 0.21804 0.05412 0.91498 0.0
H669 H 0.12032 0.98489 0.13918 0.0
H670 H 0.19458 1.01002 0.05178 0.0
H671 H 0.1427 0.03285 0.9892 0.0
C672 C 0.16789 0.05257 0.92539 0.0
C673 C 0.18932 0.05891 0.90245 0.0
C674 C 0.17822 1.00465 0.07031 0.0
C675 C 0.17207 0.02885 0.99817 0.0
C676 C 0.17149 0.98994 0.11718 0.0
C677 C 0.15053 0.9823 0.14405 0.0
C678 C 0.16414 1.0124 0.0485 0.0
C679 C 0.13657 0.99004 0.12032 0.0
C680 C 0.15925 0.03762 0.97294 0.0
C681 C 0.2015 0.04997 0.93001 0.0
N682 N 0.14361 1.00464 0.07433 0.0
N683 N 0.19279 0.03566 0.97542 0.0
H684 H 0.99017 0.1099 0.91206 0.0
H685 H 0.0604 0.2093 0.14196 0.0
H686 H 0.99254 0.17408 0.91992 0.0
H687 H 0.06681 0.14968 0.13884 0.0
H688 H 0.03479 0.19486 0.06143 0.0
H689 H 1.0164 0.12173 0.99475 0.0
C690 C 0.99591 0.12631 0.93118 0.0
C691 C 0.98883 0.14089 0.90808 0.0
C692 C 0.04171 0.18477 0.07776 0.0
C693 C 1.01926 0.15472 1.00325 0.0
C694 C 0.05657 0.19311 0.12434 0.0
C695 C 0.06616 0.1809 0.14832 0.0
C696 C 0.03575 0.16366 0.05347 0.0
C697 C 0.06014 0.15993 0.1222 0.0
C698 C 1.01108 0.13315 0.97836 0.0
C699 C 0.99728 0.16206 0.93515 0.0
N700 N 0.04534 0.15198 0.07665 0.0
N701 N 1.01176 0.16816 0.98039 0.0
H702 H 0.80506 0.51916 0.42034 0.0
H703 H 0.90221 0.52223 0.22743 0.0
H704 H 0.87064 0.53609 0.48632 0.0
H705 H 0.83149 0.47923 0.19293 0.0
H706 H 0.89263 0.53694 0.31215 0.0
H707 H 0.81654 0.51344 0.32671 0.0
C708 C 0.82183 0.52166 0.41563 0.0
C709 C 0.8367 0.5277 0.46222 0.0
C710 C 0.87926 0.52452 0.28546 0.0
C711 C 0.85007 0.52178 0.35417 0.0
C712 C 0.8847 0.5163 0.23719 0.0
C713 C 0.86755 0.49941 0.20406 0.0
C714 C 0.85654 0.51595 0.2997 0.0
C715 C 0.8451 0.49204 0.21823 0.0
C716 C 0.8284 0.51857 0.36181 0.0
C717 C 0.85851 0.53141 0.45217 0.0
N718 N 0.8402 0.50029 0.26527 0.0
N719 N 0.86449 0.52826 0.39926 0.0
H720 H 0.52702 0.38982 0.24622 0.0
H721 H 0.53241 0.29473 0.43144 0.0
H722 H 0.57249 0.36484 0.21197 0.0
H723 H 0.50934 0.33836 0.5 0.0
H724 H 0.53965 0.31435 0.34063 0.0
H725 H 0.51265 0.36471 0.32947 0.0
C726 C 0.53368 0.37877 0.2559 0.0
C727 C 0.55104 0.37941 0.22299 0.0
C728 C 0.53292 0.31954 0.37558 0.0
C729 C 0.53484 0.35089 0.31696 0.0
C730 C 0.52894 0.30848 0.42767 0.0
C731 C 0.5207 0.31522 0.47401 0.0
C732 C 0.52846 0.33734 0.36952 0.0
C733 C 0.51573 0.33262 0.46558 0.0
C734 C 0.52563 0.36463 0.30333 0.0
C735 C 0.55932 0.36498 0.23706 0.0
N736 N 0.51983 0.34321 0.41433 0.0
N737 N 0.55116 0.3513 0.28316 0.0
H738 H 0.71419 0.18231 0.48346 0.0
H739 H 0.6876 0.22083 0.1932 0.0
H740 H 0.75104 0.25117 0.42433 0.0
H741 H 0.66754 0.15133 0.22709 0.0
H742 H 0.71365 0.23237 0.27388 0.0
H743 H 0.69944 0.17016 0.38695 0.0
C744 C 0.71934 0.1948 0.4499 0.0
C745 C 0.73349 0.21777 0.46183 0.0
C746 C 0.70388 0.21461 0.26316 0.0
C747 C 0.71674 0.20414 0.35186 0.0
C748 C 0.68896 0.20807 0.21744 0.0
C749 C 0.67528 0.18514 0.20448 0.0
C750 C 0.70471 0.19802 0.29676 0.0
C751 C 0.67782 0.16917 0.23618 0.0
C752 C 0.7111 0.18788 0.39483 0.0
C753 C 0.7401 0.2333 0.41684 0.0
N754 N 0.69195 0.17588 0.28177 0.0
N755 N 0.73133 0.22624 0.36394 0.0
H756 H 0.60543 0.22465 0.24603 0.0
H757 H 0.50867 0.19343 0.48397 0.0
H758 H 0.54466 0.16046 0.26487 0.0
H759 H 0.56657 0.26035 0.4776 0.0
H760 H 0.52325 0.18244 0.40362 0.0
H761 H 0.59387 0.23891 0.32955 0.0
C762 C 0.58988 0.21341 0.26784 0.0
C763 C 0.57614 0.19113 0.24751 0.0
C764 C 0.53296 0.1996 0.41923 0.0
C765 C 0.56255 0.20759 0.34349 0.0
C766 C 0.52453 0.20603 0.46576 0.0
C767 C 0.5362 0.22802 0.48884 0.0
C768 C 0.55359 0.21505 0.39388 0.0
C769 C 0.55674 0.24324 0.46182 0.0
C770 C 0.58318 0.22167 0.31546 0.0
C771 C 0.556 0.17771 0.27788 0.0
N772 N 0.56476 0.2365 0.41619 0.0
N773 N 0.54998 0.18606 0.32334 0.0
H774 H 0.88691 0.39941 0.27353 0.0
H775 H 0.78317 0.309 0.46695 0.0
H776 H 0.81902 0.38308 0.23447 0.0
H777 H 0.85358 0.33886 0.50906 0.0
H778 H 0.79391 0.33328 0.38048 0.0
H779 H 0.87339 0.37568 0.35806 0.0
C780 C 0.86908 0.39105 0.28303 0.0
C781 C 0.85428 0.39373 0.24631 0.0
C782 C 0.80695 0.33444 0.4088 0.0
C783 C 0.83815 0.3653 0.34478 0.0
C784 C 0.80081 0.32041 0.45819 0.0
C785 C 0.81737 0.32163 0.49641 0.0
C786 C 0.82988 0.34974 0.39682 0.0
C787 C 0.83996 0.33706 0.482 0.0
C788 C 0.86127 0.37727 0.33168 0.0
C789 C 0.83125 0.38201 0.26161 0.0
N790 N 0.84537 0.35019 0.43423 0.0
N791 N 0.8239 0.36825 0.30913 0.0
H792 H 0.65177 0.50132 0.27255 0.0
H793 H 0.7437 0.48929 0.46421 0.0
H794 H 0.66649 0.44805 0.2391 0.0
H795 H 0.71794 0.53415 0.49907 0.0
H796 H 0.71767 0.47413 0.38132 0.0
H797 H 0.67691 0.51304 0.35457 0.0
C798 C 0.66009 0.49181 0.28272 0.0
C799 C 0.65655 0.47342 0.24822 0.0
C800 C 0.71778 0.48731 0.40721 0.0
C801 C 0.6866 0.48744 0.3439 0.0
C802 C 0.73281 0.49612 0.45456 0.0
C803 C 0.73334 0.51323 0.48961 0.0
C804 C 0.70314 0.4957 0.39409 0.0
C805 C 0.71847 0.52106 0.47428 0.0
C806 C 0.67468 0.49865 0.32996 0.0
C807 C 0.66824 0.46208 0.26445 0.0
N808 N 0.7043 0.51238 0.42848 0.0
N809 N 0.68278 0.46933 0.31055 0.0
H810 H 0.4946 0.80841 0.53829 0.0
H811 H 0.53356 0.87411 0.83146 0.0
H812 H 0.56461 0.85385 0.57604 0.0
H813 H 0.46709 0.84935 0.76057 0.0
H814 H 0.54571 0.86642 0.74015 0.0
H815 H 0.48416 0.82238 0.62208 0.0
C816 C 0.50773 0.82146 0.56428 0.0
C817 C 0.53043 0.82996 0.55087 0.0
C818 C 0.52852 0.86286 0.7447 0.0
C819 C 0.51878 0.84589 0.64666 0.0
C820 C 0.52158 0.86725 0.79673 0.0
C821 C 0.49916 0.862 0.80413 0.0
C822 C 0.51286 0.85299 0.70017 0.0
C823 C 0.48433 0.85304 0.75761 0.0
C824 C 0.50182 0.82951 0.61179 0.0
C825 C 0.54691 0.84701 0.58518 0.0
N826 N 0.4914 0.84863 0.70784 0.0
N827 N 0.54077 0.85426 0.63221 0.0
H828 H 0.22608 0.67067 0.83198 0.0
H829 H 0.18696 0.70104 0.5438 0.0
H830 H 0.1564 0.64949 0.79926 0.0
H831 H 0.25402 0.74104 0.61306 0.0
H832 H 0.17505 0.68034 0.63397 0.0
H833 H 0.23671 0.69484 0.74763 0.0
C834 C 0.21307 0.67122 0.80692 0.0
C835 C 0.19039 0.65813 0.82209 0.0
C836 C 0.19233 0.69377 0.62927 0.0
C837 C 0.20227 0.68548 0.72584 0.0
C838 C 0.19913 0.70561 0.57791 0.0
C839 C 0.22163 0.72258 0.57036 0.0
C840 C 0.20819 0.69883 0.67291 0.0
C841 C 0.23669 0.72768 0.61608 0.0
C842 C 0.2191 0.68506 0.75913 0.0
C843 C 0.17409 0.65951 0.78887 0.0
N844 N 0.22974 0.71571 0.66517 0.0
N845 N 0.18032 0.6728 0.7417 0.0
H846 H 0.30111 0.50867 0.61138 0.0
H847 H 0.42047 0.56336 0.76339 0.0
H848 H 0.36112 0.52271 0.51955 0.0
H849 H 0.35696 0.53186 0.85254 0.0
H850 H 0.39997 0.54945 0.67285 0.0
H851 H 0.32207 0.51754 0.70059 0.0
C852 C 0.31877 0.51355 0.61039 0.0
C853 C 0.32959 0.51522 0.55864 0.0
C854 C 0.39063 0.54543 0.71246 0.0
C855 C 0.35376 0.52552 0.65995 0.0
C856 C 0.40227 0.5535 0.76386 0.0
C857 C 0.39036 0.54875 0.81535 0.0
C858 C 0.36702 0.53281 0.71302 0.0
C859 C 0.36684 0.53569 0.81396 0.0
C860 C 0.33072 0.51852 0.66113 0.0
C861 C 0.35235 0.52126 0.55905 0.0
N862 N 0.35595 0.5283 0.76361 0.0
N863 N 0.36388 0.52653 0.60917 0.0
H864 H 0.22963 0.59563 0.8011 0.0
H865 H 0.20703 0.49488 0.58123 0.0
H866 H 0.17216 0.52837 0.8014 0.0
H867 H 0.26742 0.5597 0.56771 0.0
H868 H 0.19549 0.50839 0.66285 0.0
H869 H 0.24463 0.5849 0.71758 0.0
C870 C 0.22003 0.57874 0.78373 0.0
C871 C 0.19941 0.563 0.80933 0.0
C872 C 0.21135 0.51986 0.64263 0.0
C873 C 0.21674 0.55046 0.7132 0.0
C874 C 0.21808 0.51205 0.59541 0.0
C875 C 0.23839 0.52598 0.56638 0.0
C876 C 0.22473 0.54212 0.66258 0.0
C877 C 0.25171 0.54812 0.58831 0.0
C878 C 0.22871 0.57257 0.736 0.0
C879 C 0.18807 0.5413 0.78428 0.0
N880 N 0.24464 0.5555 0.63462 0.0
N881 N 0.19678 0.53585 0.73858 0.0
H882 H 0.4869 0.72305 0.57496 0.0
H883 H 0.518 0.65811 0.81655 0.0
H884 H 0.54898 0.72169 0.58682 0.0
H885 H 0.45163 0.65015 0.81009 0.0
H886 H 0.52828 0.68154 0.73166 0.0
H887 H 0.47283 0.69782 0.65959 0.0
C888 C 0.49771 0.71776 0.59533 0.0
C889 C 0.51935 0.72484 0.57282 0.0
C890 C 0.51135 0.67467 0.748 0.0
C891 C 0.50311 0.6955 0.67014 0.0
C892 C 0.50536 0.66103 0.7969 0.0
C893 C 0.48376 0.65172 0.82124 0.0
C894 C 0.49589 0.67977 0.72193 0.0
C895 C 0.46837 0.65653 0.79293 0.0
C896 C 0.48955 0.70313 0.6436 0.0
C897 C 0.53223 0.71694 0.60151 0.0
N898 N 0.47474 0.67029 0.74532 0.0
N899 N 0.52401 0.70298 0.64772 0.0
H900 H 0.40963 0.82118 0.79058 0.0
H901 H 0.31107 0.81414 0.58249 0.0
H902 H 0.37844 0.86201 0.81337 0.0
H903 H 0.34633 0.77769 0.55143 0.0
H904 H 0.33441 0.83073 0.6687 0.0
H905 H 0.38597 0.80426 0.70506 0.0
C906 C 0.39791 0.82668 0.77789 0.0
C907 C 0.39635 0.84327 0.81015 0.0
C908 C 0.33702 0.81906 0.64306 0.0
C909 C 0.3687 0.82359 0.71114 0.0
C910 C 0.32356 0.80948 0.59362 0.0
C911 C 0.32647 0.79432 0.55867 0.0
C912 C 0.35365 0.81351 0.65862 0.0
C913 C 0.34323 0.78922 0.57623 0.0
C914 C 0.38431 0.81694 0.72876 0.0
C915 C 0.38058 0.84943 0.79057 0.0
N916 N 0.35597 0.79865 0.62427 0.0
N917 N 0.36754 0.83969 0.74312 0.0
H918 H 0.19392 0.40465 0.45852 0.0
H919 H 0.17781 0.30431 0.24728 0.0
H920 H 0.23262 0.41567 0.30489 0.0
H921 H 0.13475 0.29437 0.39145 0.0
H922 H 0.19824 0.34498 0.26777 0.0
H923 H 0.17309 0.36405 0.4368 0.0
C924 C 0.19819 0.3986 0.42048 0.0
C925 C 0.21503 0.41387 0.3834 0.0
C926 C 0.18429 0.33388 0.29488 0.0
C927 C 0.19099 0.36711 0.3578 0.0
C928 C 0.17244 0.31059 0.28285 0.0
C929 C 0.15452 0.29556 0.31783 0.0
C930 C 0.1783 0.34243 0.34235 0.0
C931 C 0.14869 0.305 0.36377 0.0
C932 C 0.18615 0.37537 0.4078 0.0
C933 C 0.21956 0.40479 0.33442 0.0
N934 N 0.16052 0.32762 0.37474 0.0
N935 N 0.20769 0.38219 0.32315 0.0
H936 H 0.74261 0.84795 0.25353 0.0
H937 H 0.64152 0.83404 0.45651 0.0
H938 H 0.75239 0.88948 0.40135 0.0
H939 H 0.6329 0.78633 0.32438 0.0
H940 H 0.68185 0.85517 0.43508 0.0
H941 H 0.70207 0.82656 0.27481 0.0
C942 C 0.73628 0.85272 0.29013 0.0
C943 C 0.75117 0.87051 0.32584 0.0
C944 C 0.67113 0.84005 0.41079 0.0
C945 C 0.70456 0.84592 0.35084 0.0
C946 C 0.64801 0.82779 0.42341 0.0
C947 C 0.63339 0.80826 0.3922 0.0
C948 C 0.67998 0.83293 0.36637 0.0
C949 C 0.64315 0.80145 0.34909 0.0
C950 C 0.71311 0.84037 0.30258 0.0
C951 C 0.74179 0.87572 0.37298 0.0
N952 N 0.66562 0.81373 0.33742 0.0
N953 N 0.71927 0.86356 0.38399 0.0
H954 H 0.25999 0.85899 0.31294 0.0
H955 H 0.15375 0.87333 0.39223 0.0
H956 H 0.21304 0.82169 0.44727 0.0
H957 H 0.19713 0.90691 0.24911 0.0
H958 H 0.17558 0.85484 0.41325 0.0
H959 H 0.23806 0.87732 0.29053 0.0
C960 C 0.24506 0.85456 0.33786 0.0
C961 C 0.23841 0.83845 0.38202 0.0
C962 C 0.18037 0.86619 0.37713 0.0
C963 C 0.21308 0.85985 0.35639 0.0
C964 C 0.1679 0.87686 0.36505 0.0
C965 C 0.17363 0.89199 0.31897 0.0
C966 C 0.19898 0.87056 0.34317 0.0
C967 C 0.19195 0.89539 0.2849 0.0
C968 C 0.23254 0.86516 0.32496 0.0
C969 C 0.2191 0.83403 0.41326 0.0
N970 N 0.20402 0.88492 0.29788 0.0
N971 N 0.20717 0.84455 0.39975 0.0
H972 H 0.41288 0.18075 0.58772 0.0
H973 H 0.3116 0.16997 0.78531 0.0
H974 H 0.42198 0.22611 0.72626 0.0
H975 H 0.30272 0.12126 0.65582 0.0
H976 H 0.35192 0.19088 0.76348 0.0
H977 H 0.37231 0.15965 0.60877 0.0
C978 C 0.40639 0.18643 0.62215 0.0
C979 C 0.4211 0.2052 0.65547 0.0
C980 C 0.34115 0.17559 0.73985 0.0
C981 C 0.37448 0.18091 0.68034 0.0
C982 C 0.31805 0.16347 0.75273 0.0
C983 C 0.3034 0.14374 0.72232 0.0
C984 C 0.34993 0.16808 0.69609 0.0
C985 C 0.31306 0.13654 0.6799 0.0
C986 C 0.3832 0.17425 0.63451 0.0
C987 C 0.41152 0.21156 0.69989 0.0
N988 N 0.33552 0.14866 0.66802 0.0
N989 N 0.38902 0.1995 0.71097 0.0
H990 H 0.87765 0.15252 0.79775 0.0
H991 H 0.86249 0.23642 0.58429 0.0
H992 H 0.92423 0.18942 0.6624 0.0
H993 H 0.82157 0.20725 0.73419 0.0
H994 H 0.88498 0.21909 0.61161 0.0
H995 H 0.85689 0.17225 0.77544 0.0
C996 C 0.88373 0.1649 0.76381 0.0
C997 C 0.90275 0.16899 0.73175 0.0
C998 C 0.87106 0.21647 0.63852 0.0
C999 C 0.87862 0.19153 0.70509 0.0
C1000 C 0.85819 0.2265 0.62301 0.0
C1001 C 0.83975 0.22329 0.65639 0.0
C1002 C 0.8656 0.203 0.68792 0.0
C1003 C 0.83514 0.20991 0.70594 0.0
C1004 C 0.87171 0.17608 0.75074 0.0
C1005 C 0.90946 0.18518 0.68773 0.0
N1006 N 0.84783 0.20029 0.71991 0.0
N1007 N 0.89742 0.19565 0.67561 0.0
H1008 H 0.85267 0.74911 0.66866 0.0
H1009 H 0.86136 0.63639 0.67347 0.0
H1010 H 0.90253 0.74237 0.76556 0.0
H1011 H 0.80143 0.63623 0.61607 0.0
H1012 H 0.87798 0.67613 0.69873 0.0
H1013 H 0.83483 0.70902 0.64267 0.0
C1014 C 0.85983 0.73919 0.6848 0.0
C1015 C 0.87924 0.74932 0.71952 0.0
C1016 C 0.86119 0.66748 0.68063 0.0
C1017 C 0.85889 0.70316 0.68898 0.0
C1018 C 0.85158 0.64464 0.6661 0.0
C1019 C 0.82963 0.63251 0.64335 0.0
C1020 C 0.84908 0.6788 0.6719 0.0
C1021 C 0.81834 0.64468 0.63335 0.0
C1022 C 0.84958 0.71625 0.66989 0.0
C1023 C 0.88754 0.73542 0.73926 0.0
N1024 N 0.82812 0.66705 0.64784 0.0
N1025 N 0.87749 0.71323 0.72335 0.0
H1026 H 0.07588 0.51192 0.91278 0.0
H1027 H 0.97445 0.49966 0.11182 0.0
H1028 H 0.0846 0.5565 0.05286 0.0
H1029 H 0.96623 0.44963 0.98696 0.0
H1030 H 1.01447 0.52124 0.08817 0.0
H1031 H 0.03534 0.49015 0.93446 0.0
C1032 C 0.0693 0.51729 0.94766 0.0
C1033 C 0.08389 0.53604 0.98122 0.0
C1034 C 1.00393 0.50551 0.06594 0.0
C1035 C 0.03734 0.51104 1.0067 0.0
C1036 C 0.98096 0.49299 0.07988 0.0
C1037 C 0.96653 0.4726 0.05153 0.0
C1038 C 1.01285 0.49783 1.02301 0.0
C1039 C 0.97632 0.46534 1.00958 0.0
C1040 C 0.04615 0.50474 0.96037 0.0
C1041 C 0.07423 0.54201 1.02622 0.0
N1042 N 0.99868 0.47789 0.9966 0.0
N1043 N 0.05176 0.52963 0.03756 0.0
H1044 H 0.53092 0.56883 0.91225 0.0
H1045 H 0.54933 0.48856 0.13023 0.0
H1046 H 0.49483 0.54502 0.07112 0.0
H1047 H 0.59605 0.52569 0.99518 0.0
H1048 H 0.52838 0.50797 0.10736 0.0
H1049 H 0.55397 0.552 0.93923 0.0
C1050 C 0.52779 0.56019 0.9528 0.0
C1051 C 0.51047 0.55825 0.98879 0.0
C1052 C 0.54327 0.51191 0.08283 0.0
C1053 C 0.53688 0.53853 1.01983 0.0
C1054 C 0.55542 0.50092 0.09622 0.0
C1055 C 0.57458 0.50516 0.06452 0.0
C1056 C 0.55008 0.52727 0.03703 0.0
C1057 C 0.58118 0.52127 1.02026 0.0
C1058 C 0.54097 0.55047 0.96811 0.0
C1059 C 0.50738 0.54656 0.04074 0.0
N1060 N 0.56895 0.53151 1.00769 0.0
N1061 N 0.52026 0.53713 0.05435 0.0
H1062 H 0.56514 0.08196 0.97287 0.0
H1063 H 0.4615 0.95997 0.05316 0.0
H1064 H 0.5255 0.06916 0.12544 0.0
H1065 H 0.50795 0.97021 0.91706 0.0
H1066 H 0.48308 1.00017 0.07568 0.0
H1067 H 0.5433 0.04184 0.94866 0.0
C1068 C 0.5518 0.07075 1.00138 0.0
C1069 C 0.54715 0.07922 0.05127 0.0
C1070 C 0.48858 0.9937 0.04082 0.0
C1071 C 0.52185 0.03276 1.02335 0.0
C1072 C 0.47625 0.97061 0.02781 0.0
C1073 C 0.48295 0.96131 0.98339 0.0
C1074 C 0.50786 1.00803 1.00909 0.0
C1075 C 0.50195 0.97639 0.95146 0.0
C1076 C 0.53935 0.04773 0.98748 0.0
C1077 C 0.52985 0.06357 0.08675 0.0
N1078 N 0.51373 0.99887 0.96505 0.0
N1079 N 0.5178 0.04124 0.07195 0.0
H1080 H 0.12026 0.17511 0.48259 0.0
H1081 H 0.18313 0.10721 0.55772 0.0
H1082 H 0.12707 0.13329 0.35584 0.0
H1083 H 0.1436 0.11731 0.68452 0.0
H1084 H 0.16631 0.11966 0.48347 0.0
H1085 H 0.13195 0.15755 0.55657 0.0
C1086 C 0.12403 0.16207 0.47022 0.0
C1087 C 0.12241 0.15564 0.41245 0.0
C1088 C 0.16111 0.11895 0.52738 0.0
C1089 C 0.13667 0.13575 0.49786 0.0
C1090 C 0.17073 0.11183 0.57004 0.0
C1091 C 0.16471 0.11091 0.6279 0.0
C1092 C 0.14575 0.12608 0.54222 0.0
C1093 C 0.14863 0.11738 0.64072 0.0
C1094 C 0.13071 0.15202 0.51273 0.0
C1095 C 0.12774 0.13869 0.39958 0.0
N1096 N 0.14004 0.12498 0.59863 0.0
N1097 N 0.13493 0.12966 0.44154 0.0
H1098 H 0.93693 0.08322 0.56911 0.0
H1099 H 0.87091 0.95252 0.49139 0.0
H1100 H 0.92775 0.03354 0.69526 0.0
H1101 H 0.91177 1.00204 0.3658 0.0
H1102 H 0.88804 0.98151 0.56621 0.0
H1103 H 0.92468 0.05411 0.49459 0.0
C1104 C 0.93253 0.06621 0.58125 0.0
C1105 C 0.93366 0.06107 0.63903 0.0
C1106 C 0.89346 0.98605 0.52244 0.0
C1107 C 0.91872 0.02707 0.55292 0.0
C1108 C 0.88365 0.96946 0.47943 0.0
C1109 C 0.88994 0.9746 0.42172 0.0
C1110 C 0.90932 1.00845 0.50813 0.0
C1111 C 0.90649 0.99705 0.40945 0.0
C1112 C 0.92552 0.04954 0.53841 0.0
C1113 C 0.92749 0.03852 0.65154 0.0
N1114 N 0.91527 1.01309 0.45186 0.0
N1115 N 0.92 0.0224 0.60925 0.0
H1116 H 0.07119 0.89688 0.43612 0.0
H1117 H 0.99354 0.92136 0.64618 0.0
H1118 H 0.06396 0.95507 0.40443 0.0
H1119 H 0.98084 0.85473 0.60264 0.0
H1120 H 1.0228 0.93708 0.57052 0.0
H1121 H 0.04219 0.88442 0.50927 0.0
C1122 C 0.06355 0.90718 0.44448 0.0
C1123 C 0.07024 0.92713 0.41319 0.0
C1124 C 1.01352 0.91902 0.57762 0.0
C1125 C 0.03657 0.9128 0.49953 0.0
C1126 C 0.99687 0.91003 0.62115 0.0
C1127 C 0.98446 0.88655 0.63132 0.0
C1128 C 1.01828 0.90454 0.54485 0.0
C1129 C 0.98968 0.87286 0.59681 0.0
C1130 C 0.04683 0.89993 0.48655 0.0
C1131 C 0.05937 0.93951 0.42677 0.0
N1132 N 1.00609 0.88198 0.55618 0.0
N1133 N 0.04329 0.93229 0.4691 0.0
H1134 H 0.86544 0.81287 0.64333 0.0
H1135 H 0.8738 0.8465 0.39511 0.0
H1136 H 0.85427 0.86962 0.64801 0.0
H1137 H 0.81671 0.85636 0.41386 0.0
H1138 H 0.86067 0.82117 0.47667 0.0
H1139 H 0.8405 0.79795 0.5612 0.0
C1140 C 0.85688 0.82168 0.62897 0.0
C1141 C 0.86283 0.84322 0.65029 0.0
C1142 C 0.85028 0.82792 0.46139 0.0
C1143 C 0.83468 0.82629 0.55645 0.0
C1144 C 0.85804 0.84263 0.4151 0.0
C1145 C 0.84709 0.85449 0.39996 0.0
C1146 C 0.83235 0.82634 0.49423 0.0
C1147 C 0.82627 0.8483 0.42573 0.0
C1148 C 0.84259 0.81304 0.58203 0.0
C1149 C 0.85086 0.85351 0.63081 0.0
N1150 N 0.82007 0.8354 0.47344 0.0
N1151 N 0.83772 0.84523 0.58373 0.0
H1152 H 0.18627 0.96858 0.41857 0.0
H1153 H 0.23748 0.06586 0.63434 0.0
H1154 H 0.20291 0.03784 0.39626 0.0
H1155 H 0.18147 0.99847 0.65681 0.0
H1156 H 0.25002 0.05281 0.55345 0.0
H1157 H 0.21112 0.97965 0.50108 0.0
C1158 C 0.19605 0.98635 0.42915 0.0
C1159 C 0.19177 1.00229 0.40258 0.0
C1160 C 0.23576 0.04061 0.57816 0.0
C1161 C 0.22014 1.01481 0.4963 0.0
C1162 C 0.22841 0.04803 0.62425 0.0
C1163 C 0.20765 0.03334 0.65016 0.0
C1164 C 0.22209 1.01858 0.55806 0.0
C1165 C 0.19695 1.01045 0.63592 0.0
C1166 C 0.21038 0.99262 0.4761 0.0
C1167 C 0.2051 0.025 0.41748 0.0
N1168 N 0.204 1.0038 0.58961 0.0
N1169 N 0.21839 0.03058 0.46448 0.0
H1170 H 0.04815 0.18786 0.67161 0.0
H1171 H 0.08228 0.22944 0.42999 0.0
H1172 H 0.98343 0.18209 0.64087 0.0
H1173 H 1.01371 0.17599 0.40685 0.0
H1174 H 0.07101 0.24171 0.51515 0.0
H1175 H 0.0639 0.21548 0.59513 0.0
C1176 C 0.03748 0.19305 0.65006 0.0
C1177 C 1.0143 0.18179 0.66013 0.0
C1178 C 0.05826 0.22799 0.48987 0.0
C1179 C 0.03181 0.2127 0.57183 0.0
C1180 C 0.06462 0.22088 0.44126 0.0
C1181 C 0.04896 0.20092 0.41327 0.0
C1182 C 0.03628 0.21479 0.51036 0.0
C1183 C 1.02637 0.19082 0.42905 0.0
C1184 C 0.04647 0.20909 0.6068 0.0
C1185 C 1.00128 0.18969 0.63277 0.0
N1186 N 1.02073 0.19756 0.47762 0.0
N1187 N 1.01 0.20398 0.58794 0.0
H1188 H 0.79204 0.46506 0.68955 0.0
H1189 H 0.81023 0.45119 1.02416 0.0
H1190 H 0.79159 0.51042 0.81643 0.0
H1191 H 0.84614 0.43738 0.89434 0.0
H1192 H 0.79482 0.46524 0.94944 0.0
H1193 H 0.80338 0.44709 0.76433 0.0
C1194 C 0.79385 0.47096 0.73318 0.0
C1195 C 0.7907 0.4893 0.7464 0.0
C1196 C 0.80587 0.45888 0.93726 0.0
C1197 C 0.80351 0.46855 0.83283 0.0
C1198 C 0.81456 0.45068 0.97997 0.0
C1199 C 0.82953 0.44295 0.96591 0.0
C1200 C 0.8116 0.45886 0.87945 0.0
C1201 C 0.83469 0.44312 0.90754 0.0
C1202 C 0.80053 0.46081 0.77586 0.0
C1203 C 0.79376 0.49636 0.80394 0.0
N1204 N 0.82571 0.45074 0.86679 0.0
N1205 N 0.79977 0.48597 0.8447 0.0
H1206 H 0.625 0.38441 0.99342 0.0
H1207 H 0.52717 0.31162 0.76743 0.0
H1208 H 0.57477 0.40103 0.94043 0.0
H1209 H 0.59138 0.31509 0.75009 0.0
H1210 H 0.54295 0.34047 0.84178 0.0
H1211 H 0.61198 0.35557 0.91645 0.0
C1212 C 0.61124 0.38202 0.96602 0.0
C1213 C 0.60107 0.39541 0.97396 0.0
C1214 C 0.55374 0.33506 0.82188 0.0
C1215 C 0.58583 0.36206 0.88584 0.0
C1216 C 0.54469 0.31846 0.77912 0.0
C1217 C 0.55787 0.31079 0.75152 0.0
C1218 C 0.57625 0.34412 0.83933 0.0
C1219 C 0.58054 0.32053 0.76937 0.0
C1220 C 0.6039 0.36561 0.92175 0.0
C1221 C 0.58333 0.39139 0.93643 0.0
N1222 N 0.58892 0.33646 0.81234 0.0
N1223 N 0.57626 0.37516 0.89502 0.0
H1224 H 0.6301 0.20443 0.9004 0.0
H1225 H 0.75925 0.25642 0.82491 0.0
H1226 H 0.68039 0.23579 0.03169 0.0
H1227 H 0.71467 0.26283 0.70648 0.0
H1228 H 0.73036 0.24492 0.89955 0.0
H1229 H 0.6598 0.22149 0.8276 0.0
C1230 C 0.64738 0.21513 0.91403 0.0
C1231 C 0.65255 0.21885 0.97267 0.0
C1232 C 0.72693 0.24905 0.85745 0.0
C1233 C 0.68708 0.23789 0.88865 0.0
C1234 C 0.74346 0.25563 0.81462 0.0
C1235 C 0.73965 0.26093 0.75906 0.0
C1236 C 0.70585 0.24684 0.84474 0.0
C1237 C 0.71862 0.25929 0.74863 0.0
C1238 C 0.66437 0.22487 0.87225 0.0
C1239 C 0.67542 0.23269 0.98725 0.0
N1240 N 0.70249 0.25208 0.79051 0.0
N1241 N 0.69176 0.24133 0.94583 0.0
H1242 H 0.52563 0.20608 1.01045 0.0
H1243 H 0.48566 0.1959 0.76656 0.0
H1244 H 0.53026 0.14579 0.98997 0.0
H1245 H 0.53898 0.17999 0.75376 0.0
H1246 H 0.47225 0.17306 0.85278 0.0
H1247 H 0.49811 0.19324 0.93355 0.0
C1248 C 0.52021 0.18975 0.99117 0.0
C1249 C 0.53124 0.17773 1.00405 0.0
C1250 C 0.48617 0.17365 0.82947 0.0
C1251 C 0.50046 0.16323 0.91519 0.0
C1252 C 0.49393 0.18672 0.78027 0.0
C1253 C 0.51417 0.19064 0.75495 0.0
C1254 C 0.499 0.16489 0.85314 0.0
C1255 C 0.52391 0.17808 0.7738 0.0
C1256 C 0.50423 0.18217 0.94764 0.0
C1257 C 0.52297 0.1562 0.9796 0.0
N1258 N 0.51652 0.16611 0.82284 0.0
N1259 N 0.50877 0.15006 0.93439 0.0
H1260 H 0.89397 0.37644 1.01792 0.0
H1261 H 0.87487 0.34312 0.7724 0.0
H1262 H 0.82586 0.32122 0.03559 0.0
H1263 H 0.82668 0.27551 0.82426 0.0
H1264 H 0.89263 0.3499 0.8654 0.0
H1265 H 0.90278 0.35261 0.95966 0.0
C1266 C 0.88085 0.35921 1.01074 0.0
C1267 C 0.85843 0.35147 0.02729 0.0
C1268 C 0.87878 0.33316 0.85638 0.0
C1269 C 0.86839 0.32469 0.95832 0.0
C1270 C 0.86852 0.32949 0.80315 0.0
C1271 C 0.84871 0.30924 0.79222 0.0
C1272 C 0.86823 0.31685 0.8996 0.0
C1273 C 0.84151 0.29171 0.83215 0.0
C1274 C 0.886 0.34557 0.97718 0.0
C1275 C 0.84284 0.32852 1.01948 0.0
N1276 N 0.85076 0.29619 0.88512 0.0
N1277 N 0.84788 0.31609 0.9837 0.0
H1278 H 0.66346 0.52331 0.99894 0.0
H1279 H 0.69845 0.53244 0.75129 0.0
H1280 H 0.7224 0.517 1.02585 0.0
H1281 H 0.76716 0.56278 0.80963 0.0
H1282 H 0.68827 0.54253 0.84121 0.0
H1283 H 0.68459 0.55393 0.93255 0.0
C1284 C 0.68104 0.52872 0.99243 0.0
C1285 C 0.69078 0.51641 1.01461 0.0
C1286 C 0.70583 0.54798 0.83382 0.0
C1287 C 0.71451 0.55074 0.93709 0.0
C1288 C 0.71149 0.54181 0.78256 0.0
C1289 C 0.73333 0.54569 0.77443 0.0
C1290 C 0.722 0.55715 0.87784 0.0
C1291 C 0.74988 0.55872 0.81502 0.0
C1292 C 0.69309 0.54627 0.95421 0.0
C1293 C 0.71384 0.525 1.00637 0.0
N1294 N 0.74371 0.56326 0.86601 0.0
N1295 N 0.72482 0.54126 0.96666 0.0
H1296 H 0.46279 0.75618 0.31594 0.0
H1297 H 0.48671 0.85605 0.09776 0.0
H1298 H 0.52936 0.80815 0.26788 0.0
H1299 H 0.42814 0.79063 0.07207 0.0
H1300 H 0.49978 0.8401 0.17178 0.0
H1301 H 0.44706 0.76942 0.23927 0.0
C1302 C 0.47411 0.77038 0.28969 0.0
C1303 C 0.49757 0.78097 0.29891 0.0
C1304 C 0.48406 0.82911 0.15013 0.0
C1305 C 0.47956 0.79647 0.21121 0.0
C1306 C 0.4765 0.83824 0.10759 0.0
C1307 C 0.45626 0.82477 0.07775 0.0
C1308 C 0.47119 0.80618 0.16508 0.0
C1309 C 0.44393 0.80173 0.09319 0.0
C1310 C 0.46511 0.77785 0.2456 0.0
C1311 C 0.51125 0.79926 0.26283 0.0
N1312 N 0.45144 0.79325 0.13599 0.0
N1313 N 0.50213 0.80645 0.2216 0.0
H1314 H 0.23229 0.72624 0.28563 0.0
H1315 H 0.25567 0.65116 0.06253 0.0
H1316 H 0.29261 0.72194 0.30321 0.0
H1317 H 0.18947 0.63711 0.11266 0.0
H1318 H 0.27188 0.68001 0.13942 0.0
H1319 H 0.2188 0.69701 0.21229 0.0
C1320 C 0.24277 0.7191 0.27428 0.0
C1321 C 0.26364 0.72668 0.30162 0.0
C1322 C 0.25381 0.67052 0.13353 0.0
C1323 C 0.2482 0.69288 0.21486 0.0
C1324 C 0.24452 0.6541 0.08931 0.0
C1325 C 0.22102 0.64145 0.0805 0.0
C1326 C 0.23959 0.67481 0.16859 0.0
C1327 C 0.2076 0.64617 0.11727 0.0
C1328 C 0.23497 0.70228 0.23207 0.0
C1329 C 0.27631 0.71656 0.28418 0.0
N1330 N 0.21699 0.66237 0.15866 0.0
N1331 N 0.26853 0.70041 0.24168 0.0
H1332 H 0.32798 0.58718 0.31446 0.0
H1333 H 0.41199 0.56568 0.12252 0.0
H1334 H 0.31701 0.52113 0.27117 0.0
H1335 H 0.40242 0.62171 0.07985 0.0
H1336 H 0.38197 0.55311 0.19272 0.0
H1337 H 0.35915 0.60376 0.24389 0.0
C1338 C 0.33207 0.57616 0.29047 0.0
C1339 C 0.31959 0.55259 0.2991 0.0
C1340 C 0.38641 0.56824 0.16837 0.0
C1341 C 0.35562 0.57156 0.21888 0.0
C1342 C 0.40376 0.57558 0.12807 0.0
C1343 C 0.41002 0.5949 0.09438 0.0
C1344 C 0.37505 0.58034 0.17699 0.0
C1345 C 0.39831 0.60672 0.10438 0.0
C1346 C 0.34982 0.58564 0.24992 0.0
C1347 C 0.32584 0.53931 0.26626 0.0
N1348 N 0.38153 0.59936 0.14483 0.0
N1349 N 0.34332 0.54889 0.22864 0.0
H1350 H 0.18798 0.53539 0.3223 0.0
H1351 H 0.14841 0.52397 0.08025 0.0
H1352 H 0.19758 0.47804 0.30183 0.0
H1353 H 0.20431 0.51196 0.06605 0.0
H1354 H 0.13554 0.49999 0.16439 0.0
H1355 H 0.1606 0.52104 0.24506 0.0
C1356 C 0.18366 0.51934 0.30288 0.0
C1357 C 0.1959 0.50859 0.31606 0.0
C1358 C 0.14997 0.5017 0.14119 0.0
C1359 C 0.1654 0.49246 0.2266 0.0
C1360 C 0.15745 0.51545 0.09309 0.0
C1361 C 0.17826 0.52094 0.06833 0.0
C1362 C 0.1637 0.49394 0.16452 0.0
C1363 C 0.18884 0.509 0.08597 0.0
C1364 C 0.16778 0.51088 0.25913 0.0
C1365 C 0.18917 0.48741 0.29128 0.0
N1366 N 0.18176 0.49645 0.1342 0.0
N1367 N 0.17505 0.48049 0.24579 0.0
H1368 H 0.4973 0.65875 0.36308 0.0
H1369 H 0.5025 0.61219 0.14391 0.0
H1370 H 0.56283 0.71636 0.3313 0.0
H1371 H 0.54552 0.68208 0.09893 0.0
H1372 H 0.51971 0.6199 0.23824 0.0
H1373 H 0.50747 0.63575 0.30568 0.0
C1374 C 0.51405 0.66644 0.34512 0.0
C1375 C 0.52855 0.68981 0.34828 0.0
C1376 C 0.52585 0.63344 0.20726 0.0
C1377 C 0.54041 0.66375 0.28187 0.0
C1378 C 0.5161 0.62904 0.15314 0.0
C1379 C 0.52165 0.64697 0.11512 0.0
C1380 C 0.54048 0.65594 0.22328 0.0
C1381 C 0.53989 0.66816 0.12857 0.0
C1382 C 0.52012 0.6532 0.31288 0.0
C1383 C 0.55057 0.69862 0.32744 0.0
N1384 N 0.54828 0.67225 0.18234 0.0
N1385 N 0.55558 0.68574 0.29328 0.0
H1386 H 0.31324 0.84795 0.30779 0.0
H1387 H 0.34104 0.83847 0.06363 0.0
H1388 H 0.38046 0.85845 0.3212 0.0
H1389 H 0.40804 0.89493 0.08573 0.0
H1390 H 0.32854 0.85197 0.14394 0.0
H1391 H 0.32479 0.87307 0.22538 0.0
C1392 C 0.33079 0.85658 0.29542 0.0
C1393 C 0.34577 0.85033 0.31897 0.0
C1394 C 0.34577 0.86216 0.12968 0.0
C1395 C 0.35875 0.87847 0.22505 0.0
C1396 C 0.35288 0.85419 0.08415 0.0
C1397 C 0.3757 0.86499 0.07003 0.0
C1398 C 0.36194 0.88018 0.16295 0.0
C1399 C 0.39037 0.88565 0.09668 0.0
C1400 C 0.33732 0.87089 0.2483 0.0
C1401 C 0.36829 0.86223 0.30226 0.0
N1402 N 0.38347 0.89208 0.14367 0.0
N1403 N 0.37404 0.87535 0.255 0.0
loop_
_geom_bond_atom_site_label_1
_geom_bond_atom_site_label_2
_geom_bond_distance
_geom_bond_site_symmetry_2
_ccdc_geom_bond_type
Co0 N4 2.148 . S
Co0 N10 2.128 . S
Co0 N20 2.194 . S
Co0 O25 2.351 . S
Co0 O26 2.155 . S
Co0 O27 2.096 . S
C1 N4 1.301 . S
C1 N5 1.328 . S
C1 H6 0.930 . S
C2 C3 1.333 . S
C2 N4 1.317 . S
C2 H7 0.930 . S
C3 C2 1.333 . S
C3 N5 1.350 . S
C3 H29 0.931 . S
N4 Co0 2.148 . S
N4 C1 1.301 . S
N4 C2 1.317 . S
N5 C1 1.328 . S
N5 C3 1.350 . S
H6 C1 0.930 . S
H7 C2 0.930 . S
C8 O9 1.224 . S
C8 O27 1.247 . S
O9 C8 1.224 . S
N10 Co0 2.128 . S
N10 C11 1.355 . S
N10 C13 1.311 . S
C11 N10 1.355 . S
C11 C12 1.363 . S
C11 H23 0.929 . S
C12 C11 1.363 . S
C12 N14 1.375 . S
C12 H30 0.931 . S
C13 N10 1.311 . S
C13 N14 1.347 . S
C13 H24 0.929 . S
N14 C12 1.375 . S
N14 C13 1.347 . S
C15 C18 1.365 . S
C15 N20 1.328 . S
C15 H21 0.929 . S
C16 C17 1.362 . S
C16 C19 1.378 . S
C16 H31 0.929 . S
C17 C16 1.362 . S
C17 C18 1.366 . S
C18 C15 1.365 . S
C18 C17 1.366 . S
C18 H32 0.930 . S
C19 C16 1.378 . S
C19 N20 1.315 . S
C19 H22 0.930 . S
N20 Co0 2.194 . S
N20 C15 1.328 . S
N20 C19 1.315 . S
H21 C15 0.929 . S
H22 C19 0.930 . S
H23 C11 0.929 . S
H24 C13 0.929 . S
O25 Co0 2.351 . S
O25 C28 1.244 . S
O26 Co0 2.155 . S
O26 C28 1.240 . S
O27 Co0 2.096 . S
O27 C8 1.247 . S
C28 O25 1.244 . S
C28 O26 1.240 . S
H29 C3 0.931 . S
H30 C12 0.931 . S
H31 C16 0.929 . S
H32 C18 0.930 . S
Co33 N37 2.148 . S
Co33 N43 2.128 . S
Co33 N53 2.194 . S
Co33 O58 2.351 . S
Co33 O59 2.155 . S
Co33 O60 2.096 . S
C34 N37 1.301 . S
C34 N38 1.328 . S
C34 H39 0.930 . S
C35 C36 1.333 . S
C35 N37 1.317 . S
C35 H40 0.930 . S
C36 C35 1.333 . S
C36 N38 1.350 . S
C36 H62 0.931 . S
N37 Co33 2.148 . S
N37 C34 1.301 . S
N37 C35 1.317 . S
N38 C34 1.328 . S
N38 C36 1.350 . S
H39 C34 0.930 . S
H40 C35 0.930 . S
C41 O42 1.224 . S
C41 O60 1.247 . S
O42 C41 1.224 . S
N43 Co33 2.128 . S
N43 C44 1.355 . S
N43 C46 1.311 . S
C44 N43 1.355 . S
C44 C45 1.363 . S
C44 H56 0.929 . S
C45 C44 1.363 . S
C45 N47 1.375 . S
C45 H63 0.931 . S
C46 N43 1.311 . S
C46 N47 1.347 . S
C46 H57 0.929 . S
N47 C45 1.375 . S
N47 C46 1.347 . S
C48 C51 1.365 . S
C48 N53 1.328 . S
C48 H54 0.929 . S
C49 C50 1.362 . S
C49 C52 1.378 . S
C49 H64 0.929 . S
C50 C49 1.362 . S
C50 C51 1.366 . S
C51 C48 1.365 . S
C51 C50 1.366 . S
C51 H65 0.930 . S
C52 C49 1.378 . S
C52 N53 1.315 . S
C52 H55 0.930 . S
N53 Co33 2.194 . S
N53 C48 1.328 . S
N53 C52 1.315 . S
H54 C48 0.929 . S
H55 C52 0.930 . S
H56 C44 0.929 . S
H57 C46 0.929 . S
O58 Co33 2.351 . S
O58 C61 1.244 . S
O59 Co33 2.155 . S
O59 C61 1.240 . S
O60 Co33 2.096 . S
O60 C41 1.247 . S
C61 O58 1.244 . S
C61 O59 1.240 . S
H62 C36 0.931 . S
H63 C45 0.931 . S
H64 C49 0.929 . S
H65 C51 0.930 . S
Co66 N70 2.148 . S
Co66 N76 2.128 . S
Co66 N86 2.194 . S
Co66 O91 2.351 . S
Co66 O92 2.155 . S
Co66 O93 2.096 . S
C67 N70 1.301 . S
C67 N71 1.328 . S
C67 H72 0.930 . S
C68 C69 1.333 . S
C68 N70 1.317 . S
C68 H73 0.930 . S
C69 C68 1.333 . S
C69 N71 1.350 . S
C69 H95 0.931 . S
N70 Co66 2.148 . S
N70 C67 1.301 . S
N70 C68 1.317 . S
N71 C67 1.328 . S
N71 C69 1.350 . S
H72 C67 0.930 . S
H73 C68 0.930 . S
C74 O75 1.224 . S
C74 O93 1.247 . S
O75 C74 1.224 . S
N76 Co66 2.128 . S
N76 C77 1.355 . S
N76 C79 1.311 . S
C77 N76 1.355 . S
C77 C78 1.363 . S
C77 H89 0.929 . S
C78 C77 1.363 . S
C78 N80 1.375 . S
C78 H96 0.931 . S
C79 N76 1.311 . S
C79 N80 1.347 . S
C79 H90 0.929 . S
N80 C78 1.375 . S
N80 C79 1.347 . S
C81 C84 1.365 . S
C81 N86 1.328 . S
C81 H87 0.929 . S
C82 C83 1.362 . S
C82 C85 1.378 . S
C82 H97 0.929 . S
C83 C82 1.362 . S
C83 C84 1.366 . S
C84 C81 1.365 . S
C84 C83 1.366 . S
C84 H98 0.930 . S
C85 C82 1.378 . S
C85 N86 1.315 . S
C85 H88 0.930 . S
N86 Co66 2.194 . S
N86 C81 1.328 . S
N86 C85 1.315 . S
H87 C81 0.929 . S
H88 C85 0.930 . S
H89 C77 0.929 . S
H90 C79 0.929 . S
O91 Co66 2.351 . S
O91 C94 1.244 . S
O92 Co66 2.155 . S
O92 C94 1.240 . S
O93 Co66 2.096 . S
O93 C74 1.247 . S
C94 O91 1.244 . S
C94 O92 1.240 . S
H95 C69 0.931 . S
H96 C78 0.931 . S
H97 C82 0.929 . S
H98 C84 0.930 . S
Co99 N103 2.148 . S
Co99 N109 2.128 . S
Co99 N119 2.194 . S
Co99 O124 2.351 . S
Co99 O125 2.155 . S
Co99 O126 2.096 . S
C100 N103 1.301 . S
C100 N104 1.328 . S
C100 H105 0.930 . S
C101 C102 1.333 . S
C101 N103 1.317 . S
C101 H106 0.930 . S
C102 C101 1.333 . S
C102 N104 1.350 . S
C102 H128 0.931 . S
N103 Co99 2.148 . S
N103 C100 1.301 . S
N103 C101 1.317 . S
N104 C100 1.328 . S
N104 C102 1.350 . S
H105 C100 0.930 . S
H106 C101 0.930 . S
C107 O108 1.224 . S
C107 O126 1.247 . S
O108 C107 1.224 . S
N109 Co99 2.128 . S
N109 C110 1.355 . S
N109 C112 1.311 . S
C110 N109 1.355 . S
C110 C111 1.363 . S
C110 H122 0.929 . S
C111 C110 1.363 . S
C111 N113 1.375 . S
C111 H129 0.931 . S
C112 N109 1.311 . S
C112 N113 1.347 . S
C112 H123 0.929 . S
N113 C111 1.375 . S
N113 C112 1.347 . S
C114 C117 1.365 . S
C114 N119 1.328 . S
C114 H120 0.929 . S
C115 C116 1.362 . S
C115 C118 1.378 . S
C115 H130 0.929 . S
C116 C115 1.362 . S
C116 C117 1.366 . S
C117 C114 1.365 . S
C117 C116 1.366 . S
C117 H131 0.930 . S
C118 C115 1.378 . S
C118 N119 1.315 . S
C118 H121 0.930 . S
N119 Co99 2.194 . S
N119 C114 1.328 . S
N119 C118 1.315 . S
H120 C114 0.929 . S
H121 C118 0.930 . S
H122 C110 0.929 . S
H123 C112 0.929 . S
O124 Co99 2.351 . S
O124 C127 1.244 . S
O125 Co99 2.155 . S
O125 C127 1.240 . S
O126 Co99 2.096 . S
O126 C107 1.247 . S
C127 O124 1.244 . S
C127 O125 1.240 . S
H128 C102 0.931 . S
H129 C111 0.931 . S
H130 C115 0.929 . S
H131 C117 0.930 . S
Co132 N136 2.148 . S
Co132 N142 2.128 . S
Co132 N152 2.194 . S
Co132 O157 2.351 . S
Co132 O158 2.155 . S
Co132 O159 2.096 . S
C133 N136 1.301 . S
C133 N137 1.328 . S
C133 H138 0.930 . S
C134 C135 1.333 . S
C134 N136 1.317 . S
C134 H139 0.930 . S
C135 C134 1.333 . S
C135 N137 1.350 . S
C135 H161 0.931 . S
N136 Co132 2.148 . S
N136 C133 1.301 . S
N136 C134 1.317 . S
N137 C133 1.328 . S
N137 C135 1.350 . S
H138 C133 0.930 . S
H139 C134 0.930 . S
C140 O141 1.224 . S
C140 O159 1.247 . S
O141 C140 1.224 . S
N142 Co132 2.128 . S
N142 C143 1.355 . S
N142 C145 1.311 . S
C143 N142 1.355 . S
C143 C144 1.363 . S
C143 H155 0.929 . S
C144 C143 1.363 . S
C144 N146 1.375 . S
C144 H162 0.931 . S
C145 N142 1.311 . S
C145 N146 1.347 . S
C145 H156 0.929 . S
N146 C144 1.375 . S
N146 C145 1.347 . S
C147 C150 1.365 . S
C147 N152 1.328 . S
C147 H153 0.929 . S
C148 C149 1.362 . S
C148 C151 1.378 . S
C148 H163 0.929 . S
C149 C148 1.362 . S
C149 C150 1.366 . S
C150 C147 1.365 . S
C150 C149 1.366 . S
C150 H164 0.930 . S
C151 C148 1.378 . S
C151 N152 1.315 . S
C151 H154 0.930 . S
N152 Co132 2.194 . S
N152 C147 1.328 . S
N152 C151 1.315 . S
H153 C147 0.929 . S
H154 C151 0.930 . S
H155 C143 0.929 . S
H156 C145 0.929 . S
O157 Co132 2.351 . S
O157 C160 1.244 . S
O158 Co132 2.155 . S
O158 C160 1.240 . S
O159 Co132 2.096 . S
O159 C140 1.247 . S
C160 O157 1.244 . S
C160 O158 1.240 . S
H161 C135 0.931 . S
H162 C144 0.931 . S
H163 C148 0.929 . S
H164 C150 0.930 . S
Co165 N169 2.148 . S
Co165 N175 2.128 . S
Co165 N185 2.194 . S
Co165 O190 2.351 . S
Co165 O191 2.155 . S
Co165 O192 2.096 . S
C166 N169 1.301 . S
C166 N170 1.328 . S
C166 H171 0.930 . S
C167 C168 1.333 . S
C167 N169 1.317 . S
C167 H172 0.930 . S
C168 C167 1.333 . S
C168 N170 1.350 . S
C168 H194 0.931 . S
N169 Co165 2.148 . S
N169 C166 1.301 . S
N169 C167 1.317 . S
N170 C166 1.328 . S
N170 C168 1.350 . S
H171 C166 0.930 . S
H172 C167 0.930 . S
C173 O174 1.224 . S
C173 O192 1.247 . S
O174 C173 1.224 . S
N175 Co165 2.128 . S
N175 C176 1.355 . S
N175 C178 1.311 . S
C176 N175 1.355 . S
C176 C177 1.363 . S
C176 H188 0.929 . S
C177 C176 1.363 . S
C177 N179 1.375 . S
C177 H195 0.931 . S
C178 N175 1.311 . S
C178 N179 1.347 . S
C178 H189 0.929 . S
N179 C177 1.375 . S
N179 C178 1.347 . S
C180 C183 1.365 . S
C180 N185 1.328 . S
C180 H186 0.929 . S
C181 C182 1.362 . S
C181 C184 1.378 . S
C181 H196 0.929 . S
C182 C181 1.362 . S
C182 C183 1.366 . S
C183 C180 1.365 . S
C183 C182 1.366 . S
C183 H197 0.930 . S
C184 C181 1.378 . S
C184 N185 1.315 . S
C184 H187 0.930 . S
N185 Co165 2.194 . S
N185 C180 1.328 . S
N185 C184 1.315 . S
H186 C180 0.929 . S
H187 C184 0.930 . S
H188 C176 0.929 . S
H189 C178 0.929 . S
O190 Co165 2.351 . S
O190 C193 1.244 . S
O191 Co165 2.155 . S
O191 C193 1.240 . S
O192 Co165 2.096 . S
O192 C173 1.247 . S
C193 O190 1.244 . S
C193 O191 1.240 . S
H194 C168 0.931 . S
H195 C177 0.931 . S
H196 C181 0.929 . S
H197 C183 0.930 . S
Co198 N202 2.148 . S
Co198 N208 2.128 . S
Co198 N218 2.194 . S
Co198 O223 2.351 . S
Co198 O224 2.155 . S
Co198 O225 2.096 . S
C199 N202 1.301 . S
C199 N203 1.328 . S
C199 H204 0.930 . S
C200 C201 1.333 . S
C200 N202 1.317 . S
C200 H205 0.930 . S
C201 C200 1.333 . S
C201 N203 1.350 . S
C201 H227 0.931 . S
N202 Co198 2.148 . S
N202 C199 1.301 . S
N202 C200 1.317 . S
N203 C199 1.328 . S
N203 C201 1.350 . S
H204 C199 0.930 . S
H205 C200 0.930 . S
C206 O207 1.224 . S
C206 O225 1.247 . S
O207 C206 1.224 . S
N208 Co198 2.128 . S
N208 C209 1.355 . S
N208 C211 1.311 . S
C209 N208 1.355 . S
C209 C210 1.363 . S
C209 H221 0.929 . S
C210 C209 1.363 . S
C210 N212 1.375 . S
C210 H228 0.931 . S
C211 N208 1.311 . S
C211 N212 1.347 . S
C211 H222 0.929 . S
N212 C210 1.375 . S
N212 C211 1.347 . S
C213 C216 1.365 . S
C213 N218 1.328 . S
C213 H219 0.929 . S
C214 C215 1.362 . S
C214 C217 1.378 . S
C214 H229 0.929 . S
C215 C214 1.362 . S
C215 C216 1.366 . S
C216 C213 1.365 . S
C216 C215 1.366 . S
C216 H230 0.930 . S
C217 C214 1.378 . S
C217 N218 1.315 . S
C217 H220 0.930 . S
N218 Co198 2.194 . S
N218 C213 1.328 . S
N218 C217 1.315 . S
H219 C213 0.929 . S
H220 C217 0.930 . S
H221 C209 0.929 . S
H222 C211 0.929 . S
O223 Co198 2.351 . S
O223 C226 1.244 . S
O224 Co198 2.155 . S
O224 C226 1.240 . S
O225 Co198 2.096 . S
O225 C206 1.247 . S
C226 O223 1.244 . S
C226 O224 1.240 . S
H227 C201 0.931 . S
H228 C210 0.931 . S
H229 C214 0.929 . S
H230 C216 0.930 . S
Co231 N235 2.148 . S
Co231 N241 2.128 . S
Co231 N251 2.194 . S
Co231 O256 2.351 . S
Co231 O257 2.155 . S
Co231 O258 2.096 . S
C232 N235 1.301 . S
C232 N236 1.328 . S
C232 H237 0.930 . S
C233 C234 1.333 . S
C233 N235 1.317 . S
C233 H238 0.930 . S
C234 C233 1.333 . S
C234 N236 1.350 . S
C234 H260 0.931 . S
N235 Co231 2.148 . S
N235 C232 1.301 . S
N235 C233 1.317 . S
N236 C232 1.328 . S
N236 C234 1.350 . S
H237 C232 0.930 . S
H238 C233 0.930 . S
C239 O240 1.224 . S
C239 O258 1.247 . S
O240 C239 1.224 . S
N241 Co231 2.128 . S
N241 C242 1.355 . S
N241 C244 1.311 . S
C242 N241 1.355 . S
C242 C243 1.363 . S
C242 H254 0.929 . S
C243 C242 1.363 . S
C243 N245 1.375 . S
C243 H261 0.931 . S
C244 N241 1.311 . S
C244 N245 1.347 . S
C244 H255 0.929 . S
N245 C243 1.375 . S
N245 C244 1.347 . S
C246 C249 1.365 . S
C246 N251 1.328 . S
C246 H252 0.929 . S
C247 C248 1.362 . S
C247 C250 1.378 . S
C247 H262 0.929 . S
C248 C247 1.362 . S
C248 C249 1.366 . S
C249 C246 1.365 . S
C249 C248 1.366 . S
C249 H263 0.930 . S
C250 C247 1.378 . S
C250 N251 1.315 . S
C250 H253 0.930 . S
N251 Co231 2.194 . S
N251 C246 1.328 . S
N251 C250 1.315 . S
H252 C246 0.929 . S
H253 C250 0.930 . S
H254 C242 0.929 . S
H255 C244 0.929 . S
O256 Co231 2.351 . S
O256 C259 1.244 . S
O257 Co231 2.155 . S
O257 C259 1.240 . S
O258 Co231 2.096 . S
O258 C239 1.247 . S
C259 O256 1.244 . S
C259 O257 1.240 . S
H260 C234 0.931 . S
H261 C243 0.931 . S
H262 C247 0.929 . S
H263 C249 0.930 . S
Co264 N268 2.148 . S
Co264 N274 2.128 . S
Co264 N284 2.194 . S
Co264 O289 2.351 . S
Co264 O290 2.155 . S
Co264 O291 2.096 . S
C265 N268 1.301 . S
C265 N269 1.328 . S
C265 H270 0.930 . S
C266 C267 1.333 . S
C266 N268 1.317 . S
C266 H271 0.930 . S
C267 C266 1.333 . S
C267 N269 1.350 . S
C267 H293 0.931 . S
N268 Co264 2.148 . S
N268 C265 1.301 . S
N268 C266 1.317 . S
N269 C265 1.328 . S
N269 C267 1.350 . S
H270 C265 0.930 . S
H271 C266 0.930 . S
C272 O273 1.224 . S
C272 O291 1.247 . S
O273 C272 1.224 . S
N274 Co264 2.128 . S
N274 C275 1.355 . S
N274 C277 1.311 . S
C275 N274 1.355 . S
C275 C276 1.363 . S
C275 H287 0.929 . S
C276 C275 1.363 . S
C276 N278 1.375 . S
C276 H294 0.931 . S
C277 N274 1.311 . S
C277 N278 1.347 . S
C277 H288 0.929 . S
N278 C276 1.375 . S
N278 C277 1.347 . S
C279 C282 1.365 . S
C279 N284 1.328 . S
C279 H285 0.929 . S
C280 C281 1.362 . S
C280 C283 1.378 . S
C280 H295 0.929 . S
C281 C280 1.362 . S
C281 C282 1.366 . S
C282 C279 1.365 . S
C282 C281 1.366 . S
C282 H296 0.930 . S
C283 C280 1.378 . S
C283 N284 1.315 . S
C283 H286 0.930 . S
N284 Co264 2.194 . S
N284 C279 1.328 . S
N284 C283 1.315 . S
H285 C279 0.929 . S
H286 C283 0.930 . S
H287 C275 0.929 . S
H288 C277 0.929 . S
O289 Co264 2.351 . S
O289 C292 1.244 . S
O290 Co264 2.155 . S
O290 C292 1.240 . S
O291 Co264 2.096 . S
O291 C272 1.247 . S
C292 O289 1.244 . S
C292 O290 1.240 . S
H293 C267 0.931 . S
H294 C276 0.931 . S
H295 C280 0.929 . S
H296 C282 0.930 . S
Co297 N301 2.148 . S
Co297 N307 2.128 . S
Co297 N317 2.194 . S
Co297 O322 2.351 1_554 S
Co297 O323 2.155 . S
Co297 O324 2.096 . S
C298 N301 1.301 1_556 S
C298 N302 1.328 . S
C298 H303 0.930 . S
C299 C300 1.333 1_554 S
C299 N301 1.317 . S
C299 H304 0.930 . S
C300 C299 1.333 1_556 S
C300 N302 1.350 . S
C300 H326 0.931 . S
N301 Co297 2.148 . S
N301 C298 1.301 1_554 S
N301 C299 1.317 . S
N302 C298 1.328 . S
N302 C300 1.350 . S
H303 C298 0.930 . S
H304 C299 0.930 . S
C305 O306 1.224 . S
C305 O324 1.247 . S
O306 C305 1.224 . S
N307 Co297 2.128 . S
N307 C308 1.355 . S
N307 C310 1.311 . S
C308 N307 1.355 . S
C308 C309 1.363 . S
C308 H320 0.929 . S
C309 C308 1.363 . S
C309 N311 1.375 . S
C309 H327 0.931 . S
C310 N307 1.311 . S
C310 N311 1.347 . S
C310 H321 0.929 . S
N311 C309 1.375 . S
N311 C310 1.347 . S
C312 C315 1.365 . S
C312 N317 1.328 . S
C312 H318 0.929 1_554 S
C313 C314 1.362 . S
C313 C316 1.378 . S
C313 H328 0.929 . S
C314 C313 1.362 . S
C314 C315 1.366 . S
C315 C312 1.365 . S
C315 C314 1.366 . S
C315 H329 0.930 1_554 S
C316 C313 1.378 . S
C316 N317 1.315 . S
C316 H319 0.930 . S
N317 Co297 2.194 . S
N317 C312 1.328 . S
N317 C316 1.315 . S
H318 C312 0.929 1_556 S
H319 C316 0.930 . S
H320 C308 0.929 . S
H321 C310 0.929 . S
O322 Co297 2.351 1_556 S
O322 C325 1.245 . S
O323 Co297 2.155 . S
O323 C325 1.227 1_554 S
O324 Co297 2.096 . S
O324 C305 1.247 . S
C325 O322 1.245 . S
C325 O323 1.227 1_556 S
H326 C300 0.931 . S
H327 C309 0.931 . S
H328 C313 0.929 . S
H329 C315 0.930 1_556 S
Co330 N334 2.148 . S
Co330 N340 2.128 . S
Co330 N350 2.194 . S
Co330 O355 2.351 1_554 S
Co330 O356 2.155 . S
Co330 O357 2.096 . S
C331 N334 1.301 1_556 S
C331 N335 1.328 . S
C331 H336 0.930 . S
C332 C333 1.333 1_554 S
C332 N334 1.317 . S
C332 H337 0.930 . S
C333 C332 1.333 1_556 S
C333 N335 1.350 . S
C333 H359 0.931 . S
N334 Co330 2.148 . S
N334 C331 1.301 1_554 S
N334 C332 1.317 . S
N335 C331 1.328 . S
N335 C333 1.350 . S
H336 C331 0.930 . S
H337 C332 0.930 . S
C338 O339 1.224 . S
C338 O357 1.247 . S
O339 C338 1.224 . S
N340 Co330 2.128 . S
N340 C341 1.355 . S
N340 C343 1.311 . S
C341 N340 1.355 . S
C341 C342 1.363 . S
C341 H353 0.929 . S
C342 C341 1.363 . S
C342 N344 1.375 . S
C342 H360 0.931 . S
C343 N340 1.311 . S
C343 N344 1.347 . S
C343 H354 0.929 . S
N344 C342 1.375 . S
N344 C343 1.347 . S
C345 C348 1.365 . S
C345 N350 1.328 . S
C345 H351 0.929 1_554 S
C346 C347 1.362 . S
C346 C349 1.378 . S
C346 H361 0.929 . S
C347 C346 1.362 . S
C347 C348 1.366 . S
C348 C345 1.365 . S
C348 C347 1.366 . S
C348 H362 0.930 1_554 S
C349 C346 1.378 . S
C349 N350 1.315 . S
C349 H352 0.930 . S
N350 Co330 2.194 . S
N350 C345 1.328 . S
N350 C349 1.315 . S
H351 C345 0.929 1_556 S
H352 C349 0.930 . S
H353 C341 0.929 . S
H354 C343 0.929 . S
O355 Co330 2.351 1_556 S
O355 C358 1.245 . S
O356 Co330 2.155 . S
O356 C358 1.227 1_554 S
O357 Co330 2.096 . S
O357 C338 1.247 . S
C358 O355 1.245 . S
C358 O356 1.227 1_556 S
H359 C333 0.931 . S
H360 C342 0.931 . S
H361 C346 0.929 . S
H362 C348 0.930 1_556 S
Co363 N367 2.148 . S
Co363 N373 2.128 . S
Co363 N383 2.194 . S
Co363 O388 2.351 1_554 S
Co363 O389 2.155 . S
Co363 O390 2.096 . S
C364 N367 1.301 1_556 S
C364 N368 1.328 . S
C364 H369 0.930 . S
C365 C366 1.333 1_554 S
C365 N367 1.317 . S
C365 H370 0.930 . S
C366 C365 1.333 1_556 S
C366 N368 1.350 . S
C366 H392 0.931 . S
N367 Co363 2.148 . S
N367 C364 1.301 1_554 S
N367 C365 1.317 . S
N368 C364 1.328 . S
N368 C366 1.350 . S
H369 C364 0.930 . S
H370 C365 0.930 . S
C371 O372 1.224 . S
C371 O390 1.247 . S
O372 C371 1.224 . S
N373 Co363 2.128 . S
N373 C374 1.355 . S
N373 C376 1.311 . S
C374 N373 1.355 . S
C374 C375 1.363 . S
C374 H386 0.929 . S
C375 C374 1.363 . S
C375 N377 1.375 . S
C375 H393 0.931 . S
C376 N373 1.311 . S
C376 N377 1.347 . S
C376 H387 0.929 . S
N377 C375 1.375 . S
N377 C376 1.347 . S
C378 C381 1.365 . S
C378 N383 1.328 . S
C378 H384 0.929 1_554 S
C379 C380 1.362 . S
C379 C382 1.378 . S
C379 H394 0.929 . S
C380 C379 1.362 . S
C380 C381 1.366 . S
C381 C378 1.365 . S
C381 C380 1.366 . S
C381 H395 0.930 1_554 S
C382 C379 1.378 . S
C382 N383 1.315 . S
C382 H385 0.930 . S
N383 Co363 2.194 . S
N383 C378 1.328 . S
N383 C382 1.315 . S
H384 C378 0.929 1_556 S
H385 C382 0.930 . S
H386 C374 0.929 . S
H387 C376 0.929 . S
O388 Co363 2.351 1_556 S
O388 C391 1.245 . S
O389 Co363 2.155 . S
O389 C391 1.227 1_554 S
O390 Co363 2.096 . S
O390 C371 1.247 . S
C391 O388 1.245 . S
C391 O389 1.227 1_556 S
H392 C366 0.931 . S
H393 C375 0.931 . S
H394 C379 0.929 . S
H395 C381 0.930 1_556 S
Co396 N400 2.148 . S
Co396 N406 2.128 . S
Co396 N416 2.194 . S
Co396 O421 2.351 1_556 S
Co396 O422 2.155 . S
Co396 O423 2.096 . S
C397 N400 1.301 1_554 S
C397 N401 1.328 . S
C397 H402 0.930 . S
C398 C399 1.333 1_556 S
C398 N400 1.317 . S
C398 H403 0.930 . S
C399 C398 1.333 1_554 S
C399 N401 1.350 . S
C399 H425 0.931 . S
N400 Co396 2.148 . S
N400 C397 1.301 1_556 S
N400 C398 1.317 . S
N401 C397 1.328 . S
N401 C399 1.350 . S
H402 C397 0.930 . S
H403 C398 0.930 . S
C404 O405 1.224 . S
C404 O423 1.247 . S
O405 C404 1.224 . S
N406 Co396 2.128 . S
N406 C407 1.355 . S
N406 C409 1.311 . S
C407 N406 1.355 . S
C407 C408 1.363 . S
C407 H419 0.929 . S
C408 C407 1.363 . S
C408 N410 1.375 . S
C408 H426 0.931 . S
C409 N406 1.311 . S
C409 N410 1.347 . S
C409 H420 0.929 . S
N410 C408 1.375 . S
N410 C409 1.347 . S
C411 C414 1.365 . S
C411 N416 1.328 . S
C411 H417 0.929 1_556 S
C412 C413 1.362 . S
C412 C415 1.378 . S
C412 H427 0.929 . S
C413 C412 1.362 . S
C413 C414 1.366 . S
C414 C411 1.365 . S
C414 C413 1.366 . S
C414 H428 0.930 1_556 S
C415 C412 1.378 . S
C415 N416 1.315 . S
C415 H418 0.930 . S
N416 Co396 2.194 . S
N416 C411 1.328 . S
N416 C415 1.315 . S
H417 C411 0.929 1_554 S
H418 C415 0.930 . S
H419 C407 0.929 . S
H420 C409 0.929 . S
O421 Co396 2.351 1_554 S
O421 C424 1.245 . S
O422 Co396 2.155 . S
O422 C424 1.227 1_556 S
O423 Co396 2.096 . S
O423 C404 1.247 . S
C424 O421 1.245 . S
C424 O422 1.227 1_554 S
H425 C399 0.931 . S
H426 C408 0.931 . S
H427 C412 0.929 . S
H428 C414 0.930 1_554 S
Co429 N433 2.148 . S
Co429 N439 2.128 . S
Co429 N449 2.194 . S
Co429 O454 2.351 1_556 S
Co429 O455 2.155 . S
Co429 O456 2.096 . S
C430 N433 1.301 1_554 S
C430 N434 1.328 . S
C430 H435 0.930 . S
C431 C432 1.333 1_556 S
C431 N433 1.317 . S
C431 H436 0.930 . S
C432 C431 1.333 1_554 S
C432 N434 1.350 . S
C432 H458 0.931 . S
N433 Co429 2.148 . S
N433 C430 1.301 1_556 S
N433 C431 1.317 . S
N434 C430 1.328 . S
N434 C432 1.350 . S
H435 C430 0.930 . S
H436 C431 0.930 . S
C437 O438 1.224 . S
C437 O456 1.247 . S
O438 C437 1.224 . S
N439 Co429 2.128 . S
N439 C440 1.355 . S
N439 C442 1.311 . S
C440 N439 1.355 . S
C440 C441 1.363 . S
C440 H452 0.929 . S
C441 C440 1.363 . S
C441 N443 1.375 . S
C441 H459 0.931 . S
C442 N439 1.311 . S
C442 N443 1.347 . S
C442 H453 0.929 . S
N443 C441 1.375 . S
N443 C442 1.347 . S
C444 C447 1.365 . S
C444 N449 1.328 . S
C444 H450 0.929 1_556 S
C445 C446 1.362 . S
C445 C448 1.378 . S
C445 H460 0.929 . S
C446 C445 1.362 . S
C446 C447 1.366 . S
C447 C444 1.365 . S
C447 C446 1.366 . S
C447 H461 0.930 1_556 S
C448 C445 1.378 . S
C448 N449 1.315 . S
C448 H451 0.930 . S
N449 Co429 2.194 . S
N449 C444 1.328 . S
N449 C448 1.315 . S
H450 C444 0.929 1_554 S
H451 C448 0.930 . S
H452 C440 0.929 . S
H453 C442 0.929 . S
O454 Co429 2.351 1_554 S
O454 C457 1.245 . S
O455 Co429 2.155 . S
O455 C457 1.227 1_556 S
O456 Co429 2.096 . S
O456 C437 1.247 . S
C457 O454 1.245 . S
C457 O455 1.227 1_554 S
H458 C432 0.931 . S
H459 C441 0.931 . S
H460 C445 0.929 . S
H461 C447 0.930 1_554 S
Co462 N466 2.148 . S
Co462 N472 2.128 . S
Co462 N482 2.194 . S
Co462 O487 2.351 1_556 S
Co462 O488 2.155 . S
Co462 O489 2.096 . S
C463 N466 1.301 1_554 S
C463 N467 1.328 . S
C463 H468 0.930 . S
C464 C465 1.333 1_556 S
C464 N466 1.317 . S
C464 H469 0.930 . S
C465 C464 1.333 1_554 S
C465 N467 1.350 . S
C465 H491 0.931 . S
N466 Co462 2.148 . S
N466 C463 1.301 1_556 S
N466 C464 1.317 . S
N467 C463 1.328 . S
N467 C465 1.350 . S
H468 C463 0.930 . S
H469 C464 0.930 . S
C470 O471 1.224 . S
C470 O489 1.247 . S
O471 C470 1.224 . S
N472 Co462 2.128 . S
N472 C473 1.355 . S
N472 C475 1.311 . S
C473 N472 1.355 . S
C473 C474 1.363 . S
C473 H485 0.929 . S
C474 C473 1.363 . S
C474 N476 1.375 . S
C474 H492 0.931 . S
C475 N472 1.311 . S
C475 N476 1.347 . S
C475 H486 0.929 . S
N476 C474 1.375 . S
N476 C475 1.347 . S
C477 C480 1.365 . S
C477 N482 1.328 . S
C477 H483 0.929 1_556 S
C478 C479 1.362 . S
C478 C481 1.378 . S
C478 H493 0.929 . S
C479 C478 1.362 . S
C479 C480 1.366 . S
C480 C477 1.365 . S
C480 C479 1.366 . S
C480 H494 0.930 1_556 S
C481 C478 1.378 . S
C481 N482 1.315 . S
C481 H484 0.930 . S
N482 Co462 2.194 . S
N482 C477 1.328 . S
N482 C481 1.315 . S
H483 C477 0.929 1_554 S
H484 C481 0.930 . S
H485 C473 0.929 . S
H486 C475 0.929 . S
O487 Co462 2.351 1_554 S
O487 C490 1.245 . S
O488 Co462 2.155 . S
O488 C490 1.227 1_556 S
O489 Co462 2.096 . S
O489 C470 1.247 . S
C490 O487 1.245 . S
C490 O488 1.227 1_554 S
H491 C465 0.931 . S
H492 C474 0.931 . S
H493 C478 0.929 . S
H494 C480 0.930 1_554 S
Co495 N499 2.148 . S
Co495 N505 2.128 . S
Co495 N515 2.194 . S
Co495 O520 2.351 . S
Co495 O521 2.155 . S
Co495 O522 2.096 . S
C496 N499 1.301 . S
C496 N500 1.328 . S
C496 H501 0.930 . S
C497 C498 1.333 . S
C497 N499 1.317 . S
C497 H502 0.930 . S
C498 C497 1.333 . S
C498 N500 1.350 . S
C498 H524 0.931 . S
N499 Co495 2.148 . S
N499 C496 1.301 . S
N499 C497 1.317 . S
N500 C496 1.328 . S
N500 C498 1.350 . S
H501 C496 0.930 . S
H502 C497 0.930 . S
C503 O504 1.224 . S
C503 O522 1.247 . S
O504 C503 1.224 . S
N505 Co495 2.128 . S
N505 C506 1.355 . S
N505 C508 1.311 . S
C506 N505 1.355 . S
C506 C507 1.363 . S
C506 H518 0.929 . S
C507 C506 1.363 . S
C507 N509 1.375 . S
C507 H525 0.931 . S
C508 N505 1.311 . S
C508 N509 1.347 . S
C508 H519 0.929 . S
N509 C507 1.375 . S
N509 C508 1.347 . S
C510 C513 1.365 . S
C510 N515 1.328 . S
C510 H516 0.929 . S
C511 C512 1.362 . S
C511 C514 1.378 . S
C511 H526 0.929 . S
C512 C511 1.362 . S
C512 C513 1.366 . S
C513 C510 1.365 . S
C513 C512 1.366 . S
C513 H527 0.930 . S
C514 C511 1.378 . S
C514 N515 1.315 . S
C514 H517 0.930 . S
N515 Co495 2.194 . S
N515 C510 1.328 . S
N515 C514 1.315 . S
H516 C510 0.929 . S
H517 C514 0.930 . S
H518 C506 0.929 . S
H519 C508 0.929 . S
O520 Co495 2.351 . S
O520 C523 1.244 . S
O521 Co495 2.155 . S
O521 C523 1.240 . S
O522 Co495 2.096 . S
O522 C503 1.247 . S
C523 O520 1.244 . S
C523 O521 1.240 . S
H524 C498 0.931 . S
H525 C507 0.931 . S
H526 C511 0.929 . S
H527 C513 0.930 . S
Co528 N532 2.148 . S
Co528 N538 2.128 . S
Co528 N548 2.194 . S
Co528 O553 2.351 . S
Co528 O554 2.155 . S
Co528 O555 2.096 . S
C529 N532 1.301 . S
C529 N533 1.328 . S
C529 H534 0.930 . S
C530 C531 1.333 . S
C530 N532 1.317 . S
C530 H535 0.930 . S
C531 C530 1.333 . S
C531 N533 1.350 . S
C531 H557 0.931 . S
N532 Co528 2.148 . S
N532 C529 1.301 . S
N532 C530 1.317 . S
N533 C529 1.328 . S
N533 C531 1.350 . S
H534 C529 0.930 . S
H535 C530 0.930 . S
C536 O537 1.224 . S
C536 O555 1.247 . S
O537 C536 1.224 . S
N538 Co528 2.128 . S
N538 C539 1.355 . S
N538 C541 1.311 . S
C539 N538 1.355 . S
C539 C540 1.363 . S
C539 H551 0.929 . S
C540 C539 1.363 . S
C540 N542 1.375 . S
C540 H558 0.931 . S
C541 N538 1.311 . S
C541 N542 1.347 . S
C541 H552 0.929 . S
N542 C540 1.375 . S
N542 C541 1.347 . S
C543 C546 1.365 . S
C543 N548 1.328 . S
C543 H549 0.929 . S
C544 C545 1.362 . S
C544 C547 1.378 . S
C544 H559 0.929 . S
C545 C544 1.362 . S
C545 C546 1.366 . S
C546 C543 1.365 . S
C546 C545 1.366 . S
C546 H560 0.930 . S
C547 C544 1.378 . S
C547 N548 1.315 . S
C547 H550 0.930 . S
N548 Co528 2.194 . S
N548 C543 1.328 . S
N548 C547 1.315 . S
H549 C543 0.929 . S
H550 C547 0.930 . S
H551 C539 0.929 . S
H552 C541 0.929 . S
O553 Co528 2.351 . S
O553 C556 1.244 . S
O554 Co528 2.155 . S
O554 C556 1.240 . S
O555 Co528 2.096 . S
O555 C536 1.247 . S
C556 O553 1.244 . S
C556 O554 1.240 . S
H557 C531 0.931 . S
H558 C540 0.931 . S
H559 C544 0.929 . S
H560 C546 0.930 . S
Co561 N565 2.148 . S
Co561 N571 2.128 . S
Co561 N581 2.194 . S
Co561 O586 2.351 . S
Co561 O587 2.155 . S
Co561 O588 2.096 . S
C562 N565 1.301 . S
C562 N566 1.328 . S
C562 H567 0.930 . S
C563 C564 1.333 . S
C563 N565 1.317 . S
C563 H568 0.930 . S
C564 C563 1.333 . S
C564 N566 1.350 . S
C564 H590 0.931 . S
N565 Co561 2.148 . S
N565 C562 1.301 . S
N565 C563 1.317 . S
N566 C562 1.328 . S
N566 C564 1.350 . S
H567 C562 0.930 . S
H568 C563 0.930 . S
C569 O570 1.224 . S
C569 O588 1.247 . S
O570 C569 1.224 . S
N571 Co561 2.128 . S
N571 C572 1.355 . S
N571 C574 1.311 . S
C572 N571 1.355 . S
C572 C573 1.363 . S
C572 H584 0.929 . S
C573 C572 1.363 . S
C573 N575 1.375 . S
C573 H591 0.931 . S
C574 N571 1.311 . S
C574 N575 1.347 . S
C574 H585 0.929 . S
N575 C573 1.375 . S
N575 C574 1.347 . S
C576 C579 1.365 . S
C576 N581 1.328 . S
C576 H582 0.929 . S
C577 C578 1.362 . S
C577 C580 1.378 . S
C577 H592 0.929 . S
C578 C577 1.362 . S
C578 C579 1.366 . S
C579 C576 1.365 . S
C579 C578 1.366 . S
C579 H593 0.930 . S
C580 C577 1.378 . S
C580 N581 1.315 . S
C580 H583 0.930 . S
N581 Co561 2.194 . S
N581 C576 1.328 . S
N581 C580 1.315 . S
H582 C576 0.929 . S
H583 C580 0.930 . S
H584 C572 0.929 . S
H585 C574 0.929 . S
O586 Co561 2.351 . S
O586 C589 1.244 . S
O587 Co561 2.155 . S
O587 C589 1.240 . S
O588 Co561 2.096 . S
O588 C569 1.247 . S
C589 O586 1.244 . S
C589 O587 1.240 . S
H590 C564 0.931 . S
H591 C573 0.931 . S
H592 C577 0.929 . S
H593 C579 0.930 . S
H594 C600 0.930 . S
H595 C604 0.930 . S
H596 C609 0.929 . S
H597 C607 0.929 . S
H598 C602 0.929 . S
H599 C608 0.929 . S
C600 H594 0.930 . S
C600 C601 1.367 . S
C600 C608 1.378 . S
C601 C600 1.367 . S
C601 C609 1.433 . S
C602 H598 0.929 . S
C602 C604 1.378 . S
C602 C606 1.350 . S
C603 C606 1.463 1_556 S
C603 C608 1.350 . S
C603 N611 1.429 . S
C604 H595 0.930 . S
C604 C602 1.378 . S
C604 C605 1.367 . S
C605 C604 1.367 . S
C605 C607 1.433 . S
C606 C602 1.350 . S
C606 C603 1.463 1_554 S
C606 N610 1.429 . S
C607 H597 0.929 . S
C607 C605 1.433 . S
C607 N610 1.387 . S
C608 H599 0.929 . S
C608 C600 1.378 . S
C608 C603 1.350 . S
C609 H596 0.929 . S
C609 C601 1.433 . S
C609 N611 1.387 . S
N610 C606 1.429 . S
N610 C607 1.387 . S
N611 C603 1.429 . S
N611 C609 1.387 . S
H612 C618 0.930 . S
H613 C622 0.930 . S
H614 C627 0.929 . S
H615 C625 0.929 . S
H616 C620 0.917 1_545 S
H617 C626 0.917 1_565 S
C618 H612 0.930 . S
C618 C619 1.367 . S
C618 C626 1.378 . S
C619 C618 1.367 . S
C619 C627 1.433 . S
C620 H616 0.917 1_565 S
C620 C622 1.378 . S
C620 C624 1.350 . S
C621 C624 1.463 1_546 S
C621 C626 1.350 . S
C621 N629 1.427 . S
C622 H613 0.930 . S
C622 C620 1.378 . S
C622 C623 1.367 . S
C623 C622 1.367 . S
C623 C625 1.433 . S
C624 C620 1.350 . S
C624 C621 1.463 1_564 S
C624 N628 1.427 . S
C625 H615 0.929 . S
C625 C623 1.433 . S
C625 N628 1.384 . S
C626 H617 0.917 1_545 S
C626 C618 1.378 . S
C626 C621 1.350 . S
C627 H614 0.929 . S
C627 C619 1.433 . S
C627 N629 1.384 . S
N628 C624 1.427 . S
N628 C625 1.384 . S
N629 C621 1.427 . S
N629 C627 1.384 . S
H630 C636 0.930 . S
H631 C640 0.930 . S
H632 C645 0.929 . S
H633 C643 0.929 . S
H634 C638 0.929 1_455 S
H635 C644 0.929 1_655 S
C636 H630 0.930 . S
C636 C637 1.367 . S
C636 C644 1.378 . S
C637 C636 1.367 . S
C637 C645 1.433 . S
C638 H634 0.929 1_655 S
C638 C640 1.378 . S
C638 C642 1.350 . S
C639 C642 1.463 1_454 S
C639 C644 1.350 . S
C639 N647 1.423 1_554 S
C640 H631 0.930 . S
C640 C638 1.378 . S
C640 C641 1.367 . S
C641 C640 1.367 . S
C641 C643 1.433 . S
C642 C638 1.350 . S
C642 C639 1.463 1_656 S
C642 N646 1.423 1_556 S
C643 H633 0.929 . S
C643 C641 1.433 . S
C643 N646 1.376 1_556 S
C644 H635 0.929 1_455 S
C644 C636 1.378 . S
C644 C639 1.350 . S
C645 H632 0.929 . S
C645 C637 1.433 . S
C645 N647 1.376 1_554 S
N646 C642 1.423 1_554 S
N646 C643 1.376 1_554 S
N647 C639 1.423 1_556 S
N647 C645 1.376 1_556 S
H648 C654 0.930 . S
H649 C658 0.930 . S
H650 C663 0.929 . S
H651 C661 0.929 . S
H652 C656 0.929 1_554 S
H653 C662 0.929 1_556 S
C654 H648 0.930 . S
C654 C655 1.367 . S
C654 C662 1.378 . S
C655 C654 1.367 . S
C655 C663 1.433 . S
C656 H652 0.929 1_556 S
C656 C658 1.378 . S
C656 C660 1.350 . S
C657 C660 1.463 1_554 S
C657 C662 1.350 . S
C657 N665 1.427 . S
C658 H649 0.930 . S
C658 C656 1.378 . S
C658 C659 1.367 . S
C659 C658 1.367 . S
C659 C661 1.433 . S
C660 C656 1.350 . S
C660 C657 1.463 1_556 S
C660 N664 1.427 . S
C661 H651 0.929 . S
C661 C659 1.433 . S
C661 N664 1.384 . S
C662 H653 0.929 1_554 S
C662 C654 1.378 . S
C662 C657 1.350 . S
C663 H650 0.929 . S
C663 C655 1.433 . S
C663 N665 1.384 . S
N664 C660 1.427 . S
N664 C661 1.384 . S
N665 C657 1.427 . S
N665 C663 1.384 . S
H666 C672 0.930 . S
H667 C676 0.930 . S
H668 C681 0.929 . S
H669 C679 0.929 . S
H670 C674 0.929 1_556 S
H671 C680 0.929 1_554 S
C672 H666 0.930 . S
C672 C673 1.367 . S
C672 C680 1.378 . S
C673 C672 1.367 . S
C673 C681 1.433 . S
C674 H670 0.929 1_554 S
C674 C676 1.378 . S
C674 C678 1.350 . S
C675 C678 1.463 1_546 S
C675 C680 1.350 . S
C675 N683 1.427 . S
C676 H667 0.930 . S
C676 C674 1.378 . S
C676 C677 1.367 . S
C677 C676 1.367 . S
C677 C679 1.433 . S
C678 C674 1.350 . S
C678 C675 1.463 1_564 S
C678 N682 1.427 . S
C679 H669 0.929 . S
C679 C677 1.433 . S
C679 N682 1.384 . S
C680 H671 0.929 1_556 S
C680 C672 1.378 . S
C680 C675 1.350 . S
C681 H668 0.929 . S
C681 C673 1.433 . S
C681 N683 1.384 . S
N682 C678 1.427 . S
N682 C679 1.384 . S
N683 C675 1.427 . S
N683 C681 1.384 . S
H684 C690 0.930 . S
H685 C694 0.930 . S
H686 C699 0.929 . S
H687 C697 0.929 . S
H688 C692 0.929 1_556 S
H689 C698 0.929 1_554 S
C690 H684 0.930 . S
C690 C691 1.367 . S
C690 C698 1.378 . S
C691 C690 1.367 . S
C691 C699 1.433 . S
C692 H688 0.929 1_554 S
C692 C694 1.378 . S
C692 C696 1.350 . S
C693 C696 1.463 1_656 S
C693 C698 1.350 . S
C693 N701 1.426 1_655 S
C694 H685 0.930 . S
C694 C692 1.378 . S
C694 C695 1.367 . S
C695 C694 1.367 . S
C695 C697 1.433 . S
C696 C692 1.350 . S
C696 C693 1.463 1_454 S
C696 N700 1.426 1_455 S
C697 H687 0.929 . S
C697 C695 1.433 . S
C697 N700 1.379 1_455 S
C698 H689 0.929 1_556 S
C698 C690 1.378 . S
C698 C693 1.350 . S
C699 H686 0.929 . S
C699 C691 1.433 . S
C699 N701 1.379 1_655 S
N700 C696 1.426 1_655 S
N700 C697 1.379 1_655 S
N701 C693 1.426 1_455 S
N701 C699 1.379 1_455 S
H702 C708 0.930 . S
H703 C712 0.930 . S
H704 C717 0.929 . S
H705 C715 0.929 . S
H706 C710 0.929 . S
H707 C716 0.929 . S
C708 H702 0.930 . S
C708 C709 1.367 . S
C708 C716 1.378 . S
C709 C708 1.367 . S
C709 C717 1.433 . S
C710 H706 0.929 . S
C710 C712 1.378 . S
C710 C714 1.350 . S
C711 C714 1.463 . S
C711 C716 1.350 . S
C711 N719 1.427 . S
C712 H703 0.930 . S
C712 C710 1.378 . S
C712 C713 1.367 . S
C713 C712 1.367 . S
C713 C715 1.433 . S
C714 C710 1.350 . S
C714 C711 1.463 . S
C714 N718 1.427 . S
C715 H705 0.929 . S
C715 C713 1.433 . S
C715 N718 1.384 . S
C716 H707 0.929 . S
C716 C708 1.378 . S
C716 C711 1.350 . S
C717 H704 0.929 . S
C717 C709 1.433 . S
C717 N719 1.384 . S
N718 C714 1.427 . S
N718 C715 1.384 . S
N719 C711 1.427 . S
N719 C717 1.384 . S
H720 C726 0.930 . S
H721 C730 0.930 . S
H722 C735 0.929 . S
H723 C733 0.929 . S
H724 C728 0.929 . S
H725 C734 0.929 . S
C726 H720 0.930 . S
C726 C727 1.367 . S
C726 C734 1.378 . S
C727 C726 1.367 . S
C727 C735 1.433 . S
C728 H724 0.929 . S
C728 C730 1.378 . S
C728 C732 1.350 . S
C729 C732 1.463 . S
C729 C734 1.350 . S
C729 N737 1.427 . S
C730 H721 0.930 . S
C730 C728 1.378 . S
C730 C731 1.367 . S
C731 C730 1.367 . S
C731 C733 1.433 . S
C732 C728 1.350 . S
C732 C729 1.463 . S
C732 N736 1.427 . S
C733 H723 0.929 . S
C733 C731 1.433 . S
C733 N736 1.384 . S
C734 H725 0.929 . S
C734 C726 1.378 . S
C734 C729 1.350 . S
C735 H722 0.929 . S
C735 C727 1.433 . S
C735 N737 1.384 . S
N736 C732 1.427 . S
N736 C733 1.384 . S
N737 C729 1.427 . S
N737 C735 1.384 . S
H738 C744 0.930 . S
H739 C748 0.930 . S
H740 C753 0.929 . S
H741 C751 0.929 . S
H742 C746 0.929 . S
H743 C752 0.929 . S
C744 H738 0.930 . S
C744 C745 1.367 . S
C744 C752 1.378 . S
C745 C744 1.367 . S
C745 C753 1.433 . S
C746 H742 0.929 . S
C746 C748 1.378 . S
C746 C750 1.350 . S
C747 C750 1.463 . S
C747 C752 1.350 . S
C747 N755 1.427 . S
C748 H739 0.930 . S
C748 C746 1.378 . S
C748 C749 1.367 . S
C749 C748 1.367 . S
C749 C751 1.433 . S
C750 C746 1.350 . S
C750 C747 1.463 . S
C750 N754 1.427 . S
C751 H741 0.929 . S
C751 C749 1.433 . S
C751 N754 1.384 . S
C752 H743 0.929 . S
C752 C744 1.378 . S
C752 C747 1.350 . S
C753 H740 0.929 . S
C753 C745 1.433 . S
C753 N755 1.384 . S
N754 C750 1.427 . S
N754 C751 1.384 . S
N755 C747 1.427 . S
N755 C753 1.384 . S
H756 C762 0.930 . S
H757 C766 0.930 . S
H758 C771 0.929 . S
H759 C769 0.929 . S
H760 C764 0.929 . S
H761 C770 0.929 . S
C762 H756 0.930 . S
C762 C763 1.367 . S
C762 C770 1.378 . S
C763 C762 1.367 . S
C763 C771 1.433 . S
C764 H760 0.929 . S
C764 C766 1.378 . S
C764 C768 1.350 . S
C765 C768 1.463 . S
C765 C770 1.350 . S
C765 N773 1.427 . S
C766 H757 0.930 . S
C766 C764 1.378 . S
C766 C767 1.367 . S
C767 C766 1.367 . S
C767 C769 1.433 . S
C768 C764 1.350 . S
C768 C765 1.463 . S
C768 N772 1.427 . S
C769 H759 0.929 . S
C769 C767 1.433 . S
C769 N772 1.384 . S
C770 H761 0.929 . S
C770 C762 1.378 . S
C770 C765 1.350 . S
C771 H758 0.929 . S
C771 C763 1.433 . S
C771 N773 1.384 . S
N772 C768 1.427 . S
N772 C769 1.384 . S
N773 C765 1.427 . S
N773 C771 1.384 . S
H774 C780 0.930 . S
H775 C784 0.930 . S
H776 C789 0.929 . S
H777 C787 0.929 . S
H778 C782 0.929 . S
H779 C788 0.929 . S
C780 H774 0.930 . S
C780 C781 1.367 . S
C780 C788 1.378 . S
C781 C780 1.367 . S
C781 C789 1.433 . S
C782 H778 0.929 . S
C782 C784 1.378 . S
C782 C786 1.350 . S
C783 C786 1.463 . S
C783 C788 1.350 . S
C783 N791 1.427 . S
C784 H775 0.930 . S
C784 C782 1.378 . S
C784 C785 1.367 . S
C785 C784 1.367 . S
C785 C787 1.433 . S
C786 C782 1.350 . S
C786 C783 1.463 . S
C786 N790 1.427 . S
C787 H777 0.929 . S
C787 C785 1.433 . S
C787 N790 1.384 . S
C788 H779 0.929 . S
C788 C780 1.378 . S
C788 C783 1.350 . S
C789 H776 0.929 . S
C789 C781 1.433 . S
C789 N791 1.384 . S
N790 C786 1.427 . S
N790 C787 1.384 . S
N791 C783 1.427 . S
N791 C789 1.384 . S
H792 C798 0.930 . S
H793 C802 0.930 . S
H794 C807 0.929 . S
H795 C805 0.929 . S
H796 C800 0.929 . S
H797 C806 0.929 . S
C798 H792 0.930 . S
C798 C799 1.367 . S
C798 C806 1.378 . S
C799 C798 1.367 . S
C799 C807 1.433 . S
C800 H796 0.929 . S
C800 C802 1.378 . S
C800 C804 1.350 . S
C801 C804 1.463 . S
C801 C806 1.350 . S
C801 N809 1.427 . S
C802 H793 0.930 . S
C802 C800 1.378 . S
C802 C803 1.367 . S
C803 C802 1.367 . S
C803 C805 1.433 . S
C804 C800 1.350 . S
C804 C801 1.463 . S
C804 N808 1.427 . S
C805 H795 0.929 . S
C805 C803 1.433 . S
C805 N808 1.384 . S
C806 H797 0.929 . S
C806 C798 1.378 . S
C806 C801 1.350 . S
C807 H794 0.929 . S
C807 C799 1.433 . S
C807 N809 1.384 . S
N808 C804 1.427 . S
N808 C805 1.384 . S
N809 C801 1.427 . S
N809 C807 1.384 . S
H810 C816 0.930 . S
H811 C820 0.930 . S
H812 C825 0.929 . S
H813 C823 0.929 . S
H814 C818 0.929 . S
H815 C824 0.929 . S
C816 H810 0.930 . S
C816 C817 1.367 . S
C816 C824 1.378 . S
C817 C816 1.367 . S
C817 C825 1.433 . S
C818 H814 0.929 . S
C818 C820 1.378 . S
C818 C822 1.350 . S
C819 C822 1.463 . S
C819 C824 1.350 . S
C819 N827 1.427 . S
C820 H811 0.930 . S
C820 C818 1.378 . S
C820 C821 1.367 . S
C821 C820 1.367 . S
C821 C823 1.433 . S
C822 C818 1.350 . S
C822 C819 1.463 . S
C822 N826 1.427 . S
C823 H813 0.929 . S
C823 C821 1.433 . S
C823 N826 1.384 . S
C824 H815 0.929 . S
C824 C816 1.378 . S
C824 C819 1.350 . S
C825 H812 0.929 . S
C825 C817 1.433 . S
C825 N827 1.384 . S
N826 C822 1.427 . S
N826 C823 1.384 . S
N827 C819 1.427 . S
N827 C825 1.384 . S
H828 C834 0.930 . S
H829 C838 0.930 . S
H830 C843 0.929 . S
H831 C841 0.929 . S
H832 C836 0.929 . S
H833 C842 0.929 . S
C834 H828 0.930 . S
C834 C835 1.367 . S
C834 C842 1.378 . S
C835 C834 1.367 . S
C835 C843 1.433 . S
C836 H832 0.929 . S
C836 C838 1.378 . S
C836 C840 1.350 . S
C837 C840 1.463 . S
C837 C842 1.350 . S
C837 N845 1.427 . S
C838 H829 0.930 . S
C838 C836 1.378 . S
C838 C839 1.367 . S
C839 C838 1.367 . S
C839 C841 1.433 . S
C840 C836 1.350 . S
C840 C837 1.463 . S
C840 N844 1.427 . S
C841 H831 0.929 . S
C841 C839 1.433 . S
C841 N844 1.384 . S
C842 H833 0.929 . S
C842 C834 1.378 . S
C842 C837 1.350 . S
C843 H830 0.929 . S
C843 C835 1.433 . S
C843 N845 1.384 . S
N844 C840 1.427 . S
N844 C841 1.384 . S
N845 C837 1.427 . S
N845 C843 1.384 . S
H846 C852 0.930 . S
H847 C856 0.930 . S
H848 C861 0.929 . S
H849 C859 0.929 . S
H850 C854 0.929 . S
H851 C860 0.929 . S
C852 H846 0.930 . S
C852 C853 1.367 . S
C852 C860 1.378 . S
C853 C852 1.367 . S
C853 C861 1.433 . S
C854 H850 0.929 . S
C854 C856 1.378 . S
C854 C858 1.350 . S
C855 C858 1.463 . S
C855 C860 1.350 . S
C855 N863 1.427 . S
C856 H847 0.930 . S
C856 C854 1.378 . S
C856 C857 1.367 . S
C857 C856 1.367 . S
C857 C859 1.433 . S
C858 C854 1.350 . S
C858 C855 1.463 . S
C858 N862 1.427 . S
C859 H849 0.929 . S
C859 C857 1.433 . S
C859 N862 1.384 . S
C860 H851 0.929 . S
C860 C852 1.378 . S
C860 C855 1.350 . S
C861 H848 0.929 . S
C861 C853 1.433 . S
C861 N863 1.384 . S
N862 C858 1.427 . S
N862 C859 1.384 . S
N863 C855 1.427 . S
N863 C861 1.384 . S
H864 C870 0.930 . S
H865 C874 0.930 . S
H866 C879 0.929 . S
H867 C877 0.929 . S
H868 C872 0.929 . S
H869 C878 0.929 . S
C870 H864 0.930 . S
C870 C871 1.367 . S
C870 C878 1.378 . S
C871 C870 1.367 . S
C871 C879 1.433 . S
C872 H868 0.929 . S
C872 C874 1.378 . S
C872 C876 1.350 . S
C873 C876 1.463 . S
C873 C878 1.350 . S
C873 N881 1.427 . S
C874 H865 0.930 . S
C874 C872 1.378 . S
C874 C875 1.367 . S
C875 C874 1.367 . S
C875 C877 1.433 . S
C876 C872 1.350 . S
C876 C873 1.463 . S
C876 N880 1.427 . S
C877 H867 0.929 . S
C877 C875 1.433 . S
C877 N880 1.384 . S
C878 H869 0.929 . S
C878 C870 1.378 . S
C878 C873 1.350 . S
C879 H866 0.929 . S
C879 C871 1.433 . S
C879 N881 1.384 . S
N880 C876 1.427 . S
N880 C877 1.384 . S
N881 C873 1.427 . S
N881 C879 1.384 . S
H882 C888 0.930 . S
H883 C892 0.930 . S
H884 C897 0.929 . S
H885 C895 0.929 . S
H886 C890 0.929 . S
H887 C896 0.929 . S
C888 H882 0.930 . S
C888 C889 1.367 . S
C888 C896 1.378 . S
C889 C888 1.367 . S
C889 C897 1.433 . S
C890 H886 0.929 . S
C890 C892 1.378 . S
C890 C894 1.350 . S
C891 C894 1.463 . S
C891 C896 1.350 . S
C891 N899 1.427 . S
C892 H883 0.930 . S
C892 C890 1.378 . S
C892 C893 1.367 . S
C893 C892 1.367 . S
C893 C895 1.433 . S
C894 C890 1.350 . S
C894 C891 1.463 . S
C894 N898 1.427 . S
C895 H885 0.929 . S
C895 C893 1.433 . S
C895 N898 1.384 . S
C896 H887 0.929 . S
C896 C888 1.378 . S
C896 C891 1.350 . S
C897 H884 0.929 . S
C897 C889 1.433 . S
C897 N899 1.384 . S
N898 C894 1.427 . S
N898 C895 1.384 . S
N899 C891 1.427 . S
N899 C897 1.384 . S
H900 C906 0.930 . S
H901 C910 0.930 . S
H902 C915 0.929 . S
H903 C913 0.929 . S
H904 C908 0.929 . S
H905 C914 0.929 . S
C906 H900 0.930 . S
C906 C907 1.367 . S
C906 C914 1.378 . S
C907 C906 1.367 . S
C907 C915 1.433 . S
C908 H904 0.929 . S
C908 C910 1.378 . S
C908 C912 1.350 . S
C909 C912 1.463 . S
C909 C914 1.350 . S
C909 N917 1.427 . S
C910 H901 0.930 . S
C910 C908 1.378 . S
C910 C911 1.367 . S
C911 C910 1.367 . S
C911 C913 1.433 . S
C912 C908 1.350 . S
C912 C909 1.463 . S
C912 N916 1.427 . S
C913 H903 0.929 . S
C913 C911 1.433 . S
C913 N916 1.384 . S
C914 H905 0.929 . S
C914 C906 1.378 . S
C914 C909 1.350 . S
C915 H902 0.929 . S
C915 C907 1.433 . S
C915 N917 1.384 . S
N916 C912 1.427 . S
N916 C913 1.384 . S
N917 C909 1.427 . S
N917 C915 1.384 . S
H918 C924 0.930 . S
H919 C928 0.930 . S
H920 C933 0.929 . S
H921 C931 0.929 . S
H922 C926 0.929 . S
H923 C932 0.929 . S
C924 H918 0.930 . S
C924 C925 1.367 . S
C924 C932 1.378 . S
C925 C924 1.367 . S
C925 C933 1.433 . S
C926 H922 0.929 . S
C926 C928 1.378 . S
C926 C930 1.350 . S
C927 C930 1.463 . S
C927 C932 1.350 . S
C927 N935 1.427 . S
C928 H919 0.930 . S
C928 C926 1.378 . S
C928 C929 1.367 . S
C929 C928 1.367 . S
C929 C931 1.433 . S
C930 C926 1.350 . S
C930 C927 1.463 . S
C930 N934 1.427 . S
C931 H921 0.929 . S
C931 C929 1.433 . S
C931 N934 1.384 . S
C932 H923 0.929 . S
C932 C924 1.378 . S
C932 C927 1.350 . S
C933 H920 0.929 . S
C933 C925 1.433 . S
C933 N935 1.384 . S
N934 C930 1.427 . S
N934 C931 1.384 . S
N935 C927 1.427 . S
N935 C933 1.384 . S
H936 C942 0.930 . S
H937 C946 0.930 . S
H938 C951 0.929 . S
H939 C949 0.929 . S
H940 C944 0.929 . S
H941 C950 0.929 . S
C942 H936 0.930 . S
C942 C943 1.367 . S
C942 C950 1.378 . S
C943 C942 1.367 . S
C943 C951 1.433 . S
C944 H940 0.929 . S
C944 C946 1.378 . S
C944 C948 1.350 . S
C945 C948 1.463 . S
C945 C950 1.350 . S
C945 N953 1.427 . S
C946 H937 0.930 . S
C946 C944 1.378 . S
C946 C947 1.367 . S
C947 C946 1.367 . S
C947 C949 1.433 . S
C948 C944 1.350 . S
C948 C945 1.463 . S
C948 N952 1.427 . S
C949 H939 0.929 . S
C949 C947 1.433 . S
C949 N952 1.384 . S
C950 H941 0.929 . S
C950 C942 1.378 . S
C950 C945 1.350 . S
C951 H938 0.929 . S
C951 C943 1.433 . S
C951 N953 1.384 . S
N952 C948 1.427 . S
N952 C949 1.384 . S
N953 C945 1.427 . S
N953 C951 1.384 . S
H954 C960 0.930 . S
H955 C964 0.930 . S
H956 C969 0.929 . S
H957 C967 0.929 . S
H958 C962 0.929 . S
H959 C968 0.929 . S
C960 H954 0.930 . S
C960 C961 1.367 . S
C960 C968 1.378 . S
C961 C960 1.367 . S
C961 C969 1.433 . S
C962 H958 0.929 . S
C962 C964 1.378 . S
C962 C966 1.350 . S
C963 C966 1.463 . S
C963 C968 1.350 . S
C963 N971 1.427 . S
C964 H955 0.930 . S
C964 C962 1.378 . S
C964 C965 1.367 . S
C965 C964 1.367 . S
C965 C967 1.433 . S
C966 C962 1.350 . S
C966 C963 1.463 . S
C966 N970 1.427 . S
C967 H957 0.929 . S
C967 C965 1.433 . S
C967 N970 1.384 . S
C968 H959 0.929 . S
C968 C960 1.378 . S
C968 C963 1.350 . S
C969 H956 0.929 . S
C969 C961 1.433 . S
C969 N971 1.384 . S
N970 C966 1.427 . S
N970 C967 1.384 . S
N971 C963 1.427 . S
N971 C969 1.384 . S
H972 C978 0.930 . S
H973 C982 0.930 . S
H974 C987 0.929 . S
H975 C985 0.929 . S
H976 C980 0.929 . S
H977 C986 0.929 . S
C978 H972 0.930 . S
C978 C979 1.367 . S
C978 C986 1.378 . S
C979 C978 1.367 . S
C979 C987 1.433 . S
C980 H976 0.929 . S
C980 C982 1.378 . S
C980 C984 1.350 . S
C981 C984 1.463 . S
C981 C986 1.350 . S
C981 N989 1.427 . S
C982 H973 0.930 . S
C982 C980 1.378 . S
C982 C983 1.367 . S
C983 C982 1.367 . S
C983 C985 1.433 . S
C984 C980 1.350 . S
C984 C981 1.463 . S
C984 N988 1.427 . S
C985 H975 0.929 . S
C985 C983 1.433 . S
C985 N988 1.384 . S
C986 H977 0.929 . S
C986 C978 1.378 . S
C986 C981 1.350 . S
C987 H974 0.929 . S
C987 C979 1.433 . S
C987 N989 1.384 . S
N988 C984 1.427 . S
N988 C985 1.384 . S
N989 C981 1.427 . S
N989 C987 1.384 . S
H990 C996 0.930 . S
H991 C1000 0.930 . S
H992 C1005 0.929 . S
H993 C1003 0.929 . S
H994 C998 0.929 . S
H995 C1004 0.929 . S
C996 H990 0.930 . S
C996 C997 1.367 . S
C996 C1004 1.378 . S
C997 C996 1.367 . S
C997 C1005 1.433 . S
C998 H994 0.929 . S
C998 C1000 1.378 . S
C998 C1002 1.350 . S
C999 C1002 1.463 . S
C999 C1004 1.350 . S
C999 N1007 1.427 . S
C1000 H991 0.930 . S
C1000 C998 1.378 . S
C1000 C1001 1.367 . S
C1001 C1000 1.367 . S
C1001 C1003 1.433 . S
C1002 C998 1.350 . S
C1002 C999 1.463 . S
C1002 N1006 1.427 . S
C1003 H993 0.929 . S
C1003 C1001 1.433 . S
C1003 N1006 1.384 . S
C1004 H995 0.929 . S
C1004 C996 1.378 . S
C1004 C999 1.350 . S
C1005 H992 0.929 . S
C1005 C997 1.433 . S
C1005 N1007 1.384 . S
N1006 C1002 1.427 . S
N1006 C1003 1.384 . S
N1007 C999 1.427 . S
N1007 C1005 1.384 . S
H1008 C1014 0.930 . S
H1009 C1018 0.930 . S
H1010 C1023 0.929 . S
H1011 C1021 0.929 . S
H1012 C1016 0.929 . S
H1013 C1022 0.929 . S
C1014 H1008 0.930 . S
C1014 C1015 1.367 . S
C1014 C1022 1.378 . S
C1015 C1014 1.367 . S
C1015 C1023 1.433 . S
C1016 H1012 0.929 . S
C1016 C1018 1.378 . S
C1016 C1020 1.350 . S
C1017 C1020 1.463 . S
C1017 C1022 1.350 . S
C1017 N1025 1.427 . S
C1018 H1009 0.930 . S
C1018 C1016 1.378 . S
C1018 C1019 1.367 . S
C1019 C1018 1.367 . S
C1019 C1021 1.433 . S
C1020 C1016 1.350 . S
C1020 C1017 1.463 . S
C1020 N1024 1.427 . S
C1021 H1011 0.929 . S
C1021 C1019 1.433 . S
C1021 N1024 1.384 . S
C1022 H1013 0.929 . S
C1022 C1014 1.378 . S
C1022 C1017 1.350 . S
C1023 H1010 0.929 . S
C1023 C1015 1.433 . S
C1023 N1025 1.384 . S
N1024 C1020 1.427 . S
N1024 C1021 1.384 . S
N1025 C1017 1.427 . S
N1025 C1023 1.384 . S
H1026 C1032 0.930 . S
H1027 C1036 0.930 . S
H1028 C1041 0.929 . S
H1029 C1039 0.929 . S
H1030 C1034 0.929 . S
H1031 C1040 0.929 . S
C1032 H1026 0.930 . S
C1032 C1033 1.367 . S
C1032 C1040 1.378 . S
C1033 C1032 1.367 . S
C1033 C1041 1.433 . S
C1034 H1030 0.929 . S
C1034 C1036 1.378 . S
C1034 C1038 1.350 . S
C1035 C1038 1.463 1_456 S
C1035 C1040 1.350 . S
C1035 N1043 1.427 1_556 S
C1036 H1027 0.930 . S
C1036 C1034 1.378 . S
C1036 C1037 1.367 . S
C1037 C1036 1.367 . S
C1037 C1039 1.433 . S
C1038 C1034 1.350 . S
C1038 C1035 1.463 1_654 S
C1038 N1042 1.427 1_554 S
C1039 H1029 0.929 . S
C1039 C1037 1.433 . S
C1039 N1042 1.384 1_554 S
C1040 H1031 0.929 . S
C1040 C1032 1.378 . S
C1040 C1035 1.350 . S
C1041 H1028 0.929 . S
C1041 C1033 1.433 . S
C1041 N1043 1.384 1_556 S
N1042 C1038 1.427 1_556 S
N1042 C1039 1.384 1_556 S
N1043 C1035 1.427 1_554 S
N1043 C1041 1.384 1_554 S
H1044 C1050 0.930 . S
H1045 C1054 0.930 . S
H1046 C1059 0.929 . S
H1047 C1057 0.929 . S
H1048 C1052 0.929 . S
H1049 C1058 0.929 . S
C1050 H1044 0.930 . S
C1050 C1051 1.367 . S
C1050 C1058 1.378 . S
C1051 C1050 1.367 . S
C1051 C1059 1.433 1_556 S
C1052 H1048 0.929 . S
C1052 C1054 1.378 . S
C1052 C1056 1.350 . S
C1053 C1056 1.463 1_556 S
C1053 C1058 1.350 . S
C1053 N1061 1.427 1_556 S
C1054 H1045 0.930 . S
C1054 C1052 1.378 . S
C1054 C1055 1.367 . S
C1055 C1054 1.367 . S
C1055 C1057 1.433 1_554 S
C1056 C1052 1.350 . S
C1056 C1053 1.463 1_554 S
C1056 N1060 1.427 1_554 S
C1057 H1047 0.929 . S
C1057 C1055 1.433 1_556 S
C1057 N1060 1.384 . S
C1058 H1049 0.929 . S
C1058 C1050 1.378 . S
C1058 C1053 1.350 . S
C1059 H1046 0.929 . S
C1059 C1051 1.433 1_554 S
C1059 N1061 1.384 . S
N1060 C1056 1.427 1_556 S
N1060 C1057 1.384 . S
N1061 C1053 1.427 1_554 S
N1061 C1059 1.384 . S
H1062 C1068 0.930 1_556 S
H1063 C1072 0.930 1_554 S
H1064 C1077 0.929 . S
H1065 C1075 0.929 . S
H1066 C1070 0.929 . S
H1067 C1076 0.929 . S
C1068 H1062 0.930 1_554 S
C1068 C1069 1.367 . S
C1068 C1076 1.378 1_554 S
C1069 C1068 1.367 . S
C1069 C1077 1.433 . S
C1070 H1066 0.929 . S
C1070 C1072 1.378 1_554 S
C1070 C1074 1.350 1_554 S
C1071 C1074 1.463 1_544 S
C1071 C1076 1.350 1_554 S
C1071 N1079 1.427 . S
C1072 H1063 0.930 1_556 S
C1072 C1070 1.378 1_556 S
C1072 C1073 1.367 . S
C1073 C1072 1.367 . S
C1073 C1075 1.433 . S
C1074 C1070 1.350 1_556 S
C1074 C1071 1.463 1_566 S
C1074 N1078 1.427 . S
C1075 H1065 0.929 . S
C1075 C1073 1.433 . S
C1075 N1078 1.384 . S
C1076 H1067 0.929 . S
C1076 C1068 1.378 1_556 S
C1076 C1071 1.350 1_556 S
C1077 H1064 0.929 . S
C1077 C1069 1.433 . S
C1077 N1079 1.384 . S
N1078 C1074 1.427 . S
N1078 C1075 1.384 . S
N1079 C1071 1.427 . S
N1079 C1077 1.384 . S
H1080 C1086 0.930 . S
H1081 C1090 0.930 . S
H1082 C1095 0.929 . S
H1083 C1093 0.929 . S
H1084 C1088 0.929 . S
H1085 C1094 0.929 . S
C1086 H1080 0.930 . S
C1086 C1087 1.367 . S
C1086 C1094 1.378 . S
C1087 C1086 1.367 . S
C1087 C1095 1.433 . S
C1088 H1084 0.929 . S
C1088 C1090 1.378 . S
C1088 C1092 1.350 . S
C1089 C1092 1.463 . S
C1089 C1094 1.350 . S
C1089 N1097 1.427 . S
C1090 H1081 0.930 . S
C1090 C1088 1.378 . S
C1090 C1091 1.367 . S
C1091 C1090 1.367 . S
C1091 C1093 1.433 . S
C1092 C1088 1.350 . S
C1092 C1089 1.463 . S
C1092 N1096 1.427 . S
C1093 H1083 0.929 . S
C1093 C1091 1.433 . S
C1093 N1096 1.384 . S
C1094 H1085 0.929 . S
C1094 C1086 1.378 . S
C1094 C1089 1.350 . S
C1095 H1082 0.929 . S
C1095 C1087 1.433 . S
C1095 N1097 1.384 . S
N1096 C1092 1.427 . S
N1096 C1093 1.384 . S
N1097 C1089 1.427 . S
N1097 C1095 1.384 . S
H1098 C1104 0.930 . S
H1099 C1108 0.930 . S
H1100 C1113 0.929 . S
H1101 C1111 0.929 . S
H1102 C1106 0.929 . S
H1103 C1112 0.929 . S
C1104 H1098 0.930 . S
C1104 C1105 1.367 . S
C1104 C1112 1.378 . S
C1105 C1104 1.367 . S
C1105 C1113 1.433 . S
C1106 H1102 0.929 . S
C1106 C1108 1.378 . S
C1106 C1110 1.350 . S
C1107 C1110 1.463 1_545 S
C1107 C1112 1.350 . S
C1107 N1115 1.419 1_545 S
C1108 H1099 0.930 . S
C1108 C1106 1.378 . S
C1108 C1109 1.367 . S
C1109 C1108 1.367 . S
C1109 C1111 1.433 . S
C1110 C1106 1.350 . S
C1110 C1107 1.463 1_565 S
C1110 N1114 1.419 1_565 S
C1111 H1101 0.929 . S
C1111 C1109 1.433 . S
C1111 N1114 1.367 1_565 S
C1112 H1103 0.929 . S
C1112 C1104 1.378 . S
C1112 C1107 1.350 . S
C1113 H1100 0.929 . S
C1113 C1105 1.433 . S
C1113 N1115 1.367 1_545 S
N1114 C1110 1.419 1_545 S
N1114 C1111 1.367 1_545 S
N1115 C1107 1.419 1_565 S
N1115 C1113 1.367 1_565 S
H1116 C1122 0.930 . S
H1117 C1126 0.930 . S
H1118 C1131 0.929 . S
H1119 C1129 0.929 . S
H1120 C1124 0.929 . S
H1121 C1130 0.929 . S
C1122 H1116 0.930 . S
C1122 C1123 1.367 . S
C1122 C1130 1.378 . S
C1123 C1122 1.367 . S
C1123 C1131 1.433 . S
C1124 H1120 0.929 . S
C1124 C1126 1.378 . S
C1124 C1128 1.350 . S
C1125 C1128 1.463 1_455 S
C1125 C1130 1.350 . S
C1125 N1133 1.427 . S
C1126 H1117 0.930 . S
C1126 C1124 1.378 . S
C1126 C1127 1.367 . S
C1127 C1126 1.367 . S
C1127 C1129 1.433 . S
C1128 C1124 1.350 . S
C1128 C1125 1.463 1_655 S
C1128 N1132 1.427 . S
C1129 H1119 0.929 . S
C1129 C1127 1.433 . S
C1129 N1132 1.384 . S
C1130 H1121 0.929 . S
C1130 C1122 1.378 . S
C1130 C1125 1.350 . S
C1131 H1118 0.929 . S
C1131 C1123 1.433 . S
C1131 N1133 1.384 . S
N1132 C1128 1.427 . S
N1132 C1129 1.384 . S
N1133 C1125 1.427 . S
N1133 C1131 1.384 . S
H1134 C1140 0.930 . S
H1135 C1144 0.930 . S
H1136 C1149 0.929 . S
H1137 C1147 0.929 . S
H1138 C1142 0.929 . S
H1139 C1148 0.929 . S
C1140 H1134 0.930 . S
C1140 C1141 1.367 . S
C1140 C1148 1.378 . S
C1141 C1140 1.367 . S
C1141 C1149 1.433 . S
C1142 H1138 0.929 . S
C1142 C1144 1.378 . S
C1142 C1146 1.350 . S
C1143 C1146 1.463 . S
C1143 C1148 1.350 . S
C1143 N1151 1.427 . S
C1144 H1135 0.930 . S
C1144 C1142 1.378 . S
C1144 C1145 1.367 . S
C1145 C1144 1.367 . S
C1145 C1147 1.433 . S
C1146 C1142 1.350 . S
C1146 C1143 1.463 . S
C1146 N1150 1.427 . S
C1147 H1137 0.929 . S
C1147 C1145 1.433 . S
C1147 N1150 1.384 . S
C1148 H1139 0.929 . S
C1148 C1140 1.378 . S
C1148 C1143 1.350 . S
C1149 H1136 0.929 . S
C1149 C1141 1.433 . S
C1149 N1151 1.384 . S
N1150 C1146 1.427 . S
N1150 C1147 1.384 . S
N1151 C1143 1.427 . S
N1151 C1149 1.384 . S
H1152 C1158 0.930 . S
H1153 C1162 0.930 . S
H1154 C1167 0.929 . S
H1155 C1165 0.929 . S
H1156 C1160 0.929 . S
H1157 C1166 0.929 . S
C1158 H1152 0.930 . S
C1158 C1159 1.367 . S
C1158 C1166 1.378 . S
C1159 C1158 1.367 . S
C1159 C1167 1.433 . S
C1160 H1156 0.929 . S
C1160 C1162 1.378 . S
C1160 C1164 1.350 . S
C1161 C1164 1.463 1_565 S
C1161 C1166 1.350 . S
C1161 N1169 1.427 . S
C1162 H1153 0.930 . S
C1162 C1160 1.378 . S
C1162 C1163 1.367 . S
C1163 C1162 1.367 . S
C1163 C1165 1.433 . S
C1164 C1160 1.350 . S
C1164 C1161 1.463 1_545 S
C1164 N1168 1.427 . S
C1165 H1155 0.929 . S
C1165 C1163 1.433 . S
C1165 N1168 1.384 . S
C1166 H1157 0.929 . S
C1166 C1158 1.378 . S
C1166 C1161 1.350 . S
C1167 H1154 0.929 . S
C1167 C1159 1.433 . S
C1167 N1169 1.384 . S
N1168 C1164 1.427 . S
N1168 C1165 1.384 . S
N1169 C1161 1.427 . S
N1169 C1167 1.384 . S
H1170 C1176 0.930 . S
H1171 C1180 0.930 . S
H1172 C1185 0.929 . S
H1173 C1183 0.929 . S
H1174 C1178 0.926 1_655 S
H1175 C1184 0.926 1_455 S
C1176 H1170 0.930 . S
C1176 C1177 1.367 . S
C1176 C1184 1.378 . S
C1177 C1176 1.367 . S
C1177 C1185 1.433 . S
C1178 H1174 0.926 1_455 S
C1178 C1180 1.378 . S
C1178 C1182 1.350 . S
C1179 C1182 1.463 1_655 S
C1179 C1184 1.350 . S
C1179 N1187 1.427 . S
C1180 H1171 0.930 . S
C1180 C1178 1.378 . S
C1180 C1181 1.367 . S
C1181 C1180 1.367 . S
C1181 C1183 1.433 . S
C1182 C1178 1.350 . S
C1182 C1179 1.463 1_455 S
C1182 N1186 1.427 . S
C1183 H1173 0.929 . S
C1183 C1181 1.433 . S
C1183 N1186 1.384 . S
C1184 H1175 0.926 1_655 S
C1184 C1176 1.378 . S
C1184 C1179 1.350 . S
C1185 H1172 0.929 . S
C1185 C1177 1.433 . S
C1185 N1187 1.384 . S
N1186 C1182 1.427 . S
N1186 C1183 1.384 . S
N1187 C1179 1.427 . S
N1187 C1185 1.384 . S
H1188 C1194 0.930 . S
H1189 C1198 0.930 . S
H1190 C1203 0.929 . S
H1191 C1201 0.929 . S
H1192 C1196 0.929 . S
H1193 C1202 0.929 . S
C1194 H1188 0.930 . S
C1194 C1195 1.367 . S
C1194 C1202 1.378 . S
C1195 C1194 1.367 . S
C1195 C1203 1.433 . S
C1196 H1192 0.929 . S
C1196 C1198 1.378 . S
C1196 C1200 1.350 . S
C1197 C1200 1.463 . S
C1197 C1202 1.350 . S
C1197 N1205 1.427 . S
C1198 H1189 0.930 . S
C1198 C1196 1.378 . S
C1198 C1199 1.367 . S
C1199 C1198 1.367 . S
C1199 C1201 1.433 . S
C1200 C1196 1.350 . S
C1200 C1197 1.463 . S
C1200 N1204 1.427 . S
C1201 H1191 0.929 . S
C1201 C1199 1.433 . S
C1201 N1204 1.384 . S
C1202 H1193 0.929 . S
C1202 C1194 1.378 . S
C1202 C1197 1.350 . S
C1203 H1190 0.929 . S
C1203 C1195 1.433 . S
C1203 N1205 1.384 . S
N1204 C1200 1.427 . S
N1204 C1201 1.384 . S
N1205 C1197 1.427 . S
N1205 C1203 1.384 . S
H1206 C1212 0.930 . S
H1207 C1216 0.930 . S
H1208 C1221 0.929 . S
H1209 C1219 0.929 . S
H1210 C1214 0.929 . S
H1211 C1220 0.929 . S
C1212 H1206 0.930 . S
C1212 C1213 1.367 . S
C1212 C1220 1.378 . S
C1213 C1212 1.367 . S
C1213 C1221 1.433 . S
C1214 H1210 0.929 . S
C1214 C1216 1.378 . S
C1214 C1218 1.350 . S
C1215 C1218 1.463 . S
C1215 C1220 1.350 . S
C1215 N1223 1.427 . S
C1216 H1207 0.930 . S
C1216 C1214 1.378 . S
C1216 C1217 1.367 . S
C1217 C1216 1.367 . S
C1217 C1219 1.433 . S
C1218 C1214 1.350 . S
C1218 C1215 1.463 . S
C1218 N1222 1.427 . S
C1219 H1209 0.929 . S
C1219 C1217 1.433 . S
C1219 N1222 1.384 . S
C1220 H1211 0.929 . S
C1220 C1212 1.378 . S
C1220 C1215 1.350 . S
C1221 H1208 0.929 . S
C1221 C1213 1.433 . S
C1221 N1223 1.384 . S
N1222 C1218 1.427 . S
N1222 C1219 1.384 . S
N1223 C1215 1.427 . S
N1223 C1221 1.384 . S
H1224 C1230 0.930 . S
H1225 C1234 0.930 . S
H1226 C1239 0.929 . S
H1227 C1237 0.929 . S
H1228 C1232 0.929 . S
H1229 C1238 0.929 . S
C1230 H1224 0.930 . S
C1230 C1231 1.367 . S
C1230 C1238 1.378 . S
C1231 C1230 1.367 . S
C1231 C1239 1.433 . S
C1232 H1228 0.929 . S
C1232 C1234 1.378 . S
C1232 C1236 1.350 . S
C1233 C1236 1.463 . S
C1233 C1238 1.350 . S
C1233 N1241 1.427 . S
C1234 H1225 0.930 . S
C1234 C1232 1.378 . S
C1234 C1235 1.367 . S
C1235 C1234 1.367 . S
C1235 C1237 1.433 . S
C1236 C1232 1.350 . S
C1236 C1233 1.463 . S
C1236 N1240 1.427 . S
C1237 H1227 0.929 . S
C1237 C1235 1.433 . S
C1237 N1240 1.384 . S
C1238 H1229 0.929 . S
C1238 C1230 1.378 . S
C1238 C1233 1.350 . S
C1239 H1226 0.929 . S
C1239 C1231 1.433 . S
C1239 N1241 1.384 . S
N1240 C1236 1.427 . S
N1240 C1237 1.384 . S
N1241 C1233 1.427 . S
N1241 C1239 1.384 . S
H1242 C1248 0.930 . S
H1243 C1252 0.930 . S
H1244 C1257 0.929 . S
H1245 C1255 0.929 . S
H1246 C1250 0.929 . S
H1247 C1256 0.929 . S
C1248 H1242 0.930 . S
C1248 C1249 1.367 . S
C1248 C1256 1.378 . S
C1249 C1248 1.367 . S
C1249 C1257 1.433 . S
C1250 H1246 0.929 . S
C1250 C1252 1.378 . S
C1250 C1254 1.350 . S
C1251 C1254 1.463 . S
C1251 C1256 1.350 . S
C1251 N1259 1.427 . S
C1252 H1243 0.930 . S
C1252 C1250 1.378 . S
C1252 C1253 1.367 . S
C1253 C1252 1.367 . S
C1253 C1255 1.433 . S
C1254 C1250 1.350 . S
C1254 C1251 1.463 . S
C1254 N1258 1.427 . S
C1255 H1245 0.929 . S
C1255 C1253 1.433 . S
C1255 N1258 1.384 . S
C1256 H1247 0.929 . S
C1256 C1248 1.378 . S
C1256 C1251 1.350 . S
C1257 H1244 0.929 . S
C1257 C1249 1.433 . S
C1257 N1259 1.384 . S
N1258 C1254 1.427 . S
N1258 C1255 1.384 . S
N1259 C1251 1.427 . S
N1259 C1257 1.384 . S
H1260 C1266 0.930 . S
H1261 C1270 0.930 . S
H1262 C1275 0.929 . S
H1263 C1273 0.929 . S
H1264 C1268 0.929 . S
H1265 C1274 0.929 . S
C1266 H1260 0.930 . S
C1266 C1267 1.367 . S
C1266 C1274 1.378 . S
C1267 C1266 1.367 . S
C1267 C1275 1.433 . S
C1268 H1264 0.929 . S
C1268 C1270 1.378 . S
C1268 C1272 1.350 . S
C1269 C1272 1.463 . S
C1269 C1274 1.350 . S
C1269 N1277 1.427 . S
C1270 H1261 0.930 . S
C1270 C1268 1.378 . S
C1270 C1271 1.367 . S
C1271 C1270 1.367 . S
C1271 C1273 1.433 . S
C1272 C1268 1.350 . S
C1272 C1269 1.463 . S
C1272 N1276 1.427 . S
C1273 H1263 0.929 . S
C1273 C1271 1.433 . S
C1273 N1276 1.384 . S
C1274 H1265 0.929 . S
C1274 C1266 1.378 . S
C1274 C1269 1.350 . S
C1275 H1262 0.929 . S
C1275 C1267 1.433 . S
C1275 N1277 1.384 . S
N1276 C1272 1.427 . S
N1276 C1273 1.384 . S
N1277 C1269 1.427 . S
N1277 C1275 1.384 . S
H1278 C1284 0.930 . S
H1279 C1288 0.930 . S
H1280 C1293 0.929 . S
H1281 C1291 0.929 . S
H1282 C1286 0.929 . S
H1283 C1292 0.929 . S
C1284 H1278 0.930 . S
C1284 C1285 1.367 . S
C1284 C1292 1.378 . S
C1285 C1284 1.367 . S
C1285 C1293 1.433 . S
C1286 H1282 0.929 . S
C1286 C1288 1.378 . S
C1286 C1290 1.350 . S
C1287 C1290 1.463 . S
C1287 C1292 1.350 . S
C1287 N1295 1.427 . S
C1288 H1279 0.930 . S
C1288 C1286 1.378 . S
C1288 C1289 1.367 . S
C1289 C1288 1.367 . S
C1289 C1291 1.433 . S
C1290 C1286 1.350 . S
C1290 C1287 1.463 . S
C1290 N1294 1.427 . S
C1291 H1281 0.929 . S
C1291 C1289 1.433 . S
C1291 N1294 1.384 . S
C1292 H1283 0.929 . S
C1292 C1284 1.378 . S
C1292 C1287 1.350 . S
C1293 H1280 0.929 . S
C1293 C1285 1.433 . S
C1293 N1295 1.384 . S
N1294 C1290 1.427 . S
N1294 C1291 1.384 . S
N1295 C1287 1.427 . S
N1295 C1293 1.384 . S
H1296 C1302 0.930 . S
H1297 C1306 0.930 . S
H1298 C1311 0.929 . S
H1299 C1309 0.929 . S
H1300 C1304 0.929 . S
H1301 C1310 0.929 . S
C1302 H1296 0.930 . S
C1302 C1303 1.367 . S
C1302 C1310 1.378 . S
C1303 C1302 1.367 . S
C1303 C1311 1.433 . S
C1304 H1300 0.929 . S
C1304 C1306 1.378 . S
C1304 C1308 1.350 . S
C1305 C1308 1.463 . S
C1305 C1310 1.350 . S
C1305 N1313 1.427 . S
C1306 H1297 0.930 . S
C1306 C1304 1.378 . S
C1306 C1307 1.367 . S
C1307 C1306 1.367 . S
C1307 C1309 1.433 . S
C1308 C1304 1.350 . S
C1308 C1305 1.463 . S
C1308 N1312 1.427 . S
C1309 H1299 0.929 . S
C1309 C1307 1.433 . S
C1309 N1312 1.384 . S
C1310 H1301 0.929 . S
C1310 C1302 1.378 . S
C1310 C1305 1.350 . S
C1311 H1298 0.929 . S
C1311 C1303 1.433 . S
C1311 N1313 1.384 . S
N1312 C1308 1.427 . S
N1312 C1309 1.384 . S
N1313 C1305 1.427 . S
N1313 C1311 1.384 . S
H1314 C1320 0.930 . S
H1315 C1324 0.930 . S
H1316 C1329 0.929 . S
H1317 C1327 0.929 . S
H1318 C1322 0.929 . S
H1319 C1328 0.929 . S
C1320 H1314 0.930 . S
C1320 C1321 1.367 . S
C1320 C1328 1.378 . S
C1321 C1320 1.367 . S
C1321 C1329 1.433 . S
C1322 H1318 0.929 . S
C1322 C1324 1.378 . S
C1322 C1326 1.350 . S
C1323 C1326 1.463 . S
C1323 C1328 1.350 . S
C1323 N1331 1.427 . S
C1324 H1315 0.930 . S
C1324 C1322 1.378 . S
C1324 C1325 1.367 . S
C1325 C1324 1.367 . S
C1325 C1327 1.433 . S
C1326 C1322 1.350 . S
C1326 C1323 1.463 . S
C1326 N1330 1.427 . S
C1327 H1317 0.929 . S
C1327 C1325 1.433 . S
C1327 N1330 1.384 . S
C1328 H1319 0.929 . S
C1328 C1320 1.378 . S
C1328 C1323 1.350 . S
C1329 H1316 0.929 . S
C1329 C1321 1.433 . S
C1329 N1331 1.384 . S
N1330 C1326 1.427 . S
N1330 C1327 1.384 . S
N1331 C1323 1.427 . S
N1331 C1329 1.384 . S
H1332 C1338 0.930 . S
H1333 C1342 0.930 . S
H1334 C1347 0.929 . S
H1335 C1345 0.929 . S
H1336 C1340 0.929 . S
H1337 C1346 0.929 . S
C1338 H1332 0.930 . S
C1338 C1339 1.367 . S
C1338 C1346 1.378 . S
C1339 C1338 1.367 . S
C1339 C1347 1.433 . S
C1340 H1336 0.929 . S
C1340 C1342 1.378 . S
C1340 C1344 1.350 . S
C1341 C1344 1.463 . S
C1341 C1346 1.350 . S
C1341 N1349 1.427 . S
C1342 H1333 0.930 . S
C1342 C1340 1.378 . S
C1342 C1343 1.367 . S
C1343 C1342 1.367 . S
C1343 C1345 1.433 . S
C1344 C1340 1.350 . S
C1344 C1341 1.463 . S
C1344 N1348 1.427 . S
C1345 H1335 0.929 . S
C1345 C1343 1.433 . S
C1345 N1348 1.384 . S
C1346 H1337 0.929 . S
C1346 C1338 1.378 . S
C1346 C1341 1.350 . S
C1347 H1334 0.929 . S
C1347 C1339 1.433 . S
C1347 N1349 1.384 . S
N1348 C1344 1.427 . S
N1348 C1345 1.384 . S
N1349 C1341 1.427 . S
N1349 C1347 1.384 . S
H1350 C1356 0.930 . S
H1351 C1360 0.930 . S
H1352 C1365 0.929 . S
H1353 C1363 0.929 . S
H1354 C1358 0.929 . S
H1355 C1364 0.929 . S
C1356 H1350 0.930 . S
C1356 C1357 1.367 . S
C1356 C1364 1.378 . S
C1357 C1356 1.367 . S
C1357 C1365 1.433 . S
C1358 H1354 0.929 . S
C1358 C1360 1.378 . S
C1358 C1362 1.350 . S
C1359 C1362 1.463 . S
C1359 C1364 1.350 . S
C1359 N1367 1.427 . S
C1360 H1351 0.930 . S
C1360 C1358 1.378 . S
C1360 C1361 1.367 . S
C1361 C1360 1.367 . S
C1361 C1363 1.433 . S
C1362 C1358 1.350 . S
C1362 C1359 1.463 . S
C1362 N1366 1.427 . S
C1363 H1353 0.929 . S
C1363 C1361 1.433 . S
C1363 N1366 1.384 . S
C1364 H1355 0.929 . S
C1364 C1356 1.378 . S
C1364 C1359 1.350 . S
C1365 H1352 0.929 . S
C1365 C1357 1.433 . S
C1365 N1367 1.384 . S
N1366 C1362 1.427 . S
N1366 C1363 1.384 . S
N1367 C1359 1.427 . S
N1367 C1365 1.384 . S
H1368 C1374 0.930 . S
H1369 C1378 0.930 . S
H1370 C1383 0.929 . S
H1371 C1381 0.929 . S
H1372 C1376 0.929 . S
H1373 C1382 0.929 . S
C1374 H1368 0.930 . S
C1374 C1375 1.367 . S
C1374 C1382 1.378 . S
C1375 C1374 1.367 . S
C1375 C1383 1.433 . S
C1376 H1372 0.929 . S
C1376 C1378 1.378 . S
C1376 C1380 1.350 . S
C1377 C1380 1.463 . S
C1377 C1382 1.350 . S
C1377 N1385 1.427 . S
C1378 H1369 0.930 . S
C1378 C1376 1.378 . S
C1378 C1379 1.367 . S
C1379 C1378 1.367 . S
C1379 C1381 1.433 . S
C1380 C1376 1.350 . S
C1380 C1377 1.463 . S
C1380 N1384 1.427 . S
C1381 H1371 0.929 . S
C1381 C1379 1.433 . S
C1381 N1384 1.384 . S
C1382 H1373 0.929 . S
C1382 C1374 1.378 . S
C1382 C1377 1.350 . S
C1383 H1370 0.929 . S
C1383 C1375 1.433 . S
C1383 N1385 1.384 . S
N1384 C1380 1.427 . S
N1384 C1381 1.384 . S
N1385 C1377 1.427 . S
N1385 C1383 1.384 . S
H1386 C1392 0.930 . S
H1387 C1396 0.930 . S
H1388 C1401 0.929 . S
H1389 C1399 0.929 . S
H1390 C1394 0.929 . S
H1391 C1400 0.929 . S
C1392 H1386 0.930 . S
C1392 C1393 1.367 . S
C1392 C1400 1.378 . S
C1393 C1392 1.367 . S
C1393 C1401 1.433 . S
C1394 H1390 0.929 . S
C1394 C1396 1.378 . S
C1394 C1398 1.350 . S
C1395 C1398 1.463 . S
C1395 C1400 1.350 . S
C1395 N1403 1.427 . S
C1396 H1387 0.930 . S
C1396 C1394 1.378 . S
C1396 C1397 1.367 . S
C1397 C1396 1.367 . S
C1397 C1399 1.433 . S
C1398 C1394 1.350 . S
C1398 C1395 1.463 . S
C1398 N1402 1.427 . S
C1399 H1389 0.929 . S
C1399 C1397 1.433 . S
C1399 N1402 1.384 . S
C1400 H1391 0.929 . S
C1400 C1392 1.378 . S
C1400 C1395 1.350 . S
C1401 H1388 0.929 . S
C1401 C1393 1.433 . S
C1401 N1403 1.384 . S
N1402 C1398 1.427 . S
N1402 C1399 1.384 . S
N1403 C1395 1.427 . S
N1403 C1401 1.384 . S
C601 N113 1.198 . S
C605 N14 1.198 . S
C619 N146 1.201 . S
C623 N47 1.201 . S
C637 N80 1.198 . S
C641 N179 1.198 . S
C655 C41 2.232 . S
C659 C173 2.230 . S
C673 C107 2.232 . S
C677 C74 2.230 . S
C691 C140 2.231 . S
C695 C8 2.231 . S
C709 N212 1.213 . S
C713 N311 1.213 . S
C727 N344 1.213 . S
C731 N245 1.213 . S
C745 N278 1.201 . S
C749 N377 1.201 . S
C763 C371 2.234 . S
C767 C239 2.231 . S
C781 C305 2.232 . S
C785 C272 2.234 . S
C799 C338 2.232 . S
C803 C206 2.234 . S
C817 N509 1.198 . S
C821 N410 1.198 . S
C835 N443 1.199 . S
C839 N542 1.199 . S
C853 N575 1.215 . S
C857 N476 1.215 . S
C871 C437 2.233 . S
C875 C569 2.230 . S
C889 C503 2.232 . S
C893 C470 2.230 . S
C907 C404 2.231 . S
C911 C536 2.231 . S
C925 C578 1.487 . S
C929 C17 1.487 . S
C943 C50 1.486 . S
C947 C512 1.487 . S
C961 C545 1.480 . S
C965 C83 1.481 . S
C979 C248 1.485 . S
C983 C116 1.486 . S
C997 C149 1.488 . S
C1001 C281 1.488 . S
C1015 C182 1.479 . S
C1019 C215 1.480 . S
C1033 C446 1.485 . S
C1037 C314 1.486 . S
C1051 C479 1.488 . S
C1055 C347 1.488 . S
C1069 C380 1.480 . S
C1073 C413 1.479 . S
C1087 C28 1.960 . S
C1091 C127 1.959 . S
C1105 C160 1.960 . S
C1109 C61 1.959 . S
C1123 C94 1.959 . S
C1127 C193 1.962 . S
C1141 N170 0.650 . S
C1145 N38 0.665 . S
C1159 N71 0.668 . S
C1163 N104 0.669 . S
C1177 N137 0.644 . S
C1181 N5 0.630 . S
C1195 C226 1.961 . S
C1199 C325 1.975 . S
C1213 C358 1.976 . S
C1217 C259 1.959 . S
C1231 C391 1.974 . S
C1235 C292 1.959 . S
C1249 N368 0.669 . S
C1253 N236 0.658 . S
C1267 N302 0.632 . S
C1271 N269 0.646 . S
C1285 N335 0.660 . S
C1289 N203 0.670 . S
C1303 C523 1.962 . S
C1307 C424 1.974 . S
C1321 C556 1.961 . S
C1325 C457 1.976 . S
C1339 C589 1.961 . S
C1343 C490 1.972 . S
C1357 N566 0.650 . S
C1361 N434 0.635 . S
C1375 N500 0.667 . S
C1379 N467 0.653 . S
C1393 N533 0.638 . S
C1397 N401 0.654 . S
