# Generated by pormake.
# Topology sxc, (6)-cn, num edge types: 1
# Building blocks:
#     Node 0, Type 0, BuildingBlock: LEVNOQ01_clean_sbu_1, # of connection points: 6
#     Node 1, Type 0, BuildingBlock: LEVNOQ01_clean_sbu_1, # of connection points: 6
#     Node 2, Type 0, BuildingBlock: LEVNOQ01_clean_sbu_1, # of connection points: 6
#     Edge 3, Type (0, 0), BuildingBlock: FUNLAD_clean_linker_0, # of connection points: 2
#     Edge 4, Type (0, 0), BuildingBlock: FUNLAD_clean_linker_0, # of connection points: 2
#     Edge 5, Type (0, 0), BuildingBlock: FUNLAD_clean_linker_0, # of connection points: 2
#     Edge 6, Type (0, 0), BuildingBlock: FUNLAD_clean_linker_0, # of connection points: 2
#     Edge 7, Type (0, 0), BuildingBlock: FUNLAD_clean_linker_0, # of connection points: 2
#     Edge 8, Type (0, 0), BuildingBlock: FUNLAD_clean_linker_0, # of connection points: 2
#     Edge 9, Type (0, 0), BuildingBlock: FUNLAD_clean_linker_0, # of connection points: 2
#     Edge 10, Type (0, 0), BuildingBlock: FUNLAD_clean_linker_0, # of connection points: 2
#     Edge 11, Type (0, 0), BuildingBlock: FUNLAD_clean_linker_0, # of connection points: 2
# Relax obj value: 0.100
# Max RMSD: 0.150
# Mean RMSD: 0.143
data_MOF--net-sxc--node1-LEVNOQ01_clean_sbu_1--edge1-FUNLAD_clean_linker_0
_symmetry_space_group_name_H-M    P1
_symmetry_Int_Tables_number       1
_symmetry_cell_setting            triclinic
loop_
_symmetry_equiv_pos_as_xyz
'x, y, z'
_cell_length_a     17.800698
_cell_length_b     17.882213
_cell_length_c     54.219257
_cell_angle_alpha  99.444249
_cell_angle_beta   89.595831
_cell_angle_gamma 119.91784
loop_
_atom_site_label
_atom_site_type_symbol
_atom_site_fract_x
_atom_site_fract_y
_atom_site_fract_z
_atom_type_partial_charge
O0 O 0.15037 0.96511 0.97813 0.0
Mg1 Mg 0.03693 0.96223 0.9656 0.0
O2 O 0.06291 0.95087 0.00739 0.0
Mg3 Mg 0.02033 0.05445 0.0022 0.0
O4 O 0.03543 0.0693 0.95846 0.0
O5 O 0.03798 0.96515 0.92913 0.0
O6 O 0.97723 0.15837 -0.00033 0.0
O7 O 0.16532 0.16444 0.00921 0.0
Mg8 Mg 0.05199 0.17281 0.04936 0.0
O9 O -0.00469 0.03986 0.04474 0.0
O10 O 0.97637 0.2213 0.03803 0.0
O11 O 0.18649 0.24403 0.04681 0.0
O12 O 0.01815 0.13122 0.0816 0.0
C13 C 0.85717 0.8676 0.98096 0.0
C14 C 0.11962 0.93459 -0.00246 0.0
C15 C 0.03539 0.03651 0.93508 0.0
C16 C 0.96105 0.21053 0.01467 0.0
C17 C 0.21572 0.2277 0.02659 0.0
C18 C -0.01045 0.05307 0.06893 0.0
O19 O 0.91346 0.85482 0.96968 0.0
O20 O 0.87861 0.94305 -0.00645 0.0
O21 O 0.3079 0.00303 0.29496 0.0
Mg22 Mg 0.17354 0.94429 0.29059 0.0
O23 O 0.29739 0.06988 0.33129 0.0
Mg24 Mg 0.15166 0.02738 0.33309 0.0
O25 O 0.11377 0.01591 0.28911 0.0
O26 O 0.14869 0.94834 0.25581 0.0
O27 O 0.00809 -0.01186 0.33733 0.0
O28 O 0.19278 0.17285 0.33187 0.0
Mg29 Mg 0.14774 0.12748 0.37864 0.0
O30 O 0.18786 0.03848 0.37632 0.0
O31 O 0.0125 0.06967 0.37326 0.0
O32 O 0.2299 0.2502 0.36993 0.0
O33 O 0.1864 0.12231 0.4122 0.0
C34 C 0.08775 0.81121 0.31798 0.0
C35 C 0.34329 0.05482 0.31546 0.0
C36 C 0.11412 -0.00585 0.26485 0.0
C37 C 0.96985 0.01155 0.35415 0.0
C38 C 0.2254 0.2469 0.34659 0.0
C39 C 0.20156 0.06275 0.4007 0.0
O40 O 0.0976 0.81547 0.29515 0.0
O41 O 0.10938 0.88098 0.33389 0.0
O42 O 0.10176 0.86851 0.66 0.0
Mg43 Mg 0.09108 0.96368 0.64386 0.0
O44 O 0.07419 0.95447 0.68606 0.0
Mg45 Mg 0.18349 0.08649 0.67443 0.0
O46 O 0.19204 0.05365 0.62888 0.0
O47 O 0.08448 0.92494 0.6071 0.0
O48 O 0.29183 0.22426 0.66796 0.0
O49 O 0.28158 0.04095 0.67787 0.0
Mg50 Mg 0.3163 0.1913 0.72257 0.0
O51 O 0.18474 0.12862 0.71715 0.0
O52 O 0.36911 0.29932 0.70448 0.0
O53 O 0.35986 0.10036 0.71454 0.0
O54 O 0.25856 0.19864 0.75469 0.0
C55 C 0.00577 0.0681 0.66107 0.0
C56 C 0.06389 0.87852 0.67882 0.0
C57 C 0.15646 -0.00225 0.6078 0.0
C58 C 0.35099 0.29496 0.68157 0.0
C59 C 0.33831 0.04806 0.69363 0.0
C60 C 0.18529 0.1522 0.74113 0.0
O61 O -0.01105 -0.0083 0.65093 0.0
O62 O 0.08233 0.12609 0.67022 0.0
C63 C -0.00625 0.31803 0.98673 0.0
C64 C 0.94522 0.27492 0.00561 0.0
C65 C 0.00529 0.39981 0.98444 0.0
C66 C 0.96727 0.43853 0.00078 0.0
C67 C 0.91055 0.39044 0.01755 0.0
C68 C 0.90037 0.30969 0.02017 0.0
C69 C -0.01022 0.53076 0.00209 0.0
C70 C 0.07074 0.59492 -0.00058 0.0
C71 C 0.09462 0.68828 0.00257 0.0
C72 C 0.1566 0.74241 0.98786 0.0
C73 C 0.1715 0.82694 0.98793 0.0
C74 C 0.12512 0.85893 0.00294 0.0
H75 H 0.01025 0.68499 0.03204 0.0
C76 C 0.07037 0.80815 0.01971 0.0
C77 C 0.05509 0.72352 0.01949 0.0
H78 H 0.03474 0.83133 0.03185 0.0
H79 H 0.0294 0.29281 0.97537 0.0
H80 H 0.04701 0.43428 0.9707 0.0
H81 H 0.87945 0.4184 0.03004 0.0
H82 H 0.86279 0.27766 0.03491 0.0
H83 H 0.93991 0.54703 0.00732 0.0
H84 H 0.12061 0.57866 -0.00584 0.0
H85 H 0.1896 0.71742 0.97516 0.0
H86 H 0.21489 0.86473 0.97498 0.0
C87 C 0.45537 0.07322 0.34629 0.0
C88 C 0.43346 0.08202 0.32256 0.0
C89 C 0.53013 0.06875 0.35035 0.0
C90 C 0.58389 0.0744 0.33078 0.0
C91 C 0.56741 0.09414 0.30821 0.0
C92 C 0.49182 0.09673 0.30396 0.0
C93 C 0.65352 0.05359 0.33258 0.0
C94 C 0.64543 -0.01039 0.34428 0.0
C95 C 0.71657 0.97082 0.34539 0.0
C96 C 0.74836 0.96968 0.36875 0.0
C97 C 0.82887 0.97531 0.3713 0.0
C98 C 0.87681 0.97976 0.35036 0.0
H99 H 0.73479 0.96406 0.30565 0.0
C100 C 0.8396 0.96926 0.32644 0.0
C101 C 0.75987 0.96547 0.32398 0.0
H102 H 0.87542 0.97211 0.31003 0.0
H103 H 0.41096 0.06161 0.36088 0.0
H104 H 0.54346 0.05668 0.3683 0.0
H105 H 0.60923 0.10046 0.29311 0.0
H106 H 0.47592 0.10398 0.28557 0.0
H107 H 0.71051 0.0877 0.32251 0.0
H108 H 0.5893 0.95508 0.35457 0.0
H109 H 0.71489 0.97245 0.38535 0.0
H110 H 0.85628 0.98215 0.38988 0.0
C111 C 0.9186 0.81087 0.69557 0.0
C112 C -0.01422 0.80101 0.68467 0.0
C113 C 0.83427 0.73913 0.69326 0.0
C114 C 0.81617 0.65635 0.68029 0.0
C115 C 0.8851 0.64442 0.67226 0.0
C116 C 0.96935 0.71635 0.67428 0.0
C117 C 0.72608 0.58216 0.67424 0.0
C118 C 0.65863 0.59339 0.66938 0.0
C119 C 0.56855 0.51893 0.66587 0.0
C120 C 0.50541 0.52822 0.67938 0.0
C121 C 0.42697 0.45396 0.68201 0.0
C122 C 0.4101 0.37032 0.67046 0.0
H123 H 0.59468 0.42819 0.6409 0.0
C124 C 0.46805 0.36222 0.65413 0.0
C125 C 0.54749 0.43632 0.65197 0.0
H126 H 0.45642 0.29798 0.64531 0.0
H127 H 0.92937 0.87507 0.70404 0.0
H128 H 0.78297 0.74938 0.70081 0.0
H129 H 0.87287 0.58054 0.66286 0.0
H130 H 0.02015 0.70665 0.66601 0.0
H131 H 0.71544 0.5163 0.67321 0.0
H132 H 0.6684 0.65891 0.6705 0.0
H133 H 0.52017 0.5916 0.68995 0.0
H134 H 0.38314 0.46109 0.69488 0.0
C135 C 0.87145 0.0569 0.64454 0.0
C136 C 0.93385 0.08444 0.66462 0.0
C137 C 0.79229 0.05228 0.64885 0.0
C138 C 0.77396 0.07284 0.67346 0.0
C139 C 0.83926 0.10692 0.69325 0.0
C140 C 0.9191 0.11278 0.68885 0.0
C141 C 0.68676 0.05656 0.67928 0.0
C142 C 0.61345 -0.00656 0.66536 0.0
C143 C 0.52877 0.98218 0.67195 0.0
C144 C 0.47195 0.97818 0.65339 0.0
C145 C 0.40286 -0.0093 0.66031 0.0
C146 C 0.39058 0.00724 0.68585 0.0
H147 H 0.55096 -0.01326 0.71158 0.0
C148 C 0.4408 -0.00028 0.70403 0.0
C149 C 0.50941 -0.01313 0.6971 0.0
H150 H 0.43108 0.01013 0.72377 0.0
H151 H 0.88265 0.03563 0.62569 0.0
H152 H 0.74497 0.03011 0.633 0.0
H153 H 0.82677 0.12432 0.71231 0.0
H154 H 0.96653 0.13321 0.7046 0.0
H155 H 0.68259 0.09587 0.69623 0.0
H156 H 0.61546 0.95387 0.64819 0.0
H157 H 0.48548 0.97335 0.63385 0.0
H158 H 0.3645 -0.00446 0.64588 0.0
C159 C 0.71797 0.79016 0.00052 0.0
C160 C 0.76881 0.7929 0.98044 0.0
C161 C 0.64042 0.71303 0.00185 0.0
C162 C 0.61241 0.63845 0.98291 0.0
C163 C 0.65951 0.64352 0.96189 0.0
C164 C 0.73787 0.71992 0.96079 0.0
C165 C 0.53752 0.5533 0.9856 0.0
C166 C 0.53008 0.52321 0.00716 0.0
C167 C 0.45605 0.43925 0.01153 0.0
C168 C 0.43764 0.42958 0.03637 0.0
C169 C 0.36227 0.35679 0.04142 0.0
C170 C 0.30436 0.29186 0.02166 0.0
H171 H 0.41617 0.37366 0.97245 0.0
C172 C 0.32682 0.29735 -0.00313 0.0
C173 C 0.4021 0.37053 0.99181 0.0
H174 H 0.28377 0.24787 0.98126 0.0
H175 H 0.74031 0.84576 0.01581 0.0
H176 H 0.6036 0.7108 0.01798 0.0
H177 H 0.63822 0.58685 0.94701 0.0
H178 H 0.77557 0.72097 0.94494 0.0
H179 H 0.49135 0.51428 0.96934 0.0
H180 H 0.57882 0.56419 0.02284 0.0
H181 H 0.47923 0.4807 0.05191 0.0
H182 H 0.34719 0.3537 0.06075 0.0
C183 C 0.26686 0.40398 0.35439 0.0
C184 C 0.2369 0.32457 0.33736 0.0
C185 C 0.25046 0.46788 0.34874 0.0
C186 C 0.20444 0.4534 0.32591 0.0
C187 C 0.18535 0.37991 0.30754 0.0
C188 C 0.20116 0.3154 0.31326 0.0
C189 C 0.16962 0.51008 0.32174 0.0
C190 C 0.13599 0.54126 0.34023 0.0
C191 C 0.10181 0.59877 0.33634 0.0
C192 C 0.11734 0.669 0.35553 0.0
C193 C 0.1028 0.73505 0.35049 0.0
C194 C 0.07221 0.73074 0.32619 0.0
H195 H 0.04335 0.53266 0.29842 0.0
C196 C 0.0453 0.65425 0.30813 0.0
C197 C 0.06012 0.58868 0.31315 0.0
H198 H 0.01951 0.64831 0.28941 0.0
H199 H 0.29661 0.41388 0.37289 0.0
H200 H 0.26955 0.52629 0.36276 0.0
H201 H 0.15177 0.36889 0.28956 0.0
H202 H 0.17847 0.25538 0.29961 0.0
H203 H 0.16751 0.52224 0.30284 0.0
H204 H 0.13827 0.52878 0.35909 0.0
H205 H 0.14744 0.6766 0.37377 0.0
H206 H 0.12324 0.7929 0.36487 0.0
C207 C 0.12063 0.04721 0.22567 0.0
C208 C 0.07395 0.01775 0.24634 0.0
C209 C 0.07715 0.03549 0.20293 0.0
C210 C -0.01383 -0.00525 0.20051 0.0
C211 C 0.94022 0.97523 0.22193 0.0
C212 C -0.01597 -0.01398 0.24483 0.0
C213 C 0.94044 0.97013 0.17532 0.0
C214 C 0.95981 0.92614 0.15603 0.0
C215 C 0.94288 0.92603 0.12924 0.0
C216 C 0.00036 0.91996 0.11215 0.0
C217 C 0.00617 0.94816 0.08925 0.0
C218 C 0.95401 0.98195 0.08328 0.0
H219 H 0.8332 0.94751 0.13336 0.0
C220 C 0.88723 0.97445 0.09843 0.0
C221 C 0.88123 0.94618 0.12125 0.0
H222 H 0.84625 0.00024 0.09407 0.0
H223 H 0.19007 0.07177 0.22644 0.0
H224 H 0.11423 0.05387 0.18683 0.0
H225 H 0.87009 0.94553 0.22047 0.0
H226 H 0.94675 0.96188 0.26049 0.0
H227 H 0.89784 -0.00437 0.17252 0.0
H228 H 0.0026 0.90177 0.16014 0.0
H229 H 0.0475 0.90289 0.11763 0.0
H230 H 0.05867 0.95416 0.07794 0.0
C231 C 0.16399 0.94123 0.42301 0.0
C232 C 0.22824 0.02001 0.41655 0.0
C233 C 0.17347 0.92042 0.44611 0.0
C234 C 0.24664 0.97883 0.46301 0.0
C235 C 0.31554 0.0519 0.45511 0.0
C236 C 0.30618 0.0724 0.432 0.0
C237 C 0.24405 0.96828 0.48955 0.0
C238 C 0.26853 0.0374 0.50854 0.0
C239 C 0.24942 0.02923 0.53508 0.0
C240 C 0.2559 0.10177 0.55187 0.0
C241 C 0.23067 0.09413 0.57631 0.0
C242 C 0.19767 0.01341 0.58416 0.0
H243 H 0.21787 0.89338 0.53205 0.0
C244 C 0.19472 0.94227 0.56786 0.0
C245 C 0.22125 0.95019 0.54375 0.0
H246 H 0.1701 0.87945 0.57364 0.0
H247 H 0.10246 0.90117 0.41163 0.0
H248 H 0.11981 0.86338 0.45179 0.0
H249 H 0.37373 0.09661 0.46754 0.0
H250 H 0.35598 0.13403 0.42741 0.0
H251 H 0.20928 0.90163 0.49297 0.0
H252 H 0.2962 0.10269 0.50406 0.0
H253 H 0.2777 0.16367 0.54579 0.0
H254 H 0.23267 0.14962 0.58853 0.0
C255 C 0.09475 0.19033 0.76869 0.0
C256 C 0.10578 0.12489 0.75399 0.0
C257 C 0.04552 0.17225 0.78932 0.0
C258 C 0.00853 0.08876 0.79583 0.0
C259 C 0.01011 0.02058 0.77912 0.0
C260 C 0.05878 0.03861 0.75828 0.0
C261 C 0.97966 0.07381 0.82124 0.0
C262 C 0.01759 0.13744 0.84191 0.0
C263 C 0.01169 0.11895 0.86784 0.0
C264 C 0.08045 0.17729 0.88628 0.0
C265 C 0.08552 0.15443 0.90947 0.0
C266 C 0.02165 0.073 0.91441 0.0
H267 H 0.88782 -0.00379 0.86084 0.0
C268 C 0.94944 0.01808 0.89693 0.0
C269 C 0.94377 0.04119 0.87398 0.0
H270 H 0.89912 0.95507 0.90059 0.0
H271 H 0.13083 0.25743 0.76563 0.0
H272 H 0.04221 0.22536 0.80112 0.0
H273 H 0.98097 0.95526 0.78349 0.0
H274 H 0.06749 -0.01251 0.74731 0.0
H275 H 0.93791 0.00605 0.82327 0.0
H276 H 0.06526 0.20369 0.83974 0.0
H277 H 0.13321 0.23816 0.88216 0.0
H278 H 0.14199 0.19731 0.9227 0.0
loop_
_geom_bond_atom_site_label_1
_geom_bond_atom_site_label_2
_geom_bond_distance
_geom_bond_site_symmetry_2
_ccdc_geom_bond_type
O0 Mg1 1.990 1_455 S
O0 C14 1.253 1_556 S
Mg1 O0 1.990 1_655 S
Mg1 O4 2.180 1_665 S
Mg1 O5 2.117 1_655 S
Mg1 O19 2.030 . S
O2 Mg3 2.072 1_565 S
O2 C14 1.260 . S
Mg3 O2 2.072 1_545 S
Mg3 O4 2.099 1_554 S
Mg3 O6 2.079 . S
Mg3 O7 2.072 . S
Mg3 O9 2.099 . S
Mg3 O20 2.079 1_445 S
O4 Mg1 2.180 1_445 S
O4 Mg3 2.099 1_556 S
O4 C15 1.279 . S
O5 Mg1 2.117 1_455 S
O5 C15 1.250 1_565 S
O6 Mg3 2.079 . S
O6 C16 1.264 . S
O7 Mg3 2.072 . S
O7 C17 1.260 . S
Mg8 O9 2.180 . S
Mg8 O10 2.030 . S
Mg8 O11 1.990 . S
Mg8 O12 2.117 . S
O9 Mg3 2.099 . S
O9 Mg8 2.180 . S
O9 C18 1.279 . S
O10 Mg8 2.030 . S
O10 C16 1.248 . S
O11 Mg8 1.990 . S
O11 C17 1.253 . S
O12 Mg8 2.117 . S
O12 C18 1.250 . S
C13 O19 1.248 1_554 S
C13 O20 1.264 . S
C14 O0 1.253 1_554 S
C14 O2 1.260 . S
C15 O4 1.279 . S
C15 O5 1.250 1_545 S
C16 O6 1.264 . S
C16 O10 1.248 . S
C17 O7 1.260 . S
C17 O11 1.253 . S
C18 O9 1.279 . S
C18 O12 1.250 . S
O19 Mg1 2.030 . S
O19 C13 1.248 1_556 S
O20 Mg3 2.079 1_665 S
O20 C13 1.264 . S
O21 Mg22 1.990 1_545 S
O21 C35 1.253 . S
Mg22 O21 1.990 1_565 S
Mg22 O25 2.184 . S
Mg22 O26 2.117 1_565 S
Mg22 O40 2.030 . S
O23 Mg24 2.072 . S
O23 C35 1.260 . S
Mg24 O23 2.072 . S
Mg24 O25 2.098 1_545 S
Mg24 O27 2.079 1_545 S
Mg24 O28 2.072 . S
Mg24 O30 2.099 . S
Mg24 O41 2.079 1_545 S
O25 Mg22 2.184 . S
O25 Mg24 2.098 1_565 S
O25 C36 1.277 1_565 S
O26 Mg22 2.117 1_545 S
O26 C36 1.250 . S
O27 Mg24 2.079 1_565 S
O27 C37 1.264 1_465 S
O28 Mg24 2.072 . S
O28 C38 1.260 . S
Mg29 O30 2.180 . S
Mg29 O31 2.030 1_455 S
Mg29 O32 1.990 . S
Mg29 O33 2.117 . S
O30 Mg24 2.099 . S
O30 Mg29 2.180 . S
O30 C39 1.279 . S
O31 Mg29 2.030 1_655 S
O31 C37 1.248 . S
O32 Mg29 1.990 . S
O32 C38 1.253 . S
O33 Mg29 2.117 . S
O33 C39 1.250 . S
C34 O40 1.248 . S
C34 O41 1.264 . S
C35 O21 1.253 . S
C35 O23 1.260 . S
C36 O25 1.277 1_545 S
C36 O26 1.250 . S
C37 O27 1.264 1_645 S
C37 O31 1.248 . S
C38 O28 1.260 . S
C38 O32 1.253 . S
C39 O30 1.279 . S
C39 O33 1.250 . S
O40 Mg22 2.030 . S
O40 C34 1.248 . S
O41 Mg24 2.079 1_565 S
O41 C34 1.264 . S
O42 Mg43 1.990 1_655 S
O42 C56 1.253 1_655 S
Mg43 O42 1.990 1_455 S
Mg43 O46 2.180 1_565 S
Mg43 O47 2.117 . S
Mg43 O61 2.030 1_465 S
O44 Mg45 2.072 1_565 S
O44 C56 1.260 . S
Mg45 O44 2.072 1_545 S
Mg45 O46 2.099 . S
Mg45 O48 2.079 . S
Mg45 O49 2.072 . S
Mg45 O51 2.099 . S
Mg45 O62 2.079 . S
O46 Mg43 2.180 1_545 S
O46 Mg45 2.099 . S
O46 C57 1.279 . S
O47 Mg43 2.117 . S
O47 C57 1.250 1_565 S
O48 Mg45 2.079 . S
O48 C58 1.264 . S
O49 Mg45 2.072 . S
O49 C59 1.260 . S
Mg50 O51 2.180 . S
Mg50 O52 2.030 . S
Mg50 O53 1.990 . S
Mg50 O54 2.117 . S
O51 Mg45 2.099 . S
O51 Mg50 2.180 . S
O51 C60 1.279 . S
O52 Mg50 2.030 . S
O52 C58 1.248 . S
O53 Mg50 1.990 . S
O53 C59 1.253 . S
O54 Mg50 2.117 . S
O54 C60 1.250 . S
C55 O61 1.248 1_455 S
C55 O62 1.264 . S
C56 O42 1.253 1_455 S
C56 O44 1.260 . S
C57 O46 1.279 . S
C57 O47 1.250 1_545 S
C58 O48 1.264 . S
C58 O52 1.248 . S
C59 O49 1.260 . S
C59 O53 1.253 . S
C60 O51 1.279 . S
C60 O54 1.250 . S
O61 Mg43 2.030 1_645 S
O61 C55 1.248 1_655 S
O62 Mg45 2.079 . S
O62 C55 1.264 . S
C63 C64 1.386 1_556 S
C63 C65 1.383 . S
C63 H79 0.951 . S
C64 C63 1.386 1_554 S
C64 C68 1.383 1_455 S
C65 C63 1.383 . S
C65 C66 1.402 1_556 S
C65 H80 0.951 . S
C66 C65 1.402 1_554 S
C66 C67 1.375 1_455 S
C66 C69 1.481 . S
C67 C66 1.375 1_655 S
C67 C68 1.367 . S
C67 H81 0.951 . S
C68 C64 1.383 1_655 S
C68 C67 1.367 . S
C68 H82 0.950 . S
C69 C66 1.481 . S
C69 C70 1.297 . S
C69 H83 0.950 1_455 S
C70 C69 1.297 . S
C70 C71 1.479 . S
C70 H84 0.950 1_554 S
C71 C70 1.479 . S
C71 C72 1.375 1_554 S
C71 C77 1.404 . S
C72 C71 1.375 1_556 S
C72 C73 1.369 . S
C72 H85 0.950 . S
C73 C72 1.369 . S
C73 C74 1.392 1_556 S
C73 H86 0.951 . S
C74 C73 1.392 1_554 S
C74 C76 1.384 . S
H75 C77 0.949 1_655 S
C76 C74 1.384 . S
C76 C77 1.385 . S
C76 H78 0.950 1_455 S
C77 C71 1.404 . S
C77 H75 0.949 1_455 S
C77 C76 1.385 . S
H78 C76 0.950 1_655 S
H79 C63 0.951 . S
H80 C65 0.951 . S
H81 C67 0.951 . S
H82 C68 0.950 . S
H83 C69 0.950 1_655 S
H84 C70 0.950 1_556 S
H85 C72 0.950 . S
H86 C73 0.951 . S
C87 C88 1.386 . S
C87 C89 1.383 . S
C87 H103 0.951 . S
C88 C87 1.386 . S
C88 C92 1.383 . S
C89 C87 1.383 . S
C89 C90 1.402 . S
C89 H104 0.951 . S
C90 C89 1.402 . S
C90 C91 1.375 . S
C90 C93 1.481 . S
C91 C90 1.375 . S
C91 C92 1.367 . S
C91 H105 0.951 . S
C92 C88 1.383 . S
C92 C91 1.367 . S
C92 H106 0.950 . S
C93 C90 1.481 . S
C93 C94 1.297 1_545 S
C93 H107 0.950 . S
C94 C93 1.297 1_565 S
C94 C95 1.479 . S
C94 H108 0.950 . S
C95 C94 1.479 . S
C95 C96 1.375 . S
C95 C101 1.404 . S
C96 C95 1.375 . S
C96 C97 1.369 . S
C96 H109 0.950 . S
C97 C96 1.369 . S
C97 C98 1.392 . S
C97 H110 0.951 1_565 S
C98 C97 1.392 . S
C98 C100 1.384 . S
H99 C101 0.949 . S
C100 C98 1.384 . S
C100 C101 1.385 . S
C100 H102 0.950 . S
C101 C95 1.404 . S
C101 H99 0.949 . S
C101 C100 1.385 . S
H102 C100 0.950 . S
H103 C87 0.951 . S
H104 C89 0.951 . S
H105 C91 0.951 . S
H106 C92 0.950 . S
H107 C93 0.950 . S
H108 C94 0.950 . S
H109 C96 0.950 . S
H110 C97 0.951 1_545 S
C111 C112 1.386 . S
C111 C113 1.383 . S
C111 H127 0.951 . S
C112 C111 1.386 . S
C112 C116 1.383 . S
C113 C111 1.383 . S
C113 C114 1.402 . S
C113 H128 0.951 . S
C114 C113 1.402 . S
C114 C115 1.375 . S
C114 C117 1.481 . S
C115 C114 1.375 . S
C115 C116 1.367 . S
C115 H129 0.951 . S
C116 C112 1.383 . S
C116 C115 1.367 . S
C116 H130 0.950 1_655 S
C117 C114 1.481 . S
C117 C118 1.297 . S
C117 H131 0.950 . S
C118 C117 1.297 . S
C118 C119 1.479 . S
C118 H132 0.950 . S
C119 C118 1.479 . S
C119 C120 1.375 . S
C119 C125 1.404 . S
C120 C119 1.375 . S
C120 C121 1.369 . S
C120 H133 0.950 . S
C121 C120 1.369 . S
C121 C122 1.392 . S
C121 H134 0.951 . S
C122 C121 1.392 . S
C122 C124 1.384 . S
H123 C125 0.949 . S
C124 C122 1.384 . S
C124 C125 1.385 . S
C124 H126 0.950 . S
C125 C119 1.404 . S
C125 H123 0.949 . S
C125 C124 1.385 . S
H126 C124 0.950 . S
H127 C111 0.951 . S
H128 C113 0.951 . S
H129 C115 0.951 . S
H130 C116 0.950 1_455 S
H131 C117 0.950 . S
H132 C118 0.950 . S
H133 C120 0.950 . S
H134 C121 0.951 . S
C135 C136 1.386 . S
C135 C137 1.383 . S
C135 H151 0.951 . S
C136 C135 1.386 . S
C136 C140 1.383 . S
C137 C135 1.383 . S
C137 C138 1.402 . S
C137 H152 0.951 . S
C138 C137 1.402 . S
C138 C139 1.375 . S
C138 C141 1.481 . S
C139 C138 1.375 . S
C139 C140 1.367 . S
C139 H153 0.951 . S
C140 C136 1.383 . S
C140 C139 1.367 . S
C140 H154 0.950 . S
C141 C138 1.481 . S
C141 C142 1.297 . S
C141 H155 0.950 . S
C142 C141 1.297 . S
C142 C143 1.479 . S
C142 H156 0.950 . S
C143 C142 1.479 . S
C143 C144 1.375 . S
C143 C149 1.404 . S
C144 C143 1.375 . S
C144 C145 1.369 . S
C144 H157 0.950 . S
C145 C144 1.369 . S
C145 C146 1.392 . S
C145 H158 0.951 . S
C146 C145 1.392 . S
C146 C148 1.384 . S
H147 C149 0.949 1_565 S
C148 C146 1.384 . S
C148 C149 1.385 . S
C148 H150 0.950 1_545 S
C149 C143 1.404 . S
C149 H147 0.949 1_545 S
C149 C148 1.385 . S
H150 C148 0.950 1_565 S
H151 C135 0.951 . S
H152 C137 0.951 . S
H153 C139 0.951 . S
H154 C140 0.950 . S
H155 C141 0.950 . S
H156 C142 0.950 . S
H157 C144 0.950 . S
H158 C145 0.951 . S
C159 C160 1.386 . S
C159 C161 1.383 . S
C159 H175 0.951 . S
C160 C159 1.386 . S
C160 C164 1.383 1_554 S
C161 C159 1.383 . S
C161 C162 1.402 . S
C161 H176 0.951 . S
C162 C161 1.402 . S
C162 C163 1.375 1_554 S
C162 C165 1.481 1_554 S
C163 C162 1.375 1_556 S
C163 C164 1.367 . S
C163 H177 0.951 . S
C164 C160 1.383 1_556 S
C164 C163 1.367 . S
C164 H178 0.950 . S
C165 C162 1.481 1_556 S
C165 C166 1.297 1_556 S
C165 H179 0.950 . S
C166 C165 1.297 1_554 S
C166 C167 1.479 . S
C166 H180 0.950 . S
C167 C166 1.479 . S
C167 C168 1.375 . S
C167 C173 1.404 1_554 S
C168 C167 1.375 . S
C168 C169 1.369 . S
C168 H181 0.950 . S
C169 C168 1.369 . S
C169 C170 1.392 . S
C169 H182 0.951 . S
C170 C169 1.392 . S
C170 C172 1.384 1_554 S
H171 C173 0.949 . S
C172 C170 1.384 1_556 S
C172 C173 1.385 . S
C172 H174 0.950 . S
C173 C167 1.404 1_556 S
C173 H171 0.949 . S
C173 C172 1.385 . S
H174 C172 0.950 . S
H175 C159 0.951 . S
H176 C161 0.951 . S
H177 C163 0.951 . S
H178 C164 0.950 . S
H179 C165 0.950 . S
H180 C166 0.950 . S
H181 C168 0.950 . S
H182 C169 0.951 . S
C183 C184 1.386 . S
C183 C185 1.383 . S
C183 H199 0.951 . S
C184 C183 1.386 . S
C184 C188 1.383 . S
C185 C183 1.383 . S
C185 C186 1.402 . S
C185 H200 0.951 . S
C186 C185 1.402 . S
C186 C187 1.375 . S
C186 C189 1.481 . S
C187 C186 1.375 . S
C187 C188 1.367 . S
C187 H201 0.951 . S
C188 C184 1.383 . S
C188 C187 1.367 . S
C188 H202 0.950 . S
C189 C186 1.481 . S
C189 C190 1.297 . S
C189 H203 0.950 . S
C190 C189 1.297 . S
C190 C191 1.479 . S
C190 H204 0.950 . S
C191 C190 1.479 . S
C191 C192 1.375 . S
C191 C197 1.404 . S
C192 C191 1.375 . S
C192 C193 1.369 . S
C192 H205 0.950 . S
C193 C192 1.369 . S
C193 C194 1.392 . S
C193 H206 0.951 . S
C194 C193 1.392 . S
C194 C196 1.384 . S
H195 C197 0.949 . S
C196 C194 1.384 . S
C196 C197 1.385 . S
C196 H198 0.950 . S
C197 C191 1.404 . S
C197 H195 0.949 . S
C197 C196 1.385 . S
H198 C196 0.950 . S
H199 C183 0.951 . S
H200 C185 0.951 . S
H201 C187 0.951 . S
H202 C188 0.950 . S
H203 C189 0.950 . S
H204 C190 0.950 . S
H205 C192 0.950 . S
H206 C193 0.951 . S
C207 C208 1.386 . S
C207 C209 1.383 . S
C207 H223 0.951 . S
C208 C207 1.386 . S
C208 C212 1.383 . S
C209 C207 1.383 . S
C209 C210 1.402 . S
C209 H224 0.951 . S
C210 C209 1.402 . S
C210 C211 1.375 . S
C210 C213 1.481 . S
C211 C210 1.375 . S
C211 C212 1.367 . S
C211 H225 0.951 1_455 S
C212 C208 1.383 . S
C212 C211 1.367 . S
C212 H226 0.950 . S
C213 C210 1.481 . S
C213 C214 1.297 . S
C213 H227 0.950 . S
C214 C213 1.297 . S
C214 C215 1.479 . S
C214 H228 0.950 . S
C215 C214 1.479 . S
C215 C216 1.375 . S
C215 C221 1.404 . S
C216 C215 1.375 . S
C216 C217 1.369 . S
C216 H229 0.950 . S
C217 C216 1.369 . S
C217 C218 1.392 . S
C217 H230 0.951 . S
C218 C217 1.392 . S
C218 C220 1.384 . S
H219 C221 0.949 1_655 S
C220 C218 1.384 . S
C220 C221 1.385 . S
C220 H222 0.950 1_455 S
C221 C215 1.404 . S
C221 H219 0.949 1_455 S
C221 C220 1.385 . S
H222 C220 0.950 1_655 S
H223 C207 0.951 . S
H224 C209 0.951 . S
H225 C211 0.951 1_655 S
H226 C212 0.950 . S
H227 C213 0.950 . S
H228 C214 0.950 . S
H229 C216 0.950 . S
H230 C217 0.951 . S
C231 C232 1.386 . S
C231 C233 1.383 . S
C231 H247 0.951 . S
C232 C231 1.386 . S
C232 C236 1.383 . S
C233 C231 1.383 . S
C233 C234 1.402 . S
C233 H248 0.951 . S
C234 C233 1.402 . S
C234 C235 1.375 1_545 S
C234 C237 1.481 . S
C235 C234 1.375 1_565 S
C235 C236 1.367 1_565 S
C235 H249 0.951 . S
C236 C232 1.383 . S
C236 C235 1.367 1_545 S
C236 H250 0.950 1_545 S
C237 C234 1.481 . S
C237 C238 1.297 . S
C237 H251 0.950 1_545 S
C238 C237 1.297 . S
C238 C239 1.479 . S
C238 H252 0.950 . S
C239 C238 1.479 . S
C239 C240 1.375 . S
C239 C245 1.404 1_545 S
C240 C239 1.375 . S
C240 C241 1.369 . S
C240 H253 0.950 . S
C241 C240 1.369 . S
C241 C242 1.392 . S
C241 H254 0.951 . S
C242 C241 1.392 . S
C242 C244 1.384 . S
H243 C245 0.949 . S
C244 C242 1.384 . S
C244 C245 1.385 1_545 S
C244 H246 0.950 1_545 S
C245 C239 1.404 1_565 S
C245 H243 0.949 . S
C245 C244 1.385 1_565 S
H246 C244 0.950 1_565 S
H247 C231 0.951 . S
H248 C233 0.951 . S
H249 C235 0.951 . S
H250 C236 0.950 1_565 S
H251 C237 0.950 1_565 S
H252 C238 0.950 . S
H253 C240 0.950 . S
H254 C241 0.951 . S
C255 C256 1.386 . S
C255 C257 1.383 . S
C255 H271 0.951 . S
C256 C255 1.386 . S
C256 C260 1.383 1_545 S
C257 C255 1.383 . S
C257 C258 1.402 . S
C257 H272 0.951 . S
C258 C257 1.402 . S
C258 C259 1.375 1_545 S
C258 C261 1.481 . S
C259 C258 1.375 1_565 S
C259 C260 1.367 . S
C259 H273 0.951 . S
C260 C256 1.383 1_565 S
C260 C259 1.367 . S
C260 H274 0.950 . S
C261 C258 1.481 . S
C261 C262 1.297 . S
C261 H275 0.950 1_545 S
C262 C261 1.297 . S
C262 C263 1.479 . S
C262 H276 0.950 . S
C263 C262 1.479 . S
C263 C264 1.375 . S
C263 C269 1.404 . S
C264 C263 1.375 . S
C264 C265 1.369 . S
C264 H277 0.950 . S
C265 C264 1.369 . S
C265 C266 1.392 . S
C265 H278 0.951 . S
C266 C265 1.392 . S
C266 C268 1.384 . S
H267 C269 0.949 1_665 S
C268 C266 1.384 . S
C268 C269 1.385 . S
C268 H270 0.950 1_445 S
C269 C263 1.404 . S
C269 H267 0.949 1_445 S
C269 C268 1.385 . S
H270 C268 0.950 1_665 S
H271 C255 0.951 . S
H272 C257 0.951 . S
H273 C259 0.951 . S
H274 C260 0.950 . S
H275 C261 0.950 1_565 S
H276 C262 0.950 . S
H277 C264 0.950 . S
H278 C265 0.951 . S
C64 C16 1.147 . S
C74 C14 1.052 . S
C88 C35 1.074 . S
C98 C37 1.172 1_565 S
C112 C56 1.151 1_655 S
C122 C58 1.145 . S
C136 C55 1.090 1_655 S
C146 C59 1.197 . S
C160 C13 1.103 . S
C170 C17 1.103 . S
C184 C38 1.178 . S
C194 C34 1.064 . S
C208 C36 1.342 . S
C218 C18 1.388 . S
C232 C39 1.342 . S
C242 C57 1.205 . S
C256 C60 1.373 . S
C266 C15 1.321 . S
