# Generated by pormake.
# Topology pcl, (4)-cn, num edge types: 1
# Building blocks:
#     Node 0, Type 0, BuildingBlock: QUQFOY_clean_sbu_1, # of connection points: 4
#     Node 1, Type 0, BuildingBlock: QUQFOY_clean_sbu_1, # of connection points: 4
#     Node 2, Type 0, BuildingBlock: QUQFOY_clean_sbu_1, # of connection points: 4
#     Node 3, Type 0, BuildingBlock: QUQFOY_clean_sbu_1, # of connection points: 4
#     Node 4, Type 0, BuildingBlock: QUQFOY_clean_sbu_1, # of connection points: 4
#     Node 5, Type 0, BuildingBlock: QUQFOY_clean_sbu_1, # of connection points: 4
#     Node 6, Type 0, BuildingBlock: QUQFOY_clean_sbu_1, # of connection points: 4
#     Node 7, Type 0, BuildingBlock: QUQFOY_clean_sbu_1, # of connection points: 4
#     Node 8, Type 0, BuildingBlock: QUQFOY_clean_sbu_1, # of connection points: 4
#     Node 9, Type 0, BuildingBlock: QUQFOY_clean_sbu_1, # of connection points: 4
#     Node 10, Type 0, BuildingBlock: QUQFOY_clean_sbu_1, # of connection points: 4
#     Node 11, Type 0, BuildingBlock: QUQFOY_clean_sbu_1, # of connection points: 4
#     Node 12, Type 0, BuildingBlock: QUQFOY_clean_sbu_1, # of connection points: 4
#     Node 13, Type 0, BuildingBlock: QUQFOY_clean_sbu_1, # of connection points: 4
#     Node 14, Type 0, BuildingBlock: QUQFOY_clean_sbu_1, # of connection points: 4
#     Node 15, Type 0, BuildingBlock: QUQFOY_clean_sbu_1, # of connection points: 4
#     Edge 16, Type (0, 0), BuildingBlock: XIVTED_clean_linker_0, # of connection points: 2
#     Edge 17, Type (0, 0), BuildingBlock: XIVTED_clean_linker_0, # of connection points: 2
#     Edge 18, Type (0, 0), BuildingBlock: XIVTED_clean_linker_0, # of connection points: 2
#     Edge 19, Type (0, 0), BuildingBlock: XIVTED_clean_linker_0, # of connection points: 2
#     Edge 20, Type (0, 0), BuildingBlock: XIVTED_clean_linker_0, # of connection points: 2
#     Edge 21, Type (0, 0), BuildingBlock: XIVTED_clean_linker_0, # of connection points: 2
#     Edge 22, Type (0, 0), BuildingBlock: XIVTED_clean_linker_0, # of connection points: 2
#     Edge 23, Type (0, 0), BuildingBlock: XIVTED_clean_linker_0, # of connection points: 2
#     Edge 24, Type (0, 0), BuildingBlock: XIVTED_clean_linker_0, # of connection points: 2
#     Edge 25, Type (0, 0), BuildingBlock: XIVTED_clean_linker_0, # of connection points: 2
#     Edge 26, Type (0, 0), BuildingBlock: XIVTED_clean_linker_0, # of connection points: 2
#     Edge 27, Type (0, 0), BuildingBlock: XIVTED_clean_linker_0, # of connection points: 2
#     Edge 28, Type (0, 0), BuildingBlock: XIVTED_clean_linker_0, # of connection points: 2
#     Edge 29, Type (0, 0), BuildingBlock: XIVTED_clean_linker_0, # of connection points: 2
#     Edge 30, Type (0, 0), BuildingBlock: XIVTED_clean_linker_0, # of connection points: 2
#     Edge 31, Type (0, 0), BuildingBlock: XIVTED_clean_linker_0, # of connection points: 2
#     Edge 32, Type (0, 0), BuildingBlock: XIVTED_clean_linker_0, # of connection points: 2
#     Edge 33, Type (0, 0), BuildingBlock: XIVTED_clean_linker_0, # of connection points: 2
#     Edge 34, Type (0, 0), BuildingBlock: XIVTED_clean_linker_0, # of connection points: 2
#     Edge 35, Type (0, 0), BuildingBlock: XIVTED_clean_linker_0, # of connection points: 2
#     Edge 36, Type (0, 0), BuildingBlock: XIVTED_clean_linker_0, # of connection points: 2
#     Edge 37, Type (0, 0), BuildingBlock: XIVTED_clean_linker_0, # of connection points: 2
#     Edge 38, Type (0, 0), BuildingBlock: XIVTED_clean_linker_0, # of connection points: 2
#     Edge 39, Type (0, 0), BuildingBlock: XIVTED_clean_linker_0, # of connection points: 2
#     Edge 40, Type (0, 0), BuildingBlock: XIVTED_clean_linker_0, # of connection points: 2
#     Edge 41, Type (0, 0), BuildingBlock: XIVTED_clean_linker_0, # of connection points: 2
#     Edge 42, Type (0, 0), BuildingBlock: XIVTED_clean_linker_0, # of connection points: 2
#     Edge 43, Type (0, 0), BuildingBlock: XIVTED_clean_linker_0, # of connection points: 2
#     Edge 44, Type (0, 0), BuildingBlock: XIVTED_clean_linker_0, # of connection points: 2
#     Edge 45, Type (0, 0), BuildingBlock: XIVTED_clean_linker_0, # of connection points: 2
#     Edge 46, Type (0, 0), BuildingBlock: XIVTED_clean_linker_0, # of connection points: 2
#     Edge 47, Type (0, 0), BuildingBlock: XIVTED_clean_linker_0, # of connection points: 2
# Relax obj value: 0.092
# Max RMSD: 0.136
# Mean RMSD: 0.119
data_MOF--net-pcl--node1-QUQFOY_clean_sbu_1--edge1-XIVTED_clean_linker_0
_symmetry_space_group_name_H-M    P1
_symmetry_Int_Tables_number       1
_symmetry_cell_setting            triclinic
loop_
_symmetry_equiv_pos_as_xyz
'x, y, z'
_cell_length_a     53.390569
_cell_length_b     44.817894
_cell_length_c     46.483301
_cell_angle_alpha  90.103421
_cell_angle_beta   90.016657
_cell_angle_gamma 90.02171
loop_
_atom_site_label
_atom_site_type_symbol
_atom_site_fract_x
_atom_site_fract_y
_atom_site_fract_z
_atom_type_partial_charge
O0 O 0.15881 0.32201 0.13478 0.0
Cd1 Cd 0.15023 0.31627 0.09167 0.0
Cd2 Cd 0.14728 0.37581 0.0921 0.0
O3 O 0.16221 0.37093 0.1327 0.0
O4 O 0.16693 0.27873 0.0792 0.0
O5 O 0.17711 0.32331 0.06221 0.0
C6 C 0.18118 0.29489 0.06305 0.0
C7 C 0.16118 0.41553 0.06362 0.0
C8 C 0.16389 0.34677 0.14683 0.0
C9 C 0.09948 0.34035 0.08192 0.0
O10 O 0.10989 0.36529 0.08722 0.0
O11 O 0.11257 0.31667 0.0806 0.0
O12 O 0.14799 0.41988 0.08641 0.0
O13 O 0.16712 0.38842 0.05714 0.0
O14 O 0.84983 0.68841 0.63428 0.0
Cd15 Cd 0.85986 0.69092 0.59127 0.0
Cd16 Cd 0.86355 0.63149 0.59478 0.0
O17 O 0.84604 0.63942 0.63355 0.0
O18 O 0.84335 0.72565 0.57225 0.0
O19 O 0.83363 0.6785 0.56289 0.0
C20 C 0.82968 0.70657 0.55851 0.0
C21 C 0.85094 0.59036 0.56723 0.0
C22 C 0.8438 0.66418 0.64671 0.0
C23 C 0.91122 0.66664 0.58509 0.0
O24 O 0.90114 0.64191 0.59181 0.0
O25 O 0.89773 0.68971 0.58149 0.0
O26 O 0.86276 0.58708 0.59116 0.0
O27 O 0.84566 0.61715 0.5591 0.0
O28 O 0.15958 0.689 0.868 0.0
Cd29 Cd 0.15022 0.69157 0.91123 0.0
Cd30 Cd 0.14635 0.63207 0.90753 0.0
O31 O 0.16277 0.63993 0.86811 0.0
O32 O 0.16708 0.72637 0.93 0.0
O33 O 0.17692 0.67923 0.939 0.0
C34 C 0.181 0.7073 0.94336 0.0
C35 C 0.16014 0.59163 0.93517 0.0
C36 C 0.165 0.66475 0.85514 0.0
C37 C 0.09888 0.66719 0.91843 0.0
O38 O 0.10884 0.6424 0.91162 0.0
O39 O 0.11244 0.6903 0.92167 0.0
O40 O 0.14761 0.58771 0.91179 0.0
O41 O 0.16542 0.61865 0.94266 0.0
O42 O 0.85329 0.31957 0.36995 0.0
Cd43 Cd 0.86213 0.31001 0.41203 0.0
Cd44 Cd 0.8713 0.36942 0.41651 0.0
O45 O 0.85961 0.36796 0.37402 0.0
O46 O 0.84326 0.27323 0.42205 0.0
O47 O 0.8365 0.31695 0.44304 0.0
C48 C 0.83062 0.28911 0.44013 0.0
C49 C 0.85775 0.41031 0.44368 0.0
C50 C 0.85341 0.34545 0.35891 0.0
C51 C 0.91439 0.32659 0.42738 0.0
O52 O 0.90655 0.35337 0.42684 0.0
O53 O 0.89967 0.30502 0.42182 0.0
O54 O 0.87405 0.41315 0.42347 0.0
O55 O 0.84882 0.38403 0.44856 0.0
O56 O 0.8557 0.62816 0.97194 0.0
Cd57 Cd 0.86217 0.67057 0.9563 0.0
Cd58 Cd 0.86153 0.64308 0.90507 0.0
O59 O 0.84749 0.60852 0.92948 0.0
O60 O 0.84819 0.69982 0.98436 0.0
O61 O 0.83189 0.69183 0.94111 0.0
C62 C 0.83071 0.70506 0.96583 0.0
C63 C 0.84573 0.64915 0.85842 0.0
C64 C 0.84857 0.60616 0.95668 0.0
C65 C 0.91089 0.66855 0.92617 0.0
O66 O 0.89938 0.65155 0.90868 0.0
O67 O 0.89898 0.68138 0.94639 0.0
O68 O 0.85883 0.62626 0.86557 0.0
O69 O 0.84094 0.66875 0.87804 0.0
O70 O 0.15766 0.3821 0.47304 0.0
Cd71 Cd 0.15095 0.3383 0.46254 0.0
Cd72 Cd 0.14252 0.36293 0.40794 0.0
O73 O 0.15299 0.40133 0.42978 0.0
O74 O 0.16607 0.31642 0.49538 0.0
O75 O 0.18004 0.31225 0.45074 0.0
C76 C 0.18237 0.30575 0.47769 0.0
C77 C 0.15539 0.36023 0.35983 0.0
C78 C 0.15792 0.40448 0.45636 0.0
C79 C 0.09958 0.33063 0.43803 0.0
O80 O 0.10762 0.34467 0.41614 0.0
O81 O 0.11388 0.32536 0.4593 0.0
O82 O 0.13862 0.37887 0.36829 0.0
O83 O 0.16518 0.34274 0.37879 0.0
O84 O 0.85521 0.38176 0.03062 0.0
Cd85 Cd 0.86188 0.33936 0.04634 0.0
Cd86 Cd 0.86359 0.36818 0.09771 0.0
O87 O 0.84915 0.40231 0.07318 0.0
O88 O 0.8474 0.31006 0.01868 0.0
O89 O 0.83196 0.31789 0.06234 0.0
C90 C 0.83042 0.30454 0.03771 0.0
C91 C 0.85056 0.36517 0.14579 0.0
C92 C 0.84906 0.40416 0.04591 0.0
C93 C 0.91158 0.3407 0.07439 0.0
O94 O 0.90095 0.35817 0.09215 0.0
O95 O 0.89883 0.328 0.05477 0.0
O96 O 0.86403 0.38692 0.13655 0.0
O97 O 0.84371 0.34509 0.12745 0.0
O98 O 0.15326 0.63018 0.52885 0.0
Cd99 Cd 0.14745 0.67303 0.54364 0.0
Cd100 Cd 0.14815 0.6449 0.59538 0.0
O101 O 0.16202 0.61018 0.57088 0.0
O102 O 0.15981 0.69848 0.51169 0.0
O103 O 0.17765 0.69747 0.55471 0.0
C104 C 0.17782 0.7068 0.5284 0.0
C105 C 0.16313 0.6495 0.64263 0.0
C106 C 0.16045 0.60801 0.54369 0.0
C107 C 0.09898 0.67149 0.57385 0.0
O108 O 0.11045 0.65433 0.59118 0.0
O109 O 0.11086 0.68432 0.55362 0.0
O110 O 0.1497 0.62719 0.63457 0.0
O111 O 0.1687 0.6694 0.62363 0.0
O112 O 0.66152 0.81423 0.1363 0.0
Cd113 Cd 0.65199 0.8117 0.09309 0.0
Cd114 Cd 0.6484 0.87129 0.09672 0.0
O115 O 0.66497 0.86327 0.13601 0.0
O116 O 0.66888 0.77717 0.07395 0.0
O117 O 0.67852 0.82445 0.0653 0.0
C118 C 0.68265 0.79644 0.06065 0.0
C119 C 0.66176 0.91235 0.06967 0.0
C120 C 0.66714 0.83848 0.14905 0.0
C121 C 0.60076 0.83632 0.08581 0.0
O122 O 0.61087 0.86105 0.0926 0.0
O123 O 0.61419 0.8131 0.08269 0.0
O124 O 0.64934 0.91569 0.09319 0.0
O125 O 0.66722 0.88554 0.06169 0.0
O126 O 0.35477 0.18337 0.63567 0.0
Cd127 Cd 0.36451 0.18855 0.59287 0.0
Cd128 Cd 0.36727 0.12905 0.59369 0.0
O129 O 0.3504 0.1346 0.63316 0.0
O130 O 0.34893 0.22655 0.58011 0.0
O131 O 0.33798 0.1823 0.56279 0.0
C132 C 0.33454 0.21085 0.56366 0.0
C133 C 0.35399 0.08914 0.56501 0.0
C134 C 0.34859 0.1588 0.64727 0.0
C135 C 0.41539 0.16413 0.58516 0.0
O136 O 0.40492 0.13929 0.59064 0.0
O137 O 0.40229 0.18769 0.58281 0.0
O138 O 0.36642 0.08494 0.58838 0.0
O139 O 0.34861 0.11625 0.55794 0.0
O140 O 0.66007 0.18767 0.87542 0.0
Cd141 Cd 0.65039 0.19147 0.91849 0.0
Cd142 Cd 0.6475 0.13186 0.91684 0.0
O143 O 0.66445 0.13881 0.8776 0.0
O144 O 0.66663 0.22715 0.93628 0.0
O145 O 0.6771 0.18053 0.94681 0.0
C146 C 0.68074 0.20882 0.95031 0.0
C147 C 0.66089 0.09142 0.94474 0.0
C148 C 0.66627 0.1631 0.86366 0.0
C149 C 0.59942 0.16637 0.92609 0.0
O150 O 0.60981 0.14162 0.92004 0.0
O151 O 0.6126 0.18985 0.9288 0.0
O152 O 0.64868 0.08757 0.92114 0.0
O153 O 0.66605 0.11842 0.95241 0.0
O154 O 0.35195 0.81961 0.36435 0.0
Cd155 Cd 0.36129 0.81483 0.40734 0.0
Cd156 Cd 0.36592 0.87416 0.40537 0.0
O157 O 0.34948 0.86862 0.36565 0.0
O158 O 0.34417 0.77798 0.4208 0.0
O159 O 0.33499 0.82314 0.43724 0.0
C160 C 0.33043 0.7948 0.43694 0.0
C161 C 0.35315 0.91469 0.43353 0.0
C162 C 0.34688 0.84419 0.35208 0.0
C163 C 0.41288 0.83729 0.41529 0.0
O164 O 0.40319 0.86247 0.40936 0.0
O165 O 0.39906 0.81429 0.41769 0.0
O166 O 0.36606 0.91833 0.41042 0.0
O167 O 0.347 0.88782 0.4406 0.0
O168 O 0.35466 0.11958 0.97212 0.0
Cd169 Cd 0.36199 0.16313 0.96031 0.0
Cd170 Cd 0.36307 0.13781 0.90655 0.0
O171 O 0.34936 0.10145 0.92848 0.0
O172 O 0.3494 0.18697 0.99341 0.0
O173 O 0.33278 0.18949 0.94984 0.0
C174 C 0.33219 0.19722 0.97664 0.0
C175 C 0.34888 0.14358 0.8592 0.0
C176 C 0.34895 0.09804 0.95557 0.0
C177 C 0.41145 0.16344 0.93144 0.0
O178 O 0.40043 0.14795 0.91229 0.0
O179 O 0.39912 0.17418 0.95247 0.0
O180 O 0.36293 0.12166 0.86672 0.0
O181 O 0.34242 0.16256 0.87874 0.0
O182 O 0.65529 0.87299 0.47556 0.0
Cd183 Cd 0.64884 0.83138 0.45791 0.0
Cd184 Cd 0.65052 0.86088 0.40801 0.0
O185 O 0.66504 0.89392 0.4342 0.0
O186 O 0.66237 0.8008 0.48477 0.0
O187 O 0.67924 0.81075 0.44222 0.0
C188 C 0.68007 0.79638 0.46631 0.0
C189 C 0.66646 0.85589 0.36127 0.0
C190 C 0.6633 0.89531 0.46144 0.0
C191 C 0.60066 0.83522 0.42704 0.0
O192 O 0.6125 0.85308 0.41076 0.0
O193 O 0.61222 0.82117 0.44673 0.0
O194 O 0.65394 0.87902 0.36915 0.0
O195 O 0.67072 0.83553 0.38026 0.0
O196 O 0.35806 0.87229 0.02516 0.0
Cd197 Cd 0.36447 0.83015 0.0415 0.0
Cd198 Cd 0.36352 0.85823 0.09255 0.0
O199 O 0.34906 0.89189 0.0674 0.0
O200 O 0.35018 0.8003 0.01427 0.0
O201 O 0.33416 0.80957 0.05743 0.0
C202 C 0.33277 0.79571 0.03305 0.0
C203 C 0.34823 0.85441 0.13964 0.0
C204 C 0.35039 0.89417 0.04021 0.0
C205 C 0.413 0.83254 0.0719 0.0
O206 O 0.40139 0.8498 0.08904 0.0
O207 O 0.40119 0.81938 0.05178 0.0
O208 O 0.3614 0.87681 0.13135 0.0
O209 O 0.34312 0.83397 0.12094 0.0
O210 O 0.65989 0.11759 0.53933 0.0
Cd211 Cd 0.65273 0.16089 0.55217 0.0
Cd212 Cd 0.65162 0.13411 0.60498 0.0
O213 O 0.66536 0.09804 0.58231 0.0
O214 O 0.66439 0.18499 0.5189 0.0
O215 O 0.6821 0.18739 0.56189 0.0
C216 C 0.68198 0.19528 0.53515 0.0
C217 C 0.66626 0.14153 0.65197 0.0
C218 C 0.66562 0.0955 0.5551 0.0
C219 C 0.60328 0.16024 0.58103 0.0
O220 O 0.61418 0.14392 0.59954 0.0
O221 O 0.61571 0.17185 0.56056 0.0
O222 O 0.6527 0.11888 0.64512 0.0
O223 O 0.67216 0.1601 0.63189 0.0
H224 H 0.06635 0.38461 0.09437 0.0
H225 H 0.94208 0.30194 0.04393 0.0
H226 H 0.06939 0.29377 0.06339 0.0
H227 H 0.94422 0.37203 0.10777 0.0
H228 H 0.98821 0.30017 0.04493 0.0
H229 H 0.02094 0.38272 0.09236 0.0
C230 C 0.0575 0.36424 0.08696 0.0
C231 C 0.07181 0.33925 0.07913 0.0
C232 C 0.97842 0.31572 0.05879 0.0
C233 C 0.01943 0.33701 0.07681 0.0
C234 C 0.95216 0.31678 0.05823 0.0
C235 C 0.9392 0.33723 0.07572 0.0
C236 C 0.99168 0.33561 0.07657 0.0
C237 C 0.95327 0.35591 0.09386 0.0
C238 C 0.03149 0.36315 0.08599 0.0
C239 C 0.05909 0.31351 0.06975 0.0
N240 N 0.97863 0.35481 0.09359 0.0
N241 N 0.03355 0.31305 0.06875 0.0
H242 H 0.94536 0.62532 0.60257 0.0
H243 H 0.06683 0.70788 0.54314 0.0
H244 H 0.94023 0.71199 0.56257 0.0
H245 H 0.06799 0.64106 0.60997 0.0
H246 H 0.0208 0.70827 0.54568 0.0
H247 H 0.99078 0.6285 0.60027 0.0
C248 C 0.95377 0.64502 0.59317 0.0
C249 C 0.93888 0.66845 0.58278 0.0
C250 C 0.03126 0.69375 0.55987 0.0
C251 C 0.99119 0.67221 0.58009 0.0
C252 C 0.05749 0.69349 0.55845 0.0
C253 C 0.07137 0.67433 0.57629 0.0
C254 C 0.01891 0.67439 0.57894 0.0
C255 C 0.05822 0.65618 0.59573 0.0
C256 C 0.97977 0.64689 0.59202 0.0
C257 C 0.95098 0.69345 0.57092 0.0
N258 N 0.03282 0.65649 0.59632 0.0
N259 N 0.97648 0.69464 0.56977 0.0
H260 H 0.94187 0.63826 0.88983 0.0
H261 H 0.07008 0.7128 0.94098 0.0
H262 H 0.94312 0.70464 0.95729 0.0
H263 H 0.06451 0.62591 0.90121 0.0
H264 H 0.02403 0.71522 0.94274 0.0
H265 H 0.98735 0.63934 0.88835 0.0
C266 C 0.95167 0.65328 0.90424 0.0
C267 C 0.93854 0.67128 0.92386 0.0
C268 C 0.03302 0.69565 0.93375 0.0
C269 C 0.99099 0.67252 0.92223 0.0
C270 C 0.05924 0.69425 0.9327 0.0
C271 C 0.07122 0.66909 0.92095 0.0
C272 C 0.01878 0.67198 0.92251 0.0
C273 C 0.0562 0.64571 0.91056 0.0
C274 C 0.97772 0.65374 0.90346 0.0
C275 C 0.95245 0.69029 0.94191 0.0
N276 N 0.03087 0.64783 0.91141 0.0
N277 N 0.97798 0.69043 0.94069 0.0
H278 H 0.06906 0.33111 0.48517 0.0
H279 H 0.94437 0.28433 0.40259 0.0
H280 H 0.06903 0.31327 0.39396 0.0
H281 H 0.94544 0.35665 0.46391 0.0
H282 H 0.99013 0.2799 0.40742 0.0
H283 H 0.02325 0.32535 0.48556 0.0
C284 C 0.05947 0.32531 0.46539 0.0
C285 C 0.07274 0.32279 0.43945 0.0
C286 C 0.98019 0.29638 0.42009 0.0
C287 C 0.02075 0.31577 0.43991 0.0
C288 C 0.95418 0.29882 0.41749 0.0
C289 C 0.94123 0.32099 0.43279 0.0
C290 C 0.99311 0.31565 0.43872 0.0
C291 C 0.95481 0.33941 0.45162 0.0
C292 C 0.03342 0.32222 0.46562 0.0
C293 C 0.05942 0.31557 0.41435 0.0
N294 N 0.98004 0.33629 0.45413 0.0
N295 N 0.03411 0.31225 0.41519 0.0
H296 H 0.44527 0.79533 0.04218 0.0
H297 H 0.56667 0.87841 0.10176 0.0
H298 H 0.44387 0.86405 0.10741 0.0
H299 H 0.5717 0.79076 0.06348 0.0
H300 H 0.52128 0.87566 0.09863 0.0
H301 H 0.4913 0.79476 0.04522 0.0
C302 C 0.45456 0.81013 0.05723 0.0
C303 C 0.44062 0.82983 0.0745 0.0
C304 C 0.53226 0.85697 0.09093 0.0
C305 C 0.49307 0.82955 0.07772 0.0
C306 C 0.55825 0.85857 0.09256 0.0
C307 C 0.57311 0.83475 0.08291 0.0
C308 C 0.5208 0.83149 0.07926 0.0
C309 C 0.56098 0.80961 0.07127 0.0
C310 C 0.48079 0.80976 0.05894 0.0
C311 C 0.4537 0.84848 0.09363 0.0
N312 N 0.53548 0.80866 0.06965 0.0
N313 N 0.47909 0.84803 0.09452 0.0
H314 H 0.57113 0.13141 0.61698 0.0
H315 H 0.4453 0.20946 0.56413 0.0
H316 H 0.57234 0.19664 0.5487 0.0
H317 H 0.44868 0.12166 0.60204 0.0
H318 H 0.49142 0.21062 0.5631 0.0
H319 H 0.52569 0.13391 0.61758 0.0
C320 C 0.56188 0.14647 0.6022 0.0
C321 C 0.57568 0.16372 0.58262 0.0
C322 C 0.48193 0.19114 0.57151 0.0
C323 C 0.5233 0.16661 0.58325 0.0
C324 C 0.45568 0.19046 0.57216 0.0
C325 C 0.44308 0.1654 0.58316 0.0
C326 C 0.49554 0.16686 0.58245 0.0
C327 C 0.45749 0.14141 0.59326 0.0
C328 C 0.53586 0.14774 0.60247 0.0
C329 C 0.56246 0.18283 0.56405 0.0
N330 N 0.48285 0.14285 0.59284 0.0
N331 N 0.53694 0.1838 0.56481 0.0
H332 H 0.56982 0.21126 0.94861 0.0
H333 H 0.44332 0.13564 0.89435 0.0
H334 H 0.56582 0.12449 0.90836 0.0
H335 H 0.44276 0.1985 0.96489 0.0
H336 H 0.48877 0.13783 0.89359 0.0
H337 H 0.52371 0.21261 0.9501 0.0
C338 C 0.55931 0.19252 0.94015 0.0
C339 C 0.57173 0.1677 0.92836 0.0
C340 C 0.47874 0.15121 0.90922 0.0
C341 C 0.51927 0.16939 0.92961 0.0
C342 C 0.45271 0.15013 0.9096 0.0
C343 C 0.43908 0.1668 0.92985 0.0
C344 C 0.49149 0.16933 0.92902 0.0
C345 C 0.45249 0.18516 0.94901 0.0
C346 C 0.53306 0.19331 0.94108 0.0
C347 C 0.55715 0.14404 0.91776 0.0
N348 N 0.47802 0.18597 0.94812 0.0
N349 N 0.53179 0.14559 0.91845 0.0
H350 H 0.44124 0.79071 0.43662 0.0
H351 H 0.57037 0.86713 0.39132 0.0
H352 H 0.44758 0.8787 0.39963 0.0
H353 H 0.56789 0.79781 0.45569 0.0
H354 H 0.52494 0.866 0.38851 0.0
H355 H 0.48726 0.78804 0.43911 0.0
C356 C 0.45225 0.80943 0.42907 0.0
C357 C 0.4405 0.83499 0.41794 0.0
C358 C 0.53429 0.85097 0.40324 0.0
C359 C 0.49289 0.83186 0.42036 0.0
C360 C 0.56031 0.85147 0.40478 0.0
C361 C 0.57307 0.83265 0.42393 0.0
C362 C 0.52068 0.83135 0.42078 0.0
C363 C 0.55884 0.81282 0.44072 0.0
C364 C 0.47845 0.80789 0.43055 0.0
C365 C 0.45571 0.85858 0.40849 0.0
N366 N 0.53335 0.81268 0.43878 0.0
N367 N 0.48101 0.85635 0.40977 0.0
H368 H 0.16923 0.30009 0.18479 0.0
H369 H 0.15128 0.40453 0.32046 0.0
H370 H 0.17048 0.39632 0.18037 0.0
H371 H 0.175 0.31301 0.32932 0.0
H372 H 0.15867 0.40139 0.26885 0.0
H373 H 0.17222 0.30342 0.23733 0.0
C374 C 0.17047 0.32189 0.19478 0.0
C375 C 0.16929 0.34798 0.1781 0.0
C376 C 0.16256 0.38204 0.28203 0.0
C377 C 0.17244 0.35188 0.23813 0.0
C378 C 0.15824 0.38379 0.31151 0.0
C379 C 0.16239 0.35893 0.32912 0.0
C380 C 0.17062 0.35502 0.26984 0.0
C381 C 0.17159 0.33269 0.31643 0.0
C382 C 0.17221 0.32375 0.22477 0.0
C383 C 0.1711 0.37559 0.19227 0.0
N384 N 0.17506 0.33125 0.28742 0.0
N385 N 0.17224 0.3768 0.22142 0.0
H386 H 0.82686 0.61692 0.67815 0.0
H387 H 0.83508 0.70126 0.82975 0.0
H388 H 0.84407 0.71078 0.68554 0.0
H389 H 0.83919 0.60587 0.81822 0.0
H390 H 0.82849 0.70682 0.77762 0.0
H391 H 0.82094 0.61466 0.73 0.0
C392 C 0.82912 0.63719 0.69061 0.0
C393 C 0.8364 0.66399 0.67745 0.0
C394 C 0.8305 0.6847 0.78665 0.0
C395 C 0.82976 0.66144 0.73712 0.0
C396 C 0.83411 0.6815 0.81634 0.0
C397 C 0.83793 0.65308 0.82819 0.0
C398 C 0.83036 0.65923 0.76895 0.0
C399 C 0.83662 0.62821 0.80991 0.0
C400 C 0.82577 0.63584 0.72029 0.0
C401 C 0.8387 0.68958 0.6948 0.0
N402 N 0.83306 0.63188 0.78125 0.0
N403 N 0.83569 0.6876 0.72383 0.0
H404 H 0.1663 0.71216 0.8174 0.0
H405 H 0.16856 0.60494 0.68152 0.0
H406 H 0.17876 0.6171 0.82205 0.0
H407 H 0.17385 0.70057 0.67322 0.0
H408 H 0.17485 0.60974 0.73318 0.0
H409 H 0.17164 0.70958 0.76504 0.0
C410 C 0.17051 0.69085 0.80753 0.0
C411 C 0.17172 0.66474 0.82417 0.0
C412 C 0.17497 0.62973 0.72014 0.0
C413 C 0.17764 0.66163 0.76434 0.0
C414 C 0.17134 0.62698 0.6906 0.0
C415 C 0.17051 0.65241 0.67313 0.0
C416 C 0.17731 0.6582 0.73254 0.0
C417 C 0.17438 0.6804 0.68599 0.0
C418 C 0.17355 0.6894 0.77763 0.0
C419 C 0.17732 0.63778 0.81016 0.0
N420 N 0.17722 0.68262 0.71506 0.0
N421 N 0.17977 0.6369 0.78112 0.0
H422 H 0.83338 0.31642 0.17581 0.0
H423 H 0.85248 0.39739 0.32803 0.0
H424 H 0.85504 0.40856 0.18647 0.0
H425 H 0.84138 0.30237 0.31905 0.0
H426 H 0.84676 0.40293 0.2763 0.0
H427 H 0.8295 0.31204 0.22827 0.0
C428 C 0.83695 0.33582 0.18914 0.0
C429 C 0.84479 0.36281 0.17681 0.0
C430 C 0.84541 0.38087 0.28564 0.0
C431 C 0.84049 0.35795 0.23662 0.0
C432 C 0.84865 0.37768 0.31524 0.0
C433 C 0.84769 0.34932 0.32794 0.0
C434 C 0.84121 0.35553 0.26846 0.0
C435 C 0.84248 0.32465 0.31018 0.0
C436 C 0.83485 0.33327 0.21905 0.0
C437 C 0.84921 0.38722 0.19506 0.0
N438 N 0.83962 0.3283 0.28131 0.0
N439 N 0.84714 0.38416 0.22399 0.0
H440 H 0.67377 0.89991 0.32212 0.0
H441 H 0.66781 0.7914 0.18719 0.0
H442 H 0.67555 0.80418 0.33111 0.0
H443 H 0.68206 0.88605 0.18159 0.0
H444 H 0.6736 0.79433 0.23948 0.0
H445 H 0.67987 0.89439 0.27049 0.0
C446 C 0.67576 0.87769 0.31321 0.0
C447 C 0.67398 0.85246 0.33086 0.0
C448 C 0.67581 0.81434 0.2267 0.0
C449 C 0.68051 0.84585 0.27148 0.0
C450 C 0.67252 0.81269 0.19684 0.0
C451 C 0.67409 0.8386 0.17996 0.0
C452 C 0.68055 0.84211 0.23971 0.0
C453 C 0.68032 0.86554 0.19368 0.0
C454 C 0.67927 0.87452 0.28368 0.0
C455 C 0.67684 0.8242 0.3182 0.0
N456 N 0.68301 0.86662 0.22269 0.0
N457 N 0.67956 0.82161 0.28915 0.0
H458 H 0.33602 0.1948 0.8302 0.0
H459 H 0.33441 0.11004 0.6785 0.0
H460 H 0.34565 0.09993 0.81891 0.0
H461 H 0.34642 0.20502 0.68631 0.0
H462 H 0.32821 0.1072 0.73031 0.0
H463 H 0.32997 0.19978 0.77793 0.0
C464 C 0.3364 0.17501 0.8168 0.0
C465 C 0.3416 0.14696 0.82876 0.0
C466 C 0.33197 0.12873 0.72068 0.0
C467 C 0.33465 0.15243 0.76939 0.0
C468 C 0.33548 0.1304 0.69104 0.0
C469 C 0.34136 0.15775 0.67802 0.0
C470 C 0.33437 0.15456 0.73758 0.0
C471 C 0.34219 0.1834 0.69545 0.0
C472 C 0.33309 0.17787 0.78704 0.0
C473 C 0.34199 0.12202 0.81051 0.0
N474 N 0.33901 0.18114 0.72443 0.0
N475 N 0.33869 0.12537 0.78178 0.0
H476 H 0.68293 0.11479 0.83341 0.0
H477 H 0.67719 0.19434 0.67953 0.0
H478 H 0.66601 0.20843 0.82355 0.0
H479 H 0.67104 0.0995 0.69353 0.0
H480 H 0.68291 0.20147 0.73166 0.0
H481 H 0.68896 0.11087 0.78167 0.0
C482 C 0.68074 0.13467 0.82043 0.0
C483 C 0.67353 0.1619 0.83288 0.0
C484 C 0.68064 0.17911 0.72317 0.0
C485 C 0.68034 0.15744 0.77332 0.0
C486 C 0.67752 0.17502 0.69349 0.0
C487 C 0.67342 0.14631 0.68232 0.0
C488 C 0.68002 0.15425 0.74155 0.0
C489 C 0.67388 0.12205 0.7013 0.0
C490 C 0.68415 0.13236 0.79081 0.0
C491 C 0.67132 0.18693 0.81486 0.0
N492 N 0.67701 0.12658 0.72993 0.0
N493 N 0.67444 0.18403 0.78589 0.0
H494 H 0.33553 0.804 0.17001 0.0
H495 H 0.33444 0.89275 0.31959 0.0
H496 H 0.34439 0.89927 0.17873 0.0
H497 H 0.3437 0.7972 0.31401 0.0
H498 H 0.32858 0.89458 0.26768 0.0
H499 H 0.32933 0.80048 0.22231 0.0
C500 C 0.33571 0.82419 0.18284 0.0
C501 C 0.34074 0.85193 0.17013 0.0
C502 C 0.33167 0.87316 0.27781 0.0
C503 C 0.33369 0.84811 0.22963 0.0
C504 C 0.33498 0.87207 0.30752 0.0
C505 C 0.33996 0.84482 0.3212 0.0
C506 C 0.33337 0.84683 0.26151 0.0
C507 C 0.34016 0.81874 0.30435 0.0
C508 C 0.33231 0.82216 0.21265 0.0
C509 C 0.34087 0.87739 0.1877 0.0
N510 N 0.33719 0.82042 0.27531 0.0
N511 N 0.33755 0.87484 0.21652 0.0
H512 H 0.31843 0.20173 0.03277 0.0
H513 H 0.20705 0.31656 0.01628 0.0
H514 H 0.29775 0.2322 0.94799 0.0
H515 H 0.20455 0.24263 0.07555 0.0
H516 H 0.24447 0.29431 0.99372 0.0
H517 H 0.28139 0.22629 0.0524 0.0
C518 C 0.3063 0.21394 0.0183 0.0
C519 C 0.31117 0.21484 0.98865 0.0
C520 C 0.23553 0.28301 0.01156 0.0
C521 C 0.26876 0.2431 0.01114 0.0
C522 C 0.21429 0.29564 0.02443 0.0
C523 C 0.20266 0.28134 0.04776 0.0
C524 C 0.24551 0.25647 0.02272 0.0
C525 C 0.2128 0.25431 0.05752 0.0
C526 C 0.28506 0.22774 0.02952 0.0
C527 C 0.29462 0.23089 0.97096 0.0
N528 N 0.23379 0.24297 0.04521 0.0
N529 N 0.27412 0.24455 0.98249 0.0
H530 H 0.82579 0.75967 0.53005 0.0
H531 H 0.68161 0.74953 0.5038 0.0
H532 H 0.78668 0.67679 0.54443 0.0
H533 H 0.72825 0.80178 0.4473 0.0
H534 H 0.71914 0.72414 0.52185 0.0
H535 H 0.78976 0.7779 0.50246 0.0
C536 C 0.8097 0.74524 0.52718 0.0
C537 C 0.80915 0.71673 0.53957 0.0
C538 C 0.72108 0.74082 0.50516 0.0
C539 C 0.76783 0.73761 0.50862 0.0
C540 C 0.69972 0.75532 0.49489 0.0
C541 C 0.70188 0.77776 0.47404 0.0
C542 C 0.74477 0.74949 0.49512 0.0
C543 C 0.72578 0.78448 0.46327 0.0
C544 C 0.78924 0.75558 0.51136 0.0
C545 C 0.78787 0.69889 0.53515 0.0
N546 N 0.74639 0.77082 0.47435 0.0
N547 N 0.76784 0.70982 0.52045 0.0
H548 H 0.33028 0.7493 0.99496 0.0
H549 H 0.1857 0.76052 0.97172 0.0
H550 H 0.28488 0.80152 0.05294 0.0
H551 H 0.22409 0.67733 0.95637 0.0
H552 H 0.22233 0.77855 0.99852 0.0
H553 H 0.2923 0.72442 0.97737 0.0
C554 C 0.31235 0.7552 0.00427 0.0
C555 C 0.31067 0.77745 0.02544 0.0
C556 C 0.22256 0.75622 0.98957 0.0
C557 C 0.26725 0.74978 0.00488 0.0
C558 C 0.20176 0.74598 0.9742 0.0
C559 C 0.20193 0.71743 0.96178 0.0
C560 C 0.24391 0.73809 0.99181 0.0
C561 C 0.22319 0.69946 0.96569 0.0
C562 C 0.29073 0.74099 0.99427 0.0
C563 C 0.28698 0.78433 0.03673 0.0
N564 N 0.24353 0.71028 0.97994 0.0
N565 N 0.26611 0.77096 0.02591 0.0
H566 H 0.71799 0.22879 0.56299 0.0
H567 H 0.80457 0.23918 0.42575 0.0
H568 H 0.69339 0.20145 0.47849 0.0
H569 H 0.80753 0.30921 0.48952 0.0
H570 H 0.7677 0.21866 0.44963 0.0
H571 H 0.75442 0.25347 0.54077 0.0
C572 C 0.7201 0.22822 0.53983 0.0
C573 C 0.70262 0.21304 0.52256 0.0
C574 C 0.77645 0.2385 0.45842 0.0
C575 C 0.7443 0.24038 0.49734 0.0
C576 C 0.79759 0.25012 0.44494 0.0
C577 C 0.80911 0.27597 0.45565 0.0
C578 C 0.76697 0.25242 0.48317 0.0
C579 C 0.79911 0.28929 0.48052 0.0
C580 C 0.74082 0.24228 0.52723 0.0
C581 C 0.70629 0.21294 0.49266 0.0
N582 N 0.77865 0.27722 0.49364 0.0
N583 N 0.72687 0.226 0.48107 0.0
H584 H 0.72577 0.82651 0.04789 0.0
H585 H 0.78272 0.70042 0.94591 0.0
H586 H 0.68694 0.74386 0.0311 0.0
H587 H 0.82874 0.75051 0.00507 0.0
H588 H 0.74548 0.72553 0.96538 0.0
H589 H 0.76186 0.80763 0.02059 0.0
C590 C 0.72469 0.8046 0.03808 0.0
C591 C 0.70343 0.7866 0.04189 0.0
C592 C 0.76381 0.73127 0.97373 0.0
C593 C 0.74431 0.76525 0.01038 0.0
C594 C 0.78504 0.71718 0.96252 0.0
C595 C 0.8088 0.72336 0.974 0.0
C596 C 0.76648 0.75217 0.99604 0.0
C597 C 0.81073 0.74502 0.99574 0.0
C598 C 0.74528 0.79385 0.02267 0.0
C599 C 0.70306 0.75833 0.02886 0.0
N600 N 0.78983 0.7587 0.00606 0.0
N601 N 0.72319 0.74852 0.0136 0.0
H602 H 0.31422 0.26542 0.57402 0.0
H603 H 0.2148 0.26897 0.44798 0.0
H604 H 0.30668 0.1886 0.51852 0.0
H605 H 0.20005 0.3051 0.53243 0.0
H606 H 0.2528 0.24483 0.4672 0.0
H607 H 0.27709 0.28719 0.55177 0.0
C608 C 0.30494 0.25327 0.55689 0.0
C609 C 0.3135 0.22508 0.54818 0.0
C610 C 0.24104 0.25792 0.4814 0.0
C611 C 0.27104 0.25004 0.52258 0.0
C612 C 0.21945 0.27166 0.47052 0.0
C613 C 0.20422 0.28898 0.48867 0.0
C614 C 0.24767 0.26234 0.51033 0.0
C615 C 0.21112 0.29183 0.51768 0.0
C616 C 0.28366 0.26564 0.54437 0.0
C617 C 0.3006 0.21033 0.52595 0.0
N618 N 0.23247 0.27898 0.5275 0.0
N619 N 0.27998 0.22305 0.51376 0.0
H620 H 0.8289 0.25808 0.99969 0.0
H621 H 0.68408 0.26268 0.97772 0.0
H622 H 0.78252 0.30858 0.05804 0.0
H623 H 0.72464 0.18072 0.96368 0.0
H624 H 0.72031 0.28265 0.00396 0.0
H625 H 0.79155 0.23143 0.98274 0.0
C626 C 0.81089 0.26325 0.00919 0.0
C627 C 0.80875 0.28551 0.0303 0.0
C628 C 0.7211 0.26016 0.99543 0.0
C629 C 0.76602 0.2558 0.01049 0.0
C630 C 0.70053 0.24882 0.98039 0.0
C631 C 0.70142 0.22004 0.96851 0.0
C632 C 0.74295 0.24293 0.99785 0.0
C633 C 0.72317 0.20298 0.97261 0.0
C634 C 0.78964 0.24803 0.99957 0.0
C635 C 0.78497 0.29143 0.04186 0.0
N636 N 0.74328 0.21488 0.98651 0.0
N637 N 0.76442 0.27706 0.0314 0.0
H638 H 0.21394 0.7389 0.55758 0.0
H639 H 0.30612 0.74284 0.42561 0.0
H640 H 0.19106 0.71224 0.47226 0.0
H641 H 0.30547 0.81797 0.48381 0.0
H642 H 0.26847 0.72357 0.44897 0.0
H643 H 0.25176 0.76195 0.53668 0.0
C644 C 0.21673 0.73814 0.53451 0.0
C645 C 0.19931 0.7237 0.51661 0.0
C646 C 0.27667 0.7442 0.45669 0.0
C647 C 0.24254 0.74901 0.49297 0.0
C648 C 0.29824 0.75511 0.44354 0.0
C649 C 0.3089 0.78209 0.45275 0.0
C650 C 0.26594 0.75997 0.47965 0.0
C651 C 0.29774 0.79714 0.476 0.0
C652 C 0.23823 0.75126 0.52268 0.0
C653 C 0.20387 0.72326 0.48687 0.0
N654 N 0.27687 0.78577 0.48886 0.0
N655 N 0.2252 0.7353 0.47606 0.0
H656 H 0.17518 0.59226 0.99151 0.0
H657 H 0.17473 0.41425 0.00672 0.0
H658 H 0.15983 0.53247 0.92078 0.0
H659 H 0.16209 0.4746 0.07768 0.0
H660 H 0.17983 0.45736 0.97474 0.0
H661 H 0.18096 0.549 0.02299 0.0
C662 C 0.1734 0.57005 0.98251 0.0
C663 C 0.16675 0.56593 0.95357 0.0
C664 C 0.17624 0.46108 0.99739 0.0
C665 C 0.17342 0.51649 0.98937 0.0
C666 C 0.17346 0.43654 0.01565 0.0
C667 C 0.16773 0.4409 0.04481 0.0
C668 C 0.17362 0.49009 0.00851 0.0
C669 C 0.16622 0.47025 0.05526 0.0
C670 C 0.1766 0.54541 1.0005 0.0
C671 C 0.16467 0.53665 0.94304 0.0
N672 N 0.16904 0.49372 0.03711 0.0
N673 N 0.16788 0.51303 0.96096 0.0
H674 H 0.83999 0.58944 0.50969 0.0
H675 H 0.83832 0.41116 0.4983 0.0
H676 H 0.84947 0.53175 0.58312 0.0
H677 H 0.86107 0.46892 0.4289 0.0
H678 H 0.83124 0.45538 0.52856 0.0
H679 H 0.83637 0.54524 0.4788 0.0
C680 C 0.84088 0.5675 0.51937 0.0
C681 C 0.8453 0.56421 0.54894 0.0
C682 C 0.8375 0.45828 0.50659 0.0
C683 C 0.84107 0.51375 0.51385 0.0
C684 C 0.84144 0.43313 0.48932 0.0
C685 C 0.85053 0.43644 0.4612 0.0
C686 C 0.84228 0.48683 0.49541 0.0
C687 C 0.85433 0.46539 0.45059 0.0
C688 C 0.83893 0.54233 0.50174 0.0
C689 C 0.84634 0.53525 0.56036 0.0
N690 N 0.85024 0.48947 0.46772 0.0
N691 N 0.84435 0.51111 0.54278 0.0
H692 H 0.84586 0.4171 0.98827 0.0
H693 H 0.8461 0.59298 0.01424 0.0
H694 H 0.84019 0.45775 0.07232 0.0
H695 H 0.83941 0.55264 0.93015 0.0
H696 H 0.84179 0.54364 0.03595 0.0
H697 H 0.84132 0.46641 0.96647 0.0
C698 C 0.84342 0.43632 1.00214 0.0
C699 C 0.84364 0.43326 0.03219 0.0
C700 C 0.84102 0.54561 0.01275 0.0
C701 C 0.83865 0.48982 0.00738 0.0
C702 C 0.8435 0.5738 1.00034 0.0
C703 C 0.84334 0.57697 0.97031 0.0
C704 C 0.83861 0.52034 0.99503 0.0
C705 C 0.83977 0.55129 0.9534 0.0
C706 C 0.84082 0.46449 0.98968 0.0
C707 C 0.84029 0.459 0.04907 0.0
N708 N 0.83781 0.52405 0.96598 0.0
N709 N 0.8382 0.48619 0.03644 0.0
H710 H 0.17102 0.4191 0.51157 0.0
H711 H 0.15801 0.59472 0.48613 0.0
H712 H 0.15596 0.45851 0.42864 0.0
H713 H 0.17323 0.55484 0.56881 0.0
H714 H 0.16126 0.5455 0.46382 0.0
H715 H 0.17581 0.46894 0.53195 0.0
C716 C 0.16887 0.43822 0.49757 0.0
C717 C 0.16284 0.43456 0.46837 0.0
C718 C 0.1641 0.54755 0.48681 0.0
C719 C 0.16823 0.49185 0.49168 0.0
C720 C 0.16227 0.57568 0.49958 0.0
C721 C 0.16511 0.57893 0.52947 0.0
C722 C 0.1687 0.52242 0.50402 0.0
C723 C 0.17074 0.55343 0.54574 0.0
C724 C 0.17163 0.46672 0.50925 0.0
C725 C 0.16047 0.46022 0.45129 0.0
N726 N 0.17214 0.52625 0.53284 0.0
N727 N 0.16298 0.48778 0.46325 0.0
H728 H 0.67409 0.09137 1.00174 0.0
H729 H 0.6761 0.91306 0.01308 0.0
H730 H 0.66196 0.03264 0.9294 0.0
H731 H 0.66126 0.97115 0.08523 0.0
H732 H 0.68114 0.95707 0.98237 0.0
H733 H 0.67956 0.04759 0.03271 0.0
C734 C 0.67295 0.0693 0.9923 0.0
C735 C 0.66731 0.0656 0.96304 0.0
C736 C 0.67705 0.96012 0.005 0.0
C737 C 0.67362 0.0156 0.99821 0.0
C738 C 0.67428 0.93506 0.02255 0.0
C739 C 0.668 0.93848 0.05167 0.0
C740 C 0.6738 0.98876 0.01676 0.0
C741 C 0.66584 0.9675 0.06281 0.0
C742 C 0.67597 0.04437 0.00999 0.0
C743 C 0.66602 0.03649 0.95192 0.0
N744 N 0.66863 0.99153 0.04532 0.0
N745 N 0.66905 0.01261 0.96953 0.0
H746 H 0.35376 0.97356 0.41881 0.0
H747 H 0.35246 0.0303 0.57966 0.0
H748 H 0.33902 0.91476 0.49024 0.0
H749 H 0.34129 0.08968 0.50783 0.0
H750 H 0.34686 0.9877 0.54746 0.0
H751 H 0.34854 0.01641 0.4508 0.0
C752 C 0.34916 0.96968 0.44119 0.0
C753 C 0.34702 0.94056 0.45196 0.0
C754 C 0.34529 0.01003 0.53879 0.0
C755 C 0.34133 0.98951 0.48876 0.0
C756 C 0.34856 0.03437 0.55713 0.0
C757 C 0.34754 0.06356 0.54633 0.0
C758 C 0.34142 0.01487 0.5093 0.0
C759 C 0.34227 0.06753 0.51702 0.0
C760 C 0.34611 0.99417 0.45942 0.0
C761 C 0.34088 0.93684 0.48108 0.0
N762 N 0.33979 0.04343 0.49941 0.0
N763 N 0.33862 0.96105 0.49858 0.0
H764 H 0.35087 0.90823 0.98268 0.0
H765 H 0.34221 0.08312 0.01219 0.0
H766 H 0.33734 0.94651 0.06657 0.0
H767 H 0.34387 0.04491 0.92686 0.0
H768 H 0.33797 0.03306 0.03222 0.0
H769 H 0.34593 0.95775 0.9614 0.0
C770 C 0.34662 0.92696 0.9966 0.0
C771 C 0.34478 0.92321 0.0265 0.0
C772 C 0.33901 0.03563 0.00909 0.0
C773 C 0.33929 0.97998 1.00231 0.0
C774 C 0.34146 0.06424 0.99764 0.0
C775 C 0.34364 0.06823 0.96781 0.0
C776 C 0.33901 0.01076 0.99063 0.0
C777 C 0.34238 0.04291 0.95 0.0
C778 C 0.34379 0.95524 0.98443 0.0
C779 C 0.33911 0.94831 0.04344 0.0
N780 N 0.34043 0.01524 0.96171 0.0
N781 N 0.33683 0.97563 0.03115 0.0
H782 H 0.67276 0.08294 0.49801 0.0
H783 H 0.66268 0.9069 0.5195 0.0
H784 H 0.66985 0.04101 0.5815 0.0
H785 H 0.67639 0.94884 0.43743 0.0
H786 H 0.66771 0.95538 0.54301 0.0
H787 H 0.67661 0.0338 0.47578 0.0
C788 C 0.67315 0.06342 0.51171 0.0
C789 C 0.67075 0.06613 0.54167 0.0
C790 C 0.66987 0.95391 0.51988 0.0
C791 C 0.67494 0.00965 0.51628 0.0
C792 C 0.66698 0.92622 0.50643 0.0
C793 C 0.66887 0.92379 0.47639 0.0
C794 C 0.67448 0.97942 0.50317 0.0
C795 C 0.6746 0.94961 0.46062 0.0
C796 C 0.67537 0.03533 0.49899 0.0
C797 C 0.67156 0.04001 0.55832 0.0
N798 N 0.67695 0.97635 0.47416 0.0
N799 N 0.6733 0.01285 0.54537 0.0
loop_
_geom_bond_atom_site_label_1
_geom_bond_atom_site_label_2
_geom_bond_distance
_geom_bond_site_symmetry_2
_ccdc_geom_bond_type
O0 Cd1 2.223 . S
O0 C8 1.315 . S
Cd1 O0 2.223 . S
Cd1 O4 2.297 . S
Cd1 O5 2.439 . S
Cd1 O11 2.240 . S
Cd2 O3 2.240 . S
Cd2 O10 2.223 . S
Cd2 O12 2.297 . S
Cd2 O13 2.439 . S
O3 Cd2 2.240 . S
O3 C8 1.279 . S
O4 Cd1 2.297 . S
O4 C6 1.247 . S
O5 Cd1 2.439 . S
O5 C6 1.208 . S
C6 O4 1.247 . S
C6 O5 1.208 . S
C7 O12 1.247 . S
C7 O13 1.208 . S
C8 O0 1.315 . S
C8 O3 1.279 . S
C9 O10 1.315 . S
C9 O11 1.279 . S
O10 Cd2 2.223 . S
O10 C9 1.315 . S
O11 Cd1 2.240 . S
O11 C9 1.279 . S
O12 Cd2 2.297 . S
O12 C7 1.247 . S
O13 Cd2 2.439 . S
O13 C7 1.208 . S
O14 Cd15 2.223 . S
O14 C22 1.315 . S
Cd15 O14 2.223 . S
Cd15 O18 2.297 . S
Cd15 O19 2.439 . S
Cd15 O25 2.240 . S
Cd16 O17 2.240 . S
Cd16 O24 2.223 . S
Cd16 O26 2.297 . S
Cd16 O27 2.439 . S
O17 Cd16 2.240 . S
O17 C22 1.279 . S
O18 Cd15 2.297 . S
O18 C20 1.247 . S
O19 Cd15 2.439 . S
O19 C20 1.208 . S
C20 O18 1.247 . S
C20 O19 1.208 . S
C21 O26 1.247 . S
C21 O27 1.208 . S
C22 O14 1.315 . S
C22 O17 1.279 . S
C23 O24 1.315 . S
C23 O25 1.279 . S
O24 Cd16 2.223 . S
O24 C23 1.315 . S
O25 Cd15 2.240 . S
O25 C23 1.279 . S
O26 Cd16 2.297 . S
O26 C21 1.247 . S
O27 Cd16 2.439 . S
O27 C21 1.208 . S
O28 Cd29 2.223 . S
O28 C36 1.315 . S
Cd29 O28 2.223 . S
Cd29 O32 2.297 . S
Cd29 O33 2.439 . S
Cd29 O39 2.240 . S
Cd30 O31 2.240 . S
Cd30 O38 2.223 . S
Cd30 O40 2.297 . S
Cd30 O41 2.439 . S
O31 Cd30 2.240 . S
O31 C36 1.279 . S
O32 Cd29 2.297 . S
O32 C34 1.247 . S
O33 Cd29 2.439 . S
O33 C34 1.208 . S
C34 O32 1.247 . S
C34 O33 1.208 . S
C35 O40 1.247 . S
C35 O41 1.208 . S
C36 O28 1.315 . S
C36 O31 1.279 . S
C37 O38 1.315 . S
C37 O39 1.279 . S
O38 Cd30 2.223 . S
O38 C37 1.315 . S
O39 Cd29 2.240 . S
O39 C37 1.279 . S
O40 Cd30 2.297 . S
O40 C35 1.247 . S
O41 Cd30 2.439 . S
O41 C35 1.208 . S
O42 Cd43 2.223 . S
O42 C50 1.315 . S
Cd43 O42 2.223 . S
Cd43 O46 2.297 . S
Cd43 O47 2.439 . S
Cd43 O53 2.240 . S
Cd44 O45 2.240 . S
Cd44 O52 2.223 . S
Cd44 O54 2.297 . S
Cd44 O55 2.439 . S
O45 Cd44 2.240 . S
O45 C50 1.279 . S
O46 Cd43 2.297 . S
O46 C48 1.247 . S
O47 Cd43 2.439 . S
O47 C48 1.208 . S
C48 O46 1.247 . S
C48 O47 1.208 . S
C49 O54 1.247 . S
C49 O55 1.208 . S
C50 O42 1.315 . S
C50 O45 1.279 . S
C51 O52 1.315 . S
C51 O53 1.279 . S
O52 Cd44 2.223 . S
O52 C51 1.315 . S
O53 Cd43 2.240 . S
O53 C51 1.279 . S
O54 Cd44 2.297 . S
O54 C49 1.247 . S
O55 Cd44 2.439 . S
O55 C49 1.208 . S
O56 Cd57 2.223 . S
O56 C64 1.315 . S
Cd57 O56 2.223 . S
Cd57 O60 2.297 . S
Cd57 O61 2.439 . S
Cd57 O67 2.240 . S
Cd58 O59 2.240 . S
Cd58 O66 2.223 . S
Cd58 O68 2.297 . S
Cd58 O69 2.439 . S
O59 Cd58 2.240 . S
O59 C64 1.279 . S
O60 Cd57 2.297 . S
O60 C62 1.247 . S
O61 Cd57 2.439 . S
O61 C62 1.208 . S
C62 O60 1.247 . S
C62 O61 1.208 . S
C63 O68 1.247 . S
C63 O69 1.208 . S
C64 O56 1.315 . S
C64 O59 1.279 . S
C65 O66 1.315 . S
C65 O67 1.279 . S
O66 Cd58 2.223 . S
O66 C65 1.315 . S
O67 Cd57 2.240 . S
O67 C65 1.279 . S
O68 Cd58 2.297 . S
O68 C63 1.247 . S
O69 Cd58 2.439 . S
O69 C63 1.208 . S
O70 Cd71 2.223 . S
O70 C78 1.315 . S
Cd71 O70 2.223 . S
Cd71 O74 2.297 . S
Cd71 O75 2.439 . S
Cd71 O81 2.240 . S
Cd72 O73 2.240 . S
Cd72 O80 2.223 . S
Cd72 O82 2.297 . S
Cd72 O83 2.439 . S
O73 Cd72 2.240 . S
O73 C78 1.279 . S
O74 Cd71 2.297 . S
O74 C76 1.247 . S
O75 Cd71 2.439 . S
O75 C76 1.208 . S
C76 O74 1.247 . S
C76 O75 1.208 . S
C77 O82 1.247 . S
C77 O83 1.208 . S
C78 O70 1.315 . S
C78 O73 1.279 . S
C79 O80 1.315 . S
C79 O81 1.279 . S
O80 Cd72 2.223 . S
O80 C79 1.315 . S
O81 Cd71 2.240 . S
O81 C79 1.279 . S
O82 Cd72 2.297 . S
O82 C77 1.247 . S
O83 Cd72 2.439 . S
O83 C77 1.208 . S
O84 Cd85 2.223 . S
O84 C92 1.315 . S
Cd85 O84 2.223 . S
Cd85 O88 2.297 . S
Cd85 O89 2.439 . S
Cd85 O95 2.240 . S
Cd86 O87 2.240 . S
Cd86 O94 2.223 . S
Cd86 O96 2.297 . S
Cd86 O97 2.439 . S
O87 Cd86 2.240 . S
O87 C92 1.279 . S
O88 Cd85 2.297 . S
O88 C90 1.247 . S
O89 Cd85 2.439 . S
O89 C90 1.208 . S
C90 O88 1.247 . S
C90 O89 1.208 . S
C91 O96 1.247 . S
C91 O97 1.208 . S
C92 O84 1.315 . S
C92 O87 1.279 . S
C93 O94 1.315 . S
C93 O95 1.279 . S
O94 Cd86 2.223 . S
O94 C93 1.315 . S
O95 Cd85 2.240 . S
O95 C93 1.279 . S
O96 Cd86 2.297 . S
O96 C91 1.247 . S
O97 Cd86 2.439 . S
O97 C91 1.208 . S
O98 Cd99 2.223 . S
O98 C106 1.315 . S
Cd99 O98 2.223 . S
Cd99 O102 2.297 . S
Cd99 O103 2.439 . S
Cd99 O109 2.240 . S
Cd100 O101 2.240 . S
Cd100 O108 2.223 . S
Cd100 O110 2.297 . S
Cd100 O111 2.439 . S
O101 Cd100 2.240 . S
O101 C106 1.279 . S
O102 Cd99 2.297 . S
O102 C104 1.247 . S
O103 Cd99 2.439 . S
O103 C104 1.208 . S
C104 O102 1.247 . S
C104 O103 1.208 . S
C105 O110 1.247 . S
C105 O111 1.208 . S
C106 O98 1.315 . S
C106 O101 1.279 . S
C107 O108 1.315 . S
C107 O109 1.279 . S
O108 Cd100 2.223 . S
O108 C107 1.315 . S
O109 Cd99 2.240 . S
O109 C107 1.279 . S
O110 Cd100 2.297 . S
O110 C105 1.247 . S
O111 Cd100 2.439 . S
O111 C105 1.208 . S
O112 Cd113 2.223 . S
O112 C120 1.315 . S
Cd113 O112 2.223 . S
Cd113 O116 2.297 . S
Cd113 O117 2.439 . S
Cd113 O123 2.240 . S
Cd114 O115 2.240 . S
Cd114 O122 2.223 . S
Cd114 O124 2.297 . S
Cd114 O125 2.439 . S
O115 Cd114 2.240 . S
O115 C120 1.279 . S
O116 Cd113 2.297 . S
O116 C118 1.247 . S
O117 Cd113 2.439 . S
O117 C118 1.208 . S
C118 O116 1.247 . S
C118 O117 1.208 . S
C119 O124 1.247 . S
C119 O125 1.208 . S
C120 O112 1.315 . S
C120 O115 1.279 . S
C121 O122 1.315 . S
C121 O123 1.279 . S
O122 Cd114 2.223 . S
O122 C121 1.315 . S
O123 Cd113 2.240 . S
O123 C121 1.279 . S
O124 Cd114 2.297 . S
O124 C119 1.247 . S
O125 Cd114 2.439 . S
O125 C119 1.208 . S
O126 Cd127 2.223 . S
O126 C134 1.315 . S
Cd127 O126 2.223 . S
Cd127 O130 2.297 . S
Cd127 O131 2.439 . S
Cd127 O137 2.240 . S
Cd128 O129 2.240 . S
Cd128 O136 2.223 . S
Cd128 O138 2.297 . S
Cd128 O139 2.439 . S
O129 Cd128 2.240 . S
O129 C134 1.279 . S
O130 Cd127 2.297 . S
O130 C132 1.247 . S
O131 Cd127 2.439 . S
O131 C132 1.208 . S
C132 O130 1.247 . S
C132 O131 1.208 . S
C133 O138 1.247 . S
C133 O139 1.208 . S
C134 O126 1.315 . S
C134 O129 1.279 . S
C135 O136 1.315 . S
C135 O137 1.279 . S
O136 Cd128 2.223 . S
O136 C135 1.315 . S
O137 Cd127 2.240 . S
O137 C135 1.279 . S
O138 Cd128 2.297 . S
O138 C133 1.247 . S
O139 Cd128 2.439 . S
O139 C133 1.208 . S
O140 Cd141 2.223 . S
O140 C148 1.315 . S
Cd141 O140 2.223 . S
Cd141 O144 2.297 . S
Cd141 O145 2.439 . S
Cd141 O151 2.240 . S
Cd142 O143 2.240 . S
Cd142 O150 2.223 . S
Cd142 O152 2.297 . S
Cd142 O153 2.439 . S
O143 Cd142 2.240 . S
O143 C148 1.279 . S
O144 Cd141 2.297 . S
O144 C146 1.247 . S
O145 Cd141 2.439 . S
O145 C146 1.208 . S
C146 O144 1.247 . S
C146 O145 1.208 . S
C147 O152 1.247 . S
C147 O153 1.208 . S
C148 O140 1.315 . S
C148 O143 1.279 . S
C149 O150 1.315 . S
C149 O151 1.279 . S
O150 Cd142 2.223 . S
O150 C149 1.315 . S
O151 Cd141 2.240 . S
O151 C149 1.279 . S
O152 Cd142 2.297 . S
O152 C147 1.247 . S
O153 Cd142 2.439 . S
O153 C147 1.208 . S
O154 Cd155 2.223 . S
O154 C162 1.315 . S
Cd155 O154 2.223 . S
Cd155 O158 2.297 . S
Cd155 O159 2.439 . S
Cd155 O165 2.240 . S
Cd156 O157 2.240 . S
Cd156 O164 2.223 . S
Cd156 O166 2.297 . S
Cd156 O167 2.439 . S
O157 Cd156 2.240 . S
O157 C162 1.279 . S
O158 Cd155 2.297 . S
O158 C160 1.247 . S
O159 Cd155 2.439 . S
O159 C160 1.208 . S
C160 O158 1.247 . S
C160 O159 1.208 . S
C161 O166 1.247 . S
C161 O167 1.208 . S
C162 O154 1.315 . S
C162 O157 1.279 . S
C163 O164 1.315 . S
C163 O165 1.279 . S
O164 Cd156 2.223 . S
O164 C163 1.315 . S
O165 Cd155 2.240 . S
O165 C163 1.279 . S
O166 Cd156 2.297 . S
O166 C161 1.247 . S
O167 Cd156 2.439 . S
O167 C161 1.208 . S
O168 Cd169 2.223 . S
O168 C176 1.315 . S
Cd169 O168 2.223 . S
Cd169 O172 2.297 . S
Cd169 O173 2.439 . S
Cd169 O179 2.240 . S
Cd170 O171 2.240 . S
Cd170 O178 2.223 . S
Cd170 O180 2.297 . S
Cd170 O181 2.439 . S
O171 Cd170 2.240 . S
O171 C176 1.279 . S
O172 Cd169 2.297 . S
O172 C174 1.247 . S
O173 Cd169 2.439 . S
O173 C174 1.208 . S
C174 O172 1.247 . S
C174 O173 1.208 . S
C175 O180 1.247 . S
C175 O181 1.208 . S
C176 O168 1.315 . S
C176 O171 1.279 . S
C177 O178 1.315 . S
C177 O179 1.279 . S
O178 Cd170 2.223 . S
O178 C177 1.315 . S
O179 Cd169 2.240 . S
O179 C177 1.279 . S
O180 Cd170 2.297 . S
O180 C175 1.247 . S
O181 Cd170 2.439 . S
O181 C175 1.208 . S
O182 Cd183 2.223 . S
O182 C190 1.315 . S
Cd183 O182 2.223 . S
Cd183 O186 2.297 . S
Cd183 O187 2.439 . S
Cd183 O193 2.240 . S
Cd184 O185 2.240 . S
Cd184 O192 2.223 . S
Cd184 O194 2.297 . S
Cd184 O195 2.439 . S
O185 Cd184 2.240 . S
O185 C190 1.279 . S
O186 Cd183 2.297 . S
O186 C188 1.247 . S
O187 Cd183 2.439 . S
O187 C188 1.208 . S
C188 O186 1.247 . S
C188 O187 1.208 . S
C189 O194 1.247 . S
C189 O195 1.208 . S
C190 O182 1.315 . S
C190 O185 1.279 . S
C191 O192 1.315 . S
C191 O193 1.279 . S
O192 Cd184 2.223 . S
O192 C191 1.315 . S
O193 Cd183 2.240 . S
O193 C191 1.279 . S
O194 Cd184 2.297 . S
O194 C189 1.247 . S
O195 Cd184 2.439 . S
O195 C189 1.208 . S
O196 Cd197 2.223 . S
O196 C204 1.315 . S
Cd197 O196 2.223 . S
Cd197 O200 2.297 . S
Cd197 O201 2.439 . S
Cd197 O207 2.240 . S
Cd198 O199 2.240 . S
Cd198 O206 2.223 . S
Cd198 O208 2.297 . S
Cd198 O209 2.439 . S
O199 Cd198 2.240 . S
O199 C204 1.279 . S
O200 Cd197 2.297 . S
O200 C202 1.247 . S
O201 Cd197 2.439 . S
O201 C202 1.208 . S
C202 O200 1.247 . S
C202 O201 1.208 . S
C203 O208 1.247 . S
C203 O209 1.208 . S
C204 O196 1.315 . S
C204 O199 1.279 . S
C205 O206 1.315 . S
C205 O207 1.279 . S
O206 Cd198 2.223 . S
O206 C205 1.315 . S
O207 Cd197 2.240 . S
O207 C205 1.279 . S
O208 Cd198 2.297 . S
O208 C203 1.247 . S
O209 Cd198 2.439 . S
O209 C203 1.208 . S
O210 Cd211 2.223 . S
O210 C218 1.315 . S
Cd211 O210 2.223 . S
Cd211 O214 2.297 . S
Cd211 O215 2.439 . S
Cd211 O221 2.240 . S
Cd212 O213 2.240 . S
Cd212 O220 2.223 . S
Cd212 O222 2.297 . S
Cd212 O223 2.439 . S
O213 Cd212 2.240 . S
O213 C218 1.279 . S
O214 Cd211 2.297 . S
O214 C216 1.247 . S
O215 Cd211 2.439 . S
O215 C216 1.208 . S
C216 O214 1.247 . S
C216 O215 1.208 . S
C217 O222 1.247 . S
C217 O223 1.208 . S
C218 O210 1.315 . S
C218 O213 1.279 . S
C219 O220 1.315 . S
C219 O221 1.279 . S
O220 Cd212 2.223 . S
O220 C219 1.315 . S
O221 Cd211 2.240 . S
O221 C219 1.279 . S
O222 Cd212 2.297 . S
O222 C217 1.247 . S
O223 Cd212 2.439 . S
O223 C217 1.208 . S
H224 C230 0.930 . S
H225 C234 0.930 . S
H226 C239 0.929 . S
H227 C237 0.929 . S
H228 C232 0.929 . S
H229 C238 0.929 . S
C230 H224 0.930 . S
C230 C231 1.367 . S
C230 C238 1.378 . S
C231 C230 1.367 . S
C231 C239 1.433 . S
C232 H228 0.929 . S
C232 C234 1.378 . S
C232 C236 1.350 . S
C233 C236 1.463 1_455 S
C233 C238 1.350 . S
C233 N241 1.427 . S
C234 H225 0.930 . S
C234 C232 1.378 . S
C234 C235 1.367 . S
C235 C234 1.367 . S
C235 C237 1.433 . S
C236 C232 1.350 . S
C236 C233 1.463 1_655 S
C236 N240 1.427 . S
C237 H227 0.929 . S
C237 C235 1.433 . S
C237 N240 1.384 . S
C238 H229 0.929 . S
C238 C230 1.378 . S
C238 C233 1.350 . S
C239 H226 0.929 . S
C239 C231 1.433 . S
C239 N241 1.384 . S
N240 C236 1.427 . S
N240 C237 1.384 . S
N241 C233 1.427 . S
N241 C239 1.384 . S
H242 C248 0.930 . S
H243 C252 0.930 . S
H244 C257 0.929 . S
H245 C255 0.929 . S
H246 C250 0.929 . S
H247 C256 0.929 . S
C248 H242 0.930 . S
C248 C249 1.367 . S
C248 C256 1.378 . S
C249 C248 1.367 . S
C249 C257 1.433 . S
C250 H246 0.929 . S
C250 C252 1.378 . S
C250 C254 1.350 . S
C251 C254 1.463 1_655 S
C251 C256 1.350 . S
C251 N259 1.427 . S
C252 H243 0.930 . S
C252 C250 1.378 . S
C252 C253 1.367 . S
C253 C252 1.367 . S
C253 C255 1.433 . S
C254 C250 1.350 . S
C254 C251 1.463 1_455 S
C254 N258 1.427 . S
C255 H245 0.929 . S
C255 C253 1.433 . S
C255 N258 1.384 . S
C256 H247 0.929 . S
C256 C248 1.378 . S
C256 C251 1.350 . S
C257 H244 0.929 . S
C257 C249 1.433 . S
C257 N259 1.384 . S
N258 C254 1.427 . S
N258 C255 1.384 . S
N259 C251 1.427 . S
N259 C257 1.384 . S
H260 C266 0.930 . S
H261 C270 0.930 . S
H262 C275 0.929 . S
H263 C273 0.929 . S
H264 C268 0.929 . S
H265 C274 0.929 . S
C266 H260 0.930 . S
C266 C267 1.367 . S
C266 C274 1.378 . S
C267 C266 1.367 . S
C267 C275 1.433 . S
C268 H264 0.929 . S
C268 C270 1.378 . S
C268 C272 1.350 . S
C269 C272 1.463 1_655 S
C269 C274 1.350 . S
C269 N277 1.427 . S
C270 H261 0.930 . S
C270 C268 1.378 . S
C270 C271 1.367 . S
C271 C270 1.367 . S
C271 C273 1.433 . S
C272 C268 1.350 . S
C272 C269 1.463 1_455 S
C272 N276 1.427 . S
C273 H263 0.929 . S
C273 C271 1.433 . S
C273 N276 1.384 . S
C274 H265 0.929 . S
C274 C266 1.378 . S
C274 C269 1.350 . S
C275 H262 0.929 . S
C275 C267 1.433 . S
C275 N277 1.384 . S
N276 C272 1.427 . S
N276 C273 1.384 . S
N277 C269 1.427 . S
N277 C275 1.384 . S
H278 C284 0.930 . S
H279 C288 0.930 . S
H280 C293 0.929 . S
H281 C291 0.929 . S
H282 C286 0.929 . S
H283 C292 0.929 . S
C284 H278 0.930 . S
C284 C285 1.367 . S
C284 C292 1.378 . S
C285 C284 1.367 . S
C285 C293 1.433 . S
C286 H282 0.929 . S
C286 C288 1.378 . S
C286 C290 1.350 . S
C287 C290 1.463 1_455 S
C287 C292 1.350 . S
C287 N295 1.427 . S
C288 H279 0.930 . S
C288 C286 1.378 . S
C288 C289 1.367 . S
C289 C288 1.367 . S
C289 C291 1.433 . S
C290 C286 1.350 . S
C290 C287 1.463 1_655 S
C290 N294 1.427 . S
C291 H281 0.929 . S
C291 C289 1.433 . S
C291 N294 1.384 . S
C292 H283 0.929 . S
C292 C284 1.378 . S
C292 C287 1.350 . S
C293 H280 0.929 . S
C293 C285 1.433 . S
C293 N295 1.384 . S
N294 C290 1.427 . S
N294 C291 1.384 . S
N295 C287 1.427 . S
N295 C293 1.384 . S
H296 C302 0.930 . S
H297 C306 0.930 . S
H298 C311 0.929 . S
H299 C309 0.929 . S
H300 C304 0.929 . S
H301 C310 0.929 . S
C302 H296 0.930 . S
C302 C303 1.367 . S
C302 C310 1.378 . S
C303 C302 1.367 . S
C303 C311 1.433 . S
C304 H300 0.929 . S
C304 C306 1.378 . S
C304 C308 1.350 . S
C305 C308 1.463 . S
C305 C310 1.350 . S
C305 N313 1.427 . S
C306 H297 0.930 . S
C306 C304 1.378 . S
C306 C307 1.367 . S
C307 C306 1.367 . S
C307 C309 1.433 . S
C308 C304 1.350 . S
C308 C305 1.463 . S
C308 N312 1.427 . S
C309 H299 0.929 . S
C309 C307 1.433 . S
C309 N312 1.384 . S
C310 H301 0.929 . S
C310 C302 1.378 . S
C310 C305 1.350 . S
C311 H298 0.929 . S
C311 C303 1.433 . S
C311 N313 1.384 . S
N312 C308 1.427 . S
N312 C309 1.384 . S
N313 C305 1.427 . S
N313 C311 1.384 . S
H314 C320 0.930 . S
H315 C324 0.930 . S
H316 C329 0.929 . S
H317 C327 0.929 . S
H318 C322 0.929 . S
H319 C328 0.929 . S
C320 H314 0.930 . S
C320 C321 1.367 . S
C320 C328 1.378 . S
C321 C320 1.367 . S
C321 C329 1.433 . S
C322 H318 0.929 . S
C322 C324 1.378 . S
C322 C326 1.350 . S
C323 C326 1.463 . S
C323 C328 1.350 . S
C323 N331 1.427 . S
C324 H315 0.930 . S
C324 C322 1.378 . S
C324 C325 1.367 . S
C325 C324 1.367 . S
C325 C327 1.433 . S
C326 C322 1.350 . S
C326 C323 1.463 . S
C326 N330 1.427 . S
C327 H317 0.929 . S
C327 C325 1.433 . S
C327 N330 1.384 . S
C328 H319 0.929 . S
C328 C320 1.378 . S
C328 C323 1.350 . S
C329 H316 0.929 . S
C329 C321 1.433 . S
C329 N331 1.384 . S
N330 C326 1.427 . S
N330 C327 1.384 . S
N331 C323 1.427 . S
N331 C329 1.384 . S
H332 C338 0.930 . S
H333 C342 0.930 . S
H334 C347 0.929 . S
H335 C345 0.929 . S
H336 C340 0.929 . S
H337 C346 0.929 . S
C338 H332 0.930 . S
C338 C339 1.367 . S
C338 C346 1.378 . S
C339 C338 1.367 . S
C339 C347 1.433 . S
C340 H336 0.929 . S
C340 C342 1.378 . S
C340 C344 1.350 . S
C341 C344 1.463 . S
C341 C346 1.350 . S
C341 N349 1.427 . S
C342 H333 0.930 . S
C342 C340 1.378 . S
C342 C343 1.367 . S
C343 C342 1.367 . S
C343 C345 1.433 . S
C344 C340 1.350 . S
C344 C341 1.463 . S
C344 N348 1.427 . S
C345 H335 0.929 . S
C345 C343 1.433 . S
C345 N348 1.384 . S
C346 H337 0.929 . S
C346 C338 1.378 . S
C346 C341 1.350 . S
C347 H334 0.929 . S
C347 C339 1.433 . S
C347 N349 1.384 . S
N348 C344 1.427 . S
N348 C345 1.384 . S
N349 C341 1.427 . S
N349 C347 1.384 . S
H350 C356 0.930 . S
H351 C360 0.930 . S
H352 C365 0.929 . S
H353 C363 0.929 . S
H354 C358 0.929 . S
H355 C364 0.929 . S
C356 H350 0.930 . S
C356 C357 1.367 . S
C356 C364 1.378 . S
C357 C356 1.367 . S
C357 C365 1.433 . S
C358 H354 0.929 . S
C358 C360 1.378 . S
C358 C362 1.350 . S
C359 C362 1.463 . S
C359 C364 1.350 . S
C359 N367 1.427 . S
C360 H351 0.930 . S
C360 C358 1.378 . S
C360 C361 1.367 . S
C361 C360 1.367 . S
C361 C363 1.433 . S
C362 C358 1.350 . S
C362 C359 1.463 . S
C362 N366 1.427 . S
C363 H353 0.929 . S
C363 C361 1.433 . S
C363 N366 1.384 . S
C364 H355 0.929 . S
C364 C356 1.378 . S
C364 C359 1.350 . S
C365 H352 0.929 . S
C365 C357 1.433 . S
C365 N367 1.384 . S
N366 C362 1.427 . S
N366 C363 1.384 . S
N367 C359 1.427 . S
N367 C365 1.384 . S
H368 C374 0.930 . S
H369 C378 0.930 . S
H370 C383 0.929 . S
H371 C381 0.929 . S
H372 C376 0.929 . S
H373 C382 0.929 . S
C374 H368 0.930 . S
C374 C375 1.367 . S
C374 C382 1.378 . S
C375 C374 1.367 . S
C375 C383 1.433 . S
C376 H372 0.929 . S
C376 C378 1.378 . S
C376 C380 1.350 . S
C377 C380 1.463 . S
C377 C382 1.350 . S
C377 N385 1.427 . S
C378 H369 0.930 . S
C378 C376 1.378 . S
C378 C379 1.367 . S
C379 C378 1.367 . S
C379 C381 1.433 . S
C380 C376 1.350 . S
C380 C377 1.463 . S
C380 N384 1.427 . S
C381 H371 0.929 . S
C381 C379 1.433 . S
C381 N384 1.384 . S
C382 H373 0.929 . S
C382 C374 1.378 . S
C382 C377 1.350 . S
C383 H370 0.929 . S
C383 C375 1.433 . S
C383 N385 1.384 . S
N384 C380 1.427 . S
N384 C381 1.384 . S
N385 C377 1.427 . S
N385 C383 1.384 . S
H386 C392 0.930 . S
H387 C396 0.930 . S
H388 C401 0.929 . S
H389 C399 0.929 . S
H390 C394 0.929 . S
H391 C400 0.929 . S
C392 H386 0.930 . S
C392 C393 1.367 . S
C392 C400 1.378 . S
C393 C392 1.367 . S
C393 C401 1.433 . S
C394 H390 0.929 . S
C394 C396 1.378 . S
C394 C398 1.350 . S
C395 C398 1.463 . S
C395 C400 1.350 . S
C395 N403 1.427 . S
C396 H387 0.930 . S
C396 C394 1.378 . S
C396 C397 1.367 . S
C397 C396 1.367 . S
C397 C399 1.433 . S
C398 C394 1.350 . S
C398 C395 1.463 . S
C398 N402 1.427 . S
C399 H389 0.929 . S
C399 C397 1.433 . S
C399 N402 1.384 . S
C400 H391 0.929 . S
C400 C392 1.378 . S
C400 C395 1.350 . S
C401 H388 0.929 . S
C401 C393 1.433 . S
C401 N403 1.384 . S
N402 C398 1.427 . S
N402 C399 1.384 . S
N403 C395 1.427 . S
N403 C401 1.384 . S
H404 C410 0.930 . S
H405 C414 0.930 . S
H406 C419 0.929 . S
H407 C417 0.929 . S
H408 C412 0.929 . S
H409 C418 0.929 . S
C410 H404 0.930 . S
C410 C411 1.367 . S
C410 C418 1.378 . S
C411 C410 1.367 . S
C411 C419 1.433 . S
C412 H408 0.929 . S
C412 C414 1.378 . S
C412 C416 1.350 . S
C413 C416 1.463 . S
C413 C418 1.350 . S
C413 N421 1.427 . S
C414 H405 0.930 . S
C414 C412 1.378 . S
C414 C415 1.367 . S
C415 C414 1.367 . S
C415 C417 1.433 . S
C416 C412 1.350 . S
C416 C413 1.463 . S
C416 N420 1.427 . S
C417 H407 0.929 . S
C417 C415 1.433 . S
C417 N420 1.384 . S
C418 H409 0.929 . S
C418 C410 1.378 . S
C418 C413 1.350 . S
C419 H406 0.929 . S
C419 C411 1.433 . S
C419 N421 1.384 . S
N420 C416 1.427 . S
N420 C417 1.384 . S
N421 C413 1.427 . S
N421 C419 1.384 . S
H422 C428 0.930 . S
H423 C432 0.930 . S
H424 C437 0.929 . S
H425 C435 0.929 . S
H426 C430 0.929 . S
H427 C436 0.929 . S
C428 H422 0.930 . S
C428 C429 1.367 . S
C428 C436 1.378 . S
C429 C428 1.367 . S
C429 C437 1.433 . S
C430 H426 0.929 . S
C430 C432 1.378 . S
C430 C434 1.350 . S
C431 C434 1.463 . S
C431 C436 1.350 . S
C431 N439 1.427 . S
C432 H423 0.930 . S
C432 C430 1.378 . S
C432 C433 1.367 . S
C433 C432 1.367 . S
C433 C435 1.433 . S
C434 C430 1.350 . S
C434 C431 1.463 . S
C434 N438 1.427 . S
C435 H425 0.929 . S
C435 C433 1.433 . S
C435 N438 1.384 . S
C436 H427 0.929 . S
C436 C428 1.378 . S
C436 C431 1.350 . S
C437 H424 0.929 . S
C437 C429 1.433 . S
C437 N439 1.384 . S
N438 C434 1.427 . S
N438 C435 1.384 . S
N439 C431 1.427 . S
N439 C437 1.384 . S
H440 C446 0.930 . S
H441 C450 0.930 . S
H442 C455 0.929 . S
H443 C453 0.929 . S
H444 C448 0.929 . S
H445 C454 0.929 . S
C446 H440 0.930 . S
C446 C447 1.367 . S
C446 C454 1.378 . S
C447 C446 1.367 . S
C447 C455 1.433 . S
C448 H444 0.929 . S
C448 C450 1.378 . S
C448 C452 1.350 . S
C449 C452 1.463 . S
C449 C454 1.350 . S
C449 N457 1.427 . S
C450 H441 0.930 . S
C450 C448 1.378 . S
C450 C451 1.367 . S
C451 C450 1.367 . S
C451 C453 1.433 . S
C452 C448 1.350 . S
C452 C449 1.463 . S
C452 N456 1.427 . S
C453 H443 0.929 . S
C453 C451 1.433 . S
C453 N456 1.384 . S
C454 H445 0.929 . S
C454 C446 1.378 . S
C454 C449 1.350 . S
C455 H442 0.929 . S
C455 C447 1.433 . S
C455 N457 1.384 . S
N456 C452 1.427 . S
N456 C453 1.384 . S
N457 C449 1.427 . S
N457 C455 1.384 . S
H458 C464 0.930 . S
H459 C468 0.930 . S
H460 C473 0.929 . S
H461 C471 0.929 . S
H462 C466 0.929 . S
H463 C472 0.929 . S
C464 H458 0.930 . S
C464 C465 1.367 . S
C464 C472 1.378 . S
C465 C464 1.367 . S
C465 C473 1.433 . S
C466 H462 0.929 . S
C466 C468 1.378 . S
C466 C470 1.350 . S
C467 C470 1.463 . S
C467 C472 1.350 . S
C467 N475 1.427 . S
C468 H459 0.930 . S
C468 C466 1.378 . S
C468 C469 1.367 . S
C469 C468 1.367 . S
C469 C471 1.433 . S
C470 C466 1.350 . S
C470 C467 1.463 . S
C470 N474 1.427 . S
C471 H461 0.929 . S
C471 C469 1.433 . S
C471 N474 1.384 . S
C472 H463 0.929 . S
C472 C464 1.378 . S
C472 C467 1.350 . S
C473 H460 0.929 . S
C473 C465 1.433 . S
C473 N475 1.384 . S
N474 C470 1.427 . S
N474 C471 1.384 . S
N475 C467 1.427 . S
N475 C473 1.384 . S
H476 C482 0.930 . S
H477 C486 0.930 . S
H478 C491 0.929 . S
H479 C489 0.929 . S
H480 C484 0.929 . S
H481 C490 0.929 . S
C482 H476 0.930 . S
C482 C483 1.367 . S
C482 C490 1.378 . S
C483 C482 1.367 . S
C483 C491 1.433 . S
C484 H480 0.929 . S
C484 C486 1.378 . S
C484 C488 1.350 . S
C485 C488 1.463 . S
C485 C490 1.350 . S
C485 N493 1.427 . S
C486 H477 0.930 . S
C486 C484 1.378 . S
C486 C487 1.367 . S
C487 C486 1.367 . S
C487 C489 1.433 . S
C488 C484 1.350 . S
C488 C485 1.463 . S
C488 N492 1.427 . S
C489 H479 0.929 . S
C489 C487 1.433 . S
C489 N492 1.384 . S
C490 H481 0.929 . S
C490 C482 1.378 . S
C490 C485 1.350 . S
C491 H478 0.929 . S
C491 C483 1.433 . S
C491 N493 1.384 . S
N492 C488 1.427 . S
N492 C489 1.384 . S
N493 C485 1.427 . S
N493 C491 1.384 . S
H494 C500 0.930 . S
H495 C504 0.930 . S
H496 C509 0.929 . S
H497 C507 0.929 . S
H498 C502 0.929 . S
H499 C508 0.929 . S
C500 H494 0.930 . S
C500 C501 1.367 . S
C500 C508 1.378 . S
C501 C500 1.367 . S
C501 C509 1.433 . S
C502 H498 0.929 . S
C502 C504 1.378 . S
C502 C506 1.350 . S
C503 C506 1.463 . S
C503 C508 1.350 . S
C503 N511 1.427 . S
C504 H495 0.930 . S
C504 C502 1.378 . S
C504 C505 1.367 . S
C505 C504 1.367 . S
C505 C507 1.433 . S
C506 C502 1.350 . S
C506 C503 1.463 . S
C506 N510 1.427 . S
C507 H497 0.929 . S
C507 C505 1.433 . S
C507 N510 1.384 . S
C508 H499 0.929 . S
C508 C500 1.378 . S
C508 C503 1.350 . S
C509 H496 0.929 . S
C509 C501 1.433 . S
C509 N511 1.384 . S
N510 C506 1.427 . S
N510 C507 1.384 . S
N511 C503 1.427 . S
N511 C509 1.384 . S
H512 C518 0.935 . S
H513 C522 0.930 . S
H514 C527 0.929 . S
H515 C525 0.929 . S
H516 C520 0.929 . S
H517 C526 0.929 . S
C518 H512 0.935 . S
C518 C519 1.367 . S
C518 C526 1.378 1_556 S
C519 C518 1.367 . S
C519 C527 1.433 . S
C520 H516 0.929 . S
C520 C522 1.378 1_556 S
C520 C524 1.350 1_556 S
C521 C524 1.463 1_556 S
C521 C526 1.350 1_556 S
C521 N529 1.427 . S
C522 H513 0.930 . S
C522 C520 1.378 1_554 S
C522 C523 1.367 . S
C523 C522 1.367 . S
C523 C525 1.433 . S
C524 C520 1.350 1_554 S
C524 C521 1.463 1_554 S
C524 N528 1.427 . S
C525 H515 0.929 . S
C525 C523 1.433 . S
C525 N528 1.384 . S
C526 H517 0.929 . S
C526 C518 1.378 1_554 S
C526 C521 1.350 1_554 S
C527 H514 0.929 . S
C527 C519 1.433 . S
C527 N529 1.384 . S
N528 C524 1.427 . S
N528 C525 1.384 . S
N529 C521 1.427 . S
N529 C527 1.384 . S
H530 C536 0.930 . S
H531 C540 0.930 . S
H532 C545 0.929 . S
H533 C543 0.929 . S
H534 C538 0.929 . S
H535 C544 0.929 . S
C536 H530 0.930 . S
C536 C537 1.367 . S
C536 C544 1.378 . S
C537 C536 1.367 . S
C537 C545 1.433 . S
C538 H534 0.929 . S
C538 C540 1.378 . S
C538 C542 1.350 . S
C539 C542 1.463 . S
C539 C544 1.350 . S
C539 N547 1.427 . S
C540 H531 0.930 . S
C540 C538 1.378 . S
C540 C541 1.367 . S
C541 C540 1.367 . S
C541 C543 1.433 . S
C542 C538 1.350 . S
C542 C539 1.463 . S
C542 N546 1.427 . S
C543 H533 0.929 . S
C543 C541 1.433 . S
C543 N546 1.384 . S
C544 H535 0.929 . S
C544 C536 1.378 . S
C544 C539 1.350 . S
C545 H532 0.929 . S
C545 C537 1.433 . S
C545 N547 1.384 . S
N546 C542 1.427 . S
N546 C543 1.384 . S
N547 C539 1.427 . S
N547 C545 1.384 . S
H548 C554 0.930 . S
H549 C558 0.930 . S
H550 C563 0.929 . S
H551 C561 0.929 . S
H552 C556 0.929 . S
H553 C562 0.929 . S
C554 H548 0.930 . S
C554 C555 1.367 . S
C554 C562 1.378 . S
C555 C554 1.367 . S
C555 C563 1.433 . S
C556 H552 0.929 . S
C556 C558 1.378 . S
C556 C560 1.350 . S
C557 C560 1.463 1_554 S
C557 C562 1.350 . S
C557 N565 1.427 . S
C558 H549 0.930 . S
C558 C556 1.378 . S
C558 C559 1.367 . S
C559 C558 1.367 . S
C559 C561 1.433 . S
C560 C556 1.350 . S
C560 C557 1.463 1_556 S
C560 N564 1.427 . S
C561 H551 0.929 . S
C561 C559 1.433 . S
C561 N564 1.384 . S
C562 H553 0.929 . S
C562 C554 1.378 . S
C562 C557 1.350 . S
C563 H550 0.929 . S
C563 C555 1.433 . S
C563 N565 1.384 . S
N564 C560 1.427 . S
N564 C561 1.384 . S
N565 C557 1.427 . S
N565 C563 1.384 . S
H566 C572 0.930 . S
H567 C576 0.930 . S
H568 C581 0.929 . S
H569 C579 0.929 . S
H570 C574 0.929 . S
H571 C580 0.929 . S
C572 H566 0.930 . S
C572 C573 1.367 . S
C572 C580 1.378 . S
C573 C572 1.367 . S
C573 C581 1.433 . S
C574 H570 0.929 . S
C574 C576 1.378 . S
C574 C578 1.350 . S
C575 C578 1.463 . S
C575 C580 1.350 . S
C575 N583 1.427 . S
C576 H567 0.930 . S
C576 C574 1.378 . S
C576 C577 1.367 . S
C577 C576 1.367 . S
C577 C579 1.433 . S
C578 C574 1.350 . S
C578 C575 1.463 . S
C578 N582 1.427 . S
C579 H569 0.929 . S
C579 C577 1.433 . S
C579 N582 1.384 . S
C580 H571 0.929 . S
C580 C572 1.378 . S
C580 C575 1.350 . S
C581 H568 0.929 . S
C581 C573 1.433 . S
C581 N583 1.384 . S
N582 C578 1.427 . S
N582 C579 1.384 . S
N583 C575 1.427 . S
N583 C581 1.384 . S
H584 C590 0.930 . S
H585 C594 0.930 . S
H586 C599 0.929 . S
H587 C597 0.929 . S
H588 C592 0.929 1_554 S
H589 C598 0.932 . S
C590 H584 0.930 . S
C590 C591 1.367 . S
C590 C598 1.378 . S
C591 C590 1.367 . S
C591 C599 1.433 . S
C592 H588 0.929 1_556 S
C592 C594 1.378 . S
C592 C596 1.350 . S
C593 C596 1.463 1_554 S
C593 C598 1.350 . S
C593 N601 1.427 . S
C594 H585 0.930 . S
C594 C592 1.378 . S
C594 C595 1.367 . S
C595 C594 1.367 . S
C595 C597 1.433 . S
C596 C592 1.350 . S
C596 C593 1.463 1_556 S
C596 N600 1.427 . S
C597 H587 0.929 . S
C597 C595 1.433 . S
C597 N600 1.384 . S
C598 H589 0.932 . S
C598 C590 1.378 . S
C598 C593 1.350 . S
C599 H586 0.929 . S
C599 C591 1.433 . S
C599 N601 1.384 . S
N600 C596 1.427 . S
N600 C597 1.384 . S
N601 C593 1.427 . S
N601 C599 1.384 . S
H602 C608 0.930 . S
H603 C612 0.930 . S
H604 C617 0.929 . S
H605 C615 0.929 . S
H606 C610 0.929 . S
H607 C616 0.929 . S
C608 H602 0.930 . S
C608 C609 1.367 . S
C608 C616 1.378 . S
C609 C608 1.367 . S
C609 C617 1.433 . S
C610 H606 0.929 . S
C610 C612 1.378 . S
C610 C614 1.350 . S
C611 C614 1.463 . S
C611 C616 1.350 . S
C611 N619 1.427 . S
C612 H603 0.930 . S
C612 C610 1.378 . S
C612 C613 1.367 . S
C613 C612 1.367 . S
C613 C615 1.433 . S
C614 C610 1.350 . S
C614 C611 1.463 . S
C614 N618 1.427 . S
C615 H605 0.929 . S
C615 C613 1.433 . S
C615 N618 1.384 . S
C616 H607 0.929 . S
C616 C608 1.378 . S
C616 C611 1.350 . S
C617 H604 0.929 . S
C617 C609 1.433 . S
C617 N619 1.384 . S
N618 C614 1.427 . S
N618 C615 1.384 . S
N619 C611 1.427 . S
N619 C617 1.384 . S
H620 C626 0.930 . S
H621 C630 0.930 . S
H622 C635 0.929 . S
H623 C633 0.929 . S
H624 C628 0.910 1_554 S
H625 C634 0.929 1_556 S
C626 H620 0.930 . S
C626 C627 1.367 . S
C626 C634 1.378 . S
C627 C626 1.367 . S
C627 C635 1.433 . S
C628 H624 0.910 1_556 S
C628 C630 1.378 . S
C628 C632 1.350 . S
C629 C632 1.463 1_554 S
C629 C634 1.350 . S
C629 N637 1.427 . S
C630 H621 0.930 . S
C630 C628 1.378 . S
C630 C631 1.367 . S
C631 C630 1.367 . S
C631 C633 1.433 . S
C632 C628 1.350 . S
C632 C629 1.463 1_556 S
C632 N636 1.427 . S
C633 H623 0.929 . S
C633 C631 1.433 . S
C633 N636 1.384 . S
C634 H625 0.929 1_554 S
C634 C626 1.378 . S
C634 C629 1.350 . S
C635 H622 0.929 . S
C635 C627 1.433 . S
C635 N637 1.384 . S
N636 C632 1.427 . S
N636 C633 1.384 . S
N637 C629 1.427 . S
N637 C635 1.384 . S
H638 C644 0.930 . S
H639 C648 0.930 . S
H640 C653 0.929 . S
H641 C651 0.929 . S
H642 C646 0.929 . S
H643 C652 0.929 . S
C644 H638 0.930 . S
C644 C645 1.367 . S
C644 C652 1.378 . S
C645 C644 1.367 . S
C645 C653 1.433 . S
C646 H642 0.929 . S
C646 C648 1.378 . S
C646 C650 1.350 . S
C647 C650 1.463 . S
C647 C652 1.350 . S
C647 N655 1.427 . S
C648 H639 0.930 . S
C648 C646 1.378 . S
C648 C649 1.367 . S
C649 C648 1.367 . S
C649 C651 1.433 . S
C650 C646 1.350 . S
C650 C647 1.463 . S
C650 N654 1.427 . S
C651 H641 0.929 . S
C651 C649 1.433 . S
C651 N654 1.384 . S
C652 H643 0.929 . S
C652 C644 1.378 . S
C652 C647 1.350 . S
C653 H640 0.929 . S
C653 C645 1.433 . S
C653 N655 1.384 . S
N654 C650 1.427 . S
N654 C651 1.384 . S
N655 C647 1.427 . S
N655 C653 1.384 . S
H656 C662 0.930 1_554 S
H657 C666 0.930 1_556 S
H658 C671 0.929 . S
H659 C669 0.929 . S
H660 C664 0.929 . S
H661 C670 0.929 . S
C662 H656 0.930 1_556 S
C662 C663 1.367 . S
C662 C670 1.378 1_556 S
C663 C662 1.367 . S
C663 C671 1.433 . S
C664 H660 0.929 . S
C664 C666 1.378 1_556 S
C664 C668 1.350 1_556 S
C665 C668 1.463 1_556 S
C665 C670 1.350 1_556 S
C665 N673 1.427 . S
C666 H657 0.930 1_554 S
C666 C664 1.378 1_554 S
C666 C667 1.367 . S
C667 C666 1.367 . S
C667 C669 1.433 . S
C668 C664 1.350 1_554 S
C668 C665 1.463 1_554 S
C668 N672 1.427 . S
C669 H659 0.929 . S
C669 C667 1.433 . S
C669 N672 1.384 . S
C670 H661 0.929 . S
C670 C662 1.378 1_554 S
C670 C665 1.350 1_554 S
C671 H658 0.929 . S
C671 C663 1.433 . S
C671 N673 1.384 . S
N672 C668 1.427 . S
N672 C669 1.384 . S
N673 C665 1.427 . S
N673 C671 1.384 . S
H674 C680 0.930 . S
H675 C684 0.930 . S
H676 C689 0.929 . S
H677 C687 0.929 . S
H678 C682 0.929 . S
H679 C688 0.929 . S
C680 H674 0.930 . S
C680 C681 1.367 . S
C680 C688 1.378 . S
C681 C680 1.367 . S
C681 C689 1.433 . S
C682 H678 0.929 . S
C682 C684 1.378 . S
C682 C686 1.350 . S
C683 C686 1.463 . S
C683 C688 1.350 . S
C683 N691 1.427 . S
C684 H675 0.930 . S
C684 C682 1.378 . S
C684 C685 1.367 . S
C685 C684 1.367 . S
C685 C687 1.433 . S
C686 C682 1.350 . S
C686 C683 1.463 . S
C686 N690 1.427 . S
C687 H677 0.929 . S
C687 C685 1.433 . S
C687 N690 1.384 . S
C688 H679 0.929 . S
C688 C680 1.378 . S
C688 C683 1.350 . S
C689 H676 0.929 . S
C689 C681 1.433 . S
C689 N691 1.384 . S
N690 C686 1.427 . S
N690 C687 1.384 . S
N691 C683 1.427 . S
N691 C689 1.384 . S
H692 C698 0.938 . S
H693 C702 0.938 . S
H694 C707 0.929 . S
H695 C705 0.929 . S
H696 C700 0.929 . S
H697 C706 0.929 . S
C698 H692 0.938 . S
C698 C699 1.367 . S
C698 C706 1.378 1_554 S
C699 C698 1.367 . S
C699 C707 1.433 . S
C700 H696 0.929 . S
C700 C702 1.378 1_554 S
C700 C704 1.350 1_554 S
C701 C704 1.463 1_554 S
C701 C706 1.350 1_554 S
C701 N709 1.427 . S
C702 H693 0.938 . S
C702 C700 1.378 1_556 S
C702 C703 1.367 . S
C703 C702 1.367 . S
C703 C705 1.433 . S
C704 C700 1.350 1_556 S
C704 C701 1.463 1_556 S
C704 N708 1.427 . S
C705 H695 0.929 . S
C705 C703 1.433 . S
C705 N708 1.384 . S
C706 H697 0.929 . S
C706 C698 1.378 1_556 S
C706 C701 1.350 1_556 S
C707 H694 0.929 . S
C707 C699 1.433 . S
C707 N709 1.384 . S
N708 C704 1.427 . S
N708 C705 1.384 . S
N709 C701 1.427 . S
N709 C707 1.384 . S
H710 C716 0.930 . S
H711 C720 0.930 . S
H712 C725 0.929 . S
H713 C723 0.929 . S
H714 C718 0.929 . S
H715 C724 0.929 . S
C716 H710 0.930 . S
C716 C717 1.367 . S
C716 C724 1.378 . S
C717 C716 1.367 . S
C717 C725 1.433 . S
C718 H714 0.929 . S
C718 C720 1.378 . S
C718 C722 1.350 . S
C719 C722 1.463 . S
C719 C724 1.350 . S
C719 N727 1.427 . S
C720 H711 0.930 . S
C720 C718 1.378 . S
C720 C721 1.367 . S
C721 C720 1.367 . S
C721 C723 1.433 . S
C722 C718 1.350 . S
C722 C719 1.463 . S
C722 N726 1.427 . S
C723 H713 0.929 . S
C723 C721 1.433 . S
C723 N726 1.384 . S
C724 H715 0.929 . S
C724 C716 1.378 . S
C724 C719 1.350 . S
C725 H712 0.929 . S
C725 C717 1.433 . S
C725 N727 1.384 . S
N726 C722 1.427 . S
N726 C723 1.384 . S
N727 C719 1.427 . S
N727 C725 1.384 . S
H728 C734 0.930 . S
H729 C738 0.930 . S
H730 C743 0.929 . S
H731 C741 0.929 . S
H732 C736 0.929 . S
H733 C742 0.929 . S
C734 H728 0.930 . S
C734 C735 1.367 1_554 S
C734 C742 1.378 . S
C735 C734 1.367 1_556 S
C735 C743 1.433 . S
C736 H732 0.929 . S
C736 C738 1.378 . S
C736 C740 1.350 1_556 S
C737 C740 1.463 1_546 S
C737 C742 1.350 1_556 S
C737 N745 1.427 . S
C738 H729 0.930 . S
C738 C736 1.378 . S
C738 C739 1.367 1_556 S
C739 C738 1.367 1_554 S
C739 C741 1.433 . S
C740 C736 1.350 1_554 S
C740 C737 1.463 1_564 S
C740 N744 1.427 . S
C741 H731 0.929 . S
C741 C739 1.433 . S
C741 N744 1.384 . S
C742 H733 0.929 . S
C742 C734 1.378 . S
C742 C737 1.350 1_554 S
C743 H730 0.929 . S
C743 C735 1.433 . S
C743 N745 1.384 . S
N744 C740 1.427 . S
N744 C741 1.384 . S
N745 C737 1.427 . S
N745 C743 1.384 . S
H746 C752 0.930 . S
H747 C756 0.930 . S
H748 C761 0.929 . S
H749 C759 0.929 . S
H750 C754 0.929 . S
H751 C760 0.929 . S
C752 H746 0.930 . S
C752 C753 1.367 . S
C752 C760 1.378 . S
C753 C752 1.367 . S
C753 C761 1.433 . S
C754 H750 0.929 . S
C754 C756 1.378 . S
C754 C758 1.350 . S
C755 C758 1.463 1_565 S
C755 C760 1.350 . S
C755 N763 1.427 . S
C756 H747 0.930 . S
C756 C754 1.378 . S
C756 C757 1.367 . S
C757 C756 1.367 . S
C757 C759 1.433 . S
C758 C754 1.350 . S
C758 C755 1.463 1_545 S
C758 N762 1.427 . S
C759 H749 0.929 . S
C759 C757 1.433 . S
C759 N762 1.384 . S
C760 H751 0.929 . S
C760 C752 1.378 . S
C760 C755 1.350 . S
C761 H748 0.929 . S
C761 C753 1.433 . S
C761 N763 1.384 . S
N762 C758 1.427 . S
N762 C759 1.384 . S
N763 C755 1.427 . S
N763 C761 1.384 . S
H764 C770 0.930 1_556 S
H765 C774 0.930 1_554 S
H766 C779 0.929 . S
H767 C777 0.929 . S
H768 C772 0.929 . S
H769 C778 0.929 . S
C770 H764 0.930 1_554 S
C770 C771 1.367 . S
C770 C778 1.378 1_554 S
C771 C770 1.367 . S
C771 C779 1.433 . S
C772 H768 0.929 . S
C772 C774 1.378 1_554 S
C772 C776 1.350 1_554 S
C773 C776 1.463 1_564 S
C773 C778 1.350 1_554 S
C773 N781 1.427 . S
C774 H765 0.930 1_556 S
C774 C772 1.378 1_556 S
C774 C775 1.367 . S
C775 C774 1.367 . S
C775 C777 1.433 . S
C776 C772 1.350 1_556 S
C776 C773 1.463 1_546 S
C776 N780 1.427 . S
C777 H767 0.929 . S
C777 C775 1.433 . S
C777 N780 1.384 . S
C778 H769 0.929 . S
C778 C770 1.378 1_556 S
C778 C773 1.350 1_556 S
C779 H766 0.929 . S
C779 C771 1.433 . S
C779 N781 1.384 . S
N780 C776 1.427 . S
N780 C777 1.384 . S
N781 C773 1.427 . S
N781 C779 1.384 . S
H782 C788 0.930 . S
H783 C792 0.930 . S
H784 C797 0.929 . S
H785 C795 0.929 . S
H786 C790 0.929 . S
H787 C796 0.929 . S
C788 H782 0.930 . S
C788 C789 1.367 . S
C788 C796 1.378 . S
C789 C788 1.367 . S
C789 C797 1.433 . S
C790 H786 0.929 . S
C790 C792 1.378 . S
C790 C794 1.350 . S
C791 C794 1.463 1_545 S
C791 C796 1.350 . S
C791 N799 1.427 . S
C792 H783 0.930 . S
C792 C790 1.378 . S
C792 C793 1.367 . S
C793 C792 1.367 . S
C793 C795 1.433 . S
C794 C790 1.350 . S
C794 C791 1.463 1_565 S
C794 N798 1.427 . S
C795 H785 0.929 . S
C795 C793 1.433 . S
C795 N798 1.384 . S
C796 H787 0.929 . S
C796 C788 1.378 . S
C796 C791 1.350 . S
C797 H784 0.929 . S
C797 C789 1.433 . S
C797 N799 1.384 . S
N798 C794 1.427 . S
N798 C795 1.384 . S
N799 C791 1.427 . S
N799 C797 1.384 . S
C231 C9 1.467 . S
C235 C93 1.485 . S
C249 C23 1.462 . S
C253 C107 1.485 . S
C267 C65 1.477 . S
C271 C37 1.472 . S
C285 C79 1.483 . S
C289 C51 1.471 . S
C303 C205 1.486 . S
C307 C121 1.462 . S
C321 C219 1.474 . S
C325 C135 1.468 . S
C339 C149 1.472 . S
C343 C177 1.477 . S
C357 C163 1.465 . S
C361 C191 1.474 . S
C375 C8 1.594 . S
C379 C77 1.545 . S
C393 C22 1.596 . S
C397 C63 1.556 . S
C411 C36 1.594 . S
C415 C105 1.543 . S
C429 C91 1.549 . S
C433 C50 1.594 . S
C447 C189 1.548 . S
C451 C120 1.595 . S
C465 C175 1.554 . S
C469 C134 1.595 . S
C483 C148 1.595 . S
C487 C217 1.555 . S
C501 C203 1.555 . S
C505 C162 1.595 . S
C519 C174 1.531 . S
C523 C6 1.555 . S
C537 C20 1.552 . S
C541 C188 1.531 . S
C555 C202 1.531 . S
C559 C34 1.552 . S
C573 C216 1.540 . S
C577 C48 1.559 . S
C591 C118 1.559 . S
C595 C62 1.536 . S
C609 C132 1.558 . S
C613 C76 1.539 . S
C627 C90 1.529 . S
C631 C146 1.551 . S
C645 C104 1.540 . S
C649 C160 1.559 . S
C663 C35 1.144 . S
C667 C7 1.146 . S
C681 C21 1.145 . S
C685 C49 1.143 . S
C699 C92 1.965 . S
C703 C64 1.966 . S
C717 C78 1.965 . S
C721 C106 1.966 . S
C735 C147 1.149 . S
C739 C119 1.149 . S
C753 C161 1.128 . S
C757 C133 1.128 . S
C771 C204 1.965 . S
C775 C176 1.965 . S
C789 C218 1.965 . S
C793 C190 1.965 . S
