# Generated by pormake.
# Topology ato, (4)-cn, num edge types: 1
# Building blocks:
#     Node 0, Type 0, BuildingBlock: CEKHIL_clean_sbu_0, # of connection points: 4
#     Node 1, Type 0, BuildingBlock: CEKHIL_clean_sbu_0, # of connection points: 4
#     Node 2, Type 0, BuildingBlock: CEKHIL_clean_sbu_0, # of connection points: 4
#     Node 3, Type 0, BuildingBlock: CEKHIL_clean_sbu_0, # of connection points: 4
#     Node 4, Type 0, BuildingBlock: CEKHIL_clean_sbu_0, # of connection points: 4
#     Node 5, Type 0, BuildingBlock: CEKHIL_clean_sbu_0, # of connection points: 4
#     Node 6, Type 0, BuildingBlock: CEKHIL_clean_sbu_0, # of connection points: 4
#     Node 7, Type 0, BuildingBlock: CEKHIL_clean_sbu_0, # of connection points: 4
#     Node 8, Type 0, BuildingBlock: CEKHIL_clean_sbu_0, # of connection points: 4
#     Node 9, Type 0, BuildingBlock: CEKHIL_clean_sbu_0, # of connection points: 4
#     Node 10, Type 0, BuildingBlock: CEKHIL_clean_sbu_0, # of connection points: 4
#     Node 11, Type 0, BuildingBlock: CEKHIL_clean_sbu_0, # of connection points: 4
#     Node 12, Type 0, BuildingBlock: CEKHIL_clean_sbu_0, # of connection points: 4
#     Node 13, Type 0, BuildingBlock: CEKHIL_clean_sbu_0, # of connection points: 4
#     Node 14, Type 0, BuildingBlock: CEKHIL_clean_sbu_0, # of connection points: 4
#     Node 15, Type 0, BuildingBlock: CEKHIL_clean_sbu_0, # of connection points: 4
#     Node 16, Type 0, BuildingBlock: CEKHIL_clean_sbu_0, # of connection points: 4
#     Node 17, Type 0, BuildingBlock: CEKHIL_clean_sbu_0, # of connection points: 4
#     Node 18, Type 0, BuildingBlock: CEKHIL_clean_sbu_0, # of connection points: 4
#     Node 19, Type 0, BuildingBlock: CEKHIL_clean_sbu_0, # of connection points: 4
#     Node 20, Type 0, BuildingBlock: CEKHIL_clean_sbu_0, # of connection points: 4
#     Node 21, Type 0, BuildingBlock: CEKHIL_clean_sbu_0, # of connection points: 4
#     Node 22, Type 0, BuildingBlock: CEKHIL_clean_sbu_0, # of connection points: 4
#     Node 23, Type 0, BuildingBlock: CEKHIL_clean_sbu_0, # of connection points: 4
#     Node 24, Type 0, BuildingBlock: CEKHIL_clean_sbu_0, # of connection points: 4
#     Node 25, Type 0, BuildingBlock: CEKHIL_clean_sbu_0, # of connection points: 4
#     Node 26, Type 0, BuildingBlock: CEKHIL_clean_sbu_0, # of connection points: 4
#     Node 27, Type 0, BuildingBlock: CEKHIL_clean_sbu_0, # of connection points: 4
#     Node 28, Type 0, BuildingBlock: CEKHIL_clean_sbu_0, # of connection points: 4
#     Node 29, Type 0, BuildingBlock: CEKHIL_clean_sbu_0, # of connection points: 4
#     Node 30, Type 0, BuildingBlock: CEKHIL_clean_sbu_0, # of connection points: 4
#     Node 31, Type 0, BuildingBlock: CEKHIL_clean_sbu_0, # of connection points: 4
#     Node 32, Type 0, BuildingBlock: CEKHIL_clean_sbu_0, # of connection points: 4
#     Node 33, Type 0, BuildingBlock: CEKHIL_clean_sbu_0, # of connection points: 4
#     Node 34, Type 0, BuildingBlock: CEKHIL_clean_sbu_0, # of connection points: 4
#     Node 35, Type 0, BuildingBlock: CEKHIL_clean_sbu_0, # of connection points: 4
#     Edge 36, Type (0, 0), BuildingBlock: AJUNOK_clean_linker_0, # of connection points: 2
#     Edge 37, Type (0, 0), BuildingBlock: AJUNOK_clean_linker_0, # of connection points: 2
#     Edge 38, Type (0, 0), BuildingBlock: AJUNOK_clean_linker_0, # of connection points: 2
#     Edge 39, Type (0, 0), BuildingBlock: AJUNOK_clean_linker_0, # of connection points: 2
#     Edge 40, Type (0, 0), BuildingBlock: AJUNOK_clean_linker_0, # of connection points: 2
#     Edge 41, Type (0, 0), BuildingBlock: AJUNOK_clean_linker_0, # of connection points: 2
#     Edge 42, Type (0, 0), BuildingBlock: AJUNOK_clean_linker_0, # of connection points: 2
#     Edge 43, Type (0, 0), BuildingBlock: AJUNOK_clean_linker_0, # of connection points: 2
#     Edge 44, Type (0, 0), BuildingBlock: AJUNOK_clean_linker_0, # of connection points: 2
#     Edge 45, Type (0, 0), BuildingBlock: AJUNOK_clean_linker_0, # of connection points: 2
#     Edge 46, Type (0, 0), BuildingBlock: AJUNOK_clean_linker_0, # of connection points: 2
#     Edge 47, Type (0, 0), BuildingBlock: AJUNOK_clean_linker_0, # of connection points: 2
#     Edge 48, Type (0, 0), BuildingBlock: AJUNOK_clean_linker_0, # of connection points: 2
#     Edge 49, Type (0, 0), BuildingBlock: AJUNOK_clean_linker_0, # of connection points: 2
#     Edge 50, Type (0, 0), BuildingBlock: AJUNOK_clean_linker_0, # of connection points: 2
#     Edge 51, Type (0, 0), BuildingBlock: AJUNOK_clean_linker_0, # of connection points: 2
#     Edge 52, Type (0, 0), BuildingBlock: AJUNOK_clean_linker_0, # of connection points: 2
#     Edge 53, Type (0, 0), BuildingBlock: AJUNOK_clean_linker_0, # of connection points: 2
#     Edge 54, Type (0, 0), BuildingBlock: AJUNOK_clean_linker_0, # of connection points: 2
#     Edge 55, Type (0, 0), BuildingBlock: AJUNOK_clean_linker_0, # of connection points: 2
#     Edge 56, Type (0, 0), BuildingBlock: AJUNOK_clean_linker_0, # of connection points: 2
#     Edge 57, Type (0, 0), BuildingBlock: AJUNOK_clean_linker_0, # of connection points: 2
#     Edge 58, Type (0, 0), BuildingBlock: AJUNOK_clean_linker_0, # of connection points: 2
#     Edge 59, Type (0, 0), BuildingBlock: AJUNOK_clean_linker_0, # of connection points: 2
#     Edge 60, Type (0, 0), BuildingBlock: AJUNOK_clean_linker_0, # of connection points: 2
#     Edge 61, Type (0, 0), BuildingBlock: AJUNOK_clean_linker_0, # of connection points: 2
#     Edge 62, Type (0, 0), BuildingBlock: AJUNOK_clean_linker_0, # of connection points: 2
#     Edge 63, Type (0, 0), BuildingBlock: AJUNOK_clean_linker_0, # of connection points: 2
#     Edge 64, Type (0, 0), BuildingBlock: AJUNOK_clean_linker_0, # of connection points: 2
#     Edge 65, Type (0, 0), BuildingBlock: AJUNOK_clean_linker_0, # of connection points: 2
#     Edge 66, Type (0, 0), BuildingBlock: AJUNOK_clean_linker_0, # of connection points: 2
#     Edge 67, Type (0, 0), BuildingBlock: AJUNOK_clean_linker_0, # of connection points: 2
#     Edge 68, Type (0, 0), BuildingBlock: AJUNOK_clean_linker_0, # of connection points: 2
#     Edge 69, Type (0, 0), BuildingBlock: AJUNOK_clean_linker_0, # of connection points: 2
#     Edge 70, Type (0, 0), BuildingBlock: AJUNOK_clean_linker_0, # of connection points: 2
#     Edge 71, Type (0, 0), BuildingBlock: AJUNOK_clean_linker_0, # of connection points: 2
#     Edge 72, Type (0, 0), BuildingBlock: AJUNOK_clean_linker_0, # of connection points: 2
#     Edge 73, Type (0, 0), BuildingBlock: AJUNOK_clean_linker_0, # of connection points: 2
#     Edge 74, Type (0, 0), BuildingBlock: AJUNOK_clean_linker_0, # of connection points: 2
#     Edge 75, Type (0, 0), BuildingBlock: AJUNOK_clean_linker_0, # of connection points: 2
#     Edge 76, Type (0, 0), BuildingBlock: AJUNOK_clean_linker_0, # of connection points: 2
#     Edge 77, Type (0, 0), BuildingBlock: AJUNOK_clean_linker_0, # of connection points: 2
#     Edge 78, Type (0, 0), BuildingBlock: AJUNOK_clean_linker_0, # of connection points: 2
#     Edge 79, Type (0, 0), BuildingBlock: AJUNOK_clean_linker_0, # of connection points: 2
#     Edge 80, Type (0, 0), BuildingBlock: AJUNOK_clean_linker_0, # of connection points: 2
#     Edge 81, Type (0, 0), BuildingBlock: AJUNOK_clean_linker_0, # of connection points: 2
#     Edge 82, Type (0, 0), BuildingBlock: AJUNOK_clean_linker_0, # of connection points: 2
#     Edge 83, Type (0, 0), BuildingBlock: AJUNOK_clean_linker_0, # of connection points: 2
#     Edge 84, Type (0, 0), BuildingBlock: AJUNOK_clean_linker_0, # of connection points: 2
#     Edge 85, Type (0, 0), BuildingBlock: AJUNOK_clean_linker_0, # of connection points: 2
#     Edge 86, Type (0, 0), BuildingBlock: AJUNOK_clean_linker_0, # of connection points: 2
#     Edge 87, Type (0, 0), BuildingBlock: AJUNOK_clean_linker_0, # of connection points: 2
#     Edge 88, Type (0, 0), BuildingBlock: AJUNOK_clean_linker_0, # of connection points: 2
#     Edge 89, Type (0, 0), BuildingBlock: AJUNOK_clean_linker_0, # of connection points: 2
#     Edge 90, Type (0, 0), BuildingBlock: AJUNOK_clean_linker_0, # of connection points: 2
#     Edge 91, Type (0, 0), BuildingBlock: AJUNOK_clean_linker_0, # of connection points: 2
#     Edge 92, Type (0, 0), BuildingBlock: AJUNOK_clean_linker_0, # of connection points: 2
#     Edge 93, Type (0, 0), BuildingBlock: AJUNOK_clean_linker_0, # of connection points: 2
#     Edge 94, Type (0, 0), BuildingBlock: AJUNOK_clean_linker_0, # of connection points: 2
#     Edge 95, Type (0, 0), BuildingBlock: AJUNOK_clean_linker_0, # of connection points: 2
#     Edge 96, Type (0, 0), BuildingBlock: AJUNOK_clean_linker_0, # of connection points: 2
#     Edge 97, Type (0, 0), BuildingBlock: AJUNOK_clean_linker_0, # of connection points: 2
#     Edge 98, Type (0, 0), BuildingBlock: AJUNOK_clean_linker_0, # of connection points: 2
#     Edge 99, Type (0, 0), BuildingBlock: AJUNOK_clean_linker_0, # of connection points: 2
#     Edge 100, Type (0, 0), BuildingBlock: AJUNOK_clean_linker_0, # of connection points: 2
#     Edge 101, Type (0, 0), BuildingBlock: AJUNOK_clean_linker_0, # of connection points: 2
#     Edge 102, Type (0, 0), BuildingBlock: AJUNOK_clean_linker_0, # of connection points: 2
#     Edge 103, Type (0, 0), BuildingBlock: AJUNOK_clean_linker_0, # of connection points: 2
#     Edge 104, Type (0, 0), BuildingBlock: AJUNOK_clean_linker_0, # of connection points: 2
#     Edge 105, Type (0, 0), BuildingBlock: AJUNOK_clean_linker_0, # of connection points: 2
#     Edge 106, Type (0, 0), BuildingBlock: AJUNOK_clean_linker_0, # of connection points: 2
#     Edge 107, Type (0, 0), BuildingBlock: AJUNOK_clean_linker_0, # of connection points: 2
# Relax obj value: 0.086
# Max RMSD: 0.097
# Mean RMSD: 0.097
data_MOF--net-ato--node1-CEKHIL_clean_sbu_0--edge1-AJUNOK_clean_linker_0
_symmetry_space_group_name_H-M    P1
_symmetry_Int_Tables_number       1
_symmetry_cell_setting            triclinic
loop_
_symmetry_equiv_pos_as_xyz
'x, y, z'
_cell_length_a     74.160479
_cell_length_b     74.173129
_cell_length_c     16.880004
_cell_angle_alpha  90.044287
_cell_angle_beta   89.968839
_cell_angle_gamma 119.95155
loop_
_atom_site_label
_atom_site_type_symbol
_atom_site_fract_x
_atom_site_fract_y
_atom_site_fract_z
_atom_type_partial_charge
Co0 Co 0.26251 0.06383 0.289 0.0
O1 O 0.23791 0.04399 0.34711 0.0
O2 O 0.26882 0.047 0.35987 0.0
C3 C 0.25811 0.09176 0.3086 0.0
O4 O 0.29178 0.08281 0.24518 0.0
Co5 Co 0.26067 0.08769 0.13976 0.0
O6 O 0.29137 0.10337 0.14792 0.0
C7 C 0.2505 0.04383 0.12407 0.0
C8 C 0.24953 0.03802 0.38298 0.0
C9 C 0.30106 0.09758 0.1942 0.0
O10 O 0.25557 0.0434 0.19725 0.0
O11 O 0.25018 0.05943 0.09334 0.0
O12 O 0.26654 0.08605 0.36343 0.0
O13 O 0.25144 0.0797 0.24773 0.0
Co14 Co 0.95841 0.20248 0.28961 0.0
O15 O 0.97816 0.19736 0.34692 0.0
O16 O 0.97532 0.22533 0.36128 0.0
C17 C 0.93031 0.17021 0.30776 0.0
O18 O 0.9396 0.21321 0.24784 0.0
Co19 Co 0.93423 0.17773 0.13949 0.0
O20 O 0.91869 0.19288 0.1501 0.0
C21 C 0.97839 0.21063 0.12468 0.0
C22 C 0.9842 0.21487 0.3836 0.0
C23 C 0.92465 0.20807 0.198 0.0
O24 O 0.97889 0.21607 0.19804 0.0
O25 O 0.96261 0.19498 0.09351 0.0
O26 O 0.93612 0.18414 0.36347 0.0
O27 O 0.94231 0.17576 0.2467 0.0
Co28 Co 0.82017 0.75973 0.2888 0.0
O29 O 0.82539 0.78442 0.34757 0.0
O30 O 0.79681 0.75395 0.35748 0.0
C31 C 0.85173 0.76257 0.31139 0.0
O32 O 0.80923 0.7304 0.24438 0.0
Co33 Co 0.84624 0.76093 0.14175 0.0
O34 O 0.83036 0.73021 0.14894 0.0
C35 C 0.8134 0.77217 0.12258 0.0
C36 C 0.8075 0.77309 0.38192 0.0
C37 C 0.81459 0.72084 0.19409 0.0
O38 O 0.80773 0.76758 0.19588 0.0
O39 O 0.82913 0.77188 0.09288 0.0
O40 O 0.83722 0.75463 0.36495 0.0
O41 O 0.84731 0.76996 0.25003 0.0
Co42 Co 0.06892 0.25729 0.74476 0.0
O43 O 0.0492 0.2326 0.68662 0.0
O44 O 0.05184 0.26336 0.67435 0.0
C45 C 0.09705 0.25322 0.72416 0.0
O46 O 0.08764 0.28664 0.78846 0.0
Co47 Co 0.09333 0.25596 0.89308 0.0
O48 O 0.10833 0.28667 0.88614 0.0
C49 C 0.04951 0.24581 0.91078 0.0
C50 C 0.04305 0.24411 0.65098 0.0
C51 C 0.10227 0.29613 0.83984 0.0
O52 O 0.04856 0.25018 0.83706 0.0
O53 O 0.06531 0.2458 0.9411 0.0
O54 O 0.09114 0.26157 0.66978 0.0
O55 O 0.08514 0.24651 0.78541 0.0
Co56 Co 0.76439 0.81443 0.74395 0.0
O57 O 0.78911 0.81996 0.68472 0.0
O58 O 0.75876 0.79124 0.67456 0.0
C59 C 0.76697 0.84592 0.72246 0.0
O60 O 0.73506 0.8032 0.78895 0.0
Co61 Co 0.76561 0.84004 0.89227 0.0
O62 O 0.73487 0.82392 0.88613 0.0
C63 C 0.77777 0.80784 0.90868 0.0
C64 C 0.77789 0.80209 0.65012 0.0
C65 C 0.7255 0.80828 0.84032 0.0
O66 O 0.77252 0.80201 0.8359 0.0
O67 O 0.77744 0.82347 0.93921 0.0
O68 O 0.75904 0.83146 0.66866 0.0
O69 O 0.77448 0.84148 0.78348 0.0
Co70 Co 0.20759 0.95335 0.74421 0.0
O71 O 0.20275 0.9732 0.68654 0.0
O72 O 0.23064 0.97019 0.67296 0.0
C73 C 0.17522 0.92547 0.72486 0.0
O74 O 0.21799 0.93436 0.78733 0.0
Co75 Co 0.18197 0.92921 0.89338 0.0
O76 O 0.19718 0.91373 0.88483 0.0
C77 C 0.21592 0.97291 0.90993 0.0
C78 C 0.22028 0.97914 0.65019 0.0
C79 C 0.21263 0.9196 0.83828 0.0
O80 O 0.22114 0.97374 0.83613 0.0
O81 O 0.2001 0.95724 0.94069 0.0
O82 O 0.18931 0.93116 0.66984 0.0
O83 O 0.18071 0.93746 0.7859 0.0
Co84 Co 0.76358 0.95317 0.74185 0.0
O85 O 0.78837 0.9728 0.68397 0.0
O86 O 0.75776 0.97059 0.67238 0.0
C87 C 0.76693 0.92468 0.72022 0.0
O88 O 0.73416 0.93459 0.78516 0.0
Co89 Co 0.76466 0.92838 0.88947 0.0
O90 O 0.73396 0.91341 0.88111 0.0
C91 C 0.77526 0.97228 0.90842 0.0
C92 C 0.77699 0.9792 0.64884 0.0
C93 C 0.72459 0.9197 0.83541 0.0
O94 O 0.77093 0.97337 0.83479 0.0
O95 O 0.77507 0.95635 0.93838 0.0
O96 O 0.75898 0.93108 0.66601 0.0
O97 O 0.77399 0.93651 0.78166 0.0
Co98 Co 0.06865 0.8143 0.74505 0.0
O99 O 0.04891 0.81911 0.68632 0.0
O100 O 0.05195 0.7912 0.67394 0.0
C101 C 0.0966 0.8466 0.72592 0.0
O102 O 0.08751 0.8039 0.78938 0.0
Co103 Co 0.09225 0.83983 0.8948 0.0
O104 O 0.10776 0.82459 0.88787 0.0
C105 C 0.04834 0.80631 0.90941 0.0
C106 C 0.04302 0.80153 0.65045 0.0
C107 C 0.10208 0.8092 0.84117 0.0
O108 O 0.04804 0.80082 0.83626 0.0
O109 O 0.0639 0.82217 0.94056 0.0
O110 O 0.09098 0.83246 0.67111 0.0
O111 O 0.08448 0.84121 0.7866 0.0
Co112 Co 0.20863 0.25852 0.74235 0.0
O113 O 0.20392 0.23403 0.68355 0.0
O114 O 0.23186 0.26492 0.67168 0.0
C115 C 0.1762 0.25388 0.72203 0.0
O116 O 0.219 0.28771 0.78756 0.0
Co117 Co 0.18267 0.25718 0.8899 0.0
O118 O 0.19503 0.28738 0.87005 0.0
C119 C 0.21668 0.24729 0.90792 0.0
C120 C 0.22153 0.24569 0.64794 0.0
C121 C 0.21179 0.29711 0.83029 0.0
O122 O 0.22189 0.25138 0.83403 0.0
O123 O 0.20103 0.24759 0.93845 0.0
O124 O 0.19047 0.26263 0.66785 0.0
O125 O 0.18164 0.24737 0.78314 0.0
Co126 Co 0.95829 0.75779 0.28997 0.0
O127 O 0.97792 0.78279 0.3468 0.0
O128 O 0.97584 0.75227 0.35976 0.0
C129 C 0.9298 0.76113 0.31132 0.0
O130 O 0.93976 0.72818 0.24842 0.0
Co131 Co 0.93309 0.75785 0.14232 0.0
O132 O 0.91819 0.7272 0.15264 0.0
C133 C 0.9772 0.76922 0.1232 0.0
C134 C 0.9844 0.77155 0.38255 0.0
C135 C 0.92465 0.71818 0.19937 0.0
O136 O 0.9784 0.76497 0.19684 0.0
O137 O 0.96112 0.76873 0.0933 0.0
O138 O 0.93629 0.75337 0.3659 0.0
O139 O 0.94147 0.76792 0.24937 0.0
Co140 Co 0.26383 0.20341 0.28577 0.0
O141 O 0.23936 0.19883 0.3442 0.0
O142 O 0.27029 0.2267 0.35639 0.0
C143 C 0.2591 0.17102 0.30647 0.0
O144 O 0.29301 0.21348 0.24056 0.0
Co145 Co 0.26181 0.1773 0.13786 0.0
O146 O 0.29195 0.18916 0.158 0.0
C147 C 0.25182 0.21119 0.1209 0.0
C148 C 0.25101 0.21643 0.37983 0.0
C149 C 0.30204 0.20578 0.19831 0.0
O150 O 0.25674 0.2167 0.19414 0.0
O151 O 0.25177 0.19538 0.09016 0.0
O152 O 0.26787 0.18531 0.36055 0.0
O153 O 0.25251 0.17639 0.24538 0.0
Co154 Co 0.81894 0.06364 0.28684 0.0
O155 O 0.82401 0.04404 0.34531 0.0
O156 O 0.79595 0.04678 0.35817 0.0
C157 C 0.85119 0.09176 0.30569 0.0
O158 O 0.80824 0.08231 0.24296 0.0
Co159 Co 0.84419 0.08748 0.137 0.0
O160 O 0.82863 0.10266 0.14414 0.0
C161 C 0.8111 0.04338 0.12247 0.0
C162 C 0.80642 0.03799 0.38138 0.0
C163 C 0.81328 0.09682 0.19115 0.0
O164 O 0.80554 0.04301 0.19558 0.0
O165 O 0.82686 0.05906 0.09141 0.0
O166 O 0.83709 0.08605 0.36069 0.0
O167 O 0.84579 0.07966 0.24493 0.0
Co168 Co 0.93048 0.39739 0.62759 0.0
O169 O 0.90635 0.3775 0.68839 0.0
O170 O 0.9374 0.38056 0.69527 0.0
C171 C 0.92673 0.42559 0.65041 0.0
O172 O 0.95944 0.41627 0.58108 0.0
Co173 Co 0.9279 0.42158 0.48094 0.0
O174 O 0.95866 0.43692 0.48505 0.0
C175 C 0.91816 0.37796 0.46172 0.0
C176 C 0.91837 0.37155 0.72125 0.0
C177 C 0.96851 0.43097 0.52975 0.0
O178 O 0.92283 0.37703 0.53505 0.0
O179 O 0.91792 0.39369 0.43201 0.0
O180 O 0.93528 0.41954 0.70346 0.0
O181 O 0.91932 0.41357 0.58958 0.0
Co182 Co 0.62453 0.53658 0.62302 0.0
O183 O 0.64472 0.53248 0.68266 0.0
O184 O 0.64102 0.56006 0.69217 0.0
C185 C 0.5968 0.50419 0.64393 0.0
O186 O 0.60537 0.54658 0.57889 0.0
Co187 Co 0.60028 0.51068 0.4752 0.0
O188 O 0.58459 0.52575 0.48204 0.0
C189 C 0.64395 0.54459 0.45707 0.0
C190 C 0.65035 0.55024 0.71685 0.0
C191 C 0.59048 0.54119 0.5286 0.0
O192 O 0.64485 0.54993 0.53076 0.0
O193 O 0.62822 0.52871 0.42683 0.0
O194 O 0.60245 0.51851 0.69801 0.0
O195 O 0.60874 0.50947 0.58268 0.0
Co196 Co 0.48497 0.0919 0.62563 0.0
O197 O 0.48993 0.11675 0.68265 0.0
O198 O 0.46206 0.08591 0.69723 0.0
C199 C 0.51738 0.09642 0.64457 0.0
O200 O 0.47443 0.06238 0.58382 0.0
Co201 Co 0.51009 0.09255 0.47632 0.0
O202 O 0.49493 0.0619 0.48643 0.0
C203 C 0.4765 0.10288 0.4598 0.0
C204 C 0.47247 0.10526 0.71949 0.0
C205 C 0.47965 0.05262 0.53388 0.0
O206 O 0.4713 0.09858 0.53366 0.0
O207 O 0.49222 0.10279 0.429 0.0
O208 O 0.50338 0.08816 0.69992 0.0
O209 O 0.51178 0.1027 0.58319 0.0
Co210 Co 0.73502 0.59197 0.07806 0.0
O211 O 0.71493 0.56767 0.01827 0.0
O212 O 0.71862 0.59892 1.00832 0.0
C213 C 0.76279 0.58727 0.05847 0.0
O214 O 0.75411 0.62112 0.12214 0.0
Co215 Co 0.75888 0.59034 0.22704 0.0
O216 O 0.77472 0.62107 0.2197 0.0
C217 C 0.71494 0.57988 0.24277 0.0
C218 C 0.70929 0.57977 0.98386 0.0
C219 C 0.76896 0.63062 0.17258 0.0
O220 O 0.71452 0.585 0.16964 0.0
O221 O 0.7306 0.57967 0.27352 0.0
O222 O 0.75725 0.5959 1.00385 0.0
O223 O 0.75071 0.58066 0.11933 0.0
Co224 Co 0.43035 0.14777 0.08124 0.0
O225 O 0.45508 0.15254 0.02374 0.0
O226 O 0.42414 0.12474 1.01001 0.0
C227 C 0.43484 0.18013 0.0622 0.0
O228 O 0.40096 0.13743 0.12362 0.0
Co229 Co 0.43142 0.1729 0.23089 0.0
O230 O 0.40073 0.15795 0.22143 0.0
C231 C 0.44194 0.13946 0.24637 0.0
C232 C 0.44346 0.13502 0.98738 0.0
C233 C 0.39133 0.14273 0.1738 0.0
O234 O 0.43706 0.1341 0.17296 0.0
O235 O 0.44204 0.15525 0.27744 0.0
O236 O 0.42654 0.16609 1.00697 0.0
O237 O 0.44128 0.17462 0.12342 0.0
Co238 Co 0.87492 0.28695 0.08244 0.0
O239 O 0.87089 0.30705 0.02203 0.0
O240 O 0.89845 0.30329 1.01327 0.0
C241 C 0.84249 0.25924 0.06205 0.0
O242 O 0.8848 0.2678 0.12781 0.0
Co243 Co 0.84889 0.26328 0.2309 0.0
O244 O 0.86394 0.24754 0.22567 0.0
C245 C 0.88252 0.30711 0.24688 0.0
C246 C 0.88868 0.31264 0.98822 0.0
C247 C 0.8794 0.2532 0.1794 0.0
O248 O 0.88824 0.30747 0.17404 0.0
O249 O 0.86651 0.29155 0.27729 0.0
O250 O 0.85679 0.26472 1.00797 0.0
O251 O 0.84781 0.27137 0.12275 0.0
Co252 Co 0.43072 0.28692 0.08267 0.0
O253 O 0.45524 0.30685 0.02458 0.0
O254 O 0.42432 0.30384 1.01238 0.0
C255 C 0.43543 0.25922 0.06144 0.0
O256 O 0.40148 0.26781 0.12727 0.0
Co257 Co 0.43236 0.26233 0.22969 0.0
O258 O 0.40232 0.2441 0.20779 0.0
C259 C 0.44193 0.30604 0.2488 0.0
C260 C 0.4436 0.31283 0.989 0.0
C261 C 0.39233 0.25087 0.16815 0.0
O262 O 0.43772 0.30715 0.17504 0.0
O263 O 0.4418 0.29015 0.27894 0.0
O264 O 0.42674 0.26485 1.0074 0.0
O265 O 0.44195 0.2711 0.12278 0.0
Co266 Co 0.73518 0.14845 0.07755 0.0
O267 O 0.7157 0.15379 0.01917 0.0
O268 O 0.71834 0.12569 1.00548 0.0
C269 C 0.76348 0.18065 0.06018 0.0
O270 O 0.75365 0.13743 0.12041 0.0
Co271 Co 0.75908 0.17291 0.22841 0.0
O272 O 0.77429 0.15739 0.21935 0.0
C273 C 0.71484 0.14016 0.24183 0.0
C274 C 0.70963 0.13626 0.98257 0.0
C275 C 0.76834 0.14225 0.17123 0.0
O276 O 0.71443 0.13491 0.1683 0.0
O277 O 0.73063 0.15563 0.27381 0.0
O278 O 0.75772 0.16672 1.00448 0.0
O279 O 0.75134 0.17514 0.12087 0.0
Co280 Co 0.87313 0.58955 0.07833 0.0
O281 O 0.86771 0.56524 1.01654 0.0
O282 O 0.89632 0.59573 1.00805 0.0
C283 C 0.84128 0.58648 0.05907 0.0
O284 O 0.88427 0.61857 0.12591 0.0
Co285 Co 0.84751 0.58762 0.22795 0.0
O286 O 0.86397 0.6184 0.22547 0.0
C287 C 0.8778 0.57287 0.23723 0.0
C288 C 0.88558 0.57673 0.98225 0.0
C289 C 0.87945 0.62794 0.17905 0.0
O290 O 0.88552 0.58081 0.16865 0.0
O291 O 0.86158 0.57229 0.26615 0.0
O292 O 0.85565 0.59507 1.00513 0.0
O293 O 0.84621 0.57907 0.11884 0.0
Co294 Co 0.62472 0.09325 0.62229 0.0
O295 O 0.64463 0.11822 0.67877 0.0
O296 O 0.64204 0.08751 0.69251 0.0
C297 C 0.59665 0.09739 0.64314 0.0
O298 O 0.60587 0.06365 0.58124 0.0
Co299 Co 0.59952 0.09341 0.47472 0.0
O300 O 0.58441 0.06275 0.48518 0.0
C301 C 0.64358 0.1045 0.45549 0.0
C302 C 0.65087 0.10684 0.71489 0.0
C303 C 0.59075 0.05368 0.53219 0.0
O304 O 0.64474 0.10005 0.52896 0.0
O305 O 0.6276 0.10434 0.4262 0.0
O306 O 0.60275 0.08932 0.69797 0.0
O307 O 0.60831 0.10374 0.58116 0.0
Co308 Co 0.92917 0.53565 0.62103 0.0
O309 O 0.90451 0.5301 0.68048 0.0
O310 O 0.93463 0.55913 0.6887 0.0
C311 C 0.92674 0.50436 0.64554 0.0
O312 O 0.95838 0.54693 0.57454 0.0
Co313 Co 0.92822 0.5091 0.47606 0.0
O314 O 0.95862 0.52268 0.49514 0.0
C315 C 0.91427 0.53994 0.45727 0.0
C316 C 0.91557 0.54815 0.71386 0.0
C317 C 0.96806 0.53975 0.5333 0.0
O318 O 0.92046 0.54716 0.52796 0.0
O319 O 0.91457 0.52406 0.42916 0.0
O320 O 0.93492 0.51917 0.69791 0.0
O321 O 0.9192 0.50848 0.58394 0.0
Co322 Co 0.48575 0.39727 0.62659 0.0
O323 O 0.49073 0.37779 0.68623 0.0
O324 O 0.46257 0.38043 0.69748 0.0
C325 C 0.51802 0.42535 0.6462 0.0
O326 O 0.47507 0.41574 0.58035 0.0
Co327 Co 0.51146 0.42136 0.47806 0.0
O328 O 0.4987 0.43896 0.49595 0.0
C329 C 0.478 0.37724 0.46221 0.0
C330 C 0.47304 0.3717 0.72157 0.0
C331 C 0.48202 0.43205 0.5362 0.0
O332 O 0.47262 0.37662 0.53565 0.0
O333 O 0.49359 0.39311 0.43106 0.0
O334 O 0.50376 0.41981 0.70044 0.0
O335 O 0.5127 0.41321 0.58561 0.0
Co336 Co 0.59591 0.73041 0.95531 0.0
O337 O 0.5711 0.711 1.0137 0.0
O338 O 0.60174 0.71335 0.02653 0.0
C339 C 0.59222 0.75884 0.97406 0.0
O340 O 0.62537 0.74875 0.91219 0.0
Co341 Co 0.59538 0.75462 0.8055 0.0
O342 O 0.6261 0.76954 0.81379 0.0
C343 C 0.5834 0.71024 0.79084 0.0
C344 C 0.58248 0.70474 0.0497 0.0
C345 C 0.63525 0.76344 0.86145 0.0
O346 O 0.58848 0.70975 0.86398 0.0
O347 O 0.58373 0.72613 0.75975 0.0
O348 O 0.60039 0.75292 0.02917 0.0
O349 O 0.5855 0.7468 0.9131 0.0
Co350 Co 0.29111 0.86909 0.95571 0.0
O351 O 0.31114 0.86479 1.01565 0.0
O352 O 0.30822 0.89286 0.02262 0.0
C353 C 0.26285 0.83729 0.97963 0.0
O354 O 0.27227 0.8794 0.91097 0.0
Co355 Co 0.26616 0.84266 0.81003 0.0
O356 O 0.25086 0.85815 0.81636 0.0
C357 C 0.31 0.87584 0.78899 0.0
C358 C 0.31723 0.88283 0.04831 0.0
C359 C 0.25718 0.8739 0.86159 0.0
O360 O 0.31119 0.88155 0.8623 0.0
O361 O 0.29402 0.86001 0.75986 0.0
O362 O 0.26921 0.85198 0.03248 0.0
O363 O 0.27458 0.84173 0.91791 0.0
Co364 Co 0.15237 0.42555 0.95466 0.0
O365 O 0.15746 0.45038 1.01218 0.0
O366 O 0.12941 0.41964 0.02592 0.0
C367 C 0.18461 0.42968 0.97379 0.0
O368 O 0.14167 0.39609 0.91214 0.0
Co369 Co 0.17742 0.42634 0.80513 0.0
O370 O 0.16209 0.39566 0.8143 0.0
C371 C 0.14441 0.43748 0.78961 0.0
C372 C 0.1399 0.43896 0.04853 0.0
C373 C 0.14681 0.38636 0.86177 0.0
O374 O 0.13892 0.43253 0.86289 0.0
O375 O 0.16013 0.4374 0.75873 0.0
O376 O 0.17054 0.42147 0.02896 0.0
O377 O 0.17918 0.4362 0.91259 0.0
Co378 Co 0.40156 0.92434 0.41074 0.0
O379 O 0.38187 0.90026 0.34907 0.0
O380 O 0.38507 0.93136 0.34164 0.0
C381 C 0.42965 0.92022 0.39028 0.0
O382 O 0.42026 0.95327 0.45781 0.0
Co383 Co 0.42508 0.92178 0.55934 0.0
O384 O 0.4404 0.95256 0.55603 0.0
C385 C 0.38105 0.91104 0.57441 0.0
C386 C 0.37606 0.91233 0.31567 0.0
C387 C 0.43468 0.96239 0.51021 0.0
O388 O 0.38077 0.91655 0.50176 0.0
O389 O 0.39666 0.91073 0.60507 0.0
O390 O 0.42409 0.92907 0.33665 0.0
O391 O 0.4174 0.91305 0.45053 0.0
Co392 Co 0.09766 0.48143 0.41026 0.0
O393 O 0.12237 0.4863 0.35232 0.0
O394 O 0.0915 0.4584 0.33904 0.0
C395 C 0.10197 0.51376 0.39115 0.0
O396 O 0.06827 0.47093 0.45315 0.0
Co397 Co 0.09872 0.50676 0.55957 0.0
O398 O 0.06803 0.49154 0.5506 0.0
C399 C 0.10881 0.47302 0.57598 0.0
C400 C 0.11079 0.46875 0.31608 0.0
C401 C 0.05864 0.4762 0.50349 0.0
O402 O 0.10453 0.46787 0.50207 0.0
O403 O 0.10878 0.48875 0.6069 0.0
O404 O 0.09366 0.49968 0.33605 0.0
O405 O 0.1085 0.5083 0.45221 0.0
Co406 Co 0.5402 0.61993 0.41009 0.0
O407 O 0.53506 0.63951 0.35179 0.0
O408 O 0.56356 0.63744 0.34128 0.0
C409 C 0.50855 0.59136 0.38735 0.0
O410 O 0.55098 0.60136 0.45422 0.0
Co411 Co 0.51399 0.59518 0.55706 0.0
O412 O 0.52972 0.58017 0.54961 0.0
C413 C 0.54724 0.63903 0.57676 0.0
C414 C 0.55291 0.64598 0.3172 0.0
C415 C 0.5455 0.58644 0.50453 0.0
O416 O 0.55278 0.64012 0.50325 0.0
O417 O 0.53146 0.62311 0.60647 0.0
O418 O 0.52306 0.59787 0.33374 0.0
O419 O 0.51304 0.60317 0.44881 0.0
Co420 Co 0.09677 0.62007 0.4155 0.0
O421 O 0.12092 0.63991 0.35462 0.0
O422 O 0.0898 0.63667 0.34684 0.0
C423 C 0.10127 0.59225 0.39399 0.0
O424 O 0.06778 0.60136 0.4621 0.0
Co425 Co 0.09854 0.59571 0.56233 0.0
O426 O 0.06817 0.57791 0.54505 0.0
C427 C 0.10923 0.63981 0.58028 0.0
C428 C 0.10886 0.64574 0.32124 0.0
C429 C 0.0584 0.58491 0.50539 0.0
O430 O 0.10435 0.64055 0.50714 0.0
O431 O 0.10898 0.62386 0.6106 0.0
O432 O 0.0923 0.59776 0.34066 0.0
O433 O 0.1081 0.60425 0.45499 0.0
Co434 Co 0.40183 0.48045 0.40951 0.0
O435 O 0.38249 0.48562 0.34998 0.0
O436 O 0.38443 0.45705 0.34045 0.0
C437 C 0.43031 0.51216 0.38713 0.0
O438 O 0.42012 0.4696 0.45621 0.0
Co439 Co 0.42642 0.50668 0.5563 0.0
O440 O 0.44385 0.49374 0.53796 0.0
C441 C 0.38223 0.47373 0.57454 0.0
C442 C 0.37599 0.46774 0.31575 0.0
C443 C 0.43669 0.47682 0.49909 0.0
O444 O 0.38143 0.46807 0.50144 0.0
O445 O 0.39827 0.48932 0.60491 0.0
O446 O 0.42413 0.49758 0.33392 0.0
O447 O 0.41838 0.5076 0.44821 0.0
Co448 Co 0.54105 0.92514 0.41344 0.0
O449 O 0.53665 0.90101 0.35194 0.0
O450 O 0.56468 0.93198 0.34515 0.0
C451 C 0.5089 0.92107 0.39179 0.0
O452 O 0.55133 0.95411 0.46029 0.0
Co453 Co 0.51457 0.92291 0.56073 0.0
O454 O 0.53048 0.9537 0.55809 0.0
C455 C 0.54565 0.90922 0.57407 0.0
C456 C 0.55461 0.91297 0.31901 0.0
C457 C 0.54608 0.96338 0.51234 0.0
O458 O 0.55348 0.91696 0.50537 0.0
O459 O 0.52917 0.90838 0.60158 0.0
O460 O 0.52342 0.92997 0.33855 0.0
O461 O 0.51392 0.91403 0.45243 0.0
Co462 Co 0.29163 0.42581 0.95344 0.0
O463 O 0.31118 0.45026 1.01286 0.0
O464 O 0.30859 0.41948 0.02358 0.0
C465 C 0.26361 0.43003 0.97431 0.0
O466 O 0.2731 0.39666 0.90743 0.0
Co467 Co 0.26695 0.42717 0.80626 0.0
O468 O 0.24936 0.3969 0.82531 0.0
C469 C 0.31099 0.4376 0.78811 0.0
C470 C 0.31731 0.43866 0.04788 0.0
C471 C 0.25653 0.38722 0.86464 0.0
O472 O 0.31211 0.43335 0.86178 0.0
O473 O 0.29497 0.43719 0.75777 0.0
O474 O 0.26925 0.4213 0.02811 0.0
O475 O 0.27558 0.43678 0.91329 0.0
Co476 Co 0.59599 0.8698 0.95654 0.0
O477 O 0.5719 0.86535 0.01856 0.0
O478 O 0.60294 0.89328 0.02573 0.0
C479 C 0.592 0.83761 0.97621 0.0
O480 O 0.62494 0.88018 0.90981 0.0
Co481 Co 0.59401 0.84398 0.80759 0.0
O482 O 0.62481 0.85953 0.81198 0.0
C483 C 0.58058 0.87526 0.79599 0.0
C484 C 0.58395 0.88326 0.05188 0.0
C485 C 0.63439 0.87497 0.85855 0.0
O486 O 0.58791 0.88258 0.86564 0.0
O487 O 0.57982 0.85896 0.767 0.0
O488 O 0.60079 0.85195 0.03021 0.0
O489 O 0.58492 0.8428 0.91606 0.0
Co490 Co 0.15208 0.73036 0.96037 0.0
O491 O 0.15635 0.7104 0.02079 0.0
O492 O 0.12843 0.71358 0.02828 0.0
C493 C 0.18404 0.75855 0.9826 0.0
O494 O 0.14186 0.74924 0.91524 0.0
Co495 Co 0.17824 0.75475 0.81332 0.0
O496 O 0.16299 0.77029 0.8196 0.0
C497 C 0.14481 0.71093 0.79458 0.0
C498 C 0.13841 0.70451 0.05392 0.0
C499 C 0.14736 0.76422 0.86533 0.0
O500 O 0.13925 0.71 0.86795 0.0
O501 O 0.16063 0.72675 0.76462 0.0
O502 O 0.16952 0.75245 0.03604 0.0
O503 O 0.17935 0.7466 0.92143 0.0
C504 C 0.24731 1.00169 0.54888 0.0
C505 C 0.22751 0.99443 0.58305 0.0
C506 C 0.2542 0.01556 0.48414 0.0
C507 C 0.24155 0.02269 0.44996 0.0
H508 H 0.25766 0.99665 0.57234 0.0
H509 H 0.26962 0.02072 0.46074 0.0
S510 S 0.18821 1.00829 0.51626 0.0
N511 N 0.19528 0.9955 0.57695 0.0
N512 N 0.20808 0.02124 0.45573 0.0
C513 C 0.22166 0.01546 0.48329 0.0
C514 C 0.21471 1.00147 0.54957 0.0
C515 C 0.02051 0.24867 0.55 0.0
C516 C 0.02775 0.23608 0.58386 0.0
C517 C 1.00667 0.2418 0.4852 0.0
C518 C 0.99953 0.22206 0.45061 0.0
H519 H 0.02556 0.26404 0.57373 0.0
H520 H 1.00154 0.25211 0.46208 0.0
S521 S 0.0138 0.18298 0.51609 0.0
N522 N 0.02661 0.20277 0.57712 0.0
N523 N 1.00089 0.18999 0.45572 0.0
C524 C 1.00671 0.20933 0.48364 0.0
C525 C 0.02069 0.21627 0.55001 0.0
C526 C 0.78047 0.7684 0.4834 0.0
C527 C 0.80021 0.78109 0.44907 0.0
C528 C 0.77352 0.7752 0.54853 0.0
C529 C 0.78603 0.79497 0.58287 0.0
H530 H 0.77022 0.75299 0.45989 0.0
H531 H 0.75816 0.7648 0.57206 0.0
S532 S 0.8391 0.83433 0.516 0.0
N533 N 0.8322 0.81454 0.45502 0.0
N534 N 0.81927 0.8272 0.57696 0.0
C535 C 0.80584 0.80782 0.54929 0.0
C536 C 0.81286 0.80094 0.48266 0.0
C537 C 0.77256 1.00186 0.54806 0.0
C538 C 0.78509 0.99454 0.5819 0.0
C539 C 0.77948 0.01568 0.48322 0.0
C540 C 0.79919 0.02273 0.4486 0.0
H541 H 0.75721 0.99688 0.57178 0.0
H542 H 0.76921 0.02086 0.46005 0.0
S543 S 0.83812 1.00824 0.51412 0.0
N544 N 0.81833 0.99551 0.57517 0.0
N545 N 0.83118 0.0212 0.45374 0.0
C546 C 0.81187 0.01548 0.48168 0.0
C547 C 0.80488 1.00152 0.54806 0.0
C548 C 0.02097 0.77449 0.54855 0.0
C549 C 0.0278 0.79417 0.5831 0.0
C550 C 1.0072 0.76745 0.48355 0.0
C551 C 0.99973 0.77982 0.44949 0.0
H552 H 0.02628 0.76434 0.57189 0.0
H553 H 1.00238 0.75213 0.45991 0.0
S554 S 1.01282 0.83269 0.51706 0.0
N555 N 0.0259 0.82595 0.5777 0.0
N556 N 1.0003 0.81287 0.45594 0.0
C557 C 1.00649 0.79958 0.48324 0.0
C558 C 0.0204 0.80669 0.5498 0.0
C559 C 0.25569 0.24344 0.48189 0.0
C560 C 0.24303 0.22376 0.44702 0.0
C561 C 0.24873 0.25032 0.54686 0.0
C562 C 0.22887 0.23778 0.58052 0.0
H563 H 0.27115 0.25368 0.45888 0.0
H564 H 0.25907 0.26564 0.57092 0.0
S565 S 0.18954 0.18488 0.51175 0.0
N566 N 0.20949 0.19184 0.45157 0.0
N567 N 0.19659 0.20461 0.57313 0.0
C568 C 0.21607 0.21804 0.54631 0.0
C569 C 0.22308 0.21111 0.47985 0.0
C570 C 0.89121 0.34895 0.82187 0.0
C571 C 0.91108 0.35623 0.78827 0.0
C572 C 0.88427 0.3352 0.88695 0.0
C573 C 0.89683 0.32799 0.92135 0.0
H574 H 0.88089 0.354 0.79812 0.0
H575 H 0.86883 0.33007 0.91001 0.0
S576 S 0.95024 0.34234 0.85639 0.0
N577 N 0.94328 0.35514 0.79527 0.0
N578 N 0.93029 0.3294 0.91654 0.0
C579 C 0.91674 0.33515 0.88836 0.0
C580 C 0.92383 0.34921 0.82227 0.0
C581 C 0.67311 0.54582 0.81735 0.0
C582 C 0.66568 0.55829 0.78385 0.0
C583 C 0.68685 0.55269 0.88249 0.0
C584 C 0.69393 0.57243 0.91698 0.0
H585 H 0.66815 0.53048 0.79349 0.0
H586 H 0.6921 0.54247 0.90551 0.0
S587 S 0.67923 0.61124 0.85214 0.0
N588 N 0.66653 0.59146 0.79098 0.0
N589 N 0.69227 0.60434 0.91227 0.0
C590 C 0.68664 0.58507 0.88403 0.0
C591 C 0.67259 0.57804 0.81794 0.0
C592 C 0.44559 0.10089 0.82132 0.0
C593 C 0.46533 0.11341 0.78673 0.0
C594 C 0.43877 0.10789 0.88625 0.0
C595 C 0.45144 0.12768 0.92026 0.0
H596 H 0.43523 0.08548 0.79804 0.0
H597 H 0.4234 0.09764 0.90995 0.0
S598 S 0.50462 0.16659 0.85283 0.0
N599 N 0.49751 0.1467 0.79219 0.0
N600 N 0.48484 0.15971 0.91386 0.0
C601 C 0.47127 0.14033 0.88653 0.0
C602 C 0.47815 0.13326 0.82 0.0
C603 C 0.44589 0.34915 0.82271 0.0
C604 C 0.46573 0.35643 0.78881 0.0
C605 C 0.43895 0.33527 0.88748 0.0
C606 C 0.45158 0.32815 0.92192 0.0
H607 H 0.43556 0.35419 0.79902 0.0
H608 H 0.42351 0.3301 0.91069 0.0
S609 S 0.50494 0.34249 0.85605 0.0
N610 N 0.49792 0.3553 0.79527 0.0
N611 N 0.48504 0.32956 0.91644 0.0
C612 C 0.47149 0.33537 0.88875 0.0
C613 C 0.47849 0.34936 0.8225 0.0
C614 C 0.6873 0.10937 0.88074 0.0
C615 C 0.6944 0.12911 0.91519 0.0
C616 C 0.6735 0.10245 0.81585 0.0
C617 C 0.66625 0.11501 0.78173 0.0
H618 H 0.69241 0.09906 0.90409 0.0
H619 H 0.66846 0.08707 0.79233 0.0
S620 S 0.68014 0.16813 0.8489 0.0
N621 N 0.69304 0.16117 0.90957 0.0
N622 N 0.66737 0.14832 0.78796 0.0
C623 C 0.6733 0.13484 0.81534 0.0
C624 C 0.68725 0.14182 0.88183 0.0
C625 C 0.9198 0.57498 0.81569 0.0
C626 C 0.90733 0.55527 0.78077 0.0
C627 C 0.91274 0.58168 0.8808 0.0
C628 C 0.89291 0.56896 0.91445 0.0
H629 H 0.93524 0.58536 0.79279 0.0
H630 H 0.92298 0.59701 0.90495 0.0
S631 S 0.85399 0.51595 0.84537 0.0
N632 N 0.87397 0.52313 0.78512 0.0
N633 N 0.86084 0.53562 0.90692 0.0
C634 C 0.88026 0.54922 0.88008 0.0
C635 C 0.88741 0.54243 0.81354 0.0
C636 C 0.58007 0.66865 0.21671 0.0
C637 C 0.56019 0.66131 0.25021 0.0
C638 C 0.58702 0.68245 0.15182 0.0
C639 C 0.57436 0.68947 0.11685 0.0
H640 H 0.59044 0.6637 0.24071 0.0
H641 H 0.60249 0.68765 0.12895 0.0
S642 S 0.52085 0.67489 0.18128 0.0
N643 N 0.52789 0.6622 0.2427 0.0
N644 N 0.54081 0.68787 0.12119 0.0
C645 C 0.55441 0.6822 0.14955 0.0
C646 C 0.54738 0.66825 0.21597 0.0
C647 C 0.35364 0.88528 0.21428 0.0
C648 C 0.36082 0.90508 0.24839 0.0
C649 C 0.33991 0.87839 0.14908 0.0
C650 C 0.33264 0.89093 0.11507 0.0
H651 H 0.35875 0.87499 0.23775 0.0
H652 H 0.33485 0.86299 0.12565 0.0
S653 S 0.34657 0.9441 0.18194 0.0
N654 N 0.35946 0.93714 0.2426 0.0
N655 N 0.33378 0.92426 0.12112 0.0
C656 C 0.33968 0.91076 0.14865 0.0
C657 C 0.3537 0.9178 0.21486 0.0
C658 C 0.10612 0.44164 0.21486 0.0
C659 C 0.11877 0.46143 0.24886 0.0
C660 C 0.11296 0.43462 0.15003 0.0
C661 C 0.13272 0.44713 0.11555 0.0
H662 H 0.09074 0.43138 0.23851 0.0
H663 H 0.10262 0.41921 0.1268 0.0
S664 S 0.17193 0.50038 0.18133 0.0
N665 N 0.15214 0.49349 0.24231 0.0
N666 N 0.16486 0.48046 0.12086 0.0
C667 C 0.1455 0.46701 0.14869 0.0
C668 C 0.13859 0.4741 0.2151 0.0
C669 C 0.13593 0.66815 0.21999 0.0
C670 C 0.11616 0.66104 0.2542 0.0
C671 C 0.14283 0.68185 0.15479 0.0
C672 C 0.13032 0.68919 0.12089 0.0
H673 H 0.14618 0.66297 0.24332 0.0
H674 H 0.1582 0.68685 0.13121 0.0
S675 S 0.07724 0.67549 0.1882 0.0
N676 N 0.08417 0.66255 0.24875 0.0
N677 N 0.09706 0.6882 0.12726 0.0
C678 C 0.11052 0.68224 0.15465 0.0
C679 C 0.10348 0.66824 0.22086 0.0
C680 C 0.35334 0.44066 0.21466 0.0
C681 C 0.36068 0.46049 0.24866 0.0
C682 C 0.33954 0.43382 0.1497 0.0
C683 C 0.33254 0.44655 0.11523 0.0
H684 H 0.35831 0.43027 0.23831 0.0
H685 H 0.33433 0.41839 0.12634 0.0
S686 S 0.34703 0.49991 0.18148 0.0
N687 N 0.35973 0.49277 0.24238 0.0
N688 N 0.33409 0.48006 0.12085 0.0
C689 C 0.33979 0.46643 0.14858 0.0
C690 C 0.35372 0.47334 0.215 0.0
C691 C 0.55004 0.88582 0.21806 0.0
C692 C 0.56265 0.90563 0.25203 0.0
C693 C 0.5569 0.87886 0.15304 0.0
C694 C 0.57672 0.89134 0.11906 0.0
H695 H 0.53463 0.87557 0.24145 0.0
H696 H 0.54656 0.86347 0.12962 0.0
S697 S 0.61593 0.94452 0.18557 0.0
N698 N 0.59607 0.93764 0.24613 0.0
N699 N 0.6089 0.92463 0.12502 0.0
C700 C 0.58951 0.91118 0.15256 0.0
C701 C 0.58251 0.91829 0.21858 0.0
C702 C 0.23636 0.01137 0.93514 0.0
C703 C 0.22791 0.99097 0.96349 0.0
C704 C 0.24434 0.02832 0.9876 0.0
C705 C 0.24438 0.02564 0.07063 0.0
H706 H 0.23583 0.0142 0.87245 0.0
H707 H 0.25 0.04367 0.96262 0.0
S708 S 0.22683 0.97545 0.17373 0.0
N709 N 0.22215 0.96911 0.07916 0.0
N710 N 0.23714 1.00097 0.17732 0.0
C711 C 0.23729 1.00542 0.09915 0.0
C712 C 0.22904 0.98812 0.04576 0.0
C713 C 0.99406 0.21998 0.98849 0.0
C714 C 0.99674 0.22238 0.07161 0.0
C715 C 1.01106 0.2286 0.93621 0.0
C716 C 0.03152 0.23982 0.9648 0.0
H717 H 0.97865 0.21086 0.96325 0.0
H718 H 1.00818 0.22556 0.87335 0.0
S719 S 0.04713 0.25304 0.17578 0.0
N720 N 0.02152 0.23863 0.17889 0.0
N721 N 0.05348 0.25483 0.08118 0.0
C722 C 0.03441 0.24342 0.04734 0.0
C723 C 0.01705 0.23475 0.10053 0.0
C724 C 0.78456 0.79888 0.04488 0.0
C725 C 0.78473 0.7964 0.96178 0.0
C726 C 0.79282 0.79011 0.09706 0.0
C727 C 0.80184 0.77867 0.0684 0.0
H728 H 0.77834 0.80808 0.07017 0.0
H729 H 0.79295 0.7931 0.15995 0.0
S730 S 0.80422 0.76549 0.85732 0.0
N731 N 0.79318 0.78006 0.85437 0.0
N732 N 0.80874 0.76363 0.95188 0.0
C733 C 0.8012 0.77516 0.98583 0.0
C734 C 0.79262 0.78396 0.93275 0.0
C735 C 0.79285 0.01072 0.93406 0.0
C736 C 0.7815 0.99028 0.96263 0.0
C737 C 0.80163 0.02772 0.98634 0.0
C738 C 0.79926 0.02505 0.06946 0.0
H739 H 0.79584 0.01359 0.87118 0.0
H740 H 0.81082 0.04312 0.96111 0.0
S741 S 0.76836 0.97472 0.17365 0.0
N742 N 0.76645 0.96835 0.07903 0.0
N743 N 0.78295 1.00031 0.17678 0.0
C744 C 0.7868 1.00476 0.0984 0.0
C745 C 0.77796 0.98741 0.04519 0.0
C746 C 0.03268 0.79652 0.04547 0.0
C747 C 0.03005 0.79423 0.96233 0.0
C748 C 0.01568 0.78742 0.09768 0.0
C749 C 0.99527 0.77579 0.06901 0.0
H750 H 0.04805 0.8059 0.07079 0.0
H751 H 0.01851 0.79036 0.1606 0.0
S752 S 0.97985 0.76279 0.85777 0.0
N753 N 1.0054 0.77774 0.85482 0.0
N754 N 0.97344 0.76064 0.9524 0.0
C755 C 0.99245 0.77236 0.98638 0.0
C756 C 1.0098 0.78152 0.93325 0.0
C757 C 0.24544 0.2205 0.98477 0.0
C758 C 0.2454 0.22307 0.06783 0.0
C759 C 0.23727 0.22939 0.93275 0.0
C760 C 0.22852 0.24105 0.9616 0.0
H761 H 0.25137 0.21106 0.95942 0.0
H762 H 0.23691 0.22622 0.86992 0.0
S763 S 0.22686 0.25476 0.17248 0.0
N764 N 0.23757 0.23989 0.17531 0.0
N765 N 0.22221 0.25656 0.07801 0.0
C766 C 0.22945 0.24477 0.04403 0.0
C767 C 0.23791 0.23584 0.09696 0.0
C768 C 0.9006 0.33954 0.43584 0.0
C769 C 0.91209 0.36 0.40755 0.0
C770 C 0.89186 0.32259 0.3833 0.0
C771 C 0.8944 0.32535 0.30025 0.0
H772 H 0.89746 0.33663 0.49862 0.0
H773 H 0.88253 0.30718 0.40823 0.0
S774 S 0.92577 0.37574 0.19702 0.0
N775 N 0.92749 0.38203 0.29169 0.0
N776 N 0.91108 0.35017 0.19343 0.0
C777 C 0.90704 0.34565 0.27168 0.0
C778 C 0.91582 0.36294 0.32514 0.0
C779 C 0.69938 0.57376 0.37913 0.0
C780 C 0.69667 0.57353 0.29604 0.0
C781 C 0.6824 0.56555 0.43154 0.0
C782 C 0.66194 0.55657 0.4031 0.0
H783 H 0.71478 0.57984 0.40421 0.0
H784 H 0.68528 0.56532 0.49434 0.0
S785 S 0.6463 0.55445 0.19237 0.0
N786 N 0.67188 0.56535 0.18902 0.0
N787 N 0.63997 0.54991 0.28699 0.0
C788 C 0.65904 0.55735 0.32064 0.0
C789 C 0.67637 0.56585 0.26732 0.0
C790 C 0.44808 0.12999 0.38266 0.0
C791 C 0.44813 0.1274 0.29956 0.0
C792 C 0.45606 0.12096 0.43489 0.0
C793 C 0.4646 0.10909 0.40626 0.0
H794 H 0.44233 0.13959 0.40789 0.0
H795 H 0.45648 0.12418 0.49768 0.0
S796 S 0.46607 0.09514 0.19551 0.0
N797 N 0.45566 0.11028 0.19238 0.0
N798 N 0.47064 0.09331 0.29004 0.0
C799 C 0.46362 0.1053 0.32383 0.0
C800 C 0.45537 0.1144 0.27068 0.0
C801 C 0.45967 0.34449 0.27397 0.0
C802 C 0.44815 0.32408 0.30273 0.0
C803 C 0.46857 0.36153 0.32608 0.0
C804 C 0.46617 0.35891 0.40919 0.0
H805 H 0.4627 0.34731 0.21109 0.0
H806 H 0.47788 0.37689 0.30073 0.0
S807 S 0.43491 0.30868 0.51376 0.0
N808 N 0.43297 0.30225 0.4192 0.0
N809 N 0.44966 0.33425 0.51667 0.0
C810 C 0.45356 0.33865 0.43828 0.0
C811 C 0.4446 0.32127 0.38524 0.0
C812 C 0.69903 0.12956 0.37736 0.0
C813 C 0.69637 0.12836 0.29415 0.0
C814 C 0.68198 0.12087 0.42945 0.0
C815 C 0.66151 0.11078 0.40061 0.0
H816 H 0.71449 0.13777 0.40285 0.0
H817 H 0.6849 0.12291 0.49261 0.0
S818 S 0.6459 0.10128 0.18824 0.0
N819 N 0.67157 0.11471 0.18586 0.0
N820 N 0.63951 0.09833 0.28298 0.0
C821 C 0.65861 0.10847 0.31754 0.0
C822 C 0.67601 0.11722 0.26458 0.0
C823 C 0.91757 0.56806 0.36513 0.0
C824 C 0.90504 0.54921 0.40542 0.0
C825 C 0.90901 0.57532 0.30711 0.0
C826 C 0.88767 0.56395 0.2882 0.0
H827 H 0.93408 0.57702 0.37757 0.0
H828 H 0.91899 0.5901 0.27852 0.0
S829 S 0.84868 0.5133 0.37495 0.0
N830 N 0.87063 0.51908 0.42034 0.0
N831 N 0.85449 0.53273 0.3133 0.0
C832 C 0.87517 0.54503 0.32788 0.0
C833 C 0.88388 0.53764 0.38589 0.0
C834 C 0.56842 0.67746 0.60252 0.0
C835 C 0.55903 0.657 0.63113 0.0
C836 C 0.57688 0.69448 0.65475 0.0
C837 C 0.57653 0.69182 0.73788 0.0
H838 H 0.56842 0.68035 0.53962 0.0
H839 H 0.58335 0.7099 0.62945 0.0
S840 S 0.55621 0.64139 0.84228 0.0
N841 N 0.5517 0.63503 0.74768 0.0
N842 N 0.56762 0.66702 0.84529 0.0
C843 C 0.56833 0.67148 0.76689 0.0
C844 C 0.55956 0.65411 0.71374 0.0
C845 C 0.34843 0.89682 0.76284 0.0
C846 C 0.32795 0.88742 0.73433 0.0
C847 C 0.36541 0.90505 0.71049 0.0
C848 C 0.36269 0.90445 0.62737 0.0
H849 H 0.35136 0.89699 0.82579 0.0
H850 H 0.38085 0.91152 0.73566 0.0
S851 S 0.31223 0.88399 0.52304 0.0
N852 N 0.30591 0.8798 0.61775 0.0
N853 N 0.33786 0.89532 0.51993 0.0
C854 C 0.34235 0.89626 0.59839 0.0
C855 C 0.32501 0.88771 0.65165 0.0
C856 C 0.13533 0.44403 0.65327 0.0
C857 C 0.1326 0.44396 0.73633 0.0
C858 C 0.12656 0.45226 0.60099 0.0
C859 C 0.11483 0.46097 0.62954 0.0
H860 H 0.14482 0.43814 0.62811 0.0
H861 H 0.12987 0.45273 0.53827 0.0
S862 S 0.10059 0.46226 0.84004 0.0
N863 N 0.11549 0.45158 0.84329 0.0
N864 N 0.09901 0.46705 0.74555 0.0
C865 C 0.11091 0.4599 0.71189 0.0
C866 C 0.11974 0.45138 0.76507 0.0
C867 C 0.12417 0.67244 0.76911 0.0
C868 C 0.13302 0.69288 0.74064 0.0
C869 C 0.11591 0.65544 0.71678 0.0
C870 C 0.11592 0.65811 0.63376 0.0
H871 H 0.12451 0.66959 0.83189 0.0
H872 H 0.1099 0.64005 0.74186 0.0
S873 S 0.13475 0.70845 0.53008 0.0
N874 N 0.13945 0.7148 0.62462 0.0
N875 N 0.12389 0.68287 0.52679 0.0
C876 C 0.12355 0.67841 0.60503 0.0
C877 C 0.13212 0.69575 0.65826 0.0
C878 C 0.34949 0.45605 0.76303 0.0
C879 C 0.3291 0.44408 0.7344 0.0
C880 C 0.36652 0.46499 0.71089 0.0
C881 C 0.36392 0.46216 0.62791 0.0
H882 H 0.35227 0.45935 0.82579 0.0
H883 H 0.38185 0.4746 0.73609 0.0
S884 S 0.31377 0.42978 0.52391 0.0
N885 N 0.30734 0.42814 0.61836 0.0
N886 N 0.3393 0.44488 0.52081 0.0
C887 C 0.34369 0.44918 0.59904 0.0
C888 C 0.32632 0.44019 0.65209 0.0
C889 C 0.58413 0.90468 0.71066 0.0
C890 C 0.57156 0.88502 0.74553 0.0
C891 C 0.57612 0.91223 0.65154 0.0
C892 C 0.55531 0.90033 0.62606 0.0
H893 H 0.60032 0.914 0.72771 0.0
H894 H 0.58606 0.92758 0.62702 0.0
S895 S 0.51637 0.84783 0.69812 0.0
N896 N 0.53762 0.8538 0.74916 0.0
N897 N 0.52252 0.86799 0.64005 0.0
C898 C 0.54275 0.88072 0.66076 0.0
C899 C 0.55088 0.87306 0.7199 0.0
C900 C 0.35817 0.12578 0.25144 0.0
C901 C 0.36835 0.13054 0.17754 0.0
C902 C 0.33636 0.11455 0.25659 0.0
C903 C 0.324 0.10828 0.18794 0.0
H904 H 0.36715 0.13066 0.30574 0.0
H905 H 0.32914 0.11124 0.31457 0.0
S906 S 0.34299 0.11695 0.9804 0.0
N907 N 0.36441 0.12784 0.03449 0.0
N908 N 0.32344 0.10743 0.04396 0.0
C909 C 0.33397 0.11298 0.11376 0.0
C910 C 0.35615 0.12392 0.1086 0.0
C911 C 0.89785 0.23638 0.11665 0.0
C912 C 0.89165 0.24248 0.18553 0.0
C913 C 0.90853 0.22523 0.12129 0.0
C914 C 0.91395 0.22038 0.19495 0.0
H915 H 0.89394 0.23976 0.05879 0.0
H916 H 0.91267 0.22047 0.06678 0.0
S917 S 0.90211 0.23368 0.39265 0.0
N918 N 0.89196 0.24318 0.32953 0.0
N919 N 0.91273 0.22293 0.3381 0.0
C920 C 0.90833 0.22689 0.26418 0.0
C921 C 0.89698 0.23774 0.2595 0.0
C922 C 0.78554 0.66373 0.25078 0.0
C923 C 0.77976 0.65361 0.17679 0.0
C924 C 0.79619 0.68554 0.25621 0.0
C925 C 0.80196 0.69795 0.18774 0.0
H926 H 0.78172 0.65471 0.3049 0.0
H927 H 0.80048 0.69273 0.31421 0.0
S928 S 0.79042 0.67917 0.98016 0.0
N929 N 0.78017 0.6577 0.03389 0.0
N930 N 0.80086 0.69866 0.04396 0.0
C931 C 0.79624 0.68805 0.11353 0.0
C932 C 0.78494 0.66588 0.10809 0.0
C933 C 0.11903 0.33147 0.77802 0.0
C934 C 0.11252 0.31903 0.84641 0.0
C935 C 0.13009 0.35328 0.7836 0.0
C936 C 0.13444 0.36337 0.85765 0.0
H937 H 0.11612 0.32432 0.71996 0.0
H938 H 0.13523 0.36231 0.7295 0.0
S939 S 0.11977 0.33775 0.05415 0.0
N940 N 0.11077 0.31829 0.99026 0.0
N941 N 0.13086 0.35924 1.00053 0.0
C942 C 0.12744 0.35108 0.92629 0.0
C943 C 0.11667 0.32891 0.92071 0.0
C944 C 0.69018 0.78977 0.77817 0.0
C945 C 0.70259 0.79561 0.84669 0.0
C946 C 0.66837 0.77928 0.78351 0.0
C947 C 0.65822 0.77372 0.85747 0.0
H948 H 0.69738 0.79393 0.72018 0.0
H949 H 0.65938 0.77548 0.72932 0.0
S950 S 0.68372 0.7845 0.05426 0.0
N951 N 0.70323 0.79469 0.99055 0.0
N952 N 0.66226 0.77431 1.00041 0.0
C953 C 0.67047 0.77888 0.92624 0.0
C954 C 0.69265 0.79002 0.92089 0.0
C955 C 0.23008 0.90161 0.77659 0.0
C956 C 0.22501 0.90907 0.84467 0.0
C957 C 0.24048 0.89019 0.78256 0.0
C958 C 0.2467 0.88641 0.85661 0.0
H959 H 0.22544 0.90409 0.7186 0.0
H960 H 0.24375 0.88436 0.72879 0.0
S961 S 0.23794 0.90351 0.05218 0.0
N962 N 0.22728 0.91225 0.98809 0.0
N963 N 0.24747 0.89148 0.99906 0.0
C964 C 0.24224 0.89432 0.92483 0.0
C965 C 0.2312 0.90546 0.91892 0.0
C966 C 0.68921 0.90235 0.77361 0.0
C967 C 0.70171 0.90947 0.84179 0.0
C968 C 0.66739 0.89118 0.77948 0.0
C969 C 0.65737 0.8873 0.85357 0.0
H970 H 0.69633 0.9049 0.7156 0.0
H971 H 0.65831 0.88559 0.72563 0.0
S972 S 0.68323 0.90359 0.04943 0.0
N973 N 0.70262 0.91226 0.98531 0.0
N974 N 0.66168 0.89195 0.99621 0.0
C975 C 0.66975 0.8949 0.92192 0.0
C976 C 0.69191 0.90578 0.91606 0.0
C977 C 0.11966 0.79128 0.77998 0.0
C978 C 0.11264 0.79684 0.84805 0.0
C979 C 0.13095 0.78075 0.78607 0.0
C980 C 0.13503 0.77487 0.86029 0.0
H981 H 0.11692 0.7956 0.72181 0.0
H982 H 0.13644 0.77709 0.73226 0.0
S983 S 0.11915 0.78499 0.05604 0.0
N984 N 0.11022 0.79542 0.99174 0.0
N985 N 0.13074 0.77498 1.00295 0.0
C986 C 0.12758 0.77985 0.92857 0.0
C987 C 0.11658 0.79102 0.9225 0.0
C988 C 0.21303 0.33126 0.84297 0.0
C989 C 0.22371 0.32009 0.83696 0.0
C990 C 0.2238 0.35295 0.85195 0.0
C991 C 0.24564 0.36426 0.85758 0.0
H992 H 0.19619 0.32319 0.83991 0.0
H993 H 0.21492 0.36092 0.85539 0.0
S994 S 0.28093 0.34237 0.84664 0.0
N995 N 0.25737 0.32194 0.8372 0.0
N996 N 0.2776 0.36268 0.85644 0.0
C997 C 0.25652 0.35327 0.85257 0.0
C998 C 0.24556 0.33121 0.84149 0.0
C999 C 0.90894 0.68502 0.12209 0.0
C1000 C 0.91432 0.69522 0.19592 0.0
C1001 C 0.89831 0.66322 0.11705 0.0
C1002 C 0.89212 0.65086 0.18571 0.0
H1003 H 0.913 0.69398 0.06775 0.0
H1004 H 0.89433 0.656 0.05905 0.0
S1005 S 0.90261 0.66994 0.39314 0.0
N1006 N 0.91318 0.69134 0.33897 0.0
N1007 N 0.8925 0.65036 0.3297 0.0
C1008 C 0.8975 0.66086 0.25985 0.0
C1009 C 0.90881 0.68305 0.26491 0.0
C1010 C 0.35808 0.24982 0.1792 0.0
C1011 C 0.36931 0.23918 0.17346 0.0
C1012 C 0.33636 0.23895 0.18954 0.0
C1013 C 0.32507 0.21707 0.19245 0.0
H1014 H 0.36617 0.26666 0.17734 0.0
H1015 H 0.32831 0.24774 0.19376 0.0
S1016 S 0.34713 0.18192 0.17874 0.0
N1017 N 0.36752 0.20555 0.17139 0.0
N1018 N 0.32677 0.18517 0.18854 0.0
C1019 C 0.33612 0.20627 0.18589 0.0
C1020 C 0.35821 0.21732 0.17701 0.0
C1021 C 0.78445 0.12515 0.24871 0.0
C1022 C 0.77876 0.12967 0.1749 0.0
C1023 C 0.79499 0.11386 0.25378 0.0
C1024 C 0.80076 0.10725 0.18512 0.0
H1025 H 0.78068 0.13034 0.30303 0.0
H1026 H 0.7992 0.11083 0.31169 0.0
S1027 S 0.78932 0.11484 0.97781 0.0
N1028 N 0.77918 0.12613 0.03193 0.0
N1029 N 0.79963 0.10559 0.04126 0.0
C1030 C 0.79506 0.11156 0.11105 0.0
C1031 C 0.78387 0.12257 0.10598 0.0
C1032 C 0.02584 0.45934 0.58305 0.0
C1033 C 0.03568 0.46378 0.50852 0.0
C1034 C 1.00406 0.44811 0.58964 0.0
C1035 C 0.99139 0.4415 0.52184 0.0
H1036 H 0.03505 0.46452 0.63675 0.0
H1037 H 0.9971 0.44511 0.64807 0.0
S1038 S 1.00942 0.44896 0.31318 0.0
N1039 N 0.03109 0.46021 0.36578 0.0
N1040 N 0.99016 0.4398 0.378 0.0
C1041 C 1.00102 0.44577 0.44704 0.0
C1042 C 0.02318 0.45671 0.44041 0.0
C1043 C 0.57406 0.55772 0.44941 0.0
C1044 C 0.57984 0.55354 0.52368 0.0
C1045 C 0.56359 0.56906 0.4433 0.0
C1046 C 0.55801 0.57606 0.51138 0.0
H1047 H 0.57774 0.55225 0.39559 0.0
H1048 H 0.55928 0.57183 0.38513 0.0
S1049 S 0.56965 0.56937 0.71942 0.0
N1050 N 0.57965 0.55777 0.66637 0.0
N1051 N 0.5593 0.57838 0.65506 0.0
C1052 C 0.56375 0.57205 0.58585 0.0
C1053 C 0.57486 0.561 0.59196 0.0
C1054 C 0.46268 0.01963 0.45541 0.0
C1055 C 0.46726 0.02964 0.52964 0.0
C1056 C 0.45155 0.99785 0.44949 0.0
C1057 C 0.44518 0.9853 0.51764 0.0
H1058 H 0.46767 0.02873 0.40141 0.0
H1059 H 0.44843 0.99077 0.39123 0.0
S1060 S 0.4531 1.00381 0.7258 0.0
N1061 N 0.46408 0.02536 0.67251 0.0
N1062 N 0.44387 0.98441 0.66157 0.0
C1063 C 0.4496 0.9951 0.59217 0.0
C1064 C 0.46043 0.01728 0.59813 0.0
C1065 C 0.57474 0.02046 0.45505 0.0
C1066 C 0.58036 0.0307 0.5288 0.0
C1067 C 0.56426 0.99865 0.45008 0.0
C1068 C 0.55846 0.98632 0.51877 0.0
H1069 H 0.57853 0.02939 0.4007 0.0
H1070 H 0.56012 0.9914 0.39216 0.0
S1071 S 0.56967 1.00546 0.726 0.0
N1072 N 0.57984 0.02684 0.67181 0.0
N1073 N 0.55942 0.98586 0.66265 0.0
C1074 C 0.56405 0.99634 0.59282 0.0
C1075 C 0.57521 0.01854 0.59779 0.0
C1076 C 1.00242 0.54125 0.52558 0.0
C1077 C 0.99107 0.55181 0.52794 0.0
C1078 C 0.02417 0.5521 0.51871 0.0
C1079 C 0.03539 0.57391 0.51169 0.0
H1080 H 0.99442 0.52443 0.5299 0.0
H1081 H 0.03224 0.54331 0.5178 0.0
S1082 S 1.01306 0.6089 0.51362 0.0
N1083 N 0.99267 0.58532 0.52313 0.0
N1084 N 0.03354 0.60572 0.50777 0.0
C1085 C 0.02424 0.58467 0.51323 0.0
C1086 C 1.0021 0.57363 0.52216 0.0
C1087 C 0.46956 0.4755 0.51121 0.0
C1088 C 0.44769 0.46485 0.50657 0.0
C1089 C 0.48047 0.46473 0.52092 0.0
C1090 C 0.46994 0.44294 0.52867 0.0
H1091 H 0.47833 0.49231 0.50648 0.0
H1092 H 0.49732 0.47358 0.52321 0.0
S1093 S 0.41274 0.40777 0.52201 0.0
N1094 N 0.41587 0.43128 0.5104 0.0
N1095 N 0.43638 0.41106 0.53105 0.0
C1096 C 0.44806 0.4321 0.52508 0.0
C1097 C 0.43695 0.44304 0.51324 0.0
C1098 C 0.26952 0.12731 0.36623 0.0
C1099 C 0.25755 0.11153 0.31112 0.0
C1100 C 0.26978 0.14646 0.36567 0.0
C1101 C 0.25806 0.15047 0.30999 0.0
H1102 H 0.27906 0.12504 0.40912 0.0
H1103 H 0.2795 0.1583 0.40816 0.0
S1104 S 0.22274 0.11358 0.15748 0.0
N1105 N 0.23272 0.10085 0.20255 0.0
N1106 N 0.23319 0.13647 0.2015 0.0
C1107 C 0.24561 0.13456 0.25613 0.0
C1108 C 0.24536 0.1152 0.2567 0.0
C1109 C 0.87585 0.12685 0.3658 0.0
C1110 C 0.87165 0.11139 0.3086 0.0
C1111 C 0.89495 0.14577 0.36638 0.0
C1112 C 0.91052 0.14989 0.30977 0.0
H1113 H 0.86421 0.12448 0.40967 0.0
H1114 H 0.89738 0.15735 0.41063 0.0
S1115 S 0.90791 0.11384 0.15129 0.0
N1116 N 0.88524 0.10114 0.19668 0.0
N1117 N 0.92077 0.13633 0.19778 0.0
C1118 C 0.90665 0.13431 0.25363 0.0
C1119 C 0.88733 0.11517 0.25303 0.0
C1120 C 0.90478 0.77076 0.2541 0.0
C1121 C 0.90978 0.76119 0.31549 0.0
C1122 C 0.8861 0.77113 0.25416 0.0
C1123 C 0.87146 0.76193 0.31556 0.0
H1124 H 0.91539 0.77811 0.20506 0.0
H1125 H 0.88318 0.77874 0.20514 0.0
S1126 S 0.87685 0.73475 0.49072 0.0
N1127 N 0.89848 0.74222 0.43988 0.0
N1128 N 0.86324 0.7429 0.43996 0.0
C1129 C 0.8762 0.75232 0.37774 0.0
C1130 C 0.89537 0.75196 0.37771 0.0
C1131 C 0.13248 0.26458 0.66493 0.0
C1132 C 0.11679 0.25258 0.72035 0.0
C1133 C 0.15158 0.26473 0.66433 0.0
C1134 C 0.15565 0.25287 0.71909 0.0
H1135 H 0.13016 0.27424 0.62275 0.0
H1136 H 0.16336 0.27451 0.62176 0.0
S1137 S 0.11895 0.2173 0.8715 0.0
N1138 N 0.10622 0.2275 0.82793 0.0
N1139 N 0.14173 0.22774 0.82674 0.0
C1140 C 0.1398 0.24035 0.77307 0.0
C1141 C 0.1205 0.24021 0.77372 0.0
C1142 C 0.77588 0.88042 0.77937 0.0
C1143 C 0.76659 0.86576 0.71806 0.0
C1144 C 0.7759 0.8993 0.77872 0.0
C1145 C 0.76662 0.90448 0.71675 0.0
H1146 H 0.78328 0.87737 0.82878 0.0
H1147 H 0.78332 0.90992 0.8277 0.0
S1148 S 0.74008 0.87157 0.54151 0.0
N1149 N 0.74779 0.85772 0.59312 0.0
N1150 N 0.74782 0.89332 0.59195 0.0
C1151 C 0.75728 0.89003 0.65468 0.0
C1152 C 0.75726 0.87067 0.65534 0.0
C1153 C 0.15076 0.89016 0.6661 0.0
C1154 C 0.15483 0.90578 0.72235 0.0
C1155 C 0.1318 0.87111 0.66645 0.0
C1156 C 0.11624 0.86703 0.72306 0.0
H1157 H 0.16242 0.89248 0.62238 0.0
H1158 H 0.12947 0.85941 0.62293 0.0
S1159 S 0.11851 0.90351 0.87902 0.0
N1160 N 0.14111 0.91625 0.8332 0.0
N1161 N 0.10583 0.88081 0.83387 0.0
C1162 C 0.11996 0.88278 0.77817 0.0
C1163 C 0.13914 0.90205 0.7778 0.0
C1164 C 0.91694 0.45047 0.59329 0.0
C1165 C 0.92694 0.44574 0.65384 0.0
C1166 C 0.91699 0.46934 0.59202 0.0
C1167 C 0.92704 0.48448 0.65127 0.0
H1168 H 0.90895 0.4395 0.54581 0.0
H1169 H 0.90902 0.47203 0.54365 0.0
S1170 S 0.95554 0.47994 0.82376 0.0
N1171 N 0.94718 0.45781 0.77532 0.0
N1172 N 0.94726 0.49343 0.77296 0.0
C1173 C 0.93704 0.48001 0.71275 0.0
C1174 C 0.93699 0.46064 0.71403 0.0
C1175 C 0.54243 0.4609 0.70374 0.0
C1176 C 0.53847 0.44502 0.64877 0.0
C1177 C 0.56144 0.47992 0.70318 0.0
C1178 C 0.57716 0.48374 0.64761 0.0
H1179 H 0.53065 0.45879 0.74654 0.0
H1180 H 0.56367 0.49183 0.74556 0.0
S1181 S 0.57523 0.44655 0.49555 0.0
N1182 N 0.55249 0.43406 0.54051 0.0
N1183 N 0.58783 0.46944 0.53944 0.0
C1184 C 0.57354 0.46774 0.59393 0.0
C1185 C 0.55432 0.4485 0.59452 0.0
C1186 C 0.56127 0.08607 0.70261 0.0
C1187 C 0.57691 0.098 0.64695 0.0
C1188 C 0.54212 0.08582 0.70291 0.0
C1189 C 0.53796 0.09749 0.64754 0.0
H1190 H 0.56365 0.07653 0.74517 0.0
H1191 H 0.53037 0.07611 0.74571 0.0
S1192 S 0.57452 0.13285 0.49441 0.0
N1193 N 0.58735 0.12285 0.53862 0.0
N1194 N 0.55172 0.12239 0.53914 0.0
C1195 C 0.55375 0.10995 0.59332 0.0
C1196 C 0.57311 0.1102 0.59304 0.0
C1197 C 0.79825 0.59814 1.00053 0.0
C1198 C 0.78241 0.58637 0.05574 0.0
C1199 C 0.81721 0.59798 1.00076 0.0
C1200 C 0.82098 0.58605 0.05621 0.0
H1201 H 0.79616 0.60781 0.95773 0.0
H1202 H 0.82908 0.60752 0.95809 0.0
S1203 S 0.78384 0.55116 0.20906 0.0
N1204 N 0.77143 0.56153 0.16429 0.0
N1205 N 0.80665 0.56122 0.16475 0.0
C1206 C 0.80501 0.57382 0.11025 0.0
C1207 C 0.78585 0.57399 0.11001 0.0
C1208 C 0.42405 0.20465 1.00338 0.0
C1209 C 0.43576 0.20063 0.05908 0.0
C1210 C 0.42421 0.22375 1.00308 0.0
C1211 C 0.43611 0.23951 0.0584 0.0
H1212 H 0.41439 0.19284 0.9607 0.0
H1213 H 0.41466 0.22602 0.96023 0.0
S1214 S 0.47089 0.23742 0.21217 0.0
N1215 N 0.46052 0.21458 0.16787 0.0
N1216 N 0.46089 0.25015 0.16717 0.0
C1217 C 0.44831 0.23583 0.11281 0.0
C1218 C 0.44812 0.2165 0.11319 0.0
C1219 C 0.79887 0.2051 1.00186 0.0
C1220 C 0.78324 0.201 0.05818 0.0
C1221 C 0.81792 0.22407 1.00229 0.0
C1222 C 0.82202 0.23961 0.05899 0.0
H1223 H 0.79652 0.19347 0.95796 0.0
H1224 H 0.82962 0.22641 0.95871 0.0
S1225 S 0.78557 0.23723 0.21535 0.0
N1226 N 0.77283 0.21465 0.16938 0.0
N1227 N 0.80826 0.24995 0.17008 0.0
C1228 C 0.80627 0.23585 0.11421 0.0
C1229 C 0.78701 0.21665 0.11383 0.0
C1230 C 0.60324 0.79421 0.03323 0.0
C1231 C 0.59152 0.77856 0.97727 0.0
C1232 C 0.60318 0.81321 0.03382 0.0
C1233 C 0.59137 0.81721 0.97855 0.0
H1234 H 0.6128 0.79193 0.076 0.0
H1235 H 0.6127 0.82495 0.07699 0.0
S1236 S 0.55664 0.78061 0.82397 0.0
N1237 N 0.56688 0.768 0.86814 0.0
N1238 N 0.56669 0.80328 0.86938 0.0
C1239 C 0.57918 0.80142 0.9238 0.0
C1240 C 0.57928 0.78223 0.92312 0.0
C1241 C 0.21886 0.78342 0.92605 0.0
C1242 C 0.20403 0.77866 0.98633 0.0
C1243 C 0.23772 0.80227 0.92531 0.0
C1244 C 0.24274 0.81734 0.98482 0.0
H1245 H 0.21591 0.7725 0.8784 0.0
H1246 H 0.24845 0.80501 0.87713 0.0
S1247 S 0.20939 0.81271 0.15657 0.0
N1248 N 0.19569 0.79065 0.10771 0.0
N1249 N 0.23126 0.82619 0.10633 0.0
C1250 C 0.22816 0.81282 0.04599 0.0
C1251 C 0.20881 0.79349 0.04674 0.0
C1252 C 0.20902 0.41869 0.03239 0.0
C1253 C 0.20508 0.43052 0.977 0.0
C1254 C 0.2281 0.41879 0.03259 0.0
C1255 C 0.24389 0.43073 0.97748 0.0
H1256 H 0.19717 0.409 0.07488 0.0
H1257 H 0.23032 0.40916 0.0752 0.0
S1258 S 0.24202 0.46586 0.8248 0.0
N1259 N 0.21916 0.45547 0.86891 0.0
N1260 N 0.25466 0.45571 0.86941 0.0
C1261 C 0.24029 0.44306 0.92346 0.0
C1262 C 0.22099 0.44294 0.92318 0.0
C1263 C 0.4654 0.93202 0.33334 0.0
C1264 C 0.44942 0.91964 0.38721 0.0
C1265 C 0.48454 0.93223 0.33366 0.0
C1266 C 0.48836 0.92008 0.38785 0.0
H1267 H 0.46328 0.94191 0.29171 0.0
H1268 H 0.49654 0.94228 0.29228 0.0
S1269 S 0.45088 0.88353 0.5362 0.0
N1270 N 0.43834 0.89392 0.49263 0.0
N1271 N 0.47391 0.8943 0.49322 0.0
C1272 C 0.47223 0.9072 0.44024 0.0
C1273 C 0.45289 0.90698 0.43993 0.0
C1274 C 0.09045 0.55696 0.33443 0.0
C1275 C 0.10223 0.57267 0.39009 0.0
C1276 C 0.09063 0.53803 0.33371 0.0
C1277 C 0.10259 0.53414 0.38866 0.0
H1278 H 0.08073 0.55913 0.29208 0.0
H1279 H 0.08104 0.52623 0.29085 0.0
S1280 S 0.13758 0.57092 0.54208 0.0
N1281 N 0.12718 0.58343 0.4983 0.0
N1282 N 0.12749 0.5482 0.49698 0.0
C1283 C 0.11486 0.54998 0.44301 0.0
C1284 C 0.11469 0.56914 0.44371 0.0
C1285 C 0.47404 0.56582 0.44402 0.0
C1286 C 0.48878 0.57109 0.38307 0.0
C1287 C 0.45532 0.54685 0.44397 0.0
C1288 C 0.45037 0.53216 0.383 0.0
H1289 H 0.47692 0.57644 0.49273 0.0
H1290 H 0.44463 0.54373 0.49266 0.0
S1291 S 0.48355 0.5382 0.20896 0.0
N1292 N 0.49714 0.56 0.25947 0.0
N1293 N 0.46182 0.52421 0.25942 0.0
C1294 C 0.46489 0.53717 0.32123 0.0
C1295 C 0.48409 0.55664 0.32126 0.0
loop_
_geom_bond_atom_site_label_1
_geom_bond_atom_site_label_2
_geom_bond_distance
_geom_bond_site_symmetry_2
_ccdc_geom_bond_type
Co0 O1 2.216 . S
Co0 O2 2.091 . S
Co0 O4 2.004 . S
Co0 O10 2.021 . S
Co0 O12 2.137 . S
Co0 O13 2.244 . S
O1 Co0 2.216 . S
O1 C8 1.247 . S
O2 Co0 2.091 . S
O2 C8 1.261 . S
C3 O12 1.247 . S
C3 O13 1.272 . S
O4 Co0 2.004 . S
O4 C9 1.259 . S
Co5 O6 2.061 . S
Co5 O11 2.052 . S
Co5 O13 2.135 . S
O6 Co5 2.061 . S
O6 C9 1.235 . S
C7 O10 1.238 . S
C7 O11 1.241 . S
C8 O1 1.247 . S
C8 O2 1.261 . S
C9 O4 1.259 . S
C9 O6 1.235 . S
O10 Co0 2.021 . S
O10 C7 1.238 . S
O11 Co5 2.052 . S
O11 C7 1.241 . S
O12 Co0 2.137 . S
O12 C3 1.247 . S
O13 Co0 2.244 . S
O13 C3 1.272 . S
O13 Co5 2.135 . S
Co14 O15 2.216 . S
Co14 O16 2.091 . S
Co14 O18 2.004 . S
Co14 O24 2.021 . S
Co14 O26 2.137 . S
Co14 O27 2.244 . S
O15 Co14 2.216 . S
O15 C22 1.247 . S
O16 Co14 2.091 . S
O16 C22 1.261 . S
C17 O26 1.247 . S
C17 O27 1.272 . S
O18 Co14 2.004 . S
O18 C23 1.259 . S
Co19 O20 2.061 . S
Co19 O25 2.052 . S
Co19 O27 2.135 . S
O20 Co19 2.061 . S
O20 C23 1.235 . S
C21 O24 1.238 . S
C21 O25 1.241 . S
C22 O15 1.247 . S
C22 O16 1.261 . S
C23 O18 1.259 . S
C23 O20 1.235 . S
O24 Co14 2.021 . S
O24 C21 1.238 . S
O25 Co19 2.052 . S
O25 C21 1.241 . S
O26 Co14 2.137 . S
O26 C17 1.247 . S
O27 Co14 2.244 . S
O27 C17 1.272 . S
O27 Co19 2.135 . S
Co28 O29 2.216 . S
Co28 O30 2.091 . S
Co28 O32 2.004 . S
Co28 O38 2.021 . S
Co28 O40 2.137 . S
Co28 O41 2.244 . S
O29 Co28 2.216 . S
O29 C36 1.247 . S
O30 Co28 2.091 . S
O30 C36 1.261 . S
C31 O40 1.247 . S
C31 O41 1.272 . S
O32 Co28 2.004 . S
O32 C37 1.259 . S
Co33 O34 2.061 . S
Co33 O39 2.052 . S
Co33 O41 2.135 . S
O34 Co33 2.061 . S
O34 C37 1.235 . S
C35 O38 1.238 . S
C35 O39 1.241 . S
C36 O29 1.247 . S
C36 O30 1.261 . S
C37 O32 1.259 . S
C37 O34 1.235 . S
O38 Co28 2.021 . S
O38 C35 1.238 . S
O39 Co33 2.052 . S
O39 C35 1.241 . S
O40 Co28 2.137 . S
O40 C31 1.247 . S
O41 Co28 2.244 . S
O41 C31 1.272 . S
O41 Co33 2.135 . S
Co42 O43 2.216 . S
Co42 O44 2.091 . S
Co42 O46 2.004 . S
Co42 O52 2.021 . S
Co42 O54 2.137 . S
Co42 O55 2.244 . S
O43 Co42 2.216 . S
O43 C50 1.247 . S
O44 Co42 2.091 . S
O44 C50 1.261 . S
C45 O54 1.247 . S
C45 O55 1.272 . S
O46 Co42 2.004 . S
O46 C51 1.259 . S
Co47 O48 2.061 . S
Co47 O53 2.052 . S
Co47 O55 2.135 . S
O48 Co47 2.061 . S
O48 C51 1.235 . S
C49 O52 1.238 . S
C49 O53 1.241 . S
C50 O43 1.247 . S
C50 O44 1.261 . S
C51 O46 1.259 . S
C51 O48 1.235 . S
O52 Co42 2.021 . S
O52 C49 1.238 . S
O53 Co47 2.052 . S
O53 C49 1.241 . S
O54 Co42 2.137 . S
O54 C45 1.247 . S
O55 Co42 2.244 . S
O55 C45 1.272 . S
O55 Co47 2.135 . S
Co56 O57 2.216 . S
Co56 O58 2.091 . S
Co56 O60 2.004 . S
Co56 O66 2.021 . S
Co56 O68 2.137 . S
Co56 O69 2.244 . S
O57 Co56 2.216 . S
O57 C64 1.247 . S
O58 Co56 2.091 . S
O58 C64 1.261 . S
C59 O68 1.247 . S
C59 O69 1.272 . S
O60 Co56 2.004 . S
O60 C65 1.259 . S
Co61 O62 2.061 . S
Co61 O67 2.052 . S
Co61 O69 2.135 . S
O62 Co61 2.061 . S
O62 C65 1.235 . S
C63 O66 1.238 . S
C63 O67 1.241 . S
C64 O57 1.247 . S
C64 O58 1.261 . S
C65 O60 1.259 . S
C65 O62 1.235 . S
O66 Co56 2.021 . S
O66 C63 1.238 . S
O67 Co61 2.052 . S
O67 C63 1.241 . S
O68 Co56 2.137 . S
O68 C59 1.247 . S
O69 Co56 2.244 . S
O69 C59 1.272 . S
O69 Co61 2.135 . S
Co70 O71 2.216 . S
Co70 O72 2.091 . S
Co70 O74 2.004 . S
Co70 O80 2.021 . S
Co70 O82 2.137 . S
Co70 O83 2.244 . S
O71 Co70 2.216 . S
O71 C78 1.247 . S
O72 Co70 2.091 . S
O72 C78 1.261 . S
C73 O82 1.247 . S
C73 O83 1.272 . S
O74 Co70 2.004 . S
O74 C79 1.259 . S
Co75 O76 2.061 . S
Co75 O81 2.052 . S
Co75 O83 2.135 . S
O76 Co75 2.061 . S
O76 C79 1.235 . S
C77 O80 1.238 . S
C77 O81 1.241 . S
C78 O71 1.247 . S
C78 O72 1.261 . S
C79 O74 1.259 . S
C79 O76 1.235 . S
O80 Co70 2.021 . S
O80 C77 1.238 . S
O81 Co75 2.052 . S
O81 C77 1.241 . S
O82 Co70 2.137 . S
O82 C73 1.247 . S
O83 Co70 2.244 . S
O83 C73 1.272 . S
O83 Co75 2.135 . S
Co84 O85 2.216 . S
Co84 O86 2.091 . S
Co84 O88 2.004 . S
Co84 O94 2.021 . S
Co84 O96 2.137 . S
Co84 O97 2.244 . S
O85 Co84 2.216 . S
O85 C92 1.247 . S
O86 Co84 2.091 . S
O86 C92 1.261 . S
C87 O96 1.247 . S
C87 O97 1.272 . S
O88 Co84 2.004 . S
O88 C93 1.259 . S
Co89 O90 2.061 . S
Co89 O95 2.052 . S
Co89 O97 2.135 . S
O90 Co89 2.061 . S
O90 C93 1.235 . S
C91 O94 1.238 . S
C91 O95 1.241 . S
C92 O85 1.247 . S
C92 O86 1.261 . S
C93 O88 1.259 . S
C93 O90 1.235 . S
O94 Co84 2.021 . S
O94 C91 1.238 . S
O95 Co89 2.052 . S
O95 C91 1.241 . S
O96 Co84 2.137 . S
O96 C87 1.247 . S
O97 Co84 2.244 . S
O97 C87 1.272 . S
O97 Co89 2.135 . S
Co98 O99 2.216 . S
Co98 O100 2.091 . S
Co98 O102 2.004 . S
Co98 O108 2.021 . S
Co98 O110 2.137 . S
Co98 O111 2.244 . S
O99 Co98 2.216 . S
O99 C106 1.247 . S
O100 Co98 2.091 . S
O100 C106 1.261 . S
C101 O110 1.247 . S
C101 O111 1.272 . S
O102 Co98 2.004 . S
O102 C107 1.259 . S
Co103 O104 2.061 . S
Co103 O109 2.052 . S
Co103 O111 2.135 . S
O104 Co103 2.061 . S
O104 C107 1.235 . S
C105 O108 1.238 . S
C105 O109 1.241 . S
C106 O99 1.247 . S
C106 O100 1.261 . S
C107 O102 1.259 . S
C107 O104 1.235 . S
O108 Co98 2.021 . S
O108 C105 1.238 . S
O109 Co103 2.052 . S
O109 C105 1.241 . S
O110 Co98 2.137 . S
O110 C101 1.247 . S
O111 Co98 2.244 . S
O111 C101 1.272 . S
O111 Co103 2.135 . S
Co112 O113 2.216 . S
Co112 O114 2.091 . S
Co112 O116 2.004 . S
Co112 O122 2.021 . S
Co112 O124 2.137 . S
Co112 O125 2.244 . S
O113 Co112 2.216 . S
O113 C120 1.247 . S
O114 Co112 2.091 . S
O114 C120 1.261 . S
C115 O124 1.247 . S
C115 O125 1.272 . S
O116 Co112 2.004 . S
O116 C121 1.259 . S
Co117 O118 2.061 . S
Co117 O123 2.052 . S
Co117 O125 2.135 . S
O118 Co117 2.061 . S
O118 C121 1.235 . S
C119 O122 1.238 . S
C119 O123 1.241 . S
C120 O113 1.247 . S
C120 O114 1.261 . S
C121 O116 1.259 . S
C121 O118 1.235 . S
O122 Co112 2.021 . S
O122 C119 1.238 . S
O123 Co117 2.052 . S
O123 C119 1.241 . S
O124 Co112 2.137 . S
O124 C115 1.247 . S
O125 Co112 2.244 . S
O125 C115 1.272 . S
O125 Co117 2.135 . S
Co126 O127 2.216 . S
Co126 O128 2.091 . S
Co126 O130 2.004 . S
Co126 O136 2.021 . S
Co126 O138 2.137 . S
Co126 O139 2.244 . S
O127 Co126 2.216 . S
O127 C134 1.247 . S
O128 Co126 2.091 . S
O128 C134 1.261 . S
C129 O138 1.247 . S
C129 O139 1.272 . S
O130 Co126 2.004 . S
O130 C135 1.259 . S
Co131 O132 2.061 . S
Co131 O137 2.052 . S
Co131 O139 2.135 . S
O132 Co131 2.061 . S
O132 C135 1.235 . S
C133 O136 1.238 . S
C133 O137 1.241 . S
C134 O127 1.247 . S
C134 O128 1.261 . S
C135 O130 1.259 . S
C135 O132 1.235 . S
O136 Co126 2.021 . S
O136 C133 1.238 . S
O137 Co131 2.052 . S
O137 C133 1.241 . S
O138 Co126 2.137 . S
O138 C129 1.247 . S
O139 Co126 2.244 . S
O139 C129 1.272 . S
O139 Co131 2.135 . S
Co140 O141 2.216 . S
Co140 O142 2.091 . S
Co140 O144 2.004 . S
Co140 O150 2.021 . S
Co140 O152 2.137 . S
Co140 O153 2.244 . S
O141 Co140 2.216 . S
O141 C148 1.247 . S
O142 Co140 2.091 . S
O142 C148 1.261 . S
C143 O152 1.247 . S
C143 O153 1.272 . S
O144 Co140 2.004 . S
O144 C149 1.259 . S
Co145 O146 2.061 . S
Co145 O151 2.052 . S
Co145 O153 2.135 . S
O146 Co145 2.061 . S
O146 C149 1.235 . S
C147 O150 1.238 . S
C147 O151 1.241 . S
C148 O141 1.247 . S
C148 O142 1.261 . S
C149 O144 1.259 . S
C149 O146 1.235 . S
O150 Co140 2.021 . S
O150 C147 1.238 . S
O151 Co145 2.052 . S
O151 C147 1.241 . S
O152 Co140 2.137 . S
O152 C143 1.247 . S
O153 Co140 2.244 . S
O153 C143 1.272 . S
O153 Co145 2.135 . S
Co154 O155 2.216 . S
Co154 O156 2.091 . S
Co154 O158 2.004 . S
Co154 O164 2.021 . S
Co154 O166 2.137 . S
Co154 O167 2.244 . S
O155 Co154 2.216 . S
O155 C162 1.247 . S
O156 Co154 2.091 . S
O156 C162 1.261 . S
C157 O166 1.247 . S
C157 O167 1.272 . S
O158 Co154 2.004 . S
O158 C163 1.259 . S
Co159 O160 2.061 . S
Co159 O165 2.052 . S
Co159 O167 2.135 . S
O160 Co159 2.061 . S
O160 C163 1.235 . S
C161 O164 1.238 . S
C161 O165 1.241 . S
C162 O155 1.247 . S
C162 O156 1.261 . S
C163 O158 1.259 . S
C163 O160 1.235 . S
O164 Co154 2.021 . S
O164 C161 1.238 . S
O165 Co159 2.052 . S
O165 C161 1.241 . S
O166 Co154 2.137 . S
O166 C157 1.247 . S
O167 Co154 2.244 . S
O167 C157 1.272 . S
O167 Co159 2.135 . S
Co168 O169 2.216 . S
Co168 O170 2.091 . S
Co168 O172 2.004 . S
Co168 O178 2.021 . S
Co168 O180 2.137 . S
Co168 O181 2.244 . S
O169 Co168 2.216 . S
O169 C176 1.247 . S
O170 Co168 2.091 . S
O170 C176 1.261 . S
C171 O180 1.247 . S
C171 O181 1.272 . S
O172 Co168 2.004 . S
O172 C177 1.259 . S
Co173 O174 2.061 . S
Co173 O179 2.052 . S
Co173 O181 2.135 . S
O174 Co173 2.061 . S
O174 C177 1.235 . S
C175 O178 1.238 . S
C175 O179 1.241 . S
C176 O169 1.247 . S
C176 O170 1.261 . S
C177 O172 1.259 . S
C177 O174 1.235 . S
O178 Co168 2.021 . S
O178 C175 1.238 . S
O179 Co173 2.052 . S
O179 C175 1.241 . S
O180 Co168 2.137 . S
O180 C171 1.247 . S
O181 Co168 2.244 . S
O181 C171 1.272 . S
O181 Co173 2.135 . S
Co182 O183 2.216 . S
Co182 O184 2.091 . S
Co182 O186 2.004 . S
Co182 O192 2.021 . S
Co182 O194 2.137 . S
Co182 O195 2.244 . S
O183 Co182 2.216 . S
O183 C190 1.247 . S
O184 Co182 2.091 . S
O184 C190 1.261 . S
C185 O194 1.247 . S
C185 O195 1.272 . S
O186 Co182 2.004 . S
O186 C191 1.259 . S
Co187 O188 2.061 . S
Co187 O193 2.052 . S
Co187 O195 2.135 . S
O188 Co187 2.061 . S
O188 C191 1.235 . S
C189 O192 1.238 . S
C189 O193 1.241 . S
C190 O183 1.247 . S
C190 O184 1.261 . S
C191 O186 1.259 . S
C191 O188 1.235 . S
O192 Co182 2.021 . S
O192 C189 1.238 . S
O193 Co187 2.052 . S
O193 C189 1.241 . S
O194 Co182 2.137 . S
O194 C185 1.247 . S
O195 Co182 2.244 . S
O195 C185 1.272 . S
O195 Co187 2.135 . S
Co196 O197 2.216 . S
Co196 O198 2.091 . S
Co196 O200 2.004 . S
Co196 O206 2.021 . S
Co196 O208 2.137 . S
Co196 O209 2.244 . S
O197 Co196 2.216 . S
O197 C204 1.247 . S
O198 Co196 2.091 . S
O198 C204 1.261 . S
C199 O208 1.247 . S
C199 O209 1.272 . S
O200 Co196 2.004 . S
O200 C205 1.259 . S
Co201 O202 2.061 . S
Co201 O207 2.052 . S
Co201 O209 2.135 . S
O202 Co201 2.061 . S
O202 C205 1.235 . S
C203 O206 1.238 . S
C203 O207 1.241 . S
C204 O197 1.247 . S
C204 O198 1.261 . S
C205 O200 1.259 . S
C205 O202 1.235 . S
O206 Co196 2.021 . S
O206 C203 1.238 . S
O207 Co201 2.052 . S
O207 C203 1.241 . S
O208 Co196 2.137 . S
O208 C199 1.247 . S
O209 Co196 2.244 . S
O209 C199 1.272 . S
O209 Co201 2.135 . S
Co210 O211 2.216 . S
Co210 O212 2.091 1_554 S
Co210 O214 2.004 . S
Co210 O220 2.021 . S
Co210 O222 2.137 . S
Co210 O223 2.244 . S
O211 Co210 2.216 . S
O211 C218 1.247 1_554 S
O212 Co210 2.091 1_556 S
O212 C218 1.261 . S
C213 O222 1.247 . S
C213 O223 1.272 . S
O214 Co210 2.004 . S
O214 C219 1.259 . S
Co215 O216 2.061 . S
Co215 O221 2.052 . S
Co215 O223 2.135 . S
O216 Co215 2.061 . S
O216 C219 1.235 . S
C217 O220 1.238 . S
C217 O221 1.241 . S
C218 O211 1.247 1_556 S
C218 O212 1.261 . S
C219 O214 1.259 . S
C219 O216 1.235 . S
O220 Co210 2.021 . S
O220 C217 1.238 . S
O221 Co215 2.052 . S
O221 C217 1.241 . S
O222 Co210 2.137 . S
O222 C213 1.247 . S
O223 Co210 2.244 . S
O223 C213 1.272 . S
O223 Co215 2.135 . S
Co224 O225 2.216 . S
Co224 O226 2.091 1_554 S
Co224 O228 2.004 . S
Co224 O234 2.021 . S
Co224 O236 2.137 . S
Co224 O237 2.244 . S
O225 Co224 2.216 . S
O225 C232 1.247 1_554 S
O226 Co224 2.091 1_556 S
O226 C232 1.261 . S
C227 O236 1.247 . S
C227 O237 1.272 . S
O228 Co224 2.004 . S
O228 C233 1.259 . S
Co229 O230 2.061 . S
Co229 O235 2.052 . S
Co229 O237 2.135 . S
O230 Co229 2.061 . S
O230 C233 1.235 . S
C231 O234 1.238 . S
C231 O235 1.241 . S
C232 O225 1.247 1_556 S
C232 O226 1.261 . S
C233 O228 1.259 . S
C233 O230 1.235 . S
O234 Co224 2.021 . S
O234 C231 1.238 . S
O235 Co229 2.052 . S
O235 C231 1.241 . S
O236 Co224 2.137 . S
O236 C227 1.247 . S
O237 Co224 2.244 . S
O237 C227 1.272 . S
O237 Co229 2.135 . S
Co238 O239 2.216 . S
Co238 O240 2.091 1_554 S
Co238 O242 2.004 . S
Co238 O248 2.021 . S
Co238 O250 2.137 . S
Co238 O251 2.244 . S
O239 Co238 2.216 . S
O239 C246 1.247 1_554 S
O240 Co238 2.091 1_556 S
O240 C246 1.261 . S
C241 O250 1.247 . S
C241 O251 1.272 . S
O242 Co238 2.004 . S
O242 C247 1.259 . S
Co243 O244 2.061 . S
Co243 O249 2.052 . S
Co243 O251 2.135 . S
O244 Co243 2.061 . S
O244 C247 1.235 . S
C245 O248 1.238 . S
C245 O249 1.241 . S
C246 O239 1.247 1_556 S
C246 O240 1.261 . S
C247 O242 1.259 . S
C247 O244 1.235 . S
O248 Co238 2.021 . S
O248 C245 1.238 . S
O249 Co243 2.052 . S
O249 C245 1.241 . S
O250 Co238 2.137 . S
O250 C241 1.247 . S
O251 Co238 2.244 . S
O251 C241 1.272 . S
O251 Co243 2.135 . S
Co252 O253 2.216 . S
Co252 O254 2.091 1_554 S
Co252 O256 2.004 . S
Co252 O262 2.021 . S
Co252 O264 2.137 . S
Co252 O265 2.244 . S
O253 Co252 2.216 . S
O253 C260 1.247 1_554 S
O254 Co252 2.091 1_556 S
O254 C260 1.261 . S
C255 O264 1.247 . S
C255 O265 1.272 . S
O256 Co252 2.004 . S
O256 C261 1.259 . S
Co257 O258 2.061 . S
Co257 O263 2.052 . S
Co257 O265 2.135 . S
O258 Co257 2.061 . S
O258 C261 1.235 . S
C259 O262 1.238 . S
C259 O263 1.241 . S
C260 O253 1.247 1_556 S
C260 O254 1.261 . S
C261 O256 1.259 . S
C261 O258 1.235 . S
O262 Co252 2.021 . S
O262 C259 1.238 . S
O263 Co257 2.052 . S
O263 C259 1.241 . S
O264 Co252 2.137 . S
O264 C255 1.247 . S
O265 Co252 2.244 . S
O265 C255 1.272 . S
O265 Co257 2.135 . S
Co266 O267 2.216 . S
Co266 O268 2.091 1_554 S
Co266 O270 2.004 . S
Co266 O276 2.021 . S
Co266 O278 2.137 . S
Co266 O279 2.244 . S
O267 Co266 2.216 . S
O267 C274 1.247 1_554 S
O268 Co266 2.091 1_556 S
O268 C274 1.261 . S
C269 O278 1.247 . S
C269 O279 1.272 . S
O270 Co266 2.004 . S
O270 C275 1.259 . S
Co271 O272 2.061 . S
Co271 O277 2.052 . S
Co271 O279 2.135 . S
O272 Co271 2.061 . S
O272 C275 1.235 . S
C273 O276 1.238 . S
C273 O277 1.241 . S
C274 O267 1.247 1_556 S
C274 O268 1.261 . S
C275 O270 1.259 . S
C275 O272 1.235 . S
O276 Co266 2.021 . S
O276 C273 1.238 . S
O277 Co271 2.052 . S
O277 C273 1.241 . S
O278 Co266 2.137 . S
O278 C269 1.247 . S
O279 Co266 2.244 . S
O279 C269 1.272 . S
O279 Co271 2.135 . S
Co280 O281 2.216 . S
Co280 O282 2.091 1_554 S
Co280 O284 2.004 . S
Co280 O290 2.021 . S
Co280 O292 2.137 . S
Co280 O293 2.244 . S
O281 Co280 2.216 . S
O281 C288 1.247 1_554 S
O282 Co280 2.091 1_556 S
O282 C288 1.261 . S
C283 O292 1.247 . S
C283 O293 1.272 . S
O284 Co280 2.004 . S
O284 C289 1.259 . S
Co285 O286 2.061 . S
Co285 O291 2.052 . S
Co285 O293 2.135 . S
O286 Co285 2.061 . S
O286 C289 1.235 . S
C287 O290 1.238 . S
C287 O291 1.241 . S
C288 O281 1.247 1_556 S
C288 O282 1.261 . S
C289 O284 1.259 . S
C289 O286 1.235 . S
O290 Co280 2.021 . S
O290 C287 1.238 . S
O291 Co285 2.052 . S
O291 C287 1.241 . S
O292 Co280 2.137 . S
O292 C283 1.247 . S
O293 Co280 2.244 . S
O293 C283 1.272 . S
O293 Co285 2.135 . S
Co294 O295 2.216 . S
Co294 O296 2.091 . S
Co294 O298 2.004 . S
Co294 O304 2.021 . S
Co294 O306 2.137 . S
Co294 O307 2.244 . S
O295 Co294 2.216 . S
O295 C302 1.247 . S
O296 Co294 2.091 . S
O296 C302 1.261 . S
C297 O306 1.247 . S
C297 O307 1.272 . S
O298 Co294 2.004 . S
O298 C303 1.259 . S
Co299 O300 2.061 . S
Co299 O305 2.052 . S
Co299 O307 2.135 . S
O300 Co299 2.061 . S
O300 C303 1.235 . S
C301 O304 1.238 . S
C301 O305 1.241 . S
C302 O295 1.247 . S
C302 O296 1.261 . S
C303 O298 1.259 . S
C303 O300 1.235 . S
O304 Co294 2.021 . S
O304 C301 1.238 . S
O305 Co299 2.052 . S
O305 C301 1.241 . S
O306 Co294 2.137 . S
O306 C297 1.247 . S
O307 Co294 2.244 . S
O307 C297 1.272 . S
O307 Co299 2.135 . S
Co308 O309 2.216 . S
Co308 O310 2.091 . S
Co308 O312 2.004 . S
Co308 O318 2.021 . S
Co308 O320 2.137 . S
Co308 O321 2.244 . S
O309 Co308 2.216 . S
O309 C316 1.247 . S
O310 Co308 2.091 . S
O310 C316 1.261 . S
C311 O320 1.247 . S
C311 O321 1.272 . S
O312 Co308 2.004 . S
O312 C317 1.259 . S
Co313 O314 2.061 . S
Co313 O319 2.052 . S
Co313 O321 2.135 . S
O314 Co313 2.061 . S
O314 C317 1.235 . S
C315 O318 1.238 . S
C315 O319 1.241 . S
C316 O309 1.247 . S
C316 O310 1.261 . S
C317 O312 1.259 . S
C317 O314 1.235 . S
O318 Co308 2.021 . S
O318 C315 1.238 . S
O319 Co313 2.052 . S
O319 C315 1.241 . S
O320 Co308 2.137 . S
O320 C311 1.247 . S
O321 Co308 2.244 . S
O321 C311 1.272 . S
O321 Co313 2.135 . S
Co322 O323 2.216 . S
Co322 O324 2.091 . S
Co322 O326 2.004 . S
Co322 O332 2.021 . S
Co322 O334 2.137 . S
Co322 O335 2.244 . S
O323 Co322 2.216 . S
O323 C330 1.247 . S
O324 Co322 2.091 . S
O324 C330 1.261 . S
C325 O334 1.247 . S
C325 O335 1.272 . S
O326 Co322 2.004 . S
O326 C331 1.259 . S
Co327 O328 2.061 . S
Co327 O333 2.052 . S
Co327 O335 2.135 . S
O328 Co327 2.061 . S
O328 C331 1.235 . S
C329 O332 1.238 . S
C329 O333 1.241 . S
C330 O323 1.247 . S
C330 O324 1.261 . S
C331 O326 1.259 . S
C331 O328 1.235 . S
O332 Co322 2.021 . S
O332 C329 1.238 . S
O333 Co327 2.052 . S
O333 C329 1.241 . S
O334 Co322 2.137 . S
O334 C325 1.247 . S
O335 Co322 2.244 . S
O335 C325 1.272 . S
O335 Co327 2.135 . S
Co336 O337 2.216 . S
Co336 O338 2.091 1_556 S
Co336 O340 2.004 . S
Co336 O346 2.021 . S
Co336 O348 2.137 . S
Co336 O349 2.244 . S
O337 Co336 2.216 . S
O337 C344 1.247 1_556 S
O338 Co336 2.091 1_554 S
O338 C344 1.261 . S
C339 O348 1.247 . S
C339 O349 1.272 . S
O340 Co336 2.004 . S
O340 C345 1.259 . S
Co341 O342 2.061 . S
Co341 O347 2.052 . S
Co341 O349 2.135 . S
O342 Co341 2.061 . S
O342 C345 1.235 . S
C343 O346 1.238 . S
C343 O347 1.241 . S
C344 O337 1.247 1_554 S
C344 O338 1.261 . S
C345 O340 1.259 . S
C345 O342 1.235 . S
O346 Co336 2.021 . S
O346 C343 1.238 . S
O347 Co341 2.052 . S
O347 C343 1.241 . S
O348 Co336 2.137 . S
O348 C339 1.247 . S
O349 Co336 2.244 . S
O349 C339 1.272 . S
O349 Co341 2.135 . S
Co350 O351 2.216 . S
Co350 O352 2.091 1_556 S
Co350 O354 2.004 . S
Co350 O360 2.021 . S
Co350 O362 2.137 . S
Co350 O363 2.244 . S
O351 Co350 2.216 . S
O351 C358 1.247 1_556 S
O352 Co350 2.091 1_554 S
O352 C358 1.261 . S
C353 O362 1.247 . S
C353 O363 1.272 . S
O354 Co350 2.004 . S
O354 C359 1.259 . S
Co355 O356 2.061 . S
Co355 O361 2.052 . S
Co355 O363 2.135 . S
O356 Co355 2.061 . S
O356 C359 1.235 . S
C357 O360 1.238 . S
C357 O361 1.241 . S
C358 O351 1.247 1_554 S
C358 O352 1.261 . S
C359 O354 1.259 . S
C359 O356 1.235 . S
O360 Co350 2.021 . S
O360 C357 1.238 . S
O361 Co355 2.052 . S
O361 C357 1.241 . S
O362 Co350 2.137 . S
O362 C353 1.247 . S
O363 Co350 2.244 . S
O363 C353 1.272 . S
O363 Co355 2.135 . S
Co364 O365 2.216 . S
Co364 O366 2.091 1_556 S
Co364 O368 2.004 . S
Co364 O374 2.021 . S
Co364 O376 2.137 . S
Co364 O377 2.244 . S
O365 Co364 2.216 . S
O365 C372 1.247 1_556 S
O366 Co364 2.091 1_554 S
O366 C372 1.261 . S
C367 O376 1.247 . S
C367 O377 1.272 . S
O368 Co364 2.004 . S
O368 C373 1.259 . S
Co369 O370 2.061 . S
Co369 O375 2.052 . S
Co369 O377 2.135 . S
O370 Co369 2.061 . S
O370 C373 1.235 . S
C371 O374 1.238 . S
C371 O375 1.241 . S
C372 O365 1.247 1_554 S
C372 O366 1.261 . S
C373 O368 1.259 . S
C373 O370 1.235 . S
O374 Co364 2.021 . S
O374 C371 1.238 . S
O375 Co369 2.052 . S
O375 C371 1.241 . S
O376 Co364 2.137 . S
O376 C367 1.247 . S
O377 Co364 2.244 . S
O377 C367 1.272 . S
O377 Co369 2.135 . S
Co378 O379 2.216 . S
Co378 O380 2.091 . S
Co378 O382 2.004 . S
Co378 O388 2.021 . S
Co378 O390 2.137 . S
Co378 O391 2.244 . S
O379 Co378 2.216 . S
O379 C386 1.247 . S
O380 Co378 2.091 . S
O380 C386 1.261 . S
C381 O390 1.247 . S
C381 O391 1.272 . S
O382 Co378 2.004 . S
O382 C387 1.259 . S
Co383 O384 2.061 . S
Co383 O389 2.052 . S
Co383 O391 2.135 . S
O384 Co383 2.061 . S
O384 C387 1.235 . S
C385 O388 1.238 . S
C385 O389 1.241 . S
C386 O379 1.247 . S
C386 O380 1.261 . S
C387 O382 1.259 . S
C387 O384 1.235 . S
O388 Co378 2.021 . S
O388 C385 1.238 . S
O389 Co383 2.052 . S
O389 C385 1.241 . S
O390 Co378 2.137 . S
O390 C381 1.247 . S
O391 Co378 2.244 . S
O391 C381 1.272 . S
O391 Co383 2.135 . S
Co392 O393 2.216 . S
Co392 O394 2.091 . S
Co392 O396 2.004 . S
Co392 O402 2.021 . S
Co392 O404 2.137 . S
Co392 O405 2.244 . S
O393 Co392 2.216 . S
O393 C400 1.247 . S
O394 Co392 2.091 . S
O394 C400 1.261 . S
C395 O404 1.247 . S
C395 O405 1.272 . S
O396 Co392 2.004 . S
O396 C401 1.259 . S
Co397 O398 2.061 . S
Co397 O403 2.052 . S
Co397 O405 2.135 . S
O398 Co397 2.061 . S
O398 C401 1.235 . S
C399 O402 1.238 . S
C399 O403 1.241 . S
C400 O393 1.247 . S
C400 O394 1.261 . S
C401 O396 1.259 . S
C401 O398 1.235 . S
O402 Co392 2.021 . S
O402 C399 1.238 . S
O403 Co397 2.052 . S
O403 C399 1.241 . S
O404 Co392 2.137 . S
O404 C395 1.247 . S
O405 Co392 2.244 . S
O405 C395 1.272 . S
O405 Co397 2.135 . S
Co406 O407 2.216 . S
Co406 O408 2.091 . S
Co406 O410 2.004 . S
Co406 O416 2.021 . S
Co406 O418 2.137 . S
Co406 O419 2.244 . S
O407 Co406 2.216 . S
O407 C414 1.247 . S
O408 Co406 2.091 . S
O408 C414 1.261 . S
C409 O418 1.247 . S
C409 O419 1.272 . S
O410 Co406 2.004 . S
O410 C415 1.259 . S
Co411 O412 2.061 . S
Co411 O417 2.052 . S
Co411 O419 2.135 . S
O412 Co411 2.061 . S
O412 C415 1.235 . S
C413 O416 1.238 . S
C413 O417 1.241 . S
C414 O407 1.247 . S
C414 O408 1.261 . S
C415 O410 1.259 . S
C415 O412 1.235 . S
O416 Co406 2.021 . S
O416 C413 1.238 . S
O417 Co411 2.052 . S
O417 C413 1.241 . S
O418 Co406 2.137 . S
O418 C409 1.247 . S
O419 Co406 2.244 . S
O419 C409 1.272 . S
O419 Co411 2.135 . S
Co420 O421 2.216 . S
Co420 O422 2.091 . S
Co420 O424 2.004 . S
Co420 O430 2.021 . S
Co420 O432 2.137 . S
Co420 O433 2.244 . S
O421 Co420 2.216 . S
O421 C428 1.247 . S
O422 Co420 2.091 . S
O422 C428 1.261 . S
C423 O432 1.247 . S
C423 O433 1.272 . S
O424 Co420 2.004 . S
O424 C429 1.259 . S
Co425 O426 2.061 . S
Co425 O431 2.052 . S
Co425 O433 2.135 . S
O426 Co425 2.061 . S
O426 C429 1.235 . S
C427 O430 1.238 . S
C427 O431 1.241 . S
C428 O421 1.247 . S
C428 O422 1.261 . S
C429 O424 1.259 . S
C429 O426 1.235 . S
O430 Co420 2.021 . S
O430 C427 1.238 . S
O431 Co425 2.052 . S
O431 C427 1.241 . S
O432 Co420 2.137 . S
O432 C423 1.247 . S
O433 Co420 2.244 . S
O433 C423 1.272 . S
O433 Co425 2.135 . S
Co434 O435 2.216 . S
Co434 O436 2.091 . S
Co434 O438 2.004 . S
Co434 O444 2.021 . S
Co434 O446 2.137 . S
Co434 O447 2.244 . S
O435 Co434 2.216 . S
O435 C442 1.247 . S
O436 Co434 2.091 . S
O436 C442 1.261 . S
C437 O446 1.247 . S
C437 O447 1.272 . S
O438 Co434 2.004 . S
O438 C443 1.259 . S
Co439 O440 2.061 . S
Co439 O445 2.052 . S
Co439 O447 2.135 . S
O440 Co439 2.061 . S
O440 C443 1.235 . S
C441 O444 1.238 . S
C441 O445 1.241 . S
C442 O435 1.247 . S
C442 O436 1.261 . S
C443 O438 1.259 . S
C443 O440 1.235 . S
O444 Co434 2.021 . S
O444 C441 1.238 . S
O445 Co439 2.052 . S
O445 C441 1.241 . S
O446 Co434 2.137 . S
O446 C437 1.247 . S
O447 Co434 2.244 . S
O447 C437 1.272 . S
O447 Co439 2.135 . S
Co448 O449 2.216 . S
Co448 O450 2.091 . S
Co448 O452 2.004 . S
Co448 O458 2.021 . S
Co448 O460 2.137 . S
Co448 O461 2.244 . S
O449 Co448 2.216 . S
O449 C456 1.247 . S
O450 Co448 2.091 . S
O450 C456 1.261 . S
C451 O460 1.247 . S
C451 O461 1.272 . S
O452 Co448 2.004 . S
O452 C457 1.259 . S
Co453 O454 2.061 . S
Co453 O459 2.052 . S
Co453 O461 2.135 . S
O454 Co453 2.061 . S
O454 C457 1.235 . S
C455 O458 1.238 . S
C455 O459 1.241 . S
C456 O449 1.247 . S
C456 O450 1.261 . S
C457 O452 1.259 . S
C457 O454 1.235 . S
O458 Co448 2.021 . S
O458 C455 1.238 . S
O459 Co453 2.052 . S
O459 C455 1.241 . S
O460 Co448 2.137 . S
O460 C451 1.247 . S
O461 Co448 2.244 . S
O461 C451 1.272 . S
O461 Co453 2.135 . S
Co462 O463 2.216 . S
Co462 O464 2.091 1_556 S
Co462 O466 2.004 . S
Co462 O472 2.021 . S
Co462 O474 2.137 . S
Co462 O475 2.244 . S
O463 Co462 2.216 . S
O463 C470 1.247 1_556 S
O464 Co462 2.091 1_554 S
O464 C470 1.261 . S
C465 O474 1.247 . S
C465 O475 1.272 . S
O466 Co462 2.004 . S
O466 C471 1.259 . S
Co467 O468 2.061 . S
Co467 O473 2.052 . S
Co467 O475 2.135 . S
O468 Co467 2.061 . S
O468 C471 1.235 . S
C469 O472 1.238 . S
C469 O473 1.241 . S
C470 O463 1.247 1_554 S
C470 O464 1.261 . S
C471 O466 1.259 . S
C471 O468 1.235 . S
O472 Co462 2.021 . S
O472 C469 1.238 . S
O473 Co467 2.052 . S
O473 C469 1.241 . S
O474 Co462 2.137 . S
O474 C465 1.247 . S
O475 Co462 2.244 . S
O475 C465 1.272 . S
O475 Co467 2.135 . S
Co476 O477 2.216 . S
Co476 O478 2.091 1_556 S
Co476 O480 2.004 . S
Co476 O486 2.021 . S
Co476 O488 2.137 . S
Co476 O489 2.244 . S
O477 Co476 2.216 . S
O477 C484 1.247 1_556 S
O478 Co476 2.091 1_554 S
O478 C484 1.261 . S
C479 O488 1.247 . S
C479 O489 1.272 . S
O480 Co476 2.004 . S
O480 C485 1.259 . S
Co481 O482 2.061 . S
Co481 O487 2.052 . S
Co481 O489 2.135 . S
O482 Co481 2.061 . S
O482 C485 1.235 . S
C483 O486 1.238 . S
C483 O487 1.241 . S
C484 O477 1.247 1_554 S
C484 O478 1.261 . S
C485 O480 1.259 . S
C485 O482 1.235 . S
O486 Co476 2.021 . S
O486 C483 1.238 . S
O487 Co481 2.052 . S
O487 C483 1.241 . S
O488 Co476 2.137 . S
O488 C479 1.247 . S
O489 Co476 2.244 . S
O489 C479 1.272 . S
O489 Co481 2.135 . S
Co490 O491 2.216 . S
Co490 O492 2.091 1_556 S
Co490 O494 2.004 . S
Co490 O500 2.021 . S
Co490 O502 2.137 . S
Co490 O503 2.244 . S
O491 Co490 2.216 . S
O491 C498 1.247 1_556 S
O492 Co490 2.091 1_554 S
O492 C498 1.261 . S
C493 O502 1.247 . S
C493 O503 1.272 . S
O494 Co490 2.004 . S
O494 C499 1.259 . S
Co495 O496 2.061 . S
Co495 O501 2.052 . S
Co495 O503 2.135 . S
O496 Co495 2.061 . S
O496 C499 1.235 . S
C497 O500 1.238 . S
C497 O501 1.241 . S
C498 O491 1.247 1_554 S
C498 O492 1.261 . S
C499 O494 1.259 . S
C499 O496 1.235 . S
O500 Co490 2.021 . S
O500 C497 1.238 . S
O501 Co495 2.052 . S
O501 C497 1.241 . S
O502 Co490 2.137 . S
O502 C493 1.247 . S
O503 Co490 2.244 . S
O503 C493 1.272 . S
O503 Co495 2.135 . S
C504 C505 1.369 1_545 S
C504 C506 1.419 . S
C504 H508 0.930 . S
C505 C504 1.369 1_565 S
C505 C514 1.429 . S
C506 C504 1.419 . S
C506 C507 1.363 . S
C506 H509 0.929 . S
C507 C506 1.363 . S
C507 C513 1.428 1_545 S
H508 C504 0.930 . S
H509 C506 0.929 . S
S510 N511 1.613 . S
S510 N512 1.610 . S
N511 S510 1.613 . S
N511 C514 1.350 . S
N512 S510 1.610 . S
N512 C513 1.351 . S
C513 C507 1.428 1_565 S
C513 N512 1.351 . S
C513 C514 1.434 . S
C514 C505 1.429 . S
C514 N511 1.350 . S
C514 C513 1.434 . S
C515 C516 1.369 . S
C515 C517 1.419 . S
C515 H519 0.930 . S
C516 C515 1.369 . S
C516 C525 1.429 1_455 S
C517 C515 1.419 . S
C517 C518 1.363 1_455 S
C517 H520 0.929 . S
C518 C517 1.363 1_655 S
C518 C524 1.428 . S
H519 C515 0.930 . S
H520 C517 0.929 . S
S521 N522 1.613 . S
S521 N523 1.610 . S
N522 S521 1.613 . S
N522 C525 1.350 . S
N523 S521 1.610 . S
N523 C524 1.351 . S
C524 C518 1.428 . S
C524 N523 1.351 . S
C524 C525 1.434 . S
C525 C516 1.429 1_655 S
C525 N522 1.350 . S
C525 C524 1.434 . S
C526 C527 1.369 . S
C526 C528 1.419 . S
C526 H530 0.930 . S
C527 C526 1.369 . S
C527 C536 1.429 . S
C528 C526 1.419 . S
C528 C529 1.363 . S
C528 H531 0.929 . S
C529 C528 1.363 . S
C529 C535 1.428 . S
H530 C526 0.930 . S
H531 C528 0.929 . S
S532 N533 1.613 . S
S532 N534 1.610 . S
N533 S532 1.613 . S
N533 C536 1.350 . S
N534 S532 1.610 . S
N534 C535 1.351 . S
C535 C529 1.428 . S
C535 N534 1.351 . S
C535 C536 1.434 . S
C536 C527 1.429 . S
C536 N533 1.350 . S
C536 C535 1.434 . S
C537 C538 1.369 . S
C537 C539 1.419 1_565 S
C537 H541 0.930 . S
C538 C537 1.369 . S
C538 C547 1.429 . S
C539 C537 1.419 1_545 S
C539 C540 1.363 . S
C539 H542 0.929 . S
C540 C539 1.363 . S
C540 C546 1.428 . S
H541 C537 0.930 . S
H542 C539 0.929 . S
S543 N544 1.613 1_545 S
S543 N545 1.610 . S
N544 S543 1.613 1_565 S
N544 C547 1.350 . S
N545 S543 1.610 . S
N545 C546 1.351 . S
C546 C540 1.428 . S
C546 N545 1.351 . S
C546 C547 1.434 1_545 S
C547 C538 1.429 . S
C547 N544 1.350 . S
C547 C546 1.434 1_565 S
C548 C549 1.369 . S
C548 C550 1.419 . S
C548 H552 0.930 . S
C549 C548 1.369 . S
C549 C558 1.429 1_455 S
C550 C548 1.419 . S
C550 C551 1.363 1_455 S
C550 H553 0.929 . S
C551 C550 1.363 1_655 S
C551 C557 1.428 . S
H552 C548 0.930 . S
H553 C550 0.929 . S
S554 N555 1.613 . S
S554 N556 1.610 . S
N555 S554 1.613 . S
N555 C558 1.350 . S
N556 S554 1.610 . S
N556 C557 1.351 . S
C557 C551 1.428 . S
C557 N556 1.351 . S
C557 C558 1.434 . S
C558 C549 1.429 1_655 S
C558 N555 1.350 . S
C558 C557 1.434 . S
C559 C560 1.369 . S
C559 C561 1.419 . S
C559 H563 0.930 . S
C560 C559 1.369 . S
C560 C569 1.429 . S
C561 C559 1.419 . S
C561 C562 1.363 . S
C561 H564 0.929 . S
C562 C561 1.363 . S
C562 C568 1.428 . S
H563 C559 0.930 . S
H564 C561 0.929 . S
S565 N566 1.613 . S
S565 N567 1.610 . S
N566 S565 1.613 . S
N566 C569 1.350 . S
N567 S565 1.610 . S
N567 C568 1.351 . S
C568 C562 1.428 . S
C568 N567 1.351 . S
C568 C569 1.434 . S
C569 C560 1.429 . S
C569 N566 1.350 . S
C569 C568 1.434 . S
C570 C571 1.369 . S
C570 C572 1.419 . S
C570 H574 0.930 . S
C571 C570 1.369 . S
C571 C580 1.429 . S
C572 C570 1.419 . S
C572 C573 1.363 . S
C572 H575 0.929 . S
C573 C572 1.363 . S
C573 C579 1.428 . S
H574 C570 0.930 . S
H575 C572 0.929 . S
S576 N577 1.613 . S
S576 N578 1.610 . S
N577 S576 1.613 . S
N577 C580 1.350 . S
N578 S576 1.610 . S
N578 C579 1.351 . S
C579 C573 1.428 . S
C579 N578 1.351 . S
C579 C580 1.434 . S
C580 C571 1.429 . S
C580 N577 1.350 . S
C580 C579 1.434 . S
C581 C582 1.369 . S
C581 C583 1.419 . S
C581 H585 0.930 . S
C582 C581 1.369 . S
C582 C591 1.429 . S
C583 C581 1.419 . S
C583 C584 1.363 . S
C583 H586 0.929 . S
C584 C583 1.363 . S
C584 C590 1.428 . S
H585 C581 0.930 . S
H586 C583 0.929 . S
S587 N588 1.613 . S
S587 N589 1.610 . S
N588 S587 1.613 . S
N588 C591 1.350 . S
N589 S587 1.610 . S
N589 C590 1.351 . S
C590 C584 1.428 . S
C590 N589 1.351 . S
C590 C591 1.434 . S
C591 C582 1.429 . S
C591 N588 1.350 . S
C591 C590 1.434 . S
C592 C593 1.369 . S
C592 C594 1.419 . S
C592 H596 0.930 . S
C593 C592 1.369 . S
C593 C602 1.429 . S
C594 C592 1.419 . S
C594 C595 1.363 . S
C594 H597 0.929 . S
C595 C594 1.363 . S
C595 C601 1.428 . S
H596 C592 0.930 . S
H597 C594 0.929 . S
S598 N599 1.613 . S
S598 N600 1.610 . S
N599 S598 1.613 . S
N599 C602 1.350 . S
N600 S598 1.610 . S
N600 C601 1.351 . S
C601 C595 1.428 . S
C601 N600 1.351 . S
C601 C602 1.434 . S
C602 C593 1.429 . S
C602 N599 1.350 . S
C602 C601 1.434 . S
C603 C604 1.369 . S
C603 C605 1.419 . S
C603 H607 0.930 . S
C604 C603 1.369 . S
C604 C613 1.429 . S
C605 C603 1.419 . S
C605 C606 1.363 . S
C605 H608 0.929 . S
C606 C605 1.363 . S
C606 C612 1.428 . S
H607 C603 0.930 . S
H608 C605 0.929 . S
S609 N610 1.613 . S
S609 N611 1.610 . S
N610 S609 1.613 . S
N610 C613 1.350 . S
N611 S609 1.610 . S
N611 C612 1.351 . S
C612 C606 1.428 . S
C612 N611 1.351 . S
C612 C613 1.434 . S
C613 C604 1.429 . S
C613 N610 1.350 . S
C613 C612 1.434 . S
C614 C615 1.369 . S
C614 C616 1.419 . S
C614 H618 0.930 . S
C615 C614 1.369 . S
C615 C624 1.429 . S
C616 C614 1.419 . S
C616 C617 1.363 . S
C616 H619 0.929 . S
C617 C616 1.363 . S
C617 C623 1.428 . S
H618 C614 0.930 . S
H619 C616 0.929 . S
S620 N621 1.613 . S
S620 N622 1.610 . S
N621 S620 1.613 . S
N621 C624 1.350 . S
N622 S620 1.610 . S
N622 C623 1.351 . S
C623 C617 1.428 . S
C623 N622 1.351 . S
C623 C624 1.434 . S
C624 C615 1.429 . S
C624 N621 1.350 . S
C624 C623 1.434 . S
C625 C626 1.369 . S
C625 C627 1.419 . S
C625 H629 0.930 . S
C626 C625 1.369 . S
C626 C635 1.429 . S
C627 C625 1.419 . S
C627 C628 1.363 . S
C627 H630 0.929 . S
C628 C627 1.363 . S
C628 C634 1.428 . S
H629 C625 0.930 . S
H630 C627 0.929 . S
S631 N632 1.613 . S
S631 N633 1.610 . S
N632 S631 1.613 . S
N632 C635 1.350 . S
N633 S631 1.610 . S
N633 C634 1.351 . S
C634 C628 1.428 . S
C634 N633 1.351 . S
C634 C635 1.434 . S
C635 C626 1.429 . S
C635 N632 1.350 . S
C635 C634 1.434 . S
C636 C637 1.369 . S
C636 C638 1.419 . S
C636 H640 0.930 . S
C637 C636 1.369 . S
C637 C646 1.429 . S
C638 C636 1.419 . S
C638 C639 1.363 . S
C638 H641 0.929 . S
C639 C638 1.363 . S
C639 C645 1.428 . S
H640 C636 0.930 . S
H641 C638 0.929 . S
S642 N643 1.613 . S
S642 N644 1.610 . S
N643 S642 1.613 . S
N643 C646 1.350 . S
N644 S642 1.610 . S
N644 C645 1.351 . S
C645 C639 1.428 . S
C645 N644 1.351 . S
C645 C646 1.434 . S
C646 C637 1.429 . S
C646 N643 1.350 . S
C646 C645 1.434 . S
C647 C648 1.369 . S
C647 C649 1.419 . S
C647 H651 0.930 . S
C648 C647 1.369 . S
C648 C657 1.429 . S
C649 C647 1.419 . S
C649 C650 1.363 . S
C649 H652 0.929 . S
C650 C649 1.363 . S
C650 C656 1.428 . S
H651 C647 0.930 . S
H652 C649 0.929 . S
S653 N654 1.613 . S
S653 N655 1.610 . S
N654 S653 1.613 . S
N654 C657 1.350 . S
N655 S653 1.610 . S
N655 C656 1.351 . S
C656 C650 1.428 . S
C656 N655 1.351 . S
C656 C657 1.434 . S
C657 C648 1.429 . S
C657 N654 1.350 . S
C657 C656 1.434 . S
C658 C659 1.369 . S
C658 C660 1.419 . S
C658 H662 0.930 . S
C659 C658 1.369 . S
C659 C668 1.429 . S
C660 C658 1.419 . S
C660 C661 1.363 . S
C660 H663 0.929 . S
C661 C660 1.363 . S
C661 C667 1.428 . S
H662 C658 0.930 . S
H663 C660 0.929 . S
S664 N665 1.613 . S
S664 N666 1.610 . S
N665 S664 1.613 . S
N665 C668 1.350 . S
N666 S664 1.610 . S
N666 C667 1.351 . S
C667 C661 1.428 . S
C667 N666 1.351 . S
C667 C668 1.434 . S
C668 C659 1.429 . S
C668 N665 1.350 . S
C668 C667 1.434 . S
C669 C670 1.369 . S
C669 C671 1.419 . S
C669 H673 0.930 . S
C670 C669 1.369 . S
C670 C679 1.429 . S
C671 C669 1.419 . S
C671 C672 1.363 . S
C671 H674 0.929 . S
C672 C671 1.363 . S
C672 C678 1.428 . S
H673 C669 0.930 . S
H674 C671 0.929 . S
S675 N676 1.613 . S
S675 N677 1.610 . S
N676 S675 1.613 . S
N676 C679 1.350 . S
N677 S675 1.610 . S
N677 C678 1.351 . S
C678 C672 1.428 . S
C678 N677 1.351 . S
C678 C679 1.434 . S
C679 C670 1.429 . S
C679 N676 1.350 . S
C679 C678 1.434 . S
C680 C681 1.369 . S
C680 C682 1.419 . S
C680 H684 0.930 . S
C681 C680 1.369 . S
C681 C690 1.429 . S
C682 C680 1.419 . S
C682 C683 1.363 . S
C682 H685 0.929 . S
C683 C682 1.363 . S
C683 C689 1.428 . S
H684 C680 0.930 . S
H685 C682 0.929 . S
S686 N687 1.613 . S
S686 N688 1.610 . S
N687 S686 1.613 . S
N687 C690 1.350 . S
N688 S686 1.610 . S
N688 C689 1.351 . S
C689 C683 1.428 . S
C689 N688 1.351 . S
C689 C690 1.434 . S
C690 C681 1.429 . S
C690 N687 1.350 . S
C690 C689 1.434 . S
C691 C692 1.369 . S
C691 C693 1.419 . S
C691 H695 0.930 . S
C692 C691 1.369 . S
C692 C701 1.429 . S
C693 C691 1.419 . S
C693 C694 1.363 . S
C693 H696 0.929 . S
C694 C693 1.363 . S
C694 C700 1.428 . S
H695 C691 0.930 . S
H696 C693 0.929 . S
S697 N698 1.613 . S
S697 N699 1.610 . S
N698 S697 1.613 . S
N698 C701 1.350 . S
N699 S697 1.610 . S
N699 C700 1.351 . S
C700 C694 1.428 . S
C700 N699 1.351 . S
C700 C701 1.434 . S
C701 C692 1.429 . S
C701 N698 1.350 . S
C701 C700 1.434 . S
C702 C703 1.369 1_545 S
C702 C704 1.419 1_556 S
C702 H706 0.930 . S
C703 C702 1.369 1_565 S
C703 C712 1.429 . S
C704 C702 1.419 1_554 S
C704 C705 1.363 . S
C704 H707 0.929 . S
C705 C704 1.363 . S
C705 C711 1.428 1_545 S
H706 C702 0.930 . S
H707 C704 0.929 . S
S708 N709 1.613 . S
S708 N710 1.610 . S
N709 S708 1.613 . S
N709 C712 1.350 1_554 S
N710 S708 1.610 . S
N710 C711 1.351 . S
C711 C705 1.428 1_565 S
C711 N710 1.351 . S
C711 C712 1.434 1_554 S
C712 C703 1.429 . S
C712 N709 1.350 1_556 S
C712 C711 1.434 1_556 S
C713 C714 1.369 . S
C713 C715 1.419 1_554 S
C713 H717 0.930 . S
C714 C713 1.369 . S
C714 C723 1.429 1_655 S
C715 C713 1.419 1_556 S
C715 C716 1.363 1_655 S
C715 H718 0.929 . S
C716 C715 1.363 1_455 S
C716 C722 1.428 . S
H717 C713 0.930 . S
H718 C715 0.929 . S
S719 N720 1.613 . S
S719 N721 1.610 1_554 S
N720 S719 1.613 . S
N720 C723 1.350 . S
N721 S719 1.610 1_556 S
N721 C722 1.351 . S
C722 C716 1.428 . S
C722 N721 1.351 . S
C722 C723 1.434 1_556 S
C723 C714 1.429 1_455 S
C723 N720 1.350 . S
C723 C722 1.434 1_554 S
C724 C725 1.369 . S
C724 C726 1.419 1_556 S
C724 H728 0.930 . S
C725 C724 1.369 . S
C725 C734 1.429 . S
C726 C724 1.419 1_554 S
C726 C727 1.363 . S
C726 H729 0.929 . S
C727 C726 1.363 . S
C727 C733 1.428 . S
H728 C724 0.930 . S
H729 C726 0.929 . S
S730 N731 1.613 . S
S730 N732 1.610 1_556 S
N731 S730 1.613 . S
N731 C734 1.350 . S
N732 S730 1.610 1_554 S
N732 C733 1.351 . S
C733 C727 1.428 . S
C733 N732 1.351 . S
C733 C734 1.434 1_554 S
C734 C725 1.429 . S
C734 N731 1.350 . S
C734 C733 1.434 1_556 S
C735 C736 1.369 1_545 S
C735 C737 1.419 . S
C735 H739 0.930 . S
C736 C735 1.369 1_565 S
C736 C745 1.429 1_556 S
C737 C735 1.419 . S
C737 C738 1.363 1_556 S
C737 H740 0.929 . S
C738 C737 1.363 1_554 S
C738 C744 1.428 1_545 S
H739 C735 0.930 . S
H740 C737 0.929 . S
S741 N742 1.613 . S
S741 N743 1.610 . S
N742 S741 1.613 . S
N742 C745 1.350 . S
N743 S741 1.610 . S
N743 C744 1.351 . S
C744 C738 1.428 1_565 S
C744 N743 1.351 . S
C744 C745 1.434 . S
C745 C736 1.429 1_554 S
C745 N742 1.350 . S
C745 C744 1.434 . S
C746 C747 1.369 . S
C746 C748 1.419 1_556 S
C746 H750 0.930 1_556 S
C747 C746 1.369 . S
C747 C756 1.429 1_455 S
C748 C746 1.419 1_554 S
C748 C749 1.363 1_455 S
C748 H751 0.929 . S
C749 C748 1.363 1_655 S
C749 C755 1.428 1_554 S
H750 C746 0.930 1_554 S
H751 C748 0.929 . S
S752 N753 1.613 . S
S752 N754 1.610 . S
N753 S752 1.613 . S
N753 C756 1.350 . S
N754 S752 1.610 . S
N754 C755 1.351 . S
C755 C749 1.428 1_556 S
C755 N754 1.351 . S
C755 C756 1.434 . S
C756 C747 1.429 1_655 S
C756 N753 1.350 . S
C756 C755 1.434 . S
C757 C758 1.368 . S
C757 C759 1.420 1_554 S
C757 H761 0.930 1_554 S
C758 C757 1.368 . S
C758 C767 1.429 . S
C759 C757 1.420 1_556 S
C759 C760 1.363 . S
C759 H762 0.929 . S
C760 C759 1.363 . S
C760 C766 1.428 1_556 S
H761 C757 0.930 1_556 S
H762 C759 0.929 . S
S763 N764 1.613 . S
S763 N765 1.610 . S
N764 S763 1.613 . S
N764 C767 1.350 . S
N765 S763 1.610 . S
N765 C766 1.351 . S
C766 C760 1.428 1_554 S
C766 N765 1.351 . S
C766 C767 1.434 . S
C767 C758 1.429 . S
C767 N764 1.350 . S
C767 C766 1.434 . S
C768 C769 1.369 . S
C768 C770 1.419 . S
C768 H772 0.930 . S
C769 C768 1.369 . S
C769 C778 1.429 . S
C770 C768 1.419 . S
C770 C771 1.363 . S
C770 H773 0.929 . S
C771 C770 1.363 . S
C771 C777 1.428 . S
H772 C768 0.930 . S
H773 C770 0.929 . S
S774 N775 1.613 . S
S774 N776 1.610 . S
N775 S774 1.613 . S
N775 C778 1.350 . S
N776 S774 1.610 . S
N776 C777 1.351 . S
C777 C771 1.428 . S
C777 N776 1.351 . S
C777 C778 1.434 . S
C778 C769 1.429 . S
C778 N775 1.350 . S
C778 C777 1.434 . S
C779 C780 1.369 . S
C779 C781 1.419 . S
C779 H783 0.930 . S
C780 C779 1.369 . S
C780 C789 1.429 . S
C781 C779 1.419 . S
C781 C782 1.363 . S
C781 H784 0.929 . S
C782 C781 1.363 . S
C782 C788 1.428 . S
H783 C779 0.930 . S
H784 C781 0.929 . S
S785 N786 1.613 . S
S785 N787 1.610 . S
N786 S785 1.613 . S
N786 C789 1.350 . S
N787 S785 1.610 . S
N787 C788 1.351 . S
C788 C782 1.428 . S
C788 N787 1.351 . S
C788 C789 1.434 . S
C789 C780 1.429 . S
C789 N786 1.350 . S
C789 C788 1.434 . S
C790 C791 1.369 . S
C790 C792 1.419 . S
C790 H794 0.930 . S
C791 C790 1.369 . S
C791 C800 1.429 . S
C792 C790 1.419 . S
C792 C793 1.363 . S
C792 H795 0.929 . S
C793 C792 1.363 . S
C793 C799 1.428 . S
H794 C790 0.930 . S
H795 C792 0.929 . S
S796 N797 1.613 . S
S796 N798 1.610 . S
N797 S796 1.613 . S
N797 C800 1.350 . S
N798 S796 1.610 . S
N798 C799 1.351 . S
C799 C793 1.428 . S
C799 N798 1.351 . S
C799 C800 1.434 . S
C800 C791 1.429 . S
C800 N797 1.350 . S
C800 C799 1.434 . S
C801 C802 1.369 . S
C801 C803 1.419 . S
C801 H805 0.930 . S
C802 C801 1.369 . S
C802 C811 1.429 . S
C803 C801 1.419 . S
C803 C804 1.363 . S
C803 H806 0.929 . S
C804 C803 1.363 . S
C804 C810 1.428 . S
H805 C801 0.930 . S
H806 C803 0.929 . S
S807 N808 1.613 . S
S807 N809 1.610 . S
N808 S807 1.613 . S
N808 C811 1.350 . S
N809 S807 1.610 . S
N809 C810 1.351 . S
C810 C804 1.428 . S
C810 N809 1.351 . S
C810 C811 1.434 . S
C811 C802 1.429 . S
C811 N808 1.350 . S
C811 C810 1.434 . S
C812 C813 1.369 . S
C812 C814 1.419 . S
C812 H816 0.930 . S
C813 C812 1.369 . S
C813 C822 1.429 . S
C814 C812 1.419 . S
C814 C815 1.363 . S
C814 H817 0.929 . S
C815 C814 1.363 . S
C815 C821 1.428 . S
H816 C812 0.930 . S
H817 C814 0.929 . S
S818 N819 1.613 . S
S818 N820 1.610 . S
N819 S818 1.613 . S
N819 C822 1.350 . S
N820 S818 1.610 . S
N820 C821 1.351 . S
C821 C815 1.428 . S
C821 N820 1.351 . S
C821 C822 1.434 . S
C822 C813 1.429 . S
C822 N819 1.350 . S
C822 C821 1.434 . S
C823 C824 1.369 . S
C823 C825 1.419 . S
C823 H827 0.930 . S
C824 C823 1.369 . S
C824 C833 1.429 . S
C825 C823 1.419 . S
C825 C826 1.363 . S
C825 H828 0.929 . S
C826 C825 1.363 . S
C826 C832 1.428 . S
H827 C823 0.930 . S
H828 C825 0.929 . S
S829 N830 1.613 . S
S829 N831 1.610 . S
N830 S829 1.613 . S
N830 C833 1.350 . S
N831 S829 1.610 . S
N831 C832 1.351 . S
C832 C826 1.428 . S
C832 N831 1.351 . S
C832 C833 1.434 . S
C833 C824 1.429 . S
C833 N830 1.350 . S
C833 C832 1.434 . S
C834 C835 1.369 . S
C834 C836 1.419 . S
C834 H838 0.930 . S
C835 C834 1.369 . S
C835 C844 1.429 . S
C836 C834 1.419 . S
C836 C837 1.363 . S
C836 H839 0.929 . S
C837 C836 1.363 . S
C837 C843 1.428 . S
H838 C834 0.930 . S
H839 C836 0.929 . S
S840 N841 1.613 . S
S840 N842 1.610 . S
N841 S840 1.613 . S
N841 C844 1.350 . S
N842 S840 1.610 . S
N842 C843 1.351 . S
C843 C837 1.428 . S
C843 N842 1.351 . S
C843 C844 1.434 . S
C844 C835 1.429 . S
C844 N841 1.350 . S
C844 C843 1.434 . S
C845 C846 1.369 . S
C845 C847 1.419 . S
C845 H849 0.930 . S
C846 C845 1.369 . S
C846 C855 1.429 . S
C847 C845 1.419 . S
C847 C848 1.363 . S
C847 H850 0.929 . S
C848 C847 1.363 . S
C848 C854 1.428 . S
H849 C845 0.930 . S
H850 C847 0.929 . S
S851 N852 1.613 . S
S851 N853 1.610 . S
N852 S851 1.613 . S
N852 C855 1.350 . S
N853 S851 1.610 . S
N853 C854 1.351 . S
C854 C848 1.428 . S
C854 N853 1.351 . S
C854 C855 1.434 . S
C855 C846 1.429 . S
C855 N852 1.350 . S
C855 C854 1.434 . S
C856 C857 1.369 . S
C856 C858 1.419 . S
C856 H860 0.930 . S
C857 C856 1.369 . S
C857 C866 1.429 . S
C858 C856 1.419 . S
C858 C859 1.363 . S
C858 H861 0.929 . S
C859 C858 1.363 . S
C859 C865 1.428 . S
H860 C856 0.930 . S
H861 C858 0.929 . S
S862 N863 1.613 . S
S862 N864 1.610 . S
N863 S862 1.613 . S
N863 C866 1.350 . S
N864 S862 1.610 . S
N864 C865 1.351 . S
C865 C859 1.428 . S
C865 N864 1.351 . S
C865 C866 1.434 . S
C866 C857 1.429 . S
C866 N863 1.350 . S
C866 C865 1.434 . S
C867 C868 1.369 . S
C867 C869 1.419 . S
C867 H871 0.930 . S
C868 C867 1.369 . S
C868 C877 1.429 . S
C869 C867 1.419 . S
C869 C870 1.363 . S
C869 H872 0.929 . S
C870 C869 1.363 . S
C870 C876 1.428 . S
H871 C867 0.930 . S
H872 C869 0.929 . S
S873 N874 1.613 . S
S873 N875 1.610 . S
N874 S873 1.613 . S
N874 C877 1.350 . S
N875 S873 1.610 . S
N875 C876 1.351 . S
C876 C870 1.428 . S
C876 N875 1.351 . S
C876 C877 1.434 . S
C877 C868 1.429 . S
C877 N874 1.350 . S
C877 C876 1.434 . S
C878 C879 1.369 . S
C878 C880 1.419 . S
C878 H882 0.930 . S
C879 C878 1.369 . S
C879 C888 1.429 . S
C880 C878 1.419 . S
C880 C881 1.363 . S
C880 H883 0.929 . S
C881 C880 1.363 . S
C881 C887 1.428 . S
H882 C878 0.930 . S
H883 C880 0.929 . S
S884 N885 1.613 . S
S884 N886 1.610 . S
N885 S884 1.613 . S
N885 C888 1.350 . S
N886 S884 1.610 . S
N886 C887 1.351 . S
C887 C881 1.428 . S
C887 N886 1.351 . S
C887 C888 1.434 . S
C888 C879 1.429 . S
C888 N885 1.350 . S
C888 C887 1.434 . S
C889 C890 1.369 . S
C889 C891 1.419 . S
C889 H893 0.930 . S
C890 C889 1.369 . S
C890 C899 1.429 . S
C891 C889 1.419 . S
C891 C892 1.363 . S
C891 H894 0.929 . S
C892 C891 1.363 . S
C892 C898 1.428 . S
H893 C889 0.930 . S
H894 C891 0.929 . S
S895 N896 1.613 . S
S895 N897 1.610 . S
N896 S895 1.613 . S
N896 C899 1.350 . S
N897 S895 1.610 . S
N897 C898 1.351 . S
C898 C892 1.428 . S
C898 N897 1.351 . S
C898 C899 1.434 . S
C899 C890 1.429 . S
C899 N896 1.350 . S
C899 C898 1.434 . S
C900 C901 1.369 . S
C900 C902 1.419 . S
C900 H904 0.930 . S
C901 C900 1.369 . S
C901 C910 1.429 . S
C902 C900 1.419 . S
C902 C903 1.363 . S
C902 H905 0.929 . S
C903 C902 1.363 . S
C903 C909 1.428 . S
H904 C900 0.930 . S
H905 C902 0.929 . S
S906 N907 1.613 1_556 S
S906 N908 1.610 1_556 S
N907 S906 1.613 1_554 S
N907 C910 1.350 . S
N908 S906 1.610 1_554 S
N908 C909 1.351 . S
C909 C903 1.428 . S
C909 N908 1.351 . S
C909 C910 1.434 . S
C910 C901 1.429 . S
C910 N907 1.350 . S
C910 C909 1.434 . S
C911 C912 1.369 . S
C911 C913 1.419 . S
C911 H915 0.930 . S
C912 C911 1.369 . S
C912 C921 1.429 . S
C913 C911 1.419 . S
C913 C914 1.363 . S
C913 H916 0.929 . S
C914 C913 1.363 . S
C914 C920 1.428 . S
H915 C911 0.930 . S
H916 C913 0.929 . S
S917 N918 1.613 . S
S917 N919 1.610 . S
N918 S917 1.613 . S
N918 C921 1.350 . S
N919 S917 1.610 . S
N919 C920 1.351 . S
C920 C914 1.428 . S
C920 N919 1.351 . S
C920 C921 1.434 . S
C921 C912 1.429 . S
C921 N918 1.350 . S
C921 C920 1.434 . S
C922 C923 1.369 . S
C922 C924 1.419 . S
C922 H926 0.930 . S
C923 C922 1.369 . S
C923 C932 1.429 . S
C924 C922 1.419 . S
C924 C925 1.363 . S
C924 H927 0.929 . S
C925 C924 1.363 . S
C925 C931 1.428 . S
H926 C922 0.930 . S
H927 C924 0.929 . S
S928 N929 1.613 1_556 S
S928 N930 1.610 1_556 S
N929 S928 1.613 1_554 S
N929 C932 1.350 . S
N930 S928 1.610 1_554 S
N930 C931 1.351 . S
C931 C925 1.428 . S
C931 N930 1.351 . S
C931 C932 1.434 . S
C932 C923 1.429 . S
C932 N929 1.350 . S
C932 C931 1.434 . S
C933 C934 1.369 . S
C933 C935 1.419 . S
C933 H937 0.930 . S
C934 C933 1.369 . S
C934 C943 1.429 . S
C935 C933 1.419 . S
C935 C936 1.363 . S
C935 H938 0.929 . S
C936 C935 1.363 . S
C936 C942 1.428 . S
H937 C933 0.930 . S
H938 C935 0.929 . S
S939 N940 1.613 1_554 S
S939 N941 1.610 1_554 S
N940 S939 1.613 1_556 S
N940 C943 1.350 . S
N941 S939 1.610 1_556 S
N941 C942 1.351 . S
C942 C936 1.428 . S
C942 N941 1.351 . S
C942 C943 1.434 . S
C943 C934 1.429 . S
C943 N940 1.350 . S
C943 C942 1.434 . S
C944 C945 1.369 . S
C944 C946 1.419 . S
C944 H948 0.930 . S
C945 C944 1.369 . S
C945 C954 1.429 . S
C946 C944 1.419 . S
C946 C947 1.363 . S
C946 H949 0.929 . S
C947 C946 1.363 . S
C947 C953 1.428 . S
H948 C944 0.930 . S
H949 C946 0.929 . S
S950 N951 1.613 1_554 S
S950 N952 1.610 1_554 S
N951 S950 1.613 1_556 S
N951 C954 1.350 . S
N952 S950 1.610 1_556 S
N952 C953 1.351 . S
C953 C947 1.428 . S
C953 N952 1.351 . S
C953 C954 1.434 . S
C954 C945 1.429 . S
C954 N951 1.350 . S
C954 C953 1.434 . S
C955 C956 1.369 . S
C955 C957 1.419 . S
C955 H959 0.930 . S
C956 C955 1.369 . S
C956 C965 1.429 . S
C957 C955 1.419 . S
C957 C958 1.363 . S
C957 H960 0.929 . S
C958 C957 1.363 . S
C958 C964 1.428 . S
H959 C955 0.930 . S
H960 C957 0.929 . S
S961 N962 1.613 1_554 S
S961 N963 1.610 1_554 S
N962 S961 1.613 1_556 S
N962 C965 1.350 . S
N963 S961 1.610 1_556 S
N963 C964 1.351 . S
C964 C958 1.428 . S
C964 N963 1.351 . S
C964 C965 1.434 . S
C965 C956 1.429 . S
C965 N962 1.350 . S
C965 C964 1.434 . S
C966 C967 1.369 . S
C966 C968 1.419 . S
C966 H970 0.930 . S
C967 C966 1.369 . S
C967 C976 1.429 . S
C968 C966 1.419 . S
C968 C969 1.363 . S
C968 H971 0.929 . S
C969 C968 1.363 . S
C969 C975 1.428 . S
H970 C966 0.930 . S
H971 C968 0.929 . S
S972 N973 1.613 . S
S972 N974 1.610 . S
N973 S972 1.613 . S
N973 C976 1.350 . S
N974 S972 1.610 . S
N974 C975 1.351 . S
C975 C969 1.428 . S
C975 N974 1.351 . S
C975 C976 1.434 . S
C976 C967 1.429 . S
C976 N973 1.350 . S
C976 C975 1.434 . S
C977 C978 1.369 . S
C977 C979 1.419 . S
C977 H981 0.930 . S
C978 C977 1.369 . S
C978 C987 1.429 . S
C979 C977 1.419 . S
C979 C980 1.363 . S
C979 H982 0.929 . S
C980 C979 1.363 . S
C980 C986 1.428 . S
H981 C977 0.930 . S
H982 C979 0.929 . S
S983 N984 1.613 . S
S983 N985 1.610 . S
N984 S983 1.613 . S
N984 C987 1.350 . S
N985 S983 1.610 . S
N985 C986 1.351 . S
C986 C980 1.428 . S
C986 N985 1.351 . S
C986 C987 1.434 . S
C987 C978 1.429 . S
C987 N984 1.350 . S
C987 C986 1.434 . S
C988 C989 1.369 . S
C988 C990 1.419 . S
C988 H992 0.930 . S
C989 C988 1.369 . S
C989 C998 1.429 . S
C990 C988 1.419 . S
C990 C991 1.363 . S
C990 H993 0.929 . S
C991 C990 1.363 . S
C991 C997 1.428 . S
H992 C988 0.930 . S
H993 C990 0.929 . S
S994 N995 1.613 . S
S994 N996 1.610 . S
N995 S994 1.613 . S
N995 C998 1.350 . S
N996 S994 1.610 . S
N996 C997 1.351 . S
C997 C991 1.428 . S
C997 N996 1.351 . S
C997 C998 1.434 . S
C998 C989 1.429 . S
C998 N995 1.350 . S
C998 C997 1.434 . S
C999 C1000 1.369 . S
C999 C1001 1.419 . S
C999 H1003 0.930 . S
C1000 C999 1.369 . S
C1000 C1009 1.429 . S
C1001 C999 1.419 . S
C1001 C1002 1.363 . S
C1001 H1004 0.929 . S
C1002 C1001 1.363 . S
C1002 C1008 1.428 . S
H1003 C999 0.930 . S
H1004 C1001 0.929 . S
S1005 N1006 1.613 . S
S1005 N1007 1.610 . S
N1006 S1005 1.613 . S
N1006 C1009 1.350 . S
N1007 S1005 1.610 . S
N1007 C1008 1.351 . S
C1008 C1002 1.428 . S
C1008 N1007 1.351 . S
C1008 C1009 1.434 . S
C1009 C1000 1.429 . S
C1009 N1006 1.350 . S
C1009 C1008 1.434 . S
C1010 C1011 1.369 . S
C1010 C1012 1.419 . S
C1010 H1014 0.930 . S
C1011 C1010 1.369 . S
C1011 C1020 1.429 . S
C1012 C1010 1.419 . S
C1012 C1013 1.363 . S
C1012 H1015 0.929 . S
C1013 C1012 1.363 . S
C1013 C1019 1.428 . S
H1014 C1010 0.930 . S
H1015 C1012 0.929 . S
S1016 N1017 1.613 . S
S1016 N1018 1.610 . S
N1017 S1016 1.613 . S
N1017 C1020 1.350 . S
N1018 S1016 1.610 . S
N1018 C1019 1.351 . S
C1019 C1013 1.428 . S
C1019 N1018 1.351 . S
C1019 C1020 1.434 . S
C1020 C1011 1.429 . S
C1020 N1017 1.350 . S
C1020 C1019 1.434 . S
C1021 C1022 1.369 . S
C1021 C1023 1.419 . S
C1021 H1025 0.930 . S
C1022 C1021 1.369 . S
C1022 C1031 1.429 . S
C1023 C1021 1.419 . S
C1023 C1024 1.363 . S
C1023 H1026 0.929 . S
C1024 C1023 1.363 . S
C1024 C1030 1.428 . S
H1025 C1021 0.930 . S
H1026 C1023 0.929 . S
S1027 N1028 1.613 1_556 S
S1027 N1029 1.610 1_556 S
N1028 S1027 1.613 1_554 S
N1028 C1031 1.350 . S
N1029 S1027 1.610 1_554 S
N1029 C1030 1.351 . S
C1030 C1024 1.428 . S
C1030 N1029 1.351 . S
C1030 C1031 1.434 . S
C1031 C1022 1.429 . S
C1031 N1028 1.350 . S
C1031 C1030 1.434 . S
C1032 C1033 1.369 . S
C1032 C1034 1.419 1_455 S
C1032 H1036 0.930 . S
C1033 C1032 1.369 . S
C1033 C1042 1.429 . S
C1034 C1032 1.419 1_655 S
C1034 C1035 1.363 . S
C1034 H1037 0.929 . S
C1035 C1034 1.363 . S
C1035 C1041 1.428 . S
H1036 C1032 0.930 . S
H1037 C1034 0.929 . S
S1038 N1039 1.613 1_655 S
S1038 N1040 1.610 . S
N1039 S1038 1.613 1_455 S
N1039 C1042 1.350 . S
N1040 S1038 1.610 . S
N1040 C1041 1.351 . S
C1041 C1035 1.428 . S
C1041 N1040 1.351 . S
C1041 C1042 1.434 1_655 S
C1042 C1033 1.429 . S
C1042 N1039 1.350 . S
C1042 C1041 1.434 1_455 S
C1043 C1044 1.369 . S
C1043 C1045 1.419 . S
C1043 H1047 0.930 . S
C1044 C1043 1.369 . S
C1044 C1053 1.429 . S
C1045 C1043 1.419 . S
C1045 C1046 1.363 . S
C1045 H1048 0.929 . S
C1046 C1045 1.363 . S
C1046 C1052 1.428 . S
H1047 C1043 0.930 . S
H1048 C1045 0.929 . S
S1049 N1050 1.613 . S
S1049 N1051 1.610 . S
N1050 S1049 1.613 . S
N1050 C1053 1.350 . S
N1051 S1049 1.610 . S
N1051 C1052 1.351 . S
C1052 C1046 1.428 . S
C1052 N1051 1.351 . S
C1052 C1053 1.434 . S
C1053 C1044 1.429 . S
C1053 N1050 1.350 . S
C1053 C1052 1.434 . S
C1054 C1055 1.369 . S
C1054 C1056 1.419 1_545 S
C1054 H1058 0.930 . S
C1055 C1054 1.369 . S
C1055 C1064 1.429 . S
C1056 C1054 1.419 1_565 S
C1056 C1057 1.363 . S
C1056 H1059 0.929 . S
C1057 C1056 1.363 . S
C1057 C1063 1.428 . S
H1058 C1054 0.930 . S
H1059 C1056 0.929 . S
S1060 N1061 1.613 1_565 S
S1060 N1062 1.610 . S
N1061 S1060 1.613 1_545 S
N1061 C1064 1.350 . S
N1062 S1060 1.610 . S
N1062 C1063 1.351 . S
C1063 C1057 1.428 . S
C1063 N1062 1.351 . S
C1063 C1064 1.434 1_565 S
C1064 C1055 1.429 . S
C1064 N1061 1.350 . S
C1064 C1063 1.434 1_545 S
C1065 C1066 1.369 . S
C1065 C1067 1.419 1_545 S
C1065 H1069 0.930 . S
C1066 C1065 1.369 . S
C1066 C1075 1.429 . S
C1067 C1065 1.419 1_565 S
C1067 C1068 1.363 . S
C1067 H1070 0.929 . S
C1068 C1067 1.363 . S
C1068 C1074 1.428 . S
H1069 C1065 0.930 . S
H1070 C1067 0.929 . S
S1071 N1072 1.613 1_565 S
S1071 N1073 1.610 . S
N1072 S1071 1.613 1_545 S
N1072 C1075 1.350 . S
N1073 S1071 1.610 . S
N1073 C1074 1.351 . S
C1074 C1068 1.428 . S
C1074 N1073 1.351 . S
C1074 C1075 1.434 1_565 S
C1075 C1066 1.429 . S
C1075 N1072 1.350 . S
C1075 C1074 1.434 1_545 S
C1076 C1077 1.369 . S
C1076 C1078 1.419 1_655 S
C1076 H1080 0.930 . S
C1077 C1076 1.369 . S
C1077 C1086 1.429 . S
C1078 C1076 1.419 1_455 S
C1078 C1079 1.363 . S
C1078 H1081 0.929 . S
C1079 C1078 1.363 . S
C1079 C1085 1.428 . S
H1080 C1076 0.930 . S
H1081 C1078 0.929 . S
S1082 N1083 1.613 . S
S1082 N1084 1.610 1_655 S
N1083 S1082 1.613 . S
N1083 C1086 1.350 . S
N1084 S1082 1.610 1_455 S
N1084 C1085 1.351 . S
C1085 C1079 1.428 . S
C1085 N1084 1.351 . S
C1085 C1086 1.434 1_455 S
C1086 C1077 1.429 . S
C1086 N1083 1.350 . S
C1086 C1085 1.434 1_655 S
C1087 C1088 1.369 . S
C1087 C1089 1.419 . S
C1087 H1091 0.930 . S
C1088 C1087 1.369 . S
C1088 C1097 1.429 . S
C1089 C1087 1.419 . S
C1089 C1090 1.363 . S
C1089 H1092 0.929 . S
C1090 C1089 1.363 . S
C1090 C1096 1.428 . S
H1091 C1087 0.930 . S
H1092 C1089 0.929 . S
S1093 N1094 1.613 . S
S1093 N1095 1.610 . S
N1094 S1093 1.613 . S
N1094 C1097 1.350 . S
N1095 S1093 1.610 . S
N1095 C1096 1.351 . S
C1096 C1090 1.428 . S
C1096 N1095 1.351 . S
C1096 C1097 1.434 . S
C1097 C1088 1.429 . S
C1097 N1094 1.350 . S
C1097 C1096 1.434 . S
C1098 C1099 1.369 . S
C1098 C1100 1.419 . S
C1098 H1102 0.930 . S
C1099 C1098 1.369 . S
C1099 C1108 1.429 . S
C1100 C1098 1.419 . S
C1100 C1101 1.363 . S
C1100 H1103 0.929 . S
C1101 C1100 1.363 . S
C1101 C1107 1.428 . S
H1102 C1098 0.930 . S
H1103 C1100 0.929 . S
S1104 N1105 1.613 . S
S1104 N1106 1.610 . S
N1105 S1104 1.613 . S
N1105 C1108 1.350 . S
N1106 S1104 1.610 . S
N1106 C1107 1.351 . S
C1107 C1101 1.428 . S
C1107 N1106 1.351 . S
C1107 C1108 1.434 . S
C1108 C1099 1.429 . S
C1108 N1105 1.350 . S
C1108 C1107 1.434 . S
C1109 C1110 1.369 . S
C1109 C1111 1.419 . S
C1109 H1113 0.930 . S
C1110 C1109 1.369 . S
C1110 C1119 1.429 . S
C1111 C1109 1.419 . S
C1111 C1112 1.363 . S
C1111 H1114 0.929 . S
C1112 C1111 1.363 . S
C1112 C1118 1.428 . S
H1113 C1109 0.930 . S
H1114 C1111 0.929 . S
S1115 N1116 1.613 . S
S1115 N1117 1.610 . S
N1116 S1115 1.613 . S
N1116 C1119 1.350 . S
N1117 S1115 1.610 . S
N1117 C1118 1.351 . S
C1118 C1112 1.428 . S
C1118 N1117 1.351 . S
C1118 C1119 1.434 . S
C1119 C1110 1.429 . S
C1119 N1116 1.350 . S
C1119 C1118 1.434 . S
C1120 C1121 1.369 . S
C1120 C1122 1.419 . S
C1120 H1124 0.930 . S
C1121 C1120 1.369 . S
C1121 C1130 1.429 . S
C1122 C1120 1.419 . S
C1122 C1123 1.363 . S
C1122 H1125 0.929 . S
C1123 C1122 1.363 . S
C1123 C1129 1.428 . S
H1124 C1120 0.930 . S
H1125 C1122 0.929 . S
S1126 N1127 1.613 . S
S1126 N1128 1.610 . S
N1127 S1126 1.613 . S
N1127 C1130 1.350 . S
N1128 S1126 1.610 . S
N1128 C1129 1.351 . S
C1129 C1123 1.428 . S
C1129 N1128 1.351 . S
C1129 C1130 1.434 . S
C1130 C1121 1.429 . S
C1130 N1127 1.350 . S
C1130 C1129 1.434 . S
C1131 C1132 1.369 . S
C1131 C1133 1.419 . S
C1131 H1135 0.930 . S
C1132 C1131 1.369 . S
C1132 C1141 1.429 . S
C1133 C1131 1.419 . S
C1133 C1134 1.363 . S
C1133 H1136 0.929 . S
C1134 C1133 1.363 . S
C1134 C1140 1.428 . S
H1135 C1131 0.930 . S
H1136 C1133 0.929 . S
S1137 N1138 1.613 . S
S1137 N1139 1.610 . S
N1138 S1137 1.613 . S
N1138 C1141 1.350 . S
N1139 S1137 1.610 . S
N1139 C1140 1.351 . S
C1140 C1134 1.428 . S
C1140 N1139 1.351 . S
C1140 C1141 1.434 . S
C1141 C1132 1.429 . S
C1141 N1138 1.350 . S
C1141 C1140 1.434 . S
C1142 C1143 1.369 . S
C1142 C1144 1.419 . S
C1142 H1146 0.930 . S
C1143 C1142 1.369 . S
C1143 C1152 1.429 . S
C1144 C1142 1.419 . S
C1144 C1145 1.363 . S
C1144 H1147 0.929 . S
C1145 C1144 1.363 . S
C1145 C1151 1.428 . S
H1146 C1142 0.930 . S
H1147 C1144 0.929 . S
S1148 N1149 1.613 . S
S1148 N1150 1.610 . S
N1149 S1148 1.613 . S
N1149 C1152 1.350 . S
N1150 S1148 1.610 . S
N1150 C1151 1.351 . S
C1151 C1145 1.428 . S
C1151 N1150 1.351 . S
C1151 C1152 1.434 . S
C1152 C1143 1.429 . S
C1152 N1149 1.350 . S
C1152 C1151 1.434 . S
C1153 C1154 1.369 . S
C1153 C1155 1.419 . S
C1153 H1157 0.930 . S
C1154 C1153 1.369 . S
C1154 C1163 1.429 . S
C1155 C1153 1.419 . S
C1155 C1156 1.363 . S
C1155 H1158 0.929 . S
C1156 C1155 1.363 . S
C1156 C1162 1.428 . S
H1157 C1153 0.930 . S
H1158 C1155 0.929 . S
S1159 N1160 1.613 . S
S1159 N1161 1.610 . S
N1160 S1159 1.613 . S
N1160 C1163 1.350 . S
N1161 S1159 1.610 . S
N1161 C1162 1.351 . S
C1162 C1156 1.428 . S
C1162 N1161 1.351 . S
C1162 C1163 1.434 . S
C1163 C1154 1.429 . S
C1163 N1160 1.350 . S
C1163 C1162 1.434 . S
C1164 C1165 1.369 . S
C1164 C1166 1.419 . S
C1164 H1168 0.930 . S
C1165 C1164 1.369 . S
C1165 C1174 1.429 . S
C1166 C1164 1.419 . S
C1166 C1167 1.363 . S
C1166 H1169 0.929 . S
C1167 C1166 1.363 . S
C1167 C1173 1.428 . S
H1168 C1164 0.930 . S
H1169 C1166 0.929 . S
S1170 N1171 1.613 . S
S1170 N1172 1.610 . S
N1171 S1170 1.613 . S
N1171 C1174 1.350 . S
N1172 S1170 1.610 . S
N1172 C1173 1.351 . S
C1173 C1167 1.428 . S
C1173 N1172 1.351 . S
C1173 C1174 1.434 . S
C1174 C1165 1.429 . S
C1174 N1171 1.350 . S
C1174 C1173 1.434 . S
C1175 C1176 1.369 . S
C1175 C1177 1.419 . S
C1175 H1179 0.930 . S
C1176 C1175 1.369 . S
C1176 C1185 1.429 . S
C1177 C1175 1.419 . S
C1177 C1178 1.363 . S
C1177 H1180 0.929 . S
C1178 C1177 1.363 . S
C1178 C1184 1.428 . S
H1179 C1175 0.930 . S
H1180 C1177 0.929 . S
S1181 N1182 1.613 . S
S1181 N1183 1.610 . S
N1182 S1181 1.613 . S
N1182 C1185 1.350 . S
N1183 S1181 1.610 . S
N1183 C1184 1.351 . S
C1184 C1178 1.428 . S
C1184 N1183 1.351 . S
C1184 C1185 1.434 . S
C1185 C1176 1.429 . S
C1185 N1182 1.350 . S
C1185 C1184 1.434 . S
C1186 C1187 1.369 . S
C1186 C1188 1.419 . S
C1186 H1190 0.930 . S
C1187 C1186 1.369 . S
C1187 C1196 1.429 . S
C1188 C1186 1.419 . S
C1188 C1189 1.363 . S
C1188 H1191 0.929 . S
C1189 C1188 1.363 . S
C1189 C1195 1.428 . S
H1190 C1186 0.930 . S
H1191 C1188 0.929 . S
S1192 N1193 1.613 . S
S1192 N1194 1.610 . S
N1193 S1192 1.613 . S
N1193 C1196 1.350 . S
N1194 S1192 1.610 . S
N1194 C1195 1.351 . S
C1195 C1189 1.428 . S
C1195 N1194 1.351 . S
C1195 C1196 1.434 . S
C1196 C1187 1.429 . S
C1196 N1193 1.350 . S
C1196 C1195 1.434 . S
C1197 C1198 1.369 . S
C1197 C1199 1.419 . S
C1197 H1201 0.930 . S
C1198 C1197 1.369 . S
C1198 C1207 1.429 . S
C1199 C1197 1.419 . S
C1199 C1200 1.363 . S
C1199 H1202 0.929 . S
C1200 C1199 1.363 . S
C1200 C1206 1.428 . S
H1201 C1197 0.930 . S
H1202 C1199 0.929 . S
S1203 N1204 1.613 . S
S1203 N1205 1.610 . S
N1204 S1203 1.613 . S
N1204 C1207 1.350 . S
N1205 S1203 1.610 . S
N1205 C1206 1.351 . S
C1206 C1200 1.428 . S
C1206 N1205 1.351 . S
C1206 C1207 1.434 . S
C1207 C1198 1.429 . S
C1207 N1204 1.350 . S
C1207 C1206 1.434 . S
C1208 C1209 1.369 . S
C1208 C1210 1.419 . S
C1208 H1212 0.930 . S
C1209 C1208 1.369 . S
C1209 C1218 1.429 . S
C1210 C1208 1.419 . S
C1210 C1211 1.363 . S
C1210 H1213 0.929 . S
C1211 C1210 1.363 . S
C1211 C1217 1.428 . S
H1212 C1208 0.930 . S
H1213 C1210 0.929 . S
S1214 N1215 1.613 . S
S1214 N1216 1.610 . S
N1215 S1214 1.613 . S
N1215 C1218 1.350 . S
N1216 S1214 1.610 . S
N1216 C1217 1.351 . S
C1217 C1211 1.428 . S
C1217 N1216 1.351 . S
C1217 C1218 1.434 . S
C1218 C1209 1.429 . S
C1218 N1215 1.350 . S
C1218 C1217 1.434 . S
C1219 C1220 1.369 . S
C1219 C1221 1.419 . S
C1219 H1223 0.930 1_554 S
C1220 C1219 1.369 . S
C1220 C1229 1.429 . S
C1221 C1219 1.419 . S
C1221 C1222 1.363 . S
C1221 H1224 0.929 1_554 S
C1222 C1221 1.363 . S
C1222 C1228 1.428 . S
H1223 C1219 0.930 1_556 S
H1224 C1221 0.929 1_556 S
S1225 N1226 1.613 . S
S1225 N1227 1.610 . S
N1226 S1225 1.613 . S
N1226 C1229 1.350 . S
N1227 S1225 1.610 . S
N1227 C1228 1.351 . S
C1228 C1222 1.428 . S
C1228 N1227 1.351 . S
C1228 C1229 1.434 . S
C1229 C1220 1.429 . S
C1229 N1226 1.350 . S
C1229 C1228 1.434 . S
C1230 C1231 1.369 . S
C1230 C1232 1.419 . S
C1230 H1234 0.930 1_556 S
C1231 C1230 1.369 . S
C1231 C1240 1.429 . S
C1232 C1230 1.419 . S
C1232 C1233 1.363 . S
C1232 H1235 0.929 1_556 S
C1233 C1232 1.363 . S
C1233 C1239 1.428 . S
H1234 C1230 0.930 1_554 S
H1235 C1232 0.929 1_554 S
S1236 N1237 1.613 . S
S1236 N1238 1.610 . S
N1237 S1236 1.613 . S
N1237 C1240 1.350 . S
N1238 S1236 1.610 . S
N1238 C1239 1.351 . S
C1239 C1233 1.428 . S
C1239 N1238 1.351 . S
C1239 C1240 1.434 . S
C1240 C1231 1.429 . S
C1240 N1237 1.350 . S
C1240 C1239 1.434 . S
C1241 C1242 1.369 . S
C1241 C1243 1.419 . S
C1241 H1245 0.930 . S
C1242 C1241 1.369 . S
C1242 C1251 1.434 . S
C1243 C1241 1.419 . S
C1243 C1244 1.363 . S
C1243 H1246 0.929 . S
C1244 C1243 1.363 . S
C1244 C1250 1.438 . S
H1245 C1241 0.930 . S
H1246 C1243 0.929 . S
S1247 N1248 1.613 . S
S1247 N1249 1.610 . S
N1248 S1247 1.613 . S
N1248 C1251 1.344 1_554 S
N1249 S1247 1.610 . S
N1249 C1250 1.340 1_554 S
C1250 C1244 1.438 . S
C1250 N1249 1.340 1_556 S
C1250 C1251 1.434 . S
C1251 C1242 1.434 . S
C1251 N1248 1.344 1_556 S
C1251 C1250 1.434 . S
C1252 C1253 1.369 . S
C1252 C1254 1.419 . S
C1252 H1256 0.930 . S
C1253 C1252 1.369 . S
C1253 C1262 1.429 . S
C1254 C1252 1.419 . S
C1254 C1255 1.363 . S
C1254 H1257 0.929 . S
C1255 C1254 1.363 . S
C1255 C1261 1.428 . S
H1256 C1252 0.930 . S
H1257 C1254 0.929 . S
S1258 N1259 1.613 . S
S1258 N1260 1.610 . S
N1259 S1258 1.613 . S
N1259 C1262 1.350 . S
N1260 S1258 1.610 . S
N1260 C1261 1.351 . S
C1261 C1255 1.428 . S
C1261 N1260 1.351 . S
C1261 C1262 1.434 . S
C1262 C1253 1.429 . S
C1262 N1259 1.350 . S
C1262 C1261 1.434 . S
C1263 C1264 1.369 . S
C1263 C1265 1.419 . S
C1263 H1267 0.930 . S
C1264 C1263 1.369 . S
C1264 C1273 1.429 . S
C1265 C1263 1.419 . S
C1265 C1266 1.363 . S
C1265 H1268 0.929 . S
C1266 C1265 1.363 . S
C1266 C1272 1.428 . S
H1267 C1263 0.930 . S
H1268 C1265 0.929 . S
S1269 N1270 1.613 . S
S1269 N1271 1.610 . S
N1270 S1269 1.613 . S
N1270 C1273 1.350 . S
N1271 S1269 1.610 . S
N1271 C1272 1.351 . S
C1272 C1266 1.428 . S
C1272 N1271 1.351 . S
C1272 C1273 1.434 . S
C1273 C1264 1.429 . S
C1273 N1270 1.350 . S
C1273 C1272 1.434 . S
C1274 C1275 1.369 . S
C1274 C1276 1.419 . S
C1274 H1278 0.930 . S
C1275 C1274 1.369 . S
C1275 C1284 1.429 . S
C1276 C1274 1.419 . S
C1276 C1277 1.363 . S
C1276 H1279 0.929 . S
C1277 C1276 1.363 . S
C1277 C1283 1.428 . S
H1278 C1274 0.930 . S
H1279 C1276 0.929 . S
S1280 N1281 1.613 . S
S1280 N1282 1.610 . S
N1281 S1280 1.613 . S
N1281 C1284 1.350 . S
N1282 S1280 1.610 . S
N1282 C1283 1.351 . S
C1283 C1277 1.428 . S
C1283 N1282 1.351 . S
C1283 C1284 1.434 . S
C1284 C1275 1.429 . S
C1284 N1281 1.350 . S
C1284 C1283 1.434 . S
C1285 C1286 1.369 . S
C1285 C1287 1.419 . S
C1285 H1289 0.930 . S
C1286 C1285 1.369 . S
C1286 C1295 1.429 . S
C1287 C1285 1.419 . S
C1287 C1288 1.363 . S
C1287 H1290 0.929 . S
C1288 C1287 1.363 . S
C1288 C1294 1.428 . S
H1289 C1285 0.930 . S
H1290 C1287 0.929 . S
S1291 N1292 1.613 . S
S1291 N1293 1.610 . S
N1292 S1291 1.613 . S
N1292 C1295 1.350 . S
N1293 S1291 1.610 . S
N1293 C1294 1.351 . S
C1294 C1288 1.428 . S
C1294 N1293 1.351 . S
C1294 C1295 1.434 . S
C1295 C1286 1.429 . S
C1295 N1292 1.350 . S
C1295 C1294 1.434 . S
C505 C78 1.518 . S
C507 C8 1.518 . S
C516 C50 1.519 . S
C518 C22 1.519 . S
C527 C36 1.519 . S
C529 C64 1.519 . S
C538 C92 1.519 . S
C540 C162 1.519 . S
C549 C106 1.517 . S
C551 C134 1.518 . S
C560 C148 1.517 . S
C562 C120 1.517 . S
C571 C176 1.516 . S
C573 C246 1.516 . S
C582 C190 1.516 . S
C584 C218 1.516 . S
C593 C204 1.519 . S
C595 C232 1.518 . S
C604 C330 1.519 . S
C606 C260 1.519 . S
C615 C274 1.518 . S
C617 C302 1.518 . S
C626 C316 1.518 . S
C628 C288 1.518 . S
C637 C414 1.518 . S
C639 C344 1.518 . S
C648 C386 1.518 . S
C650 C358 1.517 . S
C659 C400 1.519 . S
C661 C372 1.519 . S
C670 C428 1.516 . S
C672 C498 1.516 . S
C681 C442 1.518 . S
C683 C470 1.518 . S
C692 C456 1.516 . S
C694 C484 1.516 . S
C703 C77 1.527 . S
C705 C7 1.534 . S
C714 C21 1.535 . S
C716 C49 1.528 . S
C725 C63 1.534 . S
C727 C35 1.528 . S
C736 C91 1.527 . S
C738 C161 1.534 . S
C747 C105 1.535 . S
C749 C133 1.527 . S
C758 C147 1.535 . S
C760 C119 1.527 . S
C769 C175 1.528 . S
C771 C245 1.533 . S
C780 C217 1.535 . S
C782 C189 1.527 . S
C791 C231 1.532 . S
C793 C203 1.530 . S
C802 C259 1.528 . S
C804 C329 1.533 . S
C813 C273 1.530 . S
C815 C301 1.532 . S
C824 C315 1.529 . S
C826 C287 1.532 . S
C835 C413 1.526 . S
C837 C343 1.534 . S
C846 C357 1.530 . S
C848 C385 1.532 . S
C857 C371 1.530 . S
C859 C399 1.531 . S
C868 C497 1.527 . S
C870 C427 1.534 . S
C879 C469 1.527 . S
C881 C441 1.533 . S
C890 C483 1.530 . S
C892 C455 1.532 . S
C901 C233 1.618 . S
C903 C9 1.617 . S
C912 C247 1.617 . S
C914 C23 1.618 . S
C923 C219 1.617 . S
C925 C37 1.617 . S
C934 C51 1.618 . S
C936 C373 1.618 . S
C945 C65 1.618 . S
C947 C345 1.619 . S
C956 C79 1.618 . S
C958 C359 1.619 . S
C967 C93 1.618 . S
C969 C485 1.619 . S
C978 C107 1.618 . S
C980 C499 1.618 . S
C989 C121 1.619 . S
C991 C471 1.619 . S
C1000 C135 1.619 . S
C1002 C289 1.618 . S
C1011 C261 1.617 . S
C1013 C149 1.617 . S
C1022 C275 1.619 . S
C1024 C163 1.618 . S
C1033 C401 1.618 . S
C1035 C177 1.617 . S
C1044 C191 1.617 . S
C1046 C415 1.617 . S
C1055 C205 1.619 . S
C1057 C387 1.618 . S
C1066 C303 1.619 . S
C1068 C457 1.618 . S
C1077 C317 1.618 . S
C1079 C429 1.619 . S
C1088 C443 1.618 . S
C1090 C331 1.619 . S
C1099 C3 1.369 . S
C1101 C143 1.370 . S
C1110 C157 1.373 . S
C1112 C17 1.372 . S
C1121 C129 1.370 . S
C1123 C31 1.370 . S
C1132 C45 1.372 . S
C1134 C115 1.372 . S
C1143 C59 1.370 . S
C1145 C87 1.370 . S
C1154 C73 1.369 . S
C1156 C101 1.370 . S
C1165 C171 1.371 . S
C1167 C311 1.371 . S
C1176 C325 1.373 . S
C1178 C185 1.372 . S
C1187 C297 1.372 . S
C1189 C199 1.372 . S
C1198 C213 1.373 . S
C1200 C283 1.372 . S
C1209 C227 1.372 . S
C1211 C255 1.372 . S
C1220 C269 1.372 . S
C1222 C241 1.372 . S
C1231 C339 1.371 . S
C1233 C479 1.371 . S
C1242 C493 1.372 . S
C1244 C353 1.372 . S
C1253 C367 1.372 . S
C1255 C465 1.372 . S
C1264 C381 1.370 . S
C1266 C451 1.370 . S
C1275 C423 1.372 . S
C1277 C395 1.372 . S
C1286 C409 1.373 . S
C1288 C437 1.372 . S
