# Generated by pormake.
# Topology zfo, (5)-cn, num edge types: 1
# Building blocks:
#     Node 0, Type 0, BuildingBlock: BEQFEK_clean_sbu_0, # of connection points: 5
#     Node 1, Type 0, BuildingBlock: BEQFEK_clean_sbu_0, # of connection points: 5
#     Node 2, Type 0, BuildingBlock: BEQFEK_clean_sbu_0, # of connection points: 5
#     Node 3, Type 0, BuildingBlock: BEQFEK_clean_sbu_0, # of connection points: 5
#     Node 4, Type 0, BuildingBlock: BEQFEK_clean_sbu_0, # of connection points: 5
#     Node 5, Type 0, BuildingBlock: BEQFEK_clean_sbu_0, # of connection points: 5
#     Node 6, Type 0, BuildingBlock: BEQFEK_clean_sbu_0, # of connection points: 5
#     Node 7, Type 0, BuildingBlock: BEQFEK_clean_sbu_0, # of connection points: 5
#     Node 8, Type 0, BuildingBlock: BEQFEK_clean_sbu_0, # of connection points: 5
#     Node 9, Type 0, BuildingBlock: BEQFEK_clean_sbu_0, # of connection points: 5
#     Node 10, Type 0, BuildingBlock: BEQFEK_clean_sbu_0, # of connection points: 5
#     Node 11, Type 0, BuildingBlock: BEQFEK_clean_sbu_0, # of connection points: 5
#     Node 12, Type 0, BuildingBlock: BEQFEK_clean_sbu_0, # of connection points: 5
#     Node 13, Type 0, BuildingBlock: BEQFEK_clean_sbu_0, # of connection points: 5
#     Node 14, Type 0, BuildingBlock: BEQFEK_clean_sbu_0, # of connection points: 5
#     Node 15, Type 0, BuildingBlock: BEQFEK_clean_sbu_0, # of connection points: 5
#     Edge 16, Type (0, 0), BuildingBlock: EZIPEK_clean_linker_0, # of connection points: 2
#     Edge 17, Type (0, 0), BuildingBlock: EZIPEK_clean_linker_0, # of connection points: 2
#     Edge 18, Type (0, 0), BuildingBlock: EZIPEK_clean_linker_0, # of connection points: 2
#     Edge 19, Type (0, 0), BuildingBlock: EZIPEK_clean_linker_0, # of connection points: 2
#     Edge 20, Type (0, 0), BuildingBlock: EZIPEK_clean_linker_0, # of connection points: 2
#     Edge 21, Type (0, 0), BuildingBlock: EZIPEK_clean_linker_0, # of connection points: 2
#     Edge 22, Type (0, 0), BuildingBlock: EZIPEK_clean_linker_0, # of connection points: 2
#     Edge 23, Type (0, 0), BuildingBlock: EZIPEK_clean_linker_0, # of connection points: 2
#     Edge 24, Type (0, 0), BuildingBlock: EZIPEK_clean_linker_0, # of connection points: 2
#     Edge 25, Type (0, 0), BuildingBlock: EZIPEK_clean_linker_0, # of connection points: 2
#     Edge 26, Type (0, 0), BuildingBlock: EZIPEK_clean_linker_0, # of connection points: 2
#     Edge 27, Type (0, 0), BuildingBlock: EZIPEK_clean_linker_0, # of connection points: 2
#     Edge 28, Type (0, 0), BuildingBlock: EZIPEK_clean_linker_0, # of connection points: 2
#     Edge 29, Type (0, 0), BuildingBlock: EZIPEK_clean_linker_0, # of connection points: 2
#     Edge 30, Type (0, 0), BuildingBlock: EZIPEK_clean_linker_0, # of connection points: 2
#     Edge 31, Type (0, 0), BuildingBlock: EZIPEK_clean_linker_0, # of connection points: 2
#     Edge 32, Type (0, 0), BuildingBlock: EZIPEK_clean_linker_0, # of connection points: 2
#     Edge 33, Type (0, 0), BuildingBlock: EZIPEK_clean_linker_0, # of connection points: 2
#     Edge 34, Type (0, 0), BuildingBlock: EZIPEK_clean_linker_0, # of connection points: 2
#     Edge 35, Type (0, 0), BuildingBlock: EZIPEK_clean_linker_0, # of connection points: 2
#     Edge 36, Type (0, 0), BuildingBlock: EZIPEK_clean_linker_0, # of connection points: 2
#     Edge 37, Type (0, 0), BuildingBlock: EZIPEK_clean_linker_0, # of connection points: 2
#     Edge 38, Type (0, 0), BuildingBlock: EZIPEK_clean_linker_0, # of connection points: 2
#     Edge 39, Type (0, 0), BuildingBlock: EZIPEK_clean_linker_0, # of connection points: 2
#     Edge 40, Type (0, 0), BuildingBlock: EZIPEK_clean_linker_0, # of connection points: 2
#     Edge 41, Type (0, 0), BuildingBlock: EZIPEK_clean_linker_0, # of connection points: 2
#     Edge 42, Type (0, 0), BuildingBlock: EZIPEK_clean_linker_0, # of connection points: 2
#     Edge 43, Type (0, 0), BuildingBlock: EZIPEK_clean_linker_0, # of connection points: 2
#     Edge 44, Type (0, 0), BuildingBlock: EZIPEK_clean_linker_0, # of connection points: 2
#     Edge 45, Type (0, 0), BuildingBlock: EZIPEK_clean_linker_0, # of connection points: 2
#     Edge 46, Type (0, 0), BuildingBlock: EZIPEK_clean_linker_0, # of connection points: 2
#     Edge 47, Type (0, 0), BuildingBlock: EZIPEK_clean_linker_0, # of connection points: 2
#     Edge 48, Type (0, 0), BuildingBlock: EZIPEK_clean_linker_0, # of connection points: 2
#     Edge 49, Type (0, 0), BuildingBlock: EZIPEK_clean_linker_0, # of connection points: 2
#     Edge 50, Type (0, 0), BuildingBlock: EZIPEK_clean_linker_0, # of connection points: 2
#     Edge 51, Type (0, 0), BuildingBlock: EZIPEK_clean_linker_0, # of connection points: 2
#     Edge 52, Type (0, 0), BuildingBlock: EZIPEK_clean_linker_0, # of connection points: 2
#     Edge 53, Type (0, 0), BuildingBlock: EZIPEK_clean_linker_0, # of connection points: 2
#     Edge 54, Type (0, 0), BuildingBlock: EZIPEK_clean_linker_0, # of connection points: 2
#     Edge 55, Type (0, 0), BuildingBlock: EZIPEK_clean_linker_0, # of connection points: 2
# Relax obj value: 0.187
# Max RMSD: 0.173
# Mean RMSD: 0.165
data_MOF--net-zfo--node1-BEQFEK_clean_sbu_0--edge1-EZIPEK_clean_linker_0
_symmetry_space_group_name_H-M    P1
_symmetry_Int_Tables_number       1
_symmetry_cell_setting            triclinic
loop_
_symmetry_equiv_pos_as_xyz
'x, y, z'
_cell_length_a     25.088195
_cell_length_b     25.034304
_cell_length_c     50.906956
_cell_angle_alpha  90.081927
_cell_angle_beta   90.05878
_cell_angle_gamma 90.11661
loop_
_atom_site_label
_atom_site_type_symbol
_atom_site_fract_x
_atom_site_fract_y
_atom_site_fract_z
_atom_type_partial_charge
Co0 Co 0.0827 0.19321 0.09201 0.0
Co1 Co 0.09174 0.18346 0.15363 0.0
C2 C 0.01552 0.25936 0.12671 0.0
O3 O 0.02861 0.24706 0.10331 0.0
O4 O 0.03891 0.23866 0.1463 0.0
C5 C 0.09216 0.23329 0.03804 0.0
O6 O 0.09689 0.28065 0.04898 0.0
C7 C 0.12013 0.23863 0.20149 0.0
C8 C 0.14538 0.17341 0.22782 0.0
C9 C 0.14452 0.22865 0.22541 0.0
N10 N 0.1095 0.19161 0.18979 0.0
N11 N 0.12324 0.15271 0.20593 0.0
C12 C 0.10815 0.29183 0.18946 0.0
H13 H 0.06437 0.29604 0.18727 0.0
H14 H 0.12603 0.2939 0.16954 0.0
H15 H 0.12299 0.32533 0.20175 0.0
C16 C 0.20284 0.20849 0.09974 0.0
N17 N 0.15208 0.20174 0.10833 0.0
N18 N 0.15418 0.19085 0.13364 0.0
C19 C 0.20531 0.18686 0.14136 0.0
C20 C 0.23762 0.19922 0.12045 0.0
C21 C 0.21925 0.22055 0.07222 0.0
H22 H 0.23016 0.18269 0.06228 0.0
H23 H 0.18685 0.24034 0.06138 0.0
H24 H 0.2551 0.24662 0.07215 0.0
O25 O 0.0524 0.12182 0.10232 0.0
O26 O 0.05858 0.11448 0.14597 0.0
H27 H 0.19955 0.1282 0.17169 0.0
H28 H 0.26606 0.15378 0.16705 0.0
C29 C 0.22322 0.16444 0.16714 0.0
H30 H 0.21701 0.19404 0.18283 0.0
H31 H 0.12039 0.11214 0.20137 0.0
O32 O 0.08626 0.19255 0.05269 0.0
C33 C 0.04463 0.09606 0.12365 0.0
Co34 Co 0.80876 0.09348 0.59034 0.0
Co35 Co 0.82232 0.09978 0.65231 0.0
C36 C 0.74583 0.02323 0.62476 0.0
O37 O 0.75596 0.03779 0.6013 0.0
O38 O 0.76823 0.04575 0.64422 0.0
C39 C 0.77133 0.11155 0.53568 0.0
O40 O 0.72436 0.12126 0.54599 0.0
C41 C 0.76597 0.12383 0.70074 0.0
C42 C 0.83017 0.14524 0.7285 0.0
C43 C 0.7751 0.1437 0.72582 0.0
N44 N 0.81324 0.11575 0.6889 0.0
N45 N 0.85152 0.12752 0.70581 0.0
C46 C 0.71328 0.11303 0.68793 0.0
H47 H 0.70902 0.06941 0.68468 0.0
H48 H 0.71196 0.13285 0.66845 0.0
H49 H 0.67945 0.1266 0.70022 0.0
C50 C 0.78863 0.21224 0.60038 0.0
N51 N 0.7993 0.1614 0.60789 0.0
N52 N 0.81331 0.16247 0.63283 0.0
C53 C 0.81626 0.21319 0.6412 0.0
C54 C 0.79929 0.24641 0.62137 0.0
C55 C 0.7663 0.2279 0.57431 0.0
H56 H 0.72631 0.20959 0.57196 0.0
H57 H 0.76244 0.27189 0.57253 0.0
H58 H 0.79235 0.21283 0.55849 0.0
O59 O 0.88103 0.06442 0.60023 0.0
O60 O 0.89195 0.06961 0.6438 0.0
H61 H 0.85311 0.2726 0.66624 0.0
H62 H 0.80977 0.22627 0.68259 0.0
C63 C 0.83984 0.23029 0.66689 0.0
H64 H 0.8745 0.2047 0.67166 0.0
H65 H 0.89214 0.12559 0.70151 0.0
O66 O 0.81004 0.09983 0.55081 0.0
C67 C 0.90878 0.05709 0.621 0.0
Co68 Co 0.9 0.80021 0.08677 0.0
Co69 Co 0.89001 0.79884 0.14876 0.0
C70 C 0.96738 0.7289 0.11907 0.0
O71 O 0.95214 0.74372 0.09637 0.0
O72 O 0.9468 0.74788 0.13987 0.0
C73 C 0.90212 0.76354 0.03276 0.0
O74 O 0.91781 0.71802 0.04293 0.0
C75 C 0.86923 0.74334 0.19834 0.0
C76 C 0.8355 0.80789 0.22277 0.0
C77 C 0.84424 0.7532 0.2222 0.0
N78 N 0.8728 0.78967 0.18505 0.0
N79 N 0.85387 0.82829 0.20006 0.0
C80 C 0.88833 0.69085 0.18788 0.0
H81 H 0.93196 0.69314 0.18453 0.0
H82 H 0.86912 0.68278 0.16863 0.0
H83 H 0.87992 0.6577 0.20173 0.0
C84 C 0.78278 0.79063 0.09164 0.0
N85 N 0.83209 0.79012 0.10223 0.0
N86 N 0.82797 0.7902 0.12803 0.0
C87 C 0.77596 0.7912 0.13457 0.0
C88 C 0.74593 0.79126 0.11186 0.0
C89 C 0.77131 0.79568 0.06295 0.0
H90 H 0.79003 0.83276 0.05536 0.0
H91 H 0.78923 0.76139 0.05243 0.0
H92 H 0.7278 0.7967 0.05901 0.0
O93 O 0.9306 0.86965 0.09917 0.0
O94 O 0.91927 0.87095 0.14271 0.0
H95 H 0.76639 0.8383 0.1692 0.0
H96 H 0.71089 0.79438 0.16258 0.0
C97 C 0.75492 0.79821 0.16182 0.0
H98 H 0.77233 0.76772 0.17477 0.0
H99 H 0.85099 0.86815 0.19425 0.0
O100 O 0.89265 0.80312 0.04774 0.0
C101 C 0.93538 0.8926 0.12148 0.0
Co102 Co 0.20559 0.91099 0.58405 0.0
Co103 Co 0.20632 0.91274 0.64638 0.0
C104 C 0.27885 0.98287 0.61315 0.0
O105 O 0.26495 0.96147 0.59152 0.0
O106 O 0.2595 0.96689 0.6349 0.0
C107 C 0.23902 0.8894 0.53005 0.0
O108 O 0.28493 0.87673 0.5408 0.0
C109 C 0.26311 0.88782 0.6952 0.0
C110 C 0.19741 0.86432 0.72148 0.0
C111 C 0.25257 0.86364 0.71921 0.0
N112 N 0.21654 0.89924 0.68329 0.0
N113 N 0.17745 0.88683 0.69956 0.0
C114 C 0.31629 0.90024 0.68359 0.0
H115 H 0.31878 0.88301 0.66352 0.0
H116 H 0.34948 0.88542 0.69598 0.0
H117 H 0.3198 0.94421 0.68194 0.0
C118 C 0.21054 0.79279 0.59451 0.0
N119 N 0.21273 0.84453 0.60222 0.0
N120 N 0.21003 0.84624 0.6281 0.0
C121 C 0.20387 0.79611 0.63734 0.0
C122 C 0.20514 0.76101 0.61654 0.0
C123 C 0.20566 0.77384 0.56681 0.0
H124 H 0.23658 0.79259 0.55446 0.0
H125 H 0.20967 0.72976 0.56551 0.0
H126 H 0.16579 0.78505 0.55934 0.0
O127 O 0.13748 0.9454 0.59566 0.0
O128 O 0.13585 0.94389 0.63958 0.0
H129 H 0.1507 0.80478 0.66977 0.0
H130 H 0.1788 0.73891 0.66702 0.0
C131 C 0.18717 0.78213 0.66469 0.0
H132 H 0.21901 0.79266 0.67857 0.0
H133 H 0.13705 0.89011 0.69493 0.0
O134 O 0.20064 0.90331 0.54488 0.0
C135 C 0.11464 0.95532 0.61754 0.0
Co136 Co 0.59929 0.30161 0.94124 0.0
Co137 Co 0.60384 0.29541 0.87903 0.0
C138 C 0.53073 0.22636 0.91111 0.0
O139 O 0.54886 0.24272 0.93305 0.0
O140 O 0.54904 0.24336 0.88942 0.0
C141 C 0.60817 0.26385 0.99469 0.0
O142 O 0.60435 0.21635 0.98386 0.0
C143 C 0.62615 0.23847 0.82975 0.0
C144 C 0.65743 0.30386 0.80508 0.0
C145 C 0.65194 0.24872 0.80608 0.0
N146 N 0.6196 0.28513 0.84258 0.0
N147 N 0.63682 0.32415 0.82733 0.0
C148 C 0.60918 0.18551 0.84053 0.0
H149 H 0.56561 0.18618 0.84423 0.0
H150 H 0.62915 0.17865 0.85969 0.0
H151 H 0.61848 0.15245 0.82674 0.0
C152 C 0.71609 0.2969 0.93427 0.0
N153 N 0.66603 0.29348 0.92474 0.0
N154 N 0.66791 0.29123 0.89889 0.0
C155 C 0.71934 0.29334 0.89132 0.0
C156 C 0.75112 0.29647 0.91335 0.0
C157 C 0.7299 0.30491 0.96254 0.0
H158 H 0.71975 0.26814 0.97346 0.0
H159 H 0.77299 0.31362 0.96515 0.0
H160 H 0.70599 0.33819 0.97074 0.0
O161 O 0.5665 0.3696 0.92862 0.0
O162 O 0.57169 0.36631 0.88475 0.0
H163 H 0.72592 0.33735 0.85561 0.0
H164 H 0.78222 0.29473 0.86201 0.0
C165 C 0.73828 0.29811 0.86359 0.0
H166 H 0.72043 0.2662 0.85167 0.0
H167 H 0.63765 0.36431 0.83285 0.0
O168 O 0.60736 0.3053 0.98023 0.0
C169 C 0.55836 0.38991 0.90596 0.0
Co170 Co 0.6933 0.59519 0.4388 0.0
Co171 Co 0.68495 0.59691 0.37687 0.0
C172 C 0.76355 0.52833 0.40756 0.0
O173 O 0.75174 0.54551 0.43032 0.0
O174 O 0.73949 0.54459 0.38714 0.0
C175 C 0.72761 0.61443 0.49301 0.0
O176 O 0.77493 0.62299 0.48282 0.0
C177 C 0.74303 0.61967 0.32872 0.0
C178 C 0.67886 0.64124 0.30102 0.0
C179 C 0.7339 0.64037 0.30384 0.0
N180 N 0.69567 0.61103 0.34039 0.0
N181 N 0.65746 0.62271 0.32349 0.0
C182 C 0.79565 0.60887 0.34155 0.0
H183 H 0.7991 0.56546 0.34552 0.0
H184 H 0.79756 0.62998 0.36073 0.0
H185 H 0.82951 0.62126 0.32894 0.0
C186 C 0.71324 0.71243 0.42802 0.0
N187 N 0.70152 0.6617 0.42089 0.0
N188 N 0.69024 0.66142 0.39561 0.0
C189 C 0.69023 0.71174 0.38654 0.0
C190 C 0.70634 0.74523 0.40641 0.0
C191 C 0.73489 0.72909 0.45411 0.0
H192 H 0.77562 0.71267 0.45644 0.0
H193 H 0.73681 0.77326 0.45588 0.0
H194 H 0.70951 0.71304 0.46991 0.0
O195 O 0.62392 0.56059 0.42765 0.0
O196 O 0.61583 0.56508 0.38398 0.0
H197 H 0.66228 0.77181 0.35943 0.0
H198 H 0.70355 0.72102 0.34535 0.0
C199 C 0.67189 0.72854 0.35986 0.0
H200 H 0.63593 0.70539 0.35426 0.0
H201 H 0.61683 0.62061 0.32776 0.0
O202 O 0.6888 0.60327 0.47785 0.0
C203 C 0.59801 0.55172 0.40642 0.0
Co204 Co 0.40869 0.68948 0.92973 0.0
Co205 Co 0.4084 0.68102 0.86743 0.0
C206 C 0.48142 0.75575 0.89791 0.0
O207 O 0.46544 0.74281 0.9208 0.0
O208 O 0.46017 0.7358 0.87748 0.0
C209 C 0.40588 0.72572 0.98451 0.0
O210 O 0.42867 0.76942 0.97567 0.0
C211 C 0.38541 0.73964 0.81961 0.0
C212 C 0.36343 0.67659 0.79128 0.0
C213 C 0.36423 0.73164 0.79469 0.0
N214 N 0.39455 0.69175 0.83072 0.0
N215 N 0.38271 0.65418 0.8134 0.0
C216 C 0.39608 0.79184 0.83305 0.0
H217 H 0.43939 0.79533 0.83709 0.0
H218 H 0.37493 0.79279 0.85219 0.0
H219 H 0.3839 0.82636 0.82083 0.0
C220 C 0.29238 0.70467 0.9186 0.0
N221 N 0.34359 0.6989 0.91089 0.0
N222 N 0.34413 0.68749 0.88568 0.0
C223 C 0.29393 0.68197 0.87699 0.0
C224 C 0.25931 0.69404 0.89719 0.0
C225 C 0.27584 0.71882 0.94593 0.0
H226 H 0.30162 0.75145 0.9535 0.0
H227 H 0.2334 0.73121 0.9466 0.0
H228 H 0.2815 0.68361 0.95884 0.0
O229 O 0.43909 0.61798 0.9199 0.0
O230 O 0.44037 0.61164 0.87599 0.0
H231 H 0.23753 0.64329 0.85087 0.0
H232 H 0.28257 0.68951 0.83549 0.0
C233 C 0.27906 0.65863 0.85089 0.0
H234 H 0.30631 0.62522 0.84615 0.0
H235 H 0.385 0.61329 0.81717 0.0
O236 O 0.39403 0.68837 0.96852 0.0
C237 C 0.45008 0.59263 0.89874 0.0
Co238 Co 0.29241 0.41515 0.43543 0.0
Co239 Co 0.30557 0.40345 0.37398 0.0
C240 C 0.23116 0.48347 0.39877 0.0
O241 O 0.24133 0.47068 0.42246 0.0
O242 O 0.25223 0.4586 0.37975 0.0
C243 C 0.24901 0.40566 0.48903 0.0
O244 O 0.20292 0.39613 0.47764 0.0
C245 C 0.25354 0.37583 0.32518 0.0
C246 C 0.31972 0.34724 0.30036 0.0
C247 C 0.26451 0.35013 0.30168 0.0
N248 N 0.29982 0.38513 0.33774 0.0
N249 N 0.33939 0.3695 0.32246 0.0
C250 C 0.19999 0.39011 0.33608 0.0
H251 H 0.19723 0.43417 0.3379 0.0
H252 H 0.19564 0.37288 0.35604 0.0
H253 H 0.16707 0.37611 0.32323 0.0
C254 C 0.27983 0.29442 0.42908 0.0
N255 N 0.28411 0.34499 0.41971 0.0
N256 N 0.29428 0.34187 0.39433 0.0
C257 C 0.2993 0.29034 0.38722 0.0
C258 C 0.28919 0.25883 0.40871 0.0
C259 C 0.27331 0.2791 0.4572 0.0
H260 H 0.31327 0.27659 0.46641 0.0
H261 H 0.2489 0.30863 0.46775 0.0
H262 H 0.25428 0.23916 0.45882 0.0
O263 O 0.36508 0.44246 0.42632 0.0
O264 O 0.37533 0.43392 0.38289 0.0
H265 H 0.35998 0.29343 0.35784 0.0
H266 H 0.33058 0.22816 0.36158 0.0
C267 C 0.32231 0.27161 0.36169 0.0
H268 H 0.29421 0.27978 0.34562 0.0
H269 H 0.37954 0.37103 0.32779 0.0
O270 O 0.28976 0.41413 0.47475 0.0
C271 C 0.39262 0.44802 0.40541 0.0
Co272 Co 0.9485 0.7819 0.86989 0.0
Co273 Co 0.84028 0.84233 0.87237 0.0
C274 C 0.88926 0.78718 0.91963 0.0
O275 O 0.92705 0.76756 0.90623 0.0
O276 O 0.85422 0.81702 0.90915 0.0
C277 C 0.03312 0.7035 0.87539 0.0
O278 O 0.99694 0.66788 0.88182 0.0
C279 C 0.72666 0.83591 0.88103 0.0
C280 C 0.6959 0.91542 0.87019 0.0
C281 C 0.68043 0.86588 0.87968 0.0
N282 N 0.76777 0.86607 0.87305 0.0
N283 N 0.74932 0.91387 0.86678 0.0
C284 C 0.73178 0.7791 0.88979 0.0
H285 H 0.72212 0.77648 0.91102 0.0
H286 H 0.77276 0.76416 0.88635 0.0
H287 H 0.7031 0.75329 0.87908 0.0
C288 C 0.89562 0.72825 0.82398 0.0
N289 N 0.8959 0.76179 0.84481 0.0
N290 N 0.85023 0.78768 0.84572 0.0
C291 C 0.81977 0.7714 0.82529 0.0
C292 C 0.84711 0.73305 0.81091 0.0
C293 C 0.94173 0.69397 0.81629 0.0
H294 H 0.9481 0.66322 0.83163 0.0
H295 H 0.93472 0.67402 0.7971 0.0
H296 H 0.97837 0.71878 0.81528 0.0
O297 O 0.96568 0.85857 0.86664 0.0
O298 O 0.88955 0.90388 0.86611 0.0
H299 H 0.75644 0.78748 0.79768 0.0
H300 H 0.73609 0.77186 0.83061 0.0
C301 C 0.76616 0.79346 0.81876 0.0
H302 H 0.76443 0.83661 0.82353 0.0
H303 H 0.77301 0.94522 0.85997 0.0
O304 O 0.01857 0.74874 0.86677 0.0
C305 C 0.94034 0.9023 0.86504 0.0
Co306 Co 0.22431 0.95287 0.36735 0.0
Co307 Co 0.16255 0.84361 0.36746 0.0
C308 C 0.2138 0.88735 0.41623 0.0
O309 O 0.23062 0.92817 0.40407 0.0
O310 O 0.18805 0.85092 0.40432 0.0
C311 C 0.29318 0.03499 0.38535 0.0
O312 O 0.31069 0.99801 0.40141 0.0
C313 C 0.16376 0.72986 0.37503 0.0
C314 C 0.08541 0.70144 0.36097 0.0
C315 C 0.13259 0.68451 0.37244 0.0
N316 N 0.13644 0.77191 0.36592 0.0
N317 N 0.08936 0.75489 0.35765 0.0
C318 C 0.21862 0.73365 0.38654 0.0
H319 H 0.21549 0.73354 0.40829 0.0
H320 H 0.23851 0.77112 0.38025 0.0
H321 H 0.24337 0.69903 0.38068 0.0
C322 C 0.27782 0.90169 0.32112 0.0
N323 N 0.24466 0.90052 0.34201 0.0
N324 N 0.21802 0.85507 0.34185 0.0
C325 C 0.23344 0.82616 0.32077 0.0
C326 C 0.2718 0.8545 0.30689 0.0
C327 C 0.31161 0.94866 0.31398 0.0
H328 H 0.28564 0.98073 0.30611 0.0
H329 H 0.3317 0.96445 0.33181 0.0
H330 H 0.34167 0.93781 0.2989 0.0
O331 O 0.149 0.97235 0.36198 0.0
O332 O 0.10322 0.89597 0.36245 0.0
H333 H 0.16588 0.77465 0.31556 0.0
H334 H 0.21951 0.76301 0.29248 0.0
C335 C 0.20975 0.77362 0.31309 0.0
H336 H 0.22623 0.74247 0.32621 0.0
H337 H 0.06 0.77962 0.34976 0.0
O338 O 0.2632 0.02188 0.36618 0.0
C339 C 0.10519 0.94681 0.36075 0.0
Co340 Co 0.04655 0.20969 0.87264 0.0
Co341 Co 0.16306 0.16702 0.8778 0.0
C342 C 0.10831 0.20982 0.92433 0.0
O343 O 0.06713 0.21894 0.9105 0.0
O344 O 0.15021 0.19119 0.91395 0.0
C345 C 0.96937 0.28592 0.88476 0.0
O346 O 0.01025 0.3103 0.89553 0.0
C347 C 0.27515 0.15387 0.89385 0.0
C348 C 0.31391 0.13145 0.85658 0.0
C349 C 0.32462 0.14606 0.88233 0.0
N350 N 0.23702 0.14665 0.87553 0.0
N351 N 0.26048 0.13114 0.85356 0.0
C352 C 0.26495 0.17104 0.92158 0.0
H353 H 0.23419 0.1448 0.93042 0.0
H354 H 0.24998 0.21271 0.92175 0.0
H355 H 0.3017 0.16883 0.93368 0.0
C356 C 0.094 0.25918 0.82468 0.0
N357 N 0.09769 0.23389 0.84801 0.0
N358 N 0.14792 0.22353 0.85304 0.0
C359 C 0.1782 0.24784 0.83472 0.0
C360 C 0.14545 0.26946 0.81522 0.0
C361 C 0.04207 0.26688 0.81069 0.0
H362 H 0.01486 0.23305 0.81513 0.0
H363 H 0.02275 0.30383 0.81802 0.0
H364 H 0.04787 0.26996 0.78914 0.0
O365 O 0.03392 0.13446 0.86715 0.0
O366 O 0.11597 0.10138 0.87116 0.0
H367 H 0.25923 0.22222 0.82935 0.0
H368 H 0.24977 0.29323 0.82729 0.0
C369 C 0.23691 0.25635 0.8376 0.0
H370 H 0.24647 0.25986 0.85871 0.0
H371 H 0.24025 0.12384 0.83599 0.0
O372 O 0.97719 0.24553 0.87012 0.0
C373 C 0.0658 0.09526 0.86736 0.0
Co374 Co 0.7941 0.05893 0.37157 0.0
Co375 Co 0.84906 0.17067 0.37341 0.0
C376 C 0.80076 0.11859 0.42182 0.0
O377 O 0.78509 0.07816 0.40895 0.0
O378 O 0.82489 0.15649 0.41027 0.0
C379 C 0.77778 0.95836 0.38529 0.0
O380 O 0.81909 0.97365 0.39928 0.0
C381 C 0.8548 0.28222 0.38991 0.0
C382 C 0.89376 0.32165 0.3563 0.0
C383 C 0.86682 0.33185 0.37953 0.0
N384 N 0.87127 0.24427 0.37305 0.0
N385 N 0.89675 0.26809 0.35356 0.0
C386 C 0.8247 0.27171 0.4148 0.0
H387 H 0.84888 0.24562 0.42772 0.0
H388 H 0.78656 0.25124 0.41018 0.0
H389 H 0.81627 0.30906 0.42577 0.0
C390 C 0.73356 0.10899 0.32786 0.0
N391 N 0.76865 0.11162 0.34795 0.0
N392 N 0.7927 0.15849 0.34775 0.0
C393 C 0.77348 0.18689 0.32718 0.0
C394 C 0.73535 0.15669 0.314 0.0
C395 C 0.70219 0.06015 0.32095 0.0
H396 H 0.68134 0.04517 0.3387 0.0
H397 H 0.67281 0.06844 0.30516 0.0
H398 H 0.72995 0.02843 0.3143 0.0
O399 O 0.87013 0.04405 0.36466 0.0
O400 O 0.91131 0.12285 0.3663 0.0
H401 H 0.76926 0.25766 0.30289 0.0
H402 H 0.79811 0.26703 0.33498 0.0
C403 C 0.79498 0.23942 0.31818 0.0
H404 H 0.83533 0.23334 0.30985 0.0
H405 H 0.91293 0.248 0.33748 0.0
O406 O 0.75701 0.99036 0.36887 0.0
C407 C 0.91222 0.07222 0.36331 0.0
Co408 Co 0.44232 0.72246 0.1468 0.0
Co409 Co 0.33423 0.65968 0.14703 0.0
C410 C 0.38186 0.70651 0.09737 0.0
O411 O 0.42053 0.72745 0.10964 0.0
O412 O 0.34664 0.67943 0.10935 0.0
C413 C 0.52224 0.79545 0.13131 0.0
O414 O 0.48466 0.81443 0.11602 0.0
C415 C 0.2216 0.65778 0.1339 0.0
C416 C 0.18605 0.60458 0.16366 0.0
C417 C 0.1732 0.639 0.14328 0.0
N418 N 0.26115 0.63662 0.14836 0.0
N419 N 0.23973 0.60366 0.16569 0.0
C420 C 0.23007 0.69752 0.11229 0.0
H421 H 0.25031 0.67742 0.09565 0.0
H422 H 0.25607 0.73045 0.11939 0.0
H423 H 0.19213 0.7141 0.10474 0.0
C424 C 0.3912 0.78052 0.19099 0.0
N425 N 0.38954 0.74572 0.17072 0.0
N426 N 0.34511 0.71769 0.17189 0.0
C427 C 0.31775 0.73326 0.19349 0.0
C428 C 0.34559 0.77395 0.20611 0.0
C429 C 0.43816 0.81507 0.19726 0.0
H430 H 0.45171 0.83578 0.17919 0.0
H431 H 0.42836 0.84483 0.2127 0.0
H432 H 0.47138 0.78951 0.20421 0.0
O433 O 0.46055 0.64698 0.15424 0.0
O434 O 0.38485 0.6002 0.15452 0.0
H435 H 0.28237 0.6631 0.20962 0.0
H436 H 0.25422 0.7246 0.222 0.0
C437 C 0.27049 0.70437 0.20433 0.0
H438 H 0.2391 0.70177 0.18924 0.0
H439 H 0.26148 0.58276 0.1798 0.0
O440 O 0.51052 0.76127 0.14883 0.0
C441 C 0.43558 0.60283 0.15638 0.0
Co442 Co 0.26465 0.45525 0.6549 0.0
Co443 Co 0.31953 0.34389 0.64878 0.0
C444 C 0.26898 0.39545 0.60301 0.0
O445 O 0.25625 0.43555 0.61697 0.0
O446 O 0.292 0.35535 0.61309 0.0
C447 C 0.1929 0.53771 0.64159 0.0
O448 O 0.17238 0.50161 0.62583 0.0
C449 C 0.32616 0.2302 0.63698 0.0
C450 C 0.40795 0.20939 0.64923 0.0
C451 C 0.36237 0.18822 0.63773 0.0
N452 N 0.34874 0.27345 0.64803 0.0
N453 N 0.39775 0.26084 0.65525 0.0
C454 C 0.27158 0.2302 0.62495 0.0
H455 H 0.24742 0.26373 0.63273 0.0
H456 H 0.25117 0.19153 0.6286 0.0
H457 H 0.27492 0.23602 0.60343 0.0
C458 C 0.22063 0.40171 0.70251 0.0
N459 N 0.24624 0.40043 0.67923 0.0
N460 N 0.26489 0.35205 0.67516 0.0
C461 C 0.24768 0.31982 0.69466 0.0
C462 C 0.21992 0.35029 0.71328 0.0
C463 C 0.20411 0.45277 0.71549 0.0
H464 H 0.23365 0.48459 0.71111 0.0
H465 H 0.16526 0.46573 0.70727 0.0
H466 H 0.20039 0.44797 0.73707 0.0
O467 O 0.33912 0.47427 0.65989 0.0
O468 O 0.38031 0.3964 0.6545 0.0
H469 H 0.30144 0.25358 0.69777 0.0
H470 H 0.23567 0.2406 0.71127 0.0
C471 C 0.25809 0.26086 0.6954 0.0
H472 H 0.24536 0.24261 0.67668 0.0
H473 H 0.42469 0.2877 0.66365 0.0
O474 O 0.22596 0.52346 0.65919 0.0
C475 C 0.38144 0.44677 0.65869 0.0
Co476 Co 0.5463 0.28811 0.15733 0.0
Co477 Co 0.65834 0.34467 0.15516 0.0
C478 C 0.60982 0.29294 0.10768 0.0
O479 O 0.56931 0.27816 0.12063 0.0
O480 O 0.64765 0.3186 0.1185 0.0
C481 C 0.46244 0.21858 0.14168 0.0
O482 O 0.49847 0.19993 0.12542 0.0
C483 C 0.77181 0.33874 0.14693 0.0
C484 C 0.80326 0.41639 0.16056 0.0
C485 C 0.81829 0.36816 0.14943 0.0
N486 N 0.73095 0.36804 0.15582 0.0
N487 N 0.74979 0.41474 0.16378 0.0
C488 C 0.76596 0.28347 0.136 0.0
H489 H 0.76642 0.28562 0.11423 0.0
H490 H 0.72773 0.26539 0.14241 0.0
H491 H 0.79946 0.2576 0.14222 0.0
C492 C 0.59775 0.23288 0.20297 0.0
N493 N 0.59895 0.26624 0.18213 0.0
N494 N 0.64564 0.29048 0.18139 0.0
C495 C 0.67523 0.27342 0.20189 0.0
C496 C 0.64618 0.23636 0.21627 0.0
C497 C 0.55015 0.20055 0.21064 0.0
H498 H 0.51851 0.2278 0.21784 0.0
H499 H 0.53426 0.17932 0.19315 0.0
H500 H 0.56016 0.17139 0.22629 0.0
O501 O 0.53056 0.36515 0.16169 0.0
O502 O 0.60934 0.40643 0.16045 0.0
H503 H 0.73143 0.33768 0.20551 0.0
H504 H 0.74073 0.28443 0.22906 0.0
C505 C 0.72958 0.29388 0.20849 0.0
H506 H 0.7586 0.27445 0.19519 0.0
H507 H 0.72632 0.44526 0.17156 0.0
O508 O 0.47626 0.2511 0.15974 0.0
C509 C 0.55861 0.40758 0.1623 0.0
Co510 Co 0.69446 0.55401 0.65495 0.0
Co511 Co 0.64424 0.66781 0.65436 0.0
C512 C 0.69414 0.61941 0.60617 0.0
O513 O 0.7062 0.577 0.6184 0.0
O514 O 0.67134 0.65789 0.61791 0.0
C515 C 0.77121 0.46967 0.64707 0.0
O516 O 0.80624 0.50733 0.64201 0.0
C517 C 0.65701 0.781 0.64645 0.0
C518 C 0.58172 0.81693 0.66016 0.0
C519 C 0.63058 0.82919 0.64894 0.0
N520 N 0.62541 0.74181 0.65543 0.0
N521 N 0.58016 0.76337 0.66347 0.0
C522 C 0.71139 0.77189 0.6352 0.0
H523 H 0.7082 0.76974 0.61348 0.0
H524 H 0.7282 0.73372 0.64249 0.0
H525 H 0.73885 0.80514 0.64017 0.0
C526 C 0.75347 0.60052 0.70125 0.0
N527 N 0.71963 0.60394 0.68062 0.0
N528 N 0.69769 0.65176 0.6805 0.0
C529 C 0.71709 0.68004 0.70103 0.0
C530 C 0.7532 0.64885 0.71484 0.0
C531 C 0.78383 0.5513 0.7083 0.0
H532 H 0.75724 0.51595 0.7069 0.0
H533 H 0.81671 0.54577 0.69401 0.0
H534 H 0.80092 0.55423 0.72838 0.0
O535 O 0.6178 0.54114 0.65962 0.0
O536 O 0.57933 0.62116 0.65894 0.0
H537 H 0.65678 0.74006 0.70514 0.0
H538 H 0.7109 0.74561 0.72855 0.0
C539 C 0.70033 0.7355 0.70795 0.0
H540 H 0.7213 0.76365 0.69473 0.0
H541 H 0.54835 0.74165 0.67126 0.0
O542 O 0.7256 0.48239 0.65583 0.0
C543 C 0.57648 0.57029 0.66058 0.0
C544 C 0.9636 0.04113 0.11314 0.0
C545 C 0.01676 0.04399 0.12267 0.0
C546 C 0.0133 0.94944 0.13485 0.0
C547 C 0.96232 0.94519 0.1228 0.0
N548 N 0.89035 0.98534 0.09835 0.0
N549 N 0.09575 0.99954 0.13837 0.0
C550 C 0.93804 0.99052 0.11115 0.0
C551 C 0.04256 0.9978 0.13246 0.0
N552 N 0.9365 0.08702 0.10737 0.0
N553 N 0.03374 0.90755 0.14879 0.0
H554 H 0.11882 0.03402 0.13644 0.0
H555 H 0.11822 0.96578 0.14278 0.0
H556 H 0.01457 0.87082 0.15057 0.0
H557 H 0.06778 0.91051 0.16043 0.0
H558 H 0.8959 0.08802 0.10315 0.0
H559 H 0.95332 0.125 0.10906 0.0
H560 H 0.87402 0.01525 0.08666 0.0
H561 H 0.86832 0.94997 0.09814 0.0
C562 C 0.0587 0.03703 0.62346 0.0
C563 C 0.06213 0.9818 0.61734 0.0
C564 C 0.96488 0.97594 0.61364 0.0
C565 C 0.9616 0.03162 0.6187 0.0
N566 N 0.00423 0.11714 0.62441 0.0
N567 N 0.02064 0.89961 0.60331 0.0
C568 C 0.00824 0.06276 0.62254 0.0
C569 C 0.01581 0.95156 0.61134 0.0
N570 N 0.1037 0.06465 0.6304 0.0
N571 N 0.91924 0.94606 0.61216 0.0
H572 H 0.05706 0.87963 0.60258 0.0
H573 H 0.98921 0.87712 0.59577 0.0
H574 H 0.88119 0.96263 0.61318 0.0
H575 H 0.91871 0.90451 0.61167 0.0
H576 H 0.10335 0.10324 0.63801 0.0
H577 H 0.14174 0.04791 0.62994 0.0
H578 H 0.03683 0.14289 0.62447 0.0
H579 H 0.96782 0.13719 0.62389 0.0
C580 C 0.45042 0.49311 0.89336 0.0
C581 C 0.47761 0.54062 0.90072 0.0
C582 C 0.55885 0.48945 0.91005 0.0
C583 C 0.53071 0.44177 0.90416 0.0
N584 N 0.44905 0.3961 0.89303 0.0
N585 N 0.55591 0.58509 0.91773 0.0
C586 C 0.47633 0.44301 0.89646 0.0
C587 C 0.5313 0.53906 0.90966 0.0
N588 N 0.39994 0.49602 0.88326 0.0
N589 N 0.61247 0.48733 0.91495 0.0
H590 H 0.53873 0.6228 0.91591 0.0
H591 H 0.59239 0.58606 0.92746 0.0
H592 H 0.63376 0.4516 0.91563 0.0
H593 H 0.63687 0.52082 0.91656 0.0
H594 H 0.3802 0.46395 0.87457 0.0
H595 H 0.37836 0.53153 0.88224 0.0
H596 H 0.40799 0.39369 0.89041 0.0
H597 H 0.46704 0.35871 0.8945 0.0
C598 C 0.50075 0.55196 0.41727 0.0
C599 C 0.54599 0.52418 0.40771 0.0
C600 C 0.49157 0.44417 0.40013 0.0
C601 C 0.44556 0.47361 0.40718 0.0
N602 N 0.40436 0.5575 0.41869 0.0
N603 N 0.58448 0.44617 0.38726 0.0
C604 C 0.44958 0.52796 0.41497 0.0
C605 C 0.54141 0.47092 0.3983 0.0
N606 N 0.50663 0.60141 0.42836 0.0
N607 N 0.48788 0.39024 0.39611 0.0
H608 H 0.6222 0.46359 0.38639 0.0
H609 H 0.5822 0.40986 0.37732 0.0
H610 H 0.45202 0.36924 0.3975 0.0
H611 H 0.52079 0.36547 0.39368 0.0
H612 H 0.47629 0.62093 0.43846 0.0
H613 H 0.54297 0.62167 0.4291 0.0
H614 H 0.40449 0.59873 0.42138 0.0
H615 H 0.36604 0.54169 0.41692 0.0
C616 C 0.02923 0.01705 0.84216 0.0
C617 C 0.04124 0.04145 0.86662 0.0
C618 C 0.98232 0.97822 0.88932 0.0
C619 C 0.97201 0.9523 0.86502 0.0
N620 N 0.99052 0.94147 0.81889 0.0
N621 N 0.03699 0.04098 0.91385 0.0
C622 C 0.99709 0.97 0.84158 0.0
C623 C 0.02019 0.02051 0.89033 0.0
N624 N 0.0472 0.03997 0.81947 0.0
N625 N 0.95497 0.96308 0.91134 0.0
H626 H 0.06418 0.07241 0.91518 0.0
H627 H 0.02775 0.02426 0.93199 0.0
H628 H 0.92741 0.93184 0.91148 0.0
H629 H 0.95634 0.98377 0.92907 0.0
H630 H 0.03488 0.0282 0.8008 0.0
H631 H 0.07281 0.07289 0.81939 0.0
H632 H 0.01213 0.94862 0.8018 0.0
H633 H 0.96527 0.9084 0.81753 0.0
C634 C 0.02512 0.98517 0.33781 0.0
C635 C 0.05532 0.97828 0.36113 0.0
C636 C 0.9921 0.03391 0.38564 0.0
C637 C 0.96374 0.04365 0.362 0.0
N638 N 0.95525 0.03433 0.31515 0.0
N639 N 0.07208 1.00053 0.4066 0.0
C640 C 0.98081 0.0208 0.33792 0.0
C641 C 0.04021 0.00415 0.38483 0.0
N642 N 0.03862 0.95722 0.31571 0.0
N643 N 0.97155 0.05084 0.40911 0.0
H644 H 0.10568 0.97614 0.40756 0.0
H645 H 0.06717 0.0241 0.42328 0.0
H646 H 0.93676 0.07331 0.41056 0.0
H647 H 0.98655 0.03938 0.42732 0.0
H648 H 0.0155 0.95612 0.29874 0.0
H649 H 0.0717 0.93209 0.31486 0.0
H650 H 0.96831 0.02329 0.29653 0.0
H651 H 0.92272 0.06023 0.31473 0.0
C652 C 0.49833 0.47513 0.18344 0.0
C653 C 0.53038 0.45956 0.16179 0.0
C654 C 0.50266 0.53938 0.13744 0.0
C655 C 0.4675 0.55304 0.15833 0.0
N656 N 0.4285 0.53279 0.20044 0.0
N657 N 0.5573 0.47182 0.11668 0.0
C658 C 0.46421 0.52042 0.18109 0.0
C659 C 0.53142 0.49059 0.13848 0.0
N660 N 0.50214 0.44758 0.20655 0.0
N661 N 0.50859 0.57293 0.11643 0.0
H662 H 0.57969 0.43682 0.1165 0.0
H663 H 0.55344 0.4886 0.09808 0.0
H664 H 0.4849 0.6064 0.11325 0.0
H665 H 0.53914 0.56934 0.10272 0.0
H666 H 0.48404 0.45945 0.22398 0.0
H667 H 0.52712 0.41464 0.2089 0.0
H668 H 0.41951 0.5076 0.21607 0.0
H669 H 0.40542 0.56737 0.20023 0.0
C670 C 0.44547 0.50953 0.63718 0.0
C671 C 0.43271 0.47632 0.65892 0.0
C672 C 0.50947 0.51201 0.6833 0.0
C673 C 0.52409 0.54264 0.66096 0.0
N674 N 0.51113 0.56487 0.61531 0.0
N675 N 0.45444 0.44104 0.70155 0.0
C676 C 0.49322 0.54022 0.6376 0.0
C677 C 0.4654 0.47602 0.68166 0.0
N678 N 0.41171 0.51185 0.61607 0.0
N679 N 0.53693 0.51873 0.70629 0.0
H680 H 0.42169 0.4153 0.7012 0.0
H681 H 0.47947 0.43473 0.71755 0.0
H682 H 0.56892 0.5452 0.70811 0.0
H683 H 0.52574 0.50162 0.72407 0.0
H684 H 0.4146 0.5405 0.60134 0.0
H685 H 0.37879 0.48673 0.61382 0.0
H686 H 0.49435 0.55918 0.59681 0.0
H687 H 0.54541 0.58837 0.61485 0.0
C688 C 0.12543 0.18375 0.99773 0.0
C689 C 0.09653 0.22713 1.00887 0.0
C690 C 0.08405 0.26367 0.96454 0.0
C691 C 0.10579 0.21657 0.9534 0.0
N692 N 0.13447 0.12528 0.96034 0.0
N693 N 0.03605 0.30087 1.00131 0.0
C694 C 0.1229 0.17471 0.97023 0.0
C695 C 0.07233 0.26509 0.99185 0.0
N696 N 0.15732 0.15223 0.01294 0.0
N697 N 0.07646 0.30789 0.94934 0.0
H698 H 0.02299 0.30089 0.02074 0.0
H699 H 0.01413 0.32607 0.98913 0.0
H700 H 0.08811 0.30948 0.9297 0.0
H701 H 0.06478 0.34464 0.95706 0.0
H702 H 0.1832 0.12393 1.00502 0.0
H703 H 0.1628 0.15803 0.03296 0.0
H704 H 0.14162 0.09227 0.97229 0.0
H705 H 0.13121 0.11551 0.94053 0.0
C706 C 0.83505 0.13473 0.46813 0.0
C707 C 0.7927 0.11996 0.45095 0.0
C708 C 0.73988 0.09273 0.48928 0.0
C709 C 0.77909 0.11434 0.50651 0.0
N710 N 0.85916 0.16803 0.51104 0.0
N711 N 0.69934 0.09787 0.44626 0.0
C712 C 0.82526 0.13893 0.49559 0.0
C713 C 0.74343 0.10288 0.46185 0.0
N714 N 0.88553 0.142 0.45871 0.0
N715 N 0.70075 0.05993 0.4987 0.0
H716 H 0.69931 0.10773 0.42636 0.0
H717 H 0.66149 0.09002 0.45377 0.0
H718 H 0.69871 0.04787 0.51826 0.0
H719 H 0.67433 0.03944 0.48647 0.0
H720 H 0.9185 0.14708 0.47095 0.0
H721 H 0.89582 0.13708 0.43907 0.0
H722 H 0.88991 0.19127 0.50334 0.0
H723 H 0.85355 0.17381 0.53107 0.0
C724 C 0.93132 0.80975 0.96286 0.0
C725 C 0.89122 0.78172 0.94863 0.0
C726 C 0.85965 0.73989 0.98939 0.0
C727 C 0.89829 0.76965 1.00378 0.0
N728 N 0.96886 0.83527 1.00503 0.0
N729 N 0.81427 0.72427 0.94781 0.0
C730 C 0.93342 0.80539 0.99072 0.0
C731 C 0.85444 0.74804 0.96178 0.0
N732 N 0.96815 0.8398 0.94958 0.0
N733 N 0.82847 0.70325 1.00211 0.0
H734 H 0.81128 0.72693 0.92743 0.0
H735 H 0.78227 0.70425 0.95629 0.0
H736 H 0.82925 0.69781 0.02239 0.0
H737 H 0.80374 0.67598 0.99261 0.0
H738 H 0.00236 0.85579 0.95807 0.0
H739 H 0.96625 0.84695 0.92943 0.0
H740 H 0.99051 0.86719 0.99745 0.0
H741 H 0.97538 0.82985 0.02507 0.0
C742 C 0.27095 0.89633 0.45669 0.0
C743 C 0.22066 0.88483 0.44525 0.0
C744 C 0.18412 0.86901 0.4892 0.0
C745 C 0.23231 0.88792 0.50081 0.0
N746 N 0.31608 0.93438 0.49417 0.0
N747 N 0.12558 0.87449 0.45165 0.0
C748 C 0.27436 0.90562 0.48418 0.0
C749 C 0.1761 0.87509 0.46175 0.0
N750 N 0.31579 0.89724 0.4415 0.0
N751 N 0.1465 0.84341 0.50391 0.0
H752 H 0.11703 0.88168 0.43194 0.0
H753 H 0.09168 0.87298 0.46345 0.0
H754 H 0.15085 0.83599 0.52385 0.0
H755 H 0.11354 0.8243 0.49564 0.0
H756 H 0.35399 0.90082 0.4494 0.0
H757 H 0.31525 0.88851 0.42146 0.0
H758 H 0.34508 0.95194 0.48233 0.0
H759 H 0.31813 0.94665 0.51372 0.0
C760 C 0.57131 0.31153 0.06327 0.0
C761 C 0.60992 0.28481 0.07884 0.0
C762 C 0.649 0.24528 0.03916 0.0
C763 C 0.60827 0.26944 0.02377 0.0
N764 N 0.52349 0.31477 0.02201 0.0
N765 N 0.67974 0.21943 0.08258 0.0
C766 C 0.56746 0.29967 0.03605 0.0
C767 C 0.6473 0.24985 0.06705 0.0
N768 N 0.53927 0.34956 0.07432 0.0
N769 N 0.69016 0.21929 0.02713 0.0
H770 H 0.6793 0.22163 0.10304 0.0
H771 H 0.70384 0.18892 0.07541 0.0
H772 H 0.69196 0.21313 1.00693 0.0
H773 H 0.72434 0.2068 0.03695 0.0
H774 H 0.51495 0.37484 0.06337 0.0
H775 H 0.5402 0.3592 0.09424 0.0
H776 H 0.48983 0.33174 0.03055 0.0
H777 H 0.51808 0.30537 1.00222 0.0
C778 C 0.66265 0.63857 0.5599 0.0
C779 C 0.70382 0.62211 0.57731 0.0
C780 C 0.75747 0.59459 0.53943 0.0
C781 C 0.71947 0.61755 0.52204 0.0
N782 N 0.64106 0.67321 0.51706 0.0
N783 N 0.79601 0.59694 0.58297 0.0
C784 C 0.67363 0.64312 0.53263 0.0
C785 C 0.753 0.60399 0.56687 0.0
N786 N 0.61202 0.64695 0.56889 0.0
N787 N 0.79603 0.56106 0.53013 0.0
H788 H 0.79514 0.60574 0.603 0.0
H789 H 0.83399 0.58824 0.57589 0.0
H790 H 0.79858 0.54947 0.51051 0.0
H791 H 0.82133 0.53957 0.54245 0.0
H792 H 0.57968 0.65309 0.55639 0.0
H793 H 0.60081 0.642 0.58839 0.0
H794 H 0.6108 0.6972 0.52461 0.0
H795 H 0.64725 0.67888 0.49707 0.0
C796 C 0.36357 0.75564 0.05519 0.0
C797 C 0.38164 0.70908 0.06823 0.0
C798 C 0.41693 0.67412 0.0267 0.0
C799 C 0.39601 0.71917 0.01322 0.0
N800 N 0.33968 0.79721 0.01381 0.0
N801 N 0.41478 0.61889 0.06575 0.0
C802 C 0.36657 0.75845 0.02725 0.0
C803 C 0.40466 0.6666 0.05372 0.0
N804 N 0.34419 0.79747 0.06955 0.0
N805 N 0.45137 0.64027 0.01422 0.0
H806 H 0.40657 0.61193 0.08552 0.0
H807 H 0.42647 0.58471 0.0556 0.0
H808 H 0.46335 0.64528 0.99478 0.0
H809 H 0.4724 0.61031 0.02388 0.0
H810 H 0.3363 0.83493 0.06159 0.0
H811 H 0.33901 0.79565 0.08987 0.0
H812 H 0.31323 0.82367 0.02267 0.0
H813 H 0.33986 0.79988 0.99337 0.0
C814 C 0.30769 0.3864 0.55776 0.0
C815 C 0.26323 0.39822 0.57395 0.0
C816 C 0.21294 0.42411 0.53469 0.0
C817 C 0.25416 0.40354 0.51833 0.0
N818 N 0.33604 0.35199 0.51597 0.0
N819 N 0.16939 0.41815 0.577 0.0
C820 C 0.30024 0.38092 0.53029 0.0
C821 C 0.21455 0.41412 0.56219 0.0
N822 N 0.35775 0.3828 0.56825 0.0
N823 N 0.1738 0.45568 0.52441 0.0
H824 H 0.16852 0.40889 0.59696 0.0
H825 H 0.1319 0.42501 0.56884 0.0
H826 H 0.1733 0.46791 0.50486 0.0
H827 H 0.1457 0.47515 0.53604 0.0
H828 H 0.39184 0.37921 0.55669 0.0
H829 H 0.36607 0.38995 0.58802 0.0
H830 H 0.36712 0.33071 0.52463 0.0
H831 H 0.33153 0.34377 0.4961 0.0
C832 C 0.15519 0.26298 0.27115 0.0
C833 C 0.16913 0.26687 0.24429 0.0
C834 C 0.23332 0.33727 0.25549 0.0
C835 C 0.22705 0.32537 0.28249 0.0
N836 N 0.1872 0.26801 0.3156 0.0
N837 N 0.22964 0.30255 0.21145 0.0
C838 C 0.18908 0.28612 0.29034 0.0
C839 C 0.21013 0.30292 0.23647 0.0
N840 N 0.10921 0.23765 0.2784 0.0
N841 N 0.26091 0.38178 0.24794 0.0
H842 H 0.21518 0.27774 0.19674 0.0
H843 H 0.26357 0.32382 0.20591 0.0
H844 H 0.27701 0.40886 0.26139 0.0
H845 H 0.26249 0.39478 0.22851 0.0
H846 H 0.09491 0.23797 0.29762 0.0
H847 H 0.08246 0.22167 0.26477 0.0
H848 H 0.1643 0.23519 0.32126 0.0
H849 H 0.21174 0.2822 0.33046 0.0
C850 C 0.73894 0.14372 0.77176 0.0
C851 C 0.73602 0.1633 0.7457 0.0
C852 C 0.66334 0.22246 0.75925 0.0
C853 C 0.67454 0.21164 0.78598 0.0
N854 N 0.7305 0.16559 0.81762 0.0
N855 N 0.70067 0.22994 0.71594 0.0
C856 C 0.71387 0.17271 0.79234 0.0
C857 C 0.69922 0.20463 0.73964 0.0
N858 N 0.76532 0.09721 0.7769 0.0
N859 N 0.61843 0.25007 0.75258 0.0
H860 H 0.72764 0.22032 0.70122 0.0
H861 H 0.67841 0.26411 0.71202 0.0
H862 H 0.59052 0.2624 0.76651 0.0
H863 H 0.60618 0.25518 0.73316 0.0
H864 H 0.7645 0.07869 0.79523 0.0
H865 H 0.78289 0.0742 0.76217 0.0
H866 H 0.76345 0.14235 0.82254 0.0
H867 H 0.71464 0.18605 0.83348 0.0
C868 C 0.76781 0.64236 0.25781 0.0
C869 C 0.77232 0.66111 0.28398 0.0
C870 C 0.83936 0.72587 0.26926 0.0
C871 C 0.82549 0.71529 0.24277 0.0
N872 N 0.76902 0.66689 0.21213 0.0
N873 N 0.80874 0.72717 0.31405 0.0
C874 C 0.78825 0.67393 0.23699 0.0
C875 C 0.80767 0.70416 0.28972 0.0
N876 N 0.74394 0.59431 0.25282 0.0
N877 N 0.88292 0.75668 0.27488 0.0
H878 H 0.78597 0.71381 0.32972 0.0
H879 H 0.82918 0.76253 0.31806 0.0
H880 H 0.90775 0.77205 0.26027 0.0
H881 H 0.89754 0.76181 0.29389 0.0
H882 H 0.74375 0.57662 0.23427 0.0
H883 H 0.72979 0.56956 0.26777 0.0
H884 H 0.7374 0.64128 0.20778 0.0
H885 H 0.78101 0.68979 0.19622 0.0
C886 C 0.35709 0.76931 0.74912 0.0
C887 C 0.34174 0.77148 0.77588 0.0
C888 C 0.2825 0.84622 0.76527 0.0
C889 C 0.28931 0.83636 0.73807 0.0
N890 N 0.32736 0.77872 0.70447 0.0
N891 N 0.27926 0.80576 0.80805 0.0
C892 C 0.32542 0.79558 0.72996 0.0
C893 C 0.30183 0.80851 0.78372 0.0
N894 N 0.40222 0.74262 0.74192 0.0
N895 N 0.2577 0.89171 0.77359 0.0
H896 H 0.2892 0.77679 0.82179 0.0
H897 H 0.24661 0.82896 0.81343 0.0
H898 H 0.2448 0.92124 0.76062 0.0
H899 H 0.25573 0.90269 0.79334 0.0
H900 H 0.41755 0.74392 0.7229 0.0
H901 H 0.42745 0.72443 0.75553 0.0
H902 H 0.34879 0.74514 0.69858 0.0
H903 H 0.30409 0.79464 0.68959 0.0
C904 C 0.78845 0.66586 0.78777 0.0
C905 C 0.82841 0.706 0.78625 0.0
C906 C 0.8265 0.69954 0.73797 0.0
C907 C 0.78225 0.66423 0.73948 0.0
N908 N 0.71758 0.61707 0.76567 0.0
N909 N 0.88236 0.76511 0.76001 0.0
C910 C 0.76254 0.64789 0.76437 0.0
C911 C 0.84697 0.72362 0.76135 0.0
N912 N 0.77588 0.64433 0.81164 0.0
N913 N 0.84936 0.70949 0.7141 0.0
H914 H 0.89885 0.78318 0.77661 0.0
H915 H 0.89269 0.78418 0.74258 0.0
H916 H 0.83516 0.69277 0.69665 0.0
H917 H 0.88492 0.73045 0.71178 0.0
H918 H 0.75113 0.61127 0.81398 0.0
H919 H 0.7939 0.65673 0.82911 0.0
H920 H 0.69733 0.60907 0.78306 0.0
H921 H 0.69822 0.6022 0.74905 0.0
C922 C 0.3354 0.79831 0.28036 0.0
C923 C 0.29606 0.83899 0.28109 0.0
C924 C 0.29778 0.84385 0.23279 0.0
C925 C 0.33231 0.79904 0.23202 0.0
N926 N 0.38144 0.73065 0.25475 0.0
N927 N 0.23547 0.89719 0.25811 0.0
C928 C 0.35074 0.77566 0.25575 0.0
C929 C 0.27643 0.86127 0.25732 0.0
N930 N 0.35872 0.78199 0.30326 0.0
N931 N 0.28581 0.87006 0.21 0.0
H932 H 0.21914 0.91136 0.2756 0.0
H933 H 0.21502 0.91018 0.24152 0.0
H934 H 0.30011 0.85787 0.19171 0.0
H935 H 0.2655 0.90625 0.20937 0.0
H936 H 0.39132 0.75642 0.30406 0.0
H937 H 0.34825 0.79762 0.32155 0.0
H938 H 0.39093 0.70778 0.27115 0.0
H939 H 0.39489 0.71403 0.23717 0.0
C940 C 0.20698 0.26832 0.77566 0.0
C941 C 0.16291 0.29137 0.78895 0.0
C942 C 0.15045 0.34888 0.75039 0.0
C943 C 0.20062 0.33274 0.74001 0.0
N944 N 0.28528 0.29227 0.75127 0.0
N945 N 0.10392 0.36774 0.79089 0.0
C946 C 0.23186 0.29741 0.75534 0.0
C947 C 0.13771 0.336 0.77695 0.0
N948 N 0.22333 0.21757 0.7809 0.0
N949 N 0.11389 0.37403 0.73497 0.0
H950 H 0.09806 0.36292 0.81102 0.0
H951 H 0.08741 0.40242 0.78301 0.0
H952 H 0.11958 0.37964 0.71488 0.0
H953 H 0.07573 0.3833 0.74168 0.0
H954 H 0.2541 0.19946 0.77037 0.0
H955 H 0.20195 0.19201 0.79317 0.0
H956 H 0.30897 0.26799 0.76315 0.0
H957 H 0.30609 0.31671 0.73822 0.0
C958 C 0.72842 0.15366 0.26443 0.0
C959 C 0.70759 0.17101 0.28892 0.0
C960 C 0.6434 0.22858 0.26585 0.0
C961 C 0.66316 0.21004 0.24134 0.0
N962 N 0.71682 0.14749 0.2171 0.0
N963 N 0.63891 0.21637 0.31317 0.0
C964 C 0.7033 0.17015 0.24062 0.0
C965 C 0.66293 0.2057 0.28965 0.0
N966 N 0.77357 0.1232 0.26389 0.0
N967 N 0.60797 0.26998 0.26647 0.0
H968 H 0.65257 0.20073 0.33092 0.0
H969 H 0.60299 0.23682 0.31488 0.0
H970 H 0.59236 0.28747 0.24957 0.0
H971 H 0.59684 0.28962 0.28364 0.0
H972 H 0.79454 0.11454 0.24678 0.0
H973 H 0.79234 0.10935 0.28084 0.0
H974 H 0.74187 0.11459 0.21536 0.0
H975 H 0.69922 0.15869 0.19937 0.0
C976 C 0.38189 0.16203 0.13166 0.0
C977 C 0.40541 0.21331 0.13451 0.0
C978 C 0.3195 0.25568 0.1252 0.0
C979 C 0.29645 0.20454 0.12143 0.0
N980 N 0.3071 0.10989 0.11527 0.0
N981 N 0.40041 0.30814 0.12562 0.0
C982 C 0.32832 0.15793 0.12265 0.0
C983 C 0.37537 0.26 0.12885 0.0
N984 N 0.40988 0.11748 0.13868 0.0
N985 N 0.28792 0.30008 0.12621 0.0
H986 H 0.44165 0.3129 0.12672 0.0
H987 H 0.38091 0.34223 0.11893 0.0
H988 H 0.24692 0.29901 0.12285 0.0
H989 H 0.3019 0.33737 0.13221 0.0
H990 H 0.3931 0.07946 0.13963 0.0
H991 H 0.44894 0.11908 0.14568 0.0
H992 H 0.32946 0.07509 0.11343 0.0
H993 H 0.26786 0.10595 0.1087 0.0
C994 C 0.81741 0.34355 0.61078 0.0
C995 C 0.78823 0.30425 0.62468 0.0
C996 C 0.75748 0.3721 0.65545 0.0
C997 C 0.78094 0.41281 0.63987 0.0
N998 N 0.81944 0.43601 0.59753 0.0
N999 N 0.71673 0.28486 0.65481 0.0
C1000 C 0.80726 0.39844 0.61603 0.0
C1001 C 0.75367 0.31982 0.64521 0.0
N1002 N 0.85548 0.32888 0.59306 0.0
N1003 N 0.74112 0.38235 0.68054 0.0
H1004 H 0.71195 0.2463 0.64734 0.0
H1005 H 0.68708 0.29667 0.66791 0.0
H1006 H 0.74751 0.41897 0.68982 0.0
H1007 H 0.72747 0.35242 0.6931 0.0
H1008 H 0.88142 0.35629 0.58442 0.0
H1009 H 0.86387 0.28909 0.58865 0.0
H1010 H 0.83456 0.42608 0.5791 0.0
H1011 H 0.80839 0.47594 0.59902 0.0
C1012 C 0.60055 0.75125 0.11066 0.0
C1013 C 0.57793 0.79772 0.12216 0.0
C1014 C 0.66288 0.84474 0.11747 0.0
C1015 C 0.68725 0.79566 0.11049 0.0
N1016 N 0.68088 0.70154 0.10097 0.0
N1017 N 0.58597 0.88901 0.13654 0.0
C1018 C 0.65643 0.74885 0.10683 0.0
C1019 C 0.60844 0.84495 0.12522 0.0
N1020 N 0.5684 0.70992 0.1029 0.0
N1021 N 0.69214 0.89082 0.1167 0.0
H1022 H 0.54588 0.89053 0.14193 0.0
H1023 H 0.60745 0.92289 0.14197 0.0
H1024 H 0.73206 0.89145 0.11094 0.0
H1025 H 0.67601 0.92867 0.1195 0.0
H1026 H 0.5819 0.67734 0.09206 0.0
H1027 H 0.52709 0.71043 0.10507 0.0
H1028 H 0.66152 0.66472 0.10151 0.0
H1029 H 0.72154 0.69861 0.097 0.0
C1030 C 0.24311 0.61527 0.62317 0.0
C1031 C 0.19423 0.59381 0.63258 0.0
C1032 C 0.1498 0.67876 0.62331 0.0
C1033 C 0.20028 0.70218 0.61825 0.0
N1034 N 0.29589 0.69453 0.61515 0.0
N1035 N 0.10091 0.60436 0.64228 0.0
C1036 C 0.24717 0.67087 0.61846 0.0
C1037 C 0.14725 0.62516 0.63254 0.0
N1038 N 0.28506 0.58225 0.61772 0.0
N1039 N 0.10459 0.70798 0.61928 0.0
H1040 H 0.09777 0.56507 0.64892 0.0
H1041 H 0.0666 0.62678 0.64539 0.0
H1042 H 0.1056 0.74736 0.61258 0.0
H1043 H 0.06628 0.69213 0.6204 0.0
H1044 H 0.31963 0.59505 0.6083 0.0
H1045 H 0.28339 0.54093 0.62003 0.0
H1046 H 0.3318 0.6749 0.61857 0.0
H1047 H 0.30058 0.7349 0.61066 0.0
C1048 C 0.89382 0.25008 0.9112 0.0
C1049 C 0.91616 0.2929 0.89656 0.0
C1050 C 0.83534 0.34529 0.90369 0.0
C1051 C 0.8099 0.29873 0.91335 0.0
N1052 N 0.81348 0.20606 0.92606 0.0
N1053 N 0.90975 0.38209 0.87913 0.0
C1054 C 0.83893 0.25113 0.9175 0.0
C1055 C 0.88774 0.34127 0.89328 0.0
N1056 N 0.92537 0.20908 0.91966 0.0
N1057 N 0.80878 0.39287 0.90422 0.0
H1058 H 0.94826 0.38041 0.87147 0.0
H1059 H 0.88895 0.41622 0.87363 0.0
H1060 H 0.77034 0.39632 0.91187 0.0
H1061 H 0.82619 0.4293 0.89936 0.0
H1062 H 0.91236 0.17965 0.93261 0.0
H1063 H 0.96614 0.20738 0.91595 0.0
H1064 H 0.83102 0.16838 0.92599 0.0
H1065 H 0.77363 0.20564 0.93185 0.0
C1066 C 0.77405 0.80851 0.38904 0.0
C1067 C 0.72532 0.80038 0.40259 0.0
C1068 C 0.71001 0.89669 0.40443 0.0
C1069 C 0.75663 0.90434 0.38913 0.0
N1070 N 0.82844 0.86868 0.36313 0.0
N1071 N 0.64332 0.83452 0.4205 0.0
C1072 C 0.78736 0.86051 0.38033 0.0
C1073 C 0.69222 0.84387 0.40958 0.0
N1074 N 0.80815 0.76665 0.3851 0.0
N1075 N 0.68401 0.93981 0.41478 0.0
H1076 H 0.6299 0.79631 0.42535 0.0
H1077 H 0.61476 0.86409 0.42328 0.0
H1078 H 0.6952 0.97918 0.4109 0.0
H1079 H 0.65351 0.93671 0.42855 0.0
H1080 H 0.84653 0.77096 0.37765 0.0
H1081 H 0.80001 0.72787 0.39141 0.0
H1082 H 0.84894 0.83791 0.35383 0.0
H1083 H 0.83908 0.9065 0.35628 0.0
C1084 C 0.10936 0.67045 0.90449 0.0
C1085 C 0.09089 0.69568 0.88102 0.0
C1086 C 0.18043 0.73082 0.87393 0.0
C1087 C 0.20054 0.69828 0.89432 0.0
N1088 N 0.18449 0.62738 0.92546 0.0
N1089 N 0.11502 0.73603 0.83948 0.0
C1090 C 0.16521 0.66502 0.90859 0.0
C1091 C 0.12833 0.72168 0.86452 0.0
N1092 N 0.07477 0.65488 0.92372 0.0
N1093 N 0.21069 0.77107 0.86369 0.0
H1094 H 0.07851 0.72597 0.83096 0.0
H1095 H 0.14272 0.75175 0.82631 0.0
H1096 H 0.24869 0.78033 0.87074 0.0
H1097 H 0.19522 0.79877 0.85046 0.0
H1098 H 0.08771 0.64066 0.94188 0.0
H1099 H 0.03399 0.66205 0.92314 0.0
H1100 H 0.16008 0.59896 0.93438 0.0
H1101 H 0.22512 0.62142 0.92855 0.0
C1102 C 0.33965 0.17285 0.40772 0.0
C1103 C 0.29 0.19966 0.40896 0.0
C1104 C 0.24333 0.11552 0.40079 0.0
C1105 C 0.29286 0.09107 0.39458 0.0
N1106 N 0.38862 0.09588 0.39169 0.0
N1107 N 0.19418 0.19804 0.40544 0.0
C1108 C 0.34134 0.11932 0.3983 0.0
C1109 C 0.24165 0.17133 0.40542 0.0
N1110 N 0.38497 0.19905 0.41529 0.0
N1111 N 0.19825 0.08512 0.40333 0.0
H1112 H 0.19104 0.23861 0.40987 0.0
H1113 H 0.15835 0.18066 0.39953 0.0
H1114 H 0.19808 0.04367 0.40128 0.0
H1115 H 0.16221 0.10015 0.41025 0.0
H1116 H 0.422 0.18068 0.41696 0.0
H1117 H 0.38444 0.23834 0.42217 0.0
H1118 H 0.42486 0.11618 0.39132 0.0
H1119 H 0.39117 0.05674 0.38474 0.0
C1120 C 0.54279 0.8345 0.90839 0.0
C1121 C 0.53143 0.78692 0.89409 0.0
C1122 C 0.60824 0.80425 0.866 0.0
C1123 C 0.62533 0.8453 0.88299 0.0
N1124 N 0.61109 0.89773 0.9221 0.0
N1125 N 0.56607 0.71834 0.86492 0.0
C1126 C 0.59316 0.86022 0.90472 0.0
C1127 C 0.56765 0.76945 0.8744 0.0
N1128 N 0.50529 0.85612 0.92462 0.0
N1129 N 0.6308 0.7984 0.8418 0.0
H1130 H 0.54134 0.68881 0.8727 0.0
H1131 H 0.59456 0.70356 0.8519 0.0
H1132 H 0.65866 0.82563 0.83456 0.0
H1133 H 0.617 0.77067 0.82806 0.0
H1134 H 0.50989 0.89322 0.93365 0.0
H1135 H 0.46754 0.83943 0.9271 0.0
H1136 H 0.5919 0.90607 0.93978 0.0
H1137 H 0.6471 0.91799 0.91958 0.0
C1138 C 0.1535 0.54792 0.40453 0.0
C1139 C 0.20258 0.53387 0.39243 0.0
C1140 C 0.19313 0.60924 0.36238 0.0
C1141 C 0.15011 0.62882 0.37731 0.0
N1142 N 0.09089 0.6192 0.41428 0.0
N1143 N 0.27658 0.56306 0.3652 0.0
C1144 C 0.13039 0.59874 0.39886 0.0
C1145 C 0.22449 0.5677 0.37274 0.0
N1146 N 0.1282 0.51249 0.42065 0.0
N1147 N 0.20441 0.63068 0.33839 0.0
H1148 H 0.3035 0.53738 0.37432 0.0
H1149 H 0.29476 0.58994 0.35237 0.0
H1150 H 0.18035 0.6598 0.3298 0.0
H1151 H 0.23351 0.61502 0.32597 0.0
H1152 H 0.09003 0.51885 0.42805 0.0
H1153 H 0.14326 0.47459 0.42466 0.0
H1154 H 0.07894 0.60169 0.43187 0.0
H1155 H 0.07246 0.65561 0.41027 0.0
C1156 C 0.47328 0.14753 0.89918 0.0
C1157 C 0.4784 0.19933 0.91019 0.0
C1158 C 0.3845 0.21658 0.90179 0.0
C1159 C 0.37754 0.16332 0.89271 0.0
N1160 N 0.41367 0.07468 0.88749 0.0
N1161 N 0.43511 0.27691 0.92895 0.0
C1162 C 0.4215 0.12758 0.89287 0.0
C1163 C 0.43263 0.23129 0.91419 0.0
N1164 N 0.5179 0.11804 0.89426 0.0
N1165 N 0.34729 0.25484 0.89655 0.0
H1166 H 0.4697 0.29082 0.93795 0.0
H1167 H 0.40121 0.29828 0.93436 0.0
H1168 H 0.31334 0.24738 0.88552 0.0
H1169 H 0.35338 0.29535 0.90028 0.0
H1170 H 0.51746 0.08262 0.8835 0.0
H1171 H 0.55589 0.13071 0.89994 0.0
H1172 H 0.44334 0.04595 0.88957 0.0
H1173 H 0.3762 0.05879 0.88317 0.0
C1174 C 0.78602 0.38642 0.39006 0.0
C1175 C 0.84233 0.38349 0.38738 0.0
C1176 C 0.84893 0.47826 0.39951 0.0
C1177 C 0.79358 0.47832 0.4049 0.0
N1178 N 0.71263 0.42857 0.41236 0.0
N1179 N 0.92861 0.42481 0.39325 0.0
C1180 C 0.76336 0.43096 0.40265 0.0
C1181 C 0.87434 0.42898 0.39315 0.0
N1182 N 0.75364 0.34834 0.37925 0.0
N1183 N 0.87672 0.52519 0.39993 0.0
H1184 H 0.94838 0.38932 0.38884 0.0
H1185 H 0.95377 0.45529 0.39967 0.0
H1186 H 0.85923 0.5613 0.40547 0.0
H1187 H 0.91591 0.52872 0.3934 0.0
H1188 H 0.71226 0.35185 0.3786 0.0
H1189 H 0.76796 0.31641 0.3683 0.0
H1190 H 0.69083 0.39312 0.41331 0.0
H1191 H 0.69449 0.46065 0.4219 0.0
C1192 C 0.02625 0.64741 0.12275 0.0
C1193 C 0.02006 0.70358 0.1219 0.0
C1194 C 0.10997 0.71587 0.13883 0.0
C1195 C 0.11925 0.66009 0.13688 0.0
N1196 N 0.08811 0.5729 0.12335 0.0
N1197 N 0.061 0.79084 0.12181 0.0
C1198 C 0.07783 0.62567 0.12785 0.0
C1199 C 0.06359 0.7376 0.12754 0.0
N1200 N 0.98294 0.61515 0.1191 0.0
N1201 N 0.14414 0.74815 0.15248 0.0
H1202 H 0.02781 0.80838 0.113 0.0
H1203 H 0.09387 0.81625 0.12323 0.0
H1204 H 0.17752 0.73377 0.16224 0.0
H1205 H 0.13603 0.78817 0.1565 0.0
H1206 H 0.98364 0.57404 0.1222 0.0
H1207 H 0.94535 0.63028 0.11445 0.0
H1208 H 0.06096 0.54707 0.11444 0.0
H1209 H 0.12541 0.55584 0.12661 0.0
C1210 C 0.36408 0.08741 0.64416 0.0
C1211 C 0.3542 0.13254 0.62797 0.0
C1212 C 0.30478 0.07608 0.59716 0.0
C1213 C 0.31404 0.031 0.61361 0.0
N1214 N 0.37388 0.99128 0.6448 0.0
N1215 N 0.3387 0.16232 0.58364 0.0
C1216 C 0.35104 0.03589 0.63446 0.0
C1217 C 0.33243 0.12437 0.6026 0.0
N1218 N 0.38224 0.09314 0.6693 0.0
N1219 N 0.26739 0.07505 0.57765 0.0
H1220 H 0.36081 0.1971 0.5869 0.0
H1221 H 0.32698 0.15635 0.56419 0.0
H1222 H 0.2445 0.04183 0.57284 0.0
H1223 H 0.2561 0.10933 0.56747 0.0
H1224 H 0.38493 0.06107 0.68228 0.0
H1225 H 0.38976 0.12996 0.67806 0.0
H1226 H 0.40417 0.99285 0.65882 0.0
H1227 H 0.3664 0.95339 0.637 0.0
C1228 C 0.89051 0.30534 0.16126 0.0
C1229 C 0.87318 0.3479 0.14533 0.0
C1230 C 0.9546 0.33915 0.11893 0.0
C1231 C 0.96626 0.29049 0.1321 0.0
N1232 N 0.93323 0.21976 0.16044 0.0
N1233 N 0.88638 0.40386 0.1074 0.0
C1234 C 0.93098 0.27147 0.15188 0.0
C1235 C 0.90466 0.36472 0.1237 0.0
N1236 N 0.86805 0.29699 0.18531 0.0
N1237 N 0.99147 0.3618 0.10266 0.0
H1238 H 0.85072 0.4241 0.11078 0.0
H1239 H 0.90488 0.41374 0.08974 0.0
H1240 H 0.02885 0.34499 0.09932 0.0
H1241 H 0.98687 0.3996 0.09445 0.0
H1242 H 0.88207 0.26823 0.19839 0.0
H1243 H 0.83995 0.32312 0.19322 0.0
H1244 H 0.90526 0.20371 0.17337 0.0
H1245 H 0.95802 0.19106 0.15204 0.0
C1246 C 0.73248 0.93834 0.64979 0.0
C1247 C 0.71373 0.97437 0.63026 0.0
C1248 C 0.63698 0.91506 0.62277 0.0
C1249 C 0.65362 0.883 0.64424 0.0
N1250 N 0.70669 0.87591 0.68348 0.0
N1251 N 0.6415 0.00214 0.60196 0.0
C1252 C 0.69778 0.89877 0.65955 0.0
C1253 C 0.66398 0.9643 0.61774 0.0
N1254 N 0.78448 0.93918 0.65785 0.0
N1255 N 0.59655 0.89802 0.60685 0.0
H1256 H 0.65906 0.03925 0.59856 0.0
H1257 H 0.6031 0.99869 0.59432 0.0
H1258 H 0.57536 0.86286 0.61035 0.0
H1259 H 0.5866 0.91691 0.5893 0.0
H1260 H 0.80028 0.91059 0.67053 0.0
H1261 H 0.81341 0.96353 0.64933 0.0
H1262 H 0.7366 0.88898 0.69621 0.0
H1263 H 0.68012 0.84857 0.69172 0.0
loop_
_geom_bond_atom_site_label_1
_geom_bond_atom_site_label_2
_geom_bond_distance
_geom_bond_site_symmetry_2
_ccdc_geom_bond_type
Co0 O3 1.970 . S
Co0 N17 1.989 . S
Co0 O25 1.967 . S
Co0 O32 1.920 . S
Co1 O4 1.966 . S
Co1 N10 2.022 . S
Co1 N18 1.993 . S
Co1 O26 1.941 . S
C2 O3 1.258 1_655 S
C2 O4 1.263 1_655 S
O3 Co0 1.970 . S
O3 C2 1.258 1_455 S
O4 Co1 1.966 . S
O4 C2 1.263 1_455 S
C5 O6 1.235 . S
C5 O32 1.289 . S
O6 C5 1.235 . S
C7 C9 1.400 . S
C7 N10 1.351 . S
C7 C12 1.501 . S
C8 C9 1.387 . S
C8 N11 1.341 . S
C9 C7 1.400 . S
C9 C8 1.387 . S
N10 Co1 2.022 . S
N10 C7 1.351 . S
N10 N11 1.365 . S
N11 C8 1.341 . S
N11 N10 1.365 . S
N11 H31 0.862 . S
C12 C7 1.501 . S
C12 H13 0.961 . S
C12 H14 0.961 . S
C12 H15 0.960 . S
H13 C12 0.961 . S
H14 C12 0.961 . S
H15 C12 0.960 . S
C16 N17 1.342 . S
C16 C20 1.401 . S
C16 C21 1.499 . S
N17 Co0 1.989 . S
N17 C16 1.342 . S
N17 N18 1.388 . S
N18 Co1 1.993 . S
N18 N17 1.388 . S
N18 C19 1.346 . S
C19 N18 1.346 . S
C19 C20 1.396 . S
C19 C29 1.510 . S
C20 C16 1.401 . S
C20 C19 1.396 . S
C21 C16 1.499 . S
C21 H22 0.959 . S
C21 H23 0.960 . S
C21 H24 0.961 . S
H22 C21 0.959 . S
H23 C21 0.960 . S
H24 C21 0.961 . S
O25 Co0 1.967 . S
O25 C33 1.258 . S
O26 Co1 1.941 . S
O26 C33 1.266 . S
H27 C29 0.959 . S
H28 C29 0.961 . S
C29 C19 1.510 . S
C29 H27 0.959 . S
C29 H28 0.961 . S
C29 H30 0.960 . S
H30 C29 0.960 . S
H31 N11 0.862 . S
O32 Co0 1.920 . S
O32 C5 1.289 . S
C33 O25 1.258 . S
C33 O26 1.266 . S
Co34 O37 1.970 . S
Co34 N51 1.989 . S
Co34 O59 1.967 . S
Co34 O66 1.920 . S
Co35 O38 1.966 . S
Co35 N44 2.022 . S
Co35 N52 1.993 . S
Co35 O60 1.941 . S
C36 O37 1.258 1_565 S
C36 O38 1.263 1_565 S
O37 Co34 1.970 . S
O37 C36 1.258 1_545 S
O38 Co35 1.966 . S
O38 C36 1.263 1_545 S
C39 O40 1.235 . S
C39 O66 1.289 . S
O40 C39 1.235 . S
C41 C43 1.400 . S
C41 N44 1.351 . S
C41 C46 1.501 . S
C42 C43 1.387 . S
C42 N45 1.341 . S
C43 C41 1.400 . S
C43 C42 1.387 . S
N44 Co35 2.022 . S
N44 C41 1.351 . S
N44 N45 1.365 . S
N45 C42 1.341 . S
N45 N44 1.365 . S
N45 H65 0.862 . S
C46 C41 1.501 . S
C46 H47 0.961 . S
C46 H48 0.961 . S
C46 H49 0.960 . S
H47 C46 0.961 . S
H48 C46 0.961 . S
H49 C46 0.960 . S
C50 N51 1.342 . S
C50 C54 1.401 . S
C50 C55 1.499 . S
N51 Co34 1.989 . S
N51 C50 1.342 . S
N51 N52 1.388 . S
N52 Co35 1.993 . S
N52 N51 1.388 . S
N52 C53 1.346 . S
C53 N52 1.346 . S
C53 C54 1.396 . S
C53 C63 1.510 . S
C54 C50 1.401 . S
C54 C53 1.396 . S
C55 C50 1.499 . S
C55 H56 0.959 . S
C55 H57 0.960 . S
C55 H58 0.961 . S
H56 C55 0.959 . S
H57 C55 0.960 . S
H58 C55 0.961 . S
O59 Co34 1.967 . S
O59 C67 1.258 . S
O60 Co35 1.941 . S
O60 C67 1.266 . S
H61 C63 0.959 . S
H62 C63 0.961 . S
C63 C53 1.510 . S
C63 H61 0.959 . S
C63 H62 0.961 . S
C63 H64 0.960 . S
H64 C63 0.960 . S
H65 N45 0.862 . S
O66 Co34 1.920 . S
O66 C39 1.289 . S
C67 O59 1.258 . S
C67 O60 1.266 . S
Co68 O71 1.970 . S
Co68 N85 1.989 . S
Co68 O93 1.967 . S
Co68 O100 1.920 . S
Co69 O72 1.966 . S
Co69 N78 2.022 . S
Co69 N86 1.993 . S
Co69 O94 1.941 . S
C70 O71 1.258 1_455 S
C70 O72 1.263 1_455 S
O71 Co68 1.970 . S
O71 C70 1.258 1_655 S
O72 Co69 1.966 . S
O72 C70 1.263 1_655 S
C73 O74 1.235 . S
C73 O100 1.289 . S
O74 C73 1.235 . S
C75 C77 1.400 . S
C75 N78 1.351 . S
C75 C80 1.501 . S
C76 C77 1.387 . S
C76 N79 1.341 . S
C77 C75 1.400 . S
C77 C76 1.387 . S
N78 Co69 2.022 . S
N78 C75 1.351 . S
N78 N79 1.365 . S
N79 C76 1.341 . S
N79 N78 1.365 . S
N79 H99 0.862 . S
C80 C75 1.501 . S
C80 H81 0.961 . S
C80 H82 0.961 . S
C80 H83 0.960 . S
H81 C80 0.961 . S
H82 C80 0.961 . S
H83 C80 0.960 . S
C84 N85 1.342 . S
C84 C88 1.401 . S
C84 C89 1.499 . S
N85 Co68 1.989 . S
N85 C84 1.342 . S
N85 N86 1.388 . S
N86 Co69 1.993 . S
N86 N85 1.388 . S
N86 C87 1.346 . S
C87 N86 1.346 . S
C87 C88 1.396 . S
C87 C97 1.510 . S
C88 C84 1.401 . S
C88 C87 1.396 . S
C89 C84 1.499 . S
C89 H90 0.959 . S
C89 H91 0.960 . S
C89 H92 0.961 . S
H90 C89 0.959 . S
H91 C89 0.960 . S
H92 C89 0.961 . S
O93 Co68 1.967 . S
O93 C101 1.258 . S
O94 Co69 1.941 . S
O94 C101 1.266 . S
H95 C97 0.959 . S
H96 C97 0.961 . S
C97 C87 1.510 . S
C97 H95 0.959 . S
C97 H96 0.961 . S
C97 H98 0.960 . S
H98 C97 0.960 . S
H99 N79 0.862 . S
O100 Co68 1.920 . S
O100 C73 1.289 . S
C101 O93 1.258 . S
C101 O94 1.266 . S
Co102 O105 1.970 . S
Co102 N119 1.989 . S
Co102 O127 1.967 . S
Co102 O134 1.920 . S
Co103 O106 1.966 . S
Co103 N112 2.022 . S
Co103 N120 1.993 . S
Co103 O128 1.941 . S
C104 O105 1.258 1_545 S
C104 O106 1.263 1_545 S
O105 Co102 1.970 . S
O105 C104 1.258 1_565 S
O106 Co103 1.966 . S
O106 C104 1.263 1_565 S
C107 O108 1.235 . S
C107 O134 1.289 . S
O108 C107 1.235 . S
C109 C111 1.400 . S
C109 N112 1.351 . S
C109 C114 1.501 . S
C110 C111 1.387 . S
C110 N113 1.341 . S
C111 C109 1.400 . S
C111 C110 1.387 . S
N112 Co103 2.022 . S
N112 C109 1.351 . S
N112 N113 1.365 . S
N113 C110 1.341 . S
N113 N112 1.365 . S
N113 H133 0.862 . S
C114 C109 1.501 . S
C114 H115 0.961 . S
C114 H116 0.961 . S
C114 H117 0.960 . S
H115 C114 0.961 . S
H116 C114 0.961 . S
H117 C114 0.960 . S
C118 N119 1.342 . S
C118 C122 1.401 . S
C118 C123 1.499 . S
N119 Co102 1.989 . S
N119 C118 1.342 . S
N119 N120 1.388 . S
N120 Co103 1.993 . S
N120 N119 1.388 . S
N120 C121 1.346 . S
C121 N120 1.346 . S
C121 C122 1.396 . S
C121 C131 1.510 . S
C122 C118 1.401 . S
C122 C121 1.396 . S
C123 C118 1.499 . S
C123 H124 0.959 . S
C123 H125 0.960 . S
C123 H126 0.961 . S
H124 C123 0.959 . S
H125 C123 0.960 . S
H126 C123 0.961 . S
O127 Co102 1.967 . S
O127 C135 1.258 . S
O128 Co103 1.941 . S
O128 C135 1.266 . S
H129 C131 0.959 . S
H130 C131 0.961 . S
C131 C121 1.510 . S
C131 H129 0.959 . S
C131 H130 0.961 . S
C131 H132 0.960 . S
H132 C131 0.960 . S
H133 N113 0.862 . S
O134 Co102 1.920 . S
O134 C107 1.289 . S
C135 O127 1.258 . S
C135 O128 1.266 . S
Co136 O139 1.970 . S
Co136 N153 1.989 . S
Co136 O161 1.967 . S
Co136 O168 1.920 . S
Co137 O140 1.966 . S
Co137 N146 2.022 . S
Co137 N154 1.993 . S
Co137 O162 1.941 . S
C138 O139 1.258 . S
C138 O140 1.263 . S
O139 Co136 1.970 . S
O139 C138 1.258 . S
O140 Co137 1.966 . S
O140 C138 1.263 . S
C141 O142 1.235 . S
C141 O168 1.289 . S
O142 C141 1.235 . S
C143 C145 1.400 . S
C143 N146 1.351 . S
C143 C148 1.501 . S
C144 C145 1.387 . S
C144 N147 1.341 . S
C145 C143 1.400 . S
C145 C144 1.387 . S
N146 Co137 2.022 . S
N146 C143 1.351 . S
N146 N147 1.365 . S
N147 C144 1.341 . S
N147 N146 1.365 . S
N147 H167 0.862 . S
C148 C143 1.501 . S
C148 H149 0.961 . S
C148 H150 0.961 . S
C148 H151 0.960 . S
H149 C148 0.961 . S
H150 C148 0.961 . S
H151 C148 0.960 . S
C152 N153 1.342 . S
C152 C156 1.401 . S
C152 C157 1.499 . S
N153 Co136 1.989 . S
N153 C152 1.342 . S
N153 N154 1.388 . S
N154 Co137 1.993 . S
N154 N153 1.388 . S
N154 C155 1.346 . S
C155 N154 1.346 . S
C155 C156 1.396 . S
C155 C165 1.510 . S
C156 C152 1.401 . S
C156 C155 1.396 . S
C157 C152 1.499 . S
C157 H158 0.959 . S
C157 H159 0.960 . S
C157 H160 0.961 . S
H158 C157 0.959 . S
H159 C157 0.960 . S
H160 C157 0.961 . S
O161 Co136 1.967 . S
O161 C169 1.258 . S
O162 Co137 1.941 . S
O162 C169 1.266 . S
H163 C165 0.959 . S
H164 C165 0.961 . S
C165 C155 1.510 . S
C165 H163 0.959 . S
C165 H164 0.961 . S
C165 H166 0.960 . S
H166 C165 0.960 . S
H167 N147 0.862 . S
O168 Co136 1.920 . S
O168 C141 1.289 . S
C169 O161 1.258 . S
C169 O162 1.266 . S
Co170 O173 1.970 . S
Co170 N187 1.989 . S
Co170 O195 1.967 . S
Co170 O202 1.920 . S
Co171 O174 1.966 . S
Co171 N180 2.022 . S
Co171 N188 1.993 . S
Co171 O196 1.941 . S
C172 O173 1.258 . S
C172 O174 1.263 . S
O173 Co170 1.970 . S
O173 C172 1.258 . S
O174 Co171 1.966 . S
O174 C172 1.263 . S
C175 O176 1.235 . S
C175 O202 1.289 . S
O176 C175 1.235 . S
C177 C179 1.400 . S
C177 N180 1.351 . S
C177 C182 1.501 . S
C178 C179 1.387 . S
C178 N181 1.341 . S
C179 C177 1.400 . S
C179 C178 1.387 . S
N180 Co171 2.022 . S
N180 C177 1.351 . S
N180 N181 1.365 . S
N181 C178 1.341 . S
N181 N180 1.365 . S
N181 H201 0.862 . S
C182 C177 1.501 . S
C182 H183 0.961 . S
C182 H184 0.961 . S
C182 H185 0.960 . S
H183 C182 0.961 . S
H184 C182 0.961 . S
H185 C182 0.960 . S
C186 N187 1.342 . S
C186 C190 1.401 . S
C186 C191 1.499 . S
N187 Co170 1.989 . S
N187 C186 1.342 . S
N187 N188 1.388 . S
N188 Co171 1.993 . S
N188 N187 1.388 . S
N188 C189 1.346 . S
C189 N188 1.346 . S
C189 C190 1.396 . S
C189 C199 1.510 . S
C190 C186 1.401 . S
C190 C189 1.396 . S
C191 C186 1.499 . S
C191 H192 0.959 . S
C191 H193 0.960 . S
C191 H194 0.961 . S
H192 C191 0.959 . S
H193 C191 0.960 . S
H194 C191 0.961 . S
O195 Co170 1.967 . S
O195 C203 1.258 . S
O196 Co171 1.941 . S
O196 C203 1.266 . S
H197 C199 0.959 . S
H198 C199 0.961 . S
C199 C189 1.510 . S
C199 H197 0.959 . S
C199 H198 0.961 . S
C199 H200 0.960 . S
H200 C199 0.960 . S
H201 N181 0.862 . S
O202 Co170 1.920 . S
O202 C175 1.289 . S
C203 O195 1.258 . S
C203 O196 1.266 . S
Co204 O207 1.970 . S
Co204 N221 1.989 . S
Co204 O229 1.967 . S
Co204 O236 1.920 . S
Co205 O208 1.966 . S
Co205 N214 2.022 . S
Co205 N222 1.993 . S
Co205 O230 1.941 . S
C206 O207 1.258 . S
C206 O208 1.263 . S
O207 Co204 1.970 . S
O207 C206 1.258 . S
O208 Co205 1.966 . S
O208 C206 1.263 . S
C209 O210 1.235 . S
C209 O236 1.289 . S
O210 C209 1.235 . S
C211 C213 1.400 . S
C211 N214 1.351 . S
C211 C216 1.501 . S
C212 C213 1.387 . S
C212 N215 1.341 . S
C213 C211 1.400 . S
C213 C212 1.387 . S
N214 Co205 2.022 . S
N214 C211 1.351 . S
N214 N215 1.365 . S
N215 C212 1.341 . S
N215 N214 1.365 . S
N215 H235 0.862 . S
C216 C211 1.501 . S
C216 H217 0.961 . S
C216 H218 0.961 . S
C216 H219 0.960 . S
H217 C216 0.961 . S
H218 C216 0.961 . S
H219 C216 0.960 . S
C220 N221 1.342 . S
C220 C224 1.401 . S
C220 C225 1.499 . S
N221 Co204 1.989 . S
N221 C220 1.342 . S
N221 N222 1.388 . S
N222 Co205 1.993 . S
N222 N221 1.388 . S
N222 C223 1.346 . S
C223 N222 1.346 . S
C223 C224 1.396 . S
C223 C233 1.510 . S
C224 C220 1.401 . S
C224 C223 1.396 . S
C225 C220 1.499 . S
C225 H226 0.959 . S
C225 H227 0.960 . S
C225 H228 0.961 . S
H226 C225 0.959 . S
H227 C225 0.960 . S
H228 C225 0.961 . S
O229 Co204 1.967 . S
O229 C237 1.258 . S
O230 Co205 1.941 . S
O230 C237 1.266 . S
H231 C233 0.959 . S
H232 C233 0.961 . S
C233 C223 1.510 . S
C233 H231 0.959 . S
C233 H232 0.961 . S
C233 H234 0.960 . S
H234 C233 0.960 . S
H235 N215 0.862 . S
O236 Co204 1.920 . S
O236 C209 1.289 . S
C237 O229 1.258 . S
C237 O230 1.266 . S
Co238 O241 1.970 . S
Co238 N255 1.989 . S
Co238 O263 1.967 . S
Co238 O270 1.920 . S
Co239 O242 1.966 . S
Co239 N248 2.022 . S
Co239 N256 1.993 . S
Co239 O264 1.941 . S
C240 O241 1.258 . S
C240 O242 1.263 . S
O241 Co238 1.970 . S
O241 C240 1.258 . S
O242 Co239 1.966 . S
O242 C240 1.263 . S
C243 O244 1.235 . S
C243 O270 1.289 . S
O244 C243 1.235 . S
C245 C247 1.400 . S
C245 N248 1.351 . S
C245 C250 1.501 . S
C246 C247 1.387 . S
C246 N249 1.341 . S
C247 C245 1.400 . S
C247 C246 1.387 . S
N248 Co239 2.022 . S
N248 C245 1.351 . S
N248 N249 1.365 . S
N249 C246 1.341 . S
N249 N248 1.365 . S
N249 H269 0.862 . S
C250 C245 1.501 . S
C250 H251 0.961 . S
C250 H252 0.961 . S
C250 H253 0.960 . S
H251 C250 0.961 . S
H252 C250 0.961 . S
H253 C250 0.960 . S
C254 N255 1.342 . S
C254 C258 1.401 . S
C254 C259 1.499 . S
N255 Co238 1.989 . S
N255 C254 1.342 . S
N255 N256 1.388 . S
N256 Co239 1.993 . S
N256 N255 1.388 . S
N256 C257 1.346 . S
C257 N256 1.346 . S
C257 C258 1.396 . S
C257 C267 1.510 . S
C258 C254 1.401 . S
C258 C257 1.396 . S
C259 C254 1.499 . S
C259 H260 0.959 . S
C259 H261 0.960 . S
C259 H262 0.961 . S
H260 C259 0.959 . S
H261 C259 0.960 . S
H262 C259 0.961 . S
O263 Co238 1.967 . S
O263 C271 1.258 . S
O264 Co239 1.941 . S
O264 C271 1.266 . S
H265 C267 0.959 . S
H266 C267 0.961 . S
C267 C257 1.510 . S
C267 H265 0.959 . S
C267 H266 0.961 . S
C267 H268 0.960 . S
H268 C267 0.960 . S
H269 N249 0.862 . S
O270 Co238 1.920 . S
O270 C243 1.289 . S
C271 O263 1.258 . S
C271 O264 1.266 . S
Co272 O275 1.970 . S
Co272 N289 1.989 . S
Co272 O297 1.967 . S
Co272 O304 1.920 1_655 S
Co273 O276 1.966 . S
Co273 N282 2.022 . S
Co273 N290 1.993 . S
Co273 O298 1.941 . S
C274 O275 1.258 . S
C274 O276 1.263 . S
O275 Co272 1.970 . S
O275 C274 1.258 . S
O276 Co273 1.966 . S
O276 C274 1.263 . S
C277 O278 1.235 . S
C277 O304 1.289 . S
O278 C277 1.235 . S
C279 C281 1.400 . S
C279 N282 1.351 . S
C279 C284 1.501 . S
C280 C281 1.387 . S
C280 N283 1.341 . S
C281 C279 1.400 . S
C281 C280 1.387 . S
N282 Co273 2.022 . S
N282 C279 1.351 . S
N282 N283 1.365 . S
N283 C280 1.341 . S
N283 N282 1.365 . S
N283 H303 0.862 . S
C284 C279 1.501 . S
C284 H285 0.961 . S
C284 H286 0.961 . S
C284 H287 0.960 . S
H285 C284 0.961 . S
H286 C284 0.961 . S
H287 C284 0.960 . S
C288 N289 1.342 . S
C288 C292 1.401 . S
C288 C293 1.499 1_655 S
N289 Co272 1.989 . S
N289 C288 1.342 . S
N289 N290 1.388 . S
N290 Co273 1.993 . S
N290 N289 1.388 . S
N290 C291 1.346 . S
C291 N290 1.346 . S
C291 C292 1.396 . S
C291 C301 1.510 . S
C292 C288 1.401 . S
C292 C291 1.396 . S
C293 C288 1.499 1_455 S
C293 H294 0.959 . S
C293 H295 0.960 . S
C293 H296 0.961 . S
H294 C293 0.959 . S
H295 C293 0.960 . S
H296 C293 0.961 . S
O297 Co272 1.967 . S
O297 C305 1.258 . S
O298 Co273 1.941 . S
O298 C305 1.266 . S
H299 C301 0.959 . S
H300 C301 0.961 . S
C301 C291 1.510 . S
C301 H299 0.959 . S
C301 H300 0.961 . S
C301 H302 0.960 . S
H302 C301 0.960 . S
H303 N283 0.862 . S
O304 Co272 1.920 1_455 S
O304 C277 1.289 . S
C305 O297 1.258 . S
C305 O298 1.266 . S
Co306 O309 1.970 . S
Co306 N323 1.989 . S
Co306 O331 1.967 . S
Co306 O338 1.920 1_565 S
Co307 O310 1.966 . S
Co307 N316 2.022 . S
Co307 N324 1.993 . S
Co307 O332 1.941 . S
C308 O309 1.258 . S
C308 O310 1.263 . S
O309 Co306 1.970 . S
O309 C308 1.258 . S
O310 Co307 1.966 . S
O310 C308 1.263 . S
C311 O312 1.235 . S
C311 O338 1.289 . S
O312 C311 1.235 . S
C313 C315 1.400 . S
C313 N316 1.351 . S
C313 C318 1.501 . S
C314 C315 1.387 . S
C314 N317 1.341 . S
C315 C313 1.400 . S
C315 C314 1.387 . S
N316 Co307 2.022 . S
N316 C313 1.351 . S
N316 N317 1.365 . S
N317 C314 1.341 . S
N317 N316 1.365 . S
N317 H337 0.862 . S
C318 C313 1.501 . S
C318 H319 0.961 . S
C318 H320 0.961 . S
C318 H321 0.960 . S
H319 C318 0.961 . S
H320 C318 0.961 . S
H321 C318 0.960 . S
C322 N323 1.342 . S
C322 C326 1.401 . S
C322 C327 1.499 1_565 S
N323 Co306 1.989 . S
N323 C322 1.342 . S
N323 N324 1.388 . S
N324 Co307 1.993 . S
N324 N323 1.388 . S
N324 C325 1.346 . S
C325 N324 1.346 . S
C325 C326 1.396 . S
C325 C335 1.510 . S
C326 C322 1.401 . S
C326 C325 1.396 . S
C327 C322 1.499 1_545 S
C327 H328 0.959 . S
C327 H329 0.960 . S
C327 H330 0.961 . S
H328 C327 0.959 . S
H329 C327 0.960 . S
H330 C327 0.961 . S
O331 Co306 1.967 . S
O331 C339 1.258 . S
O332 Co307 1.941 . S
O332 C339 1.266 . S
H333 C335 0.959 . S
H334 C335 0.961 . S
C335 C325 1.510 . S
C335 H333 0.959 . S
C335 H334 0.961 . S
C335 H336 0.960 . S
H336 C335 0.960 . S
H337 N317 0.862 . S
O338 Co306 1.920 1_545 S
O338 C311 1.289 . S
C339 O331 1.258 . S
C339 O332 1.266 . S
Co340 O343 1.970 . S
Co340 N357 1.989 . S
Co340 O365 1.967 . S
Co340 O372 1.920 1_455 S
Co341 O344 1.966 . S
Co341 N350 2.022 . S
Co341 N358 1.993 . S
Co341 O366 1.941 . S
C342 O343 1.258 . S
C342 O344 1.263 . S
O343 Co340 1.970 . S
O343 C342 1.258 . S
O344 Co341 1.966 . S
O344 C342 1.263 . S
C345 O346 1.235 . S
C345 O372 1.289 . S
O346 C345 1.235 . S
C347 C349 1.400 . S
C347 N350 1.351 . S
C347 C352 1.501 . S
C348 C349 1.387 . S
C348 N351 1.341 . S
C349 C347 1.400 . S
C349 C348 1.387 . S
N350 Co341 2.022 . S
N350 C347 1.351 . S
N350 N351 1.365 . S
N351 C348 1.341 . S
N351 N350 1.365 . S
N351 H371 0.862 . S
C352 C347 1.501 . S
C352 H353 0.961 . S
C352 H354 0.961 . S
C352 H355 0.960 . S
H353 C352 0.961 . S
H354 C352 0.961 . S
H355 C352 0.960 . S
C356 N357 1.342 . S
C356 C360 1.401 . S
C356 C361 1.499 1_455 S
N357 Co340 1.989 . S
N357 C356 1.342 . S
N357 N358 1.388 . S
N358 Co341 1.993 . S
N358 N357 1.388 . S
N358 C359 1.346 . S
C359 N358 1.346 . S
C359 C360 1.396 . S
C359 C369 1.510 . S
C360 C356 1.401 . S
C360 C359 1.396 . S
C361 C356 1.499 1_655 S
C361 H362 0.959 . S
C361 H363 0.960 . S
C361 H364 0.961 . S
H362 C361 0.959 . S
H363 C361 0.960 . S
H364 C361 0.961 . S
O365 Co340 1.967 . S
O365 C373 1.258 . S
O366 Co341 1.941 . S
O366 C373 1.266 . S
H367 C369 0.959 . S
H368 C369 0.961 . S
C369 C359 1.510 . S
C369 H367 0.959 . S
C369 H368 0.961 . S
C369 H370 0.960 . S
H370 C369 0.960 . S
H371 N351 0.862 . S
O372 Co340 1.920 1_655 S
O372 C345 1.289 . S
C373 O365 1.258 . S
C373 O366 1.266 . S
Co374 O377 1.970 . S
Co374 N391 1.989 . S
Co374 O399 1.967 . S
Co374 O406 1.920 1_545 S
Co375 O378 1.966 . S
Co375 N384 2.022 . S
Co375 N392 1.993 . S
Co375 O400 1.941 . S
C376 O377 1.258 . S
C376 O378 1.263 . S
O377 Co374 1.970 . S
O377 C376 1.258 . S
O378 Co375 1.966 . S
O378 C376 1.263 . S
C379 O380 1.235 . S
C379 O406 1.289 . S
O380 C379 1.235 . S
C381 C383 1.400 . S
C381 N384 1.351 . S
C381 C386 1.501 . S
C382 C383 1.387 . S
C382 N385 1.341 . S
C383 C381 1.400 . S
C383 C382 1.387 . S
N384 Co375 2.022 . S
N384 C381 1.351 . S
N384 N385 1.365 . S
N385 C382 1.341 . S
N385 N384 1.365 . S
N385 H405 0.862 . S
C386 C381 1.501 . S
C386 H387 0.961 . S
C386 H388 0.961 . S
C386 H389 0.960 . S
H387 C386 0.961 . S
H388 C386 0.961 . S
H389 C386 0.960 . S
C390 N391 1.342 . S
C390 C394 1.401 . S
C390 C395 1.499 1_545 S
N391 Co374 1.989 . S
N391 C390 1.342 . S
N391 N392 1.388 . S
N392 Co375 1.993 . S
N392 N391 1.388 . S
N392 C393 1.346 . S
C393 N392 1.346 . S
C393 C394 1.396 . S
C393 C403 1.510 . S
C394 C390 1.401 . S
C394 C393 1.396 . S
C395 C390 1.499 1_565 S
C395 H396 0.959 . S
C395 H397 0.960 . S
C395 H398 0.961 . S
H396 C395 0.959 . S
H397 C395 0.960 . S
H398 C395 0.961 . S
O399 Co374 1.967 . S
O399 C407 1.258 . S
O400 Co375 1.941 . S
O400 C407 1.266 . S
H401 C403 0.959 . S
H402 C403 0.961 . S
C403 C393 1.510 . S
C403 H401 0.959 . S
C403 H402 0.961 . S
C403 H404 0.960 . S
H404 C403 0.960 . S
H405 N385 0.862 . S
O406 Co374 1.920 1_565 S
O406 C379 1.289 . S
C407 O399 1.258 . S
C407 O400 1.266 . S
Co408 O411 1.970 . S
Co408 N425 1.989 . S
Co408 O433 1.967 . S
Co408 O440 1.920 . S
Co409 O412 1.966 . S
Co409 N418 2.022 . S
Co409 N426 1.993 . S
Co409 O434 1.941 . S
C410 O411 1.258 . S
C410 O412 1.263 . S
O411 Co408 1.970 . S
O411 C410 1.258 . S
O412 Co409 1.966 . S
O412 C410 1.263 . S
C413 O414 1.235 . S
C413 O440 1.289 . S
O414 C413 1.235 . S
C415 C417 1.400 . S
C415 N418 1.351 . S
C415 C420 1.501 . S
C416 C417 1.387 . S
C416 N419 1.341 . S
C417 C415 1.400 . S
C417 C416 1.387 . S
N418 Co409 2.022 . S
N418 C415 1.351 . S
N418 N419 1.365 . S
N419 C416 1.341 . S
N419 N418 1.365 . S
N419 H439 0.862 . S
C420 C415 1.501 . S
C420 H421 0.961 . S
C420 H422 0.961 . S
C420 H423 0.960 . S
H421 C420 0.961 . S
H422 C420 0.961 . S
H423 C420 0.960 . S
C424 N425 1.342 . S
C424 C428 1.401 . S
C424 C429 1.499 . S
N425 Co408 1.989 . S
N425 C424 1.342 . S
N425 N426 1.388 . S
N426 Co409 1.993 . S
N426 N425 1.388 . S
N426 C427 1.346 . S
C427 N426 1.346 . S
C427 C428 1.396 . S
C427 C437 1.510 . S
C428 C424 1.401 . S
C428 C427 1.396 . S
C429 C424 1.499 . S
C429 H430 0.959 . S
C429 H431 0.960 . S
C429 H432 0.961 . S
H430 C429 0.959 . S
H431 C429 0.960 . S
H432 C429 0.961 . S
O433 Co408 1.967 . S
O433 C441 1.258 . S
O434 Co409 1.941 . S
O434 C441 1.266 . S
H435 C437 0.959 . S
H436 C437 0.961 . S
C437 C427 1.510 . S
C437 H435 0.959 . S
C437 H436 0.961 . S
C437 H438 0.960 . S
H438 C437 0.960 . S
H439 N419 0.862 . S
O440 Co408 1.920 . S
O440 C413 1.289 . S
C441 O433 1.258 . S
C441 O434 1.266 . S
Co442 O445 1.970 . S
Co442 N459 1.989 . S
Co442 O467 1.967 . S
Co442 O474 1.920 . S
Co443 O446 1.966 . S
Co443 N452 2.022 . S
Co443 N460 1.993 . S
Co443 O468 1.941 . S
C444 O445 1.258 . S
C444 O446 1.263 . S
O445 Co442 1.970 . S
O445 C444 1.258 . S
O446 Co443 1.966 . S
O446 C444 1.263 . S
C447 O448 1.235 . S
C447 O474 1.289 . S
O448 C447 1.235 . S
C449 C451 1.400 . S
C449 N452 1.351 . S
C449 C454 1.501 . S
C450 C451 1.387 . S
C450 N453 1.341 . S
C451 C449 1.400 . S
C451 C450 1.387 . S
N452 Co443 2.022 . S
N452 C449 1.351 . S
N452 N453 1.365 . S
N453 C450 1.341 . S
N453 N452 1.365 . S
N453 H473 0.862 . S
C454 C449 1.501 . S
C454 H455 0.961 . S
C454 H456 0.961 . S
C454 H457 0.960 . S
H455 C454 0.961 . S
H456 C454 0.961 . S
H457 C454 0.960 . S
C458 N459 1.342 . S
C458 C462 1.401 . S
C458 C463 1.499 . S
N459 Co442 1.989 . S
N459 C458 1.342 . S
N459 N460 1.388 . S
N460 Co443 1.993 . S
N460 N459 1.388 . S
N460 C461 1.346 . S
C461 N460 1.346 . S
C461 C462 1.396 . S
C461 C471 1.510 . S
C462 C458 1.401 . S
C462 C461 1.396 . S
C463 C458 1.499 . S
C463 H464 0.959 . S
C463 H465 0.960 . S
C463 H466 0.961 . S
H464 C463 0.959 . S
H465 C463 0.960 . S
H466 C463 0.961 . S
O467 Co442 1.967 . S
O467 C475 1.258 . S
O468 Co443 1.941 . S
O468 C475 1.266 . S
H469 C471 0.959 . S
H470 C471 0.961 . S
C471 C461 1.510 . S
C471 H469 0.959 . S
C471 H470 0.961 . S
C471 H472 0.960 . S
H472 C471 0.960 . S
H473 N453 0.862 . S
O474 Co442 1.920 . S
O474 C447 1.289 . S
C475 O467 1.258 . S
C475 O468 1.266 . S
Co476 O479 1.970 . S
Co476 N493 1.989 . S
Co476 O501 1.967 . S
Co476 O508 1.920 . S
Co477 O480 1.966 . S
Co477 N486 2.022 . S
Co477 N494 1.993 . S
Co477 O502 1.941 . S
C478 O479 1.258 . S
C478 O480 1.263 . S
O479 Co476 1.970 . S
O479 C478 1.258 . S
O480 Co477 1.966 . S
O480 C478 1.263 . S
C481 O482 1.235 . S
C481 O508 1.289 . S
O482 C481 1.235 . S
C483 C485 1.400 . S
C483 N486 1.351 . S
C483 C488 1.501 . S
C484 C485 1.387 . S
C484 N487 1.341 . S
C485 C483 1.400 . S
C485 C484 1.387 . S
N486 Co477 2.022 . S
N486 C483 1.351 . S
N486 N487 1.365 . S
N487 C484 1.341 . S
N487 N486 1.365 . S
N487 H507 0.862 . S
C488 C483 1.501 . S
C488 H489 0.961 . S
C488 H490 0.961 . S
C488 H491 0.960 . S
H489 C488 0.961 . S
H490 C488 0.961 . S
H491 C488 0.960 . S
C492 N493 1.342 . S
C492 C496 1.401 . S
C492 C497 1.499 . S
N493 Co476 1.989 . S
N493 C492 1.342 . S
N493 N494 1.388 . S
N494 Co477 1.993 . S
N494 N493 1.388 . S
N494 C495 1.346 . S
C495 N494 1.346 . S
C495 C496 1.396 . S
C495 C505 1.510 . S
C496 C492 1.401 . S
C496 C495 1.396 . S
C497 C492 1.499 . S
C497 H498 0.959 . S
C497 H499 0.960 . S
C497 H500 0.961 . S
H498 C497 0.959 . S
H499 C497 0.960 . S
H500 C497 0.961 . S
O501 Co476 1.967 . S
O501 C509 1.258 . S
O502 Co477 1.941 . S
O502 C509 1.266 . S
H503 C505 0.959 . S
H504 C505 0.961 . S
C505 C495 1.510 . S
C505 H503 0.959 . S
C505 H504 0.961 . S
C505 H506 0.960 . S
H506 C505 0.960 . S
H507 N487 0.862 . S
O508 Co476 1.920 . S
O508 C481 1.289 . S
C509 O501 1.258 . S
C509 O502 1.266 . S
Co510 O513 1.970 . S
Co510 N527 1.989 . S
Co510 O535 1.967 . S
Co510 O542 1.920 . S
Co511 O514 1.966 . S
Co511 N520 2.022 . S
Co511 N528 1.993 . S
Co511 O536 1.941 . S
C512 O513 1.258 . S
C512 O514 1.263 . S
O513 Co510 1.970 . S
O513 C512 1.258 . S
O514 Co511 1.966 . S
O514 C512 1.263 . S
C515 O516 1.235 . S
C515 O542 1.289 . S
O516 C515 1.235 . S
C517 C519 1.400 . S
C517 N520 1.351 . S
C517 C522 1.501 . S
C518 C519 1.387 . S
C518 N521 1.341 . S
C519 C517 1.400 . S
C519 C518 1.387 . S
N520 Co511 2.022 . S
N520 C517 1.351 . S
N520 N521 1.365 . S
N521 C518 1.341 . S
N521 N520 1.365 . S
N521 H541 0.862 . S
C522 C517 1.501 . S
C522 H523 0.961 . S
C522 H524 0.961 . S
C522 H525 0.960 . S
H523 C522 0.961 . S
H524 C522 0.961 . S
H525 C522 0.960 . S
C526 N527 1.342 . S
C526 C530 1.401 . S
C526 C531 1.499 . S
N527 Co510 1.989 . S
N527 C526 1.342 . S
N527 N528 1.388 . S
N528 Co511 1.993 . S
N528 N527 1.388 . S
N528 C529 1.346 . S
C529 N528 1.346 . S
C529 C530 1.396 . S
C529 C539 1.510 . S
C530 C526 1.401 . S
C530 C529 1.396 . S
C531 C526 1.499 . S
C531 H532 0.959 . S
C531 H533 0.960 . S
C531 H534 0.961 . S
H532 C531 0.959 . S
H533 C531 0.960 . S
H534 C531 0.961 . S
O535 Co510 1.967 . S
O535 C543 1.258 . S
O536 Co511 1.941 . S
O536 C543 1.266 . S
H537 C539 0.959 . S
H538 C539 0.961 . S
C539 C529 1.510 . S
C539 H537 0.959 . S
C539 H538 0.961 . S
C539 H540 0.960 . S
H540 C539 0.960 . S
H541 N521 0.862 . S
O542 Co510 1.920 . S
O542 C515 1.289 . S
C543 O535 1.258 . S
C543 O536 1.266 . S
C544 C545 1.363 1_655 S
C544 C550 1.379 1_545 S
C544 N552 1.356 . S
C545 C544 1.363 1_455 S
C545 C551 1.363 . S
C546 C547 1.363 1_455 S
C546 C551 1.379 1_565 S
C546 N553 1.356 . S
C547 C546 1.363 1_655 S
C547 C550 1.363 . S
N548 C550 1.356 . S
N548 H560 0.984 . S
N548 H561 0.985 . S
N549 C551 1.356 . S
N549 H554 0.984 . S
N549 H555 0.985 . S
C550 C544 1.379 1_565 S
C550 C547 1.363 . S
C550 N548 1.356 . S
C551 C545 1.363 . S
C551 C546 1.379 1_545 S
C551 N549 1.356 . S
N552 C544 1.356 . S
N552 H558 0.984 . S
N552 H559 0.984 1_655 S
N553 C546 1.356 . S
N553 H556 0.984 1_455 S
N553 H557 0.985 . S
H554 N549 0.984 . S
H555 N549 0.985 . S
H556 N553 0.984 1_655 S
H557 N553 0.985 . S
H558 N552 0.984 . S
H559 N552 0.984 1_455 S
H560 N548 0.984 . S
H561 N548 0.985 . S
C562 C563 1.363 1_545 S
C562 C568 1.379 1_455 S
C562 N570 1.356 . S
C563 C562 1.363 1_565 S
C563 C569 1.363 . S
C564 C565 1.363 1_565 S
C564 C569 1.379 1_655 S
C564 N571 1.356 . S
C565 C564 1.363 1_545 S
C565 C568 1.363 . S
N566 C568 1.356 . S
N566 H578 0.984 . S
N566 H579 0.985 . S
N567 C569 1.356 . S
N567 H572 0.984 . S
N567 H573 0.985 . S
C568 C562 1.379 1_655 S
C568 C565 1.363 . S
C568 N566 1.356 . S
C569 C563 1.363 . S
C569 C564 1.379 1_455 S
C569 N567 1.356 . S
N570 C562 1.356 . S
N570 H576 0.984 . S
N570 H577 0.984 1_545 S
N571 C564 1.356 . S
N571 H574 0.984 1_565 S
N571 H575 0.985 . S
H572 N567 0.984 . S
H573 N567 0.985 . S
H574 N571 0.984 1_545 S
H575 N571 0.985 . S
H576 N570 0.984 . S
H577 N570 0.984 1_565 S
H578 N566 0.984 . S
H579 N566 0.985 . S
C580 C581 1.363 . S
C580 C586 1.379 . S
C580 N588 1.356 . S
C581 C580 1.363 . S
C581 C587 1.363 . S
C582 C583 1.363 . S
C582 C587 1.379 . S
C582 N589 1.356 . S
C583 C582 1.363 . S
C583 C586 1.363 . S
N584 C586 1.356 . S
N584 H596 0.984 . S
N584 H597 0.985 . S
N585 C587 1.356 . S
N585 H590 0.984 . S
N585 H591 0.985 . S
C586 C580 1.379 . S
C586 C583 1.363 . S
C586 N584 1.356 . S
C587 C581 1.363 . S
C587 C582 1.379 . S
C587 N585 1.356 . S
N588 C580 1.356 . S
N588 H594 0.984 . S
N588 H595 0.984 . S
N589 C582 1.356 . S
N589 H592 0.984 . S
N589 H593 0.985 . S
H590 N585 0.984 . S
H591 N585 0.985 . S
H592 N589 0.984 . S
H593 N589 0.985 . S
H594 N588 0.984 . S
H595 N588 0.984 . S
H596 N584 0.984 . S
H597 N584 0.985 . S
C598 C599 1.363 . S
C598 C604 1.379 . S
C598 N606 1.356 . S
C599 C598 1.363 . S
C599 C605 1.363 . S
C600 C601 1.363 . S
C600 C605 1.379 . S
C600 N607 1.356 . S
C601 C600 1.363 . S
C601 C604 1.363 . S
N602 C604 1.356 . S
N602 H614 0.984 . S
N602 H615 0.985 . S
N603 C605 1.356 . S
N603 H608 0.984 . S
N603 H609 0.985 . S
C604 C598 1.379 . S
C604 C601 1.363 . S
C604 N602 1.356 . S
C605 C599 1.363 . S
C605 C600 1.379 . S
C605 N603 1.356 . S
N606 C598 1.356 . S
N606 H612 0.984 . S
N606 H613 0.984 . S
N607 C600 1.356 . S
N607 H610 0.984 . S
N607 H611 0.985 . S
H608 N603 0.984 . S
H609 N603 0.985 . S
H610 N607 0.984 . S
H611 N607 0.985 . S
H612 N606 0.984 . S
H613 N606 0.984 . S
H614 N602 0.984 . S
H615 N602 0.985 . S
C616 C617 1.363 1_655 S
C616 C622 1.379 1_545 S
C616 N624 1.356 . S
C617 C616 1.363 1_455 S
C617 C623 1.363 . S
C618 C619 1.363 1_455 S
C618 C623 1.379 1_565 S
C618 N625 1.356 . S
C619 C618 1.363 1_655 S
C619 C622 1.363 . S
N620 C622 1.356 . S
N620 H632 0.984 . S
N620 H633 0.985 . S
N621 C623 1.356 . S
N621 H626 0.984 . S
N621 H627 0.985 . S
C622 C616 1.379 1_565 S
C622 C619 1.363 . S
C622 N620 1.356 . S
C623 C617 1.363 . S
C623 C618 1.379 1_545 S
C623 N621 1.356 . S
N624 C616 1.356 . S
N624 H630 0.984 . S
N624 H631 0.984 1_655 S
N625 C618 1.356 . S
N625 H628 0.984 1_455 S
N625 H629 0.985 . S
H626 N621 0.984 . S
H627 N621 0.985 . S
H628 N625 0.984 1_655 S
H629 N625 0.985 . S
H630 N624 0.984 . S
H631 N624 0.984 1_455 S
H632 N620 0.984 . S
H633 N620 0.985 . S
C634 C635 1.363 1_545 S
C634 C640 1.379 1_455 S
C634 N642 1.356 . S
C635 C634 1.363 1_565 S
C635 C641 1.363 . S
C636 C637 1.363 1_565 S
C636 C641 1.379 1_655 S
C636 N643 1.356 . S
C637 C636 1.363 1_545 S
C637 C640 1.363 . S
N638 C640 1.356 . S
N638 H650 0.984 . S
N638 H651 0.985 . S
N639 C641 1.356 . S
N639 H644 0.984 . S
N639 H645 0.985 . S
C640 C634 1.379 1_655 S
C640 C637 1.363 . S
C640 N638 1.356 . S
C641 C635 1.363 . S
C641 C636 1.379 1_455 S
C641 N639 1.356 . S
N642 C634 1.356 . S
N642 H648 0.984 . S
N642 H649 0.984 1_545 S
N643 C636 1.356 . S
N643 H646 0.984 1_565 S
N643 H647 0.985 . S
H644 N639 0.984 . S
H645 N639 0.985 . S
H646 N643 0.984 1_545 S
H647 N643 0.985 . S
H648 N642 0.984 . S
H649 N642 0.984 1_565 S
H650 N638 0.984 . S
H651 N638 0.985 . S
C652 C653 1.363 . S
C652 C658 1.379 . S
C652 N660 1.356 . S
C653 C652 1.363 . S
C653 C659 1.363 . S
C654 C655 1.363 . S
C654 C659 1.379 . S
C654 N661 1.356 . S
C655 C654 1.363 . S
C655 C658 1.363 . S
N656 C658 1.356 . S
N656 H668 0.984 . S
N656 H669 0.985 . S
N657 C659 1.356 . S
N657 H662 0.984 . S
N657 H663 0.985 . S
C658 C652 1.379 . S
C658 C655 1.363 . S
C658 N656 1.356 . S
C659 C653 1.363 . S
C659 C654 1.379 . S
C659 N657 1.356 . S
N660 C652 1.356 . S
N660 H666 0.984 . S
N660 H667 0.984 . S
N661 C654 1.356 . S
N661 H664 0.984 . S
N661 H665 0.985 . S
H662 N657 0.984 . S
H663 N657 0.985 . S
H664 N661 0.984 . S
H665 N661 0.985 . S
H666 N660 0.984 . S
H667 N660 0.984 . S
H668 N656 0.984 . S
H669 N656 0.985 . S
C670 C671 1.363 . S
C670 C676 1.379 . S
C670 N678 1.356 . S
C671 C670 1.363 . S
C671 C677 1.363 . S
C672 C673 1.363 . S
C672 C677 1.379 . S
C672 N679 1.356 . S
C673 C672 1.363 . S
C673 C676 1.363 . S
N674 C676 1.356 . S
N674 H686 0.984 . S
N674 H687 0.985 . S
N675 C677 1.356 . S
N675 H680 0.984 . S
N675 H681 0.985 . S
C676 C670 1.379 . S
C676 C673 1.363 . S
C676 N674 1.356 . S
C677 C671 1.363 . S
C677 C672 1.379 . S
C677 N675 1.356 . S
N678 C670 1.356 . S
N678 H684 0.984 . S
N678 H685 0.984 . S
N679 C672 1.356 . S
N679 H682 0.984 . S
N679 H683 0.985 . S
H680 N675 0.984 . S
H681 N675 0.985 . S
H682 N679 0.984 . S
H683 N679 0.985 . S
H684 N678 0.984 . S
H685 N678 0.984 . S
H686 N674 0.984 . S
H687 N674 0.985 . S
C688 C689 1.363 . S
C688 C694 1.379 . S
C688 N696 1.356 1_556 S
C689 C688 1.363 . S
C689 C695 1.363 . S
C690 C691 1.363 . S
C690 C695 1.379 . S
C690 N697 1.356 . S
C691 C690 1.363 . S
C691 C694 1.363 . S
N692 C694 1.356 . S
N692 H704 0.984 . S
N692 H705 0.985 . S
N693 C695 1.356 1_554 S
N693 H698 0.984 . S
N693 H699 0.985 1_455 S
C694 C688 1.379 . S
C694 C691 1.363 . S
C694 N692 1.356 . S
C695 C689 1.363 . S
C695 C690 1.379 . S
C695 N693 1.356 1_556 S
N696 C688 1.356 1_554 S
N696 H702 0.984 1_554 S
N696 H703 0.984 . S
N697 C690 1.356 . S
N697 H700 0.984 . S
N697 H701 0.985 1_455 S
H698 N693 0.984 . S
H699 N693 0.985 1_655 S
H700 N697 0.984 . S
H701 N697 0.985 1_655 S
H702 N696 0.984 1_556 S
H703 N696 0.984 . S
H704 N692 0.984 . S
H705 N692 0.985 . S
C706 C707 1.363 . S
C706 C712 1.379 . S
C706 N714 1.356 . S
C707 C706 1.363 . S
C707 C713 1.363 . S
C708 C709 1.363 . S
C708 C713 1.379 . S
C708 N715 1.356 . S
C709 C708 1.363 . S
C709 C712 1.363 . S
N710 C712 1.356 . S
N710 H722 0.984 . S
N710 H723 0.985 . S
N711 C713 1.356 . S
N711 H716 0.984 . S
N711 H717 0.985 1_545 S
C712 C706 1.379 . S
C712 C709 1.363 . S
C712 N710 1.356 . S
C713 C707 1.363 . S
C713 C708 1.379 . S
C713 N711 1.356 . S
N714 C706 1.356 . S
N714 H720 0.984 . S
N714 H721 0.984 . S
N715 C708 1.356 . S
N715 H718 0.984 . S
N715 H719 0.985 1_545 S
H716 N711 0.984 . S
H717 N711 0.985 1_565 S
H718 N715 0.984 . S
H719 N715 0.985 1_565 S
H720 N714 0.984 . S
H721 N714 0.984 . S
H722 N710 0.984 . S
H723 N710 0.985 . S
C724 C725 1.363 . S
C724 C730 1.379 . S
C724 N732 1.356 . S
C725 C724 1.363 . S
C725 C731 1.363 . S
C726 C727 1.363 . S
C726 C731 1.379 . S
C726 N733 1.356 1_556 S
C727 C726 1.363 . S
C727 C730 1.363 . S
N728 C730 1.337 1_554 S
N728 H740 0.977 1_554 S
N728 H741 1.012 . S
N729 C731 1.356 . S
N729 H734 0.984 . S
N729 H735 0.985 . S
C730 C724 1.379 . S
C730 C727 1.363 . S
C730 N728 1.337 1_556 S
C731 C725 1.363 . S
C731 C726 1.379 . S
C731 N729 1.356 . S
N732 C724 1.356 . S
N732 H738 0.984 . S
N732 H739 0.984 . S
N733 C726 1.356 1_554 S
N733 H736 0.984 . S
N733 H737 0.985 . S
H734 N729 0.984 . S
H735 N729 0.985 . S
H736 N733 0.984 . S
H737 N733 0.985 . S
H738 N732 0.984 . S
H739 N732 0.984 . S
H740 N728 0.977 1_556 S
H741 N728 1.012 . S
C742 C743 1.363 . S
C742 C748 1.379 . S
C742 N750 1.356 . S
C743 C742 1.363 . S
C743 C749 1.363 . S
C744 C745 1.363 . S
C744 C749 1.379 . S
C744 N751 1.356 . S
C745 C744 1.363 . S
C745 C748 1.363 . S
N746 C748 1.356 . S
N746 H758 0.984 1_565 S
N746 H759 0.985 . S
N747 C749 1.356 . S
N747 H752 0.984 . S
N747 H753 0.985 . S
C748 C742 1.379 . S
C748 C745 1.363 . S
C748 N746 1.356 . S
C749 C743 1.363 . S
C749 C744 1.379 . S
C749 N747 1.356 . S
N750 C742 1.356 . S
N750 H756 0.984 1_565 S
N750 H757 0.984 . S
N751 C744 1.356 . S
N751 H754 0.984 . S
N751 H755 0.985 . S
H752 N747 0.984 . S
H753 N747 0.985 . S
H754 N751 0.984 . S
H755 N751 0.985 . S
H756 N750 0.984 1_545 S
H757 N750 0.984 . S
H758 N746 0.984 1_545 S
H759 N746 0.985 . S
C760 C761 1.363 . S
C760 C766 1.379 . S
C760 N768 1.356 . S
C761 C760 1.363 . S
C761 C767 1.363 . S
C762 C763 1.363 . S
C762 C767 1.379 . S
C762 N769 1.356 1_554 S
C763 C762 1.363 . S
C763 C766 1.363 . S
N764 C766 1.333 1_556 S
N764 H776 0.976 1_556 S
N764 H777 1.017 . S
N765 C767 1.356 . S
N765 H770 0.984 . S
N765 H771 0.985 . S
C766 C760 1.379 . S
C766 C763 1.363 . S
C766 N764 1.333 1_554 S
C767 C761 1.363 . S
C767 C762 1.379 . S
C767 N765 1.356 . S
N768 C760 1.356 . S
N768 H774 0.984 . S
N768 H775 0.984 . S
N769 C762 1.356 1_556 S
N769 H772 0.984 . S
N769 H773 0.985 . S
H770 N765 0.984 . S
H771 N765 0.985 . S
H772 N769 0.984 . S
H773 N769 0.985 . S
H774 N768 0.984 . S
H775 N768 0.984 . S
H776 N764 0.976 1_554 S
H777 N764 1.017 . S
C778 C779 1.363 . S
C778 C784 1.379 . S
C778 N786 1.356 . S
C779 C778 1.363 . S
C779 C785 1.363 . S
C780 C781 1.363 . S
C780 C785 1.379 . S
C780 N787 1.356 . S
C781 C780 1.363 . S
C781 C784 1.363 . S
N782 C784 1.356 . S
N782 H794 0.984 . S
N782 H795 0.985 . S
N783 C785 1.356 . S
N783 H788 0.984 . S
N783 H789 0.985 . S
C784 C778 1.379 . S
C784 C781 1.363 . S
C784 N782 1.356 . S
C785 C779 1.363 . S
C785 C780 1.379 . S
C785 N783 1.356 . S
N786 C778 1.356 . S
N786 H792 0.984 . S
N786 H793 0.984 . S
N787 C780 1.356 . S
N787 H790 0.984 . S
N787 H791 0.985 . S
H788 N783 0.984 . S
H789 N783 0.985 . S
H790 N787 0.984 . S
H791 N787 0.985 . S
H792 N786 0.984 . S
H793 N786 0.984 . S
H794 N782 0.984 . S
H795 N782 0.985 . S
C796 C797 1.363 . S
C796 C802 1.379 . S
C796 N804 1.356 . S
C797 C796 1.363 . S
C797 C803 1.363 . S
C798 C799 1.363 . S
C798 C803 1.379 . S
C798 N805 1.335 1_554 S
C799 C798 1.363 . S
C799 C802 1.363 . S
N800 C802 1.356 1_556 S
N800 H812 0.984 . S
N800 H813 0.985 . S
N801 C803 1.356 . S
N801 H806 0.984 . S
N801 H807 0.985 . S
C802 C796 1.379 . S
C802 C799 1.363 . S
C802 N800 1.356 1_554 S
C803 C797 1.363 . S
C803 C798 1.379 . S
C803 N801 1.356 . S
N804 C796 1.356 . S
N804 H810 0.984 . S
N804 H811 0.984 . S
N805 C798 1.335 1_556 S
N805 H808 1.014 . S
N805 H809 0.977 1_556 S
H806 N801 0.984 . S
H807 N801 0.985 . S
H808 N805 1.014 . S
H809 N805 0.977 1_554 S
H810 N804 0.984 . S
H811 N804 0.984 . S
H812 N800 0.984 . S
H813 N800 0.985 . S
C814 C815 1.363 . S
C814 C820 1.379 . S
C814 N822 1.356 . S
C815 C814 1.363 . S
C815 C821 1.363 . S
C816 C817 1.363 . S
C816 C821 1.379 . S
C816 N823 1.356 . S
C817 C816 1.363 . S
C817 C820 1.363 . S
N818 C820 1.356 . S
N818 H830 0.984 . S
N818 H831 0.985 . S
N819 C821 1.356 . S
N819 H824 0.984 . S
N819 H825 0.985 . S
C820 C814 1.379 . S
C820 C817 1.363 . S
C820 N818 1.356 . S
C821 C815 1.363 . S
C821 C816 1.379 . S
C821 N819 1.356 . S
N822 C814 1.356 . S
N822 H828 0.984 . S
N822 H829 0.984 . S
N823 C816 1.356 . S
N823 H826 0.984 . S
N823 H827 0.985 . S
H824 N819 0.984 . S
H825 N819 0.985 . S
H826 N823 0.984 . S
H827 N823 0.985 . S
H828 N822 0.984 . S
H829 N822 0.984 . S
H830 N818 0.984 . S
H831 N818 0.985 . S
C832 C833 1.363 . S
C832 C838 1.379 . S
C832 N840 1.356 . S
C833 C832 1.363 . S
C833 C839 1.363 . S
C834 C835 1.363 . S
C834 C839 1.379 . S
C834 N841 1.356 . S
C835 C834 1.363 . S
C835 C838 1.363 . S
N836 C838 1.356 . S
N836 H848 0.984 . S
N836 H849 0.985 . S
N837 C839 1.356 . S
N837 H842 0.984 . S
N837 H843 0.985 . S
C838 C832 1.379 . S
C838 C835 1.363 . S
C838 N836 1.356 . S
C839 C833 1.363 . S
C839 C834 1.379 . S
C839 N837 1.356 . S
N840 C832 1.356 . S
N840 H846 0.984 . S
N840 H847 0.984 . S
N841 C834 1.356 . S
N841 H844 0.984 . S
N841 H845 0.985 . S
H842 N837 0.984 . S
H843 N837 0.985 . S
H844 N841 0.984 . S
H845 N841 0.985 . S
H846 N840 0.984 . S
H847 N840 0.984 . S
H848 N836 0.984 . S
H849 N836 0.985 . S
C850 C851 1.363 . S
C850 C856 1.379 . S
C850 N858 1.356 . S
C851 C850 1.363 . S
C851 C857 1.363 . S
C852 C853 1.363 . S
C852 C857 1.379 . S
C852 N859 1.356 . S
C853 C852 1.363 . S
C853 C856 1.363 . S
N854 C856 1.356 . S
N854 H866 0.984 . S
N854 H867 0.985 . S
N855 C857 1.356 . S
N855 H860 0.984 . S
N855 H861 0.985 . S
C856 C850 1.379 . S
C856 C853 1.363 . S
C856 N854 1.356 . S
C857 C851 1.363 . S
C857 C852 1.379 . S
C857 N855 1.356 . S
N858 C850 1.356 . S
N858 H864 0.984 . S
N858 H865 0.984 . S
N859 C852 1.356 . S
N859 H862 0.984 . S
N859 H863 0.985 . S
H860 N855 0.984 . S
H861 N855 0.985 . S
H862 N859 0.984 . S
H863 N859 0.985 . S
H864 N858 0.984 . S
H865 N858 0.984 . S
H866 N854 0.984 . S
H867 N854 0.985 . S
C868 C869 1.363 . S
C868 C874 1.379 . S
C868 N876 1.356 . S
C869 C868 1.363 . S
C869 C875 1.363 . S
C870 C871 1.363 . S
C870 C875 1.379 . S
C870 N877 1.356 . S
C871 C870 1.363 . S
C871 C874 1.363 . S
N872 C874 1.356 . S
N872 H884 0.984 . S
N872 H885 0.985 . S
N873 C875 1.356 . S
N873 H878 0.984 . S
N873 H879 0.985 . S
C874 C868 1.379 . S
C874 C871 1.363 . S
C874 N872 1.356 . S
C875 C869 1.363 . S
C875 C870 1.379 . S
C875 N873 1.356 . S
N876 C868 1.356 . S
N876 H882 0.984 . S
N876 H883 0.984 . S
N877 C870 1.356 . S
N877 H880 0.984 . S
N877 H881 0.985 . S
H878 N873 0.984 . S
H879 N873 0.985 . S
H880 N877 0.984 . S
H881 N877 0.985 . S
H882 N876 0.984 . S
H883 N876 0.984 . S
H884 N872 0.984 . S
H885 N872 0.985 . S
C886 C887 1.363 . S
C886 C892 1.379 . S
C886 N894 1.356 . S
C887 C886 1.363 . S
C887 C893 1.363 . S
C888 C889 1.363 . S
C888 C893 1.379 . S
C888 N895 1.356 . S
C889 C888 1.363 . S
C889 C892 1.363 . S
N890 C892 1.356 . S
N890 H902 0.984 . S
N890 H903 0.985 . S
N891 C893 1.356 . S
N891 H896 0.984 . S
N891 H897 0.985 . S
C892 C886 1.379 . S
C892 C889 1.363 . S
C892 N890 1.356 . S
C893 C887 1.363 . S
C893 C888 1.379 . S
C893 N891 1.356 . S
N894 C886 1.356 . S
N894 H900 0.984 . S
N894 H901 0.984 . S
N895 C888 1.356 . S
N895 H898 0.984 . S
N895 H899 0.985 . S
H896 N891 0.984 . S
H897 N891 0.985 . S
H898 N895 0.984 . S
H899 N895 0.985 . S
H900 N894 0.984 . S
H901 N894 0.984 . S
H902 N890 0.984 . S
H903 N890 0.985 . S
C904 C905 1.363 . S
C904 C910 1.379 . S
C904 N912 1.356 . S
C905 C904 1.363 . S
C905 C911 1.363 . S
C906 C907 1.363 . S
C906 C911 1.379 . S
C906 N913 1.356 . S
C907 C906 1.363 . S
C907 C910 1.363 . S
N908 C910 1.356 . S
N908 H920 0.984 . S
N908 H921 0.985 . S
N909 C911 1.356 . S
N909 H914 0.984 . S
N909 H915 0.985 . S
C910 C904 1.379 . S
C910 C907 1.363 . S
C910 N908 1.356 . S
C911 C905 1.363 . S
C911 C906 1.379 . S
C911 N909 1.356 . S
N912 C904 1.356 . S
N912 H918 0.984 . S
N912 H919 0.984 . S
N913 C906 1.356 . S
N913 H916 0.984 . S
N913 H917 0.985 . S
H914 N909 0.984 . S
H915 N909 0.985 . S
H916 N913 0.984 . S
H917 N913 0.985 . S
H918 N912 0.984 . S
H919 N912 0.984 . S
H920 N908 0.984 . S
H921 N908 0.985 . S
C922 C923 1.363 . S
C922 C928 1.379 . S
C922 N930 1.356 . S
C923 C922 1.363 . S
C923 C929 1.363 . S
C924 C925 1.363 . S
C924 C929 1.379 . S
C924 N931 1.356 . S
C925 C924 1.363 . S
C925 C928 1.363 . S
N926 C928 1.356 . S
N926 H938 0.984 . S
N926 H939 0.985 . S
N927 C929 1.356 . S
N927 H932 0.984 . S
N927 H933 0.985 . S
C928 C922 1.379 . S
C928 C925 1.363 . S
C928 N926 1.356 . S
C929 C923 1.363 . S
C929 C924 1.379 . S
C929 N927 1.356 . S
N930 C922 1.356 . S
N930 H936 0.984 . S
N930 H937 0.984 . S
N931 C924 1.356 . S
N931 H934 0.984 . S
N931 H935 0.985 . S
H932 N927 0.984 . S
H933 N927 0.985 . S
H934 N931 0.984 . S
H935 N931 0.985 . S
H936 N930 0.984 . S
H937 N930 0.984 . S
H938 N926 0.984 . S
H939 N926 0.985 . S
C940 C941 1.363 . S
C940 C946 1.379 . S
C940 N948 1.356 . S
C941 C940 1.363 . S
C941 C947 1.363 . S
C942 C943 1.363 . S
C942 C947 1.379 . S
C942 N949 1.356 . S
C943 C942 1.363 . S
C943 C946 1.363 . S
N944 C946 1.356 . S
N944 H956 0.984 . S
N944 H957 0.985 . S
N945 C947 1.356 . S
N945 H950 0.984 . S
N945 H951 0.985 . S
C946 C940 1.379 . S
C946 C943 1.363 . S
C946 N944 1.356 . S
C947 C941 1.363 . S
C947 C942 1.379 . S
C947 N945 1.356 . S
N948 C940 1.356 . S
N948 H954 0.984 . S
N948 H955 0.984 . S
N949 C942 1.356 . S
N949 H952 0.984 . S
N949 H953 0.985 . S
H950 N945 0.984 . S
H951 N945 0.985 . S
H952 N949 0.984 . S
H953 N949 0.985 . S
H954 N948 0.984 . S
H955 N948 0.984 . S
H956 N944 0.984 . S
H957 N944 0.985 . S
C958 C959 1.363 . S
C958 C964 1.379 . S
C958 N966 1.356 . S
C959 C958 1.363 . S
C959 C965 1.363 . S
C960 C961 1.363 . S
C960 C965 1.379 . S
C960 N967 1.356 . S
C961 C960 1.363 . S
C961 C964 1.363 . S
N962 C964 1.356 . S
N962 H974 0.984 . S
N962 H975 0.985 . S
N963 C965 1.356 . S
N963 H968 0.984 . S
N963 H969 0.985 . S
C964 C958 1.379 . S
C964 C961 1.363 . S
C964 N962 1.356 . S
C965 C959 1.363 . S
C965 C960 1.379 . S
C965 N963 1.356 . S
N966 C958 1.356 . S
N966 H972 0.984 . S
N966 H973 0.984 . S
N967 C960 1.356 . S
N967 H970 0.984 . S
N967 H971 0.985 . S
H968 N963 0.984 . S
H969 N963 0.985 . S
H970 N967 0.984 . S
H971 N967 0.985 . S
H972 N966 0.984 . S
H973 N966 0.984 . S
H974 N962 0.984 . S
H975 N962 0.985 . S
C976 C977 1.363 . S
C976 C982 1.379 . S
C976 N984 1.356 . S
C977 C976 1.363 . S
C977 C983 1.363 . S
C978 C979 1.363 . S
C978 C983 1.379 . S
C978 N985 1.356 . S
C979 C978 1.363 . S
C979 C982 1.363 . S
N980 C982 1.356 . S
N980 H992 0.984 . S
N980 H993 0.985 . S
N981 C983 1.356 . S
N981 H986 0.984 . S
N981 H987 0.985 . S
C982 C976 1.379 . S
C982 C979 1.363 . S
C982 N980 1.356 . S
C983 C977 1.363 . S
C983 C978 1.379 . S
C983 N981 1.356 . S
N984 C976 1.356 . S
N984 H990 0.984 . S
N984 H991 0.984 . S
N985 C978 1.356 . S
N985 H988 0.984 . S
N985 H989 0.985 . S
H986 N981 0.984 . S
H987 N981 0.985 . S
H988 N985 0.984 . S
H989 N985 0.985 . S
H990 N984 0.984 . S
H991 N984 0.984 . S
H992 N980 0.984 . S
H993 N980 0.985 . S
C994 C995 1.363 . S
C994 C1000 1.379 . S
C994 N1002 1.356 . S
C995 C994 1.363 . S
C995 C1001 1.363 . S
C996 C997 1.363 . S
C996 C1001 1.379 . S
C996 N1003 1.356 . S
C997 C996 1.363 . S
C997 C1000 1.363 . S
N998 C1000 1.356 . S
N998 H1010 0.984 . S
N998 H1011 0.985 . S
N999 C1001 1.356 . S
N999 H1004 0.984 . S
N999 H1005 0.985 . S
C1000 C994 1.379 . S
C1000 C997 1.363 . S
C1000 N998 1.356 . S
C1001 C995 1.363 . S
C1001 C996 1.379 . S
C1001 N999 1.356 . S
N1002 C994 1.356 . S
N1002 H1008 0.984 . S
N1002 H1009 0.984 . S
N1003 C996 1.356 . S
N1003 H1006 0.984 . S
N1003 H1007 0.985 . S
H1004 N999 0.984 . S
H1005 N999 0.985 . S
H1006 N1003 0.984 . S
H1007 N1003 0.985 . S
H1008 N1002 0.984 . S
H1009 N1002 0.984 . S
H1010 N998 0.984 . S
H1011 N998 0.985 . S
C1012 C1013 1.363 . S
C1012 C1018 1.379 . S
C1012 N1020 1.356 . S
C1013 C1012 1.363 . S
C1013 C1019 1.363 . S
C1014 C1015 1.363 . S
C1014 C1019 1.379 . S
C1014 N1021 1.356 . S
C1015 C1014 1.363 . S
C1015 C1018 1.363 . S
N1016 C1018 1.356 . S
N1016 H1028 0.984 . S
N1016 H1029 0.985 . S
N1017 C1019 1.356 . S
N1017 H1022 0.984 . S
N1017 H1023 0.985 . S
C1018 C1012 1.379 . S
C1018 C1015 1.363 . S
C1018 N1016 1.356 . S
C1019 C1013 1.363 . S
C1019 C1014 1.379 . S
C1019 N1017 1.356 . S
N1020 C1012 1.356 . S
N1020 H1026 0.984 . S
N1020 H1027 0.984 . S
N1021 C1014 1.356 . S
N1021 H1024 0.984 . S
N1021 H1025 0.985 . S
H1022 N1017 0.984 . S
H1023 N1017 0.985 . S
H1024 N1021 0.984 . S
H1025 N1021 0.985 . S
H1026 N1020 0.984 . S
H1027 N1020 0.984 . S
H1028 N1016 0.984 . S
H1029 N1016 0.985 . S
C1030 C1031 1.363 . S
C1030 C1036 1.379 . S
C1030 N1038 1.356 . S
C1031 C1030 1.363 . S
C1031 C1037 1.363 . S
C1032 C1033 1.363 . S
C1032 C1037 1.379 . S
C1032 N1039 1.356 . S
C1033 C1032 1.363 . S
C1033 C1036 1.363 . S
N1034 C1036 1.356 . S
N1034 H1046 0.984 . S
N1034 H1047 0.985 . S
N1035 C1037 1.356 . S
N1035 H1040 0.984 . S
N1035 H1041 0.985 . S
C1036 C1030 1.379 . S
C1036 C1033 1.363 . S
C1036 N1034 1.356 . S
C1037 C1031 1.363 . S
C1037 C1032 1.379 . S
C1037 N1035 1.356 . S
N1038 C1030 1.356 . S
N1038 H1044 0.984 . S
N1038 H1045 0.984 . S
N1039 C1032 1.356 . S
N1039 H1042 0.984 . S
N1039 H1043 0.985 . S
H1040 N1035 0.984 . S
H1041 N1035 0.985 . S
H1042 N1039 0.984 . S
H1043 N1039 0.985 . S
H1044 N1038 0.984 . S
H1045 N1038 0.984 . S
H1046 N1034 0.984 . S
H1047 N1034 0.985 . S
C1048 C1049 1.363 . S
C1048 C1054 1.379 . S
C1048 N1056 1.356 . S
C1049 C1048 1.363 . S
C1049 C1055 1.363 . S
C1050 C1051 1.363 . S
C1050 C1055 1.379 . S
C1050 N1057 1.356 . S
C1051 C1050 1.363 . S
C1051 C1054 1.363 . S
N1052 C1054 1.356 . S
N1052 H1064 0.984 . S
N1052 H1065 0.985 . S
N1053 C1055 1.356 . S
N1053 H1058 0.984 . S
N1053 H1059 0.985 . S
C1054 C1048 1.379 . S
C1054 C1051 1.363 . S
C1054 N1052 1.356 . S
C1055 C1049 1.363 . S
C1055 C1050 1.379 . S
C1055 N1053 1.356 . S
N1056 C1048 1.356 . S
N1056 H1062 0.984 . S
N1056 H1063 0.984 . S
N1057 C1050 1.356 . S
N1057 H1060 0.984 . S
N1057 H1061 0.985 . S
H1058 N1053 0.984 . S
H1059 N1053 0.985 . S
H1060 N1057 0.984 . S
H1061 N1057 0.985 . S
H1062 N1056 0.984 . S
H1063 N1056 0.984 . S
H1064 N1052 0.984 . S
H1065 N1052 0.985 . S
C1066 C1067 1.363 . S
C1066 C1072 1.379 . S
C1066 N1074 1.356 . S
C1067 C1066 1.363 . S
C1067 C1073 1.363 . S
C1068 C1069 1.363 . S
C1068 C1073 1.379 . S
C1068 N1075 1.356 . S
C1069 C1068 1.363 . S
C1069 C1072 1.363 . S
N1070 C1072 1.356 . S
N1070 H1082 0.984 . S
N1070 H1083 0.985 . S
N1071 C1073 1.356 . S
N1071 H1076 0.984 . S
N1071 H1077 0.985 . S
C1072 C1066 1.379 . S
C1072 C1069 1.363 . S
C1072 N1070 1.356 . S
C1073 C1067 1.363 . S
C1073 C1068 1.379 . S
C1073 N1071 1.356 . S
N1074 C1066 1.356 . S
N1074 H1080 0.984 . S
N1074 H1081 0.984 . S
N1075 C1068 1.356 . S
N1075 H1078 0.984 . S
N1075 H1079 0.985 . S
H1076 N1071 0.984 . S
H1077 N1071 0.985 . S
H1078 N1075 0.984 . S
H1079 N1075 0.985 . S
H1080 N1074 0.984 . S
H1081 N1074 0.984 . S
H1082 N1070 0.984 . S
H1083 N1070 0.985 . S
C1084 C1085 1.363 . S
C1084 C1090 1.379 . S
C1084 N1092 1.356 . S
C1085 C1084 1.363 . S
C1085 C1091 1.363 . S
C1086 C1087 1.363 . S
C1086 C1091 1.379 . S
C1086 N1093 1.356 . S
C1087 C1086 1.363 . S
C1087 C1090 1.363 . S
N1088 C1090 1.356 . S
N1088 H1100 0.984 . S
N1088 H1101 0.985 . S
N1089 C1091 1.356 . S
N1089 H1094 0.984 . S
N1089 H1095 0.985 . S
C1090 C1084 1.379 . S
C1090 C1087 1.363 . S
C1090 N1088 1.356 . S
C1091 C1085 1.363 . S
C1091 C1086 1.379 . S
C1091 N1089 1.356 . S
N1092 C1084 1.356 . S
N1092 H1098 0.984 . S
N1092 H1099 0.984 . S
N1093 C1086 1.356 . S
N1093 H1096 0.984 . S
N1093 H1097 0.985 . S
H1094 N1089 0.984 . S
H1095 N1089 0.985 . S
H1096 N1093 0.984 . S
H1097 N1093 0.985 . S
H1098 N1092 0.984 . S
H1099 N1092 0.984 . S
H1100 N1088 0.984 . S
H1101 N1088 0.985 . S
C1102 C1103 1.363 . S
C1102 C1108 1.379 . S
C1102 N1110 1.356 . S
C1103 C1102 1.363 . S
C1103 C1109 1.363 . S
C1104 C1105 1.363 . S
C1104 C1109 1.379 . S
C1104 N1111 1.356 . S
C1105 C1104 1.363 . S
C1105 C1108 1.363 . S
N1106 C1108 1.356 . S
N1106 H1118 0.984 . S
N1106 H1119 0.985 . S
N1107 C1109 1.356 . S
N1107 H1112 0.984 . S
N1107 H1113 0.985 . S
C1108 C1102 1.379 . S
C1108 C1105 1.363 . S
C1108 N1106 1.356 . S
C1109 C1103 1.363 . S
C1109 C1104 1.379 . S
C1109 N1107 1.356 . S
N1110 C1102 1.356 . S
N1110 H1116 0.984 . S
N1110 H1117 0.984 . S
N1111 C1104 1.356 . S
N1111 H1114 0.984 . S
N1111 H1115 0.985 . S
H1112 N1107 0.984 . S
H1113 N1107 0.985 . S
H1114 N1111 0.984 . S
H1115 N1111 0.985 . S
H1116 N1110 0.984 . S
H1117 N1110 0.984 . S
H1118 N1106 0.984 . S
H1119 N1106 0.985 . S
C1120 C1121 1.363 . S
C1120 C1126 1.379 . S
C1120 N1128 1.356 . S
C1121 C1120 1.363 . S
C1121 C1127 1.363 . S
C1122 C1123 1.363 . S
C1122 C1127 1.379 . S
C1122 N1129 1.356 . S
C1123 C1122 1.363 . S
C1123 C1126 1.363 . S
N1124 C1126 1.356 . S
N1124 H1136 0.984 . S
N1124 H1137 0.985 . S
N1125 C1127 1.356 . S
N1125 H1130 0.984 . S
N1125 H1131 0.985 . S
C1126 C1120 1.379 . S
C1126 C1123 1.363 . S
C1126 N1124 1.356 . S
C1127 C1121 1.363 . S
C1127 C1122 1.379 . S
C1127 N1125 1.356 . S
N1128 C1120 1.356 . S
N1128 H1134 0.984 . S
N1128 H1135 0.984 . S
N1129 C1122 1.356 . S
N1129 H1132 0.984 . S
N1129 H1133 0.985 . S
H1130 N1125 0.984 . S
H1131 N1125 0.985 . S
H1132 N1129 0.984 . S
H1133 N1129 0.985 . S
H1134 N1128 0.984 . S
H1135 N1128 0.984 . S
H1136 N1124 0.984 . S
H1137 N1124 0.985 . S
C1138 C1139 1.363 . S
C1138 C1144 1.379 . S
C1138 N1146 1.356 . S
C1139 C1138 1.363 . S
C1139 C1145 1.363 . S
C1140 C1141 1.363 . S
C1140 C1145 1.379 . S
C1140 N1147 1.356 . S
C1141 C1140 1.363 . S
C1141 C1144 1.363 . S
N1142 C1144 1.356 . S
N1142 H1154 0.984 . S
N1142 H1155 0.985 . S
N1143 C1145 1.356 . S
N1143 H1148 0.984 . S
N1143 H1149 0.985 . S
C1144 C1138 1.379 . S
C1144 C1141 1.363 . S
C1144 N1142 1.356 . S
C1145 C1139 1.363 . S
C1145 C1140 1.379 . S
C1145 N1143 1.356 . S
N1146 C1138 1.356 . S
N1146 H1152 0.984 . S
N1146 H1153 0.984 . S
N1147 C1140 1.356 . S
N1147 H1150 0.984 . S
N1147 H1151 0.985 . S
H1148 N1143 0.984 . S
H1149 N1143 0.985 . S
H1150 N1147 0.984 . S
H1151 N1147 0.985 . S
H1152 N1146 0.984 . S
H1153 N1146 0.984 . S
H1154 N1142 0.984 . S
H1155 N1142 0.985 . S
C1156 C1157 1.363 . S
C1156 C1162 1.379 . S
C1156 N1164 1.356 . S
C1157 C1156 1.363 . S
C1157 C1163 1.363 . S
C1158 C1159 1.363 . S
C1158 C1163 1.379 . S
C1158 N1165 1.356 . S
C1159 C1158 1.363 . S
C1159 C1162 1.363 . S
N1160 C1162 1.356 . S
N1160 H1172 0.984 . S
N1160 H1173 0.985 . S
N1161 C1163 1.356 . S
N1161 H1166 0.984 . S
N1161 H1167 0.985 . S
C1162 C1156 1.379 . S
C1162 C1159 1.363 . S
C1162 N1160 1.356 . S
C1163 C1157 1.363 . S
C1163 C1158 1.379 . S
C1163 N1161 1.356 . S
N1164 C1156 1.356 . S
N1164 H1170 0.984 . S
N1164 H1171 0.984 . S
N1165 C1158 1.356 . S
N1165 H1168 0.984 . S
N1165 H1169 0.985 . S
H1166 N1161 0.984 . S
H1167 N1161 0.985 . S
H1168 N1165 0.984 . S
H1169 N1165 0.985 . S
H1170 N1164 0.984 . S
H1171 N1164 0.984 . S
H1172 N1160 0.984 . S
H1173 N1160 0.985 . S
C1174 C1175 1.363 . S
C1174 C1180 1.379 . S
C1174 N1182 1.356 . S
C1175 C1174 1.363 . S
C1175 C1181 1.363 . S
C1176 C1177 1.363 . S
C1176 C1181 1.379 . S
C1176 N1183 1.356 . S
C1177 C1176 1.363 . S
C1177 C1180 1.363 . S
N1178 C1180 1.356 . S
N1178 H1190 0.984 . S
N1178 H1191 0.985 . S
N1179 C1181 1.356 . S
N1179 H1184 0.984 . S
N1179 H1185 0.985 . S
C1180 C1174 1.379 . S
C1180 C1177 1.363 . S
C1180 N1178 1.356 . S
C1181 C1175 1.363 . S
C1181 C1176 1.379 . S
C1181 N1179 1.356 . S
N1182 C1174 1.356 . S
N1182 H1188 0.984 . S
N1182 H1189 0.984 . S
N1183 C1176 1.356 . S
N1183 H1186 0.984 . S
N1183 H1187 0.985 . S
H1184 N1179 0.984 . S
H1185 N1179 0.985 . S
H1186 N1183 0.984 . S
H1187 N1183 0.985 . S
H1188 N1182 0.984 . S
H1189 N1182 0.984 . S
H1190 N1178 0.984 . S
H1191 N1178 0.985 . S
C1192 C1193 1.363 . S
C1192 C1198 1.379 . S
C1192 N1200 1.356 . S
C1193 C1192 1.363 . S
C1193 C1199 1.363 . S
C1194 C1195 1.363 . S
C1194 C1199 1.379 . S
C1194 N1201 1.356 . S
C1195 C1194 1.363 . S
C1195 C1198 1.363 . S
N1196 C1198 1.356 . S
N1196 H1208 0.984 . S
N1196 H1209 0.985 . S
N1197 C1199 1.356 . S
N1197 H1202 0.984 . S
N1197 H1203 0.985 . S
C1198 C1192 1.379 . S
C1198 C1195 1.363 . S
C1198 N1196 1.356 . S
C1199 C1193 1.363 . S
C1199 C1194 1.379 . S
C1199 N1197 1.356 . S
N1200 C1192 1.356 . S
N1200 H1206 0.984 . S
N1200 H1207 0.984 1_455 S
N1201 C1194 1.356 . S
N1201 H1204 0.984 . S
N1201 H1205 0.985 . S
H1202 N1197 0.984 . S
H1203 N1197 0.985 . S
H1204 N1201 0.984 . S
H1205 N1201 0.985 . S
H1206 N1200 0.984 . S
H1207 N1200 0.984 1_655 S
H1208 N1196 0.984 . S
H1209 N1196 0.985 . S
C1210 C1211 1.363 . S
C1210 C1216 1.379 . S
C1210 N1218 1.356 . S
C1211 C1210 1.363 . S
C1211 C1217 1.363 . S
C1212 C1213 1.363 . S
C1212 C1217 1.379 . S
C1212 N1219 1.356 . S
C1213 C1212 1.363 . S
C1213 C1216 1.363 . S
N1214 C1216 1.356 . S
N1214 H1226 0.984 . S
N1214 H1227 0.985 1_545 S
N1215 C1217 1.356 . S
N1215 H1220 0.984 . S
N1215 H1221 0.985 . S
C1216 C1210 1.379 . S
C1216 C1213 1.363 . S
C1216 N1214 1.356 . S
C1217 C1211 1.363 . S
C1217 C1212 1.379 . S
C1217 N1215 1.356 . S
N1218 C1210 1.356 . S
N1218 H1224 0.984 . S
N1218 H1225 0.984 . S
N1219 C1212 1.356 . S
N1219 H1222 0.984 . S
N1219 H1223 0.985 . S
H1220 N1215 0.984 . S
H1221 N1215 0.985 . S
H1222 N1219 0.984 . S
H1223 N1219 0.985 . S
H1224 N1218 0.984 . S
H1225 N1218 0.984 . S
H1226 N1214 0.984 . S
H1227 N1214 0.985 1_565 S
C1228 C1229 1.363 . S
C1228 C1234 1.379 . S
C1228 N1236 1.356 . S
C1229 C1228 1.363 . S
C1229 C1235 1.363 . S
C1230 C1231 1.363 . S
C1230 C1235 1.379 . S
C1230 N1237 1.356 . S
C1231 C1230 1.363 . S
C1231 C1234 1.363 . S
N1232 C1234 1.356 . S
N1232 H1244 0.984 . S
N1232 H1245 0.985 1_655 S
N1233 C1235 1.356 . S
N1233 H1238 0.984 . S
N1233 H1239 0.985 . S
C1234 C1228 1.379 . S
C1234 C1231 1.363 . S
C1234 N1232 1.356 . S
C1235 C1229 1.363 . S
C1235 C1230 1.379 . S
C1235 N1233 1.356 . S
N1236 C1228 1.356 . S
N1236 H1242 0.984 . S
N1236 H1243 0.984 . S
N1237 C1230 1.356 . S
N1237 H1240 0.984 . S
N1237 H1241 0.985 . S
H1238 N1233 0.984 . S
H1239 N1233 0.985 . S
H1240 N1237 0.984 . S
H1241 N1237 0.985 . S
H1242 N1236 0.984 . S
H1243 N1236 0.984 . S
H1244 N1232 0.984 . S
H1245 N1232 0.985 1_455 S
C1246 C1247 1.363 . S
C1246 C1252 1.379 . S
C1246 N1254 1.356 . S
C1247 C1246 1.363 . S
C1247 C1253 1.363 . S
C1248 C1249 1.363 . S
C1248 C1253 1.379 . S
C1248 N1255 1.356 . S
C1249 C1248 1.363 . S
C1249 C1252 1.363 . S
N1250 C1252 1.356 . S
N1250 H1262 0.984 . S
N1250 H1263 0.985 . S
N1251 C1253 1.356 . S
N1251 H1256 0.984 . S
N1251 H1257 0.985 . S
C1252 C1246 1.379 . S
C1252 C1249 1.363 . S
C1252 N1250 1.356 . S
C1253 C1247 1.363 . S
C1253 C1248 1.379 . S
C1253 N1251 1.356 . S
N1254 C1246 1.356 . S
N1254 H1260 0.984 . S
N1254 H1261 0.984 1_565 S
N1255 C1248 1.356 . S
N1255 H1258 0.984 . S
N1255 H1259 0.985 . S
H1256 N1251 0.984 . S
H1257 N1251 0.985 . S
H1258 N1255 0.984 . S
H1259 N1255 0.985 . S
H1260 N1254 0.984 . S
H1261 N1254 0.984 1_545 S
H1262 N1250 0.984 . S
H1263 N1250 0.985 . S
C545 C33 1.749 . S
C547 C101 1.749 . S
C563 C135 1.749 . S
C565 C67 1.749 . S
C581 C237 1.749 . S
C583 C169 1.749 . S
C599 C203 1.749 . S
C601 C271 1.749 . S
C617 C373 1.853 . S
C619 C305 1.853 . S
C635 C339 1.853 . S
C637 C407 1.853 . S
C653 C509 1.853 . S
C655 C441 1.853 . S
C671 C475 1.853 . S
C673 C543 1.853 . S
C689 C5 1.515 1_556 S
C691 C342 1.528 . S
C707 C376 1.528 . S
C709 C39 1.515 . S
C725 C274 1.528 . S
C727 C73 1.515 1_556 S
C743 C308 1.528 . S
C745 C107 1.515 . S
C761 C478 1.528 . S
C763 C141 1.515 1_554 S
C779 C512 1.528 . S
C781 C175 1.515 . S
C797 C410 1.528 . S
C799 C209 1.515 1_554 S
C815 C444 1.528 . S
C817 C243 1.515 . S
C833 C9 1.547 . S
C835 C247 1.547 . S
C851 C43 1.547 . S
C853 C145 1.547 . S
C869 C179 1.547 . S
C871 C77 1.547 . S
C887 C213 1.547 . S
C889 C111 1.547 . S
C905 C292 2.101 . S
C907 C530 2.101 . S
C923 C326 2.100 . S
C925 C428 2.101 . S
C941 C360 2.100 . S
C943 C462 2.100 . S
C959 C394 2.101 . S
C961 C496 2.101 . S
C977 C481 1.226 . S
C979 C20 1.224 . S
C995 C54 1.224 . S
C997 C515 1.226 . S
C1013 C413 1.226 . S
C1015 C88 1.224 . S
C1031 C447 1.226 . S
C1033 C122 1.224 . S
C1049 C345 1.226 . S
C1051 C156 1.224 . S
C1067 C190 1.224 . S
C1069 C379 1.226 . S
C1085 C277 1.226 . S
C1087 C224 1.224 . S
C1103 C258 1.224 . S
C1105 C311 1.226 . S
C1121 C206 1.048 . S
C1123 C281 1.038 . S
C1139 C240 1.048 . S
C1141 C315 1.038 . S
C1157 C138 1.048 . S
C1159 C349 1.038 . S
C1175 C383 1.038 . S
C1177 C172 1.048 . S
C1193 C70 1.048 . S
C1195 C417 1.038 . S
C1211 C451 1.038 . S
C1213 C104 1.048 . S
C1229 C485 1.038 . S
C1231 C2 1.048 . S
C1247 C36 1.048 . S
C1249 C519 1.038 . S
