# Generated by pormake.
# Topology ukg, (4)-cn, num edge types: 1
# Building blocks:
#     Node 0, Type 0, BuildingBlock: CEKHIL_clean_sbu_0, # of connection points: 4
#     Node 1, Type 0, BuildingBlock: CEKHIL_clean_sbu_0, # of connection points: 4
#     Node 2, Type 0, BuildingBlock: CEKHIL_clean_sbu_0, # of connection points: 4
#     Node 3, Type 0, BuildingBlock: CEKHIL_clean_sbu_0, # of connection points: 4
#     Node 4, Type 0, BuildingBlock: CEKHIL_clean_sbu_0, # of connection points: 4
#     Node 5, Type 0, BuildingBlock: CEKHIL_clean_sbu_0, # of connection points: 4
#     Node 6, Type 0, BuildingBlock: CEKHIL_clean_sbu_0, # of connection points: 4
#     Node 7, Type 0, BuildingBlock: CEKHIL_clean_sbu_0, # of connection points: 4
#     Edge 8, Type (0, 0), BuildingBlock: XIVTED_clean_linker_0, # of connection points: 2
#     Edge 9, Type (0, 0), BuildingBlock: XIVTED_clean_linker_0, # of connection points: 2
#     Edge 10, Type (0, 0), BuildingBlock: XIVTED_clean_linker_0, # of connection points: 2
#     Edge 11, Type (0, 0), BuildingBlock: XIVTED_clean_linker_0, # of connection points: 2
#     Edge 12, Type (0, 0), BuildingBlock: XIVTED_clean_linker_0, # of connection points: 2
#     Edge 13, Type (0, 0), BuildingBlock: XIVTED_clean_linker_0, # of connection points: 2
#     Edge 14, Type (0, 0), BuildingBlock: XIVTED_clean_linker_0, # of connection points: 2
#     Edge 15, Type (0, 0), BuildingBlock: XIVTED_clean_linker_0, # of connection points: 2
#     Edge 16, Type (0, 0), BuildingBlock: XIVTED_clean_linker_0, # of connection points: 2
#     Edge 17, Type (0, 0), BuildingBlock: XIVTED_clean_linker_0, # of connection points: 2
#     Edge 18, Type (0, 0), BuildingBlock: XIVTED_clean_linker_0, # of connection points: 2
#     Edge 19, Type (0, 0), BuildingBlock: XIVTED_clean_linker_0, # of connection points: 2
#     Edge 20, Type (0, 0), BuildingBlock: XIVTED_clean_linker_0, # of connection points: 2
#     Edge 21, Type (0, 0), BuildingBlock: XIVTED_clean_linker_0, # of connection points: 2
#     Edge 22, Type (0, 0), BuildingBlock: XIVTED_clean_linker_0, # of connection points: 2
#     Edge 23, Type (0, 0), BuildingBlock: XIVTED_clean_linker_0, # of connection points: 2
# Relax obj value: 0.122
# Max RMSD: 0.207
# Mean RMSD: 0.202
data_MOF--net-ukg--node1-CEKHIL_clean_sbu_0--edge1-XIVTED_clean_linker_0
_symmetry_space_group_name_H-M    P1
_symmetry_Int_Tables_number       1
_symmetry_cell_setting            triclinic
loop_
_symmetry_equiv_pos_as_xyz
'x, y, z'
_cell_length_a     30.274185
_cell_length_b     29.683534
_cell_length_c     37.564409
_cell_angle_alpha  89.993831
_cell_angle_beta   90.041388
_cell_angle_gamma 89.532248
loop_
_atom_site_label
_atom_site_type_symbol
_atom_site_fract_x
_atom_site_fract_y
_atom_site_fract_z
_atom_type_partial_charge
Co0 Co 0.04687 0.60574 0.17134 0.0
O1 O 0.06984 0.55079 0.15176 0.0
O2 O 0.05567 0.61227 0.12033 0.0
C3 C 0.99144 0.57417 0.20247 0.0
O4 O 0.0204 0.66741 0.18312 0.0
Co5 Co 0.04895 0.61887 0.25368 0.0
O6 O 0.0031 0.66439 0.24142 0.0
C7 C 0.12826 0.64032 0.21098 0.0
C8 C 0.06674 0.56977 0.1208 0.0
C9 C 1.0004 0.68291 0.21085 0.0
O10 O 0.10802 0.62945 0.18204 0.0
O11 O 0.11132 0.63559 0.24199 0.0
O12 O 0.98758 0.58173 0.16865 0.0
O13 O 0.03056 0.58014 0.21543 0.0
Co14 Co 0.32478 0.49753 0.62109 0.0
O15 O 0.37991 0.50972 0.59832 0.0
O16 O 0.32207 0.48108 0.57081 0.0
C17 C 0.35455 0.46142 0.66813 0.0
O18 O 0.26343 0.47868 0.63824 0.0
Co19 Co 0.3088 0.54354 0.69433 0.0
O20 O 0.25472 0.50646 0.69384 0.0
C21 C 0.3039 0.59721 0.62914 0.0
C22 C 0.36338 0.49313 0.56947 0.0
C23 C 0.24127 0.48333 0.66741 0.0
O24 O 0.30326 0.56081 0.61058 0.0
O25 O 0.31133 0.59783 0.66265 0.0
O26 O 0.34792 0.44049 0.63834 0.0
O27 O 0.34753 0.50443 0.66736 0.0
Co28 Co 0.45782 0.89958 0.17069 0.0
O29 O 0.42877 0.95225 0.15193 0.0
O30 O 0.44852 0.89279 0.11995 0.0
C31 C 0.51108 0.93544 0.20146 0.0
O32 O 0.49 0.84034 0.18107 0.0
Co33 Co 0.45985 0.88384 0.25268 0.0
O34 O 0.50873 0.84244 0.23909 0.0
C35 C 0.3815 0.85587 0.21102 0.0
C36 C 0.4325 0.93361 0.12085 0.0
C37 C 0.51175 0.82522 0.20809 0.0
O38 O 0.39953 0.86986 0.18201 0.0
O39 O 0.39914 0.86094 0.24178 0.0
O40 O 0.51442 0.92939 0.16742 0.0
O41 O 0.47305 0.92555 0.21495 0.0
Co42 Co 0.16844 0.99527 0.63378 0.0
O43 O 0.11188 0.98895 0.61151 0.0
O44 O 0.17033 0.01762 0.58492 0.0
C45 C 0.14333 0.02621 0.68439 0.0
O46 O 0.23124 0.00893 0.65072 0.0
Co47 Co 0.18527 0.93969 0.70281 0.0
O48 O 0.23977 0.97621 0.70462 0.0
C49 C 0.1853 0.89418 0.63376 0.0
C50 C 0.12847 0.00767 0.58351 0.0
C51 C 0.25353 0.00135 0.67947 0.0
O52 O 0.18642 0.93258 0.61789 0.0
O53 O 0.17934 0.88983 0.66728 0.0
O54 O 0.14942 0.05102 0.65641 0.0
O55 O 0.1473 0.9833 0.67969 0.0
Co56 Co 0.98105 0.29091 0.87289 0.0
O57 O 0.93782 0.26955 0.90654 0.0
O58 O 0.92407 0.31793 0.86301 0.0
C59 C 0.0087 0.22227 0.85978 0.0
O60 O 0.01595 0.31879 0.8316 0.0
Co61 Co 0.08179 0.2777 0.88396 0.0
O62 O 0.08393 0.28799 0.83198 0.0
C63 C 0.03525 0.35232 0.92099 0.0
C64 C 0.90898 0.29285 0.88859 0.0
C65 C 0.05346 0.31042 0.81658 0.0
O66 O 0.99842 0.34156 0.90607 0.0
O67 O 0.07143 0.33045 0.9164 0.0
O68 O 0.97266 0.23677 0.84488 0.0
O69 O 0.02514 0.24799 0.88416 0.0
Co70 Co 0.61589 0.46814 0.32164 0.0
O71 O 0.5598 0.44595 0.33756 0.0
O72 O 0.618 0.45559 0.37227 0.0
C73 C 0.58927 0.5278 0.29124 0.0
O74 O 0.67825 0.4922 0.31418 0.0
Co75 Co 0.63576 0.47097 0.24023 0.0
O76 O 0.68179 0.51339 0.25666 0.0
C77 C 0.65105 0.38653 0.28068 0.0
C78 C 0.57633 0.44553 0.36938 0.0
C79 C 0.69733 0.51266 0.28822 0.0
O80 O 0.63793 0.40555 0.30968 0.0
O81 O 0.64993 0.40607 0.25027 0.0
O82 O 0.59421 0.52961 0.32547 0.0
O83 O 0.59501 0.4885 0.27709 0.0
Co84 Co 0.52331 0.20625 0.87352 0.0
O85 O 0.56765 0.2281 0.90582 0.0
O86 O 0.57708 0.17094 0.8687 0.0
C87 C 0.50445 0.27392 0.8508 0.0
O88 O 0.48544 0.17611 0.83512 0.0
Co89 Co 0.42524 0.23534 0.8829 0.0
O90 O 0.42105 0.21446 0.83285 0.0
C91 C 0.46244 0.16325 0.92863 0.0
C92 C 0.59411 0.19849 0.89182 0.0
C93 C 0.44842 0.18609 0.81982 0.0
O94 O 0.49904 0.16451 0.91116 0.0
O95 O 0.43029 0.1907 0.923 0.0
O96 O 0.53914 0.25241 0.83957 0.0
O97 O 0.48514 0.25642 0.8782 0.0
Co98 Co 0.8855 0.03645 0.32994 0.0
O99 O 0.94059 0.05859 0.34806 0.0
O100 O 0.88057 0.04886 0.38056 0.0
C101 C 0.91408 0.97693 0.30054 0.0
O102 O 0.82359 0.01245 0.31981 0.0
Co103 Co 0.87093 0.03382 0.24774 0.0
O104 O 0.82358 0.99177 0.26209 0.0
C105 C 0.85294 0.11813 0.28768 0.0
C106 C 0.92236 0.05897 0.37924 0.0
C107 C 0.80598 0.99241 0.29293 0.0
O108 O 0.86423 0.0991 0.3172 0.0
O109 O 0.85607 0.09864 0.25734 0.0
O110 O 0.90692 0.97492 0.33449 0.0
O111 O 0.90916 0.01627 0.28629 0.0
H112 H 0.97423 0.37517 0.97146 0.0
H113 H 0.08017 0.59451 0.05052 0.0
H114 H 0.09916 0.41607 0.9274 0.0
H115 H 0.04975 0.4807 0.11746 0.0
H116 H 0.07064 0.54564 0.99769 0.0
H117 H 0.98239 0.43258 0.01822 0.0
C118 C 0.0028 0.39692 0.97118 0.0
C119 C 0.03624 0.39081 0.94585 0.0
C120 C 0.06632 0.53176 0.02412 0.0
C121 C 0.04521 0.45657 0.99839 0.0
C122 C 0.07192 0.55937 0.0541 0.0
C123 C 0.06627 0.54149 0.08839 0.0
C124 C 0.05334 0.48682 0.02875 0.0
C125 C 0.05505 0.49582 0.0916 0.0
C126 C 0.0075 0.42936 0.99782 0.0
C127 C 0.07288 0.41961 0.94676 0.0
N128 N 0.04834 0.47029 0.06221 0.0
N129 N 0.07645 0.45141 0.97267 0.0
H130 H 0.34386 0.45214 0.50517 0.0
H131 H 0.59609 0.46158 0.43944 0.0
H132 H 0.45024 0.5137 0.56373 0.0
H133 H 0.48888 0.4231 0.37036 0.0
H134 H 0.54343 0.47021 0.4883 0.0
H135 H 0.39646 0.4336 0.45727 0.0
C136 C 0.37805 0.46205 0.50784 0.0
C137 C 0.39255 0.48465 0.53846 0.0
C138 C 0.53144 0.45944 0.46253 0.0
C139 C 0.45288 0.46281 0.48438 0.0
C140 C 0.56163 0.45407 0.43471 0.0
C141 C 0.54688 0.4419 0.4007 0.0
C142 C 0.48613 0.45256 0.45635 0.0
C143 C 0.50169 0.43281 0.39613 0.0
C144 C 0.40809 0.45124 0.48065 0.0
C145 C 0.43738 0.49634 0.54065 0.0
N146 N 0.47286 0.43869 0.42353 0.0
N147 N 0.46581 0.48518 0.51415 0.0
H148 H 0.38367 0.01053 0.11322 0.0
H149 H 0.51212 0.08632 0.93891 0.0
H150 H 0.47061 0.92095 0.05547 0.0
H151 H 0.39777 0.15746 0.97944 0.0
H152 H 0.49902 0.02624 0.98221 0.0
H153 H 0.38798 0.06463 0.06436 0.0
C154 C 0.40292 0.00185 0.08987 0.0
C155 C 0.42681 0.9612 0.08839 0.0
C156 C 0.47672 0.05493 0.98148 0.0
C157 C 0.43303 0.02359 0.03279 0.0
C158 C 0.48439 0.08947 0.95697 0.0
C159 C 0.45613 0.12722 0.95556 0.0
C160 C 0.44086 0.05835 0.00507 0.0
C161 C 0.42048 0.12911 0.97948 0.0
C162 C 0.40557 0.03286 0.06205 0.0
C163 C 0.45143 0.95178 0.05758 0.0
N164 N 0.41406 0.09536 0.00333 0.0
N165 N 0.4545 0.98308 0.03122 0.0
H166 H 0.89936 0.0428 0.44874 0.0
H167 H 0.14999 0.04778 0.51935 0.0
H168 H 0.00942 0.08209 0.38308 0.0
H169 H 0.03997 0.99463 0.5786 0.0
H170 H 0.09876 0.06801 0.47091 0.0
H171 H 0.94981 0.03475 0.4993 0.0
C172 C 0.93395 0.05062 0.44512 0.0
C173 C 0.95018 0.06284 0.41157 0.0
C174 C 0.08596 0.05196 0.4946 0.0
C175 C 0.00841 0.05284 0.46915 0.0
C176 C 0.11521 0.04027 0.52214 0.0
C177 C 0.09937 0.0192 0.55299 0.0
C178 C 0.0406 0.04275 0.49811 0.0
C179 C 0.05387 0.01056 0.55528 0.0
C180 C 0.96289 0.04562 0.47391 0.0
C181 C 0.99547 0.07231 0.40843 0.0
N182 N 0.02624 0.02233 0.52832 0.0
N183 N 0.02304 0.06671 0.43672 0.0
H184 H 0.18564 0.65961 0.26499 0.0
H185 H 0.33791 0.82518 0.15117 0.0
H186 H 0.16649 0.67979 0.15216 0.0
H187 H 0.33388 0.82047 0.26607 0.0
H188 H 0.27868 0.76926 0.14927 0.0
H189 H 0.24621 0.71281 0.26372 0.0
C190 C 0.19452 0.67472 0.23977 0.0
C191 C 0.1705 0.66532 0.20869 0.0
C192 C 0.29068 0.78079 0.17483 0.0
C193 C 0.23989 0.72729 0.20719 0.0
C194 C 0.32427 0.81299 0.17598 0.0
C195 C 0.34121 0.82765 0.20885 0.0
C196 C 0.27416 0.76291 0.20675 0.0
C197 C 0.32225 0.81027 0.24006 0.0
C198 C 0.22901 0.70548 0.23913 0.0
C199 C 0.184 0.68592 0.1768 0.0
N200 N 0.29013 0.77874 0.2382 0.0
N201 N 0.21758 0.71625 0.17691 0.0
H202 H 0.22943 0.61358 0.59062 0.0
H203 H 0.26032 0.88014 0.59579 0.0
H204 H 0.34585 0.6778 0.632 0.0
H205 H 0.14112 0.81487 0.63021 0.0
H206 H 0.29172 0.80606 0.58015 0.0
H207 H 0.19805 0.68832 0.5767 0.0
C208 C 0.249 0.64336 0.5955 0.0
C209 C 0.29008 0.63992 0.61257 0.0
C210 C 0.25811 0.8083 0.5899 0.0
C211 C 0.25497 0.72455 0.59636 0.0
C212 C 0.2401 0.85039 0.59854 0.0
C213 C 0.19822 0.85324 0.61429 0.0
C214 C 0.23353 0.76929 0.59641 0.0
C215 C 0.17356 0.81379 0.6181 0.0
C216 C 0.23105 0.68577 0.58774 0.0
C217 C 0.31397 0.67932 0.61894 0.0
N218 N 0.19174 0.77324 0.60948 0.0
N219 N 0.29595 0.72017 0.611 0.0
H220 H 0.63888 0.22923 0.95012 0.0
H221 H 0.84504 0.30178 0.83802 0.0
H222 H 0.65823 0.18203 0.84266 0.0
H223 H 0.86493 0.2611 0.94716 0.0
H224 H 0.76931 0.27354 0.84099 0.0
H225 H 0.71654 0.25303 0.95177 0.0
C226 C 0.65976 0.22296 0.92721 0.0
C227 C 0.64232 0.20326 0.89631 0.0
C228 C 0.79022 0.27124 0.86435 0.0
C229 C 0.72994 0.23229 0.89749 0.0
C230 C 0.83316 0.28789 0.86287 0.0
C231 C 0.86123 0.28391 0.89245 0.0
C232 C 0.77487 0.25144 0.89587 0.0
C233 C 0.84426 0.26488 0.9238 0.0
C234 C 0.70382 0.23678 0.92812 0.0
C235 C 0.67053 0.1965 0.86716 0.0
N236 N 0.80199 0.24952 0.9248 0.0
N237 N 0.71273 0.21183 0.86818 0.0
H238 H 0.67674 0.33183 0.22574 0.0
H239 H 0.82083 0.1638 0.34623 0.0
H240 H 0.68128 0.34202 0.34039 0.0
H241 H 0.82835 0.17146 0.23155 0.0
H242 H 0.76879 0.22745 0.34576 0.0
H243 H 0.72811 0.26857 0.22856 0.0
C244 C 0.688 0.3204 0.25162 0.0
C245 C 0.67475 0.34266 0.28286 0.0
C246 C 0.78221 0.21537 0.32078 0.0
C247 C 0.73458 0.27029 0.28621 0.0
C248 C 0.81229 0.1793 0.32102 0.0
C249 C 0.82894 0.16191 0.28885 0.0
C250 C 0.76856 0.234 0.28816 0.0
C251 C 0.81629 0.18332 0.25703 0.0
C252 C 0.71774 0.28441 0.25317 0.0
C253 C 0.69048 0.32595 0.31559 0.0
N254 N 0.78667 0.21785 0.25751 0.0
N255 N 0.71985 0.29097 0.3164 0.0
H256 H 0.76869 0.47536 0.32251 0.0
H257 H 0.98326 0.53756 0.26981 0.0
H258 H 0.72698 0.59152 0.26203 0.0
H259 H 0.90928 0.60298 0.18604 0.0
H260 H 0.91416 0.52952 0.30397 0.0
H261 H 0.84595 0.49536 0.31139 0.0
C262 C 0.7759 0.50619 0.30829 0.0
C263 C 0.74169 0.53167 0.29279 0.0
C264 C 0.9132 0.54549 0.27809 0.0
C265 C 0.8294 0.55454 0.27972 0.0
C266 C 0.95254 0.55018 0.25871 0.0
C267 C 0.95164 0.56991 0.22476 0.0
C268 C 0.87326 0.56148 0.26338 0.0
C269 C 0.91133 0.58649 0.2117 0.0
C270 C 0.82003 0.51754 0.30181 0.0
C271 C 0.75255 0.5708 0.27407 0.0
N272 N 0.87394 0.5819 0.231 0.0
N273 N 0.7954 0.58052 0.26748 0.0
H274 H 0.35366 0.48576 0.73905 0.0
H275 H 0.53637 0.30725 0.78901 0.0
H276 H 0.40093 0.38362 0.66635 0.0
H277 H 0.42697 0.32178 0.86199 0.0
H278 H 0.49897 0.35771 0.74763 0.0
H279 H 0.39053 0.44483 0.78841 0.0
C280 C 0.3717 0.45488 0.73355 0.0
C281 C 0.37442 0.43793 0.69872 0.0
C282 C 0.48347 0.35026 0.77293 0.0
C283 C 0.4168 0.39243 0.75406 0.0
C284 C 0.50472 0.32155 0.79662 0.0
C285 C 0.48437 0.30973 0.82876 0.0
C286 C 0.4418 0.36784 0.7815 0.0
C287 C 0.44351 0.32978 0.83727 0.0
C288 C 0.39241 0.43167 0.76156 0.0
C289 C 0.3979 0.39778 0.69281 0.0
N290 N 0.42318 0.35786 0.81353 0.0
N291 N 0.41863 0.37673 0.72011 0.0
H292 H 0.51892 0.96469 0.27114 0.0
H293 H 0.73374 0.02783 0.32758 0.0
H294 H 0.59482 0.9168 0.18141 0.0
H295 H 0.77586 0.91671 0.26163 0.0
H296 H 0.65649 0.00982 0.31378 0.0
H297 H 0.58826 0.97208 0.30533 0.0
C298 C 0.55008 0.95594 0.25868 0.0
C299 C 0.55131 0.94102 0.22321 0.0
C300 C 0.68255 0.98833 0.30349 0.0
C301 C 0.62986 0.94841 0.26193 0.0
C302 C 0.72663 0.99849 0.31148 0.0
C303 C 0.76103 0.97396 0.29533 0.0
C304 C 0.67343 0.95357 0.27918 0.0
C305 C 0.75022 0.93676 0.27423 0.0
C306 C 0.58949 0.96019 0.27811 0.0
C307 C 0.5923 0.92936 0.20839 0.0
N308 N 0.70746 0.92832 0.26617 0.0
N309 N 0.62972 0.93312 0.22784 0.0
H310 H 0.9729 0.15068 0.82596 0.0
H311 H 0.17367 0.10465 0.71151 0.0
H312 H 0.09782 0.20462 0.86017 0.0
H313 H 0.0874 0.99366 0.73489 0.0
H314 H 0.14658 0.14359 0.76482 0.0
H315 H 0.01246 0.09289 0.7919 0.0
C316 C 0.00868 0.14986 0.82673 0.0
C317 C 0.03224 0.18288 0.84524 0.0
C318 C 0.13436 0.11027 0.75871 0.0
C319 C 0.07737 0.11781 0.80593 0.0
C320 C 0.14947 0.0883 0.72826 0.0
C321 C 0.13224 0.04631 0.71889 0.0
C322 C 0.10078 0.09066 0.77903 0.0
C323 C 0.10126 0.02616 0.74139 0.0
C324 C 0.03115 0.1168 0.8075 0.0
C325 C 0.0785 0.18015 0.84576 0.0
N326 N 0.08552 0.04912 0.77006 0.0
N327 N 0.09972 0.1489 0.82542 0.0
H328 H 0.02526 0.39203 0.79017 0.0
H329 H 0.22369 0.3956 0.65023 0.0
H330 H 0.109 0.27802 0.76554 0.0
H331 H 0.16612 0.51363 0.69901 0.0
H332 H 0.16439 0.34998 0.67604 0.0
H333 H 0.05923 0.43367 0.74094 0.0
C334 C 0.04983 0.37533 0.77377 0.0
C335 C 0.06497 0.33188 0.78231 0.0
C336 C 0.16409 0.38608 0.68024 0.0
C337 C 0.10399 0.37917 0.72625 0.0
C338 C 0.19766 0.41212 0.66524 0.0
C339 C 0.19994 0.45824 0.6729 0.0
C340 C 0.13265 0.40654 0.70276 0.0
C341 C 0.16571 0.47799 0.69286 0.0
C342 C 0.06939 0.39916 0.74583 0.0
C343 C 0.09699 0.31183 0.76023 0.0
N344 N 0.13382 0.45197 0.7075 0.0
N345 N 0.11585 0.33581 0.73354 0.0
H346 H 0.55356 0.54042 0.22452 0.0
H347 H 0.59018 0.80574 0.23918 0.0
H348 H 0.62011 0.60957 0.30983 0.0
H349 H 0.4894 0.7482 0.17246 0.0
H350 H 0.61971 0.7304 0.25046 0.0
H351 H 0.54556 0.61292 0.19285 0.0
C352 C 0.56681 0.57074 0.23633 0.0
C353 C 0.58655 0.56946 0.2701 0.0
C354 C 0.59168 0.73419 0.23273 0.0
C355 C 0.57873 0.65135 0.23401 0.0
C356 C 0.57506 0.77717 0.22612 0.0
C357 C 0.53698 0.78285 0.20538 0.0
C358 C 0.56951 0.69658 0.21908 0.0
C359 C 0.51876 0.74497 0.18877 0.0
C360 C 0.56237 0.61187 0.2183 0.0
C361 C 0.60369 0.60932 0.28421 0.0
N362 N 0.53458 0.70307 0.19667 0.0
N363 N 0.59924 0.64858 0.26618 0.0
H364 H 0.3949 0.21621 0.76648 0.0
H365 H 0.32644 0.97049 0.71445 0.0
H366 H 0.46761 0.0986 0.8011 0.0
H367 H 0.27402 0.08824 0.66159 0.0
H368 H 0.38584 0.01603 0.73913 0.0
H369 H 0.35818 0.17075 0.72134 0.0
C370 C 0.40373 0.18089 0.76412 0.0
C371 C 0.43385 0.16096 0.78793 0.0
C372 C 0.36204 0.03185 0.72148 0.0
C373 C 0.39127 0.10841 0.73663 0.0
C374 C 0.32814 0.00581 0.70732 0.0
C375 C 0.29508 0.02576 0.68621 0.0
C376 C 0.36236 0.07846 0.71521 0.0
C377 C 0.2989 0.07155 0.67771 0.0
C378 C 0.38277 0.15493 0.73827 0.0
C379 C 0.44444 0.11524 0.7834 0.0
N380 N 0.33135 0.09661 0.6929 0.0
N381 N 0.42246 0.09027 0.75877 0.0
H382 H 0.02478 0.7613 0.17785 0.0
H383 H 0.88065 0.89546 0.31659 0.0
H384 H 0.92228 0.7024 0.24193 0.0
H385 H 0.95614 0.96446 0.23633 0.0
H386 H 0.89079 0.82528 0.2844 0.0
H387 H 0.99492 0.83656 0.19183 0.0
C388 C 0.99508 0.76423 0.19377 0.0
C389 C 0.97624 0.72597 0.20929 0.0
C390 C 0.90495 0.85566 0.27345 0.0
C391 C 0.94268 0.81114 0.22586 0.0
C392 C 0.89946 0.89571 0.29206 0.0
C393 C 0.91839 0.93545 0.27939 0.0
C394 C 0.93051 0.85492 0.24226 0.0
C395 C 0.94151 0.9342 0.24706 0.0
C396 C 0.97826 0.80709 0.20197 0.0
C397 C 0.9381 0.7313 0.22996 0.0
N398 N 0.94774 0.89424 0.22984 0.0
N399 N 0.92302 0.7731 0.2381 0.0
loop_
_geom_bond_atom_site_label_1
_geom_bond_atom_site_label_2
_geom_bond_distance
_geom_bond_site_symmetry_2
_ccdc_geom_bond_type
Co0 O1 2.216 . S
Co0 O2 2.091 . S
Co0 O4 2.004 1_455 S
Co0 O10 2.021 . S
Co0 O12 2.137 1_455 S
Co0 O13 2.244 . S
O1 Co0 2.216 . S
O1 C8 1.247 . S
O2 Co0 2.091 . S
O2 C8 1.261 . S
C3 O12 1.247 . S
C3 O13 1.272 1_655 S
O4 Co0 2.004 1_655 S
O4 C9 1.259 . S
Co5 O6 2.061 . S
Co5 O11 2.052 . S
Co5 O13 2.135 . S
O6 Co5 2.061 . S
O6 C9 1.235 1_455 S
C7 O10 1.238 . S
C7 O11 1.241 . S
C8 O1 1.247 . S
C8 O2 1.261 . S
C9 O4 1.259 . S
C9 O6 1.235 1_655 S
O10 Co0 2.021 . S
O10 C7 1.238 . S
O11 Co5 2.052 . S
O11 C7 1.241 . S
O12 Co0 2.137 1_655 S
O12 C3 1.247 . S
O13 Co0 2.244 . S
O13 C3 1.272 1_455 S
O13 Co5 2.135 . S
Co14 O15 2.216 . S
Co14 O16 2.091 . S
Co14 O18 2.004 . S
Co14 O24 2.021 . S
Co14 O26 2.137 . S
Co14 O27 2.244 . S
O15 Co14 2.216 . S
O15 C22 1.247 . S
O16 Co14 2.091 . S
O16 C22 1.261 . S
C17 O26 1.247 . S
C17 O27 1.272 . S
O18 Co14 2.004 . S
O18 C23 1.259 . S
Co19 O20 2.061 . S
Co19 O25 2.052 . S
Co19 O27 2.135 . S
O20 Co19 2.061 . S
O20 C23 1.235 . S
C21 O24 1.238 . S
C21 O25 1.241 . S
C22 O15 1.247 . S
C22 O16 1.261 . S
C23 O18 1.259 . S
C23 O20 1.235 . S
O24 Co14 2.021 . S
O24 C21 1.238 . S
O25 Co19 2.052 . S
O25 C21 1.241 . S
O26 Co14 2.137 . S
O26 C17 1.247 . S
O27 Co14 2.244 . S
O27 C17 1.272 . S
O27 Co19 2.135 . S
Co28 O29 2.216 . S
Co28 O30 2.091 . S
Co28 O32 2.004 . S
Co28 O38 2.021 . S
Co28 O40 2.137 . S
Co28 O41 2.244 . S
O29 Co28 2.216 . S
O29 C36 1.247 . S
O30 Co28 2.091 . S
O30 C36 1.261 . S
C31 O40 1.247 . S
C31 O41 1.272 . S
O32 Co28 2.004 . S
O32 C37 1.259 . S
Co33 O34 2.061 . S
Co33 O39 2.052 . S
Co33 O41 2.135 . S
O34 Co33 2.061 . S
O34 C37 1.235 . S
C35 O38 1.238 . S
C35 O39 1.241 . S
C36 O29 1.247 . S
C36 O30 1.261 . S
C37 O32 1.259 . S
C37 O34 1.235 . S
O38 Co28 2.021 . S
O38 C35 1.238 . S
O39 Co33 2.052 . S
O39 C35 1.241 . S
O40 Co28 2.137 . S
O40 C31 1.247 . S
O41 Co28 2.244 . S
O41 C31 1.272 . S
O41 Co33 2.135 . S
Co42 O43 2.216 . S
Co42 O44 2.092 . S
Co42 O46 2.004 1_565 S
Co42 O52 2.021 . S
Co42 O54 2.137 1_565 S
Co42 O55 2.244 . S
O43 Co42 2.216 . S
O43 C50 1.247 . S
O44 Co42 2.092 . S
O44 C50 1.263 . S
C45 O54 1.247 . S
C45 O55 1.272 1_545 S
O46 Co42 2.004 1_545 S
O46 C51 1.259 . S
Co47 O48 2.061 . S
Co47 O53 2.052 . S
Co47 O55 2.135 . S
O48 Co47 2.061 . S
O48 C51 1.235 1_565 S
C49 O52 1.238 . S
C49 O53 1.241 . S
C50 O43 1.247 . S
C50 O44 1.263 . S
C51 O46 1.259 . S
C51 O48 1.235 1_545 S
O52 Co42 2.021 . S
O52 C49 1.238 . S
O53 Co47 2.052 . S
O53 C49 1.241 . S
O54 Co42 2.137 1_545 S
O54 C45 1.247 . S
O55 Co42 2.244 . S
O55 C45 1.272 1_565 S
O55 Co47 2.135 . S
Co56 O57 2.216 . S
Co56 O58 2.091 . S
Co56 O60 2.004 1_655 S
Co56 O66 2.021 . S
Co56 O68 2.137 . S
Co56 O69 2.244 1_655 S
O57 Co56 2.216 . S
O57 C64 1.247 . S
O58 Co56 2.091 . S
O58 C64 1.261 . S
C59 O68 1.247 1_455 S
C59 O69 1.272 . S
O60 Co56 2.004 1_455 S
O60 C65 1.259 . S
Co61 O62 2.061 . S
Co61 O67 2.052 . S
Co61 O69 2.135 . S
O62 Co61 2.061 . S
O62 C65 1.235 . S
C63 O66 1.238 . S
C63 O67 1.241 1_655 S
C64 O57 1.247 . S
C64 O58 1.261 . S
C65 O60 1.259 . S
C65 O62 1.235 . S
O66 Co56 2.021 . S
O66 C63 1.238 . S
O67 Co61 2.052 . S
O67 C63 1.241 1_455 S
O68 Co56 2.137 . S
O68 C59 1.247 1_655 S
O69 Co56 2.244 1_455 S
O69 C59 1.272 . S
O69 Co61 2.135 . S
Co70 O71 2.216 . S
Co70 O72 2.091 . S
Co70 O74 2.004 . S
Co70 O80 2.021 . S
Co70 O82 2.137 . S
Co70 O83 2.244 . S
O71 Co70 2.216 . S
O71 C78 1.247 . S
O72 Co70 2.091 . S
O72 C78 1.261 . S
C73 O82 1.247 . S
C73 O83 1.272 . S
O74 Co70 2.004 . S
O74 C79 1.259 . S
Co75 O76 2.061 . S
Co75 O81 2.052 . S
Co75 O83 2.135 . S
O76 Co75 2.061 . S
O76 C79 1.235 . S
C77 O80 1.238 . S
C77 O81 1.241 . S
C78 O71 1.247 . S
C78 O72 1.261 . S
C79 O74 1.259 . S
C79 O76 1.235 . S
O80 Co70 2.021 . S
O80 C77 1.238 . S
O81 Co75 2.052 . S
O81 C77 1.241 . S
O82 Co70 2.137 . S
O82 C73 1.247 . S
O83 Co70 2.244 . S
O83 C73 1.272 . S
O83 Co75 2.135 . S
Co84 O85 2.216 . S
Co84 O86 2.091 . S
Co84 O88 2.004 . S
Co84 O94 2.021 . S
Co84 O96 2.137 . S
Co84 O97 2.244 . S
O85 Co84 2.216 . S
O85 C92 1.247 . S
O86 Co84 2.091 . S
O86 C92 1.261 . S
C87 O96 1.247 . S
C87 O97 1.272 . S
O88 Co84 2.004 . S
O88 C93 1.259 . S
Co89 O90 2.061 . S
Co89 O95 2.052 . S
Co89 O97 2.135 . S
O90 Co89 2.061 . S
O90 C93 1.235 . S
C91 O94 1.238 . S
C91 O95 1.241 . S
C92 O85 1.247 . S
C92 O86 1.261 . S
C93 O88 1.259 . S
C93 O90 1.235 . S
O94 Co84 2.021 . S
O94 C91 1.238 . S
O95 Co89 2.052 . S
O95 C91 1.241 . S
O96 Co84 2.137 . S
O96 C87 1.247 . S
O97 Co84 2.244 . S
O97 C87 1.272 . S
O97 Co89 2.135 . S
Co98 O99 2.216 . S
Co98 O100 2.091 1_545 S
Co98 O102 2.004 1_545 S
Co98 O108 2.021 . S
Co98 O110 2.137 1_545 S
Co98 O111 2.244 . S
O99 Co98 2.216 . S
O99 C106 1.247 . S
O100 Co98 2.091 1_565 S
O100 C106 1.261 1_565 S
C101 O110 1.247 . S
C101 O111 1.272 1_565 S
O102 Co98 2.004 1_565 S
O102 C107 1.259 . S
Co103 O104 2.061 . S
Co103 O109 2.052 . S
Co103 O111 2.135 . S
O104 Co103 2.061 . S
O104 C107 1.235 1_545 S
C105 O108 1.238 . S
C105 O109 1.241 . S
C106 O99 1.247 . S
C106 O100 1.261 1_545 S
C107 O102 1.259 . S
C107 O104 1.235 1_565 S
O108 Co98 2.021 . S
O108 C105 1.238 . S
O109 Co103 2.052 . S
O109 C105 1.241 . S
O110 Co98 2.137 1_565 S
O110 C101 1.247 . S
O111 Co98 2.244 . S
O111 C101 1.272 1_545 S
O111 Co103 2.135 . S
H112 C118 0.930 . S
H113 C122 0.930 . S
H114 C127 0.929 . S
H115 C125 0.929 . S
H116 C120 0.929 1_556 S
H117 C126 0.929 1_554 S
C118 H112 0.930 . S
C118 C119 1.367 . S
C118 C126 1.378 . S
C119 C118 1.367 . S
C119 C127 1.433 1_655 S
C120 H116 0.929 1_554 S
C120 C122 1.378 . S
C120 C124 1.350 . S
C121 C124 1.463 1_556 S
C121 C126 1.350 1_455 S
C121 N129 1.427 . S
C122 H113 0.930 . S
C122 C120 1.378 . S
C122 C123 1.367 . S
C123 C122 1.367 . S
C123 C125 1.433 1_455 S
C124 C120 1.350 . S
C124 C121 1.463 1_554 S
C124 N128 1.427 1_455 S
C125 H115 0.929 . S
C125 C123 1.433 1_655 S
C125 N128 1.384 . S
C126 H117 0.929 1_556 S
C126 C118 1.378 . S
C126 C121 1.350 1_655 S
C127 H114 0.929 . S
C127 C119 1.433 1_455 S
C127 N129 1.384 . S
N128 C124 1.427 1_655 S
N128 C125 1.384 . S
N129 C121 1.427 . S
N129 C127 1.384 . S
H130 C136 0.930 . S
H131 C140 0.930 . S
H132 C145 0.929 . S
H133 C143 0.929 . S
H134 C138 0.929 . S
H135 C144 0.929 . S
C136 H130 0.930 . S
C136 C137 1.367 . S
C136 C144 1.378 . S
C137 C136 1.367 . S
C137 C145 1.433 . S
C138 H134 0.929 . S
C138 C140 1.378 . S
C138 C142 1.350 . S
C139 C142 1.463 . S
C139 C144 1.350 . S
C139 N147 1.427 . S
C140 H131 0.930 . S
C140 C138 1.378 . S
C140 C141 1.367 . S
C141 C140 1.367 . S
C141 C143 1.433 . S
C142 C138 1.350 . S
C142 C139 1.463 . S
C142 N146 1.427 . S
C143 H133 0.929 . S
C143 C141 1.433 . S
C143 N146 1.384 . S
C144 H135 0.929 . S
C144 C136 1.378 . S
C144 C139 1.350 . S
C145 H132 0.929 . S
C145 C137 1.433 . S
C145 N147 1.384 . S
N146 C142 1.427 . S
N146 C143 1.384 . S
N147 C139 1.427 . S
N147 C145 1.384 . S
H148 C154 0.930 . S
H149 C158 0.930 . S
H150 C163 0.929 . S
H151 C161 0.929 . S
H152 C156 0.929 . S
H153 C162 0.929 1_545 S
C154 H148 0.930 . S
C154 C155 1.367 . S
C154 C162 1.378 . S
C155 C154 1.367 . S
C155 C163 1.433 . S
C156 H152 0.929 . S
C156 C158 1.378 . S
C156 C160 1.350 . S
C157 C160 1.463 1_564 S
C157 C162 1.350 . S
C157 N165 1.427 . S
C158 H149 0.930 . S
C158 C156 1.378 . S
C158 C159 1.367 . S
C159 C158 1.367 . S
C159 C161 1.433 . S
C160 C156 1.350 . S
C160 C157 1.463 1_546 S
C160 N164 1.427 . S
C161 H151 0.929 . S
C161 C159 1.433 . S
C161 N164 1.384 . S
C162 H153 0.929 1_565 S
C162 C154 1.378 . S
C162 C157 1.350 . S
C163 H150 0.929 . S
C163 C155 1.433 . S
C163 N165 1.384 . S
N164 C160 1.427 . S
N164 C161 1.384 . S
N165 C157 1.427 . S
N165 C163 1.384 . S
H166 C172 0.930 . S
H167 C176 0.930 . S
H168 C181 0.929 . S
H169 C179 0.929 . S
H170 C174 0.937 . S
H171 C180 0.929 . S
C172 H166 0.930 . S
C172 C173 1.367 1_565 S
C172 C180 1.378 . S
C173 C172 1.367 1_545 S
C173 C181 1.433 . S
C174 H170 0.937 . S
C174 C176 1.378 . S
C174 C178 1.350 1_545 S
C175 C178 1.461 1_645 S
C175 C180 1.335 1_545 S
C175 N183 1.445 . S
C176 H167 0.930 . S
C176 C174 1.378 . S
C176 C177 1.367 1_545 S
C177 C176 1.367 1_565 S
C177 C179 1.433 . S
C178 C174 1.350 1_565 S
C178 C175 1.461 1_465 S
C178 N182 1.427 . S
C179 H169 0.929 . S
C179 C177 1.433 . S
C179 N182 1.384 . S
C180 H171 0.929 . S
C180 C172 1.378 . S
C180 C175 1.335 1_565 S
C181 H168 0.929 . S
C181 C173 1.433 . S
C181 N183 1.384 . S
N182 C178 1.427 . S
N182 C179 1.384 . S
N183 C175 1.445 . S
N183 C181 1.384 . S
H184 C190 0.930 . S
H185 C194 0.930 . S
H186 C199 0.929 . S
H187 C197 0.929 . S
H188 C192 0.929 . S
H189 C198 0.929 . S
C190 H184 0.930 . S
C190 C191 1.367 . S
C190 C198 1.378 . S
C191 C190 1.367 . S
C191 C199 1.433 . S
C192 H188 0.929 . S
C192 C194 1.378 . S
C192 C196 1.350 . S
C193 C196 1.463 . S
C193 C198 1.350 . S
C193 N201 1.427 . S
C194 H185 0.930 . S
C194 C192 1.378 . S
C194 C195 1.367 . S
C195 C194 1.367 . S
C195 C197 1.433 . S
C196 C192 1.350 . S
C196 C193 1.463 . S
C196 N200 1.427 . S
C197 H187 0.929 . S
C197 C195 1.433 . S
C197 N200 1.384 . S
C198 H189 0.929 . S
C198 C190 1.378 . S
C198 C193 1.350 . S
C199 H186 0.929 . S
C199 C191 1.433 . S
C199 N201 1.384 . S
N200 C196 1.427 . S
N200 C197 1.384 . S
N201 C193 1.427 . S
N201 C199 1.384 . S
H202 C208 0.930 . S
H203 C212 0.930 . S
H204 C217 0.929 . S
H205 C215 0.929 . S
H206 C210 0.929 . S
H207 C216 0.929 . S
C208 H202 0.930 . S
C208 C209 1.367 . S
C208 C216 1.378 . S
C209 C208 1.367 . S
C209 C217 1.433 . S
C210 H206 0.929 . S
C210 C212 1.378 . S
C210 C214 1.350 . S
C211 C214 1.463 . S
C211 C216 1.350 . S
C211 N219 1.427 . S
C212 H203 0.930 . S
C212 C210 1.378 . S
C212 C213 1.367 . S
C213 C212 1.367 . S
C213 C215 1.433 . S
C214 C210 1.350 . S
C214 C211 1.463 . S
C214 N218 1.427 . S
C215 H205 0.929 . S
C215 C213 1.433 . S
C215 N218 1.384 . S
C216 H207 0.929 . S
C216 C208 1.378 . S
C216 C211 1.350 . S
C217 H204 0.929 . S
C217 C209 1.433 . S
C217 N219 1.384 . S
N218 C214 1.427 . S
N218 C215 1.384 . S
N219 C211 1.427 . S
N219 C217 1.384 . S
H220 C226 0.930 . S
H221 C230 0.930 . S
H222 C235 0.929 . S
H223 C233 0.929 . S
H224 C228 0.929 . S
H225 C234 0.929 . S
C226 H220 0.930 . S
C226 C227 1.367 . S
C226 C234 1.378 . S
C227 C226 1.367 . S
C227 C235 1.433 . S
C228 H224 0.929 . S
C228 C230 1.378 . S
C228 C232 1.350 . S
C229 C232 1.463 . S
C229 C234 1.350 . S
C229 N237 1.427 . S
C230 H221 0.930 . S
C230 C228 1.378 . S
C230 C231 1.367 . S
C231 C230 1.367 . S
C231 C233 1.433 . S
C232 C228 1.350 . S
C232 C229 1.463 . S
C232 N236 1.427 . S
C233 H223 0.929 . S
C233 C231 1.433 . S
C233 N236 1.384 . S
C234 H225 0.929 . S
C234 C226 1.378 . S
C234 C229 1.350 . S
C235 H222 0.929 . S
C235 C227 1.433 . S
C235 N237 1.384 . S
N236 C232 1.427 . S
N236 C233 1.384 . S
N237 C229 1.427 . S
N237 C235 1.384 . S
H238 C244 0.930 . S
H239 C248 0.930 . S
H240 C253 0.929 . S
H241 C251 0.929 . S
H242 C246 0.929 . S
H243 C252 0.929 . S
C244 H238 0.930 . S
C244 C245 1.367 . S
C244 C252 1.378 . S
C245 C244 1.367 . S
C245 C253 1.433 . S
C246 H242 0.929 . S
C246 C248 1.378 . S
C246 C250 1.350 . S
C247 C250 1.463 . S
C247 C252 1.350 . S
C247 N255 1.427 . S
C248 H239 0.930 . S
C248 C246 1.378 . S
C248 C249 1.367 . S
C249 C248 1.367 . S
C249 C251 1.433 . S
C250 C246 1.350 . S
C250 C247 1.463 . S
C250 N254 1.427 . S
C251 H241 0.929 . S
C251 C249 1.433 . S
C251 N254 1.384 . S
C252 H243 0.929 . S
C252 C244 1.378 . S
C252 C247 1.350 . S
C253 H240 0.929 . S
C253 C245 1.433 . S
C253 N255 1.384 . S
N254 C250 1.427 . S
N254 C251 1.384 . S
N255 C247 1.427 . S
N255 C253 1.384 . S
H256 C262 0.930 . S
H257 C266 0.930 . S
H258 C271 0.929 . S
H259 C269 0.929 . S
H260 C264 0.929 . S
H261 C270 0.929 . S
C262 H256 0.930 . S
C262 C263 1.367 . S
C262 C270 1.378 . S
C263 C262 1.367 . S
C263 C271 1.433 . S
C264 H260 0.929 . S
C264 C266 1.378 . S
C264 C268 1.350 . S
C265 C268 1.463 . S
C265 C270 1.350 . S
C265 N273 1.427 . S
C266 H257 0.930 . S
C266 C264 1.378 . S
C266 C267 1.367 . S
C267 C266 1.367 . S
C267 C269 1.433 . S
C268 C264 1.350 . S
C268 C265 1.463 . S
C268 N272 1.427 . S
C269 H259 0.929 . S
C269 C267 1.433 . S
C269 N272 1.384 . S
C270 H261 0.929 . S
C270 C262 1.378 . S
C270 C265 1.350 . S
C271 H258 0.929 . S
C271 C263 1.433 . S
C271 N273 1.384 . S
N272 C268 1.427 . S
N272 C269 1.384 . S
N273 C265 1.427 . S
N273 C271 1.384 . S
H274 C280 0.930 . S
H275 C284 0.930 . S
H276 C289 0.929 . S
H277 C287 0.929 . S
H278 C282 0.929 . S
H279 C288 0.929 . S
C280 H274 0.930 . S
C280 C281 1.367 . S
C280 C288 1.378 . S
C281 C280 1.367 . S
C281 C289 1.433 . S
C282 H278 0.929 . S
C282 C284 1.378 . S
C282 C286 1.350 . S
C283 C286 1.463 . S
C283 C288 1.350 . S
C283 N291 1.427 . S
C284 H275 0.930 . S
C284 C282 1.378 . S
C284 C285 1.367 . S
C285 C284 1.367 . S
C285 C287 1.433 . S
C286 C282 1.350 . S
C286 C283 1.463 . S
C286 N290 1.427 . S
C287 H277 0.929 . S
C287 C285 1.433 . S
C287 N290 1.384 . S
C288 H279 0.929 . S
C288 C280 1.378 . S
C288 C283 1.350 . S
C289 H276 0.929 . S
C289 C281 1.433 . S
C289 N291 1.384 . S
N290 C286 1.427 . S
N290 C287 1.384 . S
N291 C283 1.427 . S
N291 C289 1.384 . S
H292 C298 0.930 . S
H293 C302 0.930 . S
H294 C307 0.929 . S
H295 C305 0.929 . S
H296 C300 0.929 1_545 S
H297 C306 0.929 . S
C298 H292 0.930 . S
C298 C299 1.367 . S
C298 C306 1.378 . S
C299 C298 1.367 . S
C299 C307 1.433 . S
C300 H296 0.929 1_565 S
C300 C302 1.378 1_565 S
C300 C304 1.350 . S
C301 C304 1.463 . S
C301 C306 1.350 . S
C301 N309 1.427 . S
C302 H293 0.930 . S
C302 C300 1.378 1_545 S
C302 C303 1.367 1_545 S
C303 C302 1.367 1_565 S
C303 C305 1.433 . S
C304 C300 1.350 . S
C304 C301 1.463 . S
C304 N308 1.427 . S
C305 H295 0.929 . S
C305 C303 1.433 . S
C305 N308 1.384 . S
C306 H297 0.929 . S
C306 C298 1.378 . S
C306 C301 1.350 . S
C307 H294 0.929 . S
C307 C299 1.433 . S
C307 N309 1.384 . S
N308 C304 1.427 . S
N308 C305 1.384 . S
N309 C301 1.427 . S
N309 C307 1.384 . S
H310 C316 0.930 . S
H311 C320 0.930 . S
H312 C325 0.929 . S
H313 C323 0.929 . S
H314 C318 0.929 . S
H315 C324 0.929 1_655 S
C316 H310 0.930 . S
C316 C317 1.367 1_655 S
C316 C324 1.378 1_655 S
C317 C316 1.367 1_455 S
C317 C325 1.433 . S
C318 H314 0.929 . S
C318 C320 1.378 . S
C318 C322 1.350 . S
C319 C322 1.463 . S
C319 C324 1.350 . S
C319 N327 1.427 . S
C320 H311 0.930 . S
C320 C318 1.378 . S
C320 C321 1.367 . S
C321 C320 1.367 . S
C321 C323 1.433 . S
C322 C318 1.350 . S
C322 C319 1.463 . S
C322 N326 1.427 . S
C323 H313 0.929 . S
C323 C321 1.433 . S
C323 N326 1.384 . S
C324 H315 0.929 1_455 S
C324 C316 1.378 1_455 S
C324 C319 1.350 . S
C325 H312 0.929 . S
C325 C317 1.433 . S
C325 N327 1.384 . S
N326 C322 1.427 . S
N326 C323 1.384 . S
N327 C319 1.427 . S
N327 C325 1.384 . S
H328 C334 0.930 . S
H329 C338 0.930 . S
H330 C343 0.929 . S
H331 C341 0.929 . S
H332 C336 0.929 . S
H333 C342 0.929 . S
C334 H328 0.930 . S
C334 C335 1.367 . S
C334 C342 1.378 . S
C335 C334 1.367 . S
C335 C343 1.433 . S
C336 H332 0.929 . S
C336 C338 1.378 . S
C336 C340 1.350 . S
C337 C340 1.463 . S
C337 C342 1.350 . S
C337 N345 1.427 . S
C338 H329 0.930 . S
C338 C336 1.378 . S
C338 C339 1.367 . S
C339 C338 1.367 . S
C339 C341 1.433 . S
C340 C336 1.350 . S
C340 C337 1.463 . S
C340 N344 1.427 . S
C341 H331 0.929 . S
C341 C339 1.433 . S
C341 N344 1.384 . S
C342 H333 0.929 . S
C342 C334 1.378 . S
C342 C337 1.350 . S
C343 H330 0.929 . S
C343 C335 1.433 . S
C343 N345 1.384 . S
N344 C340 1.427 . S
N344 C341 1.384 . S
N345 C337 1.427 . S
N345 C343 1.384 . S
H346 C352 0.930 . S
H347 C356 0.930 . S
H348 C361 0.929 . S
H349 C359 0.929 . S
H350 C354 0.929 . S
H351 C360 0.929 . S
C352 H346 0.930 . S
C352 C353 1.367 . S
C352 C360 1.378 . S
C353 C352 1.367 . S
C353 C361 1.433 . S
C354 H350 0.929 . S
C354 C356 1.378 . S
C354 C358 1.350 . S
C355 C358 1.463 . S
C355 C360 1.350 . S
C355 N363 1.427 . S
C356 H347 0.930 . S
C356 C354 1.378 . S
C356 C357 1.367 . S
C357 C356 1.367 . S
C357 C359 1.433 . S
C358 C354 1.350 . S
C358 C355 1.463 . S
C358 N362 1.427 . S
C359 H349 0.929 . S
C359 C357 1.433 . S
C359 N362 1.384 . S
C360 H351 0.929 . S
C360 C352 1.378 . S
C360 C355 1.350 . S
C361 H348 0.929 . S
C361 C353 1.433 . S
C361 N363 1.384 . S
N362 C358 1.427 . S
N362 C359 1.384 . S
N363 C355 1.427 . S
N363 C361 1.384 . S
H364 C370 0.930 . S
H365 C374 0.930 . S
H366 C379 0.929 . S
H367 C377 0.929 . S
H368 C372 0.929 1_565 S
H369 C378 0.929 . S
C370 H364 0.930 . S
C370 C371 1.367 . S
C370 C378 1.378 . S
C371 C370 1.367 . S
C371 C379 1.433 . S
C372 H368 0.929 1_545 S
C372 C374 1.378 1_545 S
C372 C376 1.350 . S
C373 C376 1.463 . S
C373 C378 1.350 . S
C373 N381 1.427 . S
C374 H365 0.930 . S
C374 C372 1.378 1_565 S
C374 C375 1.367 1_565 S
C375 C374 1.367 1_545 S
C375 C377 1.433 . S
C376 C372 1.350 . S
C376 C373 1.463 . S
C376 N380 1.427 . S
C377 H367 0.929 . S
C377 C375 1.433 . S
C377 N380 1.384 . S
C378 H369 0.929 . S
C378 C370 1.378 . S
C378 C373 1.350 . S
C379 H366 0.929 . S
C379 C371 1.433 . S
C379 N381 1.384 . S
N380 C376 1.427 . S
N380 C377 1.384 . S
N381 C373 1.427 . S
N381 C379 1.384 . S
H382 C388 0.930 . S
H383 C392 0.930 . S
H384 C397 0.929 . S
H385 C395 0.929 . S
H386 C390 0.929 . S
H387 C396 0.929 1_455 S
C388 H382 0.930 . S
C388 C389 1.367 1_455 S
C388 C396 1.378 1_455 S
C389 C388 1.367 1_655 S
C389 C397 1.433 . S
C390 H386 0.929 . S
C390 C392 1.378 . S
C390 C394 1.350 . S
C391 C394 1.463 . S
C391 C396 1.350 . S
C391 N399 1.427 . S
C392 H383 0.930 . S
C392 C390 1.378 . S
C392 C393 1.367 . S
C393 C392 1.367 . S
C393 C395 1.433 . S
C394 C390 1.350 . S
C394 C391 1.463 . S
C394 N398 1.427 . S
C395 H385 0.929 . S
C395 C393 1.433 . S
C395 N398 1.384 . S
C396 H387 0.929 1_655 S
C396 C388 1.378 1_655 S
C396 C391 1.350 . S
C397 H384 0.929 . S
C397 C389 1.433 . S
C397 N399 1.384 . S
N398 C394 1.427 . S
N398 C395 1.384 . S
N399 C391 1.427 . S
N399 C397 1.384 . S
C119 C63 1.585 . S
C123 C8 1.614 . S
C137 C22 1.618 . S
C141 C78 1.617 . S
C155 C36 1.610 . S
C159 C91 1.581 . S
C173 C106 1.611 . S
C177 C50 1.611 . S
C191 C7 1.497 . S
C195 C35 1.505 . S
C209 C21 1.422 . S
C213 C49 1.419 . S
C227 C92 1.382 . S
C231 C64 1.381 . S
C245 C77 1.382 . S
C249 C105 1.391 . S
C263 C79 1.046 . S
C267 C3 1.067 . S
C281 C17 0.989 . S
C285 C87 0.977 . S
C299 C31 1.062 . S
C303 C107 1.050 . S
C317 C59 0.977 . S
C321 C45 0.973 . S
C335 C65 0.976 . S
C339 C23 0.957 . S
C353 C73 1.027 . S
C357 C37 0.997 . S
C371 C93 0.954 . S
C375 C51 0.968 . S
C389 C9 1.001 . S
C393 C101 1.014 . S
