# Generated by pormake.
# Topology pcb, (4)-cn, num edge types: 1
# Building blocks:
#     Node 0, Type 0, BuildingBlock: CEKHIL_clean_sbu_0, # of connection points: 4
#     Node 1, Type 0, BuildingBlock: CEKHIL_clean_sbu_0, # of connection points: 4
#     Node 2, Type 0, BuildingBlock: CEKHIL_clean_sbu_0, # of connection points: 4
#     Node 3, Type 0, BuildingBlock: CEKHIL_clean_sbu_0, # of connection points: 4
#     Node 4, Type 0, BuildingBlock: CEKHIL_clean_sbu_0, # of connection points: 4
#     Node 5, Type 0, BuildingBlock: CEKHIL_clean_sbu_0, # of connection points: 4
#     Node 6, Type 0, BuildingBlock: CEKHIL_clean_sbu_0, # of connection points: 4
#     Node 7, Type 0, BuildingBlock: CEKHIL_clean_sbu_0, # of connection points: 4
#     Node 8, Type 0, BuildingBlock: CEKHIL_clean_sbu_0, # of connection points: 4
#     Node 9, Type 0, BuildingBlock: CEKHIL_clean_sbu_0, # of connection points: 4
#     Node 10, Type 0, BuildingBlock: CEKHIL_clean_sbu_0, # of connection points: 4
#     Node 11, Type 0, BuildingBlock: CEKHIL_clean_sbu_0, # of connection points: 4
#     Node 12, Type 0, BuildingBlock: CEKHIL_clean_sbu_0, # of connection points: 4
#     Node 13, Type 0, BuildingBlock: CEKHIL_clean_sbu_0, # of connection points: 4
#     Node 14, Type 0, BuildingBlock: CEKHIL_clean_sbu_0, # of connection points: 4
#     Node 15, Type 0, BuildingBlock: CEKHIL_clean_sbu_0, # of connection points: 4
#     Edge 16, Type (0, 0), BuildingBlock: EZIPEK_clean_linker_0, # of connection points: 2
#     Edge 17, Type (0, 0), BuildingBlock: EZIPEK_clean_linker_0, # of connection points: 2
#     Edge 18, Type (0, 0), BuildingBlock: EZIPEK_clean_linker_0, # of connection points: 2
#     Edge 19, Type (0, 0), BuildingBlock: EZIPEK_clean_linker_0, # of connection points: 2
#     Edge 20, Type (0, 0), BuildingBlock: EZIPEK_clean_linker_0, # of connection points: 2
#     Edge 21, Type (0, 0), BuildingBlock: EZIPEK_clean_linker_0, # of connection points: 2
#     Edge 22, Type (0, 0), BuildingBlock: EZIPEK_clean_linker_0, # of connection points: 2
#     Edge 23, Type (0, 0), BuildingBlock: EZIPEK_clean_linker_0, # of connection points: 2
#     Edge 24, Type (0, 0), BuildingBlock: EZIPEK_clean_linker_0, # of connection points: 2
#     Edge 25, Type (0, 0), BuildingBlock: EZIPEK_clean_linker_0, # of connection points: 2
#     Edge 26, Type (0, 0), BuildingBlock: EZIPEK_clean_linker_0, # of connection points: 2
#     Edge 27, Type (0, 0), BuildingBlock: EZIPEK_clean_linker_0, # of connection points: 2
#     Edge 28, Type (0, 0), BuildingBlock: EZIPEK_clean_linker_0, # of connection points: 2
#     Edge 29, Type (0, 0), BuildingBlock: EZIPEK_clean_linker_0, # of connection points: 2
#     Edge 30, Type (0, 0), BuildingBlock: EZIPEK_clean_linker_0, # of connection points: 2
#     Edge 31, Type (0, 0), BuildingBlock: EZIPEK_clean_linker_0, # of connection points: 2
#     Edge 32, Type (0, 0), BuildingBlock: EZIPEK_clean_linker_0, # of connection points: 2
#     Edge 33, Type (0, 0), BuildingBlock: EZIPEK_clean_linker_0, # of connection points: 2
#     Edge 34, Type (0, 0), BuildingBlock: EZIPEK_clean_linker_0, # of connection points: 2
#     Edge 35, Type (0, 0), BuildingBlock: EZIPEK_clean_linker_0, # of connection points: 2
#     Edge 36, Type (0, 0), BuildingBlock: EZIPEK_clean_linker_0, # of connection points: 2
#     Edge 37, Type (0, 0), BuildingBlock: EZIPEK_clean_linker_0, # of connection points: 2
#     Edge 38, Type (0, 0), BuildingBlock: EZIPEK_clean_linker_0, # of connection points: 2
#     Edge 39, Type (0, 0), BuildingBlock: EZIPEK_clean_linker_0, # of connection points: 2
#     Edge 40, Type (0, 0), BuildingBlock: EZIPEK_clean_linker_0, # of connection points: 2
#     Edge 41, Type (0, 0), BuildingBlock: EZIPEK_clean_linker_0, # of connection points: 2
#     Edge 42, Type (0, 0), BuildingBlock: EZIPEK_clean_linker_0, # of connection points: 2
#     Edge 43, Type (0, 0), BuildingBlock: EZIPEK_clean_linker_0, # of connection points: 2
#     Edge 44, Type (0, 0), BuildingBlock: EZIPEK_clean_linker_0, # of connection points: 2
#     Edge 45, Type (0, 0), BuildingBlock: EZIPEK_clean_linker_0, # of connection points: 2
#     Edge 46, Type (0, 0), BuildingBlock: EZIPEK_clean_linker_0, # of connection points: 2
#     Edge 47, Type (0, 0), BuildingBlock: EZIPEK_clean_linker_0, # of connection points: 2
# Relax obj value: 0.229
# Max RMSD: 0.084
# Mean RMSD: 0.084
data_MOF--net-pcb--node1-CEKHIL_clean_sbu_0--edge1-EZIPEK_clean_linker_0
_symmetry_space_group_name_H-M    P1
_symmetry_Int_Tables_number       1
_symmetry_cell_setting            triclinic
loop_
_symmetry_equiv_pos_as_xyz
'x, y, z'
_cell_length_a     41.71488
_cell_length_b     26.87394
_cell_length_c     26.861444
_cell_angle_alpha  89.987339
_cell_angle_beta   90.041745
_cell_angle_gamma 90.029771
loop_
_atom_site_label
_atom_site_type_symbol
_atom_site_fract_x
_atom_site_fract_y
_atom_site_fract_z
_atom_type_partial_charge
Co0 Co 0.13914 0.18635 0.20106 0.0
O1 O 0.18479 0.17694 0.19575 0.0
O2 O 0.16179 0.24462 0.22611 0.0
C3 C 0.13031 0.1099 0.23356 0.0
O4 O 0.0925 0.2082 0.21387 0.0
Co5 Co 0.09279 0.11683 0.14259 0.0
O6 O 0.05908 0.15063 0.18151 0.0
C7 C 0.12817 0.1963 0.09001 0.0
C8 C 0.188 0.2205 0.2156 0.0
C9 C 0.06417 0.19022 0.20631 0.0
O10 O 0.1379 0.21502 0.13149 0.0
O11 O 0.11219 0.15579 0.08667 0.0
O12 O 0.13872 0.14642 0.26237 0.0
O13 O 0.1292 0.11989 0.18672 0.0
Co14 Co 0.86369 0.19172 0.19566 0.0
O15 O 0.81793 0.18155 0.19333 0.0
O16 O 0.84347 0.21902 0.25491 0.0
C17 C 0.86608 0.21979 0.11629 0.0
O18 O 0.91067 0.21054 0.21013 0.0
Co19 Co 0.90891 0.13558 0.12329 0.0
O20 O 0.94228 0.18109 0.14894 0.0
C21 C 0.88308 0.08407 0.21253 0.0
C22 C 0.81634 0.20569 0.2349 0.0
C23 C 0.93825 0.20592 0.18878 0.0
O24 O 0.87033 0.12468 0.22864 0.0
O25 O 0.89694 0.08057 0.17013 0.0
O26 O 0.85877 0.25004 0.15215 0.0
O27 O 0.87012 0.17397 0.12883 0.0
Co28 Co 0.86784 0.80541 0.20267 0.0
O29 O 0.82219 0.81456 0.19564 0.0
O30 O 0.84487 0.74706 0.22691 0.0
C31 C 0.87611 0.88204 0.23542 0.0
O32 O 0.91421 0.78357 0.21758 0.0
Co33 Co 0.91533 0.87519 0.14656 0.0
O34 O 0.94836 0.8407 0.18636 0.0
C35 C 0.88106 0.79563 0.09217 0.0
C36 C 0.81875 0.77104 0.21556 0.0
C37 C 0.94272 0.80124 0.21108 0.0
O38 O 0.87038 0.7768 0.13306 0.0
O39 O 0.89706 0.8362 0.08981 0.0
O40 O 0.86724 0.84554 0.26394 0.0
O41 O 0.87804 0.87191 0.18871 0.0
Co42 Co 0.14162 0.80022 0.1934 0.0
O43 O 0.18717 0.81098 0.18617 0.0
O44 O 0.16457 0.77428 0.2509 0.0
C45 C 0.13551 0.77062 0.11505 0.0
O46 O 0.09546 0.7811 0.21273 0.0
Co47 Co 0.09372 0.85641 0.12452 0.0
O48 O 0.0612 0.81357 0.15641 0.0
C49 C 0.12278 0.90817 0.21095 0.0
C50 C 0.1907 0.78802 0.22816 0.0
C51 C 0.06699 0.7873 0.19482 0.0
O52 O 0.13602 0.86759 0.22617 0.0
O53 O 0.10762 0.91164 0.16961 0.0
O54 O 0.14485 0.74119 0.15049 0.0
O55 O 0.13205 0.81666 0.12714 0.0
Co56 Co 0.14377 0.80667 0.80176 0.0
O57 O 0.18958 0.81414 0.80952 0.0
O58 O 0.16607 0.74831 0.77643 0.0
C59 C 0.13696 0.88398 0.76988 0.0
O60 O 0.09712 0.78689 0.78598 0.0
Co61 Co 0.09739 0.87767 0.85845 0.0
O62 O 0.06381 0.84443 0.81859 0.0
C63 C 0.12787 0.79341 0.91155 0.0
C64 C 0.19254 0.77149 0.78768 0.0
C65 C 0.06886 0.80518 0.79323 0.0
O66 O 0.13973 0.77632 0.87065 0.0
O67 O 0.11303 0.835 0.91448 0.0
O68 O 0.14559 0.84762 0.7411 0.0
O69 O 0.13464 0.87338 0.81647 0.0
Co70 Co 0.14448 0.19469 0.8077 0.0
O71 O 0.19038 0.18629 0.81248 0.0
O72 O 0.16571 0.22217 0.74921 0.0
C73 C 0.14005 0.22307 0.88668 0.0
O74 O 0.09732 0.21143 0.79095 0.0
Co75 Co 0.09908 0.13652 0.87878 0.0
O76 O 0.0651 0.17882 0.84995 0.0
C77 C 0.12763 0.08594 0.79118 0.0
C78 C 0.1926 0.20962 0.77051 0.0
C79 C 0.0694 0.20461 0.81076 0.0
O80 O 0.13959 0.12712 0.77499 0.0
O81 O 0.11337 0.08194 0.8332 0.0
O82 O 0.14758 0.25351 0.85105 0.0
O83 O 0.13697 0.1771 0.87418 0.0
Co84 Co 0.86722 0.19183 0.80115 0.0
O85 O 0.82122 0.18685 0.80691 0.0
O86 O 0.84675 0.25163 0.7752 0.0
C87 C 0.87257 0.11408 0.77015 0.0
O88 O 0.91467 0.20952 0.78765 0.0
Co89 Co 0.91191 0.11943 0.85879 0.0
O90 O 0.94638 0.14863 0.81772 0.0
C91 C 0.87827 0.20052 0.91183 0.0
C92 C 0.81966 0.23023 0.78622 0.0
C93 C 0.94246 0.18901 0.79373 0.0
O94 O 0.8696 0.22078 0.8705 0.0
O95 O 0.89288 0.15878 0.91479 0.0
O96 O 0.86572 0.15079 0.74055 0.0
O97 O 0.87461 0.12492 0.81668 0.0
Co98 Co 0.86864 0.80157 0.80937 0.0
O99 O 0.82295 0.80962 0.81557 0.0
O100 O 0.84711 0.77514 0.75082 0.0
C101 C 0.87446 0.77203 0.88776 0.0
O102 O 0.9154 0.78531 0.79069 0.0
Co103 Co 0.91499 0.85953 0.87861 0.0
O104 O 0.94857 0.81733 0.84867 0.0
C105 C 0.88213 0.91133 0.79599 0.0
C106 C 0.82054 0.78802 0.77269 0.0
C107 C 0.94358 0.79159 0.80966 0.0
O108 O 0.87196 0.86978 0.77809 0.0
O109 O 0.89747 0.91516 0.83707 0.0
O110 O 0.86662 0.74211 0.85182 0.0
O111 O 0.87713 0.81828 0.8759 0.0
Co112 Co 0.64373 0.69473 0.70131 0.0
O113 O 0.68943 0.68749 0.69446 0.0
O114 O 0.66562 0.75332 0.72724 0.0
C115 C 0.6373 0.6169 0.73204 0.0
O116 O 0.597 0.71459 0.71612 0.0
Co117 Co 0.59726 0.6245 0.64422 0.0
O118 O 0.56358 0.65673 0.6845 0.0
C119 C 0.63008 0.70663 0.5912 0.0
C120 C 0.69213 0.7305 0.7157 0.0
C121 C 0.56869 0.69633 0.70927 0.0
O122 O 0.64081 0.72483 0.63237 0.0
O123 O 0.61453 0.66567 0.58819 0.0
O124 O 0.645 0.6532 0.7616 0.0
O125 O 0.63494 0.62813 0.68562 0.0
Co126 Co 0.36944 0.70953 0.68106 0.0
O127 O 0.32386 0.70089 0.67273 0.0
O128 O 0.34651 0.73482 0.73884 0.0
C129 C 0.3772 0.74084 0.60353 0.0
O130 O 0.41581 0.72526 0.70228 0.0
Co131 Co 0.41668 0.65194 0.61205 0.0
O132 O 0.4501 0.6896 0.64799 0.0
C133 C 0.38251 0.59931 0.69267 0.0
C134 C 0.32031 0.72207 0.71568 0.0
C135 C 0.4444 0.7162 0.68618 0.0
O136 O 0.37257 0.64072 0.71125 0.0
O137 O 0.39789 0.59598 0.65162 0.0
O138 O 0.3681 0.76994 0.63942 0.0
O139 O 0.37949 0.69443 0.61486 0.0
Co140 Co 0.36752 0.31459 0.69502 0.0
O141 O 0.32177 0.31932 0.68615 0.0
O142 O 0.34611 0.25765 0.72519 0.0
C143 C 0.37246 0.39474 0.71981 0.0
O144 O 0.41448 0.29753 0.71237 0.0
Co145 Co 0.41377 0.38176 0.63434 0.0
O146 O 0.44743 0.35464 0.67841 0.0
C147 C 0.382 0.29543 0.5865 0.0
C148 C 0.31935 0.27837 0.71122 0.0
C149 C 0.44264 0.31636 0.7053 0.0
O150 O 0.37153 0.27951 0.62873 0.0
O151 O 0.39702 0.33661 0.58095 0.0
O152 O 0.36486 0.36052 0.75181 0.0
O153 O 0.37549 0.38017 0.67442 0.0
Co154 Co 0.64349 0.3049 0.68893 0.0
O155 O 0.68931 0.31225 0.68268 0.0
O156 O 0.6653 0.27709 0.74697 0.0
C157 C 0.63757 0.27678 0.60998 0.0
O158 O 0.59649 0.2895 0.70753 0.0
Co159 Co 0.59739 0.36381 0.61944 0.0
O160 O 0.5636 0.3219 0.64931 0.0
C161 C 0.62968 0.41438 0.70376 0.0
C162 C 0.69194 0.28948 0.72492 0.0
C163 C 0.56832 0.2965 0.68863 0.0
O164 O 0.64027 0.37277 0.72108 0.0
O165 O 0.61447 0.4185 0.66257 0.0
O166 O 0.64512 0.24606 0.6454 0.0
O167 O 0.63514 0.32274 0.6227 0.0
Co168 Co 0.63982 0.31243 0.29536 0.0
O169 O 0.68532 0.32109 0.30424 0.0
O170 O 0.66282 0.25438 0.27107 0.0
C171 C 0.63216 0.3896 0.26316 0.0
O172 O 0.59359 0.29077 0.27928 0.0
Co173 Co 0.59206 0.38134 0.35159 0.0
O174 O 0.5589 0.34528 0.3135 0.0
C175 C 0.62621 0.30165 0.4056 0.0
C176 C 0.68892 0.27778 0.28383 0.0
C177 C 0.56489 0.30685 0.28744 0.0
O178 O 0.63665 0.28302 0.36452 0.0
O179 O 0.61039 0.34232 0.40835 0.0
O180 O 0.64132 0.35338 0.23452 0.0
O181 O 0.6296 0.37877 0.3097 0.0
Co182 Co 0.64192 0.70019 0.31013 0.0
O183 O 0.68775 0.69283 0.31604 0.0
O184 O 0.66329 0.72533 0.25064 0.0
C185 C 0.63662 0.73179 0.38786 0.0
O186 O 0.59496 0.71484 0.29148 0.0
Co187 Co 0.59643 0.64418 0.3831 0.0
O188 O 0.56211 0.68232 0.34969 0.0
C189 C 0.62693 0.5905 0.29927 0.0
C190 C 0.69003 0.71364 0.27277 0.0
C191 C 0.56678 0.70683 0.30977 0.0
O192 O 0.63789 0.63129 0.28065 0.0
O193 O 0.61247 0.58785 0.34122 0.0
O194 O 0.64401 0.76086 0.35104 0.0
O195 O 0.63399 0.68533 0.37719 0.0
Co196 Co 0.36657 0.68364 0.29595 0.0
O197 O 0.32097 0.67989 0.30605 0.0
O198 O 0.34548 0.74194 0.26781 0.0
C199 C 0.37005 0.60412 0.26881 0.0
O200 O 0.41347 0.69973 0.27819 0.0
Co201 Co 0.41216 0.61281 0.35398 0.0
O202 O 0.4461 0.64187 0.31173 0.0
C203 C 0.38317 0.70008 0.40422 0.0
C204 C 0.31869 0.7214 0.28194 0.0
C205 C 0.44154 0.68081 0.28567 0.0
O206 O 0.37216 0.71702 0.36273 0.0
O207 O 0.39721 0.65794 0.40862 0.0
O208 O 0.3626 0.63945 0.23797 0.0
O209 O 0.37375 0.6173 0.3145 0.0
Co210 Co 0.36572 0.29032 0.30736 0.0
O211 O 0.32002 0.29706 0.31526 0.0
O212 O 0.34345 0.26372 0.24935 0.0
C213 C 0.37292 0.2607 0.38541 0.0
O214 O 0.41242 0.27576 0.28709 0.0
Co215 Co 0.41226 0.34914 0.37631 0.0
O216 O 0.44584 0.30841 0.34447 0.0
C217 C 0.37842 0.40035 0.29413 0.0
C218 C 0.31708 0.27564 0.27238 0.0
C219 C 0.44073 0.28308 0.30522 0.0
O220 O 0.36814 0.35877 0.27639 0.0
O221 O 0.39403 0.40428 0.33496 0.0
O222 O 0.36493 0.23058 0.3497 0.0
O223 O 0.37494 0.30695 0.3735 0.0
C224 C 0.26922 0.28688 0.2157 0.0
C225 C 0.28484 0.26042 0.25451 0.0
C226 C 0.23521 0.21484 0.27221 0.0
C227 C 0.22027 0.23809 0.23089 0.0
N228 N 0.22366 0.29169 0.15925 0.0
N229 N 0.2849 0.19229 0.31287 0.0
C230 C 0.23743 0.27297 0.20145 0.0
C231 C 0.26841 0.22243 0.28083 0.0
N232 N 0.2844 0.32613 0.19357 0.0
N233 N 0.21738 0.18651 0.30417 0.0
H234 H 0.30946 0.19581 0.31906 0.0
H235 H 0.27505 0.16071 0.32935 0.0
H236 H 0.19285 0.18074 0.29953 0.0
H237 H 0.22611 0.17286 0.33784 0.0
H238 H 0.27317 0.35039 0.16888 0.0
H239 H 0.30787 0.33634 0.20234 0.0
H240 H 0.23602 0.31297 0.13318 0.0
H241 H 0.20018 0.28328 0.14873 0.0
C242 C 0.74461 0.29043 0.25045 0.0
C243 C 0.72163 0.25833 0.27268 0.0
C244 C 0.76069 0.19025 0.26911 0.0
C245 C 0.78478 0.22409 0.253 0.0
N246 N 0.80044 0.30907 0.23567 0.0
N247 N 0.71028 0.17988 0.31271 0.0
C248 C 0.77708 0.27514 0.24675 0.0
C249 C 0.73033 0.20877 0.28476 0.0
N250 N 0.73499 0.33398 0.22892 0.0
N251 N 0.76639 0.14029 0.26832 0.0
H252 H 0.68835 0.19258 0.32627 0.0
H253 H 0.71686 0.14516 0.32663 0.0
H254 H 0.78815 0.12547 0.25681 0.0
H255 H 0.74865 0.11372 0.27468 0.0
H256 H 0.75008 0.35667 0.20796 0.0
H257 H 0.71099 0.34402 0.22634 0.0
H258 H 0.79649 0.34736 0.23646 0.0
H259 H 0.82432 0.29965 0.22961 0.0
C260 C 0.77061 0.7783 0.27011 0.0
C261 C 0.78634 0.7535 0.23048 0.0
C262 C 0.73838 0.70176 0.21714 0.0
C263 C 0.72196 0.72963 0.25408 0.0
N264 N 0.72019 0.80111 0.30818 0.0
N265 N 0.7845 0.69583 0.16196 0.0
C266 C 0.73746 0.76986 0.27833 0.0
C267 C 0.77004 0.71626 0.20274 0.0
N268 N 0.78767 0.80867 0.30121 0.0
N269 N 0.72402 0.6608 0.19686 0.0
H270 H 0.80784 0.70487 0.15131 0.0
H271 H 0.77278 0.67242 0.137 0.0
H272 H 0.70058 0.65034 0.20554 0.0
H273 H 0.73584 0.63566 0.17383 0.0
H274 H 0.77832 0.82367 0.33386 0.0
H275 H 0.81219 0.81476 0.29722 0.0
H276 H 0.72936 0.83405 0.32286 0.0
H277 H 0.69566 0.79692 0.31403 0.0
C278 C 0.27731 0.7903 0.27598 0.0
C279 C 0.28655 0.74037 0.26689 0.0
C280 C 0.23174 0.72086 0.23959 0.0
C281 C 0.22317 0.77172 0.24447 0.0
N282 N 0.2404 0.85677 0.25571 0.0
N283 N 0.27492 0.66274 0.2254 0.0
C284 C 0.24676 0.8071 0.25909 0.0
C285 C 0.26437 0.7068 0.24485 0.0
N286 N 0.29703 0.82123 0.30229 0.0
N287 N 0.209 0.68585 0.22872 0.0
H288 H 0.29908 0.65304 0.22427 0.0
H289 H 0.26042 0.63884 0.20475 0.0
H290 H 0.18511 0.69439 0.22136 0.0
H291 H 0.21343 0.64774 0.23066 0.0
H292 H 0.29004 0.85642 0.31439 0.0
H293 H 0.31929 0.81007 0.31598 0.0
H294 H 0.25769 0.8842 0.26124 0.0
H295 H 0.21866 0.87033 0.24253 0.0
C296 C 0.27941 0.72494 0.78557 0.0
C297 C 0.28758 0.73381 0.73508 0.0
C298 C 0.23173 0.75791 0.71816 0.0
C299 C 0.22459 0.7548 0.76971 0.0
N300 N 0.24442 0.74685 0.85381 0.0
N301 N 0.27306 0.77278 0.65721 0.0
C302 C 0.24928 0.74181 0.80387 0.0
C303 C 0.26409 0.75377 0.70225 0.0
N304 N 0.2997 0.69876 0.81571 0.0
N305 N 0.20792 0.76646 0.68423 0.0
H306 H 0.2969 0.7752 0.64627 0.0
H307 H 0.25753 0.79208 0.63375 0.0
H308 H 0.18414 0.77298 0.69397 0.0
H309 H 0.21145 0.76327 0.64595 0.0
H310 H 0.29343 0.68729 0.85147 0.0
H311 H 0.32133 0.68388 0.80328 0.0
H312 H 0.26259 0.74245 0.88009 0.0
H313 H 0.22313 0.76052 0.86841 0.0
C314 C 0.2324 0.27808 0.75474 0.0
C315 C 0.22453 0.22672 0.75223 0.0
C316 C 0.27846 0.20905 0.71946 0.0
C317 C 0.28722 0.25951 0.72666 0.0
N318 N 0.27489 0.33837 0.76521 0.0
N319 N 0.24312 0.14201 0.7438 0.0
C320 C 0.26477 0.29317 0.74787 0.0
C321 C 0.24849 0.19176 0.73814 0.0
N322 N 0.2093 0.31261 0.76513 0.0
N323 N 0.29808 0.17794 0.69324 0.0
H324 H 0.22192 0.12799 0.75846 0.0
H325 H 0.26084 0.11517 0.73874 0.0
H326 H 0.31981 0.18944 0.67793 0.0
H327 H 0.29131 0.14217 0.68256 0.0
H328 H 0.21308 0.35077 0.76143 0.0
H329 H 0.18572 0.30346 0.77395 0.0
H330 H 0.26028 0.36255 0.78527 0.0
H331 H 0.2989 0.34907 0.76527 0.0
C332 C 0.77631 0.23656 0.72262 0.0
C333 C 0.78812 0.25026 0.77011 0.0
C334 C 0.73678 0.29143 0.78884 0.0
C335 C 0.72415 0.27365 0.74305 0.0
N336 N 0.72958 0.21899 0.67236 0.0
N337 N 0.77903 0.28585 0.85112 0.0
C338 C 0.74334 0.24351 0.7115 0.0
C339 C 0.76815 0.27627 0.80411 0.0
N340 N 0.79666 0.21698 0.68789 0.0
N341 N 0.71935 0.32417 0.81675 0.0
H342 H 0.80237 0.27757 0.86242 0.0
H343 H 0.76453 0.29942 0.87957 0.0
H344 H 0.69635 0.3357 0.80677 0.0
H345 H 0.72845 0.34254 0.84782 0.0
H346 H 0.79018 0.21126 0.65087 0.0
H347 H 0.82094 0.21088 0.69476 0.0
H348 H 0.7416 0.19272 0.65084 0.0
H349 H 0.70509 0.22049 0.66494 0.0
C350 C 0.77028 0.80503 0.72327 0.0
C351 C 0.7886 0.77279 0.75402 0.0
C352 C 0.74169 0.71961 0.76635 0.0
C353 C 0.72422 0.74855 0.73151 0.0
N354 N 0.72248 0.81594 0.67246 0.0
N355 N 0.79367 0.69471 0.79751 0.0
C356 C 0.73862 0.79069 0.70881 0.0
C357 C 0.77488 0.72858 0.7732 0.0
N358 N 0.78293 0.84964 0.70876 0.0
N359 N 0.72614 0.68513 0.7949 0.0
H360 H 0.81818 0.69988 0.80309 0.0
H361 H 0.78566 0.65945 0.80775 0.0
H362 H 0.70144 0.67974 0.79305 0.0
H363 H 0.73695 0.66613 0.82425 0.0
H364 H 0.76967 0.87728 0.69105 0.0
H365 H 0.80641 0.86016 0.71714 0.0
H366 H 0.73285 0.84373 0.65078 0.0
H367 H 0.69915 0.80682 0.66177 0.0
C368 C 0.16771 0.23027 0.96836 0.0
C369 C 0.13953 0.23734 0.93981 0.0
C370 C 0.10741 0.24077 0.01575 0.0
C371 C 0.13422 0.22289 0.04277 0.0
N372 N 0.19075 0.20561 0.04781 0.0
N373 N 0.08367 0.25738 0.93482 0.0
C374 C 0.16491 0.22049 0.02027 0.0
C375 C 0.10976 0.24612 0.96329 0.0
N376 N 0.19686 0.232 0.94529 0.0
N377 N 0.07973 0.25167 0.04063 0.0
H378 H 0.08588 0.26454 0.89689 0.0
H379 H 0.06027 0.2591 0.94803 0.0
H380 H 0.07787 0.24792 0.07917 0.0
H381 H 0.05961 0.26761 0.02424 0.0
H382 H 0.2187 0.23045 0.96396 0.0
H383 H 0.19913 0.2393 0.90729 0.0
H384 H 0.21316 0.19768 0.03286 0.0
H385 H 0.18948 0.19974 0.08614 0.0
C386 C 0.84051 0.21522 0.9818 0.0
C387 C 0.87065 0.22493 0.95961 0.0
C388 C 0.89172 0.25389 0.03963 0.0
C389 C 0.86434 0.23375 0.06309 0.0
N390 N 0.81057 0.20189 0.05829 0.0
N391 N 0.92399 0.25844 0.96447 0.0
C392 C 0.83776 0.2174 0.03453 0.0
C393 C 0.8958 0.24683 0.98757 0.0
N394 N 0.81503 0.20267 0.95237 0.0
N395 N 0.91369 0.27911 0.06751 0.0
H396 H 0.9268 0.2555 0.926 0.0
H397 H 0.94465 0.26957 0.98313 0.0
H398 H 0.91001 0.28555 0.10532 0.0
H399 H 0.93357 0.29735 0.05287 0.0
H400 H 0.79172 0.19827 0.96539 0.0
H401 H 0.81682 0.20031 0.91372 0.0
H402 H 0.7915 0.18417 0.04073 0.0
H403 H 0.80739 0.20615 0.09658 0.0
C404 C 0.84511 0.76174 0.96781 0.0
C405 C 0.87415 0.75721 0.9408 0.0
C406 C 0.90432 0.75327 0.01871 0.0
C407 C 0.87652 0.76909 0.04446 0.0
N408 N 0.81962 0.78376 0.04615 0.0
N409 N 0.93077 0.74198 0.93905 0.0
C410 C 0.84641 0.77057 0.02005 0.0
C411 C 0.90354 0.74987 0.96598 0.0
N412 N 0.81655 0.7586 0.94307 0.0
N413 N 0.93145 0.74246 0.04511 0.0
H414 H 0.92999 0.7364 0.90074 0.0
H415 H 0.95379 0.74195 0.95399 0.0
H416 H 0.93216 0.74478 0.08386 0.0
H417 H 0.95216 0.7276 0.02952 0.0
H418 H 0.79433 0.75806 0.96061 0.0
H419 H 0.81527 0.75209 0.90482 0.0
H420 H 0.79753 0.79127 0.02981 0.0
H421 H 0.81979 0.78878 0.08464 0.0
C422 C 0.1033 0.75179 0.03925 0.0
C423 C 0.13368 0.75523 0.06228 0.0
C424 C 0.1593 0.75283 0.98046 0.0
C425 C 0.12935 0.764 0.95849 0.0
N426 N 0.07181 0.76324 0.96402 0.0
N427 N 0.19132 0.7543 0.05582 0.0
C428 C 0.1009 0.7591 0.98702 0.0
C429 C 0.16199 0.75323 0.0332 0.0
N430 N 0.07705 0.74148 0.06764 0.0
N431 N 0.18473 0.74097 0.95105 0.0
H432 H 0.19408 0.75264 0.09438 0.0
H433 H 0.21274 0.75903 0.03648 0.0
H434 H 0.18188 0.7354 0.913 0.0
H435 H 0.20691 0.72976 0.96485 0.0
H436 H 0.05414 0.73563 0.05347 0.0
H437 H 0.07924 0.73403 0.10551 0.0
H438 H 0.05006 0.76563 0.98281 0.0
H439 H 0.0697 0.76526 0.92535 0.0
C440 C 0.02151 0.25315 0.19039 0.0
C441 C 0.035 0.21726 0.22273 0.0
C442 C 0.98164 0.19397 0.25227 0.0
C443 C 0.9681 0.22332 0.21369 0.0
N444 N 0.97316 0.29499 0.16152 0.0
N445 N 0.02979 0.17167 0.29859 0.0
C446 C 0.98755 0.25809 0.18816 0.0
C447 C 0.0155 0.19409 0.25885 0.0
N448 N 0.04118 0.28001 0.16001 0.0
N449 N 0.96246 0.16342 0.27986 0.0
H450 H 0.05457 0.1738 0.3038 0.0
H451 H 0.01722 0.15601 0.32817 0.0
H452 H 0.93754 0.16402 0.277 0.0
H453 H 0.97123 0.13668 0.30438 0.0
H454 H 0.03304 0.30298 0.13149 0.0
H455 H 0.06608 0.27838 0.16343 0.0
H456 H 0.98552 0.32318 0.14316 0.0
H457 H 0.94836 0.29973 0.16264 0.0
C458 C 0.90921 0.95707 0.25315 0.0
C459 C 0.8787 0.9342 0.25253 0.0
C460 C 0.85347 0.01615 0.25776 0.0
C461 C 0.88289 0.0379 0.24329 0.0
N462 N 0.94033 0.03232 0.2393 0.0
N463 N 0.82122 0.94113 0.25897 0.0
C464 C 0.91142 0.00931 0.24579 0.0
C465 C 0.85061 0.96347 0.25745 0.0
N466 N 0.93575 0.92844 0.26055 0.0
N467 N 0.82875 0.04566 0.27259 0.0
H468 H 0.81841 0.90262 0.26052 0.0
H469 H 0.79973 0.9607 0.25641 0.0
H470 H 0.83196 0.08363 0.2782 0.0
H471 H 0.80712 0.03189 0.28618 0.0
H472 H 0.95893 0.94234 0.26394 0.0
H473 H 0.93372 0.89055 0.2679 0.0
H474 H 0.962 0.0136 0.23534 0.0
H475 H 0.9423 0.07099 0.2372 0.0
C476 C 0.99068 0.79815 0.26516 0.0
C477 C 0.97148 0.77415 0.22912 0.0
C478 C 0.01922 0.7325 0.19676 0.0
C479 C 0.03831 0.7683 0.22141 0.0
N480 N 0.04367 0.82928 0.2863 0.0
N481 N 0.9659 0.70997 0.16767 0.0
C482 C 0.02457 0.79823 0.25916 0.0
C483 C 0.98524 0.73741 0.19805 0.0
N484 N 0.9761 0.82159 0.30398 0.0
N485 N 0.03395 0.69499 0.17149 0.0
H486 H 0.94096 0.7119 0.1701 0.0
H487 H 0.97439 0.68633 0.13997 0.0
H488 H 0.05884 0.69082 0.17269 0.0
H489 H 0.02177 0.66604 0.15401 0.0
H490 H 0.98846 0.83817 0.3333 0.0
H491 H 0.95127 0.8196 0.30872 0.0
H492 H 0.03488 0.85635 0.31041 0.0
H493 H 0.06861 0.82849 0.28338 0.0
C494 C 0.09732 0.03499 0.25222 0.0
C495 C 0.12784 0.05779 0.2507 0.0
C496 C 0.15322 0.97589 0.25524 0.0
C497 C 0.12358 0.95419 0.24184 0.0
N498 N 0.06609 0.95931 0.24115 0.0
N499 N 0.18536 0.05108 0.25621 0.0
C500 C 0.09505 0.98265 0.24565 0.0
C501 C 0.15601 0.02859 0.25505 0.0
N502 N 0.07085 0.06383 0.25944 0.0
N503 N 0.1782 0.94636 0.26908 0.0
H504 H 0.18809 0.0896 0.25815 0.0
H505 H 0.20688 0.03168 0.25315 0.0
H506 H 0.17522 0.9083 0.27453 0.0
H507 H 0.20004 0.9601 0.28191 0.0
H508 H 0.04763 0.05017 0.26302 0.0
H509 H 0.0729 0.10187 0.26597 0.0
H510 H 0.0442 0.97766 0.23863 0.0
H511 H 0.06424 0.92059 0.23963 0.0
C512 C 0.98655 0.8018 0.74562 0.0
C513 C 0.97274 0.7728 0.78409 0.0
C514 C 0.02579 0.74277 0.80858 0.0
C515 C 0.03965 0.77847 0.77634 0.0
N516 N 0.03508 0.82406 0.7003 0.0
N517 N 0.97711 0.70053 0.83552 0.0
C518 C 0.02047 0.80167 0.73975 0.0
C519 C 0.99183 0.73771 0.8097 0.0
N520 N 0.96744 0.83171 0.7173 0.0
N521 N 0.04498 0.71656 0.84028 0.0
H522 H 0.95226 0.69599 0.83399 0.0
H523 H 0.98932 0.67196 0.85355 0.0
H524 H 0.06994 0.71868 0.83844 0.0
H525 H 0.0363 0.69401 0.86876 0.0
H526 H 0.97619 0.85817 0.69248 0.0
H527 H 0.94249 0.83035 0.71971 0.0
H528 H 0.02276 0.84003 0.67062 0.0
H529 H 0.05988 0.82166 0.69546 0.0
C530 C 0.16212 0.96597 0.74883 0.0
C531 C 0.13423 0.93611 0.75283 0.0
C532 C 0.10069 0.01039 0.75721 0.0
C533 C 0.12888 0.0397 0.76071 0.0
N534 N 0.18348 0.04864 0.73406 0.0
N535 N 0.07745 0.9289 0.74172 0.0
C536 C 0.15879 0.01858 0.74792 0.0
C537 C 0.10354 0.95819 0.75041 0.0
N538 N 0.1917 0.94423 0.74848 0.0
N539 N 0.07145 0.03265 0.76238 0.0
H540 H 0.08001 0.89104 0.73466 0.0
H541 H 0.05426 0.94227 0.73684 0.0
H542 H 0.06904 0.07127 0.76423 0.0
H543 H 0.04993 0.01334 0.7657 0.0
H544 H 0.21299 0.96426 0.75164 0.0
H545 H 0.19481 0.90573 0.74715 0.0
H546 H 0.20554 0.03536 0.72173 0.0
H547 H 0.18 0.08651 0.72808 0.0
C548 C 0.02584 0.19093 0.74812 0.0
C549 C 0.03958 0.22157 0.78541 0.0
C550 C 0.98623 0.25098 0.80947 0.0
C551 C 0.97248 0.21454 0.77785 0.0
N552 N 0.97753 0.16728 0.70292 0.0
N553 N 0.03459 0.29518 0.8347 0.0
C554 C 0.9919 0.19056 0.74207 0.0
C555 C 0.02018 0.25679 0.81024 0.0
N556 N 0.04501 0.15999 0.72105 0.0
N557 N 0.96701 0.27754 0.84075 0.0
H558 H 0.05934 0.30053 0.83251 0.0
H559 H 0.02212 0.32396 0.8519 0.0
H560 H 0.94206 0.27551 0.83883 0.0
H561 H 0.97569 0.30043 0.86898 0.0
H562 H 0.03626 0.13245 0.6974 0.0
H563 H 0.06995 0.16123 0.7236 0.0
H564 H 0.99004 0.1508 0.67374 0.0
H565 H 0.9528 0.16986 0.69745 0.0
C566 C 0.84591 0.98189 0.77318 0.0
C567 C 0.87614 0.95823 0.76882 0.0
C568 C 0.90121 0.03677 0.74426 0.0
C569 C 0.87202 0.06132 0.75464 0.0
N570 N 0.81477 0.05777 0.76278 0.0
N571 N 0.92966 0.95819 0.7361 0.0
C572 C 0.84362 0.03376 0.76318 0.0
C573 C 0.90281 0.98418 0.74911 0.0
N574 N 0.82013 0.95552 0.7902 0.0
N575 N 0.92759 0.0643 0.73235 0.0
H576 H 0.93086 0.91955 0.7394 0.0
H577 H 0.94949 0.97389 0.71865 0.0
H578 H 0.92598 0.10247 0.72622 0.0
H579 H 0.95068 0.05002 0.72941 0.0
H580 H 0.79828 0.9715 0.79981 0.0
H581 H 0.82097 0.91723 0.79633 0.0
H582 H 0.79274 0.03981 0.76554 0.0
H583 H 0.8129 0.09576 0.7552 0.0
C584 C 0.66573 0.74409 0.4677 0.0
C585 C 0.63671 0.74779 0.44051 0.0
C586 C 0.60623 0.74924 0.51811 0.0
C587 C 0.63424 0.73417 0.54393 0.0
N588 N 0.69141 0.72213 0.54597 0.0
N589 N 0.57995 0.76132 0.43823 0.0
C590 C 0.66446 0.7345 0.51981 0.0
C591 C 0.60716 0.75377 0.46545 0.0
N592 N 0.69426 0.7485 0.44316 0.0
N593 N 0.57878 0.75811 0.54435 0.0
H594 H 0.58083 0.7677 0.39999 0.0
H595 H 0.55687 0.76052 0.45285 0.0
H596 H 0.57795 0.75482 0.58302 0.0
H597 H 0.5578 0.77216 0.52881 0.0
H598 H 0.71646 0.74962 0.46079 0.0
H599 H 0.69545 0.7554 0.40499 0.0
H600 H 0.71369 0.71593 0.52975 0.0
H601 H 0.69127 0.7165 0.58437 0.0
C602 C 0.41006 0.7512 0.52709 0.0
C603 C 0.38012 0.75657 0.55085 0.0
C604 C 0.35203 0.74319 0.47211 0.0
C605 C 0.38183 0.73104 0.44974 0.0
N606 N 0.43933 0.73914 0.44987 0.0
N607 N 0.32498 0.78006 0.54317 0.0
C608 C 0.41099 0.74073 0.4753 0.0
C609 C 0.35183 0.76036 0.52216 0.0
N610 N 0.43734 0.75447 0.55488 0.0
N611 N 0.32398 0.73497 0.44714 0.0
H612 H 0.32558 0.79548 0.57872 0.0
H613 H 0.30383 0.78679 0.52368 0.0
H614 H 0.32312 0.72303 0.41028 0.0
H615 H 0.3015 0.73756 0.46375 0.0
H616 H 0.46013 0.74545 0.54202 0.0
H617 H 0.43658 0.76641 0.59176 0.0
H618 H 0.46139 0.74879 0.46516 0.0
H619 H 0.44033 0.73158 0.41182 0.0
C620 C 0.34512 0.25025 0.46646 0.0
C621 C 0.37375 0.24619 0.43847 0.0
C622 C 0.40543 0.24979 0.51491 0.0
C623 C 0.3776 0.26527 0.5409 0.0
N624 N 0.32027 0.2755 0.54424 0.0
N625 N 0.43053 0.23363 0.43488 0.0
C626 C 0.34702 0.26259 0.51792 0.0
C627 C 0.40372 0.24223 0.46264 0.0
N628 N 0.31631 0.24363 0.44319 0.0
N629 N 0.43343 0.24351 0.54053 0.0
H630 H 0.429 0.22495 0.39715 0.0
H631 H 0.45385 0.23554 0.44849 0.0
H632 H 0.43483 0.24908 0.57888 0.0
H633 H 0.45442 0.22954 0.52502 0.0
H634 H 0.2944 0.24255 0.46162 0.0
H635 H 0.3147 0.23478 0.40546 0.0
H636 H 0.29769 0.28013 0.52844 0.0
H637 H 0.32082 0.28323 0.58225 0.0
C638 C 0.60622 0.25628 0.47999 0.0
C639 C 0.63259 0.27601 0.45327 0.0
C640 C 0.66566 0.27272 0.52847 0.0
C641 C 0.6376 0.26315 0.55664 0.0
N642 N 0.58221 0.2396 0.56074 0.0
N643 N 0.6883 0.29907 0.44941 0.0
C644 C 0.60828 0.25194 0.53266 0.0
C645 C 0.66289 0.28172 0.47646 0.0
N646 N 0.57923 0.24258 0.45463 0.0
N647 N 0.6947 0.27413 0.55195 0.0
H648 H 0.68723 0.30426 0.41098 0.0
H649 H 0.71007 0.30992 0.46489 0.0
H650 H 0.69703 0.26806 0.59009 0.0
H651 H 0.71655 0.27715 0.53356 0.0
H652 H 0.55962 0.22498 0.47085 0.0
H653 H 0.57762 0.24555 0.41598 0.0
H654 H 0.55904 0.23608 0.54685 0.0
H655 H 0.58404 0.23376 0.59897 0.0
C656 C 0.52733 0.76192 0.69485 0.0
C657 C 0.53956 0.7236 0.72569 0.0
C658 C 0.48526 0.702 0.75235 0.0
C659 C 0.47311 0.73305 0.71416 0.0
N660 N 0.48006 0.80571 0.66404 0.0
N661 N 0.53225 0.67335 0.79816 0.0
C662 C 0.49349 0.76802 0.69087 0.0
C663 C 0.51902 0.69942 0.75978 0.0
N664 N 0.54805 0.78986 0.66723 0.0
N665 N 0.46464 0.67268 0.77869 0.0
H666 H 0.55699 0.67353 0.80413 0.0
H667 H 0.51903 0.65602 0.82606 0.0
H668 H 0.43982 0.67583 0.7748 0.0
H669 H 0.47192 0.64512 0.80344 0.0
H670 H 0.54094 0.81517 0.64007 0.0
H671 H 0.57283 0.7871 0.67162 0.0
H672 H 0.49305 0.83406 0.64705 0.0
H673 H 0.45521 0.81042 0.6627 0.0
C674 C 0.40328 0.52473 0.73752 0.0
C675 C 0.37664 0.55198 0.71919 0.0
C676 C 0.34399 0.47652 0.71784 0.0
C677 C 0.37152 0.44855 0.73136 0.0
N678 N 0.42387 0.44571 0.76809 0.0
N679 N 0.31968 0.55799 0.7068 0.0
C680 C 0.4 0.47279 0.74633 0.0
C681 C 0.34618 0.52923 0.71491 0.0
N682 N 0.43196 0.54841 0.74413 0.0
N683 N 0.31636 0.45234 0.70507 0.0
H684 H 0.32085 0.59664 0.70406 0.0
H685 H 0.29633 0.54434 0.70718 0.0
H686 H 0.31369 0.41399 0.70886 0.0
H687 H 0.29659 0.46965 0.689 0.0
H688 H 0.45337 0.53029 0.75227 0.0
H689 H 0.43437 0.58683 0.74001 0.0
H690 H 0.44473 0.46102 0.78283 0.0
H691 H 0.42125 0.4078 0.77513 0.0
C692 C 0.5188 0.24513 0.69127 0.0
C693 C 0.53882 0.28017 0.71519 0.0
C694 C 0.49197 0.31521 0.75749 0.0
C695 C 0.47205 0.29033 0.72293 0.0
N696 N 0.46469 0.22278 0.66555 0.0
N697 N 0.5462 0.33957 0.78082 0.0
C698 C 0.48489 0.25141 0.69343 0.0
C699 C 0.52592 0.31156 0.75249 0.0
N700 N 0.53269 0.20676 0.66608 0.0
N701 N 0.47797 0.34271 0.79415 0.0
H702 H 0.57103 0.3352 0.77894 0.0
H703 H 0.53876 0.36678 0.80579 0.0
H704 H 0.45313 0.34271 0.79878 0.0
H705 H 0.49049 0.36142 0.82192 0.0
H706 H 0.52003 0.17837 0.64855 0.0
H707 H 0.55748 0.20146 0.66698 0.0
H708 H 0.47229 0.19682 0.63939 0.0
H709 H 0.43984 0.22553 0.66875 0.0
C710 C 0.60707 0.53959 0.75237 0.0
C711 C 0.63687 0.56407 0.74747 0.0
C712 C 0.66417 0.48441 0.73445 0.0
C713 C 0.63376 0.46094 0.73247 0.0
N714 N 0.57784 0.46131 0.75365 0.0
N715 N 0.69439 0.56038 0.74964 0.0
C716 C 0.60572 0.48708 0.74674 0.0
C717 C 0.66572 0.5364 0.74438 0.0
N718 N 0.58007 0.56719 0.76006 0.0
N719 N 0.69112 0.4578 0.72316 0.0
H720 H 0.69578 0.59849 0.75636 0.0
H721 H 0.71644 0.54244 0.75148 0.0
H722 H 0.69078 0.41946 0.71735 0.0
H723 H 0.71368 0.47353 0.71816 0.0
H724 H 0.55684 0.55317 0.75878 0.0
H725 H 0.58133 0.60519 0.7674 0.0
H726 H 0.55666 0.47696 0.76672 0.0
H727 H 0.57671 0.42278 0.7494 0.0
C728 C 0.49035 0.23258 0.30229 0.0
C729 C 0.4699 0.26677 0.27806 0.0
C730 C 0.51619 0.30222 0.23475 0.0
C731 C 0.53638 0.27878 0.26989 0.0
N732 N 0.54461 0.21364 0.32967 0.0
N733 N 0.46175 0.32615 0.21252 0.0
C734 C 0.52412 0.24021 0.30034 0.0
C735 C 0.48232 0.29809 0.24029 0.0
N736 N 0.47702 0.19401 0.32793 0.0
N737 N 0.52979 0.32936 0.19743 0.0
H738 H 0.43695 0.32174 0.21496 0.0
H739 H 0.469 0.35373 0.18779 0.0
H740 H 0.55466 0.33085 0.19311 0.0
H741 H 0.51693 0.34635 0.16892 0.0
H742 H 0.49017 0.16607 0.34531 0.0
H743 H 0.45227 0.18804 0.32744 0.0
H744 H 0.53723 0.18852 0.35683 0.0
H745 H 0.56944 0.21762 0.32685 0.0
C746 C 0.65801 0.47048 0.24274 0.0
C747 C 0.62957 0.44216 0.24685 0.0
C748 C 0.59899 0.5183 0.26088 0.0
C749 C 0.62824 0.54382 0.27012 0.0
N750 N 0.68609 0.54572 0.26684 0.0
N751 N 0.57233 0.43876 0.24887 0.0
C752 C 0.65797 0.52086 0.25886 0.0
C753 C 0.59973 0.46631 0.25161 0.0
N754 N 0.68483 0.44888 0.22358 0.0
N755 N 0.57073 0.54398 0.26166 0.0
H756 H 0.57292 0.40166 0.23764 0.0
H757 H 0.5496 0.45202 0.25768 0.0
H758 H 0.56979 0.58214 0.26852 0.0
H759 H 0.54867 0.5287 0.25202 0.0
H760 H 0.70607 0.46804 0.21667 0.0
H761 H 0.68408 0.41317 0.20863 0.0
H762 H 0.70852 0.52887 0.26476 0.0
H763 H 0.68703 0.58274 0.27822 0.0
C764 C 0.52604 0.6885 0.2441 0.0
C765 C 0.53737 0.72093 0.28181 0.0
C766 C 0.48244 0.74745 0.29985 0.0
C767 C 0.47108 0.70764 0.26995 0.0
N768 N 0.47978 0.65372 0.20057 0.0
N769 N 0.5287 0.79408 0.33039 0.0
C770 C 0.49232 0.68303 0.23717 0.0
C771 C 0.51614 0.75517 0.30425 0.0
N772 N 0.54754 0.66121 0.21731 0.0
N773 N 0.46109 0.77543 0.32624 0.0
H774 H 0.55341 0.80026 0.33153 0.0
H775 H 0.51514 0.82203 0.34689 0.0
H776 H 0.43638 0.77161 0.32179 0.0
H777 H 0.46757 0.80189 0.35265 0.0
H778 H 0.54128 0.63354 0.19205 0.0
H779 H 0.57221 0.66652 0.22076 0.0
H780 H 0.49329 0.63485 0.17411 0.0
H781 H 0.45507 0.65188 0.19471 0.0
C782 C 0.39903 0.47407 0.24783 0.0
C783 C 0.37246 0.44729 0.26706 0.0
C784 C 0.34052 0.52328 0.26991 0.0
C785 C 0.36815 0.55077 0.25585 0.0
N786 N 0.41978 0.55286 0.21686 0.0
N787 N 0.31563 0.4422 0.28093 0.0
C788 C 0.39609 0.5261 0.23944 0.0
C789 C 0.34226 0.47053 0.27229 0.0
N790 N 0.42739 0.44987 0.24016 0.0
N791 N 0.31333 0.54793 0.2838 0.0
H792 H 0.31654 0.40349 0.2832 0.0
H793 H 0.29241 0.4563 0.28138 0.0
H794 H 0.31101 0.58637 0.28047 0.0
H795 H 0.2936 0.53087 0.30025 0.0
H796 H 0.44881 0.46759 0.23127 0.0
H797 H 0.42948 0.41139 0.24415 0.0
H798 H 0.44024 0.53721 0.20122 0.0
H799 H 0.41733 0.59086 0.21003 0.0
loop_
_geom_bond_atom_site_label_1
_geom_bond_atom_site_label_2
_geom_bond_distance
_geom_bond_site_symmetry_2
_ccdc_geom_bond_type
Co0 O1 2.216 . S
Co0 O2 2.091 . S
Co0 O4 2.004 . S
Co0 O10 2.021 . S
Co0 O12 2.137 . S
Co0 O13 2.244 . S
O1 Co0 2.216 . S
O1 C8 1.247 . S
O2 Co0 2.091 . S
O2 C8 1.261 . S
C3 O12 1.247 . S
C3 O13 1.272 . S
O4 Co0 2.004 . S
O4 C9 1.259 . S
Co5 O6 2.061 . S
Co5 O11 2.052 . S
Co5 O13 2.135 . S
O6 Co5 2.061 . S
O6 C9 1.235 . S
C7 O10 1.238 . S
C7 O11 1.241 . S
C8 O1 1.247 . S
C8 O2 1.261 . S
C9 O4 1.259 . S
C9 O6 1.235 . S
O10 Co0 2.021 . S
O10 C7 1.238 . S
O11 Co5 2.052 . S
O11 C7 1.241 . S
O12 Co0 2.137 . S
O12 C3 1.247 . S
O13 Co0 2.244 . S
O13 C3 1.272 . S
O13 Co5 2.135 . S
Co14 O15 2.216 . S
Co14 O16 2.091 . S
Co14 O18 2.004 . S
Co14 O24 2.021 . S
Co14 O26 2.137 . S
Co14 O27 2.244 . S
O15 Co14 2.216 . S
O15 C22 1.247 . S
O16 Co14 2.091 . S
O16 C22 1.261 . S
C17 O26 1.247 . S
C17 O27 1.272 . S
O18 Co14 2.004 . S
O18 C23 1.259 . S
Co19 O20 2.061 . S
Co19 O25 2.052 . S
Co19 O27 2.135 . S
O20 Co19 2.061 . S
O20 C23 1.235 . S
C21 O24 1.238 . S
C21 O25 1.241 . S
C22 O15 1.247 . S
C22 O16 1.261 . S
C23 O18 1.259 . S
C23 O20 1.235 . S
O24 Co14 2.021 . S
O24 C21 1.238 . S
O25 Co19 2.052 . S
O25 C21 1.241 . S
O26 Co14 2.137 . S
O26 C17 1.247 . S
O27 Co14 2.244 . S
O27 C17 1.272 . S
O27 Co19 2.135 . S
Co28 O29 2.216 . S
Co28 O30 2.091 . S
Co28 O32 2.004 . S
Co28 O38 2.021 . S
Co28 O40 2.137 . S
Co28 O41 2.244 . S
O29 Co28 2.216 . S
O29 C36 1.247 . S
O30 Co28 2.091 . S
O30 C36 1.261 . S
C31 O40 1.247 . S
C31 O41 1.272 . S
O32 Co28 2.004 . S
O32 C37 1.259 . S
Co33 O34 2.061 . S
Co33 O39 2.052 . S
Co33 O41 2.135 . S
O34 Co33 2.061 . S
O34 C37 1.235 . S
C35 O38 1.238 . S
C35 O39 1.241 . S
C36 O29 1.247 . S
C36 O30 1.261 . S
C37 O32 1.259 . S
C37 O34 1.235 . S
O38 Co28 2.021 . S
O38 C35 1.238 . S
O39 Co33 2.052 . S
O39 C35 1.241 . S
O40 Co28 2.137 . S
O40 C31 1.247 . S
O41 Co28 2.244 . S
O41 C31 1.272 . S
O41 Co33 2.135 . S
Co42 O43 2.216 . S
Co42 O44 2.091 . S
Co42 O46 2.004 . S
Co42 O52 2.021 . S
Co42 O54 2.137 . S
Co42 O55 2.244 . S
O43 Co42 2.216 . S
O43 C50 1.247 . S
O44 Co42 2.091 . S
O44 C50 1.261 . S
C45 O54 1.247 . S
C45 O55 1.272 . S
O46 Co42 2.004 . S
O46 C51 1.259 . S
Co47 O48 2.061 . S
Co47 O53 2.052 . S
Co47 O55 2.135 . S
O48 Co47 2.061 . S
O48 C51 1.235 . S
C49 O52 1.238 . S
C49 O53 1.241 . S
C50 O43 1.247 . S
C50 O44 1.261 . S
C51 O46 1.259 . S
C51 O48 1.235 . S
O52 Co42 2.021 . S
O52 C49 1.238 . S
O53 Co47 2.052 . S
O53 C49 1.241 . S
O54 Co42 2.137 . S
O54 C45 1.247 . S
O55 Co42 2.244 . S
O55 C45 1.272 . S
O55 Co47 2.135 . S
Co56 O57 2.216 . S
Co56 O58 2.091 . S
Co56 O60 2.004 . S
Co56 O66 2.021 . S
Co56 O68 2.137 . S
Co56 O69 2.244 . S
O57 Co56 2.216 . S
O57 C64 1.247 . S
O58 Co56 2.091 . S
O58 C64 1.261 . S
C59 O68 1.247 . S
C59 O69 1.272 . S
O60 Co56 2.004 . S
O60 C65 1.259 . S
Co61 O62 2.061 . S
Co61 O67 2.052 . S
Co61 O69 2.135 . S
O62 Co61 2.061 . S
O62 C65 1.235 . S
C63 O66 1.238 . S
C63 O67 1.241 . S
C64 O57 1.247 . S
C64 O58 1.261 . S
C65 O60 1.259 . S
C65 O62 1.235 . S
O66 Co56 2.021 . S
O66 C63 1.238 . S
O67 Co61 2.052 . S
O67 C63 1.241 . S
O68 Co56 2.137 . S
O68 C59 1.247 . S
O69 Co56 2.244 . S
O69 C59 1.272 . S
O69 Co61 2.135 . S
Co70 O71 2.216 . S
Co70 O72 2.091 . S
Co70 O74 2.004 . S
Co70 O80 2.021 . S
Co70 O82 2.137 . S
Co70 O83 2.244 . S
O71 Co70 2.216 . S
O71 C78 1.247 . S
O72 Co70 2.091 . S
O72 C78 1.261 . S
C73 O82 1.247 . S
C73 O83 1.272 . S
O74 Co70 2.004 . S
O74 C79 1.259 . S
Co75 O76 2.061 . S
Co75 O81 2.052 . S
Co75 O83 2.135 . S
O76 Co75 2.061 . S
O76 C79 1.235 . S
C77 O80 1.238 . S
C77 O81 1.241 . S
C78 O71 1.247 . S
C78 O72 1.261 . S
C79 O74 1.259 . S
C79 O76 1.235 . S
O80 Co70 2.021 . S
O80 C77 1.238 . S
O81 Co75 2.052 . S
O81 C77 1.241 . S
O82 Co70 2.137 . S
O82 C73 1.247 . S
O83 Co70 2.244 . S
O83 C73 1.272 . S
O83 Co75 2.135 . S
Co84 O85 2.216 . S
Co84 O86 2.091 . S
Co84 O88 2.004 . S
Co84 O94 2.021 . S
Co84 O96 2.137 . S
Co84 O97 2.244 . S
O85 Co84 2.216 . S
O85 C92 1.247 . S
O86 Co84 2.091 . S
O86 C92 1.261 . S
C87 O96 1.247 . S
C87 O97 1.272 . S
O88 Co84 2.004 . S
O88 C93 1.259 . S
Co89 O90 2.061 . S
Co89 O95 2.052 . S
Co89 O97 2.135 . S
O90 Co89 2.061 . S
O90 C93 1.235 . S
C91 O94 1.238 . S
C91 O95 1.241 . S
C92 O85 1.247 . S
C92 O86 1.261 . S
C93 O88 1.259 . S
C93 O90 1.235 . S
O94 Co84 2.021 . S
O94 C91 1.238 . S
O95 Co89 2.052 . S
O95 C91 1.241 . S
O96 Co84 2.137 . S
O96 C87 1.247 . S
O97 Co84 2.244 . S
O97 C87 1.272 . S
O97 Co89 2.135 . S
Co98 O99 2.216 . S
Co98 O100 2.091 . S
Co98 O102 2.004 . S
Co98 O108 2.021 . S
Co98 O110 2.137 . S
Co98 O111 2.244 . S
O99 Co98 2.216 . S
O99 C106 1.247 . S
O100 Co98 2.091 . S
O100 C106 1.261 . S
C101 O110 1.247 . S
C101 O111 1.272 . S
O102 Co98 2.004 . S
O102 C107 1.259 . S
Co103 O104 2.061 . S
Co103 O109 2.052 . S
Co103 O111 2.135 . S
O104 Co103 2.061 . S
O104 C107 1.235 . S
C105 O108 1.238 . S
C105 O109 1.241 . S
C106 O99 1.247 . S
C106 O100 1.261 . S
C107 O102 1.259 . S
C107 O104 1.235 . S
O108 Co98 2.021 . S
O108 C105 1.238 . S
O109 Co103 2.052 . S
O109 C105 1.241 . S
O110 Co98 2.137 . S
O110 C101 1.247 . S
O111 Co98 2.244 . S
O111 C101 1.272 . S
O111 Co103 2.135 . S
Co112 O113 2.216 . S
Co112 O114 2.091 . S
Co112 O116 2.004 . S
Co112 O122 2.021 . S
Co112 O124 2.137 . S
Co112 O125 2.244 . S
O113 Co112 2.216 . S
O113 C120 1.247 . S
O114 Co112 2.091 . S
O114 C120 1.261 . S
C115 O124 1.247 . S
C115 O125 1.272 . S
O116 Co112 2.004 . S
O116 C121 1.259 . S
Co117 O118 2.061 . S
Co117 O123 2.052 . S
Co117 O125 2.135 . S
O118 Co117 2.061 . S
O118 C121 1.235 . S
C119 O122 1.238 . S
C119 O123 1.241 . S
C120 O113 1.247 . S
C120 O114 1.261 . S
C121 O116 1.259 . S
C121 O118 1.235 . S
O122 Co112 2.021 . S
O122 C119 1.238 . S
O123 Co117 2.052 . S
O123 C119 1.241 . S
O124 Co112 2.137 . S
O124 C115 1.247 . S
O125 Co112 2.244 . S
O125 C115 1.272 . S
O125 Co117 2.135 . S
Co126 O127 2.216 . S
Co126 O128 2.091 . S
Co126 O130 2.004 . S
Co126 O136 2.021 . S
Co126 O138 2.137 . S
Co126 O139 2.244 . S
O127 Co126 2.216 . S
O127 C134 1.247 . S
O128 Co126 2.091 . S
O128 C134 1.261 . S
C129 O138 1.247 . S
C129 O139 1.272 . S
O130 Co126 2.004 . S
O130 C135 1.259 . S
Co131 O132 2.061 . S
Co131 O137 2.052 . S
Co131 O139 2.135 . S
O132 Co131 2.061 . S
O132 C135 1.235 . S
C133 O136 1.238 . S
C133 O137 1.241 . S
C134 O127 1.247 . S
C134 O128 1.261 . S
C135 O130 1.259 . S
C135 O132 1.235 . S
O136 Co126 2.021 . S
O136 C133 1.238 . S
O137 Co131 2.052 . S
O137 C133 1.241 . S
O138 Co126 2.137 . S
O138 C129 1.247 . S
O139 Co126 2.244 . S
O139 C129 1.272 . S
O139 Co131 2.135 . S
Co140 O141 2.216 . S
Co140 O142 2.091 . S
Co140 O144 2.004 . S
Co140 O150 2.021 . S
Co140 O152 2.137 . S
Co140 O153 2.244 . S
O141 Co140 2.216 . S
O141 C148 1.247 . S
O142 Co140 2.091 . S
O142 C148 1.261 . S
C143 O152 1.247 . S
C143 O153 1.272 . S
O144 Co140 2.004 . S
O144 C149 1.259 . S
Co145 O146 2.061 . S
Co145 O151 2.052 . S
Co145 O153 2.135 . S
O146 Co145 2.061 . S
O146 C149 1.235 . S
C147 O150 1.238 . S
C147 O151 1.241 . S
C148 O141 1.247 . S
C148 O142 1.261 . S
C149 O144 1.259 . S
C149 O146 1.235 . S
O150 Co140 2.021 . S
O150 C147 1.238 . S
O151 Co145 2.052 . S
O151 C147 1.241 . S
O152 Co140 2.137 . S
O152 C143 1.247 . S
O153 Co140 2.244 . S
O153 C143 1.272 . S
O153 Co145 2.135 . S
Co154 O155 2.216 . S
Co154 O156 2.091 . S
Co154 O158 2.004 . S
Co154 O164 2.021 . S
Co154 O166 2.137 . S
Co154 O167 2.244 . S
O155 Co154 2.216 . S
O155 C162 1.247 . S
O156 Co154 2.091 . S
O156 C162 1.261 . S
C157 O166 1.247 . S
C157 O167 1.272 . S
O158 Co154 2.004 . S
O158 C163 1.259 . S
Co159 O160 2.061 . S
Co159 O165 2.052 . S
Co159 O167 2.135 . S
O160 Co159 2.061 . S
O160 C163 1.235 . S
C161 O164 1.238 . S
C161 O165 1.241 . S
C162 O155 1.247 . S
C162 O156 1.261 . S
C163 O158 1.259 . S
C163 O160 1.235 . S
O164 Co154 2.021 . S
O164 C161 1.238 . S
O165 Co159 2.052 . S
O165 C161 1.241 . S
O166 Co154 2.137 . S
O166 C157 1.247 . S
O167 Co154 2.244 . S
O167 C157 1.272 . S
O167 Co159 2.135 . S
Co168 O169 2.216 . S
Co168 O170 2.091 . S
Co168 O172 2.004 . S
Co168 O178 2.021 . S
Co168 O180 2.137 . S
Co168 O181 2.244 . S
O169 Co168 2.216 . S
O169 C176 1.247 . S
O170 Co168 2.091 . S
O170 C176 1.261 . S
C171 O180 1.247 . S
C171 O181 1.272 . S
O172 Co168 2.004 . S
O172 C177 1.259 . S
Co173 O174 2.061 . S
Co173 O179 2.052 . S
Co173 O181 2.135 . S
O174 Co173 2.061 . S
O174 C177 1.235 . S
C175 O178 1.238 . S
C175 O179 1.241 . S
C176 O169 1.247 . S
C176 O170 1.261 . S
C177 O172 1.259 . S
C177 O174 1.235 . S
O178 Co168 2.021 . S
O178 C175 1.238 . S
O179 Co173 2.052 . S
O179 C175 1.241 . S
O180 Co168 2.137 . S
O180 C171 1.247 . S
O181 Co168 2.244 . S
O181 C171 1.272 . S
O181 Co173 2.135 . S
Co182 O183 2.216 . S
Co182 O184 2.091 . S
Co182 O186 2.004 . S
Co182 O192 2.021 . S
Co182 O194 2.137 . S
Co182 O195 2.244 . S
O183 Co182 2.216 . S
O183 C190 1.247 . S
O184 Co182 2.091 . S
O184 C190 1.261 . S
C185 O194 1.247 . S
C185 O195 1.272 . S
O186 Co182 2.004 . S
O186 C191 1.259 . S
Co187 O188 2.061 . S
Co187 O193 2.052 . S
Co187 O195 2.135 . S
O188 Co187 2.061 . S
O188 C191 1.235 . S
C189 O192 1.238 . S
C189 O193 1.241 . S
C190 O183 1.247 . S
C190 O184 1.261 . S
C191 O186 1.259 . S
C191 O188 1.235 . S
O192 Co182 2.021 . S
O192 C189 1.238 . S
O193 Co187 2.052 . S
O193 C189 1.241 . S
O194 Co182 2.137 . S
O194 C185 1.247 . S
O195 Co182 2.244 . S
O195 C185 1.272 . S
O195 Co187 2.135 . S
Co196 O197 2.216 . S
Co196 O198 2.091 . S
Co196 O200 2.004 . S
Co196 O206 2.021 . S
Co196 O208 2.137 . S
Co196 O209 2.244 . S
O197 Co196 2.216 . S
O197 C204 1.247 . S
O198 Co196 2.091 . S
O198 C204 1.261 . S
C199 O208 1.247 . S
C199 O209 1.272 . S
O200 Co196 2.004 . S
O200 C205 1.259 . S
Co201 O202 2.061 . S
Co201 O207 2.052 . S
Co201 O209 2.135 . S
O202 Co201 2.061 . S
O202 C205 1.235 . S
C203 O206 1.238 . S
C203 O207 1.241 . S
C204 O197 1.247 . S
C204 O198 1.261 . S
C205 O200 1.259 . S
C205 O202 1.235 . S
O206 Co196 2.021 . S
O206 C203 1.238 . S
O207 Co201 2.052 . S
O207 C203 1.241 . S
O208 Co196 2.137 . S
O208 C199 1.247 . S
O209 Co196 2.244 . S
O209 C199 1.272 . S
O209 Co201 2.135 . S
Co210 O211 2.216 . S
Co210 O212 2.091 . S
Co210 O214 2.004 . S
Co210 O220 2.021 . S
Co210 O222 2.137 . S
Co210 O223 2.244 . S
O211 Co210 2.216 . S
O211 C218 1.247 . S
O212 Co210 2.091 . S
O212 C218 1.261 . S
C213 O222 1.247 . S
C213 O223 1.272 . S
O214 Co210 2.004 . S
O214 C219 1.259 . S
Co215 O216 2.061 . S
Co215 O221 2.052 . S
Co215 O223 2.135 . S
O216 Co215 2.061 . S
O216 C219 1.235 . S
C217 O220 1.238 . S
C217 O221 1.241 . S
C218 O211 1.247 . S
C218 O212 1.261 . S
C219 O214 1.259 . S
C219 O216 1.235 . S
O220 Co210 2.021 . S
O220 C217 1.238 . S
O221 Co215 2.052 . S
O221 C217 1.241 . S
O222 Co210 2.137 . S
O222 C213 1.247 . S
O223 Co210 2.244 . S
O223 C213 1.272 . S
O223 Co215 2.135 . S
C224 C225 1.363 . S
C224 C230 1.379 . S
C224 N232 1.356 . S
C225 C224 1.363 . S
C225 C231 1.363 . S
C226 C227 1.363 . S
C226 C231 1.379 . S
C226 N233 1.356 . S
C227 C226 1.363 . S
C227 C230 1.363 . S
N228 C230 1.356 . S
N228 H240 0.984 . S
N228 H241 0.985 . S
N229 C231 1.356 . S
N229 H234 0.984 . S
N229 H235 0.985 . S
C230 C224 1.379 . S
C230 C227 1.363 . S
C230 N228 1.356 . S
C231 C225 1.363 . S
C231 C226 1.379 . S
C231 N229 1.356 . S
N232 C224 1.356 . S
N232 H238 0.984 . S
N232 H239 0.984 . S
N233 C226 1.356 . S
N233 H236 0.984 . S
N233 H237 0.985 . S
H234 N229 0.984 . S
H235 N229 0.985 . S
H236 N233 0.984 . S
H237 N233 0.985 . S
H238 N232 0.984 . S
H239 N232 0.984 . S
H240 N228 0.984 . S
H241 N228 0.985 . S
C242 C243 1.363 . S
C242 C248 1.379 . S
C242 N250 1.356 . S
C243 C242 1.363 . S
C243 C249 1.363 . S
C244 C245 1.363 . S
C244 C249 1.379 . S
C244 N251 1.356 . S
C245 C244 1.363 . S
C245 C248 1.363 . S
N246 C248 1.356 . S
N246 H258 0.984 . S
N246 H259 0.985 . S
N247 C249 1.356 . S
N247 H252 0.984 . S
N247 H253 0.985 . S
C248 C242 1.379 . S
C248 C245 1.363 . S
C248 N246 1.356 . S
C249 C243 1.363 . S
C249 C244 1.379 . S
C249 N247 1.356 . S
N250 C242 1.356 . S
N250 H256 0.984 . S
N250 H257 0.984 . S
N251 C244 1.356 . S
N251 H254 0.984 . S
N251 H255 0.985 . S
H252 N247 0.984 . S
H253 N247 0.985 . S
H254 N251 0.984 . S
H255 N251 0.985 . S
H256 N250 0.984 . S
H257 N250 0.984 . S
H258 N246 0.984 . S
H259 N246 0.985 . S
C260 C261 1.363 . S
C260 C266 1.379 . S
C260 N268 1.356 . S
C261 C260 1.363 . S
C261 C267 1.363 . S
C262 C263 1.363 . S
C262 C267 1.379 . S
C262 N269 1.356 . S
C263 C262 1.363 . S
C263 C266 1.363 . S
N264 C266 1.356 . S
N264 H276 0.984 . S
N264 H277 0.985 . S
N265 C267 1.356 . S
N265 H270 0.984 . S
N265 H271 0.985 . S
C266 C260 1.379 . S
C266 C263 1.363 . S
C266 N264 1.356 . S
C267 C261 1.363 . S
C267 C262 1.379 . S
C267 N265 1.356 . S
N268 C260 1.356 . S
N268 H274 0.984 . S
N268 H275 0.984 . S
N269 C262 1.356 . S
N269 H272 0.984 . S
N269 H273 0.985 . S
H270 N265 0.984 . S
H271 N265 0.985 . S
H272 N269 0.984 . S
H273 N269 0.985 . S
H274 N268 0.984 . S
H275 N268 0.984 . S
H276 N264 0.984 . S
H277 N264 0.985 . S
C278 C279 1.363 . S
C278 C284 1.379 . S
C278 N286 1.356 . S
C279 C278 1.363 . S
C279 C285 1.363 . S
C280 C281 1.363 . S
C280 C285 1.379 . S
C280 N287 1.356 . S
C281 C280 1.363 . S
C281 C284 1.363 . S
N282 C284 1.356 . S
N282 H294 0.984 . S
N282 H295 0.985 . S
N283 C285 1.356 . S
N283 H288 0.984 . S
N283 H289 0.985 . S
C284 C278 1.379 . S
C284 C281 1.363 . S
C284 N282 1.356 . S
C285 C279 1.363 . S
C285 C280 1.379 . S
C285 N283 1.356 . S
N286 C278 1.356 . S
N286 H292 0.984 . S
N286 H293 0.984 . S
N287 C280 1.356 . S
N287 H290 0.984 . S
N287 H291 0.985 . S
H288 N283 0.984 . S
H289 N283 0.985 . S
H290 N287 0.984 . S
H291 N287 0.985 . S
H292 N286 0.984 . S
H293 N286 0.984 . S
H294 N282 0.984 . S
H295 N282 0.985 . S
C296 C297 1.363 . S
C296 C302 1.379 . S
C296 N304 1.356 . S
C297 C296 1.363 . S
C297 C303 1.363 . S
C298 C299 1.363 . S
C298 C303 1.379 . S
C298 N305 1.356 . S
C299 C298 1.363 . S
C299 C302 1.363 . S
N300 C302 1.356 . S
N300 H312 0.984 . S
N300 H313 0.985 . S
N301 C303 1.356 . S
N301 H306 0.984 . S
N301 H307 0.985 . S
C302 C296 1.379 . S
C302 C299 1.363 . S
C302 N300 1.356 . S
C303 C297 1.363 . S
C303 C298 1.379 . S
C303 N301 1.356 . S
N304 C296 1.356 . S
N304 H310 0.984 . S
N304 H311 0.984 . S
N305 C298 1.356 . S
N305 H308 0.984 . S
N305 H309 0.985 . S
H306 N301 0.984 . S
H307 N301 0.985 . S
H308 N305 0.984 . S
H309 N305 0.985 . S
H310 N304 0.984 . S
H311 N304 0.984 . S
H312 N300 0.984 . S
H313 N300 0.985 . S
C314 C315 1.363 . S
C314 C320 1.379 . S
C314 N322 1.356 . S
C315 C314 1.363 . S
C315 C321 1.363 . S
C316 C317 1.363 . S
C316 C321 1.379 . S
C316 N323 1.356 . S
C317 C316 1.363 . S
C317 C320 1.363 . S
N318 C320 1.356 . S
N318 H330 0.984 . S
N318 H331 0.985 . S
N319 C321 1.356 . S
N319 H324 0.984 . S
N319 H325 0.985 . S
C320 C314 1.379 . S
C320 C317 1.363 . S
C320 N318 1.356 . S
C321 C315 1.363 . S
C321 C316 1.379 . S
C321 N319 1.356 . S
N322 C314 1.356 . S
N322 H328 0.984 . S
N322 H329 0.984 . S
N323 C316 1.356 . S
N323 H326 0.984 . S
N323 H327 0.985 . S
H324 N319 0.984 . S
H325 N319 0.985 . S
H326 N323 0.984 . S
H327 N323 0.985 . S
H328 N322 0.984 . S
H329 N322 0.984 . S
H330 N318 0.984 . S
H331 N318 0.985 . S
C332 C333 1.363 . S
C332 C338 1.379 . S
C332 N340 1.356 . S
C333 C332 1.363 . S
C333 C339 1.363 . S
C334 C335 1.363 . S
C334 C339 1.379 . S
C334 N341 1.356 . S
C335 C334 1.363 . S
C335 C338 1.363 . S
N336 C338 1.356 . S
N336 H348 0.984 . S
N336 H349 0.985 . S
N337 C339 1.356 . S
N337 H342 0.984 . S
N337 H343 0.985 . S
C338 C332 1.379 . S
C338 C335 1.363 . S
C338 N336 1.356 . S
C339 C333 1.363 . S
C339 C334 1.379 . S
C339 N337 1.356 . S
N340 C332 1.356 . S
N340 H346 0.984 . S
N340 H347 0.984 . S
N341 C334 1.356 . S
N341 H344 0.984 . S
N341 H345 0.985 . S
H342 N337 0.984 . S
H343 N337 0.985 . S
H344 N341 0.984 . S
H345 N341 0.985 . S
H346 N340 0.984 . S
H347 N340 0.984 . S
H348 N336 0.984 . S
H349 N336 0.985 . S
C350 C351 1.363 . S
C350 C356 1.379 . S
C350 N358 1.356 . S
C351 C350 1.363 . S
C351 C357 1.363 . S
C352 C353 1.363 . S
C352 C357 1.379 . S
C352 N359 1.356 . S
C353 C352 1.363 . S
C353 C356 1.363 . S
N354 C356 1.356 . S
N354 H366 0.984 . S
N354 H367 0.985 . S
N355 C357 1.356 . S
N355 H360 0.984 . S
N355 H361 0.985 . S
C356 C350 1.379 . S
C356 C353 1.363 . S
C356 N354 1.356 . S
C357 C351 1.363 . S
C357 C352 1.379 . S
C357 N355 1.356 . S
N358 C350 1.356 . S
N358 H364 0.984 . S
N358 H365 0.984 . S
N359 C352 1.356 . S
N359 H362 0.984 . S
N359 H363 0.985 . S
H360 N355 0.984 . S
H361 N355 0.985 . S
H362 N359 0.984 . S
H363 N359 0.985 . S
H364 N358 0.984 . S
H365 N358 0.984 . S
H366 N354 0.984 . S
H367 N354 0.985 . S
C368 C369 1.363 . S
C368 C374 1.379 1_556 S
C368 N376 1.356 . S
C369 C368 1.363 . S
C369 C375 1.363 . S
C370 C371 1.363 . S
C370 C375 1.379 1_554 S
C370 N377 1.356 . S
C371 C370 1.363 . S
C371 C374 1.363 . S
N372 C374 1.356 . S
N372 H384 0.984 . S
N372 H385 0.985 . S
N373 C375 1.356 . S
N373 H378 0.984 . S
N373 H379 0.985 . S
C374 C368 1.379 1_554 S
C374 C371 1.363 . S
C374 N372 1.356 . S
C375 C369 1.363 . S
C375 C370 1.379 1_556 S
C375 N373 1.356 . S
N376 C368 1.356 . S
N376 H382 0.984 . S
N376 H383 0.984 . S
N377 C370 1.356 . S
N377 H380 0.984 . S
N377 H381 0.985 . S
H378 N373 0.984 . S
H379 N373 0.985 . S
H380 N377 0.984 . S
H381 N377 0.985 . S
H382 N376 0.984 . S
H383 N376 0.984 . S
H384 N372 0.984 . S
H385 N372 0.985 . S
C386 C387 1.363 . S
C386 C392 1.379 1_556 S
C386 N394 1.356 . S
C387 C386 1.363 . S
C387 C393 1.363 . S
C388 C389 1.363 . S
C388 C393 1.379 1_554 S
C388 N395 1.356 . S
C389 C388 1.363 . S
C389 C392 1.363 . S
N390 C392 1.356 . S
N390 H402 0.984 . S
N390 H403 0.985 . S
N391 C393 1.356 . S
N391 H396 0.984 . S
N391 H397 0.985 . S
C392 C386 1.379 1_554 S
C392 C389 1.363 . S
C392 N390 1.356 . S
C393 C387 1.363 . S
C393 C388 1.379 1_556 S
C393 N391 1.356 . S
N394 C386 1.356 . S
N394 H400 0.984 . S
N394 H401 0.984 . S
N395 C388 1.356 . S
N395 H398 0.984 . S
N395 H399 0.985 . S
H396 N391 0.984 . S
H397 N391 0.985 . S
H398 N395 0.984 . S
H399 N395 0.985 . S
H400 N394 0.984 . S
H401 N394 0.984 . S
H402 N390 0.984 . S
H403 N390 0.985 . S
C404 C405 1.363 . S
C404 C410 1.379 1_556 S
C404 N412 1.356 . S
C405 C404 1.363 . S
C405 C411 1.363 . S
C406 C407 1.363 . S
C406 C411 1.379 1_554 S
C406 N413 1.356 . S
C407 C406 1.363 . S
C407 C410 1.363 . S
N408 C410 1.356 . S
N408 H420 0.984 . S
N408 H421 0.985 . S
N409 C411 1.356 . S
N409 H414 0.984 . S
N409 H415 0.985 . S
C410 C404 1.379 1_554 S
C410 C407 1.363 . S
C410 N408 1.356 . S
C411 C405 1.363 . S
C411 C406 1.379 1_556 S
C411 N409 1.356 . S
N412 C404 1.356 . S
N412 H418 0.984 . S
N412 H419 0.984 . S
N413 C406 1.356 . S
N413 H416 0.984 . S
N413 H417 0.985 . S
H414 N409 0.984 . S
H415 N409 0.985 . S
H416 N413 0.984 . S
H417 N413 0.985 . S
H418 N412 0.984 . S
H419 N412 0.984 . S
H420 N408 0.984 . S
H421 N408 0.985 . S
C422 C423 1.363 . S
C422 C428 1.379 1_554 S
C422 N430 1.356 . S
C423 C422 1.363 . S
C423 C429 1.363 . S
C424 C425 1.363 . S
C424 C429 1.379 1_556 S
C424 N431 1.356 . S
C425 C424 1.363 . S
C425 C428 1.363 . S
N426 C428 1.356 . S
N426 H438 0.984 . S
N426 H439 0.985 . S
N427 C429 1.356 . S
N427 H432 0.984 . S
N427 H433 0.985 . S
C428 C422 1.379 1_556 S
C428 C425 1.363 . S
C428 N426 1.356 . S
C429 C423 1.363 . S
C429 C424 1.379 1_554 S
C429 N427 1.356 . S
N430 C422 1.356 . S
N430 H436 0.984 . S
N430 H437 0.984 . S
N431 C424 1.356 . S
N431 H434 0.984 . S
N431 H435 0.985 . S
H432 N427 0.984 . S
H433 N427 0.985 . S
H434 N431 0.984 . S
H435 N431 0.985 . S
H436 N430 0.984 . S
H437 N430 0.984 . S
H438 N426 0.984 . S
H439 N426 0.985 . S
C440 C441 1.363 . S
C440 C446 1.379 1_455 S
C440 N448 1.356 . S
C441 C440 1.363 . S
C441 C447 1.363 . S
C442 C443 1.363 . S
C442 C447 1.379 1_655 S
C442 N449 1.356 . S
C443 C442 1.363 . S
C443 C446 1.363 . S
N444 C446 1.356 . S
N444 H456 0.984 . S
N444 H457 0.985 . S
N445 C447 1.356 . S
N445 H450 0.984 . S
N445 H451 0.985 . S
C446 C440 1.379 1_655 S
C446 C443 1.363 . S
C446 N444 1.356 . S
C447 C441 1.363 . S
C447 C442 1.379 1_455 S
C447 N445 1.356 . S
N448 C440 1.356 . S
N448 H454 0.984 . S
N448 H455 0.984 . S
N449 C442 1.356 . S
N449 H452 0.984 . S
N449 H453 0.985 . S
H450 N445 0.984 . S
H451 N445 0.985 . S
H452 N449 0.984 . S
H453 N449 0.985 . S
H454 N448 0.984 . S
H455 N448 0.984 . S
H456 N444 0.984 . S
H457 N444 0.985 . S
C458 C459 1.363 . S
C458 C464 1.379 1_565 S
C458 N466 1.356 . S
C459 C458 1.363 . S
C459 C465 1.363 . S
C460 C461 1.363 . S
C460 C465 1.379 1_545 S
C460 N467 1.356 . S
C461 C460 1.363 . S
C461 C464 1.363 . S
N462 C464 1.356 . S
N462 H474 0.984 . S
N462 H475 0.985 . S
N463 C465 1.356 . S
N463 H468 0.984 . S
N463 H469 0.985 . S
C464 C458 1.379 1_545 S
C464 C461 1.363 . S
C464 N462 1.356 . S
C465 C459 1.363 . S
C465 C460 1.379 1_565 S
C465 N463 1.356 . S
N466 C458 1.356 . S
N466 H472 0.984 . S
N466 H473 0.984 . S
N467 C460 1.356 . S
N467 H470 0.984 . S
N467 H471 0.985 . S
H468 N463 0.984 . S
H469 N463 0.985 . S
H470 N467 0.984 . S
H471 N467 0.985 . S
H472 N466 0.984 . S
H473 N466 0.984 . S
H474 N462 0.984 . S
H475 N462 0.985 . S
C476 C477 1.363 . S
C476 C482 1.379 1_655 S
C476 N484 1.356 . S
C477 C476 1.363 . S
C477 C483 1.363 . S
C478 C479 1.363 . S
C478 C483 1.379 1_455 S
C478 N485 1.356 . S
C479 C478 1.363 . S
C479 C482 1.363 . S
N480 C482 1.356 . S
N480 H492 0.984 . S
N480 H493 0.985 . S
N481 C483 1.356 . S
N481 H486 0.984 . S
N481 H487 0.985 . S
C482 C476 1.379 1_455 S
C482 C479 1.363 . S
C482 N480 1.356 . S
C483 C477 1.363 . S
C483 C478 1.379 1_655 S
C483 N481 1.356 . S
N484 C476 1.356 . S
N484 H490 0.984 . S
N484 H491 0.984 . S
N485 C478 1.356 . S
N485 H488 0.984 . S
N485 H489 0.985 . S
H486 N481 0.984 . S
H487 N481 0.985 . S
H488 N485 0.984 . S
H489 N485 0.985 . S
H490 N484 0.984 . S
H491 N484 0.984 . S
H492 N480 0.984 . S
H493 N480 0.985 . S
C494 C495 1.363 . S
C494 C500 1.379 1_545 S
C494 N502 1.356 . S
C495 C494 1.363 . S
C495 C501 1.363 . S
C496 C497 1.363 . S
C496 C501 1.379 1_565 S
C496 N503 1.356 . S
C497 C496 1.363 . S
C497 C500 1.363 . S
N498 C500 1.356 . S
N498 H510 0.984 . S
N498 H511 0.985 . S
N499 C501 1.356 . S
N499 H504 0.984 . S
N499 H505 0.985 . S
C500 C494 1.379 1_565 S
C500 C497 1.363 . S
C500 N498 1.356 . S
C501 C495 1.363 . S
C501 C496 1.379 1_545 S
C501 N499 1.356 . S
N502 C494 1.356 . S
N502 H508 0.984 . S
N502 H509 0.984 . S
N503 C496 1.356 . S
N503 H506 0.984 . S
N503 H507 0.985 . S
H504 N499 0.984 . S
H505 N499 0.985 . S
H506 N503 0.984 . S
H507 N503 0.985 . S
H508 N502 0.984 . S
H509 N502 0.984 . S
H510 N498 0.984 . S
H511 N498 0.985 . S
C512 C513 1.363 . S
C512 C518 1.379 1_655 S
C512 N520 1.356 . S
C513 C512 1.363 . S
C513 C519 1.363 . S
C514 C515 1.363 . S
C514 C519 1.379 1_455 S
C514 N521 1.356 . S
C515 C514 1.363 . S
C515 C518 1.363 . S
N516 C518 1.356 . S
N516 H528 0.984 . S
N516 H529 0.985 . S
N517 C519 1.356 . S
N517 H522 0.984 . S
N517 H523 0.985 . S
C518 C512 1.379 1_455 S
C518 C515 1.363 . S
C518 N516 1.356 . S
C519 C513 1.363 . S
C519 C514 1.379 1_655 S
C519 N517 1.356 . S
N520 C512 1.356 . S
N520 H526 0.984 . S
N520 H527 0.984 . S
N521 C514 1.356 . S
N521 H524 0.984 . S
N521 H525 0.985 . S
H522 N517 0.984 . S
H523 N517 0.985 . S
H524 N521 0.984 . S
H525 N521 0.985 . S
H526 N520 0.984 . S
H527 N520 0.984 . S
H528 N516 0.984 . S
H529 N516 0.985 . S
C530 C531 1.363 . S
C530 C536 1.379 1_565 S
C530 N538 1.356 . S
C531 C530 1.363 . S
C531 C537 1.363 . S
C532 C533 1.363 . S
C532 C537 1.379 1_545 S
C532 N539 1.356 . S
C533 C532 1.363 . S
C533 C536 1.363 . S
N534 C536 1.356 . S
N534 H546 0.984 . S
N534 H547 0.985 . S
N535 C537 1.356 . S
N535 H540 0.984 . S
N535 H541 0.985 . S
C536 C530 1.379 1_545 S
C536 C533 1.363 . S
C536 N534 1.356 . S
C537 C531 1.363 . S
C537 C532 1.379 1_565 S
C537 N535 1.356 . S
N538 C530 1.356 . S
N538 H544 0.984 . S
N538 H545 0.984 . S
N539 C532 1.356 . S
N539 H542 0.984 . S
N539 H543 0.985 . S
H540 N535 0.984 . S
H541 N535 0.985 . S
H542 N539 0.984 . S
H543 N539 0.985 . S
H544 N538 0.984 . S
H545 N538 0.984 . S
H546 N534 0.984 . S
H547 N534 0.985 . S
C548 C549 1.363 . S
C548 C554 1.379 1_455 S
C548 N556 1.356 . S
C549 C548 1.363 . S
C549 C555 1.363 . S
C550 C551 1.363 . S
C550 C555 1.379 1_655 S
C550 N557 1.356 . S
C551 C550 1.363 . S
C551 C554 1.363 . S
N552 C554 1.356 . S
N552 H564 0.984 . S
N552 H565 0.985 . S
N553 C555 1.356 . S
N553 H558 0.984 . S
N553 H559 0.985 . S
C554 C548 1.379 1_655 S
C554 C551 1.363 . S
C554 N552 1.356 . S
C555 C549 1.363 . S
C555 C550 1.379 1_455 S
C555 N553 1.356 . S
N556 C548 1.356 . S
N556 H562 0.984 . S
N556 H563 0.984 . S
N557 C550 1.356 . S
N557 H560 0.984 . S
N557 H561 0.985 . S
H558 N553 0.984 . S
H559 N553 0.985 . S
H560 N557 0.984 . S
H561 N557 0.985 . S
H562 N556 0.984 . S
H563 N556 0.984 . S
H564 N552 0.984 . S
H565 N552 0.985 . S
C566 C567 1.363 . S
C566 C572 1.379 1_565 S
C566 N574 1.356 . S
C567 C566 1.363 . S
C567 C573 1.363 . S
C568 C569 1.363 . S
C568 C573 1.379 1_545 S
C568 N575 1.356 . S
C569 C568 1.363 . S
C569 C572 1.363 . S
N570 C572 1.356 . S
N570 H582 0.984 . S
N570 H583 0.985 . S
N571 C573 1.356 . S
N571 H576 0.984 . S
N571 H577 0.985 . S
C572 C566 1.379 1_545 S
C572 C569 1.363 . S
C572 N570 1.356 . S
C573 C567 1.363 . S
C573 C568 1.379 1_565 S
C573 N571 1.356 . S
N574 C566 1.356 . S
N574 H580 0.984 . S
N574 H581 0.984 . S
N575 C568 1.356 . S
N575 H578 0.984 . S
N575 H579 0.985 . S
H576 N571 0.984 . S
H577 N571 0.985 . S
H578 N575 0.984 . S
H579 N575 0.985 . S
H580 N574 0.984 . S
H581 N574 0.984 . S
H582 N570 0.984 . S
H583 N570 0.985 . S
C584 C585 1.363 . S
C584 C590 1.379 . S
C584 N592 1.356 . S
C585 C584 1.363 . S
C585 C591 1.363 . S
C586 C587 1.363 . S
C586 C591 1.379 . S
C586 N593 1.356 . S
C587 C586 1.363 . S
C587 C590 1.363 . S
N588 C590 1.356 . S
N588 H600 0.984 . S
N588 H601 0.985 . S
N589 C591 1.356 . S
N589 H594 0.984 . S
N589 H595 0.985 . S
C590 C584 1.379 . S
C590 C587 1.363 . S
C590 N588 1.356 . S
C591 C585 1.363 . S
C591 C586 1.379 . S
C591 N589 1.356 . S
N592 C584 1.356 . S
N592 H598 0.984 . S
N592 H599 0.984 . S
N593 C586 1.356 . S
N593 H596 0.984 . S
N593 H597 0.985 . S
H594 N589 0.984 . S
H595 N589 0.985 . S
H596 N593 0.984 . S
H597 N593 0.985 . S
H598 N592 0.984 . S
H599 N592 0.984 . S
H600 N588 0.984 . S
H601 N588 0.985 . S
C602 C603 1.363 . S
C602 C608 1.379 . S
C602 N610 1.356 . S
C603 C602 1.363 . S
C603 C609 1.363 . S
C604 C605 1.363 . S
C604 C609 1.379 . S
C604 N611 1.356 . S
C605 C604 1.363 . S
C605 C608 1.363 . S
N606 C608 1.356 . S
N606 H618 0.984 . S
N606 H619 0.985 . S
N607 C609 1.356 . S
N607 H612 0.984 . S
N607 H613 0.985 . S
C608 C602 1.379 . S
C608 C605 1.363 . S
C608 N606 1.356 . S
C609 C603 1.363 . S
C609 C604 1.379 . S
C609 N607 1.356 . S
N610 C602 1.356 . S
N610 H616 0.984 . S
N610 H617 0.984 . S
N611 C604 1.356 . S
N611 H614 0.984 . S
N611 H615 0.985 . S
H612 N607 0.984 . S
H613 N607 0.985 . S
H614 N611 0.984 . S
H615 N611 0.985 . S
H616 N610 0.984 . S
H617 N610 0.984 . S
H618 N606 0.984 . S
H619 N606 0.985 . S
C620 C621 1.363 . S
C620 C626 1.379 . S
C620 N628 1.356 . S
C621 C620 1.363 . S
C621 C627 1.363 . S
C622 C623 1.363 . S
C622 C627 1.379 . S
C622 N629 1.356 . S
C623 C622 1.363 . S
C623 C626 1.363 . S
N624 C626 1.356 . S
N624 H636 0.984 . S
N624 H637 0.985 . S
N625 C627 1.356 . S
N625 H630 0.984 . S
N625 H631 0.985 . S
C626 C620 1.379 . S
C626 C623 1.363 . S
C626 N624 1.356 . S
C627 C621 1.363 . S
C627 C622 1.379 . S
C627 N625 1.356 . S
N628 C620 1.356 . S
N628 H634 0.984 . S
N628 H635 0.984 . S
N629 C622 1.356 . S
N629 H632 0.984 . S
N629 H633 0.985 . S
H630 N625 0.984 . S
H631 N625 0.985 . S
H632 N629 0.984 . S
H633 N629 0.985 . S
H634 N628 0.984 . S
H635 N628 0.984 . S
H636 N624 0.984 . S
H637 N624 0.985 . S
C638 C639 1.363 . S
C638 C644 1.379 . S
C638 N646 1.356 . S
C639 C638 1.363 . S
C639 C645 1.363 . S
C640 C641 1.363 . S
C640 C645 1.379 . S
C640 N647 1.356 . S
C641 C640 1.363 . S
C641 C644 1.363 . S
N642 C644 1.356 . S
N642 H654 0.984 . S
N642 H655 0.985 . S
N643 C645 1.356 . S
N643 H648 0.984 . S
N643 H649 0.985 . S
C644 C638 1.379 . S
C644 C641 1.363 . S
C644 N642 1.356 . S
C645 C639 1.363 . S
C645 C640 1.379 . S
C645 N643 1.356 . S
N646 C638 1.356 . S
N646 H652 0.984 . S
N646 H653 0.984 . S
N647 C640 1.356 . S
N647 H650 0.984 . S
N647 H651 0.985 . S
H648 N643 0.984 . S
H649 N643 0.985 . S
H650 N647 0.984 . S
H651 N647 0.985 . S
H652 N646 0.984 . S
H653 N646 0.984 . S
H654 N642 0.984 . S
H655 N642 0.985 . S
C656 C657 1.363 . S
C656 C662 1.379 . S
C656 N664 1.356 . S
C657 C656 1.363 . S
C657 C663 1.363 . S
C658 C659 1.363 . S
C658 C663 1.379 . S
C658 N665 1.356 . S
C659 C658 1.363 . S
C659 C662 1.363 . S
N660 C662 1.356 . S
N660 H672 0.984 . S
N660 H673 0.985 . S
N661 C663 1.356 . S
N661 H666 0.984 . S
N661 H667 0.985 . S
C662 C656 1.379 . S
C662 C659 1.363 . S
C662 N660 1.356 . S
C663 C657 1.363 . S
C663 C658 1.379 . S
C663 N661 1.356 . S
N664 C656 1.356 . S
N664 H670 0.984 . S
N664 H671 0.984 . S
N665 C658 1.356 . S
N665 H668 0.984 . S
N665 H669 0.985 . S
H666 N661 0.984 . S
H667 N661 0.985 . S
H668 N665 0.984 . S
H669 N665 0.985 . S
H670 N664 0.984 . S
H671 N664 0.984 . S
H672 N660 0.984 . S
H673 N660 0.985 . S
C674 C675 1.363 . S
C674 C680 1.379 . S
C674 N682 1.356 . S
C675 C674 1.363 . S
C675 C681 1.363 . S
C676 C677 1.363 . S
C676 C681 1.379 . S
C676 N683 1.356 . S
C677 C676 1.363 . S
C677 C680 1.363 . S
N678 C680 1.356 . S
N678 H690 0.984 . S
N678 H691 0.985 . S
N679 C681 1.356 . S
N679 H684 0.984 . S
N679 H685 0.985 . S
C680 C674 1.379 . S
C680 C677 1.363 . S
C680 N678 1.356 . S
C681 C675 1.363 . S
C681 C676 1.379 . S
C681 N679 1.356 . S
N682 C674 1.356 . S
N682 H688 0.984 . S
N682 H689 0.984 . S
N683 C676 1.356 . S
N683 H686 0.984 . S
N683 H687 0.985 . S
H684 N679 0.984 . S
H685 N679 0.985 . S
H686 N683 0.984 . S
H687 N683 0.985 . S
H688 N682 0.984 . S
H689 N682 0.984 . S
H690 N678 0.984 . S
H691 N678 0.985 . S
C692 C693 1.363 . S
C692 C698 1.379 . S
C692 N700 1.356 . S
C693 C692 1.363 . S
C693 C699 1.363 . S
C694 C695 1.363 . S
C694 C699 1.379 . S
C694 N701 1.356 . S
C695 C694 1.363 . S
C695 C698 1.363 . S
N696 C698 1.356 . S
N696 H708 0.984 . S
N696 H709 0.985 . S
N697 C699 1.356 . S
N697 H702 0.984 . S
N697 H703 0.985 . S
C698 C692 1.379 . S
C698 C695 1.363 . S
C698 N696 1.356 . S
C699 C693 1.363 . S
C699 C694 1.379 . S
C699 N697 1.356 . S
N700 C692 1.356 . S
N700 H706 0.984 . S
N700 H707 0.984 . S
N701 C694 1.356 . S
N701 H704 0.984 . S
N701 H705 0.985 . S
H702 N697 0.984 . S
H703 N697 0.985 . S
H704 N701 0.984 . S
H705 N701 0.985 . S
H706 N700 0.984 . S
H707 N700 0.984 . S
H708 N696 0.984 . S
H709 N696 0.985 . S
C710 C711 1.363 . S
C710 C716 1.379 . S
C710 N718 1.356 . S
C711 C710 1.363 . S
C711 C717 1.363 . S
C712 C713 1.363 . S
C712 C717 1.379 . S
C712 N719 1.356 . S
C713 C712 1.363 . S
C713 C716 1.363 . S
N714 C716 1.356 . S
N714 H726 0.984 . S
N714 H727 0.985 . S
N715 C717 1.356 . S
N715 H720 0.984 . S
N715 H721 0.985 . S
C716 C710 1.379 . S
C716 C713 1.363 . S
C716 N714 1.356 . S
C717 C711 1.363 . S
C717 C712 1.379 . S
C717 N715 1.356 . S
N718 C710 1.356 . S
N718 H724 0.984 . S
N718 H725 0.984 . S
N719 C712 1.356 . S
N719 H722 0.984 . S
N719 H723 0.985 . S
H720 N715 0.984 . S
H721 N715 0.985 . S
H722 N719 0.984 . S
H723 N719 0.985 . S
H724 N718 0.984 . S
H725 N718 0.984 . S
H726 N714 0.984 . S
H727 N714 0.985 . S
C728 C729 1.363 . S
C728 C734 1.379 . S
C728 N736 1.356 . S
C729 C728 1.363 . S
C729 C735 1.363 . S
C730 C731 1.363 . S
C730 C735 1.379 . S
C730 N737 1.356 . S
C731 C730 1.363 . S
C731 C734 1.363 . S
N732 C734 1.356 . S
N732 H744 0.984 . S
N732 H745 0.985 . S
N733 C735 1.356 . S
N733 H738 0.984 . S
N733 H739 0.985 . S
C734 C728 1.379 . S
C734 C731 1.363 . S
C734 N732 1.356 . S
C735 C729 1.363 . S
C735 C730 1.379 . S
C735 N733 1.356 . S
N736 C728 1.356 . S
N736 H742 0.984 . S
N736 H743 0.984 . S
N737 C730 1.356 . S
N737 H740 0.984 . S
N737 H741 0.985 . S
H738 N733 0.984 . S
H739 N733 0.985 . S
H740 N737 0.984 . S
H741 N737 0.985 . S
H742 N736 0.984 . S
H743 N736 0.984 . S
H744 N732 0.984 . S
H745 N732 0.985 . S
C746 C747 1.363 . S
C746 C752 1.379 . S
C746 N754 1.356 . S
C747 C746 1.363 . S
C747 C753 1.363 . S
C748 C749 1.363 . S
C748 C753 1.379 . S
C748 N755 1.356 . S
C749 C748 1.363 . S
C749 C752 1.363 . S
N750 C752 1.356 . S
N750 H762 0.984 . S
N750 H763 0.985 . S
N751 C753 1.356 . S
N751 H756 0.984 . S
N751 H757 0.985 . S
C752 C746 1.379 . S
C752 C749 1.363 . S
C752 N750 1.356 . S
C753 C747 1.363 . S
C753 C748 1.379 . S
C753 N751 1.356 . S
N754 C746 1.356 . S
N754 H760 0.984 . S
N754 H761 0.984 . S
N755 C748 1.356 . S
N755 H758 0.984 . S
N755 H759 0.985 . S
H756 N751 0.984 . S
H757 N751 0.985 . S
H758 N755 0.984 . S
H759 N755 0.985 . S
H760 N754 0.984 . S
H761 N754 0.984 . S
H762 N750 0.984 . S
H763 N750 0.985 . S
C764 C765 1.363 . S
C764 C770 1.379 . S
C764 N772 1.356 . S
C765 C764 1.363 . S
C765 C771 1.363 . S
C766 C767 1.363 . S
C766 C771 1.379 . S
C766 N773 1.356 . S
C767 C766 1.363 . S
C767 C770 1.363 . S
N768 C770 1.356 . S
N768 H780 0.984 . S
N768 H781 0.985 . S
N769 C771 1.356 . S
N769 H774 0.984 . S
N769 H775 0.985 . S
C770 C764 1.379 . S
C770 C767 1.363 . S
C770 N768 1.356 . S
C771 C765 1.363 . S
C771 C766 1.379 . S
C771 N769 1.356 . S
N772 C764 1.356 . S
N772 H778 0.984 . S
N772 H779 0.984 . S
N773 C766 1.356 . S
N773 H776 0.984 . S
N773 H777 0.985 . S
H774 N769 0.984 . S
H775 N769 0.985 . S
H776 N773 0.984 . S
H777 N773 0.985 . S
H778 N772 0.984 . S
H779 N772 0.984 . S
H780 N768 0.984 . S
H781 N768 0.985 . S
C782 C783 1.363 . S
C782 C788 1.379 . S
C782 N790 1.356 . S
C783 C782 1.363 . S
C783 C789 1.363 . S
C784 C785 1.363 . S
C784 C789 1.379 . S
C784 N791 1.356 . S
C785 C784 1.363 . S
C785 C788 1.363 . S
N786 C788 1.356 . S
N786 H798 0.984 . S
N786 H799 0.985 . S
N787 C789 1.356 . S
N787 H792 0.984 . S
N787 H793 0.985 . S
C788 C782 1.379 . S
C788 C785 1.363 . S
C788 N786 1.356 . S
C789 C783 1.363 . S
C789 C784 1.379 . S
C789 N787 1.356 . S
N790 C782 1.356 . S
N790 H796 0.984 . S
N790 H797 0.984 . S
N791 C784 1.356 . S
N791 H794 0.984 . S
N791 H795 0.985 . S
H792 N787 0.984 . S
H793 N787 0.985 . S
H794 N791 0.984 . S
H795 N791 0.985 . S
H796 N790 0.984 . S
H797 N790 0.984 . S
H798 N786 0.984 . S
H799 N786 0.985 . S
C225 C218 1.381 . S
C227 C8 1.381 . S
C243 C176 1.381 . S
C245 C22 1.381 . S
C261 C36 1.381 . S
C263 C190 1.381 . S
C279 C204 1.381 . S
C281 C50 1.381 . S
C297 C134 1.381 . S
C299 C64 1.381 . S
C315 C78 1.381 . S
C317 C148 1.381 . S
C333 C92 1.381 . S
C335 C162 1.381 . S
C351 C106 1.381 . S
C353 C120 1.381 . S
C369 C73 1.664 . S
C371 C7 1.571 . S
C387 C91 1.571 . S
C389 C17 1.664 . S
C405 C101 1.664 . S
C407 C35 1.571 . S
C423 C45 1.664 . S
C425 C63 1.571 . S
C441 C9 1.334 . S
C443 C23 1.334 . S
C459 C31 1.664 . S
C461 C21 1.571 . S
C477 C37 1.334 . S
C479 C51 1.334 . S
C495 C3 1.664 . S
C497 C49 1.571 . S
C513 C107 1.334 . S
C515 C65 1.334 . S
C531 C59 1.664 . S
C533 C77 1.571 . S
C549 C79 1.334 . S
C551 C93 1.334 . S
C567 C105 1.571 . S
C569 C87 1.664 . S
C585 C185 1.664 . S
C587 C119 1.571 . S
C603 C129 1.664 . S
C605 C203 1.571 . S
C621 C213 1.664 . S
C623 C147 1.571 . S
C639 C175 1.571 . S
C641 C157 1.664 . S
C657 C121 1.334 . S
C659 C135 1.334 . S
C675 C133 1.571 . S
C677 C143 1.664 . S
C693 C163 1.334 . S
C695 C149 1.334 . S
C711 C115 1.664 . S
C713 C161 1.571 . S
C729 C219 1.334 . S
C731 C177 1.334 . S
C747 C171 1.664 . S
C749 C189 1.571 . S
C765 C191 1.334 . S
C767 C205 1.334 . S
C783 C217 1.571 . S
C785 C199 1.664 . S
