# Generated by pormake.
# Topology atn, (4)-cn, num edge types: 1
# Building blocks:
#     Node 0, Type 0, BuildingBlock: QUQFOY_clean_sbu_1, # of connection points: 4
#     Node 1, Type 0, BuildingBlock: QUQFOY_clean_sbu_1, # of connection points: 4
#     Node 2, Type 0, BuildingBlock: QUQFOY_clean_sbu_1, # of connection points: 4
#     Node 3, Type 0, BuildingBlock: QUQFOY_clean_sbu_1, # of connection points: 4
#     Node 4, Type 0, BuildingBlock: QUQFOY_clean_sbu_1, # of connection points: 4
#     Node 5, Type 0, BuildingBlock: QUQFOY_clean_sbu_1, # of connection points: 4
#     Node 6, Type 0, BuildingBlock: QUQFOY_clean_sbu_1, # of connection points: 4
#     Node 7, Type 0, BuildingBlock: QUQFOY_clean_sbu_1, # of connection points: 4
#     Node 8, Type 0, BuildingBlock: QUQFOY_clean_sbu_1, # of connection points: 4
#     Node 9, Type 0, BuildingBlock: QUQFOY_clean_sbu_1, # of connection points: 4
#     Node 10, Type 0, BuildingBlock: QUQFOY_clean_sbu_1, # of connection points: 4
#     Node 11, Type 0, BuildingBlock: QUQFOY_clean_sbu_1, # of connection points: 4
#     Node 12, Type 0, BuildingBlock: QUQFOY_clean_sbu_1, # of connection points: 4
#     Node 13, Type 0, BuildingBlock: QUQFOY_clean_sbu_1, # of connection points: 4
#     Node 14, Type 0, BuildingBlock: QUQFOY_clean_sbu_1, # of connection points: 4
#     Node 15, Type 0, BuildingBlock: QUQFOY_clean_sbu_1, # of connection points: 4
#     Edge 16, Type (0, 0), BuildingBlock: TEMPAE_clean_linker_10, # of connection points: 2
#     Edge 17, Type (0, 0), BuildingBlock: TEMPAE_clean_linker_10, # of connection points: 2
#     Edge 18, Type (0, 0), BuildingBlock: TEMPAE_clean_linker_10, # of connection points: 2
#     Edge 19, Type (0, 0), BuildingBlock: TEMPAE_clean_linker_10, # of connection points: 2
#     Edge 20, Type (0, 0), BuildingBlock: TEMPAE_clean_linker_10, # of connection points: 2
#     Edge 21, Type (0, 0), BuildingBlock: TEMPAE_clean_linker_10, # of connection points: 2
#     Edge 22, Type (0, 0), BuildingBlock: TEMPAE_clean_linker_10, # of connection points: 2
#     Edge 23, Type (0, 0), BuildingBlock: TEMPAE_clean_linker_10, # of connection points: 2
#     Edge 24, Type (0, 0), BuildingBlock: TEMPAE_clean_linker_10, # of connection points: 2
#     Edge 25, Type (0, 0), BuildingBlock: TEMPAE_clean_linker_10, # of connection points: 2
#     Edge 26, Type (0, 0), BuildingBlock: TEMPAE_clean_linker_10, # of connection points: 2
#     Edge 27, Type (0, 0), BuildingBlock: TEMPAE_clean_linker_10, # of connection points: 2
#     Edge 28, Type (0, 0), BuildingBlock: TEMPAE_clean_linker_10, # of connection points: 2
#     Edge 29, Type (0, 0), BuildingBlock: TEMPAE_clean_linker_10, # of connection points: 2
#     Edge 30, Type (0, 0), BuildingBlock: TEMPAE_clean_linker_10, # of connection points: 2
#     Edge 31, Type (0, 0), BuildingBlock: TEMPAE_clean_linker_10, # of connection points: 2
#     Edge 32, Type (0, 0), BuildingBlock: TEMPAE_clean_linker_10, # of connection points: 2
#     Edge 33, Type (0, 0), BuildingBlock: TEMPAE_clean_linker_10, # of connection points: 2
#     Edge 34, Type (0, 0), BuildingBlock: TEMPAE_clean_linker_10, # of connection points: 2
#     Edge 35, Type (0, 0), BuildingBlock: TEMPAE_clean_linker_10, # of connection points: 2
#     Edge 36, Type (0, 0), BuildingBlock: TEMPAE_clean_linker_10, # of connection points: 2
#     Edge 37, Type (0, 0), BuildingBlock: TEMPAE_clean_linker_10, # of connection points: 2
#     Edge 38, Type (0, 0), BuildingBlock: TEMPAE_clean_linker_10, # of connection points: 2
#     Edge 39, Type (0, 0), BuildingBlock: TEMPAE_clean_linker_10, # of connection points: 2
#     Edge 40, Type (0, 0), BuildingBlock: TEMPAE_clean_linker_10, # of connection points: 2
#     Edge 41, Type (0, 0), BuildingBlock: TEMPAE_clean_linker_10, # of connection points: 2
#     Edge 42, Type (0, 0), BuildingBlock: TEMPAE_clean_linker_10, # of connection points: 2
#     Edge 43, Type (0, 0), BuildingBlock: TEMPAE_clean_linker_10, # of connection points: 2
#     Edge 44, Type (0, 0), BuildingBlock: TEMPAE_clean_linker_10, # of connection points: 2
#     Edge 45, Type (0, 0), BuildingBlock: TEMPAE_clean_linker_10, # of connection points: 2
#     Edge 46, Type (0, 0), BuildingBlock: TEMPAE_clean_linker_10, # of connection points: 2
#     Edge 47, Type (0, 0), BuildingBlock: TEMPAE_clean_linker_10, # of connection points: 2
# Relax obj value: 0.049
# Max RMSD: 0.085
# Mean RMSD: 0.085
data_MOF--net-atn--node1-QUQFOY_clean_sbu_1--edge1-TEMPAE_clean_linker_10
_symmetry_space_group_name_H-M    P1
_symmetry_Int_Tables_number       1
_symmetry_cell_setting            triclinic
loop_
_symmetry_equiv_pos_as_xyz
'x, y, z'
_cell_length_a     63.114296
_cell_length_b     63.110413
_cell_length_c     28.944955
_cell_angle_alpha  89.98192
_cell_angle_beta   89.97832
_cell_angle_gamma 89.998193
loop_
_atom_site_label
_atom_site_type_symbol
_atom_site_fract_x
_atom_site_fract_y
_atom_site_fract_z
_atom_type_partial_charge
O0 O 0.19166 0.3765 0.10932 0.0
Cd1 Cd 0.21075 0.38417 0.05437 0.0
Cd2 Cd 0.18769 0.35271 0.01316 0.0
O3 O 0.17214 0.35166 0.07647 0.0
O4 O 0.22336 0.41175 0.07273 0.0
O5 O 0.20196 0.40811 0.01275 0.0
C6 C 0.21314 0.42031 0.03904 0.0
C7 C 0.17007 0.35306 0.94192 0.0
C8 C 0.17689 0.36289 0.11151 0.0
C9 C 0.23496 0.34618 0.02282 0.0
O10 O 0.21715 0.33875 1.01035 0.0
O11 O 0.23619 0.36454 0.04061 0.0
O12 O 0.17081 0.33626 0.96722 0.0
O13 O 0.17828 0.37023 0.95845 0.0
O14 O 0.62482 0.19603 0.10734 0.0
Cd15 Cd 0.61569 0.21161 0.04863 0.0
Cd16 Cd 0.64505 0.18603 1.01095 0.0
O17 O 0.64384 0.1707 0.07502 0.0
O18 O 0.58816 0.22477 0.06538 0.0
O19 O 0.59146 0.20043 1.01084 0.0
C20 C 0.57939 0.21279 0.03483 0.0
C21 C 0.6445 0.16838 0.93958 0.0
C22 C 0.6356 0.17913 0.11079 0.0
C23 C 0.65393 0.23333 0.01506 0.0
O24 O 0.66108 0.21473 1.00829 0.0
O25 O 0.63497 0.23603 0.02846 0.0
O26 O 0.66096 0.16798 0.96598 0.0
O27 O 0.62769 0.17767 0.95512 0.0
O28 O 0.80324 0.62491 0.1113 0.0
Cd29 Cd 0.78774 0.61507 0.05302 0.0
Cd30 Cd 0.81307 0.64461 0.01413 0.0
O31 O 0.82841 0.6439 0.07824 0.0
O32 O 0.77479 0.58761 0.07112 0.0
O33 O 0.79902 0.59056 0.01622 0.0
C34 C 0.78675 0.57864 0.04079 0.0
C35 C 0.83081 0.64444 0.94278 0.0
C36 C 0.82005 0.63586 0.1143 0.0
C37 C 0.7656 0.6528 0.018 0.0
O38 O 0.7841 0.66014 1.01109 0.0
O39 O 0.76313 0.6339 0.03202 0.0
O40 O 0.83084 0.66089 0.96922 0.0
O41 O 0.82188 0.62743 0.95829 0.0
O42 O 0.37446 0.79957 0.11603 0.0
Cd43 Cd 0.38262 0.78583 0.05387 0.0
Cd44 Cd 0.35434 0.81323 0.02556 0.0
O45 O 0.35946 0.82839 0.08821 0.0
O46 O 0.40965 0.77092 0.06731 0.0
O47 O 0.40719 0.79766 0.01815 0.0
C48 C 0.41883 0.7839 0.03933 0.0
C49 C 0.35532 0.82952 0.9529 0.0
C50 C 0.36643 0.8178 0.12241 0.0
C51 C 0.34251 0.76724 0.02533 0.0
O52 O 0.33582 0.78618 0.02846 0.0
O53 O 0.3622 0.76335 0.02801 0.0
O54 O 0.33953 0.83221 0.98067 0.0
O55 O 0.37129 0.8186 0.96764 0.0
O56 O 0.18969 0.62088 0.92714 0.0
Cd57 Cd 0.20759 0.61517 0.98567 0.0
Cd58 Cd 0.18335 0.64719 0.01596 0.0
O59 O 0.16674 0.64392 0.95529 0.0
O60 O 0.2219 0.588 0.97044 0.0
O61 O 0.19879 0.59121 0.02741 0.0
C62 C 0.21115 0.57927 1.00313 0.0
C63 C 0.16813 0.64636 0.0894 0.0
C64 C 0.17343 0.63254 0.92212 0.0
C65 C 0.22967 0.65568 1.00667 0.0
O66 O 0.21129 0.66366 1.01013 0.0
O67 O 0.23211 0.63586 1.00118 0.0
O68 O 0.16623 0.66271 0.06288 0.0
O69 O 0.17785 0.62993 0.07314 0.0
O70 O 0.37625 0.18915 0.934 0.0
Cd71 Cd 0.38407 0.20858 0.98822 0.0
Cd72 Cd 0.35236 0.1861 0.03024 0.0
O73 O 0.35092 0.17036 0.96722 0.0
O74 O 0.41155 0.22103 0.96877 0.0
O75 O 0.40818 0.20019 0.02977 0.0
C76 C 0.42026 0.21115 1.00277 0.0
C77 C 0.35276 0.16859 0.10161 0.0
C78 C 0.36233 0.17465 0.93215 0.0
C79 C 0.34636 0.23337 0.01951 0.0
O80 O 0.33879 0.21575 0.03286 0.0
O81 O 0.36463 0.23425 1.00117 0.0
O82 O 0.33586 0.16953 0.07666 0.0
O83 O 0.36996 0.17656 0.08468 0.0
O84 O 0.81088 0.37738 0.93471 0.0
Cd85 Cd 0.79106 0.38376 0.98908 0.0
Cd86 Cd 0.81415 0.35239 0.0293 0.0
O87 O 0.83035 0.3523 0.96681 0.0
O88 O 0.77804 0.41129 0.97182 0.0
O89 O 0.7988 0.40729 0.03276 0.0
C90 C 0.7877 0.41961 1.00657 0.0
C91 C 0.83108 0.35299 0.10121 0.0
C92 C 0.82584 0.36399 0.93233 0.0
C93 C 0.76731 0.34479 0.01627 0.0
O94 O 0.78505 0.33763 0.02995 0.0
O95 O 0.76595 0.36333 0.99938 0.0
O96 O 0.83102 0.33623 0.0757 0.0
O97 O 0.8225 0.36997 0.08461 0.0
O98 O 0.61998 0.80826 0.93399 0.0
Cd99 Cd 0.61371 0.78822 0.98806 0.0
Cd100 Cd 0.64483 0.81162 0.02877 0.0
O101 O 0.64491 0.82785 0.9663 0.0
O102 O 0.58635 0.775 0.97032 0.0
O103 O 0.59003 0.79558 0.03166 0.0
C104 C 0.57786 0.78447 1.00515 0.0
C105 C 0.6441 0.82854 0.1007 0.0
C106 C 0.63326 0.82332 0.93178 0.0
C107 C 0.65283 0.76482 0.01563 0.0
O108 O 0.65976 0.78261 0.02952 0.0
O109 O 0.63438 0.76329 0.99838 0.0
O110 O 0.66086 0.82858 0.0752 0.0
O111 O 0.62718 0.81988 0.08408 0.0
O112 O 0.68545 0.87606 0.60671 0.0
Cd113 Cd 0.70592 0.88293 0.55379 0.0
Cd114 Cd 0.68385 0.85108 0.51174 0.0
O115 O 0.66728 0.85024 0.57376 0.0
O116 O 0.71858 0.91032 0.57317 0.0
O117 O 0.69883 0.90686 0.51054 0.0
C118 C 0.70952 0.91895 0.538 0.0
C119 C 0.66718 0.85144 0.43949 0.0
C120 C 0.67097 0.86212 0.60837 0.0
C121 C 0.73071 0.8445 0.5268 0.0
O122 O 0.71333 0.8371 0.51164 0.0
O123 O 0.73144 0.86287 0.54466 0.0
O124 O 0.66767 0.8346 0.46471 0.0
O125 O 0.6752 0.8686 0.45649 0.0
O126 O 0.1229 0.6836 0.59819 0.0
Cd127 Cd 0.11593 0.70549 0.54801 0.0
Cd128 Cd 0.14757 0.68406 0.50274 0.0
O129 O 0.14875 0.66634 0.56305 0.0
O130 O 0.0889 0.71808 0.57002 0.0
O131 O 0.09151 0.69981 0.50509 0.0
C132 C 0.07983 0.71001 0.53426 0.0
C133 C 0.14721 0.66843 0.42946 0.0
C134 C 0.13688 0.66915 0.59806 0.0
C135 C 0.15445 0.73055 0.5222 0.0
O136 O 0.16158 0.71349 0.50488 0.0
O137 O 0.13625 0.73099 0.54094 0.0
O138 O 0.1641 0.66873 0.45451 0.0
O139 O 0.13003 0.67611 0.44709 0.0
O140 O 0.30796 0.12118 0.60714 0.0
Cd141 Cd 0.28881 0.11343 0.55238 0.0
Cd142 Cd 0.31164 0.14502 0.51111 0.0
O143 O 0.32731 0.14616 0.57422 0.0
O144 O 0.27619 0.08597 0.57151 0.0
O145 O 0.29745 0.08927 0.51118 0.0
C146 C 0.28632 0.07721 0.53793 0.0
C147 C 0.32916 0.14458 0.43975 0.0
C148 C 0.32267 0.13486 0.60925 0.0
C149 C 0.2644 0.15137 0.52119 0.0
O150 O 0.28215 0.1589 0.50859 0.0
O151 O 0.26328 0.13297 0.53887 0.0
O152 O 0.32841 0.16144 0.46489 0.0
O153 O 0.321 0.12742 0.45651 0.0
O154 O 0.87726 0.31055 0.6074 0.0
Cd155 Cd 0.88398 0.29017 0.55423 0.0
Cd156 Cd 0.85257 0.31276 0.51206 0.0
O157 O 0.85183 0.32919 0.57422 0.0
O158 O 0.91136 0.27725 0.57288 0.0
O159 O 0.90779 0.2975 0.51095 0.0
C160 C 0.91991 0.28657 0.53793 0.0
C161 C 0.85329 0.32957 0.43998 0.0
C162 C 0.86356 0.32525 0.60895 0.0
C163 C 0.84536 0.26593 0.5264 0.0
O164 O 0.83821 0.28346 0.51147 0.0
O165 O 0.86368 0.2649 0.54444 0.0
O166 O 0.83639 0.32926 0.46507 0.0
O167 O 0.87031 0.3213 0.45706 0.0
O168 O 0.69727 0.12399 0.43314 0.0
Cd169 Cd 0.71257 0.11435 0.49184 0.0
Cd170 Cd 0.68692 0.14349 0.53001 0.0
O171 O 0.6716 0.14239 0.46593 0.0
O172 O 0.72548 0.08674 0.4749 0.0
O173 O 0.7009 0.09014 0.52895 0.0
C174 C 0.71324 0.07801 0.50504 0.0
C175 C 0.66921 0.1431 0.60136 0.0
C176 C 0.68023 0.13456 0.42996 0.0
C177 C 0.73426 0.1523 0.52651 0.0
O178 O 0.71565 0.15947 0.53284 0.0
O179 O 0.73699 0.13335 0.5131 0.0
O180 O 0.6689 0.15952 0.57482 0.0
O181 O 0.67842 0.12623 0.58595 0.0
O182 O 0.87483 0.69834 0.43658 0.0
Cd183 Cd 0.88418 0.71376 0.49536 0.0
Cd184 Cd 0.85524 0.68774 0.53328 0.0
O185 O 0.85657 0.6725 0.46912 0.0
O186 O 0.91161 0.7271 0.47842 0.0
O187 O 0.9086 0.7024 0.53232 0.0
C188 C 0.92054 0.71492 0.50841 0.0
C189 C 0.85583 0.67001 0.60463 0.0
C190 C 0.8644 0.68122 0.43323 0.0
C191 C 0.84587 0.73497 0.5298 0.0
O192 O 0.83891 0.71627 0.53606 0.0
O193 O 0.86482 0.73793 0.51657 0.0
O194 O 0.83943 0.66949 0.57809 0.0
O195 O 0.87259 0.67946 0.58923 0.0
O196 O 0.30504 0.87153 0.44437 0.0
Cd197 Cd 0.28866 0.88129 0.50164 0.0
Cd198 Cd 0.31348 0.8516 0.54158 0.0
O199 O 0.32964 0.85225 0.47858 0.0
O200 O 0.27564 0.90849 0.48202 0.0
O201 O 0.29912 0.90617 0.53851 0.0
C202 C 0.28706 0.9178 0.51281 0.0
C203 C 0.33049 0.852 0.61363 0.0
C204 C 0.32181 0.86048 0.44218 0.0
C205 C 0.26609 0.84342 0.53496 0.0
O206 O 0.2845 0.83605 0.54284 0.0
O207 O 0.26382 0.86237 0.52109 0.0
O208 O 0.3307 0.83543 0.58757 0.0
O209 O 0.32172 0.86896 0.59749 0.0
O210 O 0.12297 0.3084 0.43592 0.0
Cd211 Cd 0.1151 0.28881 0.48989 0.0
Cd212 Cd 0.14682 0.31118 0.53237 0.0
O213 O 0.14832 0.32703 0.46943 0.0
O214 O 0.08766 0.27631 0.47034 0.0
O215 O 0.09095 0.29711 0.53141 0.0
C216 C 0.07892 0.28612 0.5044 0.0
C217 C 0.14648 0.32859 0.60387 0.0
C218 C 0.13693 0.32286 0.43428 0.0
C219 C 0.15279 0.26394 0.52103 0.0
O220 O 0.16035 0.2815 0.53471 0.0
O221 O 0.13454 0.26313 0.50258 0.0
O222 O 0.16338 0.32763 0.57888 0.0
O223 O 0.12925 0.3207 0.58693 0.0
C224 C 0.19869 0.54604 0.04201 0.0
C225 C 0.21228 0.5561 1.01057 0.0
C226 C 0.19876 0.52389 0.04682 0.0
C227 C 0.2128 0.51158 0.01966 0.0
C228 C 0.22677 0.52168 0.98843 0.0
C229 C 0.22633 0.5438 0.98423 0.0
C230 C 0.18365 0.51363 0.08053 0.0
C231 C 0.24207 0.5091 0.9591 0.0
C232 C 0.22667 0.45616 0.0604 0.0
C233 C 0.21359 0.44356 0.03243 0.0
C234 C 0.22657 0.4783 0.05656 0.0
C235 C 0.21302 0.48811 0.02405 0.0
C236 C 0.1999 0.47551 0.9954 0.0
C237 C 0.20038 0.45335 0.99986 0.0
C238 C 0.24089 0.4912 0.08748 0.0
C239 C 0.18525 0.48544 0.96033 0.0
H240 H 0.18774 0.55543 0.06234 0.0
H241 H 0.23689 0.55144 0.95985 0.0
H242 H 0.17295 0.50261 0.06191 0.0
H243 H 0.19261 0.50413 0.10618 0.0
H244 H 0.17384 0.52545 0.0993 0.0
H245 H 0.25205 0.5194 0.93684 0.0
H246 H 0.25259 0.49948 0.98149 0.0
H247 H 0.2332 0.49794 0.93668 0.0
H248 H 0.23694 0.44873 0.08566 0.0
H249 H 0.19018 0.44372 0.97828 0.0
H250 H 0.23129 0.50219 0.10885 0.0
H251 H 0.25173 0.50103 0.0662 0.0
H252 H 0.25057 0.48112 0.11082 0.0
H253 H 0.17398 0.49627 0.97791 0.0
H254 H 0.17605 0.47343 0.94074 0.0
H255 H 0.19451 0.49511 0.93547 0.0
C256 C 0.45346 0.19922 0.04253 0.0
C257 C 0.44352 0.21182 1.00905 0.0
C258 C 0.47562 0.19903 0.0469 0.0
C259 C 0.48807 0.21182 0.01719 0.0
C260 C 0.4781 0.22472 0.98366 0.0
C261 C 0.45596 0.22455 0.97997 0.0
C262 C 0.48574 0.18507 0.08306 0.0
C263 C 0.49083 0.23866 0.95155 0.0
C264 C 0.5436 0.22691 0.05477 0.0
C265 C 0.5561 0.21282 0.02902 0.0
C266 C 0.52145 0.22669 0.05135 0.0
C267 C 0.51153 0.21199 0.0215 0.0
C268 C 0.52402 0.19776 0.99522 0.0
C269 C 0.5462 0.19837 0.99923 0.0
C270 C 0.50866 0.24219 0.07971 0.0
C271 C 0.51396 0.18186 0.96302 0.0
H272 H 0.44394 0.18928 0.06498 0.0
H273 H 0.44841 0.23434 0.95399 0.0
H274 H 0.49672 0.17368 0.06635 0.0
H275 H 0.49527 0.19485 0.10719 0.0
H276 H 0.47384 0.17603 0.10335 0.0
H277 H 0.48063 0.24778 0.9274 0.0
H278 H 0.50049 0.25 0.9719 0.0
H279 H 0.50196 0.22885 0.93101 0.0
H280 H 0.55112 0.23813 0.07789 0.0
H281 H 0.55575 0.18739 0.97937 0.0
H282 H 0.49755 0.2335 0.10258 0.0
H283 H 0.49897 0.25234 0.05661 0.0
H284 H 0.51882 0.25257 0.10141 0.0
H285 H 0.50299 0.17146 0.9826 0.0
H286 H 0.5259 0.17179 0.94532 0.0
H287 H 0.50444 0.19021 0.93645 0.0
C288 C 0.79969 0.45244 0.04767 0.0
C289 C 0.78682 0.44277 0.0143 0.0
C290 C 0.79996 0.47457 0.0528 0.0
C291 C 0.78698 0.48726 0.02401 0.0
C292 C 0.7737 0.47755 0.99085 0.0
C293 C 0.7738 0.45544 0.98636 0.0
C294 C 0.81432 0.4844 0.08856 0.0
C295 C 0.75952 0.49053 0.95974 0.0
C296 C 0.7728 0.54295 0.06227 0.0
C297 C 0.7867 0.55531 0.03566 0.0
C298 C 0.77285 0.52079 0.05906 0.0
C299 C 0.78716 0.51071 0.02856 0.0
C300 C 0.80125 0.52306 1.00158 0.0
C301 C 0.80083 0.54524 1.0054 0.0
C302 C 0.75752 0.50816 0.08821 0.0
C303 C 0.81674 0.51283 0.96867 0.0
H304 H 0.80985 0.44275 0.06924 0.0
H305 H 0.76378 0.4481 0.96051 0.0
H306 H 0.82581 0.49517 0.0715 0.0
H307 H 0.80488 0.49411 0.11301 0.0
H308 H 0.82326 0.47232 0.10853 0.0
H309 H 0.74993 0.48051 0.93613 0.0
H310 H 0.74861 0.50035 0.98085 0.0
H311 H 0.76923 0.50153 0.93863 0.0
H312 H 0.76184 0.55059 0.0858 0.0
H313 H 0.81166 0.55468 0.98488 0.0
H314 H 0.76631 0.49685 0.1104 0.0
H315 H 0.74694 0.4987 0.06561 0.0
H316 H 0.74757 0.51841 0.11065 0.0
H317 H 0.8271 0.50162 0.98769 0.0
H318 H 0.82688 0.52465 0.95076 0.0
H319 H 0.80804 0.50353 0.94227 0.0
C320 C 0.54207 0.77105 0.98314 0.0
C321 C 0.55469 0.78341 0.01257 0.0
C322 C 0.51995 0.77088 0.98737 0.0
C323 C 0.51018 0.78337 0.02188 0.0
C324 C 0.52281 0.79564 0.05221 0.0
C325 C 0.54495 0.7955 0.04722 0.0
C326 C 0.50703 0.75751 0.95452 0.0
C327 C 0.51291 0.80912 0.08951 0.0
C328 C 0.45234 0.79819 1.00491 0.0
C329 C 0.44213 0.78345 0.0335 0.0
C330 C 0.47452 0.79841 1.00093 0.0
C331 C 0.48671 0.78354 0.02615 0.0
C332 C 0.47648 0.76855 0.05483 0.0
C333 C 0.45432 0.76868 0.05814 0.0
C334 C 0.48491 0.8146 0.96987 0.0
C335 C 0.48895 0.75241 0.08215 0.0
H336 H 0.54946 0.76165 0.95626 0.0
H337 H 0.55459 0.80514 0.06999 0.0
H338 H 0.49712 0.74614 0.97421 0.0
H339 H 0.49612 0.76776 0.93442 0.0
H340 H 0.51709 0.74847 0.92996 0.0
H341 H 0.52495 0.8175 0.1107 0.0
H342 H 0.50224 0.82107 0.0737 0.0
H343 H 0.50308 0.79912 0.11265 0.0
H344 H 0.44303 0.80969 0.98588 0.0
H345 H 0.44656 0.75725 0.0804 0.0
H346 H 0.49433 0.80647 0.94279 0.0
H347 H 0.49603 0.82451 0.9902 0.0
H348 H 0.47318 0.82513 0.9528 0.0
H349 H 0.49848 0.74243 0.0584 0.0
H350 H 0.47858 0.74191 0.10309 0.0
H351 H 0.50019 0.76056 0.10564 0.0
C352 C 0.69818 0.04487 0.53968 0.0
C353 C 0.71297 0.0547 0.51055 0.0
C354 C 0.69733 0.0227 0.5435 0.0
C355 C 0.71168 0.01012 0.51773 0.0
C356 C 0.7267 0.01996 0.48849 0.0
C357 C 0.72715 0.04211 0.48521 0.0
C358 C 0.68108 0.01273 0.57503 0.0
C359 C 0.74234 0.00708 0.46069 0.0
C360 C 0.72333 0.95453 0.56038 0.0
C361 C 0.7107 0.94214 0.53104 0.0
C362 C 0.72383 0.97665 0.55629 0.0
C363 C 0.71133 0.98666 0.52211 0.0
C364 C 0.69869 0.97427 0.49204 0.0
C365 C 0.69856 0.95212 0.4968 0.0
C366 C 0.73762 0.98931 0.58879 0.0
C367 C 0.68515 0.98444 0.45519 0.0
H368 H 0.68712 0.05449 0.5592 0.0
H369 H 0.73863 0.04957 0.46258 0.0
H370 H 0.67083 0.00178 0.55505 0.0
H371 H 0.68912 0.0032 0.60202 0.0
H372 H 0.67088 0.02473 0.59221 0.0
H373 H 0.75293 0.01717 0.43931 0.0
H374 H 0.75227 0.99735 0.48417 0.0
H375 H 0.73376 0.996 0.43758 0.0
H376 H 0.73278 0.94695 0.58693 0.0
H377 H 0.6887 0.94265 0.47415 0.0
H378 H 0.72772 0.00048 0.60903 0.0
H379 H 0.74913 0.99893 0.56878 0.0
H380 H 0.74653 0.97908 0.61323 0.0
H381 H 0.67363 0.99545 0.47135 0.0
H382 H 0.67629 0.97257 0.43448 0.0
H383 H 0.69521 0.99394 0.43154 0.0
C384 C 0.95394 0.6998 0.5416 0.0
C385 C 0.94387 0.71484 0.51351 0.0
C386 C 0.97613 0.69896 0.54456 0.0
C387 C 0.9885 0.71358 0.51901 0.0
C388 C 0.97841 0.72894 0.49104 0.0
C389 C 0.95623 0.72936 0.48857 0.0
C390 C 0.98636 0.68233 0.57473 0.0
C391 C 0.99106 0.7449 0.46358 0.0
C392 C 0.0447 0.7241 0.55921 0.0
C393 C 0.0566 0.71168 0.52849 0.0
C394 C 0.02255 0.72495 0.55631 0.0
C395 C 0.012 0.71301 0.52196 0.0
C396 C 0.0239 0.70062 0.49046 0.0
C397 C 0.0461 0.70015 0.49401 0.0
C398 C 0.01042 0.73849 0.59028 0.0
C399 C 0.01316 0.68766 0.45341 0.0
H400 H 0.94449 0.68847 0.56081 0.0
H401 H 0.94858 0.74106 0.4668 0.0
H402 H 0.99694 0.67217 0.5536 0.0
H403 H 0.99633 0.69004 0.60144 0.0
H404 H 0.97451 0.67208 0.59223 0.0
H405 H 0.98078 0.75589 0.44365 0.0
H406 H 0.00119 0.75438 0.48709 0.0
H407 H 0.00174 0.73658 0.43913 0.0
H408 H 0.0527 0.73309 0.58593 0.0
H409 H 0.05518 0.69045 0.47029 0.0
H410 H -0.00054 0.72845 0.61073 0.0
H411 H 0.00062 0.75027 0.57148 0.0
H412 H 0.02104 0.74707 0.61448 0.0
H413 H 0.00227 0.676 0.46952 0.0
H414 H 0.02469 0.67898 0.43143 0.0
H415 H 0.00345 0.69809 0.431 0.0
C416 C 0.29902 0.04392 0.4997 0.0
C417 C 0.28585 0.05393 0.53203 0.0
C418 C 0.29953 0.02172 0.49609 0.0
C419 C 0.2865 0.00932 0.52537 0.0
C420 C 0.27297 0.01937 0.55759 0.0
C421 C 0.27283 0.04153 0.56056 0.0
C422 C 0.31417 0.01153 0.46131 0.0
C423 C 0.25873 0.00669 0.58918 0.0
C424 C 0.27286 0.95315 0.48962 0.0
C425 C 0.28671 0.94116 0.5171 0.0
C426 C 0.27272 0.97534 0.49181 0.0
C427 C 0.28681 0.98582 0.52214 0.0
C428 C 0.30082 0.97385 0.55007 0.0
C429 C 0.30058 0.95163 0.54728 0.0
C430 C 0.25747 0.98756 0.46169 0.0
C431 C 0.31607 0.98451 0.58282 0.0
H432 H 0.30918 0.0534 0.47768 0.0
H433 H 0.26258 0.04913 0.58563 0.0
H434 H 0.32555 0.00097 0.47927 0.0
H435 H 0.30491 0.00155 0.43708 0.0
H436 H 0.32323 0.02341 0.441 0.0
H437 H 0.24902 0.01694 0.61209 0.0
H438 H 0.24794 0.9966 0.56844 0.0
H439 H 0.2684 0.99597 0.61103 0.0
H440 H 0.2621 0.9452 0.46617 0.0
H441 H 0.31138 0.94247 0.56847 0.0
H442 H 0.26632 0.99863 0.439 0.0
H443 H 0.24677 0.99726 0.48355 0.0
H444 H 0.24765 0.97701 0.43968 0.0
H445 H 0.32652 0.99552 0.56345 0.0
H446 H 0.32613 0.97295 0.60169 0.0
H447 H 0.30718 0.99411 0.60842 0.0
C448 C 0.0456 0.29868 0.54265 0.0
C449 C 0.05567 0.28537 0.51069 0.0
C450 C 0.02342 0.29888 0.54674 0.0
C451 C 0.0111 0.28535 0.51843 0.0
C452 C 0.02121 0.27167 0.48661 0.0
C453 C 0.04336 0.27189 0.48303 0.0
C454 C 0.01316 0.31372 0.581 0.0
C455 C 0.00862 0.25687 0.45615 0.0
C456 C 0.95544 0.27191 0.55813 0.0
C457 C 0.9431 0.28551 0.53079 0.0
C458 C 0.97757 0.2716 0.55419 0.0
C459 C 0.98763 0.28531 0.52235 0.0
C460 C 0.97527 0.29891 0.49423 0.0
C461 C 0.95311 0.29878 0.49866 0.0
C462 C 0.9902 0.25673 0.58442 0.0
C463 C 0.98548 0.31379 0.45998 0.0
H464 H 0.05501 0.3092 0.56397 0.0
H465 H 0.05102 0.26153 0.45829 0.0
H466 H 0.00224 0.32467 0.56273 0.0
H467 H 0.00354 0.30456 0.60611 0.0
H468 H 0.02498 0.32327 0.60036 0.0
H469 H 0.01892 0.24707 0.43352 0.0
H470 H 0.99881 0.24616 0.47775 0.0
H471 H 0.99763 0.26611 0.43405 0.0
H472 H 0.94781 0.26157 0.58298 0.0
H473 H 0.94367 0.3094 0.47761 0.0
H474 H 0.00113 0.26593 0.60673 0.0
H475 H 7e-05 0.24614 0.56268 0.0
H476 H 0.97992 0.2468 0.60684 0.0
H477 H 0.9963 0.32481 0.47829 0.0
H478 H 0.97363 0.32326 0.44052 0.0
H479 H 0.9952 0.30469 0.43496 0.0
C480 C 0.25384 0.31493 0.98983 0.0
C481 C 0.25405 0.33268 0.01893 0.0
C482 C 0.27082 0.30062 0.98916 0.0
C483 C 0.28833 0.30398 0.0188 0.0
C484 C 0.28906 0.32232 0.04692 0.0
C485 C 0.27194 0.33656 0.04643 0.0
C486 C 0.26958 0.28143 0.9581 0.0
C487 C 0.30739 0.32634 0.07922 0.0
C488 C 0.31572 0.25299 0.05317 0.0
C489 C 0.33313 0.25266 0.0231 0.0
C490 C 0.30164 0.27015 0.05373 0.0
C491 C 0.30486 0.2873 0.02296 0.0
C492 C 0.32287 0.28747 0.99378 0.0
C493 C 0.33691 0.27019 0.99443 0.0
C494 C 0.28281 0.26951 0.08594 0.0
C495 C 0.32673 0.30538 0.96024 0.0
H496 H 0.24017 0.31196 0.96811 0.0
H497 H 0.27218 0.35023 0.06907 0.0
H498 H 0.28429 0.27993 0.93736 0.0
H499 H 0.26813 0.26689 0.97944 0.0
H500 H 0.25583 0.28214 0.93419 0.0
H501 H 0.3066 0.34231 0.09527 0.0
H502 H 0.30733 0.31428 0.10712 0.0
H503 H 0.32267 0.3248 0.06057 0.0
H504 H 0.31284 0.23959 0.07579 0.0
H505 H 0.35032 0.27001 0.97102 0.0
H506 H 0.26801 0.268 0.06553 0.0
H507 H 0.28173 0.28448 0.10591 0.0
H508 H 0.28365 0.25604 0.11058 0.0
H509 H 0.31435 0.30515 0.93303 0.0
H510 H 0.34249 0.30421 0.94334 0.0
H511 H 0.32558 0.32089 0.97809 0.0
C512 C 0.73177 0.33377 0.98646 0.0
C513 C 0.74851 0.33084 0.01767 0.0
C514 C 0.71497 0.31921 0.98419 0.0
C515 C 0.71474 0.3016 0.0145 0.0
C516 C 0.73114 0.29911 0.04743 0.0
C517 C 0.74793 0.31363 0.04828 0.0
C518 C 0.69793 0.3222 0.94817 0.0
C519 C 0.73123 0.2808 0.08104 0.0
C520 C 0.6643 0.27031 0.03592 0.0
C521 C 0.66829 0.25173 1.0108 0.0
C522 C 0.67903 0.28698 0.03653 0.0
C523 C 0.69797 0.28516 1.01063 0.0
C524 C 0.70157 0.26687 0.98338 0.0
C525 C 0.6868 0.25027 0.9842 0.0
C526 C 0.6748 0.30605 0.06665 0.0
C527 C 0.72137 0.26454 0.9545 0.0
H528 H 0.73224 0.34697 0.96251 0.0
H529 H 0.76076 0.3114 0.07271 0.0
H530 H 0.69848 0.3089 0.92313 0.0
H531 H 0.68204 0.32195 0.96451 0.0
H532 H 0.69978 0.33732 0.92891 0.0
H533 H 0.74427 0.28202 0.10666 0.0
H534 H 0.71593 0.28006 0.09989 0.0
H535 H 0.73303 0.26567 0.06193 0.0
H536 H 0.65008 0.27147 0.05679 0.0
H537 H 0.68986 0.236 0.96445 0.0
H538 H 0.67658 0.32086 0.0464 0.0
H539 H 0.68662 0.3066 0.09501 0.0
H540 H 0.65869 0.30571 0.0821 0.0
H541 H 0.72363 0.27874 0.93244 0.0
H542 H 0.72085 0.25028 0.93202 0.0
H543 H 0.7354 0.26329 0.97742 0.0
C544 C 0.7283 0.66263 0.03756 0.0
C545 C 0.74701 0.66687 0.01303 0.0
C546 C 0.71142 0.67711 0.03751 0.0
C547 C 0.71315 0.69605 1.01158 0.0
C548 C 0.73157 0.69988 0.98488 0.0
C549 C 0.74837 0.68535 0.98632 0.0
C550 C 0.69219 0.67264 0.06701 0.0
C551 C 0.73383 0.71969 0.95601 0.0
C552 C 0.66436 0.72939 0.98605 0.0
C553 C 0.66694 0.74615 0.01736 0.0
C554 C 0.67909 0.71271 0.9842 0.0
C555 C 0.6965 0.71264 0.01502 0.0
C556 C 0.69862 0.72905 0.04804 0.0
C557 C 0.68394 0.74571 0.04848 0.0
C558 C 0.67649 0.69565 0.94809 0.0
C559 C 0.71672 0.72931 0.08217 0.0
H560 H 0.7272 0.64843 0.05849 0.0
H561 H 0.76273 0.6886 0.96699 0.0
H562 H 0.69133 0.6844 0.09545 0.0
H563 H 0.67749 0.67429 0.04634 0.0
H564 H 0.69259 0.6565 0.08234 0.0
H565 H 0.74822 0.71932 0.93391 0.0
H566 H 0.71973 0.72178 0.93357 0.0
H567 H 0.73478 0.73374 0.97893 0.0
H568 H 0.65131 0.72974 0.96172 0.0
H569 H 0.6859 0.75855 0.073 0.0
H570 H 0.67685 0.67976 0.9644 0.0
H571 H 0.68991 0.69638 0.92335 0.0
H572 H 0.66145 0.69733 0.9285 0.0
H573 H 0.71749 0.71401 0.10102 0.0
H574 H 0.71521 0.74234 0.10776 0.0
H575 H 0.73195 0.73126 0.06349 0.0
C576 C 0.26461 0.66703 0.03825 0.0
C577 C 0.2481 0.66987 1.00665 0.0
C578 C 0.28119 0.68185 0.04105 0.0
C579 C 0.28149 0.69936 1.01034 0.0
C580 C 0.26533 0.70156 0.97677 0.0
C581 C 0.24858 0.687 0.97599 0.0
C582 C 0.29776 0.67934 0.07824 0.0
C583 C 0.26542 0.71959 0.94244 0.0
C584 C 0.30762 0.75114 0.04405 0.0
C585 C 0.3272 0.74969 0.02149 0.0
C586 C 0.29295 0.73451 0.04201 0.0
C587 C 0.29769 0.71629 0.01538 0.0
C588 C 0.31741 0.7148 0.99222 0.0
C589 C 0.33213 0.7314 0.99625 0.0
C590 C 0.27236 0.73646 0.06828 0.0
C591 C 0.32272 0.69594 0.96231 0.0
H592 H 0.26404 0.65378 0.06207 0.0
H593 H 0.23579 0.68899 0.95134 0.0
H594 H 0.31388 0.67979 0.06299 0.0
H595 H 0.29661 0.69277 0.10287 0.0
H596 H 0.2959 0.6643 0.09776 0.0
H597 H 0.25306 0.71766 0.91545 0.0
H598 H 0.26258 0.73478 0.96067 0.0
H599 H 0.28112 0.72075 0.92535 0.0
H600 H 0.30394 0.76517 0.06412 0.0
H601 H 0.34728 0.73033 0.97871 0.0
H602 H 0.27 0.72238 0.09066 0.0
H603 H 0.25889 0.73706 0.04372 0.0
H604 H 0.27184 0.75091 0.09018 0.0
H605 H 0.32169 0.68112 0.98277 0.0
H606 H 0.33883 0.69709 0.94707 0.0
H607 H 0.31101 0.69465 0.93385 0.0
C608 C 0.81247 0.75121 0.5597 0.0
C609 C 0.83128 0.7532 0.53433 0.0
C610 C 0.79745 0.76759 0.56041 0.0
C611 C 0.80116 0.78623 0.53435 0.0
C612 C 0.82043 0.78861 0.50987 0.0
C613 C 0.83537 0.77213 0.51052 0.0
C614 C 0.77728 0.76464 0.58774 0.0
C615 C 0.82481 0.8081 0.48113 0.0
C616 C 0.75124 0.81416 0.49452 0.0
C617 C 0.74983 0.83098 0.52598 0.0
C618 C 0.76833 0.79998 0.4958 0.0
C619 C 0.78416 0.80242 0.53003 0.0
C620 C 0.78311 0.81966 0.56122 0.0
C621 C 0.76603 0.83389 0.55851 0.0
C622 C 0.76912 0.78206 0.46126 0.0
C623 C 0.79952 0.82258 0.5986 0.0
H624 H 0.80932 0.73668 0.57847 0.0
H625 H 0.84984 0.77372 0.49063 0.0
H626 H 0.77444 0.77857 0.61029 0.0
H627 H 0.76362 0.76339 0.56377 0.0
H628 H 0.77771 0.75017 0.60957 0.0
H629 H 0.84119 0.80823 0.46706 0.0
H630 H 0.81351 0.80874 0.45181 0.0
H631 H 0.82239 0.82264 0.50195 0.0
H632 H 0.73883 0.81195 0.46907 0.0
H633 H 0.76493 0.84679 0.58312 0.0
H634 H 0.76732 0.76669 0.47944 0.0
H635 H 0.78472 0.78183 0.44355 0.0
H636 H 0.75646 0.78333 0.43475 0.0
H637 H 0.79879 0.80904 0.62303 0.0
H638 H 0.79714 0.83749 0.61833 0.0
H639 H 0.81567 0.82272 0.58346 0.0
C640 C 0.24875 0.81019 0.56289 0.0
C641 C 0.24744 0.8293 0.53835 0.0
C642 C 0.232 0.79558 0.56231 0.0
C643 C 0.21366 0.80003 0.53587 0.0
C644 C 0.21191 0.81962 0.51237 0.0
C645 C 0.22877 0.83411 0.51421 0.0
C646 C 0.2343 0.77502 0.58855 0.0
C647 C 0.19272 0.82482 0.48335 0.0
C648 C 0.18515 0.7512 0.49187 0.0
C649 C 0.16816 0.74956 0.52286 0.0
C650 C 0.19957 0.76803 0.49468 0.0
C651 C 0.19717 0.78342 0.52987 0.0
C652 C 0.17971 0.78221 0.56048 0.0
C653 C 0.16527 0.76537 0.55635 0.0
C654 C 0.21776 0.76899 0.46078 0.0
C655 C 0.17677 0.79819 0.59875 0.0
H656 H 0.26307 0.80646 0.58193 0.0
H657 H 0.22767 0.84882 0.49499 0.0
H658 H 0.22014 0.77222 0.61044 0.0
H659 H 0.23543 0.76164 0.56382 0.0
H660 H 0.2486 0.77487 0.61089 0.0
H661 H 0.19299 0.84141 0.47052 0.0
H662 H 0.19209 0.81399 0.45318 0.0
H663 H 0.17798 0.82234 0.5035 0.0
H664 H 0.18735 0.73912 0.46567 0.0
H665 H 0.15222 0.76411 0.58056 0.0
H666 H 0.23296 0.76667 0.47933 0.0
H667 H 0.21838 0.78481 0.44409 0.0
H668 H 0.21647 0.75671 0.43342 0.0
H669 H 0.19003 0.79682 0.62374 0.0
H670 H 0.16162 0.79588 0.61764 0.0
H671 H 0.17715 0.81453 0.58466 0.0
C672 C 0.24535 0.18269 0.48894 0.0
C673 C 0.24524 0.16481 0.51769 0.0
C674 C 0.22833 0.19695 0.48876 0.0
C675 C 0.21089 0.19341 0.51852 0.0
C676 C 0.21026 0.17494 0.54626 0.0
C677 C 0.22742 0.16075 0.5453 0.0
C678 C 0.22946 0.21629 0.45809 0.0
C679 C 0.19199 0.17072 0.57866 0.0
C680 C 0.18347 0.24419 0.55419 0.0
C681 C 0.16602 0.24463 0.52425 0.0
C682 C 0.19757 0.22704 0.5543 0.0
C683 C 0.19433 0.21004 0.52321 0.0
C684 C 0.17627 0.20996 0.49419 0.0
C685 C 0.16222 0.22722 0.49528 0.0
C686 C 0.21644 0.22757 0.58635 0.0
C687 C 0.17239 0.19219 0.46033 0.0
H688 H 0.25897 0.1858 0.46715 0.0
H689 H 0.22725 0.14698 0.56767 0.0
H690 H 0.21471 0.21786 0.43754 0.0
H691 H 0.23091 0.23073 0.47972 0.0
H692 H 0.24317 0.21573 0.43402 0.0
H693 H 0.19284 0.15467 0.59432 0.0
H694 H 0.19209 0.18263 0.60685 0.0
H695 H 0.17667 0.17233 0.56021 0.0
H696 H 0.18636 0.2575 0.57703 0.0
H697 H 0.14878 0.22749 0.47198 0.0
H698 H 0.23121 0.22921 0.56583 0.0
H699 H 0.21759 0.21251 0.60598 0.0
H700 H 0.21561 0.24092 0.61129 0.0
H701 H 0.1847 0.19259 0.43296 0.0
H702 H 0.15658 0.19339 0.44367 0.0
H703 H 0.17362 0.1766 0.47784 0.0
C704 C 0.81482 0.24595 0.49343 0.0
C705 C 0.8316 0.24699 0.52507 0.0
C706 C 0.80042 0.22906 0.49425 0.0
C707 C 0.80258 0.21303 0.52817 0.0
C708 C 0.81979 0.2137 0.5595 0.0
C709 C 0.83424 0.2306 0.55727 0.0
C710 C 0.78254 0.22867 0.45958 0.0
C711 C 0.82242 0.19707 0.59656 0.0
C712 C 0.75092 0.18536 0.55699 0.0
C713 C 0.75267 0.16663 0.53129 0.0
C714 C 0.76752 0.20013 0.55808 0.0
C715 C 0.78613 0.19626 0.53206 0.0
C716 C 0.78826 0.17707 0.50721 0.0
C717 C 0.77157 0.16237 0.50748 0.0
C718 C 0.76484 0.22023 0.58579 0.0
C719 C 0.80771 0.17252 0.47849 0.0
H720 H 0.81282 0.25851 0.46823 0.0
H721 H 0.84712 0.23141 0.582 0.0
H722 H 0.7821 0.21316 0.44157 0.0
H723 H 0.76717 0.23063 0.47769 0.0
H724 H 0.78404 0.24143 0.43331 0.0
H725 H 0.83734 0.19914 0.61639 0.0
H726 H 0.80887 0.19789 0.62095 0.0
H727 H 0.82233 0.18099 0.58108 0.0
H728 H 0.73642 0.18864 0.57577 0.0
H729 H 0.77297 0.14796 0.48734 0.0
H730 H 0.76384 0.23401 0.56209 0.0
H731 H 0.77877 0.22275 0.6085 0.0
H732 H 0.75032 0.21992 0.60752 0.0
H733 H 0.80857 0.18395 0.4494 0.0
H734 H 0.80763 0.15621 0.46409 0.0
H735 H 0.82227 0.17463 0.49944 0.0
C736 C 0.16191 0.33706 0.37514 0.0
C737 C 0.14107 0.33321 0.38943 0.0
C738 C 0.16632 0.34321 0.32949 0.0
C739 C 0.1494 0.34622 0.29794 0.0
C740 C 0.12824 0.34366 0.31316 0.0
C741 C 0.12435 0.3368 0.35852 0.0
C742 C 0.18912 0.34534 0.31438 0.0
C743 C 0.10975 0.34746 0.28114 0.0
C744 C 0.16419 0.3757 0.18815 0.0
C745 C 0.16677 0.35899 0.15673 0.0
C746 C 0.15746 0.37191 0.23364 0.0
C747 C 0.15397 0.35082 0.24845 0.0
C748 C 0.15598 0.33394 0.21642 0.0
C749 C 0.16204 0.33828 0.17068 0.0
C750 C 0.15475 0.39039 0.26621 0.0
C751 C 0.15283 0.31119 0.23107 0.0
H752 H 0.17486 0.33402 0.39886 0.0
H753 H 0.1082 0.33387 0.36964 0.0
H754 H 0.19264 0.33343 0.28723 0.0
H755 H 0.19191 0.3612 0.29907 0.0
H756 H 0.2004 0.34303 0.34341 0.0
H757 H 0.09436 0.34726 0.29976 0.0
H758 H 0.1115 0.36295 0.26338 0.0
H759 H 0.10939 0.33503 0.25409 0.0
H760 H 0.16778 0.39175 0.1773 0.0
H761 H 0.16429 0.32532 0.14658 0.0
H762 H 0.16731 0.38997 0.29299 0.0
H763 H 0.13928 0.38933 0.28427 0.0
H764 H 0.15566 0.40586 0.24798 0.0
H765 H 0.16466 0.30697 0.25791 0.0
H766 H 0.15449 0.29995 0.20174 0.0
H767 H 0.13691 0.30909 0.24661 0.0
C768 C 0.68612 0.14212 0.34681 0.0
C769 C 0.67182 0.13913 0.38332 0.0
C770 C 0.67905 0.14726 0.30233 0.0
C771 C 0.65704 0.14875 0.29361 0.0
C772 C 0.64244 0.145 0.32999 0.0
C773 C 0.65003 0.14063 0.37478 0.0
C774 C 0.69521 0.15191 0.26514 0.0
C775 C 0.61886 0.14579 0.32167 0.0
C776 C 0.64136 0.18487 0.19473 0.0
C777 C 0.63992 0.17068 0.15756 0.0
C778 C 0.64649 0.17785 0.23926 0.0
C779 C 0.64961 0.15596 0.24732 0.0
C780 C 0.64737 0.14141 0.21029 0.0
C781 C 0.64294 0.14899 0.16553 0.0
C782 C 0.64947 0.19402 0.27722 0.0
C783 C 0.64995 0.11789 0.21785 0.0
H784 H 0.70301 0.14115 0.35341 0.0
H785 H 0.63896 0.13812 0.40289 0.0
H786 H 0.69271 0.14133 0.23507 0.0
H787 H 0.69326 0.16844 0.25276 0.0
H788 H 0.71174 0.14987 0.27754 0.0
H789 H 0.60968 0.14034 0.3522 0.0
H790 H 0.61399 0.16224 0.31338 0.0
H791 H 0.61463 0.13576 0.29155 0.0
H792 H 0.63922 0.20169 0.18867 0.0
H793 H 0.64166 0.13799 0.13693 0.0
H794 H 0.66603 0.19339 0.29004 0.0
H795 H 0.63896 0.19035 0.30685 0.0
H796 H 0.64609 0.21042 0.26538 0.0
H797 H 0.66669 0.11425 0.2263 0.0
H798 H 0.64535 0.10856 0.1869 0.0
H799 H 0.64016 0.11267 0.24761 0.0
C800 C 0.85783 0.68701 0.34957 0.0
C801 C 0.86003 0.67278 0.38649 0.0
C802 C 0.85274 0.67994 0.30507 0.0
C803 C 0.85046 0.65796 0.29674 0.0
C804 C 0.85344 0.6434 0.33352 0.0
C805 C 0.8578 0.65101 0.37828 0.0
C806 C 0.84894 0.69609 0.26742 0.0
C807 C 0.85177 0.61982 0.32568 0.0
C808 C 0.81417 0.64294 0.19769 0.0
C809 C 0.82844 0.6406 0.16089 0.0
C810 C 0.82119 0.64824 0.2421 0.0
C811 C 0.84315 0.6506 0.25048 0.0
C812 C 0.85776 0.64753 0.2138 0.0
C813 C 0.85019 0.64296 0.1691 0.0
C814 C 0.80499 0.65214 0.27963 0.0
C815 C 0.88132 0.64927 0.22173 0.0
H816 H 0.85936 0.70388 0.35584 0.0
H817 H 0.85969 0.63997 0.40668 0.0
H818 H 0.85948 0.69297 0.23755 0.0
H819 H 0.83237 0.69481 0.25487 0.0
H820 H 0.85167 0.71258 0.27945 0.0
H821 H 0.85679 0.61058 0.35645 0.0
H822 H 0.83516 0.61555 0.31734 0.0
H823 H 0.86169 0.61508 0.29574 0.0
H824 H 0.79731 0.64131 0.19137 0.0
H825 H 0.86125 0.64097 0.14077 0.0
H826 H 0.80631 0.6687 0.29215 0.0
H827 H 0.80803 0.64159 0.30953 0.0
H828 H 0.78851 0.64945 0.26749 0.0
H829 H 0.88554 0.66588 0.23015 0.0
H830 H 0.8906 0.64429 0.19097 0.0
H831 H 0.88606 0.63934 0.25164 0.0
C832 C 0.35259 0.85256 0.38958 0.0
C833 C 0.33084 0.85589 0.39608 0.0
C834 C 0.36076 0.84806 0.34534 0.0
C835 C 0.34671 0.8461 0.30733 0.0
C836 C 0.32475 0.84942 0.31396 0.0
C837 C 0.31717 0.85459 0.358 0.0
C838 C 0.38434 0.84527 0.33928 0.0
C839 C 0.3091 0.8468 0.27486 0.0
C840 C 0.36259 0.84715 0.1805 0.0
C841 C 0.36343 0.82546 0.17028 0.0
C842 C 0.35856 0.85417 0.22582 0.0
C843 C 0.3545 0.83914 0.26116 0.0
C844 C 0.35571 0.81724 0.25102 0.0
C845 C 0.36049 0.8107 0.20594 0.0
C846 C 0.35807 0.87765 0.23561 0.0
C847 C 0.35077 0.80066 0.28714 0.0
H848 H 0.36321 0.85372 0.4189 0.0
H849 H 0.3003 0.85696 0.36294 0.0
H850 H 0.3879 0.82863 0.32979 0.0
H851 H 0.39012 0.85546 0.31065 0.0
H852 H 0.39326 0.84926 0.37119 0.0
H853 H 0.29252 0.84993 0.28587 0.0
H854 H 0.31307 0.85775 0.24616 0.0
H855 H 0.31001 0.83043 0.26103 0.0
H856 H 0.36505 0.8586 0.15309 0.0
H857 H 0.36096 0.7939 0.19816 0.0
H858 H 0.36743 0.8813 0.26706 0.0
H859 H 0.34153 0.88275 0.24226 0.0
H860 H 0.36441 0.88709 0.2063 0.0
H861 H 0.36077 0.80306 0.31818 0.0
H862 H 0.35332 0.78429 0.27418 0.0
H863 H 0.334 0.80221 0.29818 0.0
C864 C 0.16162 0.65498 0.65725 0.0
C865 C 0.14084 0.65759 0.64142 0.0
C866 C 0.16561 0.64851 0.70282 0.0
C867 C 0.14836 0.64386 0.73255 0.0
C868 C 0.12739 0.6448 0.71537 0.0
C869 C 0.12385 0.65209 0.67022 0.0
C870 C 0.18818 0.64822 0.7201 0.0
C871 C 0.10864 0.63917 0.74536 0.0
C872 C 0.16378 0.6173 0.84539 0.0
C873 C 0.16399 0.6346 0.87575 0.0
C874 C 0.15753 0.6198 0.79915 0.0
C875 C 0.15223 0.64023 0.78262 0.0
C876 C 0.15189 0.65763 0.81356 0.0
C877 C 0.15742 0.65452 0.85999 0.0
C878 C 0.15724 0.60072 0.7677 0.0
C879 C 0.14682 0.67978 0.79712 0.0
H880 H 0.17473 0.65951 0.63512 0.0
H881 H 0.10776 0.65408 0.65784 0.0
H882 H 0.19025 0.66069 0.74677 0.0
H883 H 0.19184 0.6328 0.73662 0.0
H884 H 0.19982 0.65106 0.69197 0.0
H885 H 0.09389 0.63736 0.72482 0.0
H886 H 0.11167 0.62422 0.76444 0.0
H887 H 0.10606 0.65183 0.77133 0.0
H888 H 0.16881 0.60187 0.85769 0.0
H889 H 0.15783 0.66794 0.88333 0.0
H890 H 0.1704 0.60187 0.74241 0.0
H891 H 0.14223 0.60019 0.7478 0.0
H892 H 0.15899 0.58565 0.78718 0.0
H893 H 0.15856 0.68474 0.77067 0.0
H894 H 0.14701 0.69153 0.8257 0.0
H895 H 0.13099 0.68015 0.78058 0.0
C896 C 0.33734 0.15952 0.66847 0.0
C897 C 0.3328 0.13878 0.65441 0.0
C898 C 0.34338 0.16384 0.71421 0.0
C899 C 0.34556 0.14692 0.74612 0.0
C900 C 0.34228 0.12582 0.73118 0.0
C901 C 0.33557 0.12204 0.68569 0.0
C902 C 0.34631 0.18659 0.729 0.0
C903 C 0.34519 0.10731 0.76361 0.0
C904 C 0.37504 0.16102 0.85624 0.0
C905 C 0.35829 0.16439 0.8872 0.0
C906 C 0.37122 0.15422 0.81083 0.0
C907 C 0.35009 0.15148 0.79562 0.0
C908 C 0.33314 0.15427 0.82721 0.0
C909 C 0.33748 0.16037 0.87291 0.0
C910 C 0.38975 0.15066 0.77875 0.0
C911 C 0.31036 0.15194 0.81211 0.0
H912 H 0.33495 0.17249 0.64446 0.0
H913 H 0.33213 0.10597 0.67476 0.0
H914 H 0.33443 0.19065 0.75586 0.0
H915 H 0.3622 0.18882 0.74457 0.0
H916 H 0.34455 0.19786 0.69974 0.0
H917 H 0.34445 0.09187 0.74527 0.0
H918 H 0.36065 0.1085 0.78167 0.0
H919 H 0.33262 0.10755 0.79041 0.0
H920 H 0.39116 0.16407 0.86736 0.0
H921 H 0.32451 0.16323 0.89666 0.0
H922 H 0.38998 0.16314 0.75177 0.0
H923 H 0.38816 0.13518 0.76089 0.0
H924 H 0.40514 0.15099 0.79734 0.0
H925 H 0.30673 0.16385 0.78503 0.0
H926 H 0.29906 0.1541 0.84117 0.0
H927 H 0.30773 0.13607 0.79672 0.0
C928 C 0.84156 0.34018 0.87278 0.0
C929 C 0.83624 0.36067 0.88723 0.0
C930 C 0.84751 0.33624 0.82684 0.0
C931 C 0.84876 0.35331 0.7951 0.0
C932 C 0.84483 0.37423 0.81045 0.0
C933 C 0.83827 0.37762 0.85618 0.0
C934 C 0.8512 0.31365 0.81163 0.0
C935 C 0.84673 0.39292 0.77814 0.0
C936 C 0.87705 0.34004 0.68307 0.0
C937 C 0.85994 0.33597 0.6535 0.0
C938 C 0.87369 0.34694 0.72858 0.0
C939 C 0.85272 0.34901 0.74529 0.0
C940 C 0.8354 0.3456 0.715 0.0
C941 C 0.83925 0.33945 0.66915 0.0
C942 C 0.89256 0.35121 0.75923 0.0
C943 C 0.81279 0.3472 0.73173 0.0
H944 H 0.83976 0.32704 0.89661 0.0
H945 H 0.83423 0.39351 0.86741 0.0
H946 H 0.8391 0.30913 0.7856 0.0
H947 H 0.86693 0.31211 0.79491 0.0
H948 H 0.85035 0.30228 0.84089 0.0
H949 H 0.84587 0.40827 0.79683 0.0
H950 H 0.86191 0.39221 0.75884 0.0
H951 H 0.83374 0.39244 0.75238 0.0
H952 H 0.89307 0.33737 0.67086 0.0
H953 H 0.82603 0.33602 0.64644 0.0
H954 H 0.89378 0.33864 0.78588 0.0
H955 H 0.8906 0.36653 0.77754 0.0
H956 H 0.90763 0.35161 0.73939 0.0
H957 H 0.80994 0.33514 0.75896 0.0
H958 H 0.80114 0.34471 0.70348 0.0
H959 H 0.80988 0.36296 0.74741 0.0
C960 C 0.65697 0.83881 0.8718 0.0
C961 C 0.63648 0.83385 0.8868 0.0
C962 C 0.66074 0.84489 0.82585 0.0
C963 C 0.64349 0.84665 0.79471 0.0
C964 C 0.6226 0.84306 0.81067 0.0
C965 C 0.61938 0.83633 0.85636 0.0
C966 C 0.6833 0.84818 0.80997 0.0
C967 C 0.60374 0.84552 0.77906 0.0
C968 C 0.65665 0.87539 0.68318 0.0
C969 C 0.6603 0.85841 0.65299 0.0
C970 C 0.64992 0.87187 0.72876 0.0
C971 C 0.64754 0.85084 0.74489 0.0
C972 C 0.65044 0.83366 0.71397 0.0
C973 C 0.65648 0.83768 0.6681 0.0
C974 C 0.64621 0.89062 0.76011 0.0
C975 C 0.64846 0.81097 0.73004 0.0
H976 H 0.67022 0.83664 0.89516 0.0
H977 H 0.6035 0.83255 0.86804 0.0
H978 H 0.68737 0.83618 0.78339 0.0
H979 H 0.68506 0.864 0.79372 0.0
H980 H 0.69484 0.84688 0.83879 0.0
H981 H 0.5885 0.84485 0.79824 0.0
H982 H 0.60461 0.8608 0.76017 0.0
H983 H 0.60379 0.83268 0.75291 0.0
H984 H 0.65956 0.89145 0.67141 0.0
H985 H 0.65956 0.82454 0.64494 0.0
H986 H 0.65898 0.89144 0.78637 0.0
H987 H 0.63098 0.88883 0.77888 0.0
H988 H 0.64596 0.90582 0.74075 0.0
H989 H 0.66065 0.80767 0.75671 0.0
H990 H 0.65047 0.79947 0.70133 0.0
H991 H 0.63276 0.80831 0.74623 0.0
C992 C 0.87277 0.66001 0.6804 0.0
C993 C 0.85457 0.66198 0.65287 0.0
C994 C 0.87123 0.65478 0.72764 0.0
C995 C 0.85101 0.65199 0.74809 0.0
C996 C 0.83266 0.65328 0.72005 0.0
C997 C 0.83469 0.658 0.67283 0.0
C998 C 0.89121 0.653 0.75599 0.0
C999 C 0.81075 0.6508 0.74038 0.0
C1000 C 0.84135 0.62774 0.8671 0.0
C1001 C 0.8388 0.6459 0.89452 0.0
C1002 C 0.84654 0.62938 0.81985 0.0
C1003 C 0.84869 0.64966 0.79929 0.0
C1004 C 0.84682 0.66799 0.82724 0.0
C1005 C 0.84215 0.66587 0.87446 0.0
C1006 C 0.84897 0.60944 0.79161 0.0
C1007 C 0.84861 0.68995 0.80679 0.0
H1008 H 0.8882 0.66295 0.66525 0.0
H1009 H 0.82051 0.65956 0.65198 0.0
H1010 H 0.89232 0.66665 0.78 0.0
H1011 H 0.89087 0.63838 0.77731 0.0
H1012 H 0.90565 0.65278 0.73405 0.0
H1013 H 0.79816 0.65128 0.71359 0.0
H1014 H 0.8095 0.6356 0.75938 0.0
H1015 H 0.80777 0.66372 0.76557 0.0
H1016 H 0.83889 0.61224 0.88232 0.0
H1017 H 0.84014 0.68002 0.89523 0.0
H1018 H 0.86359 0.61021 0.77035 0.0
H1019 H 0.83539 0.60788 0.76756 0.0
H1020 H 0.84962 0.59503 0.81363 0.0
H1021 H 0.86379 0.69167 0.78787 0.0
H1022 H 0.84769 0.70255 0.8335 0.0
H1023 H 0.83563 0.69248 0.78152 0.0
C1024 C 0.34067 0.83091 0.6832 0.0
C1025 C 0.3382 0.85077 0.66207 0.0
C1026 C 0.34526 0.82914 0.73051 0.0
C1027 C 0.34798 0.84769 0.75739 0.0
C1028 C 0.34665 0.86781 0.73576 0.0
C1029 C 0.34148 0.86912 0.68848 0.0
C1030 C 0.3461 0.80737 0.75216 0.0
C1031 C 0.35004 0.88794 0.76285 0.0
C1032 C 0.33431 0.84157 0.88463 0.0
C1033 C 0.3541 0.83691 0.90423 0.0
C1034 C 0.33222 0.84577 0.8372 0.0
C1035 C 0.35045 0.84585 0.80861 0.0
C1036 C 0.37064 0.84236 0.82865 0.0
C1037 C 0.3722 0.83763 0.87611 0.0
C1038 C 0.31033 0.84896 0.81729 0.0
C1039 C 0.39052 0.8429 0.79969 0.0
H1040 H 0.33806 0.81663 0.66319 0.0
H1041 H 0.3397 0.88453 0.67236 0.0
H1042 H 0.3613 0.80513 0.77073 0.0
H1043 H 0.33318 0.80577 0.77797 0.0
H1044 H 0.3444 0.79451 0.72623 0.0
H1045 H 0.35112 0.90207 0.74006 0.0
H1046 H 0.33668 0.89031 0.78723 0.0
H1047 H 0.36475 0.88681 0.7837 0.0
H1048 H 0.32021 0.84093 0.90599 0.0
H1049 H 0.38757 0.83415 0.89102 0.0
H1050 H 0.30666 0.8359 0.7929 0.0
H1051 H 0.30964 0.86398 0.79747 0.0
H1052 H 0.29788 0.84934 0.8444 0.0
H1053 H 0.39086 0.82897 0.77636 0.0
H1054 H 0.40508 0.84267 0.82123 0.0
H1055 H 0.39074 0.85729 0.77764 0.0
C1056 C 0.1291 0.33931 0.67862 0.0
C1057 C 0.14751 0.33663 0.65207 0.0
C1058 C 0.13031 0.34449 0.72589 0.0
C1059 C 0.1504 0.34658 0.74727 0.0
C1060 C 0.16899 0.34469 0.72016 0.0
C1061 C 0.16731 0.33995 0.67293 0.0
C1062 C 0.11011 0.34689 0.75331 0.0
C1063 C 0.19075 0.3465 0.74152 0.0
C1064 C 0.15993 0.37026 0.8666 0.0
C1065 C 0.162 0.35195 0.89376 0.0
C1066 C 0.15488 0.36889 0.81929 0.0
C1067 C 0.15227 0.34873 0.7985 0.0
C1068 C 0.15348 0.33028 0.82623 0.0
C1069 C 0.15812 0.33213 0.87347 0.0
C1070 C 0.15322 0.38897 0.7912 0.0
C1071 C 0.15109 0.30844 0.80552 0.0
H1072 H 0.11373 0.33689 0.66275 0.0
H1073 H 0.18164 0.3379 0.6528 0.0
H1074 H 0.10828 0.33321 0.77705 0.0
H1075 H 0.11073 0.36142 0.77486 0.0
H1076 H 0.09592 0.34768 0.73068 0.0
H1077 H 0.20359 0.34572 0.71531 0.0
H1078 H 0.19224 0.36163 0.76071 0.0
H1079 H 0.19311 0.33345 0.76671 0.0
H1080 H 0.16278 0.38565 0.88202 0.0
H1081 H 0.15969 0.31787 0.89407 0.0
H1082 H 0.13882 0.38862 0.76921 0.0
H1083 H 0.1671 0.39026 0.76785 0.0
H1084 H 0.15268 0.40332 0.81338 0.0
H1085 H 0.13607 0.30731 0.78584 0.0
H1086 H 0.15126 0.29577 0.83216 0.0
H1087 H 0.16424 0.30546 0.78088 0.0
C1088 C 0.66563 0.15664 0.87116 0.0
C1089 C 0.64575 0.16038 0.89133 0.0
C1090 C 0.6676 0.15194 0.82393 0.0
C1091 C 0.6492 0.15044 0.7961 0.0
C1092 C 0.62899 0.15299 0.81677 0.0
C1093 C 0.62751 0.1582 0.86401 0.0
C1094 C 0.68949 0.14973 0.80336 0.0
C1095 C 0.60897 0.15096 0.78864 0.0
C1096 C 0.65765 0.16441 0.66965 0.0
C1097 C 0.66123 0.14447 0.64962 0.0
C1098 C 0.65302 0.16648 0.71689 0.0
C1099 C 0.65142 0.14813 0.74489 0.0
C1100 C 0.6538 0.12787 0.72437 0.0
C1101 C 0.65895 0.12628 0.6771 0.0
C1102 C 0.651 0.18841 0.7373 0.0
C1103 C 0.65166 0.1079 0.75267 0.0
H1104 H 0.67983 0.15837 0.89185 0.0
H1105 H 0.61208 0.16095 0.87933 0.0
H1106 H 0.69088 0.13454 0.78439 0.0
H1107 H 0.69225 0.16268 0.77809 0.0
H1108 H 0.70214 0.15038 0.82999 0.0
H1109 H 0.59458 0.15056 0.81075 0.0
H1110 H 0.60764 0.1646 0.76463 0.0
H1111 H 0.60944 0.13635 0.76734 0.0
H1112 H 0.65946 0.17857 0.64883 0.0
H1113 H 0.66159 0.11081 0.66189 0.0
H1114 H 0.664 0.19112 0.76243 0.0
H1115 H 0.63584 0.18994 0.75639 0.0
H1116 H 0.65169 0.20102 0.71055 0.0
H1117 H 0.66532 0.1065 0.77658 0.0
H1118 H 0.65112 0.09349 0.73068 0.0
H1119 H 0.63709 0.10851 0.77408 0.0
C1120 C 0.83273 0.34069 0.3704 0.0
C1121 C 0.85244 0.33737 0.39161 0.0
C1122 C 0.83123 0.34527 0.32307 0.0
C1123 C 0.84992 0.34702 0.29625 0.0
C1124 C 0.86993 0.34491 0.31796 0.0
C1125 C 0.87096 0.33986 0.36531 0.0
C1126 C 0.80954 0.34706 0.30132 0.0
C1127 C 0.89023 0.34718 0.29083 0.0
C1128 C 0.84265 0.33223 0.17017 0.0
C1129 C 0.83887 0.352 0.14956 0.0
C1130 C 0.8471 0.33049 0.21751 0.0
C1131 C 0.84822 0.34902 0.24499 0.0
C1132 C 0.8457 0.36913 0.22389 0.0
C1133 C 0.84081 0.37038 0.17649 0.0
C1134 C 0.84936 0.3087 0.23858 0.0
C1135 C 0.84731 0.38928 0.25172 0.0
H1136 H 0.81832 0.33876 0.39034 0.0
H1137 H 0.88626 0.33745 0.38149 0.0
H1138 H 0.80814 0.36215 0.28194 0.0
H1139 H 0.80725 0.33397 0.27624 0.0
H1140 H 0.79661 0.34635 0.32732 0.0
H1141 H 0.90434 0.34798 0.31368 0.0
H1142 H 0.89209 0.33344 0.2673 0.0
H1143 H 0.88972 0.36166 0.26909 0.0
H1144 H 0.84116 0.31792 0.14973 0.0
H1145 H 0.83804 0.38573 0.1608 0.0
H1146 H 0.83614 0.30584 0.26309 0.0
H1147 H 0.86433 0.30759 0.25849 0.0
H1148 H 0.84923 0.29596 0.21213 0.0
H1149 H 0.83336 0.39066 0.27485 0.0
H1150 H 0.84794 0.40357 0.22934 0.0
H1151 H 0.86164 0.38897 0.27392 0.0
C1152 C 0.62663 0.83813 0.17603 0.0
C1153 C 0.64503 0.83635 0.14906 0.0
C1154 C 0.62784 0.84306 0.22341 0.0
C1155 C 0.64792 0.84579 0.24446 0.0
C1156 C 0.66646 0.84481 0.21695 0.0
C1157 C 0.66476 0.84032 0.16963 0.0
C1158 C 0.60768 0.84449 0.25128 0.0
C1159 C 0.68822 0.84731 0.23797 0.0
C1160 C 0.6568 0.86886 0.3646 0.0
C1161 C 0.65947 0.85042 0.39107 0.0
C1162 C 0.6518 0.86768 0.31724 0.0
C1163 C 0.64992 0.8476 0.29571 0.0
C1164 C 0.65185 0.82898 0.3227 0.0
C1165 C 0.65638 0.83063 0.37002 0.0
C1166 C 0.64933 0.8879 0.28993 0.0
C1167 C 0.65029 0.80724 0.30115 0.0
H1168 H 0.61131 0.83521 0.16038 0.0
H1169 H 0.67908 0.83895 0.14916 0.0
H1170 H 0.60647 0.83058 0.27456 0.0
H1171 H 0.60784 0.85887 0.27333 0.0
H1172 H 0.59337 0.84491 0.22894 0.0
H1173 H 0.70097 0.84726 0.21149 0.0
H1174 H 0.6892 0.86232 0.25776 0.0
H1175 H 0.69121 0.83415 0.26257 0.0
H1176 H 0.65903 0.88421 0.38064 0.0
H1177 H 0.65845 0.81628 0.3901 0.0
H1178 H 0.63484 0.88722 0.26826 0.0
H1179 H 0.66303 0.88984 0.26631 0.0
H1180 H 0.64842 0.90206 0.31264 0.0
H1181 H 0.63523 0.80564 0.28178 0.0
H1182 H 0.65113 0.79436 0.32726 0.0
H1183 H 0.66342 0.80503 0.27609 0.0
C1184 C 0.16792 0.65873 0.35912 0.0
C1185 C 0.14817 0.66118 0.38074 0.0
C1186 C 0.16944 0.65445 0.31169 0.0
C1187 C 0.15073 0.65211 0.28517 0.0
C1188 C 0.13072 0.65344 0.30722 0.0
C1189 C 0.12967 0.65821 0.35469 0.0
C1190 C 0.1911 0.65351 0.28955 0.0
C1191 C 0.11044 0.65052 0.28039 0.0
C1192 C 0.15674 0.66694 0.15875 0.0
C1193 C 0.16101 0.64726 0.13822 0.0
C1194 C 0.15263 0.66861 0.20625 0.0
C1195 C 0.15232 0.6501 0.23392 0.0
C1196 C 0.15544 0.63005 0.21297 0.0
C1197 C 0.16001 0.62888 0.16543 0.0
C1198 C 0.14977 0.69035 0.22722 0.0
C1199 C 0.15471 0.60991 0.24105 0.0
H1200 H 0.18232 0.66106 0.3789 0.0
H1201 H 0.11435 0.65996 0.37119 0.0
H1202 H 0.19303 0.63847 0.2702 0.0
H1203 H 0.19279 0.66666 0.26436 0.0
H1204 H 0.20409 0.65475 0.3153 0.0
H1205 H 0.09639 0.6494 0.3034 0.0
H1206 H 0.10815 0.66411 0.25661 0.0
H1207 H 0.11131 0.63598 0.25891 0.0
H1208 H 0.15756 0.68123 0.13806 0.0
H1209 H 0.16316 0.61361 0.14975 0.0
H1210 H 0.16299 0.69365 0.25144 0.0
H1211 H 0.13486 0.69102 0.24741 0.0
H1212 H 0.1494 0.70306 0.20067 0.0
H1213 H 0.1687 0.60918 0.26417 0.0
H1214 H 0.15469 0.59555 0.21886 0.0
H1215 H 0.14038 0.60968 0.26328 0.0
C1216 C 0.33942 0.12724 0.36469 0.0
C1217 C 0.3372 0.14562 0.39156 0.0
C1218 C 0.34449 0.12851 0.31737 0.0
C1219 C 0.34694 0.14864 0.29627 0.0
C1220 C 0.34556 0.16716 0.32371 0.0
C1221 C 0.34091 0.16541 0.37097 0.0
C1222 C 0.34635 0.10837 0.28958 0.0
C1223 C 0.34777 0.18896 0.30266 0.0
C1224 C 0.37016 0.15802 0.1764 0.0
C1225 C 0.35175 0.16052 0.14978 0.0
C1226 C 0.36895 0.15289 0.2237 0.0
C1227 C 0.34885 0.15065 0.24502 0.0
C1228 C 0.33027 0.15233 0.21784 0.0
C1229 C 0.33196 0.15703 0.17059 0.0
C1230 C 0.38913 0.15071 0.25121 0.0
C1231 C 0.3085 0.15036 0.23914 0.0
H1232 H 0.3367 0.11187 0.38034 0.0
H1233 H 0.33922 0.17972 0.39135 0.0
H1234 H 0.3325 0.10689 0.26622 0.0
H1235 H 0.36076 0.10878 0.26763 0.0
H1236 H 0.34699 0.09409 0.31198 0.0
H1237 H 0.34744 0.20171 0.3291 0.0
H1238 H 0.36281 0.19017 0.28304 0.0
H1239 H 0.33463 0.19173 0.2779 0.0
H1240 H 0.38552 0.16056 0.16057 0.0
H1241 H 0.31763 0.15894 0.15041 0.0
H1242 H 0.3886 0.13624 0.27299 0.0
H1243 H 0.39084 0.16447 0.27473 0.0
H1244 H 0.40335 0.14995 0.22863 0.0
H1245 H 0.30714 0.13528 0.25858 0.0
H1246 H 0.29569 0.15094 0.21287 0.0
H1247 H 0.30598 0.16347 0.26411 0.0
loop_
_geom_bond_atom_site_label_1
_geom_bond_atom_site_label_2
_geom_bond_distance
_geom_bond_site_symmetry_2
_ccdc_geom_bond_type
O0 Cd1 2.223 . S
O0 C8 1.315 . S
Cd1 O0 2.223 . S
Cd1 O4 2.297 . S
Cd1 O5 2.439 . S
Cd1 O11 2.235 1_554 S
Cd2 O3 2.240 1_556 S
Cd2 O10 2.223 1_556 S
Cd2 O12 2.297 . S
Cd2 O13 2.439 . S
O3 Cd2 2.240 1_554 S
O3 C8 1.279 . S
O4 Cd1 2.297 . S
O4 C6 1.247 . S
O5 Cd1 2.439 . S
O5 C6 1.208 . S
C6 O4 1.247 . S
C6 O5 1.208 . S
C7 O12 1.247 . S
C7 O13 1.208 . S
C8 O0 1.315 . S
C8 O3 1.279 . S
C9 O10 1.315 . S
C9 O11 1.276 1_554 S
O10 Cd2 2.223 1_554 S
O10 C9 1.315 . S
O11 Cd1 2.235 1_556 S
O11 C9 1.276 1_556 S
O12 Cd2 2.297 . S
O12 C7 1.247 . S
O13 Cd2 2.439 . S
O13 C7 1.208 . S
O14 Cd15 2.223 . S
O14 C22 1.315 . S
Cd15 O14 2.223 . S
Cd15 O18 2.297 . S
Cd15 O19 2.439 . S
Cd15 O25 2.235 1_554 S
Cd16 O17 2.240 1_556 S
Cd16 O24 2.223 1_556 S
Cd16 O26 2.297 . S
Cd16 O27 2.439 . S
O17 Cd16 2.240 1_554 S
O17 C22 1.279 . S
O18 Cd15 2.297 . S
O18 C20 1.247 . S
O19 Cd15 2.439 . S
O19 C20 1.208 . S
C20 O18 1.247 . S
C20 O19 1.208 . S
C21 O26 1.247 . S
C21 O27 1.208 . S
C22 O14 1.315 . S
C22 O17 1.279 . S
C23 O24 1.315 . S
C23 O25 1.276 1_554 S
O24 Cd16 2.223 1_554 S
O24 C23 1.315 . S
O25 Cd15 2.235 1_556 S
O25 C23 1.276 1_556 S
O26 Cd16 2.297 . S
O26 C21 1.247 . S
O27 Cd16 2.439 . S
O27 C21 1.208 . S
O28 Cd29 2.223 . S
O28 C36 1.315 . S
Cd29 O28 2.223 . S
Cd29 O32 2.297 . S
Cd29 O33 2.439 . S
Cd29 O39 2.235 1_554 S
Cd30 O31 2.240 1_556 S
Cd30 O38 2.223 1_556 S
Cd30 O40 2.297 . S
Cd30 O41 2.439 . S
O31 Cd30 2.240 1_554 S
O31 C36 1.279 . S
O32 Cd29 2.297 . S
O32 C34 1.247 . S
O33 Cd29 2.439 . S
O33 C34 1.208 . S
C34 O32 1.247 . S
C34 O33 1.208 . S
C35 O40 1.247 . S
C35 O41 1.208 . S
C36 O28 1.315 . S
C36 O31 1.279 . S
C37 O38 1.315 . S
C37 O39 1.276 1_554 S
O38 Cd30 2.223 1_554 S
O38 C37 1.315 . S
O39 Cd29 2.235 1_556 S
O39 C37 1.276 1_556 S
O40 Cd30 2.297 . S
O40 C35 1.247 . S
O41 Cd30 2.439 . S
O41 C35 1.208 . S
O42 Cd43 2.223 . S
O42 C50 1.315 . S
Cd43 O42 2.223 . S
Cd43 O46 2.297 . S
Cd43 O47 2.439 . S
Cd43 O53 2.235 1_554 S
Cd44 O45 2.240 1_556 S
Cd44 O52 2.223 1_556 S
Cd44 O54 2.297 . S
Cd44 O55 2.439 . S
O45 Cd44 2.240 1_554 S
O45 C50 1.279 . S
O46 Cd43 2.297 . S
O46 C48 1.247 . S
O47 Cd43 2.439 . S
O47 C48 1.208 . S
C48 O46 1.247 . S
C48 O47 1.208 . S
C49 O54 1.247 . S
C49 O55 1.208 . S
C50 O42 1.315 . S
C50 O45 1.279 . S
C51 O52 1.315 . S
C51 O53 1.276 1_554 S
O52 Cd44 2.223 1_554 S
O52 C51 1.315 . S
O53 Cd43 2.235 1_556 S
O53 C51 1.276 1_556 S
O54 Cd44 2.297 . S
O54 C49 1.247 . S
O55 Cd44 2.439 . S
O55 C49 1.208 . S
O56 Cd57 2.223 . S
O56 C64 1.315 . S
Cd57 O56 2.223 . S
Cd57 O60 2.297 . S
Cd57 O61 2.439 1_556 S
Cd57 O67 2.240 1_556 S
Cd58 O59 2.240 1_554 S
Cd58 O66 2.223 . S
Cd58 O68 2.297 . S
Cd58 O69 2.439 . S
O59 Cd58 2.240 1_556 S
O59 C64 1.279 . S
O60 Cd57 2.297 . S
O60 C62 1.247 . S
O61 Cd57 2.439 1_554 S
O61 C62 1.208 1_554 S
C62 O60 1.247 . S
C62 O61 1.208 1_556 S
C63 O68 1.247 . S
C63 O69 1.208 . S
C64 O56 1.315 . S
C64 O59 1.279 . S
C65 O66 1.315 . S
C65 O67 1.279 . S
O66 Cd58 2.223 . S
O66 C65 1.315 . S
O67 Cd57 2.240 1_554 S
O67 C65 1.279 . S
O68 Cd58 2.297 . S
O68 C63 1.247 . S
O69 Cd58 2.439 . S
O69 C63 1.208 . S
O70 Cd71 2.223 . S
O70 C78 1.315 . S
Cd71 O70 2.223 . S
Cd71 O74 2.297 . S
Cd71 O75 2.439 1_556 S
Cd71 O81 2.240 1_556 S
Cd72 O73 2.240 1_554 S
Cd72 O80 2.223 . S
Cd72 O82 2.297 . S
Cd72 O83 2.439 . S
O73 Cd72 2.240 1_556 S
O73 C78 1.279 . S
O74 Cd71 2.297 . S
O74 C76 1.247 . S
O75 Cd71 2.439 1_554 S
O75 C76 1.208 1_554 S
C76 O74 1.247 . S
C76 O75 1.208 1_556 S
C77 O82 1.247 . S
C77 O83 1.208 . S
C78 O70 1.315 . S
C78 O73 1.279 . S
C79 O80 1.315 . S
C79 O81 1.279 . S
O80 Cd72 2.223 . S
O80 C79 1.315 . S
O81 Cd71 2.240 1_554 S
O81 C79 1.279 . S
O82 Cd72 2.297 . S
O82 C77 1.247 . S
O83 Cd72 2.439 . S
O83 C77 1.208 . S
O84 Cd85 2.223 . S
O84 C92 1.315 . S
Cd85 O84 2.223 . S
Cd85 O88 2.297 . S
Cd85 O89 2.439 1_556 S
Cd85 O95 2.240 1_556 S
Cd86 O87 2.240 1_554 S
Cd86 O94 2.223 . S
Cd86 O96 2.297 . S
Cd86 O97 2.439 . S
O87 Cd86 2.240 1_556 S
O87 C92 1.279 . S
O88 Cd85 2.297 . S
O88 C90 1.247 . S
O89 Cd85 2.439 1_554 S
O89 C90 1.208 1_554 S
C90 O88 1.247 . S
C90 O89 1.208 1_556 S
C91 O96 1.247 . S
C91 O97 1.208 . S
C92 O84 1.315 . S
C92 O87 1.279 . S
C93 O94 1.315 . S
C93 O95 1.279 . S
O94 Cd86 2.223 . S
O94 C93 1.315 . S
O95 Cd85 2.240 1_554 S
O95 C93 1.279 . S
O96 Cd86 2.297 . S
O96 C91 1.247 . S
O97 Cd86 2.439 . S
O97 C91 1.208 . S
O98 Cd99 2.223 . S
O98 C106 1.315 . S
Cd99 O98 2.223 . S
Cd99 O102 2.297 . S
Cd99 O103 2.439 1_556 S
Cd99 O109 2.240 1_556 S
Cd100 O101 2.240 1_554 S
Cd100 O108 2.223 . S
Cd100 O110 2.297 . S
Cd100 O111 2.439 . S
O101 Cd100 2.240 1_556 S
O101 C106 1.279 . S
O102 Cd99 2.297 . S
O102 C104 1.247 . S
O103 Cd99 2.439 1_554 S
O103 C104 1.208 1_554 S
C104 O102 1.247 . S
C104 O103 1.208 1_556 S
C105 O110 1.247 . S
C105 O111 1.208 . S
C106 O98 1.315 . S
C106 O101 1.279 . S
C107 O108 1.315 . S
C107 O109 1.279 . S
O108 Cd100 2.223 . S
O108 C107 1.315 . S
O109 Cd99 2.240 1_554 S
O109 C107 1.279 . S
O110 Cd100 2.297 . S
O110 C105 1.247 . S
O111 Cd100 2.439 . S
O111 C105 1.208 . S
O112 Cd113 2.223 . S
O112 C120 1.315 . S
Cd113 O112 2.223 . S
Cd113 O116 2.297 . S
Cd113 O117 2.439 . S
Cd113 O123 2.240 . S
Cd114 O115 2.240 . S
Cd114 O122 2.223 . S
Cd114 O124 2.297 . S
Cd114 O125 2.439 . S
O115 Cd114 2.240 . S
O115 C120 1.279 . S
O116 Cd113 2.297 . S
O116 C118 1.247 . S
O117 Cd113 2.439 . S
O117 C118 1.208 . S
C118 O116 1.247 . S
C118 O117 1.208 . S
C119 O124 1.247 . S
C119 O125 1.208 . S
C120 O112 1.315 . S
C120 O115 1.279 . S
C121 O122 1.315 . S
C121 O123 1.279 . S
O122 Cd114 2.223 . S
O122 C121 1.315 . S
O123 Cd113 2.240 . S
O123 C121 1.279 . S
O124 Cd114 2.297 . S
O124 C119 1.247 . S
O125 Cd114 2.439 . S
O125 C119 1.208 . S
O126 Cd127 2.223 . S
O126 C134 1.315 . S
Cd127 O126 2.223 . S
Cd127 O130 2.297 . S
Cd127 O131 2.439 . S
Cd127 O137 2.240 . S
Cd128 O129 2.240 . S
Cd128 O136 2.223 . S
Cd128 O138 2.297 . S
Cd128 O139 2.439 . S
O129 Cd128 2.240 . S
O129 C134 1.279 . S
O130 Cd127 2.297 . S
O130 C132 1.247 . S
O131 Cd127 2.439 . S
O131 C132 1.208 . S
C132 O130 1.247 . S
C132 O131 1.208 . S
C133 O138 1.247 . S
C133 O139 1.208 . S
C134 O126 1.315 . S
C134 O129 1.279 . S
C135 O136 1.315 . S
C135 O137 1.279 . S
O136 Cd128 2.223 . S
O136 C135 1.315 . S
O137 Cd127 2.240 . S
O137 C135 1.279 . S
O138 Cd128 2.297 . S
O138 C133 1.247 . S
O139 Cd128 2.439 . S
O139 C133 1.208 . S
O140 Cd141 2.223 . S
O140 C148 1.315 . S
Cd141 O140 2.223 . S
Cd141 O144 2.297 . S
Cd141 O145 2.439 . S
Cd141 O151 2.240 . S
Cd142 O143 2.240 . S
Cd142 O150 2.223 . S
Cd142 O152 2.297 . S
Cd142 O153 2.439 . S
O143 Cd142 2.240 . S
O143 C148 1.279 . S
O144 Cd141 2.297 . S
O144 C146 1.247 . S
O145 Cd141 2.439 . S
O145 C146 1.208 . S
C146 O144 1.247 . S
C146 O145 1.208 . S
C147 O152 1.247 . S
C147 O153 1.208 . S
C148 O140 1.315 . S
C148 O143 1.279 . S
C149 O150 1.315 . S
C149 O151 1.279 . S
O150 Cd142 2.223 . S
O150 C149 1.315 . S
O151 Cd141 2.240 . S
O151 C149 1.279 . S
O152 Cd142 2.297 . S
O152 C147 1.247 . S
O153 Cd142 2.439 . S
O153 C147 1.208 . S
O154 Cd155 2.223 . S
O154 C162 1.315 . S
Cd155 O154 2.223 . S
Cd155 O158 2.297 . S
Cd155 O159 2.439 . S
Cd155 O165 2.240 . S
Cd156 O157 2.240 . S
Cd156 O164 2.223 . S
Cd156 O166 2.297 . S
Cd156 O167 2.439 . S
O157 Cd156 2.240 . S
O157 C162 1.279 . S
O158 Cd155 2.297 . S
O158 C160 1.247 . S
O159 Cd155 2.439 . S
O159 C160 1.208 . S
C160 O158 1.247 . S
C160 O159 1.208 . S
C161 O166 1.247 . S
C161 O167 1.208 . S
C162 O154 1.315 . S
C162 O157 1.279 . S
C163 O164 1.315 . S
C163 O165 1.279 . S
O164 Cd156 2.223 . S
O164 C163 1.315 . S
O165 Cd155 2.240 . S
O165 C163 1.279 . S
O166 Cd156 2.297 . S
O166 C161 1.247 . S
O167 Cd156 2.439 . S
O167 C161 1.208 . S
O168 Cd169 2.223 . S
O168 C176 1.315 . S
Cd169 O168 2.223 . S
Cd169 O172 2.297 . S
Cd169 O173 2.439 . S
Cd169 O179 2.240 . S
Cd170 O171 2.240 . S
Cd170 O178 2.223 . S
Cd170 O180 2.297 . S
Cd170 O181 2.439 . S
O171 Cd170 2.240 . S
O171 C176 1.279 . S
O172 Cd169 2.297 . S
O172 C174 1.247 . S
O173 Cd169 2.439 . S
O173 C174 1.208 . S
C174 O172 1.247 . S
C174 O173 1.208 . S
C175 O180 1.247 . S
C175 O181 1.208 . S
C176 O168 1.315 . S
C176 O171 1.279 . S
C177 O178 1.315 . S
C177 O179 1.279 . S
O178 Cd170 2.223 . S
O178 C177 1.315 . S
O179 Cd169 2.240 . S
O179 C177 1.279 . S
O180 Cd170 2.297 . S
O180 C175 1.247 . S
O181 Cd170 2.439 . S
O181 C175 1.208 . S
O182 Cd183 2.223 . S
O182 C190 1.315 . S
Cd183 O182 2.223 . S
Cd183 O186 2.297 . S
Cd183 O187 2.439 . S
Cd183 O193 2.240 . S
Cd184 O185 2.240 . S
Cd184 O192 2.223 . S
Cd184 O194 2.297 . S
Cd184 O195 2.439 . S
O185 Cd184 2.240 . S
O185 C190 1.279 . S
O186 Cd183 2.297 . S
O186 C188 1.247 . S
O187 Cd183 2.439 . S
O187 C188 1.208 . S
C188 O186 1.247 . S
C188 O187 1.208 . S
C189 O194 1.247 . S
C189 O195 1.208 . S
C190 O182 1.315 . S
C190 O185 1.279 . S
C191 O192 1.315 . S
C191 O193 1.279 . S
O192 Cd184 2.223 . S
O192 C191 1.315 . S
O193 Cd183 2.240 . S
O193 C191 1.279 . S
O194 Cd184 2.297 . S
O194 C189 1.247 . S
O195 Cd184 2.439 . S
O195 C189 1.208 . S
O196 Cd197 2.223 . S
O196 C204 1.315 . S
Cd197 O196 2.223 . S
Cd197 O200 2.297 . S
Cd197 O201 2.439 . S
Cd197 O207 2.240 . S
Cd198 O199 2.240 . S
Cd198 O206 2.223 . S
Cd198 O208 2.297 . S
Cd198 O209 2.439 . S
O199 Cd198 2.240 . S
O199 C204 1.279 . S
O200 Cd197 2.297 . S
O200 C202 1.247 . S
O201 Cd197 2.439 . S
O201 C202 1.208 . S
C202 O200 1.247 . S
C202 O201 1.208 . S
C203 O208 1.247 . S
C203 O209 1.208 . S
C204 O196 1.315 . S
C204 O199 1.279 . S
C205 O206 1.315 . S
C205 O207 1.279 . S
O206 Cd198 2.223 . S
O206 C205 1.315 . S
O207 Cd197 2.240 . S
O207 C205 1.279 . S
O208 Cd198 2.297 . S
O208 C203 1.247 . S
O209 Cd198 2.439 . S
O209 C203 1.208 . S
O210 Cd211 2.223 . S
O210 C218 1.315 . S
Cd211 O210 2.223 . S
Cd211 O214 2.297 . S
Cd211 O215 2.439 . S
Cd211 O221 2.240 . S
Cd212 O213 2.240 . S
Cd212 O220 2.223 . S
Cd212 O222 2.297 . S
Cd212 O223 2.439 . S
O213 Cd212 2.240 . S
O213 C218 1.279 . S
O214 Cd211 2.297 . S
O214 C216 1.247 . S
O215 Cd211 2.439 . S
O215 C216 1.208 . S
C216 O214 1.247 . S
C216 O215 1.208 . S
C217 O222 1.247 . S
C217 O223 1.208 . S
C218 O210 1.315 . S
C218 O213 1.279 . S
C219 O220 1.315 . S
C219 O221 1.279 . S
O220 Cd212 2.223 . S
O220 C219 1.315 . S
O221 Cd211 2.240 . S
O221 C219 1.279 . S
O222 Cd212 2.297 . S
O222 C217 1.247 . S
O223 Cd212 2.439 . S
O223 C217 1.208 . S
C224 C225 1.391 1_554 S
C224 C226 1.394 . S
C224 H240 0.931 . S
C225 C224 1.391 1_556 S
C225 C229 1.376 . S
C226 C224 1.394 . S
C226 C227 1.369 . S
C226 C230 1.531 . S
C227 C226 1.369 . S
C227 C228 1.410 1_554 S
C227 C235 1.503 . S
C228 C227 1.410 1_556 S
C228 C229 1.392 . S
C228 C231 1.511 . S
C229 C225 1.376 . S
C229 C228 1.392 . S
C229 H241 0.929 . S
C230 C226 1.531 . S
C230 H242 0.960 . S
C230 H243 0.962 . S
C230 H244 0.960 . S
C231 C228 1.511 . S
C231 H245 0.961 . S
C231 H246 0.961 . S
C231 H247 0.961 . S
C232 C233 1.370 . S
C232 C234 1.363 . S
C232 H248 0.931 1_554 S
C233 C232 1.370 . S
C233 C237 1.408 . S
C234 C232 1.363 . S
C234 C235 1.370 . S
C234 C238 1.524 1_554 S
C235 C227 1.503 . S
C235 C234 1.370 . S
C235 C236 1.403 . S
C236 C235 1.403 . S
C236 C237 1.404 . S
C236 C239 1.539 . S
C237 C233 1.408 . S
C237 C236 1.404 . S
C237 H249 0.930 . S
C238 C234 1.524 1_556 S
C238 H250 0.956 1_556 S
C238 H251 0.961 . S
C238 H252 0.961 . S
C239 C236 1.539 . S
C239 H253 0.958 . S
C239 H254 0.961 . S
C239 H255 0.960 . S
H240 C224 0.931 . S
H241 C229 0.929 . S
H242 C230 0.960 . S
H243 C230 0.962 . S
H244 C230 0.960 . S
H245 C231 0.961 . S
H246 C231 0.961 . S
H247 C231 0.961 . S
H248 C232 0.931 1_556 S
H249 C237 0.930 . S
H250 C238 0.956 1_554 S
H251 C238 0.961 . S
H252 C238 0.961 . S
H253 C239 0.958 . S
H254 C239 0.961 . S
H255 C239 0.960 . S
C256 C257 1.391 1_554 S
C256 C258 1.394 . S
C256 H272 0.931 . S
C257 C256 1.391 1_556 S
C257 C261 1.376 . S
C258 C256 1.394 . S
C258 C259 1.360 1_554 S
C258 C262 1.531 . S
C259 C258 1.360 1_556 S
C259 C260 1.420 . S
C259 C267 1.501 1_556 S
C260 C259 1.420 . S
C260 C261 1.392 . S
C260 C263 1.511 . S
C261 C257 1.376 . S
C261 C260 1.392 . S
C261 H273 0.929 . S
C262 C258 1.531 . S
C262 H274 0.960 . S
C262 H275 0.962 . S
C262 H276 0.960 . S
C263 C260 1.511 . S
C263 H277 0.961 . S
C263 H278 0.961 . S
C263 H279 0.961 . S
C264 C265 1.370 . S
C264 C266 1.363 . S
C264 H280 0.931 . S
C265 C264 1.370 . S
C265 C269 1.408 1_554 S
C266 C264 1.363 . S
C266 C267 1.370 . S
C266 C270 1.524 . S
C267 C259 1.501 1_554 S
C267 C266 1.370 . S
C267 C268 1.403 1_554 S
C268 C267 1.403 1_556 S
C268 C269 1.404 . S
C268 C271 1.539 . S
C269 C265 1.408 1_556 S
C269 C268 1.404 . S
C269 H281 0.930 . S
C270 C266 1.524 . S
C270 H282 0.956 . S
C270 H283 0.961 . S
C270 H284 0.961 . S
C271 C268 1.539 . S
C271 H285 0.958 . S
C271 H286 0.961 . S
C271 H287 0.960 . S
H272 C256 0.931 . S
H273 C261 0.929 . S
H274 C262 0.960 . S
H275 C262 0.962 . S
H276 C262 0.960 . S
H277 C263 0.961 . S
H278 C263 0.961 . S
H279 C263 0.961 . S
H280 C264 0.931 . S
H281 C269 0.930 . S
H282 C270 0.956 . S
H283 C270 0.961 . S
H284 C270 0.961 . S
H285 C271 0.958 . S
H286 C271 0.961 . S
H287 C271 0.960 . S
C288 C289 1.391 1_554 S
C288 C290 1.394 . S
C288 H304 0.931 . S
C289 C288 1.391 1_556 S
C289 C293 1.376 . S
C290 C288 1.394 . S
C290 C291 1.369 . S
C290 C294 1.531 . S
C291 C290 1.369 . S
C291 C292 1.410 1_554 S
C291 C299 1.503 . S
C292 C291 1.410 1_556 S
C292 C293 1.392 . S
C292 C295 1.511 . S
C293 C289 1.376 . S
C293 C292 1.392 . S
C293 H305 0.929 . S
C294 C290 1.531 . S
C294 H306 0.960 . S
C294 H307 0.962 . S
C294 H308 0.960 . S
C295 C292 1.511 . S
C295 H309 0.961 . S
C295 H310 0.961 . S
C295 H311 0.961 . S
C296 C297 1.364 1_556 S
C296 C298 1.364 . S
C296 H312 0.936 . S
C297 C296 1.364 1_554 S
C297 C301 1.408 . S
C298 C296 1.364 . S
C298 C299 1.370 1_556 S
C298 C302 1.524 . S
C299 C291 1.503 . S
C299 C298 1.370 1_554 S
C299 C300 1.403 . S
C300 C299 1.403 . S
C300 C301 1.404 . S
C300 C303 1.539 . S
C301 C297 1.408 . S
C301 C300 1.404 . S
C301 H313 0.930 . S
C302 C298 1.524 . S
C302 H314 0.956 . S
C302 H315 0.961 . S
C302 H316 0.961 . S
C303 C300 1.539 . S
C303 H317 0.958 . S
C303 H318 0.961 . S
C303 H319 0.960 . S
H304 C288 0.931 . S
H305 C293 0.929 . S
H306 C294 0.960 . S
H307 C294 0.962 . S
H308 C294 0.960 . S
H309 C295 0.961 . S
H310 C295 0.961 . S
H311 C295 0.961 . S
H312 C296 0.936 . S
H313 C301 0.930 . S
H314 C302 0.956 . S
H315 C302 0.961 . S
H316 C302 0.961 . S
H317 C303 0.958 . S
H318 C303 0.961 . S
H319 C303 0.960 . S
C320 C321 1.391 . S
C320 C322 1.394 . S
C320 H336 0.931 . S
C321 C320 1.391 . S
C321 C325 1.376 1_556 S
C322 C320 1.394 . S
C322 C323 1.369 1_556 S
C322 C326 1.531 . S
C323 C322 1.369 1_554 S
C323 C324 1.410 . S
C323 C331 1.503 . S
C324 C323 1.410 . S
C324 C325 1.392 . S
C324 C327 1.511 . S
C325 C321 1.376 1_554 S
C325 C324 1.392 . S
C325 H337 0.929 . S
C326 C322 1.531 . S
C326 H338 0.959 . S
C326 H339 0.962 . S
C326 H340 0.960 . S
C327 C324 1.511 . S
C327 H341 0.961 . S
C327 H342 0.961 . S
C327 H343 0.961 . S
C328 C329 1.370 1_556 S
C328 C330 1.363 . S
C328 H344 0.931 . S
C329 C328 1.370 1_554 S
C329 C333 1.408 . S
C330 C328 1.363 . S
C330 C331 1.370 1_556 S
C330 C334 1.524 . S
C331 C323 1.503 . S
C331 C330 1.370 1_554 S
C331 C332 1.403 . S
C332 C331 1.403 . S
C332 C333 1.404 . S
C332 C335 1.539 . S
C333 C329 1.408 . S
C333 C332 1.404 . S
C333 H345 0.930 . S
C334 C330 1.524 . S
C334 H346 0.956 . S
C334 H347 0.961 . S
C334 H348 0.961 . S
C335 C332 1.539 . S
C335 H349 0.958 . S
C335 H350 0.961 . S
C335 H351 0.960 . S
H336 C320 0.931 . S
H337 C325 0.929 . S
H338 C326 0.959 . S
H339 C326 0.962 . S
H340 C326 0.960 . S
H341 C327 0.961 . S
H342 C327 0.961 . S
H343 C327 0.961 . S
H344 C328 0.931 . S
H345 C333 0.930 . S
H346 C334 0.956 . S
H347 C334 0.961 . S
H348 C334 0.961 . S
H349 C335 0.958 . S
H350 C335 0.961 . S
H351 C335 0.960 . S
C352 C353 1.391 . S
C352 C354 1.394 . S
C352 H368 0.931 . S
C353 C352 1.391 . S
C353 C357 1.376 . S
C354 C352 1.394 . S
C354 C355 1.369 . S
C354 C358 1.531 . S
C355 C354 1.369 . S
C355 C356 1.410 . S
C355 C363 1.503 1_545 S
C356 C355 1.410 . S
C356 C357 1.392 . S
C356 C359 1.511 . S
C357 C353 1.376 . S
C357 C356 1.392 . S
C357 H369 0.929 . S
C358 C354 1.531 . S
C358 H370 0.960 1_545 S
C358 H371 0.962 . S
C358 H372 0.960 . S
C359 C356 1.511 . S
C359 H373 0.961 . S
C359 H374 0.965 . S
C359 H375 0.961 . S
C360 C361 1.370 . S
C360 C362 1.363 . S
C360 H376 0.931 . S
C361 C360 1.370 . S
C361 C365 1.408 . S
C362 C360 1.363 . S
C362 C363 1.370 . S
C362 C366 1.524 . S
C363 C355 1.503 1_565 S
C363 C362 1.370 . S
C363 C364 1.403 . S
C364 C363 1.403 . S
C364 C365 1.404 . S
C364 C367 1.539 . S
C365 C361 1.408 . S
C365 C364 1.404 . S
C365 H377 0.930 . S
C366 C362 1.524 . S
C366 H378 0.956 1_565 S
C366 H379 0.961 1_565 S
C366 H380 0.961 . S
C367 C364 1.539 . S
C367 H381 0.958 . S
C367 H382 0.961 . S
C367 H383 0.960 . S
H368 C352 0.931 . S
H369 C357 0.929 . S
H370 C358 0.960 1_565 S
H371 C358 0.962 . S
H372 C358 0.960 . S
H373 C359 0.961 . S
H374 C359 0.965 . S
H375 C359 0.961 . S
H376 C360 0.931 . S
H377 C365 0.930 . S
H378 C366 0.956 1_545 S
H379 C366 0.961 1_545 S
H380 C366 0.961 . S
H381 C367 0.958 . S
H382 C367 0.961 . S
H383 C367 0.960 . S
C384 C385 1.391 . S
C384 C386 1.394 . S
C384 H400 0.931 . S
C385 C384 1.391 . S
C385 C389 1.376 . S
C386 C384 1.394 . S
C386 C387 1.369 . S
C386 C390 1.531 . S
C387 C386 1.369 . S
C387 C388 1.410 . S
C387 C395 1.503 1_655 S
C388 C387 1.410 . S
C388 C389 1.392 . S
C388 C391 1.511 . S
C389 C385 1.376 . S
C389 C388 1.392 . S
C389 H401 0.929 . S
C390 C386 1.531 . S
C390 H402 0.960 1_655 S
C390 H403 0.962 . S
C390 H404 0.960 . S
C391 C388 1.511 . S
C391 H405 0.961 . S
C391 H406 0.961 1_655 S
C391 H407 0.961 . S
C392 C393 1.370 . S
C392 C394 1.363 . S
C392 H408 0.931 . S
C393 C392 1.370 . S
C393 C397 1.408 . S
C394 C392 1.363 . S
C394 C395 1.370 . S
C394 C398 1.524 . S
C395 C387 1.503 1_455 S
C395 C394 1.370 . S
C395 C396 1.403 . S
C396 C395 1.403 . S
C396 C397 1.404 . S
C396 C399 1.539 . S
C397 C393 1.408 . S
C397 C396 1.404 . S
C397 H409 0.930 . S
C398 C394 1.524 . S
C398 H410 0.956 1_455 S
C398 H411 0.961 1_455 S
C398 H412 0.961 . S
C399 C396 1.539 . S
C399 H413 0.958 . S
C399 H414 0.961 . S
C399 H415 0.960 . S
H400 C384 0.931 . S
H401 C389 0.929 . S
H402 C390 0.960 1_455 S
H403 C390 0.962 . S
H404 C390 0.960 . S
H405 C391 0.961 . S
H406 C391 0.961 1_455 S
H407 C391 0.961 . S
H408 C392 0.931 . S
H409 C397 0.930 . S
H410 C398 0.956 1_655 S
H411 C398 0.961 1_655 S
H412 C398 0.961 . S
H413 C399 0.958 . S
H414 C399 0.961 . S
H415 C399 0.960 . S
C416 C417 1.391 . S
C416 C418 1.394 . S
C416 H432 0.931 . S
C417 C416 1.391 . S
C417 C421 1.376 . S
C418 C416 1.394 . S
C418 C419 1.369 . S
C418 C422 1.531 . S
C419 C418 1.369 . S
C419 C420 1.410 . S
C419 C427 1.503 1_545 S
C420 C419 1.410 . S
C420 C421 1.392 . S
C420 C423 1.511 . S
C421 C417 1.376 . S
C421 C420 1.392 . S
C421 H433 0.929 . S
C422 C418 1.531 . S
C422 H434 0.960 . S
C422 H435 0.962 . S
C422 H436 0.960 . S
C423 C420 1.511 . S
C423 H437 0.961 . S
C423 H438 0.961 1_545 S
C423 H439 0.961 . S
C424 C425 1.370 . S
C424 C426 1.363 . S
C424 H440 0.931 . S
C425 C424 1.370 . S
C425 C429 1.408 . S
C426 C424 1.363 . S
C426 C427 1.370 . S
C426 C430 1.524 . S
C427 C419 1.503 1_565 S
C427 C426 1.370 . S
C427 C428 1.403 . S
C428 C427 1.403 . S
C428 C429 1.404 . S
C428 C431 1.539 . S
C429 C425 1.408 . S
C429 C428 1.404 . S
C429 H441 0.930 . S
C430 C426 1.524 . S
C430 H442 0.967 . S
C430 H443 0.961 . S
C430 H444 0.961 . S
C431 C428 1.539 . S
C431 H445 0.958 . S
C431 H446 0.961 . S
C431 H447 0.956 . S
H432 C416 0.931 . S
H433 C421 0.929 . S
H434 C422 0.960 . S
H435 C422 0.962 . S
H436 C422 0.960 . S
H437 C423 0.961 . S
H438 C423 0.961 1_565 S
H439 C423 0.961 . S
H440 C424 0.931 . S
H441 C429 0.930 . S
H442 C430 0.967 . S
H443 C430 0.961 . S
H444 C430 0.961 . S
H445 C431 0.958 . S
H446 C431 0.961 . S
H447 C431 0.956 . S
C448 C449 1.391 . S
C448 C450 1.394 . S
C448 H464 0.931 . S
C449 C448 1.391 . S
C449 C453 1.376 . S
C450 C448 1.394 . S
C450 C451 1.369 . S
C450 C454 1.531 . S
C451 C450 1.369 . S
C451 C452 1.410 . S
C451 C459 1.503 1_455 S
C452 C451 1.410 . S
C452 C453 1.392 . S
C452 C455 1.511 . S
C453 C449 1.376 . S
C453 C452 1.392 . S
C453 H465 0.929 . S
C454 C450 1.531 . S
C454 H466 0.960 . S
C454 H467 0.962 . S
C454 H468 0.960 . S
C455 C452 1.511 . S
C455 H469 0.961 . S
C455 H470 0.961 1_455 S
C455 H471 0.961 . S
C456 C457 1.370 . S
C456 C458 1.363 . S
C456 H472 0.931 . S
C457 C456 1.370 . S
C457 C461 1.408 . S
C458 C456 1.363 . S
C458 C459 1.370 . S
C458 C462 1.524 . S
C459 C451 1.503 1_655 S
C459 C458 1.370 . S
C459 C460 1.403 . S
C460 C459 1.403 . S
C460 C461 1.404 . S
C460 C463 1.539 . S
C461 C457 1.408 . S
C461 C460 1.404 . S
C461 H473 0.930 . S
C462 C458 1.524 . S
C462 H474 0.956 1_655 S
C462 H475 0.942 1_655 S
C462 H476 0.961 . S
C463 C460 1.539 . S
C463 H477 0.958 . S
C463 H478 0.961 . S
C463 H479 0.960 . S
H464 C448 0.931 . S
H465 C453 0.929 . S
H466 C454 0.960 . S
H467 C454 0.962 . S
H468 C454 0.960 . S
H469 C455 0.961 . S
H470 C455 0.961 1_655 S
H471 C455 0.961 . S
H472 C456 0.931 . S
H473 C461 0.930 . S
H474 C462 0.956 1_455 S
H475 C462 0.942 1_455 S
H476 C462 0.961 . S
H477 C463 0.958 . S
H478 C463 0.961 . S
H479 C463 0.960 . S
C480 C481 1.391 . S
C480 C482 1.394 . S
C480 H496 0.931 . S
C481 C480 1.391 . S
C481 C485 1.380 . S
C482 C480 1.394 . S
C482 C483 1.369 . S
C482 C486 1.531 . S
C483 C482 1.369 . S
C483 C484 1.410 1_554 S
C483 C491 1.503 . S
C484 C483 1.410 1_556 S
C484 C485 1.390 1_556 S
C484 C487 1.511 . S
C485 C481 1.380 . S
C485 C484 1.390 1_554 S
C485 H497 0.927 1_554 S
C486 C482 1.531 . S
C486 H498 0.960 . S
C486 H499 0.962 . S
C486 H500 0.960 . S
C487 C484 1.511 . S
C487 H501 0.961 . S
C487 H502 0.961 . S
C487 H503 0.961 . S
C488 C489 1.392 . S
C488 C490 1.363 . S
C488 H504 0.931 . S
C489 C488 1.392 . S
C489 C493 1.387 1_554 S
C490 C488 1.363 . S
C490 C491 1.370 . S
C490 C494 1.524 . S
C491 C483 1.503 . S
C491 C490 1.370 . S
C491 C492 1.403 1_554 S
C492 C491 1.403 1_556 S
C492 C493 1.404 . S
C492 C495 1.539 . S
C493 C489 1.387 1_556 S
C493 C492 1.404 . S
C493 H505 0.930 . S
C494 C490 1.524 . S
C494 H506 0.956 . S
C494 H507 0.961 . S
C494 H508 0.961 . S
C495 C492 1.539 . S
C495 H509 0.958 . S
C495 H510 0.961 . S
C495 H511 0.960 . S
H496 C480 0.931 . S
H497 C485 0.927 1_556 S
H498 C486 0.960 . S
H499 C486 0.962 . S
H500 C486 0.960 . S
H501 C487 0.961 . S
H502 C487 0.961 . S
H503 C487 0.961 . S
H504 C488 0.931 . S
H505 C493 0.930 . S
H506 C494 0.956 . S
H507 C494 0.961 . S
H508 C494 0.961 . S
H509 C495 0.958 . S
H510 C495 0.961 . S
H511 C495 0.960 . S
C512 C513 1.391 1_554 S
C512 C514 1.394 . S
C512 H528 0.931 . S
C513 C512 1.391 1_556 S
C513 C517 1.376 . S
C514 C512 1.394 . S
C514 C515 1.369 1_554 S
C514 C518 1.531 . S
C515 C514 1.369 1_556 S
C515 C516 1.410 . S
C515 C523 1.503 1_556 S
C516 C515 1.410 . S
C516 C517 1.392 . S
C516 C519 1.511 . S
C517 C513 1.376 . S
C517 C516 1.392 . S
C517 H529 0.929 . S
C518 C514 1.531 . S
C518 H530 0.960 1_554 S
C518 H531 0.962 . S
C518 H532 0.960 1_554 S
C519 C516 1.511 . S
C519 H533 0.960 . S
C519 H534 0.961 1_556 S
C519 H535 0.961 . S
C520 C521 1.370 . S
C520 C522 1.363 . S
C520 H536 0.931 . S
C521 C520 1.370 . S
C521 C525 1.408 1_554 S
C522 C520 1.363 . S
C522 C523 1.370 . S
C522 C526 1.524 . S
C523 C515 1.503 1_554 S
C523 C522 1.370 . S
C523 C524 1.403 1_554 S
C524 C523 1.403 1_556 S
C524 C525 1.404 . S
C524 C527 1.539 . S
C525 C521 1.408 1_556 S
C525 C524 1.404 . S
C525 H537 0.930 . S
C526 C522 1.524 . S
C526 H538 0.956 . S
C526 H539 0.961 . S
C526 H540 0.961 . S
C527 C524 1.539 . S
C527 H541 0.958 . S
C527 H542 0.961 . S
C527 H543 0.960 . S
H528 C512 0.931 . S
H529 C517 0.929 . S
H530 C518 0.960 1_556 S
H531 C518 0.962 . S
H532 C518 0.960 1_556 S
H533 C519 0.960 . S
H534 C519 0.961 1_554 S
H535 C519 0.961 . S
H536 C520 0.931 . S
H537 C525 0.930 . S
H538 C526 0.956 . S
H539 C526 0.961 . S
H540 C526 0.961 . S
H541 C527 0.958 . S
H542 C527 0.961 . S
H543 C527 0.960 . S
C544 C545 1.391 . S
C544 C546 1.394 . S
C544 H560 0.931 . S
C545 C544 1.391 . S
C545 C549 1.376 1_554 S
C546 C544 1.394 . S
C546 C547 1.369 . S
C546 C550 1.531 . S
C547 C546 1.369 . S
C547 C548 1.410 1_554 S
C547 C555 1.503 . S
C548 C547 1.410 1_556 S
C548 C549 1.392 . S
C548 C551 1.511 . S
C549 C545 1.376 1_556 S
C549 C548 1.392 . S
C549 H561 0.929 . S
C550 C546 1.531 . S
C550 H562 0.960 . S
C550 H563 0.962 . S
C550 H564 0.960 . S
C551 C548 1.511 . S
C551 H565 0.961 . S
C551 H566 0.961 . S
C551 H567 0.961 . S
C552 C553 1.370 . S
C552 C554 1.363 . S
C552 H568 0.931 . S
C553 C552 1.370 . S
C553 C557 1.408 1_554 S
C554 C552 1.363 . S
C554 C555 1.370 . S
C554 C558 1.524 . S
C555 C547 1.503 . S
C555 C554 1.370 . S
C555 C556 1.403 . S
C556 C555 1.403 . S
C556 C557 1.404 1_554 S
C556 C559 1.539 1_554 S
C557 C553 1.408 1_556 S
C557 C556 1.404 1_556 S
C557 H569 0.930 . S
C558 C554 1.524 . S
C558 H570 0.956 . S
C558 H571 0.961 1_554 S
C558 H572 0.961 . S
C559 C556 1.539 1_556 S
C559 H573 0.958 1_556 S
C559 H574 0.961 . S
C559 H575 0.960 . S
H560 C544 0.931 . S
H561 C549 0.929 . S
H562 C550 0.960 . S
H563 C550 0.962 . S
H564 C550 0.960 . S
H565 C551 0.961 . S
H566 C551 0.961 . S
H567 C551 0.961 . S
H568 C552 0.931 . S
H569 C557 0.930 . S
H570 C558 0.956 . S
H571 C558 0.961 1_556 S
H572 C558 0.961 . S
H573 C559 0.958 1_554 S
H574 C559 0.961 . S
H575 C559 0.960 . S
C576 C577 1.391 1_554 S
C576 C578 1.394 . S
C576 H592 0.931 . S
C577 C576 1.391 1_556 S
C577 C581 1.376 . S
C578 C576 1.394 . S
C578 C579 1.369 . S
C578 C582 1.531 . S
C579 C578 1.369 . S
C579 C580 1.410 1_554 S
C579 C587 1.503 . S
C580 C579 1.410 1_556 S
C580 C581 1.392 . S
C580 C583 1.511 . S
C581 C577 1.376 . S
C581 C580 1.392 . S
C581 H593 0.929 . S
C582 C578 1.531 . S
C582 H594 0.960 . S
C582 H595 0.962 . S
C582 H596 0.960 . S
C583 C580 1.511 . S
C583 H597 0.961 . S
C583 H598 0.961 . S
C583 H599 0.961 . S
C584 C585 1.370 . S
C584 C586 1.363 . S
C584 H600 0.931 . S
C585 C584 1.370 . S
C585 C589 1.408 1_554 S
C586 C584 1.363 . S
C586 C587 1.370 . S
C586 C590 1.524 . S
C587 C579 1.503 . S
C587 C586 1.370 . S
C587 C588 1.403 1_554 S
C588 C587 1.403 1_556 S
C588 C589 1.404 . S
C588 C591 1.539 . S
C589 C585 1.408 1_556 S
C589 C588 1.404 . S
C589 H601 0.930 . S
C590 C586 1.524 . S
C590 H602 0.956 . S
C590 H603 0.961 . S
C590 H604 0.961 . S
C591 C588 1.539 . S
C591 H605 0.958 . S
C591 H606 0.961 . S
C591 H607 0.960 . S
H592 C576 0.931 . S
H593 C581 0.929 . S
H594 C582 0.960 . S
H595 C582 0.962 . S
H596 C582 0.960 . S
H597 C583 0.961 . S
H598 C583 0.961 . S
H599 C583 0.961 . S
H600 C584 0.931 . S
H601 C589 0.930 . S
H602 C590 0.956 . S
H603 C590 0.961 . S
H604 C590 0.961 . S
H605 C591 0.958 . S
H606 C591 0.961 . S
H607 C591 0.960 . S
C608 C609 1.391 . S
C608 C610 1.394 . S
C608 H624 0.931 . S
C609 C608 1.391 . S
C609 C613 1.376 . S
C610 C608 1.394 . S
C610 C611 1.369 . S
C610 C614 1.531 . S
C611 C610 1.369 . S
C611 C612 1.410 . S
C611 C619 1.503 . S
C612 C611 1.410 . S
C612 C613 1.392 . S
C612 C615 1.511 . S
C613 C609 1.376 . S
C613 C612 1.392 . S
C613 H625 0.929 . S
C614 C610 1.531 . S
C614 H626 0.960 . S
C614 H627 0.962 . S
C614 H628 0.960 . S
C615 C612 1.511 . S
C615 H629 0.961 . S
C615 H630 0.961 . S
C615 H631 0.961 . S
C616 C617 1.370 . S
C616 C618 1.363 . S
C616 H632 0.931 . S
C617 C616 1.370 . S
C617 C621 1.408 . S
C618 C616 1.363 . S
C618 C619 1.370 . S
C618 C622 1.524 . S
C619 C611 1.503 . S
C619 C618 1.370 . S
C619 C620 1.403 . S
C620 C619 1.403 . S
C620 C621 1.404 . S
C620 C623 1.539 . S
C621 C617 1.408 . S
C621 C620 1.404 . S
C621 H633 0.930 . S
C622 C618 1.524 . S
C622 H634 0.956 . S
C622 H635 0.961 . S
C622 H636 0.961 . S
C623 C620 1.539 . S
C623 H637 0.958 . S
C623 H638 0.961 . S
C623 H639 0.960 . S
H624 C608 0.931 . S
H625 C613 0.929 . S
H626 C614 0.960 . S
H627 C614 0.962 . S
H628 C614 0.960 . S
H629 C615 0.961 . S
H630 C615 0.961 . S
H631 C615 0.961 . S
H632 C616 0.931 . S
H633 C621 0.930 . S
H634 C622 0.956 . S
H635 C622 0.961 . S
H636 C622 0.961 . S
H637 C623 0.958 . S
H638 C623 0.961 . S
H639 C623 0.960 . S
C640 C641 1.391 . S
C640 C642 1.394 . S
C640 H656 0.931 . S
C641 C640 1.391 . S
C641 C645 1.376 . S
C642 C640 1.394 . S
C642 C643 1.369 . S
C642 C646 1.531 . S
C643 C642 1.369 . S
C643 C644 1.410 . S
C643 C651 1.503 . S
C644 C643 1.410 . S
C644 C645 1.392 . S
C644 C647 1.511 . S
C645 C641 1.376 . S
C645 C644 1.392 . S
C645 H657 0.929 . S
C646 C642 1.531 . S
C646 H658 0.960 . S
C646 H659 0.962 . S
C646 H660 0.960 . S
C647 C644 1.511 . S
C647 H661 0.961 . S
C647 H662 0.961 . S
C647 H663 0.961 . S
C648 C649 1.370 . S
C648 C650 1.363 . S
C648 H664 0.931 . S
C649 C648 1.370 . S
C649 C653 1.408 . S
C650 C648 1.363 . S
C650 C651 1.370 . S
C650 C654 1.524 . S
C651 C643 1.503 . S
C651 C650 1.370 . S
C651 C652 1.403 . S
C652 C651 1.403 . S
C652 C653 1.404 . S
C652 C655 1.539 . S
C653 C649 1.408 . S
C653 C652 1.404 . S
C653 H665 0.930 . S
C654 C650 1.524 . S
C654 H666 0.956 . S
C654 H667 0.961 . S
C654 H668 0.961 . S
C655 C652 1.539 . S
C655 H669 0.958 . S
C655 H670 0.961 . S
C655 H671 0.960 . S
H656 C640 0.931 . S
H657 C645 0.929 . S
H658 C646 0.960 . S
H659 C646 0.962 . S
H660 C646 0.960 . S
H661 C647 0.961 . S
H662 C647 0.961 . S
H663 C647 0.961 . S
H664 C648 0.931 . S
H665 C653 0.930 . S
H666 C654 0.956 . S
H667 C654 0.961 . S
H668 C654 0.961 . S
H669 C655 0.958 . S
H670 C655 0.961 . S
H671 C655 0.960 . S
C672 C673 1.391 . S
C672 C674 1.394 . S
C672 H688 0.931 . S
C673 C672 1.391 . S
C673 C677 1.376 . S
C674 C672 1.394 . S
C674 C675 1.369 . S
C674 C678 1.531 . S
C675 C674 1.369 . S
C675 C676 1.410 . S
C675 C683 1.503 . S
C676 C675 1.410 . S
C676 C677 1.392 . S
C676 C679 1.511 . S
C677 C673 1.376 . S
C677 C676 1.392 . S
C677 H689 0.929 . S
C678 C674 1.531 . S
C678 H690 0.960 . S
C678 H691 0.962 . S
C678 H692 0.960 . S
C679 C676 1.511 . S
C679 H693 0.961 . S
C679 H694 0.961 . S
C679 H695 0.961 . S
C680 C681 1.370 . S
C680 C682 1.363 . S
C680 H696 0.931 . S
C681 C680 1.370 . S
C681 C685 1.408 . S
C682 C680 1.363 . S
C682 C683 1.370 . S
C682 C686 1.524 . S
C683 C675 1.503 . S
C683 C682 1.370 . S
C683 C684 1.403 . S
C684 C683 1.403 . S
C684 C685 1.404 . S
C684 C687 1.539 . S
C685 C681 1.408 . S
C685 C684 1.404 . S
C685 H697 0.930 . S
C686 C682 1.524 . S
C686 H698 0.956 . S
C686 H699 0.961 . S
C686 H700 0.961 . S
C687 C684 1.539 . S
C687 H701 0.958 . S
C687 H702 0.961 . S
C687 H703 0.960 . S
H688 C672 0.931 . S
H689 C677 0.929 . S
H690 C678 0.960 . S
H691 C678 0.962 . S
H692 C678 0.960 . S
H693 C679 0.961 . S
H694 C679 0.961 . S
H695 C679 0.961 . S
H696 C680 0.931 . S
H697 C685 0.930 . S
H698 C686 0.956 . S
H699 C686 0.961 . S
H700 C686 0.961 . S
H701 C687 0.958 . S
H702 C687 0.961 . S
H703 C687 0.960 . S
C704 C705 1.391 . S
C704 C706 1.394 . S
C704 H720 0.931 . S
C705 C704 1.391 . S
C705 C709 1.376 . S
C706 C704 1.394 . S
C706 C707 1.369 . S
C706 C710 1.531 . S
C707 C706 1.369 . S
C707 C708 1.410 . S
C707 C715 1.503 . S
C708 C707 1.410 . S
C708 C709 1.392 . S
C708 C711 1.511 . S
C709 C705 1.376 . S
C709 C708 1.392 . S
C709 H721 0.929 . S
C710 C706 1.531 . S
C710 H722 0.960 . S
C710 H723 0.962 . S
C710 H724 0.960 . S
C711 C708 1.511 . S
C711 H725 0.961 . S
C711 H726 0.961 . S
C711 H727 0.961 . S
C712 C713 1.370 . S
C712 C714 1.363 . S
C712 H728 0.931 . S
C713 C712 1.370 . S
C713 C717 1.408 . S
C714 C712 1.363 . S
C714 C715 1.370 . S
C714 C718 1.524 . S
C715 C707 1.503 . S
C715 C714 1.370 . S
C715 C716 1.403 . S
C716 C715 1.403 . S
C716 C717 1.404 . S
C716 C719 1.539 . S
C717 C713 1.408 . S
C717 C716 1.404 . S
C717 H729 0.930 . S
C718 C714 1.524 . S
C718 H730 0.956 . S
C718 H731 0.961 . S
C718 H732 0.961 . S
C719 C716 1.539 . S
C719 H733 0.958 . S
C719 H734 0.961 . S
C719 H735 0.960 . S
H720 C704 0.931 . S
H721 C709 0.929 . S
H722 C710 0.960 . S
H723 C710 0.962 . S
H724 C710 0.960 . S
H725 C711 0.961 . S
H726 C711 0.961 . S
H727 C711 0.961 . S
H728 C712 0.931 . S
H729 C717 0.930 . S
H730 C718 0.956 . S
H731 C718 0.961 . S
H732 C718 0.961 . S
H733 C719 0.958 . S
H734 C719 0.961 . S
H735 C719 0.960 . S
C736 C737 1.391 . S
C736 C738 1.394 . S
C736 H752 0.931 . S
C737 C736 1.391 . S
C737 C741 1.376 . S
C738 C736 1.394 . S
C738 C739 1.369 . S
C738 C742 1.531 . S
C739 C738 1.369 . S
C739 C740 1.410 . S
C739 C747 1.503 . S
C740 C739 1.410 . S
C740 C741 1.392 . S
C740 C743 1.511 . S
C741 C737 1.376 . S
C741 C740 1.392 . S
C741 H753 0.929 . S
C742 C738 1.531 . S
C742 H754 0.960 . S
C742 H755 0.962 . S
C742 H756 0.960 . S
C743 C740 1.511 . S
C743 H757 0.961 . S
C743 H758 0.961 . S
C743 H759 0.961 . S
C744 C745 1.370 . S
C744 C746 1.363 . S
C744 H760 0.931 . S
C745 C744 1.370 . S
C745 C749 1.408 . S
C746 C744 1.363 . S
C746 C747 1.370 . S
C746 C750 1.524 . S
C747 C739 1.503 . S
C747 C746 1.370 . S
C747 C748 1.403 . S
C748 C747 1.403 . S
C748 C749 1.404 . S
C748 C751 1.539 . S
C749 C745 1.408 . S
C749 C748 1.404 . S
C749 H761 0.930 . S
C750 C746 1.524 . S
C750 H762 0.956 . S
C750 H763 0.961 . S
C750 H764 0.961 . S
C751 C748 1.539 . S
C751 H765 0.958 . S
C751 H766 0.961 . S
C751 H767 0.960 . S
H752 C736 0.931 . S
H753 C741 0.929 . S
H754 C742 0.960 . S
H755 C742 0.962 . S
H756 C742 0.960 . S
H757 C743 0.961 . S
H758 C743 0.961 . S
H759 C743 0.961 . S
H760 C744 0.931 . S
H761 C749 0.930 . S
H762 C750 0.956 . S
H763 C750 0.961 . S
H764 C750 0.961 . S
H765 C751 0.958 . S
H766 C751 0.961 . S
H767 C751 0.960 . S
C768 C769 1.391 . S
C768 C770 1.394 . S
C768 H784 0.931 . S
C769 C768 1.391 . S
C769 C773 1.376 . S
C770 C768 1.394 . S
C770 C771 1.369 . S
C770 C774 1.531 . S
C771 C770 1.369 . S
C771 C772 1.410 . S
C771 C779 1.503 . S
C772 C771 1.410 . S
C772 C773 1.392 . S
C772 C775 1.511 . S
C773 C769 1.376 . S
C773 C772 1.392 . S
C773 H785 0.929 . S
C774 C770 1.531 . S
C774 H786 0.960 . S
C774 H787 0.962 . S
C774 H788 0.960 . S
C775 C772 1.511 . S
C775 H789 0.961 . S
C775 H790 0.961 . S
C775 H791 0.961 . S
C776 C777 1.370 . S
C776 C778 1.363 . S
C776 H792 0.931 . S
C777 C776 1.370 . S
C777 C781 1.408 . S
C778 C776 1.363 . S
C778 C779 1.370 . S
C778 C782 1.524 . S
C779 C771 1.503 . S
C779 C778 1.370 . S
C779 C780 1.403 . S
C780 C779 1.403 . S
C780 C781 1.404 . S
C780 C783 1.539 . S
C781 C777 1.408 . S
C781 C780 1.404 . S
C781 H793 0.930 . S
C782 C778 1.524 . S
C782 H794 0.956 . S
C782 H795 0.961 . S
C782 H796 0.961 . S
C783 C780 1.539 . S
C783 H797 0.958 . S
C783 H798 0.961 . S
C783 H799 0.960 . S
H784 C768 0.931 . S
H785 C773 0.929 . S
H786 C774 0.960 . S
H787 C774 0.962 . S
H788 C774 0.960 . S
H789 C775 0.961 . S
H790 C775 0.961 . S
H791 C775 0.961 . S
H792 C776 0.931 . S
H793 C781 0.930 . S
H794 C782 0.956 . S
H795 C782 0.961 . S
H796 C782 0.961 . S
H797 C783 0.958 . S
H798 C783 0.961 . S
H799 C783 0.960 . S
C800 C801 1.391 . S
C800 C802 1.394 . S
C800 H816 0.931 . S
C801 C800 1.391 . S
C801 C805 1.376 . S
C802 C800 1.394 . S
C802 C803 1.369 . S
C802 C806 1.531 . S
C803 C802 1.369 . S
C803 C804 1.410 . S
C803 C811 1.503 . S
C804 C803 1.410 . S
C804 C805 1.392 . S
C804 C807 1.511 . S
C805 C801 1.376 . S
C805 C804 1.392 . S
C805 H817 0.929 . S
C806 C802 1.531 . S
C806 H818 0.960 . S
C806 H819 0.962 . S
C806 H820 0.960 . S
C807 C804 1.511 . S
C807 H821 0.961 . S
C807 H822 0.961 . S
C807 H823 0.961 . S
C808 C809 1.370 . S
C808 C810 1.363 . S
C808 H824 0.931 . S
C809 C808 1.370 . S
C809 C813 1.408 . S
C810 C808 1.363 . S
C810 C811 1.370 . S
C810 C814 1.524 . S
C811 C803 1.503 . S
C811 C810 1.370 . S
C811 C812 1.403 . S
C812 C811 1.403 . S
C812 C813 1.404 . S
C812 C815 1.539 . S
C813 C809 1.408 . S
C813 C812 1.404 . S
C813 H825 0.930 . S
C814 C810 1.524 . S
C814 H826 0.956 . S
C814 H827 0.961 . S
C814 H828 0.961 . S
C815 C812 1.539 . S
C815 H829 0.958 . S
C815 H830 0.961 . S
C815 H831 0.960 . S
H816 C800 0.931 . S
H817 C805 0.929 . S
H818 C806 0.960 . S
H819 C806 0.962 . S
H820 C806 0.960 . S
H821 C807 0.961 . S
H822 C807 0.961 . S
H823 C807 0.961 . S
H824 C808 0.931 . S
H825 C813 0.930 . S
H826 C814 0.956 . S
H827 C814 0.961 . S
H828 C814 0.961 . S
H829 C815 0.958 . S
H830 C815 0.961 . S
H831 C815 0.960 . S
C832 C833 1.391 . S
C832 C834 1.394 . S
C832 H848 0.931 . S
C833 C832 1.391 . S
C833 C837 1.376 . S
C834 C832 1.394 . S
C834 C835 1.369 . S
C834 C838 1.531 . S
C835 C834 1.369 . S
C835 C836 1.410 . S
C835 C843 1.503 . S
C836 C835 1.410 . S
C836 C837 1.392 . S
C836 C839 1.511 . S
C837 C833 1.376 . S
C837 C836 1.392 . S
C837 H849 0.929 . S
C838 C834 1.531 . S
C838 H850 0.960 . S
C838 H851 0.962 . S
C838 H852 0.960 . S
C839 C836 1.511 . S
C839 H853 0.961 . S
C839 H854 0.961 . S
C839 H855 0.961 . S
C840 C841 1.370 . S
C840 C842 1.363 . S
C840 H856 0.931 . S
C841 C840 1.370 . S
C841 C845 1.408 . S
C842 C840 1.363 . S
C842 C843 1.370 . S
C842 C846 1.524 . S
C843 C835 1.503 . S
C843 C842 1.370 . S
C843 C844 1.403 . S
C844 C843 1.403 . S
C844 C845 1.404 . S
C844 C847 1.539 . S
C845 C841 1.408 . S
C845 C844 1.404 . S
C845 H857 0.930 . S
C846 C842 1.524 . S
C846 H858 0.956 . S
C846 H859 0.961 . S
C846 H860 0.961 . S
C847 C844 1.539 . S
C847 H861 0.958 . S
C847 H862 0.961 . S
C847 H863 0.960 . S
H848 C832 0.931 . S
H849 C837 0.929 . S
H850 C838 0.960 . S
H851 C838 0.962 . S
H852 C838 0.960 . S
H853 C839 0.961 . S
H854 C839 0.961 . S
H855 C839 0.961 . S
H856 C840 0.931 . S
H857 C845 0.930 . S
H858 C846 0.956 . S
H859 C846 0.961 . S
H860 C846 0.961 . S
H861 C847 0.958 . S
H862 C847 0.961 . S
H863 C847 0.960 . S
C864 C865 1.391 . S
C864 C866 1.394 . S
C864 H880 0.931 . S
C865 C864 1.391 . S
C865 C869 1.376 . S
C866 C864 1.394 . S
C866 C867 1.369 . S
C866 C870 1.531 . S
C867 C866 1.369 . S
C867 C868 1.410 . S
C867 C875 1.503 . S
C868 C867 1.410 . S
C868 C869 1.392 . S
C868 C871 1.511 . S
C869 C865 1.376 . S
C869 C868 1.392 . S
C869 H881 0.929 . S
C870 C866 1.531 . S
C870 H882 0.960 . S
C870 H883 0.962 . S
C870 H884 0.960 . S
C871 C868 1.511 . S
C871 H885 0.961 . S
C871 H886 0.961 . S
C871 H887 0.961 . S
C872 C873 1.370 . S
C872 C874 1.363 . S
C872 H888 0.931 . S
C873 C872 1.370 . S
C873 C877 1.408 . S
C874 C872 1.363 . S
C874 C875 1.370 . S
C874 C878 1.524 . S
C875 C867 1.503 . S
C875 C874 1.370 . S
C875 C876 1.403 . S
C876 C875 1.403 . S
C876 C877 1.404 . S
C876 C879 1.539 . S
C877 C873 1.408 . S
C877 C876 1.404 . S
C877 H889 0.930 . S
C878 C874 1.524 . S
C878 H890 0.956 . S
C878 H891 0.961 . S
C878 H892 0.961 . S
C879 C876 1.539 . S
C879 H893 0.958 . S
C879 H894 0.961 . S
C879 H895 0.960 . S
H880 C864 0.931 . S
H881 C869 0.929 . S
H882 C870 0.960 . S
H883 C870 0.962 . S
H884 C870 0.960 . S
H885 C871 0.961 . S
H886 C871 0.961 . S
H887 C871 0.961 . S
H888 C872 0.931 . S
H889 C877 0.930 . S
H890 C878 0.956 . S
H891 C878 0.961 . S
H892 C878 0.961 . S
H893 C879 0.958 . S
H894 C879 0.961 . S
H895 C879 0.960 . S
C896 C897 1.391 . S
C896 C898 1.394 . S
C896 H912 0.931 . S
C897 C896 1.391 . S
C897 C901 1.376 . S
C898 C896 1.394 . S
C898 C899 1.369 . S
C898 C902 1.531 . S
C899 C898 1.369 . S
C899 C900 1.410 . S
C899 C907 1.503 . S
C900 C899 1.410 . S
C900 C901 1.392 . S
C900 C903 1.511 . S
C901 C897 1.376 . S
C901 C900 1.392 . S
C901 H913 0.929 . S
C902 C898 1.531 . S
C902 H914 0.960 . S
C902 H915 0.962 . S
C902 H916 0.960 . S
C903 C900 1.511 . S
C903 H917 0.961 . S
C903 H918 0.961 . S
C903 H919 0.961 . S
C904 C905 1.370 . S
C904 C906 1.363 . S
C904 H920 0.931 . S
C905 C904 1.370 . S
C905 C909 1.408 . S
C906 C904 1.363 . S
C906 C907 1.370 . S
C906 C910 1.524 . S
C907 C899 1.503 . S
C907 C906 1.370 . S
C907 C908 1.403 . S
C908 C907 1.403 . S
C908 C909 1.404 . S
C908 C911 1.539 . S
C909 C905 1.408 . S
C909 C908 1.404 . S
C909 H921 0.930 . S
C910 C906 1.524 . S
C910 H922 0.956 . S
C910 H923 0.961 . S
C910 H924 0.961 . S
C911 C908 1.539 . S
C911 H925 0.958 . S
C911 H926 0.961 . S
C911 H927 0.960 . S
H912 C896 0.931 . S
H913 C901 0.929 . S
H914 C902 0.960 . S
H915 C902 0.962 . S
H916 C902 0.960 . S
H917 C903 0.961 . S
H918 C903 0.961 . S
H919 C903 0.961 . S
H920 C904 0.931 . S
H921 C909 0.930 . S
H922 C910 0.956 . S
H923 C910 0.961 . S
H924 C910 0.961 . S
H925 C911 0.958 . S
H926 C911 0.961 . S
H927 C911 0.960 . S
C928 C929 1.391 . S
C928 C930 1.394 . S
C928 H944 0.931 . S
C929 C928 1.391 . S
C929 C933 1.376 . S
C930 C928 1.394 . S
C930 C931 1.369 . S
C930 C934 1.531 . S
C931 C930 1.369 . S
C931 C932 1.410 . S
C931 C939 1.503 . S
C932 C931 1.410 . S
C932 C933 1.392 . S
C932 C935 1.511 . S
C933 C929 1.376 . S
C933 C932 1.392 . S
C933 H945 0.929 . S
C934 C930 1.531 . S
C934 H946 0.960 . S
C934 H947 0.962 . S
C934 H948 0.960 . S
C935 C932 1.511 . S
C935 H949 0.961 . S
C935 H950 0.961 . S
C935 H951 0.961 . S
C936 C937 1.370 . S
C936 C938 1.363 . S
C936 H952 0.931 . S
C937 C936 1.370 . S
C937 C941 1.408 . S
C938 C936 1.363 . S
C938 C939 1.370 . S
C938 C942 1.524 . S
C939 C931 1.503 . S
C939 C938 1.370 . S
C939 C940 1.403 . S
C940 C939 1.403 . S
C940 C941 1.404 . S
C940 C943 1.539 . S
C941 C937 1.408 . S
C941 C940 1.404 . S
C941 H953 0.930 . S
C942 C938 1.524 . S
C942 H954 0.956 . S
C942 H955 0.961 . S
C942 H956 0.961 . S
C943 C940 1.539 . S
C943 H957 0.958 . S
C943 H958 0.961 . S
C943 H959 0.960 . S
H944 C928 0.931 . S
H945 C933 0.929 . S
H946 C934 0.960 . S
H947 C934 0.962 . S
H948 C934 0.960 . S
H949 C935 0.961 . S
H950 C935 0.961 . S
H951 C935 0.961 . S
H952 C936 0.931 . S
H953 C941 0.930 . S
H954 C942 0.956 . S
H955 C942 0.961 . S
H956 C942 0.961 . S
H957 C943 0.958 . S
H958 C943 0.961 . S
H959 C943 0.960 . S
C960 C961 1.391 . S
C960 C962 1.394 . S
C960 H976 0.931 . S
C961 C960 1.391 . S
C961 C965 1.376 . S
C962 C960 1.394 . S
C962 C963 1.369 . S
C962 C966 1.531 . S
C963 C962 1.369 . S
C963 C964 1.410 . S
C963 C971 1.503 . S
C964 C963 1.410 . S
C964 C965 1.392 . S
C964 C967 1.511 . S
C965 C961 1.376 . S
C965 C964 1.392 . S
C965 H977 0.929 . S
C966 C962 1.531 . S
C966 H978 0.960 . S
C966 H979 0.962 . S
C966 H980 0.960 . S
C967 C964 1.511 . S
C967 H981 0.961 . S
C967 H982 0.961 . S
C967 H983 0.961 . S
C968 C969 1.370 . S
C968 C970 1.363 . S
C968 H984 0.931 . S
C969 C968 1.370 . S
C969 C973 1.408 . S
C970 C968 1.363 . S
C970 C971 1.370 . S
C970 C974 1.524 . S
C971 C963 1.503 . S
C971 C970 1.370 . S
C971 C972 1.403 . S
C972 C971 1.403 . S
C972 C973 1.404 . S
C972 C975 1.539 . S
C973 C969 1.408 . S
C973 C972 1.404 . S
C973 H985 0.930 . S
C974 C970 1.524 . S
C974 H986 0.956 . S
C974 H987 0.961 . S
C974 H988 0.961 . S
C975 C972 1.539 . S
C975 H989 0.958 . S
C975 H990 0.961 . S
C975 H991 0.960 . S
H976 C960 0.931 . S
H977 C965 0.929 . S
H978 C966 0.960 . S
H979 C966 0.962 . S
H980 C966 0.960 . S
H981 C967 0.961 . S
H982 C967 0.961 . S
H983 C967 0.961 . S
H984 C968 0.931 . S
H985 C973 0.930 . S
H986 C974 0.956 . S
H987 C974 0.961 . S
H988 C974 0.961 . S
H989 C975 0.958 . S
H990 C975 0.961 . S
H991 C975 0.960 . S
C992 C993 1.391 . S
C992 C994 1.394 . S
C992 H1008 0.931 . S
C993 C992 1.391 . S
C993 C997 1.376 . S
C994 C992 1.394 . S
C994 C995 1.369 . S
C994 C998 1.531 . S
C995 C994 1.369 . S
C995 C996 1.410 . S
C995 C1003 1.503 . S
C996 C995 1.410 . S
C996 C997 1.392 . S
C996 C999 1.511 . S
C997 C993 1.376 . S
C997 C996 1.392 . S
C997 H1009 0.929 . S
C998 C994 1.531 . S
C998 H1010 0.960 . S
C998 H1011 0.962 . S
C998 H1012 0.960 . S
C999 C996 1.511 . S
C999 H1013 0.961 . S
C999 H1014 0.961 . S
C999 H1015 0.961 . S
C1000 C1001 1.370 . S
C1000 C1002 1.363 . S
C1000 H1016 0.931 . S
C1001 C1000 1.370 . S
C1001 C1005 1.408 . S
C1002 C1000 1.363 . S
C1002 C1003 1.370 . S
C1002 C1006 1.524 . S
C1003 C995 1.503 . S
C1003 C1002 1.370 . S
C1003 C1004 1.403 . S
C1004 C1003 1.403 . S
C1004 C1005 1.404 . S
C1004 C1007 1.539 . S
C1005 C1001 1.408 . S
C1005 C1004 1.404 . S
C1005 H1017 0.930 . S
C1006 C1002 1.524 . S
C1006 H1018 0.956 . S
C1006 H1019 0.961 . S
C1006 H1020 0.961 . S
C1007 C1004 1.539 . S
C1007 H1021 0.958 . S
C1007 H1022 0.961 . S
C1007 H1023 0.960 . S
H1008 C992 0.931 . S
H1009 C997 0.929 . S
H1010 C998 0.960 . S
H1011 C998 0.962 . S
H1012 C998 0.960 . S
H1013 C999 0.961 . S
H1014 C999 0.961 . S
H1015 C999 0.961 . S
H1016 C1000 0.931 . S
H1017 C1005 0.930 . S
H1018 C1006 0.956 . S
H1019 C1006 0.961 . S
H1020 C1006 0.961 . S
H1021 C1007 0.958 . S
H1022 C1007 0.961 . S
H1023 C1007 0.960 . S
C1024 C1025 1.391 . S
C1024 C1026 1.394 . S
C1024 H1040 0.931 . S
C1025 C1024 1.391 . S
C1025 C1029 1.376 . S
C1026 C1024 1.394 . S
C1026 C1027 1.369 . S
C1026 C1030 1.531 . S
C1027 C1026 1.369 . S
C1027 C1028 1.410 . S
C1027 C1035 1.503 . S
C1028 C1027 1.410 . S
C1028 C1029 1.392 . S
C1028 C1031 1.511 . S
C1029 C1025 1.376 . S
C1029 C1028 1.392 . S
C1029 H1041 0.929 . S
C1030 C1026 1.531 . S
C1030 H1042 0.960 . S
C1030 H1043 0.962 . S
C1030 H1044 0.960 . S
C1031 C1028 1.511 . S
C1031 H1045 0.961 . S
C1031 H1046 0.961 . S
C1031 H1047 0.961 . S
C1032 C1033 1.370 . S
C1032 C1034 1.363 . S
C1032 H1048 0.931 . S
C1033 C1032 1.370 . S
C1033 C1037 1.408 . S
C1034 C1032 1.363 . S
C1034 C1035 1.370 . S
C1034 C1038 1.524 . S
C1035 C1027 1.503 . S
C1035 C1034 1.370 . S
C1035 C1036 1.403 . S
C1036 C1035 1.403 . S
C1036 C1037 1.404 . S
C1036 C1039 1.539 . S
C1037 C1033 1.408 . S
C1037 C1036 1.404 . S
C1037 H1049 0.930 . S
C1038 C1034 1.524 . S
C1038 H1050 0.956 . S
C1038 H1051 0.961 . S
C1038 H1052 0.961 . S
C1039 C1036 1.539 . S
C1039 H1053 0.958 . S
C1039 H1054 0.961 . S
C1039 H1055 0.960 . S
H1040 C1024 0.931 . S
H1041 C1029 0.929 . S
H1042 C1030 0.960 . S
H1043 C1030 0.962 . S
H1044 C1030 0.960 . S
H1045 C1031 0.961 . S
H1046 C1031 0.961 . S
H1047 C1031 0.961 . S
H1048 C1032 0.931 . S
H1049 C1037 0.930 . S
H1050 C1038 0.956 . S
H1051 C1038 0.961 . S
H1052 C1038 0.961 . S
H1053 C1039 0.958 . S
H1054 C1039 0.961 . S
H1055 C1039 0.960 . S
C1056 C1057 1.391 . S
C1056 C1058 1.394 . S
C1056 H1072 0.931 . S
C1057 C1056 1.391 . S
C1057 C1061 1.376 . S
C1058 C1056 1.394 . S
C1058 C1059 1.369 . S
C1058 C1062 1.531 . S
C1059 C1058 1.369 . S
C1059 C1060 1.410 . S
C1059 C1067 1.503 . S
C1060 C1059 1.410 . S
C1060 C1061 1.392 . S
C1060 C1063 1.511 . S
C1061 C1057 1.376 . S
C1061 C1060 1.392 . S
C1061 H1073 0.929 . S
C1062 C1058 1.531 . S
C1062 H1074 0.960 . S
C1062 H1075 0.962 . S
C1062 H1076 0.960 . S
C1063 C1060 1.511 . S
C1063 H1077 0.961 . S
C1063 H1078 0.961 . S
C1063 H1079 0.961 . S
C1064 C1065 1.370 . S
C1064 C1066 1.363 . S
C1064 H1080 0.931 . S
C1065 C1064 1.370 . S
C1065 C1069 1.408 . S
C1066 C1064 1.363 . S
C1066 C1067 1.370 . S
C1066 C1070 1.524 . S
C1067 C1059 1.503 . S
C1067 C1066 1.370 . S
C1067 C1068 1.403 . S
C1068 C1067 1.403 . S
C1068 C1069 1.404 . S
C1068 C1071 1.539 . S
C1069 C1065 1.408 . S
C1069 C1068 1.404 . S
C1069 H1081 0.930 . S
C1070 C1066 1.524 . S
C1070 H1082 0.956 . S
C1070 H1083 0.961 . S
C1070 H1084 0.961 . S
C1071 C1068 1.539 . S
C1071 H1085 0.958 . S
C1071 H1086 0.961 . S
C1071 H1087 0.960 . S
H1072 C1056 0.931 . S
H1073 C1061 0.929 . S
H1074 C1062 0.960 . S
H1075 C1062 0.962 . S
H1076 C1062 0.960 . S
H1077 C1063 0.961 . S
H1078 C1063 0.961 . S
H1079 C1063 0.961 . S
H1080 C1064 0.931 . S
H1081 C1069 0.930 . S
H1082 C1070 0.956 . S
H1083 C1070 0.961 . S
H1084 C1070 0.961 . S
H1085 C1071 0.958 . S
H1086 C1071 0.961 . S
H1087 C1071 0.960 . S
C1088 C1089 1.391 . S
C1088 C1090 1.394 . S
C1088 H1104 0.931 . S
C1089 C1088 1.391 . S
C1089 C1093 1.376 . S
C1090 C1088 1.394 . S
C1090 C1091 1.369 . S
C1090 C1094 1.531 . S
C1091 C1090 1.369 . S
C1091 C1092 1.410 . S
C1091 C1099 1.503 . S
C1092 C1091 1.410 . S
C1092 C1093 1.392 . S
C1092 C1095 1.511 . S
C1093 C1089 1.376 . S
C1093 C1092 1.392 . S
C1093 H1105 0.929 . S
C1094 C1090 1.531 . S
C1094 H1106 0.960 . S
C1094 H1107 0.962 . S
C1094 H1108 0.960 . S
C1095 C1092 1.511 . S
C1095 H1109 0.961 . S
C1095 H1110 0.961 . S
C1095 H1111 0.961 . S
C1096 C1097 1.370 . S
C1096 C1098 1.363 . S
C1096 H1112 0.931 . S
C1097 C1096 1.370 . S
C1097 C1101 1.408 . S
C1098 C1096 1.363 . S
C1098 C1099 1.370 . S
C1098 C1102 1.524 . S
C1099 C1091 1.503 . S
C1099 C1098 1.370 . S
C1099 C1100 1.403 . S
C1100 C1099 1.403 . S
C1100 C1101 1.404 . S
C1100 C1103 1.539 . S
C1101 C1097 1.408 . S
C1101 C1100 1.404 . S
C1101 H1113 0.930 . S
C1102 C1098 1.524 . S
C1102 H1114 0.956 . S
C1102 H1115 0.961 . S
C1102 H1116 0.961 . S
C1103 C1100 1.539 . S
C1103 H1117 0.958 . S
C1103 H1118 0.961 . S
C1103 H1119 0.960 . S
H1104 C1088 0.931 . S
H1105 C1093 0.929 . S
H1106 C1094 0.960 . S
H1107 C1094 0.962 . S
H1108 C1094 0.960 . S
H1109 C1095 0.961 . S
H1110 C1095 0.961 . S
H1111 C1095 0.961 . S
H1112 C1096 0.931 . S
H1113 C1101 0.930 . S
H1114 C1102 0.956 . S
H1115 C1102 0.961 . S
H1116 C1102 0.961 . S
H1117 C1103 0.958 . S
H1118 C1103 0.961 . S
H1119 C1103 0.960 . S
C1120 C1121 1.391 . S
C1120 C1122 1.394 . S
C1120 H1136 0.931 . S
C1121 C1120 1.391 . S
C1121 C1125 1.376 . S
C1122 C1120 1.394 . S
C1122 C1123 1.369 . S
C1122 C1126 1.531 . S
C1123 C1122 1.369 . S
C1123 C1124 1.410 . S
C1123 C1131 1.503 . S
C1124 C1123 1.410 . S
C1124 C1125 1.392 . S
C1124 C1127 1.511 . S
C1125 C1121 1.376 . S
C1125 C1124 1.392 . S
C1125 H1137 0.929 . S
C1126 C1122 1.531 . S
C1126 H1138 0.960 . S
C1126 H1139 0.962 . S
C1126 H1140 0.960 . S
C1127 C1124 1.511 . S
C1127 H1141 0.961 . S
C1127 H1142 0.961 . S
C1127 H1143 0.961 . S
C1128 C1129 1.370 . S
C1128 C1130 1.363 . S
C1128 H1144 0.931 . S
C1129 C1128 1.370 . S
C1129 C1133 1.408 . S
C1130 C1128 1.363 . S
C1130 C1131 1.370 . S
C1130 C1134 1.524 . S
C1131 C1123 1.503 . S
C1131 C1130 1.370 . S
C1131 C1132 1.403 . S
C1132 C1131 1.403 . S
C1132 C1133 1.404 . S
C1132 C1135 1.539 . S
C1133 C1129 1.408 . S
C1133 C1132 1.404 . S
C1133 H1145 0.930 . S
C1134 C1130 1.524 . S
C1134 H1146 0.956 . S
C1134 H1147 0.961 . S
C1134 H1148 0.961 . S
C1135 C1132 1.539 . S
C1135 H1149 0.958 . S
C1135 H1150 0.961 . S
C1135 H1151 0.960 . S
H1136 C1120 0.931 . S
H1137 C1125 0.929 . S
H1138 C1126 0.960 . S
H1139 C1126 0.962 . S
H1140 C1126 0.960 . S
H1141 C1127 0.961 . S
H1142 C1127 0.961 . S
H1143 C1127 0.961 . S
H1144 C1128 0.931 . S
H1145 C1133 0.930 . S
H1146 C1134 0.956 . S
H1147 C1134 0.961 . S
H1148 C1134 0.961 . S
H1149 C1135 0.958 . S
H1150 C1135 0.961 . S
H1151 C1135 0.960 . S
C1152 C1153 1.391 . S
C1152 C1154 1.394 . S
C1152 H1168 0.931 . S
C1153 C1152 1.391 . S
C1153 C1157 1.376 . S
C1154 C1152 1.394 . S
C1154 C1155 1.369 . S
C1154 C1158 1.531 . S
C1155 C1154 1.369 . S
C1155 C1156 1.410 . S
C1155 C1163 1.503 . S
C1156 C1155 1.410 . S
C1156 C1157 1.392 . S
C1156 C1159 1.511 . S
C1157 C1153 1.376 . S
C1157 C1156 1.392 . S
C1157 H1169 0.929 . S
C1158 C1154 1.531 . S
C1158 H1170 0.960 . S
C1158 H1171 0.962 . S
C1158 H1172 0.960 . S
C1159 C1156 1.511 . S
C1159 H1173 0.961 . S
C1159 H1174 0.961 . S
C1159 H1175 0.961 . S
C1160 C1161 1.370 . S
C1160 C1162 1.363 . S
C1160 H1176 0.931 . S
C1161 C1160 1.370 . S
C1161 C1165 1.408 . S
C1162 C1160 1.363 . S
C1162 C1163 1.370 . S
C1162 C1166 1.524 . S
C1163 C1155 1.503 . S
C1163 C1162 1.370 . S
C1163 C1164 1.403 . S
C1164 C1163 1.403 . S
C1164 C1165 1.404 . S
C1164 C1167 1.539 . S
C1165 C1161 1.408 . S
C1165 C1164 1.404 . S
C1165 H1177 0.930 . S
C1166 C1162 1.524 . S
C1166 H1178 0.956 . S
C1166 H1179 0.961 . S
C1166 H1180 0.961 . S
C1167 C1164 1.539 . S
C1167 H1181 0.958 . S
C1167 H1182 0.961 . S
C1167 H1183 0.960 . S
H1168 C1152 0.931 . S
H1169 C1157 0.929 . S
H1170 C1158 0.960 . S
H1171 C1158 0.962 . S
H1172 C1158 0.960 . S
H1173 C1159 0.961 . S
H1174 C1159 0.961 . S
H1175 C1159 0.961 . S
H1176 C1160 0.931 . S
H1177 C1165 0.930 . S
H1178 C1166 0.956 . S
H1179 C1166 0.961 . S
H1180 C1166 0.961 . S
H1181 C1167 0.958 . S
H1182 C1167 0.961 . S
H1183 C1167 0.960 . S
C1184 C1185 1.391 . S
C1184 C1186 1.394 . S
C1184 H1200 0.931 . S
C1185 C1184 1.391 . S
C1185 C1189 1.376 . S
C1186 C1184 1.394 . S
C1186 C1187 1.369 . S
C1186 C1190 1.531 . S
C1187 C1186 1.369 . S
C1187 C1188 1.410 . S
C1187 C1195 1.503 . S
C1188 C1187 1.410 . S
C1188 C1189 1.392 . S
C1188 C1191 1.511 . S
C1189 C1185 1.376 . S
C1189 C1188 1.392 . S
C1189 H1201 0.929 . S
C1190 C1186 1.531 . S
C1190 H1202 0.960 . S
C1190 H1203 0.962 . S
C1190 H1204 0.960 . S
C1191 C1188 1.511 . S
C1191 H1205 0.961 . S
C1191 H1206 0.961 . S
C1191 H1207 0.961 . S
C1192 C1193 1.370 . S
C1192 C1194 1.363 . S
C1192 H1208 0.931 . S
C1193 C1192 1.370 . S
C1193 C1197 1.408 . S
C1194 C1192 1.363 . S
C1194 C1195 1.370 . S
C1194 C1198 1.524 . S
C1195 C1187 1.503 . S
C1195 C1194 1.370 . S
C1195 C1196 1.403 . S
C1196 C1195 1.403 . S
C1196 C1197 1.404 . S
C1196 C1199 1.539 . S
C1197 C1193 1.408 . S
C1197 C1196 1.404 . S
C1197 H1209 0.930 . S
C1198 C1194 1.524 . S
C1198 H1210 0.956 . S
C1198 H1211 0.961 . S
C1198 H1212 0.961 . S
C1199 C1196 1.539 . S
C1199 H1213 0.958 . S
C1199 H1214 0.961 . S
C1199 H1215 0.960 . S
H1200 C1184 0.931 . S
H1201 C1189 0.929 . S
H1202 C1190 0.960 . S
H1203 C1190 0.962 . S
H1204 C1190 0.960 . S
H1205 C1191 0.961 . S
H1206 C1191 0.961 . S
H1207 C1191 0.961 . S
H1208 C1192 0.931 . S
H1209 C1197 0.930 . S
H1210 C1198 0.956 . S
H1211 C1198 0.961 . S
H1212 C1198 0.961 . S
H1213 C1199 0.958 . S
H1214 C1199 0.961 . S
H1215 C1199 0.960 . S
C1216 C1217 1.391 . S
C1216 C1218 1.394 . S
C1216 H1232 0.931 . S
C1217 C1216 1.391 . S
C1217 C1221 1.376 . S
C1218 C1216 1.394 . S
C1218 C1219 1.369 . S
C1218 C1222 1.531 . S
C1219 C1218 1.369 . S
C1219 C1220 1.410 . S
C1219 C1227 1.503 . S
C1220 C1219 1.410 . S
C1220 C1221 1.392 . S
C1220 C1223 1.511 . S
C1221 C1217 1.376 . S
C1221 C1220 1.392 . S
C1221 H1233 0.929 . S
C1222 C1218 1.531 . S
C1222 H1234 0.960 . S
C1222 H1235 0.962 . S
C1222 H1236 0.960 . S
C1223 C1220 1.511 . S
C1223 H1237 0.961 . S
C1223 H1238 0.961 . S
C1223 H1239 0.961 . S
C1224 C1225 1.370 . S
C1224 C1226 1.363 . S
C1224 H1240 0.931 . S
C1225 C1224 1.370 . S
C1225 C1229 1.408 . S
C1226 C1224 1.363 . S
C1226 C1227 1.370 . S
C1226 C1230 1.524 . S
C1227 C1219 1.503 . S
C1227 C1226 1.370 . S
C1227 C1228 1.403 . S
C1228 C1227 1.403 . S
C1228 C1229 1.404 . S
C1228 C1231 1.539 . S
C1229 C1225 1.408 . S
C1229 C1228 1.404 . S
C1229 H1241 0.930 . S
C1230 C1226 1.524 . S
C1230 H1242 0.956 . S
C1230 H1243 0.961 . S
C1230 H1244 0.961 . S
C1231 C1228 1.539 . S
C1231 H1245 0.958 . S
C1231 H1246 0.961 . S
C1231 H1247 0.960 . S
H1232 C1216 0.931 . S
H1233 C1221 0.929 . S
H1234 C1222 0.960 . S
H1235 C1222 0.962 . S
H1236 C1222 0.960 . S
H1237 C1223 0.961 . S
H1238 C1223 0.961 . S
H1239 C1223 0.961 . S
H1240 C1224 0.931 . S
H1241 C1229 0.930 . S
H1242 C1230 0.956 . S
H1243 C1230 0.961 . S
H1244 C1230 0.961 . S
H1245 C1231 0.958 . S
H1246 C1231 0.961 . S
H1247 C1231 0.960 . S
C225 C62 1.571 . S
C233 C6 1.566 . S
C257 C76 1.567 . S
C265 C20 1.561 . S
C289 C90 1.568 . S
C297 C34 1.565 . S
C321 C104 1.543 . S
C329 C48 1.556 . S
C353 C174 1.546 . S
C361 C118 1.552 . S
C385 C188 1.551 . S
C393 C132 1.554 . S
C417 C146 1.572 . S
C425 C202 1.566 . S
C449 C216 1.573 . S
C457 C160 1.565 . S
C481 C9 1.497 . S
C489 C79 1.529 . S
C513 C93 1.533 1_556 S
C521 C23 1.513 . S
C545 C37 1.496 . S
C553 C107 1.515 . S
C577 C65 1.540 1_556 S
C585 C51 1.519 . S
C609 C191 1.499 . S
C617 C121 1.527 . S
C641 C205 1.502 . S
C649 C135 1.528 . S
C673 C149 1.493 . S
C681 C219 1.523 . S
C705 C163 1.505 . S
C713 C177 1.529 . S
C737 C218 1.935 . S
C745 C8 1.960 . S
C769 C176 1.937 . S
C777 C22 1.959 . S
C801 C190 1.940 . S
C809 C36 1.957 . S
C833 C204 1.951 . S
C841 C50 1.954 . S
C865 C134 1.936 . S
C873 C64 1.960 . S
C897 C148 1.946 . S
C905 C78 1.956 . S
C929 C92 1.950 . S
C937 C162 1.954 . S
C961 C106 1.938 . S
C969 C120 1.959 . S
C993 C189 1.005 . S
C1001 C35 1.000 . S
C1025 C203 0.981 . S
C1033 C49 1.016 . S
C1057 C217 1.025 . S
C1065 C7 0.996 . S
C1089 C21 1.007 . S
C1097 C175 1.011 . S
C1121 C161 1.012 . S
C1129 C91 1.009 . S
C1153 C105 0.992 . S
C1161 C119 1.005 . S
C1185 C133 1.007 . S
C1193 C63 1.011 . S
C1217 C147 1.028 . S
C1225 C77 0.997 . S
