# Generated by pormake.
# Topology yfg, (5)-cn, num edge types: 1
# Building blocks:
#     Node 0, Type 0, BuildingBlock: XOMCOT_clean_sbu_0, # of connection points: 5
#     Node 1, Type 0, BuildingBlock: XOMCOT_clean_sbu_0, # of connection points: 5
#     Node 2, Type 0, BuildingBlock: XOMCOT_clean_sbu_0, # of connection points: 5
#     Node 3, Type 0, BuildingBlock: XOMCOT_clean_sbu_0, # of connection points: 5
#     Node 4, Type 0, BuildingBlock: XOMCOT_clean_sbu_0, # of connection points: 5
#     Node 5, Type 0, BuildingBlock: XOMCOT_clean_sbu_0, # of connection points: 5
#     Node 6, Type 0, BuildingBlock: XOMCOT_clean_sbu_0, # of connection points: 5
#     Node 7, Type 0, BuildingBlock: XOMCOT_clean_sbu_0, # of connection points: 5
#     Edge 8, Type (0, 0), BuildingBlock: XUDNAN_clean_linker_2, # of connection points: 2
#     Edge 9, Type (0, 0), BuildingBlock: XUDNAN_clean_linker_2, # of connection points: 2
#     Edge 10, Type (0, 0), BuildingBlock: XUDNAN_clean_linker_2, # of connection points: 2
#     Edge 11, Type (0, 0), BuildingBlock: XUDNAN_clean_linker_2, # of connection points: 2
#     Edge 12, Type (0, 0), BuildingBlock: XUDNAN_clean_linker_2, # of connection points: 2
#     Edge 13, Type (0, 0), BuildingBlock: XUDNAN_clean_linker_2, # of connection points: 2
#     Edge 14, Type (0, 0), BuildingBlock: XUDNAN_clean_linker_2, # of connection points: 2
#     Edge 15, Type (0, 0), BuildingBlock: XUDNAN_clean_linker_2, # of connection points: 2
#     Edge 16, Type (0, 0), BuildingBlock: XUDNAN_clean_linker_2, # of connection points: 2
#     Edge 17, Type (0, 0), BuildingBlock: XUDNAN_clean_linker_2, # of connection points: 2
#     Edge 18, Type (0, 0), BuildingBlock: XUDNAN_clean_linker_2, # of connection points: 2
#     Edge 19, Type (0, 0), BuildingBlock: XUDNAN_clean_linker_2, # of connection points: 2
#     Edge 20, Type (0, 0), BuildingBlock: XUDNAN_clean_linker_2, # of connection points: 2
#     Edge 21, Type (0, 0), BuildingBlock: XUDNAN_clean_linker_2, # of connection points: 2
#     Edge 22, Type (0, 0), BuildingBlock: XUDNAN_clean_linker_2, # of connection points: 2
#     Edge 23, Type (0, 0), BuildingBlock: XUDNAN_clean_linker_2, # of connection points: 2
#     Edge 24, Type (0, 0), BuildingBlock: XUDNAN_clean_linker_2, # of connection points: 2
#     Edge 25, Type (0, 0), BuildingBlock: XUDNAN_clean_linker_2, # of connection points: 2
#     Edge 26, Type (0, 0), BuildingBlock: XUDNAN_clean_linker_2, # of connection points: 2
#     Edge 27, Type (0, 0), BuildingBlock: XUDNAN_clean_linker_2, # of connection points: 2
# Relax obj value: 0.351
# Max RMSD: 0.194
# Mean RMSD: 0.194
data_MOF--net-yfg--node1-XOMCOT_clean_sbu_0--edge1-XUDNAN_clean_linker_2
_symmetry_space_group_name_H-M    P1
_symmetry_Int_Tables_number       1
_symmetry_cell_setting            triclinic
loop_
_symmetry_equiv_pos_as_xyz
'x, y, z'
_cell_length_a     34.617195
_cell_length_b     34.719898
_cell_length_c     43.023053
_cell_angle_alpha  90.002424
_cell_angle_beta   89.869089
_cell_angle_gamma 90.015835
loop_
_atom_site_label
_atom_site_type_symbol
_atom_site_fract_x
_atom_site_fract_y
_atom_site_fract_z
_atom_type_partial_charge
Co0 Co 0.26891 0.52672 0.05408 0.0
C1 C 0.298 0.5706 0.99917 0.0
C2 C 0.31154 0.51057 0.99551 0.0
C3 C 0.32553 0.52922 0.96946 0.0
N4 N 0.29444 0.53655 0.01432 0.0
N5 N 0.31688 0.567 0.97174 0.0
H6 H 0.28708 0.59765 0.00793 0.0
H7 H 0.31324 0.48005 0.99998 0.0
C8 C 0.31526 0.44745 0.06017 0.0
O9 O 0.29834 0.42406 0.04045 0.0
N10 N 0.24398 0.51747 0.09365 0.0
C11 C 0.2062 0.52121 0.10042 0.0
C12 C 0.20134 0.51641 0.13194 0.0
C13 C 0.26164 0.51106 0.12104 0.0
N14 N 0.23631 0.51028 0.145 0.0
C15 C 0.20755 0.516 0.01192 0.0
C16 C 0.17996 0.44804 0.03721 0.0
C17 C 0.15605 0.46942 0.01739 0.0
C18 C 0.17086 0.50291 1.0037 0.0
C19 C 0.21648 0.46248 0.04519 0.0
N20 N 0.22905 0.49689 0.03349 0.0
H21 H 0.21727 0.54348 1.00307 0.0
H22 H 0.23268 0.44813 0.06321 0.0
H23 H 0.18389 0.52792 0.08371 0.0
H24 H 0.29262 0.50924 0.12343 0.0
O25 O 0.24426 0.57721 0.05344 0.0
O26 O 0.30156 0.5632 0.07387 0.0
O27 O 0.3039 0.48215 0.06335 0.0
C28 C 0.27424 0.58817 0.06951 0.0
H29 H 0.34005 0.51577 0.94997 0.0
H30 H 0.17407 0.51792 0.14417 0.0
H31 H 0.1693 0.42221 0.04846 0.0
H32 H 0.15328 0.52007 0.98817 0.0
Co33 Co 0.5184 0.26785 0.29255 0.0
C34 C 0.48646 0.31347 0.23952 0.0
C35 C 0.52934 0.27327 0.22414 0.0
C36 C 0.51348 0.29079 0.1984 0.0
N37 N 0.51206 0.287 0.25009 0.0
N38 N 0.48661 0.316 0.20818 0.0
H39 H 0.46721 0.33001 0.25415 0.0
H40 H 0.55159 0.25152 0.22357 0.0
C41 C 0.59717 0.2843 0.31611 0.0
O42 O 0.59949 0.25074 0.33009 0.0
N43 N 0.52325 0.24824 0.33491 0.0
C44 C 0.52413 0.21108 0.34417 0.0
C45 C 0.52253 0.20969 0.37598 0.0
C46 C 0.52104 0.26885 0.36157 0.0
N47 N 0.52008 0.24598 0.38694 0.0
C48 C 0.50381 0.19159 0.27042 0.0
C49 C 0.5797 0.1678 0.26542 0.0
C50 C 0.5503 0.14014 0.26255 0.0
C51 C 0.51185 0.15293 0.26419 0.0
C52 C 0.57041 0.20615 0.27215 0.0
N53 N 0.53283 0.21728 0.27609 0.0
H54 H 0.47401 0.20023 0.27255 0.0
H55 H 0.59368 0.2265 0.27423 0.0
H56 H 0.52527 0.18617 0.32928 0.0
H57 H 0.51875 0.29989 0.36235 0.0
O58 O 0.46261 0.26127 0.29718 0.0
O59 O 0.49583 0.31383 0.30865 0.0
O60 O 0.57302 0.28903 0.29385 0.0
C61 C 0.4631 0.29568 0.30934 0.0
H62 H 0.52126 0.28566 0.17437 0.0
H63 H 0.52283 0.18372 0.38986 0.0
H64 H 0.60981 0.15993 0.26295 0.0
H65 H 0.48787 0.13308 0.26225 0.0
Co66 Co 0.7335 0.49992 0.5499 0.0
C67 C 0.69813 0.47122 0.491 0.0
C68 C 0.69302 0.53251 0.4951 0.0
C69 C 0.67749 0.52126 0.46707 0.0
N70 N 0.70612 0.50117 0.51021 0.0
N71 N 0.68091 0.48264 0.46429 0.0
H72 H 0.70628 0.44181 0.49583 0.0
H73 H 0.69518 0.56176 0.50334 0.0
C74 C 0.71436 0.58606 0.56179 0.0
O75 O 0.74184 0.6004 0.54418 0.0
N76 N 0.75937 0.4978 0.58973 0.0
C77 C 0.79277 0.47954 0.59605 0.0
C78 C 0.79768 0.47859 0.62776 0.0
C79 C 0.74416 0.50726 0.61759 0.0
N80 N 0.76699 0.49582 0.6413 0.0
C81 C 0.79159 0.50796 0.50338 0.0
C82 C 0.84362 0.54807 0.53973 0.0
C83 C 0.85716 0.52881 0.51317 0.0
C84 C 0.82986 0.51131 0.49373 0.0
C85 C 0.80445 0.54523 0.54806 0.0
N86 N 0.77949 0.52307 0.53103 0.0
H87 H 0.77293 0.48969 0.48989 0.0
H88 H 0.79534 0.55745 0.57 0.0
H89 H 0.81136 0.46632 0.57885 0.0
H90 H 0.71618 0.52068 0.62041 0.0
O91 O 0.74709 0.44611 0.54403 0.0
O92 O 0.69397 0.46811 0.56711 0.0
O93 O 0.70885 0.54979 0.56338 0.0
C94 C 0.7159 0.43897 0.5601 0.0
H95 H 0.66488 0.54039 0.45006 0.0
H96 H 0.82106 0.46445 0.63989 0.0
H97 H 0.86347 0.56226 0.55542 0.0
H98 H 0.83858 0.49714 0.47241 0.0
Co99 Co 0.50435 0.74957 0.79948 0.0
C100 C 0.54073 0.72528 0.74015 0.0
C101 C 0.48993 0.69216 0.75054 0.0
C102 C 0.50721 0.67705 0.72436 0.0
N103 N 0.51093 0.72238 0.76047 0.0
N104 N 0.5393 0.69769 0.7179 0.0
H105 H 0.56405 0.7458 0.74261 0.0
H106 H 0.46474 0.68071 0.76222 0.0
C107 C 0.42157 0.7484 0.81838 0.0
O108 O 0.42254 0.78551 0.82429 0.0
N109 N 0.49856 0.7761 0.83918 0.0
C110 C 0.50277 0.81381 0.84615 0.0
C111 C 0.49853 0.81862 0.87767 0.0
C112 C 0.49178 0.75869 0.86676 0.0
N113 N 0.49178 0.78392 0.8906 0.0
C114 C 0.52334 0.82316 0.77378 0.0
C115 C 0.45102 0.84114 0.75097 0.0
C116 C 0.47941 0.86994 0.75195 0.0
C117 C 0.51636 0.86013 0.76241 0.0
C118 C 0.45912 0.80452 0.76308 0.0
N119 N 0.49409 0.79693 0.77643 0.0
H120 H 0.55167 0.81681 0.78281 0.0
H121 H 0.43686 0.78281 0.76235 0.0
H122 H 0.50861 0.83678 0.83007 0.0
H123 H 0.48783 0.72795 0.86942 0.0
O124 O 0.56021 0.75334 0.80438 0.0
O125 O 0.52329 0.70553 0.8211 0.0
O126 O 0.44841 0.73293 0.80214 0.0
C127 C 0.55726 0.72114 0.81975 0.0
H128 H 0.49727 0.65218 0.71149 0.0
H129 H 0.50032 0.84567 0.89007 0.0
H130 H 0.42242 0.84729 0.74209 0.0
H131 H 0.53944 0.88121 0.76256 0.0
Co132 Co 0.27065 0.49826 0.46349 0.0
C133 C 0.31122 0.47339 0.5217 0.0
C134 C 0.29651 0.53346 0.52183 0.0
C135 C 0.31484 0.52482 0.5493 0.0
N136 N 0.29453 0.5014 0.5043 0.0
N137 N 0.32416 0.48708 0.54925 0.0
H138 H 0.31437 0.44377 0.51436 0.0
H139 H 0.28506 0.56126 0.51527 0.0
C140 C 0.27241 0.57718 0.43402 0.0
O141 O 0.23935 0.571 0.41997 0.0
N142 N 0.24667 0.49424 0.42286 0.0
C143 C 0.20974 0.48489 0.41634 0.0
C144 C 0.20525 0.48392 0.38457 0.0
C145 C 0.26437 0.49768 0.39496 0.0
N146 N 0.2396 0.49198 0.37122 0.0
C147 C 0.20382 0.47805 0.49797 0.0
C148 C 0.16078 0.54364 0.48705 0.0
C149 C 0.14199 0.51064 0.49834 0.0
C150 C 0.16474 0.47853 0.5058 0.0
C151 C 0.20041 0.54215 0.48011 0.0
N152 N 0.22053 0.50844 0.48299 0.0
H153 H 0.22015 0.45221 0.50249 0.0
H154 H 0.21402 0.56782 0.47168 0.0
H155 H 0.18754 0.4787 0.43328 0.0
H156 H 0.29456 0.50506 0.39211 0.0
O157 O 0.27042 0.44218 0.46474 0.0
O158 O 0.31772 0.47864 0.44626 0.0
O159 O 0.28446 0.55432 0.45532 0.0
C160 C 0.30375 0.4444 0.45074 0.0
H161 H 0.32044 0.54478 0.56809 0.0
H162 H 0.17892 0.47706 0.37222 0.0
H163 H 0.14478 0.56966 0.48196 0.0
H164 H 0.15206 0.45305 0.51617 0.0
Co165 Co 0.52614 0.27136 0.70417 0.0
C166 C 0.56539 0.29358 0.76302 0.0
C167 C 0.50519 0.30765 0.76463 0.0
C168 C 0.52239 0.32028 0.79177 0.0
N169 N 0.53226 0.29109 0.74643 0.0
N170 N 0.56029 0.31133 0.79068 0.0
H171 H 0.59312 0.28351 0.75485 0.0
H172 H 0.47509 0.31079 0.75866 0.0
C173 C 0.44479 0.31045 0.69833 0.0
O174 O 0.4238 0.28413 0.71225 0.0
N175 N 0.52106 0.25226 0.66228 0.0
C176 C 0.52916 0.21617 0.65282 0.0
C177 C 0.52489 0.21439 0.62116 0.0
C178 C 0.51279 0.27226 0.63628 0.0
N179 N 0.51464 0.24961 0.61081 0.0
C180 C 0.51229 0.20526 0.74112 0.0
C181 C 0.45118 0.17677 0.70699 0.0
C182 C 0.47053 0.15159 0.72731 0.0
C183 C 0.50058 0.16707 0.7454 0.0
C184 C 0.46472 0.21434 0.70263 0.0
N185 N 0.49554 0.22798 0.71909 0.0
H186 H 0.53757 0.21532 0.75337 0.0
H187 H 0.4528 0.23094 0.68371 0.0
H188 H 0.53828 0.19298 0.6679 0.0
H189 H 0.50616 0.30272 0.63599 0.0
O190 O 0.57674 0.247 0.70534 0.0
O191 O 0.56425 0.3069 0.68992 0.0
O192 O 0.48147 0.30757 0.69627 0.0
C193 C 0.58915 0.27931 0.69352 0.0
H194 H 0.50806 0.33484 0.81081 0.0
H195 H 0.53036 0.18943 0.60673 0.0
H196 H 0.42718 0.16707 0.69296 0.0
H197 H 0.51722 0.14934 0.7611 0.0
Co198 Co 0.74771 0.50778 0.96129 0.0
C199 C 0.71503 0.53555 0.02158 0.0
C200 C 0.7134 0.47399 0.01819 0.0
C201 C 0.69644 0.48486 0.04585 0.0
N202 N 0.72498 0.50577 1.0028 0.0
N203 N 0.69729 0.52366 0.04802 0.0
H204 H 0.7204 0.56541 0.01601 0.0
H205 H 0.71627 0.44481 0.00977 0.0
C206 C 0.74488 0.42839 0.93414 0.0
O207 O 0.78107 0.43198 0.92532 0.0
N208 N 0.76961 0.51067 0.91959 0.0
C209 C 0.80393 0.52548 0.91068 0.0
C210 C 0.80607 0.52524 0.87884 0.0
C211 C 0.75094 0.50273 0.89273 0.0
N212 N 0.77282 0.51081 0.86749 0.0
C213 C 0.82476 0.52032 0.98318 0.0
C214 C 0.84339 0.44484 0.99627 0.0
C215 C 0.87304 0.47259 0.99682 0.0
C216 C 0.86268 0.51104 0.9911 0.0
C217 C 0.80575 0.45544 0.98766 0.0
N218 N 0.79756 0.49238 0.97889 0.0
H219 H 0.81807 0.5501 0.97854 0.0
H220 H 0.78359 0.43362 0.98768 0.0
H221 H 0.82566 0.53739 0.92568 0.0
H222 H 0.72185 0.49139 0.8918 0.0
O223 O 0.75268 0.56352 0.9637 0.0
O224 O 0.70178 0.53162 0.94594 0.0
O225 O 0.72967 0.45339 0.95227 0.0
C226 C 0.71858 0.56443 0.95099 0.0
H227 H 0.6834 0.4655 0.06254 0.0
H228 H 0.82983 0.53634 0.86512 0.0
H229 H 0.84912 0.41508 1.00213 0.0
H230 H 0.88383 0.53397 0.9913 0.0
Co231 Co 0.49029 0.74215 0.2078 0.0
C232 C 0.45253 0.71547 0.26599 0.0
C233 C 0.51085 0.69511 0.26309 0.0
C234 C 0.49431 0.6811 0.2901 0.0
N235 N 0.48449 0.71648 0.24783 0.0
N236 N 0.45759 0.69398 0.29188 0.0
H237 H 0.42566 0.72947 0.26014 0.0
H238 H 0.54006 0.68983 0.25527 0.0
C239 C 0.56471 0.71623 0.17714 0.0
O240 O 0.56726 0.74939 0.16261 0.0
N241 N 0.49429 0.7681 0.16804 0.0
C242 C 0.4963 0.80631 0.16262 0.0
C243 C 0.49455 0.81246 0.13105 0.0
C244 C 0.49021 0.75169 0.13978 0.0
N245 N 0.49069 0.77808 0.11679 0.0
C246 C 0.49258 0.80978 0.24435 0.0
C247 C 0.56837 0.8305 0.23323 0.0
C248 C 0.54283 0.85797 0.24547 0.0
C249 C 0.50509 0.84652 0.25253 0.0
C250 C 0.55449 0.79384 0.22517 0.0
N251 N 0.5162 0.78501 0.22859 0.0
H252 H 0.46295 0.80223 0.24912 0.0
H253 H 0.57445 0.7736 0.21535 0.0
H254 H 0.49784 0.82843 0.18022 0.0
H255 H 0.48736 0.72098 0.13616 0.0
O256 O 0.43781 0.76161 0.20961 0.0
O257 O 0.45532 0.70541 0.1895 0.0
O258 O 0.53962 0.71141 0.19891 0.0
C259 C 0.42812 0.73023 0.19522 0.0
H260 H 0.50839 0.66305 0.30716 0.0
H261 H 0.49489 0.84019 0.11956 0.0
H262 H 0.59817 0.8379 0.22835 0.0
H263 H 0.48486 0.86637 0.26317 0.0
H264 H 0.19111 0.5163 0.32604 0.0
H265 H 0.30657 0.47249 0.34225 0.0
H266 H 0.31944 0.47388 0.28559 0.0
H267 H 0.17154 0.46378 0.25732 0.0
H268 H 0.14576 0.50243 0.23861 0.0
H269 H 0.14647 0.49928 0.28036 0.0
H270 H 0.1738 0.56874 0.28368 0.0
H271 H 0.17295 0.57213 0.2419 0.0
H272 H 0.21728 0.58074 0.26265 0.0
H273 H 0.31777 0.47665 0.22657 0.0
H274 H 0.30315 0.48319 0.17085 0.0
H275 H 0.18945 0.52789 0.19423 0.0
C276 C 0.21907 0.50694 0.31765 0.0
C277 C 0.24778 0.49408 0.33845 0.0
C278 C 0.28428 0.48268 0.32667 0.0
C279 C 0.29177 0.48324 0.29456 0.0
C280 C 0.26259 0.49573 0.27465 0.0
C281 C 0.22712 0.50774 0.28581 0.0
C282 C 0.20061 0.51987 0.25968 0.0
C283 C 0.16394 0.49484 0.25896 0.0
C284 C 0.19059 0.56293 0.26213 0.0
C285 C 0.22633 0.51197 0.23195 0.0
C286 C 0.26198 0.49815 0.24098 0.0
C287 C 0.29007 0.48788 0.21928 0.0
C288 C 0.28147 0.49188 0.18756 0.0
C289 C 0.24506 0.50623 0.17771 0.0
C290 C 0.2174 0.51649 0.20051 0.0
H291 H 0.49155 0.20208 0.43382 0.0
H292 H 0.53679 0.3157 0.4129 0.0
H293 H 0.53286 0.33265 0.46867 0.0
H294 H 0.42649 0.23119 0.49734 0.0
H295 H 0.43644 0.18795 0.51908 0.0
H296 H 0.43809 0.18713 0.47721 0.0
H297 H 0.5081 0.16061 0.47912 0.0
H298 H 0.50669 0.16136 0.52087 0.0
H299 H 0.5444 0.18678 0.50045 0.0
H300 H 0.53106 0.33377 0.52802 0.0
H301 H 0.53173 0.31878 0.58434 0.0
H302 H 0.48752 0.20458 0.56478 0.0
C303 C 0.50063 0.2306 0.44075 0.0
C304 C 0.51515 0.25731 0.41894 0.0
C305 C 0.52568 0.29467 0.42916 0.0
C306 C 0.52348 0.30457 0.4608 0.0
C307 C 0.51013 0.27695 0.48178 0.0
C308 C 0.49857 0.24084 0.47201 0.0
C309 C 0.48778 0.21523 0.49902 0.0
C310 C 0.44463 0.20478 0.4981 0.0
C311 C 0.51327 0.17888 0.49991 0.0
C312 C 0.49659 0.24194 0.52572 0.0
C313 C 0.50885 0.27767 0.51549 0.0
C314 C 0.52088 0.30611 0.53625 0.0
C315 C 0.52106 0.29742 0.56817 0.0
C316 C 0.50974 0.26049 0.57882 0.0
C317 C 0.49652 0.23295 0.55727 0.0
H318 H 0.81962 0.49657 0.6878 0.0
H319 H 0.69646 0.50057 0.66966 0.0
H320 H 0.68368 0.50313 0.72616 0.0
H321 H 0.8144 0.43567 0.75535 0.0
H322 H 0.8532 0.46027 0.77496 0.0
H323 H 0.85213 0.45866 0.73314 0.0
H324 H 0.85538 0.53324 0.73105 0.0
H325 H 0.85651 0.5351 0.77284 0.0
H326 H 0.81987 0.56119 0.75187 0.0
H327 H 0.68507 0.50522 0.78573 0.0
H328 H 0.7007 0.50943 0.84175 0.0
H329 H 0.82278 0.50211 0.81939 0.0
C330 C 0.78992 0.49763 0.69561 0.0
C331 C 0.75911 0.49828 0.67419 0.0
C332 C 0.72065 0.50046 0.68553 0.0
C333 C 0.71307 0.50161 0.71763 0.0
C334 C 0.74426 0.50064 0.73808 0.0
C335 C 0.78191 0.49881 0.7274 0.0
C336 C 0.81049 0.49872 0.75388 0.0
C337 C 0.83392 0.46109 0.75435 0.0
C338 C 0.83712 0.53418 0.75231 0.0
C339 C 0.78316 0.50104 0.78124 0.0
C340 C 0.74505 0.50195 0.77183 0.0
C341 C 0.71486 0.50447 0.7933 0.0
C342 C 0.72401 0.50663 0.8251 0.0
C343 C 0.76303 0.50642 0.83508 0.0
C344 C 0.79271 0.50306 0.81267 0.0
H345 H 0.52243 0.82423 0.93851 0.0
H346 H 0.4521 0.72445 0.91669 0.0
H347 H 0.4455 0.71034 0.97285 0.0
H348 H 0.57249 0.78306 1.00368 0.0
H349 H 0.57271 0.8275 0.02533 0.0
H350 H 0.57273 0.82856 0.98348 0.0
H351 H 0.51119 0.87115 0.98416 0.0
H352 H 0.51097 0.87022 0.02599 0.0
H353 H 0.4689 0.8547 1.00479 0.0
H354 H 0.44557 0.70866 0.03201 0.0
H355 H 0.45189 0.71966 0.08859 0.0
H356 H 0.52172 0.82095 0.0705 0.0
C357 C 0.50536 0.79958 0.94545 0.0
C358 C 0.48773 0.77547 0.9232 0.0
C359 C 0.46625 0.74304 0.93334 0.0
C360 C 0.4622 0.73493 0.96517 0.0
C361 C 0.47989 0.75952 0.98648 0.0
C362 C 0.50106 0.79115 0.97696 0.0
C363 C 0.5169 0.81343 1.00429 0.0
C364 C 0.56134 0.81309 1.00418 0.0
C365 C 0.50102 0.85482 1.00483 0.0
C366 C 0.50087 0.78978 0.0308 0.0
C367 C 0.47982 0.75864 0.02016 0.0
C368 C 0.46215 0.73286 0.04056 0.0
C369 C 0.46604 0.73922 0.07264 0.0
C370 C 0.48728 0.77119 0.08393 0.0
C371 C 0.50493 0.79657 0.06259 0.0
H372 H 0.09539 0.51611 0.03083 0.0
H373 H 0.12303 0.40177 0.99723 0.0
H374 H 0.05298 0.38807 0.99079 0.0
H375 H 0.00972 0.48795 0.07469 0.0
H376 H 0.9844 0.53193 0.06578 0.0
H377 H 0.03636 0.53183 0.06807 0.0
H378 H 0.04052 0.55999 0.01236 0.0
H379 H 0.98863 0.56018 0.0099 0.0
H380 H 0.01677 0.53528 0.98088 0.0
H381 H 0.97939 0.3897 0.9844 0.0
H382 H 0.91001 0.40483 0.9806 0.0
H383 H 0.93135 0.51609 0.02361 0.0
C384 C 0.08663 0.48818 0.02211 0.0
C385 C 0.11442 0.46008 0.01413 0.0
C386 C 0.10203 0.42364 1.00332 0.0
C387 C 0.0624 0.41569 0.99963 0.0
C388 C 0.03566 0.44426 0.00749 0.0
C389 C 0.04737 0.4796 0.01888 0.0
C390 C 0.0132 0.50544 0.02577 0.0
C391 C 0.01078 0.51482 0.06065 0.0
C392 C 0.01489 0.5424 0.00605 0.0
C393 C 0.9803 0.47959 0.01577 0.0
C394 C 0.9937 0.44445 1.00524 0.0
C395 C 0.9686 0.41689 0.99312 0.0
C396 C 0.92899 0.42571 0.99132 0.0
C397 C 0.91454 0.46175 1.00182 0.0
C398 C 0.94089 0.48849 0.01484 0.0
H399 H 0.50904 0.08381 0.23143 0.0
H400 H 0.61171 0.10039 0.28782 0.0
H401 H 0.62404 0.03057 0.2863 0.0
H402 H 0.47761 1.00047 0.27085 0.0
H403 H 0.45845 0.97743 0.23665 0.0
H404 H 0.46039 0.02915 0.23882 0.0
H405 H 0.49991 0.03124 0.18759 0.0
H406 H 0.49801 0.97947 0.18523 0.0
H407 H 0.54399 1.00384 0.18453 0.0
H408 H 0.62324 0.95745 0.28093 0.0
H409 H 0.60741 0.88824 0.27375 0.0
H410 H 0.50319 0.92029 0.22445 0.0
C411 C 0.5342 0.07304 0.2435 0.0
C412 C 0.55945 0.09815 0.25957 0.0
C413 C 0.59227 0.08227 0.27465 0.0
C414 C 0.59943 0.04244 0.27415 0.0
C415 C 0.57346 0.01861 0.25865 0.0
C416 C 0.54145 0.03339 0.24367 0.0
C417 C 0.51647 1.00159 0.23048 0.0
C418 C 0.47584 1.00221 0.24508 0.0
C419 C 0.5145 1.0042 0.19484 0.0
C420 C 0.53909 0.96657 0.24077 0.0
C421 C 0.57219 0.97684 0.25661 0.0
C422 C 0.59741 0.94913 0.2685 0.0
C423 C 0.58829 0.90996 0.26431 0.0
C424 C 0.55395 0.89904 0.24884 0.0
C425 C 0.5294 0.92785 0.23673 0.0
H426 H 0.08759 0.56617 0.51566 0.0
H427 H 0.0986 0.44864 0.48193 0.0
H428 H 0.02818 0.44182 0.48228 0.0
H429 H 1.00549 0.54932 0.56616 0.0
H430 H 0.98201 0.59432 0.5573 0.0
H431 H 0.03386 0.59066 0.55502 0.0
H432 H 0.03199 0.61448 0.49802 0.0
H433 H 0.98012 0.61817 0.50011 0.0
H434 H 1.0024 0.58941 0.47014 0.0
H435 H 0.95794 0.4462 0.48631 0.0
H436 H 0.88963 0.46163 0.4937 0.0
H437 H 0.92041 0.57754 0.52287 0.0
C438 C 0.07515 0.53905 0.50833 0.0
C439 C 0.09898 0.50768 0.49935 0.0
C440 C 0.08134 0.47275 0.48984 0.0
C441 C 0.04121 0.46864 0.48964 0.0
C442 C 0.01871 0.49979 0.49878 0.0
C443 C 0.03474 0.53438 0.50793 0.0
C444 C 1.00322 0.56311 0.51647 0.0
C445 C 1.00634 0.57505 0.55078 0.0
C446 C 1.00452 0.59838 0.49489 0.0
C447 C 0.9672 0.53902 0.51073 0.0
C448 C 0.97717 0.50266 0.50048 0.0
C449 C 0.94964 0.47473 0.49395 0.0
C450 C 0.91072 0.48404 0.49793 0.0
C451 C 0.8992 0.5212 0.50814 0.0
C452 C 0.92807 0.54901 0.51481 0.0
H453 H 0.48221 0.09776 0.77445 0.0
H454 H 0.44264 0.10715 0.6788 0.0
H455 H 0.43499 0.03711 0.67656 0.0
H456 H 0.5418 0.01736 0.75979 0.0
H457 H 0.53344 0.9951 0.79705 0.0
H458 H 0.53015 0.0466 0.79315 0.0
H459 H 0.46063 0.04504 0.81557 0.0
H460 H 0.46374 0.99348 0.81962 0.0
H461 H 0.42482 0.01458 0.79769 0.0
H462 H 0.43492 0.96476 0.68337 0.0
H463 H 0.44641 0.89666 0.69819 0.0
H464 H 0.49257 0.93434 0.78668 0.0
C465 C 0.47183 0.08549 0.75293 0.0
C466 C 0.46257 0.10899 0.72702 0.0
C467 C 0.44878 0.09076 0.69957 0.0
C468 C 0.44467 0.0506 0.69785 0.0
C469 C 0.45493 0.02855 0.72353 0.0
C470 C 0.46849 0.04535 0.75049 0.0
C471 C 0.48085 0.01506 0.7738 0.0
C472 C 0.52413 0.01876 0.78138 0.0
C473 C 0.45602 0.01717 0.80342 0.0
C474 C 0.47258 0.97865 0.75557 0.0
C475 C 0.45699 0.98697 0.72682 0.0
C476 C 0.44709 0.95791 0.70585 0.0
C477 C 0.45363 0.91938 0.71442 0.0
C478 C 0.47059 0.91039 0.74341 0.0
C479 C 0.47989 0.94049 0.76423 0.0
H480 H 0.37717 0.67308 0.2067 0.0
H481 H 0.39615 0.7749 0.15098 0.0
H482 H 0.34141 0.7569 0.11716 0.0
H483 H 0.36407 0.61192 0.1516 0.0
H484 H 0.32604 0.58324 0.16858 0.0
H485 H 0.35771 0.61004 0.19321 0.0
H486 H 0.29884 0.64445 0.21814 0.0
H487 H 0.2669 0.61743 0.19326 0.0
H488 H 0.26466 0.66931 0.19378 0.0
H489 H 0.30138 0.7178 0.08119 0.0
H490 H 0.27716 0.66335 0.04935 0.0
H491 H 0.27761 0.59052 0.13075 0.0
C492 C 0.36813 0.69246 0.18838 0.0
C493 C 0.38992 0.72546 0.18146 0.0
C494 C 0.37882 0.74993 0.15686 0.0
C495 C 0.3478 0.73991 0.1376 0.0
C496 C 0.32763 0.70602 0.144 0.0
C497 C 0.33661 0.68327 0.16952 0.0
C498 C 0.31471 0.64564 0.16889 0.0
C499 C 0.34228 0.61072 0.17062 0.0
C500 C 0.28447 0.64415 0.19507 0.0
C501 C 0.29551 0.64892 0.13747 0.0
C502 C 0.30234 0.68428 0.12366 0.0
C503 C 0.29413 0.69072 0.0922 0.0
C504 C 0.28029 0.65982 0.07423 0.0
C505 C 0.27492 0.6234 0.08804 0.0
C506 C 0.2805 0.61865 0.12016 0.0
H507 H 0.46612 0.35946 0.34485 0.0
H508 H 0.3893 0.26638 0.31833 0.0
H509 H 0.34051 0.2906 0.35617 0.0
H510 H 0.44465 0.35549 0.426 0.0
H511 H 0.4494 0.40682 0.43098 0.0
H512 H 0.47692 0.38246 0.40133 0.0
H513 H 0.44852 0.42779 0.35904 0.0
H514 H 0.42177 0.45284 0.38864 0.0
H515 H 0.39683 0.43266 0.35571 0.0
H516 H 0.29989 0.32783 0.39706 0.0
H517 H 0.27084 0.37569 0.43306 0.0
H518 H 0.37841 0.43953 0.43341 0.0
C519 C 0.43889 0.34422 0.34652 0.0
C520 C 0.43124 0.31132 0.32834 0.0
C521 C 0.39548 0.29198 0.33181 0.0
C522 C 0.36786 0.30532 0.35342 0.0
C523 C 0.37701 0.33743 0.3716 0.0
C524 C 0.41179 0.35647 0.36817 0.0
C525 C 0.41556 0.38997 0.39021 0.0
C526 C 0.44858 0.38327 0.4135 0.0
C527 C 0.42096 0.42805 0.37233 0.0
C528 C 0.37676 0.38802 0.406 0.0
C529 C 0.35486 0.35738 0.39541 0.0
C530 C 0.31703 0.35157 0.40572 0.0
C531 C 0.30087 0.37866 0.42636 0.0
C532 C 0.32259 0.41103 0.43609 0.0
C533 C 0.36129 0.41483 0.42656 0.0
H534 H 0.63797 0.33679 0.70571 0.0
H535 H 0.62288 0.23531 0.64909 0.0
H536 H 0.66968 0.26082 0.61087 0.0
H537 H 0.62858 0.39743 0.65269 0.0
H538 H 0.6635 0.43337 0.66378 0.0
H539 H 0.64386 0.4019 0.69261 0.0
H540 H 0.712 0.37891 0.70825 0.0
H541 H 0.73261 0.41134 0.67998 0.0
H542 H 0.74474 0.36089 0.67902 0.0
H543 H 0.70011 0.30581 0.57201 0.0
H544 H 0.71492 0.36334 0.53946 0.0
H545 H 0.707 0.43536 0.62127 0.0
C546 C 0.64698 0.31887 0.68639 0.0
C547 C 0.62783 0.28404 0.68041 0.0
C548 C 0.63842 0.26159 0.65439 0.0
C549 C 0.66476 0.27609 0.63244 0.0
C550 C 0.68057 0.31259 0.6374 0.0
C551 C 0.67297 0.33318 0.66441 0.0
C552 C 0.68664 0.3744 0.66183 0.0
C553 C 0.65367 0.40339 0.66805 0.0
C554 C 0.72105 0.38179 0.68355 0.0
C555 C 0.69922 0.37488 0.62827 0.0
C556 C 0.69706 0.33888 0.61467 0.0
C557 C 0.70307 0.33387 0.58269 0.0
C558 C 0.71111 0.36653 0.56432 0.0
C559 C 0.7117 0.4034 0.57807 0.0
C560 C 0.70669 0.40729 0.61035 0.0
H561 H 0.64269 0.57778 0.94348 0.0
H562 H 0.75544 0.62895 0.9292 0.0
H563 H 0.72588 0.67946 0.89611 0.0
H564 H 0.61234 0.58447 0.86983 0.0
H565 H 0.56247 0.59543 0.87811 0.0
H566 H 0.59063 0.56901 0.90587 0.0
H567 H 0.57557 0.61963 0.94858 0.0
H568 H 0.54625 0.64569 0.92115 0.0
H569 H 0.58502 0.66985 0.94112 0.0
H570 H 0.68416 0.71811 0.85782 0.0
H571 H 0.6339 0.74373 0.82215 0.0
H572 H 0.5509 0.66374 0.86165 0.0
C573 C 0.66092 0.60052 0.93436 0.0
C574 C 0.70111 0.59988 0.93893 0.0
C575 C 0.72437 0.62956 0.92633 0.0
C576 C 0.70785 0.65812 0.90736 0.0
C577 C 0.66816 0.65662 0.9018 0.0
C578 C 0.64496 0.62895 0.91559 0.0
C579 C 0.60397 0.63082 0.90393 0.0
C580 C 0.59168 0.59268 0.88852 0.0
C581 C 0.57606 0.64219 0.93026 0.0
C582 C 0.60795 0.66267 0.88038 0.0
C583 C 0.64484 0.67781 0.87961 0.0
C584 C 0.65507 0.70675 0.85856 0.0
C585 C 0.62654 0.72087 0.83823 0.0
C586 C 0.5887 0.70545 0.83894 0.0
C587 C 0.57965 0.67598 0.86027 0.0
H588 H 0.34483 0.37314 0.06869 0.0
H589 H 0.3542 0.49073 0.1026 0.0
H590 H 0.39748 0.46929 0.14394 0.0
H591 H 0.34722 0.326 0.14242 0.0
H592 H 0.37745 0.28658 0.13007 0.0
H593 H 0.34667 0.31049 0.10243 0.0
H594 H 0.40579 0.32464 0.06725 0.0
H595 H 0.43672 0.30049 0.09468 0.0
H596 H 0.44698 0.34939 0.08327 0.0
H597 H 0.43548 0.43551 0.1844 0.0
H598 H 0.47375 0.39153 0.21754 0.0
H599 H 0.44668 0.29658 0.15601 0.0
C600 C 0.35632 0.39439 0.08459 0.0
C601 C 0.34514 0.43359 0.08252 0.0
C602 C 0.36128 0.46041 0.10382 0.0
C603 C 0.38617 0.44858 0.1275 0.0
C604 C 0.39576 0.40984 0.12942 0.0
C605 C 0.38215 0.38316 0.10824 0.0
C606 C 0.39818 0.34338 0.11549 0.0
C607 C 0.36542 0.31494 0.12305 0.0
C608 C 0.42342 0.32861 0.08857 0.0
C609 C 0.42238 0.35204 0.14414 0.0
C610 C 0.42004 0.39055 0.15193 0.0
C611 C 0.43806 0.40538 0.17831 0.0
C612 C 0.45952 0.38027 0.19708 0.0
C613 C 0.46339 0.34098 0.18912 0.0
C614 C 0.44458 0.32671 0.16226 0.0
H615 H 0.62739 0.28858 0.37492 0.0
H616 H 0.60402 0.35806 0.29324 0.0
H617 H 0.62537 0.41619 0.32177 0.0
H618 H 0.5921 0.35592 0.43011 0.0
H619 H 0.62779 0.34415 0.45895 0.0
H620 H 0.61329 0.30842 0.43101 0.0
H621 H 0.68523 0.30011 0.41476 0.0
H622 H 0.69927 0.33649 0.4424 0.0
H623 H 0.71231 0.3416 0.40202 0.0
H624 H 0.64631 0.46727 0.3604 0.0
H625 H 0.66526 0.50695 0.40514 0.0
H626 H 0.67222 0.40403 0.46234 0.0
C627 C 0.62761 0.31582 0.36267 0.0
C628 C 0.61456 0.31855 0.33153 0.0
C629 C 0.6143 0.35508 0.31687 0.0
C630 C 0.62629 0.38829 0.33296 0.0
C631 C 0.63828 0.38459 0.36379 0.0
C632 C 0.63907 0.34924 0.37847 0.0
C633 C 0.65131 0.35326 0.41218 0.0
C634 C 0.6192 0.3396 0.43435 0.0
C635 C 0.68929 0.33158 0.41818 0.0
C636 C 0.65699 0.39647 0.41431 0.0
C637 C 0.64953 0.41399 0.38613 0.0
C638 C 0.65221 0.45377 0.38256 0.0
C639 C 0.66276 0.47619 0.40838 0.0
C640 C 0.67027 0.45903 0.43775 0.0
C641 C 0.66728 0.41843 0.44043 0.0
H642 H 0.55653 0.62771 0.69292 0.0
H643 H 0.58692 0.74874 0.68866 0.0
H644 H 0.63478 0.73435 0.6473 0.0
H645 H 0.65267 0.5909 0.68141 0.0
H646 H 0.63665 0.55045 0.65858 0.0
H647 H 0.60528 0.57077 0.68771 0.0
H648 H 0.55214 0.58074 0.64603 0.0
H649 H 0.58352 0.56061 0.61682 0.0
H650 H 0.56318 0.60793 0.61143 0.0
H651 H 0.67959 0.70557 0.60529 0.0
H652 H 0.71778 0.66529 0.56883 0.0
H653 H 0.65649 0.5639 0.60144 0.0
C654 C 0.57289 0.65134 0.68315 0.0
C655 C 0.56762 0.68949 0.69396 0.0
C656 C 0.59049 0.7193 0.68091 0.0
C657 C 0.61764 0.71139 0.65729 0.0
C658 C 0.62185 0.67344 0.64706 0.0
C659 C 0.60018 0.64392 0.65981 0.0
C660 C 0.61039 0.60548 0.64531 0.0
C661 C 0.62725 0.57779 0.6697 0.0
C662 C 0.57521 0.58766 0.62892 0.0
C663 C 0.64089 0.61791 0.62212 0.0
C664 C 0.6473 0.65715 0.62338 0.0
C665 C 0.67468 0.67482 0.60416 0.0
C666 C 0.69619 0.65172 0.58342 0.0
C667 C 0.69022 0.61136 0.58203 0.0
C668 C 0.66189 0.59462 0.60163 0.0
H669 H 0.37642 0.56978 0.92991 0.0
H670 H 0.27577 0.63267 0.96226 0.0
H671 H 0.28944 0.68413 0.92427 0.0
H672 H 0.43649 0.65243 0.91845 0.0
H673 H 0.45998 0.63422 0.88404 0.0
H674 H 0.44199 0.60129 0.91298 0.0
H675 H 0.40074 0.56639 0.87163 0.0
H676 H 0.41873 0.59879 0.84225 0.0
H677 H 0.36742 0.5937 0.84821 0.0
H678 H 0.31523 0.73005 0.88375 0.0
H679 H 0.3523 0.76748 0.84489 0.0
H680 H 0.43506 0.67411 0.83758 0.0
C681 C 0.35699 0.59414 0.92879 0.0
C682 C 0.32493 0.59701 0.94922 0.0
C683 C 0.30072 0.62986 0.94725 0.0
C684 C 0.3081 0.65918 0.92553 0.0
C685 C 0.33987 0.65542 0.90579 0.0
C686 C 0.36403 0.6238 0.90728 0.0
C687 C 0.39698 0.62746 0.88408 0.0
C688 C 0.43617 0.62895 0.90088 0.0
C689 C 0.39588 0.59463 0.86012 0.0
C690 C 0.38737 0.6659 0.86918 0.0
C691 C 0.35436 0.6816 0.8821 0.0
C692 C 0.34086 0.71782 0.87323 0.0
C693 C 0.362 0.73882 0.85103 0.0
C694 C 0.3961 0.7235 0.83765 0.0
C695 C 0.40848 0.68623 0.84662 0.0
H696 H 0.3474 0.56514 0.41731 0.0
H697 H 0.25618 0.65044 0.41558 0.0
H698 H 0.29684 0.69255 0.38252 0.0
H699 H 0.43177 0.63171 0.41394 0.0
H700 H 0.45797 0.60051 0.38788 0.0
H701 H 0.42455 0.58032 0.41563 0.0
H702 H 0.38836 0.54593 0.37094 0.0
H703 H 0.42127 0.56631 0.34299 0.0
H704 H 0.37002 0.57393 0.33892 0.0
H705 H 0.34477 0.72251 0.34589 0.0
H706 H 0.39562 0.73799 0.30775 0.0
H707 H 0.45429 0.63111 0.3302 0.0
C708 C 0.33676 0.59343 0.41104 0.0
C709 C 0.29921 0.60528 0.41982 0.0
C710 C 0.28525 0.64143 0.40973 0.0
C711 C 0.30811 0.6654 0.39088 0.0
C712 C 0.34464 0.65249 0.38188 0.0
C713 C 0.3589 0.61731 0.3916 0.0
C714 C 0.3971 0.60826 0.37577 0.0
C715 C 0.42978 0.60502 0.39974 0.0
C716 C 0.39398 0.57144 0.35599 0.0
C717 C 0.40199 0.64373 0.35551 0.0
C718 C 0.37156 0.66899 0.35962 0.0
C719 C 0.36883 0.70303 0.34262 0.0
C720 C 0.39779 0.71142 0.32075 0.0
C721 C 0.4291 0.6858 0.31571 0.0
C722 C 0.4312 0.65165 0.33369 0.0
H723 H 0.31668 0.41128 0.56621 0.0
H724 H 0.37876 0.51662 0.58723 0.0
H725 H 0.41319 0.48357 0.62957 0.0
H726 H 0.30528 0.37946 0.64594 0.0
H727 H 0.31251 0.32919 0.63723 0.0
H728 H 0.2924 0.3608 0.60825 0.0
H729 H 0.34646 0.34135 0.56957 0.0
H730 H 0.36645 0.30939 0.59832 0.0
H731 H 0.3963 0.34617 0.58102 0.0
H732 H 0.44327 0.43899 0.66794 0.0
H733 H 0.46675 0.38525 0.70049 0.0
H734 H 0.3837 0.30868 0.65745 0.0
C735 C 0.33765 0.42726 0.57966 0.0
C736 C 0.34481 0.46673 0.57343 0.0
C737 C 0.37231 0.48665 0.59177 0.0
C738 C 0.39215 0.46805 0.61584 0.0
C739 C 0.38413 0.42941 0.62163 0.0
C740 C 0.35756 0.40913 0.60414 0.0
C741 C 0.35465 0.36769 0.61538 0.0
C742 C 0.31377 0.35877 0.62741 0.0
C743 C 0.36669 0.33949 0.58953 0.0
C744 C 0.38383 0.36791 0.64176 0.0
C745 C 0.40059 0.40385 0.64477 0.0
C746 C 0.42996 0.41087 0.66614 0.0
C747 C 0.44302 0.38026 0.68461 0.0
C748 C 0.42636 0.34319 0.68205 0.0
C749 C 0.39601 0.33708 0.6606 0.0
H750 H 0.66904 0.43808 0.91795 0.0
H751 H 0.76486 0.35827 0.9101 0.0
H752 H 0.7259 0.31713 0.87515 0.0
H753 H 0.58937 0.36783 0.91352 0.0
H754 H 0.56013 0.39904 0.88976 0.0
H755 H 0.5937 0.41938 0.91718 0.0
H756 H 0.62574 0.45858 0.87286 0.0
H757 H 0.59258 0.43817 0.84521 0.0
H758 H 0.64392 0.43378 0.83906 0.0
H759 H 0.67827 0.28725 0.8381 0.0
H760 H 0.62603 0.27092 0.80151 0.0
H761 H 0.56202 0.3718 0.8314 0.0
C762 C 0.68134 0.41126 0.90972 0.0
C763 C 0.7197 0.40083 0.91734 0.0
C764 C 0.73535 0.36643 0.90497 0.0
C765 C 0.71345 0.34296 0.88506 0.0
C766 C 0.67605 0.35452 0.87741 0.0
C767 C 0.66011 0.38789 0.88935 0.0
C768 C 0.62069 0.39565 0.87527 0.0
C769 C 0.5891 0.39545 0.90044 0.0
C770 C 0.62075 0.43379 0.85702 0.0
C771 C 0.6168 0.36132 0.85366 0.0
C772 C 0.64904 0.33793 0.85533 0.0
C773 C 0.65283 0.30528 0.83674 0.0
C774 C 0.62306 0.29636 0.81583 0.0
C775 C 0.58979 0.32 0.81345 0.0
C776 C 0.58668 0.35276 0.83293 0.0
H777 H 0.60235 0.71183 0.12139 0.0
H778 H 0.57803 0.64547 0.20463 0.0
H779 H 0.61233 0.58957 0.18156 0.0
H780 H 0.58523 0.63612 0.0684 0.0
H781 H 0.62244 0.65068 0.04149 0.0
H782 H 0.59912 0.68605 0.06568 0.0
H783 H 0.66564 0.70754 0.08706 0.0
H784 H 0.68921 0.67228 0.06285 0.0
H785 H 0.69734 0.67231 0.10422 0.0
H786 H 0.64794 0.54017 0.148 0.0
H787 H 0.67936 0.50137 0.10722 0.0
H788 H 0.6768 0.5999 0.04508 0.0
C789 C 0.60482 0.68585 0.13516 0.0
C790 C 0.58794 0.68331 0.16513 0.0
C791 C 0.59103 0.64829 0.18182 0.0
C792 C 0.61045 0.6164 0.16886 0.0
C793 C 0.62633 0.61986 0.13907 0.0
C794 C 0.62355 0.65375 0.12245 0.0
C795 C 0.64088 0.64959 0.0902 0.0
C796 C 0.61008 0.65598 0.06497 0.0
C797 C 0.67532 0.67706 0.08584 0.0
C798 C 0.65395 0.60796 0.09113 0.0
C799 C 0.64555 0.59135 0.11956 0.0
C800 C 0.65453 0.55298 0.12567 0.0
C801 C 0.67224 0.53102 0.10215 0.0
C802 C 0.68066 0.5472 0.07256 0.0
C803 C 0.67144 0.58643 0.06733 0.0
loop_
_geom_bond_atom_site_label_1
_geom_bond_atom_site_label_2
_geom_bond_distance
_geom_bond_site_symmetry_2
_ccdc_geom_bond_type
Co0 N4 2.148 . S
Co0 N10 2.128 . S
Co0 N20 2.194 . S
Co0 O25 2.351 . S
Co0 O26 2.155 . S
Co0 O27 2.096 . S
C1 N4 1.301 . S
C1 N5 1.328 1_554 S
C1 H6 0.930 . S
C2 C3 1.333 1_554 S
C2 N4 1.317 . S
C2 H7 0.930 . S
C3 C2 1.333 1_556 S
C3 N5 1.350 . S
C3 H29 0.931 . S
N4 Co0 2.148 . S
N4 C1 1.301 . S
N4 C2 1.317 . S
N5 C1 1.328 1_556 S
N5 C3 1.350 . S
H6 C1 0.930 . S
H7 C2 0.930 . S
C8 O9 1.224 . S
C8 O27 1.247 . S
O9 C8 1.224 . S
N10 Co0 2.128 . S
N10 C11 1.355 . S
N10 C13 1.311 . S
C11 N10 1.355 . S
C11 C12 1.363 . S
C11 H23 0.929 . S
C12 C11 1.363 . S
C12 N14 1.375 . S
C12 H30 0.931 . S
C13 N10 1.311 . S
C13 N14 1.347 . S
C13 H24 0.929 . S
N14 C12 1.375 . S
N14 C13 1.347 . S
C15 C18 1.365 . S
C15 N20 1.328 . S
C15 H21 0.929 . S
C16 C17 1.362 . S
C16 C19 1.378 . S
C16 H31 0.929 . S
C17 C16 1.362 . S
C17 C18 1.366 . S
C18 C15 1.365 . S
C18 C17 1.366 . S
C18 H32 0.930 . S
C19 C16 1.378 . S
C19 N20 1.315 . S
C19 H22 0.930 . S
N20 Co0 2.194 . S
N20 C15 1.328 . S
N20 C19 1.315 . S
H21 C15 0.929 . S
H22 C19 0.930 . S
H23 C11 0.929 . S
H24 C13 0.929 . S
O25 Co0 2.351 . S
O25 C28 1.244 . S
O26 Co0 2.155 . S
O26 C28 1.240 . S
O27 Co0 2.096 . S
O27 C8 1.247 . S
C28 O25 1.244 . S
C28 O26 1.240 . S
H29 C3 0.931 . S
H30 C12 0.931 . S
H31 C16 0.929 . S
H32 C18 0.930 . S
Co33 N37 2.148 . S
Co33 N43 2.128 . S
Co33 N53 2.194 . S
Co33 O58 2.351 . S
Co33 O59 2.155 . S
Co33 O60 2.096 . S
C34 N37 1.301 . S
C34 N38 1.328 . S
C34 H39 0.930 . S
C35 C36 1.333 . S
C35 N37 1.317 . S
C35 H40 0.930 . S
C36 C35 1.333 . S
C36 N38 1.350 . S
C36 H62 0.931 . S
N37 Co33 2.148 . S
N37 C34 1.301 . S
N37 C35 1.317 . S
N38 C34 1.328 . S
N38 C36 1.350 . S
H39 C34 0.930 . S
H40 C35 0.930 . S
C41 O42 1.224 . S
C41 O60 1.247 . S
O42 C41 1.224 . S
N43 Co33 2.128 . S
N43 C44 1.355 . S
N43 C46 1.311 . S
C44 N43 1.355 . S
C44 C45 1.363 . S
C44 H56 0.929 . S
C45 C44 1.363 . S
C45 N47 1.375 . S
C45 H63 0.931 . S
C46 N43 1.311 . S
C46 N47 1.347 . S
C46 H57 0.929 . S
N47 C45 1.375 . S
N47 C46 1.347 . S
C48 C51 1.365 . S
C48 N53 1.328 . S
C48 H54 0.929 . S
C49 C50 1.362 . S
C49 C52 1.378 . S
C49 H64 0.929 . S
C50 C49 1.362 . S
C50 C51 1.366 . S
C51 C48 1.365 . S
C51 C50 1.366 . S
C51 H65 0.930 . S
C52 C49 1.378 . S
C52 N53 1.315 . S
C52 H55 0.930 . S
N53 Co33 2.194 . S
N53 C48 1.328 . S
N53 C52 1.315 . S
H54 C48 0.929 . S
H55 C52 0.930 . S
H56 C44 0.929 . S
H57 C46 0.929 . S
O58 Co33 2.351 . S
O58 C61 1.244 . S
O59 Co33 2.155 . S
O59 C61 1.240 . S
O60 Co33 2.096 . S
O60 C41 1.247 . S
C61 O58 1.244 . S
C61 O59 1.240 . S
H62 C36 0.931 . S
H63 C45 0.931 . S
H64 C49 0.929 . S
H65 C51 0.930 . S
Co66 N70 2.148 . S
Co66 N76 2.128 . S
Co66 N86 2.194 . S
Co66 O91 2.351 . S
Co66 O92 2.155 . S
Co66 O93 2.096 . S
C67 N70 1.301 . S
C67 N71 1.328 . S
C67 H72 0.930 . S
C68 C69 1.333 . S
C68 N70 1.317 . S
C68 H73 0.930 . S
C69 C68 1.333 . S
C69 N71 1.350 . S
C69 H95 0.931 . S
N70 Co66 2.148 . S
N70 C67 1.301 . S
N70 C68 1.317 . S
N71 C67 1.328 . S
N71 C69 1.350 . S
H72 C67 0.930 . S
H73 C68 0.930 . S
C74 O75 1.224 . S
C74 O93 1.247 . S
O75 C74 1.224 . S
N76 Co66 2.128 . S
N76 C77 1.355 . S
N76 C79 1.311 . S
C77 N76 1.355 . S
C77 C78 1.363 . S
C77 H89 0.929 . S
C78 C77 1.363 . S
C78 N80 1.375 . S
C78 H96 0.931 . S
C79 N76 1.311 . S
C79 N80 1.347 . S
C79 H90 0.929 . S
N80 C78 1.375 . S
N80 C79 1.347 . S
C81 C84 1.365 . S
C81 N86 1.328 . S
C81 H87 0.929 . S
C82 C83 1.362 . S
C82 C85 1.378 . S
C82 H97 0.929 . S
C83 C82 1.362 . S
C83 C84 1.366 . S
C84 C81 1.365 . S
C84 C83 1.366 . S
C84 H98 0.930 . S
C85 C82 1.378 . S
C85 N86 1.315 . S
C85 H88 0.930 . S
N86 Co66 2.194 . S
N86 C81 1.328 . S
N86 C85 1.315 . S
H87 C81 0.929 . S
H88 C85 0.930 . S
H89 C77 0.929 . S
H90 C79 0.929 . S
O91 Co66 2.351 . S
O91 C94 1.244 . S
O92 Co66 2.155 . S
O92 C94 1.240 . S
O93 Co66 2.096 . S
O93 C74 1.247 . S
C94 O91 1.244 . S
C94 O92 1.240 . S
H95 C69 0.931 . S
H96 C78 0.931 . S
H97 C82 0.929 . S
H98 C84 0.930 . S
Co99 N103 2.148 . S
Co99 N109 2.128 . S
Co99 N119 2.194 . S
Co99 O124 2.351 . S
Co99 O125 2.155 . S
Co99 O126 2.096 . S
C100 N103 1.301 . S
C100 N104 1.328 . S
C100 H105 0.930 . S
C101 C102 1.333 . S
C101 N103 1.317 . S
C101 H106 0.930 . S
C102 C101 1.333 . S
C102 N104 1.350 . S
C102 H128 0.931 . S
N103 Co99 2.148 . S
N103 C100 1.301 . S
N103 C101 1.317 . S
N104 C100 1.328 . S
N104 C102 1.350 . S
H105 C100 0.930 . S
H106 C101 0.930 . S
C107 O108 1.224 . S
C107 O126 1.247 . S
O108 C107 1.224 . S
N109 Co99 2.128 . S
N109 C110 1.355 . S
N109 C112 1.311 . S
C110 N109 1.355 . S
C110 C111 1.363 . S
C110 H122 0.929 . S
C111 C110 1.363 . S
C111 N113 1.375 . S
C111 H129 0.931 . S
C112 N109 1.311 . S
C112 N113 1.347 . S
C112 H123 0.929 . S
N113 C111 1.375 . S
N113 C112 1.347 . S
C114 C117 1.365 . S
C114 N119 1.328 . S
C114 H120 0.929 . S
C115 C116 1.362 . S
C115 C118 1.378 . S
C115 H130 0.929 . S
C116 C115 1.362 . S
C116 C117 1.366 . S
C117 C114 1.365 . S
C117 C116 1.366 . S
C117 H131 0.930 . S
C118 C115 1.378 . S
C118 N119 1.315 . S
C118 H121 0.930 . S
N119 Co99 2.194 . S
N119 C114 1.328 . S
N119 C118 1.315 . S
H120 C114 0.929 . S
H121 C118 0.930 . S
H122 C110 0.929 . S
H123 C112 0.929 . S
O124 Co99 2.351 . S
O124 C127 1.244 . S
O125 Co99 2.155 . S
O125 C127 1.240 . S
O126 Co99 2.096 . S
O126 C107 1.247 . S
C127 O124 1.244 . S
C127 O125 1.240 . S
H128 C102 0.931 . S
H129 C111 0.931 . S
H130 C115 0.929 . S
H131 C117 0.930 . S
Co132 N136 2.148 . S
Co132 N142 2.128 . S
Co132 N152 2.194 . S
Co132 O157 2.351 . S
Co132 O158 2.155 . S
Co132 O159 2.096 . S
C133 N136 1.301 . S
C133 N137 1.328 . S
C133 H138 0.930 . S
C134 C135 1.333 . S
C134 N136 1.317 . S
C134 H139 0.930 . S
C135 C134 1.333 . S
C135 N137 1.350 . S
C135 H161 0.931 . S
N136 Co132 2.148 . S
N136 C133 1.301 . S
N136 C134 1.317 . S
N137 C133 1.328 . S
N137 C135 1.350 . S
H138 C133 0.930 . S
H139 C134 0.930 . S
C140 O141 1.224 . S
C140 O159 1.247 . S
O141 C140 1.224 . S
N142 Co132 2.128 . S
N142 C143 1.355 . S
N142 C145 1.311 . S
C143 N142 1.355 . S
C143 C144 1.363 . S
C143 H155 0.929 . S
C144 C143 1.363 . S
C144 N146 1.375 . S
C144 H162 0.931 . S
C145 N142 1.311 . S
C145 N146 1.347 . S
C145 H156 0.929 . S
N146 C144 1.375 . S
N146 C145 1.347 . S
C147 C150 1.365 . S
C147 N152 1.328 . S
C147 H153 0.929 . S
C148 C149 1.362 . S
C148 C151 1.378 . S
C148 H163 0.929 . S
C149 C148 1.362 . S
C149 C150 1.366 . S
C150 C147 1.365 . S
C150 C149 1.366 . S
C150 H164 0.930 . S
C151 C148 1.378 . S
C151 N152 1.315 . S
C151 H154 0.930 . S
N152 Co132 2.194 . S
N152 C147 1.328 . S
N152 C151 1.315 . S
H153 C147 0.929 . S
H154 C151 0.930 . S
H155 C143 0.929 . S
H156 C145 0.929 . S
O157 Co132 2.351 . S
O157 C160 1.244 . S
O158 Co132 2.155 . S
O158 C160 1.240 . S
O159 Co132 2.096 . S
O159 C140 1.247 . S
C160 O157 1.244 . S
C160 O158 1.240 . S
H161 C135 0.931 . S
H162 C144 0.931 . S
H163 C148 0.929 . S
H164 C150 0.930 . S
Co165 N169 2.148 . S
Co165 N175 2.128 . S
Co165 N185 2.194 . S
Co165 O190 2.351 . S
Co165 O191 2.155 . S
Co165 O192 2.096 . S
C166 N169 1.301 . S
C166 N170 1.328 . S
C166 H171 0.930 . S
C167 C168 1.333 . S
C167 N169 1.317 . S
C167 H172 0.930 . S
C168 C167 1.333 . S
C168 N170 1.350 . S
C168 H194 0.931 . S
N169 Co165 2.148 . S
N169 C166 1.301 . S
N169 C167 1.317 . S
N170 C166 1.328 . S
N170 C168 1.350 . S
H171 C166 0.930 . S
H172 C167 0.930 . S
C173 O174 1.224 . S
C173 O192 1.247 . S
O174 C173 1.224 . S
N175 Co165 2.128 . S
N175 C176 1.355 . S
N175 C178 1.311 . S
C176 N175 1.355 . S
C176 C177 1.363 . S
C176 H188 0.929 . S
C177 C176 1.363 . S
C177 N179 1.375 . S
C177 H195 0.931 . S
C178 N175 1.311 . S
C178 N179 1.347 . S
C178 H189 0.929 . S
N179 C177 1.375 . S
N179 C178 1.347 . S
C180 C183 1.365 . S
C180 N185 1.328 . S
C180 H186 0.929 . S
C181 C182 1.362 . S
C181 C184 1.378 . S
C181 H196 0.929 . S
C182 C181 1.362 . S
C182 C183 1.366 . S
C183 C180 1.365 . S
C183 C182 1.366 . S
C183 H197 0.930 . S
C184 C181 1.378 . S
C184 N185 1.315 . S
C184 H187 0.930 . S
N185 Co165 2.194 . S
N185 C180 1.328 . S
N185 C184 1.315 . S
H186 C180 0.929 . S
H187 C184 0.930 . S
H188 C176 0.929 . S
H189 C178 0.929 . S
O190 Co165 2.351 . S
O190 C193 1.244 . S
O191 Co165 2.155 . S
O191 C193 1.240 . S
O192 Co165 2.096 . S
O192 C173 1.247 . S
C193 O190 1.244 . S
C193 O191 1.240 . S
H194 C168 0.931 . S
H195 C177 0.931 . S
H196 C181 0.929 . S
H197 C183 0.930 . S
Co198 N202 2.148 . S
Co198 N208 2.128 . S
Co198 N218 2.194 . S
Co198 O223 2.351 . S
Co198 O224 2.155 . S
Co198 O225 2.096 . S
C199 N202 1.301 . S
C199 N203 1.328 1_556 S
C199 H204 0.930 . S
C200 C201 1.333 1_556 S
C200 N202 1.317 . S
C200 H205 0.930 . S
C201 C200 1.333 1_554 S
C201 N203 1.350 . S
C201 H227 0.931 . S
N202 Co198 2.148 . S
N202 C199 1.301 . S
N202 C200 1.317 . S
N203 C199 1.328 1_554 S
N203 C201 1.350 . S
H204 C199 0.930 . S
H205 C200 0.930 . S
C206 O207 1.224 . S
C206 O225 1.247 . S
O207 C206 1.224 . S
N208 Co198 2.128 . S
N208 C209 1.355 . S
N208 C211 1.311 . S
C209 N208 1.355 . S
C209 C210 1.363 . S
C209 H221 0.929 . S
C210 C209 1.363 . S
C210 N212 1.375 . S
C210 H228 0.931 . S
C211 N208 1.311 . S
C211 N212 1.347 . S
C211 H222 0.929 . S
N212 C210 1.375 . S
N212 C211 1.347 . S
C213 C216 1.365 . S
C213 N218 1.328 . S
C213 H219 0.929 . S
C214 C215 1.362 . S
C214 C217 1.378 . S
C214 H229 0.929 . S
C215 C214 1.362 . S
C215 C216 1.366 . S
C216 C213 1.365 . S
C216 C215 1.366 . S
C216 H230 0.930 . S
C217 C214 1.378 . S
C217 N218 1.315 . S
C217 H220 0.930 . S
N218 Co198 2.194 . S
N218 C213 1.328 . S
N218 C217 1.315 . S
H219 C213 0.929 . S
H220 C217 0.930 . S
H221 C209 0.929 . S
H222 C211 0.929 . S
O223 Co198 2.351 . S
O223 C226 1.244 . S
O224 Co198 2.155 . S
O224 C226 1.240 . S
O225 Co198 2.096 . S
O225 C206 1.247 . S
C226 O223 1.244 . S
C226 O224 1.240 . S
H227 C201 0.931 . S
H228 C210 0.931 . S
H229 C214 0.929 . S
H230 C216 0.930 . S
Co231 N235 2.148 . S
Co231 N241 2.128 . S
Co231 N251 2.194 . S
Co231 O256 2.351 . S
Co231 O257 2.155 . S
Co231 O258 2.096 . S
C232 N235 1.301 . S
C232 N236 1.328 . S
C232 H237 0.930 . S
C233 C234 1.333 . S
C233 N235 1.317 . S
C233 H238 0.930 . S
C234 C233 1.333 . S
C234 N236 1.350 . S
C234 H260 0.931 . S
N235 Co231 2.148 . S
N235 C232 1.301 . S
N235 C233 1.317 . S
N236 C232 1.328 . S
N236 C234 1.350 . S
H237 C232 0.930 . S
H238 C233 0.930 . S
C239 O240 1.224 . S
C239 O258 1.247 . S
O240 C239 1.224 . S
N241 Co231 2.128 . S
N241 C242 1.355 . S
N241 C244 1.311 . S
C242 N241 1.355 . S
C242 C243 1.363 . S
C242 H254 0.929 . S
C243 C242 1.363 . S
C243 N245 1.375 . S
C243 H261 0.931 . S
C244 N241 1.311 . S
C244 N245 1.347 . S
C244 H255 0.929 . S
N245 C243 1.375 . S
N245 C244 1.347 . S
C246 C249 1.365 . S
C246 N251 1.328 . S
C246 H252 0.929 . S
C247 C248 1.362 . S
C247 C250 1.378 . S
C247 H262 0.929 . S
C248 C247 1.362 . S
C248 C249 1.366 . S
C249 C246 1.365 . S
C249 C248 1.366 . S
C249 H263 0.930 . S
C250 C247 1.378 . S
C250 N251 1.315 . S
C250 H253 0.930 . S
N251 Co231 2.194 . S
N251 C246 1.328 . S
N251 C250 1.315 . S
H252 C246 0.929 . S
H253 C250 0.930 . S
H254 C242 0.929 . S
H255 C244 0.929 . S
O256 Co231 2.351 . S
O256 C259 1.244 . S
O257 Co231 2.155 . S
O257 C259 1.240 . S
O258 Co231 2.096 . S
O258 C239 1.247 . S
C259 O256 1.244 . S
C259 O257 1.240 . S
H260 C234 0.931 . S
H261 C243 0.931 . S
H262 C247 0.929 . S
H263 C249 0.930 . S
H264 C276 0.930 . S
H265 C278 0.930 . S
H266 C279 0.930 . S
H267 C283 0.959 . S
H268 C283 0.959 . S
H269 C283 0.961 . S
H270 C284 0.960 . S
H271 C284 0.961 . S
H272 C284 0.959 . S
H273 C287 0.929 . S
H274 C288 0.931 . S
H275 C290 0.930 . S
C276 H264 0.930 . S
C276 C277 1.399 . S
C276 C281 1.399 . S
C277 C276 1.399 . S
C277 C278 1.376 . S
C278 H265 0.930 . S
C278 C277 1.376 . S
C278 C279 1.388 . S
C279 H266 0.930 . S
C279 C278 1.388 . S
C279 C280 1.390 . S
C280 C279 1.390 . S
C280 C281 1.394 . S
C280 C286 1.465 . S
C281 C276 1.399 . S
C281 C280 1.394 . S
C281 C282 1.516 . S
C282 C281 1.516 . S
C282 C283 1.502 . S
C282 C284 1.561 . S
C282 C285 1.526 . S
C283 H267 0.959 . S
C283 H268 0.959 . S
C283 H269 0.961 . S
C283 C282 1.502 . S
C284 H270 0.960 . S
C284 H271 0.961 . S
C284 H272 0.959 . S
C284 C282 1.561 . S
C285 C282 1.526 . S
C285 C286 1.396 . S
C285 C290 1.390 . S
C286 C280 1.465 . S
C286 C285 1.396 . S
C286 C287 1.399 . S
C287 H273 0.929 . S
C287 C286 1.399 . S
C287 C288 1.385 . S
C288 H274 0.931 . S
C288 C287 1.385 . S
C288 C289 1.389 . S
C289 C288 1.389 . S
C289 C290 1.387 . S
C290 H275 0.930 . S
C290 C285 1.390 . S
C290 C289 1.387 . S
H291 C303 0.930 . S
H292 C305 0.930 . S
H293 C306 0.930 . S
H294 C310 0.959 . S
H295 C310 0.959 . S
H296 C310 0.961 . S
H297 C311 0.960 . S
H298 C311 0.961 . S
H299 C311 0.959 . S
H300 C314 0.929 . S
H301 C315 0.931 . S
H302 C317 0.930 . S
C303 H291 0.930 . S
C303 C304 1.399 . S
C303 C308 1.399 . S
C304 C303 1.399 . S
C304 C305 1.376 . S
C305 H292 0.930 . S
C305 C304 1.376 . S
C305 C306 1.388 . S
C306 H293 0.930 . S
C306 C305 1.388 . S
C306 C307 1.390 . S
C307 C306 1.390 . S
C307 C308 1.394 . S
C307 C313 1.465 . S
C308 C303 1.399 . S
C308 C307 1.394 . S
C308 C309 1.516 . S
C309 C308 1.516 . S
C309 C310 1.502 . S
C309 C311 1.561 . S
C309 C312 1.526 . S
C310 H294 0.959 . S
C310 H295 0.959 . S
C310 H296 0.961 . S
C310 C309 1.502 . S
C311 H297 0.960 . S
C311 H298 0.961 . S
C311 H299 0.959 . S
C311 C309 1.561 . S
C312 C309 1.526 . S
C312 C313 1.396 . S
C312 C317 1.390 . S
C313 C307 1.465 . S
C313 C312 1.396 . S
C313 C314 1.399 . S
C314 H300 0.929 . S
C314 C313 1.399 . S
C314 C315 1.385 . S
C315 H301 0.931 . S
C315 C314 1.385 . S
C315 C316 1.389 . S
C316 C315 1.389 . S
C316 C317 1.387 . S
C317 H302 0.930 . S
C317 C312 1.390 . S
C317 C316 1.387 . S
H318 C330 0.930 . S
H319 C332 0.930 . S
H320 C333 0.930 . S
H321 C337 0.959 . S
H322 C337 0.959 . S
H323 C337 0.961 . S
H324 C338 0.960 . S
H325 C338 0.961 . S
H326 C338 0.959 . S
H327 C341 0.929 . S
H328 C342 0.931 . S
H329 C344 0.930 . S
C330 H318 0.930 . S
C330 C331 1.399 . S
C330 C335 1.399 . S
C331 C330 1.399 . S
C331 C332 1.376 . S
C332 H319 0.930 . S
C332 C331 1.376 . S
C332 C333 1.388 . S
C333 H320 0.930 . S
C333 C332 1.388 . S
C333 C334 1.390 . S
C334 C333 1.390 . S
C334 C335 1.394 . S
C334 C340 1.465 . S
C335 C330 1.399 . S
C335 C334 1.394 . S
C335 C336 1.516 . S
C336 C335 1.516 . S
C336 C337 1.502 . S
C336 C338 1.561 . S
C336 C339 1.526 . S
C337 H321 0.959 . S
C337 H322 0.959 . S
C337 H323 0.961 . S
C337 C336 1.502 . S
C338 H324 0.960 . S
C338 H325 0.961 . S
C338 H326 0.959 . S
C338 C336 1.561 . S
C339 C336 1.526 . S
C339 C340 1.396 . S
C339 C344 1.390 . S
C340 C334 1.465 . S
C340 C339 1.396 . S
C340 C341 1.399 . S
C341 H327 0.929 . S
C341 C340 1.399 . S
C341 C342 1.385 . S
C342 H328 0.931 . S
C342 C341 1.385 . S
C342 C343 1.389 . S
C343 C342 1.389 . S
C343 C344 1.387 . S
C344 H329 0.930 . S
C344 C339 1.390 . S
C344 C343 1.387 . S
H345 C357 0.930 . S
H346 C359 0.930 . S
H347 C360 0.930 . S
H348 C364 0.959 . S
H349 C364 0.959 . S
H350 C364 0.961 1_556 S
H351 C365 0.976 . S
H352 C365 0.946 1_554 S
H353 C365 0.959 . S
H354 C368 0.929 . S
H355 C369 0.931 . S
H356 C371 0.930 . S
C357 H345 0.930 . S
C357 C358 1.399 . S
C357 C362 1.399 . S
C358 C357 1.399 . S
C358 C359 1.376 . S
C359 H346 0.930 . S
C359 C358 1.376 . S
C359 C360 1.388 . S
C360 H347 0.930 . S
C360 C359 1.388 . S
C360 C361 1.390 . S
C361 C360 1.390 . S
C361 C362 1.394 . S
C361 C367 1.465 1_556 S
C362 C357 1.399 . S
C362 C361 1.394 . S
C362 C363 1.516 1_556 S
C363 C362 1.516 1_554 S
C363 C364 1.502 . S
C363 C365 1.560 1_554 S
C363 C366 1.526 . S
C364 H348 0.959 . S
C364 H349 0.959 . S
C364 H350 0.961 1_554 S
C364 C363 1.502 . S
C365 H351 0.976 . S
C365 H352 0.946 1_556 S
C365 H353 0.959 . S
C365 C363 1.560 1_556 S
C366 C363 1.526 . S
C366 C367 1.396 . S
C366 C371 1.390 . S
C367 C361 1.465 1_554 S
C367 C366 1.396 . S
C367 C368 1.399 . S
C368 H354 0.929 . S
C368 C367 1.399 . S
C368 C369 1.385 . S
C369 H355 0.931 . S
C369 C368 1.385 . S
C369 C370 1.389 . S
C370 C369 1.389 . S
C370 C371 1.387 . S
C371 H356 0.930 . S
C371 C366 1.390 . S
C371 C370 1.387 . S
H372 C384 0.930 . S
H373 C386 0.930 . S
H374 C387 0.930 . S
H375 C391 0.959 . S
H376 C391 0.959 . S
H377 C391 0.961 1_455 S
H378 C392 0.960 . S
H379 C392 0.961 1_655 S
H380 C392 0.959 . S
H381 C395 0.929 . S
H382 C396 0.931 . S
H383 C398 0.930 . S
C384 H372 0.930 . S
C384 C385 1.399 . S
C384 C389 1.399 . S
C385 C384 1.399 . S
C385 C386 1.376 . S
C386 H373 0.930 . S
C386 C385 1.376 . S
C386 C387 1.388 1_554 S
C387 H374 0.930 . S
C387 C386 1.388 1_556 S
C387 C388 1.390 . S
C388 C387 1.390 . S
C388 C389 1.394 1_556 S
C388 C394 1.465 1_455 S
C389 C384 1.399 . S
C389 C388 1.394 1_554 S
C389 C390 1.516 1_455 S
C390 C389 1.516 1_655 S
C390 C391 1.502 . S
C390 C392 1.561 1_654 S
C390 C393 1.526 1_554 S
C391 H375 0.959 . S
C391 H376 0.959 . S
C391 H377 0.961 1_655 S
C391 C390 1.502 . S
C392 H378 0.960 . S
C392 H379 0.961 1_455 S
C392 H380 0.959 . S
C392 C390 1.561 1_456 S
C393 C390 1.526 1_556 S
C393 C394 1.396 . S
C393 C398 1.390 . S
C394 C388 1.465 1_655 S
C394 C393 1.396 . S
C394 C395 1.399 . S
C395 H381 0.929 . S
C395 C394 1.399 . S
C395 C396 1.385 . S
C396 H382 0.931 . S
C396 C395 1.385 . S
C396 C397 1.389 . S
C397 C396 1.389 . S
C397 C398 1.387 . S
C398 H383 0.930 . S
C398 C393 1.390 . S
C398 C397 1.387 . S
H399 C411 0.930 . S
H400 C413 0.930 . S
H401 C414 0.930 . S
H402 C418 0.959 . S
H403 C418 0.959 . S
H404 C418 0.961 1_545 S
H405 C419 0.960 . S
H406 C419 0.961 1_565 S
H407 C419 0.959 . S
H408 C422 0.929 . S
H409 C423 0.931 . S
H410 C425 0.930 . S
C411 H399 0.930 . S
C411 C412 1.399 . S
C411 C416 1.399 . S
C412 C411 1.399 . S
C412 C413 1.376 . S
C413 H400 0.930 . S
C413 C412 1.376 . S
C413 C414 1.388 . S
C414 H401 0.930 . S
C414 C413 1.388 . S
C414 C415 1.390 . S
C415 C414 1.390 . S
C415 C416 1.394 . S
C415 C421 1.465 1_545 S
C416 C411 1.399 . S
C416 C415 1.394 . S
C416 C417 1.516 . S
C417 C416 1.516 . S
C417 C418 1.502 1_545 S
C417 C419 1.561 . S
C417 C420 1.526 1_545 S
C418 H402 0.959 . S
C418 H403 0.959 . S
C418 H404 0.961 1_565 S
C418 C417 1.502 1_565 S
C419 H405 0.960 . S
C419 H406 0.961 1_545 S
C419 H407 0.959 . S
C419 C417 1.561 . S
C420 C417 1.526 1_565 S
C420 C421 1.396 . S
C420 C425 1.390 . S
C421 C415 1.465 1_565 S
C421 C420 1.396 . S
C421 C422 1.399 . S
C422 H408 0.929 . S
C422 C421 1.399 . S
C422 C423 1.385 . S
C423 H409 0.931 . S
C423 C422 1.385 . S
C423 C424 1.389 . S
C424 C423 1.389 . S
C424 C425 1.387 . S
C425 H410 0.930 . S
C425 C420 1.390 . S
C425 C424 1.387 . S
H426 C438 0.930 . S
H427 C440 0.930 . S
H428 C441 0.930 . S
H429 C445 0.959 . S
H430 C445 0.959 1_655 S
H431 C445 0.961 . S
H432 C446 0.960 1_455 S
H433 C446 0.961 . S
H434 C446 0.959 . S
H435 C449 0.929 . S
H436 C450 0.931 . S
H437 C452 0.930 . S
C438 H426 0.930 . S
C438 C439 1.399 . S
C438 C443 1.399 . S
C439 C438 1.399 . S
C439 C440 1.376 . S
C440 H427 0.930 . S
C440 C439 1.376 . S
C440 C441 1.388 . S
C441 H428 0.930 . S
C441 C440 1.388 . S
C441 C442 1.390 . S
C442 C441 1.390 . S
C442 C443 1.394 . S
C442 C448 1.465 1_455 S
C443 C438 1.399 . S
C443 C442 1.394 . S
C443 C444 1.516 . S
C444 C443 1.516 . S
C444 C445 1.502 . S
C444 C446 1.561 1_455 S
C444 C447 1.526 1_455 S
C445 H429 0.959 . S
C445 H430 0.959 1_455 S
C445 H431 0.961 . S
C445 C444 1.502 . S
C446 H432 0.960 1_655 S
C446 H433 0.961 . S
C446 H434 0.959 . S
C446 C444 1.561 1_655 S
C447 C444 1.526 1_655 S
C447 C448 1.396 . S
C447 C452 1.390 . S
C448 C442 1.465 1_655 S
C448 C447 1.396 . S
C448 C449 1.399 . S
C449 H435 0.929 . S
C449 C448 1.399 . S
C449 C450 1.385 . S
C450 H436 0.931 . S
C450 C449 1.385 . S
C450 C451 1.389 . S
C451 C450 1.389 . S
C451 C452 1.387 . S
C452 H437 0.930 . S
C452 C447 1.390 . S
C452 C451 1.387 . S
H453 C465 0.930 . S
H454 C467 0.930 . S
H455 C468 0.930 . S
H456 C472 0.959 1_565 S
H457 C472 0.959 1_565 S
H458 C472 0.961 . S
H459 C473 0.960 . S
H460 C473 0.943 1_565 S
H461 C473 0.959 . S
H462 C476 0.929 . S
H463 C477 0.931 . S
H464 C479 0.930 . S
C465 H453 0.930 . S
C465 C466 1.399 . S
C465 C470 1.399 . S
C466 C465 1.399 . S
C466 C467 1.376 . S
C467 H454 0.930 . S
C467 C466 1.376 . S
C467 C468 1.388 . S
C468 H455 0.930 . S
C468 C467 1.388 . S
C468 C469 1.390 . S
C469 C468 1.390 . S
C469 C470 1.394 . S
C469 C475 1.465 1_545 S
C470 C465 1.399 . S
C470 C469 1.394 . S
C470 C471 1.516 . S
C471 C470 1.516 . S
C471 C472 1.502 . S
C471 C473 1.561 . S
C471 C474 1.526 1_545 S
C472 H456 0.959 1_545 S
C472 H457 0.959 1_545 S
C472 H458 0.961 . S
C472 C471 1.502 . S
C473 H459 0.960 . S
C473 H460 0.943 1_545 S
C473 H461 0.959 . S
C473 C471 1.561 . S
C474 C471 1.526 1_565 S
C474 C475 1.396 . S
C474 C479 1.390 . S
C475 C469 1.465 1_565 S
C475 C474 1.396 . S
C475 C476 1.399 . S
C476 H462 0.929 . S
C476 C475 1.399 . S
C476 C477 1.385 . S
C477 H463 0.931 . S
C477 C476 1.385 . S
C477 C478 1.389 . S
C478 C477 1.389 . S
C478 C479 1.387 . S
C479 H464 0.930 . S
C479 C474 1.390 . S
C479 C478 1.387 . S
H480 C492 0.930 . S
H481 C494 0.930 . S
H482 C495 0.930 . S
H483 C499 0.959 . S
H484 C499 0.959 . S
H485 C499 0.961 . S
H486 C500 0.960 . S
H487 C500 0.961 . S
H488 C500 0.959 . S
H489 C503 0.929 . S
H490 C504 0.931 . S
H491 C506 0.930 . S
C492 H480 0.930 . S
C492 C493 1.399 . S
C492 C497 1.399 . S
C493 C492 1.399 . S
C493 C494 1.376 . S
C494 H481 0.930 . S
C494 C493 1.376 . S
C494 C495 1.388 . S
C495 H482 0.930 . S
C495 C494 1.388 . S
C495 C496 1.390 . S
C496 C495 1.390 . S
C496 C497 1.394 . S
C496 C502 1.465 . S
C497 C492 1.399 . S
C497 C496 1.394 . S
C497 C498 1.516 . S
C498 C497 1.516 . S
C498 C499 1.502 . S
C498 C500 1.561 . S
C498 C501 1.526 . S
C499 H483 0.959 . S
C499 H484 0.959 . S
C499 H485 0.961 . S
C499 C498 1.502 . S
C500 H486 0.960 . S
C500 H487 0.961 . S
C500 H488 0.959 . S
C500 C498 1.561 . S
C501 C498 1.526 . S
C501 C502 1.396 . S
C501 C506 1.390 . S
C502 C496 1.465 . S
C502 C501 1.396 . S
C502 C503 1.399 . S
C503 H489 0.929 . S
C503 C502 1.399 . S
C503 C504 1.385 . S
C504 H490 0.931 . S
C504 C503 1.385 . S
C504 C505 1.389 . S
C505 C504 1.389 . S
C505 C506 1.387 . S
C506 H491 0.930 . S
C506 C501 1.390 . S
C506 C505 1.387 . S
H507 C519 0.930 . S
H508 C521 0.930 . S
H509 C522 0.930 . S
H510 C526 0.959 . S
H511 C526 0.959 . S
H512 C526 0.961 . S
H513 C527 0.960 . S
H514 C527 0.961 . S
H515 C527 0.959 . S
H516 C530 0.929 . S
H517 C531 0.931 . S
H518 C533 0.930 . S
C519 H507 0.930 . S
C519 C520 1.399 . S
C519 C524 1.399 . S
C520 C519 1.399 . S
C520 C521 1.376 . S
C521 H508 0.930 . S
C521 C520 1.376 . S
C521 C522 1.388 . S
C522 H509 0.930 . S
C522 C521 1.388 . S
C522 C523 1.390 . S
C523 C522 1.390 . S
C523 C524 1.394 . S
C523 C529 1.465 . S
C524 C519 1.399 . S
C524 C523 1.394 . S
C524 C525 1.516 . S
C525 C524 1.516 . S
C525 C526 1.502 . S
C525 C527 1.561 . S
C525 C528 1.526 . S
C526 H510 0.959 . S
C526 H511 0.959 . S
C526 H512 0.961 . S
C526 C525 1.502 . S
C527 H513 0.960 . S
C527 H514 0.961 . S
C527 H515 0.959 . S
C527 C525 1.561 . S
C528 C525 1.526 . S
C528 C529 1.396 . S
C528 C533 1.390 . S
C529 C523 1.465 . S
C529 C528 1.396 . S
C529 C530 1.399 . S
C530 H516 0.929 . S
C530 C529 1.399 . S
C530 C531 1.385 . S
C531 H517 0.931 . S
C531 C530 1.385 . S
C531 C532 1.389 . S
C532 C531 1.389 . S
C532 C533 1.387 . S
C533 H518 0.930 . S
C533 C528 1.390 . S
C533 C532 1.387 . S
H534 C546 0.930 . S
H535 C548 0.930 . S
H536 C549 0.930 . S
H537 C553 0.959 . S
H538 C553 0.959 . S
H539 C553 0.961 . S
H540 C554 0.960 . S
H541 C554 0.961 . S
H542 C554 0.959 . S
H543 C557 0.929 . S
H544 C558 0.931 . S
H545 C560 0.930 . S
C546 H534 0.930 . S
C546 C547 1.399 . S
C546 C551 1.399 . S
C547 C546 1.399 . S
C547 C548 1.376 . S
C548 H535 0.930 . S
C548 C547 1.376 . S
C548 C549 1.388 . S
C549 H536 0.930 . S
C549 C548 1.388 . S
C549 C550 1.390 . S
C550 C549 1.390 . S
C550 C551 1.394 . S
C550 C556 1.465 . S
C551 C546 1.399 . S
C551 C550 1.394 . S
C551 C552 1.516 . S
C552 C551 1.516 . S
C552 C553 1.502 . S
C552 C554 1.561 . S
C552 C555 1.526 . S
C553 H537 0.959 . S
C553 H538 0.959 . S
C553 H539 0.961 . S
C553 C552 1.502 . S
C554 H540 0.960 . S
C554 H541 0.961 . S
C554 H542 0.959 . S
C554 C552 1.561 . S
C555 C552 1.526 . S
C555 C556 1.396 . S
C555 C560 1.390 . S
C556 C550 1.465 . S
C556 C555 1.396 . S
C556 C557 1.399 . S
C557 H543 0.929 . S
C557 C556 1.399 . S
C557 C558 1.385 . S
C558 H544 0.931 . S
C558 C557 1.385 . S
C558 C559 1.389 . S
C559 C558 1.389 . S
C559 C560 1.387 . S
C560 H545 0.930 . S
C560 C555 1.390 . S
C560 C559 1.387 . S
H561 C573 0.930 . S
H562 C575 0.930 . S
H563 C576 0.930 . S
H564 C580 0.959 . S
H565 C580 0.959 . S
H566 C580 0.961 . S
H567 C581 0.960 . S
H568 C581 0.961 . S
H569 C581 0.959 . S
H570 C584 0.929 . S
H571 C585 0.931 . S
H572 C587 0.930 . S
C573 H561 0.930 . S
C573 C574 1.399 . S
C573 C578 1.399 . S
C574 C573 1.399 . S
C574 C575 1.376 . S
C575 H562 0.930 . S
C575 C574 1.376 . S
C575 C576 1.388 . S
C576 H563 0.930 . S
C576 C575 1.388 . S
C576 C577 1.390 . S
C577 C576 1.390 . S
C577 C578 1.394 . S
C577 C583 1.465 . S
C578 C573 1.399 . S
C578 C577 1.394 . S
C578 C579 1.516 . S
C579 C578 1.516 . S
C579 C580 1.502 . S
C579 C581 1.561 . S
C579 C582 1.526 . S
C580 H564 0.959 . S
C580 H565 0.959 . S
C580 H566 0.961 . S
C580 C579 1.502 . S
C581 H567 0.960 . S
C581 H568 0.961 . S
C581 H569 0.959 . S
C581 C579 1.561 . S
C582 C579 1.526 . S
C582 C583 1.396 . S
C582 C587 1.390 . S
C583 C577 1.465 . S
C583 C582 1.396 . S
C583 C584 1.399 . S
C584 H570 0.929 . S
C584 C583 1.399 . S
C584 C585 1.385 . S
C585 H571 0.931 . S
C585 C584 1.385 . S
C585 C586 1.389 . S
C586 C585 1.389 . S
C586 C587 1.387 . S
C587 H572 0.930 . S
C587 C582 1.390 . S
C587 C586 1.387 . S
H588 C600 0.930 . S
H589 C602 0.930 . S
H590 C603 0.930 . S
H591 C607 0.959 . S
H592 C607 0.959 . S
H593 C607 0.961 . S
H594 C608 0.960 . S
H595 C608 0.961 . S
H596 C608 0.959 . S
H597 C611 0.929 . S
H598 C612 0.931 . S
H599 C614 0.930 . S
C600 H588 0.930 . S
C600 C601 1.399 . S
C600 C605 1.399 . S
C601 C600 1.399 . S
C601 C602 1.376 . S
C602 H589 0.930 . S
C602 C601 1.376 . S
C602 C603 1.388 . S
C603 H590 0.930 . S
C603 C602 1.388 . S
C603 C604 1.390 . S
C604 C603 1.390 . S
C604 C605 1.394 . S
C604 C610 1.465 . S
C605 C600 1.399 . S
C605 C604 1.394 . S
C605 C606 1.516 . S
C606 C605 1.516 . S
C606 C607 1.502 . S
C606 C608 1.561 . S
C606 C609 1.526 . S
C607 H591 0.959 . S
C607 H592 0.959 . S
C607 H593 0.961 . S
C607 C606 1.502 . S
C608 H594 0.960 . S
C608 H595 0.961 . S
C608 H596 0.959 . S
C608 C606 1.561 . S
C609 C606 1.526 . S
C609 C610 1.396 . S
C609 C614 1.390 . S
C610 C604 1.465 . S
C610 C609 1.396 . S
C610 C611 1.399 . S
C611 H597 0.929 . S
C611 C610 1.399 . S
C611 C612 1.385 . S
C612 H598 0.931 . S
C612 C611 1.385 . S
C612 C613 1.389 . S
C613 C612 1.389 . S
C613 C614 1.387 . S
C614 H599 0.930 . S
C614 C609 1.390 . S
C614 C613 1.387 . S
H615 C627 0.930 . S
H616 C629 0.930 . S
H617 C630 0.930 . S
H618 C634 0.959 . S
H619 C634 0.959 . S
H620 C634 0.961 . S
H621 C635 0.960 . S
H622 C635 0.961 . S
H623 C635 0.959 . S
H624 C638 0.929 . S
H625 C639 0.931 . S
H626 C641 0.930 . S
C627 H615 0.930 . S
C627 C628 1.399 . S
C627 C632 1.399 . S
C628 C627 1.399 . S
C628 C629 1.376 . S
C629 H616 0.930 . S
C629 C628 1.376 . S
C629 C630 1.388 . S
C630 H617 0.930 . S
C630 C629 1.388 . S
C630 C631 1.390 . S
C631 C630 1.390 . S
C631 C632 1.394 . S
C631 C637 1.465 . S
C632 C627 1.399 . S
C632 C631 1.394 . S
C632 C633 1.516 . S
C633 C632 1.516 . S
C633 C634 1.502 . S
C633 C635 1.561 . S
C633 C636 1.526 . S
C634 H618 0.959 . S
C634 H619 0.959 . S
C634 H620 0.961 . S
C634 C633 1.502 . S
C635 H621 0.960 . S
C635 H622 0.961 . S
C635 H623 0.959 . S
C635 C633 1.561 . S
C636 C633 1.526 . S
C636 C637 1.396 . S
C636 C641 1.390 . S
C637 C631 1.465 . S
C637 C636 1.396 . S
C637 C638 1.399 . S
C638 H624 0.929 . S
C638 C637 1.399 . S
C638 C639 1.385 . S
C639 H625 0.931 . S
C639 C638 1.385 . S
C639 C640 1.389 . S
C640 C639 1.389 . S
C640 C641 1.387 . S
C641 H626 0.930 . S
C641 C636 1.390 . S
C641 C640 1.387 . S
H642 C654 0.930 . S
H643 C656 0.930 . S
H644 C657 0.930 . S
H645 C661 0.959 . S
H646 C661 0.959 . S
H647 C661 0.961 . S
H648 C662 0.960 . S
H649 C662 0.961 . S
H650 C662 0.959 . S
H651 C665 0.929 . S
H652 C666 0.931 . S
H653 C668 0.930 . S
C654 H642 0.930 . S
C654 C655 1.399 . S
C654 C659 1.399 . S
C655 C654 1.399 . S
C655 C656 1.376 . S
C656 H643 0.930 . S
C656 C655 1.376 . S
C656 C657 1.388 . S
C657 H644 0.930 . S
C657 C656 1.388 . S
C657 C658 1.390 . S
C658 C657 1.390 . S
C658 C659 1.394 . S
C658 C664 1.465 . S
C659 C654 1.399 . S
C659 C658 1.394 . S
C659 C660 1.516 . S
C660 C659 1.516 . S
C660 C661 1.502 . S
C660 C662 1.561 . S
C660 C663 1.526 . S
C661 H645 0.959 . S
C661 H646 0.959 . S
C661 H647 0.961 . S
C661 C660 1.502 . S
C662 H648 0.960 . S
C662 H649 0.961 . S
C662 H650 0.959 . S
C662 C660 1.561 . S
C663 C660 1.526 . S
C663 C664 1.396 . S
C663 C668 1.390 . S
C664 C658 1.465 . S
C664 C663 1.396 . S
C664 C665 1.399 . S
C665 H651 0.929 . S
C665 C664 1.399 . S
C665 C666 1.385 . S
C666 H652 0.931 . S
C666 C665 1.385 . S
C666 C667 1.389 . S
C667 C666 1.389 . S
C667 C668 1.387 . S
C668 H653 0.930 . S
C668 C663 1.390 . S
C668 C667 1.387 . S
H669 C681 0.930 . S
H670 C683 0.930 . S
H671 C684 0.930 . S
H672 C688 0.959 . S
H673 C688 0.959 . S
H674 C688 0.961 . S
H675 C689 0.960 . S
H676 C689 0.961 . S
H677 C689 0.959 . S
H678 C692 0.929 . S
H679 C693 0.931 . S
H680 C695 0.930 . S
C681 H669 0.930 . S
C681 C682 1.399 . S
C681 C686 1.399 . S
C682 C681 1.399 . S
C682 C683 1.376 . S
C683 H670 0.930 . S
C683 C682 1.376 . S
C683 C684 1.388 . S
C684 H671 0.930 . S
C684 C683 1.388 . S
C684 C685 1.390 . S
C685 C684 1.390 . S
C685 C686 1.394 . S
C685 C691 1.465 . S
C686 C681 1.399 . S
C686 C685 1.394 . S
C686 C687 1.516 . S
C687 C686 1.516 . S
C687 C688 1.502 . S
C687 C689 1.561 . S
C687 C690 1.526 . S
C688 H672 0.959 . S
C688 H673 0.959 . S
C688 H674 0.961 . S
C688 C687 1.502 . S
C689 H675 0.960 . S
C689 H676 0.961 . S
C689 H677 0.959 . S
C689 C687 1.561 . S
C690 C687 1.526 . S
C690 C691 1.396 . S
C690 C695 1.390 . S
C691 C685 1.465 . S
C691 C690 1.396 . S
C691 C692 1.399 . S
C692 H678 0.929 . S
C692 C691 1.399 . S
C692 C693 1.385 . S
C693 H679 0.931 . S
C693 C692 1.385 . S
C693 C694 1.389 . S
C694 C693 1.389 . S
C694 C695 1.387 . S
C695 H680 0.930 . S
C695 C690 1.390 . S
C695 C694 1.387 . S
H696 C708 0.930 . S
H697 C710 0.930 . S
H698 C711 0.930 . S
H699 C715 0.959 . S
H700 C715 0.959 . S
H701 C715 0.961 . S
H702 C716 0.960 . S
H703 C716 0.961 . S
H704 C716 0.959 . S
H705 C719 0.929 . S
H706 C720 0.931 . S
H707 C722 0.930 . S
C708 H696 0.930 . S
C708 C709 1.399 . S
C708 C713 1.399 . S
C709 C708 1.399 . S
C709 C710 1.376 . S
C710 H697 0.930 . S
C710 C709 1.376 . S
C710 C711 1.388 . S
C711 H698 0.930 . S
C711 C710 1.388 . S
C711 C712 1.390 . S
C712 C711 1.390 . S
C712 C713 1.394 . S
C712 C718 1.465 . S
C713 C708 1.399 . S
C713 C712 1.394 . S
C713 C714 1.516 . S
C714 C713 1.516 . S
C714 C715 1.502 . S
C714 C716 1.561 . S
C714 C717 1.526 . S
C715 H699 0.959 . S
C715 H700 0.959 . S
C715 H701 0.961 . S
C715 C714 1.502 . S
C716 H702 0.960 . S
C716 H703 0.961 . S
C716 H704 0.959 . S
C716 C714 1.561 . S
C717 C714 1.526 . S
C717 C718 1.396 . S
C717 C722 1.390 . S
C718 C712 1.465 . S
C718 C717 1.396 . S
C718 C719 1.399 . S
C719 H705 0.929 . S
C719 C718 1.399 . S
C719 C720 1.385 . S
C720 H706 0.931 . S
C720 C719 1.385 . S
C720 C721 1.389 . S
C721 C720 1.389 . S
C721 C722 1.387 . S
C722 H707 0.930 . S
C722 C717 1.390 . S
C722 C721 1.387 . S
H723 C735 0.930 . S
H724 C737 0.930 . S
H725 C738 0.930 . S
H726 C742 0.959 . S
H727 C742 0.959 . S
H728 C742 0.961 . S
H729 C743 0.960 . S
H730 C743 0.961 . S
H731 C743 0.959 . S
H732 C746 0.929 . S
H733 C747 0.931 . S
H734 C749 0.930 . S
C735 H723 0.930 . S
C735 C736 1.399 . S
C735 C740 1.399 . S
C736 C735 1.399 . S
C736 C737 1.376 . S
C737 H724 0.930 . S
C737 C736 1.376 . S
C737 C738 1.388 . S
C738 H725 0.930 . S
C738 C737 1.388 . S
C738 C739 1.390 . S
C739 C738 1.390 . S
C739 C740 1.394 . S
C739 C745 1.465 . S
C740 C735 1.399 . S
C740 C739 1.394 . S
C740 C741 1.516 . S
C741 C740 1.516 . S
C741 C742 1.502 . S
C741 C743 1.561 . S
C741 C744 1.526 . S
C742 H726 0.959 . S
C742 H727 0.959 . S
C742 H728 0.961 . S
C742 C741 1.502 . S
C743 H729 0.960 . S
C743 H730 0.961 . S
C743 H731 0.959 . S
C743 C741 1.561 . S
C744 C741 1.526 . S
C744 C745 1.396 . S
C744 C749 1.390 . S
C745 C739 1.465 . S
C745 C744 1.396 . S
C745 C746 1.399 . S
C746 H732 0.929 . S
C746 C745 1.399 . S
C746 C747 1.385 . S
C747 H733 0.931 . S
C747 C746 1.385 . S
C747 C748 1.389 . S
C748 C747 1.389 . S
C748 C749 1.387 . S
C749 H734 0.930 . S
C749 C744 1.390 . S
C749 C748 1.387 . S
H750 C762 0.930 . S
H751 C764 0.930 . S
H752 C765 0.930 . S
H753 C769 0.959 . S
H754 C769 0.959 . S
H755 C769 0.961 . S
H756 C770 0.960 . S
H757 C770 0.961 . S
H758 C770 0.959 . S
H759 C773 0.929 . S
H760 C774 0.931 . S
H761 C776 0.930 . S
C762 H750 0.930 . S
C762 C763 1.399 . S
C762 C767 1.399 . S
C763 C762 1.399 . S
C763 C764 1.376 . S
C764 H751 0.930 . S
C764 C763 1.376 . S
C764 C765 1.388 . S
C765 H752 0.930 . S
C765 C764 1.388 . S
C765 C766 1.390 . S
C766 C765 1.390 . S
C766 C767 1.394 . S
C766 C772 1.465 . S
C767 C762 1.399 . S
C767 C766 1.394 . S
C767 C768 1.516 . S
C768 C767 1.516 . S
C768 C769 1.502 . S
C768 C770 1.561 . S
C768 C771 1.526 . S
C769 H753 0.959 . S
C769 H754 0.959 . S
C769 H755 0.961 . S
C769 C768 1.502 . S
C770 H756 0.960 . S
C770 H757 0.961 . S
C770 H758 0.959 . S
C770 C768 1.561 . S
C771 C768 1.526 . S
C771 C772 1.396 . S
C771 C776 1.390 . S
C772 C766 1.465 . S
C772 C771 1.396 . S
C772 C773 1.399 . S
C773 H759 0.929 . S
C773 C772 1.399 . S
C773 C774 1.385 . S
C774 H760 0.931 . S
C774 C773 1.385 . S
C774 C775 1.389 . S
C775 C774 1.389 . S
C775 C776 1.387 . S
C776 H761 0.930 . S
C776 C771 1.390 . S
C776 C775 1.387 . S
H777 C789 0.930 . S
H778 C791 0.930 . S
H779 C792 0.930 . S
H780 C796 0.959 . S
H781 C796 0.959 . S
H782 C796 0.961 . S
H783 C797 0.960 . S
H784 C797 0.961 . S
H785 C797 0.959 . S
H786 C800 0.929 . S
H787 C801 0.931 . S
H788 C803 0.930 . S
C789 H777 0.930 . S
C789 C790 1.399 . S
C789 C794 1.399 . S
C790 C789 1.399 . S
C790 C791 1.376 . S
C791 H778 0.930 . S
C791 C790 1.376 . S
C791 C792 1.388 . S
C792 H779 0.930 . S
C792 C791 1.388 . S
C792 C793 1.390 . S
C793 C792 1.390 . S
C793 C794 1.394 . S
C793 C799 1.465 . S
C794 C789 1.399 . S
C794 C793 1.394 . S
C794 C795 1.516 . S
C795 C794 1.516 . S
C795 C796 1.502 . S
C795 C797 1.561 . S
C795 C798 1.526 . S
C796 H780 0.959 . S
C796 H781 0.959 . S
C796 H782 0.961 . S
C796 C795 1.502 . S
C797 H783 0.960 . S
C797 H784 0.961 . S
C797 H785 0.959 . S
C797 C795 1.561 . S
C798 C795 1.526 . S
C798 C799 1.396 . S
C798 C803 1.390 . S
C799 C793 1.465 . S
C799 C798 1.396 . S
C799 C800 1.399 . S
C800 H786 0.929 . S
C800 C799 1.399 . S
C800 C801 1.385 . S
C801 H787 0.931 . S
C801 C800 1.385 . S
C801 C802 1.389 . S
C802 C801 1.389 . S
C802 C803 1.387 . S
C803 H788 0.930 . S
C803 C798 1.390 . S
C803 C802 1.387 . S
C277 N146 0.490 . S
C289 N14 0.641 . S
C304 N47 0.605 . S
C316 N179 0.527 . S
C331 N80 0.499 . S
C343 N212 0.632 . S
C358 N113 0.625 . S
C370 N245 0.507 . S
C385 C17 1.051 . S
C397 C215 1.039 . S
C412 C50 1.046 . S
C424 C248 1.046 . S
C439 C149 1.027 . S
C451 C83 1.040 . S
C466 C182 1.040 . S
C478 C116 1.050 . S
C493 C259 0.380 . S
C505 C28 0.560 . S
C520 C61 0.561 . S
C532 C160 0.375 . S
C547 C193 0.567 . S
C559 C94 0.517 . S
C574 C226 0.567 . S
C586 C127 0.516 . S
C601 C8 1.882 . S
C613 N38 1.897 . S
C628 C41 1.919 . S
C640 N71 1.927 . S
C655 N104 1.917 . S
C667 C74 1.900 . S
C682 N5 1.941 . S
C694 C107 1.930 . S
C709 C140 1.919 . S
C721 N236 1.933 . S
C736 N137 1.896 . S
C748 C173 1.879 . S
C763 C206 1.920 . S
C775 N170 1.934 . S
C790 C239 1.923 . S
C802 N203 1.932 . S
