# Generated by pormake.
# Topology mdf, (4)-cn, num edge types: 1
# Building blocks:
#     Node 0, Type 0, BuildingBlock: QUQFOY_clean_sbu_1, # of connection points: 4
#     Node 1, Type 0, BuildingBlock: QUQFOY_clean_sbu_1, # of connection points: 4
#     Node 2, Type 0, BuildingBlock: QUQFOY_clean_sbu_1, # of connection points: 4
#     Node 3, Type 0, BuildingBlock: QUQFOY_clean_sbu_1, # of connection points: 4
#     Node 4, Type 0, BuildingBlock: QUQFOY_clean_sbu_1, # of connection points: 4
#     Node 5, Type 0, BuildingBlock: QUQFOY_clean_sbu_1, # of connection points: 4
#     Node 6, Type 0, BuildingBlock: QUQFOY_clean_sbu_1, # of connection points: 4
#     Node 7, Type 0, BuildingBlock: QUQFOY_clean_sbu_1, # of connection points: 4
#     Edge 8, Type (0, 0), BuildingBlock: FUNLAD_clean_linker_0, # of connection points: 2
#     Edge 9, Type (0, 0), BuildingBlock: FUNLAD_clean_linker_0, # of connection points: 2
#     Edge 10, Type (0, 0), BuildingBlock: FUNLAD_clean_linker_0, # of connection points: 2
#     Edge 11, Type (0, 0), BuildingBlock: FUNLAD_clean_linker_0, # of connection points: 2
#     Edge 12, Type (0, 0), BuildingBlock: FUNLAD_clean_linker_0, # of connection points: 2
#     Edge 13, Type (0, 0), BuildingBlock: FUNLAD_clean_linker_0, # of connection points: 2
#     Edge 14, Type (0, 0), BuildingBlock: FUNLAD_clean_linker_0, # of connection points: 2
#     Edge 15, Type (0, 0), BuildingBlock: FUNLAD_clean_linker_0, # of connection points: 2
#     Edge 16, Type (0, 0), BuildingBlock: FUNLAD_clean_linker_0, # of connection points: 2
#     Edge 17, Type (0, 0), BuildingBlock: FUNLAD_clean_linker_0, # of connection points: 2
#     Edge 18, Type (0, 0), BuildingBlock: FUNLAD_clean_linker_0, # of connection points: 2
#     Edge 19, Type (0, 0), BuildingBlock: FUNLAD_clean_linker_0, # of connection points: 2
#     Edge 20, Type (0, 0), BuildingBlock: FUNLAD_clean_linker_0, # of connection points: 2
#     Edge 21, Type (0, 0), BuildingBlock: FUNLAD_clean_linker_0, # of connection points: 2
#     Edge 22, Type (0, 0), BuildingBlock: FUNLAD_clean_linker_0, # of connection points: 2
#     Edge 23, Type (0, 0), BuildingBlock: FUNLAD_clean_linker_0, # of connection points: 2
# Relax obj value: 0.009
# Max RMSD: 0.067
# Mean RMSD: 0.067
data_MOF--net-mdf--node1-QUQFOY_clean_sbu_1--edge1-FUNLAD_clean_linker_0
_symmetry_space_group_name_H-M    P1
_symmetry_Int_Tables_number       1
_symmetry_cell_setting            triclinic
loop_
_symmetry_equiv_pos_as_xyz
'x, y, z'
_cell_length_a     45.669524
_cell_length_b     45.666219
_cell_length_c     14.218851
_cell_angle_alpha  90.070278
_cell_angle_beta   90.088872
_cell_angle_gamma 89.921087
loop_
_atom_site_label
_atom_site_type_symbol
_atom_site_fract_x
_atom_site_fract_y
_atom_site_fract_z
_atom_type_partial_charge
O0 O 0.30576 0.50254 0.34535 0.0
Cd1 Cd 0.27231 0.52728 0.28809 0.0
Cd2 Cd 0.25333 0.5271 0.46801 0.0
O3 O 0.29251 0.50549 0.49425 0.0
O4 O 0.28738 0.54135 0.16459 0.0
O5 O 0.27692 0.57114 0.28261 0.0
C6 C 0.28665 0.5676 0.19805 0.0
C7 C 0.23798 0.56747 0.55674 0.0
C8 C 0.31031 0.49659 0.4315 0.0
C9 C 0.21526 0.49713 0.32338 0.0
O10 O 0.21984 0.50271 0.40973 0.0
O11 O 0.2331 0.5061 0.26119 0.0
O12 O 0.23688 0.54122 0.58987 0.0
O13 O 0.2492 0.57106 0.47417 0.0
O14 O 0.51742 0.72115 0.68789 0.0
Cd15 Cd 0.49032 0.75515 0.72807 0.0
Cd16 Cd 0.49414 0.76797 0.54387 0.0
O17 O 0.51466 0.72742 0.53442 0.0
O18 O 0.47508 0.74343 0.85399 0.0
O19 O 0.44678 0.748 0.72858 0.0
C20 C 0.44948 0.74117 0.81634 0.0
C21 C 0.4541 0.78138 0.45045 0.0
C22 C 0.5237 0.71281 0.60498 0.0
C23 C 0.52101 0.8109 0.67928 0.0
O24 O 0.51879 0.80257 0.59419 0.0
O25 O 0.50927 0.79599 0.74464 0.0
O26 O 0.48021 0.7799 0.4162 0.0
O27 O 0.45047 0.77381 0.53725 0.0
O28 O 0.30534 0.01788 0.91538 0.0
Cd29 Cd 0.27216 0.99333 0.97463 0.0
Cd30 Cd 0.25254 0.9931 0.79365 0.0
O31 O 0.29231 0.01337 0.76653 0.0
O32 O 0.28795 0.97942 0.0978 0.0
O33 O 0.27738 0.94945 0.98038 0.0
C34 C 0.28758 0.95315 0.06441 0.0
C35 C 0.2343 0.95505 0.69969 0.0
C36 C 0.31004 0.02283 0.8287 0.0
C37 C 0.21536 0.02415 0.93911 0.0
O38 O 0.22008 0.01862 0.85285 0.0
O39 O 0.23288 0.0147 1.00183 0.0
O40 O 0.23512 0.98172 0.67023 0.0
O41 O 0.24551 0.94953 0.78128 0.0
O42 O 1.00171 0.71822 0.09328 0.0
Cd43 Cd 0.02796 0.75155 0.04358 0.0
Cd44 Cd 0.02882 0.76459 0.22806 0.0
O45 O 1.00835 0.72442 0.24556 0.0
O46 O 0.03948 0.73732 0.91625 0.0
O47 O 0.07134 0.74366 0.03161 0.0
C48 C 0.06594 0.73483 0.94696 0.0
C49 C 0.06975 0.77916 0.31529 0.0
C50 C 0.99746 0.70993 0.17747 0.0
C51 C 0.9985 0.80722 0.09721 0.0
O52 O 1.00306 0.79881 0.18117 0.0
O53 O 1.00862 0.79245 0.02854 0.0
O54 O 0.04395 0.77846 0.352 0.0
O55 O 0.07265 0.76995 0.2298 0.0
O56 O 0.80096 0.99966 0.82931 0.0
Cd57 Cd 0.76835 0.02754 0.78356 0.0
Cd58 Cd 0.75347 0.02377 0.96623 0.0
O59 O 0.79352 1.0027 0.98201 0.0
O60 O 0.78323 0.03989 0.65813 0.0
O61 O 0.77721 0.07084 0.77606 0.0
C62 C 0.78612 0.06601 0.69124 0.0
C63 C 0.73941 0.0638 0.05853 0.0
C64 C 0.8085 0.99328 0.91288 0.0
C65 C 0.71192 0.99742 0.82468 0.0
O66 O 0.71942 0.99941 0.91065 0.0
O67 O 0.72746 1.00931 0.76114 0.0
O68 O 0.73998 0.03757 0.09223 0.0
O69 O 0.74812 0.06751 0.97289 0.0
O70 O 0.01923 0.21799 0.1579 0.0
Cd71 Cd 0.99506 0.25147 0.21733 0.0
Cd72 Cd 0.99477 0.27064 0.03817 0.0
O73 O 0.01555 0.23117 0.00922 0.0
O74 O 0.9814 0.23503 0.33967 0.0
O75 O 0.95116 0.24774 0.22513 0.0
C76 C 0.95501 0.23654 0.3076 0.0
C77 C 0.95198 0.28585 0.96196 0.0
C78 C 0.02465 0.21332 0.0715 0.0
C79 C 0.02586 0.30819 0.18124 0.0
O80 O 0.02012 0.30367 0.09488 0.0
O81 O 0.0167 0.2905 0.24373 0.0
O82 O 0.97705 0.28663 0.92018 0.0
O83 O 0.95106 0.27514 0.04599 0.0
O84 O 0.79744 0.51997 0.44034 0.0
Cd85 Cd 0.76416 0.49222 0.48093 0.0
Cd86 Cd 0.75263 0.49346 0.29598 0.0
O87 O 0.7927 0.51481 0.28677 0.0
O88 O 0.77711 0.47381 0.60174 0.0
O89 O 0.77174 0.44907 0.46899 0.0
C90 C 0.7796 0.44944 0.55631 0.0
C91 C 0.73962 0.45341 0.20181 0.0
C92 C 0.80635 0.52528 0.3574 0.0
C93 C 0.70844 0.52137 0.42737 0.0
O94 O 0.71754 0.51792 0.34361 0.0
O95 O 0.72287 0.51069 0.49594 0.0
O96 O 0.74013 0.47967 0.16847 0.0
O97 O 0.74811 0.44964 0.28763 0.0
O98 O 0.50483 0.21553 0.59267 0.0
Cd99 Cd 0.52945 0.24842 0.53217 0.0
Cd100 Cd 0.52969 0.26863 0.71279 0.0
O101 O 0.50941 0.22894 0.74115 0.0
O102 O 0.54305 0.23223 0.40927 0.0
O103 O 0.57328 0.243 0.52583 0.0
C104 C 0.56938 0.23259 0.44216 0.0
C105 C 0.56746 0.28746 0.80678 0.0
C106 C 0.49988 0.21107 0.67948 0.0
C107 C 0.49878 0.30537 0.56581 0.0
O108 O 0.50423 0.30087 0.65224 0.0
O109 O 0.50823 0.28767 0.50366 0.0
O110 O 0.54075 0.28652 0.8358 0.0
O111 O 0.57321 0.27596 0.72578 0.0
C112 C 0.3986 0.72051 0.82603 0.0
C113 C 0.42469 0.72902 0.87092 0.0
C114 C 0.37679 0.70563 0.87594 0.0
C115 C 0.38067 0.69895 0.97188 0.0
C116 C 0.40597 0.70906 0.01769 0.0
C117 C 0.42781 0.72373 0.96779 0.0
C118 C 0.35963 0.6806 0.02588 0.0
C119 C 0.34265 0.65994 0.98553 0.0
C120 C 0.32584 0.63777 0.04006 0.0
C121 C 0.31994 0.61065 0.99759 0.0
C122 C 0.30648 0.5882 0.04819 0.0
C123 C 0.29822 0.59245 0.1424 0.0
H124 H 0.31967 0.66342 0.1675 0.0
C125 C 0.30273 0.62006 0.18375 0.0
C126 C 0.31641 0.64253 0.13316 0.0
H127 H 0.29638 0.62412 0.25597 0.0
H128 H 0.39541 0.7245 0.75163 0.0
H129 H 0.35715 0.69913 0.83879 0.0
H130 H 0.40943 0.70458 0.09171 0.0
H131 H 0.44751 0.73024 0.00479 0.0
H132 H 0.3608 0.68192 0.10203 0.0
H133 H 0.34353 0.65693 0.90983 0.0
H134 H 0.32665 0.60642 0.92576 0.0
H135 H 0.30311 0.56729 0.01385 0.0
C136 C 0.40293 0.80128 0.43604 0.0
C137 C 0.42969 0.79364 0.39373 0.0
C138 C 0.38137 0.81629 0.38491 0.0
C139 C 0.38614 0.82398 0.29022 0.0
C140 C 0.41218 0.8148 0.24675 0.0
C141 C 0.43378 0.8 0.29794 0.0
C142 C 0.36513 0.84226 0.23526 0.0
C143 C 0.34713 0.86215 0.27523 0.0
C144 C 0.32973 0.88399 0.22065 0.0
C145 C 0.3225 0.91066 0.26404 0.0
C146 C 0.30811 0.93273 0.21397 0.0
C147 C 0.30017 0.92854 0.11937 0.0
H148 H 0.32511 0.8587 0.09182 0.0
C149 C 0.3061 0.90134 0.07694 0.0
C150 C 0.32077 0.87928 0.12696 0.0
H151 H 0.30011 0.89735 0.00432 0.0
H152 H 0.39897 0.7965 0.50952 0.0
H153 H 0.36119 0.82206 0.42016 0.0
H154 H 0.41635 0.82005 0.17369 0.0
H155 H 0.45403 0.79424 0.26288 0.0
H156 H 0.36693 0.84147 0.15917 0.0
H157 H 0.34734 0.86472 0.35116 0.0
H158 H 0.32881 0.91485 0.33631 0.0
H159 H 0.30369 0.95333 0.24911 0.0
C160 C 0.08889 0.81046 0.44577 0.0
C161 C 0.09451 0.79264 0.36713 0.0
C162 C 0.11146 0.82619 0.48876 0.0
C163 C 0.14028 0.82414 0.45501 0.0
C164 C 0.1463 0.80511 0.37982 0.0
C165 C 0.12354 0.78978 0.33531 0.0
C166 C 0.16391 0.84249 0.49617 0.0
C167 C 0.15942 0.8711 0.51415 0.0
C168 C 0.18177 0.89107 0.55457 0.0
C169 C 0.18111 0.92066 0.52841 0.0
C170 C 0.19939 0.941 0.57223 0.0
C171 C 0.21832 0.93239 0.64521 0.0
H172 H 0.20233 0.85941 0.6472 0.0
C173 C 0.21962 0.90259 0.67001 0.0
C174 C 0.20165 0.88202 0.6245 0.0
H175 H 0.23391 0.8953 0.72617 0.0
H176 H 0.06682 0.81315 0.47225 0.0
H177 H 0.10629 0.84025 0.5479 0.0
H178 H 0.1684 0.80301 0.35312 0.0
H179 H 0.12858 0.77613 0.27512 0.0
H180 H 0.18552 0.83296 0.5059 0.0
H181 H 0.13852 0.88083 0.49462 0.0
H182 H 0.16591 0.9282 0.47504 0.0
H183 H 0.19769 0.96376 0.55152 0.0
C184 C 0.11784 0.71803 0.91892 0.0
C185 C 0.08837 0.71936 0.89008 0.0
C186 C 0.13788 0.70003 0.87124 0.0
C187 C 0.12861 0.68274 0.79482 0.0
C188 C 0.09947 0.68485 0.76442 0.0
C189 C 0.07968 0.70318 0.81064 0.0
C190 C 0.14763 0.66001 0.75172 0.0
C191 C 0.17679 0.66256 0.74086 0.0
C192 C 0.1942 0.63843 0.69844 0.0
C193 C 0.21525 0.6444 0.62924 0.0
C194 C 0.23003 0.62143 0.5839 0.0
C195 C 0.22458 0.59217 0.60912 0.0
H196 H 0.17372 0.60404 0.77999 0.0
C197 C 0.20458 0.58641 0.68181 0.0
C198 C 0.1894 0.60924 0.72545 0.0
H199 H 0.19987 0.56414 0.70309 0.0
H200 H 0.12519 0.73016 0.98005 0.0
H201 H 0.16012 0.69852 0.89726 0.0
H202 H 0.09176 0.67169 0.70596 0.0
H203 H 0.05716 0.70356 0.78657 0.0
H204 H 0.13682 0.64049 0.72488 0.0
H205 H 0.1877 0.683 0.75821 0.0
H206 H 0.21947 0.66676 0.60785 0.0
H207 H 0.24542 0.62656 0.52842 0.0
C208 C 0.80379 0.11777 0.66794 0.0
C209 C 0.80199 0.08858 0.6366 0.0
C210 C 0.82208 0.13784 0.62196 0.0
C211 C 0.83916 0.12886 0.54481 0.0
C212 C 0.83658 0.10002 0.512 0.0
C213 C 0.81798 0.08022 0.55652 0.0
C214 C 0.86208 0.14779 0.50313 0.0
C215 C 0.85981 0.17703 0.49396 0.0
C216 C 0.884 0.19422 0.45174 0.0
C217 C 0.87808 0.21533 0.38256 0.0
C218 C 0.9011 0.22967 0.33654 0.0
C219 C 0.93036 0.22369 0.36103 0.0
H220 H 0.91832 0.17321 0.53271 0.0
C221 C 0.93608 0.2037 0.43388 0.0
C222 C 0.91318 0.18898 0.47823 0.0
H223 H 0.95835 0.19863 0.4546 0.0
H224 H 0.79181 0.12484 0.7296 0.0
H225 H 0.82396 0.15984 0.64974 0.0
H226 H 0.84958 0.09255 0.45291 0.0
H227 H 0.81722 0.05792 0.53054 0.0
H228 H 0.88144 0.13686 0.47551 0.0
H229 H 0.83952 0.18812 0.51199 0.0
H230 H 0.85572 0.21986 0.36155 0.0
H231 H 0.89602 0.24507 0.28099 0.0
C232 C 0.92697 0.30979 0.82502 0.0
C233 C 0.92565 0.29894 0.91739 0.0
C234 C 0.90335 0.3252 0.78637 0.0
C235 C 0.87775 0.3301 0.83927 0.0
C236 C 0.87617 0.31852 0.93064 0.0
C237 C 0.89974 0.30295 0.96912 0.0
C238 C 0.85368 0.34946 0.80502 0.0
C239 C 0.84856 0.355 0.71325 0.0
C240 C 0.82747 0.37756 0.67888 0.0
C241 C 0.81773 0.37619 0.58519 0.0
C242 C 0.80086 0.39881 0.54662 0.0
C243 C 0.7936 0.42356 0.6007 0.0
H244 H 0.82673 0.4042 0.80585 0.0
C245 C 0.80242 0.42449 0.69544 0.0
C246 C 0.81919 0.40182 0.73413 0.0
H247 H 0.79733 0.4433 0.73898 0.0
H248 H 0.94664 0.30721 0.78336 0.0
H249 H 0.9059 0.33435 0.71672 0.0
H250 H 0.85685 0.32211 0.97331 0.0
H251 H 0.89802 0.29499 0.04062 0.0
H252 H 0.83989 0.35961 0.85798 0.0
H253 H 0.8605 0.34273 0.66023 0.0
H254 H 0.82388 0.3579 0.54074 0.0
H255 H 0.79451 0.3974 0.47332 0.0
C256 C 0.70932 0.43505 0.06761 0.0
C257 C 0.72705 0.42898 0.14615 0.0
C258 C 0.69419 0.41258 0.02184 0.0
C259 C 0.69678 0.38346 0.05266 0.0
C260 C 0.71582 0.37709 0.12753 0.0
C261 C 0.73052 0.3997 0.1748 0.0
C262 C 0.6789 0.35984 0.00933 0.0
C263 C 0.65022 0.36394 0.99147 0.0
C264 C 0.63058 0.34132 0.95083 0.0
C265 C 0.601 0.34152 0.977 0.0
C266 C 0.58096 0.32283 0.93355 0.0
C267 C 0.58987 0.3039 0.86093 0.0
H268 H 0.66256 0.32114 0.85849 0.0
C269 C 0.61968 0.30309 0.83606 0.0
C270 C 0.63994 0.32149 0.88119 0.0
H271 H 0.6272 0.28883 0.78015 0.0
H272 H 0.70618 0.45733 0.04359 0.0
H273 H 0.68012 0.41805 0.963 0.0
H274 H 0.71834 0.35477 0.15201 0.0
H275 H 0.74413 0.39433 0.23483 0.0
H276 H 0.68876 0.33843 0.99873 0.0
H277 H 0.64015 0.38458 0.01191 0.0
H278 H 0.59321 0.35665 0.0302 0.0
H279 H 0.55818 0.32417 0.9543 0.0
C280 C 0.72012 0.11524 0.07235 0.0
C281 C 0.72706 0.08828 0.11466 0.0
C282 C 0.70523 0.13699 0.12301 0.0
C283 C 0.69701 0.13221 0.21723 0.0
C284 C 0.70542 0.10591 0.26068 0.0
C285 C 0.72005 0.08412 0.20995 0.0
C286 C 0.67901 0.15354 0.27181 0.0
C287 C 0.65962 0.17199 0.23145 0.0
C288 C 0.63801 0.1897 0.28581 0.0
C289 C 0.61139 0.19717 0.24249 0.0
C290 C 0.58949 0.21181 0.29259 0.0
C291 C 0.59383 0.21977 0.3871 0.0
H292 H 0.66344 0.19417 0.41441 0.0
C293 C 0.62101 0.21363 0.4294 0.0
C294 C 0.64288 0.1987 0.37938 0.0
H295 H 0.62511 0.21963 0.50195 0.0
H296 H 0.72539 0.11922 0.99924 0.0
H297 H 0.70002 0.15734 0.08785 0.0
H298 H 0.69971 0.10173 0.33338 0.0
H299 H 0.72526 0.06372 0.24499 0.0
H300 H 0.67954 0.15164 0.3479 0.0
H301 H 0.65723 0.17191 0.15546 0.0
H302 H 0.6071 0.19083 0.17031 0.0
H303 H 0.56891 0.21639 0.25756 0.0
C304 C 0.35645 0.46969 0.38946 0.0
C305 C 0.33562 0.4778 0.45752 0.0
C306 C 0.37916 0.45028 0.41162 0.0
C307 C 0.38141 0.43817 0.50242 0.0
C308 C 0.36115 0.44709 0.57116 0.0
C309 C 0.33853 0.46662 0.5491 0.0
C310 C 0.40435 0.41631 0.52874 0.0
C311 C 0.41985 0.40031 0.46603 0.0
C312 C 0.44134 0.37705 0.49271 0.0
C313 C 0.44961 0.35623 0.42475 0.0
C314 C 0.4688 0.33335 0.44743 0.0
C315 C 0.48021 0.33075 0.53887 0.0
H316 H 0.44901 0.39112 0.63709 0.0
C317 C 0.47273 0.35211 0.60607 0.0
C318 C 0.45372 0.37507 0.58327 0.0
H319 H 0.48145 0.35105 0.67689 0.0
H320 H 0.35513 0.47816 0.31846 0.0
H321 H 0.39478 0.44501 0.35715 0.0
H322 H 0.36246 0.43846 0.642 0.0
H323 H 0.32295 0.47243 0.60339 0.0
H324 H 0.40709 0.41213 0.60329 0.0
H325 H 0.4155 0.40287 0.39151 0.0
H326 H 0.44076 0.35731 0.35409 0.0
H327 H 0.47415 0.31735 0.39383 0.0
C328 C 0.66938 0.96545 0.86807 0.0
C329 C 0.68599 0.97959 0.79841 0.0
C330 C 0.64652 0.94657 0.84347 0.0
C331 C 0.63954 0.9415 0.7483 0.0
C332 C 0.65576 0.95614 0.67888 0.0
C333 C 0.67862 0.97504 0.7035 0.0
C334 C 0.61718 0.91962 0.71822 0.0
C335 C 0.59573 0.90933 0.77445 0.0
C336 C 0.57532 0.8853 0.74704 0.0
C337 C 0.56134 0.86933 0.81841 0.0
C338 C 0.54324 0.84559 0.79657 0.0
C339 C 0.53851 0.83732 0.7025 0.0
H340 H 0.57904 0.89 0.59515 0.0
C341 C 0.55161 0.85395 0.63082 0.0
C342 C 0.56969 0.87772 0.65267 0.0
H343 H 0.54816 0.84846 0.55751 0.0
H344 H 0.67453 0.9683 0.9419 0.0
H345 H 0.63527 0.93527 0.89951 0.0
H346 H 0.65104 0.95259 0.60503 0.0
H347 H 0.69095 0.98551 0.64792 0.0
H348 H 0.61926 0.91122 0.64717 0.0
H349 H 0.59361 0.91779 0.84542 0.0
H350 H 0.56497 0.8748 0.89169 0.0
H351 H 0.5334 0.8334 0.85363 0.0
C352 C 0.0511 0.16685 0.11264 0.0
C353 C 0.04317 0.18786 0.04489 0.0
C354 C 0.07042 0.14409 0.0903 0.0
C355 C 0.08262 0.14194 0.99964 0.0
C356 C 0.07383 0.16234 0.9311 0.0
C357 C 0.05437 0.18503 0.95333 0.0
C358 C 0.10448 0.11897 0.97338 0.0
C359 C 0.12045 0.10349 0.03625 0.0
C360 C 0.14372 0.08194 0.01003 0.0
C361 C 0.16422 0.07342 0.07871 0.0
C362 C 0.18708 0.05413 0.0567 0.0
C363 C 0.18998 0.04284 0.96521 0.0
H364 H 0.13023 0.07463 0.86488 0.0
C365 C 0.16895 0.05059 0.89721 0.0
C366 C 0.14601 0.06971 0.91934 0.0
H367 H 0.17025 0.04199 0.8263 0.0
H368 H 0.04259 0.1681 0.1836 0.0
H369 H 0.07555 0.12834 0.14458 0.0
H370 H 0.08253 0.16111 0.86035 0.0
H371 H 0.0487 0.20075 0.89929 0.0
H372 H 0.10867 0.11623 0.89886 0.0
H373 H 0.11783 0.10787 0.11073 0.0
H374 H 0.16291 0.08215 0.14948 0.0
H375 H 0.20282 0.04859 0.11091 0.0
C376 C 0.97069 0.67577 0.28668 0.0
C377 C 0.9787 0.68395 0.19497 0.0
C378 C 0.95148 0.65232 0.30165 0.0
C379 C 0.93976 0.63657 0.22495 0.0
C380 C 0.94861 0.6442 0.13376 0.0
C381 C 0.96769 0.6676 0.11884 0.0
C382 C 0.91825 0.61223 0.23591 0.0
C383 C 0.90136 0.60844 0.31264 0.0
C384 C 0.87835 0.58543 0.32083 0.0
C385 C 0.86878 0.57746 0.41094 0.0
C386 C 0.84599 0.5574 0.42252 0.0
C387 C 0.83191 0.54494 0.34405 0.0
H388 H 0.87064 0.57872 0.17119 0.0
C389 C 0.84167 0.5526 0.25362 0.0
C390 C 0.86458 0.57266 0.24201 0.0
H391 H 0.8312 0.54359 0.19163 0.0
H392 H 0.97896 0.68771 0.34697 0.0
H393 H 0.94611 0.64667 0.37337 0.0
H394 H 0.94024 0.63237 0.07333 0.0
H395 H 0.9735 0.67308 0.04716 0.0
H396 H 0.91562 0.59758 0.17636 0.0
H397 H 0.904 0.62291 0.37258 0.0
H398 H 0.87879 0.58701 0.47292 0.0
H399 H 0.83909 0.55211 0.49332 0.0
C400 C 0.35651 0.0495 0.86842 0.0
C401 C 0.33552 0.0411 0.80112 0.0
C402 C 0.37943 0.06839 0.84452 0.0
C403 C 0.38173 0.07969 0.75267 0.0
C404 C 0.36128 0.07048 0.68479 0.0
C405 C 0.33846 0.05145 0.70858 0.0
C406 C 0.40487 0.10103 0.7243 0.0
C407 C 0.42097 0.11703 0.7855 0.0
C408 C 0.44256 0.13992 0.75695 0.0
C409 C 0.45174 0.16055 0.8243 0.0
C410 C 0.47095 0.18318 0.80013 0.0
C411 C 0.48151 0.18574 0.70773 0.0
H412 H 0.44865 0.12592 0.61176 0.0
C413 C 0.47316 0.16454 0.64104 0.0
C414 C 0.4541 0.14182 0.66533 0.0
H415 H 0.48117 0.16559 0.56946 0.0
H416 H 0.35516 0.04166 0.94015 0.0
H417 H 0.39515 0.07389 0.89857 0.0
H418 H 0.36258 0.07848 0.61322 0.0
H419 H 0.32276 0.0454 0.65483 0.0
H420 H 0.40725 0.10483 0.64946 0.0
H421 H 0.41708 0.11478 0.86033 0.0
H422 H 0.44355 0.15954 0.89571 0.0
H423 H 0.47695 0.19905 0.85342 0.0
C424 C 0.84254 0.9649 0.01891 0.0
C425 C 0.83402 0.97361 0.92806 0.0
C426 C 0.86545 0.9448 0.03157 0.0
C427 C 0.8804 0.93304 0.95343 0.0
C428 C 0.87205 0.94208 0.86302 0.0
C429 C 0.84932 0.96218 0.85041 0.0
C430 C 0.90338 0.90997 0.96215 0.0
C431 C 0.9195 0.90546 0.04036 0.0
C432 C 0.94113 0.88112 0.05114 0.0
C433 C 0.94958 0.87294 0.14235 0.0
C434 C 0.96866 0.84943 0.15693 0.0
C435 C 0.98 0.8335 0.08044 0.0
H436 H 0.9483 0.87192 0.9025 0.0
C437 C 0.97243 0.84227 0.98883 0.0
C438 C 0.9533 0.86585 0.97419 0.0
H439 H 0.98098 0.83068 0.92827 0.0
H440 H 0.83112 0.9731 0.08024 0.0
H441 H 0.8706 0.93788 0.10241 0.0
H442 H 0.883 0.93332 0.80151 0.0
H443 H 0.8434 0.9683 0.7793 0.0
H444 H 0.90672 0.89614 0.90105 0.0
H445 H 0.91614 0.91952 0.10099 0.0
H446 H 0.9409 0.8844 0.20301 0.0
H447 H 0.97411 0.84348 0.22857 0.0
C448 C 0.05233 0.35461 0.14089 0.0
C449 C 0.04445 0.3335 0.20814 0.0
C450 C 0.07132 0.37751 0.16427 0.0
C451 C 0.08324 0.37964 0.25547 0.0
C452 C 0.07457 0.35905 0.32334 0.0
C453 C 0.05544 0.33625 0.30008 0.0
C454 C 0.10472 0.40274 0.28304 0.0
C455 C 0.12048 0.41865 0.22111 0.0
C456 C 0.14357 0.44012 0.24871 0.0
C457 C 0.16415 0.44882 0.18085 0.0
C458 C 0.18699 0.46789 0.2042 0.0
C459 C 0.1898 0.47879 0.29623 0.0
H460 H 0.12985 0.44692 0.39378 0.0
C461 C 0.16866 0.47093 0.36342 0.0
C462 C 0.14572 0.452 0.33994 0.0
H463 H 0.16991 0.47924 0.4347 0.0
H464 H 0.04396 0.3534 0.06967 0.0
H465 H 0.07638 0.39338 0.1104 0.0
H466 H 0.08308 0.36024 0.39442 0.0
H467 H 0.04977 0.32045 0.35378 0.0
H468 H 0.10887 0.4052 0.35773 0.0
H469 H 0.11792 0.41462 0.14639 0.0
H470 H 0.16294 0.44035 0.10973 0.0
H471 H 0.20281 0.47354 0.15055 0.0
C472 C 0.55131 0.67749 0.50142 0.0
C473 C 0.54288 0.6868 0.59174 0.0
C474 C 0.57101 0.65419 0.49011 0.0
C475 C 0.58266 0.63957 0.56909 0.0
C476 C 0.57388 0.64868 0.65904 0.0
C477 C 0.55417 0.67184 0.67032 0.0
C478 C 0.60541 0.61622 0.56146 0.0
C479 C 0.60973 0.59975 0.48386 0.0
C480 C 0.63403 0.57808 0.47332 0.0
C481 C 0.6422 0.56956 0.38216 0.0
C482 C 0.66582 0.55062 0.36766 0.0
C483 C 0.68186 0.53944 0.44418 0.0
H484 H 0.6433 0.57108 0.62197 0.0
C485 C 0.67303 0.54696 0.53578 0.0
C486 C 0.64936 0.56601 0.55033 0.0
H487 H 0.68472 0.53855 0.59636 0.0
H488 H 0.54322 0.68862 0.43936 0.0
H489 H 0.57774 0.6485 0.41952 0.0
H490 H 0.58257 0.63802 0.72118 0.0
H491 H 0.54825 0.67838 0.74104 0.0
H492 H 0.61928 0.613 0.62256 0.0
H493 H 0.59562 0.60295 0.42326 0.0
H494 H 0.63069 0.57817 0.32145 0.0
H495 H 0.6718 0.54518 0.29605 0.0
loop_
_geom_bond_atom_site_label_1
_geom_bond_atom_site_label_2
_geom_bond_distance
_geom_bond_site_symmetry_2
_ccdc_geom_bond_type
O0 Cd1 2.223 . S
O0 C8 1.315 . S
Cd1 O0 2.223 . S
Cd1 O4 2.297 . S
Cd1 O5 2.439 . S
Cd1 O11 2.240 . S
Cd2 O3 2.240 . S
Cd2 O10 2.223 . S
Cd2 O12 2.297 . S
Cd2 O13 2.439 . S
O3 Cd2 2.240 . S
O3 C8 1.279 . S
O4 Cd1 2.297 . S
O4 C6 1.247 . S
O5 Cd1 2.439 . S
O5 C6 1.208 . S
C6 O4 1.247 . S
C6 O5 1.208 . S
C7 O12 1.247 . S
C7 O13 1.208 . S
C8 O0 1.315 . S
C8 O3 1.279 . S
C9 O10 1.315 . S
C9 O11 1.279 . S
O10 Cd2 2.223 . S
O10 C9 1.315 . S
O11 Cd1 2.240 . S
O11 C9 1.279 . S
O12 Cd2 2.297 . S
O12 C7 1.247 . S
O13 Cd2 2.439 . S
O13 C7 1.208 . S
O14 Cd15 2.223 . S
O14 C22 1.315 . S
Cd15 O14 2.223 . S
Cd15 O18 2.297 . S
Cd15 O19 2.439 . S
Cd15 O25 2.240 . S
Cd16 O17 2.240 . S
Cd16 O24 2.223 . S
Cd16 O26 2.297 . S
Cd16 O27 2.439 . S
O17 Cd16 2.240 . S
O17 C22 1.279 . S
O18 Cd15 2.297 . S
O18 C20 1.247 . S
O19 Cd15 2.439 . S
O19 C20 1.208 . S
C20 O18 1.247 . S
C20 O19 1.208 . S
C21 O26 1.247 . S
C21 O27 1.208 . S
C22 O14 1.315 . S
C22 O17 1.279 . S
C23 O24 1.315 . S
C23 O25 1.279 . S
O24 Cd16 2.223 . S
O24 C23 1.315 . S
O25 Cd15 2.240 . S
O25 C23 1.279 . S
O26 Cd16 2.297 . S
O26 C21 1.247 . S
O27 Cd16 2.439 . S
O27 C21 1.208 . S
O28 Cd29 2.203 1_546 S
O28 C36 1.315 . S
Cd29 O28 2.203 1_564 S
Cd29 O32 2.308 . S
Cd29 O33 2.461 1_554 S
Cd29 O39 2.235 1_564 S
Cd30 O31 2.235 1_565 S
Cd30 O38 2.203 1_565 S
Cd30 O40 2.308 . S
Cd30 O41 2.461 . S
O31 Cd30 2.235 1_545 S
O31 C36 1.279 . S
O32 Cd29 2.308 . S
O32 C34 1.247 . S
O33 Cd29 2.461 1_556 S
O33 C34 1.208 1_556 S
C34 O32 1.247 . S
C34 O33 1.208 1_554 S
C35 O40 1.247 . S
C35 O41 1.208 . S
C36 O28 1.315 . S
C36 O31 1.279 . S
C37 O38 1.315 . S
C37 O39 1.279 . S
O38 Cd30 2.203 1_545 S
O38 C37 1.315 . S
O39 Cd29 2.235 1_546 S
O39 C37 1.279 . S
O40 Cd30 2.308 . S
O40 C35 1.247 . S
O41 Cd30 2.461 . S
O41 C35 1.208 . S
O42 Cd43 2.203 1_654 S
O42 C50 1.315 . S
Cd43 O42 2.203 1_456 S
Cd43 O46 2.308 . S
Cd43 O47 2.461 1_556 S
Cd43 O53 2.235 1_456 S
Cd44 O45 2.235 1_455 S
Cd44 O52 2.203 1_455 S
Cd44 O54 2.308 . S
Cd44 O55 2.461 . S
O45 Cd44 2.235 1_655 S
O45 C50 1.279 . S
O46 Cd43 2.308 . S
O46 C48 1.247 . S
O47 Cd43 2.461 1_554 S
O47 C48 1.208 1_554 S
C48 O46 1.247 . S
C48 O47 1.208 1_556 S
C49 O54 1.247 . S
C49 O55 1.208 . S
C50 O42 1.315 . S
C50 O45 1.279 . S
C51 O52 1.315 . S
C51 O53 1.279 . S
O52 Cd44 2.203 1_655 S
O52 C51 1.315 . S
O53 Cd43 2.235 1_654 S
O53 C51 1.279 . S
O54 Cd44 2.308 . S
O54 C49 1.247 . S
O55 Cd44 2.461 . S
O55 C49 1.208 . S
O56 Cd57 2.203 1_565 S
O56 C64 1.315 . S
Cd57 O56 2.203 1_545 S
Cd57 O60 2.308 . S
Cd57 O61 2.461 . S
Cd57 O67 2.235 1_545 S
Cd58 O59 2.235 1_544 S
Cd58 O66 2.203 1_544 S
Cd58 O68 2.308 . S
Cd58 O69 2.461 1_554 S
O59 Cd58 2.235 1_566 S
O59 C64 1.279 . S
O60 Cd57 2.308 . S
O60 C62 1.247 . S
O61 Cd57 2.461 . S
O61 C62 1.208 . S
C62 O60 1.247 . S
C62 O61 1.208 . S
C63 O68 1.247 . S
C63 O69 1.208 1_554 S
C64 O56 1.315 . S
C64 O59 1.279 . S
C65 O66 1.315 . S
C65 O67 1.279 . S
O66 Cd58 2.203 1_566 S
O66 C65 1.315 . S
O67 Cd57 2.235 1_565 S
O67 C65 1.279 . S
O68 Cd58 2.308 . S
O68 C63 1.247 . S
O69 Cd58 2.461 1_556 S
O69 C63 1.208 1_556 S
O70 Cd71 2.203 1_455 S
O70 C78 1.315 . S
Cd71 O70 2.203 1_655 S
Cd71 O74 2.308 . S
Cd71 O75 2.461 . S
Cd71 O81 2.235 1_655 S
Cd72 O73 2.235 1_656 S
Cd72 O80 2.203 1_656 S
Cd72 O82 2.308 . S
Cd72 O83 2.461 1_556 S
O73 Cd72 2.235 1_454 S
O73 C78 1.279 . S
O74 Cd71 2.308 . S
O74 C76 1.247 . S
O75 Cd71 2.461 . S
O75 C76 1.208 . S
C76 O74 1.247 . S
C76 O75 1.208 . S
C77 O82 1.247 . S
C77 O83 1.208 1_556 S
C78 O70 1.315 . S
C78 O73 1.279 . S
C79 O80 1.315 . S
C79 O81 1.279 . S
O80 Cd72 2.203 1_454 S
O80 C79 1.315 . S
O81 Cd71 2.235 1_455 S
O81 C79 1.279 . S
O82 Cd72 2.308 . S
O82 C77 1.247 . S
O83 Cd72 2.461 1_554 S
O83 C77 1.208 1_554 S
O84 Cd85 2.223 . S
O84 C92 1.315 . S
Cd85 O84 2.223 . S
Cd85 O88 2.297 . S
Cd85 O89 2.439 . S
Cd85 O95 2.240 . S
Cd86 O87 2.240 . S
Cd86 O94 2.223 . S
Cd86 O96 2.297 . S
Cd86 O97 2.439 . S
O87 Cd86 2.240 . S
O87 C92 1.279 . S
O88 Cd85 2.297 . S
O88 C90 1.247 . S
O89 Cd85 2.439 . S
O89 C90 1.208 . S
C90 O88 1.247 . S
C90 O89 1.208 . S
C91 O96 1.247 . S
C91 O97 1.208 . S
C92 O84 1.315 . S
C92 O87 1.279 . S
C93 O94 1.315 . S
C93 O95 1.279 . S
O94 Cd86 2.223 . S
O94 C93 1.315 . S
O95 Cd85 2.240 . S
O95 C93 1.279 . S
O96 Cd86 2.297 . S
O96 C91 1.247 . S
O97 Cd86 2.439 . S
O97 C91 1.208 . S
O98 Cd99 2.223 . S
O98 C106 1.315 . S
Cd99 O98 2.223 . S
Cd99 O102 2.297 . S
Cd99 O103 2.439 . S
Cd99 O109 2.240 . S
Cd100 O101 2.240 . S
Cd100 O108 2.223 . S
Cd100 O110 2.297 . S
Cd100 O111 2.439 . S
O101 Cd100 2.240 . S
O101 C106 1.279 . S
O102 Cd99 2.297 . S
O102 C104 1.247 . S
O103 Cd99 2.439 . S
O103 C104 1.208 . S
C104 O102 1.247 . S
C104 O103 1.208 . S
C105 O110 1.247 . S
C105 O111 1.208 . S
C106 O98 1.315 . S
C106 O101 1.279 . S
C107 O108 1.315 . S
C107 O109 1.279 . S
O108 Cd100 2.223 . S
O108 C107 1.315 . S
O109 Cd99 2.240 . S
O109 C107 1.279 . S
O110 Cd100 2.297 . S
O110 C105 1.247 . S
O111 Cd100 2.439 . S
O111 C105 1.208 . S
C112 C113 1.386 . S
C112 C114 1.383 . S
C112 H128 0.951 . S
C113 C112 1.386 . S
C113 C117 1.383 . S
C114 C112 1.383 . S
C114 C115 1.402 . S
C114 H129 0.951 . S
C115 C114 1.402 . S
C115 C116 1.375 . S
C115 C118 1.481 1_556 S
C116 C115 1.375 . S
C116 C117 1.367 . S
C116 H130 0.951 1_556 S
C117 C113 1.383 . S
C117 C116 1.367 . S
C117 H131 0.950 . S
C118 C115 1.481 1_554 S
C118 C119 1.297 . S
C118 H132 0.950 . S
C119 C118 1.297 . S
C119 C120 1.479 . S
C119 H133 0.950 1_554 S
C120 C119 1.479 . S
C120 C121 1.375 . S
C120 C126 1.404 . S
C121 C120 1.375 . S
C121 C122 1.369 . S
C121 H134 0.950 1_554 S
C122 C121 1.369 . S
C122 C123 1.392 . S
C122 H135 0.951 . S
C123 C122 1.392 . S
C123 C125 1.384 . S
H124 C126 0.949 . S
C125 C123 1.384 . S
C125 C126 1.385 . S
C125 H127 0.950 . S
C126 C120 1.404 . S
C126 H124 0.949 . S
C126 C125 1.385 . S
H127 C125 0.950 . S
H128 C112 0.951 . S
H129 C114 0.951 . S
H130 C116 0.951 1_554 S
H131 C117 0.950 . S
H132 C118 0.950 . S
H133 C119 0.950 1_556 S
H134 C121 0.950 1_556 S
H135 C122 0.951 . S
C136 C137 1.386 . S
C136 C138 1.383 . S
C136 H152 0.951 . S
C137 C136 1.386 . S
C137 C141 1.383 . S
C138 C136 1.383 . S
C138 C139 1.402 . S
C138 H153 0.951 . S
C139 C138 1.402 . S
C139 C140 1.375 . S
C139 C142 1.481 . S
C140 C139 1.375 . S
C140 C141 1.367 . S
C140 H154 0.951 . S
C141 C137 1.383 . S
C141 C140 1.367 . S
C141 H155 0.950 . S
C142 C139 1.481 . S
C142 C143 1.297 . S
C142 H156 0.950 . S
C143 C142 1.297 . S
C143 C144 1.479 . S
C143 H157 0.950 . S
C144 C143 1.479 . S
C144 C145 1.375 . S
C144 C150 1.404 . S
C145 C144 1.375 . S
C145 C146 1.369 . S
C145 H158 0.950 . S
C146 C145 1.369 . S
C146 C147 1.392 . S
C146 H159 0.951 . S
C147 C146 1.392 . S
C147 C149 1.384 . S
H148 C150 0.949 . S
C149 C147 1.384 . S
C149 C150 1.385 . S
C149 H151 0.950 1_554 S
C150 C144 1.404 . S
C150 H148 0.949 . S
C150 C149 1.385 . S
H151 C149 0.950 1_556 S
H152 C136 0.951 . S
H153 C138 0.951 . S
H154 C140 0.951 . S
H155 C141 0.950 . S
H156 C142 0.950 . S
H157 C143 0.950 . S
H158 C145 0.950 . S
H159 C146 0.951 . S
C160 C161 1.386 . S
C160 C162 1.383 . S
C160 H176 0.951 . S
C161 C160 1.386 . S
C161 C165 1.383 . S
C162 C160 1.383 . S
C162 C163 1.402 . S
C162 H177 0.951 . S
C163 C162 1.402 . S
C163 C164 1.375 . S
C163 C166 1.481 . S
C164 C163 1.375 . S
C164 C165 1.367 . S
C164 H178 0.951 . S
C165 C161 1.383 . S
C165 C164 1.367 . S
C165 H179 0.950 . S
C166 C163 1.481 . S
C166 C167 1.297 . S
C166 H180 0.950 . S
C167 C166 1.297 . S
C167 C168 1.479 . S
C167 H181 0.950 . S
C168 C167 1.479 . S
C168 C169 1.375 . S
C168 C174 1.404 . S
C169 C168 1.375 . S
C169 C170 1.369 . S
C169 H182 0.950 . S
C170 C169 1.369 . S
C170 C171 1.392 . S
C170 H183 0.951 . S
C171 C170 1.392 . S
C171 C173 1.384 . S
H172 C174 0.949 . S
C173 C171 1.384 . S
C173 C174 1.385 . S
C173 H175 0.950 . S
C174 C168 1.404 . S
C174 H172 0.949 . S
C174 C173 1.385 . S
H175 C173 0.950 . S
H176 C160 0.951 . S
H177 C162 0.951 . S
H178 C164 0.951 . S
H179 C165 0.950 . S
H180 C166 0.950 . S
H181 C167 0.950 . S
H182 C169 0.950 . S
H183 C170 0.951 . S
C184 C185 1.386 . S
C184 C186 1.383 . S
C184 H200 0.951 . S
C185 C184 1.386 . S
C185 C189 1.383 . S
C186 C184 1.383 . S
C186 C187 1.402 . S
C186 H201 0.951 . S
C187 C186 1.402 . S
C187 C188 1.375 . S
C187 C190 1.481 . S
C188 C187 1.375 . S
C188 C189 1.367 . S
C188 H202 0.951 . S
C189 C185 1.383 . S
C189 C188 1.367 . S
C189 H203 0.950 . S
C190 C187 1.481 . S
C190 C191 1.297 . S
C190 H204 0.950 . S
C191 C190 1.297 . S
C191 C192 1.479 . S
C191 H205 0.950 . S
C192 C191 1.479 . S
C192 C193 1.375 . S
C192 C198 1.404 . S
C193 C192 1.375 . S
C193 C194 1.369 . S
C193 H206 0.950 . S
C194 C193 1.369 . S
C194 C195 1.392 . S
C194 H207 0.951 . S
C195 C194 1.392 . S
C195 C197 1.384 . S
H196 C198 0.949 . S
C197 C195 1.384 . S
C197 C198 1.385 . S
C197 H199 0.950 . S
C198 C192 1.404 . S
C198 H196 0.949 . S
C198 C197 1.385 . S
H199 C197 0.950 . S
H200 C184 0.951 . S
H201 C186 0.951 . S
H202 C188 0.951 . S
H203 C189 0.950 . S
H204 C190 0.950 . S
H205 C191 0.950 . S
H206 C193 0.950 . S
H207 C194 0.951 . S
C208 C209 1.386 . S
C208 C210 1.383 . S
C208 H224 0.951 . S
C209 C208 1.386 . S
C209 C213 1.383 . S
C210 C208 1.383 . S
C210 C211 1.402 . S
C210 H225 0.951 . S
C211 C210 1.402 . S
C211 C212 1.375 . S
C211 C214 1.481 . S
C212 C211 1.375 . S
C212 C213 1.367 . S
C212 H226 0.951 . S
C213 C209 1.383 . S
C213 C212 1.367 . S
C213 H227 0.950 . S
C214 C211 1.481 . S
C214 C215 1.297 . S
C214 H228 0.950 . S
C215 C214 1.297 . S
C215 C216 1.479 . S
C215 H229 0.950 . S
C216 C215 1.479 . S
C216 C217 1.375 . S
C216 C222 1.404 . S
C217 C216 1.375 . S
C217 C218 1.369 . S
C217 H230 0.950 . S
C218 C217 1.369 . S
C218 C219 1.392 . S
C218 H231 0.951 . S
C219 C218 1.392 . S
C219 C221 1.384 . S
H220 C222 0.949 . S
C221 C219 1.384 . S
C221 C222 1.385 . S
C221 H223 0.950 . S
C222 C216 1.404 . S
C222 H220 0.949 . S
C222 C221 1.385 . S
H223 C221 0.950 . S
H224 C208 0.951 . S
H225 C210 0.951 . S
H226 C212 0.951 . S
H227 C213 0.950 . S
H228 C214 0.950 . S
H229 C215 0.950 . S
H230 C217 0.950 . S
H231 C218 0.951 . S
C232 C233 1.386 . S
C232 C234 1.383 . S
C232 H248 0.951 . S
C233 C232 1.386 . S
C233 C237 1.383 . S
C234 C232 1.383 . S
C234 C235 1.402 . S
C234 H249 0.951 . S
C235 C234 1.402 . S
C235 C236 1.375 . S
C235 C238 1.481 . S
C236 C235 1.375 . S
C236 C237 1.367 . S
C236 H250 0.951 . S
C237 C233 1.383 . S
C237 C236 1.367 . S
C237 H251 0.950 1_556 S
C238 C235 1.481 . S
C238 C239 1.297 . S
C238 H252 0.950 . S
C239 C238 1.297 . S
C239 C240 1.479 . S
C239 H253 0.950 . S
C240 C239 1.479 . S
C240 C241 1.375 . S
C240 C246 1.404 . S
C241 C240 1.375 . S
C241 C242 1.369 . S
C241 H254 0.950 . S
C242 C241 1.369 . S
C242 C243 1.392 . S
C242 H255 0.951 . S
C243 C242 1.392 . S
C243 C245 1.384 . S
H244 C246 0.949 . S
C245 C243 1.384 . S
C245 C246 1.385 . S
C245 H247 0.950 . S
C246 C240 1.404 . S
C246 H244 0.949 . S
C246 C245 1.385 . S
H247 C245 0.950 . S
H248 C232 0.951 . S
H249 C234 0.951 . S
H250 C236 0.951 . S
H251 C237 0.950 1_554 S
H252 C238 0.950 . S
H253 C239 0.950 . S
H254 C241 0.950 . S
H255 C242 0.951 . S
C256 C257 1.386 . S
C256 C258 1.383 . S
C256 H272 0.951 . S
C257 C256 1.386 . S
C257 C261 1.383 . S
C258 C256 1.383 . S
C258 C259 1.402 . S
C258 H273 0.951 . S
C259 C258 1.402 . S
C259 C260 1.375 . S
C259 C262 1.481 1_554 S
C260 C259 1.375 . S
C260 C261 1.367 . S
C260 H274 0.951 . S
C261 C257 1.383 . S
C261 C260 1.367 . S
C261 H275 0.950 . S
C262 C259 1.481 1_556 S
C262 C263 1.297 . S
C262 H276 0.950 . S
C263 C262 1.297 . S
C263 C264 1.479 . S
C263 H277 0.950 . S
C264 C263 1.479 . S
C264 C265 1.375 . S
C264 C270 1.404 . S
C265 C264 1.375 . S
C265 C266 1.369 . S
C265 H278 0.950 . S
C266 C265 1.369 . S
C266 C267 1.392 . S
C266 H279 0.951 . S
C267 C266 1.392 . S
C267 C269 1.384 . S
H268 C270 0.949 . S
C269 C267 1.384 . S
C269 C270 1.385 . S
C269 H271 0.950 . S
C270 C264 1.404 . S
C270 H268 0.949 . S
C270 C269 1.385 . S
H271 C269 0.950 . S
H272 C256 0.951 . S
H273 C258 0.951 . S
H274 C260 0.951 . S
H275 C261 0.950 . S
H276 C262 0.950 . S
H277 C263 0.950 . S
H278 C265 0.950 . S
H279 C266 0.951 . S
C280 C281 1.386 . S
C280 C282 1.383 . S
C280 H296 0.951 1_554 S
C281 C280 1.386 . S
C281 C285 1.383 . S
C282 C280 1.383 . S
C282 C283 1.402 . S
C282 H297 0.951 . S
C283 C282 1.402 . S
C283 C284 1.375 . S
C283 C286 1.481 . S
C284 C283 1.375 . S
C284 C285 1.367 . S
C284 H298 0.951 . S
C285 C281 1.383 . S
C285 C284 1.367 . S
C285 H299 0.950 . S
C286 C283 1.481 . S
C286 C287 1.297 . S
C286 H300 0.950 . S
C287 C286 1.297 . S
C287 C288 1.479 . S
C287 H301 0.950 . S
C288 C287 1.479 . S
C288 C289 1.375 . S
C288 C294 1.404 . S
C289 C288 1.375 . S
C289 C290 1.369 . S
C289 H302 0.950 . S
C290 C289 1.369 . S
C290 C291 1.392 . S
C290 H303 0.951 . S
C291 C290 1.392 . S
C291 C293 1.384 . S
H292 C294 0.949 . S
C293 C291 1.384 . S
C293 C294 1.385 . S
C293 H295 0.950 . S
C294 C288 1.404 . S
C294 H292 0.949 . S
C294 C293 1.385 . S
H295 C293 0.950 . S
H296 C280 0.951 1_556 S
H297 C282 0.951 . S
H298 C284 0.951 . S
H299 C285 0.950 . S
H300 C286 0.950 . S
H301 C287 0.950 . S
H302 C289 0.950 . S
H303 C290 0.951 . S
C304 C305 1.386 . S
C304 C306 1.383 . S
C304 H320 0.951 . S
C305 C304 1.386 . S
C305 C309 1.383 . S
C306 C304 1.383 . S
C306 C307 1.402 . S
C306 H321 0.951 . S
C307 C306 1.402 . S
C307 C308 1.375 . S
C307 C310 1.481 . S
C308 C307 1.375 . S
C308 C309 1.367 . S
C308 H322 0.951 . S
C309 C305 1.383 . S
C309 C308 1.367 . S
C309 H323 0.950 . S
C310 C307 1.481 . S
C310 C311 1.297 . S
C310 H324 0.950 . S
C311 C310 1.297 . S
C311 C312 1.479 . S
C311 H325 0.950 . S
C312 C311 1.479 . S
C312 C313 1.375 . S
C312 C318 1.404 . S
C313 C312 1.375 . S
C313 C314 1.369 . S
C313 H326 0.950 . S
C314 C313 1.369 . S
C314 C315 1.392 . S
C314 H327 0.951 . S
C315 C314 1.392 . S
C315 C317 1.384 . S
H316 C318 0.949 . S
C317 C315 1.384 . S
C317 C318 1.385 . S
C317 H319 0.950 . S
C318 C312 1.404 . S
C318 H316 0.949 . S
C318 C317 1.385 . S
H319 C317 0.950 . S
H320 C304 0.951 . S
H321 C306 0.951 . S
H322 C308 0.951 . S
H323 C309 0.950 . S
H324 C310 0.950 . S
H325 C311 0.950 . S
H326 C313 0.950 . S
H327 C314 0.951 . S
C328 C329 1.386 . S
C328 C330 1.383 . S
C328 H344 0.951 . S
C329 C328 1.386 . S
C329 C333 1.383 . S
C330 C328 1.383 . S
C330 C331 1.402 . S
C330 H345 0.951 . S
C331 C330 1.402 . S
C331 C332 1.375 . S
C331 C334 1.481 . S
C332 C331 1.375 . S
C332 C333 1.367 . S
C332 H346 0.951 . S
C333 C329 1.383 . S
C333 C332 1.367 . S
C333 H347 0.950 . S
C334 C331 1.481 . S
C334 C335 1.297 . S
C334 H348 0.950 . S
C335 C334 1.297 . S
C335 C336 1.479 . S
C335 H349 0.950 . S
C336 C335 1.479 . S
C336 C337 1.375 . S
C336 C342 1.404 . S
C337 C336 1.375 . S
C337 C338 1.369 . S
C337 H350 0.950 . S
C338 C337 1.369 . S
C338 C339 1.392 . S
C338 H351 0.951 . S
C339 C338 1.392 . S
C339 C341 1.384 . S
H340 C342 0.949 . S
C341 C339 1.384 . S
C341 C342 1.385 . S
C341 H343 0.950 . S
C342 C336 1.404 . S
C342 H340 0.949 . S
C342 C341 1.385 . S
H343 C341 0.950 . S
H344 C328 0.951 . S
H345 C330 0.951 . S
H346 C332 0.951 . S
H347 C333 0.950 . S
H348 C334 0.950 . S
H349 C335 0.950 . S
H350 C337 0.950 . S
H351 C338 0.951 . S
C352 C353 1.386 . S
C352 C354 1.383 . S
C352 H368 0.951 . S
C353 C352 1.386 . S
C353 C357 1.383 1_554 S
C354 C352 1.383 . S
C354 C355 1.402 . S
C354 H369 0.951 . S
C355 C354 1.402 . S
C355 C356 1.375 1_554 S
C355 C358 1.481 1_554 S
C356 C355 1.375 1_556 S
C356 C357 1.367 . S
C356 H370 0.951 . S
C357 C353 1.383 1_556 S
C357 C356 1.367 . S
C357 H371 0.950 . S
C358 C355 1.481 1_556 S
C358 C359 1.297 1_556 S
C358 H372 0.950 . S
C359 C358 1.297 1_554 S
C359 C360 1.479 1_554 S
C359 H373 0.950 . S
C360 C359 1.479 1_556 S
C360 C361 1.375 1_556 S
C360 C366 1.404 . S
C361 C360 1.375 1_554 S
C361 C362 1.369 . S
C361 H374 0.950 . S
C362 C361 1.369 . S
C362 C363 1.392 1_554 S
C362 H375 0.951 . S
C363 C362 1.392 1_556 S
C363 C365 1.384 . S
H364 C366 0.949 . S
C365 C363 1.384 . S
C365 C366 1.385 . S
C365 H367 0.950 . S
C366 C360 1.404 . S
C366 H364 0.949 . S
C366 C365 1.385 . S
H367 C365 0.950 . S
H368 C352 0.951 . S
H369 C354 0.951 . S
H370 C356 0.951 . S
H371 C357 0.950 . S
H372 C358 0.950 . S
H373 C359 0.950 . S
H374 C361 0.950 . S
H375 C362 0.951 . S
C376 C377 1.386 . S
C376 C378 1.383 . S
C376 H392 0.951 . S
C377 C376 1.386 . S
C377 C381 1.383 . S
C378 C376 1.383 . S
C378 C379 1.402 . S
C378 H393 0.951 . S
C379 C378 1.402 . S
C379 C380 1.375 . S
C379 C382 1.481 . S
C380 C379 1.375 . S
C380 C381 1.367 . S
C380 H394 0.951 . S
C381 C377 1.383 . S
C381 C380 1.367 . S
C381 H395 0.950 . S
C382 C379 1.481 . S
C382 C383 1.297 . S
C382 H396 0.950 . S
C383 C382 1.297 . S
C383 C384 1.479 . S
C383 H397 0.950 . S
C384 C383 1.479 . S
C384 C385 1.375 . S
C384 C390 1.404 . S
C385 C384 1.375 . S
C385 C386 1.369 . S
C385 H398 0.950 . S
C386 C385 1.369 . S
C386 C387 1.392 . S
C386 H399 0.951 . S
C387 C386 1.392 . S
C387 C389 1.384 . S
H388 C390 0.949 . S
C389 C387 1.384 . S
C389 C390 1.385 . S
C389 H391 0.950 . S
C390 C384 1.404 . S
C390 H388 0.949 . S
C390 C389 1.385 . S
H391 C389 0.950 . S
H392 C376 0.951 . S
H393 C378 0.951 . S
H394 C380 0.951 . S
H395 C381 0.950 . S
H396 C382 0.950 . S
H397 C383 0.950 . S
H398 C385 0.950 . S
H399 C386 0.951 . S
C400 C401 1.386 . S
C400 C402 1.383 . S
C400 H416 0.951 . S
C401 C400 1.386 . S
C401 C405 1.383 . S
C402 C400 1.383 . S
C402 C403 1.402 . S
C402 H417 0.951 . S
C403 C402 1.402 . S
C403 C404 1.375 . S
C403 C406 1.481 . S
C404 C403 1.375 . S
C404 C405 1.367 . S
C404 H418 0.951 . S
C405 C401 1.383 . S
C405 C404 1.367 . S
C405 H419 0.950 . S
C406 C403 1.481 . S
C406 C407 1.297 . S
C406 H420 0.950 . S
C407 C406 1.297 . S
C407 C408 1.479 . S
C407 H421 0.950 . S
C408 C407 1.479 . S
C408 C409 1.375 . S
C408 C414 1.404 . S
C409 C408 1.375 . S
C409 C410 1.369 . S
C409 H422 0.950 . S
C410 C409 1.369 . S
C410 C411 1.392 . S
C410 H423 0.951 . S
C411 C410 1.392 . S
C411 C413 1.384 . S
H412 C414 0.949 . S
C413 C411 1.384 . S
C413 C414 1.385 . S
C413 H415 0.950 . S
C414 C408 1.404 . S
C414 H412 0.949 . S
C414 C413 1.385 . S
H415 C413 0.950 . S
H416 C400 0.951 . S
H417 C402 0.951 . S
H418 C404 0.951 . S
H419 C405 0.950 . S
H420 C406 0.950 . S
H421 C407 0.950 . S
H422 C409 0.950 . S
H423 C410 0.951 . S
C424 C425 1.386 . S
C424 C426 1.383 . S
C424 H440 0.951 . S
C425 C424 1.386 . S
C425 C429 1.383 . S
C426 C424 1.383 . S
C426 C427 1.402 . S
C426 H441 0.951 1_556 S
C427 C426 1.402 . S
C427 C428 1.375 . S
C427 C430 1.481 1_556 S
C428 C427 1.375 . S
C428 C429 1.367 . S
C428 H442 0.951 . S
C429 C425 1.383 . S
C429 C428 1.367 . S
C429 H443 0.950 . S
C430 C427 1.481 1_554 S
C430 C431 1.297 . S
C430 H444 0.949 1_554 S
C431 C430 1.297 . S
C431 C432 1.479 . S
C431 H445 0.950 . S
C432 C431 1.479 . S
C432 C433 1.375 . S
C432 C438 1.404 . S
C433 C432 1.375 . S
C433 C434 1.369 . S
C433 H446 0.950 . S
C434 C433 1.369 . S
C434 C435 1.392 . S
C434 H447 0.951 . S
C435 C434 1.392 . S
C435 C437 1.384 . S
H436 C438 0.949 . S
C437 C435 1.384 . S
C437 C438 1.385 . S
C437 H439 0.950 . S
C438 C432 1.404 . S
C438 H436 0.949 . S
C438 C437 1.385 . S
H439 C437 0.950 . S
H440 C424 0.951 . S
H441 C426 0.951 1_554 S
H442 C428 0.951 . S
H443 C429 0.950 . S
H444 C430 0.949 1_556 S
H445 C431 0.950 . S
H446 C433 0.950 . S
H447 C434 0.951 . S
C448 C449 1.386 . S
C448 C450 1.383 . S
C448 H464 0.951 . S
C449 C448 1.386 . S
C449 C453 1.383 . S
C450 C448 1.383 . S
C450 C451 1.402 . S
C450 H465 0.951 . S
C451 C450 1.402 . S
C451 C452 1.375 . S
C451 C454 1.481 . S
C452 C451 1.375 . S
C452 C453 1.367 . S
C452 H466 0.951 . S
C453 C449 1.383 . S
C453 C452 1.367 . S
C453 H467 0.950 . S
C454 C451 1.481 . S
C454 C455 1.297 . S
C454 H468 0.950 . S
C455 C454 1.297 . S
C455 C456 1.479 . S
C455 H469 0.950 . S
C456 C455 1.479 . S
C456 C457 1.375 . S
C456 C462 1.404 . S
C457 C456 1.375 . S
C457 C458 1.369 . S
C457 H470 0.950 . S
C458 C457 1.369 . S
C458 C459 1.392 . S
C458 H471 0.951 . S
C459 C458 1.392 . S
C459 C461 1.384 . S
H460 C462 0.949 . S
C461 C459 1.384 . S
C461 C462 1.385 . S
C461 H463 0.950 . S
C462 C456 1.404 . S
C462 H460 0.949 . S
C462 C461 1.385 . S
H463 C461 0.950 . S
H464 C448 0.951 . S
H465 C450 0.951 . S
H466 C452 0.951 . S
H467 C453 0.950 . S
H468 C454 0.950 . S
H469 C455 0.950 . S
H470 C457 0.950 . S
H471 C458 0.951 . S
C472 C473 1.386 . S
C472 C474 1.383 . S
C472 H488 0.951 . S
C473 C472 1.386 . S
C473 C477 1.383 . S
C474 C472 1.383 . S
C474 C475 1.402 . S
C474 H489 0.951 . S
C475 C474 1.402 . S
C475 C476 1.375 . S
C475 C478 1.481 . S
C476 C475 1.375 . S
C476 C477 1.367 . S
C476 H490 0.951 . S
C477 C473 1.383 . S
C477 C476 1.367 . S
C477 H491 0.950 . S
C478 C475 1.481 . S
C478 C479 1.297 . S
C478 H492 0.950 . S
C479 C478 1.297 . S
C479 C480 1.479 . S
C479 H493 0.950 . S
C480 C479 1.479 . S
C480 C481 1.375 . S
C480 C486 1.404 . S
C481 C480 1.375 . S
C481 C482 1.369 . S
C481 H494 0.950 . S
C482 C481 1.369 . S
C482 C483 1.392 . S
C482 H495 0.951 . S
C483 C482 1.392 . S
C483 C485 1.384 . S
H484 C486 0.949 . S
C485 C483 1.384 . S
C485 C486 1.385 . S
C485 H487 0.950 . S
C486 C480 1.404 . S
C486 H484 0.949 . S
C486 C485 1.385 . S
H487 C485 0.950 . S
H488 C472 0.951 . S
H489 C474 0.951 . S
H490 C476 0.951 . S
H491 C477 0.950 . S
H492 C478 0.950 . S
H493 C479 0.950 . S
H494 C481 0.950 . S
H495 C482 0.951 . S
C113 C20 1.507 . S
C123 C6 1.524 . S
C137 C21 1.507 . S
C147 C34 1.520 . S
C161 C49 1.530 . S
C171 C35 1.552 . S
C185 C48 1.539 . S
C195 C7 1.493 . S
C209 C62 1.527 . S
C219 C76 1.485 . S
C233 C77 1.545 . S
C243 C90 1.532 . S
C257 C91 1.512 . S
C267 C105 1.542 . S
C281 C63 1.508 . S
C291 C104 1.508 . S
C305 C8 1.554 . S
C315 C107 1.503 . S
C329 C65 1.547 . S
C339 C23 1.521 . S
C353 C78 1.541 . S
C363 C37 1.531 . S
C377 C50 1.525 . S
C387 C92 1.548 . S
C401 C36 1.547 . S
C411 C106 1.520 . S
C425 C64 1.550 . S
C435 C51 1.505 . S
C449 C79 1.553 . S
C459 C9 1.502 . S
C473 C22 1.550 . S
C483 C93 1.506 . S
