# Generated by pormake.
# Topology yfo, (5)-cn, num edge types: 1
# Building blocks:
#     Node 0, Type 0, BuildingBlock: BEQFEK_clean_sbu_0, # of connection points: 5
#     Node 1, Type 0, BuildingBlock: BEQFEK_clean_sbu_0, # of connection points: 5
#     Node 2, Type 0, BuildingBlock: BEQFEK_clean_sbu_0, # of connection points: 5
#     Node 3, Type 0, BuildingBlock: BEQFEK_clean_sbu_0, # of connection points: 5
#     Node 4, Type 0, BuildingBlock: BEQFEK_clean_sbu_0, # of connection points: 5
#     Node 5, Type 0, BuildingBlock: BEQFEK_clean_sbu_0, # of connection points: 5
#     Node 6, Type 0, BuildingBlock: BEQFEK_clean_sbu_0, # of connection points: 5
#     Node 7, Type 0, BuildingBlock: BEQFEK_clean_sbu_0, # of connection points: 5
#     Node 8, Type 0, BuildingBlock: BEQFEK_clean_sbu_0, # of connection points: 5
#     Node 9, Type 0, BuildingBlock: BEQFEK_clean_sbu_0, # of connection points: 5
#     Node 10, Type 0, BuildingBlock: BEQFEK_clean_sbu_0, # of connection points: 5
#     Node 11, Type 0, BuildingBlock: BEQFEK_clean_sbu_0, # of connection points: 5
#     Node 12, Type 0, BuildingBlock: BEQFEK_clean_sbu_0, # of connection points: 5
#     Node 13, Type 0, BuildingBlock: BEQFEK_clean_sbu_0, # of connection points: 5
#     Node 14, Type 0, BuildingBlock: BEQFEK_clean_sbu_0, # of connection points: 5
#     Node 15, Type 0, BuildingBlock: BEQFEK_clean_sbu_0, # of connection points: 5
#     Node 16, Type 0, BuildingBlock: BEQFEK_clean_sbu_0, # of connection points: 5
#     Node 17, Type 0, BuildingBlock: BEQFEK_clean_sbu_0, # of connection points: 5
#     Node 18, Type 0, BuildingBlock: BEQFEK_clean_sbu_0, # of connection points: 5
#     Node 19, Type 0, BuildingBlock: BEQFEK_clean_sbu_0, # of connection points: 5
#     Node 20, Type 0, BuildingBlock: BEQFEK_clean_sbu_0, # of connection points: 5
#     Node 21, Type 0, BuildingBlock: BEQFEK_clean_sbu_0, # of connection points: 5
#     Node 22, Type 0, BuildingBlock: BEQFEK_clean_sbu_0, # of connection points: 5
#     Node 23, Type 0, BuildingBlock: BEQFEK_clean_sbu_0, # of connection points: 5
#     Node 24, Type 0, BuildingBlock: BEQFEK_clean_sbu_0, # of connection points: 5
#     Node 25, Type 0, BuildingBlock: BEQFEK_clean_sbu_0, # of connection points: 5
#     Node 26, Type 0, BuildingBlock: BEQFEK_clean_sbu_0, # of connection points: 5
#     Node 27, Type 0, BuildingBlock: BEQFEK_clean_sbu_0, # of connection points: 5
#     Node 28, Type 0, BuildingBlock: BEQFEK_clean_sbu_0, # of connection points: 5
#     Node 29, Type 0, BuildingBlock: BEQFEK_clean_sbu_0, # of connection points: 5
#     Node 30, Type 0, BuildingBlock: BEQFEK_clean_sbu_0, # of connection points: 5
#     Node 31, Type 0, BuildingBlock: BEQFEK_clean_sbu_0, # of connection points: 5
#     Edge 32, Type (0, 0), BuildingBlock: XIVTED_clean_linker_0, # of connection points: 2
#     Edge 33, Type (0, 0), BuildingBlock: XIVTED_clean_linker_0, # of connection points: 2
#     Edge 34, Type (0, 0), BuildingBlock: XIVTED_clean_linker_0, # of connection points: 2
#     Edge 35, Type (0, 0), BuildingBlock: XIVTED_clean_linker_0, # of connection points: 2
#     Edge 36, Type (0, 0), BuildingBlock: XIVTED_clean_linker_0, # of connection points: 2
#     Edge 37, Type (0, 0), BuildingBlock: XIVTED_clean_linker_0, # of connection points: 2
#     Edge 38, Type (0, 0), BuildingBlock: XIVTED_clean_linker_0, # of connection points: 2
#     Edge 39, Type (0, 0), BuildingBlock: XIVTED_clean_linker_0, # of connection points: 2
#     Edge 40, Type (0, 0), BuildingBlock: XIVTED_clean_linker_0, # of connection points: 2
#     Edge 41, Type (0, 0), BuildingBlock: XIVTED_clean_linker_0, # of connection points: 2
#     Edge 42, Type (0, 0), BuildingBlock: XIVTED_clean_linker_0, # of connection points: 2
#     Edge 43, Type (0, 0), BuildingBlock: XIVTED_clean_linker_0, # of connection points: 2
#     Edge 44, Type (0, 0), BuildingBlock: XIVTED_clean_linker_0, # of connection points: 2
#     Edge 45, Type (0, 0), BuildingBlock: XIVTED_clean_linker_0, # of connection points: 2
#     Edge 46, Type (0, 0), BuildingBlock: XIVTED_clean_linker_0, # of connection points: 2
#     Edge 47, Type (0, 0), BuildingBlock: XIVTED_clean_linker_0, # of connection points: 2
#     Edge 48, Type (0, 0), BuildingBlock: XIVTED_clean_linker_0, # of connection points: 2
#     Edge 49, Type (0, 0), BuildingBlock: XIVTED_clean_linker_0, # of connection points: 2
#     Edge 50, Type (0, 0), BuildingBlock: XIVTED_clean_linker_0, # of connection points: 2
#     Edge 51, Type (0, 0), BuildingBlock: XIVTED_clean_linker_0, # of connection points: 2
#     Edge 52, Type (0, 0), BuildingBlock: XIVTED_clean_linker_0, # of connection points: 2
#     Edge 53, Type (0, 0), BuildingBlock: XIVTED_clean_linker_0, # of connection points: 2
#     Edge 54, Type (0, 0), BuildingBlock: XIVTED_clean_linker_0, # of connection points: 2
#     Edge 55, Type (0, 0), BuildingBlock: XIVTED_clean_linker_0, # of connection points: 2
#     Edge 56, Type (0, 0), BuildingBlock: XIVTED_clean_linker_0, # of connection points: 2
#     Edge 57, Type (0, 0), BuildingBlock: XIVTED_clean_linker_0, # of connection points: 2
#     Edge 58, Type (0, 0), BuildingBlock: XIVTED_clean_linker_0, # of connection points: 2
#     Edge 59, Type (0, 0), BuildingBlock: XIVTED_clean_linker_0, # of connection points: 2
#     Edge 60, Type (0, 0), BuildingBlock: XIVTED_clean_linker_0, # of connection points: 2
#     Edge 61, Type (0, 0), BuildingBlock: XIVTED_clean_linker_0, # of connection points: 2
#     Edge 62, Type (0, 0), BuildingBlock: XIVTED_clean_linker_0, # of connection points: 2
#     Edge 63, Type (0, 0), BuildingBlock: XIVTED_clean_linker_0, # of connection points: 2
#     Edge 64, Type (0, 0), BuildingBlock: XIVTED_clean_linker_0, # of connection points: 2
#     Edge 65, Type (0, 0), BuildingBlock: XIVTED_clean_linker_0, # of connection points: 2
#     Edge 66, Type (0, 0), BuildingBlock: XIVTED_clean_linker_0, # of connection points: 2
#     Edge 67, Type (0, 0), BuildingBlock: XIVTED_clean_linker_0, # of connection points: 2
#     Edge 68, Type (0, 0), BuildingBlock: XIVTED_clean_linker_0, # of connection points: 2
#     Edge 69, Type (0, 0), BuildingBlock: XIVTED_clean_linker_0, # of connection points: 2
#     Edge 70, Type (0, 0), BuildingBlock: XIVTED_clean_linker_0, # of connection points: 2
#     Edge 71, Type (0, 0), BuildingBlock: XIVTED_clean_linker_0, # of connection points: 2
#     Edge 72, Type (0, 0), BuildingBlock: XIVTED_clean_linker_0, # of connection points: 2
#     Edge 73, Type (0, 0), BuildingBlock: XIVTED_clean_linker_0, # of connection points: 2
#     Edge 74, Type (0, 0), BuildingBlock: XIVTED_clean_linker_0, # of connection points: 2
#     Edge 75, Type (0, 0), BuildingBlock: XIVTED_clean_linker_0, # of connection points: 2
#     Edge 76, Type (0, 0), BuildingBlock: XIVTED_clean_linker_0, # of connection points: 2
#     Edge 77, Type (0, 0), BuildingBlock: XIVTED_clean_linker_0, # of connection points: 2
#     Edge 78, Type (0, 0), BuildingBlock: XIVTED_clean_linker_0, # of connection points: 2
#     Edge 79, Type (0, 0), BuildingBlock: XIVTED_clean_linker_0, # of connection points: 2
#     Edge 80, Type (0, 0), BuildingBlock: XIVTED_clean_linker_0, # of connection points: 2
#     Edge 81, Type (0, 0), BuildingBlock: XIVTED_clean_linker_0, # of connection points: 2
#     Edge 82, Type (0, 0), BuildingBlock: XIVTED_clean_linker_0, # of connection points: 2
#     Edge 83, Type (0, 0), BuildingBlock: XIVTED_clean_linker_0, # of connection points: 2
#     Edge 84, Type (0, 0), BuildingBlock: XIVTED_clean_linker_0, # of connection points: 2
#     Edge 85, Type (0, 0), BuildingBlock: XIVTED_clean_linker_0, # of connection points: 2
#     Edge 86, Type (0, 0), BuildingBlock: XIVTED_clean_linker_0, # of connection points: 2
#     Edge 87, Type (0, 0), BuildingBlock: XIVTED_clean_linker_0, # of connection points: 2
#     Edge 88, Type (0, 0), BuildingBlock: XIVTED_clean_linker_0, # of connection points: 2
#     Edge 89, Type (0, 0), BuildingBlock: XIVTED_clean_linker_0, # of connection points: 2
#     Edge 90, Type (0, 0), BuildingBlock: XIVTED_clean_linker_0, # of connection points: 2
#     Edge 91, Type (0, 0), BuildingBlock: XIVTED_clean_linker_0, # of connection points: 2
#     Edge 92, Type (0, 0), BuildingBlock: XIVTED_clean_linker_0, # of connection points: 2
#     Edge 93, Type (0, 0), BuildingBlock: XIVTED_clean_linker_0, # of connection points: 2
#     Edge 94, Type (0, 0), BuildingBlock: XIVTED_clean_linker_0, # of connection points: 2
#     Edge 95, Type (0, 0), BuildingBlock: XIVTED_clean_linker_0, # of connection points: 2
#     Edge 96, Type (0, 0), BuildingBlock: XIVTED_clean_linker_0, # of connection points: 2
#     Edge 97, Type (0, 0), BuildingBlock: XIVTED_clean_linker_0, # of connection points: 2
#     Edge 98, Type (0, 0), BuildingBlock: XIVTED_clean_linker_0, # of connection points: 2
#     Edge 99, Type (0, 0), BuildingBlock: XIVTED_clean_linker_0, # of connection points: 2
#     Edge 100, Type (0, 0), BuildingBlock: XIVTED_clean_linker_0, # of connection points: 2
#     Edge 101, Type (0, 0), BuildingBlock: XIVTED_clean_linker_0, # of connection points: 2
#     Edge 102, Type (0, 0), BuildingBlock: XIVTED_clean_linker_0, # of connection points: 2
#     Edge 103, Type (0, 0), BuildingBlock: XIVTED_clean_linker_0, # of connection points: 2
#     Edge 104, Type (0, 0), BuildingBlock: XIVTED_clean_linker_0, # of connection points: 2
#     Edge 105, Type (0, 0), BuildingBlock: XIVTED_clean_linker_0, # of connection points: 2
#     Edge 106, Type (0, 0), BuildingBlock: XIVTED_clean_linker_0, # of connection points: 2
#     Edge 107, Type (0, 0), BuildingBlock: XIVTED_clean_linker_0, # of connection points: 2
#     Edge 108, Type (0, 0), BuildingBlock: XIVTED_clean_linker_0, # of connection points: 2
#     Edge 109, Type (0, 0), BuildingBlock: XIVTED_clean_linker_0, # of connection points: 2
#     Edge 110, Type (0, 0), BuildingBlock: XIVTED_clean_linker_0, # of connection points: 2
#     Edge 111, Type (0, 0), BuildingBlock: XIVTED_clean_linker_0, # of connection points: 2
# Relax obj value: 0.612
# Max RMSD: 0.401
# Mean RMSD: 0.320
data_MOF--net-yfo--node1-BEQFEK_clean_sbu_0--edge1-XIVTED_clean_linker_0
_symmetry_space_group_name_H-M    P1
_symmetry_Int_Tables_number       1
_symmetry_cell_setting            triclinic
loop_
_symmetry_equiv_pos_as_xyz
'x, y, z'
_cell_length_a     79.802008
_cell_length_b     68.512412
_cell_length_c     27.452723
_cell_angle_alpha  89.984896
_cell_angle_beta   89.878169
_cell_angle_gamma 89.950062
loop_
_atom_site_label
_atom_site_type_symbol
_atom_site_fract_x
_atom_site_fract_y
_atom_site_fract_z
_atom_type_partial_charge
Co0 Co 0.23814 0.15388 0.23441 0.0
Co1 Co 0.22104 0.18197 0.15684 0.0
C2 C 0.25519 0.18209 0.17538 0.0
O3 O 0.25794 0.16828 0.20547 0.0
O4 O 0.24496 0.1785 0.14144 0.0
C5 C 0.25553 0.13764 0.31487 0.0
O6 O 0.26557 0.15253 0.3073 0.0
C7 C 0.21379 0.20139 0.06256 0.0
C8 C 0.18913 0.21466 0.07808 0.0
C9 C 0.2013 0.21294 0.04238 0.0
N10 N 0.2092 0.19647 0.10811 0.0
N11 N 0.19441 0.20443 0.11701 0.0
C12 C 0.22942 0.19443 0.03814 0.0
H13 H 0.23341 0.18022 0.05357 0.0
H14 H 0.22727 0.19282 -0.00156 0.0
H15 H 0.23957 0.20523 0.04397 0.0
C16 C 0.21437 0.1263 0.18743 0.0
N17 N 0.22167 0.14401 0.19018 0.0
N18 N 0.2138 0.15603 0.16045 0.0
C19 C 0.20172 0.14628 0.13681 0.0
C20 C 0.20165 0.12715 0.15318 0.0
C21 C 0.2188 0.10936 0.21923 0.0
H22 H 0.23258 0.10719 0.21889 0.0
H23 H 0.21246 0.09581 0.20699 0.0
H24 H 0.21498 0.11264 0.25725 0.0
O25 O 0.22719 0.17383 0.27408 0.0
O26 O 0.21709 0.19536 0.22138 0.0
H27 H 0.18276 0.16734 0.12102 0.0
H28 H 0.18055 0.14502 0.08709 0.0
C29 C 0.18971 0.15558 0.10197 0.0
H30 H 0.19681 0.16225 0.07143 0.0
H31 H 0.18803 0.20313 0.15008 0.0
O32 O 0.24409 0.13409 0.28402 0.0
C33 C 0.21984 0.18988 0.26509 0.0
Co34 Co 0.05959 0.92265 0.56089 0.0
Co35 Co 0.04204 0.89975 0.47647 0.0
C36 C 0.03136 0.93984 0.49978 0.0
O37 O 0.04207 0.94035 0.53418 0.0
O38 O 0.02999 0.92495 0.47226 0.0
C39 C 0.07712 0.95542 0.60055 0.0
O40 O 0.0738 0.96344 0.55817 0.0
C41 C 0.02758 0.8864 0.38353 0.0
C42 C 0.02896 0.85435 0.39214 0.0
C43 C 0.02347 0.86891 0.36116 0.0
N44 N 0.03528 0.88237 0.42583 0.0
N45 N 0.03625 0.86318 0.43045 0.0
C46 C 0.0228 0.90655 0.36769 0.0
H47 H 0.03287 0.91701 0.3773 0.0
H48 H 0.02034 0.9072 0.328 0.0
H49 H 0.01124 0.91098 0.38731 0.0
C50 C 0.08957 0.91399 0.50177 0.0
N51 N 0.07303 0.91263 0.5106 0.0
N52 N 0.06565 0.90399 0.47369 0.0
C53 C 0.07722 0.90026 0.43907 0.0
C54 C 0.09283 0.90642 0.45574 0.0
C55 C 0.102 0.92138 0.53811 0.0
H56 H 0.09766 0.91814 0.57563 0.0
H57 H 0.10325 0.93742 0.53409 0.0
H58 H 0.11447 0.91455 0.53252 0.0
O59 O 0.04848 0.90181 0.5974 0.0
O60 O 0.03442 0.88712 0.5383 0.0
H61 H 0.071 0.87664 0.39162 0.0
H62 H 0.08311 0.89576 0.36275 0.0
C63 C 0.07302 0.89264 0.38947 0.0
H64 H 0.06128 0.89949 0.37646 0.0
H65 H 0.04139 0.85612 0.46061 0.0
O66 O 0.07271 0.93788 0.60836 0.0
C67 C 0.03805 0.88905 0.58318 0.0
Co68 Co 0.24287 0.8382 0.73859 0.0
Co69 Co 0.26147 0.81352 0.65617 0.0
C70 C 0.22694 0.81243 0.67127 0.0
O71 O 0.22369 0.82593 0.70183 0.0
O72 O 0.23764 0.81645 0.63872 0.0
C73 C 0.22896 0.86931 0.81147 0.0
O74 O 0.22524 0.88342 0.78095 0.0
C75 C 0.26955 0.797 0.55962 0.0
C76 C 0.29421 0.78352 0.57345 0.0
C77 C 0.28201 0.78576 0.53813 0.0
N78 N 0.27412 0.80117 0.60552 0.0
N79 N 0.28897 0.7932 0.61337 0.0
C80 C 0.25382 0.80423 0.53644 0.0
H81 H 0.25027 0.8186 0.55194 0.0
H82 H 0.25562 0.80571 0.49655 0.0
H83 H 0.24353 0.79375 0.54371 0.0
C84 C 0.26806 0.86768 0.703 0.0
N85 N 0.26024 0.85024 0.69983 0.0
N86 N 0.26808 0.83959 0.66675 0.0
C87 C 0.28041 0.85017 0.64651 0.0
C88 C 0.28087 0.86826 0.66875 0.0
C89 C 0.26445 0.88271 0.74101 0.0
H90 H 0.26285 0.87557 0.77695 0.0
H91 H 0.25262 0.89028 0.73157 0.0
H92 H 0.27463 0.89372 0.74314 0.0
O93 O 0.25328 0.8164 0.77248 0.0
O94 O 0.26526 0.79749 0.7171 0.0
H95 H 0.30021 0.83087 0.62578 0.0
H96 H 0.30083 0.85416 0.59512 0.0
C97 C 0.29245 0.84252 0.60918 0.0
H98 H 0.28539 0.83615 0.57832 0.0
H99 H 0.29528 0.79381 0.64659 0.0
O100 O 0.23525 0.85342 0.79609 0.0
C101 C 0.26139 0.80111 0.76127 0.0
Co102 Co 0.42506 0.0716 0.07056 0.0
Co103 Co 0.44086 0.09284 0.98001 0.0
C104 C 0.45005 0.05213 0.0026 0.0
O105 O 0.44065 0.05291 0.04005 0.0
O106 O 0.45132 0.06655 0.9734 0.0
C107 C 0.40887 0.03937 0.11532 0.0
O108 O 0.41213 0.03115 0.07312 0.0
C109 C 0.45328 0.10513 0.8832 0.0
C110 C 0.45488 0.13708 0.89351 0.0
C111 C 0.45841 0.1223 0.86074 0.0
N112 N 0.44697 0.10962 0.92725 0.0
N113 N 0.44771 0.12877 0.93278 0.0
C114 C 0.4562 0.08467 0.86616 0.0
H115 H 0.44578 0.07515 0.8785 0.0
H116 H 0.45737 0.08392 0.82597 0.0
H117 H 0.46799 0.07914 0.88253 0.0
C118 C 0.39386 0.08054 0.01837 0.0
N119 N 0.41057 0.0819 0.02341 0.0
N120 N 0.41701 0.09067 0.98504 0.0
C121 C 0.4045 0.09509 0.95397 0.0
C122 C 0.38941 0.08876 0.97405 0.0
C123 C 0.3828 0.0695 0.0529 0.0
H124 H 0.38547 0.0537 0.04916 0.0
H125 H 0.36931 0.07166 0.04562 0.0
H126 H 0.38558 0.07394 0.09087 0.0
O127 O 0.43825 0.09211 0.1024 0.0
O128 O 0.45131 0.1049 0.03847 0.0
H129 H 0.41406 0.11887 0.91193 0.0
H130 H 0.39501 0.10856 0.88797 0.0
C131 C 0.40706 0.1051 0.90608 0.0
H132 H 0.41475 0.09564 0.88201 0.0
H133 H 0.44403 0.13609 0.96438 0.0
O134 O 0.41287 0.05712 0.12194 0.0
C135 C 0.44896 0.10376 0.08422 0.0
Co136 Co 0.23374 0.84268 0.24557 0.0
Co137 Co 0.22009 0.81581 0.3313 0.0
C138 C 0.25246 0.81062 0.29286 0.0
O139 O 0.2525 0.82409 0.26082 0.0
O140 O 0.24463 0.81358 0.33243 0.0
C141 C 0.24685 0.87636 0.17057 0.0
O142 O 0.25639 0.89041 0.18753 0.0
C143 C 0.21584 0.79059 0.41971 0.0
C144 C 0.1884 0.79109 0.42927 0.0
C145 C 0.20298 0.78373 0.44921 0.0
N146 N 0.20926 0.80174 0.38412 0.0
N147 N 0.19278 0.80167 0.38981 0.0
C148 C 0.23401 0.78611 0.42518 0.0
H149 H 0.23699 0.77317 0.40263 0.0
H150 H 0.24181 0.79861 0.4136 0.0
H151 H 0.23689 0.78231 0.46337 0.0
C152 C 0.21544 0.87205 0.30294 0.0
N153 N 0.222 0.854 0.29898 0.0
N154 N 0.21619 0.8431 0.33476 0.0
C155 C 0.20676 0.85435 0.36426 0.0
C156 C 0.20549 0.87291 0.34437 0.0
C157 C 0.21655 0.88718 0.2638 0.0
H158 H 0.21238 0.88083 0.22867 0.0
H159 H 0.2298 0.89176 0.25964 0.0
H160 H 0.20883 0.90021 0.27256 0.0
O161 O 0.21815 0.82599 0.21016 0.0
O162 O 0.21149 0.80453 0.26792 0.0
H163 H 0.18508 0.84134 0.3964 0.0
H164 H 0.19509 0.85924 0.434 0.0
C165 C 0.19741 0.84714 0.40797 0.0
H166 H 0.20466 0.83558 0.42667 0.0
H167 H 0.18447 0.80878 0.36649 0.0
O168 O 0.2417 0.86319 0.19965 0.0
C169 C 0.21117 0.81014 0.22348 0.0
Co170 Co 0.42209 0.92239 0.43721 0.0
Co171 Co 0.4408 0.90039 0.5209 0.0
C172 C 0.45034 0.94063 0.49682 0.0
O173 O 0.43944 0.9406 0.46288 0.0
O174 O 0.45222 0.92594 0.52482 0.0
C175 C 0.40379 0.95482 0.4004 0.0
O176 O 0.40708 0.96218 0.44353 0.0
C177 C 0.45617 0.88667 0.61236 0.0
C178 C 0.45337 0.85469 0.60492 0.0
C179 C 0.45966 0.86906 0.63509 0.0
N180 N 0.448 0.88289 0.5707 0.0
N181 N 0.44625 0.86376 0.56669 0.0
C182 C 0.46174 0.90663 0.62734 0.0
H183 H 0.47226 0.91123 0.60348 0.0
H184 H 0.45135 0.9172 0.62215 0.0
H185 H 0.46602 0.90699 0.66571 0.0
C186 C 0.39273 0.91303 0.49907 0.0
N187 N 0.40919 0.91206 0.48853 0.0
N188 N 0.41716 0.90385 0.52502 0.0
C189 C 0.40612 0.90002 0.56094 0.0
C190 C 0.39018 0.9056 0.54566 0.0
C191 C 0.37972 0.9202 0.46417 0.0
H192 H 0.3837 0.91727 0.42615 0.0
H193 H 0.37815 0.93618 0.46876 0.0
H194 H 0.36748 0.913 0.47093 0.0
O195 O 0.43362 0.90195 0.39982 0.0
O196 O 0.44846 0.88821 0.45876 0.0
H197 H 0.41337 0.87718 0.60959 0.0
H198 H 0.40134 0.89643 0.63822 0.0
C199 C 0.41111 0.89315 0.61062 0.0
H200 H 0.42288 0.90043 0.62173 0.0
H201 H 0.4405 0.85688 0.53722 0.0
O202 O 0.40839 0.93749 0.39086 0.0
C203 C 0.44465 0.88983 0.41394 0.0
Co204 Co 0.25461 0.154 0.74784 0.0
Co205 Co 0.26942 0.18056 0.83215 0.0
C206 C 0.23311 0.18206 0.80017 0.0
O207 O 0.23413 0.16835 0.7688 0.0
O208 O 0.24567 0.18685 0.82608 0.0
C209 C 0.23827 0.137 0.66474 0.0
O210 O 0.22637 0.14968 0.67442 0.0
C211 C 0.2706 0.20444 0.92163 0.0
C212 C 0.29774 0.20657 0.93585 0.0
C213 C 0.28226 0.21258 0.95305 0.0
N214 N 0.27875 0.19403 0.88745 0.0
N215 N 0.29501 0.19552 0.896 0.0
C216 C 0.25201 0.20668 0.92362 0.0
H217 H 0.24811 0.21672 0.89409 0.0
H218 H 0.24592 0.19232 0.91789 0.0
H219 H 0.24782 0.21282 0.95884 0.0
C220 C 0.27138 0.12362 0.80621 0.0
N221 N 0.26624 0.14217 0.7999 0.0
N222 N 0.27211 0.15302 0.83555 0.0
C223 C 0.2806 0.14152 0.86668 0.0
C224 C 0.28068 0.12254 0.84874 0.0
C225 C 0.26864 0.10767 0.76992 0.0
H226 H 0.25514 0.1069 0.76059 0.0
H227 H 0.27286 0.09334 0.78428 0.0
H228 H 0.27566 0.1111 0.73604 0.0
O229 O 0.26855 0.17384 0.71577 0.0
O230 O 0.27968 0.19256 0.77307 0.0
H231 H 0.30216 0.15541 0.89681 0.0
H232 H 0.29306 0.1374 0.93622 0.0
C233 C 0.29017 0.14905 0.90962 0.0
H234 H 0.28276 0.16043 0.92855 0.0
H235 H 0.30428 0.18927 0.87413 0.0
O236 O 0.25044 0.13526 0.6942 0.0
C237 C 0.27751 0.18829 0.72839 0.0
Co238 Co 0.05856 0.06931 0.93542 0.0
Co239 Co 0.04064 0.09437 0.01618 0.0
C240 C 0.03058 0.05312 0.99668 0.0
O241 O 0.04159 0.05194 0.96323 0.0
O242 O 0.02869 0.0687 0.02161 0.0
C243 C 0.07448 0.03597 0.89288 0.0
O244 O 0.06925 0.02719 0.93266 0.0
C245 C 0.0273 0.10749 0.11109 0.0
C246 C 0.02308 0.13884 0.09665 0.0
C247 C 0.02075 0.12445 0.1314 0.0
N248 N 0.03319 0.11172 0.06638 0.0
N249 N 0.0309 0.13056 0.0584 0.0
C250 C 0.02615 0.08722 0.13103 0.0
H251 H 0.03533 0.07753 0.11261 0.0
H252 H 0.02852 0.08711 0.17077 0.0
H253 H 0.01333 0.08151 0.12473 0.0
C254 C 0.08807 0.07827 0.9944 0.0
N255 N 0.07163 0.08002 0.9851 0.0
N256 N 0.06447 0.09073 0.01908 0.0
C257 C 0.07633 0.09631 0.05121 0.0
C258 C 0.09168 0.08859 0.03649 0.0
C259 C 0.09967 0.06555 0.96543 0.0
H260 H 0.0948 0.05043 0.96569 0.0
H261 H 0.11254 0.06522 0.98041 0.0
H262 H 0.10002 0.07069 0.92711 0.0
O263 O 0.04711 0.08957 0.89785 0.0
O264 O 0.03323 0.10654 0.95357 0.0
H265 H 0.08481 0.11415 0.11152 0.0
H266 H 0.06535 0.10114 0.12116 0.0
C267 C 0.07302 0.10922 0.09411 0.0
H268 H 0.06574 0.12217 0.08231 0.0
H269 H 0.03397 0.13759 0.02585 0.0
O270 O 0.07191 0.05415 0.88783 0.0
C271 C 0.03699 0.10314 0.90928 0.0
Co272 Co 0.75038 0.83998 0.7502 0.0
Co273 Co 0.76586 0.81404 0.83534 0.0
C274 C 0.73168 0.81381 0.80918 0.0
O275 O 0.72972 0.82807 0.7798 0.0
O276 O 0.74135 0.81658 0.84513 0.0
C277 C 0.73366 0.86172 0.67054 0.0
O278 O 0.71936 0.85354 0.68272 0.0
C279 C 0.77072 0.79589 0.93157 0.0
C280 C 0.79668 0.78499 0.92652 0.0
C281 C 0.78285 0.78558 0.95692 0.0
N282 N 0.777 0.80124 0.88824 0.0
N283 N 0.79261 0.79478 0.88557 0.0
C284 C 0.75358 0.80094 0.94905 0.0
H285 H 0.74451 0.78996 0.9357 0.0
H286 H 0.74984 0.81553 0.93541 0.0
H287 H 0.75342 0.80091 0.98931 0.0
C288 C 0.77265 0.86899 0.79631 0.0
N289 N 0.76564 0.85111 0.79546 0.0
N290 N 0.77266 0.84024 0.82937 0.0
C291 C 0.78383 0.85109 0.85393 0.0
C292 C 0.78427 0.86962 0.83363 0.0
C293 C 0.76944 0.88453 0.75922 0.0
H294 H 0.75574 0.88694 0.75575 0.0
H295 H 0.77563 0.89845 0.76935 0.0
H296 H 0.77428 0.87961 0.72333 0.0
O297 O 0.76137 0.81814 0.71694 0.0
O298 O 0.77127 0.79874 0.77474 0.0
H299 H 0.8039 0.83277 0.87742 0.0
H300 H 0.80213 0.85523 0.91128 0.0
C301 C 0.79495 0.8434 0.89335 0.0
H302 H 0.78727 0.83577 0.92113 0.0
H303 H 0.80034 0.79659 0.85521 0.0
O304 O 0.74658 0.85851 0.69618 0.0
C305 C 0.76875 0.80255 0.7299 0.0
Co306 Co 0.92135 0.07018 0.42534 0.0
Co307 Co 0.93986 0.0907 0.51236 0.0
C308 C 0.94908 0.05054 0.48327 0.0
O309 O 0.93828 0.05093 0.44912 0.0
O310 O 0.95093 0.06496 0.51203 0.0
C311 C 0.90259 0.03898 0.38499 0.0
O312 O 0.90542 0.03124 0.428 0.0
C313 C 0.95794 0.1014 0.60191 0.0
C314 C 0.95111 0.13246 0.6107 0.0
C315 C 0.96074 0.1177 0.63069 0.0
N316 N 0.94731 0.10631 0.56605 0.0
N317 N 0.9432 0.12488 0.5717 0.0
C318 C 0.96467 0.08125 0.60948 0.0
H319 H 0.95457 0.07041 0.60361 0.0
H320 H 0.96976 0.07937 0.64677 0.0
H321 H 0.97477 0.07848 0.58253 0.0
C322 C 0.89182 0.07896 0.48757 0.0
N323 N 0.90834 0.07985 0.47761 0.0
N324 N 0.91623 0.0873 0.51525 0.0
C325 C 0.90511 0.09052 0.55131 0.0
C326 C 0.88918 0.08556 0.53492 0.0
C327 C 0.87885 0.07271 0.45151 0.0
H328 H 0.88304 0.07616 0.41396 0.0
H329 H 0.87697 0.05671 0.45446 0.0
H330 H 0.86671 0.08011 0.4586 0.0
O331 O 0.93349 0.09115 0.39137 0.0
O332 O 0.94771 0.10438 0.45235 0.0
H333 H 0.91129 0.11211 0.60451 0.0
H334 H 0.90046 0.09116 0.62901 0.0
C335 C 0.90999 0.09603 0.60214 0.0
H336 H 0.92217 0.08926 0.61159 0.0
H337 H 0.93517 0.13248 0.54845 0.0
O338 O 0.90763 0.05624 0.37652 0.0
C339 C 0.94424 0.10327 0.40717 0.0
Co340 Co 0.73144 0.1546 0.24457 0.0
Co341 Co 0.72167 0.17895 0.33979 0.0
C342 C 0.75407 0.17952 0.29681 0.0
O343 O 0.75347 0.16544 0.26643 0.0
O344 O 0.74652 0.17739 0.33739 0.0
C345 C 0.74276 0.12658 0.16439 0.0
O346 O 0.75742 0.12281 0.18399 0.0
C347 C 0.71937 0.20225 0.43241 0.0
C348 C 0.69213 0.20083 0.44613 0.0
C349 C 0.70688 0.2084 0.46429 0.0
N350 N 0.71237 0.19116 0.3974 0.0
N351 N 0.69603 0.19074 0.40558 0.0
C352 C 0.73736 0.20803 0.43362 0.0
H353 H 0.73892 0.22143 0.41146 0.0
H354 H 0.74539 0.19625 0.41877 0.0
H355 H 0.74126 0.2117 0.47113 0.0
C356 C 0.71139 0.12495 0.29526 0.0
N357 N 0.7189 0.14252 0.2947 0.0
N358 N 0.71483 0.15217 0.33459 0.0
C359 C 0.70556 0.14027 0.36306 0.0
C360 C 0.70261 0.12291 0.33851 0.0
C361 C 0.71123 0.11119 0.25297 0.0
H362 H 0.70552 0.11854 0.22101 0.0
H363 H 0.7243 0.10724 0.24335 0.0
H364 H 0.70412 0.09769 0.2615 0.0
O365 O 0.71854 0.1766 0.22004 0.0
O366 O 0.713 0.19531 0.28379 0.0
H367 H 0.68616 0.15148 0.40909 0.0
H368 H 0.69807 0.13209 0.43556 0.0
C369 C 0.69896 0.14535 0.41252 0.0
H370 H 0.70734 0.15591 0.4308 0.0
H371 H 0.68742 0.18397 0.3826 0.0
O372 O 0.73261 0.13807 0.18559 0.0
C373 C 0.71225 0.19198 0.23817 0.0
Co374 Co 0.55657 0.91991 0.92616 0.0
Co375 Co 0.5396 0.89892 0.01518 0.0
C376 C 0.52936 0.93884 0.98708 0.0
O377 O 0.53966 0.93821 0.95169 0.0
O378 O 0.52799 0.92467 0.01701 0.0
C379 C 0.57297 0.95217 0.88325 0.0
O380 O 0.56881 0.96035 0.92483 0.0
C381 C 0.52595 0.8879 0.11139 0.0
C382 C 0.52462 0.85581 0.10393 0.0
C383 C 0.52062 0.87106 0.13488 0.0
N384 N 0.53281 0.8828 0.06848 0.0
N385 N 0.53222 0.86357 0.06466 0.0
C386 C 0.52279 0.90857 0.12636 0.0
H387 H 0.53316 0.91804 0.11342 0.0
H388 H 0.52147 0.90988 0.16643 0.0
H389 H 0.511 0.91368 0.1092 0.0
C390 C 0.58688 0.9125 0.98393 0.0
N391 N 0.57029 0.91092 0.97681 0.0
N392 N 0.56335 0.9023 0.01464 0.0
C393 C 0.57541 0.89821 0.04747 0.0
C394 C 0.59071 0.90457 0.02902 0.0
C395 C 0.59852 0.92284 0.94965 0.0
H396 H 0.59634 0.91768 0.9119 0.0
H397 H 0.59585 0.93869 0.9511 0.0
H398 H 0.61187 0.92081 0.95912 0.0
O399 O 0.54489 0.89839 0.8936 0.0
O400 O 0.53123 0.8853 0.95603 0.0
H401 H 0.56598 0.87387 0.08769 0.0
H402 H 0.58406 0.88521 0.115 0.0
C403 C 0.57228 0.88799 0.0948 0.0
H404 H 0.56373 0.89698 0.11751 0.0
H405 H 0.53634 0.85582 0.03419 0.0
O406 O 0.56944 0.93431 0.87625 0.0
C407 C 0.53444 0.88616 0.91065 0.0
Co408 Co 0.74481 0.1542 0.74764 0.0
Co409 Co 0.76158 0.17887 0.66299 0.0
C410 C 0.72774 0.18076 0.68287 0.0
O411 O 0.72528 0.16727 0.71404 0.0
O412 O 0.73763 0.17679 0.64825 0.0
C413 C 0.73109 0.1209 0.81088 0.0
O414 O 0.72965 0.10814 0.77549 0.0
C415 C 0.76866 0.1945 0.56544 0.0
C416 C 0.79139 0.21187 0.57941 0.0
C417 C 0.77985 0.20728 0.54364 0.0
N418 N 0.77344 0.19153 0.61171 0.0
N419 N 0.78724 0.20169 0.61957 0.0
C420 C 0.7532 0.18599 0.54359 0.0
H421 H 0.75023 0.17182 0.56114 0.0
H422 H 0.75498 0.18372 0.50393 0.0
H423 H 0.74253 0.19611 0.54963 0.0
C424 C 0.76984 0.12493 0.70844 0.0
N425 N 0.76146 0.14209 0.70619 0.0
N426 N 0.76827 0.15274 0.67128 0.0
C427 C 0.78027 0.1424 0.6487 0.0
C428 C 0.78166 0.12444 0.67129 0.0
C429 C 0.76827 0.11044 0.7489 0.0
H430 H 0.7647 0.11788 0.78321 0.0
H431 H 0.75853 0.09961 0.73919 0.0
H432 H 0.78021 0.10242 0.75441 0.0
O433 O 0.75618 0.17535 0.78213 0.0
O434 O 0.76632 0.19443 0.72393 0.0
H435 H 0.79867 0.16284 0.62422 0.0
H436 H 0.80023 0.13922 0.59539 0.0
C437 C 0.7914 0.15038 0.6095 0.0
H438 H 0.78359 0.15581 0.57902 0.0
H439 H 0.7933 0.20249 0.65315 0.0
O440 O 0.73666 0.13794 0.80268 0.0
C441 C 0.76384 0.19072 0.76889 0.0
Co442 Co 0.55875 0.07175 0.56833 0.0
Co443 Co 0.54101 0.09283 0.48141 0.0
C444 C 0.53112 0.05286 0.50787 0.0
O445 O 0.54167 0.05324 0.54267 0.0
O446 O 0.52954 0.06726 0.47881 0.0
C447 C 0.57705 0.03981 0.60586 0.0
O448 O 0.57404 0.03266 0.56234 0.0
C449 C 0.5269 0.10452 0.3867 0.0
C450 C 0.53079 0.13648 0.38798 0.0
C451 C 0.52447 0.12145 0.35986 0.0
N452 N 0.53455 0.10931 0.42856 0.0
N453 N 0.53692 0.12841 0.42898 0.0
C454 C 0.52088 0.08436 0.37519 0.0
H455 H 0.51115 0.08019 0.40212 0.0
H456 H 0.53141 0.07388 0.37886 0.0
H457 H 0.51544 0.0833 0.3382 0.0
C458 C 0.58875 0.08047 0.5092 0.0
N459 N 0.57216 0.08148 0.51768 0.0
N460 N 0.56466 0.08915 0.47966 0.0
C461 C 0.57618 0.09248 0.44468 0.0
C462 C 0.59189 0.08719 0.46231 0.0
C463 C 0.60133 0.07416 0.54639 0.0
H464 H 0.59676 0.07763 0.58356 0.0
H465 H 0.60323 0.05816 0.54361 0.0
H466 H 0.61355 0.08152 0.5404 0.0
O467 O 0.547 0.09269 0.60298 0.0
O468 O 0.53283 0.10604 0.54198 0.0
H469 H 0.56969 0.11459 0.39311 0.0
H470 H 0.58203 0.09489 0.36776 0.0
C471 C 0.57189 0.09861 0.39385 0.0
H472 H 0.56026 0.09119 0.38205 0.0
H473 H 0.54254 0.13596 0.45761 0.0
O474 O 0.57212 0.05697 0.61598 0.0
C475 C 0.53627 0.10485 0.5872 0.0
Co476 Co 0.73355 0.84005 0.2448 0.0
Co477 Co 0.71678 0.81276 0.16551 0.0
C478 C 0.75114 0.8133 0.18375 0.0
O479 O 0.75364 0.82692 0.21448 0.0
O480 O 0.74064 0.81679 0.15041 0.0
C481 C 0.75142 0.85714 0.32384 0.0
O482 O 0.7619 0.84266 0.31601 0.0
C483 C 0.7107 0.79695 0.06846 0.0
C484 C 0.68854 0.77828 0.07962 0.0
C485 C 0.70023 0.78387 0.04496 0.0
N486 N 0.7056 0.79892 0.11472 0.0
N487 N 0.69218 0.7879 0.1211 0.0
C488 C 0.72531 0.80756 0.0475 0.0
H489 H 0.7259 0.82254 0.06274 0.0
H490 H 0.72434 0.80829 0.00724 0.0
H491 H 0.73693 0.79977 0.05805 0.0
C492 C 0.71025 0.86821 0.19779 0.0
N493 N 0.71716 0.8503 0.20108 0.0
N494 N 0.7092 0.83843 0.17126 0.0
C495 C 0.69731 0.84841 0.14741 0.0
C496 C 0.69764 0.8676 0.16324 0.0
C497 C 0.71528 0.88528 0.22833 0.0
H498 H 0.72912 0.8868 0.2278 0.0
H499 H 0.70938 0.89898 0.21518 0.0
H500 H 0.71138 0.88261 0.26659 0.0
O501 O 0.7227 0.81928 0.283 0.0
O502 O 0.71301 0.79836 0.22807 0.0
H503 H 0.6803 0.82564 0.12758 0.0
H504 H 0.67475 0.84921 0.10324 0.0
C505 C 0.68535 0.83936 0.11203 0.0
H506 H 0.69218 0.8357 0.07798 0.0
H507 H 0.68586 0.78643 0.15422 0.0
O508 O 0.73937 0.85975 0.29446 0.0
C509 C 0.71555 0.80325 0.27225 0.0
Co510 Co 0.924 0.91929 0.0687 0.0
Co511 Co 0.94338 0.89897 0.98278 0.0
C512 C 0.95216 0.939 0.01211 0.0
O513 O 0.94112 0.93833 0.04571 0.0
O514 O 0.95441 0.92472 0.98304 0.0
C515 C 0.90505 0.95085 0.10662 0.0
O516 O 0.9086 0.95844 0.06386 0.0
C517 C 0.95927 0.88805 0.8893 0.0
C518 C 0.95815 0.85583 0.89314 0.0
C519 C 0.96371 0.87116 0.86461 0.0
N520 N 0.9513 0.88295 0.93056 0.0
N521 N 0.95055 0.86368 0.93238 0.0
C522 C 0.96382 0.9086 0.87639 0.0
H523 H 0.95347 0.91863 0.88655 0.0
H524 H 0.96669 0.91012 0.83705 0.0
H525 H 0.97507 0.91288 0.89749 0.0
C526 C 0.89523 0.91103 0.00448 0.0
N527 N 0.9116 0.90977 0.01557 0.0
N528 N 0.9198 0.90233 0.97835 0.0
C529 C 0.90899 0.89934 0.94149 0.0
C530 C 0.89301 0.90472 0.95682 0.0
C531 C 0.88197 0.91734 0.03978 0.0
H532 H 0.88571 0.91356 0.07749 0.0
H533 H 0.88033 0.93339 0.03733 0.0
H534 H 0.86981 0.91024 0.03149 0.0
O535 O 0.93557 0.89823 0.10367 0.0
O536 O 0.95055 0.88544 0.04346 0.0
H537 H 0.91687 0.87758 0.89054 0.0
H538 H 0.90458 0.89701 0.86372 0.0
C539 C 0.91428 0.89349 0.8912 0.0
H540 H 0.92594 0.90127 0.88118 0.0
H541 H 0.9452 0.85586 0.96109 0.0
O542 O 0.9098 0.93354 0.11594 0.0
C543 C 0.94654 0.88623 0.08833 0.0
Co544 Co 0.73516 0.65431 0.74636 0.0
Co545 Co 0.71848 0.67984 0.66267 0.0
C546 C 0.75281 0.67984 0.68071 0.0
O547 O 0.75508 0.6673 0.71441 0.0
O548 O 0.74234 0.67549 0.64795 0.0
C549 C 0.74702 0.62198 0.82461 0.0
O550 O 0.75598 0.60822 0.80373 0.0
C551 C 0.7101 0.69901 0.56751 0.0
C552 C 0.68589 0.71239 0.58756 0.0
C553 C 0.69751 0.71123 0.55013 0.0
N554 N 0.70609 0.69335 0.61308 0.0
N555 N 0.69147 0.70122 0.62435 0.0
C556 C 0.72623 0.69425 0.54271 0.0
H557 H 0.73201 0.70778 0.52818 0.0
H558 H 0.73504 0.68688 0.56752 0.0
H559 H 0.72369 0.68426 0.51184 0.0
C560 C 0.7117 0.62522 0.70309 0.0
N561 N 0.71864 0.64317 0.70407 0.0
N562 N 0.71095 0.65426 0.67179 0.0
C563 C 0.69937 0.64365 0.64833 0.0
C564 C 0.69947 0.62493 0.66737 0.0
C565 C 0.71644 0.60891 0.73648 0.0
H566 H 0.73014 0.60636 0.73395 0.0
H567 H 0.70967 0.59525 0.72727 0.0
H568 H 0.71348 0.61313 0.77455 0.0
O569 O 0.72464 0.6759 0.78204 0.0
O570 O 0.71514 0.69543 0.72382 0.0
H571 H 0.68058 0.66383 0.62538 0.0
H572 H 0.67927 0.64055 0.59539 0.0
C573 C 0.68802 0.65168 0.60981 0.0
H574 H 0.69568 0.65758 0.57943 0.0
H575 H 0.68562 0.69962 0.65815 0.0
O576 O 0.74125 0.63598 0.79929 0.0
C577 C 0.71775 0.69176 0.76867 0.0
Co578 Co 0.55686 0.41836 0.06203 0.0
Co579 Co 0.53873 0.39895 0.97327 0.0
C580 C 0.53047 0.43923 0.00083 0.0
O581 O 0.5407 0.43804 0.03636 0.0
O582 O 0.52852 0.42515 0.971 0.0
C583 C 0.57559 0.44882 0.10734 0.0
O584 O 0.57302 0.45788 0.06583 0.0
C585 C 0.52349 0.38763 0.87941 0.0
C586 C 0.52573 0.35548 0.88283 0.0
C587 C 0.51959 0.37059 0.85465 0.0
N588 N 0.53168 0.38281 0.92041 0.0
N589 N 0.53315 0.36359 0.92191 0.0
C590 C 0.51817 0.40797 0.86699 0.0
H591 H 0.5287 0.41821 0.87345 0.0
H592 H 0.51393 0.40915 0.82866 0.0
H593 H 0.50769 0.41227 0.89136 0.0
C594 C 0.58668 0.40944 0.0025 0.0
N595 N 0.57012 0.40844 0.01122 0.0
N596 N 0.56249 0.40137 0.97269 0.0
C597 C 0.5739 0.39843 0.93722 0.0
C598 C 0.58968 0.40339 0.95493 0.0
C599 C 0.59932 0.41546 0.03979 0.0
H600 H 0.59493 0.4114 0.07677 0.0
H601 H 0.60095 0.43153 0.03836 0.0
H602 H 0.61161 0.4084 0.03284 0.0
O603 O 0.54412 0.39782 0.09488 0.0
O604 O 0.52947 0.38616 0.03288 0.0
H605 H 0.56724 0.37733 0.88335 0.0
H606 H 0.57941 0.39753 0.85988 0.0
C607 C 0.5694 0.39329 0.88588 0.0
H608 H 0.55767 0.40086 0.87545 0.0
H609 H 0.53877 0.35597 0.95046 0.0
O610 O 0.57034 0.43145 0.1125 0.0
C611 C 0.53281 0.38667 0.07817 0.0
Co612 Co 0.74963 0.33942 0.24135 0.0
Co613 Co 0.76756 0.31285 0.16193 0.0
C614 C 0.73291 0.31394 0.17445 0.0
O615 O 0.73005 0.3266 0.20749 0.0
O616 O 0.74414 0.31806 0.14356 0.0
C617 C 0.73267 0.35316 0.32517 0.0
O618 O 0.72336 0.3377 0.31701 0.0
C619 C 0.77599 0.29543 0.06581 0.0
C620 C 0.79741 0.27685 0.08655 0.0
C621 C 0.78684 0.28118 0.04803 0.0
N622 N 0.77985 0.29901 0.11269 0.0
N623 N 0.79294 0.28819 0.12436 0.0
C624 C 0.76095 0.30364 0.04103 0.0
H625 H 0.75708 0.31753 0.0584 0.0
H626 H 0.76348 0.30628 0.00192 0.0
H627 H 0.75061 0.29296 0.04405 0.0
C628 C 0.77395 0.36775 0.19937 0.0
N629 N 0.767 0.34983 0.20091 0.0
N630 N 0.77543 0.33819 0.17142 0.0
C631 C 0.78765 0.34834 0.14948 0.0
C632 C 0.78709 0.36738 0.16635 0.0
C633 C 0.76826 0.38465 0.22959 0.0
H634 H 0.75441 0.38592 0.2277 0.0
H635 H 0.77415 0.39848 0.21723 0.0
H636 H 0.77168 0.38196 0.26817 0.0
O637 O 0.75935 0.31797 0.2789 0.0
O638 O 0.76971 0.29742 0.22416 0.0
H639 H 0.80509 0.32605 0.1291 0.0
H640 H 0.81024 0.34984 0.10526 0.0
C641 C 0.79981 0.33971 0.11386 0.0
H642 H 0.79309 0.33598 0.07978 0.0
H643 H 0.79821 0.2877 0.15911 0.0
O644 O 0.74348 0.35811 0.29346 0.0
C645 C 0.76634 0.30185 0.26824 0.0
Co646 Co 0.92178 0.56697 0.55875 0.0
Co647 Co 0.93949 0.59255 0.47926 0.0
C648 C 0.95051 0.55164 0.49892 0.0
O649 O 0.93929 0.55013 0.53165 0.0
O650 O 0.95221 0.5673 0.47414 0.0
C651 C 0.90595 0.53306 0.59705 0.0
O652 O 0.91132 0.5251 0.55636 0.0
C653 C 0.95253 0.60603 0.38474 0.0
C654 C 0.95412 0.63789 0.39662 0.0
C655 C 0.95749 0.62339 0.36287 0.0
N656 N 0.94644 0.61015 0.42923 0.0
N657 N 0.94721 0.62924 0.43583 0.0
C658 C 0.95525 0.58567 0.36662 0.0
H659 H 0.96717 0.58001 0.38188 0.0
H660 H 0.94494 0.57609 0.37945 0.0
H661 H 0.95607 0.5851 0.32638 0.0
C662 C 0.89231 0.57516 0.49876 0.0
N663 N 0.90866 0.57733 0.50882 0.0
N664 N 0.9158 0.58816 0.47509 0.0
C665 C 0.90403 0.59334 0.44223 0.0
C666 C 0.88877 0.58523 0.45624 0.0
C667 C 0.88074 0.5623 0.52744 0.0
H668 H 0.88527 0.54706 0.52501 0.0
H669 H 0.86772 0.56257 0.51367 0.0
H670 H 0.88088 0.56676 0.56628 0.0
O671 O 0.93263 0.58738 0.59733 0.0
O672 O 0.94632 0.60487 0.54224 0.0
H673 H 0.89552 0.61045 0.38056 0.0
H674 H 0.91565 0.5986 0.37332 0.0
C675 C 0.90728 0.60628 0.39934 0.0
H676 H 0.91376 0.61971 0.4116 0.0
H677 H 0.94353 0.63629 0.4678 0.0
O678 O 0.9085 0.5511 0.60451 0.0
C679 C 0.94253 0.60124 0.58641 0.0
Co680 Co 0.73565 0.33997 0.76206 0.0
Co681 Co 0.71936 0.31376 0.84615 0.0
C682 C 0.75326 0.3124 0.82102 0.0
O683 O 0.75571 0.32633 0.79099 0.0
O684 O 0.74371 0.31597 0.85689 0.0
C685 C 0.75174 0.35399 0.6762 0.0
O686 O 0.76188 0.33922 0.68424 0.0
C687 C 0.71138 0.29412 0.94166 0.0
C688 C 0.6858 0.28385 0.92542 0.0
C689 C 0.69803 0.28357 0.9611 0.0
N690 N 0.70713 0.30041 0.89678 0.0
N691 N 0.69176 0.29427 0.88769 0.0
C692 C 0.72829 0.29665 0.96376 0.0
H693 H 0.73755 0.30166 0.93661 0.0
H694 H 0.72747 0.30775 0.99307 0.0
H695 H 0.73254 0.28264 0.97991 0.0
C696 C 0.71301 0.36894 0.80774 0.0
N697 N 0.72024 0.35116 0.80749 0.0
N698 N 0.71291 0.34018 0.84076 0.0
C699 C 0.70135 0.35088 0.86436 0.0
C700 C 0.70092 0.3694 0.84405 0.0
C701 C 0.71628 0.38434 0.77035 0.0
H702 H 0.7118 0.37915 0.73436 0.0
H703 H 0.72997 0.38694 0.76745 0.0
H704 H 0.70982 0.3982 0.77972 0.0
O705 O 0.7239 0.31939 0.72716 0.0
O706 O 0.71412 0.29935 0.78381 0.0
H707 H 0.68087 0.33254 0.88466 0.0
H708 H 0.68231 0.35463 0.92007 0.0
C709 C 0.68966 0.3429 0.90215 0.0
H710 H 0.69692 0.33491 0.93019 0.0
H711 H 0.68547 0.29676 0.85497 0.0
O712 O 0.74087 0.35836 0.7083 0.0
C713 C 0.71635 0.3038 0.73915 0.0
Co714 Co 0.92762 0.42006 0.92788 0.0
Co715 Co 0.94458 0.3984 0.0154 0.0
C716 C 0.95456 0.43873 0.98968 0.0
O717 O 0.94429 0.4384 0.95429 0.0
O718 O 0.95602 0.42425 0.0186 0.0
C719 C 0.9108 0.45211 0.88436 0.0
O720 O 0.915 0.46087 0.92512 0.0
C721 C 0.95784 0.38685 0.11137 0.0
C722 C 0.95913 0.35478 0.10312 0.0
C723 C 0.96297 0.36987 0.13465 0.0
N724 N 0.95124 0.38197 0.06808 0.0
N725 N 0.95179 0.36276 0.06375 0.0
C726 C 0.96097 0.40745 0.12692 0.0
H727 H 0.97277 0.41263 0.10987 0.0
H728 H 0.9506 0.41698 0.11424 0.0
H729 H 0.96223 0.40862 0.16701 0.0
C730 C 0.89729 0.41233 0.98547 0.0
N731 N 0.91387 0.41064 0.97794 0.0
N732 N 0.9208 0.4017 0.01524 0.0
C733 C 0.90875 0.39753 0.04817 0.0
C734 C 0.89347 0.40416 0.03031 0.0
C735 C 0.88569 0.42315 0.9521 0.0
H736 H 0.8886 0.43893 0.95409 0.0
H737 H 0.87234 0.42136 0.96204 0.0
H738 H 0.88765 0.41817 0.91407 0.0
O739 O 0.93945 0.39891 0.89431 0.0
O740 O 0.95318 0.38523 0.95562 0.0
H741 H 0.91823 0.37306 0.08776 0.0
H742 H 0.90008 0.38423 0.1154 0.0
C743 C 0.91187 0.38714 0.09523 0.0
H744 H 0.92035 0.39607 0.11815 0.0
H745 H 0.94781 0.35515 0.03296 0.0
O746 O 0.91462 0.43427 0.87835 0.0
C747 C 0.94993 0.38653 0.91037 0.0
Co748 Co 0.74489 0.65612 0.25722 0.0
Co749 Co 0.76437 0.68037 0.33858 0.0
C750 C 0.72962 0.68159 0.32548 0.0
O751 O 0.7259 0.66833 0.29485 0.0
O752 O 0.7406 0.67719 0.35677 0.0
C753 C 0.73032 0.62532 0.18468 0.0
O754 O 0.72587 0.61143 0.21498 0.0
C755 C 0.77206 0.69486 0.43667 0.0
C756 C 0.79579 0.71063 0.42485 0.0
C757 C 0.78371 0.70666 0.45976 0.0
N758 N 0.77688 0.69212 0.3903 0.0
N759 N 0.79123 0.70138 0.38364 0.0
C760 C 0.7566 0.68621 0.45839 0.0
H761 H 0.75447 0.67141 0.44322 0.0
H762 H 0.75776 0.6853 0.49859 0.0
H763 H 0.74568 0.69547 0.44895 0.0
C764 C 0.76921 0.62581 0.29298 0.0
N765 N 0.76227 0.64379 0.29483 0.0
N766 N 0.77086 0.65447 0.32614 0.0
C767 C 0.78303 0.64357 0.34596 0.0
C768 C 0.78236 0.6251 0.32578 0.0
C769 C 0.76376 0.60987 0.25953 0.0
H770 H 0.76277 0.6156 0.22188 0.0
H771 H 0.75124 0.60465 0.27121 0.0
H772 H 0.77265 0.5974 0.26017 0.0
O773 O 0.7554 0.67811 0.22356 0.0
O774 O 0.76793 0.69671 0.2785 0.0
H775 H 0.80182 0.66417 0.36649 0.0
H776 H 0.80523 0.6401 0.39102 0.0
C777 C 0.79555 0.65112 0.38189 0.0
H778 H 0.78895 0.65557 0.41571 0.0
H779 H 0.79755 0.70208 0.35036 0.0
O780 O 0.73705 0.64091 0.20023 0.0
C781 C 0.76375 0.69326 0.23455 0.0
Co782 Co 0.55905 0.56657 0.43458 0.0
Co783 Co 0.54253 0.59218 0.51664 0.0
C784 C 0.53086 0.55163 0.49756 0.0
O785 O 0.54161 0.55013 0.46349 0.0
O786 O 0.52961 0.56719 0.52287 0.0
C787 C 0.57412 0.53228 0.39519 0.0
O788 O 0.56962 0.52473 0.43723 0.0
C789 C 0.52993 0.60588 0.61175 0.0
C790 C 0.52903 0.63778 0.60003 0.0
C791 C 0.52522 0.62335 0.63356 0.0
N792 N 0.53628 0.60986 0.56745 0.0
N793 N 0.53594 0.62898 0.56102 0.0
C794 C 0.52666 0.58561 0.62968 0.0
H795 H 0.51459 0.58043 0.61438 0.0
H796 H 0.53672 0.57566 0.61689 0.0
H797 H 0.52581 0.58505 0.66993 0.0
C798 C 0.58933 0.57409 0.49204 0.0
N799 N 0.57288 0.57653 0.48353 0.0
N800 N 0.56621 0.58727 0.51827 0.0
C801 C 0.57835 0.59206 0.55027 0.0
C802 C 0.59338 0.58382 0.53467 0.0
C803 C 0.60049 0.56134 0.46173 0.0
H804 H 0.59955 0.56569 0.42291 0.0
H805 H 0.59621 0.54603 0.4651 0.0
H806 H 0.61375 0.56183 0.4734 0.0
O807 O 0.5482 0.58748 0.39758 0.0
O808 O 0.53522 0.60482 0.45447 0.0
H809 H 0.56935 0.61849 0.58244 0.0
H810 H 0.58756 0.6085 0.61223 0.0
C811 C 0.57562 0.60479 0.59385 0.0
H812 H 0.56722 0.5972 0.61994 0.0
H813 H 0.53983 0.63596 0.52915 0.0
O814 O 0.5714 0.55027 0.38712 0.0
C815 C 0.53861 0.60146 0.40989 0.0
Co816 Co 0.24121 0.33942 0.26215 0.0
Co817 Co 0.25934 0.31254 0.33933 0.0
C818 C 0.2254 0.31052 0.32288 0.0
O819 O 0.22213 0.32406 0.29243 0.0
O820 O 0.23552 0.31473 0.35664 0.0
C821 C 0.22402 0.35493 0.18068 0.0
O822 O 0.21559 0.33851 0.18393 0.0
C823 C 0.26914 0.29315 0.43147 0.0
C824 C 0.29139 0.2768 0.40609 0.0
C825 C 0.28107 0.27953 0.44612 0.0
N826 N 0.27229 0.29801 0.38489 0.0
N827 N 0.28577 0.28844 0.37031 0.0
C828 C 0.25409 0.30002 0.45889 0.0
H829 H 0.24907 0.31358 0.44238 0.0
H830 H 0.2573 0.30292 0.49741 0.0
H831 H 0.24427 0.28858 0.45742 0.0
C832 C 0.26503 0.36786 0.30607 0.0
N833 N 0.25765 0.35015 0.30555 0.0
N834 N 0.2658 0.33859 0.33569 0.0
C835 C 0.27813 0.34861 0.35732 0.0
C836 C 0.27813 0.36747 0.33919 0.0
C837 C 0.26097 0.38395 0.27125 0.0
H838 H 0.26432 0.37928 0.23378 0.0
H839 H 0.2473 0.38689 0.27213 0.0
H840 H 0.26792 0.3975 0.28034 0.0
O841 O 0.25256 0.32014 0.22067 0.0
O842 O 0.26326 0.29959 0.27466 0.0
H843 H 0.29776 0.32816 0.37153 0.0
H844 H 0.29962 0.35073 0.40533 0.0
C845 C 0.2907 0.33971 0.39111 0.0
H846 H 0.28406 0.33278 0.42214 0.0
H847 H 0.29069 0.2892 0.33511 0.0
O848 O 0.23413 0.35938 0.21455 0.0
C849 C 0.2604 0.3045 0.23068 0.0
Co850 Co 0.42629 0.57316 0.92356 0.0
Co851 Co 0.44235 0.59436 0.01381 0.0
C852 C 0.45272 0.55418 0.98649 0.0
O853 O 0.44276 0.55465 0.95039 0.0
O854 O 0.4538 0.5685 0.01594 0.0
C855 C 0.41009 0.54096 0.88018 0.0
O856 O 0.41412 0.53282 0.92189 0.0
C857 C 0.4581 0.60441 0.10726 0.0
C858 C 0.45368 0.63616 0.11212 0.0
C859 C 0.46161 0.62076 0.13514 0.0
N860 N 0.44867 0.60983 0.06911 0.0
N861 N 0.44594 0.62884 0.07251 0.0
C862 C 0.46373 0.58393 0.11667 0.0
H863 H 0.45337 0.57363 0.10868 0.0
H864 H 0.46774 0.58199 0.15506 0.0
H865 H 0.47442 0.58049 0.09227 0.0
C866 C 0.39538 0.58049 0.97908 0.0
N867 N 0.41203 0.58236 0.97298 0.0
N868 N 0.41855 0.59093 0.01143 0.0
C869 C 0.40617 0.59454 0.04378 0.0
C870 C 0.39108 0.58805 0.02424 0.0
C871 C 0.38418 0.56995 0.94412 0.0
H872 H 0.38672 0.55409 0.94675 0.0
H873 H 0.37072 0.57214 0.95202 0.0
H874 H 0.38686 0.57481 0.90639 0.0
O875 O 0.43864 0.59447 0.89208 0.0
O876 O 0.45156 0.60801 0.95518 0.0
H877 H 0.39717 0.60471 0.11408 0.0
H878 H 0.41875 0.59636 0.1124 0.0
C879 C 0.40881 0.60421 0.09203 0.0
H880 H 0.41315 0.61937 0.0859 0.0
H881 H 0.43926 0.63694 0.04684 0.0
O882 O 0.41378 0.55877 0.87293 0.0
C883 C 0.44892 0.60678 0.90951 0.0
Co884 Co 0.23586 0.65543 0.76114 0.0
Co885 Co 0.21863 0.68328 0.83888 0.0
C886 C 0.25286 0.68324 0.82026 0.0
O887 O 0.25574 0.66936 0.79048 0.0
O888 O 0.24254 0.67966 0.8541 0.0
C889 C 0.25368 0.6386 0.68181 0.0
O890 O 0.26387 0.65335 0.6893 0.0
C891 C 0.21187 0.70142 0.93447 0.0
C892 C 0.1878 0.71631 0.92073 0.0
C893 C 0.19992 0.71339 0.95598 0.0
N894 N 0.20706 0.69748 0.88864 0.0
N895 N 0.1926 0.70635 0.88078 0.0
C896 C 0.22722 0.69318 0.95768 0.0
H897 H 0.23004 0.67856 0.94235 0.0
H898 H 0.22542 0.69197 0.99765 0.0
H899 H 0.23802 0.70293 0.95013 0.0
C900 C 0.21275 0.6274 0.80991 0.0
N901 N 0.21949 0.64537 0.8056 0.0
N902 N 0.21143 0.65736 0.83504 0.0
C903 C 0.19972 0.64741 0.8598 0.0
C904 C 0.20018 0.6281 0.84481 0.0
C905 C 0.21785 0.6102 0.77985 0.0
H906 H 0.23171 0.60881 0.78001 0.0
H907 H 0.21209 0.59653 0.79371 0.0
H908 H 0.21385 0.6126 0.74162 0.0
O909 O 0.22495 0.67566 0.72167 0.0
O910 O 0.21459 0.69693 0.77474 0.0
H911 H 0.18152 0.6692 0.8774 0.0
H912 H 0.17795 0.64626 0.90763 0.0
C913 C 0.18773 0.65659 0.89507 0.0
H914 H 0.19478 0.66206 0.92704 0.0
H915 H 0.18616 0.70592 0.84774 0.0
O916 O 0.24188 0.63555 0.71195 0.0
C917 C 0.21747 0.69164 0.73092 0.0
Co918 Co 0.06194 0.42341 0.42909 0.0
Co919 Co 0.04383 0.40256 0.51585 0.0
C920 C 0.03436 0.44261 0.48964 0.0
O921 O 0.04498 0.442 0.45494 0.0
O922 O 0.03254 0.42828 0.51887 0.0
C923 C 0.08057 0.45537 0.39355 0.0
O924 O 0.07772 0.46199 0.43772 0.0
C925 C 0.02909 0.38983 0.60937 0.0
C926 C 0.03145 0.35775 0.60304 0.0
C927 C 0.02553 0.37242 0.63308 0.0
N928 N 0.03691 0.38562 0.56728 0.0
N929 N 0.03842 0.36644 0.56397 0.0
C930 C 0.02384 0.40999 0.6238 0.0
H931 H 0.01333 0.41468 0.60012 0.0
H932 H 0.03437 0.42029 0.61781 0.0
H933 H 0.01967 0.41067 0.66229 0.0
C934 C 0.09173 0.41382 0.4877 0.0
N935 N 0.07513 0.41332 0.47963 0.0
N936 N 0.06753 0.40572 0.51764 0.0
C937 C 0.07903 0.40186 0.5522 0.0
C938 C 0.09482 0.40682 0.53433 0.0
C939 C 0.10437 0.41977 0.45014 0.0
H940 H 0.09959 0.4166 0.41309 0.0
H941 H 0.10671 0.43568 0.45317 0.0
H942 H 0.11639 0.41192 0.45549 0.0
O943 O 0.05009 0.40276 0.39377 0.0
O944 O 0.03569 0.38981 0.45495 0.0
H945 H 0.07241 0.3793 0.6024 0.0
H946 H 0.08487 0.39861 0.62882 0.0
C947 C 0.0747 0.39527 0.60267 0.0
H948 H 0.06309 0.40264 0.61505 0.0
H949 H 0.04385 0.35926 0.53436 0.0
O950 O 0.07547 0.43841 0.38222 0.0
C951 C 0.03916 0.39087 0.40972 0.0
Co952 Co 0.25606 0.65342 0.24872 0.0
Co953 Co 0.27171 0.67989 0.16556 0.0
C954 C 0.23501 0.68135 0.19796 0.0
O955 O 0.23537 0.66677 0.22691 0.0
O956 O 0.24797 0.68648 0.17397 0.0
C957 C 0.24011 0.63561 0.33216 0.0
O958 O 0.22744 0.64715 0.32187 0.0
C959 C 0.27197 0.70171 0.0728 0.0
C960 C 0.299 0.70513 0.05801 0.0
C961 C 0.2833 0.70957 0.03974 0.0
N962 N 0.28053 0.69291 0.10879 0.0
N963 N 0.29671 0.69518 0.09988 0.0
C964 C 0.25329 0.70254 0.07043 0.0
H965 H 0.24878 0.71353 0.09703 0.0
H966 H 0.24791 0.68813 0.08014 0.0
H967 H 0.24898 0.70681 0.03372 0.0
C968 C 0.27299 0.6229 0.19119 0.0
N969 N 0.26806 0.64153 0.1975 0.0
N970 N 0.27434 0.65236 0.16236 0.0
C971 C 0.28302 0.64083 0.13169 0.0
C972 C 0.28264 0.62178 0.14923 0.0
C973 C 0.26965 0.60687 0.22685 0.0
H974 H 0.25611 0.60665 0.23619 0.0
H975 H 0.27342 0.59245 0.21192 0.0
H976 H 0.27674 0.60975 0.26082 0.0
O977 O 0.26897 0.67448 0.27943 0.0
O978 O 0.28233 0.69203 0.22392 0.0
H979 H 0.30447 0.65583 0.10424 0.0
H980 H 0.29736 0.63665 0.06495 0.0
C981 C 0.2932 0.64838 0.08986 0.0
H982 H 0.28568 0.65897 0.06863 0.0
H983 H 0.30621 0.69011 0.12266 0.0
O984 O 0.25255 0.63497 0.30329 0.0
C985 C 0.27854 0.68861 0.26821 0.0
Co986 Co 0.05784 0.57408 0.07357 0.0
Co987 Co 0.04071 0.5944 0.98375 0.0
C988 C 0.03193 0.55373 0.01187 0.0
O989 O 0.04202 0.55462 0.04758 0.0
O990 O 0.03019 0.56804 0.98262 0.0
C991 C 0.07547 0.5429 0.11646 0.0
O992 O 0.07222 0.5349 0.07402 0.0
C993 C 0.02482 0.60317 0.88972 0.0
C994 C 0.02679 0.63528 0.88596 0.0
C995 C 0.02015 0.61925 0.86218 0.0
N996 N 0.0336 0.60935 0.92842 0.0
N997 N 0.0349 0.62857 0.92565 0.0
C998 C 0.02101 0.58221 0.87934 0.0
H999 H 0.03193 0.57299 0.88914 0.0
H1000 H 0.01794 0.58001 0.84031 0.0
H1001 H 0.01014 0.57763 0.90179 0.0
C1002 C 0.08829 0.58301 0.01708 0.0
N1003 N 0.0716 0.58388 0.02359 0.0
N1004 N 0.0646 0.5921 0.98535 0.0
C1005 C 0.0767 0.59646 0.95271 0.0
C1006 C 0.0921 0.59085 0.97183 0.0
C1007 C 0.10008 0.57331 0.05197 0.0
H1008 H 0.0985 0.55729 0.04917 0.0
H1009 H 0.11337 0.57659 0.04413 0.0
H1010 H 0.09709 0.57786 0.08975 0.0
O1011 O 0.04488 0.59492 0.10504 0.0
O1012 O 0.03137 0.60793 0.04225 0.0
H1013 H 0.06816 0.62081 0.91113 0.0
H1014 H 0.0851 0.60766 0.8828 0.0
C1015 C 0.07349 0.60609 0.90469 0.0
H1016 H 0.06413 0.59748 0.88401 0.0
H1017 H 0.04081 0.63719 0.95181 0.0
O1018 O 0.07089 0.56039 0.12425 0.0
C1019 C 0.03424 0.60689 0.0878 0.0
Co1020 Co 0.23309 0.34154 0.75311 0.0
Co1021 Co 0.22153 0.31409 0.66649 0.0
C1022 C 0.25316 0.31009 0.71085 0.0
O1023 O 0.25289 0.32395 0.74183 0.0
O1024 O 0.24618 0.31291 0.66991 0.0
C1025 C 0.24796 0.35916 0.83744 0.0
O1026 O 0.25945 0.34556 0.83234 0.0
C1027 C 0.21908 0.2885 0.57801 0.0
C1028 C 0.19181 0.28951 0.56477 0.0
C1029 C 0.20663 0.28187 0.54686 0.0
N1030 N 0.212 0.2999 0.61238 0.0
N1031 N 0.19564 0.30003 0.60463 0.0
C1032 C 0.23723 0.28328 0.57617 0.0
H1033 H 0.23923 0.27036 0.59967 0.0
H1034 H 0.24507 0.29553 0.58915 0.0
H1035 H 0.24106 0.27904 0.53896 0.0
C1036 C 0.21619 0.37062 0.69198 0.0
N1037 N 0.22251 0.35255 0.69772 0.0
N1038 N 0.21722 0.34138 0.66186 0.0
C1039 C 0.20834 0.35248 0.63066 0.0
C1040 C 0.20686 0.37121 0.64947 0.0
C1041 C 0.21683 0.38609 0.73038 0.0
H1042 H 0.21015 0.38088 0.76342 0.0
H1043 H 0.23007 0.38888 0.74042 0.0
H1044 H 0.21101 0.39989 0.71758 0.0
O1045 O 0.21708 0.32426 0.78458 0.0
O1046 O 0.21148 0.30232 0.72762 0.0
H1047 H 0.18732 0.33934 0.59556 0.0
H1048 H 0.19803 0.35713 0.55918 0.0
C1049 C 0.19985 0.34512 0.58577 0.0
H1050 H 0.20748 0.33354 0.56838 0.0
H1051 H 0.18702 0.30727 0.62685 0.0
O1052 O 0.23694 0.3612 0.80455 0.0
C1053 C 0.21028 0.30836 0.7715 0.0
Co1054 Co 0.41904 0.42253 0.56565 0.0
Co1055 Co 0.43836 0.40279 0.47879 0.0
C1056 C 0.44736 0.44255 0.51082 0.0
O1057 O 0.43622 0.44179 0.5441 0.0
O1058 O 0.44951 0.42847 0.48113 0.0
C1059 C 0.39997 0.45368 0.60371 0.0
O1060 O 0.40306 0.46104 0.56041 0.0
C1061 C 0.45308 0.39142 0.38255 0.0
C1062 C 0.45342 0.35934 0.39088 0.0
C1063 C 0.45766 0.37424 0.35921 0.0
N1064 N 0.44627 0.38685 0.42603 0.0
N1065 N 0.44641 0.36763 0.43041 0.0
C1066 C 0.45609 0.41178 0.36476 0.0
H1067 H 0.45423 0.42259 0.39413 0.0
H1068 H 0.44716 0.41514 0.33501 0.0
H1069 H 0.46897 0.41307 0.34973 0.0
C1070 C 0.39009 0.41384 0.50222 0.0
N1071 N 0.40658 0.41328 0.51234 0.0
N1072 N 0.41472 0.406 0.47482 0.0
C1073 C 0.40373 0.40238 0.43878 0.0
C1074 C 0.3877 0.40715 0.45495 0.0
C1075 C 0.37689 0.41955 0.53832 0.0
H1076 H 0.38104 0.416 0.5758 0.0
H1077 H 0.37467 0.43551 0.53587 0.0
H1078 H 0.36492 0.41188 0.53086 0.0
O1079 O 0.43064 0.4013 0.59989 0.0
O1080 O 0.44556 0.3889 0.53906 0.0
H1081 H 0.41225 0.38052 0.38899 0.0
H1082 H 0.39864 0.39863 0.36172 0.0
C1083 C 0.40879 0.39621 0.38857 0.0
H1084 H 0.41989 0.4047 0.37694 0.0
H1085 H 0.44201 0.36016 0.461 0.0
O1086 O 0.40491 0.43647 0.61325 0.0
C1087 C 0.44163 0.38944 0.58402 0.0
H1088 H 0.2371 0.27832 0.37053 0.0
H1089 H 0.24551 0.21511 0.12766 0.0
H1090 H 0.21795 0.29665 0.23075 0.0
H1091 H 0.26253 0.1952 0.2684 0.0
H1092 H 0.23702 0.2459 0.16414 0.0
H1093 H 0.24647 0.24784 0.33403 0.0
C1094 C 0.23469 0.27588 0.33221 0.0
C1095 C 0.22723 0.29044 0.30333 0.0
C1096 C 0.24265 0.23484 0.18707 0.0
C1097 C 0.2379 0.25539 0.26134 0.0
C1098 C 0.24764 0.21727 0.1662 0.0
C1099 C 0.25416 0.20219 0.1953 0.0
C1100 C 0.24449 0.23759 0.23736 0.0
C1101 C 0.25722 0.20619 0.24466 0.0
C1102 C 0.24018 0.25849 0.31134 0.0
C1103 C 0.22393 0.28608 0.2543 0.0
N1104 N 0.25213 0.22344 0.26429 0.0
N1105 N 0.22948 0.26903 0.23472 0.0
H1106 H 0.0056 0.94396 0.43408 0.0
H1107 H 0.97366 0.04438 0.55107 0.0
H1108 H 0.0301 0.97348 0.5533 0.0
H1109 H 0.9507 0.018 0.42493 0.0
H1110 H -0.00624 0.01768 0.55382 0.0
H1111 H 0.9851 0.9705 0.43034 0.0
C1112 C 0.00675 0.95605 0.45925 0.0
C1113 C 0.01959 0.95642 0.49417 0.0
C1114 C 0.98432 0.01769 0.52554 0.0
C1115 C -0.00393 0.98673 0.49034 0.0
C1116 C 0.97277 0.03295 0.52404 0.0
C1117 C 0.96049 0.03356 0.48756 0.0
C1118 C 0.98363 0.00284 0.49035 0.0
C1119 C 0.95997 0.01819 0.45367 0.0
C1120 C -0.005 0.97116 0.45719 0.0
C1121 C 0.02042 0.97248 0.52584 0.0
N1122 N 0.97141 0.00349 0.4558 0.0
N1123 N 0.0088 0.98692 0.52326 0.0
H1124 H 0.23821 0.77992 0.62381 0.0
H1125 H 0.24241 0.71626 0.86671 0.0
H1126 H 0.21743 0.79843 0.76167 0.0
H1127 H 0.26084 0.69609 0.72747 0.0
H1128 H 0.23425 0.74695 0.82918 0.0
H1129 H 0.24579 0.74878 0.66024 0.0
C1130 C 0.23509 0.7774 0.66167 0.0
C1131 C 0.2278 0.79219 0.69023 0.0
C1132 C 0.2401 0.73585 0.8068 0.0
C1133 C 0.23648 0.75645 0.73218 0.0
C1134 C 0.2449 0.71833 0.82828 0.0
C1135 C 0.25176 0.70323 0.79986 0.0
C1136 C 0.24249 0.73852 0.75666 0.0
C1137 C 0.25526 0.70711 0.75064 0.0
C1138 C 0.23955 0.75962 0.68252 0.0
C1139 C 0.22345 0.78771 0.73853 0.0
N1140 N 0.25038 0.72432 0.73045 0.0
N1141 N 0.2281 0.77033 0.7582 0.0
H1142 H 0.44725 0.01725 0.04989 0.0
H1143 H 0.53114 0.97286 0.93545 0.0
H1144 H 0.47695 0.04692 0.94104 0.0
H1145 H 0.50188 0.94387 0.04647 0.0
H1146 H 0.51132 -0.00011 0.93639 0.0
H1147 H 0.46652 0.98974 0.04652 0.0
C1148 C 0.45777 0.01794 0.02496 0.0
C1149 C 0.46056 0.03453 0.99595 0.0
C1150 C 0.50923 0.98765 0.96061 0.0
C1151 C 0.48281 0.00301 0.99235 0.0
C1152 C 0.52058 0.97219 0.96026 0.0
C1153 C 0.51814 0.95598 0.99085 0.0
C1154 C 0.49528 0.98695 0.99169 0.0
C1155 C 0.50427 0.95605 0.02231 0.0
C1156 C 0.46881 0.00221 0.02321 0.0
C1157 C 0.47432 0.03447 0.96409 0.0
N1158 N 0.49332 0.97127 0.02177 0.0
N1159 N 0.48502 0.019 0.9634 0.0
H1160 H 0.25675 0.77688 0.34385 0.0
H1161 H 0.22178 0.70849 0.13462 0.0
H1162 H 0.24628 0.79791 0.19921 0.0
H1163 H 0.22248 0.69247 0.28606 0.0
H1164 H 0.22779 0.74219 0.15732 0.0
H1165 H 0.24466 0.74524 0.32179 0.0
C1166 C 0.25186 0.77478 0.30751 0.0
C1167 C 0.25151 0.79035 0.27447 0.0
C1168 C 0.22605 0.73146 0.18579 0.0
C1169 C 0.23789 0.75434 0.24842 0.0
C1170 C 0.22223 0.71225 0.17292 0.0
C1171 C 0.22332 0.69747 0.20826 0.0
C1172 C 0.22963 0.73581 0.23466 0.0
C1173 C 0.22271 0.70328 0.25727 0.0
C1174 C 0.24488 0.75683 0.29495 0.0
C1175 C 0.2463 0.78652 0.22653 0.0
N1176 N 0.22684 0.7219 0.26918 0.0
N1177 N 0.23943 0.76897 0.21515 0.0
H1178 H 0.47638 0.94578 0.56089 0.0
H1179 H 0.5054 0.04733 0.44291 0.0
H1180 H 0.45059 0.97404 0.442 0.0
H1181 H 0.53072 0.01966 0.56352 0.0
H1182 H 0.48552 0.02026 0.44102 0.0
H1183 H 0.49637 0.97277 0.56266 0.0
C1184 C 0.47484 0.95769 0.53537 0.0
C1185 C 0.46178 0.95757 0.50117 0.0
C1186 C 0.49545 0.0201 0.46782 0.0
C1187 C 0.48474 0.98847 0.50272 0.0
C1188 C 0.50687 0.03553 0.4688 0.0
C1189 C 0.51975 0.03586 0.50354 0.0
C1190 C 0.4969 0.00485 0.50182 0.0
C1191 C 0.52098 0.02011 0.53616 0.0
C1192 C 0.4863 0.97308 0.53628 0.0
C1193 C 0.46045 0.97345 0.46898 0.0
N1194 N 0.50968 0.0053 0.53459 0.0
N1195 N 0.4718 0.9882 0.47045 0.0
H1196 H 0.25701 0.27614 0.66177 0.0
H1197 H 0.21973 0.20797 0.86699 0.0
H1198 H 0.24553 0.29809 0.80481 0.0
H1199 H 0.219 0.19403 0.71446 0.0
H1200 H 0.22679 0.24167 0.84676 0.0
H1201 H 0.24396 0.24504 0.68333 0.0
C1202 C 0.2517 0.27433 0.69768 0.0
C1203 C 0.25132 0.29004 0.73018 0.0
C1204 C 0.22443 0.23144 0.81756 0.0
C1205 C 0.23666 0.25457 0.75596 0.0
C1206 C 0.22005 0.21224 0.829 0.0
C1207 C 0.22088 0.1979 0.79244 0.0
C1208 C 0.2278 0.23632 0.76888 0.0
C1209 C 0.21977 0.20441 0.7441 0.0
C1210 C 0.24417 0.25669 0.70998 0.0
C1211 C 0.24557 0.28657 0.77784 0.0
N1212 N 0.22428 0.22303 0.73343 0.0
N1213 N 0.23822 0.26923 0.78915 0.0
H1214 H 0.00262 0.05017 0.05572 0.0
H1215 H 0.97855 0.9449 0.95001 0.0
H1216 H 0.03268 0.0175 0.95309 0.0
H1217 H 0.95098 0.97254 0.06675 0.0
H1218 H -0.00234 0.97257 0.94851 0.0
H1219 H 0.98302 0.02259 0.05984 0.0
C1220 C 0.00518 0.0372 0.03441 0.0
C1221 C 0.01927 0.03623 0.00379 0.0
C1222 C 0.98743 0.97262 0.97449 0.0
C1223 C -0.00311 0.00484 0.00794 0.0
C1224 C 0.97645 0.95682 0.9752 0.0
C1225 C 0.96317 0.95631 0.00869 0.0
C1226 C 0.98513 0.98811 0.0074 0.0
C1227 C 0.96109 0.97226 0.04041 0.0
C1228 C -0.00603 0.02151 0.03663 0.0
C1229 C 0.02195 0.01904 0.97697 0.0
N1230 N 0.97198 0.9875 0.03904 0.0
N1231 N 0.01085 0.00413 0.97951 0.0
H1232 H 0.74659 0.71135 0.62286 0.0
H1233 H 0.72369 0.80213 0.71569 0.0
H1234 H 0.75928 0.69621 0.77085 0.0
H1235 H 0.74068 0.77984 0.85414 0.0
H1236 H 0.72952 0.77061 0.67916 0.0
H1237 H 0.73982 0.74409 0.649 0.0
C1238 C 0.74803 0.71498 0.66098 0.0
C1239 C 0.7529 0.70072 0.69491 0.0
C1240 C 0.73213 0.77246 0.71743 0.0
C1241 C 0.7449 0.73851 0.7259 0.0
C1242 C 0.72856 0.79056 0.73853 0.0
C1243 C 0.73223 0.79392 0.78781 0.0
C1244 C 0.73947 0.75763 0.74587 0.0
C1245 C 0.73815 0.77818 0.81572 0.0
C1246 C 0.74395 0.73378 0.67619 0.0
C1247 C 0.75524 0.70654 0.74342 0.0
N1248 N 0.7418 0.76087 0.79424 0.0
N1249 N 0.75098 0.7249 0.75752 0.0
H1250 H 0.73989 0.28233 0.11795 0.0
H1251 H 0.75437 0.21361 0.34648 0.0
H1252 H 0.72496 0.29788 0.26405 0.0
H1253 H 0.7535 0.19127 0.20006 0.0
H1254 H 0.74591 0.24558 0.31618 0.0
H1255 H 0.74645 0.24947 0.14598 0.0
C1256 C 0.7378 0.27878 0.15582 0.0
C1257 C 0.73242 0.29312 0.18894 0.0
C1258 C 0.74773 0.23375 0.2906 0.0
C1259 C 0.74 0.25555 0.22133 0.0
C1260 C 0.75231 0.21548 0.30803 0.0
C1261 C 0.75357 0.19952 0.27641 0.0
C1262 C 0.74544 0.23643 0.24052 0.0
C1263 C 0.75223 0.20303 0.22611 0.0
C1264 C 0.74164 0.26003 0.17181 0.0
C1265 C 0.72937 0.28747 0.23729 0.0
N1266 N 0.74814 0.22115 0.20968 0.0
N1267 N 0.7335 0.26918 0.25222 0.0
H1268 H 0.76042 0.29963 0.72765 0.0
H1269 H 0.71914 0.19472 0.77382 0.0
H1270 H 0.743 0.27931 0.86785 0.0
H1271 H 0.73883 0.21325 0.63456 0.0
H1272 H 0.7263 0.2266 0.80746 0.0
H1273 H 0.75291 0.26802 0.69263 0.0
C1274 C 0.75521 0.28851 0.75124 0.0
C1275 C 0.75188 0.29241 0.80056 0.0
C1276 C 0.729 0.2237 0.76948 0.0
C1277 C 0.7431 0.2563 0.76056 0.0
C1278 C 0.72479 0.20553 0.75013 0.0
C1279 C 0.72886 0.20102 0.70164 0.0
C1280 C 0.73725 0.2375 0.74012 0.0
C1281 C 0.73588 0.21583 0.67252 0.0
C1282 C 0.75081 0.2705 0.73112 0.0
C1283 C 0.74536 0.27723 0.82939 0.0
N1284 N 0.74008 0.23329 0.69239 0.0
N1285 N 0.74097 0.25999 0.80884 0.0
H1286 H 0.74119 0.71371 0.37355 0.0
H1287 H 0.74233 0.78019 0.13489 0.0
H1288 H 0.71982 0.69612 0.23598 0.0
H1289 H 0.7594 0.80001 0.27568 0.0
H1290 H 0.73598 0.74844 0.17018 0.0
H1291 H 0.74804 0.74534 0.33849 0.0
C1292 C 0.7378 0.71653 0.33605 0.0
C1293 C 0.73045 0.70193 0.3072 0.0
C1294 C 0.74114 0.75972 0.19334 0.0
C1295 C 0.73836 0.73818 0.26675 0.0
C1296 C 0.74491 0.77783 0.17316 0.0
C1297 C 0.75091 0.79305 0.20268 0.0
C1298 C 0.74358 0.75667 0.24333 0.0
C1299 C 0.75448 0.78889 0.25167 0.0
C1300 C 0.74183 0.73458 0.31597 0.0
C1301 C 0.72583 0.70673 0.25933 0.0
N1302 N 0.75054 0.77114 0.2706 0.0
N1303 N 0.7301 0.72437 0.24038 0.0
H1304 H 0.50611 0.44674 0.93307 0.0
H1305 H 0.47822 0.54841 0.0525 0.0
H1306 H 0.53032 0.47178 0.05898 0.0
H1307 H 0.45277 0.52085 0.93207 0.0
H1308 H 0.49769 0.52081 0.05545 0.0
H1309 H 0.48711 0.47459 0.93077 0.0
C1310 C 0.50752 0.45813 0.96007 0.0
C1311 C 0.5198 0.45682 0.99641 0.0
C1312 C 0.4878 0.52082 0.0285 0.0
C1313 C 0.49795 0.48877 0.99422 0.0
C1314 C 0.47664 0.53654 0.02693 0.0
C1315 C 0.46386 0.53704 0.99186 0.0
C1316 C 0.48617 0.50551 0.99474 0.0
C1317 C 0.46245 0.52121 0.95961 0.0
C1318 C 0.4966 0.47403 0.95887 0.0
C1319 C 0.52101 0.47211 0.03037 0.0
N1320 N 0.47349 0.50617 0.96175 0.0
N1321 N 0.51018 0.48741 0.02855 0.0
H1322 H 0.94798 0.51529 0.53843 0.0
H1323 H 0.03618 0.47701 0.43886 0.0
H1324 H 0.98017 0.55037 0.44697 0.0
H1325 H 0.00646 0.44702 0.54714 0.0
H1326 H 0.0157 0.50355 0.43856 0.0
H1327 H 0.9687 0.48936 0.537 0.0
C1328 C 0.95939 0.51754 0.51773 0.0
C1329 C 0.96237 0.53517 0.49305 0.0
C1330 C 0.01372 0.49121 0.46254 0.0
C1331 C 0.98634 0.50534 0.49166 0.0
C1332 C 0.02542 0.47605 0.46287 0.0
C1333 C 0.02301 0.45967 0.49298 0.0
C1334 C -0.00056 0.48996 0.49227 0.0
C1335 C 0.00886 0.45931 0.52335 0.0
C1336 C 0.97128 0.50269 0.51715 0.0
C1337 C 0.97735 0.53705 0.46655 0.0
N1338 N -0.00242 0.47416 0.52197 0.0
N1339 N 0.98884 0.52233 0.46673 0.0
H1340 H 0.95289 0.47297 0.93904 0.0
H1341 H 0.03406 0.51955 0.06311 0.0
H1342 H 0.98134 0.44395 0.05153 0.0
H1343 H 0.00563 0.54767 0.94926 0.0
H1344 H 0.01524 0.49159 0.05881 0.0
H1345 H 0.97204 0.50048 0.9431 0.0
C1346 C 0.96314 0.47238 0.96482 0.0
C1347 C 0.96552 0.45603 0.99492 0.0
C1348 C 0.01314 0.50385 0.03467 0.0
C1349 C 0.98765 0.48763 -0.00055 0.0
C1350 C 0.02391 0.51984 0.03698 0.0
C1351 C 0.0214 0.53609 0.00659 0.0
C1352 C -0.0003 0.50407 0.00182 0.0
C1353 C 0.00807 0.53552 0.97336 0.0
C1354 C 0.97411 0.48814 0.96698 0.0
C1355 C 0.979 0.45623 0.02767 0.0
N1356 N -0.00231 0.51982 0.97204 0.0
N1357 N 0.9896 0.47177 0.02895 0.0
H1358 H 0.53303 0.51531 0.45814 0.0
H1359 H 0.44644 0.47595 0.56638 0.0
H1360 H 0.50191 0.5503 0.553 0.0
H1361 H 0.47459 0.44777 0.45163 0.0
H1362 H 0.46696 0.50252 0.56671 0.0
H1363 H 0.51255 0.48928 0.4622 0.0
C1364 C 0.5219 0.51752 0.48011 0.0
C1365 C 0.51913 0.53516 0.50489 0.0
C1366 C 0.46857 0.49054 0.54139 0.0
C1367 C 0.4954 0.50519 0.50937 0.0
C1368 C 0.45686 0.47538 0.54105 0.0
C1369 C 0.45881 0.45953 0.50897 0.0
C1370 C 0.48237 0.48977 0.50968 0.0
C1371 C 0.47254 0.45962 0.47702 0.0
C1372 C 0.51014 0.5026 0.48223 0.0
C1373 C 0.50452 0.53697 0.53319 0.0
N1374 N 0.4838 0.47443 0.47839 0.0
N1375 N 0.49312 0.52218 0.53446 0.0
H1376 H 0.19666 0.10805 0.06837 0.0
H1377 H 0.10138 0.08241 0.13124 0.0
H1378 H 0.17653 0.11509 0.21295 0.0
H1379 H 0.11988 0.1006 0.99075 0.0
H1380 H 0.13001 0.08552 0.16417 0.0
H1381 H 0.17 0.09392 0.04221 0.0
C1382 C 0.18678 0.10588 0.09495 0.0
C1383 C 0.18856 0.11276 0.14256 0.0
C1384 C 0.12773 0.08866 0.12608 0.0
C1385 C 0.15805 0.09741 0.11292 0.0
C1386 C 0.11147 0.0871 0.10752 0.0
C1387 C 0.1084 0.09126 0.05832 0.0
C1388 C 0.14088 0.09414 0.09487 0.0
C1389 C 0.12181 0.09708 0.02878 0.0
C1390 C 0.17154 0.09809 0.07999 0.0
C1391 C 0.17547 0.10989 0.17585 0.0
N1392 N 0.13747 0.09826 0.04744 0.0
N1393 N 0.16054 0.10273 0.16017 0.0
H1394 H 0.10499 0.87579 0.4029 0.0
H1395 H 0.1983 0.89908 0.41683 0.0
H1396 H 0.11817 0.93353 0.45255 0.0
H1397 H 0.17825 0.87274 0.28697 0.0
H1398 H 0.17011 0.91154 0.43671 0.0
H1399 H 0.13269 0.87276 0.3657 0.0
C1400 C 0.1136 0.88795 0.40535 0.0
C1401 C 0.10927 0.90492 0.43089 0.0
C1402 C 0.17206 0.90355 0.40313 0.0
C1403 C 0.14113 0.90122 0.3901 0.0
C1404 C 0.18806 0.89655 0.39179 0.0
C1405 C 0.19042 0.88504 0.35023 0.0
C1406 C 0.15848 0.89834 0.37338 0.0
C1407 C 0.17682 0.88172 0.31918 0.0
C1408 C 0.12941 0.88618 0.38429 0.0
C1409 C 0.12114 0.92001 0.43407 0.0
N1410 N 0.1613 0.88794 0.33198 0.0
N1411 N 0.13671 0.91769 0.41466 0.0
H1412 H 0.37969 0.87488 0.60085 0.0
H1413 H 0.28581 0.89802 0.6046 0.0
H1414 H 0.36414 0.9319 0.55165 0.0
H1415 H 0.30877 0.8671 0.7236 0.0
H1416 H 0.31334 0.91161 0.58272 0.0
H1417 H 0.35305 0.87134 0.64355 0.0
C1418 C 0.37078 0.88679 0.59961 0.0
C1419 C 0.37416 0.90371 0.57269 0.0
C1420 C 0.31222 0.90242 0.61467 0.0
C1421 C 0.34342 0.89947 0.62017 0.0
C1422 C 0.29656 0.89483 0.6273 0.0
C1423 C 0.29519 0.88164 0.66606 0.0
C1424 C 0.32649 0.89617 0.64018 0.0
C1425 C 0.30944 0.8774 0.69374 0.0
C1426 C 0.35557 0.88475 0.62394 0.0
C1427 C 0.3619 0.91844 0.5712 0.0
N1428 N 0.32462 0.88427 0.67955 0.0
N1429 N 0.34691 0.91586 0.59399 0.0
H1430 H 0.2839 0.1028 0.93438 0.0
H1431 H 0.37962 0.07577 0.88416 0.0
H1432 H 0.30637 0.10954 0.79256 0.0
H1433 H 0.36092 0.10286 0.01518 0.0
H1434 H 0.35105 0.07649 0.85028 0.0
H1435 H 0.31024 0.08876 0.96431 0.0
C1436 C 0.2942 0.1006 0.90919 0.0
C1437 C 0.29327 0.10771 0.8615 0.0
C1438 C 0.35326 0.08198 0.8867 0.0
C1439 C 0.32313 0.09191 0.89503 0.0
C1440 C 0.36949 0.08181 0.90572 0.0
C1441 C 0.37251 0.0893 0.95241 0.0
C1442 C 0.34006 0.08934 0.91513 0.0
C1443 C 0.35901 0.09673 0.97927 0.0
C1444 C 0.3092 0.09277 0.92626 0.0
C1445 C 0.30677 0.10439 0.82983 0.0
N1446 N 0.34335 0.09651 0.96033 0.0
N1447 N 0.32137 0.09706 0.84743 0.0
H1448 H 0.78951 0.89638 0.90529 0.0
H1449 H 0.8824 0.87557 0.89695 0.0
H1450 H 0.8112 0.87206 0.77497 0.0
H1451 H 0.86763 0.9318 0.95352 0.0
H1452 H 0.85571 0.87344 0.85421 0.0
H1453 H 0.81692 0.91046 0.9262 0.0
C1454 C 0.79993 0.89473 0.88025 0.0
C1455 C 0.79834 0.88316 0.83854 0.0
C1456 C 0.85844 0.88639 0.87538 0.0
C1457 C 0.82943 0.89829 0.86281 0.0
C1458 C 0.87366 0.88762 0.89973 0.0
C1459 C 0.87721 0.90385 0.92889 0.0
C1460 C 0.84648 0.90118 0.88152 0.0
C1461 C 0.86521 0.91881 0.93226 0.0
C1462 C 0.81549 0.90265 0.89216 0.0
C1463 C 0.8121 0.881 0.8074 0.0
N1464 N 0.85017 0.91696 0.90959 0.0
N1465 N 0.82727 0.88805 0.82083 0.0
H1466 H 0.81027 0.12515 0.72321 0.0
H1467 H 0.86258 0.05991 0.53676 0.0
H1468 H 0.78603 0.0956 0.60426 0.0
H1469 H 0.87918 0.11519 0.59441 0.0
H1470 H 0.83567 0.06435 0.5792 0.0
H1471 H 0.8372 0.1114 0.69695 0.0
C1472 C 0.81059 0.11509 0.69277 0.0
C1473 C 0.7961 0.11133 0.66582 0.0
C1474 C 0.84537 0.0753 0.58287 0.0
C1475 C 0.82661 0.09603 0.63515 0.0
C1476 C 0.86061 0.07293 0.55832 0.0
C1477 C 0.87312 0.08728 0.56183 0.0
C1478 C 0.84288 0.09187 0.61197 0.0
C1479 C 0.87005 0.10361 0.59131 0.0
C1480 C 0.8259 0.10746 0.67751 0.0
C1481 C 0.79704 0.0986 0.626 0.0
N1482 N 0.85527 0.10543 0.61531 0.0
N1483 N 0.81216 0.09152 0.61134 0.0
H1484 H 0.61781 0.06072 0.46226 0.0
H1485 H 0.67454 0.12415 0.28455 0.0
H1486 H 0.60327 0.11693 0.4052 0.0
H1487 H 0.69617 0.09589 0.40983 0.0
H1488 H 0.64701 0.11142 0.30783 0.0
H1489 H 0.64558 0.06485 0.42476 0.0
C1490 C 0.62042 0.07388 0.4418 0.0
C1491 C 0.60827 0.08861 0.43716 0.0
C1492 C 0.65787 0.10761 0.32949 0.0
C1493 C 0.63949 0.09286 0.39265 0.0
C1494 C 0.67353 0.11469 0.31607 0.0
C1495 C 0.68746 0.11105 0.3456 0.0
C1496 C 0.65623 0.09674 0.37246 0.0
C1497 C 0.68559 0.09898 0.38642 0.0
C1498 C 0.63616 0.07608 0.42014 0.0
C1499 C 0.61215 0.10509 0.40912 0.0
N1500 N 0.67013 0.09234 0.3991 0.0
N1501 N 0.62742 0.10676 0.38781 0.0
H1502 H 0.67313 0.88357 0.21948 0.0
H1503 H 0.61818 0.88804 0.98876 0.0
H1504 H 0.69424 0.88447 0.07503 0.0
H1505 H 0.60114 0.91735 0.11866 0.0
H1506 H 0.64639 0.88673 0.02239 0.0
H1507 H 0.64726 0.89812 0.18734 0.0
C1508 C 0.67254 0.88768 0.18141 0.0
C1509 C 0.68556 0.88273 0.14947 0.0
C1510 C 0.63656 0.89369 0.04342 0.0
C1511 C 0.65619 0.89849 0.11254 0.0
C1512 C 0.62048 0.89431 0.02436 0.0
C1513 C 0.60748 0.90293 0.05093 0.0
C1514 C 0.63959 0.90125 0.09008 0.0
C1515 C 0.61092 0.91048 0.09732 0.0
C1516 C 0.65778 0.89579 0.16303 0.0
C1517 C 0.68431 0.88803 0.10046 0.0
N1518 N 0.6267 0.90929 0.11584 0.0
N1519 N 0.66966 0.89521 0.08315 0.0
H1520 H 0.67415 0.61152 0.72445 0.0
H1521 H 0.62193 0.5956 0.49016 0.0
H1522 H 0.69686 0.60477 0.58305 0.0
H1523 H 0.60282 0.57593 0.62868 0.0
H1524 H 0.64988 0.59779 0.52521 0.0
H1525 H 0.64868 0.59567 0.6939 0.0
C1526 C 0.67396 0.60592 0.68754 0.0
C1527 C 0.68734 0.60955 0.65579 0.0
C1528 C 0.63966 0.59273 0.54794 0.0
C1529 C 0.65839 0.59222 0.62038 0.0
C1530 C 0.62371 0.59158 0.52797 0.0
C1531 C 0.61016 0.58552 0.55662 0.0
C1532 C 0.64203 0.58831 0.59738 0.0
C1533 C 0.613 0.58084 0.60564 0.0
C1534 C 0.65944 0.59704 0.67001 0.0
C1535 C 0.68663 0.60227 0.60828 0.0
N1536 N 0.62865 0.58255 0.62479 0.0
N1537 N 0.67219 0.59435 0.59155 0.0
H1538 H 0.69425 0.39597 0.9153 0.0
H1539 H 0.60104 0.37492 0.89385 0.0
H1540 H 0.67465 0.37133 0.7829 0.0
H1541 H 0.61536 0.43011 0.95693 0.0
H1542 H 0.62846 0.37284 0.85475 0.0
H1543 H 0.66638 0.4095 0.9336 0.0
C1544 C 0.6842 0.39413 0.88926 0.0
C1545 C 0.68654 0.38266 0.84763 0.0
C1546 C 0.62549 0.38555 0.87661 0.0
C1547 C 0.65487 0.39716 0.86898 0.0
C1548 C 0.60985 0.38675 0.89888 0.0
C1549 C 0.60595 0.40264 0.92895 0.0
C1550 C 0.6375 0.40003 0.88564 0.0
C1551 C 0.61802 0.41735 0.93508 0.0
C1552 C 0.66835 0.40172 0.89972 0.0
C1553 C 0.67319 0.38022 0.81525 0.0
N1554 N 0.63344 0.41552 0.91438 0.0
N1555 N 0.65775 0.38698 0.82722 0.0
H1556 H 0.86565 0.38851 0.9904 0.0
H1557 H 0.81172 0.38274 0.22268 0.0
H1558 H 0.88346 0.41669 0.12073 0.0
H1559 H 0.78993 0.38548 0.07951 0.0
H1560 H 0.83745 0.39757 0.19032 0.0
H1561 H 0.83752 0.38761 0.02497 0.0
C1562 C 0.86354 0.39462 0.02631 0.0
C1563 C 0.87674 0.40278 0.05275 0.0
C1564 C 0.82681 0.39561 0.16641 0.0
C1565 C 0.84471 0.40157 0.09296 0.0
C1566 C 0.81213 0.38733 0.18493 0.0
C1567 C 0.79896 0.38281 0.15332 0.0
C1568 C 0.82818 0.39887 0.11606 0.0
C1569 C 0.79998 0.38872 0.10468 0.0
C1570 C 0.8475 0.39424 0.0459 0.0
C1571 C 0.87352 0.41015 0.0995 0.0
N1572 N 0.81457 0.39602 0.08714 0.0
N1573 N 0.85779 0.40918 0.11854 0.0
H1574 H 0.86007 0.5971 0.49944 0.0
H1575 H 0.80782 0.61358 0.26673 0.0
H1576 H 0.87996 0.57806 0.36127 0.0
H1577 H 0.78508 0.60289 0.40654 0.0
H1578 H 0.83377 0.5983 0.29585 0.0
H1579 H 0.83223 0.59893 0.46355 0.0
C1580 C 0.85849 0.5932 0.46147 0.0
C1581 C 0.8722 0.58732 0.43324 0.0
C1582 C 0.8229 0.59862 0.31953 0.0
C1583 C 0.84046 0.58962 0.39161 0.0
C1584 C 0.8081 0.60715 0.30278 0.0
C1585 C 0.79453 0.6095 0.33464 0.0
C1586 C 0.82402 0.59293 0.36856 0.0
C1587 C 0.7954 0.6013 0.38118 0.0
C1588 C 0.84261 0.5941 0.44107 0.0
C1589 C 0.86963 0.58279 0.384 0.0
N1590 N 0.8101 0.59379 0.39727 0.0
N1591 N 0.85401 0.58424 0.36442 0.0
H1592 H 0.28326 0.39683 0.40428 0.0
H1593 H 0.37774 0.37646 0.39909 0.0
H1594 H 0.3058 0.36664 0.28318 0.0
H1595 H 0.36113 0.43262 0.45153 0.0
H1596 H 0.35083 0.37217 0.35859 0.0
H1597 H 0.31073 0.41102 0.42409 0.0
C1598 C 0.2939 0.39387 0.38084 0.0
C1599 C 0.29247 0.38075 0.34204 0.0
C1600 C 0.35317 0.38557 0.37835 0.0
C1601 C 0.32367 0.396 0.36536 0.0
C1602 C 0.36853 0.38804 0.4014 0.0
C1603 C 0.37167 0.40493 0.42859 0.0
C1604 C 0.34068 0.39983 0.38371 0.0
C1605 C 0.35908 0.41922 0.43157 0.0
C1606 C 0.30952 0.40183 0.39222 0.0
C1607 C 0.30655 0.37686 0.31318 0.0
N1608 N 0.34397 0.41622 0.41003 0.0
N1609 N 0.3217 0.3841 0.3261 0.0
H1610 H 0.38101 0.57337 0.1125 0.0
H1611 H 0.28576 0.60228 0.0633 0.0
H1612 H 0.36289 0.60344 0.98505 0.0
H1613 H 0.30776 0.60778 0.20579 0.0
H1614 H 0.312 0.58788 0.03346 0.0
H1615 H 0.35232 0.57376 0.14623 0.0
C1616 C 0.37098 0.58002 0.09173 0.0
C1617 C 0.37419 0.58846 0.04613 0.0
C1618 C 0.31085 0.59166 0.07164 0.0
C1619 C 0.34164 0.58806 0.08298 0.0
C1620 C 0.29591 0.59968 0.08867 0.0
C1621 C 0.29493 0.6066 0.13651 0.0
C1622 C 0.32467 0.59042 0.10306 0.0
C1623 C 0.30824 0.6028 0.16838 0.0
C1624 C 0.35469 0.57999 0.11061 0.0
C1625 C 0.36084 0.59662 0.02015 0.0
N1626 N 0.3228 0.59532 0.1508 0.0
N1627 N 0.34512 0.59615 0.03884 0.0
H1628 H 0.10277 0.57683 0.88348 0.0
H1629 H 0.19647 0.6116 0.93351 0.0
H1630 H 0.11945 0.60834 0.0103 0.0
H1631 H 0.17591 0.61182 0.7886 0.0
H1632 H 0.17049 0.59696 0.96388 0.0
H1633 H 0.1314 0.57889 0.84968 0.0
C1634 C 0.11247 0.58416 0.90406 0.0
C1635 C 0.10888 0.59244 0.94963 0.0
C1636 C 0.17186 0.59967 0.9252 0.0
C1637 C 0.14139 0.59406 0.91259 0.0
C1638 C 0.1867 0.60777 0.90788 0.0
C1639 C 0.18806 0.61304 0.85883 0.0
C1640 C 0.1584 0.59695 0.89309 0.0
C1641 C 0.17514 0.60797 0.8268 0.0
C1642 C 0.12873 0.58512 0.88511 0.0
C1643 C 0.12181 0.60158 0.9753 0.0
N1644 N 0.16058 0.60053 0.84467 0.0
N1645 N 0.13751 0.60206 0.95655 0.0
H1646 H 0.10589 0.37644 0.59 0.0
H1647 H 0.20036 0.39665 0.57486 0.0
H1648 H 0.12122 0.43251 0.5338 0.0
H1649 H 0.1791 0.3716 0.705 0.0
H1650 H 0.17243 0.40932 0.55298 0.0
H1651 H 0.13352 0.37259 0.62688 0.0
C1652 C 0.11497 0.38807 0.586 0.0
C1653 C 0.11125 0.40481 0.55876 0.0
C1654 C 0.17405 0.40153 0.58699 0.0
C1655 C 0.14301 0.40015 0.59927 0.0
C1656 C 0.1899 0.39442 0.59946 0.0
C1657 C 0.19186 0.38326 0.64177 0.0
C1658 C 0.16022 0.3968 0.61643 0.0
C1659 C 0.17799 0.38032 0.67225 0.0
C1660 C 0.13073 0.38583 0.60688 0.0
C1661 C 0.1237 0.41918 0.55364 0.0
N1662 N 0.16264 0.38668 0.65845 0.0
N1663 N 0.13917 0.41639 0.57304 0.0
H1664 H 0.17702 0.21605 0.97268 0.0
H1665 H 0.21392 0.31334 0.86923 0.0
H1666 H 0.22624 0.23683 0.01091 0.0
H1667 H 0.19391 0.27275 0.76383 0.0
H1668 H 0.21073 0.28874 0.93221 0.0
H1669 H 0.17658 0.23921 0.90371 0.0
C1670 C 0.18779 0.22528 0.96603 0.0
C1671 C 0.20176 0.22446 0.99699 0.0
C1672 C 0.20677 0.28537 0.89542 0.0
C1673 C 0.20097 0.25128 0.92048 0.0
C1674 C 0.20843 0.29944 0.85931 0.0
C1675 C 0.20438 0.29508 0.81068 0.0
C1676 C 0.20059 0.26691 0.8835 0.0
C1677 C 0.19728 0.27672 0.80068 0.0
C1678 C 0.1875 0.23843 0.92698 0.0
C1679 C 0.21536 0.2368 0.98743 0.0
N1680 N 0.19562 0.26321 0.83691 0.0
N1681 N 0.2145 0.24995 0.95049 0.0
H1682 H 0.93805 0.87564 0.1813 0.0
H1683 H 0.03054 0.8801 0.26823 0.0
H1684 H 0.9789 0.874 0.07811 0.0
H1685 H -0.00697 0.85145 0.35568 0.0
H1686 H 0.0118 0.8781 0.19759 0.0
H1687 H 0.95751 0.86603 0.24582 0.0
C1688 C 0.95103 0.87281 0.17204 0.0
C1689 C 0.95691 0.87582 0.12445 0.0
C1690 C 0.00777 0.87197 0.23203 0.0
C1691 C 0.97925 0.86541 0.19808 0.0
C1692 C 0.01839 0.87323 0.27221 0.0
C1693 C 0.01313 0.86613 0.3175 0.0
C1694 C -0.00831 0.86393 0.23772 0.0
C1695 C -0.0026 0.85717 0.32116 0.0
C1696 C 0.96212 0.86734 0.20883 0.0
C1697 C 0.97384 0.8719 0.11435 0.0
N1698 N 0.98705 0.85664 0.28192 0.0
N1699 N 0.98452 0.86736 0.15114 0.0
H1700 H 0.25707 0.76126 0.51085 0.0
H1701 H 0.29443 0.72443 0.26023 0.0
H1702 H 0.30527 0.78298 0.46506 0.0
H1703 H 0.27052 0.6862 0.36449 0.0
H1704 H 0.29531 0.75011 0.3231 0.0
H1705 H 0.25737 0.73834 0.44243 0.0
C1706 C 0.26751 0.76153 0.48557 0.0
C1707 C 0.28107 0.77413 0.493 0.0
C1708 C 0.29008 0.73596 0.33194 0.0
C1709 C 0.28166 0.74777 0.41554 0.0
C1710 C 0.28968 0.72127 0.29635 0.0
C1711 C 0.28238 0.70307 0.30691 0.0
C1712 C 0.28282 0.73247 0.37774 0.0
C1713 C 0.27622 0.69995 0.35432 0.0
C1714 C 0.26778 0.74831 0.44701 0.0
C1715 C 0.29455 0.77351 0.46011 0.0
N1716 N 0.27636 0.71456 0.38759 0.0
N1717 N 0.29453 0.76052 0.42252 0.0
H1718 H 0.45121 0.111 0.76755 0.0
H1719 H 0.54437 0.11602 0.67973 0.0
H1720 H 0.48928 0.13858 0.85468 0.0
H1721 H 0.50353 0.11565 0.57701 0.0
H1722 H 0.52465 0.12505 0.74427 0.0
H1723 H 0.47007 0.11247 0.69676 0.0
C1724 C 0.46353 0.11742 0.77154 0.0
C1725 C 0.4689 0.12438 0.81683 0.0
C1726 C 0.52006 0.12341 0.7074 0.0
C1727 C 0.49042 0.12612 0.73673 0.0
C1728 C 0.53131 0.1183 0.67058 0.0
C1729 C 0.52554 0.11497 0.62309 0.0
C1730 C 0.50288 0.12465 0.69687 0.0
C1731 C 0.5085 0.1181 0.61316 0.0
C1732 C 0.47421 0.11843 0.73123 0.0
C1733 C 0.4848 0.13293 0.82026 0.0
N1734 N 0.49767 0.12233 0.65 0.0
N1735 N 0.49514 0.13326 0.7809 0.0
H1736 H 0.22511 0.68603 0.63516 0.0
H1737 H 0.18854 0.78781 0.53917 0.0
H1738 H 0.20158 0.72761 0.73184 0.0
H1739 H 0.22003 0.74929 0.45508 0.0
H1740 H 0.19118 0.76556 0.60925 0.0
H1741 H 0.22105 0.70839 0.56783 0.0
C1742 C 0.21894 0.69983 0.64232 0.0
C1743 C 0.21368 0.70488 0.68952 0.0
C1744 C 0.19751 0.76203 0.57545 0.0
C1745 C 0.20904 0.73084 0.6117 0.0
C1746 C 0.19597 0.77465 0.53553 0.0
C1747 C 0.20424 0.77045 0.4916 0.0
C1748 C 0.20712 0.74492 0.57085 0.0
C1749 C 0.2137 0.75326 0.48856 0.0
C1750 C 0.21669 0.71268 0.60365 0.0
C1751 C 0.20579 0.72305 0.69609 0.0
N1752 N 0.21484 0.74114 0.52754 0.0
N1753 N 0.20371 0.73541 0.65758 0.0
H1754 H 0.48877 0.84879 0.64264 0.0
H1755 H 0.50183 0.87545 0.923 0.0
H1756 H 0.45309 0.88182 0.7271 0.0
H1757 H 0.54247 0.87344 0.81917 0.0
H1758 H 0.48238 0.86584 0.85835 0.0
H1759 H 0.50691 0.84644 0.71474 0.0
C1760 C 0.48469 0.85527 0.67666 0.0
C1761 C 0.46968 0.86582 0.67918 0.0
C1762 C 0.49563 0.86705 0.85017 0.0
C1763 C 0.48998 0.86287 0.76119 0.0
C1764 C 0.50675 0.87235 0.88701 0.0
C1765 C 0.52373 0.87546 0.87612 0.0
C1766 C 0.50164 0.86449 0.80256 0.0
C1767 C 0.52942 0.8714 0.82883 0.0
C1768 C 0.49499 0.85394 0.71754 0.0
C1769 C 0.46477 0.87387 0.72386 0.0
N1770 N 0.51836 0.86627 0.79357 0.0
N1771 N 0.47497 0.87231 0.76324 0.0
H1772 H 0.26217 0.24483 0.95433 0.0
H1773 H 0.27855 0.27029 0.23483 0.0
H1774 H 0.29605 0.21155 0.04403 0.0
H1775 H 0.25227 0.30795 0.1345 0.0
H1776 H 0.28431 0.24771 0.16752 0.0
H1777 H 0.25722 0.26701 0.02234 0.0
C1778 C 0.26843 0.24209 0.98864 0.0
C1779 C 0.27928 0.22615 0.99401 0.0
C1780 C 0.27741 0.26101 0.16029 0.0
C1781 C 0.27401 0.25177 0.07183 0.0
C1782 C 0.27413 0.27392 0.19866 0.0
C1783 C 0.26497 0.29112 0.19035 0.0
C1784 C 0.27134 0.26526 0.11345 0.0
C1785 C 0.25943 0.29494 0.14277 0.0
C1786 C 0.26573 0.25486 0.02736 0.0
C1787 C 0.2875 0.22364 0.03868 0.0
N1788 N 0.26263 0.2821 0.10631 0.0
N1789 N 0.28463 0.23627 0.07609 0.0
H1790 H 0.98924 0.13914 0.13591 0.0
H1791 H 0.97666 0.11521 0.41853 0.0
H1792 H 0.02803 0.11429 0.22569 0.0
H1793 H 0.93641 0.11386 0.31384 0.0
H1794 H -0.00397 0.12479 0.35342 0.0
H1795 H 0.9704 0.1395 0.20659 0.0
C1796 C -0.00619 0.13394 0.17071 0.0
C1797 C 0.01002 0.12624 0.17497 0.0
C1798 C 0.98289 0.12276 0.34503 0.0
C1799 C 0.98871 0.12686 0.25571 0.0
C1800 C 0.97179 0.11748 0.38216 0.0
C1801 C 0.95493 0.11356 0.37141 0.0
C1802 C 0.97699 0.12444 0.29709 0.0
C1803 C 0.94935 0.11657 0.32357 0.0
C1804 C 0.98307 0.13411 0.21086 0.0
C1805 C 0.01544 0.11982 0.22078 0.0
N1806 N 0.96038 0.12172 0.28807 0.0
N1807 N 0.00476 0.12018 0.25948 0.0
H1808 H 0.75295 0.69164 0.14089 0.0
H1809 H 0.80167 0.78464 0.04075 0.0
H1810 H 0.78239 0.72742 0.23795 0.0
H1811 H 0.75873 0.75884 0.97165 0.0
H1812 H 0.79727 0.76299 0.11167 0.0
H1813 H 0.75768 0.71491 0.07616 0.0
C1814 C 0.76051 0.70438 0.1487 0.0
C1815 C 0.76734 0.70748 0.19515 0.0
C1816 C 0.78874 0.76226 0.08111 0.0
C1817 C 0.77279 0.73447 0.12027 0.0
C1818 C 0.79127 0.77451 0.04081 0.0
C1819 C 0.78034 0.77359 0.00093 0.0
C1820 C 0.77548 0.74877 0.08048 0.0
C1821 C 0.76714 0.76022 0.00224 0.0
C1822 C 0.76313 0.71777 0.11155 0.0
C1823 C 0.77696 0.72439 0.20265 0.0
N1824 N 0.76513 0.74827 0.04113 0.0
N1825 N 0.77948 0.73728 0.16543 0.0
H1826 H 0.00653 0.12193 0.9139 0.0
H1827 H -0.00679 0.10604 0.63087 0.0
H1828 H 0.04588 0.10565 0.81369 0.0
H1829 H 0.95613 0.13471 0.72008 0.0
H1830 H 0.01309 0.10791 0.69785 0.0
H1831 H 0.98852 0.12986 0.84437 0.0
C1832 C 0.01155 0.12053 0.87737 0.0
C1833 C 0.02763 0.11277 0.86952 0.0
C1834 C 0.00066 0.11394 0.70295 0.0
C1835 C 0.00705 0.12148 0.79014 0.0
C1836 C 0.98927 0.11268 0.66483 0.0
C1837 C 0.97295 0.11979 0.67058 0.0
C1838 C -0.00432 0.12225 0.74749 0.0
C1839 C 0.9686 0.12884 0.71467 0.0
C1840 C 0.00121 0.12494 0.8377 0.0
C1841 C 0.03346 0.11124 0.82145 0.0
N1842 N 0.97984 0.12955 0.75189 0.0
N1843 N 0.0231 0.11524 0.78367 0.0
H1844 H 0.72347 0.24322 0.46767 0.0
H1845 H 0.7028 0.2667 0.74639 0.0
H1846 H 0.69259 0.20496 0.5544 0.0
H1847 H 0.72079 0.3089 0.64169 0.0
H1848 H 0.69991 0.24284 0.67996 0.0
H1849 H 0.72462 0.26609 0.53538 0.0
C1850 C 0.71716 0.23948 0.50134 0.0
C1851 C 0.70818 0.22203 0.50584 0.0
C1852 C 0.7043 0.25742 0.67172 0.0
C1853 C 0.709 0.24846 0.58331 0.0
C1854 C 0.70588 0.27106 0.70952 0.0
C1855 C 0.71215 0.28983 0.69979 0.0
C1856 C 0.70917 0.26261 0.6242 0.0
C1857 C 0.71604 0.29461 0.6513 0.0
C1858 C 0.71762 0.25268 0.53985 0.0
C1859 C 0.69971 0.21828 0.54975 0.0
N1860 N 0.71464 0.28108 0.61562 0.0
N1861 N 0.70039 0.23136 0.58704 0.0
H1862 H 0.47719 0.8781 0.4231 0.0
H1863 H 0.4895 0.85538 0.14011 0.0
H1864 H 0.43653 0.8806 0.31987 0.0
H1865 H 0.52741 0.88301 0.22775 0.0
H1866 H 0.47072 0.85486 0.21112 0.0
H1867 H 0.49637 0.86959 0.3566 0.0
C1868 C 0.4722 0.87631 0.38671 0.0
C1869 C 0.45526 0.88023 0.37684 0.0
C1870 C 0.4832 0.86087 0.21483 0.0
C1871 C 0.47711 0.87055 0.30101 0.0
C1872 C 0.49388 0.86115 0.17454 0.0
C1873 C 0.50983 0.86955 0.17826 0.0
C1874 C 0.4887 0.86866 0.25925 0.0
C1875 C 0.51505 0.87674 0.22349 0.0
C1876 C 0.48318 0.87165 0.34882 0.0
C1877 C 0.44952 0.87786 0.32893 0.0
N1878 N 0.50447 0.87617 0.26238 0.0
N1879 N 0.46045 0.87327 0.29267 0.0
H1880 H 0.7901 0.20069 0.44963 0.0
H1881 H 0.75533 0.30459 0.36179 0.0
H1882 H 0.76334 0.24146 0.54043 0.0
H1883 H 0.78312 0.26645 0.26579 0.0
H1884 H 0.7581 0.28086 0.42651 0.0
H1885 H 0.78715 0.22341 0.38035 0.0
C1886 C 0.78349 0.21436 0.45464 0.0
C1887 C 0.77691 0.21937 0.5003 0.0
C1888 C 0.76371 0.27762 0.39148 0.0
C1889 C 0.77375 0.24533 0.42244 0.0
C1890 C 0.76218 0.29126 0.35431 0.0
C1891 C 0.76904 0.28758 0.30808 0.0
C1892 C 0.77225 0.26005 0.38293 0.0
C1893 C 0.77767 0.26992 0.30088 0.0
C1894 C 0.78189 0.22733 0.41541 0.0
C1895 C 0.76855 0.23718 0.50556 0.0
N1896 N 0.77908 0.25679 0.33803 0.0
N1897 N 0.76724 0.24952 0.46716 0.0
H1898 H 0.53089 0.10292 0.2739 0.0
H1899 H 0.44188 0.12224 0.16976 0.0
H1900 H 0.49805 0.14518 0.3405 0.0
H1901 H 0.48276 0.10619 0.07495 0.0
H1902 H 0.46219 0.1317 0.23229 0.0
H1903 H 0.51375 0.10408 0.19982 0.0
C1904 C 0.52012 0.11254 0.27258 0.0
C1905 C 0.51555 0.12364 0.31334 0.0
C1906 C 0.46672 0.12652 0.19741 0.0
C1907 C 0.49601 0.12508 0.22943 0.0
C1908 C 0.45516 0.12115 0.16185 0.0
C1909 C 0.46072 0.11348 0.11741 0.0
C1910 C 0.4839 0.12348 0.18897 0.0
C1911 C 0.47802 0.11221 0.10876 0.0
C1912 C 0.51045 0.11334 0.23035 0.0
C1913 C 0.50177 0.13623 0.30983 0.0
N1914 N 0.48903 0.11671 0.14473 0.0
N1915 N 0.49224 0.13633 0.26889 0.0
H1916 H 0.69801 0.72482 0.76183 0.0
H1917 H 0.7292 0.767 0.01525 0.0
H1918 H 0.7304 0.69339 0.86038 0.0
H1919 H 0.67807 0.77665 0.9709 0.0
H1920 H 0.73336 0.74616 0.9438 0.0
H1921 H 0.69379 0.74983 0.82541 0.0
C1922 C 0.70415 0.72313 0.79673 0.0
C1923 C 0.71439 0.70685 0.80604 0.0
C1924 C 0.72136 0.7532 0.94929 0.0
C1925 C 0.70998 0.73544 0.87762 0.0
C1926 C 0.719 0.76516 0.98969 0.0
C1927 C 0.70332 0.77365 -0.00149 0.0
C1928 C 0.70806 0.7499 0.91712 0.0
C1929 C 0.69036 0.77035 0.96502 0.0
C1930 C 0.70173 0.73735 0.83277 0.0
C1931 C 0.72221 0.7055 0.85167 0.0
N1932 N 0.693 0.75871 0.92548 0.0
N1933 N 0.71993 0.71964 0.88552 0.0
H1934 H 0.04743 0.87839 0.67504 0.0
H1935 H 0.95614 0.88457 0.77391 0.0
H1936 H 0.00534 0.87793 0.57669 0.0
H1937 H -0.00597 0.85362 0.85455 0.0
H1938 H 0.97411 0.88326 0.7012 0.0
H1939 H 0.02859 0.86935 0.74188 0.0
C1940 C 0.03429 0.87591 0.66735 0.0
C1941 C 0.02789 0.87898 0.62042 0.0
C1942 C 0.9784 0.87653 0.73465 0.0
C1943 C 0.00628 0.86934 0.69671 0.0
C1944 C 0.96823 0.87743 0.77602 0.0
C1945 C 0.97382 0.86941 0.81998 0.0
C1946 C -0.00566 0.86792 0.73781 0.0
C1947 C 0.98943 0.86007 0.82114 0.0
C1948 C 0.02356 0.87079 0.70544 0.0
C1949 C 0.01077 0.87564 0.61235 0.0
N1950 N -0.00067 0.85987 0.78079 0.0
N1951 N 0.00046 0.87145 0.6504 0.0
H1952 H 0.71498 0.81124 0.36941 0.0
H1953 H 0.68592 0.74835 0.54455 0.0
H1954 H 0.706 0.76461 0.26688 0.0
H1955 H 0.70905 0.70358 0.45646 0.0
H1956 H 0.68819 0.77094 0.47639 0.0
H1957 H 0.70904 0.78889 0.43594 0.0
C1958 C 0.71158 0.79633 0.36078 0.0
C1959 C 0.71091 0.78984 0.31236 0.0
C1960 C 0.69296 0.75623 0.47216 0.0
C1961 C 0.70387 0.76414 0.3888 0.0
C1962 C 0.69151 0.74324 0.51088 0.0
C1963 C 0.69779 0.72418 0.50685 0.0
C1964 C 0.70073 0.75017 0.42883 0.0
C1965 C 0.70467 0.71834 0.46196 0.0
C1966 C 0.70805 0.78361 0.39889 0.0
C1967 C 0.70654 0.77027 0.30365 0.0
N1968 N 0.70602 0.73134 0.42461 0.0
N1969 N 0.70335 0.758 0.34163 0.0
H1970 H 0.52597 0.38368 0.76286 0.0
H1971 H 0.43346 0.37847 0.67701 0.0
H1972 H 0.48933 0.35274 0.84856 0.0
H1973 H 0.47403 0.3775 0.57283 0.0
H1974 H 0.45318 0.36882 0.74089 0.0
H1975 H 0.507 0.38226 0.69258 0.0
C1976 C 0.51396 0.37646 0.76654 0.0
C1977 C 0.50902 0.36849 0.81122 0.0
C1978 C 0.45766 0.37029 0.70381 0.0
C1979 C 0.48733 0.36696 0.73192 0.0
C1980 C 0.44643 0.37577 0.66738 0.0
C1981 C 0.45215 0.37897 0.61969 0.0
C1982 C 0.47477 0.36855 0.69262 0.0
C1983 C 0.46909 0.37524 0.60915 0.0
C1984 C 0.50322 0.37552 0.72656 0.0
C1985 C 0.49346 0.35913 0.8145 0.0
N1986 N 0.4799 0.3707 0.6456 0.0
N1987 N 0.48298 0.35892 0.77554 0.0
H1988 H 0.78636 0.24185 0.0467 0.0
H1989 H 0.77491 0.22886 0.75903 0.0
H1990 H 0.78286 0.29161 0.95096 0.0
H1991 H 0.76439 0.18452 0.86663 0.0
H1992 H 0.7813 0.25186 0.82544 0.0
H1993 H 0.78218 0.22035 0.97741 0.0
C1994 C 0.78472 0.24826 0.01093 0.0
C1995 C 0.78466 0.26855 0.00474 0.0
C1996 C 0.77766 0.23705 0.83421 0.0
C1997 C 0.77982 0.24391 0.92474 0.0
C1998 C 0.77408 0.2239 0.79642 0.0
C1999 C 0.76902 0.20473 0.8072 0.0
C2000 C 0.77642 0.2308 0.88286 0.0
C2001 C 0.76813 0.19914 0.85633 0.0
C2002 C 0.78224 0.23597 0.97134 0.0
C2003 C 0.78249 0.27605 0.9575 0.0
N2004 N 0.77179 0.21206 0.89207 0.0
N2005 N 0.78014 0.2637 0.91912 0.0
H2006 H 0.94974 0.61123 0.27054 0.0
H2007 H 0.04208 0.6211 0.17763 0.0
H2008 H 0.98731 0.64187 0.35306 0.0
H2009 H 0.00092 0.61467 0.07741 0.0
H2010 H 0.0222 0.63027 0.24156 0.0
H2011 H 0.96791 0.61302 0.19834 0.0
C2012 C 0.96181 0.61836 0.27328 0.0
C2013 C 0.96731 0.62596 0.31781 0.0
C2014 C 0.01753 0.62728 0.20532 0.0
C2015 C 0.98798 0.62824 0.23589 0.0
C2016 C 0.02888 0.6221 0.16886 0.0
C2017 C 0.0231 0.61706 0.12237 0.0
C2018 C 0.00027 0.62684 0.19555 0.0
C2019 C 0.00587 0.61853 0.11281 0.0
C2020 C 0.97207 0.61958 0.23209 0.0
C2021 C 0.98277 0.63561 0.31937 0.0
N2022 N -0.00501 0.62284 0.14946 0.0
N2023 N -0.00728 0.63618 0.2792 0.0
H2024 H 0.70816 0.23179 0.2511 0.0
H2025 H 0.68316 0.2483 0.97196 0.0
H2026 H 0.70127 0.18563 0.1461 0.0
H2027 H 0.71074 0.29155 0.05311 0.0
H2028 H 0.68295 0.22733 0.04368 0.0
H2029 H 0.70221 0.25585 0.18646 0.0
C2030 C 0.70511 0.22671 0.21484 0.0
C2031 C 0.70555 0.2067 0.20373 0.0
C2032 C 0.68901 0.24144 0.04588 0.0
C2033 C 0.6987 0.23394 0.13034 0.0
C2034 C 0.68912 0.25345 0.00496 0.0
C2035 C 0.69734 0.27153 0.00604 0.0
C2036 C 0.69699 0.24758 0.0887 0.0
C2037 C 0.70473 0.27747 0.05008 0.0
C2038 C 0.70186 0.24041 0.17802 0.0
C2039 C 0.70139 0.20091 0.15622 0.0
N2040 N 0.70444 0.26547 0.08972 0.0
N2041 N 0.69825 0.21443 0.12136 0.0
H2042 H -0.00622 0.35344 0.14062 0.0
H2043 H 0.00656 0.37973 0.42145 0.0
H2044 H 0.95601 0.38209 0.22734 0.0
H2045 H 0.04696 0.37979 0.3167 0.0
H2046 H 0.98715 0.3702 0.35664 0.0
H2047 H 0.01247 0.35309 0.21155 0.0
C2048 C 0.9894 0.35944 0.17486 0.0
C2049 C 0.97355 0.36815 0.17827 0.0
C2050 C 0.00033 0.37193 0.34821 0.0
C2051 C -0.00541 0.3675 0.25916 0.0
C2052 C 0.01144 0.37718 0.38514 0.0
C2053 C 0.02837 0.38073 0.37422 0.0
C2054 C 0.00627 0.36987 0.30037 0.0
C2055 C 0.03398 0.37738 0.32649 0.0
C2056 C 3e-05 0.35926 0.21511 0.0
C2057 C 0.96832 0.37562 0.22328 0.0
N2058 N 0.02293 0.37224 0.29119 0.0
N2059 N 0.97886 0.37521 0.26211 0.0
H2060 H 0.80677 0.71273 0.53214 0.0
H2061 H 0.75769 0.80254 0.6364 0.0
H2062 H 0.75615 0.72654 0.48962 0.0
H2063 H 0.78759 0.76861 0.73654 0.0
H2064 H 0.76133 0.77733 0.57524 0.0
H2065 H 0.80374 0.73496 0.60245 0.0
C2066 C 0.79495 0.72015 0.5382 0.0
C2067 C 0.78158 0.71761 0.50567 0.0
C2068 C 0.76715 0.77543 0.61053 0.0
C2069 C 0.7783 0.74328 0.58413 0.0
C2070 C 0.76523 0.7899 0.64548 0.0
C2071 C 0.7724 0.78777 0.69185 0.0
C2072 C 0.77659 0.75875 0.62128 0.0
C2073 C 0.78189 0.77088 0.70124 0.0
C2074 C 0.79325 0.73274 0.57813 0.0
C2075 C 0.76661 0.72771 0.51448 0.0
N2076 N 0.78383 0.75699 0.66603 0.0
N2077 N 0.76546 0.74031 0.55243 0.0
H2078 H 0.49536 0.642 0.6408 0.0
H2079 H 0.48192 0.61585 0.9219 0.0
H2080 H 0.53211 0.61142 0.72672 0.0
H2081 H 0.44154 0.61994 0.8182 0.0
H2082 H 0.5018 0.62461 0.8572 0.0
H2083 H 0.47708 0.64399 0.71259 0.0
C2084 C 0.49962 0.6359 0.67502 0.0
C2085 C 0.51501 0.62611 0.67785 0.0
C2086 C 0.48853 0.62402 0.84902 0.0
C2087 C 0.4944 0.62859 0.75984 0.0
C2088 C 0.47717 0.61924 0.88593 0.0
C2089 C 0.46009 0.61705 0.87515 0.0
C2090 C 0.48268 0.62696 0.80141 0.0
C2091 C 0.45463 0.62135 0.82784 0.0
C2092 C 0.48922 0.63702 0.7158 0.0
C2093 C 0.5201 0.61861 0.72296 0.0
N2094 N 0.46591 0.62597 0.79257 0.0
N2095 N 0.50975 0.61989 0.76229 0.0
H2096 H 0.27962 0.29041 0.54302 0.0
H2097 H 0.28505 0.17955 0.63437 0.0
H2098 H 0.28414 0.24034 0.44877 0.0
H2099 H 0.28092 0.22811 0.73368 0.0
H2100 H 0.28731 0.20237 0.56672 0.0
H2101 H 0.28171 0.26864 0.61399 0.0
C2102 C 0.28073 0.27483 0.53731 0.0
C2103 C 0.2814 0.26708 0.49006 0.0
C2104 C 0.28615 0.20813 0.60329 0.0
C2105 C 0.28406 0.24224 0.57065 0.0
C2106 C 0.28499 0.19507 0.642 0.0
C2107 C 0.28286 0.20193 0.68969 0.0
C2108 C 0.28491 0.22829 0.61205 0.0
C2109 C 0.28277 0.22221 0.69747 0.0
C2110 C 0.28209 0.26245 0.57776 0.0
C2111 C 0.2835 0.24689 0.48463 0.0
N2112 N 0.28354 0.23471 0.65892 0.0
N2113 N 0.28467 0.2352 0.52432 0.0
H2114 H 0.49367 0.60793 0.13373 0.0
H2115 H 0.50885 0.62164 0.41653 0.0
H2116 H 0.45788 0.63764 0.2252 0.0
H2117 H 0.54711 0.60419 0.31402 0.0
H2118 H 0.49079 0.6309 0.34809 0.0
H2119 H 0.51394 0.60879 0.19978 0.0
C2120 C 0.4901 0.6146 0.168 0.0
C2121 C 0.47402 0.62231 0.17464 0.0
C2122 C 0.50328 0.62543 0.34069 0.0
C2123 C 0.4972 0.62353 0.25061 0.0
C2124 C 0.51364 0.62025 0.37973 0.0
C2125 C 0.52939 0.61176 0.3709 0.0
C2126 C 0.50875 0.62201 0.29275 0.0
C2127 C 0.53493 0.6103 0.32253 0.0
C2128 C 0.50172 0.61527 0.20562 0.0
C2129 C 0.47015 0.63132 0.21913 0.0
N2130 N 0.52454 0.61507 0.28537 0.0
N2131 N 0.4816 0.63141 0.25591 0.0
H2132 H 0.17556 0.71879 0.02487 0.0
H2133 H 0.21738 0.81294 0.12621 0.0
H2134 H 0.22657 0.73408 0.98961 0.0
H2135 H 0.19373 0.77537 0.23245 0.0
H2136 H 0.2142 0.7875 0.06528 0.0
H2137 H 0.17644 0.74186 0.09389 0.0
C2138 C 0.18701 0.72674 0.03226 0.0
C2139 C 0.20107 0.72447 0.00195 0.0
C2140 C 0.20951 0.78497 0.10181 0.0
C2141 C 0.20186 0.75116 0.07864 0.0
C2142 C 0.21114 0.79955 0.13665 0.0
C2143 C 0.20589 0.79632 0.18486 0.0
C2144 C 0.2022 0.76715 0.1146 0.0
C2145 C 0.19796 0.77849 0.19579 0.0
C2146 C 0.18747 0.73983 0.07138 0.0
C2147 C 0.21556 0.73518 0.01254 0.0
N2148 N 0.19631 0.7645 0.16078 0.0
N2149 N 0.21547 0.74835 0.04947 0.0
H2150 H 0.03225 0.38631 0.72396 0.0
H2151 H 0.94148 0.37382 0.81947 0.0
H2152 H -0.0033 0.35184 0.64332 0.0
H2153 H 0.98294 0.37715 0.91967 0.0
H2154 H 0.96108 0.36505 0.75431 0.0
H2155 H 0.01435 0.38343 0.79651 0.0
C2156 C 0.0207 0.37804 0.72183 0.0
C2157 C 0.01569 0.36956 0.67784 0.0
C2158 C 0.96583 0.36722 0.79083 0.0
C2159 C -0.00472 0.36625 0.75987 0.0
C2160 C 0.95466 0.37219 0.82796 0.0
C2161 C 0.96065 0.37632 0.8748 0.0
C2162 C 0.9831 0.36701 0.80041 0.0
C2163 C 0.97783 0.37405 0.884 0.0
C2164 C 0.0106 0.37625 0.76313 0.0
C2165 C 0.00082 0.35872 0.67672 0.0
N2166 N 0.98855 0.37004 0.84678 0.0
N2167 N 0.99093 0.35768 0.71696 0.0
H2168 H 0.24978 0.80233 0.85426 0.0
H2169 H 0.29778 0.70734 0.94943 0.0
H2170 H 0.28068 0.76735 0.75879 0.0
H2171 H 0.26143 0.74004 0.0324 0.0
H2172 H 0.2924 0.72868 0.87897 0.0
H2173 H 0.2547 0.77939 0.91948 0.0
C2174 C 0.25774 0.78985 0.84693 0.0
C2175 C 0.26496 0.78693 0.8008 0.0
C2176 C 0.28553 0.73105 0.91251 0.0
C2177 C 0.27066 0.76026 0.87639 0.0
C2178 C 0.28861 0.71894 0.95263 0.0
C2179 C 0.27983 0.72177 0.99644 0.0
C2180 C 0.27384 0.7463 0.91677 0.0
C2181 C 0.26817 0.73703 -0.00102 0.0
C2182 C 0.26048 0.77664 0.88442 0.0
C2183 C 0.27498 0.77027 0.79384 0.0
N2184 N 0.26557 0.74871 0.95983 0.0
N2185 N 0.2776 0.75757 0.83138 0.0
H2186 H 0.98975 0.60168 0.85982 0.0
H2187 H 0.97174 0.62256 0.58154 0.0
H2188 H 0.02218 0.6389 0.77523 0.0
H2189 H 0.93463 0.60125 0.68305 0.0
H2190 H 0.99001 0.63065 0.65041 0.0
H2191 H 0.96939 0.60209 0.794 0.0
C2192 C -0.00737 0.60981 0.82703 0.0
C2193 C 0.0078 0.61986 0.82228 0.0
C2194 C 0.97772 0.62457 0.65752 0.0
C2195 C 0.9844 0.62073 0.74681 0.0
C2196 C 0.96724 0.62005 0.61826 0.0
C2197 C 0.95175 0.61085 0.6265 0.0
C2198 C 0.97266 0.61973 0.70506 0.0
C2199 C 0.94658 0.60797 0.67485 0.0
C2200 C 0.9809 0.61027 0.78965 0.0
C2201 C 0.01066 0.63076 0.7798 0.0
N2202 N 0.95711 0.61208 0.71215 0.0
N2203 N -0.00086 0.6307 0.74321 0.0
H2204 H 0.19251 0.28625 0.45711 0.0
H2205 H 0.22805 0.1842 0.36027 0.0
H2206 H 0.22384 0.24745 0.54063 0.0
H2207 H 0.20375 0.22569 0.26517 0.0
H2208 H 0.22451 0.2066 0.42774 0.0
H2209 H 0.19479 0.26395 0.38726 0.0
C2210 C 0.1999 0.27305 0.4606 0.0
C2211 C 0.20821 0.26878 0.50432 0.0
C2212 C 0.21987 0.21085 0.39224 0.0
C2213 C 0.21062 0.24315 0.42533 0.0
C2214 C 0.2218 0.19798 0.35352 0.0
C2215 C 0.2162 0.20303 0.30669 0.0
C2216 C 0.21217 0.229 0.38461 0.0
C2217 C 0.20823 0.22116 0.3006 0.0
C2218 C 0.2012 0.26037 0.42083 0.0
C2219 C 0.21756 0.25152 0.50723 0.0
N2220 N 0.20645 0.23353 0.33918 0.0
N2221 N 0.21847 0.23933 0.46834 0.0
H2222 H 0.54054 0.3707 0.16638 0.0
H2223 H 0.45161 0.39166 0.27104 0.0
H2224 H 0.499 0.38269 0.07068 0.0
H2225 H 0.48476 0.35115 0.34278 0.0
H2226 H 0.46895 0.38937 0.19742 0.0
H2227 H 0.52066 0.36318 0.23185 0.0
C2228 C 0.52722 0.37124 0.15889 0.0
C2229 C 0.52137 0.37731 0.11324 0.0
C2230 C 0.4723 0.38081 0.22912 0.0
C2231 C 0.49866 0.36953 0.18813 0.0
C2232 C 0.46256 0.38232 0.27124 0.0
C2233 C 0.46704 0.37192 0.3132 0.0
C2234 C 0.48675 0.36908 0.22943 0.0
C2235 C 0.48101 0.35953 0.31118 0.0
C2236 C 0.5159 0.36701 0.19619 0.0
C2237 C 0.504 0.37793 0.10535 0.0
N2238 N 0.49058 0.35871 0.27024 0.0
N2239 N 0.49323 0.37456 0.14284 0.0
H2240 H 0.27969 0.13651 0.38539 0.0
H2241 H 0.21414 0.13462 0.59406 0.0
H2242 H 0.22839 0.12018 0.3575 0.0
H2243 H 0.26615 0.12132 0.62159 0.0
H2244 H 0.21874 0.12785 0.50751 0.0
H2245 H 0.27534 0.12946 0.47191 0.0
C2246 C 0.26764 0.13101 0.3973 0.0
C2247 C 0.25435 0.12912 0.36428 0.0
C2248 C 0.22905 0.12599 0.5327 0.0
C2249 C 0.24915 0.12154 0.46324 0.0
C2250 C 0.22643 0.12988 0.5821 0.0
C2251 C 0.23982 0.1288 0.61503 0.0
C2252 C 0.24525 0.12145 0.51604 0.0
C2253 C 0.25548 0.12249 0.59749 0.0
C2254 C 0.26515 0.12699 0.44666 0.0
C2255 C 0.23898 0.12191 0.38169 0.0
N2256 N 0.25786 0.1195 0.54903 0.0
N2257 N 0.23667 0.11884 0.43018 0.0
H2258 H 0.08316 0.99482 0.60201 0.0
H2259 H 0.08183 -0.00305 0.89082 0.0
H2260 H 0.08512 0.94333 0.69253 0.0
H2261 H 0.08239 0.04871 0.80111 0.0
H2262 H 0.08831 0.97735 0.81901 0.0
H2263 H 0.0882 0.01491 0.674 0.0
C2264 C 0.08494 0.9877 0.63685 0.0
C2265 C 0.08333 0.9674 0.64144 0.0
C2266 C 0.08726 0.99303 0.8151 0.0
C2267 C 0.08894 0.99029 0.72401 0.0
C2268 C 0.08355 0.00423 0.85614 0.0
C2269 C 0.08121 0.02444 0.85178 0.0
C2270 C 0.08846 0.00208 0.76928 0.0
C2271 C 0.08382 0.03313 0.80604 0.0
C2272 C 0.0878 -0.00081 0.678 0.0
C2273 C 0.08594 0.95897 0.68743 0.0
N2274 N 0.08703 0.02185 0.76641 0.0
N2275 N 0.08834 0.97047 0.72703 0.0
H2276 H 0.23034 0.84753 0.12094 0.0
H2277 H 0.23153 0.90339 0.86408 0.0
H2278 H 0.25196 0.90475 0.10167 0.0
H2279 H 0.22427 0.84134 0.88009 0.0
H2280 H 0.2339 0.90618 0.95318 0.0
H2281 H 0.22313 0.84703 0.03445 0.0
C2282 C 0.23351 0.86003 0.0986 0.0
C2283 C 0.2419 0.87613 0.11856 0.0
C2284 C 0.23159 0.89201 0.93708 0.0
C2285 C 0.23358 0.87571 0.01946 0.0
C2286 C 0.23011 0.89045 0.88637 0.0
C2287 C 0.2278 0.8721 0.86477 0.0
C2288 C 0.23053 0.87513 0.96614 0.0
C2289 C 0.22619 0.85575 0.89526 0.0
C2290 C 0.2294 0.85973 0.0492 0.0
C2291 C 0.24562 0.89195 0.08778 0.0
N2292 N 0.22763 0.85764 0.94428 0.0
N2293 N 0.24147 0.89134 0.03975 0.0
H2294 H 0.39795 0.99424 0.40291 0.0
H2295 H 0.39929 0.00105 0.11393 0.0
H2296 H 0.39602 0.94437 0.30698 0.0
H2297 H 0.40305 0.05092 0.20939 0.0
H2298 H 0.39213 0.98074 0.18394 0.0
H2299 H 0.39366 0.01563 0.33284 0.0
C2300 C 0.39632 0.98775 0.36726 0.0
C2301 C 0.39775 0.96752 0.36062 0.0
C2302 C 0.3943 0.99618 0.18952 0.0
C2303 C 0.393 0.9919 0.28027 0.0
C2304 C 0.39841 0.00779 0.14953 0.0
C2305 C 0.40212 0.02763 0.15598 0.0
C2306 C 0.39403 0.00443 0.23636 0.0
C2307 C 0.40055 0.03562 0.20285 0.0
C2308 C 0.39391 -1e-05 0.32722 0.0
C2309 C 0.39533 0.95992 0.31367 0.0
N2310 N 0.39686 0.02393 0.24137 0.0
N2311 N 0.39335 0.97214 0.27518 0.0
H2312 H 0.77571 0.85739 0.39418 0.0
H2313 H 0.70988 0.86925 0.60049 0.0
H2314 H 0.72566 0.87806 0.36424 0.0
H2315 H 0.763 0.87348 0.62814 0.0
H2316 H 0.7153 0.8758 0.51423 0.0
H2317 H 0.7719 0.86627 0.47968 0.0
C2318 C 0.76406 0.86419 0.40536 0.0
C2319 C 0.75089 0.86665 0.37219 0.0
C2320 C 0.72572 0.87571 0.53943 0.0
C2321 C 0.7463 0.87646 0.47012 0.0
C2322 C 0.72262 0.87195 0.58869 0.0
C2323 C 0.73602 0.8703 0.62145 0.0
C2324 C 0.74234 0.87744 0.52283 0.0
C2325 C 0.75228 0.8742 0.60412 0.0
C2326 C 0.76188 0.86928 0.4542 0.0
C2327 C 0.7361 0.87568 0.38866 0.0
N2328 N 0.75502 0.87711 0.55585 0.0
N2329 N 0.73405 0.87982 0.43671 0.0
H2330 H 0.89604 0.04998 0.29094 0.0
H2331 H 0.89646 0.94001 0.19943 0.0
H2332 H 0.89501 1e-05 0.38674 0.0
H2333 H 0.89801 0.98995 0.1036 0.0
H2334 H 0.89007 0.96171 0.2675 0.0
H2335 H 0.8909 0.0284 0.22185 0.0
C2336 C 0.89447 0.0345 0.29758 0.0
C2337 C 0.89633 0.02674 0.34459 0.0
C2338 C 0.89156 0.96791 0.23147 0.0
C2339 C 0.89059 0.00192 0.26555 0.0
C2340 C 0.89521 0.95551 0.19254 0.0
C2341 C 0.89814 0.96323 0.14593 0.0
C2342 C 0.89097 0.98817 0.22382 0.0
C2343 C 0.89611 0.98339 0.13905 0.0
C2344 C 0.89155 0.02217 0.25806 0.0
C2345 C 0.89394 0.00661 0.35105 0.0
N2346 N 0.89292 0.9952 0.17773 0.0
N2347 N 0.89147 0.99486 0.31187 0.0
H2348 H 0.74558 0.09069 0.86045 0.0
H2349 H 0.71345 0.13233 0.11583 0.0
H2350 H 0.7119 0.1394 0.87744 0.0
H2351 H 0.76203 0.10521 0.09954 0.0
H2352 H 0.7077 0.12579 0.0305 0.0
H2353 H 0.74651 0.08714 0.94987 0.0
C2354 C 0.73794 0.10015 0.88301 0.0
C2355 C 0.72856 0.11528 0.862 0.0
C2356 C 0.71953 0.12103 0.04574 0.0
C2357 C 0.72962 0.11142 0.96316 0.0
C2358 C 0.72287 0.12476 0.09454 0.0
C2359 C 0.73844 0.1197 0.11478 0.0
C2360 C 0.73175 0.11206 0.01667 0.0
C2361 C 0.74997 0.10962 0.0853 0.0
C2362 C 0.73862 0.09827 0.93379 0.0
C2363 C 0.71919 0.1275 0.89248 0.0
N2364 N 0.74647 0.10631 0.03741 0.0
N2365 N 0.71999 0.12535 0.94152 0.0
H2366 H 0.58609 0.05025 0.69828 0.0
H2367 H 0.58084 0.94057 0.79046 0.0
H2368 H 0.58252 0.00037 0.6028 0.0
H2369 H 0.58118 0.99089 0.88511 0.0
H2370 H 0.58806 0.96167 0.72187 0.0
H2371 H 0.59113 0.02829 0.76664 0.0
C2372 C 0.58662 0.03468 0.69155 0.0
C2373 C 0.58346 0.02709 0.64501 0.0
C2374 C 0.5868 0.96805 0.75778 0.0
C2375 C 0.58905 0.00187 0.72317 0.0
C2376 C 0.58267 0.95601 0.79698 0.0
C2377 C 0.58002 0.96407 0.84336 0.0
C2378 C 0.58821 0.98828 0.76503 0.0
C2379 C 0.58279 0.98411 0.8498 0.0
C2380 C 0.5895 0.02214 0.73062 0.0
C2381 C 0.58462 0.00684 0.63824 0.0
N2382 N 0.58649 0.99558 0.81092 0.0
N2383 N 0.58702 0.99489 0.6771 0.0
H2384 H 0.73124 0.64986 0.87848 0.0
H2385 H 0.73296 0.59142 0.13103 0.0
H2386 H 0.7531 0.59238 0.89069 0.0
H2387 H 0.72573 0.65358 0.1173 0.0
H2388 H 0.73554 0.58917 0.04166 0.0
H2389 H 0.72452 0.64907 0.96473 0.0
C2390 C 0.73462 0.63701 0.89927 0.0
C2391 C 0.74289 0.62121 0.87724 0.0
C2392 C 0.73321 0.60323 0.05839 0.0
C2393 C 0.73511 0.62022 0.97668 0.0
C2394 C 0.73159 0.60449 0.10918 0.0
C2395 C 0.72922 0.62273 0.13142 0.0
C2396 C 0.73219 0.6203 0.03006 0.0
C2397 C 0.72768 0.63925 0.10162 0.0
C2398 C 0.73076 0.63658 0.94867 0.0
C2399 C 0.74685 0.60495 0.90627 0.0
N2400 N 0.72923 0.63764 0.05264 0.0
N2401 N 0.74295 0.60487 0.95465 0.0
H2402 H 0.58146 0.43469 0.19887 0.0
H2403 H 0.58391 0.49407 0.40127 0.0
H2404 H 0.58382 0.48757 0.11371 0.0
H2405 H 0.57884 0.54162 0.29926 0.0
H2406 H 0.59035 0.47225 0.33416 0.0
H2407 H 0.58639 0.4535 0.2719 0.0
C2408 C 0.58334 0.45029 0.19548 0.0
C2409 C 0.58186 0.45961 0.15018 0.0
C2410 C 0.58777 0.48736 0.32592 0.0
C2411 C 0.58762 0.4816 0.23436 0.0
C2412 C 0.58421 0.49991 0.36461 0.0
C2413 C 0.58043 0.51958 0.35576 0.0
C2414 C 0.58723 0.49449 0.27783 0.0
C2415 C 0.5814 0.52648 0.30774 0.0
C2416 C 0.58623 0.46116 0.23755 0.0
C2417 C 0.58461 0.47979 0.14796 0.0
N2418 N 0.58445 0.51389 0.27058 0.0
N2419 N 0.58709 0.49013 0.18954 0.0
H2420 H 0.77523 0.35496 0.60347 0.0
H2421 H 0.70911 0.35176 0.39769 0.0
H2422 H 0.72361 0.36924 0.6341 0.0
H2423 H 0.75943 0.37139 0.36738 0.0
H2424 H 0.71379 0.35813 0.48445 0.0
H2425 H 0.77004 0.36098 0.51677 0.0
C2426 C 0.76292 0.35977 0.59208 0.0
C2427 C 0.74983 0.36153 0.62599 0.0
C2428 C 0.72367 0.36145 0.45862 0.0
C2429 C 0.74369 0.36787 0.52697 0.0
C2430 C 0.721 0.35782 0.40915 0.0
C2431 C 0.73392 0.36094 0.37531 0.0
C2432 C 0.7395 0.36773 0.47441 0.0
C2433 C 0.74911 0.36877 0.39219 0.0
C2434 C 0.75996 0.36321 0.54266 0.0
C2435 C 0.73407 0.36775 0.60922 0.0
N2436 N 0.75163 0.37146 0.4407 0.0
N2437 N 0.73134 0.37025 0.56074 0.0
H2438 H 0.90085 0.49354 0.5966 0.0
H2439 H 0.90119 0.49046 0.88409 0.0
H2440 H 0.89592 0.54452 0.68797 0.0
H2441 H 0.90312 0.43917 0.79286 0.0
H2442 H 0.89322 0.50983 0.81326 0.0
H2443 H 0.89549 0.47295 0.66744 0.0
C2444 C 0.89836 0.50042 0.63139 0.0
C2445 C 0.89931 0.52075 0.6367 0.0
C2446 C 0.89512 0.49428 0.80884 0.0
C2447 C 0.89336 0.49729 0.71796 0.0
C2448 C 0.89971 0.48322 0.84929 0.0
C2449 C 0.90325 0.46328 0.84408 0.0
C2450 C 0.89427 0.48537 0.76282 0.0
C2451 C 0.90084 0.45459 0.79833 0.0
C2452 C 0.8953 0.48865 0.67187 0.0
C2453 C 0.89568 0.52888 0.68244 0.0
N2454 N 0.89679 0.46576 0.75926 0.0
N2455 N 0.89319 0.51711 0.72152 0.0
H2456 H 0.21871 0.37459 0.87234 0.0
H2457 H 0.25045 0.37651 0.14719 0.0
H2458 H 0.26982 0.36248 0.91391 0.0
H2459 H 0.20201 0.35448 0.10429 0.0
H2460 H 0.2563 0.38476 0.06214 0.0
H2461 H 0.21181 0.38069 0.95783 0.0
C2462 C 0.22862 0.37378 0.89917 0.0
C2463 C 0.24484 0.36769 0.88609 0.0
C2464 C 0.24424 0.37859 0.0717 0.0
C2465 C 0.23697 0.37484 0.98361 0.0
C2466 C 0.24081 0.37398 0.1202 0.0
C2467 C 0.22577 0.36453 0.13272 0.0
C2468 C 0.23243 0.37411 0.03573 0.0
C2469 C 0.21382 0.36154 0.0961 0.0
C2470 C 0.22461 0.37717 0.94792 0.0
C2471 C 0.25712 0.36689 0.92251 0.0
N2472 N 0.21746 0.36615 0.04909 0.0
N2473 N 0.2529 0.37023 0.9698 0.0
H2474 H 0.39219 0.44326 0.69731 0.0
H2475 H 0.4013 0.5527 0.78827 0.0
H2476 H 0.39451 0.49312 0.60133 0.0
H2477 H 0.40141 0.5024 0.88306 0.0
H2478 H 0.39245 0.53183 0.72098 0.0
H2479 H 0.38878 0.46528 0.76643 0.0
C2480 C 0.39168 0.45884 0.69065 0.0
C2481 C 0.39408 0.46639 0.64364 0.0
C2482 C 0.39418 0.5254 0.75666 0.0
C2483 C 0.3904 0.49168 0.72264 0.0
C2484 C 0.39926 0.53731 0.7951 0.0
C2485 C 0.40247 0.52918 0.84107 0.0
C2486 C 0.39239 0.50523 0.76424 0.0
C2487 C 0.39938 0.50922 0.84799 0.0
C2488 C 0.38977 0.47141 0.73017 0.0
C2489 C 0.39301 0.48667 0.63706 0.0
N2490 N 0.39475 0.49788 0.80981 0.0
N2491 N 0.39157 0.49864 0.67628 0.0
H2492 H 0.2273 0.61934 0.64023 0.0
H2493 H 0.2685 0.62143 0.37537 0.0
H2494 H 0.27813 0.63767 0.61167 0.0
H2495 H 0.21591 0.63165 0.40266 0.0
H2496 H 0.27257 0.6152 0.46221 0.0
H2497 H 0.224 0.61169 0.55375 0.0
C2498 C 0.23794 0.62124 0.6161 0.0
C2499 C 0.25296 0.62947 0.63304 0.0
C2500 C 0.26009 0.6184 0.44891 0.0
C2501 C 0.2492 0.62064 0.53432 0.0
C2502 C 0.25771 0.62189 0.39934 0.0
C2503 C 0.24187 0.62745 0.38183 0.0
C2504 C 0.24651 0.62019 0.48106 0.0
C2505 C 0.22838 0.6277 0.41469 0.0
C2506 C 0.23597 0.61697 0.56673 0.0
C2507 C 0.26627 0.6316 0.60002 0.0
N2508 N 0.23103 0.62434 0.46289 0.0
N2509 N 0.26403 0.6274 0.55208 0.0
H2510 H 0.08666 0.50524 0.11186 0.0
H2511 H 0.08668 0.49463 0.39992 0.0
H2512 H 0.08081 0.55358 0.21136 0.0
H2513 H 0.08872 0.44617 0.29955 0.0
H2514 H 0.09144 0.51698 0.33198 0.0
H2515 H 0.09422 0.48432 0.18025 0.0
C2516 C 0.08718 0.51153 0.14802 0.0
C2517 C 0.08271 0.53107 0.15609 0.0
C2518 C 0.09113 0.50143 0.32494 0.0
C2519 C 0.09125 0.50717 0.23459 0.0
C2520 C 0.08845 0.48865 0.36375 0.0
C2521 C 0.08688 0.46855 0.35516 0.0
C2522 C 0.0922 0.49403 0.27732 0.0
C2523 C 0.08948 0.46161 0.30767 0.0
C2524 C 0.09151 0.49957 0.18708 0.0
C2525 C 0.08388 0.5385 0.20359 0.0
N2526 N 0.09174 0.47436 0.27041 0.0
N2527 N 0.08777 0.52645 0.24121 0.0
loop_
_geom_bond_atom_site_label_1
_geom_bond_atom_site_label_2
_geom_bond_distance
_geom_bond_site_symmetry_2
_ccdc_geom_bond_type
Co0 O3 1.970 . S
Co0 N17 1.989 . S
Co0 O25 1.967 . S
Co0 O32 1.920 . S
Co1 O4 1.966 . S
Co1 N10 2.022 . S
Co1 N18 1.993 . S
Co1 O26 1.941 . S
C2 O3 1.258 . S
C2 O4 1.263 . S
O3 Co0 1.970 . S
O3 C2 1.258 . S
O4 Co1 1.966 . S
O4 C2 1.263 . S
C5 O6 1.235 . S
C5 O32 1.289 . S
O6 C5 1.235 . S
C7 C9 1.400 . S
C7 N10 1.351 . S
C7 C12 1.501 . S
C8 C9 1.387 . S
C8 N11 1.341 . S
C9 C7 1.400 . S
C9 C8 1.387 . S
N10 Co1 2.022 . S
N10 C7 1.351 . S
N10 N11 1.365 . S
N11 C8 1.341 . S
N11 N10 1.365 . S
N11 H31 0.862 . S
C12 C7 1.501 . S
C12 H13 0.961 . S
C12 H14 0.961 . S
C12 H15 0.960 . S
H13 C12 0.961 . S
H14 C12 0.961 . S
H15 C12 0.960 . S
C16 N17 1.342 . S
C16 C20 1.401 . S
C16 C21 1.499 . S
N17 Co0 1.989 . S
N17 C16 1.342 . S
N17 N18 1.388 . S
N18 Co1 1.993 . S
N18 N17 1.388 . S
N18 C19 1.346 . S
C19 N18 1.346 . S
C19 C20 1.396 . S
C19 C29 1.510 . S
C20 C16 1.401 . S
C20 C19 1.396 . S
C21 C16 1.499 . S
C21 H22 0.959 . S
C21 H23 0.960 . S
C21 H24 0.961 . S
H22 C21 0.959 . S
H23 C21 0.960 . S
H24 C21 0.961 . S
O25 Co0 1.967 . S
O25 C33 1.258 . S
O26 Co1 1.941 . S
O26 C33 1.266 . S
H27 C29 0.959 . S
H28 C29 0.961 . S
C29 C19 1.510 . S
C29 H27 0.959 . S
C29 H28 0.961 . S
C29 H30 0.960 . S
H30 C29 0.960 . S
H31 N11 0.862 . S
O32 Co0 1.920 . S
O32 C5 1.289 . S
C33 O25 1.258 . S
C33 O26 1.266 . S
Co34 O37 1.970 . S
Co34 N51 1.989 . S
Co34 O59 1.967 . S
Co34 O66 1.920 . S
Co35 O38 1.966 . S
Co35 N44 2.022 . S
Co35 N52 1.993 . S
Co35 O60 1.941 . S
C36 O37 1.258 . S
C36 O38 1.263 . S
O37 Co34 1.970 . S
O37 C36 1.258 . S
O38 Co35 1.966 . S
O38 C36 1.263 . S
C39 O40 1.235 . S
C39 O66 1.289 . S
O40 C39 1.235 . S
C41 C43 1.400 . S
C41 N44 1.351 . S
C41 C46 1.501 . S
C42 C43 1.387 . S
C42 N45 1.341 . S
C43 C41 1.400 . S
C43 C42 1.387 . S
N44 Co35 2.022 . S
N44 C41 1.351 . S
N44 N45 1.365 . S
N45 C42 1.341 . S
N45 N44 1.365 . S
N45 H65 0.862 . S
C46 C41 1.501 . S
C46 H47 0.961 . S
C46 H48 0.961 . S
C46 H49 0.960 . S
H47 C46 0.961 . S
H48 C46 0.961 . S
H49 C46 0.960 . S
C50 N51 1.342 . S
C50 C54 1.401 . S
C50 C55 1.499 . S
N51 Co34 1.989 . S
N51 C50 1.342 . S
N51 N52 1.388 . S
N52 Co35 1.993 . S
N52 N51 1.388 . S
N52 C53 1.346 . S
C53 N52 1.346 . S
C53 C54 1.396 . S
C53 C63 1.510 . S
C54 C50 1.401 . S
C54 C53 1.396 . S
C55 C50 1.499 . S
C55 H56 0.959 . S
C55 H57 0.960 . S
C55 H58 0.961 . S
H56 C55 0.959 . S
H57 C55 0.960 . S
H58 C55 0.961 . S
O59 Co34 1.967 . S
O59 C67 1.258 . S
O60 Co35 1.941 . S
O60 C67 1.266 . S
H61 C63 0.959 . S
H62 C63 0.961 . S
C63 C53 1.510 . S
C63 H61 0.959 . S
C63 H62 0.961 . S
C63 H64 0.960 . S
H64 C63 0.960 . S
H65 N45 0.862 . S
O66 Co34 1.920 . S
O66 C39 1.289 . S
C67 O59 1.258 . S
C67 O60 1.266 . S
Co68 O71 1.970 . S
Co68 N85 1.989 . S
Co68 O93 1.967 . S
Co68 O100 1.920 . S
Co69 O72 1.966 . S
Co69 N78 2.022 . S
Co69 N86 1.993 . S
Co69 O94 1.941 . S
C70 O71 1.258 . S
C70 O72 1.263 . S
O71 Co68 1.970 . S
O71 C70 1.258 . S
O72 Co69 1.966 . S
O72 C70 1.263 . S
C73 O74 1.235 . S
C73 O100 1.289 . S
O74 C73 1.235 . S
C75 C77 1.400 . S
C75 N78 1.351 . S
C75 C80 1.501 . S
C76 C77 1.387 . S
C76 N79 1.341 . S
C77 C75 1.400 . S
C77 C76 1.387 . S
N78 Co69 2.022 . S
N78 C75 1.351 . S
N78 N79 1.365 . S
N79 C76 1.341 . S
N79 N78 1.365 . S
N79 H99 0.862 . S
C80 C75 1.501 . S
C80 H81 0.961 . S
C80 H82 0.961 . S
C80 H83 0.960 . S
H81 C80 0.961 . S
H82 C80 0.961 . S
H83 C80 0.960 . S
C84 N85 1.342 . S
C84 C88 1.401 . S
C84 C89 1.499 . S
N85 Co68 1.989 . S
N85 C84 1.342 . S
N85 N86 1.388 . S
N86 Co69 1.993 . S
N86 N85 1.388 . S
N86 C87 1.346 . S
C87 N86 1.346 . S
C87 C88 1.396 . S
C87 C97 1.510 . S
C88 C84 1.401 . S
C88 C87 1.396 . S
C89 C84 1.499 . S
C89 H90 0.959 . S
C89 H91 0.960 . S
C89 H92 0.961 . S
H90 C89 0.959 . S
H91 C89 0.960 . S
H92 C89 0.961 . S
O93 Co68 1.967 . S
O93 C101 1.258 . S
O94 Co69 1.941 . S
O94 C101 1.266 . S
H95 C97 0.959 . S
H96 C97 0.961 . S
C97 C87 1.510 . S
C97 H95 0.959 . S
C97 H96 0.961 . S
C97 H98 0.960 . S
H98 C97 0.960 . S
H99 N79 0.862 . S
O100 Co68 1.920 . S
O100 C73 1.289 . S
C101 O93 1.258 . S
C101 O94 1.266 . S
Co102 O105 1.970 . S
Co102 N119 1.989 . S
Co102 O127 1.967 . S
Co102 O134 1.920 . S
Co103 O106 1.966 . S
Co103 N112 2.022 . S
Co103 N120 1.993 . S
Co103 O128 1.941 1_556 S
C104 O105 1.258 1_556 S
C104 O106 1.263 . S
O105 Co102 1.970 . S
O105 C104 1.258 1_554 S
O106 Co103 1.966 . S
O106 C104 1.263 . S
C107 O108 1.235 . S
C107 O134 1.289 . S
O108 C107 1.235 . S
C109 C111 1.400 . S
C109 N112 1.351 . S
C109 C114 1.501 . S
C110 C111 1.387 . S
C110 N113 1.341 . S
C111 C109 1.400 . S
C111 C110 1.387 . S
N112 Co103 2.022 . S
N112 C109 1.351 . S
N112 N113 1.365 . S
N113 C110 1.341 . S
N113 N112 1.365 . S
N113 H133 0.862 . S
C114 C109 1.501 . S
C114 H115 0.961 . S
C114 H116 0.961 . S
C114 H117 0.960 . S
H115 C114 0.961 . S
H116 C114 0.961 . S
H117 C114 0.960 . S
C118 N119 1.342 . S
C118 C122 1.401 1_554 S
C118 C123 1.499 . S
N119 Co102 1.989 . S
N119 C118 1.342 . S
N119 N120 1.388 1_554 S
N120 Co103 1.993 . S
N120 N119 1.388 1_556 S
N120 C121 1.346 . S
C121 N120 1.346 . S
C121 C122 1.396 . S
C121 C131 1.510 . S
C122 C118 1.401 1_556 S
C122 C121 1.396 . S
C123 C118 1.499 . S
C123 H124 0.959 . S
C123 H125 0.960 . S
C123 H126 0.961 . S
H124 C123 0.959 . S
H125 C123 0.960 . S
H126 C123 0.961 . S
O127 Co102 1.967 . S
O127 C135 1.258 . S
O128 Co103 1.941 1_554 S
O128 C135 1.266 . S
H129 C131 0.959 . S
H130 C131 0.961 . S
C131 C121 1.510 . S
C131 H129 0.959 . S
C131 H130 0.961 . S
C131 H132 0.960 . S
H132 C131 0.960 . S
H133 N113 0.862 . S
O134 Co102 1.920 . S
O134 C107 1.289 . S
C135 O127 1.258 . S
C135 O128 1.266 . S
Co136 O139 1.970 . S
Co136 N153 1.989 . S
Co136 O161 1.967 . S
Co136 O168 1.920 . S
Co137 O140 1.966 . S
Co137 N146 2.022 . S
Co137 N154 1.993 . S
Co137 O162 1.941 . S
C138 O139 1.258 . S
C138 O140 1.263 . S
O139 Co136 1.970 . S
O139 C138 1.258 . S
O140 Co137 1.966 . S
O140 C138 1.263 . S
C141 O142 1.235 . S
C141 O168 1.289 . S
O142 C141 1.235 . S
C143 C145 1.400 . S
C143 N146 1.351 . S
C143 C148 1.501 . S
C144 C145 1.387 . S
C144 N147 1.341 . S
C145 C143 1.400 . S
C145 C144 1.387 . S
N146 Co137 2.022 . S
N146 C143 1.351 . S
N146 N147 1.365 . S
N147 C144 1.341 . S
N147 N146 1.365 . S
N147 H167 0.862 . S
C148 C143 1.501 . S
C148 H149 0.961 . S
C148 H150 0.961 . S
C148 H151 0.960 . S
H149 C148 0.961 . S
H150 C148 0.961 . S
H151 C148 0.960 . S
C152 N153 1.342 . S
C152 C156 1.401 . S
C152 C157 1.499 . S
N153 Co136 1.989 . S
N153 C152 1.342 . S
N153 N154 1.388 . S
N154 Co137 1.993 . S
N154 N153 1.388 . S
N154 C155 1.346 . S
C155 N154 1.346 . S
C155 C156 1.396 . S
C155 C165 1.510 . S
C156 C152 1.401 . S
C156 C155 1.396 . S
C157 C152 1.499 . S
C157 H158 0.959 . S
C157 H159 0.960 . S
C157 H160 0.961 . S
H158 C157 0.959 . S
H159 C157 0.960 . S
H160 C157 0.961 . S
O161 Co136 1.967 . S
O161 C169 1.258 . S
O162 Co137 1.941 . S
O162 C169 1.266 . S
H163 C165 0.959 . S
H164 C165 0.961 . S
C165 C155 1.510 . S
C165 H163 0.959 . S
C165 H164 0.961 . S
C165 H166 0.960 . S
H166 C165 0.960 . S
H167 N147 0.862 . S
O168 Co136 1.920 . S
O168 C141 1.289 . S
C169 O161 1.258 . S
C169 O162 1.266 . S
Co170 O173 1.970 . S
Co170 N187 1.989 . S
Co170 O195 1.967 . S
Co170 O202 1.920 . S
Co171 O174 1.966 . S
Co171 N180 2.022 . S
Co171 N188 1.993 . S
Co171 O196 1.941 . S
C172 O173 1.258 . S
C172 O174 1.263 . S
O173 Co170 1.970 . S
O173 C172 1.258 . S
O174 Co171 1.966 . S
O174 C172 1.263 . S
C175 O176 1.235 . S
C175 O202 1.289 . S
O176 C175 1.235 . S
C177 C179 1.400 . S
C177 N180 1.351 . S
C177 C182 1.501 . S
C178 C179 1.387 . S
C178 N181 1.341 . S
C179 C177 1.400 . S
C179 C178 1.387 . S
N180 Co171 2.022 . S
N180 C177 1.351 . S
N180 N181 1.365 . S
N181 C178 1.341 . S
N181 N180 1.365 . S
N181 H201 0.862 . S
C182 C177 1.501 . S
C182 H183 0.961 . S
C182 H184 0.961 . S
C182 H185 0.960 . S
H183 C182 0.961 . S
H184 C182 0.961 . S
H185 C182 0.960 . S
C186 N187 1.342 . S
C186 C190 1.401 . S
C186 C191 1.499 . S
N187 Co170 1.989 . S
N187 C186 1.342 . S
N187 N188 1.388 . S
N188 Co171 1.993 . S
N188 N187 1.388 . S
N188 C189 1.346 . S
C189 N188 1.346 . S
C189 C190 1.396 . S
C189 C199 1.510 . S
C190 C186 1.401 . S
C190 C189 1.396 . S
C191 C186 1.499 . S
C191 H192 0.959 . S
C191 H193 0.960 . S
C191 H194 0.961 . S
H192 C191 0.959 . S
H193 C191 0.960 . S
H194 C191 0.961 . S
O195 Co170 1.967 . S
O195 C203 1.258 . S
O196 Co171 1.941 . S
O196 C203 1.266 . S
H197 C199 0.959 . S
H198 C199 0.961 . S
C199 C189 1.510 . S
C199 H197 0.959 . S
C199 H198 0.961 . S
C199 H200 0.960 . S
H200 C199 0.960 . S
H201 N181 0.862 . S
O202 Co170 1.920 . S
O202 C175 1.289 . S
C203 O195 1.258 . S
C203 O196 1.266 . S
Co204 O207 1.970 . S
Co204 N221 1.989 . S
Co204 O229 1.967 . S
Co204 O236 1.920 . S
Co205 O208 1.966 . S
Co205 N214 2.022 . S
Co205 N222 1.993 . S
Co205 O230 1.941 . S
C206 O207 1.258 . S
C206 O208 1.263 . S
O207 Co204 1.970 . S
O207 C206 1.258 . S
O208 Co205 1.966 . S
O208 C206 1.263 . S
C209 O210 1.235 . S
C209 O236 1.289 . S
O210 C209 1.235 . S
C211 C213 1.400 . S
C211 N214 1.351 . S
C211 C216 1.501 . S
C212 C213 1.387 . S
C212 N215 1.341 . S
C213 C211 1.400 . S
C213 C212 1.387 . S
N214 Co205 2.022 . S
N214 C211 1.351 . S
N214 N215 1.365 . S
N215 C212 1.341 . S
N215 N214 1.365 . S
N215 H235 0.862 . S
C216 C211 1.501 . S
C216 H217 0.961 . S
C216 H218 0.961 . S
C216 H219 0.960 . S
H217 C216 0.961 . S
H218 C216 0.961 . S
H219 C216 0.960 . S
C220 N221 1.342 . S
C220 C224 1.401 . S
C220 C225 1.499 . S
N221 Co204 1.989 . S
N221 C220 1.342 . S
N221 N222 1.388 . S
N222 Co205 1.993 . S
N222 N221 1.388 . S
N222 C223 1.346 . S
C223 N222 1.346 . S
C223 C224 1.396 . S
C223 C233 1.510 . S
C224 C220 1.401 . S
C224 C223 1.396 . S
C225 C220 1.499 . S
C225 H226 0.959 . S
C225 H227 0.960 . S
C225 H228 0.961 . S
H226 C225 0.959 . S
H227 C225 0.960 . S
H228 C225 0.961 . S
O229 Co204 1.967 . S
O229 C237 1.258 . S
O230 Co205 1.941 . S
O230 C237 1.266 . S
H231 C233 0.959 . S
H232 C233 0.961 . S
C233 C223 1.510 . S
C233 H231 0.959 . S
C233 H232 0.961 . S
C233 H234 0.960 . S
H234 C233 0.960 . S
H235 N215 0.862 . S
O236 Co204 1.920 . S
O236 C209 1.289 . S
C237 O229 1.258 . S
C237 O230 1.266 . S
Co238 O241 1.970 . S
Co238 N255 1.989 . S
Co238 O263 1.967 . S
Co238 O270 1.920 . S
Co239 O242 1.966 . S
Co239 N248 2.022 . S
Co239 N256 1.993 . S
Co239 O264 1.941 1_554 S
C240 O241 1.258 1_554 S
C240 O242 1.263 . S
O241 Co238 1.970 . S
O241 C240 1.258 1_556 S
O242 Co239 1.966 . S
O242 C240 1.263 . S
C243 O244 1.235 . S
C243 O270 1.289 . S
O244 C243 1.235 . S
C245 C247 1.400 . S
C245 N248 1.351 . S
C245 C250 1.501 . S
C246 C247 1.387 . S
C246 N249 1.341 . S
C247 C245 1.400 . S
C247 C246 1.387 . S
N248 Co239 2.022 . S
N248 C245 1.351 . S
N248 N249 1.365 . S
N249 C246 1.341 . S
N249 N248 1.365 . S
N249 H269 0.862 . S
C250 C245 1.501 . S
C250 H251 0.961 . S
C250 H252 0.961 . S
C250 H253 0.960 . S
H251 C250 0.961 . S
H252 C250 0.961 . S
H253 C250 0.960 . S
C254 N255 1.342 . S
C254 C258 1.401 1_556 S
C254 C259 1.499 . S
N255 Co238 1.989 . S
N255 C254 1.342 . S
N255 N256 1.388 1_556 S
N256 Co239 1.993 . S
N256 N255 1.388 1_554 S
N256 C257 1.346 . S
C257 N256 1.346 . S
C257 C258 1.396 . S
C257 C267 1.510 . S
C258 C254 1.401 1_554 S
C258 C257 1.396 . S
C259 C254 1.499 . S
C259 H260 0.959 . S
C259 H261 0.960 . S
C259 H262 0.961 . S
H260 C259 0.959 . S
H261 C259 0.960 . S
H262 C259 0.961 . S
O263 Co238 1.967 . S
O263 C271 1.258 . S
O264 Co239 1.941 1_556 S
O264 C271 1.266 . S
H265 C267 0.959 . S
H266 C267 0.961 . S
C267 C257 1.510 . S
C267 H265 0.959 . S
C267 H266 0.961 . S
C267 H268 0.960 . S
H268 C267 0.960 . S
H269 N249 0.862 . S
O270 Co238 1.920 . S
O270 C243 1.289 . S
C271 O263 1.258 . S
C271 O264 1.266 . S
Co272 O275 1.970 . S
Co272 N289 1.989 . S
Co272 O297 1.967 . S
Co272 O304 1.920 . S
Co273 O276 1.966 . S
Co273 N282 2.022 . S
Co273 N290 1.993 . S
Co273 O298 1.941 . S
C274 O275 1.258 . S
C274 O276 1.263 . S
O275 Co272 1.970 . S
O275 C274 1.258 . S
O276 Co273 1.966 . S
O276 C274 1.263 . S
C277 O278 1.235 . S
C277 O304 1.289 . S
O278 C277 1.235 . S
C279 C281 1.400 . S
C279 N282 1.351 . S
C279 C284 1.501 . S
C280 C281 1.387 . S
C280 N283 1.341 . S
C281 C279 1.400 . S
C281 C280 1.387 . S
N282 Co273 2.022 . S
N282 C279 1.351 . S
N282 N283 1.365 . S
N283 C280 1.341 . S
N283 N282 1.365 . S
N283 H303 0.862 . S
C284 C279 1.501 . S
C284 H285 0.961 . S
C284 H286 0.961 . S
C284 H287 0.960 . S
H285 C284 0.961 . S
H286 C284 0.961 . S
H287 C284 0.960 . S
C288 N289 1.342 . S
C288 C292 1.401 . S
C288 C293 1.499 . S
N289 Co272 1.989 . S
N289 C288 1.342 . S
N289 N290 1.388 . S
N290 Co273 1.993 . S
N290 N289 1.388 . S
N290 C291 1.346 . S
C291 N290 1.346 . S
C291 C292 1.396 . S
C291 C301 1.510 . S
C292 C288 1.401 . S
C292 C291 1.396 . S
C293 C288 1.499 . S
C293 H294 0.959 . S
C293 H295 0.960 . S
C293 H296 0.961 . S
H294 C293 0.959 . S
H295 C293 0.960 . S
H296 C293 0.961 . S
O297 Co272 1.967 . S
O297 C305 1.258 . S
O298 Co273 1.941 . S
O298 C305 1.266 . S
H299 C301 0.959 . S
H300 C301 0.961 . S
C301 C291 1.510 . S
C301 H299 0.959 . S
C301 H300 0.961 . S
C301 H302 0.960 . S
H302 C301 0.960 . S
H303 N283 0.862 . S
O304 Co272 1.920 . S
O304 C277 1.289 . S
C305 O297 1.258 . S
C305 O298 1.266 . S
Co306 O309 1.970 . S
Co306 N323 1.989 . S
Co306 O331 1.967 . S
Co306 O338 1.920 . S
Co307 O310 1.966 . S
Co307 N316 2.022 . S
Co307 N324 1.993 . S
Co307 O332 1.941 . S
C308 O309 1.258 . S
C308 O310 1.263 . S
O309 Co306 1.970 . S
O309 C308 1.258 . S
O310 Co307 1.966 . S
O310 C308 1.263 . S
C311 O312 1.235 . S
C311 O338 1.289 . S
O312 C311 1.235 . S
C313 C315 1.400 . S
C313 N316 1.351 . S
C313 C318 1.501 . S
C314 C315 1.387 . S
C314 N317 1.341 . S
C315 C313 1.400 . S
C315 C314 1.387 . S
N316 Co307 2.022 . S
N316 C313 1.351 . S
N316 N317 1.365 . S
N317 C314 1.341 . S
N317 N316 1.365 . S
N317 H337 0.862 . S
C318 C313 1.501 . S
C318 H319 0.961 . S
C318 H320 0.961 . S
C318 H321 0.960 . S
H319 C318 0.961 . S
H320 C318 0.961 . S
H321 C318 0.960 . S
C322 N323 1.342 . S
C322 C326 1.401 . S
C322 C327 1.499 . S
N323 Co306 1.989 . S
N323 C322 1.342 . S
N323 N324 1.388 . S
N324 Co307 1.993 . S
N324 N323 1.388 . S
N324 C325 1.346 . S
C325 N324 1.346 . S
C325 C326 1.396 . S
C325 C335 1.510 . S
C326 C322 1.401 . S
C326 C325 1.396 . S
C327 C322 1.499 . S
C327 H328 0.959 . S
C327 H329 0.960 . S
C327 H330 0.961 . S
H328 C327 0.959 . S
H329 C327 0.960 . S
H330 C327 0.961 . S
O331 Co306 1.967 . S
O331 C339 1.258 . S
O332 Co307 1.941 . S
O332 C339 1.266 . S
H333 C335 0.959 . S
H334 C335 0.961 . S
C335 C325 1.510 . S
C335 H333 0.959 . S
C335 H334 0.961 . S
C335 H336 0.960 . S
H336 C335 0.960 . S
H337 N317 0.862 . S
O338 Co306 1.920 . S
O338 C311 1.289 . S
C339 O331 1.258 . S
C339 O332 1.266 . S
Co340 O343 1.970 . S
Co340 N357 1.989 . S
Co340 O365 1.967 . S
Co340 O372 1.920 . S
Co341 O344 1.966 . S
Co341 N350 2.022 . S
Co341 N358 1.993 . S
Co341 O366 1.941 . S
C342 O343 1.258 . S
C342 O344 1.263 . S
O343 Co340 1.970 . S
O343 C342 1.258 . S
O344 Co341 1.966 . S
O344 C342 1.263 . S
C345 O346 1.235 . S
C345 O372 1.289 . S
O346 C345 1.235 . S
C347 C349 1.400 . S
C347 N350 1.351 . S
C347 C352 1.501 . S
C348 C349 1.387 . S
C348 N351 1.341 . S
C349 C347 1.400 . S
C349 C348 1.387 . S
N350 Co341 2.022 . S
N350 C347 1.351 . S
N350 N351 1.365 . S
N351 C348 1.341 . S
N351 N350 1.365 . S
N351 H371 0.862 . S
C352 C347 1.501 . S
C352 H353 0.961 . S
C352 H354 0.961 . S
C352 H355 0.960 . S
H353 C352 0.961 . S
H354 C352 0.961 . S
H355 C352 0.960 . S
C356 N357 1.342 . S
C356 C360 1.401 . S
C356 C361 1.499 . S
N357 Co340 1.989 . S
N357 C356 1.342 . S
N357 N358 1.388 . S
N358 Co341 1.993 . S
N358 N357 1.388 . S
N358 C359 1.346 . S
C359 N358 1.346 . S
C359 C360 1.396 . S
C359 C369 1.510 . S
C360 C356 1.401 . S
C360 C359 1.396 . S
C361 C356 1.499 . S
C361 H362 0.959 . S
C361 H363 0.960 . S
C361 H364 0.961 . S
H362 C361 0.959 . S
H363 C361 0.960 . S
H364 C361 0.961 . S
O365 Co340 1.967 . S
O365 C373 1.258 . S
O366 Co341 1.941 . S
O366 C373 1.266 . S
H367 C369 0.959 . S
H368 C369 0.961 . S
C369 C359 1.510 . S
C369 H367 0.959 . S
C369 H368 0.961 . S
C369 H370 0.960 . S
H370 C369 0.960 . S
H371 N351 0.862 . S
O372 Co340 1.920 . S
O372 C345 1.289 . S
C373 O365 1.258 . S
C373 O366 1.266 . S
Co374 O377 1.970 . S
Co374 N391 1.989 . S
Co374 O399 1.967 . S
Co374 O406 1.920 . S
Co375 O378 1.966 . S
Co375 N384 2.022 . S
Co375 N392 1.993 . S
Co375 O400 1.941 1_554 S
C376 O377 1.258 1_554 S
C376 O378 1.263 . S
O377 Co374 1.970 . S
O377 C376 1.258 1_556 S
O378 Co375 1.966 . S
O378 C376 1.263 . S
C379 O380 1.235 . S
C379 O406 1.289 . S
O380 C379 1.235 . S
C381 C383 1.400 . S
C381 N384 1.351 . S
C381 C386 1.501 . S
C382 C383 1.387 . S
C382 N385 1.341 . S
C383 C381 1.400 . S
C383 C382 1.387 . S
N384 Co375 2.022 . S
N384 C381 1.351 . S
N384 N385 1.365 . S
N385 C382 1.341 . S
N385 N384 1.365 . S
N385 H405 0.862 . S
C386 C381 1.501 . S
C386 H387 0.961 . S
C386 H388 0.961 . S
C386 H389 0.960 . S
H387 C386 0.961 . S
H388 C386 0.961 . S
H389 C386 0.960 . S
C390 N391 1.342 . S
C390 C394 1.401 1_556 S
C390 C395 1.499 . S
N391 Co374 1.989 . S
N391 C390 1.342 . S
N391 N392 1.388 1_556 S
N392 Co375 1.993 . S
N392 N391 1.388 1_554 S
N392 C393 1.346 . S
C393 N392 1.346 . S
C393 C394 1.396 . S
C393 C403 1.510 . S
C394 C390 1.401 1_554 S
C394 C393 1.396 . S
C395 C390 1.499 . S
C395 H396 0.959 . S
C395 H397 0.960 . S
C395 H398 0.961 . S
H396 C395 0.959 . S
H397 C395 0.960 . S
H398 C395 0.961 . S
O399 Co374 1.967 . S
O399 C407 1.258 . S
O400 Co375 1.941 1_556 S
O400 C407 1.266 . S
H401 C403 0.959 . S
H402 C403 0.961 . S
C403 C393 1.510 . S
C403 H401 0.959 . S
C403 H402 0.961 . S
C403 H404 0.960 . S
H404 C403 0.960 . S
H405 N385 0.862 . S
O406 Co374 1.920 . S
O406 C379 1.289 . S
C407 O399 1.258 . S
C407 O400 1.266 . S
Co408 O411 1.970 . S
Co408 N425 1.989 . S
Co408 O433 1.967 . S
Co408 O440 1.920 . S
Co409 O412 1.966 . S
Co409 N418 2.022 . S
Co409 N426 1.993 . S
Co409 O434 1.941 . S
C410 O411 1.258 . S
C410 O412 1.263 . S
O411 Co408 1.970 . S
O411 C410 1.258 . S
O412 Co409 1.966 . S
O412 C410 1.263 . S
C413 O414 1.235 . S
C413 O440 1.289 . S
O414 C413 1.235 . S
C415 C417 1.400 . S
C415 N418 1.351 . S
C415 C420 1.501 . S
C416 C417 1.387 . S
C416 N419 1.341 . S
C417 C415 1.400 . S
C417 C416 1.387 . S
N418 Co409 2.022 . S
N418 C415 1.351 . S
N418 N419 1.365 . S
N419 C416 1.341 . S
N419 N418 1.365 . S
N419 H439 0.862 . S
C420 C415 1.501 . S
C420 H421 0.961 . S
C420 H422 0.961 . S
C420 H423 0.960 . S
H421 C420 0.961 . S
H422 C420 0.961 . S
H423 C420 0.960 . S
C424 N425 1.342 . S
C424 C428 1.401 . S
C424 C429 1.499 . S
N425 Co408 1.989 . S
N425 C424 1.342 . S
N425 N426 1.388 . S
N426 Co409 1.993 . S
N426 N425 1.388 . S
N426 C427 1.346 . S
C427 N426 1.346 . S
C427 C428 1.396 . S
C427 C437 1.510 . S
C428 C424 1.401 . S
C428 C427 1.396 . S
C429 C424 1.499 . S
C429 H430 0.959 . S
C429 H431 0.960 . S
C429 H432 0.961 . S
H430 C429 0.959 . S
H431 C429 0.960 . S
H432 C429 0.961 . S
O433 Co408 1.967 . S
O433 C441 1.258 . S
O434 Co409 1.941 . S
O434 C441 1.266 . S
H435 C437 0.959 . S
H436 C437 0.961 . S
C437 C427 1.510 . S
C437 H435 0.959 . S
C437 H436 0.961 . S
C437 H438 0.960 . S
H438 C437 0.960 . S
H439 N419 0.862 . S
O440 Co408 1.920 . S
O440 C413 1.289 . S
C441 O433 1.258 . S
C441 O434 1.266 . S
Co442 O445 1.970 . S
Co442 N459 1.989 . S
Co442 O467 1.967 . S
Co442 O474 1.920 . S
Co443 O446 1.966 . S
Co443 N452 2.022 . S
Co443 N460 1.993 . S
Co443 O468 1.941 . S
C444 O445 1.258 . S
C444 O446 1.263 . S
O445 Co442 1.970 . S
O445 C444 1.258 . S
O446 Co443 1.966 . S
O446 C444 1.263 . S
C447 O448 1.235 . S
C447 O474 1.289 . S
O448 C447 1.235 . S
C449 C451 1.400 . S
C449 N452 1.351 . S
C449 C454 1.501 . S
C450 C451 1.387 . S
C450 N453 1.341 . S
C451 C449 1.400 . S
C451 C450 1.387 . S
N452 Co443 2.022 . S
N452 C449 1.351 . S
N452 N453 1.365 . S
N453 C450 1.341 . S
N453 N452 1.365 . S
N453 H473 0.862 . S
C454 C449 1.501 . S
C454 H455 0.961 . S
C454 H456 0.961 . S
C454 H457 0.960 . S
H455 C454 0.961 . S
H456 C454 0.961 . S
H457 C454 0.960 . S
C458 N459 1.342 . S
C458 C462 1.401 . S
C458 C463 1.499 . S
N459 Co442 1.989 . S
N459 C458 1.342 . S
N459 N460 1.388 . S
N460 Co443 1.993 . S
N460 N459 1.388 . S
N460 C461 1.346 . S
C461 N460 1.346 . S
C461 C462 1.396 . S
C461 C471 1.510 . S
C462 C458 1.401 . S
C462 C461 1.396 . S
C463 C458 1.499 . S
C463 H464 0.959 . S
C463 H465 0.960 . S
C463 H466 0.961 . S
H464 C463 0.959 . S
H465 C463 0.960 . S
H466 C463 0.961 . S
O467 Co442 1.967 . S
O467 C475 1.258 . S
O468 Co443 1.941 . S
O468 C475 1.266 . S
H469 C471 0.959 . S
H470 C471 0.961 . S
C471 C461 1.510 . S
C471 H469 0.959 . S
C471 H470 0.961 . S
C471 H472 0.960 . S
H472 C471 0.960 . S
H473 N453 0.862 . S
O474 Co442 1.920 . S
O474 C447 1.289 . S
C475 O467 1.258 . S
C475 O468 1.266 . S
Co476 O479 1.970 . S
Co476 N493 1.989 . S
Co476 O501 1.967 . S
Co476 O508 1.920 . S
Co477 O480 1.966 . S
Co477 N486 2.022 . S
Co477 N494 1.993 . S
Co477 O502 1.941 . S
C478 O479 1.258 . S
C478 O480 1.263 . S
O479 Co476 1.970 . S
O479 C478 1.258 . S
O480 Co477 1.966 . S
O480 C478 1.263 . S
C481 O482 1.235 . S
C481 O508 1.289 . S
O482 C481 1.235 . S
C483 C485 1.400 . S
C483 N486 1.351 . S
C483 C488 1.501 . S
C484 C485 1.387 . S
C484 N487 1.341 . S
C485 C483 1.400 . S
C485 C484 1.387 . S
N486 Co477 2.022 . S
N486 C483 1.351 . S
N486 N487 1.365 . S
N487 C484 1.341 . S
N487 N486 1.365 . S
N487 H507 0.862 . S
C488 C483 1.501 . S
C488 H489 0.961 . S
C488 H490 0.961 . S
C488 H491 0.960 . S
H489 C488 0.961 . S
H490 C488 0.961 . S
H491 C488 0.960 . S
C492 N493 1.342 . S
C492 C496 1.401 . S
C492 C497 1.499 . S
N493 Co476 1.989 . S
N493 C492 1.342 . S
N493 N494 1.388 . S
N494 Co477 1.993 . S
N494 N493 1.388 . S
N494 C495 1.346 . S
C495 N494 1.346 . S
C495 C496 1.396 . S
C495 C505 1.510 . S
C496 C492 1.401 . S
C496 C495 1.396 . S
C497 C492 1.499 . S
C497 H498 0.959 . S
C497 H499 0.960 . S
C497 H500 0.961 . S
H498 C497 0.959 . S
H499 C497 0.960 . S
H500 C497 0.961 . S
O501 Co476 1.967 . S
O501 C509 1.258 . S
O502 Co477 1.941 . S
O502 C509 1.266 . S
H503 C505 0.959 . S
H504 C505 0.961 . S
C505 C495 1.510 . S
C505 H503 0.959 . S
C505 H504 0.961 . S
C505 H506 0.960 . S
H506 C505 0.960 . S
H507 N487 0.862 . S
O508 Co476 1.920 . S
O508 C481 1.289 . S
C509 O501 1.258 . S
C509 O502 1.266 . S
Co510 O513 1.970 . S
Co510 N527 1.989 . S
Co510 O535 1.967 . S
Co510 O542 1.920 . S
Co511 O514 1.966 . S
Co511 N520 2.022 . S
Co511 N528 1.993 . S
Co511 O536 1.941 1_556 S
C512 O513 1.258 1_556 S
C512 O514 1.263 . S
O513 Co510 1.970 . S
O513 C512 1.258 1_554 S
O514 Co511 1.966 . S
O514 C512 1.263 . S
C515 O516 1.235 . S
C515 O542 1.289 . S
O516 C515 1.235 . S
C517 C519 1.400 . S
C517 N520 1.351 . S
C517 C522 1.501 . S
C518 C519 1.387 . S
C518 N521 1.341 . S
C519 C517 1.400 . S
C519 C518 1.387 . S
N520 Co511 2.022 . S
N520 C517 1.351 . S
N520 N521 1.365 . S
N521 C518 1.341 . S
N521 N520 1.365 . S
N521 H541 0.862 . S
C522 C517 1.501 . S
C522 H523 0.961 . S
C522 H524 0.961 . S
C522 H525 0.960 . S
H523 C522 0.961 . S
H524 C522 0.961 . S
H525 C522 0.960 . S
C526 N527 1.342 . S
C526 C530 1.401 1_554 S
C526 C531 1.499 . S
N527 Co510 1.989 . S
N527 C526 1.342 . S
N527 N528 1.388 1_554 S
N528 Co511 1.993 . S
N528 N527 1.388 1_556 S
N528 C529 1.346 . S
C529 N528 1.346 . S
C529 C530 1.396 . S
C529 C539 1.510 . S
C530 C526 1.401 1_556 S
C530 C529 1.396 . S
C531 C526 1.499 . S
C531 H532 0.959 . S
C531 H533 0.960 . S
C531 H534 0.961 . S
H532 C531 0.959 . S
H533 C531 0.960 . S
H534 C531 0.961 . S
O535 Co510 1.967 . S
O535 C543 1.258 . S
O536 Co511 1.941 1_554 S
O536 C543 1.266 . S
H537 C539 0.959 . S
H538 C539 0.961 . S
C539 C529 1.510 . S
C539 H537 0.959 . S
C539 H538 0.961 . S
C539 H540 0.960 . S
H540 C539 0.960 . S
H541 N521 0.862 . S
O542 Co510 1.920 . S
O542 C515 1.289 . S
C543 O535 1.258 . S
C543 O536 1.266 . S
Co544 O547 1.970 . S
Co544 N561 1.989 . S
Co544 O569 1.967 . S
Co544 O576 1.920 . S
Co545 O548 1.966 . S
Co545 N554 2.022 . S
Co545 N562 1.993 . S
Co545 O570 1.941 . S
C546 O547 1.258 . S
C546 O548 1.263 . S
O547 Co544 1.970 . S
O547 C546 1.258 . S
O548 Co545 1.966 . S
O548 C546 1.263 . S
C549 O550 1.235 . S
C549 O576 1.289 . S
O550 C549 1.235 . S
C551 C553 1.400 . S
C551 N554 1.351 . S
C551 C556 1.501 . S
C552 C553 1.387 . S
C552 N555 1.341 . S
C553 C551 1.400 . S
C553 C552 1.387 . S
N554 Co545 2.022 . S
N554 C551 1.351 . S
N554 N555 1.365 . S
N555 C552 1.341 . S
N555 N554 1.365 . S
N555 H575 0.862 . S
C556 C551 1.501 . S
C556 H557 0.961 . S
C556 H558 0.961 . S
C556 H559 0.960 . S
H557 C556 0.961 . S
H558 C556 0.961 . S
H559 C556 0.960 . S
C560 N561 1.342 . S
C560 C564 1.401 . S
C560 C565 1.499 . S
N561 Co544 1.989 . S
N561 C560 1.342 . S
N561 N562 1.388 . S
N562 Co545 1.993 . S
N562 N561 1.388 . S
N562 C563 1.346 . S
C563 N562 1.346 . S
C563 C564 1.396 . S
C563 C573 1.510 . S
C564 C560 1.401 . S
C564 C563 1.396 . S
C565 C560 1.499 . S
C565 H566 0.959 . S
C565 H567 0.960 . S
C565 H568 0.961 . S
H566 C565 0.959 . S
H567 C565 0.960 . S
H568 C565 0.961 . S
O569 Co544 1.967 . S
O569 C577 1.258 . S
O570 Co545 1.941 . S
O570 C577 1.266 . S
H571 C573 0.959 . S
H572 C573 0.961 . S
C573 C563 1.510 . S
C573 H571 0.959 . S
C573 H572 0.961 . S
C573 H574 0.960 . S
H574 C573 0.960 . S
H575 N555 0.862 . S
O576 Co544 1.920 . S
O576 C549 1.289 . S
C577 O569 1.258 . S
C577 O570 1.266 . S
Co578 O581 1.970 . S
Co578 N595 1.989 . S
Co578 O603 1.967 . S
Co578 O610 1.920 . S
Co579 O582 1.966 . S
Co579 N588 2.022 . S
Co579 N596 1.993 . S
Co579 O604 1.941 1_556 S
C580 O581 1.258 1_556 S
C580 O582 1.263 . S
O581 Co578 1.970 . S
O581 C580 1.258 1_554 S
O582 Co579 1.966 . S
O582 C580 1.263 . S
C583 O584 1.235 . S
C583 O610 1.289 . S
O584 C583 1.235 . S
C585 C587 1.400 . S
C585 N588 1.351 . S
C585 C590 1.501 . S
C586 C587 1.387 . S
C586 N589 1.341 . S
C587 C585 1.400 . S
C587 C586 1.387 . S
N588 Co579 2.022 . S
N588 C585 1.351 . S
N588 N589 1.365 . S
N589 C586 1.341 . S
N589 N588 1.365 . S
N589 H609 0.862 . S
C590 C585 1.501 . S
C590 H591 0.961 . S
C590 H592 0.961 . S
C590 H593 0.960 . S
H591 C590 0.961 . S
H592 C590 0.961 . S
H593 C590 0.960 . S
C594 N595 1.342 . S
C594 C598 1.401 1_554 S
C594 C599 1.499 . S
N595 Co578 1.989 . S
N595 C594 1.342 . S
N595 N596 1.388 1_554 S
N596 Co579 1.993 . S
N596 N595 1.388 1_556 S
N596 C597 1.346 . S
C597 N596 1.346 . S
C597 C598 1.396 . S
C597 C607 1.510 . S
C598 C594 1.401 1_556 S
C598 C597 1.396 . S
C599 C594 1.499 . S
C599 H600 0.959 . S
C599 H601 0.960 . S
C599 H602 0.961 . S
H600 C599 0.959 . S
H601 C599 0.960 . S
H602 C599 0.961 . S
O603 Co578 1.967 . S
O603 C611 1.258 . S
O604 Co579 1.941 1_554 S
O604 C611 1.266 . S
H605 C607 0.959 . S
H606 C607 0.961 . S
C607 C597 1.510 . S
C607 H605 0.959 . S
C607 H606 0.961 . S
C607 H608 0.960 . S
H608 C607 0.960 . S
H609 N589 0.862 . S
O610 Co578 1.920 . S
O610 C583 1.289 . S
C611 O603 1.258 . S
C611 O604 1.266 . S
Co612 O615 1.970 . S
Co612 N629 1.989 . S
Co612 O637 1.967 . S
Co612 O644 1.920 . S
Co613 O616 1.966 . S
Co613 N622 2.022 . S
Co613 N630 1.993 . S
Co613 O638 1.941 . S
C614 O615 1.258 . S
C614 O616 1.263 . S
O615 Co612 1.970 . S
O615 C614 1.258 . S
O616 Co613 1.966 . S
O616 C614 1.263 . S
C617 O618 1.235 . S
C617 O644 1.289 . S
O618 C617 1.235 . S
C619 C621 1.400 . S
C619 N622 1.351 . S
C619 C624 1.501 . S
C620 C621 1.387 . S
C620 N623 1.341 . S
C621 C619 1.400 . S
C621 C620 1.387 . S
N622 Co613 2.022 . S
N622 C619 1.351 . S
N622 N623 1.365 . S
N623 C620 1.341 . S
N623 N622 1.365 . S
N623 H643 0.862 . S
C624 C619 1.501 . S
C624 H625 0.961 . S
C624 H626 0.961 . S
C624 H627 0.960 . S
H625 C624 0.961 . S
H626 C624 0.961 . S
H627 C624 0.960 . S
C628 N629 1.342 . S
C628 C632 1.401 . S
C628 C633 1.499 . S
N629 Co612 1.989 . S
N629 C628 1.342 . S
N629 N630 1.388 . S
N630 Co613 1.993 . S
N630 N629 1.388 . S
N630 C631 1.346 . S
C631 N630 1.346 . S
C631 C632 1.396 . S
C631 C641 1.510 . S
C632 C628 1.401 . S
C632 C631 1.396 . S
C633 C628 1.499 . S
C633 H634 0.959 . S
C633 H635 0.960 . S
C633 H636 0.961 . S
H634 C633 0.959 . S
H635 C633 0.960 . S
H636 C633 0.961 . S
O637 Co612 1.967 . S
O637 C645 1.258 . S
O638 Co613 1.941 . S
O638 C645 1.266 . S
H639 C641 0.959 . S
H640 C641 0.961 . S
C641 C631 1.510 . S
C641 H639 0.959 . S
C641 H640 0.961 . S
C641 H642 0.960 . S
H642 C641 0.960 . S
H643 N623 0.862 . S
O644 Co612 1.920 . S
O644 C617 1.289 . S
C645 O637 1.258 . S
C645 O638 1.266 . S
Co646 O649 1.970 . S
Co646 N663 1.989 . S
Co646 O671 1.967 . S
Co646 O678 1.920 . S
Co647 O650 1.966 . S
Co647 N656 2.022 . S
Co647 N664 1.993 . S
Co647 O672 1.941 . S
C648 O649 1.258 . S
C648 O650 1.263 . S
O649 Co646 1.970 . S
O649 C648 1.258 . S
O650 Co647 1.966 . S
O650 C648 1.263 . S
C651 O652 1.235 . S
C651 O678 1.289 . S
O652 C651 1.235 . S
C653 C655 1.400 . S
C653 N656 1.351 . S
C653 C658 1.501 . S
C654 C655 1.387 . S
C654 N657 1.341 . S
C655 C653 1.400 . S
C655 C654 1.387 . S
N656 Co647 2.022 . S
N656 C653 1.351 . S
N656 N657 1.365 . S
N657 C654 1.341 . S
N657 N656 1.365 . S
N657 H677 0.862 . S
C658 C653 1.501 . S
C658 H659 0.961 . S
C658 H660 0.961 . S
C658 H661 0.960 . S
H659 C658 0.961 . S
H660 C658 0.961 . S
H661 C658 0.960 . S
C662 N663 1.342 . S
C662 C666 1.401 . S
C662 C667 1.499 . S
N663 Co646 1.989 . S
N663 C662 1.342 . S
N663 N664 1.388 . S
N664 Co647 1.993 . S
N664 N663 1.388 . S
N664 C665 1.346 . S
C665 N664 1.346 . S
C665 C666 1.396 . S
C665 C675 1.510 . S
C666 C662 1.401 . S
C666 C665 1.396 . S
C667 C662 1.499 . S
C667 H668 0.959 . S
C667 H669 0.960 . S
C667 H670 0.961 . S
H668 C667 0.959 . S
H669 C667 0.960 . S
H670 C667 0.961 . S
O671 Co646 1.967 . S
O671 C679 1.258 . S
O672 Co647 1.941 . S
O672 C679 1.266 . S
H673 C675 0.959 . S
H674 C675 0.961 . S
C675 C665 1.510 . S
C675 H673 0.959 . S
C675 H674 0.961 . S
C675 H676 0.960 . S
H676 C675 0.960 . S
H677 N657 0.862 . S
O678 Co646 1.920 . S
O678 C651 1.289 . S
C679 O671 1.258 . S
C679 O672 1.266 . S
Co680 O683 1.970 . S
Co680 N697 1.989 . S
Co680 O705 1.967 . S
Co680 O712 1.920 . S
Co681 O684 1.966 . S
Co681 N690 2.022 . S
Co681 N698 1.993 . S
Co681 O706 1.941 . S
C682 O683 1.258 . S
C682 O684 1.263 . S
O683 Co680 1.970 . S
O683 C682 1.258 . S
O684 Co681 1.966 . S
O684 C682 1.263 . S
C685 O686 1.235 . S
C685 O712 1.289 . S
O686 C685 1.235 . S
C687 C689 1.400 . S
C687 N690 1.351 . S
C687 C692 1.501 . S
C688 C689 1.387 . S
C688 N691 1.341 . S
C689 C687 1.400 . S
C689 C688 1.387 . S
N690 Co681 2.022 . S
N690 C687 1.351 . S
N690 N691 1.365 . S
N691 C688 1.341 . S
N691 N690 1.365 . S
N691 H711 0.862 . S
C692 C687 1.501 . S
C692 H693 0.961 . S
C692 H694 0.961 . S
C692 H695 0.960 . S
H693 C692 0.961 . S
H694 C692 0.961 . S
H695 C692 0.960 . S
C696 N697 1.342 . S
C696 C700 1.401 . S
C696 C701 1.499 . S
N697 Co680 1.989 . S
N697 C696 1.342 . S
N697 N698 1.388 . S
N698 Co681 1.993 . S
N698 N697 1.388 . S
N698 C699 1.346 . S
C699 N698 1.346 . S
C699 C700 1.396 . S
C699 C709 1.510 . S
C700 C696 1.401 . S
C700 C699 1.396 . S
C701 C696 1.499 . S
C701 H702 0.959 . S
C701 H703 0.960 . S
C701 H704 0.961 . S
H702 C701 0.959 . S
H703 C701 0.960 . S
H704 C701 0.961 . S
O705 Co680 1.967 . S
O705 C713 1.258 . S
O706 Co681 1.941 . S
O706 C713 1.266 . S
H707 C709 0.959 . S
H708 C709 0.961 . S
C709 C699 1.510 . S
C709 H707 0.959 . S
C709 H708 0.961 . S
C709 H710 0.960 . S
H710 C709 0.960 . S
H711 N691 0.862 . S
O712 Co680 1.920 . S
O712 C685 1.289 . S
C713 O705 1.258 . S
C713 O706 1.266 . S
Co714 O717 1.970 . S
Co714 N731 1.989 . S
Co714 O739 1.967 . S
Co714 O746 1.920 . S
Co715 O718 1.966 . S
Co715 N724 2.022 . S
Co715 N732 1.993 . S
Co715 O740 1.941 1_554 S
C716 O717 1.258 1_554 S
C716 O718 1.263 . S
O717 Co714 1.970 . S
O717 C716 1.258 1_556 S
O718 Co715 1.966 . S
O718 C716 1.263 . S
C719 O720 1.235 . S
C719 O746 1.289 . S
O720 C719 1.235 . S
C721 C723 1.400 . S
C721 N724 1.351 . S
C721 C726 1.501 . S
C722 C723 1.387 . S
C722 N725 1.341 . S
C723 C721 1.400 . S
C723 C722 1.387 . S
N724 Co715 2.022 . S
N724 C721 1.351 . S
N724 N725 1.365 . S
N725 C722 1.341 . S
N725 N724 1.365 . S
N725 H745 0.862 . S
C726 C721 1.501 . S
C726 H727 0.961 . S
C726 H728 0.961 . S
C726 H729 0.960 . S
H727 C726 0.961 . S
H728 C726 0.961 . S
H729 C726 0.960 . S
C730 N731 1.342 . S
C730 C734 1.401 1_556 S
C730 C735 1.499 . S
N731 Co714 1.989 . S
N731 C730 1.342 . S
N731 N732 1.388 1_556 S
N732 Co715 1.993 . S
N732 N731 1.388 1_554 S
N732 C733 1.346 . S
C733 N732 1.346 . S
C733 C734 1.396 . S
C733 C743 1.510 . S
C734 C730 1.401 1_554 S
C734 C733 1.396 . S
C735 C730 1.499 . S
C735 H736 0.959 . S
C735 H737 0.960 . S
C735 H738 0.961 . S
H736 C735 0.959 . S
H737 C735 0.960 . S
H738 C735 0.961 . S
O739 Co714 1.967 . S
O739 C747 1.258 . S
O740 Co715 1.941 1_556 S
O740 C747 1.266 . S
H741 C743 0.959 . S
H742 C743 0.961 . S
C743 C733 1.510 . S
C743 H741 0.959 . S
C743 H742 0.961 . S
C743 H744 0.960 . S
H744 C743 0.960 . S
H745 N725 0.862 . S
O746 Co714 1.920 . S
O746 C719 1.289 . S
C747 O739 1.258 . S
C747 O740 1.266 . S
Co748 O751 1.970 . S
Co748 N765 1.989 . S
Co748 O773 1.967 . S
Co748 O780 1.920 . S
Co749 O752 1.966 . S
Co749 N758 2.022 . S
Co749 N766 1.993 . S
Co749 O774 1.941 . S
C750 O751 1.258 . S
C750 O752 1.263 . S
O751 Co748 1.970 . S
O751 C750 1.258 . S
O752 Co749 1.966 . S
O752 C750 1.263 . S
C753 O754 1.235 . S
C753 O780 1.289 . S
O754 C753 1.235 . S
C755 C757 1.400 . S
C755 N758 1.351 . S
C755 C760 1.501 . S
C756 C757 1.387 . S
C756 N759 1.341 . S
C757 C755 1.400 . S
C757 C756 1.387 . S
N758 Co749 2.022 . S
N758 C755 1.351 . S
N758 N759 1.365 . S
N759 C756 1.341 . S
N759 N758 1.365 . S
N759 H779 0.862 . S
C760 C755 1.501 . S
C760 H761 0.961 . S
C760 H762 0.961 . S
C760 H763 0.960 . S
H761 C760 0.961 . S
H762 C760 0.961 . S
H763 C760 0.960 . S
C764 N765 1.342 . S
C764 C768 1.401 . S
C764 C769 1.499 . S
N765 Co748 1.989 . S
N765 C764 1.342 . S
N765 N766 1.388 . S
N766 Co749 1.993 . S
N766 N765 1.388 . S
N766 C767 1.346 . S
C767 N766 1.346 . S
C767 C768 1.396 . S
C767 C777 1.510 . S
C768 C764 1.401 . S
C768 C767 1.396 . S
C769 C764 1.499 . S
C769 H770 0.959 . S
C769 H771 0.960 . S
C769 H772 0.961 . S
H770 C769 0.959 . S
H771 C769 0.960 . S
H772 C769 0.961 . S
O773 Co748 1.967 . S
O773 C781 1.258 . S
O774 Co749 1.941 . S
O774 C781 1.266 . S
H775 C777 0.959 . S
H776 C777 0.961 . S
C777 C767 1.510 . S
C777 H775 0.959 . S
C777 H776 0.961 . S
C777 H778 0.960 . S
H778 C777 0.960 . S
H779 N759 0.862 . S
O780 Co748 1.920 . S
O780 C753 1.289 . S
C781 O773 1.258 . S
C781 O774 1.266 . S
Co782 O785 1.970 . S
Co782 N799 1.989 . S
Co782 O807 1.967 . S
Co782 O814 1.920 . S
Co783 O786 1.966 . S
Co783 N792 2.022 . S
Co783 N800 1.993 . S
Co783 O808 1.941 . S
C784 O785 1.258 . S
C784 O786 1.263 . S
O785 Co782 1.970 . S
O785 C784 1.258 . S
O786 Co783 1.966 . S
O786 C784 1.263 . S
C787 O788 1.235 . S
C787 O814 1.289 . S
O788 C787 1.235 . S
C789 C791 1.400 . S
C789 N792 1.351 . S
C789 C794 1.501 . S
C790 C791 1.387 . S
C790 N793 1.341 . S
C791 C789 1.400 . S
C791 C790 1.387 . S
N792 Co783 2.022 . S
N792 C789 1.351 . S
N792 N793 1.365 . S
N793 C790 1.341 . S
N793 N792 1.365 . S
N793 H813 0.862 . S
C794 C789 1.501 . S
C794 H795 0.961 . S
C794 H796 0.961 . S
C794 H797 0.960 . S
H795 C794 0.961 . S
H796 C794 0.961 . S
H797 C794 0.960 . S
C798 N799 1.342 . S
C798 C802 1.401 . S
C798 C803 1.499 . S
N799 Co782 1.989 . S
N799 C798 1.342 . S
N799 N800 1.388 . S
N800 Co783 1.993 . S
N800 N799 1.388 . S
N800 C801 1.346 . S
C801 N800 1.346 . S
C801 C802 1.396 . S
C801 C811 1.510 . S
C802 C798 1.401 . S
C802 C801 1.396 . S
C803 C798 1.499 . S
C803 H804 0.959 . S
C803 H805 0.960 . S
C803 H806 0.961 . S
H804 C803 0.959 . S
H805 C803 0.960 . S
H806 C803 0.961 . S
O807 Co782 1.967 . S
O807 C815 1.258 . S
O808 Co783 1.941 . S
O808 C815 1.266 . S
H809 C811 0.959 . S
H810 C811 0.961 . S
C811 C801 1.510 . S
C811 H809 0.959 . S
C811 H810 0.961 . S
C811 H812 0.960 . S
H812 C811 0.960 . S
H813 N793 0.862 . S
O814 Co782 1.920 . S
O814 C787 1.289 . S
C815 O807 1.258 . S
C815 O808 1.266 . S
Co816 O819 1.970 . S
Co816 N833 1.989 . S
Co816 O841 1.967 . S
Co816 O848 1.920 . S
Co817 O820 1.966 . S
Co817 N826 2.022 . S
Co817 N834 1.993 . S
Co817 O842 1.941 . S
C818 O819 1.258 . S
C818 O820 1.263 . S
O819 Co816 1.970 . S
O819 C818 1.258 . S
O820 Co817 1.966 . S
O820 C818 1.263 . S
C821 O822 1.235 . S
C821 O848 1.289 . S
O822 C821 1.235 . S
C823 C825 1.400 . S
C823 N826 1.351 . S
C823 C828 1.501 . S
C824 C825 1.387 . S
C824 N827 1.341 . S
C825 C823 1.400 . S
C825 C824 1.387 . S
N826 Co817 2.022 . S
N826 C823 1.351 . S
N826 N827 1.365 . S
N827 C824 1.341 . S
N827 N826 1.365 . S
N827 H847 0.862 . S
C828 C823 1.501 . S
C828 H829 0.961 . S
C828 H830 0.961 . S
C828 H831 0.960 . S
H829 C828 0.961 . S
H830 C828 0.961 . S
H831 C828 0.960 . S
C832 N833 1.342 . S
C832 C836 1.401 . S
C832 C837 1.499 . S
N833 Co816 1.989 . S
N833 C832 1.342 . S
N833 N834 1.388 . S
N834 Co817 1.993 . S
N834 N833 1.388 . S
N834 C835 1.346 . S
C835 N834 1.346 . S
C835 C836 1.396 . S
C835 C845 1.510 . S
C836 C832 1.401 . S
C836 C835 1.396 . S
C837 C832 1.499 . S
C837 H838 0.959 . S
C837 H839 0.960 . S
C837 H840 0.961 . S
H838 C837 0.959 . S
H839 C837 0.960 . S
H840 C837 0.961 . S
O841 Co816 1.967 . S
O841 C849 1.258 . S
O842 Co817 1.941 . S
O842 C849 1.266 . S
H843 C845 0.959 . S
H844 C845 0.961 . S
C845 C835 1.510 . S
C845 H843 0.959 . S
C845 H844 0.961 . S
C845 H846 0.960 . S
H846 C845 0.960 . S
H847 N827 0.862 . S
O848 Co816 1.920 . S
O848 C821 1.289 . S
C849 O841 1.258 . S
C849 O842 1.266 . S
Co850 O853 1.970 . S
Co850 N867 1.989 . S
Co850 O875 1.967 . S
Co850 O882 1.920 . S
Co851 O854 1.966 . S
Co851 N860 2.022 . S
Co851 N868 1.993 . S
Co851 O876 1.941 1_554 S
C852 O853 1.258 1_554 S
C852 O854 1.263 . S
O853 Co850 1.970 . S
O853 C852 1.258 1_556 S
O854 Co851 1.966 . S
O854 C852 1.263 . S
C855 O856 1.235 . S
C855 O882 1.289 . S
O856 C855 1.235 . S
C857 C859 1.400 . S
C857 N860 1.351 . S
C857 C862 1.501 . S
C858 C859 1.387 . S
C858 N861 1.341 . S
C859 C857 1.400 . S
C859 C858 1.387 . S
N860 Co851 2.022 . S
N860 C857 1.351 . S
N860 N861 1.365 . S
N861 C858 1.341 . S
N861 N860 1.365 . S
N861 H881 0.862 . S
C862 C857 1.501 . S
C862 H863 0.961 . S
C862 H864 0.961 . S
C862 H865 0.960 . S
H863 C862 0.961 . S
H864 C862 0.961 . S
H865 C862 0.960 . S
C866 N867 1.342 . S
C866 C870 1.401 1_556 S
C866 C871 1.499 . S
N867 Co850 1.989 . S
N867 C866 1.342 . S
N867 N868 1.388 1_556 S
N868 Co851 1.993 . S
N868 N867 1.388 1_554 S
N868 C869 1.346 . S
C869 N868 1.346 . S
C869 C870 1.396 . S
C869 C879 1.510 . S
C870 C866 1.401 1_554 S
C870 C869 1.396 . S
C871 C866 1.499 . S
C871 H872 0.959 . S
C871 H873 0.960 . S
C871 H874 0.961 . S
H872 C871 0.959 . S
H873 C871 0.960 . S
H874 C871 0.961 . S
O875 Co850 1.967 . S
O875 C883 1.258 . S
O876 Co851 1.941 1_556 S
O876 C883 1.266 . S
H877 C879 0.959 . S
H878 C879 0.961 . S
C879 C869 1.510 . S
C879 H877 0.959 . S
C879 H878 0.961 . S
C879 H880 0.960 . S
H880 C879 0.960 . S
H881 N861 0.862 . S
O882 Co850 1.920 . S
O882 C855 1.289 . S
C883 O875 1.258 . S
C883 O876 1.266 . S
Co884 O887 1.970 . S
Co884 N901 1.989 . S
Co884 O909 1.967 . S
Co884 O916 1.920 . S
Co885 O888 1.966 . S
Co885 N894 2.022 . S
Co885 N902 1.993 . S
Co885 O910 1.941 . S
C886 O887 1.258 . S
C886 O888 1.263 . S
O887 Co884 1.970 . S
O887 C886 1.258 . S
O888 Co885 1.966 . S
O888 C886 1.263 . S
C889 O890 1.235 . S
C889 O916 1.289 . S
O890 C889 1.235 . S
C891 C893 1.400 . S
C891 N894 1.351 . S
C891 C896 1.501 . S
C892 C893 1.387 . S
C892 N895 1.341 . S
C893 C891 1.400 . S
C893 C892 1.387 . S
N894 Co885 2.022 . S
N894 C891 1.351 . S
N894 N895 1.365 . S
N895 C892 1.341 . S
N895 N894 1.365 . S
N895 H915 0.862 . S
C896 C891 1.501 . S
C896 H897 0.961 . S
C896 H898 0.961 . S
C896 H899 0.960 . S
H897 C896 0.961 . S
H898 C896 0.961 . S
H899 C896 0.960 . S
C900 N901 1.342 . S
C900 C904 1.401 . S
C900 C905 1.499 . S
N901 Co884 1.989 . S
N901 C900 1.342 . S
N901 N902 1.388 . S
N902 Co885 1.993 . S
N902 N901 1.388 . S
N902 C903 1.346 . S
C903 N902 1.346 . S
C903 C904 1.396 . S
C903 C913 1.510 . S
C904 C900 1.401 . S
C904 C903 1.396 . S
C905 C900 1.499 . S
C905 H906 0.959 . S
C905 H907 0.960 . S
C905 H908 0.961 . S
H906 C905 0.959 . S
H907 C905 0.960 . S
H908 C905 0.961 . S
O909 Co884 1.967 . S
O909 C917 1.258 . S
O910 Co885 1.941 . S
O910 C917 1.266 . S
H911 C913 0.959 . S
H912 C913 0.961 . S
C913 C903 1.510 . S
C913 H911 0.959 . S
C913 H912 0.961 . S
C913 H914 0.960 . S
H914 C913 0.960 . S
H915 N895 0.862 . S
O916 Co884 1.920 . S
O916 C889 1.289 . S
C917 O909 1.258 . S
C917 O910 1.266 . S
Co918 O921 1.970 . S
Co918 N935 1.989 . S
Co918 O943 1.967 . S
Co918 O950 1.920 . S
Co919 O922 1.966 . S
Co919 N928 2.022 . S
Co919 N936 1.993 . S
Co919 O944 1.941 . S
C920 O921 1.258 . S
C920 O922 1.263 . S
O921 Co918 1.970 . S
O921 C920 1.258 . S
O922 Co919 1.966 . S
O922 C920 1.263 . S
C923 O924 1.235 . S
C923 O950 1.289 . S
O924 C923 1.235 . S
C925 C927 1.400 . S
C925 N928 1.351 . S
C925 C930 1.501 . S
C926 C927 1.387 . S
C926 N929 1.341 . S
C927 C925 1.400 . S
C927 C926 1.387 . S
N928 Co919 2.022 . S
N928 C925 1.351 . S
N928 N929 1.365 . S
N929 C926 1.341 . S
N929 N928 1.365 . S
N929 H949 0.862 . S
C930 C925 1.501 . S
C930 H931 0.961 . S
C930 H932 0.961 . S
C930 H933 0.960 . S
H931 C930 0.961 . S
H932 C930 0.961 . S
H933 C930 0.960 . S
C934 N935 1.342 . S
C934 C938 1.401 . S
C934 C939 1.499 . S
N935 Co918 1.989 . S
N935 C934 1.342 . S
N935 N936 1.388 . S
N936 Co919 1.993 . S
N936 N935 1.388 . S
N936 C937 1.346 . S
C937 N936 1.346 . S
C937 C938 1.396 . S
C937 C947 1.510 . S
C938 C934 1.401 . S
C938 C937 1.396 . S
C939 C934 1.499 . S
C939 H940 0.959 . S
C939 H941 0.960 . S
C939 H942 0.961 . S
H940 C939 0.959 . S
H941 C939 0.960 . S
H942 C939 0.961 . S
O943 Co918 1.967 . S
O943 C951 1.258 . S
O944 Co919 1.941 . S
O944 C951 1.266 . S
H945 C947 0.959 . S
H946 C947 0.961 . S
C947 C937 1.510 . S
C947 H945 0.959 . S
C947 H946 0.961 . S
C947 H948 0.960 . S
H948 C947 0.960 . S
H949 N929 0.862 . S
O950 Co918 1.920 . S
O950 C923 1.289 . S
C951 O943 1.258 . S
C951 O944 1.266 . S
Co952 O955 1.970 . S
Co952 N969 1.989 . S
Co952 O977 1.967 . S
Co952 O984 1.920 . S
Co953 O956 1.966 . S
Co953 N962 2.022 . S
Co953 N970 1.993 . S
Co953 O978 1.941 . S
C954 O955 1.258 . S
C954 O956 1.263 . S
O955 Co952 1.970 . S
O955 C954 1.258 . S
O956 Co953 1.966 . S
O956 C954 1.263 . S
C957 O958 1.235 . S
C957 O984 1.289 . S
O958 C957 1.235 . S
C959 C961 1.400 . S
C959 N962 1.351 . S
C959 C964 1.501 . S
C960 C961 1.387 . S
C960 N963 1.341 . S
C961 C959 1.400 . S
C961 C960 1.387 . S
N962 Co953 2.022 . S
N962 C959 1.351 . S
N962 N963 1.365 . S
N963 C960 1.341 . S
N963 N962 1.365 . S
N963 H983 0.862 . S
C964 C959 1.501 . S
C964 H965 0.961 . S
C964 H966 0.961 . S
C964 H967 0.960 . S
H965 C964 0.961 . S
H966 C964 0.961 . S
H967 C964 0.960 . S
C968 N969 1.342 . S
C968 C972 1.401 . S
C968 C973 1.499 . S
N969 Co952 1.989 . S
N969 C968 1.342 . S
N969 N970 1.388 . S
N970 Co953 1.993 . S
N970 N969 1.388 . S
N970 C971 1.346 . S
C971 N970 1.346 . S
C971 C972 1.396 . S
C971 C981 1.510 . S
C972 C968 1.401 . S
C972 C971 1.396 . S
C973 C968 1.499 . S
C973 H974 0.959 . S
C973 H975 0.960 . S
C973 H976 0.961 . S
H974 C973 0.959 . S
H975 C973 0.960 . S
H976 C973 0.961 . S
O977 Co952 1.967 . S
O977 C985 1.258 . S
O978 Co953 1.941 . S
O978 C985 1.266 . S
H979 C981 0.959 . S
H980 C981 0.961 . S
C981 C971 1.510 . S
C981 H979 0.959 . S
C981 H980 0.961 . S
C981 H982 0.960 . S
H982 C981 0.960 . S
H983 N963 0.862 . S
O984 Co952 1.920 . S
O984 C957 1.289 . S
C985 O977 1.258 . S
C985 O978 1.266 . S
Co986 O989 1.970 . S
Co986 N1003 1.989 . S
Co986 O1011 1.967 . S
Co986 O1018 1.920 . S
Co987 O990 1.966 . S
Co987 N996 2.022 . S
Co987 N1004 1.993 . S
Co987 O1012 1.941 1_556 S
C988 O989 1.258 1_556 S
C988 O990 1.263 . S
O989 Co986 1.970 . S
O989 C988 1.258 1_554 S
O990 Co987 1.966 . S
O990 C988 1.263 . S
C991 O992 1.235 . S
C991 O1018 1.289 . S
O992 C991 1.235 . S
C993 C995 1.400 . S
C993 N996 1.351 . S
C993 C998 1.501 . S
C994 C995 1.387 . S
C994 N997 1.341 . S
C995 C993 1.400 . S
C995 C994 1.387 . S
N996 Co987 2.022 . S
N996 C993 1.351 . S
N996 N997 1.365 . S
N997 C994 1.341 . S
N997 N996 1.365 . S
N997 H1017 0.862 . S
C998 C993 1.501 . S
C998 H999 0.961 . S
C998 H1000 0.961 . S
C998 H1001 0.960 . S
H999 C998 0.961 . S
H1000 C998 0.961 . S
H1001 C998 0.960 . S
C1002 N1003 1.342 . S
C1002 C1006 1.401 1_554 S
C1002 C1007 1.499 . S
N1003 Co986 1.989 . S
N1003 C1002 1.342 . S
N1003 N1004 1.388 1_554 S
N1004 Co987 1.993 . S
N1004 N1003 1.388 1_556 S
N1004 C1005 1.346 . S
C1005 N1004 1.346 . S
C1005 C1006 1.396 . S
C1005 C1015 1.510 . S
C1006 C1002 1.401 1_556 S
C1006 C1005 1.396 . S
C1007 C1002 1.499 . S
C1007 H1008 0.959 . S
C1007 H1009 0.960 . S
C1007 H1010 0.961 . S
H1008 C1007 0.959 . S
H1009 C1007 0.960 . S
H1010 C1007 0.961 . S
O1011 Co986 1.967 . S
O1011 C1019 1.258 . S
O1012 Co987 1.941 1_554 S
O1012 C1019 1.266 . S
H1013 C1015 0.959 . S
H1014 C1015 0.961 . S
C1015 C1005 1.510 . S
C1015 H1013 0.959 . S
C1015 H1014 0.961 . S
C1015 H1016 0.960 . S
H1016 C1015 0.960 . S
H1017 N997 0.862 . S
O1018 Co986 1.920 . S
O1018 C991 1.289 . S
C1019 O1011 1.258 . S
C1019 O1012 1.266 . S
Co1020 O1023 1.970 . S
Co1020 N1037 1.989 . S
Co1020 O1045 1.967 . S
Co1020 O1052 1.920 . S
Co1021 O1024 1.966 . S
Co1021 N1030 2.022 . S
Co1021 N1038 1.993 . S
Co1021 O1046 1.941 . S
C1022 O1023 1.258 . S
C1022 O1024 1.263 . S
O1023 Co1020 1.970 . S
O1023 C1022 1.258 . S
O1024 Co1021 1.966 . S
O1024 C1022 1.263 . S
C1025 O1026 1.235 . S
C1025 O1052 1.289 . S
O1026 C1025 1.235 . S
C1027 C1029 1.400 . S
C1027 N1030 1.351 . S
C1027 C1032 1.501 . S
C1028 C1029 1.387 . S
C1028 N1031 1.341 . S
C1029 C1027 1.400 . S
C1029 C1028 1.387 . S
N1030 Co1021 2.022 . S
N1030 C1027 1.351 . S
N1030 N1031 1.365 . S
N1031 C1028 1.341 . S
N1031 N1030 1.365 . S
N1031 H1051 0.862 . S
C1032 C1027 1.501 . S
C1032 H1033 0.961 . S
C1032 H1034 0.961 . S
C1032 H1035 0.960 . S
H1033 C1032 0.961 . S
H1034 C1032 0.961 . S
H1035 C1032 0.960 . S
C1036 N1037 1.342 . S
C1036 C1040 1.401 . S
C1036 C1041 1.499 . S
N1037 Co1020 1.989 . S
N1037 C1036 1.342 . S
N1037 N1038 1.388 . S
N1038 Co1021 1.993 . S
N1038 N1037 1.388 . S
N1038 C1039 1.346 . S
C1039 N1038 1.346 . S
C1039 C1040 1.396 . S
C1039 C1049 1.510 . S
C1040 C1036 1.401 . S
C1040 C1039 1.396 . S
C1041 C1036 1.499 . S
C1041 H1042 0.959 . S
C1041 H1043 0.960 . S
C1041 H1044 0.961 . S
H1042 C1041 0.959 . S
H1043 C1041 0.960 . S
H1044 C1041 0.961 . S
O1045 Co1020 1.967 . S
O1045 C1053 1.258 . S
O1046 Co1021 1.941 . S
O1046 C1053 1.266 . S
H1047 C1049 0.959 . S
H1048 C1049 0.961 . S
C1049 C1039 1.510 . S
C1049 H1047 0.959 . S
C1049 H1048 0.961 . S
C1049 H1050 0.960 . S
H1050 C1049 0.960 . S
H1051 N1031 0.862 . S
O1052 Co1020 1.920 . S
O1052 C1025 1.289 . S
C1053 O1045 1.258 . S
C1053 O1046 1.266 . S
Co1054 O1057 1.970 . S
Co1054 N1071 1.989 . S
Co1054 O1079 1.967 . S
Co1054 O1086 1.920 . S
Co1055 O1058 1.966 . S
Co1055 N1064 2.022 . S
Co1055 N1072 1.993 . S
Co1055 O1080 1.941 . S
C1056 O1057 1.258 . S
C1056 O1058 1.263 . S
O1057 Co1054 1.970 . S
O1057 C1056 1.258 . S
O1058 Co1055 1.966 . S
O1058 C1056 1.263 . S
C1059 O1060 1.235 . S
C1059 O1086 1.289 . S
O1060 C1059 1.235 . S
C1061 C1063 1.400 . S
C1061 N1064 1.351 . S
C1061 C1066 1.501 . S
C1062 C1063 1.387 . S
C1062 N1065 1.341 . S
C1063 C1061 1.400 . S
C1063 C1062 1.387 . S
N1064 Co1055 2.022 . S
N1064 C1061 1.351 . S
N1064 N1065 1.365 . S
N1065 C1062 1.341 . S
N1065 N1064 1.365 . S
N1065 H1085 0.862 . S
C1066 C1061 1.501 . S
C1066 H1067 0.961 . S
C1066 H1068 0.961 . S
C1066 H1069 0.960 . S
H1067 C1066 0.961 . S
H1068 C1066 0.961 . S
H1069 C1066 0.960 . S
C1070 N1071 1.342 . S
C1070 C1074 1.401 . S
C1070 C1075 1.499 . S
N1071 Co1054 1.989 . S
N1071 C1070 1.342 . S
N1071 N1072 1.388 . S
N1072 Co1055 1.993 . S
N1072 N1071 1.388 . S
N1072 C1073 1.346 . S
C1073 N1072 1.346 . S
C1073 C1074 1.396 . S
C1073 C1083 1.510 . S
C1074 C1070 1.401 . S
C1074 C1073 1.396 . S
C1075 C1070 1.499 . S
C1075 H1076 0.959 . S
C1075 H1077 0.960 . S
C1075 H1078 0.961 . S
H1076 C1075 0.959 . S
H1077 C1075 0.960 . S
H1078 C1075 0.961 . S
O1079 Co1054 1.967 . S
O1079 C1087 1.258 . S
O1080 Co1055 1.941 . S
O1080 C1087 1.266 . S
H1081 C1083 0.959 . S
H1082 C1083 0.961 . S
C1083 C1073 1.510 . S
C1083 H1081 0.959 . S
C1083 H1082 0.961 . S
C1083 H1084 0.960 . S
H1084 C1083 0.960 . S
H1085 N1065 0.862 . S
O1086 Co1054 1.920 . S
O1086 C1059 1.289 . S
C1087 O1079 1.258 . S
C1087 O1080 1.266 . S
H1088 C1094 0.930 . S
H1089 C1098 0.930 . S
H1090 C1103 0.929 . S
H1091 C1101 0.929 . S
H1092 C1096 0.929 . S
H1093 C1102 0.929 . S
C1094 H1088 0.930 . S
C1094 C1095 1.367 . S
C1094 C1102 1.378 . S
C1095 C1094 1.367 . S
C1095 C1103 1.433 . S
C1096 H1092 0.929 . S
C1096 C1098 1.378 . S
C1096 C1100 1.350 . S
C1097 C1100 1.463 . S
C1097 C1102 1.350 . S
C1097 N1105 1.427 . S
C1098 H1089 0.930 . S
C1098 C1096 1.378 . S
C1098 C1099 1.367 . S
C1099 C1098 1.367 . S
C1099 C1101 1.433 . S
C1100 C1096 1.350 . S
C1100 C1097 1.463 . S
C1100 N1104 1.427 . S
C1101 H1091 0.929 . S
C1101 C1099 1.433 . S
C1101 N1104 1.384 . S
C1102 H1093 0.929 . S
C1102 C1094 1.378 . S
C1102 C1097 1.350 . S
C1103 H1090 0.929 . S
C1103 C1095 1.433 . S
C1103 N1105 1.384 . S
N1104 C1100 1.427 . S
N1104 C1101 1.384 . S
N1105 C1097 1.427 . S
N1105 C1103 1.384 . S
H1106 C1112 0.930 . S
H1107 C1116 0.930 . S
H1108 C1121 0.929 . S
H1109 C1119 0.929 . S
H1110 C1114 0.929 1_455 S
H1111 C1120 0.929 1_655 S
C1112 H1106 0.930 . S
C1112 C1113 1.367 . S
C1112 C1120 1.378 . S
C1113 C1112 1.367 . S
C1113 C1121 1.433 . S
C1114 H1110 0.929 1_655 S
C1114 C1116 1.378 . S
C1114 C1118 1.350 . S
C1115 C1118 1.463 1_465 S
C1115 C1120 1.350 . S
C1115 N1123 1.427 . S
C1116 H1107 0.930 . S
C1116 C1114 1.378 . S
C1116 C1117 1.367 . S
C1117 C1116 1.367 . S
C1117 C1119 1.433 . S
C1118 C1114 1.350 . S
C1118 C1115 1.463 1_645 S
C1118 N1122 1.427 . S
C1119 H1109 0.929 . S
C1119 C1117 1.433 . S
C1119 N1122 1.384 . S
C1120 H1111 0.929 1_455 S
C1120 C1112 1.378 . S
C1120 C1115 1.350 . S
C1121 H1108 0.929 . S
C1121 C1113 1.433 . S
C1121 N1123 1.384 . S
N1122 C1118 1.427 . S
N1122 C1119 1.384 . S
N1123 C1115 1.427 . S
N1123 C1121 1.384 . S
H1124 C1130 0.930 . S
H1125 C1134 0.930 . S
H1126 C1139 0.929 . S
H1127 C1137 0.929 . S
H1128 C1132 0.929 . S
H1129 C1138 0.929 . S
C1130 H1124 0.930 . S
C1130 C1131 1.367 . S
C1130 C1138 1.378 . S
C1131 C1130 1.367 . S
C1131 C1139 1.433 . S
C1132 H1128 0.929 . S
C1132 C1134 1.378 . S
C1132 C1136 1.350 . S
C1133 C1136 1.463 . S
C1133 C1138 1.350 . S
C1133 N1141 1.427 . S
C1134 H1125 0.930 . S
C1134 C1132 1.378 . S
C1134 C1135 1.367 . S
C1135 C1134 1.367 . S
C1135 C1137 1.433 . S
C1136 C1132 1.350 . S
C1136 C1133 1.463 . S
C1136 N1140 1.427 . S
C1137 H1127 0.929 . S
C1137 C1135 1.433 . S
C1137 N1140 1.384 . S
C1138 H1129 0.929 . S
C1138 C1130 1.378 . S
C1138 C1133 1.350 . S
C1139 H1126 0.929 . S
C1139 C1131 1.433 . S
C1139 N1141 1.384 . S
N1140 C1136 1.427 . S
N1140 C1137 1.384 . S
N1141 C1133 1.427 . S
N1141 C1139 1.384 . S
H1142 C1148 0.930 . S
H1143 C1152 0.930 . S
H1144 C1157 0.929 . S
H1145 C1155 0.929 . S
H1146 C1150 0.929 1_545 S
H1147 C1156 0.929 1_565 S
C1148 H1142 0.930 . S
C1148 C1149 1.367 1_554 S
C1148 C1156 1.378 . S
C1149 C1148 1.367 1_556 S
C1149 C1157 1.433 . S
C1150 H1146 0.929 1_565 S
C1150 C1152 1.378 . S
C1150 C1154 1.337 1_556 S
C1151 C1154 1.462 1_546 S
C1151 C1156 1.340 1_556 S
C1151 N1159 1.439 . S
C1152 H1143 0.930 . S
C1152 C1150 1.378 . S
C1152 C1153 1.367 1_556 S
C1153 C1152 1.367 1_554 S
C1153 C1155 1.433 . S
C1154 C1150 1.337 1_554 S
C1154 C1151 1.462 1_564 S
C1154 N1158 1.442 . S
C1155 H1145 0.929 . S
C1155 C1153 1.433 . S
C1155 N1158 1.384 . S
C1156 H1147 0.929 1_545 S
C1156 C1148 1.378 . S
C1156 C1151 1.340 1_554 S
C1157 H1144 0.929 . S
C1157 C1149 1.433 . S
C1157 N1159 1.384 . S
N1158 C1154 1.442 . S
N1158 C1155 1.384 . S
N1159 C1151 1.439 . S
N1159 C1157 1.384 . S
H1160 C1166 0.930 . S
H1161 C1170 0.930 . S
H1162 C1175 0.929 . S
H1163 C1173 0.929 . S
H1164 C1168 0.929 . S
H1165 C1174 0.929 . S
C1166 H1160 0.930 . S
C1166 C1167 1.367 . S
C1166 C1174 1.378 . S
C1167 C1166 1.367 . S
C1167 C1175 1.433 . S
C1168 H1164 0.929 . S
C1168 C1170 1.378 . S
C1168 C1172 1.350 . S
C1169 C1172 1.463 . S
C1169 C1174 1.350 . S
C1169 N1177 1.427 . S
C1170 H1161 0.930 . S
C1170 C1168 1.378 . S
C1170 C1171 1.367 . S
C1171 C1170 1.367 . S
C1171 C1173 1.433 . S
C1172 C1168 1.350 . S
C1172 C1169 1.463 . S
C1172 N1176 1.427 . S
C1173 H1163 0.929 . S
C1173 C1171 1.433 . S
C1173 N1176 1.384 . S
C1174 H1165 0.929 . S
C1174 C1166 1.378 . S
C1174 C1169 1.350 . S
C1175 H1162 0.929 . S
C1175 C1167 1.433 . S
C1175 N1177 1.384 . S
N1176 C1172 1.427 . S
N1176 C1173 1.384 . S
N1177 C1169 1.427 . S
N1177 C1175 1.384 . S
H1178 C1184 0.930 . S
H1179 C1188 0.930 . S
H1180 C1193 0.929 . S
H1181 C1191 0.929 . S
H1182 C1186 0.929 . S
H1183 C1192 0.929 . S
C1184 H1178 0.930 . S
C1184 C1185 1.367 . S
C1184 C1192 1.378 . S
C1185 C1184 1.367 . S
C1185 C1193 1.433 . S
C1186 H1182 0.929 . S
C1186 C1188 1.378 . S
C1186 C1190 1.350 . S
C1187 C1190 1.463 1_565 S
C1187 C1192 1.350 . S
C1187 N1195 1.427 . S
C1188 H1179 0.930 . S
C1188 C1186 1.378 . S
C1188 C1189 1.367 . S
C1189 C1188 1.367 . S
C1189 C1191 1.433 . S
C1190 C1186 1.350 . S
C1190 C1187 1.463 1_545 S
C1190 N1194 1.427 . S
C1191 H1181 0.929 . S
C1191 C1189 1.433 . S
C1191 N1194 1.384 . S
C1192 H1183 0.929 . S
C1192 C1184 1.378 . S
C1192 C1187 1.350 . S
C1193 H1180 0.929 . S
C1193 C1185 1.433 . S
C1193 N1195 1.384 . S
N1194 C1190 1.427 . S
N1194 C1191 1.384 . S
N1195 C1187 1.427 . S
N1195 C1193 1.384 . S
H1196 C1202 0.930 . S
H1197 C1206 0.930 . S
H1198 C1211 0.929 . S
H1199 C1209 0.929 . S
H1200 C1204 0.929 . S
H1201 C1210 0.929 . S
C1202 H1196 0.930 . S
C1202 C1203 1.367 . S
C1202 C1210 1.378 . S
C1203 C1202 1.367 . S
C1203 C1211 1.433 . S
C1204 H1200 0.929 . S
C1204 C1206 1.378 . S
C1204 C1208 1.350 . S
C1205 C1208 1.463 . S
C1205 C1210 1.350 . S
C1205 N1213 1.427 . S
C1206 H1197 0.930 . S
C1206 C1204 1.378 . S
C1206 C1207 1.367 . S
C1207 C1206 1.367 . S
C1207 C1209 1.433 . S
C1208 C1204 1.350 . S
C1208 C1205 1.463 . S
C1208 N1212 1.427 . S
C1209 H1199 0.929 . S
C1209 C1207 1.433 . S
C1209 N1212 1.384 . S
C1210 H1201 0.929 . S
C1210 C1202 1.378 . S
C1210 C1205 1.350 . S
C1211 H1198 0.929 . S
C1211 C1203 1.433 . S
C1211 N1213 1.384 . S
N1212 C1208 1.427 . S
N1212 C1209 1.384 . S
N1213 C1205 1.427 . S
N1213 C1211 1.384 . S
H1214 C1220 0.930 . S
H1215 C1224 0.930 . S
H1216 C1229 0.929 . S
H1217 C1227 0.929 . S
H1218 C1222 0.929 1_455 S
H1219 C1228 0.929 1_655 S
C1220 H1214 0.930 . S
C1220 C1221 1.367 . S
C1220 C1228 1.378 . S
C1221 C1220 1.367 . S
C1221 C1229 1.433 1_554 S
C1222 H1218 0.929 1_655 S
C1222 C1224 1.378 . S
C1222 C1226 1.350 . S
C1223 C1226 1.463 1_444 S
C1223 C1228 1.350 . S
C1223 N1231 1.427 1_554 S
C1224 H1215 0.930 . S
C1224 C1222 1.378 . S
C1224 C1225 1.367 . S
C1225 C1224 1.367 . S
C1225 C1227 1.433 1_556 S
C1226 C1222 1.350 . S
C1226 C1223 1.463 1_666 S
C1226 N1230 1.427 1_556 S
C1227 H1217 0.929 . S
C1227 C1225 1.433 1_554 S
C1227 N1230 1.384 . S
C1228 H1219 0.929 1_455 S
C1228 C1220 1.378 . S
C1228 C1223 1.350 . S
C1229 H1216 0.929 . S
C1229 C1221 1.433 1_556 S
C1229 N1231 1.384 . S
N1230 C1226 1.427 1_554 S
N1230 C1227 1.384 . S
N1231 C1223 1.427 1_556 S
N1231 C1229 1.384 . S
H1232 C1238 0.930 . S
H1233 C1242 0.930 . S
H1234 C1247 0.929 . S
H1235 C1245 0.929 . S
H1236 C1240 0.929 . S
H1237 C1246 0.929 . S
C1238 H1232 0.930 . S
C1238 C1239 1.367 . S
C1238 C1246 1.378 . S
C1239 C1238 1.367 . S
C1239 C1247 1.433 . S
C1240 H1236 0.929 . S
C1240 C1242 1.378 . S
C1240 C1244 1.350 . S
C1241 C1244 1.463 . S
C1241 C1246 1.350 . S
C1241 N1249 1.427 . S
C1242 H1233 0.930 . S
C1242 C1240 1.378 . S
C1242 C1243 1.367 . S
C1243 C1242 1.367 . S
C1243 C1245 1.433 . S
C1244 C1240 1.350 . S
C1244 C1241 1.463 . S
C1244 N1248 1.427 . S
C1245 H1235 0.929 . S
C1245 C1243 1.433 . S
C1245 N1248 1.384 . S
C1246 H1237 0.929 . S
C1246 C1238 1.378 . S
C1246 C1241 1.350 . S
C1247 H1234 0.929 . S
C1247 C1239 1.433 . S
C1247 N1249 1.384 . S
N1248 C1244 1.427 . S
N1248 C1245 1.384 . S
N1249 C1241 1.427 . S
N1249 C1247 1.384 . S
H1250 C1256 0.930 . S
H1251 C1260 0.930 . S
H1252 C1265 0.929 . S
H1253 C1263 0.929 . S
H1254 C1258 0.929 . S
H1255 C1264 0.929 . S
C1256 H1250 0.930 . S
C1256 C1257 1.367 . S
C1256 C1264 1.378 . S
C1257 C1256 1.367 . S
C1257 C1265 1.433 . S
C1258 H1254 0.929 . S
C1258 C1260 1.378 . S
C1258 C1262 1.350 . S
C1259 C1262 1.463 . S
C1259 C1264 1.350 . S
C1259 N1267 1.427 . S
C1260 H1251 0.930 . S
C1260 C1258 1.378 . S
C1260 C1261 1.367 . S
C1261 C1260 1.367 . S
C1261 C1263 1.433 . S
C1262 C1258 1.350 . S
C1262 C1259 1.463 . S
C1262 N1266 1.427 . S
C1263 H1253 0.929 . S
C1263 C1261 1.433 . S
C1263 N1266 1.384 . S
C1264 H1255 0.929 . S
C1264 C1256 1.378 . S
C1264 C1259 1.350 . S
C1265 H1252 0.929 . S
C1265 C1257 1.433 . S
C1265 N1267 1.384 . S
N1266 C1262 1.427 . S
N1266 C1263 1.384 . S
N1267 C1259 1.427 . S
N1267 C1265 1.384 . S
H1268 C1274 0.930 . S
H1269 C1278 0.930 . S
H1270 C1283 0.929 . S
H1271 C1281 0.929 . S
H1272 C1276 0.929 . S
H1273 C1282 0.929 . S
C1274 H1268 0.930 . S
C1274 C1275 1.367 . S
C1274 C1282 1.378 . S
C1275 C1274 1.367 . S
C1275 C1283 1.433 . S
C1276 H1272 0.929 . S
C1276 C1278 1.378 . S
C1276 C1280 1.350 . S
C1277 C1280 1.463 . S
C1277 C1282 1.350 . S
C1277 N1285 1.427 . S
C1278 H1269 0.930 . S
C1278 C1276 1.378 . S
C1278 C1279 1.367 . S
C1279 C1278 1.367 . S
C1279 C1281 1.433 . S
C1280 C1276 1.350 . S
C1280 C1277 1.463 . S
C1280 N1284 1.427 . S
C1281 H1271 0.929 . S
C1281 C1279 1.433 . S
C1281 N1284 1.384 . S
C1282 H1273 0.929 . S
C1282 C1274 1.378 . S
C1282 C1277 1.350 . S
C1283 H1270 0.929 . S
C1283 C1275 1.433 . S
C1283 N1285 1.384 . S
N1284 C1280 1.427 . S
N1284 C1281 1.384 . S
N1285 C1277 1.427 . S
N1285 C1283 1.384 . S
H1286 C1292 0.930 . S
H1287 C1296 0.930 . S
H1288 C1301 0.929 . S
H1289 C1299 0.929 . S
H1290 C1294 0.929 . S
H1291 C1300 0.929 . S
C1292 H1286 0.930 . S
C1292 C1293 1.367 . S
C1292 C1300 1.378 . S
C1293 C1292 1.367 . S
C1293 C1301 1.433 . S
C1294 H1290 0.929 . S
C1294 C1296 1.378 . S
C1294 C1298 1.350 . S
C1295 C1298 1.463 . S
C1295 C1300 1.350 . S
C1295 N1303 1.427 . S
C1296 H1287 0.930 . S
C1296 C1294 1.378 . S
C1296 C1297 1.367 . S
C1297 C1296 1.367 . S
C1297 C1299 1.433 . S
C1298 C1294 1.350 . S
C1298 C1295 1.463 . S
C1298 N1302 1.427 . S
C1299 H1289 0.929 . S
C1299 C1297 1.433 . S
C1299 N1302 1.384 . S
C1300 H1291 0.929 . S
C1300 C1292 1.378 . S
C1300 C1295 1.350 . S
C1301 H1288 0.929 . S
C1301 C1293 1.433 . S
C1301 N1303 1.384 . S
N1302 C1298 1.427 . S
N1302 C1299 1.384 . S
N1303 C1295 1.427 . S
N1303 C1301 1.384 . S
H1304 C1310 0.930 . S
H1305 C1314 0.930 . S
H1306 C1319 0.929 . S
H1307 C1317 0.929 . S
H1308 C1312 0.929 . S
H1309 C1318 0.929 . S
C1310 H1304 0.930 . S
C1310 C1311 1.367 . S
C1310 C1318 1.378 . S
C1311 C1310 1.367 . S
C1311 C1319 1.433 1_556 S
C1312 H1308 0.929 . S
C1312 C1314 1.378 . S
C1312 C1316 1.350 . S
C1313 C1316 1.463 1_556 S
C1313 C1318 1.350 . S
C1313 N1321 1.427 1_556 S
C1314 H1305 0.930 . S
C1314 C1312 1.378 . S
C1314 C1315 1.367 . S
C1315 C1314 1.367 . S
C1315 C1317 1.433 1_554 S
C1316 C1312 1.350 . S
C1316 C1313 1.463 1_554 S
C1316 N1320 1.427 1_554 S
C1317 H1307 0.929 . S
C1317 C1315 1.433 1_556 S
C1317 N1320 1.384 . S
C1318 H1309 0.929 . S
C1318 C1310 1.378 . S
C1318 C1313 1.350 . S
C1319 H1306 0.929 . S
C1319 C1311 1.433 1_554 S
C1319 N1321 1.384 . S
N1320 C1316 1.427 1_556 S
N1320 C1317 1.384 . S
N1321 C1313 1.427 1_554 S
N1321 C1319 1.384 . S
H1322 C1328 0.930 . S
H1323 C1332 0.930 . S
H1324 C1337 0.929 . S
H1325 C1335 0.929 . S
H1326 C1330 0.929 . S
H1327 C1336 0.929 . S
C1328 H1322 0.930 . S
C1328 C1329 1.367 . S
C1328 C1336 1.378 . S
C1329 C1328 1.367 . S
C1329 C1337 1.433 . S
C1330 H1326 0.929 . S
C1330 C1332 1.378 . S
C1330 C1334 1.350 . S
C1331 C1334 1.463 1_655 S
C1331 C1336 1.350 . S
C1331 N1339 1.427 . S
C1332 H1323 0.930 . S
C1332 C1330 1.378 . S
C1332 C1333 1.367 . S
C1333 C1332 1.367 . S
C1333 C1335 1.433 . S
C1334 C1330 1.350 . S
C1334 C1331 1.463 1_455 S
C1334 N1338 1.427 . S
C1335 H1325 0.929 . S
C1335 C1333 1.433 . S
C1335 N1338 1.384 . S
C1336 H1327 0.929 . S
C1336 C1328 1.378 . S
C1336 C1331 1.350 . S
C1337 H1324 0.929 . S
C1337 C1329 1.433 . S
C1337 N1339 1.384 . S
N1338 C1334 1.427 . S
N1338 C1335 1.384 . S
N1339 C1331 1.427 . S
N1339 C1337 1.384 . S
H1340 C1346 0.930 . S
H1341 C1350 0.930 . S
H1342 C1355 0.929 . S
H1343 C1353 0.929 . S
H1344 C1348 0.929 . S
H1345 C1354 0.929 . S
C1346 H1340 0.930 . S
C1346 C1347 1.367 1_556 S
C1346 C1354 1.378 . S
C1347 C1346 1.367 1_554 S
C1347 C1355 1.433 . S
C1348 H1344 0.929 . S
C1348 C1350 1.378 . S
C1348 C1352 1.350 1_554 S
C1349 C1352 1.463 1_654 S
C1349 C1354 1.350 1_554 S
C1349 N1357 1.427 . S
C1350 H1341 0.930 . S
C1350 C1348 1.378 . S
C1350 C1351 1.367 1_554 S
C1351 C1350 1.367 1_556 S
C1351 C1353 1.433 . S
C1352 C1348 1.350 1_556 S
C1352 C1349 1.463 1_456 S
C1352 N1356 1.427 . S
C1353 H1343 0.929 . S
C1353 C1351 1.433 . S
C1353 N1356 1.384 . S
C1354 H1345 0.929 . S
C1354 C1346 1.378 . S
C1354 C1349 1.350 1_556 S
C1355 H1342 0.929 . S
C1355 C1347 1.433 . S
C1355 N1357 1.384 . S
N1356 C1352 1.427 . S
N1356 C1353 1.384 . S
N1357 C1349 1.427 . S
N1357 C1355 1.384 . S
H1358 C1364 0.930 . S
H1359 C1368 0.930 . S
H1360 C1373 0.929 . S
H1361 C1371 0.929 . S
H1362 C1366 0.929 . S
H1363 C1372 0.929 . S
C1364 H1358 0.930 . S
C1364 C1365 1.367 . S
C1364 C1372 1.378 . S
C1365 C1364 1.367 . S
C1365 C1373 1.433 . S
C1366 H1362 0.929 . S
C1366 C1368 1.378 . S
C1366 C1370 1.350 . S
C1367 C1370 1.463 . S
C1367 C1372 1.350 . S
C1367 N1375 1.427 . S
C1368 H1359 0.930 . S
C1368 C1366 1.378 . S
C1368 C1369 1.367 . S
C1369 C1368 1.367 . S
C1369 C1371 1.433 . S
C1370 C1366 1.350 . S
C1370 C1367 1.463 . S
C1370 N1374 1.427 . S
C1371 H1361 0.929 . S
C1371 C1369 1.433 . S
C1371 N1374 1.384 . S
C1372 H1363 0.929 . S
C1372 C1364 1.378 . S
C1372 C1367 1.350 . S
C1373 H1360 0.929 . S
C1373 C1365 1.433 . S
C1373 N1375 1.384 . S
N1374 C1370 1.427 . S
N1374 C1371 1.384 . S
N1375 C1367 1.427 . S
N1375 C1373 1.384 . S
H1376 C1382 0.930 . S
H1377 C1386 0.930 . S
H1378 C1391 0.929 . S
H1379 C1389 0.929 1_556 S
H1380 C1384 0.929 . S
H1381 C1390 0.929 . S
C1382 H1376 0.930 . S
C1382 C1383 1.367 . S
C1382 C1390 1.378 . S
C1383 C1382 1.367 . S
C1383 C1391 1.433 . S
C1384 H1380 0.929 . S
C1384 C1386 1.378 . S
C1384 C1388 1.350 . S
C1385 C1388 1.463 . S
C1385 C1390 1.350 . S
C1385 N1393 1.427 . S
C1386 H1377 0.930 . S
C1386 C1384 1.378 . S
C1386 C1387 1.367 . S
C1387 C1386 1.367 . S
C1387 C1389 1.433 . S
C1388 C1384 1.350 . S
C1388 C1385 1.463 . S
C1388 N1392 1.427 . S
C1389 H1379 0.929 1_554 S
C1389 C1387 1.433 . S
C1389 N1392 1.384 . S
C1390 H1381 0.929 . S
C1390 C1382 1.378 . S
C1390 C1385 1.350 . S
C1391 H1378 0.929 . S
C1391 C1383 1.433 . S
C1391 N1393 1.384 . S
N1392 C1388 1.427 . S
N1392 C1389 1.384 . S
N1393 C1385 1.427 . S
N1393 C1391 1.384 . S
H1394 C1400 0.930 . S
H1395 C1404 0.930 . S
H1396 C1409 0.929 . S
H1397 C1407 0.929 . S
H1398 C1402 0.929 . S
H1399 C1408 0.929 . S
C1400 H1394 0.930 . S
C1400 C1401 1.367 . S
C1400 C1408 1.378 . S
C1401 C1400 1.367 . S
C1401 C1409 1.433 . S
C1402 H1398 0.929 . S
C1402 C1404 1.378 . S
C1402 C1406 1.350 . S
C1403 C1406 1.463 . S
C1403 C1408 1.350 . S
C1403 N1411 1.427 . S
C1404 H1395 0.930 . S
C1404 C1402 1.378 . S
C1404 C1405 1.367 . S
C1405 C1404 1.367 . S
C1405 C1407 1.433 . S
C1406 C1402 1.350 . S
C1406 C1403 1.463 . S
C1406 N1410 1.427 . S
C1407 H1397 0.929 . S
C1407 C1405 1.433 . S
C1407 N1410 1.384 . S
C1408 H1399 0.929 . S
C1408 C1400 1.378 . S
C1408 C1403 1.350 . S
C1409 H1396 0.929 . S
C1409 C1401 1.433 . S
C1409 N1411 1.384 . S
N1410 C1406 1.427 . S
N1410 C1407 1.384 . S
N1411 C1403 1.427 . S
N1411 C1409 1.384 . S
H1412 C1418 0.930 . S
H1413 C1422 0.930 . S
H1414 C1427 0.929 . S
H1415 C1425 0.929 . S
H1416 C1420 0.929 . S
H1417 C1426 0.929 . S
C1418 H1412 0.930 . S
C1418 C1419 1.367 . S
C1418 C1426 1.378 . S
C1419 C1418 1.367 . S
C1419 C1427 1.433 . S
C1420 H1416 0.929 . S
C1420 C1422 1.378 . S
C1420 C1424 1.350 . S
C1421 C1424 1.463 . S
C1421 C1426 1.350 . S
C1421 N1429 1.427 . S
C1422 H1413 0.930 . S
C1422 C1420 1.378 . S
C1422 C1423 1.367 . S
C1423 C1422 1.367 . S
C1423 C1425 1.433 . S
C1424 C1420 1.350 . S
C1424 C1421 1.463 . S
C1424 N1428 1.427 . S
C1425 H1415 0.929 . S
C1425 C1423 1.433 . S
C1425 N1428 1.384 . S
C1426 H1417 0.929 . S
C1426 C1418 1.378 . S
C1426 C1421 1.350 . S
C1427 H1414 0.929 . S
C1427 C1419 1.433 . S
C1427 N1429 1.384 . S
N1428 C1424 1.427 . S
N1428 C1425 1.384 . S
N1429 C1421 1.427 . S
N1429 C1427 1.384 . S
H1430 C1436 0.930 . S
H1431 C1440 0.930 . S
H1432 C1445 0.929 . S
H1433 C1443 0.929 1_554 S
H1434 C1438 0.929 . S
H1435 C1444 0.929 . S
C1436 H1430 0.930 . S
C1436 C1437 1.367 . S
C1436 C1444 1.378 . S
C1437 C1436 1.367 . S
C1437 C1445 1.433 . S
C1438 H1434 0.929 . S
C1438 C1440 1.378 . S
C1438 C1442 1.350 . S
C1439 C1442 1.463 . S
C1439 C1444 1.350 . S
C1439 N1447 1.427 . S
C1440 H1431 0.930 . S
C1440 C1438 1.378 . S
C1440 C1441 1.367 . S
C1441 C1440 1.367 . S
C1441 C1443 1.433 . S
C1442 C1438 1.350 . S
C1442 C1439 1.463 . S
C1442 N1446 1.427 . S
C1443 H1433 0.929 1_556 S
C1443 C1441 1.433 . S
C1443 N1446 1.384 . S
C1444 H1435 0.929 . S
C1444 C1436 1.378 . S
C1444 C1439 1.350 . S
C1445 H1432 0.929 . S
C1445 C1437 1.433 . S
C1445 N1447 1.384 . S
N1446 C1442 1.427 . S
N1446 C1443 1.384 . S
N1447 C1439 1.427 . S
N1447 C1445 1.384 . S
H1448 C1454 0.930 . S
H1449 C1458 0.930 . S
H1450 C1463 0.929 . S
H1451 C1461 0.929 1_554 S
H1452 C1456 0.929 . S
H1453 C1462 0.929 . S
C1454 H1448 0.930 . S
C1454 C1455 1.367 . S
C1454 C1462 1.378 . S
C1455 C1454 1.367 . S
C1455 C1463 1.433 . S
C1456 H1452 0.929 . S
C1456 C1458 1.378 . S
C1456 C1460 1.350 . S
C1457 C1460 1.463 . S
C1457 C1462 1.350 . S
C1457 N1465 1.427 . S
C1458 H1449 0.930 . S
C1458 C1456 1.378 . S
C1458 C1459 1.367 . S
C1459 C1458 1.367 . S
C1459 C1461 1.433 . S
C1460 C1456 1.350 . S
C1460 C1457 1.463 . S
C1460 N1464 1.427 . S
C1461 H1451 0.929 1_556 S
C1461 C1459 1.433 . S
C1461 N1464 1.384 . S
C1462 H1453 0.929 . S
C1462 C1454 1.378 . S
C1462 C1457 1.350 . S
C1463 H1450 0.929 . S
C1463 C1455 1.433 . S
C1463 N1465 1.384 . S
N1464 C1460 1.427 . S
N1464 C1461 1.384 . S
N1465 C1457 1.427 . S
N1465 C1463 1.384 . S
H1466 C1472 0.930 . S
H1467 C1476 0.930 . S
H1468 C1481 0.929 . S
H1469 C1479 0.929 . S
H1470 C1474 0.929 . S
H1471 C1480 0.929 . S
C1472 H1466 0.930 . S
C1472 C1473 1.367 . S
C1472 C1480 1.378 . S
C1473 C1472 1.367 . S
C1473 C1481 1.433 . S
C1474 H1470 0.929 . S
C1474 C1476 1.378 . S
C1474 C1478 1.350 . S
C1475 C1478 1.463 . S
C1475 C1480 1.350 . S
C1475 N1483 1.427 . S
C1476 H1467 0.930 . S
C1476 C1474 1.378 . S
C1476 C1477 1.367 . S
C1477 C1476 1.367 . S
C1477 C1479 1.433 . S
C1478 C1474 1.350 . S
C1478 C1475 1.463 . S
C1478 N1482 1.427 . S
C1479 H1469 0.929 . S
C1479 C1477 1.433 . S
C1479 N1482 1.384 . S
C1480 H1471 0.929 . S
C1480 C1472 1.378 . S
C1480 C1475 1.350 . S
C1481 H1468 0.929 . S
C1481 C1473 1.433 . S
C1481 N1483 1.384 . S
N1482 C1478 1.427 . S
N1482 C1479 1.384 . S
N1483 C1475 1.427 . S
N1483 C1481 1.384 . S
H1484 C1490 0.930 . S
H1485 C1494 0.930 . S
H1486 C1499 0.929 . S
H1487 C1497 0.929 . S
H1488 C1492 0.929 . S
H1489 C1498 0.929 . S
C1490 H1484 0.930 . S
C1490 C1491 1.367 . S
C1490 C1498 1.378 . S
C1491 C1490 1.367 . S
C1491 C1499 1.433 . S
C1492 H1488 0.929 . S
C1492 C1494 1.378 . S
C1492 C1496 1.350 . S
C1493 C1496 1.463 . S
C1493 C1498 1.350 . S
C1493 N1501 1.427 . S
C1494 H1485 0.930 . S
C1494 C1492 1.378 . S
C1494 C1495 1.367 . S
C1495 C1494 1.367 . S
C1495 C1497 1.433 . S
C1496 C1492 1.350 . S
C1496 C1493 1.463 . S
C1496 N1500 1.427 . S
C1497 H1487 0.929 . S
C1497 C1495 1.433 . S
C1497 N1500 1.384 . S
C1498 H1489 0.929 . S
C1498 C1490 1.378 . S
C1498 C1493 1.350 . S
C1499 H1486 0.929 . S
C1499 C1491 1.433 . S
C1499 N1501 1.384 . S
N1500 C1496 1.427 . S
N1500 C1497 1.384 . S
N1501 C1493 1.427 . S
N1501 C1499 1.384 . S
H1502 C1508 0.930 . S
H1503 C1512 0.930 1_556 S
H1504 C1517 0.929 . S
H1505 C1515 0.929 . S
H1506 C1510 0.929 . S
H1507 C1516 0.929 . S
C1508 H1502 0.930 . S
C1508 C1509 1.367 . S
C1508 C1516 1.378 . S
C1509 C1508 1.367 . S
C1509 C1517 1.433 . S
C1510 H1506 0.929 . S
C1510 C1512 1.378 . S
C1510 C1514 1.350 . S
C1511 C1514 1.463 . S
C1511 C1516 1.350 . S
C1511 N1519 1.427 . S
C1512 H1503 0.930 1_554 S
C1512 C1510 1.378 . S
C1512 C1513 1.367 . S
C1513 C1512 1.367 . S
C1513 C1515 1.433 . S
C1514 C1510 1.350 . S
C1514 C1511 1.463 . S
C1514 N1518 1.427 . S
C1515 H1505 0.929 . S
C1515 C1513 1.433 . S
C1515 N1518 1.384 . S
C1516 H1507 0.929 . S
C1516 C1508 1.378 . S
C1516 C1511 1.350 . S
C1517 H1504 0.929 . S
C1517 C1509 1.433 . S
C1517 N1519 1.384 . S
N1518 C1514 1.427 . S
N1518 C1515 1.384 . S
N1519 C1511 1.427 . S
N1519 C1517 1.384 . S
H1520 C1526 0.930 . S
H1521 C1530 0.930 . S
H1522 C1535 0.929 . S
H1523 C1533 0.929 . S
H1524 C1528 0.929 . S
H1525 C1534 0.929 . S
C1526 H1520 0.930 . S
C1526 C1527 1.367 . S
C1526 C1534 1.378 . S
C1527 C1526 1.367 . S
C1527 C1535 1.433 . S
C1528 H1524 0.929 . S
C1528 C1530 1.378 . S
C1528 C1532 1.350 . S
C1529 C1532 1.463 . S
C1529 C1534 1.350 . S
C1529 N1537 1.427 . S
C1530 H1521 0.930 . S
C1530 C1528 1.378 . S
C1530 C1531 1.367 . S
C1531 C1530 1.367 . S
C1531 C1533 1.433 . S
C1532 C1528 1.350 . S
C1532 C1529 1.463 . S
C1532 N1536 1.427 . S
C1533 H1523 0.929 . S
C1533 C1531 1.433 . S
C1533 N1536 1.384 . S
C1534 H1525 0.929 . S
C1534 C1526 1.378 . S
C1534 C1529 1.350 . S
C1535 H1522 0.929 . S
C1535 C1527 1.433 . S
C1535 N1537 1.384 . S
N1536 C1532 1.427 . S
N1536 C1533 1.384 . S
N1537 C1529 1.427 . S
N1537 C1535 1.384 . S
H1538 C1544 0.930 . S
H1539 C1548 0.930 . S
H1540 C1553 0.929 . S
H1541 C1551 0.929 . S
H1542 C1546 0.929 . S
H1543 C1552 0.929 . S
C1544 H1538 0.930 . S
C1544 C1545 1.367 . S
C1544 C1552 1.378 . S
C1545 C1544 1.367 . S
C1545 C1553 1.433 . S
C1546 H1542 0.929 . S
C1546 C1548 1.378 . S
C1546 C1550 1.350 . S
C1547 C1550 1.463 . S
C1547 C1552 1.350 . S
C1547 N1555 1.427 . S
C1548 H1539 0.930 . S
C1548 C1546 1.378 . S
C1548 C1549 1.367 . S
C1549 C1548 1.367 . S
C1549 C1551 1.433 . S
C1550 C1546 1.350 . S
C1550 C1547 1.463 . S
C1550 N1554 1.427 . S
C1551 H1541 0.929 . S
C1551 C1549 1.433 . S
C1551 N1554 1.384 . S
C1552 H1543 0.929 . S
C1552 C1544 1.378 . S
C1552 C1547 1.350 . S
C1553 H1540 0.929 . S
C1553 C1545 1.433 . S
C1553 N1555 1.384 . S
N1554 C1550 1.427 . S
N1554 C1551 1.384 . S
N1555 C1547 1.427 . S
N1555 C1553 1.384 . S
H1556 C1562 0.930 1_556 S
H1557 C1566 0.930 . S
H1558 C1571 0.929 . S
H1559 C1569 0.929 . S
H1560 C1564 0.929 . S
H1561 C1570 0.929 . S
C1562 H1556 0.930 1_554 S
C1562 C1563 1.367 . S
C1562 C1570 1.378 . S
C1563 C1562 1.367 . S
C1563 C1571 1.433 . S
C1564 H1560 0.929 . S
C1564 C1566 1.378 . S
C1564 C1568 1.350 . S
C1565 C1568 1.463 . S
C1565 C1570 1.350 . S
C1565 N1573 1.427 . S
C1566 H1557 0.930 . S
C1566 C1564 1.378 . S
C1566 C1567 1.367 . S
C1567 C1566 1.367 . S
C1567 C1569 1.433 . S
C1568 C1564 1.350 . S
C1568 C1565 1.463 . S
C1568 N1572 1.427 . S
C1569 H1559 0.929 . S
C1569 C1567 1.433 . S
C1569 N1572 1.384 . S
C1570 H1561 0.929 . S
C1570 C1562 1.378 . S
C1570 C1565 1.350 . S
C1571 H1558 0.929 . S
C1571 C1563 1.433 . S
C1571 N1573 1.384 . S
N1572 C1568 1.427 . S
N1572 C1569 1.384 . S
N1573 C1565 1.427 . S
N1573 C1571 1.384 . S
H1574 C1580 0.930 . S
H1575 C1584 0.930 . S
H1576 C1589 0.929 . S
H1577 C1587 0.929 . S
H1578 C1582 0.929 . S
H1579 C1588 0.929 . S
C1580 H1574 0.930 . S
C1580 C1581 1.367 . S
C1580 C1588 1.378 . S
C1581 C1580 1.367 . S
C1581 C1589 1.433 . S
C1582 H1578 0.929 . S
C1582 C1584 1.378 . S
C1582 C1586 1.350 . S
C1583 C1586 1.463 . S
C1583 C1588 1.350 . S
C1583 N1591 1.427 . S
C1584 H1575 0.930 . S
C1584 C1582 1.378 . S
C1584 C1585 1.367 . S
C1585 C1584 1.367 . S
C1585 C1587 1.433 . S
C1586 C1582 1.350 . S
C1586 C1583 1.463 . S
C1586 N1590 1.427 . S
C1587 H1577 0.929 . S
C1587 C1585 1.433 . S
C1587 N1590 1.384 . S
C1588 H1579 0.929 . S
C1588 C1580 1.378 . S
C1588 C1583 1.350 . S
C1589 H1576 0.929 . S
C1589 C1581 1.433 . S
C1589 N1591 1.384 . S
N1590 C1586 1.427 . S
N1590 C1587 1.384 . S
N1591 C1583 1.427 . S
N1591 C1589 1.384 . S
H1592 C1598 0.930 . S
H1593 C1602 0.930 . S
H1594 C1607 0.929 . S
H1595 C1605 0.929 . S
H1596 C1600 0.929 . S
H1597 C1606 0.929 . S
C1598 H1592 0.930 . S
C1598 C1599 1.367 . S
C1598 C1606 1.378 . S
C1599 C1598 1.367 . S
C1599 C1607 1.433 . S
C1600 H1596 0.929 . S
C1600 C1602 1.378 . S
C1600 C1604 1.350 . S
C1601 C1604 1.463 . S
C1601 C1606 1.350 . S
C1601 N1609 1.427 . S
C1602 H1593 0.930 . S
C1602 C1600 1.378 . S
C1602 C1603 1.367 . S
C1603 C1602 1.367 . S
C1603 C1605 1.433 . S
C1604 C1600 1.350 . S
C1604 C1601 1.463 . S
C1604 N1608 1.427 . S
C1605 H1595 0.929 . S
C1605 C1603 1.433 . S
C1605 N1608 1.384 . S
C1606 H1597 0.929 . S
C1606 C1598 1.378 . S
C1606 C1601 1.350 . S
C1607 H1594 0.929 . S
C1607 C1599 1.433 . S
C1607 N1609 1.384 . S
N1608 C1604 1.427 . S
N1608 C1605 1.384 . S
N1609 C1601 1.427 . S
N1609 C1607 1.384 . S
H1610 C1616 0.930 . S
H1611 C1620 0.930 . S
H1612 C1625 0.929 1_556 S
H1613 C1623 0.929 . S
H1614 C1618 0.929 . S
H1615 C1624 0.929 . S
C1616 H1610 0.930 . S
C1616 C1617 1.367 . S
C1616 C1624 1.378 . S
C1617 C1616 1.367 . S
C1617 C1625 1.433 . S
C1618 H1614 0.929 . S
C1618 C1620 1.378 . S
C1618 C1622 1.350 . S
C1619 C1622 1.463 . S
C1619 C1624 1.350 . S
C1619 N1627 1.427 . S
C1620 H1611 0.930 . S
C1620 C1618 1.378 . S
C1620 C1621 1.367 . S
C1621 C1620 1.367 . S
C1621 C1623 1.433 . S
C1622 C1618 1.350 . S
C1622 C1619 1.463 . S
C1622 N1626 1.427 . S
C1623 H1613 0.929 . S
C1623 C1621 1.433 . S
C1623 N1626 1.384 . S
C1624 H1615 0.929 . S
C1624 C1616 1.378 . S
C1624 C1619 1.350 . S
C1625 H1612 0.929 1_554 S
C1625 C1617 1.433 . S
C1625 N1627 1.384 . S
N1626 C1622 1.427 . S
N1626 C1623 1.384 . S
N1627 C1619 1.427 . S
N1627 C1625 1.384 . S
H1628 C1634 0.930 . S
H1629 C1638 0.930 . S
H1630 C1643 0.929 1_554 S
H1631 C1641 0.929 . S
H1632 C1636 0.929 . S
H1633 C1642 0.929 . S
C1634 H1628 0.930 . S
C1634 C1635 1.367 . S
C1634 C1642 1.378 . S
C1635 C1634 1.367 . S
C1635 C1643 1.433 . S
C1636 H1632 0.929 . S
C1636 C1638 1.378 . S
C1636 C1640 1.350 . S
C1637 C1640 1.463 . S
C1637 C1642 1.350 . S
C1637 N1645 1.427 . S
C1638 H1629 0.930 . S
C1638 C1636 1.378 . S
C1638 C1639 1.367 . S
C1639 C1638 1.367 . S
C1639 C1641 1.433 . S
C1640 C1636 1.350 . S
C1640 C1637 1.463 . S
C1640 N1644 1.427 . S
C1641 H1631 0.929 . S
C1641 C1639 1.433 . S
C1641 N1644 1.384 . S
C1642 H1633 0.929 . S
C1642 C1634 1.378 . S
C1642 C1637 1.350 . S
C1643 H1630 0.929 1_556 S
C1643 C1635 1.433 . S
C1643 N1645 1.384 . S
N1644 C1640 1.427 . S
N1644 C1641 1.384 . S
N1645 C1637 1.427 . S
N1645 C1643 1.384 . S
H1646 C1652 0.930 . S
H1647 C1656 0.930 . S
H1648 C1661 0.929 . S
H1649 C1659 0.929 . S
H1650 C1654 0.929 . S
H1651 C1660 0.929 . S
C1652 H1646 0.930 . S
C1652 C1653 1.367 . S
C1652 C1660 1.378 . S
C1653 C1652 1.367 . S
C1653 C1661 1.433 . S
C1654 H1650 0.929 . S
C1654 C1656 1.378 . S
C1654 C1658 1.350 . S
C1655 C1658 1.463 . S
C1655 C1660 1.350 . S
C1655 N1663 1.427 . S
C1656 H1647 0.930 . S
C1656 C1654 1.378 . S
C1656 C1657 1.367 . S
C1657 C1656 1.367 . S
C1657 C1659 1.433 . S
C1658 C1654 1.350 . S
C1658 C1655 1.463 . S
C1658 N1662 1.427 . S
C1659 H1649 0.929 . S
C1659 C1657 1.433 . S
C1659 N1662 1.384 . S
C1660 H1651 0.929 . S
C1660 C1652 1.378 . S
C1660 C1655 1.350 . S
C1661 H1648 0.929 . S
C1661 C1653 1.433 . S
C1661 N1663 1.384 . S
N1662 C1658 1.427 . S
N1662 C1659 1.384 . S
N1663 C1655 1.427 . S
N1663 C1661 1.384 . S
H1664 C1670 0.930 . S
H1665 C1674 0.930 . S
H1666 C1679 0.929 . S
H1667 C1677 0.929 . S
H1668 C1672 0.929 . S
H1669 C1678 0.929 . S
C1670 H1664 0.930 . S
C1670 C1671 1.367 . S
C1670 C1678 1.378 . S
C1671 C1670 1.367 . S
C1671 C1679 1.433 . S
C1672 H1668 0.929 . S
C1672 C1674 1.378 . S
C1672 C1676 1.350 . S
C1673 C1676 1.463 . S
C1673 C1678 1.350 . S
C1673 N1681 1.427 . S
C1674 H1665 0.930 . S
C1674 C1672 1.378 . S
C1674 C1675 1.367 . S
C1675 C1674 1.367 . S
C1675 C1677 1.433 . S
C1676 C1672 1.350 . S
C1676 C1673 1.463 . S
C1676 N1680 1.427 . S
C1677 H1667 0.929 . S
C1677 C1675 1.433 . S
C1677 N1680 1.384 . S
C1678 H1669 0.929 . S
C1678 C1670 1.378 . S
C1678 C1673 1.350 . S
C1679 H1666 0.929 . S
C1679 C1671 1.433 . S
C1679 N1681 1.384 . S
N1680 C1676 1.427 . S
N1680 C1677 1.384 . S
N1681 C1673 1.427 . S
N1681 C1679 1.384 . S
H1682 C1688 0.930 . S
H1683 C1692 0.930 . S
H1684 C1697 0.929 . S
H1685 C1695 0.929 . S
H1686 C1690 0.929 . S
H1687 C1696 0.929 . S
C1688 H1682 0.930 . S
C1688 C1689 1.367 . S
C1688 C1696 1.378 . S
C1689 C1688 1.367 . S
C1689 C1697 1.433 . S
C1690 H1686 0.929 . S
C1690 C1692 1.378 . S
C1690 C1694 1.350 . S
C1691 C1694 1.463 1_655 S
C1691 C1696 1.350 . S
C1691 N1699 1.427 1_655 S
C1692 H1683 0.930 . S
C1692 C1690 1.378 . S
C1692 C1693 1.367 . S
C1693 C1692 1.367 . S
C1693 C1695 1.433 . S
C1694 C1690 1.350 . S
C1694 C1691 1.463 1_455 S
C1694 N1698 1.427 . S
C1695 H1685 0.929 . S
C1695 C1693 1.433 . S
C1695 N1698 1.384 . S
C1696 H1687 0.929 . S
C1696 C1688 1.378 . S
C1696 C1691 1.350 . S
C1697 H1684 0.929 . S
C1697 C1689 1.433 . S
C1697 N1699 1.384 1_655 S
N1698 C1694 1.427 . S
N1698 C1695 1.384 . S
N1699 C1691 1.427 1_455 S
N1699 C1697 1.384 1_455 S
H1700 C1706 0.930 . S
H1701 C1710 0.930 . S
H1702 C1715 0.929 . S
H1703 C1713 0.929 . S
H1704 C1708 0.929 . S
H1705 C1714 0.929 . S
C1706 H1700 0.930 . S
C1706 C1707 1.367 . S
C1706 C1714 1.378 . S
C1707 C1706 1.367 . S
C1707 C1715 1.433 . S
C1708 H1704 0.929 . S
C1708 C1710 1.378 . S
C1708 C1712 1.350 . S
C1709 C1712 1.463 . S
C1709 C1714 1.350 . S
C1709 N1717 1.427 . S
C1710 H1701 0.930 . S
C1710 C1708 1.378 . S
C1710 C1711 1.367 . S
C1711 C1710 1.367 . S
C1711 C1713 1.433 . S
C1712 C1708 1.350 . S
C1712 C1709 1.463 . S
C1712 N1716 1.427 . S
C1713 H1703 0.929 . S
C1713 C1711 1.433 . S
C1713 N1716 1.384 . S
C1714 H1705 0.929 . S
C1714 C1706 1.378 . S
C1714 C1709 1.350 . S
C1715 H1702 0.929 . S
C1715 C1707 1.433 . S
C1715 N1717 1.384 . S
N1716 C1712 1.427 . S
N1716 C1713 1.384 . S
N1717 C1709 1.427 . S
N1717 C1715 1.384 . S
H1718 C1724 0.930 . S
H1719 C1728 0.930 . S
H1720 C1733 0.929 . S
H1721 C1731 0.929 . S
H1722 C1726 0.929 . S
H1723 C1732 0.929 . S
C1724 H1718 0.930 . S
C1724 C1725 1.367 . S
C1724 C1732 1.378 . S
C1725 C1724 1.367 . S
C1725 C1733 1.433 . S
C1726 H1722 0.929 . S
C1726 C1728 1.378 . S
C1726 C1730 1.350 . S
C1727 C1730 1.463 . S
C1727 C1732 1.350 . S
C1727 N1735 1.427 . S
C1728 H1719 0.930 . S
C1728 C1726 1.378 . S
C1728 C1729 1.367 . S
C1729 C1728 1.367 . S
C1729 C1731 1.433 . S
C1730 C1726 1.350 . S
C1730 C1727 1.463 . S
C1730 N1734 1.427 . S
C1731 H1721 0.929 . S
C1731 C1729 1.433 . S
C1731 N1734 1.384 . S
C1732 H1723 0.929 . S
C1732 C1724 1.378 . S
C1732 C1727 1.350 . S
C1733 H1720 0.929 . S
C1733 C1725 1.433 . S
C1733 N1735 1.384 . S
N1734 C1730 1.427 . S
N1734 C1731 1.384 . S
N1735 C1727 1.427 . S
N1735 C1733 1.384 . S
H1736 C1742 0.930 . S
H1737 C1746 0.930 . S
H1738 C1751 0.929 . S
H1739 C1749 0.929 . S
H1740 C1744 0.929 . S
H1741 C1750 0.929 . S
C1742 H1736 0.930 . S
C1742 C1743 1.367 . S
C1742 C1750 1.378 . S
C1743 C1742 1.367 . S
C1743 C1751 1.433 . S
C1744 H1740 0.929 . S
C1744 C1746 1.378 . S
C1744 C1748 1.350 . S
C1745 C1748 1.463 . S
C1745 C1750 1.350 . S
C1745 N1753 1.427 . S
C1746 H1737 0.930 . S
C1746 C1744 1.378 . S
C1746 C1747 1.367 . S
C1747 C1746 1.367 . S
C1747 C1749 1.433 . S
C1748 C1744 1.350 . S
C1748 C1745 1.463 . S
C1748 N1752 1.427 . S
C1749 H1739 0.929 . S
C1749 C1747 1.433 . S
C1749 N1752 1.384 . S
C1750 H1741 0.929 . S
C1750 C1742 1.378 . S
C1750 C1745 1.350 . S
C1751 H1738 0.929 . S
C1751 C1743 1.433 . S
C1751 N1753 1.384 . S
N1752 C1748 1.427 . S
N1752 C1749 1.384 . S
N1753 C1745 1.427 . S
N1753 C1751 1.384 . S
H1754 C1760 0.930 . S
H1755 C1764 0.930 . S
H1756 C1769 0.929 . S
H1757 C1767 0.929 . S
H1758 C1762 0.929 . S
H1759 C1768 0.929 . S
C1760 H1754 0.930 . S
C1760 C1761 1.367 . S
C1760 C1768 1.378 . S
C1761 C1760 1.367 . S
C1761 C1769 1.433 . S
C1762 H1758 0.929 . S
C1762 C1764 1.378 . S
C1762 C1766 1.350 . S
C1763 C1766 1.463 . S
C1763 C1768 1.350 . S
C1763 N1771 1.427 . S
C1764 H1755 0.930 . S
C1764 C1762 1.378 . S
C1764 C1765 1.367 . S
C1765 C1764 1.367 . S
C1765 C1767 1.433 . S
C1766 C1762 1.350 . S
C1766 C1763 1.463 . S
C1766 N1770 1.427 . S
C1767 H1757 0.929 . S
C1767 C1765 1.433 . S
C1767 N1770 1.384 . S
C1768 H1759 0.929 . S
C1768 C1760 1.378 . S
C1768 C1763 1.350 . S
C1769 H1756 0.929 . S
C1769 C1761 1.433 . S
C1769 N1771 1.384 . S
N1770 C1766 1.427 . S
N1770 C1767 1.384 . S
N1771 C1763 1.427 . S
N1771 C1769 1.384 . S
H1772 C1778 0.930 1_556 S
H1773 C1782 0.930 . S
H1774 C1787 0.929 . S
H1775 C1785 0.929 . S
H1776 C1780 0.929 . S
H1777 C1786 0.929 . S
C1778 H1772 0.930 1_554 S
C1778 C1779 1.367 . S
C1778 C1786 1.378 . S
C1779 C1778 1.367 . S
C1779 C1787 1.433 . S
C1780 H1776 0.929 . S
C1780 C1782 1.378 . S
C1780 C1784 1.350 . S
C1781 C1784 1.463 . S
C1781 C1786 1.350 . S
C1781 N1789 1.427 . S
C1782 H1773 0.930 . S
C1782 C1780 1.378 . S
C1782 C1783 1.367 . S
C1783 C1782 1.367 . S
C1783 C1785 1.433 . S
C1784 C1780 1.350 . S
C1784 C1781 1.463 . S
C1784 N1788 1.427 . S
C1785 H1775 0.929 . S
C1785 C1783 1.433 . S
C1785 N1788 1.384 . S
C1786 H1777 0.929 . S
C1786 C1778 1.378 . S
C1786 C1781 1.350 . S
C1787 H1774 0.929 . S
C1787 C1779 1.433 . S
C1787 N1789 1.384 . S
N1788 C1784 1.427 . S
N1788 C1785 1.384 . S
N1789 C1781 1.427 . S
N1789 C1787 1.384 . S
H1790 C1796 0.930 . S
H1791 C1800 0.930 . S
H1792 C1805 0.929 . S
H1793 C1803 0.929 . S
H1794 C1798 0.929 1_455 S
H1795 C1804 0.897 1_655 S
C1796 H1790 0.930 . S
C1796 C1797 1.367 . S
C1796 C1804 1.401 . S
C1797 C1796 1.367 . S
C1797 C1805 1.433 . S
C1798 H1794 0.929 1_655 S
C1798 C1800 1.378 . S
C1798 C1802 1.350 . S
C1799 C1802 1.463 1_455 S
C1799 C1804 1.360 . S
C1799 N1807 1.427 . S
C1800 H1791 0.930 . S
C1800 C1798 1.378 . S
C1800 C1801 1.367 . S
C1801 C1800 1.367 . S
C1801 C1803 1.433 . S
C1802 C1798 1.350 . S
C1802 C1799 1.463 1_655 S
C1802 N1806 1.427 . S
C1803 H1793 0.929 . S
C1803 C1801 1.433 . S
C1803 N1806 1.384 . S
C1804 H1795 0.897 1_455 S
C1804 C1796 1.401 . S
C1804 C1799 1.360 . S
C1805 H1792 0.929 . S
C1805 C1797 1.433 . S
C1805 N1807 1.384 . S
N1806 C1802 1.427 . S
N1806 C1803 1.384 . S
N1807 C1799 1.427 . S
N1807 C1805 1.384 . S
H1808 C1814 0.930 . S
H1809 C1818 0.930 . S
H1810 C1823 0.929 . S
H1811 C1821 0.929 1_556 S
H1812 C1816 0.929 . S
H1813 C1822 0.929 . S
C1814 H1808 0.930 . S
C1814 C1815 1.367 . S
C1814 C1822 1.378 . S
C1815 C1814 1.367 . S
C1815 C1823 1.433 . S
C1816 H1812 0.929 . S
C1816 C1818 1.378 . S
C1816 C1820 1.350 . S
C1817 C1820 1.463 . S
C1817 C1822 1.350 . S
C1817 N1825 1.427 . S
C1818 H1809 0.930 . S
C1818 C1816 1.378 . S
C1818 C1819 1.367 . S
C1819 C1818 1.367 . S
C1819 C1821 1.433 . S
C1820 C1816 1.350 . S
C1820 C1817 1.463 . S
C1820 N1824 1.427 . S
C1821 H1811 0.929 1_554 S
C1821 C1819 1.433 . S
C1821 N1824 1.384 . S
C1822 H1813 0.929 . S
C1822 C1814 1.378 . S
C1822 C1817 1.350 . S
C1823 H1810 0.929 . S
C1823 C1815 1.433 . S
C1823 N1825 1.384 . S
N1824 C1820 1.427 . S
N1824 C1821 1.384 . S
N1825 C1817 1.427 . S
N1825 C1823 1.384 . S
H1826 C1832 0.930 . S
H1827 C1836 0.930 . S
H1828 C1841 0.929 . S
H1829 C1839 0.929 . S
H1830 C1834 0.929 . S
H1831 C1840 0.929 1_655 S
C1832 H1826 0.930 . S
C1832 C1833 1.367 . S
C1832 C1840 1.378 . S
C1833 C1832 1.367 . S
C1833 C1841 1.433 . S
C1834 H1830 0.929 . S
C1834 C1836 1.378 . S
C1834 C1838 1.350 . S
C1835 C1838 1.463 1_455 S
C1835 C1840 1.350 . S
C1835 N1843 1.427 . S
C1836 H1827 0.930 . S
C1836 C1834 1.378 . S
C1836 C1837 1.367 . S
C1837 C1836 1.367 . S
C1837 C1839 1.433 . S
C1838 C1834 1.350 . S
C1838 C1835 1.463 1_655 S
C1838 N1842 1.427 . S
C1839 H1829 0.929 . S
C1839 C1837 1.433 . S
C1839 N1842 1.384 . S
C1840 H1831 0.929 1_455 S
C1840 C1832 1.378 . S
C1840 C1835 1.350 . S
C1841 H1828 0.929 . S
C1841 C1833 1.433 . S
C1841 N1843 1.384 . S
N1842 C1838 1.427 . S
N1842 C1839 1.384 . S
N1843 C1835 1.427 . S
N1843 C1841 1.384 . S
H1844 C1850 0.930 . S
H1845 C1854 0.930 . S
H1846 C1859 0.929 . S
H1847 C1857 0.929 . S
H1848 C1852 0.929 . S
H1849 C1858 0.929 . S
C1850 H1844 0.930 . S
C1850 C1851 1.367 . S
C1850 C1858 1.378 . S
C1851 C1850 1.367 . S
C1851 C1859 1.433 . S
C1852 H1848 0.929 . S
C1852 C1854 1.378 . S
C1852 C1856 1.350 . S
C1853 C1856 1.463 . S
C1853 C1858 1.350 . S
C1853 N1861 1.427 . S
C1854 H1845 0.930 . S
C1854 C1852 1.378 . S
C1854 C1855 1.367 . S
C1855 C1854 1.367 . S
C1855 C1857 1.433 . S
C1856 C1852 1.350 . S
C1856 C1853 1.463 . S
C1856 N1860 1.427 . S
C1857 H1847 0.929 . S
C1857 C1855 1.433 . S
C1857 N1860 1.384 . S
C1858 H1849 0.929 . S
C1858 C1850 1.378 . S
C1858 C1853 1.350 . S
C1859 H1846 0.929 . S
C1859 C1851 1.433 . S
C1859 N1861 1.384 . S
N1860 C1856 1.427 . S
N1860 C1857 1.384 . S
N1861 C1853 1.427 . S
N1861 C1859 1.384 . S
H1862 C1868 0.930 . S
H1863 C1872 0.930 . S
H1864 C1877 0.929 . S
H1865 C1875 0.929 . S
H1866 C1870 0.929 . S
H1867 C1876 0.929 . S
C1868 H1862 0.930 . S
C1868 C1869 1.367 . S
C1868 C1876 1.378 . S
C1869 C1868 1.367 . S
C1869 C1877 1.433 . S
C1870 H1866 0.929 . S
C1870 C1872 1.378 . S
C1870 C1874 1.350 . S
C1871 C1874 1.463 . S
C1871 C1876 1.350 . S
C1871 N1879 1.427 . S
C1872 H1863 0.930 . S
C1872 C1870 1.378 . S
C1872 C1873 1.367 . S
C1873 C1872 1.367 . S
C1873 C1875 1.433 . S
C1874 C1870 1.350 . S
C1874 C1871 1.463 . S
C1874 N1878 1.427 . S
C1875 H1865 0.929 . S
C1875 C1873 1.433 . S
C1875 N1878 1.384 . S
C1876 H1867 0.929 . S
C1876 C1868 1.378 . S
C1876 C1871 1.350 . S
C1877 H1864 0.929 . S
C1877 C1869 1.433 . S
C1877 N1879 1.384 . S
N1878 C1874 1.427 . S
N1878 C1875 1.384 . S
N1879 C1871 1.427 . S
N1879 C1877 1.384 . S
H1880 C1886 0.930 . S
H1881 C1890 0.930 . S
H1882 C1895 0.929 . S
H1883 C1893 0.929 . S
H1884 C1888 0.929 . S
H1885 C1894 0.929 . S
C1886 H1880 0.930 . S
C1886 C1887 1.367 . S
C1886 C1894 1.378 . S
C1887 C1886 1.367 . S
C1887 C1895 1.433 . S
C1888 H1884 0.929 . S
C1888 C1890 1.378 . S
C1888 C1892 1.350 . S
C1889 C1892 1.463 . S
C1889 C1894 1.350 . S
C1889 N1897 1.427 . S
C1890 H1881 0.930 . S
C1890 C1888 1.378 . S
C1890 C1891 1.367 . S
C1891 C1890 1.367 . S
C1891 C1893 1.433 . S
C1892 C1888 1.350 . S
C1892 C1889 1.463 . S
C1892 N1896 1.427 . S
C1893 H1883 0.929 . S
C1893 C1891 1.433 . S
C1893 N1896 1.384 . S
C1894 H1885 0.929 . S
C1894 C1886 1.378 . S
C1894 C1889 1.350 . S
C1895 H1882 0.929 . S
C1895 C1887 1.433 . S
C1895 N1897 1.384 . S
N1896 C1892 1.427 . S
N1896 C1893 1.384 . S
N1897 C1889 1.427 . S
N1897 C1895 1.384 . S
H1898 C1904 0.930 . S
H1899 C1908 0.930 . S
H1900 C1913 0.929 . S
H1901 C1911 0.929 . S
H1902 C1906 0.929 . S
H1903 C1912 0.929 . S
C1904 H1898 0.930 . S
C1904 C1905 1.367 . S
C1904 C1912 1.378 . S
C1905 C1904 1.367 . S
C1905 C1913 1.433 . S
C1906 H1902 0.929 . S
C1906 C1908 1.378 . S
C1906 C1910 1.350 . S
C1907 C1910 1.463 . S
C1907 C1912 1.350 . S
C1907 N1915 1.427 . S
C1908 H1899 0.930 . S
C1908 C1906 1.378 . S
C1908 C1909 1.367 . S
C1909 C1908 1.367 . S
C1909 C1911 1.433 . S
C1910 C1906 1.350 . S
C1910 C1907 1.463 . S
C1910 N1914 1.427 . S
C1911 H1901 0.929 . S
C1911 C1909 1.433 . S
C1911 N1914 1.384 . S
C1912 H1903 0.929 . S
C1912 C1904 1.378 . S
C1912 C1907 1.350 . S
C1913 H1900 0.929 . S
C1913 C1905 1.433 . S
C1913 N1915 1.384 . S
N1914 C1910 1.427 . S
N1914 C1911 1.384 . S
N1915 C1907 1.427 . S
N1915 C1913 1.384 . S
H1916 C1922 0.930 . S
H1917 C1926 0.930 1_554 S
H1918 C1931 0.929 . S
H1919 C1929 0.929 . S
H1920 C1924 0.929 . S
H1921 C1930 0.929 . S
C1922 H1916 0.930 . S
C1922 C1923 1.367 . S
C1922 C1930 1.378 . S
C1923 C1922 1.367 . S
C1923 C1931 1.433 . S
C1924 H1920 0.929 . S
C1924 C1926 1.378 . S
C1924 C1928 1.350 . S
C1925 C1928 1.463 . S
C1925 C1930 1.350 . S
C1925 N1933 1.427 . S
C1926 H1917 0.930 1_556 S
C1926 C1924 1.378 . S
C1926 C1927 1.367 . S
C1927 C1926 1.367 . S
C1927 C1929 1.433 . S
C1928 C1924 1.350 . S
C1928 C1925 1.463 . S
C1928 N1932 1.427 . S
C1929 H1919 0.929 . S
C1929 C1927 1.433 . S
C1929 N1932 1.384 . S
C1930 H1921 0.929 . S
C1930 C1922 1.378 . S
C1930 C1925 1.350 . S
C1931 H1918 0.929 . S
C1931 C1923 1.433 . S
C1931 N1933 1.384 . S
N1932 C1928 1.427 . S
N1932 C1929 1.384 . S
N1933 C1925 1.427 . S
N1933 C1931 1.384 . S
H1934 C1940 0.930 . S
H1935 C1944 0.930 . S
H1936 C1949 0.929 . S
H1937 C1947 0.929 . S
H1938 C1942 0.929 . S
H1939 C1948 0.929 . S
C1940 H1934 0.930 . S
C1940 C1941 1.367 . S
C1940 C1948 1.378 . S
C1941 C1940 1.367 . S
C1941 C1949 1.433 . S
C1942 H1938 0.929 . S
C1942 C1944 1.378 . S
C1942 C1946 1.350 . S
C1943 C1946 1.463 1_455 S
C1943 C1948 1.350 . S
C1943 N1951 1.433 . S
C1944 H1935 0.930 . S
C1944 C1942 1.378 . S
C1944 C1945 1.367 . S
C1945 C1944 1.367 . S
C1945 C1947 1.433 . S
C1946 C1942 1.350 . S
C1946 C1943 1.463 1_655 S
C1946 N1950 1.416 1_655 S
C1947 H1937 0.929 . S
C1947 C1945 1.433 . S
C1947 N1950 1.364 1_655 S
C1948 H1939 0.929 . S
C1948 C1940 1.378 . S
C1948 C1943 1.350 . S
C1949 H1936 0.929 . S
C1949 C1941 1.433 . S
C1949 N1951 1.394 . S
N1950 C1946 1.416 1_455 S
N1950 C1947 1.364 1_455 S
N1951 C1943 1.433 . S
N1951 C1949 1.394 . S
H1952 C1958 0.930 . S
H1953 C1962 0.930 . S
H1954 C1967 0.929 . S
H1955 C1965 0.929 . S
H1956 C1960 0.929 . S
H1957 C1966 0.929 . S
C1958 H1952 0.930 . S
C1958 C1959 1.367 . S
C1958 C1966 1.378 . S
C1959 C1958 1.367 . S
C1959 C1967 1.433 . S
C1960 H1956 0.929 . S
C1960 C1962 1.378 . S
C1960 C1964 1.350 . S
C1961 C1964 1.463 . S
C1961 C1966 1.350 . S
C1961 N1969 1.427 . S
C1962 H1953 0.930 . S
C1962 C1960 1.378 . S
C1962 C1963 1.367 . S
C1963 C1962 1.367 . S
C1963 C1965 1.433 . S
C1964 C1960 1.350 . S
C1964 C1961 1.463 . S
C1964 N1968 1.427 . S
C1965 H1955 0.929 . S
C1965 C1963 1.433 . S
C1965 N1968 1.384 . S
C1966 H1957 0.929 . S
C1966 C1958 1.378 . S
C1966 C1961 1.350 . S
C1967 H1954 0.929 . S
C1967 C1959 1.433 . S
C1967 N1969 1.384 . S
N1968 C1964 1.427 . S
N1968 C1965 1.384 . S
N1969 C1961 1.427 . S
N1969 C1967 1.384 . S
H1970 C1976 0.930 . S
H1971 C1980 0.930 . S
H1972 C1985 0.929 . S
H1973 C1983 0.929 . S
H1974 C1978 0.929 . S
H1975 C1984 0.929 . S
C1976 H1970 0.930 . S
C1976 C1977 1.367 . S
C1976 C1984 1.378 . S
C1977 C1976 1.367 . S
C1977 C1985 1.433 . S
C1978 H1974 0.929 . S
C1978 C1980 1.378 . S
C1978 C1982 1.350 . S
C1979 C1982 1.463 . S
C1979 C1984 1.350 . S
C1979 N1987 1.427 . S
C1980 H1971 0.930 . S
C1980 C1978 1.378 . S
C1980 C1981 1.367 . S
C1981 C1980 1.367 . S
C1981 C1983 1.433 . S
C1982 C1978 1.350 . S
C1982 C1979 1.463 . S
C1982 N1986 1.427 . S
C1983 H1973 0.929 . S
C1983 C1981 1.433 . S
C1983 N1986 1.384 . S
C1984 H1975 0.929 . S
C1984 C1976 1.378 . S
C1984 C1979 1.350 . S
C1985 H1972 0.929 . S
C1985 C1977 1.433 . S
C1985 N1987 1.384 . S
N1986 C1982 1.427 . S
N1986 C1983 1.384 . S
N1987 C1979 1.427 . S
N1987 C1985 1.384 . S
H1988 C1994 0.930 1_554 S
H1989 C1998 0.930 . S
H1990 C2003 0.929 . S
H1991 C2001 0.929 . S
H1992 C1996 0.929 . S
H1993 C2002 0.929 . S
C1994 H1988 0.930 1_556 S
C1994 C1995 1.367 . S
C1994 C2002 1.378 . S
C1995 C1994 1.367 . S
C1995 C2003 1.433 . S
C1996 H1992 0.929 . S
C1996 C1998 1.378 . S
C1996 C2000 1.350 . S
C1997 C2000 1.463 . S
C1997 C2002 1.350 . S
C1997 N2005 1.427 . S
C1998 H1989 0.930 . S
C1998 C1996 1.378 . S
C1998 C1999 1.367 . S
C1999 C1998 1.367 . S
C1999 C2001 1.433 . S
C2000 C1996 1.350 . S
C2000 C1997 1.463 . S
C2000 N2004 1.427 . S
C2001 H1991 0.929 . S
C2001 C1999 1.433 . S
C2001 N2004 1.384 . S
C2002 H1993 0.929 . S
C2002 C1994 1.378 . S
C2002 C1997 1.350 . S
C2003 H1990 0.929 . S
C2003 C1995 1.433 . S
C2003 N2005 1.384 . S
N2004 C2000 1.427 . S
N2004 C2001 1.384 . S
N2005 C1997 1.427 . S
N2005 C2003 1.384 . S
H2006 C2012 0.930 . S
H2007 C2016 0.930 . S
H2008 C2021 0.929 . S
H2009 C2019 0.929 . S
H2010 C2014 0.929 . S
H2011 C2020 0.929 . S
C2012 H2006 0.930 . S
C2012 C2013 1.367 . S
C2012 C2020 1.378 . S
C2013 C2012 1.367 . S
C2013 C2021 1.433 . S
C2014 H2010 0.929 . S
C2014 C2016 1.378 . S
C2014 C2018 1.350 . S
C2015 C2018 1.463 1_655 S
C2015 C2020 1.350 . S
C2015 N2023 1.427 . S
C2016 H2007 0.930 . S
C2016 C2014 1.378 . S
C2016 C2017 1.367 . S
C2017 C2016 1.367 . S
C2017 C2019 1.433 . S
C2018 C2014 1.350 . S
C2018 C2015 1.463 1_455 S
C2018 N2022 1.427 . S
C2019 H2009 0.929 . S
C2019 C2017 1.433 . S
C2019 N2022 1.384 . S
C2020 H2011 0.929 . S
C2020 C2012 1.378 . S
C2020 C2015 1.350 . S
C2021 H2008 0.929 . S
C2021 C2013 1.433 . S
C2021 N2023 1.384 . S
N2022 C2018 1.427 . S
N2022 C2019 1.384 . S
N2023 C2015 1.427 . S
N2023 C2021 1.384 . S
H2024 C2030 0.930 . S
H2025 C2034 0.930 1_556 S
H2026 C2039 0.929 . S
H2027 C2037 0.929 . S
H2028 C2032 0.929 . S
H2029 C2038 0.929 . S
C2030 H2024 0.930 . S
C2030 C2031 1.367 . S
C2030 C2038 1.378 . S
C2031 C2030 1.367 . S
C2031 C2039 1.433 . S
C2032 H2028 0.929 . S
C2032 C2034 1.378 . S
C2032 C2036 1.350 . S
C2033 C2036 1.463 . S
C2033 C2038 1.350 . S
C2033 N2041 1.427 . S
C2034 H2025 0.930 1_554 S
C2034 C2032 1.378 . S
C2034 C2035 1.367 . S
C2035 C2034 1.367 . S
C2035 C2037 1.433 . S
C2036 C2032 1.350 . S
C2036 C2033 1.463 . S
C2036 N2040 1.427 . S
C2037 H2027 0.929 . S
C2037 C2035 1.433 . S
C2037 N2040 1.384 . S
C2038 H2029 0.929 . S
C2038 C2030 1.378 . S
C2038 C2033 1.350 . S
C2039 H2026 0.929 . S
C2039 C2031 1.433 . S
C2039 N2041 1.384 . S
N2040 C2036 1.427 . S
N2040 C2037 1.384 . S
N2041 C2033 1.427 . S
N2041 C2039 1.384 . S
H2042 C2048 0.930 . S
H2043 C2052 0.930 . S
H2044 C2057 0.929 . S
H2045 C2055 0.929 . S
H2046 C2050 0.966 . S
H2047 C2056 0.929 . S
C2048 H2042 0.930 . S
C2048 C2049 1.367 . S
C2048 C2056 1.378 1_655 S
C2049 C2048 1.367 . S
C2049 C2057 1.433 . S
C2050 H2046 0.966 . S
C2050 C2052 1.355 1_655 S
C2050 C2054 1.336 1_655 S
C2051 C2054 1.463 1_655 S
C2051 C2056 1.350 1_655 S
C2051 N2059 1.427 . S
C2052 H2043 0.930 . S
C2052 C2050 1.355 1_455 S
C2052 C2053 1.367 . S
C2053 C2052 1.367 . S
C2053 C2055 1.433 . S
C2054 C2050 1.336 1_455 S
C2054 C2051 1.463 1_455 S
C2054 N2058 1.427 . S
C2055 H2045 0.929 . S
C2055 C2053 1.433 . S
C2055 N2058 1.384 . S
C2056 H2047 0.929 . S
C2056 C2048 1.378 1_455 S
C2056 C2051 1.350 1_455 S
C2057 H2044 0.929 . S
C2057 C2049 1.433 . S
C2057 N2059 1.384 . S
N2058 C2054 1.427 . S
N2058 C2055 1.384 . S
N2059 C2051 1.427 . S
N2059 C2057 1.384 . S
H2060 C2066 0.930 . S
H2061 C2070 0.930 . S
H2062 C2075 0.929 . S
H2063 C2073 0.929 . S
H2064 C2068 0.929 . S
H2065 C2074 0.929 . S
C2066 H2060 0.930 . S
C2066 C2067 1.367 . S
C2066 C2074 1.378 . S
C2067 C2066 1.367 . S
C2067 C2075 1.433 . S
C2068 H2064 0.929 . S
C2068 C2070 1.378 . S
C2068 C2072 1.350 . S
C2069 C2072 1.463 . S
C2069 C2074 1.350 . S
C2069 N2077 1.427 . S
C2070 H2061 0.930 . S
C2070 C2068 1.378 . S
C2070 C2071 1.367 . S
C2071 C2070 1.367 . S
C2071 C2073 1.433 . S
C2072 C2068 1.350 . S
C2072 C2069 1.463 . S
C2072 N2076 1.427 . S
C2073 H2063 0.929 . S
C2073 C2071 1.433 . S
C2073 N2076 1.384 . S
C2074 H2065 0.929 . S
C2074 C2066 1.378 . S
C2074 C2069 1.350 . S
C2075 H2062 0.929 . S
C2075 C2067 1.433 . S
C2075 N2077 1.384 . S
N2076 C2072 1.427 . S
N2076 C2073 1.384 . S
N2077 C2069 1.427 . S
N2077 C2075 1.384 . S
H2078 C2084 0.930 . S
H2079 C2088 0.930 . S
H2080 C2093 0.929 . S
H2081 C2091 0.929 . S
H2082 C2086 0.929 . S
H2083 C2092 0.929 . S
C2084 H2078 0.930 . S
C2084 C2085 1.367 . S
C2084 C2092 1.378 . S
C2085 C2084 1.367 . S
C2085 C2093 1.433 . S
C2086 H2082 0.929 . S
C2086 C2088 1.378 . S
C2086 C2090 1.350 . S
C2087 C2090 1.463 . S
C2087 C2092 1.350 . S
C2087 N2095 1.427 . S
C2088 H2079 0.930 . S
C2088 C2086 1.378 . S
C2088 C2089 1.367 . S
C2089 C2088 1.367 . S
C2089 C2091 1.433 . S
C2090 C2086 1.350 . S
C2090 C2087 1.463 . S
C2090 N2094 1.427 . S
C2091 H2081 0.929 . S
C2091 C2089 1.433 . S
C2091 N2094 1.384 . S
C2092 H2083 0.929 . S
C2092 C2084 1.378 . S
C2092 C2087 1.350 . S
C2093 H2080 0.929 . S
C2093 C2085 1.433 . S
C2093 N2095 1.384 . S
N2094 C2090 1.427 . S
N2094 C2091 1.384 . S
N2095 C2087 1.427 . S
N2095 C2093 1.384 . S
H2096 C2102 0.930 . S
H2097 C2106 0.930 . S
H2098 C2111 0.929 . S
H2099 C2109 0.929 . S
H2100 C2104 0.929 . S
H2101 C2110 0.929 . S
C2102 H2096 0.930 . S
C2102 C2103 1.367 . S
C2102 C2110 1.378 . S
C2103 C2102 1.367 . S
C2103 C2111 1.433 . S
C2104 H2100 0.929 . S
C2104 C2106 1.378 . S
C2104 C2108 1.350 . S
C2105 C2108 1.463 . S
C2105 C2110 1.350 . S
C2105 N2113 1.427 . S
C2106 H2097 0.930 . S
C2106 C2104 1.378 . S
C2106 C2107 1.367 . S
C2107 C2106 1.367 . S
C2107 C2109 1.433 . S
C2108 C2104 1.350 . S
C2108 C2105 1.463 . S
C2108 N2112 1.427 . S
C2109 H2099 0.929 . S
C2109 C2107 1.433 . S
C2109 N2112 1.384 . S
C2110 H2101 0.929 . S
C2110 C2102 1.378 . S
C2110 C2105 1.350 . S
C2111 H2098 0.929 . S
C2111 C2103 1.433 . S
C2111 N2113 1.384 . S
N2112 C2108 1.427 . S
N2112 C2109 1.384 . S
N2113 C2105 1.427 . S
N2113 C2111 1.384 . S
H2114 C2120 0.930 . S
H2115 C2124 0.930 . S
H2116 C2129 0.929 . S
H2117 C2127 0.929 . S
H2118 C2122 0.929 . S
H2119 C2128 0.929 . S
C2120 H2114 0.930 . S
C2120 C2121 1.367 . S
C2120 C2128 1.378 . S
C2121 C2120 1.367 . S
C2121 C2129 1.433 . S
C2122 H2118 0.929 . S
C2122 C2124 1.378 . S
C2122 C2126 1.350 . S
C2123 C2126 1.463 . S
C2123 C2128 1.350 . S
C2123 N2131 1.427 . S
C2124 H2115 0.930 . S
C2124 C2122 1.378 . S
C2124 C2125 1.367 . S
C2125 C2124 1.367 . S
C2125 C2127 1.433 . S
C2126 C2122 1.350 . S
C2126 C2123 1.463 . S
C2126 N2130 1.427 . S
C2127 H2117 0.929 . S
C2127 C2125 1.433 . S
C2127 N2130 1.384 . S
C2128 H2119 0.929 . S
C2128 C2120 1.378 . S
C2128 C2123 1.350 . S
C2129 H2116 0.929 . S
C2129 C2121 1.433 . S
C2129 N2131 1.384 . S
N2130 C2126 1.427 . S
N2130 C2127 1.384 . S
N2131 C2123 1.427 . S
N2131 C2129 1.384 . S
H2132 C2138 0.930 . S
H2133 C2142 0.930 . S
H2134 C2147 0.929 . S
H2135 C2145 0.929 . S
H2136 C2140 0.929 . S
H2137 C2146 0.929 . S
C2138 H2132 0.930 . S
C2138 C2139 1.367 . S
C2138 C2146 1.378 . S
C2139 C2138 1.367 . S
C2139 C2147 1.433 . S
C2140 H2136 0.929 . S
C2140 C2142 1.378 . S
C2140 C2144 1.350 . S
C2141 C2144 1.463 . S
C2141 C2146 1.350 . S
C2141 N2149 1.427 . S
C2142 H2133 0.930 . S
C2142 C2140 1.378 . S
C2142 C2143 1.367 . S
C2143 C2142 1.367 . S
C2143 C2145 1.433 . S
C2144 C2140 1.350 . S
C2144 C2141 1.463 . S
C2144 N2148 1.427 . S
C2145 H2135 0.929 . S
C2145 C2143 1.433 . S
C2145 N2148 1.384 . S
C2146 H2137 0.929 . S
C2146 C2138 1.378 . S
C2146 C2141 1.350 . S
C2147 H2134 0.929 . S
C2147 C2139 1.433 . S
C2147 N2149 1.384 . S
N2148 C2144 1.427 . S
N2148 C2145 1.384 . S
N2149 C2141 1.427 . S
N2149 C2147 1.384 . S
H2150 C2156 0.930 . S
H2151 C2160 0.930 . S
H2152 C2165 0.929 . S
H2153 C2163 0.929 . S
H2154 C2158 0.929 . S
H2155 C2164 0.929 . S
C2156 H2150 0.930 . S
C2156 C2157 1.367 . S
C2156 C2164 1.378 . S
C2157 C2156 1.367 . S
C2157 C2165 1.433 . S
C2158 H2154 0.929 . S
C2158 C2160 1.378 . S
C2158 C2162 1.350 . S
C2159 C2162 1.463 1_455 S
C2159 C2164 1.350 . S
C2159 N2167 1.427 . S
C2160 H2151 0.930 . S
C2160 C2158 1.378 . S
C2160 C2161 1.367 . S
C2161 C2160 1.367 . S
C2161 C2163 1.433 . S
C2162 C2158 1.350 . S
C2162 C2159 1.463 1_655 S
C2162 N2166 1.427 . S
C2163 H2153 0.929 . S
C2163 C2161 1.433 . S
C2163 N2166 1.384 . S
C2164 H2155 0.929 . S
C2164 C2156 1.378 . S
C2164 C2159 1.350 . S
C2165 H2152 0.929 . S
C2165 C2157 1.433 . S
C2165 N2167 1.384 . S
N2166 C2162 1.427 . S
N2166 C2163 1.384 . S
N2167 C2159 1.427 . S
N2167 C2165 1.384 . S
H2168 C2174 0.930 . S
H2169 C2178 0.930 . S
H2170 C2183 0.929 . S
H2171 C2181 0.929 . S
H2172 C2176 0.929 . S
H2173 C2182 0.929 . S
C2174 H2168 0.930 . S
C2174 C2175 1.367 . S
C2174 C2182 1.378 . S
C2175 C2174 1.367 . S
C2175 C2183 1.433 . S
C2176 H2172 0.929 . S
C2176 C2178 1.378 . S
C2176 C2180 1.350 . S
C2177 C2180 1.463 . S
C2177 C2182 1.350 . S
C2177 N2185 1.427 . S
C2178 H2169 0.930 . S
C2178 C2176 1.378 . S
C2178 C2179 1.367 . S
C2179 C2178 1.367 . S
C2179 C2181 1.433 . S
C2180 C2176 1.350 . S
C2180 C2177 1.463 . S
C2180 N2184 1.427 . S
C2181 H2171 0.929 . S
C2181 C2179 1.433 . S
C2181 N2184 1.384 . S
C2182 H2173 0.929 . S
C2182 C2174 1.378 . S
C2182 C2177 1.350 . S
C2183 H2170 0.929 . S
C2183 C2175 1.433 . S
C2183 N2185 1.384 . S
N2184 C2180 1.427 . S
N2184 C2181 1.384 . S
N2185 C2177 1.427 . S
N2185 C2183 1.384 . S
H2186 C2192 0.930 . S
H2187 C2196 0.930 . S
H2188 C2201 0.929 . S
H2189 C2199 0.929 . S
H2190 C2194 0.929 1_455 S
H2191 C2200 0.929 1_655 S
C2192 H2186 0.930 . S
C2192 C2193 1.367 . S
C2192 C2200 1.378 . S
C2193 C2192 1.367 . S
C2193 C2201 1.433 . S
C2194 H2190 0.929 1_655 S
C2194 C2196 1.378 . S
C2194 C2198 1.350 . S
C2195 C2198 1.463 1_455 S
C2195 C2200 1.350 . S
C2195 N2203 1.427 . S
C2196 H2187 0.930 . S
C2196 C2194 1.378 . S
C2196 C2197 1.367 . S
C2197 C2196 1.367 . S
C2197 C2199 1.433 . S
C2198 C2194 1.350 . S
C2198 C2195 1.463 1_655 S
C2198 N2202 1.427 . S
C2199 H2189 0.929 . S
C2199 C2197 1.433 . S
C2199 N2202 1.384 . S
C2200 H2191 0.929 1_455 S
C2200 C2192 1.378 . S
C2200 C2195 1.350 . S
C2201 H2188 0.929 . S
C2201 C2193 1.433 . S
C2201 N2203 1.384 . S
N2202 C2198 1.427 . S
N2202 C2199 1.384 . S
N2203 C2195 1.427 . S
N2203 C2201 1.384 . S
H2204 C2210 0.930 . S
H2205 C2214 0.930 . S
H2206 C2219 0.929 . S
H2207 C2217 0.929 . S
H2208 C2212 0.929 . S
H2209 C2218 0.929 . S
C2210 H2204 0.930 . S
C2210 C2211 1.367 . S
C2210 C2218 1.378 . S
C2211 C2210 1.367 . S
C2211 C2219 1.433 . S
C2212 H2208 0.929 . S
C2212 C2214 1.378 . S
C2212 C2216 1.350 . S
C2213 C2216 1.463 . S
C2213 C2218 1.350 . S
C2213 N2221 1.427 . S
C2214 H2205 0.930 . S
C2214 C2212 1.378 . S
C2214 C2215 1.367 . S
C2215 C2214 1.367 . S
C2215 C2217 1.433 . S
C2216 C2212 1.350 . S
C2216 C2213 1.463 . S
C2216 N2220 1.427 . S
C2217 H2207 0.929 . S
C2217 C2215 1.433 . S
C2217 N2220 1.384 . S
C2218 H2209 0.929 . S
C2218 C2210 1.378 . S
C2218 C2213 1.350 . S
C2219 H2206 0.929 . S
C2219 C2211 1.433 . S
C2219 N2221 1.384 . S
N2220 C2216 1.427 . S
N2220 C2217 1.384 . S
N2221 C2213 1.427 . S
N2221 C2219 1.384 . S
H2222 C2228 0.930 . S
H2223 C2232 0.930 . S
H2224 C2237 0.929 . S
H2225 C2235 0.929 . S
H2226 C2230 0.929 . S
H2227 C2236 0.929 . S
C2228 H2222 0.930 . S
C2228 C2229 1.367 . S
C2228 C2236 1.378 . S
C2229 C2228 1.367 . S
C2229 C2237 1.433 . S
C2230 H2226 0.929 . S
C2230 C2232 1.378 . S
C2230 C2234 1.350 . S
C2231 C2234 1.463 . S
C2231 C2236 1.350 . S
C2231 N2239 1.427 . S
C2232 H2223 0.930 . S
C2232 C2230 1.378 . S
C2232 C2233 1.367 . S
C2233 C2232 1.367 . S
C2233 C2235 1.433 . S
C2234 C2230 1.350 . S
C2234 C2231 1.463 . S
C2234 N2238 1.427 . S
C2235 H2225 0.929 . S
C2235 C2233 1.433 . S
C2235 N2238 1.384 . S
C2236 H2227 0.929 . S
C2236 C2228 1.378 . S
C2236 C2231 1.350 . S
C2237 H2224 0.929 . S
C2237 C2229 1.433 . S
C2237 N2239 1.384 . S
N2238 C2234 1.427 . S
N2238 C2235 1.384 . S
N2239 C2231 1.427 . S
N2239 C2237 1.384 . S
H2240 C2246 0.930 . S
H2241 C2250 0.930 . S
H2242 C2255 0.929 . S
H2243 C2253 0.929 . S
H2244 C2248 0.929 . S
H2245 C2254 0.929 . S
C2246 H2240 0.930 . S
C2246 C2247 1.367 . S
C2246 C2254 1.378 . S
C2247 C2246 1.367 . S
C2247 C2255 1.433 . S
C2248 H2244 0.929 . S
C2248 C2250 1.378 . S
C2248 C2252 1.350 . S
C2249 C2252 1.463 . S
C2249 C2254 1.350 . S
C2249 N2257 1.427 . S
C2250 H2241 0.930 . S
C2250 C2248 1.378 . S
C2250 C2251 1.367 . S
C2251 C2250 1.367 . S
C2251 C2253 1.433 . S
C2252 C2248 1.350 . S
C2252 C2249 1.463 . S
C2252 N2256 1.427 . S
C2253 H2243 0.929 . S
C2253 C2251 1.433 . S
C2253 N2256 1.384 . S
C2254 H2245 0.929 . S
C2254 C2246 1.378 . S
C2254 C2249 1.350 . S
C2255 H2242 0.929 . S
C2255 C2247 1.433 . S
C2255 N2257 1.384 . S
N2256 C2252 1.427 . S
N2256 C2253 1.384 . S
N2257 C2249 1.427 . S
N2257 C2255 1.384 . S
H2258 C2264 0.930 . S
H2259 C2268 0.930 . S
H2260 C2273 0.929 . S
H2261 C2271 0.929 . S
H2262 C2266 0.929 1_565 S
H2263 C2272 0.929 . S
C2264 H2258 0.930 . S
C2264 C2265 1.367 . S
C2264 C2272 1.378 1_565 S
C2265 C2264 1.367 . S
C2265 C2273 1.433 . S
C2266 H2262 0.929 1_545 S
C2266 C2268 1.378 . S
C2266 C2270 1.350 . S
C2267 C2270 1.463 1_565 S
C2267 C2272 1.350 1_565 S
C2267 N2275 1.427 . S
C2268 H2259 0.930 . S
C2268 C2266 1.378 . S
C2268 C2269 1.367 . S
C2269 C2268 1.367 . S
C2269 C2271 1.433 . S
C2270 C2266 1.350 . S
C2270 C2267 1.463 1_545 S
C2270 N2274 1.427 . S
C2271 H2261 0.929 . S
C2271 C2269 1.433 . S
C2271 N2274 1.384 . S
C2272 H2263 0.929 . S
C2272 C2264 1.378 1_545 S
C2272 C2267 1.350 1_545 S
C2273 H2260 0.929 . S
C2273 C2265 1.433 . S
C2273 N2275 1.384 . S
N2274 C2270 1.427 . S
N2274 C2271 1.384 . S
N2275 C2267 1.427 . S
N2275 C2273 1.384 . S
H2276 C2282 0.930 . S
H2277 C2286 0.930 . S
H2278 C2291 0.929 . S
H2279 C2289 0.929 . S
H2280 C2284 0.929 . S
H2281 C2290 0.929 . S
C2282 H2276 0.930 . S
C2282 C2283 1.367 . S
C2282 C2290 1.378 . S
C2283 C2282 1.367 . S
C2283 C2291 1.433 . S
C2284 H2280 0.929 . S
C2284 C2286 1.378 . S
C2284 C2288 1.350 . S
C2285 C2288 1.463 1_554 S
C2285 C2290 1.350 . S
C2285 N2293 1.427 . S
C2286 H2277 0.930 . S
C2286 C2284 1.378 . S
C2286 C2287 1.367 . S
C2287 C2286 1.367 . S
C2287 C2289 1.433 . S
C2288 C2284 1.350 . S
C2288 C2285 1.463 1_556 S
C2288 N2292 1.427 . S
C2289 H2279 0.929 . S
C2289 C2287 1.433 . S
C2289 N2292 1.384 . S
C2290 H2281 0.929 . S
C2290 C2282 1.378 . S
C2290 C2285 1.350 . S
C2291 H2278 0.929 . S
C2291 C2283 1.433 . S
C2291 N2293 1.384 . S
N2292 C2288 1.427 . S
N2292 C2289 1.384 . S
N2293 C2285 1.427 . S
N2293 C2291 1.384 . S
H2294 C2300 0.950 . S
H2295 C2304 0.930 . S
H2296 C2309 0.929 . S
H2297 C2307 0.929 . S
H2298 C2302 0.929 1_565 S
H2299 C2308 0.929 . S
C2300 H2294 0.950 . S
C2300 C2301 1.367 . S
C2300 C2308 1.378 1_565 S
C2301 C2300 1.367 . S
C2301 C2309 1.433 . S
C2302 H2298 0.929 1_545 S
C2302 C2304 1.378 . S
C2302 C2306 1.350 . S
C2303 C2306 1.463 1_565 S
C2303 C2308 1.350 1_565 S
C2303 N2311 1.427 . S
C2304 H2295 0.930 . S
C2304 C2302 1.378 . S
C2304 C2305 1.367 . S
C2305 C2304 1.367 . S
C2305 C2307 1.433 . S
C2306 C2302 1.350 . S
C2306 C2303 1.463 1_545 S
C2306 N2310 1.427 . S
C2307 H2297 0.929 . S
C2307 C2305 1.433 . S
C2307 N2310 1.384 . S
C2308 H2299 0.929 . S
C2308 C2300 1.378 1_545 S
C2308 C2303 1.350 1_545 S
C2309 H2296 0.929 . S
C2309 C2301 1.433 . S
C2309 N2311 1.384 . S
N2310 C2306 1.427 . S
N2310 C2307 1.384 . S
N2311 C2303 1.427 . S
N2311 C2309 1.384 . S
H2312 C2318 0.930 . S
H2313 C2322 0.930 . S
H2314 C2327 0.929 . S
H2315 C2325 0.929 . S
H2316 C2320 0.929 . S
H2317 C2326 0.929 . S
C2318 H2312 0.930 . S
C2318 C2319 1.367 . S
C2318 C2326 1.378 . S
C2319 C2318 1.367 . S
C2319 C2327 1.433 . S
C2320 H2316 0.929 . S
C2320 C2322 1.378 . S
C2320 C2324 1.350 . S
C2321 C2324 1.463 . S
C2321 C2326 1.350 . S
C2321 N2329 1.427 . S
C2322 H2313 0.930 . S
C2322 C2320 1.378 . S
C2322 C2323 1.367 . S
C2323 C2322 1.367 . S
C2323 C2325 1.433 . S
C2324 C2320 1.350 . S
C2324 C2321 1.463 . S
C2324 N2328 1.427 . S
C2325 H2315 0.929 . S
C2325 C2323 1.433 . S
C2325 N2328 1.384 . S
C2326 H2317 0.929 . S
C2326 C2318 1.378 . S
C2326 C2321 1.350 . S
C2327 H2314 0.929 . S
C2327 C2319 1.433 . S
C2327 N2329 1.384 . S
N2328 C2324 1.427 . S
N2328 C2325 1.384 . S
N2329 C2321 1.427 . S
N2329 C2327 1.384 . S
H2330 C2336 0.930 . S
H2331 C2340 0.930 . S
H2332 C2345 0.929 1_565 S
H2333 C2343 0.929 . S
H2334 C2338 0.929 . S
H2335 C2344 0.929 . S
C2336 H2330 0.930 . S
C2336 C2337 1.367 . S
C2336 C2344 1.378 . S
C2337 C2336 1.367 . S
C2337 C2345 1.433 . S
C2338 H2334 0.929 . S
C2338 C2340 1.378 . S
C2338 C2342 1.350 . S
C2339 C2342 1.463 1_545 S
C2339 C2344 1.350 . S
C2339 N2347 1.427 1_545 S
C2340 H2331 0.930 . S
C2340 C2338 1.378 . S
C2340 C2341 1.367 . S
C2341 C2340 1.367 . S
C2341 C2343 1.433 . S
C2342 C2338 1.350 . S
C2342 C2339 1.463 1_565 S
C2342 N2346 1.431 . S
C2343 H2333 0.929 . S
C2343 C2341 1.433 . S
C2343 N2346 1.387 . S
C2344 H2335 0.929 . S
C2344 C2336 1.378 . S
C2344 C2339 1.350 . S
C2345 H2332 0.929 1_545 S
C2345 C2337 1.433 . S
C2345 N2347 1.384 1_545 S
N2346 C2342 1.431 . S
N2346 C2343 1.387 . S
N2347 C2339 1.427 1_565 S
N2347 C2345 1.384 1_565 S
H2348 C2354 0.930 . S
H2349 C2358 0.930 . S
H2350 C2363 0.929 . S
H2351 C2361 0.929 . S
H2352 C2356 0.929 . S
H2353 C2362 0.929 . S
C2354 H2348 0.930 . S
C2354 C2355 1.367 . S
C2354 C2362 1.378 . S
C2355 C2354 1.367 . S
C2355 C2363 1.433 . S
C2356 H2352 0.929 . S
C2356 C2358 1.378 . S
C2356 C2360 1.350 . S
C2357 C2360 1.463 1_556 S
C2357 C2362 1.350 . S
C2357 N2365 1.427 . S
C2358 H2349 0.930 . S
C2358 C2356 1.378 . S
C2358 C2359 1.367 . S
C2359 C2358 1.367 . S
C2359 C2361 1.433 . S
C2360 C2356 1.350 . S
C2360 C2357 1.463 1_554 S
C2360 N2364 1.427 . S
C2361 H2351 0.929 . S
C2361 C2359 1.433 . S
C2361 N2364 1.384 . S
C2362 H2353 0.929 . S
C2362 C2354 1.378 . S
C2362 C2357 1.350 . S
C2363 H2350 0.929 . S
C2363 C2355 1.433 . S
C2363 N2365 1.384 . S
N2364 C2360 1.427 . S
N2364 C2361 1.384 . S
N2365 C2357 1.427 . S
N2365 C2363 1.384 . S
H2366 C2372 0.930 . S
H2367 C2376 0.930 . S
H2368 C2381 0.929 1_565 S
H2369 C2379 0.929 . S
H2370 C2374 0.929 . S
H2371 C2380 0.929 . S
C2372 H2366 0.930 . S
C2372 C2373 1.367 . S
C2372 C2380 1.378 . S
C2373 C2372 1.367 . S
C2373 C2381 1.433 . S
C2374 H2370 0.929 . S
C2374 C2376 1.378 . S
C2374 C2378 1.350 . S
C2375 C2378 1.463 1_545 S
C2375 C2380 1.350 . S
C2375 N2383 1.427 1_545 S
C2376 H2367 0.930 . S
C2376 C2374 1.378 . S
C2376 C2377 1.367 . S
C2377 C2376 1.367 . S
C2377 C2379 1.433 . S
C2378 C2374 1.350 . S
C2378 C2375 1.463 1_565 S
C2378 N2382 1.433 . S
C2379 H2369 0.929 . S
C2379 C2377 1.433 . S
C2379 N2382 1.390 . S
C2380 H2371 0.929 . S
C2380 C2372 1.378 . S
C2380 C2375 1.350 . S
C2381 H2368 0.929 1_545 S
C2381 C2373 1.433 . S
C2381 N2383 1.384 1_545 S
N2382 C2378 1.433 . S
N2382 C2379 1.390 . S
N2383 C2375 1.427 1_565 S
N2383 C2381 1.384 1_565 S
H2384 C2390 0.930 . S
H2385 C2394 0.930 . S
H2386 C2399 0.929 . S
H2387 C2397 0.929 . S
H2388 C2392 0.929 . S
H2389 C2398 0.929 . S
C2390 H2384 0.930 . S
C2390 C2391 1.367 . S
C2390 C2398 1.378 . S
C2391 C2390 1.367 . S
C2391 C2399 1.433 . S
C2392 H2388 0.929 . S
C2392 C2394 1.378 . S
C2392 C2396 1.350 . S
C2393 C2396 1.463 1_556 S
C2393 C2398 1.350 . S
C2393 N2401 1.427 . S
C2394 H2385 0.930 . S
C2394 C2392 1.378 . S
C2394 C2395 1.367 . S
C2395 C2394 1.367 . S
C2395 C2397 1.433 . S
C2396 C2392 1.350 . S
C2396 C2393 1.463 1_554 S
C2396 N2400 1.427 . S
C2397 H2387 0.929 . S
C2397 C2395 1.433 . S
C2397 N2400 1.384 . S
C2398 H2389 0.929 . S
C2398 C2390 1.378 . S
C2398 C2393 1.350 . S
C2399 H2386 0.929 . S
C2399 C2391 1.433 . S
C2399 N2401 1.384 . S
N2400 C2396 1.427 . S
N2400 C2397 1.384 . S
N2401 C2393 1.427 . S
N2401 C2399 1.384 . S
H2402 C2408 0.930 . S
H2403 C2412 0.930 . S
H2404 C2417 0.929 . S
H2405 C2415 0.929 . S
H2406 C2410 0.929 . S
H2407 C2416 0.929 . S
C2408 H2402 0.930 . S
C2408 C2409 1.367 . S
C2408 C2416 1.378 . S
C2409 C2408 1.367 . S
C2409 C2417 1.433 . S
C2410 H2406 0.929 . S
C2410 C2412 1.378 . S
C2410 C2414 1.350 . S
C2411 C2414 1.463 . S
C2411 C2416 1.350 . S
C2411 N2419 1.427 . S
C2412 H2403 0.930 . S
C2412 C2410 1.378 . S
C2412 C2413 1.367 . S
C2413 C2412 1.367 . S
C2413 C2415 1.433 . S
C2414 C2410 1.350 . S
C2414 C2411 1.463 . S
C2414 N2418 1.427 . S
C2415 H2405 0.929 . S
C2415 C2413 1.433 . S
C2415 N2418 1.384 . S
C2416 H2407 0.929 . S
C2416 C2408 1.378 . S
C2416 C2411 1.350 . S
C2417 H2404 0.929 . S
C2417 C2409 1.433 . S
C2417 N2419 1.384 . S
N2418 C2414 1.427 . S
N2418 C2415 1.384 . S
N2419 C2411 1.427 . S
N2419 C2417 1.384 . S
H2420 C2426 0.930 . S
H2421 C2430 0.930 . S
H2422 C2435 0.929 . S
H2423 C2433 0.929 . S
H2424 C2428 0.929 . S
H2425 C2434 0.929 . S
C2426 H2420 0.930 . S
C2426 C2427 1.367 . S
C2426 C2434 1.378 . S
C2427 C2426 1.367 . S
C2427 C2435 1.433 . S
C2428 H2424 0.929 . S
C2428 C2430 1.378 . S
C2428 C2432 1.350 . S
C2429 C2432 1.463 . S
C2429 C2434 1.350 . S
C2429 N2437 1.427 . S
C2430 H2421 0.930 . S
C2430 C2428 1.378 . S
C2430 C2431 1.367 . S
C2431 C2430 1.367 . S
C2431 C2433 1.433 . S
C2432 C2428 1.350 . S
C2432 C2429 1.463 . S
C2432 N2436 1.427 . S
C2433 H2423 0.929 . S
C2433 C2431 1.433 . S
C2433 N2436 1.384 . S
C2434 H2425 0.929 . S
C2434 C2426 1.378 . S
C2434 C2429 1.350 . S
C2435 H2422 0.929 . S
C2435 C2427 1.433 . S
C2435 N2437 1.384 . S
N2436 C2432 1.427 . S
N2436 C2433 1.384 . S
N2437 C2429 1.427 . S
N2437 C2435 1.384 . S
H2438 C2444 0.930 . S
H2439 C2448 0.930 . S
H2440 C2453 0.929 . S
H2441 C2451 0.929 . S
H2442 C2446 0.929 . S
H2443 C2452 0.929 . S
C2444 H2438 0.930 . S
C2444 C2445 1.367 . S
C2444 C2452 1.378 . S
C2445 C2444 1.367 . S
C2445 C2453 1.433 . S
C2446 H2442 0.929 . S
C2446 C2448 1.378 . S
C2446 C2450 1.350 . S
C2447 C2450 1.463 . S
C2447 C2452 1.350 . S
C2447 N2455 1.427 . S
C2448 H2439 0.930 . S
C2448 C2446 1.378 . S
C2448 C2449 1.367 . S
C2449 C2448 1.367 . S
C2449 C2451 1.433 . S
C2450 C2446 1.350 . S
C2450 C2447 1.463 . S
C2450 N2454 1.427 . S
C2451 H2441 0.929 . S
C2451 C2449 1.433 . S
C2451 N2454 1.384 . S
C2452 H2443 0.929 . S
C2452 C2444 1.378 . S
C2452 C2447 1.350 . S
C2453 H2440 0.929 . S
C2453 C2445 1.433 . S
C2453 N2455 1.384 . S
N2454 C2450 1.427 . S
N2454 C2451 1.384 . S
N2455 C2447 1.427 . S
N2455 C2453 1.384 . S
H2456 C2462 0.930 . S
H2457 C2466 0.930 . S
H2458 C2471 0.929 . S
H2459 C2469 0.929 . S
H2460 C2464 0.929 . S
H2461 C2470 0.929 . S
C2462 H2456 0.930 . S
C2462 C2463 1.367 . S
C2462 C2470 1.378 . S
C2463 C2462 1.367 . S
C2463 C2471 1.433 . S
C2464 H2460 0.929 . S
C2464 C2466 1.378 . S
C2464 C2468 1.350 . S
C2465 C2468 1.463 1_556 S
C2465 C2470 1.350 . S
C2465 N2473 1.427 . S
C2466 H2457 0.930 . S
C2466 C2464 1.378 . S
C2466 C2467 1.367 . S
C2467 C2466 1.367 . S
C2467 C2469 1.433 . S
C2468 C2464 1.350 . S
C2468 C2465 1.463 1_554 S
C2468 N2472 1.427 . S
C2469 H2459 0.929 . S
C2469 C2467 1.433 . S
C2469 N2472 1.384 . S
C2470 H2461 0.929 . S
C2470 C2462 1.378 . S
C2470 C2465 1.350 . S
C2471 H2458 0.929 . S
C2471 C2463 1.433 . S
C2471 N2473 1.384 . S
N2472 C2468 1.427 . S
N2472 C2469 1.384 . S
N2473 C2465 1.427 . S
N2473 C2471 1.384 . S
H2474 C2480 0.930 . S
H2475 C2484 0.930 . S
H2476 C2489 0.929 . S
H2477 C2487 0.929 . S
H2478 C2482 0.929 . S
H2479 C2488 0.929 . S
C2480 H2474 0.930 . S
C2480 C2481 1.367 . S
C2480 C2488 1.378 . S
C2481 C2480 1.367 . S
C2481 C2489 1.433 . S
C2482 H2478 0.929 . S
C2482 C2484 1.378 . S
C2482 C2486 1.350 . S
C2483 C2486 1.463 . S
C2483 C2488 1.350 . S
C2483 N2491 1.427 . S
C2484 H2475 0.930 . S
C2484 C2482 1.378 . S
C2484 C2485 1.367 . S
C2485 C2484 1.367 . S
C2485 C2487 1.433 . S
C2486 C2482 1.350 . S
C2486 C2483 1.463 . S
C2486 N2490 1.427 . S
C2487 H2477 0.929 . S
C2487 C2485 1.433 . S
C2487 N2490 1.384 . S
C2488 H2479 0.929 . S
C2488 C2480 1.378 . S
C2488 C2483 1.350 . S
C2489 H2476 0.929 . S
C2489 C2481 1.433 . S
C2489 N2491 1.384 . S
N2490 C2486 1.427 . S
N2490 C2487 1.384 . S
N2491 C2483 1.427 . S
N2491 C2489 1.384 . S
H2492 C2498 0.930 . S
H2493 C2502 0.930 . S
H2494 C2507 0.929 . S
H2495 C2505 0.929 . S
H2496 C2500 0.929 . S
H2497 C2506 0.929 . S
C2498 H2492 0.930 . S
C2498 C2499 1.367 . S
C2498 C2506 1.378 . S
C2499 C2498 1.367 . S
C2499 C2507 1.433 . S
C2500 H2496 0.929 . S
C2500 C2502 1.378 . S
C2500 C2504 1.350 . S
C2501 C2504 1.463 . S
C2501 C2506 1.350 . S
C2501 N2509 1.427 . S
C2502 H2493 0.930 . S
C2502 C2500 1.378 . S
C2502 C2503 1.367 . S
C2503 C2502 1.367 . S
C2503 C2505 1.433 . S
C2504 C2500 1.350 . S
C2504 C2501 1.463 . S
C2504 N2508 1.427 . S
C2505 H2495 0.929 . S
C2505 C2503 1.433 . S
C2505 N2508 1.384 . S
C2506 H2497 0.929 . S
C2506 C2498 1.378 . S
C2506 C2501 1.350 . S
C2507 H2494 0.929 . S
C2507 C2499 1.433 . S
C2507 N2509 1.384 . S
N2508 C2504 1.427 . S
N2508 C2505 1.384 . S
N2509 C2501 1.427 . S
N2509 C2507 1.384 . S
H2510 C2516 0.930 . S
H2511 C2520 0.930 . S
H2512 C2525 0.929 . S
H2513 C2523 0.929 . S
H2514 C2518 0.929 . S
H2515 C2524 0.929 . S
C2516 H2510 0.930 . S
C2516 C2517 1.367 . S
C2516 C2524 1.378 . S
C2517 C2516 1.367 . S
C2517 C2525 1.433 . S
C2518 H2514 0.929 . S
C2518 C2520 1.378 . S
C2518 C2522 1.350 . S
C2519 C2522 1.463 . S
C2519 C2524 1.350 . S
C2519 N2527 1.427 . S
C2520 H2511 0.930 . S
C2520 C2518 1.378 . S
C2520 C2521 1.367 . S
C2521 C2520 1.367 . S
C2521 C2523 1.433 . S
C2522 C2518 1.350 . S
C2522 C2519 1.463 . S
C2522 N2526 1.427 . S
C2523 H2513 0.929 . S
C2523 C2521 1.433 . S
C2523 N2526 1.384 . S
C2524 H2515 0.929 . S
C2524 C2516 1.378 . S
C2524 C2519 1.350 . S
C2525 H2512 0.929 . S
C2525 C2517 1.433 . S
C2525 N2527 1.384 . S
N2526 C2522 1.427 . S
N2526 C2523 1.384 . S
N2527 C2519 1.427 . S
N2527 C2525 1.384 . S
C1095 C818 1.170 . S
C1099 C2 1.168 . S
C1113 C36 0.510 . S
C1117 C308 0.510 . S
C1131 C70 1.152 . S
C1135 C886 1.150 . S
C1149 C104 0.605 . S
C1153 C376 0.606 . S
C1167 C138 1.168 . S
C1171 C954 1.166 . S
C1185 C172 0.510 . S
C1189 C444 0.510 . S
C1203 C1022 1.176 . S
C1207 C206 1.174 . S
C1221 C240 0.614 . S
C1225 C512 0.616 . S
C1239 C546 1.177 . S
C1243 C274 1.175 . S
C1257 C614 1.144 . S
C1261 C342 1.146 . S
C1275 C682 1.153 . S
C1279 C410 1.155 . S
C1293 C750 1.147 . S
C1297 C478 1.144 . S
C1311 C580 0.612 . S
C1315 C852 0.614 . S
C1329 C648 0.494 . S
C1333 C920 0.494 . S
C1347 C716 0.610 . S
C1351 C988 0.611 . S
C1365 C784 0.506 . S
C1369 C1056 0.506 . S
C1383 C20 1.592 . S
C1387 C258 1.639 . S
C1401 C54 1.575 . S
C1405 C156 1.530 . S
C1419 C190 1.574 . S
C1423 C88 1.531 . S
C1437 C224 1.590 . S
C1441 C122 1.638 . S
C1455 C292 1.595 . S
C1459 C530 1.641 . S
C1473 C428 1.519 . S
C1477 C326 1.570 . S
C1491 C462 1.568 . S
C1495 C360 1.518 . S
C1509 C496 1.596 . S
C1513 C394 1.644 . S
C1527 C564 1.525 . S
C1531 C802 1.573 . S
C1545 C700 1.598 . S
C1549 C598 1.643 . S
C1563 C734 1.642 . S
C1567 C632 1.594 . S
C1581 C666 1.572 . S
C1585 C768 1.522 . S
C1599 C836 1.530 . S
C1603 C1074 1.575 . S
C1617 C870 1.639 . S
C1621 C972 1.594 . S
C1635 C1006 1.637 . S
C1639 C904 1.591 . S
C1653 C938 1.574 . S
C1657 C1040 1.529 . S
C1671 C9 1.122 1_556 S
C1675 C1053 1.145 . S
C1689 C543 0.765 . S
C1693 C43 0.777 . S
C1707 C77 1.137 . S
C1711 C985 1.175 . S
C1725 C111 1.079 . S
C1729 C475 1.093 . S
C1743 C917 1.172 . S
C1747 C145 1.147 . S
C1761 C179 0.762 . S
C1765 C407 0.757 . S
C1779 C213 1.110 1_554 S
C1783 C849 1.147 . S
C1797 C247 1.067 . S
C1801 C339 1.082 . S
C1815 C781 1.148 . S
C1819 C281 1.128 1_554 S
C1833 C271 0.780 . S
C1837 C315 0.764 . S
C1851 C349 1.124 . S
C1855 C713 1.165 . S
C1869 C203 1.082 . S
C1873 C383 1.067 . S
C1887 C417 1.147 . S
C1891 C645 1.172 . S
C1905 C451 0.772 . S
C1909 C135 0.779 . S
C1923 C577 1.157 . S
C1927 C485 1.118 1_556 S
C1941 C67 1.089 . S
C1945 C519 1.083 . S
C1959 C509 1.160 . S
C1963 C553 1.127 . S
C1977 C587 1.081 . S
C1981 C1087 1.092 . S
C1995 C621 1.110 1_556 S
C1999 C441 1.146 . S
C2013 C655 0.773 . S
C2017 C1019 0.779 . S
C2031 C373 1.149 . S
C2035 C689 1.110 1_554 S
C2049 C723 1.065 . S
C2053 C951 1.083 . S
C2067 C757 1.140 . S
C2071 C305 1.163 . S
C2085 C791 0.763 . S
C2089 C883 0.757 . S
C2103 C825 1.147 . S
C2107 C237 1.170 . S
C2121 C859 1.065 . S
C2125 C815 1.090 . S
C2139 C893 1.118 1_554 S
C2143 C169 1.143 . S
C2157 C927 0.776 . S
C2161 C747 0.778 . S
C2175 C101 1.144 . S
C2179 C961 1.119 1_556 S
C2193 C995 1.068 . S
C2197 C679 1.092 . S
C2211 C1029 1.147 . S
C2215 C33 1.170 . S
C2229 C611 0.779 . S
C2233 C1063 0.762 . S
C2247 C5 1.915 . S
C2251 C209 1.906 . S
C2265 C39 1.191 . S
C2269 C243 1.199 . S
C2283 C141 1.881 . S
C2287 C73 1.891 . S
C2301 C175 1.192 . S
C2305 C107 1.196 . S
C2319 C481 1.906 . S
C2323 C277 1.915 . S
C2337 C311 1.202 . S
C2341 C515 1.202 . S
C2355 C413 1.891 . S
C2359 C345 1.881 . S
C2373 C447 1.203 . S
C2377 C379 1.201 . S
C2391 C549 1.882 . S
C2395 C753 1.890 . S
C2409 C583 1.193 . S
C2413 C787 1.203 . S
C2427 C685 1.914 . S
C2431 C617 1.906 . S
C2445 C651 1.192 . S
C2449 C719 1.196 . S
C2463 C1025 1.882 . S
C2467 C821 1.889 . S
C2481 C1059 1.203 . S
C2485 C855 1.201 . S
C2499 C889 1.912 . S
C2503 C957 1.904 . S
C2517 C991 1.199 . S
C2521 C923 1.189 . S
