# Generated by pormake.
# Topology uke, (4)-cn, num edge types: 1
# Building blocks:
#     Node 0, Type 0, BuildingBlock: UXUYUI_clean_sbu_0, # of connection points: 4
#     Node 1, Type 0, BuildingBlock: UXUYUI_clean_sbu_0, # of connection points: 4
#     Node 2, Type 0, BuildingBlock: UXUYUI_clean_sbu_0, # of connection points: 4
#     Node 3, Type 0, BuildingBlock: UXUYUI_clean_sbu_0, # of connection points: 4
#     Node 4, Type 0, BuildingBlock: UXUYUI_clean_sbu_0, # of connection points: 4
#     Node 5, Type 0, BuildingBlock: UXUYUI_clean_sbu_0, # of connection points: 4
#     Node 6, Type 0, BuildingBlock: UXUYUI_clean_sbu_0, # of connection points: 4
#     Node 7, Type 0, BuildingBlock: UXUYUI_clean_sbu_0, # of connection points: 4
#     Node 8, Type 0, BuildingBlock: UXUYUI_clean_sbu_0, # of connection points: 4
#     Node 9, Type 0, BuildingBlock: UXUYUI_clean_sbu_0, # of connection points: 4
#     Node 10, Type 0, BuildingBlock: UXUYUI_clean_sbu_0, # of connection points: 4
#     Node 11, Type 0, BuildingBlock: UXUYUI_clean_sbu_0, # of connection points: 4
#     Node 12, Type 0, BuildingBlock: UXUYUI_clean_sbu_0, # of connection points: 4
#     Node 13, Type 0, BuildingBlock: UXUYUI_clean_sbu_0, # of connection points: 4
#     Node 14, Type 0, BuildingBlock: UXUYUI_clean_sbu_0, # of connection points: 4
#     Node 15, Type 0, BuildingBlock: UXUYUI_clean_sbu_0, # of connection points: 4
#     Node 16, Type 0, BuildingBlock: UXUYUI_clean_sbu_0, # of connection points: 4
#     Node 17, Type 0, BuildingBlock: UXUYUI_clean_sbu_0, # of connection points: 4
#     Node 18, Type 0, BuildingBlock: UXUYUI_clean_sbu_0, # of connection points: 4
#     Node 19, Type 0, BuildingBlock: UXUYUI_clean_sbu_0, # of connection points: 4
#     Node 20, Type 0, BuildingBlock: UXUYUI_clean_sbu_0, # of connection points: 4
#     Node 21, Type 0, BuildingBlock: UXUYUI_clean_sbu_0, # of connection points: 4
#     Node 22, Type 0, BuildingBlock: UXUYUI_clean_sbu_0, # of connection points: 4
#     Node 23, Type 0, BuildingBlock: UXUYUI_clean_sbu_0, # of connection points: 4
#     Node 24, Type 0, BuildingBlock: UXUYUI_clean_sbu_0, # of connection points: 4
#     Node 25, Type 0, BuildingBlock: UXUYUI_clean_sbu_0, # of connection points: 4
#     Node 26, Type 0, BuildingBlock: UXUYUI_clean_sbu_0, # of connection points: 4
#     Node 27, Type 0, BuildingBlock: UXUYUI_clean_sbu_0, # of connection points: 4
#     Node 28, Type 0, BuildingBlock: UXUYUI_clean_sbu_0, # of connection points: 4
#     Node 29, Type 0, BuildingBlock: UXUYUI_clean_sbu_0, # of connection points: 4
#     Node 30, Type 0, BuildingBlock: UXUYUI_clean_sbu_0, # of connection points: 4
#     Node 31, Type 0, BuildingBlock: UXUYUI_clean_sbu_0, # of connection points: 4
#     Edge 32, Type (0, 0), BuildingBlock: AJUNOK_clean_linker_0, # of connection points: 2
#     Edge 33, Type (0, 0), BuildingBlock: AJUNOK_clean_linker_0, # of connection points: 2
#     Edge 34, Type (0, 0), BuildingBlock: AJUNOK_clean_linker_0, # of connection points: 2
#     Edge 35, Type (0, 0), BuildingBlock: AJUNOK_clean_linker_0, # of connection points: 2
#     Edge 36, Type (0, 0), BuildingBlock: AJUNOK_clean_linker_0, # of connection points: 2
#     Edge 37, Type (0, 0), BuildingBlock: AJUNOK_clean_linker_0, # of connection points: 2
#     Edge 38, Type (0, 0), BuildingBlock: AJUNOK_clean_linker_0, # of connection points: 2
#     Edge 39, Type (0, 0), BuildingBlock: AJUNOK_clean_linker_0, # of connection points: 2
#     Edge 40, Type (0, 0), BuildingBlock: AJUNOK_clean_linker_0, # of connection points: 2
#     Edge 41, Type (0, 0), BuildingBlock: AJUNOK_clean_linker_0, # of connection points: 2
#     Edge 42, Type (0, 0), BuildingBlock: AJUNOK_clean_linker_0, # of connection points: 2
#     Edge 43, Type (0, 0), BuildingBlock: AJUNOK_clean_linker_0, # of connection points: 2
#     Edge 44, Type (0, 0), BuildingBlock: AJUNOK_clean_linker_0, # of connection points: 2
#     Edge 45, Type (0, 0), BuildingBlock: AJUNOK_clean_linker_0, # of connection points: 2
#     Edge 46, Type (0, 0), BuildingBlock: AJUNOK_clean_linker_0, # of connection points: 2
#     Edge 47, Type (0, 0), BuildingBlock: AJUNOK_clean_linker_0, # of connection points: 2
#     Edge 48, Type (0, 0), BuildingBlock: AJUNOK_clean_linker_0, # of connection points: 2
#     Edge 49, Type (0, 0), BuildingBlock: AJUNOK_clean_linker_0, # of connection points: 2
#     Edge 50, Type (0, 0), BuildingBlock: AJUNOK_clean_linker_0, # of connection points: 2
#     Edge 51, Type (0, 0), BuildingBlock: AJUNOK_clean_linker_0, # of connection points: 2
#     Edge 52, Type (0, 0), BuildingBlock: AJUNOK_clean_linker_0, # of connection points: 2
#     Edge 53, Type (0, 0), BuildingBlock: AJUNOK_clean_linker_0, # of connection points: 2
#     Edge 54, Type (0, 0), BuildingBlock: AJUNOK_clean_linker_0, # of connection points: 2
#     Edge 55, Type (0, 0), BuildingBlock: AJUNOK_clean_linker_0, # of connection points: 2
#     Edge 56, Type (0, 0), BuildingBlock: AJUNOK_clean_linker_0, # of connection points: 2
#     Edge 57, Type (0, 0), BuildingBlock: AJUNOK_clean_linker_0, # of connection points: 2
#     Edge 58, Type (0, 0), BuildingBlock: AJUNOK_clean_linker_0, # of connection points: 2
#     Edge 59, Type (0, 0), BuildingBlock: AJUNOK_clean_linker_0, # of connection points: 2
#     Edge 60, Type (0, 0), BuildingBlock: AJUNOK_clean_linker_0, # of connection points: 2
#     Edge 61, Type (0, 0), BuildingBlock: AJUNOK_clean_linker_0, # of connection points: 2
#     Edge 62, Type (0, 0), BuildingBlock: AJUNOK_clean_linker_0, # of connection points: 2
#     Edge 63, Type (0, 0), BuildingBlock: AJUNOK_clean_linker_0, # of connection points: 2
#     Edge 64, Type (0, 0), BuildingBlock: AJUNOK_clean_linker_0, # of connection points: 2
#     Edge 65, Type (0, 0), BuildingBlock: AJUNOK_clean_linker_0, # of connection points: 2
#     Edge 66, Type (0, 0), BuildingBlock: AJUNOK_clean_linker_0, # of connection points: 2
#     Edge 67, Type (0, 0), BuildingBlock: AJUNOK_clean_linker_0, # of connection points: 2
#     Edge 68, Type (0, 0), BuildingBlock: AJUNOK_clean_linker_0, # of connection points: 2
#     Edge 69, Type (0, 0), BuildingBlock: AJUNOK_clean_linker_0, # of connection points: 2
#     Edge 70, Type (0, 0), BuildingBlock: AJUNOK_clean_linker_0, # of connection points: 2
#     Edge 71, Type (0, 0), BuildingBlock: AJUNOK_clean_linker_0, # of connection points: 2
#     Edge 72, Type (0, 0), BuildingBlock: AJUNOK_clean_linker_0, # of connection points: 2
#     Edge 73, Type (0, 0), BuildingBlock: AJUNOK_clean_linker_0, # of connection points: 2
#     Edge 74, Type (0, 0), BuildingBlock: AJUNOK_clean_linker_0, # of connection points: 2
#     Edge 75, Type (0, 0), BuildingBlock: AJUNOK_clean_linker_0, # of connection points: 2
#     Edge 76, Type (0, 0), BuildingBlock: AJUNOK_clean_linker_0, # of connection points: 2
#     Edge 77, Type (0, 0), BuildingBlock: AJUNOK_clean_linker_0, # of connection points: 2
#     Edge 78, Type (0, 0), BuildingBlock: AJUNOK_clean_linker_0, # of connection points: 2
#     Edge 79, Type (0, 0), BuildingBlock: AJUNOK_clean_linker_0, # of connection points: 2
#     Edge 80, Type (0, 0), BuildingBlock: AJUNOK_clean_linker_0, # of connection points: 2
#     Edge 81, Type (0, 0), BuildingBlock: AJUNOK_clean_linker_0, # of connection points: 2
#     Edge 82, Type (0, 0), BuildingBlock: AJUNOK_clean_linker_0, # of connection points: 2
#     Edge 83, Type (0, 0), BuildingBlock: AJUNOK_clean_linker_0, # of connection points: 2
#     Edge 84, Type (0, 0), BuildingBlock: AJUNOK_clean_linker_0, # of connection points: 2
#     Edge 85, Type (0, 0), BuildingBlock: AJUNOK_clean_linker_0, # of connection points: 2
#     Edge 86, Type (0, 0), BuildingBlock: AJUNOK_clean_linker_0, # of connection points: 2
#     Edge 87, Type (0, 0), BuildingBlock: AJUNOK_clean_linker_0, # of connection points: 2
#     Edge 88, Type (0, 0), BuildingBlock: AJUNOK_clean_linker_0, # of connection points: 2
#     Edge 89, Type (0, 0), BuildingBlock: AJUNOK_clean_linker_0, # of connection points: 2
#     Edge 90, Type (0, 0), BuildingBlock: AJUNOK_clean_linker_0, # of connection points: 2
#     Edge 91, Type (0, 0), BuildingBlock: AJUNOK_clean_linker_0, # of connection points: 2
#     Edge 92, Type (0, 0), BuildingBlock: AJUNOK_clean_linker_0, # of connection points: 2
#     Edge 93, Type (0, 0), BuildingBlock: AJUNOK_clean_linker_0, # of connection points: 2
#     Edge 94, Type (0, 0), BuildingBlock: AJUNOK_clean_linker_0, # of connection points: 2
#     Edge 95, Type (0, 0), BuildingBlock: AJUNOK_clean_linker_0, # of connection points: 2
# Relax obj value: 0.349
# Max RMSD: 0.294
# Mean RMSD: 0.293
data_MOF--net-uke--node1-UXUYUI_clean_sbu_0--edge1-AJUNOK_clean_linker_0
_symmetry_space_group_name_H-M    P1
_symmetry_Int_Tables_number       1
_symmetry_cell_setting            triclinic
loop_
_symmetry_equiv_pos_as_xyz
'x, y, z'
_cell_length_a     32.0344
_cell_length_b     124.97886
_cell_length_c     56.245864
_cell_angle_alpha  89.999902
_cell_angle_beta   90.002047
_cell_angle_gamma 89.99594
loop_
_atom_site_label
_atom_site_type_symbol
_atom_site_fract_x
_atom_site_fract_y
_atom_site_fract_z
_atom_type_partial_charge
Li0 Li 0.05858 0.05357 0.29364 0.0
Li1 Li 0.11381 0.067 0.29189 0.0
Li2 Li 0.09243 0.05849 0.25643 0.0
Li3 Li 0.13383 0.04861 0.28467 0.0
C4 C 0.03816 0.07413 0.26209 0.0
N5 N 0.9988 0.0874 0.22983 0.0
C6 C 0.05643 0.08386 0.2556 0.0
C7 C -0.0003 0.0712 0.25236 0.0
C8 C 0.03608 0.09044 0.23922 0.0
C9 C 0.98035 0.078 0.23602 0.0
C10 C 0.1252 0.05903 0.33438 0.0
C11 C 0.18359 0.06593 0.35662 0.0
N12 N 0.15718 0.06878 0.37448 0.0
C13 C 0.09862 0.06197 0.35297 0.0
C14 C 0.16803 0.06097 0.33621 0.0
C15 C 0.11541 0.06691 0.37309 0.0
C16 C 0.00154 0.03986 0.3179 0.0
N17 N 0.00955 0.04995 0.31012 0.0
C18 C 0.94825 0.05661 0.32895 0.0
C19 C 0.98376 0.05825 0.31519 0.0
C20 C 0.93935 0.04634 0.33766 0.0
C21 C 0.96619 0.03785 0.3318 0.0
H22 H 0.02294 0.03344 0.31365 0.0
H23 H 0.99138 0.0662 0.309 0.0
C24 C 0.15834 0.08649 0.29586 0.0
N25 N 0.12632 0.0806 0.30478 0.0
C26 C 0.16043 0.09746 0.30048 0.0
C27 C 0.09821 0.09589 0.3246 0.0
C28 C 0.09699 0.085 0.31927 0.0
C29 C 0.12941 0.1023 0.31447 0.0
H30 H 0.18043 0.08283 0.28382 0.0
H31 H 0.07096 0.0802 0.32528 0.0
C32 C 0.05704 0.03732 0.25532 0.0
N33 N 0.00815 0.02384 0.22812 0.0
C34 C 0.07526 0.02881 0.24297 0.0
C35 C 0.01391 0.0389 0.25404 0.0
C36 C 0.05003 0.02211 0.22924 0.0
C37 C 0.98974 0.03201 0.24014 0.0
C38 C 0.17855 0.05856 0.24926 0.0
C39 C 0.17078 0.04945 0.23552 0.0
C40 C 0.21427 0.06467 0.24485 0.0
C41 C 0.19891 0.04659 0.21764 0.0
C42 C 0.24168 0.06154 0.22682 0.0
N43 N 0.23349 0.05264 0.2137 0.0
C44 C 0.1099 0.0696 0.21527 0.0
C45 C 0.06736 0.05449 0.2074 0.0
C46 C 0.11652 0.07121 0.19107 0.0
N47 N 0.08688 0.06114 0.223 0.0
C48 C 0.07292 0.05586 0.18296 0.0
C49 C 0.09881 0.06411 0.17467 0.0
H50 H 0.12523 0.07475 0.22801 0.0
H51 H 0.04921 0.04783 0.21372 0.0
C52 C 0.15509 0.0273 0.29009 0.0
N53 N 0.17235 0.03713 0.28706 0.0
C54 C 0.17888 0.01811 0.28639 0.0
C55 C 0.23828 0.02934 0.27746 0.0
C56 C 0.21354 0.03832 0.28188 0.0
C57 C 0.2207 0.01905 0.27915 0.0
H58 H 0.12217 0.02661 0.2941 0.0
H59 H 0.22656 0.04623 0.27963 0.0
O60 O 0.05786 0.0675 0.27786 0.0
O61 O 0.10932 0.05438 0.31436 0.0
O62 O 0.08123 0.04389 0.26905 0.0
O63 O 0.15106 0.06168 0.2666 0.0
H64 H 0.08621 0.08625 0.2629 0.0
H65 H 0.98493 0.06375 0.25734 0.0
H66 H 0.04999 0.09796 0.23393 0.0
H67 H 0.95065 0.07581 0.22827 0.0
H68 H 0.21665 0.06754 0.35826 0.0
H69 H 0.06536 0.06052 0.35174 0.0
H70 H 0.18892 0.05874 0.3219 0.0
H71 H 0.09523 0.06928 0.38758 0.0
H72 H 0.92859 0.06339 0.33332 0.0
H73 H 0.96005 0.0298 0.33801 0.0
H74 H 0.18471 0.10221 0.29222 0.0
H75 H 0.07328 0.0994 0.33502 0.0
H76 H 0.10854 0.02739 0.24394 0.0
H77 H -0.00077 0.04539 0.26357 0.0
H78 H 0.06373 0.01552 0.21952 0.0
H79 H 0.95634 0.03317 0.23891 0.0
H80 H 0.1433 0.04465 0.23853 0.0
H81 H 0.22073 0.07177 0.25522 0.0
H82 H 0.1932 0.03956 0.20689 0.0
H83 H 0.26943 0.06619 0.22323 0.0
H84 H 0.13655 0.07768 0.18527 0.0
H85 H 0.05908 0.05016 0.17077 0.0
H86 H 0.16421 0.01034 0.28821 0.0
H87 H 0.27005 0.0305 0.27145 0.0
Li88 Li 0.18809 0.19625 0.29123 0.0
Li89 Li 0.13103 0.18333 0.29095 0.0
Li90 Li 0.15402 0.1906 0.25456 0.0
Li91 Li 0.11375 0.20163 0.28119 0.0
C92 C 0.20615 0.17463 0.26273 0.0
N93 N 0.24433 0.16001 0.23298 0.0
C94 C 0.18656 0.16492 0.2575 0.0
C95 C 0.24534 0.17686 0.25301 0.0
C96 C 0.20632 0.15764 0.24238 0.0
C97 C 0.26407 0.16938 0.23795 0.0
C98 C 0.12172 0.19226 0.33244 0.0
C99 C 0.06389 0.18604 0.35609 0.0
N100 N 0.09089 0.1834 0.37382 0.0
C101 C 0.14891 0.18955 0.3509 0.0
C102 C 0.07886 0.19056 0.33503 0.0
C103 C 0.1327 0.18506 0.37169 0.0
C104 C 0.24505 0.21024 0.31436 0.0
N105 N 0.23733 0.20003 0.30734 0.0
C106 C 0.29903 0.19379 0.32647 0.0
C107 C 0.26346 0.19186 0.31294 0.0
C108 C 0.30758 0.2042 0.33443 0.0
C109 C 0.28041 0.21254 0.32802 0.0
H110 H 0.2234 0.21655 0.30969 0.0
H111 H 0.25607 0.1838 0.30734 0.0
C112 C 0.08375 0.16441 0.29658 0.0
N113 N 0.11646 0.17013 0.3052 0.0
C114 C 0.08079 0.15348 0.30137 0.0
C115 C 0.1434 0.15477 0.32524 0.0
C116 C 0.14546 0.16564 0.31975 0.0
C117 C 0.11169 0.1485 0.31522 0.0
H118 H 0.06199 0.16813 0.28444 0.0
H119 H 0.17208 0.1703 0.32548 0.0
C120 C 0.19288 0.21126 0.25076 0.0
N121 N 0.24481 0.2233 0.22205 0.0
C122 C 0.17655 0.21961 0.23705 0.0
C123 C 0.23567 0.20911 0.25001 0.0
C124 C 0.2033 0.22558 0.2226 0.0
C125 C 0.2614 0.21527 0.23536 0.0
C126 C 0.06807 0.19123 0.24694 0.0
C127 C 0.07727 0.19994 0.23221 0.0
C128 C 0.03182 0.18528 0.24286 0.0
C129 C 0.05004 0.20256 0.21372 0.0
C130 C 0.00535 0.18816 0.22417 0.0
N131 N 0.01493 0.19666 0.21011 0.0
C132 C 0.13531 0.17848 0.2151 0.0
C133 C 0.17812 0.19327 0.20506 0.0
C134 C 0.12712 0.17647 0.1912 0.0
N135 N 0.15908 0.18701 0.2216 0.0
C136 C 0.17079 0.19154 0.1809 0.0
C137 C 0.14358 0.18333 0.17388 0.0
H138 H 0.12029 0.17366 0.22857 0.0
H139 H 0.19699 0.19997 0.21041 0.0
C140 C 0.09673 0.2232 0.28211 0.0
N141 N 0.07719 0.21356 0.28153 0.0
C142 C 0.07505 0.23249 0.27621 0.0
C143 C 0.01275 0.22184 0.27071 0.0
C144 C 0.03563 0.21274 0.27692 0.0
C145 C 0.03287 0.23182 0.26969 0.0
H146 H 0.1299 0.22357 0.28562 0.0
H147 H 0.02086 0.20496 0.27656 0.0
O148 O 0.18712 0.18191 0.27733 0.0
O149 O 0.13701 0.19648 0.3118 0.0
O150 O 0.16719 0.2054 0.26518 0.0
O151 O 0.09481 0.18829 0.26482 0.0
H152 H 0.15621 0.16305 0.26479 0.0
H153 H 0.26118 0.18428 0.25706 0.0
H154 H 0.19139 0.15013 0.23808 0.0
H155 H 0.29434 0.17102 0.23024 0.0
H156 H 0.03081 0.18461 0.35833 0.0
H157 H 0.1822 0.19083 0.34909 0.0
H158 H 0.05749 0.19261 0.32083 0.0
H159 H 0.15336 0.18287 0.3861 0.0
H160 H 0.319 0.18713 0.33128 0.0
H161 H 0.28626 0.22069 0.33366 0.0
H162 H 0.05613 0.14883 0.29319 0.0
H163 H 0.16824 0.15115 0.33555 0.0
H164 H 0.14357 0.22145 0.23748 0.0
H165 H 0.24891 0.20274 0.26055 0.0
H166 H 0.19107 0.23203 0.21183 0.0
H167 H 0.29455 0.21366 0.23456 0.0
H168 H 0.1052 0.20459 0.23493 0.0
H169 H 0.02425 0.17849 0.25396 0.0
H170 H 0.05687 0.20926 0.2022 0.0
H171 H 0.97722 0.18361 0.22082 0.0
H172 H 0.10661 0.16993 0.18638 0.0
H173 H 0.18417 0.19696 0.16795 0.0
H174 H 0.09179 0.24001 0.2753 0.0
H175 H 0.98017 0.22105 0.26587 0.0
Li176 Li 0.08733 0.19126 0.99415 0.0
Li177 Li 0.12703 0.20233 0.9681 0.0
Li178 Li 0.0559 0.19649 0.95702 0.0
Li179 Li 0.11446 0.18352 0.95843 0.0
C180 C 0.0466 0.2117 0.9971 0.0
N181 N 0.99297 0.22355 0.02521 0.0
C182 C 0.06221 0.21977 0.01187 0.0
C183 C 0.00364 0.20978 0.99639 0.0
C184 C 0.03461 0.22564 0.02601 0.0
C185 C 0.97706 0.21582 0.0108 0.0
C186 C 0.17342 0.19232 0.00317 0.0
C187 C 0.23703 0.1898 0.02542 0.0
N188 N 0.2265 0.19818 0.03966 0.0
C189 C 0.16328 0.2009 0.01801 0.0
C190 C 0.21061 0.18672 0.00688 0.0
C191 C 0.19048 0.20374 0.03636 0.0
C192 C 0.10435 0.17922 0.03395 0.0
N193 N 0.08081 0.18773 0.02707 0.0
C194 C 0.0656 0.19199 0.06753 0.0
C195 C 0.06029 0.19386 0.04325 0.0
C196 C 0.09202 0.18369 0.07507 0.0
C197 C 0.11049 0.17705 0.05797 0.0
H198 H 0.12047 0.17449 0.02071 0.0
H199 H 0.04157 0.20054 0.03757 0.0
C200 C 0.14368 0.22402 0.96846 0.0
N201 N 0.16318 0.21437 0.96798 0.0
C202 C 0.16576 0.23323 0.9746 0.0
C203 C 0.22833 0.22251 0.97791 0.0
C204 C 0.20498 0.21349 0.9717 0.0
C205 C 0.2084 0.23248 0.98009 0.0
H206 H 0.11035 0.22446 0.9656 0.0
H207 H 0.2197 0.2057 0.9713 0.0
C208 C 0.03819 0.17501 0.98632 0.0
N209 N 0.00115 0.16102 0.01803 0.0
C210 C 0.05522 0.16485 0.99005 0.0
C211 C 0.00205 0.17801 0.99857 0.0
C212 C 0.03609 0.1579 0.00618 0.0
C213 C 0.98388 0.17084 0.01457 0.0
C214 C 0.14026 0.19678 0.92106 0.0
C215 C 0.13351 0.20107 0.89845 0.0
C216 C 0.17998 0.19308 0.92727 0.0
C217 C 0.1667 0.20159 0.88238 0.0
C218 C 0.21235 0.19374 0.9107 0.0
N219 N 0.2051 0.19795 0.88879 0.0
C220 C 0.00891 0.2087 0.92475 0.0
C221 C 0.97618 0.19283 0.93845 0.0
C222 C 0.97653 0.21049 0.90859 0.0
N223 N 0.00828 0.19991 0.93897 0.0
C224 C 0.94319 0.19431 0.92265 0.0
C225 C 0.94353 0.20312 0.90717 0.0
H226 H 0.0354 0.21407 0.9253 0.0
H227 H 0.97696 0.18582 0.9497 0.0
C228 C 0.15965 0.1642 0.95657 0.0
N229 N 0.13211 0.17051 0.94472 0.0
C230 C 0.16332 0.15339 0.95065 0.0
C231 C 0.11226 0.15602 0.91951 0.0
C232 C 0.10949 0.16677 0.92607 0.0
C233 C 0.13838 0.14911 0.93241 0.0
H234 H 0.17604 0.16733 0.97186 0.0
H235 H 0.08706 0.17195 0.91744 0.0
O236 O 0.07317 0.20595 0.98296 0.0
O237 O 0.14712 0.18932 0.98516 0.0
O238 O 0.05695 0.18201 0.97093 0.0
O239 O 0.10803 0.19628 0.93697 0.0
H240 H 0.09528 0.2215 0.01248 0.0
H241 H 0.99086 0.20372 0.98484 0.0
H242 H 0.0463 0.23186 0.03761 0.0
H243 H 0.94377 0.21438 0.01049 0.0
H244 H 0.26592 0.18554 0.0285 0.0
H245 H 0.13468 0.2053 0.01544 0.0
H246 H 0.21902 0.18007 0.99554 0.0
H247 H 0.18294 0.21036 0.04797 0.0
H248 H 0.05123 0.19737 0.08021 0.0
H249 H 0.13091 0.17054 0.06313 0.0
H250 H 0.14904 0.24071 0.97645 0.0
H251 H 0.26124 0.22164 0.98188 0.0
H252 H 0.08305 0.16236 0.98076 0.0
H253 H 0.98831 0.1858 0.99591 0.0
H254 H 0.04909 0.15004 0.0093 0.0
H255 H 0.95606 0.17309 0.02426 0.0
H256 H 0.10293 0.20398 0.89341 0.0
H257 H 0.18588 0.18972 0.94466 0.0
H258 H 0.16193 0.2049 0.86481 0.0
H259 H 0.24325 0.19091 0.91527 0.0
H260 H 0.97827 0.21726 0.89662 0.0
H261 H 0.9182 0.18848 0.92208 0.0
H262 H 0.18298 0.14829 0.96146 0.0
H263 H 0.09248 0.15301 0.90539 0.0
Li264 Li 0.1598 0.05896 0.99424 0.0
Li265 Li 0.11928 0.04917 0.9658 0.0
Li266 Li 0.19289 0.0542 0.9572 0.0
Li267 Li 0.13703 0.06797 0.95883 0.0
C268 C 0.1919 0.03718 0.99497 0.0
N269 N 0.23403 0.02223 0.02206 0.0
C270 C 0.16996 0.02897 0.00635 0.0
C271 C 0.23531 0.0377 0.99712 0.0
C272 C 0.19182 0.02151 0.02002 0.0
C273 C 0.25603 0.03009 0.01098 0.0
C274 C 0.07315 0.05954 0.00159 0.0
C275 C 0.0107 0.06363 0.02377 0.0
N276 N 0.01734 0.05487 0.03761 0.0
C277 C 0.0793 0.05057 0.01604 0.0
C278 C 0.03858 0.06613 0.00548 0.0
C279 C 0.05078 0.04835 0.03415 0.0
C280 C 0.14371 0.07024 0.03524 0.0
N281 N 0.16449 0.06138 0.02772 0.0
C282 C 0.17369 0.0555 0.06776 0.0
C283 C 0.18072 0.05423 0.04343 0.0
C284 C 0.14947 0.06413 0.07575 0.0
C285 C 0.13563 0.07177 0.05933 0.0
H286 H 0.13106 0.07578 0.02234 0.0
H287 H 0.19719 0.04726 0.0372 0.0
C288 C 0.09965 0.02803 0.95686 0.0
N289 N 0.08162 0.03749 0.96289 0.0
C290 C 0.07841 0.01843 0.96054 0.0
C291 C 0.01946 0.02853 0.97519 0.0
C292 C 0.04148 0.03796 0.97065 0.0
C293 C 0.03868 0.01858 0.97113 0.0
H294 H 0.13159 0.02792 0.95061 0.0
H295 H 0.02745 0.04558 0.97488 0.0
C296 C 0.21307 0.07457 0.98961 0.0
N297 N 0.25095 0.08709 0.0239 0.0
C298 C 0.20132 0.08526 0.99247 0.0
C299 C 0.2444 0.07028 0.00406 0.0
C300 C 0.22078 0.09146 0.00992 0.0
C301 C 0.26305 0.07672 0.02134 0.0
C302 C 0.1117 0.05637 0.91916 0.0
C303 C 0.12125 0.05444 0.89531 0.0
C304 C 0.07086 0.05905 0.92561 0.0
C305 C 0.08968 0.0552 0.87825 0.0
C306 C 0.04018 0.05972 0.90802 0.0
N307 N 0.05014 0.0578 0.88491 0.0
C308 C 0.23728 0.0444 0.92025 0.0
C309 C 0.27814 0.05533 0.9457 0.0
C310 C 0.27076 0.04325 0.90455 0.0
N311 N 0.24138 0.05055 0.94003 0.0
C312 C 0.31246 0.05432 0.93064 0.0
C313 C 0.30846 0.04856 0.90933 0.0
H314 H 0.20739 0.04083 0.91609 0.0
H315 H 0.2803 0.06029 0.96136 0.0
C316 C 0.09894 0.08827 0.95884 0.0
N317 N 0.12302 0.08144 0.94601 0.0
C318 C 0.09772 0.09912 0.95294 0.0
C319 C 0.14393 0.09551 0.91988 0.0
C320 C 0.14436 0.08474 0.92646 0.0
C321 C 0.12176 0.10291 0.9338 0.0
H322 H 0.08333 0.08546 0.97468 0.0
H323 H 0.16382 0.07912 0.9169 0.0
O324 O 0.17105 0.04449 0.98129 0.0
O325 O 0.10142 0.06209 0.98422 0.0
O326 O 0.19389 0.06833 0.97285 0.0
O327 O 0.14239 0.05568 0.936 0.0
H328 H 0.13641 0.02834 0.00465 0.0
H329 H 0.25285 0.0439 0.98823 0.0
H330 H 0.17522 0.01514 0.02898 0.0
H331 H 0.2896 0.03042 0.01289 0.0
H332 H 0.98383 0.06867 0.02699 0.0
H333 H 0.10596 0.04543 0.0134 0.0
H334 H 0.03338 0.07312 0.99453 0.0
H335 H 0.05529 0.04146 0.04549 0.0
H336 H 0.18492 0.04948 0.08006 0.0
H337 H 0.11733 0.0786 0.06497 0.0
H338 H 0.0937 0.01097 0.95609 0.0
H339 H 0.98869 0.02905 0.98308 0.0
H340 H 0.17743 0.08876 0.98138 0.0
H341 H 0.25372 0.06201 0.00225 0.0
H342 H 0.21188 0.09973 0.01236 0.0
H343 H 0.28707 0.07347 0.03277 0.0
H344 H 0.15276 0.05239 0.89003 0.0
H345 H 0.06284 0.0606 0.94395 0.0
H346 H 0.09662 0.05373 0.85971 0.0
H347 H 0.00845 0.06178 0.91276 0.0
H348 H 0.26652 0.03876 0.88826 0.0
H349 H 0.34134 0.05835 0.93514 0.0
H350 H 0.08048 0.10459 0.9642 0.0
H351 H 0.16228 0.09811 0.90477 0.0
Li352 Li 0.9189 0.93775 0.7476 0.0
Li353 Li 0.88701 0.932 0.70908 0.0
Li354 Li 0.9485 0.94418 0.71119 0.0
Li355 Li 0.88273 0.9505 0.72358 0.0
C356 C 0.96179 0.92124 0.73558 0.0
N357 N 0.99514 0.90557 0.76462 0.0
C358 C 0.94386 0.91104 0.73629 0.0
C359 C 0.99673 0.92345 0.74964 0.0
C360 C 0.96119 0.90323 0.75106 0.0
C361 C 0.0131 0.91543 0.76421 0.0
C362 C 0.82215 0.94053 0.7462 0.0
C363 C 0.74886 0.94398 0.7402 0.0
N364 N 0.74666 0.94837 0.7623 0.0
C365 C 0.81914 0.945 0.76892 0.0
C366 C 0.78676 0.93997 0.73173 0.0
C367 C 0.78069 0.94895 0.77671 0.0
C368 C 0.94056 0.93973 0.79635 0.0
N369 N 0.92271 0.93333 0.77968 0.0
C370 C 0.8909 0.92256 0.80969 0.0
C371 C 0.89903 0.92474 0.78583 0.0
C372 C 0.90724 0.92931 0.8273 0.0
C373 C 0.93337 0.93781 0.82048 0.0
H374 H 0.95795 0.94673 0.7909 0.0
H375 H 0.88415 0.92002 0.77212 0.0
C376 C 0.89274 0.91528 0.67726 0.0
N377 N 0.86702 0.91958 0.69393 0.0
C378 C 0.89011 0.90441 0.67178 0.0
C379 C 0.83183 0.90294 0.69894 0.0
C380 C 0.83582 0.91382 0.70408 0.0
C381 C 0.86091 0.89801 0.68375 0.0
H382 H 0.91803 0.92003 0.6701 0.0
H383 H 0.81671 0.91738 0.7178 0.0
C384 C 0.96808 0.95961 0.7381 0.0
N385 N 0.03333 0.9738 0.73203 0.0
C386 C 0.96231 0.96896 0.72486 0.0
C387 C 0.00694 0.9575 0.74837 0.0
C388 C 0.9957 0.97603 0.72197 0.0
C389 C 0.03957 0.96477 0.74506 0.0
C390 C 0.86846 0.95032 0.67657 0.0
C391 C 0.87321 0.96108 0.67026 0.0
C392 C 0.83442 0.94453 0.66784 0.0
C393 C 0.84376 0.96586 0.65532 0.0
C394 C 0.80562 0.94961 0.65298 0.0
N395 N 0.81086 0.96007 0.64707 0.0
C396 C 0.03298 0.9415 0.69626 0.0
C397 C 0.99442 0.95489 0.67607 0.0
C398 C 0.06659 0.94288 0.68073 0.0
N399 N 0.99764 0.94739 0.69346 0.0
C400 C 0.0271 0.9565 0.66011 0.0
C401 C 0.06345 0.95033 0.66211 0.0
H402 H 0.03446 0.93543 0.70989 0.0
H403 H 0.9659 0.95937 0.67408 0.0
C404 C 0.85907 0.96829 0.7488 0.0
N405 N 0.84762 0.96273 0.72905 0.0
C406 C 0.83552 0.97695 0.75664 0.0
C407 C 0.78835 0.97414 0.7237 0.0
C408 C 0.81256 0.96537 0.71667 0.0
C409 C 0.79978 0.97994 0.74404 0.0
H410 H 0.88608 0.96585 0.75891 0.0
H411 H 0.80267 0.96056 0.70178 0.0
O412 O 0.94486 0.92908 0.72156 0.0
O413 O 0.8598 0.93697 0.73795 0.0
O414 O 0.93608 0.95245 0.74054 0.0
O415 O 0.89738 0.94542 0.69079 0.0
H416 H 0.9167 0.90916 0.72574 0.0
H417 H 0.01073 0.93132 0.74955 0.0
H418 H 0.94755 0.89532 0.75181 0.0
H419 H 0.03999 0.91705 0.77527 0.0
H420 H 0.72126 0.94367 0.72915 0.0
H421 H 0.84632 0.94557 0.78027 0.0
H422 H 0.78868 0.93661 0.71404 0.0
H423 H 0.77796 0.95252 0.79416 0.0
H424 H 0.87045 0.91598 0.8143 0.0
H425 H 0.94574 0.94333 0.83354 0.0
H426 H 0.91313 0.90088 0.66005 0.0
H427 H 0.80847 0.89826 0.7082 0.0
H428 H 0.9325 0.97068 0.71666 0.0
H429 H 0.01194 0.9503 0.75865 0.0
H430 H 0.99175 0.98326 0.71166 0.0
H431 H 0.06987 0.96322 0.75281 0.0
H432 H 0.89889 0.96576 0.67709 0.0
H433 H 0.8302 0.93621 0.67248 0.0
H434 H 0.84695 0.97419 0.65039 0.0
H435 H 0.77911 0.94522 0.64613 0.0
H436 H 0.09388 0.93783 0.68255 0.0
H437 H 0.0236 0.96232 0.64596 0.0
H438 H 0.84511 0.98126 0.77243 0.0
H439 H 0.76052 0.97621 0.71378 0.0
Li440 Li 0.85859 0.81731 0.70426 0.0
Li441 Li 0.82723 0.81074 0.74219 0.0
Li442 Li 0.86539 0.79873 0.71737 0.0
Li443 Li 0.79819 0.80469 0.70528 0.0
C444 C 0.92441 0.80899 0.74123 0.0
N445 N 0.0009 0.80189 0.75756 0.0
C446 C 0.92876 0.80549 0.76472 0.0
C447 C 0.95904 0.80898 0.72613 0.0
C448 C 0.96767 0.80191 0.77262 0.0
C449 C 0.99743 0.80533 0.7347 0.0
C450 C 0.78255 0.82713 0.73149 0.0
C451 C 0.7304 0.83212 0.76038 0.0
N452 N 0.74711 0.84211 0.76148 0.0
C453 C 0.79918 0.83746 0.73291 0.0
C454 C 0.74783 0.82444 0.74531 0.0
C455 C 0.78081 0.84492 0.74817 0.0
C456 C 0.85116 0.83461 0.67402 0.0
N457 N 0.8775 0.83005 0.69002 0.0
C458 C 0.91256 0.84664 0.69614 0.0
C459 C 0.90893 0.83567 0.70034 0.0
C460 C 0.88293 0.8518 0.68169 0.0
C461 C 0.85344 0.84558 0.66948 0.0
H462 H 0.82573 0.82997 0.6667 0.0
H463 H 0.92863 0.83187 0.71348 0.0
C464 C 0.80874 0.80601 0.78932 0.0
N465 N 0.82155 0.81402 0.77472 0.0
C466 C 0.81684 0.80658 0.81362 0.0
C467 C 0.8484 0.82396 0.80757 0.0
C468 C 0.84006 0.82302 0.7833 0.0
C469 C 0.83833 0.81545 0.82274 0.0
H470 H 0.79541 0.79881 0.78187 0.0
H471 H 0.85149 0.82903 0.77111 0.0
C472 C 0.87773 0.79964 0.66963 0.0
N473 N 0.93384 0.79083 0.63785 0.0
C474 C 0.87099 0.78938 0.66048 0.0
C475 C 0.9129 0.80543 0.66252 0.0
C476 C 0.89972 0.78507 0.64443 0.0
C477 C 0.94096 0.80083 0.64649 0.0
C478 C 0.78312 0.78816 0.73122 0.0
C479 C 0.7931 0.7788 0.71889 0.0
C480 C 0.74312 0.78946 0.74071 0.0
C481 C 0.76272 0.77087 0.71617 0.0
C482 C 0.7136 0.78135 0.73757 0.0
N483 N 0.72392 0.77231 0.72547 0.0
C484 C 0.89419 0.78259 0.74491 0.0
C485 C 0.93164 0.78265 0.70862 0.0
C486 C 0.91757 0.77403 0.75333 0.0
N487 N 0.90131 0.78672 0.72292 0.0
C488 C 0.9552 0.77383 0.71613 0.0
C489 C 0.94843 0.76945 0.73888 0.0
H490 H 0.87069 0.78613 0.75624 0.0
H491 H 0.93797 0.78623 0.69157 0.0
C492 C 0.71585 0.80832 0.68991 0.0
N493 N 0.74852 0.80144 0.68825 0.0
C494 C 0.68058 0.8069 0.67574 0.0
C495 C 0.71294 0.79121 0.6586 0.0
C496 C 0.74755 0.79293 0.67319 0.0
C497 C 0.67911 0.79832 0.65964 0.0
H498 H 0.71774 0.81515 0.70162 0.0
H499 H 0.77403 0.78763 0.67207 0.0
O500 O 0.8863 0.81222 0.73294 0.0
O501 O 0.8004 0.81965 0.7169 0.0
O502 O 0.84949 0.80411 0.68492 0.0
O503 O 0.81213 0.79611 0.73368 0.0
H504 H 0.90228 0.80537 0.77664 0.0
H505 H 0.95622 0.81167 0.70793 0.0
H506 H 0.9714 0.7991 0.79069 0.0
H507 H 0.02443 0.80521 0.72316 0.0
H508 H 0.70364 0.83013 0.77124 0.0
H509 H 0.82616 0.8397 0.72254 0.0
H510 H 0.73478 0.81647 0.7446 0.0
H511 H 0.79345 0.85292 0.74947 0.0
H512 H 0.93616 0.85118 0.70556 0.0
H513 H 0.83 0.84928 0.6583 0.0
H514 H 0.80877 0.79988 0.82495 0.0
H515 H 0.86545 0.83085 0.8141 0.0
H516 H 0.84422 0.78473 0.66592 0.0
H517 H 0.91846 0.81341 0.66924 0.0
H518 H 0.89499 0.77712 0.6373 0.0
H519 H 0.96836 0.80521 0.64089 0.0
H520 H 0.82378 0.77771 0.71122 0.0
H521 H 0.73491 0.79667 0.75025 0.0
H522 H 0.76992 0.76361 0.70657 0.0
H523 H 0.68245 0.78226 0.74472 0.0
H524 H 0.91172 0.77109 0.77113 0.0
H525 H 0.97814 0.77046 0.70416 0.0
H526 H 0.65549 0.81269 0.67665 0.0
H527 H 0.7129 0.78453 0.64634 0.0
Li528 Li 0.93889 0.80464 0.04043 0.0
Li529 Li 0.86844 0.79901 0.03183 0.0
Li530 Li 0.90609 0.80969 0.00213 0.0
Li531 Li 0.88018 0.81806 0.03915 0.0
C532 C 0.95449 0.79037 0.00416 0.0
N533 N 0.02363 0.78085 0.98373 0.0
C534 C 0.96005 0.7793 0.00565 0.0
C535 C 0.98393 0.79658 0.99211 0.0
C536 C 0.99526 0.77464 0.99526 0.0
C537 C 0.0187 0.79163 0.98194 0.0
C538 C 0.86843 0.8001 0.07837 0.0
C539 C 0.80932 0.79756 0.10427 0.0
N540 N 0.82571 0.78807 0.11159 0.0
C541 C 0.88495 0.7904 0.08632 0.0
C542 C 0.83054 0.80378 0.08754 0.0
C543 C 0.86278 0.7844 0.10305 0.0
C544 C 0.00906 0.81021 0.06603 0.0
N545 N 0.98869 0.80159 0.057 0.0
C546 C 0.03723 0.78966 0.07541 0.0
C547 C 0.00185 0.79143 0.06137 0.0
C548 C 0.05891 0.79845 0.08482 0.0
C549 C 0.04468 0.80882 0.07984 0.0
H550 H 0.99712 0.81817 0.06282 0.0
H551 H 0.98442 0.78472 0.0544 0.0
C552 C 0.79325 0.78751 0.02353 0.0
N553 N 0.83252 0.78689 0.03257 0.0
C554 C 0.77161 0.77821 0.01746 0.0
C555 C 0.83051 0.76778 0.03099 0.0
C556 C 0.85088 0.77728 0.03696 0.0
C557 C 0.79082 0.7682 0.02043 0.0
H558 H 0.77975 0.79519 0.01946 0.0
H559 H 0.88258 0.77702 0.04351 0.0
C560 C 0.96259 0.82654 0.01555 0.0
N561 N 0.01502 0.84223 0.99794 0.0
C562 C 0.94699 0.83671 0.01023 0.0
C563 C 0.00503 0.8244 0.01214 0.0
C564 C 0.97393 0.84452 0.00128 0.0
C565 C 0.03098 0.83242 0.00315 0.0
C566 C 0.81113 0.81634 0.00889 0.0
C567 C 0.80379 0.82119 0.98689 0.0
C568 C 0.78063 0.81683 0.02662 0.0
C569 C 0.76599 0.82649 0.98302 0.0
C570 C 0.74324 0.82221 0.02206 0.0
N571 N 0.73677 0.82689 0.00055 0.0
C572 C 0.89746 0.80268 0.95629 0.0
C573 C 0.91565 0.82106 0.95788 0.0
C574 C 0.89085 0.80333 0.93187 0.0
N575 N 0.9092 0.81148 0.96876 0.0
C576 C 0.90939 0.82207 0.9334 0.0
C577 C 0.89627 0.81315 0.92019 0.0
H578 H 0.89123 0.79527 0.96556 0.0
H579 H 0.92359 0.82802 0.96825 0.0
C580 C 0.88395 0.83439 0.07275 0.0
N581 N 0.86475 0.83157 0.05212 0.0
C582 C 0.88315 0.84502 0.0805 0.0
C583 C 0.8411 0.84949 0.04625 0.0
C584 C 0.84287 0.83882 0.03911 0.0
C585 C 0.8623 0.85275 0.06686 0.0
H586 H 0.90212 0.82852 0.08237 0.0
H587 H 0.82969 0.83659 0.02219 0.0
O588 O 0.92036 0.79506 0.01447 0.0
O589 O 0.88942 0.80601 0.06179 0.0
O590 O 0.93682 0.81886 0.02485 0.0
O591 O 0.84816 0.81123 0.01304 0.0
H592 H 0.93754 0.77434 0.0148 0.0
H593 H 0.97989 0.80511 0.99047 0.0
H594 H 2e-05 0.76608 0.99637 0.0
H595 H 0.04173 0.79635 0.97258 0.0
H596 H 0.77987 0.80028 0.11147 0.0
H597 H 0.91441 0.78748 0.07948 0.0
H598 H 0.81777 0.81138 0.08188 0.0
H599 H 0.87502 0.77683 0.10924 0.0
H600 H 0.04745 0.78155 0.07893 0.0
H601 H 0.06035 0.81578 0.0871 0.0
H602 H 0.74098 0.77887 0.00943 0.0
H603 H 0.84684 0.76025 0.03314 0.0
H604 H 0.91432 0.83852 0.01262 0.0
H605 H 0.01795 0.81665 0.01651 0.0
H606 H 0.96216 0.85239 0.99695 0.0
H607 H 0.06383 0.83086 0.00039 0.0
H608 H 0.82704 0.82089 0.97296 0.0
H609 H 0.78581 0.8131 0.0437 0.0
H610 H 0.75991 0.83029 0.9661 0.0
H611 H 0.71939 0.82266 0.03564 0.0
H612 H 0.87961 0.79634 0.92246 0.0
H613 H 0.91358 0.82979 0.92499 0.0
H614 H 0.90014 0.84725 0.09639 0.0
H615 H 0.82583 0.85526 0.0348 0.0
Li616 Li 0.87238 0.95051 0.02692 0.0
Li617 Li 0.80526 0.94485 0.03977 0.0
Li618 Li 0.86574 0.93225 0.04253 0.0
Li619 Li 0.83436 0.93775 0.00376 0.0
C620 C 0.88546 0.95055 0.07487 0.0
N621 N 0.94253 0.95956 0.10585 0.0
C622 C 0.87993 0.96104 0.083 0.0
C623 C 0.92001 0.94466 0.08255 0.0
C624 C 0.90911 0.96544 0.09867 0.0
C625 C 0.94854 0.94936 0.09817 0.0
C626 C 0.78989 0.96058 0.01198 0.0
C627 C 0.72053 0.96734 0.00479 0.0
N628 N 0.73036 0.97642 0.0169 0.0
C629 C 0.79936 0.96998 0.02432 0.0
C630 C 0.75023 0.95924 0.00209 0.0
C631 C 0.76882 0.9779 0.02661 0.0
C632 C 0.90066 0.96662 0.99849 0.0
N633 N 0.90835 0.96244 0.02037 0.0
C634 C 0.96175 0.97547 0.0271 0.0
C635 C 0.93899 0.96651 0.03447 0.0
C636 C 0.95404 0.98001 0.0046 0.0
C637 C 0.9233 0.97535 0.99018 0.0
H638 H 0.87698 0.96308 0.98729 0.0
H639 H 0.94596 0.96285 0.05136 0.0
C640 C 0.7218 0.9421 0.05561 0.0
N641 N 0.75599 0.94852 0.05695 0.0
C642 C 0.68826 0.94366 0.07109 0.0
C643 C 0.72526 0.95856 0.0886 0.0
C644 C 0.75789 0.95676 0.07267 0.0
C645 C 0.69028 0.95182 0.08819 0.0
H646 H 0.72135 0.93547 0.0433 0.0
H647 H 0.78542 0.9617 0.07346 0.0
C648 C 0.93164 0.93958 0.00475 0.0
N649 N 0.00859 0.94594 0.98769 0.0
C650 C 0.93586 0.94294 0.98115 0.0
C651 C 0.96657 0.93938 0.01961 0.0
C652 C 0.97504 0.94613 0.97288 0.0
C653 C 0.0052 0.94266 0.01067 0.0
C654 C 0.7882 0.92184 0.01729 0.0
C655 C 0.80162 0.91122 0.01873 0.0
C656 C 0.75484 0.92448 0.00238 0.0
C657 C 0.78155 0.90341 0.00511 0.0
C658 C 0.73567 0.91645 0.98899 0.0
N659 N 0.7493 0.90617 0.99062 0.0
C660 C 0.86217 0.9167 0.0776 0.0
C661 C 0.91061 0.91307 0.0467 0.0
C662 C 0.8629 0.90601 0.08477 0.0
N663 N 0.88452 0.91986 0.05831 0.0
C664 C 0.91225 0.9023 0.05327 0.0
C665 C 0.8864 0.89858 0.07168 0.0
H666 H 0.84085 0.92225 0.086 0.0
H667 H 0.92686 0.91575 0.03094 0.0
C668 C 0.81408 0.93977 0.95511 0.0
N669 N 0.82973 0.93309 0.97195 0.0
C670 C 0.82231 0.93785 0.9311 0.0
C671 C 0.86079 0.92198 0.94234 0.0
C672 C 0.85158 0.92415 0.96608 0.0
C673 C 0.84744 0.92911 0.92466 0.0
H674 H 0.79799 0.947 0.9604 0.0
H675 H 0.8646 0.91918 0.97997 0.0
O676 O 0.85668 0.94599 0.06001 0.0
O677 O 0.81902 0.95264 0.01003 0.0
O678 O 0.8934 0.93665 0.01334 0.0
O679 O 0.80759 0.92963 0.03036 0.0
H680 H 0.8539 0.96581 0.07701 0.0
H681 H 0.92481 0.93654 0.07657 0.0
H682 H 0.90531 0.97355 0.10501 0.0
H683 H 0.97544 0.94488 0.1042 0.0
H684 H 0.68965 0.9664 0.9973 0.0
H685 H 0.82976 0.97111 0.03231 0.0
H686 H 0.74239 0.952 0.99254 0.0
H687 H 0.77563 0.98519 0.0362 0.0
H688 H 0.98461 0.97888 0.03907 0.0
H689 H 0.91678 0.97841 0.97255 0.0
H690 H 0.66204 0.93819 0.07054 0.0
H691 H 0.72783 0.96493 0.10157 0.0
H692 H 0.90911 0.9432 0.96943 0.0
H693 H 0.96382 0.93678 0.03789 0.0
H694 H 0.97873 0.94879 0.9547 0.0
H695 H 0.03247 0.9426 0.02201 0.0
H696 H 0.82715 0.90899 0.03023 0.0
H697 H 0.74416 0.93267 0.00099 0.0
H698 H 0.79162 0.89516 0.00607 0.0
H699 H 0.70998 0.9184 0.97728 0.0
H700 H 0.84292 0.90344 0.09922 0.0
H701 H 0.93049 0.89678 0.04266 0.0
H702 H 0.81179 0.94356 0.91789 0.0
H703 H 0.88003 0.91513 0.93793 0.0
Li704 Li 0.05535 0.55164 0.79293 0.0
Li705 Li 0.10747 0.56636 0.78662 0.0
Li706 Li 0.08608 0.55533 0.75418 0.0
Li707 Li 0.12958 0.54714 0.78361 0.0
C708 C 0.01876 0.56744 0.75834 0.0
N709 N 0.95618 0.57247 0.72644 0.0
C710 C 0.01192 0.57808 0.75175 0.0
C711 C 0.9935 0.55937 0.7489 0.0
C712 C 0.98018 0.58045 0.73555 0.0
C713 C 0.96211 0.56207 0.73274 0.0
C714 C 0.13721 0.55623 0.82892 0.0
C715 C 0.20804 0.5607 0.83949 0.0
N716 N 0.19881 0.55891 0.86276 0.0
C717 C 0.12845 0.55439 0.85291 0.0
C718 C 0.17734 0.55938 0.8221 0.0
C719 C 0.16001 0.5558 0.86976 0.0
C720 C 0.01301 0.53923 0.82681 0.0
N721 N 0.00899 0.54758 0.81149 0.0
C722 C 0.94134 0.55166 0.82669 0.0
C723 C 0.97397 0.5537 0.81096 0.0
C724 C 0.94516 0.54334 0.84331 0.0
C725 C 0.98117 0.53694 0.84301 0.0
H726 H 0.04152 0.53459 0.82694 0.0
H727 H 0.97199 0.56043 0.79896 0.0
C728 C 0.11394 0.58767 0.77665 0.0
N729 N 0.11866 0.58076 0.79508 0.0
C730 C 0.11413 0.59866 0.7806 0.0
C731 C 0.12589 0.59531 0.82242 0.0
C732 C 0.1249 0.58431 0.81769 0.0
C733 C 0.11936 0.60256 0.80375 0.0
H734 H 0.10814 0.5846 0.75898 0.0
H735 H 0.12739 0.57867 0.83217 0.0
C736 C 0.06704 0.53174 0.76087 0.0
N737 N 0.0454 0.51184 0.74331 0.0
C738 C 0.09712 0.52527 0.74996 0.0
C739 C 0.02603 0.52804 0.76297 0.0
C740 C 0.08554 0.51525 0.74117 0.0
C741 C 0.01569 0.51798 0.75393 0.0
C742 C 0.1649 0.56057 0.74199 0.0
C743 C 0.17163 0.55167 0.72742 0.0
C744 C 0.17891 0.57063 0.73461 0.0
C745 C 0.19143 0.55301 0.7055 0.0
C746 C 0.19865 0.57165 0.71257 0.0
N747 N 0.20438 0.56289 0.69857 0.0
C748 C 0.08245 0.56591 0.71039 0.0
C749 C 0.07607 0.54707 0.70708 0.0
C750 C 0.08834 0.56685 0.68592 0.0
N751 N 0.07791 0.5561 0.72052 0.0
C752 C 0.08224 0.54763 0.68257 0.0
C753 C 0.08975 0.55759 0.67181 0.0
H754 H 0.08465 0.57293 0.72153 0.0
H755 H 0.07293 0.53937 0.71544 0.0
C756 C 0.15772 0.52711 0.79841 0.0
N757 N 0.17012 0.53634 0.78779 0.0
C758 C 0.18082 0.51775 0.79524 0.0
C759 C 0.23039 0.5278 0.77174 0.0
C760 C 0.2067 0.53699 0.77568 0.0
C761 C 0.21641 0.51792 0.78063 0.0
H762 H 0.12822 0.52685 0.80777 0.0
H763 H 0.21588 0.54446 0.76755 0.0
O764 O 0.05007 0.5649 0.7739 0.0
O765 O 0.10663 0.55482 0.81226 0.0
O766 O 0.07777 0.54151 0.77002 0.0
O767 O 0.14465 0.55946 0.7633 0.0
H768 H 0.03079 0.58445 0.75907 0.0
H769 H 0.99837 0.55111 0.75384 0.0
H770 H 0.97461 0.58865 0.73023 0.0
H771 H 0.94251 0.5559 0.72518 0.0
H772 H 0.2392 0.56316 0.83449 0.0
H773 H 0.09755 0.5519 0.85842 0.0
H774 H 0.18474 0.56081 0.80362 0.0
H775 H 0.15368 0.55442 0.8884 0.0
H776 H 0.91419 0.55683 0.82659 0.0
H777 H 0.98499 0.53041 0.85548 0.0
H778 H 0.10916 0.60407 0.76581 0.0
H779 H 0.12981 0.59811 0.84051 0.0
H780 H 0.12901 0.52797 0.74816 0.0
H781 H 0.00243 0.53289 0.77156 0.0
H782 H 0.10846 0.51019 0.73264 0.0
H783 H 0.98404 0.51503 0.75541 0.0
H784 H 0.16093 0.54383 0.73279 0.0
H785 H 0.17468 0.57759 0.74577 0.0
H786 H 0.19631 0.54621 0.69395 0.0
H787 H 0.20942 0.57939 0.70659 0.0
H788 H 0.09384 0.57468 0.67828 0.0
H789 H 0.08395 0.54027 0.67248 0.0
H790 H 0.16977 0.51037 0.80314 0.0
H791 H 0.2578 0.52831 0.76052 0.0
Li792 Li 0.19836 0.69815 0.7916 0.0
Li793 Li 0.14364 0.68406 0.78793 0.0
Li794 Li 0.16759 0.69377 0.75377 0.0
Li795 Li 0.1249 0.70294 0.78228 0.0
C796 C 0.22328 0.67873 0.75808 0.0
N797 N 0.26638 0.66781 0.72312 0.0
C798 C 0.2137 0.66805 0.75317 0.0
C799 C 0.25515 0.68381 0.7454 0.0
C800 C 0.23576 0.66267 0.73538 0.0
C801 C 0.27645 0.67817 0.72773 0.0
C802 C 0.11542 0.69496 0.8282 0.0
C803 C 0.04413 0.69062 0.83804 0.0
N804 N 0.05223 0.6928 0.86128 0.0
C805 C 0.12304 0.69717 0.85216 0.0
C806 C 0.07566 0.69166 0.82104 0.0
C807 C 0.09068 0.69602 0.86862 0.0
C808 C 0.24141 0.70986 0.82636 0.0
N809 N 0.24569 0.7022 0.80937 0.0
C810 C 0.31579 0.69874 0.82143 0.0
C811 C 0.28197 0.69673 0.80648 0.0
C812 C 0.31201 0.70641 0.83957 0.0
C813 C 0.27442 0.71209 0.84181 0.0
H814 H 0.21188 0.71396 0.82839 0.0
H815 H 0.28414 0.69054 0.79313 0.0
C816 C 0.10795 0.66418 0.78149 0.0
N817 N 0.12738 0.67029 0.79807 0.0
C818 C 0.10146 0.65332 0.78559 0.0
C819 C 0.13374 0.65532 0.82422 0.0
C820 C 0.13977 0.66618 0.8193 0.0
C821 C 0.11494 0.64872 0.80704 0.0
H822 H 0.0999 0.6676 0.76445 0.0
H823 H 0.15595 0.67123 0.83194 0.0
C824 C 0.19705 0.71565 0.75447 0.0
N825 N 0.23784 0.73112 0.72813 0.0
C826 C 0.17425 0.72356 0.74259 0.0
C827 C 0.24063 0.71573 0.75328 0.0
C828 C 0.19544 0.73127 0.72928 0.0
C829 C 0.26066 0.72358 0.73977 0.0
C830 C 0.0807 0.6927 0.74536 0.0
C831 C 0.086 0.70169 0.73087 0.0
C832 C 0.04626 0.68602 0.74183 0.0
C833 C 0.05686 0.70383 0.71303 0.0
C834 C 0.01775 0.68844 0.72381 0.0
N835 N 0.02361 0.69721 0.7099 0.0
C836 C 0.15431 0.68259 0.71261 0.0
C837 C 0.18841 0.69905 0.70467 0.0
C838 C 0.14689 0.68098 0.68851 0.0
N839 N 0.17348 0.69167 0.72027 0.0
C840 C 0.18185 0.69772 0.68028 0.0
C841 C 0.1597 0.68875 0.67212 0.0
H842 H 0.14237 0.67691 0.72543 0.0
H843 H 0.20334 0.70622 0.71105 0.0
C844 C 0.10182 0.72395 0.79044 0.0
N845 N 0.08553 0.71421 0.78509 0.0
C846 C 0.07884 0.73322 0.78604 0.0
C847 C 0.02176 0.72221 0.77226 0.0
C848 C 0.04547 0.71314 0.7775 0.0
C849 C 0.03922 0.73243 0.77546 0.0
H850 H 0.13374 0.72455 0.79657 0.0
H851 H 0.03287 0.7053 0.77385 0.0
O852 O 0.20141 0.6842 0.77509 0.0
O853 O 0.14694 0.69601 0.81197 0.0
O854 O 0.17686 0.70811 0.76784 0.0
O855 O 0.10928 0.69033 0.76268 0.0
H856 H 0.18943 0.66395 0.76292 0.0
H857 H 0.26299 0.69207 0.74894 0.0
H858 H 0.22852 0.65442 0.73132 0.0
H859 H 0.30094 0.68204 0.71765 0.0
H860 H 0.01322 0.68807 0.83275 0.0
H861 H 0.15369 0.69972 0.85797 0.0
H862 H 0.06912 0.68989 0.8026 0.0
H863 H 0.09613 0.6977 0.88724 0.0
H864 H 0.3439 0.694 0.81954 0.0
H865 H 0.27033 0.718 0.8557 0.0
H866 H 0.08818 0.64848 0.77154 0.0
H867 H 0.1448 0.65204 0.84089 0.0
H868 H 0.14055 0.72377 0.74362 0.0
H869 H 0.25883 0.70983 0.76276 0.0
H870 H 0.17817 0.73741 0.71993 0.0
H871 H 0.29436 0.7237 0.73861 0.0
H872 H 0.11245 0.70692 0.73332 0.0
H873 H 0.04151 0.67906 0.75294 0.0
H874 H 0.06071 0.71074 0.70167 0.0
H875 H 0.99095 0.68334 0.7209 0.0
H876 H 0.12986 0.67395 0.6828 0.0
H877 H 0.19182 0.70393 0.6681 0.0
H878 H 0.09277 0.74092 0.78986 0.0
H879 H 0.99114 0.7212 0.76442 0.0
Li880 Li 0.12856 0.70171 0.46476 0.0
Li881 Li 0.09038 0.69123 0.49284 0.0
Li882 Li 0.1156 0.68279 0.45739 0.0
Li883 Li 0.05675 0.69569 0.45565 0.0
C884 C 0.17694 0.69239 0.50017 0.0
N885 N 0.23183 0.69873 0.53537 0.0
C886 C 0.16785 0.70127 0.51436 0.0
C887 C 0.21398 0.68673 0.50391 0.0
C888 C 0.19596 0.70435 0.53205 0.0
C889 C 0.24133 0.69006 0.5218 0.0
C890 C 0.05016 0.71176 0.49435 0.0
C891 C 0.98172 0.71625 0.50922 0.0
N892 N 0.9987 0.72432 0.52223 0.0
C893 C 0.06688 0.72017 0.50772 0.0
C894 C 0.00719 0.70983 0.49497 0.0
C895 C 0.04037 0.7264 0.52177 0.0
C896 C 0.14497 0.72334 0.46241 0.0
N897 N 0.16461 0.71372 0.46293 0.0
C898 C 0.22898 0.72201 0.47376 0.0
C899 C 0.20625 0.71293 0.46729 0.0
C900 C 0.20862 0.73195 0.47534 0.0
C901 C 0.16652 0.73262 0.46857 0.0
H902 H 0.11179 0.72371 0.45896 0.0
H903 H 0.22108 0.70516 0.46765 0.0
C904 C 0.11131 0.68049 0.53383 0.0
N905 N 0.08582 0.6885 0.52626 0.0
C906 C 0.12079 0.67941 0.55787 0.0
C907 C 0.07419 0.69414 0.56629 0.0
C908 C 0.06583 0.69499 0.54199 0.0
C909 C 0.10346 0.68659 0.57422 0.0
H910 H 0.12681 0.67542 0.52098 0.0
H911 H 0.04536 0.70122 0.5358 0.0
C912 C 0.13912 0.69512 0.41813 0.0
N913 N 0.20226 0.69537 0.38467 0.0
C914 C 0.13101 0.69859 0.39497 0.0
C915 C 0.17934 0.69176 0.42428 0.0
C916 C 0.16335 0.69866 0.3783 0.0
C917 C 0.21083 0.69196 0.4071 0.0
C918 C 0.03908 0.67506 0.48703 0.0
C919 C 0.0577 0.6655 0.49436 0.0
C920 C 1e-05 0.67792 0.49606 0.0
C921 C 0.03717 0.65903 0.5109 0.0
C922 C 0.98047 0.67124 0.51257 0.0
N923 N -0.00068 0.66202 0.51961 0.0
C924 C 0.15837 0.66316 0.45784 0.0
C925 C 0.11159 0.6657 0.42563 0.0
C926 C 0.16162 0.65227 0.45258 0.0
N927 N 0.13257 0.66949 0.44486 0.0
C928 C 0.11411 0.65488 0.41966 0.0
C929 C 0.13788 0.64794 0.43391 0.0
H930 H 0.17371 0.66636 0.47342 0.0
H931 H 0.09075 0.67093 0.41594 0.0
C932 C 0.99857 0.70868 0.43074 0.0
N933 N 0.00737 0.69867 0.43874 0.0
C934 C 0.96353 0.71043 0.41643 0.0
C935 C 0.94738 0.69156 0.41929 0.0
C936 C 0.98256 0.69019 0.43349 0.0
C937 C 0.93781 0.70175 0.4103 0.0
H938 H 0.01916 0.71525 0.43515 0.0
H939 H 0.99075 0.6823 0.43989 0.0
O940 O 0.1496 0.6891 0.48291 0.0
O941 O 0.07562 0.70564 0.4803 0.0
O942 O 0.10769 0.69505 0.43459 0.0
O943 O 0.05898 0.68157 0.47109 0.0
H944 H 0.13934 0.70572 0.51179 0.0
H945 H 0.22151 0.67983 0.49311 0.0
H946 H 0.18923 0.7112 0.54317 0.0
H947 H 0.2701 0.68575 0.52489 0.0
H948 H 0.94844 0.71482 0.50991 0.0
H949 H 0.09996 0.72188 0.50732 0.0
H950 H 0.99358 0.70347 0.48458 0.0
H951 H 0.05293 0.73289 0.53227 0.0
H952 H 0.26128 0.72112 0.47909 0.0
H953 H 0.14988 0.74016 0.46927 0.0
H954 H 0.14296 0.67337 0.56348 0.0
H955 H 0.06003 0.69976 0.57855 0.0
H956 H 0.10002 0.70121 0.38995 0.0
H957 H 0.18628 0.68903 0.44207 0.0
H958 H 0.15752 0.70133 0.36031 0.0
H959 H 0.24209 0.68939 0.41162 0.0
H960 H 0.08786 0.66314 0.48756 0.0
H961 H 0.98485 0.6852 0.49036 0.0
H962 H 0.05137 0.65165 0.51684 0.0
H963 H 0.95029 0.67338 0.51977 0.0
H964 H 0.18008 0.64717 0.46407 0.0
H965 H 0.09595 0.65187 0.40486 0.0
H966 H 0.95681 0.71843 0.41008 0.0
H967 H 0.92854 0.68465 0.41478 0.0
Li968 Li 0.16458 0.55597 0.49322 0.0
Li969 Li 0.12141 0.54768 0.4635 0.0
Li970 Li 0.19573 0.55161 0.45552 0.0
Li971 Li 0.14392 0.5662 0.45906 0.0
C972 C 0.19363 0.53387 0.48988 0.0
N973 N 0.23805 0.51796 0.51279 0.0
C974 C 0.17283 0.52503 0.49949 0.0
C975 C 0.23704 0.53456 0.49175 0.0
C976 C 0.19583 0.51709 0.51106 0.0
C977 C 0.25893 0.52645 0.50344 0.0
C978 C 0.07898 0.55727 0.5011 0.0
C979 C 0.01849 0.56105 0.52524 0.0
N980 N 0.02327 0.55146 0.53636 0.0
C981 C 0.08333 0.54747 0.51285 0.0
C982 C 0.04632 0.56413 0.50738 0.0
C983 C 0.05482 0.54467 0.53056 0.0
C984 C 0.15365 0.56644 0.53613 0.0
N985 N 0.16966 0.55722 0.52702 0.0
C986 C 0.17075 0.54924 0.56558 0.0
C987 C 0.17964 0.54882 0.54132 0.0
C988 C 0.15204 0.55842 0.57506 0.0
C989 C 0.14483 0.56725 0.56034 0.0
H990 H 0.14472 0.57286 0.5243 0.0
H991 H 0.19174 0.54153 0.53386 0.0
C992 C 0.09619 0.52712 0.45299 0.0
N993 N 0.08059 0.53686 0.45901 0.0
C994 C 0.07188 0.51795 0.45572 0.0
C995 C 0.015 0.52909 0.46936 0.0
C996 C 0.04018 0.53807 0.46587 0.0
C997 C 0.03131 0.51882 0.465 0.0
H998 H 0.12852 0.52641 0.44765 0.0
H999 H 0.0284 0.54591 0.47041 0.0
C1000 C 0.22121 0.57108 0.48995 0.0
N1001 N 0.2618 0.5827 0.52479 0.0
C1002 C 0.20914 0.5816 0.49483 0.0
C1003 C 0.25427 0.56652 0.50261 0.0
C1004 C 0.22997 0.58733 0.51255 0.0
C1005 C 0.27428 0.5725 0.52021 0.0
C1006 C 0.11537 0.55606 0.41805 0.0
C1007 C 0.12346 0.55395 0.3941 0.0
C1008 C 0.07597 0.55977 0.42489 0.0
C1009 C 0.09192 0.55558 0.37733 0.0
C1010 C 0.04527 0.56129 0.40759 0.0
N1011 N 0.05381 0.55919 0.38436 0.0
C1012 C 0.23935 0.53856 0.42347 0.0
C1013 C 0.27768 0.5533 0.43865 0.0
C1014 C 0.27183 0.536 0.40792 0.0
N1015 N 0.24269 0.54718 0.43807 0.0
C1016 C 0.31089 0.55103 0.42345 0.0
C1017 C 0.30771 0.54245 0.40743 0.0
H1018 H 0.21087 0.5339 0.42337 0.0
H1019 H 0.27913 0.56018 0.45029 0.0
C1020 C 0.1056 0.58649 0.46015 0.0
N1021 N 0.13205 0.58009 0.44776 0.0
C1022 C 0.10272 0.59735 0.45467 0.0
C1023 C 0.15312 0.5947 0.42319 0.0
C1024 C 0.15507 0.58389 0.42931 0.0
C1025 C 0.12728 0.60162 0.43624 0.0
H1026 H 0.08862 0.58328 0.47514 0.0
H1027 H 0.17638 0.5786 0.42009 0.0
O1028 O 0.17154 0.54169 0.47843 0.0
O1029 O 0.10691 0.56029 0.48391 0.0
O1030 O 0.20083 0.56529 0.47286 0.0
O1031 O 0.14604 0.5545 0.43461 0.0
H1032 H 0.13924 0.52433 0.49818 0.0
H1033 H 0.25371 0.54126 0.48422 0.0
H1034 H 0.18012 0.51024 0.51867 0.0
H1035 H 0.29253 0.5269 0.50506 0.0
H1036 H 0.99308 0.56628 0.53027 0.0
H1037 H 0.10836 0.54207 0.50833 0.0
H1038 H 0.04249 0.57176 0.49855 0.0
H1039 H 0.05783 0.5371 0.53972 0.0
H1040 H 0.17645 0.54228 0.57662 0.0
H1041 H 0.12992 0.5744 0.56717 0.0
H1042 H 0.08547 0.51022 0.45181 0.0
H1043 H 0.98423 0.53016 0.47692 0.0
H1044 H 0.1838 0.5853 0.48518 0.0
H1045 H 0.26423 0.55842 0.49901 0.0
H1046 H 0.22078 0.59546 0.51659 0.0
H1047 H 0.29974 0.56904 0.53024 0.0
H1048 H 0.15383 0.55108 0.38855 0.0
H1049 H 0.06908 0.56146 0.44332 0.0
H1050 H 0.09775 0.55398 0.35872 0.0
H1051 H 0.01465 0.56416 0.41262 0.0
H1052 H 0.26854 0.52925 0.39601 0.0
H1053 H 0.33795 0.55623 0.42345 0.0
H1054 H 0.08328 0.60246 0.46559 0.0
H1055 H 0.17261 0.59771 0.40893 0.0
Li1056 Li 0.90793 0.43747 0.2438 0.0
Li1057 Li 0.87718 0.43304 0.20419 0.0
Li1058 Li 0.94168 0.44432 0.2087 0.0
Li1059 Li 0.87575 0.4512 0.22054 0.0
C1060 C 0.94976 0.42085 0.2303 0.0
N1061 N 0.982 0.40428 0.25715 0.0
C1062 C 0.92984 0.4109 0.23061 0.0
C1063 C 0.98615 0.42236 0.24359 0.0
C1064 C 0.94663 0.40262 0.2443 0.0
C1065 C 0.00192 0.41389 0.25708 0.0
C1066 C 0.81185 0.44153 0.24116 0.0
C1067 C 0.74062 0.44682 0.23389 0.0
N1068 N 0.73685 0.44973 0.2571 0.0
C1069 C 0.80724 0.44452 0.26497 0.0
C1070 C 0.77826 0.44262 0.22551 0.0
C1071 C 0.76907 0.44866 0.27267 0.0
C1072 C 0.92847 0.43809 0.29268 0.0
N1073 N 0.91012 0.43224 0.27522 0.0
C1074 C 0.87618 0.42111 0.30377 0.0
C1075 C 0.88527 0.42372 0.28024 0.0
C1076 C 0.89249 0.42743 0.32215 0.0
C1077 C 0.92026 0.43575 0.3165 0.0
H1078 H 0.94708 0.44501 0.28811 0.0
H1079 H 0.87019 0.41942 0.26593 0.0
C1080 C 0.88187 0.41694 0.17092 0.0
N1081 N 0.85582 0.42122 0.18742 0.0
C1082 C 0.87844 0.40616 0.1648 0.0
C1083 C 0.81885 0.40476 0.19104 0.0
C1084 C 0.82358 0.41556 0.19677 0.0
C1085 C 0.84797 0.39981 0.17589 0.0
H1086 H 0.90816 0.42156 0.16456 0.0
H1087 H 0.80436 0.41909 0.2105 0.0
C1088 C 0.96032 0.45932 0.23882 0.0
N1089 N 0.02508 0.47391 0.23889 0.0
C1090 C 0.95456 0.46951 0.22914 0.0
C1091 C 0.99892 0.45656 0.24863 0.0
C1092 C 0.98771 0.47678 0.22934 0.0
C1093 C 0.03131 0.46404 0.24845 0.0
C1094 C 0.86789 0.45223 0.17217 0.0
C1095 C 0.87995 0.46246 0.16485 0.0
C1096 C 0.83142 0.44767 0.16302 0.0
C1097 C 0.85507 0.46801 0.1486 0.0
C1098 C 0.80737 0.45348 0.14682 0.0
N1099 N 0.81958 0.46345 0.14001 0.0
C1100 C 0.01857 0.43848 0.18904 0.0
C1101 C 0.99908 0.45641 0.1809 0.0
C1102 C 0.05187 0.4392 0.17318 0.0
N1103 N 0.99253 0.44694 0.19224 0.0
C1104 C 0.03219 0.4575 0.1649 0.0
C1105 C 0.05809 0.4487 0.16035 0.0
H1106 H 0.01223 0.43097 0.19784 0.0
H1107 H 0.97748 0.46294 0.18332 0.0
C1108 C 0.84959 0.46755 0.24899 0.0
N1109 N 0.84308 0.46377 0.22663 0.0
C1110 C 0.82786 0.47645 0.25726 0.0
C1111 C 0.79303 0.47757 0.21927 0.0
C1112 C 0.81494 0.46848 0.21186 0.0
C1113 C 0.79919 0.48162 0.24235 0.0
H1114 H 0.87135 0.46352 0.26064 0.0
H1115 H 0.80901 0.46519 0.19448 0.0
O1116 O 0.93351 0.42912 0.21731 0.0
O1117 O 0.84929 0.43772 0.23313 0.0
O1118 O 0.92839 0.45206 0.23864 0.0
O1119 O 0.89221 0.44657 0.18768 0.0
H1120 H 0.90156 0.40958 0.22058 0.0
H1121 H 0.0019 0.43002 0.24358 0.0
H1122 H 0.93146 0.39489 0.24474 0.0
H1123 H 0.02998 0.41496 0.26751 0.0
H1124 H 0.71443 0.44778 0.22194 0.0
H1125 H 0.833 0.44378 0.2773 0.0
H1126 H 0.78137 0.44035 0.20703 0.0
H1127 H 0.76512 0.45107 0.29101 0.0
H1128 H 0.85493 0.41459 0.30752 0.0
H1129 H 0.93314 0.44084 0.33025 0.0
H1130 H 0.90207 0.40262 0.1535 0.0
H1131 H 0.79504 0.4001 0.19998 0.0
H1132 H 0.92503 0.47176 0.22126 0.0
H1133 H 0.00384 0.44871 0.25624 0.0
H1134 H 0.98378 0.48468 0.22181 0.0
H1135 H 0.0614 0.462 0.25592 0.0
H1136 H 0.90797 0.46612 0.17181 0.0
H1137 H 0.82181 0.43973 0.16834 0.0
H1138 H 0.8639 0.47596 0.14287 0.0
H1139 H 0.77901 0.45007 0.13964 0.0
H1140 H 0.07161 0.43229 0.17029 0.0
H1141 H 0.03607 0.46493 0.15524 0.0
H1142 H 0.83315 0.47916 0.2753 0.0
H1143 H 0.77177 0.48141 0.20698 0.0
Li1144 Li 0.87158 0.31903 0.20545 0.0
Li1145 Li 0.84779 0.31109 0.24274 0.0
Li1146 Li 0.88266 0.30026 0.21266 0.0
Li1147 Li 0.81292 0.30637 0.20455 0.0
C1148 C 0.94242 0.31745 0.23402 0.0
N1149 N 0.0175 0.32797 0.24018 0.0
C1150 C 0.95093 0.32275 0.25538 0.0
C1151 C 0.97205 0.31753 0.21578 0.0
C1152 C 0.98908 0.32801 0.25815 0.0
C1153 C 0.00985 0.32289 0.21925 0.0
C1154 C 0.80943 0.331 0.22648 0.0
C1155 C 0.77199 0.34754 0.22066 0.0
N1156 N 0.79928 0.35259 0.2354 0.0
C1157 C 0.83706 0.33636 0.24159 0.0
C1158 C 0.77657 0.33663 0.21595 0.0
C1159 C 0.8314 0.34727 0.24588 0.0
C1160 C 0.86018 0.33561 0.17375 0.0
N1161 N 0.88581 0.33256 0.19181 0.0
C1162 C 0.90875 0.35057 0.1972 0.0
C1163 C 0.91092 0.33975 0.20301 0.0
C1164 C 0.88003 0.35406 0.18001 0.0
C1165 C 0.85671 0.3464 0.16753 0.0
H1166 H 0.83953 0.3298 0.16572 0.0
H1167 H 0.92966 0.33736 0.21798 0.0
C1168 C 0.87372 0.30591 0.2869 0.0
N1169 N 0.84583 0.31249 0.27611 0.0
C1170 C 0.88181 0.30692 0.31108 0.0
C1171 C 0.83082 0.32118 0.31294 0.0
C1172 C 0.8235 0.31984 0.28859 0.0
C1173 C 0.861 0.3148 0.3243 0.0
H1174 H 0.89096 0.30016 0.2764 0.0
H1175 H 0.8013 0.32493 0.27955 0.0
C1176 C 0.87972 0.30042 0.16689 0.0
N1177 N 0.91707 0.28649 0.13526 0.0
C1178 C 0.85997 0.29083 0.16081 0.0
C1179 C 0.91823 0.30298 0.15673 0.0
C1180 C 0.87943 0.28388 0.14483 0.0
C1181 C 0.93666 0.29582 0.1408 0.0
C1182 C 0.79732 0.29304 0.24312 0.0
C1183 C 0.79709 0.28259 0.25191 0.0
C1184 C 0.76329 0.29977 0.24754 0.0
C1185 C 0.76268 0.279 0.26492 0.0
C1186 C 0.72948 0.29588 0.26063 0.0
N1187 N 0.72987 0.28566 0.26897 0.0
C1188 C 0.95778 0.2883 0.21815 0.0
C1189 C 0.89593 0.27837 0.21121 0.0
C1190 C 0.97877 0.27904 0.22518 0.0
N1191 N 0.91678 0.28784 0.21203 0.0
C1192 C 0.91566 0.26892 0.21818 0.0
C1193 C 0.95705 0.26929 0.22628 0.0
H1194 H 0.97346 0.29591 0.21927 0.0
H1195 H 0.86302 0.27828 0.2069 0.0
C1196 C 0.75091 0.3117 0.17344 0.0
N1197 N 0.7635 0.3035 0.18753 0.0
C1198 C 0.71858 0.31024 0.15727 0.0
C1199 C 0.71228 0.2919 0.1705 0.0
C1200 C 0.74483 0.29373 0.1866 0.0
C1201 C 0.69959 0.30017 0.1552 0.0
H1202 H 0.76716 0.31927 0.17419 0.0
H1203 H 0.75625 0.28728 0.19763 0.0
O1204 O 0.90514 0.3123 0.231 0.0
O1205 O 0.81542 0.32041 0.22133 0.0
O1206 O 0.86155 0.30722 0.18283 0.0
O1207 O 0.83097 0.29663 0.23043 0.0
H1208 H 0.92826 0.32284 0.26963 0.0
H1209 H 0.96584 0.31354 0.19911 0.0
H1210 H 0.99607 0.33215 0.27457 0.0
H1211 H 0.03305 0.32301 0.20528 0.0
H1212 H 0.74679 0.352 0.21256 0.0
H1213 H 0.86304 0.33217 0.2496 0.0
H1214 H 0.75488 0.33263 0.2042 0.0
H1215 H 0.85274 0.35152 0.25741 0.0
H1216 H 0.92721 0.35626 0.20724 0.0
H1217 H 0.83362 0.34879 0.1545 0.0
H1218 H 0.90485 0.30175 0.31926 0.0
H1219 H 0.81434 0.32739 0.32251 0.0
H1220 H 0.83016 0.28874 0.16855 0.0
H1221 H 0.93363 0.31044 0.16104 0.0
H1222 H 0.86465 0.2764 0.14008 0.0
H1223 H 0.96653 0.29768 0.13284 0.0
H1224 H 0.82326 0.2773 0.24873 0.0
H1225 H 0.7628 0.30788 0.24095 0.0
H1226 H 0.76208 0.27092 0.27181 0.0
H1227 H 0.70292 0.30098 0.26415 0.0
H1228 H 0.01099 0.27959 0.23089 0.0
H1229 H 0.89787 0.26156 0.21883 0.0
H1230 H 0.70906 0.31688 0.14613 0.0
H1231 H 0.69828 0.28402 0.16939 0.0
Li1232 Li 0.94678 0.30581 0.54029 0.0
Li1233 Li 0.87866 0.30044 0.52827 0.0
Li1234 Li 0.91835 0.31226 0.50362 0.0
Li1235 Li 0.8881 0.319 0.54146 0.0
C1236 C 0.95931 0.28918 0.51383 0.0
N1237 N 0.0158 0.27262 0.51876 0.0
C1238 C 0.9477 0.27978 0.52557 0.0
C1239 C -0.0004 0.29014 0.50454 0.0
C1240 C 0.97672 0.27149 0.52787 0.0
C1241 C 0.02773 0.28169 0.50725 0.0
C1242 C 0.8666 0.30187 0.57649 0.0
C1243 C 0.8025 0.30405 0.59849 0.0
N1244 N 0.80914 0.29445 0.60924 0.0
C1245 C 0.87285 0.29204 0.58782 0.0
C1246 C 0.83124 0.30795 0.58194 0.0
C1247 C 0.84343 0.28843 0.60431 0.0
C1248 C 0.02856 0.3088 0.55744 0.0
N1249 N 0.99552 0.30199 0.55749 0.0
C1250 C 0.0282 0.291 0.58685 0.0
C1251 C 0.99498 0.29313 0.57153 0.0
C1252 C 0.06221 0.29805 0.58761 0.0
C1253 C 0.06252 0.30696 0.5724 0.0
H1254 H 0.0278 0.31591 0.54653 0.0
H1255 H 0.96821 0.2879 0.57138 0.0
C1256 C 0.84758 0.2844 0.50123 0.0
N1257 N 0.84168 0.28862 0.52325 0.0
C1258 C 0.82499 0.27552 0.49382 0.0
C1259 C 0.79022 0.27532 0.53193 0.0
C1260 C 0.81306 0.28441 0.53847 0.0
C1261 C 0.79618 0.27075 0.5093 0.0
H1262 H 0.87005 0.28798 0.48931 0.0
H1263 H 0.808 0.28799 0.55566 0.0
C1264 C 0.96632 0.32796 0.51448 0.0
N1265 N 0.00537 0.34224 0.48428 0.0
C1266 C 0.95172 0.33846 0.51256 0.0
C1267 C 0.00093 0.32474 0.50115 0.0
C1268 C 0.97187 0.34556 0.49718 0.0
C1269 C 0.02019 0.33207 0.48594 0.0
C1270 C 0.82108 0.31137 0.50413 0.0
C1271 C 0.81714 0.3076 0.48083 0.0
C1272 C 0.78564 0.31226 0.51847 0.0
C1273 C 0.77778 0.30468 0.47234 0.0
C1274 C 0.74683 0.30925 0.50934 0.0
N1275 N 0.74374 0.30555 0.48666 0.0
C1276 C 0.94188 0.30882 0.45601 0.0
C1277 C 0.90268 0.32459 0.46351 0.0
C1278 C 0.9357 0.30997 0.43159 0.0
N1279 N 0.92445 0.31594 0.47132 0.0
C1280 C 0.89543 0.32598 0.43926 0.0
C1281 C 0.91078 0.31838 0.42314 0.0
H1282 H 0.95791 0.30186 0.46281 0.0
H1283 H 0.88827 0.32993 0.47622 0.0
C1284 C 0.89207 0.33525 0.57526 0.0
N1285 N 0.87047 0.33182 0.55592 0.0
C1286 C 0.88966 0.34594 0.58234 0.0
C1287 C 0.84113 0.34917 0.55018 0.0
C1288 C 0.84434 0.33841 0.54378 0.0
C1289 C 0.86505 0.35312 0.56922 0.0
H1290 H 0.91352 0.32986 0.58408 0.0
H1291 H 0.8288 0.33553 0.52795 0.0
O1292 O 0.93158 0.29745 0.51167 0.0
O1293 O 0.89546 0.30565 0.56063 0.0
O1294 O 0.94655 0.32082 0.52908 0.0
O1295 O 0.85945 0.31411 0.51291 0.0
H1296 H 0.91687 0.27893 0.53317 0.0
H1297 H 0.00914 0.29737 0.49546 0.0
H1298 H 0.96823 0.2642 0.53701 0.0
H1299 H 0.05906 0.28234 0.50023 0.0
H1300 H 0.77496 0.30866 0.60281 0.0
H1301 H 0.89984 0.2872 0.5838 0.0
H1302 H 0.82602 0.31561 0.57356 0.0
H1303 H 0.84779 0.28082 0.61312 0.0
H1304 H 0.0269 0.28407 0.59839 0.0
H1305 H 0.08781 0.31271 0.5729 0.0
H1306 H 0.83012 0.2724 0.4761 0.0
H1307 H 0.76878 0.27182 0.5446 0.0
H1308 H 0.92506 0.34111 0.52274 0.0
H1309 H 0.01253 0.31663 0.50236 0.0
H1310 H 0.96082 0.3537 0.49547 0.0
H1311 H 0.04686 0.32966 0.47543 0.0
H1312 H 0.84423 0.30679 0.46949 0.0
H1313 H 0.78808 0.31523 0.53647 0.0
H1314 H 0.77432 0.3017 0.45439 0.0
H1315 H 0.71916 0.30985 0.52028 0.0
H1316 H 0.94771 0.30392 0.4196 0.0
H1317 H 0.87626 0.3326 0.43327 0.0
H1318 H 0.90865 0.34869 0.59706 0.0
H1319 H 0.82272 0.35448 0.53916 0.0
Li1320 Li 0.86756 0.45048 0.52136 0.0
Li1321 Li 0.80077 0.44473 0.53476 0.0
Li1322 Li 0.86232 0.43239 0.53783 0.0
Li1323 Li 0.83014 0.43733 0.49899 0.0
C1324 C 0.87985 0.45113 0.56961 0.0
N1325 N 0.93475 0.46087 0.60073 0.0
C1326 C 0.87159 0.46142 0.57818 0.0
C1327 C 0.91589 0.44578 0.57701 0.0
C1328 C 0.89976 0.46621 0.59388 0.0
C1329 C 0.94332 0.45085 0.59269 0.0
C1330 C 0.78467 0.46017 0.50522 0.0
C1331 C 0.71523 0.46661 0.49686 0.0
N1332 N 0.72523 0.47618 0.50689 0.0
C1333 C 0.79429 0.47007 0.51541 0.0
C1334 C 0.74488 0.45842 0.49582 0.0
C1335 C 0.76381 0.47806 0.51608 0.0
C1336 C 0.89491 0.46626 0.49194 0.0
N1337 N 0.90218 0.46258 0.51431 0.0
C1338 C 0.95206 0.47651 0.52087 0.0
C1339 C 0.93098 0.46734 0.52861 0.0
C1340 C 0.94396 0.48066 0.49808 0.0
C1341 C 0.91577 0.47522 0.48335 0.0
H1342 H 0.87278 0.46216 0.48063 0.0
H1343 H 0.93768 0.46409 0.54594 0.0
C1344 C 0.72125 0.44088 0.55422 0.0
N1345 N 0.7517 0.44838 0.55191 0.0
C1346 C 0.6882 0.44254 0.56995 0.0
C1347 C 0.71772 0.45975 0.58005 0.0
C1348 C 0.75015 0.45777 0.56409 0.0
C1349 C 0.68689 0.45194 0.58357 0.0
H1350 H 0.72361 0.4334 0.54472 0.0
H1351 H 0.77489 0.46355 0.56211 0.0
C1352 C 0.92726 0.43969 0.49937 0.0
N1353 N 0.00324 0.44646 0.48171 0.0
C1354 C 0.93093 0.44272 0.47554 0.0
C1355 C 0.96228 0.43999 0.51416 0.0
C1356 C 0.9696 0.44614 0.46697 0.0
C1357 C 0.0004 0.44347 0.50491 0.0
C1358 C 0.78444 0.42151 0.51363 0.0
C1359 C 0.79935 0.41101 0.51443 0.0
C1360 C 0.74929 0.42391 0.49991 0.0
C1361 C 0.77897 0.40308 0.50132 0.0
C1362 C 0.72985 0.41577 0.487 0.0
N1363 N 0.74497 0.40561 0.48797 0.0
C1364 C 0.86036 0.41732 0.57397 0.0
C1365 C 0.9079 0.4134 0.5428 0.0
C1366 C 0.86184 0.40674 0.58186 0.0
N1367 N 0.88194 0.42028 0.55425 0.0
C1368 C 0.91019 0.40273 0.55003 0.0
C1369 C 0.88519 0.39919 0.569 0.0
H1370 H 0.83913 0.42292 0.58225 0.0
H1371 H 0.92352 0.41592 0.52669 0.0
C1372 C 0.80683 0.43874 0.45083 0.0
N1373 N 0.82418 0.4323 0.46758 0.0
C1374 C 0.81236 0.43645 0.42675 0.0
C1375 C 0.85198 0.42073 0.43777 0.0
C1376 C 0.84556 0.4233 0.46162 0.0
C1377 C 0.83626 0.42752 0.42003 0.0
H1378 H 0.7913 0.44604 0.45612 0.0
H1379 H 0.86007 0.41854 0.47539 0.0
O1380 O 0.85224 0.44621 0.55464 0.0
O1381 O 0.81392 0.45221 0.50458 0.0
O1382 O 0.88945 0.43657 0.50825 0.0
O1383 O 0.80419 0.42943 0.52613 0.0
H1384 H 0.84404 0.46572 0.57259 0.0
H1385 H 0.92262 0.43778 0.57077 0.0
H1386 H 0.89386 0.47419 0.60055 0.0
H1387 H 0.97138 0.4468 0.5985 0.0
H1388 H 0.68427 0.46535 0.48971 0.0
H1389 H 0.82473 0.47154 0.52306 0.0
H1390 H 0.73691 0.45081 0.48786 0.0
H1391 H 0.77076 0.48574 0.52402 0.0
H1392 H 0.97407 0.48037 0.5327 0.0
H1393 H 0.90994 0.47781 0.46529 0.0
H1394 H 0.66507 0.43631 0.57231 0.0
H1395 H 0.71736 0.46717 0.59002 0.0
H1396 H 0.90409 0.44256 0.46387 0.0
H1397 H 0.95998 0.43762 0.53261 0.0
H1398 H 0.97285 0.44859 0.44861 0.0
H1399 H 0.02773 0.44381 0.51619 0.0
H1400 H 0.82632 0.40897 0.52502 0.0
H1401 H 0.73736 0.432 0.49912 0.0
H1402 H 0.79021 0.39492 0.50177 0.0
H1403 H 0.70276 0.41752 0.47621 0.0
H1404 H 0.84267 0.40432 0.59679 0.0
H1405 H 0.92835 0.39713 0.53959 0.0
H1406 H 0.80063 0.44202 0.4136 0.0
H1407 H 0.87078 0.41382 0.43322 0.0
Li1408 Li 0.61548 0.06677 0.78833 0.0
Li1409 Li 0.55593 0.05402 0.79 0.0
Li1410 Li 0.62768 0.04767 0.78175 0.0
Li1411 Li 0.59059 0.05806 0.75314 0.0
C1412 C 0.63727 0.05461 0.82823 0.0
N1413 N 0.69914 0.05431 0.86245 0.0
C1414 C 0.62813 0.05128 0.85136 0.0
C1415 C 0.67787 0.0578 0.82249 0.0
C1416 C 0.65984 0.05118 0.86842 0.0
C1417 C 0.70871 0.05759 0.84004 0.0
C1418 C 0.54167 0.07463 0.75727 0.0
C1419 C 0.49174 0.07768 0.72586 0.0
N1420 N 0.5079 0.08762 0.72243 0.0
C1421 C 0.55755 0.08491 0.75354 0.0
C1422 C 0.50826 0.07101 0.74344 0.0
C1423 C 0.54013 0.09135 0.73582 0.0
C1424 C 0.66012 0.08592 0.78643 0.0
N1425 N 0.63442 0.07999 0.80037 0.0
C1426 C 0.62166 0.09494 0.82579 0.0
C1427 C 0.61609 0.08415 0.8201 0.0
C1428 C 0.64599 0.10146 0.81087 0.0
C1429 C 0.66627 0.09675 0.79133 0.0
H1430 H 0.67304 0.08247 0.77042 0.0
H1431 H 0.5951 0.07926 0.83053 0.0
C1432 C 0.50838 0.04379 0.82498 0.0
N1433 N 0.50674 0.05114 0.80719 0.0
C1434 C 0.47477 0.04266 0.84058 0.0
C1435 C 0.43787 0.0563 0.81846 0.0
C1436 C 0.47228 0.05724 0.80343 0.0
C1437 C 0.43948 0.0492 0.83778 0.0
H1438 H 0.53654 0.03916 0.82765 0.0
H1439 H 0.47209 0.06309 0.78928 0.0
C1440 C 0.67743 0.05666 0.74654 0.0
N1441 N 0.73371 0.04996 0.71239 0.0
C1442 C 0.66855 0.04775 0.7324 0.0
C1443 C 0.71498 0.06216 0.74331 0.0
C1444 C 0.69736 0.04449 0.71524 0.0
C1445 C 0.74303 0.05865 0.72595 0.0
C1446 C 0.55044 0.03749 0.75179 0.0
C1447 C 0.56811 0.02903 0.73899 0.0
C1448 C 0.50743 0.03928 0.75051 0.0
C1449 C 0.54254 0.02265 0.72471 0.0
C1450 C 0.48292 0.03272 0.73603 0.0
N1451 N 0.50084 0.02462 0.72351 0.0
C1452 C 0.64418 0.02599 0.78641 0.0
C1453 C 0.70528 0.03645 0.7812 0.0
C1454 C 0.66674 0.01659 0.78267 0.0
N1455 N 0.66342 0.03565 0.78479 0.0
C1456 C 0.72894 0.02726 0.77701 0.0
C1457 C 0.70931 0.01723 0.77709 0.0
H1458 H 0.61078 0.02562 0.78911 0.0
H1459 H 0.71986 0.04423 0.78009 0.0
C1460 C 0.61139 0.06904 0.71252 0.0
N1461 N 0.58723 0.06069 0.71966 0.0
C1462 C 0.6194 0.07071 0.68848 0.0
C1463 C 0.575 0.05562 0.67932 0.0
C1464 C 0.56803 0.0542 0.70362 0.0
C1465 C 0.60192 0.06378 0.67163 0.0
H1466 H 0.62634 0.07407 0.72566 0.0
H1467 H 0.54888 0.04764 0.70953 0.0
O1468 O 0.60649 0.05469 0.81138 0.0
O1469 O 0.5589 0.06813 0.77424 0.0
O1470 O 0.64954 0.06008 0.76337 0.0
O1471 O 0.57498 0.04377 0.76602 0.0
H1472 H 0.59683 0.04878 0.85607 0.0
H1473 H 0.6856 0.06042 0.80471 0.0
H1474 H 0.65321 0.04862 0.8864 0.0
H1475 H 0.74026 0.06003 0.83585 0.0
H1476 H 0.46612 0.07494 0.71491 0.0
H1477 H 0.58307 0.08791 0.76415 0.0
H1478 H 0.49554 0.0631 0.746 0.0
H1479 H 0.55226 0.0993 0.7327 0.0
H1480 H 0.60545 0.09827 0.84098 0.0
H1481 H 0.6842 0.10151 0.77891 0.0
H1482 H 0.47714 0.03711 0.85532 0.0
H1483 H 0.41082 0.06133 0.81546 0.0
H1484 H 0.63968 0.04343 0.73461 0.0
H1485 H 0.72245 0.06906 0.75413 0.0
H1486 H 0.69081 0.03761 0.70418 0.0
H1487 H 0.77222 0.06283 0.72327 0.0
H1488 H 0.6012 0.02738 0.74003 0.0
H1489 H 0.49305 0.04563 0.76058 0.0
H1490 H 0.55584 0.01612 0.71461 0.0
H1491 H 0.44962 0.03405 0.73479 0.0
H1492 H 0.65059 0.00897 0.78268 0.0
H1493 H 0.76184 0.028 0.77286 0.0
H1494 H 0.64015 0.07712 0.68315 0.0
H1495 H 0.56128 0.05006 0.66678 0.0
Li1496 Li 0.69725 0.19753 0.78867 0.0
Li1497 Li 0.64633 0.18352 0.78531 0.0
Li1498 Li 0.66576 0.1939 0.75131 0.0
Li1499 Li 0.62558 0.20261 0.78127 0.0
C1500 C 0.72821 0.1772 0.78085 0.0
N1501 N 0.77999 0.16267 0.80327 0.0
C1502 C 0.72763 0.17623 0.80563 0.0
C1503 C 0.75512 0.17077 0.7675 0.0
C1504 C 0.75406 0.16885 0.81662 0.0
C1505 C 0.78106 0.16347 0.77916 0.0
C1506 C 0.61799 0.1938 0.82673 0.0
C1507 C 0.54624 0.19027 0.83713 0.0
N1508 N 0.55643 0.19093 0.86056 0.0
C1509 C 0.62774 0.19444 0.8509 0.0
C1510 C 0.5769 0.19168 0.81976 0.0
C1511 C 0.59619 0.19296 0.86774 0.0
C1512 C 0.7397 0.20643 0.82697 0.0
N1513 N 0.74576 0.2016 0.80561 0.0
C1514 C 0.81902 0.20034 0.81273 0.0
C1515 C 0.7845 0.19877 0.79802 0.0
C1516 C 0.81343 0.20487 0.83537 0.0
C1517 C 0.77331 0.20814 0.84226 0.0
H1518 H 0.70844 0.20852 0.83254 0.0
H1519 H 0.78838 0.19485 0.78103 0.0
C1520 C 0.64505 0.16204 0.77724 0.0
N1521 N 0.63477 0.16915 0.79456 0.0
C1522 C 0.64626 0.15114 0.78209 0.0
C1523 C 0.62427 0.15491 0.82236 0.0
C1524 C 0.62414 0.16583 0.81682 0.0
C1525 C 0.63647 0.1475 0.80496 0.0
H1526 H 0.65439 0.16492 0.7599 0.0
H1527 H 0.61733 0.17161 0.83054 0.0
C1528 C 0.70962 0.21312 0.75505 0.0
N1529 N 0.77683 0.22335 0.73425 0.0
C1530 C 0.71149 0.22429 0.75461 0.0
C1531 C 0.74189 0.20715 0.74483 0.0
C1532 C 0.74574 0.22931 0.74403 0.0
C1533 C 0.77561 0.21247 0.73443 0.0
C1534 C 0.58617 0.18864 0.74167 0.0
C1535 C 0.5724 0.19743 0.72845 0.0
C1536 C 0.57755 0.17829 0.73365 0.0
C1537 C 0.55065 0.19572 0.70726 0.0
C1538 C 0.55572 0.17691 0.71236 0.0
N1539 N 0.54286 0.18558 0.69971 0.0
C1540 C 0.67317 0.18343 0.70716 0.0
C1541 C 0.6608 0.20212 0.70512 0.0
C1542 C 0.66463 0.18234 0.68293 0.0
N1543 N 0.66981 0.19316 0.71777 0.0
C1544 C 0.65167 0.20139 0.68097 0.0
C1545 C 0.65195 0.19134 0.66979 0.0
H1546 H 0.67978 0.17642 0.71782 0.0
H1547 H 0.65724 0.2097 0.71417 0.0
C1548 C 0.60196 0.22348 0.79034 0.0
N1549 N 0.58603 0.21369 0.78501 0.0
C1550 C 0.57806 0.23266 0.7867 0.0
C1551 C 0.52101 0.22144 0.77356 0.0
C1552 C 0.54589 0.21245 0.77768 0.0
C1553 C 0.53777 0.23169 0.77721 0.0
H1554 H 0.63421 0.22418 0.79582 0.0
H1555 H 0.5342 0.20458 0.77336 0.0
O1556 O 0.70198 0.18418 0.76948 0.0
O1557 O 0.64879 0.19522 0.81017 0.0
O1558 O 0.67618 0.20814 0.7654 0.0
O1559 O 0.60803 0.19015 0.76233 0.0
H1560 H 0.70691 0.18108 0.81631 0.0
H1561 H 0.75577 0.17139 0.74831 0.0
H1562 H 0.75389 0.16801 0.83576 0.0
H1563 H 0.80198 0.15843 0.76904 0.0
H1564 H 0.51434 0.18862 0.83199 0.0
H1565 H 0.65942 0.19603 0.8566 0.0
H1566 H 0.56865 0.19107 0.80121 0.0
H1567 H 0.60332 0.19343 0.88651 0.0
H1568 H 0.84953 0.19771 0.80685 0.0
H1569 H 0.76758 0.21144 0.85975 0.0
H1570 H 0.65566 0.14559 0.76828 0.0
H1571 H 0.61669 0.15231 0.84021 0.0
H1572 H 0.68672 0.22903 0.76237 0.0
H1573 H 0.74104 0.19851 0.74487 0.0
H1574 H 0.7476 0.23795 0.74359 0.0
H1575 H 0.80081 0.20795 0.7265 0.0
H1576 H 0.57928 0.2055 0.73417 0.0
H1577 H 0.5876 0.17139 0.74372 0.0
H1578 H 0.54023 0.20245 0.69673 0.0
H1579 H 0.54903 0.16894 0.70588 0.0
H1580 H 0.66625 0.1745 0.67482 0.0
H1581 H 0.64181 0.20851 0.67154 0.0
H1582 H 0.59191 0.24045 0.78969 0.0
H1583 H 0.4898 0.22042 0.7665 0.0
Li1584 Li 0.62727 0.20257 0.46581 0.0
Li1585 Li 0.58015 0.19311 0.49225 0.0
Li1586 Li 0.60737 0.18428 0.45795 0.0
Li1587 Li 0.55446 0.19793 0.45254 0.0
C1588 C 0.66388 0.19256 0.50442 0.0
N1589 N 0.71025 0.19806 0.54405 0.0
C1590 C 0.65582 0.20213 0.5165 0.0
C1591 C 0.69551 0.18579 0.51257 0.0
C1592 C 0.67959 0.20476 0.53648 0.0
C1593 C 0.71864 0.18872 0.5326 0.0
C1594 C 0.54233 0.21393 0.48836 0.0
C1595 C 0.47079 0.21673 0.50011 0.0
N1596 N 0.48113 0.22659 0.50849 0.0
C1597 C 0.55229 0.22409 0.49708 0.0
C1598 C 0.50131 0.2102 0.4899 0.0
C1599 C 0.5209 0.23036 0.50721 0.0
C1600 C 0.64969 0.22362 0.4597 0.0
N1601 N 0.6664 0.21395 0.46526 0.0
C1602 C 0.72854 0.22226 0.47967 0.0
C1603 C 0.70586 0.21306 0.47395 0.0
C1604 C 0.71058 0.23239 0.47596 0.0
C1605 C 0.67156 0.23299 0.46466 0.0
H1606 H 0.61829 0.22405 0.45269 0.0
H1607 H 0.71862 0.20527 0.47801 0.0
C1608 C 0.58607 0.18189 0.53461 0.0
N1609 N 0.57015 0.19112 0.52551 0.0
C1610 C 0.59374 0.18094 0.55892 0.0
C1611 C 0.56673 0.19883 0.56431 0.0
C1612 C 0.55908 0.19939 0.53993 0.0
C1613 C 0.58557 0.18966 0.57382 0.0
H1614 H 0.59678 0.17566 0.52278 0.0
H1615 H 0.54788 0.20678 0.53251 0.0
C1616 C 0.63036 0.19208 0.41693 0.0
N1617 N 0.67458 0.18231 0.38083 0.0
C1618 C 0.60989 0.18883 0.39623 0.0
C1619 C 0.6733 0.19044 0.41927 0.0
C1620 C 0.63282 0.18388 0.37817 0.0
C1621 C 0.69511 0.18546 0.40082 0.0
C1622 C 0.52601 0.17658 0.48011 0.0
C1623 C 0.54488 0.16721 0.48838 0.0
C1624 C 0.48293 0.17792 0.48265 0.0
C1625 C 0.52045 0.15942 0.49949 0.0
C1626 C 0.45955 0.16995 0.49387 0.0
N1627 N 0.47865 0.16095 0.50201 0.0
C1628 C 0.6516 0.16455 0.4557 0.0
C1629 C 0.59364 0.16645 0.4298 0.0
C1630 C 0.65432 0.15365 0.45035 0.0
N1631 N 0.62096 0.1706 0.4458 0.0
C1632 C 0.59548 0.15564 0.42376 0.0
C1633 C 0.62533 0.14903 0.43461 0.0
H1634 H 0.67208 0.16802 0.46889 0.0
H1635 H 0.56888 0.17141 0.42277 0.0
C1636 C 0.4955 0.21165 0.4289 0.0
N1637 N 0.50914 0.2015 0.43286 0.0
C1638 C 0.46307 0.2135 0.41274 0.0
C1639 C 0.46015 0.19446 0.40512 0.0
C1640 C 0.49216 0.19298 0.42148 0.0
C1641 C 0.44539 0.20482 0.40053 0.0
H1642 H 0.51012 0.21829 0.43801 0.0
H1643 H 0.50407 0.18502 0.4249 0.0
O1644 O 0.63989 0.18955 0.48539 0.0
O1645 O 0.57275 0.20769 0.47846 0.0
O1646 O 0.60839 0.19671 0.43502 0.0
O1647 O 0.54926 0.18428 0.46895 0.0
H1648 H 0.63138 0.20748 0.51062 0.0
H1649 H 0.70193 0.17831 0.5036 0.0
H1650 H 0.67358 0.21213 0.546 0.0
H1651 H 0.74317 0.18354 0.5391 0.0
H1652 H 0.43889 0.21395 0.50139 0.0
H1653 H 0.58398 0.22706 0.49618 0.0
H1654 H 0.49321 0.20236 0.48329 0.0
H1655 H 0.52816 0.23823 0.51408 0.0
H1656 H 0.75875 0.22143 0.48812 0.0
H1657 H 0.65731 0.24063 0.46055 0.0
H1658 H 0.60909 0.17384 0.56566 0.0
H1659 H 0.56035 0.20573 0.5754 0.0
H1660 H 0.57661 0.19004 0.39422 0.0
H1661 H 0.68949 0.19289 0.43527 0.0
H1662 H 0.6174 0.18128 0.36207 0.0
H1663 H 0.72834 0.18409 0.4024 0.0
H1664 H 0.5781 0.16598 0.48643 0.0
H1665 H 0.46758 0.18501 0.47588 0.0
H1666 H 0.53473 0.15216 0.5061 0.0
H1667 H 0.4262 0.1709 0.49603 0.0
H1668 H 0.67709 0.14879 0.45961 0.0
H1669 H 0.57256 0.15239 0.4116 0.0
H1670 H 0.45257 0.22161 0.40944 0.0
H1671 H 0.447 0.18757 0.39612 0.0
Li1672 Li 0.61788 0.04879 0.46529 0.0
Li1673 Li 0.661 0.05885 0.49203 0.0
Li1674 Li 0.63333 0.06755 0.45745 0.0
Li1675 Li 0.68963 0.05397 0.45368 0.0
C1676 C 0.57555 0.05879 0.50267 0.0
N1677 N 0.52438 0.05343 0.54041 0.0
C1678 C 0.58443 0.04981 0.5166 0.0
C1679 C 0.54065 0.06506 0.50799 0.0
C1680 C 0.55822 0.04723 0.53559 0.0
C1681 C 0.51515 0.06222 0.52713 0.0
C1682 C 0.6955 0.0375 0.49231 0.0
C1683 C 0.76268 0.0317 0.50677 0.0
N1684 N 0.74385 0.02355 0.51869 0.0
C1685 C 0.67685 0.02901 0.50455 0.0
C1686 C 0.73879 0.03881 0.49328 0.0
C1687 C 0.70181 0.02207 0.51785 0.0
C1688 C 0.59816 0.02755 0.4582 0.0
N1689 N 0.58037 0.03708 0.4639 0.0
C1690 C 0.51837 0.02831 0.47708 0.0
C1691 C 0.54047 0.03767 0.47202 0.0
C1692 C 0.53731 0.01831 0.47324 0.0
C1693 C 0.57686 0.01802 0.46246 0.0
H1694 H 0.6299 0.02735 0.45165 0.0
H1695 H 0.52671 0.04535 0.47602 0.0
C1696 C 0.64851 0.07048 0.53264 0.0
N1697 N 0.6695 0.06166 0.52505 0.0
C1698 C 0.6411 0.07206 0.55677 0.0
C1699 C 0.68011 0.05594 0.56511 0.0
C1700 C 0.68665 0.05463 0.54072 0.0
C1701 C 0.65546 0.06448 0.57317 0.0
H1702 H 0.63456 0.07583 0.51981 0.0
H1703 H 0.70292 0.04764 0.53446 0.0
C1704 C 0.60371 0.05571 0.41904 0.0
N1705 N 0.53746 0.05656 0.38765 0.0
C1706 C 0.60949 0.05296 0.39519 0.0
C1707 C 0.56424 0.0589 0.42695 0.0
C1708 C 0.5756 0.05345 0.37959 0.0
C1709 C 0.53115 0.05927 0.4108 0.0
C1710 C 0.71634 0.07432 0.483 0.0
C1711 C 0.70196 0.08422 0.49116 0.0
C1712 C 0.75656 0.07093 0.48893 0.0
C1713 C 0.7278 0.09047 0.50556 0.0
C1714 C 0.78148 0.07741 0.50336 0.0
N1715 N 0.76669 0.08696 0.51134 0.0
C1716 C 0.5953 0.08763 0.46034 0.0
C1717 C 0.63537 0.08469 0.42548 0.0
C1718 C 0.5927 0.09854 0.45531 0.0
N1719 N 0.61736 0.08106 0.4458 0.0
C1720 C 0.63339 0.09554 0.41969 0.0
C1721 C 0.61326 0.10267 0.43524 0.0
H1722 H 0.58245 0.08455 0.47674 0.0
H1723 H 0.65343 0.07927 0.41456 0.0
C1724 C 0.7496 0.0403 0.43135 0.0
N1725 N 0.73637 0.0505 0.43504 0.0
C1726 C 0.78264 0.03829 0.41571 0.0
C1727 C 0.78709 0.05732 0.40803 0.0
C1728 C 0.75441 0.05895 0.4239 0.0
C1729 C 0.80132 0.04689 0.40367 0.0
H1730 H 0.73404 0.03373 0.4402 0.0
H1731 H 0.74275 0.06695 0.42705 0.0
O1732 O 0.60128 0.06163 0.48427 0.0
O1733 O 0.67155 0.0443 0.47901 0.0
O1734 O 0.6367 0.05526 0.43445 0.0
O1735 O 0.6914 0.06807 0.46899 0.0
H1736 H 0.61135 0.04491 0.51284 0.0
H1737 H 0.53334 0.07206 0.49744 0.0
H1738 H 0.56481 0.04032 0.54651 0.0
H1739 H 0.48804 0.067 0.53144 0.0
H1740 H 0.79621 0.03264 0.50773 0.0
H1741 H 0.64344 0.02778 0.50381 0.0
H1742 H 0.75379 0.04523 0.48371 0.0
H1743 H 0.68777 0.0155 0.52747 0.0
H1744 H 0.48775 0.02892 0.48512 0.0
H1745 H 0.59191 0.0105 0.45823 0.0
H1746 H 0.62242 0.07882 0.56244 0.0
H1747 H 0.69169 0.04994 0.57736 0.0
H1748 H 0.63989 0.05049 0.38881 0.0
H1749 H 0.5591 0.06107 0.44531 0.0
H1750 H 0.57962 0.05134 0.36107 0.0
H1751 H 0.50044 0.06172 0.41667 0.0
H1752 H 0.67106 0.08702 0.48659 0.0
H1753 H 0.76853 0.06341 0.48236 0.0
H1754 H 0.71695 0.09811 0.51214 0.0
H1755 H 0.81263 0.07486 0.50817 0.0
H1756 H 0.57715 0.10378 0.46783 0.0
H1757 H 0.64896 0.0984 0.40383 0.0
H1758 H 0.7927 0.03014 0.41256 0.0
H1759 H 0.80099 0.06412 0.39911 0.0
Li1760 Li 0.4231 0.93744 0.24881 0.0
Li1761 Li 0.39175 0.93221 0.21018 0.0
Li1762 Li 0.45308 0.94444 0.21285 0.0
Li1763 Li 0.38603 0.95059 0.22551 0.0
C1764 C 0.46868 0.92148 0.23541 0.0
N1765 N 0.50666 0.9059 0.26275 0.0
C1766 C 0.45304 0.91104 0.23554 0.0
C1767 C 0.5038 0.92398 0.24907 0.0
C1768 C 0.47265 0.90328 0.24949 0.0
C1769 C 0.5225 0.91599 0.26282 0.0
C1770 C 0.32688 0.93956 0.24985 0.0
C1771 C 0.25211 0.94176 0.24827 0.0
N1772 N 0.25221 0.94499 0.27136 0.0
C1773 C 0.32618 0.94285 0.27362 0.0
C1774 C 0.2895 0.93895 0.23711 0.0
C1775 C 0.28816 0.94557 0.28416 0.0
C1776 C 0.44407 0.93891 0.29763 0.0
N1777 N 0.42767 0.93251 0.28047 0.0
C1778 C 0.39562 0.92129 0.30954 0.0
C1779 C 0.405 0.92365 0.28591 0.0
C1780 C 0.40962 0.92817 0.32756 0.0
C1781 C 0.43564 0.9368 0.32155 0.0
H1782 H 0.46084 0.94608 0.2927 0.0
H1783 H 0.39135 0.91892 0.2718 0.0
C1784 C 0.39365 0.91634 0.1755 0.0
N1785 N 0.37171 0.91991 0.1946 0.0
C1786 C 0.39109 0.90561 0.16873 0.0
C1787 C 0.34119 0.90272 0.20038 0.0
C1788 C 0.34456 0.9135 0.20649 0.0
C1789 C 0.3661 0.89859 0.182 0.0
H1790 H 0.41607 0.92157 0.16701 0.0
H1791 H 0.32872 0.9165 0.22211 0.0
C1792 C 0.46916 0.96013 0.24171 0.0
N1793 N 0.52956 0.97586 0.23921 0.0
C1794 C 0.46031 0.9699 0.23071 0.0
C1795 C 0.50863 0.95837 0.25154 0.0
C1796 C 0.49128 0.97775 0.22961 0.0
C1797 C 0.53877 0.96642 0.25006 0.0
C1798 C 0.37298 0.94962 0.17672 0.0
C1799 C 0.38145 0.95872 0.16307 0.0
C1800 C 0.33513 0.94423 0.17368 0.0
C1801 C 0.35169 0.96233 0.14677 0.0
C1802 C 0.30616 0.9481 0.15722 0.0
N1803 N 0.31496 0.95699 0.14422 0.0
C1804 C 0.53404 0.9409 0.19433 0.0
C1805 C 0.50165 0.95702 0.18194 0.0
C1806 C 0.56665 0.9425 0.17825 0.0
N1807 N 0.50208 0.94803 0.19556 0.0
C1808 C 0.53342 0.95889 0.16548 0.0
C1809 C 0.5658 0.95142 0.1631 0.0
H1810 H 0.53321 0.93371 0.20498 0.0
H1811 H 0.47577 0.96252 0.18319 0.0
C1812 C 0.35643 0.96625 0.25427 0.0
N1813 N 0.35188 0.96282 0.23149 0.0
C1814 C 0.33533 0.97527 0.26233 0.0
C1815 C 0.30538 0.97731 0.22318 0.0
C1816 C 0.32649 0.96805 0.21598 0.0
C1817 C 0.31014 0.9811 0.24659 0.0
H1818 H 0.37667 0.96193 0.26629 0.0
H1819 H 0.32279 0.96517 0.19804 0.0
O1820 O 0.44953 0.92925 0.2222 0.0
O1821 O 0.36385 0.93688 0.23917 0.0
O1822 O 0.43948 0.95228 0.24267 0.0
O1823 O 0.4019 0.94592 0.19263 0.0
H1824 H 0.42599 0.90893 0.22507 0.0
H1825 H 0.51625 0.93202 0.24921 0.0
H1826 H 0.46079 0.89517 0.2498 0.0
H1827 H 0.54957 0.91783 0.27357 0.0
H1828 H 0.22298 0.94135 0.23858 0.0
H1829 H 0.35469 0.94343 0.2838 0.0
H1830 H 0.28925 0.9363 0.21883 0.0
H1831 H 0.28724 0.94817 0.3025 0.0
H1832 H 0.37566 0.91454 0.31359 0.0
H1833 H 0.44667 0.9423 0.33504 0.0
H1834 H 0.41128 0.90266 0.15474 0.0
H1835 H 0.32177 0.8975 0.21105 0.0
H1836 H 0.43006 0.97136 0.2228 0.0
H1837 H 0.51594 0.95087 0.26016 0.0
H1838 H 0.48495 0.98532 0.22104 0.0
H1839 H 0.56951 0.96517 0.25752 0.0
H1840 H 0.41052 0.963 0.1651 0.0
H1841 H 0.32814 0.93714 0.18386 0.0
H1842 H 0.35778 0.96938 0.13618 0.0
H1843 H 0.27669 0.94402 0.15475 0.0
H1844 H 0.59108 0.93654 0.17678 0.0
H1845 H 0.53208 0.96592 0.15425 0.0
H1846 H 0.33868 0.97761 0.28076 0.0
H1847 H 0.28601 0.98154 0.2105 0.0
Li1848 Li 0.34923 0.80853 0.23549 0.0
Li1849 Li 0.3738 0.81732 0.19897 0.0
Li1850 Li 0.31528 0.8038 0.19758 0.0
Li1851 Li 0.38516 0.79848 0.20589 0.0
C1852 C 0.28791 0.82498 0.22142 0.0
N1853 N 0.22765 0.83942 0.23606 0.0
C1854 C 0.2982 0.83575 0.22504 0.0
C1855 C 0.24662 0.82165 0.22475 0.0
C1856 C 0.2674 0.84289 0.23257 0.0
C1857 C 0.21672 0.82904 0.2323 0.0
C1858 C 0.42836 0.81836 0.23735 0.0
C1859 C 0.49107 0.8256 0.2549 0.0
N1860 N 0.46873 0.83402 0.26342 0.0
C1861 C 0.40613 0.82707 0.24636 0.0
C1862 C 0.47124 0.8176 0.24172 0.0
C1863 C 0.427 0.83491 0.25946 0.0
C1864 C 0.37009 0.80266 0.28048 0.0
N1865 N 0.3461 0.80997 0.26901 0.0
C1866 C 0.33116 0.81893 0.30553 0.0
C1867 C 0.32626 0.81796 0.28092 0.0
C1868 C 0.35655 0.81159 0.31775 0.0
C1869 C 0.37575 0.80331 0.30496 0.0
H1870 H 0.38578 0.79648 0.27039 0.0
H1871 H 0.3079 0.82378 0.27129 0.0
C1872 C 0.35551 0.83536 0.17346 0.0
N1873 N 0.38742 0.83086 0.18587 0.0
C1874 C 0.35576 0.84628 0.16845 0.0
C1875 C 0.42346 0.84755 0.18726 0.0
C1876 C 0.42201 0.83657 0.1918 0.0
C1877 C 0.38926 0.85258 0.17629 0.0
H1878 H 0.32825 0.83062 0.16922 0.0
H1879 H 0.44719 0.8328 0.20143 0.0
C1880 C 0.30052 0.78933 0.2339 0.0
N1881 N 0.23254 0.77972 0.25543 0.0
C1882 C 0.29442 0.77828 0.23196 0.0
C1883 C 0.27222 0.79544 0.24702 0.0
C1884 C 0.25982 0.77358 0.24289 0.0
C1885 C 0.23802 0.79045 0.25772 0.0
C1886 C 0.38806 0.79952 0.16091 0.0
C1887 C 0.37142 0.79039 0.15014 0.0
C1888 C 0.42951 0.8024 0.15661 0.0
C1889 C 0.39676 0.78424 0.13526 0.0
C1890 C 0.45383 0.79603 0.14162 0.0
N1891 N 0.4371 0.78716 0.13136 0.0
C1892 C 0.24853 0.80968 0.16998 0.0
C1893 C 0.25076 0.79095 0.17663 0.0
C1894 C 0.21455 0.80854 0.15481 0.0
N1895 N 0.26579 0.80098 0.18053 0.0
C1896 C 0.21675 0.78942 0.16139 0.0
C1897 C 0.19855 0.7983 0.15011 0.0
H1898 H 0.26189 0.81752 0.17293 0.0
H1899 H 0.26603 0.78414 0.18465 0.0
C1900 C 0.46181 0.78756 0.21122 0.0
N1901 N 0.42158 0.78657 0.20397 0.0
C1902 C 0.48467 0.77848 0.21753 0.0
C1903 C 0.42514 0.76755 0.2071 0.0
C1904 C 0.40357 0.77683 0.20086 0.0
C1905 C 0.46567 0.76835 0.21645 0.0
H1906 H 0.47512 0.79541 0.21368 0.0
H1907 H 0.37137 0.77633 0.19525 0.0
O1908 O 0.3176 0.81786 0.2137 0.0
O1909 O 0.40845 0.81055 0.22452 0.0
O1910 O 0.33429 0.79402 0.22317 0.0
O1911 O 0.36414 0.80549 0.17601 0.0
H1912 H 0.32956 0.83862 0.22197 0.0
H1913 H 0.2375 0.81347 0.22129 0.0
H1914 H 0.27507 0.85121 0.23554 0.0
H1915 H 0.18475 0.82654 0.23503 0.0
H1916 H 0.52424 0.82511 0.25835 0.0
H1917 H 0.3731 0.82775 0.24333 0.0
H1918 H 0.48915 0.81093 0.235 0.0
H1919 H 0.41002 0.84168 0.26649 0.0
H1920 H 0.31637 0.82552 0.31475 0.0
H1921 H 0.39528 0.79745 0.31379 0.0
H1922 H 0.32855 0.84989 0.16028 0.0
H1923 H 0.4499 0.85218 0.19346 0.0
H1924 H 0.31604 0.77336 0.22205 0.0
H1925 H 0.27664 0.80393 0.24909 0.0
H1926 H 0.25467 0.76505 0.24143 0.0
H1927 H 0.21589 0.79512 0.26788 0.0
H1928 H 0.3394 0.78805 0.15342 0.0
H1929 H 0.44281 0.80943 0.16496 0.0
H1930 H 0.38441 0.77712 0.12687 0.0
H1931 H 0.48604 0.79813 0.1382 0.0
H1932 H 0.20128 0.81559 0.14653 0.0
H1933 H 0.20579 0.78138 0.15784 0.0
H1934 H 0.51601 0.77941 0.22445 0.0
H1935 H 0.40907 0.75993 0.2063 0.0
Li1936 Li 0.43204 0.80584 0.54049 0.0
Li1937 Li 0.36209 0.79965 0.53204 0.0
Li1938 Li 0.39797 0.8101 0.50126 0.0
Li1939 Li 0.374 0.81829 0.53773 0.0
C1940 C 0.4474 0.79169 0.50274 0.0
N1941 N 0.51408 0.78331 0.47775 0.0
C1942 C 0.44829 0.78081 0.49695 0.0
C1943 C 0.48031 0.79832 0.49568 0.0
C1944 C 0.48232 0.77673 0.48435 0.0
C1945 C 0.51376 0.79392 0.48309 0.0
C1946 C 0.36568 0.80012 0.57776 0.0
C1947 C 0.30858 0.7949 0.60313 0.0
N1948 N 0.33076 0.78619 0.61024 0.0
C1949 C 0.38803 0.79115 0.58538 0.0
C1950 C 0.32574 0.80206 0.58675 0.0
C1951 C 0.36978 0.78419 0.60179 0.0
C1952 C 0.48505 0.80998 0.57704 0.0
N1953 N 0.48065 0.80308 0.55857 0.0
C1954 C 0.53931 0.79288 0.57183 0.0
C1955 C 0.50681 0.7946 0.55566 0.0
C1956 C 0.54412 0.79983 0.59125 0.0
C1957 C 0.51686 0.80855 0.59358 0.0
H1958 H 0.46309 0.81648 0.57919 0.0
H1959 H 0.50195 0.78902 0.54126 0.0
C1960 C 0.28732 0.78791 0.52574 0.0
N1961 N 0.32755 0.7874 0.53333 0.0
C1962 C 0.26632 0.77858 0.51916 0.0
C1963 C 0.32782 0.76837 0.52954 0.0
C1964 C 0.34754 0.77788 0.53603 0.0
C1965 C 0.28734 0.76874 0.52005 0.0
H1966 H 0.27261 0.79558 0.52302 0.0
H1967 H 0.37991 0.77776 0.5415 0.0
C1968 C 0.4372 0.83032 0.52106 0.0
N1969 N 0.44813 0.85225 0.51968 0.0
C1970 C 0.41728 0.83642 0.5036 0.0
C1971 C 0.46295 0.83536 0.53771 0.0
C1972 C 0.4232 0.8475 0.50319 0.0
C1973 C 0.46795 0.84646 0.53676 0.0
C1974 C 0.30512 0.81729 0.50867 0.0
C1975 C 0.29978 0.8227 0.48711 0.0
C1976 C 0.27426 0.81795 0.52617 0.0
C1977 C 0.26359 0.82871 0.48347 0.0
C1978 C 0.23854 0.82406 0.52185 0.0
N1979 N 0.234 0.82927 0.50077 0.0
C1980 C 0.37324 0.80411 0.45744 0.0
C1981 C 0.42448 0.81778 0.45495 0.0
C1982 C 0.36675 0.80449 0.43302 0.0
N1983 N 0.40093 0.81086 0.46789 0.0
C1984 C 0.41893 0.81843 0.43031 0.0
C1985 C 0.38887 0.81192 0.41925 0.0
H1986 H 0.35519 0.79867 0.46831 0.0
H1987 H 0.44656 0.82298 0.46376 0.0
C1988 C 0.37494 0.83415 0.5725 0.0
N1989 N 0.3577 0.83175 0.55105 0.0
C1990 C 0.37511 0.8447 0.58074 0.0
C1991 C 0.33733 0.84995 0.54543 0.0
C1992 C 0.33827 0.83935 0.53777 0.0
C1993 C 0.35696 0.85277 0.56683 0.0
H1994 H 0.3913 0.82802 0.58236 0.0
H1995 H 0.32681 0.83748 0.52027 0.0
O1996 O 0.41404 0.79578 0.51489 0.0
O1997 O 0.38267 0.80693 0.56139 0.0
O1998 O 0.43092 0.8195 0.5221 0.0
O1999 O 0.34029 0.81134 0.5125 0.0
H2000 H 0.42292 0.77559 0.50212 0.0
H2001 H 0.48018 0.80676 0.49987 0.0
H2002 H 0.48345 0.76832 0.47979 0.0
H2003 H 0.53947 0.79895 0.47756 0.0
H2004 H 0.27764 0.79627 0.61021 0.0
H2005 H 0.41893 0.78953 0.57852 0.0
H2006 H 0.30822 0.80901 0.58113 0.0
H2007 H 0.3866 0.77718 0.60776 0.0
H2008 H 0.55977 0.78605 0.56955 0.0
H2009 H 0.52002 0.81418 0.6081 0.0
H2010 H 0.23513 0.77915 0.51183 0.0
H2011 H 0.34477 0.76089 0.53071 0.0
H2012 H 0.3966 0.83268 0.49086 0.0
H2013 H 0.47871 0.83077 0.5513 0.0
H2014 H 0.40764 0.85233 0.48992 0.0
H2015 H 0.48754 0.85047 0.54964 0.0
H2016 H 0.32341 0.82231 0.47341 0.0
H2017 H 0.27795 0.81382 0.54293 0.0
H2018 H 0.25908 0.83296 0.46691 0.0
H2019 H 0.21445 0.82467 0.53526 0.0
H2020 H 0.34423 0.79912 0.42502 0.0
H2021 H 0.43687 0.82418 0.42013 0.0
H2022 H 0.3909 0.84662 0.59723 0.0
H2023 H 0.32421 0.85599 0.53382 0.0
Li2024 Li 0.37262 0.94989 0.52761 0.0
Li2025 Li 0.30551 0.94388 0.53979 0.0
Li2026 Li 0.36732 0.93165 0.54308 0.0
Li2027 Li 0.33662 0.93696 0.50396 0.0
C2028 C 0.38318 0.95009 0.5759 0.0
N2029 N 0.43686 0.95963 0.60801 0.0
C2030 C 0.37498 0.9604 0.58436 0.0
C2031 C 0.41858 0.94462 0.58387 0.0
C2032 C 0.40251 0.96509 0.60058 0.0
C2033 C 0.44538 0.94959 0.60006 0.0
C2034 C 0.29006 0.95962 0.51121 0.0
C2035 C 0.2207 0.96605 0.50262 0.0
N2036 N 0.22989 0.97542 0.51376 0.0
C2037 C 0.29886 0.96932 0.52254 0.0
C2038 C 0.25073 0.95797 0.50112 0.0
C2039 C 0.26801 0.9772 0.52365 0.0
C2040 C 0.4008 0.96614 0.49967 0.0
N2041 N 0.40762 0.96203 0.52171 0.0
C2042 C 0.45936 0.97539 0.52936 0.0
C2043 C 0.43691 0.96632 0.5364 0.0
C2044 C 0.45259 0.97982 0.50668 0.0
C2045 C 0.42308 0.97499 0.49173 0.0
H2046 H 0.37811 0.96243 0.48806 0.0
H2047 H 0.44309 0.96276 0.55349 0.0
C2048 C 0.22486 0.93974 0.55787 0.0
N2049 N 0.2557 0.94719 0.55672 0.0
C2050 C 0.19162 0.94107 0.57365 0.0
C2051 C 0.22179 0.95787 0.5862 0.0
C2052 C 0.25433 0.95624 0.57011 0.0
C2053 C 0.1906 0.95007 0.58854 0.0
H2054 H 0.22707 0.93251 0.54741 0.0
H2055 H 0.27932 0.96199 0.56902 0.0
C2056 C 0.4337 0.93945 0.50613 0.0
N2057 N 0.51038 0.94665 0.49037 0.0
C2058 C 0.43853 0.9429 0.48265 0.0
C2059 C 0.46792 0.93955 0.52152 0.0
C2060 C 0.47754 0.94653 0.47504 0.0
C2061 C 0.50642 0.94325 0.51324 0.0
C2062 C 0.29073 0.92087 0.51724 0.0
C2063 C 0.30534 0.91034 0.51811 0.0
C2064 C 0.25646 0.92338 0.5029 0.0
C2065 C 0.28554 0.90249 0.50449 0.0
C2066 C 0.2376 0.91531 0.48948 0.0
N2067 N 0.2524 0.90512 0.49055 0.0
C2068 C 0.36375 0.91647 0.57866 0.0
C2069 C 0.41237 0.91254 0.54803 0.0
C2070 C 0.36387 0.90582 0.58608 0.0
N2071 N 0.38635 0.91945 0.55933 0.0
C2072 C 0.41336 0.90179 0.55483 0.0
C2073 C 0.38697 0.89825 0.57317 0.0
H2074 H 0.34251 0.92212 0.58679 0.0
H2075 H 0.42882 0.91509 0.53222 0.0
C2076 C 0.31595 0.93887 0.45536 0.0
N2077 N 0.33258 0.93229 0.4721 0.0
C2078 C 0.32323 0.93689 0.43128 0.0
C2079 C 0.36317 0.92122 0.44223 0.0
C2080 C 0.35493 0.92346 0.46608 0.0
C2081 C 0.34819 0.92816 0.42457 0.0
H2082 H 0.29959 0.94604 0.46074 0.0
H2083 H 0.3688 0.91858 0.47987 0.0
O2084 O 0.35613 0.94526 0.56044 0.0
O2085 O 0.31962 0.95174 0.51021 0.0
O2086 O 0.3955 0.93616 0.51411 0.0
O2087 O 0.30982 0.9287 0.53032 0.0
H2088 H 0.34803 0.96481 0.57828 0.0
H2089 H 0.42533 0.93662 0.57768 0.0
H2090 H 0.39666 0.97308 0.60718 0.0
H2091 H 0.47294 0.94545 0.60632 0.0
H2092 H 0.19009 0.96487 0.49495 0.0
H2093 H 0.32895 0.9707 0.53071 0.0
H2094 H 0.24341 0.95051 0.49228 0.0
H2095 H 0.27431 0.98472 0.53246 0.0
H2096 H 0.4813 0.97894 0.54168 0.0
H2097 H 0.41734 0.97799 0.47396 0.0
H2098 H 0.16814 0.93486 0.57506 0.0
H2099 H 0.22166 0.96499 0.59718 0.0
H2100 H 0.41231 0.94292 0.47052 0.0
H2101 H 0.4647 0.93687 0.53971 0.0
H2102 H 0.48167 0.9493 0.45697 0.0
H2103 H 0.53313 0.94343 0.525 0.0
H2104 H 0.33159 0.90822 0.52919 0.0
H2105 H 0.24476 0.93149 0.50204 0.0
H2106 H 0.29652 0.89431 0.50501 0.0
H2107 H 0.21119 0.91715 0.47821 0.0
H2108 H 0.34346 0.90337 0.60044 0.0
H2109 H 0.4313 0.89616 0.54436 0.0
H2110 H 0.31193 0.94255 0.41819 0.0
H2111 H 0.38271 0.91445 0.43769 0.0
Li2112 Li 0.60702 0.56763 0.29201 0.0
Li2113 Li 0.55416 0.55313 0.29244 0.0
Li2114 Li 0.62871 0.54925 0.28436 0.0
Li2115 Li 0.5869 0.55882 0.25602 0.0
C2116 C 0.63372 0.55594 0.33133 0.0
N2117 N 0.69432 0.55766 0.36606 0.0
C2118 C 0.62452 0.55322 0.35484 0.0
C2119 C 0.67373 0.55954 0.32546 0.0
C2120 C 0.65559 0.55414 0.37216 0.0
C2121 C 0.70394 0.56035 0.34328 0.0
C2122 C 0.53019 0.57351 0.26105 0.0
C2123 C 0.47813 0.57537 0.23034 0.0
N2124 N 0.49029 0.58568 0.22691 0.0
C2125 C 0.542 0.58414 0.25731 0.0
C2126 C 0.49782 0.5691 0.24757 0.0
C2127 C 0.52149 0.59016 0.23994 0.0
C2128 C 0.64353 0.58803 0.2933 0.0
N2129 N 0.61841 0.58116 0.30532 0.0
C2130 C 0.59442 0.59519 0.33068 0.0
C2131 C 0.59495 0.58441 0.3241 0.0
C2132 C 0.61788 0.60262 0.31756 0.0
C2133 C 0.64388 0.59887 0.29923 0.0
H2134 H 0.66088 0.58524 0.27803 0.0
H2135 H 0.57474 0.57875 0.33302 0.0
C2136 C 0.50961 0.53973 0.32334 0.0
N2137 N 0.50627 0.54826 0.30848 0.0
C2138 C 0.47612 0.53688 0.33792 0.0
C2139 C 0.43623 0.55144 0.32093 0.0
C2140 C 0.47048 0.55403 0.30678 0.0
C2141 C 0.43907 0.54287 0.337 0.0
H2142 H 0.53882 0.53542 0.32448 0.0
H2143 H 0.46914 0.56091 0.29516 0.0
C2144 C 0.67342 0.56022 0.24936 0.0
N2145 N 0.73055 0.556 0.21372 0.0
C2146 C 0.66828 0.55131 0.23459 0.0
C2147 C 0.70767 0.56697 0.24598 0.0
C2148 C 0.69745 0.54932 0.21668 0.0
C2149 C 0.73622 0.5647 0.22788 0.0
C2150 C 0.55874 0.5366 0.25434 0.0
C2151 C 0.58179 0.5286 0.24294 0.0
C2152 C 0.51526 0.53669 0.25229 0.0
C2153 C 0.56094 0.52092 0.22936 0.0
C2154 C 0.49558 0.52887 0.23852 0.0
N2155 N 0.51864 0.52122 0.22743 0.0
C2156 C 0.65102 0.52836 0.29266 0.0
C2157 C 0.7083 0.53882 0.27959 0.0
C2158 C 0.67324 0.51895 0.28851 0.0
N2159 N 0.66812 0.53798 0.28713 0.0
C2160 C 0.73136 0.52959 0.27467 0.0
C2161 C 0.71299 0.51949 0.27805 0.0
H2162 H 0.61901 0.52796 0.29873 0.0
H2163 H 0.72153 0.54657 0.27574 0.0
C2164 C 0.602 0.57056 0.21552 0.0
N2165 N 0.5821 0.56151 0.22268 0.0
C2166 C 0.61038 0.57228 0.19154 0.0
C2167 C 0.57444 0.55577 0.18244 0.0
C2168 C 0.56699 0.55433 0.20669 0.0
C2169 C 0.59789 0.56461 0.17484 0.0
H2170 H 0.61389 0.57611 0.22864 0.0
H2171 H 0.55128 0.5472 0.21265 0.0
O2172 O 0.60351 0.55507 0.31426 0.0
O2173 O 0.55042 0.56742 0.27768 0.0
O2174 O 0.64455 0.56254 0.26658 0.0
O2175 O 0.57862 0.5441 0.26797 0.0
H2176 H 0.59366 0.55042 0.35965 0.0
H2177 H 0.68149 0.5617 0.30738 0.0
H2178 H 0.64892 0.55206 0.39043 0.0
H2179 H 0.73503 0.56313 0.339 0.0
H2180 H 0.45322 0.57203 0.21968 0.0
H2181 H 0.56684 0.58771 0.2676 0.0
H2182 H 0.48827 0.56089 0.2502 0.0
H2183 H 0.53044 0.59838 0.2368 0.0
H2184 H 0.5745 0.59775 0.34516 0.0
H2185 H 0.66215 0.60437 0.28857 0.0
H2186 H 0.47948 0.53028 0.35024 0.0
H2187 H 0.40861 0.55643 0.32017 0.0
H2188 H 0.64194 0.54604 0.23683 0.0
H2189 H 0.71215 0.57391 0.25719 0.0
H2190 H 0.69372 0.54248 0.2051 0.0
H2191 H 0.76285 0.56987 0.22507 0.0
H2192 H 0.61543 0.5283 0.24454 0.0
H2193 H 0.49688 0.54272 0.26121 0.0
H2194 H 0.5784 0.5147 0.22039 0.0
H2195 H 0.46197 0.52888 0.23671 0.0
H2196 H 0.6586 0.51134 0.29236 0.0
H2197 H 0.76215 0.53037 0.26692 0.0
H2198 H 0.62805 0.57927 0.1862 0.0
H2199 H 0.56426 0.54971 0.16994 0.0
Li2200 Li 0.68772 0.69556 0.29317 0.0
Li2201 Li 0.62809 0.68296 0.29095 0.0
Li2202 Li 0.65757 0.69032 0.25534 0.0
Li2203 Li 0.61775 0.7017 0.28087 0.0
C2204 C 0.707 0.67377 0.26608 0.0
N2205 N 0.74997 0.65887 0.23926 0.0
C2206 C 0.68737 0.66432 0.25888 0.0
C2207 C 0.74869 0.67556 0.25995 0.0
C2208 C 0.70955 0.65691 0.24524 0.0
C2209 C 0.76983 0.66795 0.2463 0.0
C2210 C 0.60153 0.69634 0.32772 0.0
C2211 C 0.52862 0.69367 0.33664 0.0
N2212 N 0.53494 0.69773 0.35879 0.0
C2213 C 0.60731 0.70048 0.35056 0.0
C2214 C 0.56189 0.6929 0.32067 0.0
C2215 C 0.57325 0.70112 0.36601 0.0
C2216 C 0.74982 0.70855 0.31562 0.0
N2217 N 0.73527 0.69848 0.31174 0.0
C2218 C 0.78522 0.69113 0.33856 0.0
C2219 C 0.7523 0.68984 0.32267 0.0
C2220 C 0.80073 0.70142 0.34318 0.0
C2221 C 0.78307 0.71021 0.33133 0.0
H2222 H 0.7351 0.71528 0.3069 0.0
H2223 H 0.73962 0.68195 0.31939 0.0
C2224 C 0.58267 0.66368 0.29215 0.0
N2225 N 0.60921 0.67006 0.30453 0.0
C2226 C 0.57826 0.65293 0.29841 0.0
C2227 C 0.62642 0.65578 0.33093 0.0
C2228 C 0.63004 0.66646 0.32398 0.0
C2229 C 0.60138 0.64879 0.31756 0.0
H2230 H 0.56771 0.6667 0.27628 0.0
H2231 H 0.65174 0.67169 0.33305 0.0
C2232 C 0.70101 0.71028 0.25278 0.0
N2233 N 0.75848 0.72119 0.22527 0.0
C2234 C 0.68813 0.71875 0.23828 0.0
C2235 C 0.74316 0.70742 0.25342 0.0
C2236 C 0.71764 0.72414 0.22446 0.0
C2237 C 0.77172 0.71302 0.23936 0.0
C2238 C 0.57256 0.69194 0.2449 0.0
C2239 C 0.58416 0.70058 0.23052 0.0
C2240 C 0.53559 0.68643 0.24002 0.0
C2241 C 0.55853 0.70357 0.21157 0.0
C2242 C 0.5108 0.68966 0.22088 0.0
N2243 N 0.52266 0.69809 0.20718 0.0
C2244 C 0.64005 0.67833 0.21568 0.0
C2245 C 0.68488 0.6928 0.20624 0.0
C2246 C 0.63182 0.67655 0.1917 0.0
N2247 N 0.66475 0.68663 0.22253 0.0
C2248 C 0.67756 0.69128 0.18199 0.0
C2249 C 0.64919 0.68339 0.17465 0.0
H2250 H 0.62397 0.67361 0.22894 0.0
H2251 H 0.70439 0.69934 0.21186 0.0
C2252 C 0.60253 0.72345 0.27967 0.0
N2253 N 0.58249 0.71388 0.28008 0.0
C2254 C 0.58178 0.7326 0.27184 0.0
C2255 C 0.51922 0.722 0.26682 0.0
C2256 C 0.54111 0.71306 0.27499 0.0
C2257 C 0.5402 0.7318 0.26427 0.0
H2258 H 0.63551 0.72383 0.28371 0.0
H2259 H 0.52591 0.70535 0.2755 0.0
O2260 O 0.6857 0.68116 0.27932 0.0
O2261 O 0.63468 0.6957 0.31246 0.0
O2262 O 0.67254 0.70499 0.26658 0.0
O2263 O 0.59723 0.6888 0.26354 0.0
H2264 H 0.65523 0.66277 0.26357 0.0
H2265 H 0.76469 0.6827 0.26578 0.0
H2266 H 0.69462 0.64961 0.23941 0.0
H2267 H 0.80206 0.66926 0.24135 0.0
H2268 H 0.49778 0.69104 0.33142 0.0
H2269 H 0.63783 0.70317 0.35627 0.0
H2270 H 0.55673 0.68965 0.30312 0.0
H2271 H 0.57726 0.70431 0.38375 0.0
H2272 H 0.79827 0.68417 0.3473 0.0
H2273 H 0.79404 0.71827 0.33469 0.0
H2274 H 0.55952 0.64776 0.28723 0.0
H2275 H 0.64481 0.65287 0.34574 0.0
H2276 H 0.65568 0.72113 0.2376 0.0
H2277 H 0.75375 0.70097 0.26464 0.0
H2278 H 0.70808 0.73068 0.21309 0.0
H2279 H 0.80443 0.71087 0.23966 0.0
H2280 H 0.61262 0.70493 0.23394 0.0
H2281 H 0.52613 0.67972 0.25094 0.0
H2282 H 0.56714 0.71024 0.20035 0.0
H2283 H 0.48211 0.68545 0.21691 0.0
H2284 H 0.61032 0.67026 0.18663 0.0
H2285 H 0.69166 0.69668 0.16925 0.0
H2286 H 0.59886 0.74004 0.27016 0.0
H2287 H 0.48689 0.72116 0.26149 0.0
Li2288 Li 0.6297 0.70099 0.96746 0.0
Li2289 Li 0.58846 0.69084 0.99478 0.0
Li2290 Li 0.6121 0.68233 0.95912 0.0
Li2291 Li 0.55658 0.6962 0.95778 0.0
C2292 C 0.67503 0.6906 0.0026 0.0
N2293 N 0.73126 0.69595 0.03794 0.0
C2294 C 0.66766 0.69945 0.01722 0.0
C2295 C 0.71101 0.68447 0.00599 0.0
C2296 C 0.69644 0.70203 0.03497 0.0
C2297 C 0.73906 0.6873 0.02395 0.0
C2298 C 0.55394 0.71215 0.99692 0.0
C2299 C 0.48693 0.71804 0.01148 0.0
N2300 N 0.50622 0.72568 0.02474 0.0
C2301 C 0.57307 0.72015 0.0105 0.0
C2302 C 0.51049 0.71115 0.99724 0.0
C2303 C 0.54842 0.72687 0.02452 0.0
C2304 C 0.65004 0.72238 0.96465 0.0
N2305 N 0.66807 0.71256 0.96618 0.0
C2306 C 0.73296 0.72033 0.97791 0.0
C2307 C 0.70925 0.7114 0.97148 0.0
C2308 C 0.71404 0.73047 0.97846 0.0
C2309 C 0.67266 0.73151 0.97068 0.0
H2310 H 0.61717 0.72303 0.9605 0.0
H2311 H 0.72293 0.70351 0.97241 0.0
C2312 C 0.60452 0.67911 0.03521 0.0
N2313 N 0.58265 0.68786 0.02803 0.0
C2314 C 0.61149 0.67723 0.05929 0.0
C2315 C 0.57069 0.69298 0.06837 0.0
C2316 C 0.56457 0.69457 0.04404 0.0
C2317 C 0.59547 0.68439 0.07614 0.0
H2318 H 0.61879 0.67393 0.02211 0.0
H2319 H 0.54727 0.70145 0.03812 0.0
C2320 C 0.639 0.69463 0.9205 0.0
N2321 N 0.70199 0.69409 0.88698 0.0
C2322 C 0.63137 0.6981 0.89729 0.0
C2323 C 0.67866 0.69087 0.92667 0.0
C2324 C 0.66363 0.69777 0.88059 0.0
C2325 C 0.71009 0.69067 0.90947 0.0
C2326 C 0.53457 0.6755 0.98853 0.0
C2327 C 0.54912 0.66516 0.99319 0.0
C2328 C 0.49941 0.67931 0.00055 0.0
C2329 C 0.52856 0.65887 0.01005 0.0
C2330 C 0.47974 0.67278 0.0173 0.0
N2331 N 0.49462 0.66278 0.02168 0.0
C2332 C 0.65177 0.66228 0.95865 0.0
C2333 C 0.60548 0.6655 0.92652 0.0
C2334 C 0.65409 0.65145 0.95273 0.0
N2335 N 0.62674 0.66894 0.94597 0.0
C2336 C 0.60707 0.65473 0.91989 0.0
C2337 C 0.63024 0.64749 0.93369 0.0
H2338 H 0.66737 0.6652 0.97441 0.0
H2339 H 0.58531 0.67098 0.91705 0.0
C2340 C 0.51036 0.70961 0.92756 0.0
N2341 N 0.50895 0.70044 0.94052 0.0
C2342 C 0.4776 0.71219 0.91219 0.0
C2343 C 0.44222 0.69601 0.92452 0.0
C2344 C 0.47565 0.69374 0.93957 0.0
C2345 C 0.44344 0.70521 0.9102 0.0
H2346 H 0.53754 0.71473 0.92861 0.0
H2347 H 0.47575 0.68643 0.94986 0.0
O2348 O 0.64724 0.68788 0.9851 0.0
O2349 O 0.57759 0.70556 0.98291 0.0
O2350 O 0.60763 0.69493 0.93698 0.0
O2351 O 0.5548 0.68186 0.97241 0.0
H2352 H 0.64004 0.70426 0.0149 0.0
H2353 H 0.71727 0.6776 0.99482 0.0
H2354 H 0.6911 0.70887 0.04637 0.0
H2355 H 0.76704 0.68262 0.02676 0.0
H2356 H 0.45329 0.71732 0.01196 0.0
H2357 H 0.6066 0.72116 0.01028 0.0
H2358 H 0.49504 0.70516 0.98659 0.0
H2359 H 0.56284 0.73305 0.0352 0.0
H2360 H 0.7651 0.71928 0.98343 0.0
H2361 H 0.65709 0.7392 0.97085 0.0
H2362 H 0.63058 0.6705 0.06464 0.0
H2363 H 0.55821 0.69875 0.08086 0.0
H2364 H 0.6008 0.70103 0.89226 0.0
H2365 H 0.68521 0.68813 0.94451 0.0
H2366 H 0.65817 0.70043 0.86256 0.0
H2367 H 0.74093 0.68779 0.91399 0.0
H2368 H 0.57616 0.66205 0.98405 0.0
H2369 H 0.48755 0.68725 0.99711 0.0
H2370 H 0.53964 0.65088 0.01392 0.0
H2371 H 0.45265 0.67567 0.02683 0.0
H2372 H 0.6721 0.64611 0.96391 0.0
H2373 H 0.58888 0.65202 0.90482 0.0
H2374 H 0.47935 0.71942 0.90163 0.0
H2375 H 0.41653 0.6904 0.92331 0.0
Li2376 Li 0.6632 0.55829 0.99532 0.0
Li2377 Li 0.6249 0.54775 0.96746 0.0
Li2378 Li 0.69783 0.55304 0.95912 0.0
Li2379 Li 0.64086 0.56652 0.95917 0.0
C2380 C 0.70067 0.53745 0.99876 0.0
N2381 N 0.74947 0.52481 0.028 0.0
C2382 C 0.68236 0.52941 0.01257 0.0
C2383 C 0.74389 0.53895 -0.00039 0.0
C2384 C 0.70754 0.52314 0.02731 0.0
C2385 C 0.768 0.53251 0.01456 0.0
C2386 C 0.57602 0.55775 0.00125 0.0
C2387 C 0.50978 0.56034 0.02083 0.0
N2388 N 0.51806 0.55185 0.03522 0.0
C2389 C 0.5838 0.54905 0.01622 0.0
C2390 C 0.53869 0.56345 0.00355 0.0
C2391 C 0.55416 0.5462 0.03328 0.0
C2392 C 0.64221 0.56969 0.0356 0.0
N2393 N 0.66695 0.56142 0.02864 0.0
C2394 C 0.68045 0.55678 0.06911 0.0
C2395 C 0.68723 0.55523 0.04483 0.0
C2396 C 0.65268 0.56478 0.07663 0.0
C2397 C 0.63436 0.57148 0.05962 0.0
H2398 H 0.62658 0.57453 0.02237 0.0
H2399 H 0.70708 0.54878 0.0391 0.0
C2400 C 0.60639 0.5262 0.96587 0.0
N2401 N 0.58768 0.53596 0.96552 0.0
C2402 C 0.5832 0.51705 0.97096 0.0
C2403 C 0.52125 0.52805 0.97342 0.0
C2404 C 0.54571 0.53702 0.96825 0.0
C2405 C 0.54029 0.51796 0.97553 0.0
H2406 H 0.63988 0.52563 0.96382 0.0
H2407 H 0.53161 0.54487 0.96792 0.0
C2408 C 0.715 0.57407 0.99008 0.0
N2409 N 0.74964 0.58727 0.02424 0.0
C2410 C 0.6976 0.58412 0.99464 0.0
C2411 C 0.75026 0.57078 0.00277 0.0
C2412 C 0.71552 0.59067 0.012 0.0
C2413 C 0.76723 0.57755 0.02001 0.0
C2414 C 0.61747 0.55384 0.92031 0.0
C2415 C 0.62631 0.54987 0.89765 0.0
C2416 C 0.57748 0.55769 0.92542 0.0
C2417 C 0.59491 0.54981 0.88041 0.0
C2418 C 0.54693 0.55748 0.9077 0.0
N2419 N 0.5562 0.55358 0.88575 0.0
C2420 C 0.74517 0.5401 0.9288 0.0
C2421 C 0.78075 0.5554 0.94341 0.0
C2422 C 0.77892 0.53754 0.91417 0.0
N2423 N 0.74661 0.54897 0.94276 0.0
C2424 C 0.81527 0.5531 0.9292 0.0
C2425 C 0.81432 0.54415 0.91411 0.0
H2426 H 0.71724 0.53524 0.92849 0.0
H2427 H 0.78057 0.56252 0.95435 0.0
C2428 C 0.5972 0.58602 0.957 0.0
N2429 N 0.62542 0.57977 0.94554 0.0
C2430 C 0.59332 0.59682 0.95101 0.0
C2431 C 0.64589 0.59433 0.92065 0.0
C2432 C 0.64886 0.58358 0.92729 0.0
C2433 C 0.6187 0.60116 0.93305 0.0
H2434 H 0.58005 0.58284 0.97196 0.0
H2435 H 0.67173 0.57845 0.91891 0.0
O2436 O 0.67651 0.5436 0.98404 0.0
O2437 O 0.60465 0.56075 0.98443 0.0
O2438 O 0.69731 0.56745 0.97352 0.0
O2439 O 0.64795 0.5539 0.93734 0.0
H2440 H 0.64906 0.52801 0.01196 0.0
H2441 H 0.75873 0.54502 0.98891 0.0
H2442 H 0.69375 0.51693 0.03815 0.0
H2443 H 0.80145 0.53363 0.01546 0.0
H2444 H 0.48076 0.56467 0.02279 0.0
H2445 H 0.61245 0.54457 0.01474 0.0
H2446 H 0.53204 0.57018 0.99207 0.0
H2447 H 0.55987 0.53948 0.04498 0.0
H2448 H 0.6949 0.5514 0.08176 0.0
H2449 H 0.61297 0.57778 0.06482 0.0
H2450 H 0.59921 0.50946 0.97279 0.0
H2451 H 0.48817 0.52905 0.97671 0.0
H2452 H 0.67036 0.58682 0.98505 0.0
H2453 H 0.76423 0.56305 -0.00051 0.0
H2454 H 0.70222 0.59844 0.01577 0.0
H2455 H 0.79436 0.57507 0.03004 0.0
H2456 H 0.65713 0.54686 0.89345 0.0
H2457 H 0.56998 0.5608 0.94283 0.0
H2458 H 0.6013 0.54675 0.86278 0.0
H2459 H 0.51585 0.56043 0.91141 0.0
H2460 H 0.77705 0.53061 0.90262 0.0
H2461 H 0.84161 0.55854 0.92919 0.0
H2462 H 0.57285 0.60185 0.96149 0.0
H2463 H 0.66605 0.59738 0.90676 0.0
Li2464 Li 0.4263 0.43826 0.7461 0.0
Li2465 Li 0.39124 0.43201 0.70894 0.0
Li2466 Li 0.45029 0.44503 0.70881 0.0
Li2467 Li 0.38463 0.45046 0.72361 0.0
C2468 C 0.47166 0.42232 0.73219 0.0
N2469 N 0.51329 0.40707 0.75874 0.0
C2470 C 0.45907 0.41162 0.7314 0.0
C2471 C 0.50558 0.42525 0.7464 0.0
C2472 C 0.48051 0.40403 0.74495 0.0
C2473 C 0.52614 0.41744 0.75974 0.0
C2474 C 0.32874 0.4395 0.74814 0.0
C2475 C 0.25433 0.44177 0.74423 0.0
N2476 N 0.25269 0.44563 0.76683 0.0
C2477 C 0.32633 0.44344 0.77136 0.0
C2478 C 0.29249 0.4386 0.73448 0.0
C2479 C 0.28758 0.44651 0.78048 0.0
C2480 C 0.4486 0.44133 0.79407 0.0
N2481 N 0.43385 0.43414 0.77801 0.0
C2482 C 0.40413 0.42346 0.80878 0.0
C2483 C 0.41326 0.42515 0.78485 0.0
C2484 C 0.41622 0.43114 0.82559 0.0
C2485 C 0.4404 0.4399 0.81825 0.0
H2486 H 0.46347 0.44859 0.78797 0.0
H2487 H 0.40073 0.41979 0.77153 0.0
C2488 C 0.3922 0.41583 0.67514 0.0
N2489 N 0.37161 0.41931 0.69479 0.0
C2490 C 0.39043 0.40506 0.66868 0.0
C2491 C 0.34375 0.4019 0.70176 0.0
C2492 C 0.34648 0.41273 0.70762 0.0
C2493 C 0.36759 0.39788 0.6828 0.0
H2494 H 0.41286 0.42122 0.66575 0.0
H2495 H 0.33168 0.41567 0.72363 0.0
C2496 C 0.46836 0.46099 0.73478 0.0
N2497 N 0.52762 0.47655 0.72609 0.0
C2498 C 0.458 0.47004 0.72144 0.0
C2499 C 0.50875 0.45987 0.74382 0.0
C2500 C 0.48842 0.47782 0.71722 0.0
C2501 C 0.5383 0.46782 0.73919 0.0
C2502 C 0.36572 0.45001 0.67682 0.0
C2503 C 0.36846 0.46069 0.66948 0.0
C2504 C 0.33154 0.44382 0.66977 0.0
C2505 C 0.3369 0.46498 0.65523 0.0
C2506 C 0.30058 0.44842 0.65557 0.0
N2507 N 0.30389 0.45881 0.64864 0.0
C2508 C 0.5344 0.44385 0.69307 0.0
C2509 C 0.49114 0.45587 0.67174 0.0
C2510 C 0.56714 0.4456 0.67715 0.0
N2511 N 0.49717 0.44886 0.68989 0.0
C2512 C 0.52292 0.45784 0.65538 0.0
C2513 C 0.56125 0.45253 0.65779 0.0
H2514 H 0.53819 0.43819 0.7074 0.0
H2515 H 0.46119 0.45966 0.66949 0.0
C2516 C 0.35979 0.46726 0.75117 0.0
N2517 N 0.34818 0.46222 0.73078 0.0
C2518 C 0.33712 0.47592 0.75977 0.0
C2519 C 0.29015 0.47412 0.72643 0.0
C2520 C 0.31339 0.46529 0.71869 0.0
C2521 C 0.30204 0.47956 0.74727 0.0
H2522 H 0.38655 0.46445 0.76104 0.0
H2523 H 0.3034 0.46091 0.70319 0.0
O2524 O 0.45092 0.4299 0.71916 0.0
O2525 O 0.36649 0.43668 0.7387 0.0
O2526 O 0.43937 0.45313 0.73846 0.0
O2527 O 0.39678 0.44556 0.69028 0.0
H2528 H 0.43311 0.40915 0.72045 0.0
H2529 H 0.51556 0.43351 0.74738 0.0
H2530 H 0.47107 0.39572 0.74449 0.0
H2531 H 0.55226 0.41961 0.77093 0.0
H2532 H 0.22604 0.44119 0.73382 0.0
H2533 H 0.35412 0.44425 0.78214 0.0
H2534 H 0.29388 0.43557 0.71648 0.0
H2535 H 0.28526 0.44961 0.79839 0.0
H2536 H 0.38555 0.4166 0.81392 0.0
H2537 H 0.44987 0.44601 0.8308 0.0
H2538 H 0.40884 0.40224 0.65379 0.0
H2539 H 0.32607 0.39658 0.71315 0.0
H2540 H 0.42693 0.47099 0.7142 0.0
H2541 H 0.51728 0.4529 0.75415 0.0
H2542 H 0.48092 0.48484 0.70682 0.0
H2543 H 0.56976 0.46705 0.74598 0.0
H2544 H 0.39425 0.46567 0.675 0.0
H2545 H 0.3289 0.43555 0.67517 0.0
H2546 H 0.33854 0.47324 0.64952 0.0
H2547 H 0.27394 0.44372 0.65004 0.0
H2548 H 0.596 0.44119 0.67931 0.0
H2549 H 0.51727 0.46323 0.64065 0.0
H2550 H 0.34693 0.47971 0.77617 0.0
H2551 H 0.26357 0.4767 0.71604 0.0
Li2552 Li 0.35821 0.31769 0.71259 0.0
Li2553 Li 0.32422 0.31109 0.74977 0.0
Li2554 Li 0.36545 0.29915 0.72648 0.0
Li2555 Li 0.29942 0.30456 0.71245 0.0
C2556 C 0.42187 0.30986 0.75076 0.0
N2557 N 0.49844 0.3033 0.76794 0.0
C2558 C 0.42488 0.30526 0.77334 0.0
C2559 C 0.45777 0.31122 0.73698 0.0
C2560 C 0.46389 0.30196 0.78168 0.0
C2561 C 0.49621 0.30783 0.74598 0.0
C2562 C 0.27834 0.32705 0.73693 0.0
C2563 C 0.22356 0.3317 0.76449 0.0
N2564 N 0.23781 0.34195 0.76498 0.0
C2565 C 0.29233 0.33764 0.73763 0.0
C2566 C 0.24356 0.32406 0.75038 0.0
C2567 C 0.27145 0.34505 0.75193 0.0
C2568 C 0.35697 0.33391 0.67877 0.0
N2569 N 0.37749 0.33045 0.69847 0.0
C2570 C 0.40741 0.34772 0.70451 0.0
C2571 C 0.40332 0.33698 0.71097 0.0
C2572 C 0.38453 0.35171 0.6851 0.0
C2573 C 0.36017 0.34459 0.67168 0.0
H2574 H 0.33568 0.32858 0.66967 0.0
H2575 H 0.41792 0.33409 0.72707 0.0
C2576 C 0.30079 0.30785 0.79759 0.0
N2577 N 0.31656 0.31502 0.78181 0.0
C2578 C 0.30659 0.30942 0.82195 0.0
C2579 C 0.34306 0.32591 0.8132 0.0
C2580 C 0.33647 0.32405 0.78906 0.0
C2581 C 0.32917 0.31837 0.82989 0.0
H2582 H 0.28658 0.30055 0.79124 0.0
H2583 H 0.34994 0.32939 0.77601 0.0
C2584 C 0.38304 0.29984 0.67977 0.0
N2585 N 0.44427 0.29098 0.65128 0.0
C2586 C 0.38034 0.28912 0.67275 0.0
C2587 C 0.41685 0.30604 0.67224 0.0
C2588 C 0.41162 0.28479 0.65836 0.0
C2589 C 0.4475 0.30141 0.65787 0.0
C2590 C 0.2816 0.28851 0.73849 0.0
C2591 C 0.29108 0.27928 0.72551 0.0
C2592 C 0.24152 0.28986 0.74782 0.0
C2593 C 0.26013 0.27158 0.72195 0.0
C2594 C 0.21142 0.28197 0.74385 0.0
N2595 N 0.22126 0.27307 0.73109 0.0
C2596 C 0.39048 0.28143 0.75155 0.0
C2597 C 0.43835 0.28506 0.72046 0.0
C2598 C 0.41375 0.27263 0.75882 0.0
N2599 N 0.40245 0.28733 0.7324 0.0
C2600 C 0.46244 0.27619 0.72699 0.0
C2601 C 0.44986 0.26983 0.74631 0.0
H2602 H 0.36285 0.28361 0.76142 0.0
H2603 H 0.44865 0.29015 0.70613 0.0
C2604 C 0.21717 0.30685 0.69482 0.0
N2605 N 0.2524 0.30081 0.69364 0.0
C2606 C 0.18483 0.30519 0.67861 0.0
C2607 C 0.22506 0.29092 0.66081 0.0
C2608 C 0.25658 0.29285 0.67735 0.0
C2609 C 0.18917 0.29734 0.66094 0.0
H2610 H 0.2149 0.31324 0.70768 0.0
H2611 H 0.28495 0.28822 0.67671 0.0
O2612 O 0.38383 0.31284 0.742 0.0
O2613 O 0.29874 0.31963 0.72333 0.0
O2614 O 0.35237 0.3043 0.69349 0.0
O2615 O 0.31124 0.29625 0.74172 0.0
H2616 H 0.39731 0.30411 0.78417 0.0
H2617 H 0.45587 0.31475 0.71945 0.0
H2618 H 0.46668 0.29831 0.79905 0.0
H2619 H 0.52425 0.30876 0.73547 0.0
H2620 H 0.19677 0.32947 0.7751 0.0
H2621 H 0.31904 0.34014 0.72731 0.0
H2622 H 0.23241 0.3159 0.75014 0.0
H2623 H 0.28201 0.35326 0.75268 0.0
H2624 H 0.42563 0.353 0.7157 0.0
H2625 H 0.34196 0.34738 0.65669 0.0
H2626 H 0.29627 0.30331 0.83427 0.0
H2627 H 0.36078 0.33286 0.8187 0.0
H2628 H 0.35481 0.28414 0.67864 0.0
H2629 H 0.41948 0.31434 0.67742 0.0
H2630 H 0.41004 0.2765 0.65291 0.0
H2631 H 0.47387 0.30612 0.65195 0.0
H2632 H 0.32185 0.27815 0.718 0.0
H2633 H 0.23367 0.29693 0.75794 0.0
H2634 H 0.26697 0.26443 0.71183 0.0
H2635 H 0.18021 0.28292 0.75088 0.0
H2636 H 0.40331 0.26796 0.77393 0.0
H2637 H 0.49079 0.27438 0.71729 0.0
H2638 H 0.15762 0.31034 0.67916 0.0
H2639 H 0.22918 0.28468 0.64764 0.0
Li2640 Li 0.37368 0.29909 0.03477 0.0
Li2641 Li 0.44341 0.30474 0.04379 0.0
Li2642 Li 0.38293 0.31774 0.04478 0.0
Li2643 Li 0.40752 0.31038 0.00734 0.0
C2644 C 0.36901 0.29921 0.07984 0.0
N2645 N 0.31667 0.28668 0.10713 0.0
C2646 C 0.38278 0.28932 0.08837 0.0
C2647 C 0.32875 0.30276 0.08523 0.0
C2648 C 0.3558 0.28309 0.10213 0.0
C2649 C 0.30273 0.29629 0.09905 0.0
C2650 C 0.45652 0.29154 0.00352 0.0
C2651 C 0.52709 0.29224 0.98868 0.0
N2652 N 0.52009 0.28313 0.97608 0.0
C2653 C 0.45003 0.28217 0.99046 0.0
C2654 C 0.49533 0.29661 0.00265 0.0
C2655 C 0.48255 0.27805 0.97668 0.0
C2656 C 0.29631 0.28755 0.03401 0.0
N2657 N 0.33856 0.28679 0.03565 0.0
C2658 C 0.33623 0.26812 0.02686 0.0
C2659 C 0.35852 0.27727 0.03317 0.0
C2660 C 0.29311 0.26886 0.02291 0.0
C2661 C 0.27279 0.27861 0.02749 0.0
H2662 H 0.28125 0.29524 0.03609 0.0
H2663 H 0.39216 0.27692 0.03457 0.0
C2664 C 0.51708 0.31034 0.06618 0.0
N2665 N 0.49373 0.30173 0.05992 0.0
C2666 C 0.55296 0.30902 0.0798 0.0
C2667 C 0.5397 0.28996 0.08082 0.0
C2668 C 0.50426 0.29164 0.06676 0.0
C2669 C 0.56438 0.29875 0.08741 0.0
H2670 H 0.50717 0.31829 0.06112 0.0
H2671 H 0.48462 0.28497 0.06176 0.0
C2672 C 0.32177 0.30851 0.00142 0.0
N2673 N 0.26759 0.3022 0.96581 0.0
C2674 C 0.33179 0.29983 0.98674 0.0
C2675 C 0.28422 0.31397 0.99791 0.0
C2676 C 0.30397 0.29677 0.96887 0.0
C2677 C 0.25725 0.31067 0.97981 0.0
C2678 C 0.45654 0.32779 0.01801 0.0
C2679 C 0.43185 0.33651 0.01141 0.0
C2680 C 0.49925 0.32791 0.0128 0.0
C2681 C 0.45007 0.34516 -0.00042 0.0
C2682 C 0.51633 0.3367 0.00093 0.0
N2683 N 0.4916 0.34507 0.99462 0.0
C2684 C 0.39279 0.3342 0.0769 0.0
C2685 C 0.33912 0.33733 0.04867 0.0
C2686 C 0.39333 0.345 0.08315 0.0
N2687 N 0.36713 0.33071 0.05931 0.0
C2688 C 0.33905 0.34823 0.05414 0.0
C2689 C 0.36796 0.35225 0.0707 0.0
H2690 H 0.41521 0.32876 0.08469 0.0
H2691 H 0.31996 0.33436 0.03428 0.0
C2692 C 0.42791 0.30832 0.95711 0.0
N2693 N 0.4093 0.31427 0.97438 0.0
C2694 C 0.41819 0.31011 0.93322 0.0
C2695 C 0.37231 0.32446 0.94523 0.0
C2696 C 0.38306 0.32246 0.96879 0.0
C2697 C 0.38878 0.31798 0.92724 0.0
H2698 H 0.44822 0.30178 0.96172 0.0
H2699 H 0.36788 0.32693 0.98277 0.0
O2700 O 0.3944 0.30527 0.06574 0.0
O2701 O 0.42496 0.29561 0.01716 0.0
O2702 O 0.34868 0.3118 0.01891 0.0
O2703 O 0.43926 0.31932 0.03 0.0
H2704 H 0.41379 0.28645 0.0842 0.0
H2705 H 0.31763 0.31037 0.07858 0.0
H2706 H 0.36592 0.27539 0.10877 0.0
H2707 H 0.27141 0.29891 0.10328 0.0
H2708 H 0.55727 0.2961 0.98783 0.0
H2709 H 0.4201 0.27815 0.99089 0.0
H2710 H 0.5008 0.30385 0.01256 0.0
H2711 H 0.47794 0.27082 0.96644 0.0
H2712 H 0.3529 0.26073 0.02355 0.0
H2713 H 0.23941 0.27941 0.02499 0.0
H2714 H 0.57091 0.31598 0.085 0.0
H2715 H 0.5476 0.28194 0.0866 0.0
H2716 H 0.36069 0.29551 0.98905 0.0
H2717 H 0.27604 0.32072 0.00903 0.0
H2718 H 0.31131 0.29007 0.95744 0.0
H2719 H 0.22811 0.31484 0.97689 0.0
H2720 H 0.39886 0.3366 0.01514 0.0
H2721 H 0.51925 0.32136 0.01802 0.0
H2722 H 0.43117 0.35193 0.99434 0.0
H2723 H 0.54931 0.33688 0.99682 0.0
H2724 H 0.41524 0.34774 0.09649 0.0
H2725 H 0.31905 0.35356 0.04409 0.0
H2726 H 0.43146 0.30495 0.91971 0.0
H2727 H 0.34983 0.33068 0.9412 0.0
Li2728 Li 0.37268 0.45122 0.02914 0.0
Li2729 Li 0.30506 0.44516 0.0404 0.0
Li2730 Li 0.36683 0.43258 0.03945 0.0
Li2731 Li 0.33794 0.43982 0.00248 0.0
C2732 C 0.37875 0.45185 0.07424 0.0
N2733 N 0.42583 0.46611 0.10042 0.0
C2734 C 0.36124 0.4615 0.08181 0.0
C2735 C 0.42006 0.4494 0.08004 0.0
C2736 C 0.3856 0.46862 0.09502 0.0
C2737 C 0.44338 0.45673 0.09328 0.0
C2738 C 0.28386 0.45762 0.00128 0.0
C2739 C 0.21342 0.45425 0.98811 0.0
N2740 N 0.21238 0.4641 0.97783 0.0
C2741 C 0.2821 0.46771 0.99059 0.0
C2742 C 0.24928 0.45084 2e-05 0.0
C2743 C 0.24569 0.47084 0.97882 0.0
C2744 C 0.44955 0.46284 0.02722 0.0
N2745 N 0.40734 0.46361 0.0291 0.0
C2746 C 0.40957 0.48227 0.02017 0.0
C2747 C 0.38733 0.47313 0.02659 0.0
C2748 C 0.45267 0.48153 0.01614 0.0
C2749 C 0.47301 0.47178 0.02062 0.0
H2750 H 0.46463 0.45516 0.02931 0.0
H2751 H 0.35373 0.47348 0.02821 0.0
C2752 C 0.24458 0.43858 0.07113 0.0
N2753 N 0.25609 0.4473 0.05834 0.0
C2754 C 0.21049 0.43908 0.08639 0.0
C2755 C 0.20093 0.45763 0.07539 0.0
C2756 C 0.23535 0.45676 0.06017 0.0
C2757 C 0.18812 0.44867 0.0886 0.0
H2758 H 0.26244 0.43126 0.06971 0.0
H2759 H 0.24586 0.46363 0.05011 0.0
C2760 C 0.42267 0.44211 0.9942 0.0
N2761 N 0.47308 0.44863 0.95703 0.0
C2762 C 0.41102 0.45082 0.98004 0.0
C2763 C 0.45992 0.43671 0.9894 0.0
C2764 C 0.43696 0.45399 0.96137 0.0
C2765 C 0.48498 0.44012 0.97053 0.0
C2766 C 0.29064 0.42161 0.01837 0.0
C2767 C 0.31429 0.41303 0.00987 0.0
C2768 C 0.24717 0.42066 0.01958 0.0
C2769 C 0.29414 0.40371 0.00242 0.0
C2770 C 0.22816 0.41121 0.01193 0.0
N2771 N 0.25184 0.403 0.00357 0.0
C2772 C 0.36346 0.41631 0.07279 0.0
C2773 C 0.41117 0.41308 0.04135 0.0
C2774 C 0.36572 0.40564 0.07994 0.0
N2775 N 0.38508 0.4197 0.05342 0.0
C2776 C 0.41391 0.40229 0.04768 0.0
C2777 C 0.38998 0.39838 0.06679 0.0
H2778 H 0.34214 0.42173 0.0816 0.0
H2779 H 0.42677 0.41592 0.02551 0.0
C2780 C 0.31647 0.44239 0.95268 0.0
N2781 N 0.33396 0.436 0.96956 0.0
C2782 C 0.32505 0.44063 0.92863 0.0
C2783 C 0.36807 0.42556 0.93971 0.0
C2784 C 0.35854 0.42756 0.96345 0.0
C2785 C 0.35216 0.43232 0.92204 0.0
H2786 H 0.29836 0.44928 0.95774 0.0
H2787 H 0.37369 0.42291 0.97711 0.0
O2788 O 0.35583 0.44493 0.06074 0.0
O2789 O 0.31933 0.45451 0.01294 0.0
O2790 O 0.39768 0.43874 0.01251 0.0
O2791 O 0.30984 0.43076 0.02621 0.0
H2792 H 0.32932 0.46351 0.07731 0.0
H2793 H 0.43403 0.44197 0.07416 0.0
H2794 H 0.37258 0.47615 0.10091 0.0
H2795 H 0.47548 0.45498 0.09782 0.0
H2796 H 0.18644 0.44907 0.98702 0.0
H2797 H 0.30866 0.47305 0.99131 0.0
H2798 H 0.25012 0.44303 0.00808 0.0
H2799 H 0.24392 0.47862 0.97045 0.0
H2800 H 0.39289 0.48967 0.01696 0.0
H2801 H 0.50638 0.47098 0.01808 0.0
H2802 H 0.20223 0.43208 0.09676 0.0
H2803 H 0.18453 0.46519 0.07684 0.0
H2804 H 0.3823 0.4551 0.98338 0.0
H2805 H 0.46934 0.42994 0.00013 0.0
H2806 H 0.42835 0.46073 0.95032 0.0
H2807 H 0.51389 0.43601 0.96661 0.0
H2808 H 0.34785 0.41353 0.00906 0.0
H2809 H 0.22821 0.42711 0.02648 0.0
H2810 H 0.31216 0.39703 0.99577 0.0
H2811 H 0.19457 0.41038 0.01273 0.0
H2812 H 0.34686 0.40296 0.09477 0.0
H2813 H 0.43202 0.39695 0.03658 0.0
H2814 H 0.31291 0.44616 0.91549 0.0
H2815 H 0.38933 0.41912 0.93529 0.0
C2816 C 0.16569 0.06454 0.11916 0.0
C2817 C 0.13598 0.06469 0.10081 0.0
C2818 C 0.15327 0.06462 0.14303 0.0
C2819 C 0.11072 0.06469 0.14931 0.0
H2820 H 0.19871 0.06432 0.115 0.0
H2821 H 0.17711 0.06436 0.15669 0.0
S2822 S 0.02087 0.065 0.10783 0.0
N2823 N 0.06233 0.06488 0.09037 0.0
N2824 N 0.03898 0.065 0.13533 0.0
C2825 C 0.08075 0.06487 0.13113 0.0
C2826 C 0.09339 0.0649 0.10684 0.0
C2827 C 0.14657 0.18238 0.10659 0.0
C2828 C 0.10399 0.18269 0.1004 0.0
C2829 C 0.1592 0.18237 0.13042 0.0
C2830 C 0.12969 0.18254 0.14887 0.0
H2831 H 0.17037 0.18251 0.0929 0.0
H2832 H 0.19228 0.18233 0.13444 0.0
S2833 S 0.01448 0.18315 0.14215 0.0
N2834 N 0.03236 0.1829 0.11461 0.0
N2835 N 0.05608 0.183 0.15948 0.0
C2836 C 0.08702 0.18265 0.14295 0.0
C2837 C 0.07417 0.18271 0.11869 0.0
C2838 C 0.83534 0.9281 0.88079 0.0
C2839 C 0.86326 0.92817 0.90003 0.0
C2840 C 0.84998 0.92808 0.8573 0.0
C2841 C 0.89304 0.92828 0.85227 0.0
H2842 H 0.80197 0.92821 0.88393 0.0
H2843 H 0.82738 0.92826 0.84297 0.0
S2844 S 0.9789 0.92847 0.89643 0.0
N2845 N 0.93589 0.92838 0.91261 0.0
N2846 N 0.96336 0.92833 0.86842 0.0
C2847 C 0.92126 0.92822 0.87136 0.0
C2848 C 0.90638 0.92814 0.89526 0.0
C2849 C 0.85765 0.82242 0.88741 0.0
C2850 C 0.88485 0.8142 0.89477 0.0
C2851 C 0.84303 0.82292 0.86392 0.0
C2852 C 0.85487 0.81516 0.84719 0.0
H2853 H 0.84657 0.82831 0.90005 0.0
H2854 H 0.82156 0.82923 0.85896 0.0
S2855 S 0.92939 0.79287 0.85656 0.0
N2856 N 0.92603 0.79877 0.88278 0.0
N2857 N 0.898 0.79963 0.83877 0.0
C2858 C 0.88318 0.80716 0.85405 0.0
C2859 C 0.89829 0.80669 0.87782 0.0
C2860 C 0.13875 0.56437 0.64058 0.0
C2861 C 0.10347 0.55819 0.64665 0.0
C2862 C 0.15435 0.56449 0.6173 0.0
C2863 C 0.13549 0.55833 0.59946 0.0
H2864 H 0.15506 0.56895 0.65403 0.0
H2865 H 0.18167 0.56927 0.6133 0.0
S2866 S 0.04077 0.54156 0.60529 0.0
N2867 N 0.04857 0.54639 0.63227 0.0
N2868 N 0.07886 0.54639 0.58869 0.0
C2869 C 0.09992 0.5523 0.60505 0.0
C2870 C 0.08369 0.55226 0.62863 0.0
C2871 C 0.10392 0.68653 0.64158 0.0
C2872 C 0.14649 0.68792 0.647 0.0
C2873 C 0.09011 0.68606 0.61797 0.0
C2874 C 0.1185 0.68681 0.59904 0.0
H2875 H 0.08103 0.68599 0.65572 0.0
H2876 H 0.05706 0.68508 0.61449 0.0
S2877 S 0.23307 0.69059 0.60373 0.0
N2878 N 0.21681 0.69009 0.63158 0.0
N2879 N 0.19089 0.68918 0.58713 0.0
C2880 C 0.16114 0.68816 0.60421 0.0
C2881 C 0.17513 0.68875 0.62822 0.0
C2882 C 0.89199 0.42535 0.38939 0.0
C2883 C 0.84924 0.42614 0.39494 0.0
C2884 C 0.90578 0.42543 0.36575 0.0
C2885 C 0.87727 0.42618 0.34685 0.0
H2886 H 0.9151 0.42511 0.40345 0.0
H2887 H 0.93902 0.42513 0.36224 0.0
S2888 S 0.76197 0.42797 0.35188 0.0
N2889 N 0.77846 0.42727 0.37966 0.0
N2890 N 0.80432 0.4275 0.33517 0.0
C2891 C 0.83437 0.42663 0.35213 0.0
C2892 C 0.82037 0.42661 0.37619 0.0
C2893 C 0.91501 0.3171 0.35594 0.0
C2894 C 0.87255 0.31655 0.34953 0.0
C2895 C 0.92721 0.31801 0.37976 0.0
C2896 C 0.89737 0.31851 0.39799 0.0
H2897 H 0.93908 0.31672 0.34243 0.0
H2898 H 0.9602 0.3182 0.38398 0.0
S2899 S 0.7824 0.31711 0.39086 0.0
N2900 N 0.80071 0.3164 0.36345 0.0
N2901 N 0.82367 0.31823 0.40827 0.0
C2902 C 0.85483 0.31816 0.39187 0.0
C2903 C 0.84239 0.31717 0.36761 0.0
C2904 C 0.6574 0.06441 0.64054 0.0
C2905 C 0.61468 0.06452 0.64643 0.0
C2906 C 0.67052 0.0645 0.61678 0.0
C2907 C 0.64135 0.06488 0.59816 0.0
H2908 H 0.68083 0.06398 0.6544 0.0
H2909 H 0.70364 0.06425 0.61292 0.0
S2910 S 0.52603 0.06537 0.60416 0.0
N2911 N 0.54337 0.06511 0.63181 0.0
N2912 N 0.56797 0.0653 0.58709 0.0
C2913 C 0.59859 0.06512 0.60382 0.0
C2914 C 0.58525 0.06492 0.62798 0.0
C2915 C 0.64832 0.19783 0.62776 0.0
C2916 C 0.63625 0.19031 0.64507 0.0
C2917 C 0.63139 0.19758 0.60484 0.0
C2918 C 0.60197 0.18978 0.59833 0.0
H2919 H 0.67095 0.20398 0.63199 0.0
H2920 H 0.64166 0.2035 0.59201 0.0
S2921 S 0.55888 0.16847 0.63689 0.0
N2922 N 0.59197 0.17499 0.65413 0.0
N2923 N 0.56114 0.17442 0.61069 0.0
C2924 C 0.58991 0.18214 0.61522 0.0
C2925 C 0.60682 0.18243 0.63868 0.0
C2926 C 0.40582 0.92655 0.39486 0.0
C2927 C 0.36272 0.92707 0.39967 0.0
C2928 C 0.42088 0.92666 0.37146 0.0
C2929 C 0.39332 0.92713 0.35207 0.0
H2930 H 0.42816 0.92645 0.40932 0.0
H2931 H 0.4543 0.92653 0.3685 0.0
S2932 S 0.27772 0.92833 0.35505 0.0
N2933 N 0.29273 0.92782 0.38312 0.0
N2934 N 0.32098 0.92803 0.3391 0.0
C2935 C 0.35014 0.92739 0.3566 0.0
C2936 C 0.33485 0.92738 0.38041 0.0
C2937 C 0.41311 0.81214 0.37701 0.0
C2938 C 0.38024 0.8128 0.39347 0.0
C2939 C 0.40516 0.81199 0.35252 0.0
C2940 C 0.3641 0.81256 0.34364 0.0
H2941 H 0.44506 0.81141 0.38311 0.0
H2942 H 0.43134 0.81129 0.34042 0.0
S2943 S 0.26743 0.81513 0.37943 0.0
N2944 N 0.30537 0.8147 0.39928 0.0
N2945 N 0.2904 0.81421 0.35323 0.0
C2946 C 0.3311 0.81359 0.35991 0.0
C2947 C 0.33918 0.81373 0.38483 0.0
C2948 C 0.59683 0.56498 0.1075 0.0
C2949 C 0.63958 0.56545 0.10179 0.0
C2950 C 0.58342 0.56484 0.1312 0.0
C2951 C 0.61229 0.56532 0.14995 0.0
H2952 H 0.57363 0.56442 0.09354 0.0
H2953 H 0.55029 0.56429 0.13491 0.0
S2954 S 0.72755 0.56677 0.14448 0.0
N2955 N 0.71061 0.56653 0.11674 0.0
N2956 N 0.68542 0.56627 0.16137 0.0
C2957 C 0.65507 0.56595 0.1445 0.0
C2958 C 0.66873 0.56599 0.12038 0.0
C2959 C 0.66379 0.68249 0.13102 0.0
C2960 C 0.63476 0.683 0.14969 0.0
C2961 C 0.65061 0.68267 0.10727 0.0
C2962 C 0.60799 0.68348 0.10139 0.0
H2963 H 0.6969 0.68202 0.13481 0.0
H2964 H 0.67405 0.68244 0.09339 0.0
S2965 S 0.51967 0.68513 0.14381 0.0
N2966 N 0.56159 0.68442 0.16082 0.0
N2967 N 0.53685 0.68467 0.11614 0.0
C2968 C 0.57866 0.68393 0.11991 0.0
C2969 C 0.59204 0.68369 0.14407 0.0
C2970 C 0.42653 0.43107 0.86965 0.0
C2971 C 0.39944 0.43075 0.85005 0.0
C2972 C 0.41084 0.43131 0.89291 0.0
C2973 C 0.36754 0.4314 0.8973 0.0
H2974 H 0.46001 0.4312 0.86696 0.0
H2975 H 0.43276 0.43171 0.90755 0.0
S2976 S 0.28368 0.43087 0.85193 0.0
N2977 N 0.32742 0.43066 0.83639 0.0
N2978 N 0.29795 0.43112 0.88015 0.0
C2979 C 0.34018 0.43108 0.87783 0.0
C2980 C 0.35613 0.43073 0.85418 0.0
C2981 C 0.38573 0.32026 0.86009 0.0
C2982 C 0.34294 0.3191 0.85496 0.0
C2983 C 0.40038 0.32004 0.88355 0.0
C2984 C 0.37267 0.31878 0.90268 0.0
H2985 H 0.40823 0.32103 0.84581 0.0
H2986 H 0.43361 0.32077 0.88675 0.0
S2987 S 0.25774 0.31555 0.89883 0.0
N2988 N 0.27304 0.31679 0.87092 0.0
N2989 N 0.30056 0.31635 0.91509 0.0
C2990 C 0.32976 0.31778 0.89785 0.0
C2991 C 0.31489 0.31792 0.87396 0.0
C2992 C 0.24632 0.99265 0.2489 0.0
C2993 C 0.28846 0.99096 0.25477 0.0
C2994 C 0.22479 0.00169 0.25701 0.0
C2995 C 0.2444 0.00941 0.27147 0.0
H2996 H 0.2296 0.98687 0.23816 0.0
H2997 H 0.19255 0.00269 0.25164 0.0
S2998 S 0.3547 0.00887 0.29162 0.0
N2999 N 0.34961 0.99801 0.27518 0.0
N3000 N 0.30845 0.01469 0.29151 0.0
C3001 C 0.28657 0.00783 0.27749 0.0
C3002 C 0.3087 0.99869 0.26894 0.0
C3003 C 0.97438 0.24973 0.22659 0.0
C3004 C 0.97608 0.25979 0.23776 0.0
C3005 C 0.99181 0.24065 0.23737 0.0
C3006 C 0.0114 0.24131 0.25972 0.0
H3007 H 0.96008 0.24891 0.20923 0.0
H3008 H 0.9909 0.23311 0.22786 0.0
S3009 S 0.01989 0.2655 0.29752 0.0
N3010 N 0.99593 0.26969 0.27325 0.0
N3011 N 0.02891 0.25263 0.29337 0.0
C3012 C 0.01228 0.25125 0.27135 0.0
C3013 C 0.99456 0.26048 0.26041 0.0
C3014 C 0.25407 0.24067 0.01127 0.0
C3015 C 0.23083 0.24183 0.99017 0.0
C3016 C 0.27368 0.24947 0.02197 0.0
C3017 C 0.27048 0.25976 0.01206 0.0
H3018 H 0.25653 0.23293 0.01982 0.0
H3019 H 0.29122 0.24823 0.0382 0.0
S3020 S 0.21639 0.26694 0.95598 0.0
N3021 N 0.20784 0.25398 0.95906 0.0
N3022 N 0.2445 0.27053 0.97926 0.0
C3023 C 0.24785 0.26102 0.99082 0.0
C3024 C 0.22807 0.25206 0.97986 0.0
C3025 C 0.97516 0.00703 0.97584 0.0
C3026 C 0.01827 0.00851 0.9792 0.0
C3027 C 0.95486 0.99785 0.98422 0.0
C3028 C 0.97681 0.98969 0.99614 0.0
H3029 H 0.95683 0.01303 0.96664 0.0
H3030 H 0.92147 0.99723 0.98152 0.0
S3031 S 0.09027 0.98962 0.00959 0.0
N3032 N 0.08216 0.00114 0.99604 0.0
N3033 N 0.04447 0.98358 0.01036 0.0
C3034 C 0.02005 0.991 -0.00055 0.0
C3035 C 0.04065 0.00045 0.99127 0.0
C3036 C 0.75057 0.00744 0.74645 0.0
C3037 C 0.73213 0.00759 0.76915 0.0
C3038 C 0.77134 0.99831 0.73809 0.0
C3039 C 0.77483 0.98913 0.75233 0.0
H3040 H 0.74858 0.01439 0.73499 0.0
H3041 H 0.7855 0.9985 0.7206 0.0
S3042 S 0.73169 0.98544 0.81291 0.0
N3043 N 0.71809 0.99775 0.80552 0.0
N3044 N 0.75787 0.98064 0.78996 0.0
C3045 C 0.75643 0.98916 0.77499 0.0
C3046 C 0.73481 0.99839 0.78337 0.0
C3047 C 0.9738 0.74313 0.76959 0.0
C3048 C 0.01714 0.74209 0.76643 0.0
C3049 C 0.952 0.75191 0.76037 0.0
C3050 C 0.97263 0.7601 0.74778 0.0
H3051 H 0.95647 0.73711 0.77932 0.0
H3052 H 0.91853 0.75222 0.76303 0.0
S3053 S 0.08601 0.76119 0.73438 0.0
N3054 N 0.07981 0.74985 0.74896 0.0
N3055 N 0.03922 0.76669 0.73303 0.0
C3056 C 0.01604 0.75921 0.74458 0.0
C3057 C 0.03819 0.75016 0.75363 0.0
C3058 C 0.73769 0.74951 0.97657 0.0
C3059 C 0.73569 0.73979 0.98904 0.0
C3060 C 0.75542 0.75863 0.98693 0.0
C3061 C 0.77145 0.75841 0.01026 0.0
H3062 H 0.72546 0.75006 0.95865 0.0
H3063 H 0.75692 0.76591 0.97648 0.0
S3064 S 0.77089 0.73506 0.05098 0.0
N3065 N 0.7496 0.73053 0.0262 0.0
N3066 N 0.78258 0.74772 0.04582 0.0
C3067 C 0.76936 0.74874 0.02297 0.0
C3068 C 0.75154 0.73942 0.01234 0.0
C3069 C 0.28109 0.50725 0.77253 0.0
C3070 C 0.23728 0.50784 0.77313 0.0
C3071 C 0.30152 0.49811 0.76407 0.0
C3072 C 0.27904 0.48914 0.75596 0.0
H3073 H 0.29982 0.51394 0.77856 0.0
H3074 H 0.33533 0.49815 0.76361 0.0
S3075 S 0.16369 0.48656 0.75387 0.0
N3076 N 0.17191 0.49871 0.76438 0.0
N3077 N 0.21041 0.48132 0.74963 0.0
C3078 C 0.23519 0.48956 0.75667 0.0
C3079 C 0.21432 0.49893 0.76506 0.0
C3080 C 0.22792 0.75595 0.51524 0.0
C3081 C 0.26851 0.75912 0.50902 0.0
C3082 C 0.20888 0.74718 0.50417 0.0
C3083 C 0.22958 0.74132 0.4863 0.0
H3084 H 0.21085 0.76025 0.52886 0.0
H3085 H 0.17781 0.74489 0.50985 0.0
S3086 S 0.33519 0.74692 0.46238 0.0
N3087 N 0.32823 0.75607 0.48321 0.0
N3088 N 0.29224 0.73962 0.46223 0.0
C3089 C 0.27007 0.74448 0.47977 0.0
C3090 C 0.28955 0.75338 0.49115 0.0
C3091 C 0.00835 0.49183 0.49323 0.0
C3092 C 0.96528 0.4905 0.48947 0.0
C3093 C 0.02933 0.50092 0.48495 0.0
C3094 C 0.00819 0.50905 0.47243 0.0
H3095 H 0.02614 0.48575 0.5025 0.0
H3096 H 0.06235 0.50166 0.48877 0.0
S3097 S 0.89518 0.50948 0.458 0.0
N3098 N 0.90185 0.49825 0.47296 0.0
N3099 N 0.94177 0.51507 0.45634 0.0
C3100 C 0.96514 0.5078 0.46842 0.0
C3101 C 0.94363 0.4986 0.47713 0.0
C3102 C 0.77702 0.50816 0.27298 0.0
C3103 C 0.73404 0.50966 0.26919 0.0
C3104 C 0.79773 0.49913 0.2641 0.0
C3105 C 0.77631 0.49121 0.25111 0.0
H3106 H 0.79484 0.51399 0.28299 0.0
H3107 H 0.83096 0.4984 0.26729 0.0
S3108 S 0.66354 0.49139 0.23595 0.0
N3109 N 0.67095 0.50263 0.25075 0.0
N3110 N 0.70942 0.48539 0.23523 0.0
C3111 C 0.73327 0.49259 0.24722 0.0
C3112 C 0.71226 0.50185 0.25602 0.0
C3113 C 0.79526 0.25277 0.48967 0.0
C3114 C 0.77352 0.26095 0.50166 0.0
C3115 C 0.77473 0.24361 0.48137 0.0
C3116 C 0.73162 0.24222 0.48481 0.0
H3117 H 0.82857 0.25342 0.48668 0.0
H3118 H 0.79276 0.23762 0.47197 0.0
S3119 S 0.66045 0.26106 0.51596 0.0
N3120 N 0.70636 0.26704 0.5166 0.0
N3121 N 0.66811 0.24957 0.50213 0.0
C3122 C 0.70957 0.25024 0.49719 0.0
C3123 C 0.73044 0.25964 0.50541 0.0
C3124 C 0.48689 0.25909 0.77731 0.0
C3125 C 0.47375 0.26025 0.75356 0.0
C3126 C 0.5076 0.24982 0.78491 0.0
C3127 C 0.51509 0.24133 0.76912 0.0
H3128 H 0.48115 0.26542 0.79007 0.0
H3129 H 0.51744 0.24924 0.80329 0.0
S3130 S 0.48737 0.24046 0.70512 0.0
N3131 N 0.47004 0.2522 0.71431 0.0
N3132 N 0.50883 0.23474 0.7286 0.0
C3133 C 0.50227 0.2424 0.74533 0.0
C3134 C 0.48168 0.25189 0.73754 0.0
C3135 C 0.4737 0.00683 0.478 0.0
C3136 C 0.51674 0.00833 0.48158 0.0
C3137 C 0.45336 0.99766 0.48635 0.0
C3138 C 0.47523 0.98954 0.49849 0.0
H3139 H 0.45552 0.01279 0.46859 0.0
H3140 H 0.42006 0.99697 0.48339 0.0
S3141 S 0.58836 0.9896 0.51274 0.0
N3142 N 0.58041 0.00107 0.49893 0.0
N3143 N 0.54259 0.98354 0.51333 0.0
C3144 C 0.51833 0.99091 0.50214 0.0
C3145 C 0.53898 0.00033 0.49393 0.0
C3146 C 0.5199 0.75109 0.26259 0.0
C3147 C 0.52027 0.74093 0.25195 0.0
C3148 C 0.50281 0.75993 0.25077 0.0
C3149 C 0.48584 0.75894 0.22775 0.0
H3150 H 0.53259 0.75219 0.28028 0.0
H3151 H 0.50221 0.76755 0.25992 0.0
S3152 S 0.48286 0.7342 0.19137 0.0
N3153 N 0.50444 0.73045 0.21669 0.0
N3154 N 0.47265 0.74709 0.19431 0.0
C3155 C 0.48673 0.74885 0.21676 0.0
C3156 C 0.5039 0.73983 0.22889 0.0
C3157 C 0.47222 0.50093 0.01579 0.0
C3158 C 0.47545 0.49069 0.0056 0.0
C3159 C 0.49257 0.50974 0.00563 0.0
C3160 C 0.51662 0.50865 0.98481 0.0
H3161 H 0.45424 0.5021 0.03189 0.0
H3162 H 0.49017 0.51743 0.01443 0.0
S3163 S 0.53132 0.48374 0.94994 0.0
N3164 N 0.50216 0.48008 0.97274 0.0
N3165 N 0.54027 0.49666 0.95356 0.0
C3166 C 0.51929 0.4985 0.97416 0.0
C3167 C 0.49872 0.48952 0.98456 0.0
C3168 C 0.11736 0.13101 0.29444 0.0
C3169 C 0.11477 0.1367 0.31595 0.0
C3170 C 0.12307 0.11991 0.29425 0.0
C3171 C 0.12598 0.11409 0.31556 0.0
H3172 H 0.11568 0.1352 0.2776 0.0
H3173 H 0.1246 0.11583 0.27727 0.0
S3174 S 0.12085 0.1252 0.37657 0.0
N3175 N 0.11569 0.13575 0.35908 0.0
N3176 N 0.12571 0.11477 0.35873 0.0
C3177 C 0.12316 0.11965 0.33721 0.0
C3178 C 0.11787 0.131 0.3374 0.0
C3179 C 0.09557 0.13245 0.92948 0.0
C3180 C 0.13517 0.13734 0.92926 0.0
C3181 C 0.09142 0.12129 0.92997 0.0
C3182 C 0.12669 0.1146 0.93009 0.0
H3183 H 0.06752 0.13727 0.9304 0.0
H3184 H 0.06038 0.11787 0.9309 0.0
S3185 S 0.23732 0.12341 0.92816 0.0
N3186 N 0.21022 0.13465 0.92777 0.0
N3187 N 0.20256 0.11367 0.92914 0.0
C3188 C 0.16645 0.11938 0.92893 0.0
C3189 C 0.17065 0.13075 0.92846 0.0
C3190 C 0.86848 0.88065 0.66154 0.0
C3191 C 0.86519 0.88619 0.68324 0.0
C3192 C 0.87465 0.86952 0.66104 0.0
C3193 C 0.87852 0.86361 0.68222 0.0
H3194 H 0.86607 0.88494 0.64486 0.0
H3195 H 0.87663 0.86551 0.64399 0.0
S3196 S 0.87266 0.87437 0.74365 0.0
N3197 N 0.86716 0.88496 0.72639 0.0
N3198 N 0.87768 0.86409 0.72546 0.0
C3199 C 0.87533 0.86908 0.704 0.0
C3200 C 0.86894 0.88035 0.70451 0.0
C3201 C 0.91312 0.87983 0.07611 0.0
C3202 C 0.87919 0.88692 0.07446 0.0
C3203 C 0.90708 0.86872 0.07513 0.0
C3204 C 0.86693 0.86433 0.07217 0.0
H3205 H 0.94466 0.88291 0.07739 0.0
H3206 H 0.93427 0.86357 0.07541 0.0
S3207 S 0.7676 0.87944 0.06807 0.0
N3208 N 0.80388 0.88875 0.07053 0.0
N3209 N 0.79259 0.86789 0.06905 0.0
C3210 C 0.83262 0.87132 0.07149 0.0
C3211 C 0.83873 0.88261 0.07257 0.0
C3212 C 0.15059 0.62004 0.81605 0.0
C3213 C 0.11589 0.61417 0.80817 0.0
C3214 C 0.14931 0.63126 0.81694 0.0
C3215 C 0.1132 0.63693 0.81011 0.0
H3216 H 0.17946 0.61597 0.82039 0.0
H3217 H 0.17748 0.63553 0.82179 0.0
S3218 S 0.01212 0.625 0.79186 0.0
N3219 N 0.04329 0.61463 0.79586 0.0
N3220 N 0.04044 0.63568 0.79805 0.0
C3221 C 0.07748 0.63104 0.80377 0.0
C3222 C 0.07894 0.61967 0.80267 0.0
C3223 C 0.17071 0.62978 0.43149 0.0
C3224 C 0.13456 0.63616 0.43121 0.0
C3225 C 0.16803 0.61858 0.43198 0.0
C3226 C 0.12909 0.61336 0.43241 0.0
H3227 H 0.20129 0.63347 0.43194 0.0
H3228 H 0.19668 0.614 0.43308 0.0
S3229 S 0.02512 0.62637 0.43065 0.0
N3230 N 0.05859 0.63641 0.43064 0.0
N3231 N 0.05371 0.61537 0.43106 0.0
C3232 C 0.09275 0.61963 0.43124 0.0
C3233 C 0.09544 0.63102 0.43071 0.0
C3234 C 0.86261 0.37158 0.19858 0.0
C3235 C 0.87039 0.36563 0.17783 0.0
C3236 C 0.85369 0.38251 0.19754 0.0
C3237 C 0.85213 0.38798 0.1757 0.0
H3238 H 0.86358 0.36777 0.21587 0.0
H3239 H 0.84936 0.38679 0.21412 0.0
S3240 S 0.86856 0.37601 0.11609 0.0
N3241 N 0.8749 0.36591 0.1347 0.0
N3242 N 0.85776 0.38656 0.13271 0.0
C3243 C 0.85899 0.3821 0.15472 0.0
C3244 C 0.86801 0.3709 0.15579 0.0
C3245 C 0.90885 0.36954 0.57416 0.0
C3246 C 0.86891 0.36484 0.57305 0.0
C3247 C 0.9139 0.38068 0.57401 0.0
C3248 C 0.87921 0.38754 0.57293 0.0
H3249 H 0.93657 0.36457 0.57392 0.0
H3250 H 0.94523 0.38394 0.57398 0.0
S3251 S 0.76788 0.37929 0.57126 0.0
N3252 N 0.79404 0.36792 0.57237 0.0
N3253 N 0.80344 0.38885 0.57152 0.0
C3254 C 0.83904 0.38296 0.57282 0.0
C3255 C 0.83392 0.37162 0.57298 0.0
C3256 C 0.60727 0.11868 0.81664 0.0
C3257 C 0.64559 0.11329 0.81354 0.0
C3258 C 0.60477 0.12986 0.81519 0.0
C3259 C 0.64044 0.13601 0.81043 0.0
H3260 H 0.57859 0.1142 0.81892 0.0
H3261 H 0.57449 0.13368 0.81656 0.0
S3262 S 0.74887 0.12608 0.80439 0.0
N3263 N 0.72064 0.11516 0.80835 0.0
N3264 N 0.71558 0.13617 0.80499 0.0
C3265 C 0.67918 0.13083 0.80865 0.0
C3266 C 0.68186 0.11947 0.81036 0.0
C3267 C 0.58399 0.13207 0.43452 0.0
C3268 C 0.62279 0.13723 0.43183 0.0
C3269 C 0.58094 0.12089 0.43464 0.0
C3270 C 0.61654 0.11443 0.43199 0.0
H3271 H 0.55587 0.13669 0.43753 0.0
H3272 H 0.55058 0.11728 0.43738 0.0
S3273 S 0.72519 0.12397 0.42307 0.0
N3274 N 0.69722 0.13503 0.42509 0.0
N3275 N 0.69176 0.114 0.42594 0.0
C3276 C 0.65538 0.11947 0.42849 0.0
C3277 C 0.65845 0.13087 0.42833 0.0
C3278 C 0.38314 0.88089 0.19967 0.0
C3279 C 0.3715 0.88688 0.17956 0.0
C3280 C 0.39009 0.86987 0.19814 0.0
C3281 C 0.38545 0.86439 0.17648 0.0
H3282 H 0.38727 0.88478 0.21673 0.0
H3283 H 0.39824 0.86556 0.21421 0.0
S3284 S 0.35631 0.87641 0.11854 0.0
N3285 N 0.3564 0.88661 0.13724 0.0
N3286 N 0.36917 0.86577 0.13437 0.0
C3287 C 0.37411 0.87028 0.15617 0.0
C3288 C 0.36737 0.88156 0.15769 0.0
C3289 C 0.41107 0.87927 0.57767 0.0
C3290 C 0.37818 0.88666 0.57573 0.0
C3291 C 0.40355 0.86822 0.57636 0.0
C3292 C 0.36296 0.86422 0.57273 0.0
H3293 H 0.44295 0.88206 0.57941 0.0
H3294 H 0.42997 0.86282 0.57686 0.0
S3295 S 0.26599 0.88022 0.56743 0.0
N3296 N 0.30337 0.88919 0.57071 0.0
N3297 N 0.28934 0.86845 0.56853 0.0
C3298 C 0.32967 0.87151 0.57172 0.0
C3299 C 0.33725 0.88273 0.57316 0.0
C3300 C 0.64368 0.63214 0.32247 0.0
C3301 C 0.60416 0.63705 0.32126 0.0
C3302 C 0.64781 0.62098 0.32235 0.0
C3303 C 0.61258 0.6143 0.32116 0.0
H3304 H 0.67181 0.63695 0.32234 0.0
H3305 H 0.67888 0.61756 0.32247 0.0
S3306 S 0.50198 0.62315 0.3194 0.0
N3307 N 0.52905 0.63438 0.32044 0.0
N3308 N 0.53674 0.61339 0.31972 0.0
C3309 C 0.5728 0.61909 0.32098 0.0
C3310 C 0.56861 0.63046 0.3211 0.0
C3311 C 0.66266 0.62931 0.93016 0.0
C3312 C 0.62667 0.63575 0.92997 0.0
C3313 C 0.65977 0.61812 0.92988 0.0
C3314 C 0.62074 0.61293 0.92955 0.0
H3315 H 0.6933 0.63295 0.9312 0.0
H3316 H 0.68832 0.61351 0.93108 0.0
S3317 S 0.51711 0.62611 0.92741 0.0
N3318 N 0.55075 0.63611 0.92848 0.0
N3319 N 0.54546 0.61508 0.9274 0.0
C3320 C 0.58457 0.61927 0.92832 0.0
C3321 C 0.58749 0.63067 0.92862 0.0
C3322 C 0.33756 0.37944 0.67931 0.0
C3323 C 0.37274 0.38615 0.67995 0.0
C3324 C 0.34186 0.36828 0.67973 0.0
C3325 C 0.38148 0.36342 0.68106 0.0
H3326 H 0.30648 0.38286 0.67913 0.0
H3327 H 0.31382 0.36344 0.68014 0.0
S3328 S 0.48344 0.37744 0.6823 0.0
N3329 N 0.44855 0.38715 0.68138 0.0
N3330 N 0.45654 0.36617 0.68184 0.0
C3331 C 0.41692 0.37004 0.68093 0.0
C3332 C 0.41258 0.3814 0.68041 0.0
C3333 C 0.34598 0.38209 0.07338 0.0
C3334 C 0.38595 0.38667 0.0709 0.0
C3335 C 0.34051 0.37098 0.07427 0.0
C3336 C 0.37478 0.36398 0.07275 0.0
H3337 H 0.31843 0.38712 0.07362 0.0
H3338 H 0.3091 0.36782 0.07558 0.0
S3339 S 0.48616 0.3719 0.0672 0.0
N3340 N 0.46056 0.38335 0.06833 0.0
N3341 N 0.45029 0.36246 0.06904 0.0
C3342 C 0.41506 0.36846 0.07098 0.0
C3343 C 0.42062 0.37979 0.07024 0.0
C3344 C 0.86424 0.04932 0.34716 0.0
C3345 C 0.90289 0.04481 0.35349 0.0
C3346 C 0.83093 0.04952 0.36321 0.0
C3347 C 0.83497 0.04517 0.38613 0.0
H3348 H 0.86013 0.05303 0.32991 0.0
H3349 H 0.80211 0.05338 0.35789 0.0
S3350 S 0.92887 0.03204 0.41116 0.0
N3351 N 0.94286 0.03557 0.38401 0.0
N3352 N 0.87976 0.03584 0.41413 0.0
C3353 C 0.87267 0.04017 0.39234 0.0
C3354 C 0.90678 0.04001 0.37601 0.0
C3355 C 0.3829 0.20165 0.34403 0.0
C3356 C 0.34397 0.20606 0.35013 0.0
C3357 C 0.41622 0.20177 0.36008 0.0
C3358 C 0.41188 0.20633 0.38278 0.0
H3359 H 0.38721 0.19776 0.32698 0.0
H3360 H 0.44527 0.19796 0.35497 0.0
S3361 S 0.3171 0.21931 0.40712 0.0
N3362 N 0.3034 0.21545 0.38014 0.0
N3363 N 0.36644 0.21574 0.41029 0.0
C3364 C 0.37386 0.21123 0.38872 0.0
C3365 C 0.33977 0.21109 0.37238 0.0
C3366 C 0.87129 0.1956 0.8566 0.0
C3367 C 0.84826 0.20501 0.85269 0.0
C3368 C 0.90212 0.19513 0.87415 0.0
C3369 C 0.91123 0.20406 0.88844 0.0
H3370 H 0.8647 0.18843 0.84641 0.0
H3371 H 0.91894 0.18769 0.87658 0.0
S3372 S 0.86095 0.23073 0.88478 0.0
N3373 N 0.83754 0.22359 0.86396 0.0
N3374 N 0.8954 0.22266 0.89728 0.0
C3375 C 0.88906 0.2136 0.88445 0.0
C3376 C 0.8575 0.21407 0.86656 0.0
C3377 C 0.35642 0.03926 0.88073 0.0
C3378 C 0.34219 0.04879 0.89131 0.0
C3379 C 0.38795 0.03942 0.86341 0.0
C3380 C 0.40584 0.04913 0.85587 0.0
H3381 H 0.34333 0.03164 0.88603 0.0
H3382 H 0.39813 0.03192 0.85572 0.0
S3383 S 0.37918 0.07627 0.87788 0.0
N3384 N 0.34779 0.06819 0.89266 0.0
N3385 N 0.40757 0.06847 0.8606 0.0
C3386 C 0.39182 0.0587 0.86631 0.0
C3387 C 0.35988 0.05853 0.88391 0.0
C3388 C 0.11608 0.94974 0.60174 0.0
C3389 C 0.15854 0.95092 0.60742 0.0
C3390 C 0.08546 0.94986 0.61953 0.0
C3391 C 0.09631 0.95101 0.64365 0.0
H3392 H 0.1065 0.94864 0.58343 0.0
H3393 H 0.05314 0.94875 0.61443 0.0
S3394 S 0.20308 0.95449 0.6678 0.0
N3395 N 0.20991 0.95338 0.6388 0.0
N3396 N 0.15223 0.95362 0.67223 0.0
C3397 C 0.13859 0.95232 0.64954 0.0
C3398 C 0.16974 0.9523 0.63142 0.0
C3399 C 0.6519 0.79665 0.61816 0.0
C3400 C 0.64391 0.79738 0.64271 0.0
C3401 C 0.61927 0.79704 0.60157 0.0
C3402 C 0.57761 0.79817 0.60901 0.0
H3403 H 0.6837 0.79624 0.61167 0.0
H3404 H 0.62683 0.79689 0.5828 0.0
S3405 S 0.53984 0.79879 0.67133 0.0
N3406 N 0.59116 0.79815 0.6737 0.0
N3407 N 0.52976 0.79884 0.64254 0.0
C3408 C 0.56909 0.79833 0.63353 0.0
C3409 C 0.60226 0.79794 0.65038 0.0
C3410 C 0.16646 0.8025 0.1108 0.0
C3411 C 0.16417 0.79707 0.13268 0.0
C3412 C 0.13282 0.80252 0.09497 0.0
C3413 C 0.09575 0.79703 0.10032 0.0
H3414 H 0.19421 0.80699 0.1061 0.0
H3415 H 0.13546 0.80706 0.07863 0.0
S3416 S 0.07413 0.78131 0.15483 0.0
N3417 N 0.12212 0.78584 0.15861 0.0
N3418 N 0.05886 0.78577 0.12858 0.0
C3419 C 0.09353 0.7912 0.12164 0.0
C3420 C 0.12779 0.79123 0.13789 0.0
C3421 C 0.66986 0.9522 0.13101 0.0
C3422 C 0.658 0.95265 0.10694 0.0
C3423 C 0.63988 0.95201 0.14915 0.0
C3424 C 0.59705 0.95246 0.14385 0.0
H3425 H 0.70254 0.95163 0.13583 0.0
H3426 H 0.65022 0.9514 0.16745 0.0
S3427 S 0.54991 0.95412 0.08372 0.0
N3428 N 0.60073 0.95385 0.07878 0.0
N3429 N 0.54424 0.95356 0.11288 0.0
C3430 C 0.58482 0.9532 0.11989 0.0
C3431 C 0.61534 0.95326 0.10142 0.0
C3432 C 0.87041 0.54143 0.85521 0.0
C3433 C 0.9127 0.54197 0.86179 0.0
C3434 C 0.83878 0.54158 0.8724 0.0
C3435 C 0.84835 0.5424 0.89673 0.0
H3436 H 0.86171 0.54119 0.8366 0.0
H3437 H 0.80657 0.54156 0.86652 0.0
S3438 S 0.95419 0.54336 0.92328 0.0
N3439 N 0.96257 0.54284 0.89433 0.0
N3440 N 0.90299 0.54307 0.92666 0.0
C3441 C 0.89051 0.54251 0.9036 0.0
C3442 C 0.92274 0.54229 0.88611 0.0
C3443 C 0.3363 0.70659 0.88174 0.0
C3444 C 0.34568 0.70764 0.85742 0.0
C3445 C 0.36807 0.70623 0.89884 0.0
C3446 C 0.41031 0.70701 0.89225 0.0
H3447 H 0.30429 0.70556 0.88752 0.0
H3448 H 0.3596 0.70506 0.91731 0.0
S3449 S 0.45107 0.71066 0.83104 0.0
N3450 N 0.39989 0.71015 0.82773 0.0
N3451 N 0.45974 0.70936 0.85984 0.0
C3452 C 0.42 0.70853 0.86809 0.0
C3453 C 0.38765 0.70885 0.85068 0.0
C3454 C 0.86331 0.69832 0.39978 0.0
C3455 C 0.90181 0.70305 0.39398 0.0
C3456 C 0.83031 0.69818 0.38351 0.0
C3457 C 0.8345 0.70281 0.36085 0.0
H3458 H 0.85898 0.69446 0.41686 0.0
H3459 H 0.8015 0.69423 0.38851 0.0
S3460 S 0.92841 0.71639 0.33703 0.0
N3461 N 0.94199 0.71265 0.36411 0.0
N3462 N 0.87953 0.71248 0.33357 0.0
C3463 C 0.87219 0.70793 0.3551 0.0
C3464 C 0.90596 0.70803 0.37167 0.0
C3465 C 0.41461 0.54084 0.37887 0.0
C3466 C 0.40521 0.54102 0.35444 0.0
C3467 C 0.38282 0.54082 0.39596 0.0
C3468 C 0.34055 0.54087 0.38923 0.0
H3469 H 0.44672 0.54127 0.38484 0.0
H3470 H 0.39136 0.54109 0.41459 0.0
S3471 S 0.29962 0.5404 0.32752 0.0
N3472 N 0.35087 0.54044 0.32434 0.0
N3473 N 0.29098 0.54053 0.35646 0.0
C3474 C 0.33076 0.5405 0.36486 0.0
C3475 C 0.36314 0.54056 0.34747 0.0
C3476 C 0.12004 0.45715 0.14058 0.0
C3477 C 0.08947 0.44908 0.14106 0.0
C3478 C 0.15116 0.45723 0.12299 0.0
C3479 C 0.15248 0.44926 0.10532 0.0
H3480 H 0.1206 0.46325 0.15426 0.0
H3481 H 0.17513 0.46333 0.1237 0.0
S3482 S 0.07589 0.42734 0.09685 0.0
N3483 N 0.0599 0.4336 0.12105 0.0
N3484 N 0.11816 0.43377 0.088 0.0
C3485 C 0.12087 0.44147 0.105 0.0
C3486 C 0.08941 0.44138 0.12287 0.0
C3487 C 0.6283 0.29396 0.143 0.0
C3488 C 0.66719 0.29839 0.13682 0.0
C3489 C 0.59557 0.29351 0.12643 0.0
C3490 C 0.60082 0.29749 0.10324 0.0
H3491 H 0.62253 0.29129 0.16103 0.0
H3492 H 0.56541 0.29054 0.13213 0.0
S3493 S 0.69832 0.30824 0.07716 0.0
N3494 N 0.71052 0.30556 0.10506 0.0
N3495 N 0.64874 0.30489 0.07416 0.0
C3496 C 0.64019 0.30132 0.09646 0.0
C3497 C 0.67347 0.30172 0.1132 0.0
C3498 C 0.08441 0.29575 0.62982 0.0
C3499 C 0.09534 0.29671 0.60569 0.0
C3500 C 0.11502 0.29567 0.64761 0.0
C3501 C 0.1576 0.29642 0.64184 0.0
H3502 H 0.05188 0.29545 0.63506 0.0
H3503 H 0.10529 0.29519 0.66603 0.0
S3504 S 0.2025 0.29854 0.5812 0.0
N3505 N 0.15157 0.29796 0.57685 0.0
N3506 N 0.20923 0.29788 0.61028 0.0
C3507 C 0.169 0.29704 0.61772 0.0
C3508 C 0.13782 0.29719 0.59965 0.0
C3509 C 0.58237 0.4516 0.61513 0.0
C3510 C 0.59342 0.45345 0.63899 0.0
C3511 C 0.61266 0.45141 0.59718 0.0
C3512 C 0.65499 0.45318 0.60242 0.0
H3513 H 0.55024 0.44992 0.6104 0.0
H3514 H 0.60299 0.4497 0.57911 0.0
S3515 S 0.69979 0.45887 0.66193 0.0
N3516 N 0.64923 0.45751 0.6668 0.0
N3517 N 0.70635 0.45708 0.63308 0.0
C3518 C 0.6663 0.45534 0.6261 0.0
C3519 C 0.63547 0.45547 0.6444 0.0
loop_
_geom_bond_atom_site_label_1
_geom_bond_atom_site_label_2
_geom_bond_distance
_geom_bond_site_symmetry_2
_ccdc_geom_bond_type
Li0 N17 1.990 1_455 S
Li0 O60 1.956 . S
Li0 O61 1.970 . S
Li0 O62 1.961 . S
Li1 N25 1.990 . S
Li1 O60 1.970 . S
Li1 O61 1.956 . S
Li1 O63 1.961 . S
Li2 N47 1.990 . S
Li2 O60 1.961 . S
Li2 O62 1.956 . S
Li2 O63 1.970 . S
Li3 N53 1.990 . S
Li3 O61 1.961 . S
Li3 O62 1.970 . S
Li3 O63 1.956 . S
C4 C6 1.348 . S
C4 C7 1.356 1_455 S
C4 O60 1.325 . S
N5 C8 1.314 . S
N5 C9 1.279 . S
C6 C4 1.348 . S
C6 C8 1.353 1_455 S
C6 H64 0.929 . S
C7 C4 1.356 1_655 S
C7 C9 1.358 . S
C7 H65 0.930 . S
C8 N5 1.314 . S
C8 C6 1.353 1_655 S
C8 H66 0.930 . S
C9 N5 1.279 . S
C9 C7 1.358 . S
C9 H67 0.930 . S
C10 C13 1.348 . S
C10 C14 1.356 . S
C10 O61 1.325 . S
C11 N12 1.279 . S
C11 C14 1.358 . S
C11 H68 0.930 . S
N12 C11 1.279 . S
N12 C15 1.314 . S
C13 C10 1.348 . S
C13 C15 1.353 . S
C13 H69 0.929 . S
C14 C10 1.356 . S
C14 C11 1.358 . S
C14 H70 0.930 . S
C15 N12 1.314 . S
C15 C13 1.353 . S
C15 H71 0.930 . S
C16 N17 1.314 . S
C16 C21 1.353 . S
C16 H22 0.930 1_655 S
N17 Li0 1.990 1_655 S
N17 C16 1.314 . S
N17 C19 1.279 . S
C18 C19 1.358 . S
C18 C20 1.356 . S
C18 H72 0.930 . S
C19 N17 1.279 . S
C19 C18 1.358 . S
C19 H23 0.930 . S
C20 C18 1.356 . S
C20 C21 1.348 . S
C21 C16 1.353 . S
C21 C20 1.348 . S
C21 H73 0.929 . S
H22 C16 0.930 1_455 S
H23 C19 0.930 . S
C24 N25 1.314 . S
C24 C26 1.353 . S
C24 H30 0.930 . S
N25 Li1 1.990 . S
N25 C24 1.314 . S
N25 C28 1.279 . S
C26 C24 1.353 . S
C26 C29 1.348 . S
C26 H74 0.929 . S
C27 C28 1.358 . S
C27 C29 1.356 . S
C27 H75 0.930 . S
C28 N25 1.279 . S
C28 C27 1.358 . S
C28 H31 0.930 . S
C29 C26 1.348 . S
C29 C27 1.356 . S
H30 C24 0.930 . S
H31 C28 0.930 . S
C32 C34 1.348 . S
C32 C35 1.356 . S
C32 O62 1.325 . S
N33 C36 1.314 . S
N33 C37 1.279 . S
C34 C32 1.348 . S
C34 C36 1.353 . S
C34 H76 0.929 . S
C35 C32 1.356 . S
C35 C37 1.358 . S
C35 H77 0.930 . S
C36 N33 1.314 . S
C36 C34 1.353 . S
C36 H78 0.930 . S
C37 N33 1.279 . S
C37 C35 1.358 . S
C37 H79 0.930 1_455 S
C38 C39 1.348 . S
C38 C40 1.356 . S
C38 O63 1.325 . S
C39 C38 1.348 . S
C39 C41 1.353 . S
C39 H80 0.929 . S
C40 C38 1.356 . S
C40 C42 1.358 . S
C40 H81 0.930 . S
C41 C39 1.353 . S
C41 N43 1.314 . S
C41 H82 0.930 . S
C42 C40 1.358 . S
C42 N43 1.279 . S
C42 H83 0.930 . S
N43 C41 1.314 . S
N43 C42 1.279 . S
C44 C46 1.353 . S
C44 N47 1.314 . S
C44 H50 0.930 . S
C45 N47 1.279 . S
C45 C48 1.358 . S
C45 H51 0.930 . S
C46 C44 1.353 . S
C46 C49 1.348 . S
C46 H84 0.929 . S
N47 Li2 1.990 . S
N47 C44 1.314 . S
N47 C45 1.279 . S
C48 C45 1.358 . S
C48 C49 1.356 . S
C48 H85 0.930 . S
C49 C46 1.348 . S
C49 C48 1.356 . S
H50 C44 0.930 . S
H51 C45 0.930 . S
C52 N53 1.314 . S
C52 C54 1.353 . S
C52 H58 0.930 . S
N53 Li3 1.990 . S
N53 C52 1.314 . S
N53 C56 1.279 . S
C54 C52 1.353 . S
C54 C57 1.348 . S
C54 H86 0.929 . S
C55 C56 1.358 . S
C55 C57 1.356 . S
C55 H87 0.930 . S
C56 N53 1.279 . S
C56 C55 1.358 . S
C56 H59 0.930 . S
C57 C54 1.348 . S
C57 C55 1.356 . S
H58 C52 0.930 . S
H59 C56 0.930 . S
O60 Li0 1.956 . S
O60 Li1 1.970 . S
O60 Li2 1.961 . S
O60 C4 1.325 . S
O61 Li0 1.970 . S
O61 Li1 1.956 . S
O61 Li3 1.961 . S
O61 C10 1.325 . S
O62 Li0 1.961 . S
O62 Li2 1.956 . S
O62 Li3 1.970 . S
O62 C32 1.325 . S
O63 Li1 1.961 . S
O63 Li2 1.970 . S
O63 Li3 1.956 . S
O63 C38 1.325 . S
H64 C6 0.929 . S
H65 C7 0.930 . S
H66 C8 0.930 . S
H67 C9 0.930 . S
H68 C11 0.930 . S
H69 C13 0.929 . S
H70 C14 0.930 . S
H71 C15 0.930 . S
H72 C18 0.930 . S
H73 C21 0.929 . S
H74 C26 0.929 . S
H75 C27 0.930 . S
H76 C34 0.929 . S
H77 C35 0.930 . S
H78 C36 0.930 . S
H79 C37 0.930 1_655 S
H80 C39 0.929 . S
H81 C40 0.930 . S
H82 C41 0.930 . S
H83 C42 0.930 . S
H84 C46 0.929 . S
H85 C48 0.930 . S
H86 C54 0.929 . S
H87 C55 0.930 . S
Li88 N105 1.990 . S
Li88 O148 1.956 . S
Li88 O149 1.970 . S
Li88 O150 1.961 . S
Li89 N113 1.990 . S
Li89 O148 1.970 . S
Li89 O149 1.956 . S
Li89 O151 1.961 . S
Li90 N135 1.990 . S
Li90 O148 1.961 . S
Li90 O150 1.956 . S
Li90 O151 1.970 . S
Li91 N141 1.990 . S
Li91 O149 1.961 . S
Li91 O150 1.970 . S
Li91 O151 1.956 . S
C92 C94 1.348 . S
C92 C95 1.356 . S
C92 O148 1.325 . S
N93 C96 1.314 . S
N93 C97 1.279 . S
C94 C92 1.348 . S
C94 C96 1.353 . S
C94 H152 0.929 . S
C95 C92 1.356 . S
C95 C97 1.358 . S
C95 H153 0.930 . S
C96 N93 1.314 . S
C96 C94 1.353 . S
C96 H154 0.930 . S
C97 N93 1.279 . S
C97 C95 1.358 . S
C97 H155 0.930 . S
C98 C101 1.348 . S
C98 C102 1.356 . S
C98 O149 1.325 . S
C99 N100 1.279 . S
C99 C102 1.358 . S
C99 H156 0.930 . S
N100 C99 1.279 . S
N100 C103 1.314 . S
C101 C98 1.348 . S
C101 C103 1.353 . S
C101 H157 0.929 . S
C102 C98 1.356 . S
C102 C99 1.358 . S
C102 H158 0.930 . S
C103 N100 1.314 . S
C103 C101 1.353 . S
C103 H159 0.930 . S
C104 N105 1.314 . S
C104 C109 1.353 . S
C104 H110 0.930 . S
N105 Li88 1.990 . S
N105 C104 1.314 . S
N105 C107 1.279 . S
C106 C107 1.358 . S
C106 C108 1.356 . S
C106 H160 0.930 . S
C107 N105 1.279 . S
C107 C106 1.358 . S
C107 H111 0.930 . S
C108 C106 1.356 . S
C108 C109 1.348 . S
C109 C104 1.353 . S
C109 C108 1.348 . S
C109 H161 0.929 . S
H110 C104 0.930 . S
H111 C107 0.930 . S
C112 N113 1.314 . S
C112 C114 1.353 . S
C112 H118 0.930 . S
N113 Li89 1.990 . S
N113 C112 1.314 . S
N113 C116 1.279 . S
C114 C112 1.353 . S
C114 C117 1.348 . S
C114 H162 0.929 . S
C115 C116 1.358 . S
C115 C117 1.356 . S
C115 H163 0.930 . S
C116 N113 1.279 . S
C116 C115 1.358 . S
C116 H119 0.930 . S
C117 C114 1.348 . S
C117 C115 1.356 . S
H118 C112 0.930 . S
H119 C116 0.930 . S
C120 C122 1.348 . S
C120 C123 1.356 . S
C120 O150 1.325 . S
N121 C124 1.314 . S
N121 C125 1.279 . S
C122 C120 1.348 . S
C122 C124 1.353 . S
C122 H164 0.929 . S
C123 C120 1.356 . S
C123 C125 1.358 . S
C123 H165 0.930 . S
C124 N121 1.314 . S
C124 C122 1.353 . S
C124 H166 0.930 . S
C125 N121 1.279 . S
C125 C123 1.358 . S
C125 H167 0.930 . S
C126 C127 1.348 . S
C126 C128 1.356 . S
C126 O151 1.325 . S
C127 C126 1.348 . S
C127 C129 1.353 . S
C127 H168 0.929 . S
C128 C126 1.356 . S
C128 C130 1.358 . S
C128 H169 0.930 . S
C129 C127 1.353 . S
C129 N131 1.305 1_455 S
C129 H170 0.930 . S
C130 C128 1.358 . S
C130 N131 1.278 1_455 S
C130 H171 0.930 1_455 S
N131 C129 1.305 1_655 S
N131 C130 1.278 1_655 S
C132 C134 1.353 . S
C132 N135 1.314 . S
C132 H138 0.930 . S
C133 N135 1.279 . S
C133 C136 1.358 . S
C133 H139 0.930 . S
C134 C132 1.353 . S
C134 C137 1.348 . S
C134 H172 0.929 . S
N135 Li90 1.990 . S
N135 C132 1.314 . S
N135 C133 1.279 . S
C136 C133 1.358 . S
C136 C137 1.356 . S
C136 H173 0.930 . S
C137 C134 1.348 . S
C137 C136 1.356 . S
H138 C132 0.930 . S
H139 C133 0.930 . S
C140 N141 1.314 . S
C140 C142 1.353 . S
C140 H146 0.930 . S
N141 Li91 1.990 . S
N141 C140 1.314 . S
N141 C144 1.279 . S
C142 C140 1.353 . S
C142 C145 1.348 . S
C142 H174 0.929 . S
C143 C144 1.358 . S
C143 C145 1.356 . S
C143 H175 0.930 1_455 S
C144 N141 1.279 . S
C144 C143 1.358 . S
C144 H147 0.930 . S
C145 C142 1.348 . S
C145 C143 1.356 . S
H146 C140 0.930 . S
H147 C144 0.930 . S
O148 Li88 1.956 . S
O148 Li89 1.970 . S
O148 Li90 1.961 . S
O148 C92 1.325 . S
O149 Li88 1.970 . S
O149 Li89 1.956 . S
O149 Li91 1.961 . S
O149 C98 1.325 . S
O150 Li88 1.961 . S
O150 Li90 1.956 . S
O150 Li91 1.970 . S
O150 C120 1.325 . S
O151 Li89 1.961 . S
O151 Li90 1.970 . S
O151 Li91 1.956 . S
O151 C126 1.325 . S
H152 C94 0.929 . S
H153 C95 0.930 . S
H154 C96 0.930 . S
H155 C97 0.930 . S
H156 C99 0.930 . S
H157 C101 0.929 . S
H158 C102 0.930 . S
H159 C103 0.930 . S
H160 C106 0.930 . S
H161 C109 0.929 . S
H162 C114 0.929 . S
H163 C115 0.930 . S
H164 C122 0.929 . S
H165 C123 0.930 . S
H166 C124 0.930 . S
H167 C125 0.930 . S
H168 C127 0.929 . S
H169 C128 0.930 . S
H170 C129 0.930 . S
H171 C130 0.930 1_655 S
H172 C134 0.929 . S
H173 C136 0.930 . S
H174 C142 0.929 . S
H175 C143 0.930 1_655 S
Li176 N193 1.990 . S
Li176 O236 1.956 1_554 S
Li176 O237 1.974 . S
Li176 O238 1.961 1_554 S
Li177 N201 1.990 . S
Li177 O236 1.970 . S
Li177 O237 1.947 1_556 S
Li177 O239 1.961 . S
Li178 N223 1.990 1_455 S
Li178 O236 1.961 . S
Li178 O238 1.956 . S
Li178 O239 1.970 . S
Li179 N229 1.990 . S
Li179 O237 1.952 1_556 S
Li179 O238 1.970 . S
Li179 O239 1.956 . S
C180 C182 1.348 . S
C180 C183 1.361 . S
C180 O236 1.325 . S
N181 C184 1.314 . S
N181 C185 1.279 . S
C182 C180 1.348 . S
C182 C184 1.353 1_556 S
C182 H240 0.929 . S
C183 C180 1.361 . S
C183 C185 1.353 1_556 S
C183 H241 0.929 . S
C184 N181 1.314 . S
C184 C182 1.353 1_554 S
C184 H242 0.930 . S
C185 N181 1.279 . S
C185 C183 1.353 1_554 S
C185 H243 0.930 1_455 S
C186 C189 1.348 . S
C186 C190 1.356 . S
C186 O237 1.331 . S
C187 N188 1.279 . S
C187 C190 1.358 . S
C187 H244 0.930 . S
N188 C187 1.279 . S
N188 C191 1.314 . S
C189 C186 1.348 . S
C189 C191 1.353 . S
C189 H245 0.929 . S
C190 C186 1.356 . S
C190 C187 1.358 . S
C190 H246 0.930 1_554 S
C191 N188 1.314 . S
C191 C189 1.353 . S
C191 H247 0.930 . S
C192 N193 1.314 . S
C192 C197 1.353 . S
C192 H198 0.930 . S
N193 Li176 1.990 . S
N193 C192 1.314 . S
N193 C195 1.279 . S
C194 C195 1.358 . S
C194 C196 1.356 . S
C194 H248 0.930 . S
C195 N193 1.279 . S
C195 C194 1.358 . S
C195 H199 0.930 . S
C196 C194 1.356 . S
C196 C197 1.348 . S
C197 C192 1.353 . S
C197 C196 1.348 . S
C197 H249 0.929 . S
H198 C192 0.930 . S
H199 C195 0.930 . S
C200 N201 1.314 . S
C200 C202 1.353 . S
C200 H206 0.930 . S
N201 Li177 1.990 . S
N201 C200 1.314 . S
N201 C204 1.279 . S
C202 C200 1.353 . S
C202 C205 1.348 . S
C202 H250 0.929 . S
C203 C204 1.358 . S
C203 C205 1.356 . S
C203 H251 0.930 . S
C204 N201 1.279 . S
C204 C203 1.358 . S
C204 H207 0.930 . S
C205 C202 1.348 . S
C205 C203 1.356 . S
H206 C200 0.930 . S
H207 C204 0.930 . S
C208 C210 1.348 . S
C208 C211 1.356 1_456 S
C208 O238 1.325 . S
N209 C212 1.314 1_554 S
N209 C213 1.279 . S
C210 C208 1.348 . S
C210 C212 1.353 1_455 S
C210 H252 0.929 . S
C211 C208 1.356 1_654 S
C211 C213 1.358 . S
C211 H253 0.930 . S
C212 N209 1.314 1_556 S
C212 C210 1.353 1_655 S
C212 H254 0.930 . S
C213 N209 1.279 . S
C213 C211 1.358 . S
C213 H255 0.930 . S
C214 C215 1.348 . S
C214 C216 1.356 . S
C214 O239 1.325 . S
C215 C214 1.348 . S
C215 C217 1.353 . S
C215 H256 0.929 . S
C216 C214 1.356 . S
C216 C218 1.358 . S
C216 H257 0.930 . S
C217 C215 1.353 . S
C217 N219 1.314 . S
C217 H258 0.930 . S
C218 C216 1.358 . S
C218 N219 1.279 . S
C218 H259 0.930 . S
N219 C217 1.314 . S
N219 C218 1.279 . S
C220 C222 1.353 . S
C220 N223 1.314 . S
C220 H226 0.930 1_655 S
C221 N223 1.279 . S
C221 C224 1.358 . S
C221 H227 0.930 . S
C222 C220 1.353 . S
C222 C225 1.348 . S
C222 H260 0.929 . S
N223 Li178 1.990 1_655 S
N223 C220 1.314 . S
N223 C221 1.279 . S
C224 C221 1.358 . S
C224 C225 1.356 . S
C224 H261 0.930 . S
C225 C222 1.348 . S
C225 C224 1.356 . S
H226 C220 0.930 1_455 S
H227 C221 0.930 . S
C228 N229 1.314 . S
C228 C230 1.353 . S
C228 H234 0.931 1_556 S
N229 Li179 1.990 . S
N229 C228 1.314 . S
N229 C232 1.279 . S
C230 C228 1.353 . S
C230 C233 1.348 . S
C230 H262 0.929 . S
C231 C232 1.358 . S
C231 C233 1.356 . S
C231 H263 0.930 . S
C232 N229 1.279 . S
C232 C231 1.358 . S
C232 H235 0.930 . S
C233 C230 1.348 . S
C233 C231 1.356 . S
H234 C228 0.931 1_554 S
H235 C232 0.930 . S
O236 Li176 1.956 1_556 S
O236 Li177 1.970 . S
O236 Li178 1.961 . S
O236 C180 1.325 . S
O237 Li176 1.974 . S
O237 Li177 1.947 1_554 S
O237 Li179 1.952 1_554 S
O237 C186 1.331 . S
O238 Li176 1.961 1_556 S
O238 Li178 1.956 . S
O238 Li179 1.970 . S
O238 C208 1.325 . S
O239 Li177 1.961 . S
O239 Li178 1.970 . S
O239 Li179 1.956 . S
O239 C214 1.325 . S
H240 C182 0.929 . S
H241 C183 0.929 . S
H242 C184 0.930 . S
H243 C185 0.930 1_655 S
H244 C187 0.930 . S
H245 C189 0.929 . S
H246 C190 0.930 1_556 S
H247 C191 0.930 . S
H248 C194 0.930 . S
H249 C197 0.929 . S
H250 C202 0.929 . S
H251 C203 0.930 . S
H252 C210 0.929 . S
H253 C211 0.930 . S
H254 C212 0.930 . S
H255 C213 0.930 . S
H256 C215 0.929 . S
H257 C216 0.930 . S
H258 C217 0.930 . S
H259 C218 0.930 . S
H260 C222 0.929 . S
H261 C224 0.930 . S
H262 C230 0.929 . S
H263 C231 0.930 . S
Li264 N281 1.990 . S
Li264 O324 1.956 1_554 S
Li264 O325 1.974 . S
Li264 O326 1.961 1_554 S
Li265 N289 1.990 . S
Li265 O324 1.970 . S
Li265 O325 1.947 1_556 S
Li265 O327 1.961 . S
Li266 N311 1.990 . S
Li266 O324 1.961 . S
Li266 O326 1.956 . S
Li266 O327 1.970 . S
Li267 N317 1.990 . S
Li267 O325 1.952 1_556 S
Li267 O326 1.970 . S
Li267 O327 1.956 . S
C268 C270 1.348 . S
C268 C271 1.361 . S
C268 O324 1.325 . S
N269 C272 1.314 . S
N269 C273 1.279 . S
C270 C268 1.348 . S
C270 C272 1.353 1_556 S
C270 H328 0.929 . S
C271 C268 1.361 . S
C271 C273 1.353 1_556 S
C271 H329 0.929 . S
C272 N269 1.314 . S
C272 C270 1.353 1_554 S
C272 H330 0.930 . S
C273 N269 1.279 . S
C273 C271 1.353 1_554 S
C273 H331 0.930 . S
C274 C277 1.348 . S
C274 C278 1.356 . S
C274 O325 1.331 . S
C275 N276 1.278 1_455 S
C275 C278 1.358 . S
C275 H332 0.930 1_455 S
N276 C275 1.278 1_655 S
N276 C279 1.305 1_655 S
C277 C274 1.348 . S
C277 C279 1.353 . S
C277 H333 0.929 . S
C278 C274 1.356 . S
C278 C275 1.358 . S
C278 H334 0.930 1_554 S
C279 N276 1.305 1_455 S
C279 C277 1.353 . S
C279 H335 0.930 . S
C280 N281 1.314 . S
C280 C285 1.353 . S
C280 H286 0.930 . S
N281 Li264 1.990 . S
N281 C280 1.314 . S
N281 C283 1.279 . S
C282 C283 1.358 . S
C282 C284 1.356 . S
C282 H336 0.930 . S
C283 N281 1.279 . S
C283 C282 1.358 . S
C283 H287 0.930 . S
C284 C282 1.356 . S
C284 C285 1.348 . S
C285 C280 1.353 . S
C285 C284 1.348 . S
C285 H337 0.929 . S
H286 C280 0.930 . S
H287 C283 0.930 . S
C288 N289 1.314 . S
C288 C290 1.353 . S
C288 H294 0.930 . S
N289 Li265 1.990 . S
N289 C288 1.314 . S
N289 C292 1.279 . S
C290 C288 1.353 . S
C290 C293 1.348 . S
C290 H338 0.929 . S
C291 C292 1.358 . S
C291 C293 1.356 . S
C291 H339 0.930 1_455 S
C292 N289 1.279 . S
C292 C291 1.358 . S
C292 H295 0.930 . S
C293 C290 1.348 . S
C293 C291 1.356 . S
H294 C288 0.930 . S
H295 C292 0.930 . S
C296 C298 1.348 . S
C296 C299 1.356 1_556 S
C296 O326 1.325 . S
N297 C300 1.314 1_554 S
N297 C301 1.279 . S
C298 C296 1.348 . S
C298 C300 1.353 . S
C298 H340 0.929 . S
C299 C296 1.356 1_554 S
C299 C301 1.358 . S
C299 H341 0.930 . S
C300 N297 1.314 1_556 S
C300 C298 1.353 . S
C300 H342 0.930 . S
C301 N297 1.279 . S
C301 C299 1.358 . S
C301 H343 0.930 . S
C302 C303 1.348 . S
C302 C304 1.356 . S
C302 O327 1.325 . S
C303 C302 1.348 . S
C303 C305 1.353 . S
C303 H344 0.929 . S
C304 C302 1.356 . S
C304 C306 1.358 . S
C304 H345 0.930 . S
C305 C303 1.353 . S
C305 N307 1.314 . S
C305 H346 0.930 . S
C306 C304 1.358 . S
C306 N307 1.279 . S
C306 H347 0.930 . S
N307 C305 1.314 . S
N307 C306 1.279 . S
C308 C310 1.353 . S
C308 N311 1.314 . S
C308 H314 0.930 . S
C309 N311 1.279 . S
C309 C312 1.358 . S
C309 H315 0.930 . S
C310 C308 1.353 . S
C310 C313 1.348 . S
C310 H348 0.929 . S
N311 Li266 1.990 . S
N311 C308 1.314 . S
N311 C309 1.279 . S
C312 C309 1.358 . S
C312 C313 1.356 . S
C312 H349 0.930 . S
C313 C310 1.348 . S
C313 C312 1.356 . S
H314 C308 0.930 . S
H315 C309 0.930 . S
C316 N317 1.314 . S
C316 C318 1.353 . S
C316 H322 0.931 1_556 S
N317 Li267 1.990 . S
N317 C316 1.314 . S
N317 C320 1.279 . S
C318 C316 1.353 . S
C318 C321 1.348 . S
C318 H350 0.929 . S
C319 C320 1.358 . S
C319 C321 1.356 . S
C319 H351 0.930 . S
C320 N317 1.279 . S
C320 C319 1.358 . S
C320 H323 0.930 . S
C321 C318 1.348 . S
C321 C319 1.356 . S
H322 C316 0.931 1_554 S
H323 C320 0.930 . S
O324 Li264 1.956 1_556 S
O324 Li265 1.970 . S
O324 Li266 1.961 . S
O324 C268 1.325 . S
O325 Li264 1.974 . S
O325 Li265 1.947 1_554 S
O325 Li267 1.952 1_554 S
O325 C274 1.331 . S
O326 Li264 1.961 1_556 S
O326 Li266 1.956 . S
O326 Li267 1.970 . S
O326 C296 1.325 . S
O327 Li265 1.961 . S
O327 Li266 1.970 . S
O327 Li267 1.956 . S
O327 C302 1.325 . S
H328 C270 0.929 . S
H329 C271 0.929 . S
H330 C272 0.930 . S
H331 C273 0.930 . S
H332 C275 0.930 1_655 S
H333 C277 0.929 . S
H334 C278 0.930 1_556 S
H335 C279 0.930 . S
H336 C282 0.930 . S
H337 C285 0.929 . S
H338 C290 0.929 . S
H339 C291 0.930 1_655 S
H340 C298 0.929 . S
H341 C299 0.930 . S
H342 C300 0.930 . S
H343 C301 0.930 . S
H344 C303 0.929 . S
H345 C304 0.930 . S
H346 C305 0.930 . S
H347 C306 0.930 . S
H348 C310 0.929 . S
H349 C312 0.930 . S
H350 C318 0.929 . S
H351 C319 0.930 . S
Li352 N369 1.990 . S
Li352 O412 1.956 . S
Li352 O413 1.970 . S
Li352 O414 1.961 . S
Li353 N377 1.990 . S
Li353 O412 1.970 . S
Li353 O413 1.956 . S
Li353 O415 1.961 . S
Li354 N399 1.967 1_655 S
Li354 O412 1.961 . S
Li354 O414 1.956 . S
Li354 O415 1.970 . S
Li355 N405 1.990 . S
Li355 O413 1.961 . S
Li355 O414 1.970 . S
Li355 O415 1.956 . S
C356 C358 1.348 . S
C356 C359 1.356 1_655 S
C356 O412 1.325 . S
N357 C360 1.314 1_455 S
N357 C361 1.279 . S
C358 C356 1.348 . S
C358 C360 1.353 . S
C358 H416 0.929 . S
C359 C356 1.356 1_455 S
C359 C361 1.358 . S
C359 H417 0.930 . S
C360 N357 1.314 1_655 S
C360 C358 1.353 . S
C360 H418 0.930 . S
C361 N357 1.279 . S
C361 C359 1.358 . S
C361 H419 0.930 . S
C362 C365 1.348 . S
C362 C366 1.356 . S
C362 O413 1.325 . S
C363 N364 1.279 . S
C363 C366 1.358 . S
C363 H420 0.930 . S
N364 C363 1.279 . S
N364 C367 1.314 . S
C365 C362 1.348 . S
C365 C367 1.353 . S
C365 H421 0.929 . S
C366 C362 1.356 . S
C366 C363 1.358 . S
C366 H422 0.930 . S
C367 N364 1.314 . S
C367 C365 1.353 . S
C367 H423 0.930 . S
C368 N369 1.314 . S
C368 C373 1.353 . S
C368 H374 0.930 . S
N369 Li352 1.990 . S
N369 C368 1.314 . S
N369 C371 1.279 . S
C370 C371 1.358 . S
C370 C372 1.356 . S
C370 H424 0.930 . S
C371 N369 1.279 . S
C371 C370 1.358 . S
C371 H375 0.930 . S
C372 C370 1.356 . S
C372 C373 1.348 . S
C373 C368 1.353 . S
C373 C372 1.348 . S
C373 H425 0.929 . S
H374 C368 0.930 . S
H375 C371 0.930 . S
C376 N377 1.314 . S
C376 C378 1.353 . S
C376 H382 0.930 . S
N377 Li353 1.990 . S
N377 C376 1.314 . S
N377 C380 1.279 . S
C378 C376 1.353 . S
C378 C381 1.348 . S
C378 H426 0.929 . S
C379 C380 1.358 . S
C379 C381 1.356 . S
C379 H427 0.930 . S
C380 N377 1.279 . S
C380 C379 1.358 . S
C380 H383 0.930 . S
C381 C378 1.348 . S
C381 C379 1.356 . S
H382 C376 0.930 . S
H383 C380 0.930 . S
C384 C386 1.348 . S
C384 C387 1.356 . S
C384 O414 1.325 . S
N385 C388 1.314 . S
N385 C389 1.279 . S
C386 C384 1.348 . S
C386 C388 1.353 . S
C386 H428 0.929 . S
C387 C384 1.356 . S
C387 C389 1.358 . S
C387 H429 0.930 . S
C388 N385 1.314 . S
C388 C386 1.353 . S
C388 H430 0.930 . S
C389 N385 1.279 . S
C389 C387 1.358 . S
C389 H431 0.930 1_655 S
C390 C391 1.348 . S
C390 C392 1.356 . S
C390 O415 1.325 . S
C391 C390 1.348 . S
C391 C393 1.353 . S
C391 H432 0.929 . S
C392 C390 1.356 . S
C392 C394 1.358 . S
C392 H433 0.930 . S
C393 C391 1.353 . S
C393 N395 1.314 . S
C393 H434 0.930 . S
C394 C392 1.358 . S
C394 N395 1.279 . S
C394 H435 0.930 . S
N395 C393 1.314 . S
N395 C394 1.279 . S
C396 C398 1.353 . S
C396 N399 1.329 . S
C396 H402 0.930 . S
C397 N399 1.291 . S
C397 C400 1.358 . S
C397 H403 0.930 . S
C398 C396 1.353 . S
C398 C401 1.348 . S
C398 H436 0.929 . S
N399 Li354 1.967 1_455 S
N399 C396 1.329 . S
N399 C397 1.291 . S
C400 C397 1.358 . S
C400 C401 1.356 . S
C400 H437 0.930 . S
C401 C398 1.348 . S
C401 C400 1.356 . S
H402 C396 0.930 . S
H403 C397 0.930 . S
C404 N405 1.314 . S
C404 C406 1.353 . S
C404 H410 0.930 . S
N405 Li355 1.990 . S
N405 C404 1.314 . S
N405 C408 1.279 . S
C406 C404 1.353 . S
C406 C409 1.348 . S
C406 H438 0.929 . S
C407 C408 1.358 . S
C407 C409 1.356 . S
C407 H439 0.930 . S
C408 N405 1.279 . S
C408 C407 1.358 . S
C408 H411 0.930 . S
C409 C406 1.348 . S
C409 C407 1.356 . S
H410 C404 0.930 . S
H411 C408 0.930 . S
O412 Li352 1.956 . S
O412 Li353 1.970 . S
O412 Li354 1.961 . S
O412 C356 1.325 . S
O413 Li352 1.970 . S
O413 Li353 1.956 . S
O413 Li355 1.961 . S
O413 C362 1.325 . S
O414 Li352 1.961 . S
O414 Li354 1.956 . S
O414 Li355 1.970 . S
O414 C384 1.325 . S
O415 Li353 1.961 . S
O415 Li354 1.970 . S
O415 Li355 1.956 . S
O415 C390 1.325 . S
H416 C358 0.929 . S
H417 C359 0.930 . S
H418 C360 0.930 . S
H419 C361 0.930 . S
H420 C363 0.930 . S
H421 C365 0.929 . S
H422 C366 0.930 . S
H423 C367 0.930 . S
H424 C370 0.930 . S
H425 C373 0.929 . S
H426 C378 0.929 . S
H427 C379 0.930 . S
H428 C386 0.929 . S
H429 C387 0.930 . S
H430 C388 0.930 . S
H431 C389 0.930 1_455 S
H432 C391 0.929 . S
H433 C392 0.930 . S
H434 C393 0.930 . S
H435 C394 0.930 . S
H436 C398 0.929 . S
H437 C400 0.930 . S
H438 C406 0.929 . S
H439 C407 0.930 . S
Li440 N457 1.990 . S
Li440 O500 1.956 . S
Li440 O501 1.970 . S
Li440 O502 1.961 . S
Li441 N465 1.990 . S
Li441 O500 1.970 . S
Li441 O501 1.956 . S
Li441 O503 1.961 . S
Li442 N487 1.990 . S
Li442 O500 1.961 . S
Li442 O502 1.956 . S
Li442 O503 1.970 . S
Li443 N493 1.990 . S
Li443 O501 1.961 . S
Li443 O502 1.970 . S
Li443 O503 1.956 . S
C444 C446 1.348 . S
C444 C447 1.356 . S
C444 O500 1.325 . S
N445 C448 1.326 . S
N445 C449 1.280 . S
C446 C444 1.348 . S
C446 C448 1.353 . S
C446 H504 0.929 . S
C447 C444 1.356 . S
C447 C449 1.358 . S
C447 H505 0.930 . S
C448 N445 1.326 . S
C448 C446 1.353 . S
C448 H506 0.930 . S
C449 N445 1.280 . S
C449 C447 1.358 . S
C449 H507 0.930 1_655 S
C450 C453 1.348 . S
C450 C454 1.356 . S
C450 O501 1.325 . S
C451 N452 1.279 . S
C451 C454 1.358 . S
C451 H508 0.930 . S
N452 C451 1.279 . S
N452 C455 1.314 . S
C453 C450 1.348 . S
C453 C455 1.353 . S
C453 H509 0.929 . S
C454 C450 1.356 . S
C454 C451 1.358 . S
C454 H510 0.930 . S
C455 N452 1.314 . S
C455 C453 1.353 . S
C455 H511 0.930 . S
C456 N457 1.314 . S
C456 C461 1.353 . S
C456 H462 0.930 . S
N457 Li440 1.990 . S
N457 C456 1.314 . S
N457 C459 1.279 . S
C458 C459 1.358 . S
C458 C460 1.356 . S
C458 H512 0.930 . S
C459 N457 1.279 . S
C459 C458 1.358 . S
C459 H463 0.930 . S
C460 C458 1.356 . S
C460 C461 1.348 . S
C461 C456 1.353 . S
C461 C460 1.348 . S
C461 H513 0.929 . S
H462 C456 0.930 . S
H463 C459 0.930 . S
C464 N465 1.314 . S
C464 C466 1.353 . S
C464 H470 0.930 . S
N465 Li441 1.990 . S
N465 C464 1.314 . S
N465 C468 1.279 . S
C466 C464 1.353 . S
C466 C469 1.348 . S
C466 H514 0.929 . S
C467 C468 1.358 . S
C467 C469 1.356 . S
C467 H515 0.930 . S
C468 N465 1.279 . S
C468 C467 1.358 . S
C468 H471 0.930 . S
C469 C466 1.348 . S
C469 C467 1.356 . S
H470 C464 0.930 . S
H471 C468 0.930 . S
C472 C474 1.348 . S
C472 C475 1.356 . S
C472 O502 1.325 . S
N473 C476 1.314 . S
N473 C477 1.279 . S
C474 C472 1.348 . S
C474 C476 1.353 . S
C474 H516 0.929 . S
C475 C472 1.356 . S
C475 C477 1.358 . S
C475 H517 0.930 . S
C476 N473 1.314 . S
C476 C474 1.353 . S
C476 H518 0.930 . S
C477 N473 1.279 . S
C477 C475 1.358 . S
C477 H519 0.930 . S
C478 C479 1.348 . S
C478 C480 1.356 . S
C478 O503 1.325 . S
C479 C478 1.348 . S
C479 C481 1.353 . S
C479 H520 0.929 . S
C480 C478 1.356 . S
C480 C482 1.358 . S
C480 H521 0.930 . S
C481 C479 1.353 . S
C481 N483 1.314 . S
C481 H522 0.930 . S
C482 C480 1.358 . S
C482 N483 1.279 . S
C482 H523 0.930 . S
N483 C481 1.314 . S
N483 C482 1.279 . S
C484 C486 1.353 . S
C484 N487 1.314 . S
C484 H490 0.930 . S
C485 N487 1.279 . S
C485 C488 1.358 . S
C485 H491 0.930 . S
C486 C484 1.353 . S
C486 C489 1.348 . S
C486 H524 0.929 . S
N487 Li442 1.990 . S
N487 C484 1.314 . S
N487 C485 1.279 . S
C488 C485 1.358 . S
C488 C489 1.356 . S
C488 H525 0.930 . S
C489 C486 1.348 . S
C489 C488 1.356 . S
H490 C484 0.930 . S
H491 C485 0.930 . S
C492 N493 1.314 . S
C492 C494 1.353 . S
C492 H498 0.930 . S
N493 Li443 1.990 . S
N493 C492 1.314 . S
N493 C496 1.279 . S
C494 C492 1.353 . S
C494 C497 1.348 . S
C494 H526 0.929 . S
C495 C496 1.358 . S
C495 C497 1.356 . S
C495 H527 0.930 . S
C496 N493 1.279 . S
C496 C495 1.358 . S
C496 H499 0.930 . S
C497 C494 1.348 . S
C497 C495 1.356 . S
H498 C492 0.930 . S
H499 C496 0.930 . S
O500 Li440 1.956 . S
O500 Li441 1.970 . S
O500 Li442 1.961 . S
O500 C444 1.325 . S
O501 Li440 1.970 . S
O501 Li441 1.956 . S
O501 Li443 1.961 . S
O501 C450 1.325 . S
O502 Li440 1.961 . S
O502 Li442 1.956 . S
O502 Li443 1.970 . S
O502 C472 1.325 . S
O503 Li441 1.961 . S
O503 Li442 1.970 . S
O503 Li443 1.956 . S
O503 C478 1.325 . S
H504 C446 0.929 . S
H505 C447 0.930 . S
H506 C448 0.930 . S
H507 C449 0.930 1_455 S
H508 C451 0.930 . S
H509 C453 0.929 . S
H510 C454 0.930 . S
H511 C455 0.930 . S
H512 C458 0.930 . S
H513 C461 0.929 . S
H514 C466 0.929 . S
H515 C467 0.930 . S
H516 C474 0.929 . S
H517 C475 0.930 . S
H518 C476 0.930 . S
H519 C477 0.930 . S
H520 C479 0.929 . S
H521 C480 0.930 . S
H522 C481 0.930 . S
H523 C482 0.930 . S
H524 C486 0.929 . S
H525 C488 0.930 . S
H526 C494 0.929 . S
H527 C495 0.930 . S
Li528 N545 1.967 1_655 S
Li528 O588 1.956 . S
Li528 O589 1.970 . S
Li528 O590 1.961 . S
Li529 N553 1.990 . S
Li529 O588 1.970 . S
Li529 O589 1.956 . S
Li529 O591 1.959 . S
Li530 N575 1.990 . S
Li530 O588 1.961 1_556 S
Li530 O590 1.956 1_556 S
Li530 O591 1.971 1_556 S
Li531 N581 1.990 . S
Li531 O589 1.961 . S
Li531 O590 1.970 . S
Li531 O591 1.954 . S
C532 C534 1.348 . S
C532 C535 1.356 1_554 S
C532 O588 1.325 . S
N533 C536 1.314 1_556 S
N533 C537 1.279 . S
C534 C532 1.348 . S
C534 C536 1.353 . S
C534 H592 0.929 . S
C535 C532 1.356 1_556 S
C535 C537 1.358 . S
C535 H593 0.930 . S
C536 N533 1.314 1_554 S
C536 C534 1.353 . S
C536 H594 0.930 . S
C537 N533 1.279 . S
C537 C535 1.358 . S
C537 H595 0.930 1_655 S
C538 C541 1.348 . S
C538 C542 1.356 . S
C538 O589 1.325 . S
C539 N540 1.279 . S
C539 C542 1.358 . S
C539 H596 0.930 . S
N540 C539 1.279 . S
N540 C543 1.314 . S
C541 C538 1.348 . S
C541 C543 1.353 . S
C541 H597 0.929 . S
C542 C538 1.356 . S
C542 C539 1.358 . S
C542 H598 0.930 . S
C543 N540 1.314 . S
C543 C541 1.353 . S
C543 H599 0.930 . S
C544 N545 1.329 . S
C544 C549 1.353 . S
C544 H550 0.930 . S
N545 Li528 1.967 1_455 S
N545 C544 1.329 . S
N545 C547 1.291 . S
C546 C547 1.358 . S
C546 C548 1.356 . S
C546 H600 0.930 . S
C547 N545 1.291 . S
C547 C546 1.358 . S
C547 H551 0.930 . S
C548 C546 1.356 . S
C548 C549 1.348 . S
C549 C544 1.353 . S
C549 C548 1.348 . S
C549 H601 0.929 . S
H550 C544 0.930 . S
H551 C547 0.930 . S
C552 N553 1.314 . S
C552 C554 1.353 . S
C552 H558 0.930 . S
N553 Li529 1.990 . S
N553 C552 1.314 . S
N553 C556 1.279 . S
C554 C552 1.353 . S
C554 C557 1.348 . S
C554 H602 0.929 . S
C555 C556 1.358 . S
C555 C557 1.356 . S
C555 H603 0.930 . S
C556 N553 1.279 . S
C556 C555 1.358 . S
C556 H559 0.930 . S
C557 C554 1.348 . S
C557 C555 1.356 . S
H558 C552 0.930 . S
H559 C556 0.930 . S
C560 C562 1.350 . S
C560 C563 1.347 1_654 S
C560 O590 1.325 . S
N561 C564 1.314 1_455 S
N561 C565 1.279 . S
C562 C560 1.350 . S
C562 C564 1.349 1_554 S
C562 H604 0.931 . S
C563 C560 1.347 1_456 S
C563 C565 1.370 . S
C563 H605 0.929 . S
C564 N561 1.314 1_655 S
C564 C562 1.349 1_556 S
C564 H606 0.930 . S
C565 N561 1.279 . S
C565 C563 1.370 . S
C565 H607 0.930 . S
C566 C567 1.348 . S
C566 C568 1.356 . S
C566 O591 1.326 1_556 S
C567 C566 1.348 . S
C567 C569 1.353 . S
C567 H608 0.929 . S
C568 C566 1.356 . S
C568 C570 1.358 . S
C568 H609 0.930 1_556 S
C569 C567 1.353 . S
C569 N571 1.314 . S
C569 H610 0.930 . S
C570 C568 1.358 . S
C570 N571 1.279 . S
C570 H611 0.930 . S
N571 C569 1.314 . S
N571 C570 1.279 . S
C572 C574 1.353 . S
C572 N575 1.314 . S
C572 H578 0.930 . S
C573 N575 1.279 . S
C573 C576 1.358 . S
C573 H579 0.930 . S
C574 C572 1.353 . S
C574 C577 1.348 . S
C574 H612 0.929 . S
N575 Li530 1.990 . S
N575 C572 1.314 . S
N575 C573 1.279 . S
C576 C573 1.358 . S
C576 C577 1.356 . S
C576 H613 0.930 . S
C577 C574 1.348 . S
C577 C576 1.356 . S
H578 C572 0.930 . S
H579 C573 0.930 . S
C580 N581 1.314 . S
C580 C582 1.353 . S
C580 H586 0.930 . S
N581 Li531 1.990 . S
N581 C580 1.314 . S
N581 C584 1.279 . S
C582 C580 1.353 . S
C582 C585 1.348 . S
C582 H614 0.929 . S
C583 C584 1.358 . S
C583 C585 1.356 . S
C583 H615 0.930 . S
C584 N581 1.279 . S
C584 C583 1.358 . S
C584 H587 0.930 . S
C585 C582 1.348 . S
C585 C583 1.356 . S
H586 C580 0.930 . S
H587 C584 0.930 . S
O588 Li528 1.956 . S
O588 Li529 1.970 . S
O588 Li530 1.961 1_554 S
O588 C532 1.325 . S
O589 Li528 1.970 . S
O589 Li529 1.956 . S
O589 Li531 1.961 . S
O589 C538 1.325 . S
O590 Li528 1.961 . S
O590 Li530 1.956 1_554 S
O590 Li531 1.970 . S
O590 C560 1.325 . S
O591 Li529 1.959 . S
O591 Li530 1.971 1_554 S
O591 Li531 1.954 . S
O591 C566 1.326 1_554 S
H592 C534 0.929 . S
H593 C535 0.930 . S
H594 C536 0.930 . S
H595 C537 0.930 1_455 S
H596 C539 0.930 . S
H597 C541 0.929 . S
H598 C542 0.930 . S
H599 C543 0.930 . S
H600 C546 0.930 . S
H601 C549 0.929 . S
H602 C554 0.929 . S
H603 C555 0.930 . S
H604 C562 0.931 . S
H605 C563 0.929 . S
H606 C564 0.930 . S
H607 C565 0.930 . S
H608 C567 0.929 . S
H609 C568 0.930 1_554 S
H610 C569 0.930 . S
H611 C570 0.930 . S
H612 C574 0.929 . S
H613 C576 0.930 . S
H614 C582 0.929 . S
H615 C583 0.930 . S
Li616 N633 1.990 . S
Li616 O676 1.956 . S
Li616 O677 1.970 . S
Li616 O678 1.959 . S
Li617 N641 1.990 . S
Li617 O676 1.970 . S
Li617 O677 1.956 . S
Li617 O679 1.961 . S
Li618 N663 1.990 . S
Li618 O676 1.961 . S
Li618 O678 1.954 . S
Li618 O679 1.970 . S
Li619 N669 1.990 . S
Li619 O677 1.961 1_556 S
Li619 O678 1.971 1_556 S
Li619 O679 1.956 1_556 S
C620 C622 1.348 . S
C620 C623 1.356 . S
C620 O676 1.325 . S
N621 C624 1.314 . S
N621 C625 1.279 . S
C622 C620 1.348 . S
C622 C624 1.353 . S
C622 H680 0.929 . S
C623 C620 1.356 . S
C623 C625 1.358 . S
C623 H681 0.930 . S
C624 N621 1.314 . S
C624 C622 1.353 . S
C624 H682 0.930 . S
C625 N621 1.279 . S
C625 C623 1.358 . S
C625 H683 0.930 . S
C626 C629 1.348 . S
C626 C630 1.356 1_554 S
C626 O677 1.325 . S
C627 N628 1.279 . S
C627 C630 1.358 . S
C627 H684 0.930 . S
N628 C627 1.279 . S
N628 C631 1.314 1_556 S
C629 C626 1.348 . S
C629 C631 1.353 . S
C629 H685 0.929 . S
C630 C626 1.356 1_556 S
C630 C627 1.358 . S
C630 H686 0.930 . S
C631 N628 1.314 1_554 S
C631 C629 1.353 . S
C631 H687 0.930 . S
C632 N633 1.314 . S
C632 C637 1.353 . S
C632 H638 0.930 . S
N633 Li616 1.990 . S
N633 C632 1.314 . S
N633 C635 1.279 . S
C634 C635 1.358 . S
C634 C636 1.356 . S
C634 H688 0.930 . S
C635 N633 1.279 . S
C635 C634 1.358 . S
C635 H639 0.930 . S
C636 C634 1.356 . S
C636 C637 1.348 . S
C637 C632 1.353 . S
C637 C636 1.348 . S
C637 H689 0.929 . S
H638 C632 0.930 . S
H639 C635 0.930 . S
C640 N641 1.314 . S
C640 C642 1.353 . S
C640 H646 0.930 . S
N641 Li617 1.990 . S
N641 C640 1.314 . S
N641 C644 1.279 . S
C642 C640 1.353 . S
C642 C645 1.348 . S
C642 H690 0.929 . S
C643 C644 1.358 . S
C643 C645 1.356 . S
C643 H691 0.930 . S
C644 N641 1.279 . S
C644 C643 1.358 . S
C644 H647 0.930 . S
C645 C642 1.348 . S
C645 C643 1.356 . S
H646 C640 0.930 . S
H647 C644 0.930 . S
C648 C650 1.348 . S
C648 C651 1.356 . S
C648 O678 1.326 1_556 S
N649 C652 1.326 . S
N649 C653 1.280 . S
C650 C648 1.348 . S
C650 C652 1.353 . S
C650 H692 0.929 . S
C651 C648 1.356 . S
C651 C653 1.358 . S
C651 H693 0.930 1_556 S
C652 N649 1.326 . S
C652 C650 1.353 . S
C652 H694 0.930 . S
C653 N649 1.280 . S
C653 C651 1.358 . S
C653 H695 0.930 1_655 S
C654 C655 1.350 . S
C654 C656 1.347 1_554 S
C654 O679 1.325 . S
C655 C654 1.350 . S
C655 C657 1.349 1_554 S
C655 H696 0.931 . S
C656 C654 1.347 1_556 S
C656 C658 1.370 . S
C656 H697 0.929 . S
C657 C655 1.349 1_556 S
C657 N659 1.314 . S
C657 H698 0.930 . S
C658 C656 1.370 . S
C658 N659 1.279 . S
C658 H699 0.930 . S
N659 C657 1.314 . S
N659 C658 1.279 . S
C660 C662 1.353 . S
C660 N663 1.314 . S
C660 H666 0.930 . S
C661 N663 1.279 . S
C661 C664 1.358 . S
C661 H667 0.930 . S
C662 C660 1.353 . S
C662 C665 1.348 . S
C662 H700 0.929 . S
N663 Li618 1.990 . S
N663 C660 1.314 . S
N663 C661 1.279 . S
C664 C661 1.358 . S
C664 C665 1.356 . S
C664 H701 0.930 . S
C665 C662 1.348 . S
C665 C664 1.356 . S
H666 C660 0.930 . S
H667 C661 0.930 . S
C668 N669 1.314 . S
C668 C670 1.353 . S
C668 H674 0.930 . S
N669 Li619 1.990 . S
N669 C668 1.314 . S
N669 C672 1.279 . S
C670 C668 1.353 . S
C670 C673 1.348 . S
C670 H702 0.929 . S
C671 C672 1.358 . S
C671 C673 1.356 . S
C671 H703 0.930 . S
C672 N669 1.279 . S
C672 C671 1.358 . S
C672 H675 0.930 . S
C673 C670 1.348 . S
C673 C671 1.356 . S
H674 C668 0.930 . S
H675 C672 0.930 . S
O676 Li616 1.956 . S
O676 Li617 1.970 . S
O676 Li618 1.961 . S
O676 C620 1.325 . S
O677 Li616 1.970 . S
O677 Li617 1.956 . S
O677 Li619 1.961 1_554 S
O677 C626 1.325 . S
O678 Li616 1.959 . S
O678 Li618 1.954 . S
O678 Li619 1.971 1_554 S
O678 C648 1.326 1_554 S
O679 Li617 1.961 . S
O679 Li618 1.970 . S
O679 Li619 1.956 1_554 S
O679 C654 1.325 . S
H680 C622 0.929 . S
H681 C623 0.930 . S
H682 C624 0.930 . S
H683 C625 0.930 . S
H684 C627 0.930 . S
H685 C629 0.929 . S
H686 C630 0.930 . S
H687 C631 0.930 . S
H688 C634 0.930 . S
H689 C637 0.929 . S
H690 C642 0.929 . S
H691 C643 0.930 . S
H692 C650 0.929 . S
H693 C651 0.930 1_554 S
H694 C652 0.930 . S
H695 C653 0.930 1_455 S
H696 C655 0.931 . S
H697 C656 0.929 . S
H698 C657 0.930 . S
H699 C658 0.930 . S
H700 C662 0.929 . S
H701 C664 0.930 . S
H702 C670 0.929 . S
H703 C671 0.930 . S
Li704 N721 1.990 1_455 S
Li704 O764 1.956 . S
Li704 O765 1.970 . S
Li704 O766 1.961 . S
Li705 N729 1.990 . S
Li705 O764 1.970 . S
Li705 O765 1.956 . S
Li705 O767 1.961 . S
Li706 N751 1.990 . S
Li706 O764 1.961 . S
Li706 O766 1.956 . S
Li706 O767 1.970 . S
Li707 N757 1.990 . S
Li707 O765 1.961 . S
Li707 O766 1.970 . S
Li707 O767 1.956 . S
C708 C710 1.348 . S
C708 C711 1.356 1_455 S
C708 O764 1.325 . S
N709 C712 1.314 . S
N709 C713 1.279 . S
C710 C708 1.348 . S
C710 C712 1.353 1_455 S
C710 H768 0.929 . S
C711 C708 1.356 1_655 S
C711 C713 1.358 . S
C711 H769 0.930 . S
C712 N709 1.314 . S
C712 C710 1.353 1_655 S
C712 H770 0.930 . S
C713 N709 1.279 . S
C713 C711 1.358 . S
C713 H771 0.930 . S
C714 C717 1.348 . S
C714 C718 1.356 . S
C714 O765 1.325 . S
C715 N716 1.279 . S
C715 C718 1.358 . S
C715 H772 0.930 . S
N716 C715 1.279 . S
N716 C719 1.314 . S
C717 C714 1.348 . S
C717 C719 1.353 . S
C717 H773 0.929 . S
C718 C714 1.356 . S
C718 C715 1.358 . S
C718 H774 0.930 . S
C719 N716 1.314 . S
C719 C717 1.353 . S
C719 H775 0.930 . S
C720 N721 1.314 . S
C720 C725 1.353 . S
C720 H726 0.930 1_655 S
N721 Li704 1.990 1_655 S
N721 C720 1.314 . S
N721 C723 1.279 . S
C722 C723 1.358 . S
C722 C724 1.356 . S
C722 H776 0.930 . S
C723 N721 1.279 . S
C723 C722 1.358 . S
C723 H727 0.930 . S
C724 C722 1.356 . S
C724 C725 1.348 . S
C725 C720 1.353 . S
C725 C724 1.348 . S
C725 H777 0.929 . S
H726 C720 0.930 1_455 S
H727 C723 0.930 . S
C728 N729 1.314 . S
C728 C730 1.353 . S
C728 H734 0.930 . S
N729 Li705 1.990 . S
N729 C728 1.314 . S
N729 C732 1.279 . S
C730 C728 1.353 . S
C730 C733 1.348 . S
C730 H778 0.929 . S
C731 C732 1.358 . S
C731 C733 1.356 . S
C731 H779 0.930 . S
C732 N729 1.279 . S
C732 C731 1.358 . S
C732 H735 0.930 . S
C733 C730 1.348 . S
C733 C731 1.356 . S
H734 C728 0.930 . S
H735 C732 0.930 . S
C736 C738 1.348 . S
C736 C739 1.356 . S
C736 O766 1.325 . S
N737 C740 1.314 . S
N737 C741 1.279 . S
C738 C736 1.348 . S
C738 C740 1.353 . S
C738 H780 0.929 . S
C739 C736 1.356 . S
C739 C741 1.358 . S
C739 H781 0.930 . S
C740 N737 1.314 . S
C740 C738 1.353 . S
C740 H782 0.930 . S
C741 N737 1.279 . S
C741 C739 1.358 . S
C741 H783 0.930 1_455 S
C742 C743 1.348 . S
C742 C744 1.356 . S
C742 O767 1.325 . S
C743 C742 1.348 . S
C743 C745 1.353 . S
C743 H784 0.929 . S
C744 C742 1.356 . S
C744 C746 1.358 . S
C744 H785 0.930 . S
C745 C743 1.353 . S
C745 N747 1.314 . S
C745 H786 0.930 . S
C746 C744 1.358 . S
C746 N747 1.279 . S
C746 H787 0.930 . S
N747 C745 1.314 . S
N747 C746 1.279 . S
C748 C750 1.353 . S
C748 N751 1.314 . S
C748 H754 0.930 . S
C749 N751 1.279 . S
C749 C752 1.358 . S
C749 H755 0.930 . S
C750 C748 1.353 . S
C750 C753 1.348 . S
C750 H788 0.929 . S
N751 Li706 1.990 . S
N751 C748 1.314 . S
N751 C749 1.279 . S
C752 C749 1.358 . S
C752 C753 1.356 . S
C752 H789 0.930 . S
C753 C750 1.348 . S
C753 C752 1.356 . S
H754 C748 0.930 . S
H755 C749 0.930 . S
C756 N757 1.314 . S
C756 C758 1.353 . S
C756 H762 0.930 . S
N757 Li707 1.990 . S
N757 C756 1.314 . S
N757 C760 1.279 . S
C758 C756 1.353 . S
C758 C761 1.348 . S
C758 H790 0.929 . S
C759 C760 1.358 . S
C759 C761 1.356 . S
C759 H791 0.930 . S
C760 N757 1.279 . S
C760 C759 1.358 . S
C760 H763 0.930 . S
C761 C758 1.348 . S
C761 C759 1.356 . S
H762 C756 0.930 . S
H763 C760 0.930 . S
O764 Li704 1.956 . S
O764 Li705 1.970 . S
O764 Li706 1.961 . S
O764 C708 1.325 . S
O765 Li704 1.970 . S
O765 Li705 1.956 . S
O765 Li707 1.961 . S
O765 C714 1.325 . S
O766 Li704 1.961 . S
O766 Li706 1.956 . S
O766 Li707 1.970 . S
O766 C736 1.325 . S
O767 Li705 1.961 . S
O767 Li706 1.970 . S
O767 Li707 1.956 . S
O767 C742 1.325 . S
H768 C710 0.929 . S
H769 C711 0.930 . S
H770 C712 0.930 . S
H771 C713 0.930 . S
H772 C715 0.930 . S
H773 C717 0.929 . S
H774 C718 0.930 . S
H775 C719 0.930 . S
H776 C722 0.930 . S
H777 C725 0.929 . S
H778 C730 0.929 . S
H779 C731 0.930 . S
H780 C738 0.929 . S
H781 C739 0.930 . S
H782 C740 0.930 . S
H783 C741 0.930 1_655 S
H784 C743 0.929 . S
H785 C744 0.930 . S
H786 C745 0.930 . S
H787 C746 0.930 . S
H788 C750 0.929 . S
H789 C752 0.930 . S
H790 C758 0.929 . S
H791 C759 0.930 . S
Li792 N809 1.990 . S
Li792 O852 1.956 . S
Li792 O853 1.970 . S
Li792 O854 1.961 . S
Li793 N817 1.990 . S
Li793 O852 1.970 . S
Li793 O853 1.956 . S
Li793 O855 1.961 . S
Li794 N839 1.990 . S
Li794 O852 1.961 . S
Li794 O854 1.956 . S
Li794 O855 1.970 . S
Li795 N845 1.990 . S
Li795 O853 1.961 . S
Li795 O854 1.970 . S
Li795 O855 1.956 . S
C796 C798 1.348 . S
C796 C799 1.356 . S
C796 O852 1.325 . S
N797 C800 1.314 . S
N797 C801 1.279 . S
C798 C796 1.348 . S
C798 C800 1.353 . S
C798 H856 0.929 . S
C799 C796 1.356 . S
C799 C801 1.358 . S
C799 H857 0.930 . S
C800 N797 1.314 . S
C800 C798 1.353 . S
C800 H858 0.930 . S
C801 N797 1.279 . S
C801 C799 1.358 . S
C801 H859 0.930 . S
C802 C805 1.348 . S
C802 C806 1.356 . S
C802 O853 1.325 . S
C803 N804 1.279 . S
C803 C806 1.358 . S
C803 H860 0.930 . S
N804 C803 1.279 . S
N804 C807 1.314 . S
C805 C802 1.348 . S
C805 C807 1.353 . S
C805 H861 0.929 . S
C806 C802 1.356 . S
C806 C803 1.358 . S
C806 H862 0.930 . S
C807 N804 1.314 . S
C807 C805 1.353 . S
C807 H863 0.930 . S
C808 N809 1.314 . S
C808 C813 1.353 . S
C808 H814 0.930 . S
N809 Li792 1.990 . S
N809 C808 1.314 . S
N809 C811 1.279 . S
C810 C811 1.358 . S
C810 C812 1.356 . S
C810 H864 0.930 . S
C811 N809 1.279 . S
C811 C810 1.358 . S
C811 H815 0.930 . S
C812 C810 1.356 . S
C812 C813 1.348 . S
C813 C808 1.353 . S
C813 C812 1.348 . S
C813 H865 0.929 . S
H814 C808 0.930 . S
H815 C811 0.930 . S
C816 N817 1.314 . S
C816 C818 1.353 . S
C816 H822 0.930 . S
N817 Li793 1.990 . S
N817 C816 1.314 . S
N817 C820 1.279 . S
C818 C816 1.353 . S
C818 C821 1.348 . S
C818 H866 0.929 . S
C819 C820 1.358 . S
C819 C821 1.356 . S
C819 H867 0.930 . S
C820 N817 1.279 . S
C820 C819 1.358 . S
C820 H823 0.930 . S
C821 C818 1.348 . S
C821 C819 1.356 . S
H822 C816 0.930 . S
H823 C820 0.930 . S
C824 C826 1.348 . S
C824 C827 1.356 . S
C824 O854 1.325 . S
N825 C828 1.314 . S
N825 C829 1.279 . S
C826 C824 1.348 . S
C826 C828 1.353 . S
C826 H868 0.929 . S
C827 C824 1.356 . S
C827 C829 1.358 . S
C827 H869 0.930 . S
C828 N825 1.314 . S
C828 C826 1.353 . S
C828 H870 0.930 . S
C829 N825 1.279 . S
C829 C827 1.358 . S
C829 H871 0.930 . S
C830 C831 1.348 . S
C830 C832 1.356 . S
C830 O855 1.325 . S
C831 C830 1.348 . S
C831 C833 1.353 . S
C831 H872 0.929 . S
C832 C830 1.356 . S
C832 C834 1.358 . S
C832 H873 0.930 . S
C833 C831 1.353 . S
C833 N835 1.305 1_455 S
C833 H874 0.930 . S
C834 C832 1.358 . S
C834 N835 1.278 1_455 S
C834 H875 0.930 1_455 S
N835 C833 1.305 1_655 S
N835 C834 1.278 1_655 S
C836 C838 1.353 . S
C836 N839 1.314 . S
C836 H842 0.930 . S
C837 N839 1.279 . S
C837 C840 1.358 . S
C837 H843 0.930 . S
C838 C836 1.353 . S
C838 C841 1.348 . S
C838 H876 0.929 . S
N839 Li794 1.990 . S
N839 C836 1.314 . S
N839 C837 1.279 . S
C840 C837 1.358 . S
C840 C841 1.356 . S
C840 H877 0.930 . S
C841 C838 1.348 . S
C841 C840 1.356 . S
H842 C836 0.930 . S
H843 C837 0.930 . S
C844 N845 1.314 . S
C844 C846 1.353 . S
C844 H850 0.930 . S
N845 Li795 1.990 . S
N845 C844 1.314 . S
N845 C848 1.279 . S
C846 C844 1.353 . S
C846 C849 1.348 . S
C846 H878 0.929 . S
C847 C848 1.358 . S
C847 C849 1.356 . S
C847 H879 0.930 1_455 S
C848 N845 1.279 . S
C848 C847 1.358 . S
C848 H851 0.930 . S
C849 C846 1.348 . S
C849 C847 1.356 . S
H850 C844 0.930 . S
H851 C848 0.930 . S
O852 Li792 1.956 . S
O852 Li793 1.970 . S
O852 Li794 1.961 . S
O852 C796 1.325 . S
O853 Li792 1.970 . S
O853 Li793 1.956 . S
O853 Li795 1.961 . S
O853 C802 1.325 . S
O854 Li792 1.961 . S
O854 Li794 1.956 . S
O854 Li795 1.970 . S
O854 C824 1.325 . S
O855 Li793 1.961 . S
O855 Li794 1.970 . S
O855 Li795 1.956 . S
O855 C830 1.325 . S
H856 C798 0.929 . S
H857 C799 0.930 . S
H858 C800 0.930 . S
H859 C801 0.930 . S
H860 C803 0.930 . S
H861 C805 0.929 . S
H862 C806 0.930 . S
H863 C807 0.930 . S
H864 C810 0.930 . S
H865 C813 0.929 . S
H866 C818 0.929 . S
H867 C819 0.930 . S
H868 C826 0.929 . S
H869 C827 0.930 . S
H870 C828 0.930 . S
H871 C829 0.930 . S
H872 C831 0.929 . S
H873 C832 0.930 . S
H874 C833 0.930 . S
H875 C834 0.930 1_655 S
H876 C838 0.929 . S
H877 C840 0.930 . S
H878 C846 0.929 . S
H879 C847 0.930 1_655 S
Li880 N897 1.990 . S
Li880 O940 1.956 . S
Li880 O941 1.970 . S
Li880 O942 1.961 . S
Li881 N905 1.990 . S
Li881 O940 1.970 . S
Li881 O941 1.956 . S
Li881 O943 1.961 . S
Li882 N927 1.990 . S
Li882 O940 1.961 . S
Li882 O942 1.956 . S
Li882 O943 1.970 . S
Li883 N933 1.990 1_455 S
Li883 O941 1.961 . S
Li883 O942 1.970 . S
Li883 O943 1.956 . S
C884 C886 1.348 . S
C884 C887 1.356 . S
C884 O940 1.325 . S
N885 C888 1.314 . S
N885 C889 1.279 . S
C886 C884 1.348 . S
C886 C888 1.353 . S
C886 H944 0.929 . S
C887 C884 1.356 . S
C887 C889 1.358 . S
C887 H945 0.930 . S
C888 N885 1.314 . S
C888 C886 1.353 . S
C888 H946 0.930 . S
C889 N885 1.279 . S
C889 C887 1.358 . S
C889 H947 0.930 . S
C890 C893 1.348 . S
C890 C894 1.356 . S
C890 O941 1.325 . S
C891 N892 1.279 . S
C891 C894 1.358 . S
C891 H948 0.930 1_455 S
N892 C891 1.279 . S
N892 C895 1.314 . S
C893 C890 1.348 . S
C893 C895 1.353 . S
C893 H949 0.929 . S
C894 C890 1.356 . S
C894 C891 1.358 . S
C894 H950 0.930 . S
C895 N892 1.314 . S
C895 C893 1.353 . S
C895 H951 0.930 . S
C896 N897 1.314 . S
C896 C901 1.353 . S
C896 H902 0.930 . S
N897 Li880 1.990 . S
N897 C896 1.314 . S
N897 C899 1.279 . S
C898 C899 1.358 . S
C898 C900 1.356 . S
C898 H952 0.930 . S
C899 N897 1.279 . S
C899 C898 1.358 . S
C899 H903 0.930 . S
C900 C898 1.356 . S
C900 C901 1.348 . S
C901 C896 1.353 . S
C901 C900 1.348 . S
C901 H953 0.929 . S
H902 C896 0.930 . S
H903 C899 0.930 . S
C904 N905 1.314 . S
C904 C906 1.353 . S
C904 H910 0.930 . S
N905 Li881 1.990 . S
N905 C904 1.314 . S
N905 C908 1.279 . S
C906 C904 1.353 . S
C906 C909 1.348 . S
C906 H954 0.929 . S
C907 C908 1.358 . S
C907 C909 1.356 . S
C907 H955 0.930 . S
C908 N905 1.279 . S
C908 C907 1.358 . S
C908 H911 0.930 . S
C909 C906 1.348 . S
C909 C907 1.356 . S
H910 C904 0.930 . S
H911 C908 0.930 . S
C912 C914 1.348 . S
C912 C915 1.356 . S
C912 O942 1.325 . S
N913 C916 1.314 . S
N913 C917 1.279 . S
C914 C912 1.348 . S
C914 C916 1.353 . S
C914 H956 0.929 . S
C915 C912 1.356 . S
C915 C917 1.358 . S
C915 H957 0.930 . S
C916 N913 1.314 . S
C916 C914 1.353 . S
C916 H958 0.930 . S
C917 N913 1.279 . S
C917 C915 1.358 . S
C917 H959 0.930 . S
C918 C919 1.348 . S
C918 C920 1.356 1_455 S
C918 O943 1.325 . S
C919 C918 1.348 . S
C919 C921 1.353 1_455 S
C919 H960 0.929 . S
C920 C918 1.356 1_655 S
C920 C922 1.358 . S
C920 H961 0.930 . S
C921 C919 1.353 1_655 S
C921 N923 1.314 . S
C921 H962 0.930 . S
C922 C920 1.358 . S
C922 N923 1.279 . S
C922 H963 0.930 . S
N923 C921 1.314 . S
N923 C922 1.279 . S
C924 C926 1.353 . S
C924 N927 1.314 . S
C924 H930 0.930 . S
C925 N927 1.279 . S
C925 C928 1.358 . S
C925 H931 0.930 . S
C926 C924 1.353 . S
C926 C929 1.348 . S
C926 H964 0.929 . S
N927 Li882 1.990 . S
N927 C924 1.314 . S
N927 C925 1.279 . S
C928 C925 1.358 . S
C928 C929 1.356 . S
C928 H965 0.930 . S
C929 C926 1.348 . S
C929 C928 1.356 . S
H930 C924 0.930 . S
H931 C925 0.930 . S
C932 N933 1.314 . S
C932 C934 1.353 . S
C932 H938 0.930 1_655 S
N933 Li883 1.990 1_655 S
N933 C932 1.314 . S
N933 C936 1.279 . S
C934 C932 1.353 . S
C934 C937 1.348 . S
C934 H966 0.929 . S
C935 C936 1.358 . S
C935 C937 1.356 . S
C935 H967 0.930 . S
C936 N933 1.279 . S
C936 C935 1.358 . S
C936 H939 0.930 . S
C937 C934 1.348 . S
C937 C935 1.356 . S
H938 C932 0.930 1_455 S
H939 C936 0.930 . S
O940 Li880 1.956 . S
O940 Li881 1.970 . S
O940 Li882 1.961 . S
O940 C884 1.325 . S
O941 Li880 1.970 . S
O941 Li881 1.956 . S
O941 Li883 1.961 . S
O941 C890 1.325 . S
O942 Li880 1.961 . S
O942 Li882 1.956 . S
O942 Li883 1.970 . S
O942 C912 1.325 . S
O943 Li881 1.961 . S
O943 Li882 1.970 . S
O943 Li883 1.956 . S
O943 C918 1.325 . S
H944 C886 0.929 . S
H945 C887 0.930 . S
H946 C888 0.930 . S
H947 C889 0.930 . S
H948 C891 0.930 1_655 S
H949 C893 0.929 . S
H950 C894 0.930 . S
H951 C895 0.930 . S
H952 C898 0.930 . S
H953 C901 0.929 . S
H954 C906 0.929 . S
H955 C907 0.930 . S
H956 C914 0.929 . S
H957 C915 0.930 . S
H958 C916 0.930 . S
H959 C917 0.930 . S
H960 C919 0.929 . S
H961 C920 0.930 . S
H962 C921 0.930 . S
H963 C922 0.930 . S
H964 C926 0.929 . S
H965 C928 0.930 . S
H966 C934 0.929 . S
H967 C935 0.930 . S
Li968 N985 1.990 . S
Li968 O1028 1.956 . S
Li968 O1029 1.970 . S
Li968 O1030 1.961 . S
Li969 N993 1.990 . S
Li969 O1028 1.970 . S
Li969 O1029 1.956 . S
Li969 O1031 1.961 . S
Li970 N1015 1.990 . S
Li970 O1028 1.961 . S
Li970 O1030 1.956 . S
Li970 O1031 1.970 . S
Li971 N1021 1.990 . S
Li971 O1029 1.961 . S
Li971 O1030 1.970 . S
Li971 O1031 1.956 . S
C972 C974 1.348 . S
C972 C975 1.356 . S
C972 O1028 1.325 . S
N973 C976 1.314 . S
N973 C977 1.279 . S
C974 C972 1.348 . S
C974 C976 1.353 . S
C974 H1032 0.929 . S
C975 C972 1.356 . S
C975 C977 1.358 . S
C975 H1033 0.930 . S
C976 N973 1.314 . S
C976 C974 1.353 . S
C976 H1034 0.930 . S
C977 N973 1.279 . S
C977 C975 1.358 . S
C977 H1035 0.930 . S
C978 C981 1.348 . S
C978 C982 1.356 . S
C978 O1029 1.325 . S
C979 N980 1.278 1_455 S
C979 C982 1.358 . S
C979 H1036 0.930 1_455 S
N980 C979 1.278 1_655 S
N980 C983 1.305 1_655 S
C981 C978 1.348 . S
C981 C983 1.353 . S
C981 H1037 0.929 . S
C982 C978 1.356 . S
C982 C979 1.358 . S
C982 H1038 0.930 . S
C983 N980 1.305 1_455 S
C983 C981 1.353 . S
C983 H1039 0.930 . S
C984 N985 1.314 . S
C984 C989 1.353 . S
C984 H990 0.930 . S
N985 Li968 1.990 . S
N985 C984 1.314 . S
N985 C987 1.279 . S
C986 C987 1.358 . S
C986 C988 1.356 . S
C986 H1040 0.930 . S
C987 N985 1.279 . S
C987 C986 1.358 . S
C987 H991 0.930 . S
C988 C986 1.356 . S
C988 C989 1.348 . S
C989 C984 1.353 . S
C989 C988 1.348 . S
C989 H1041 0.929 . S
H990 C984 0.930 . S
H991 C987 0.930 . S
C992 N993 1.314 . S
C992 C994 1.353 . S
C992 H998 0.930 . S
N993 Li969 1.990 . S
N993 C992 1.314 . S
N993 C996 1.279 . S
C994 C992 1.353 . S
C994 C997 1.348 . S
C994 H1042 0.929 . S
C995 C996 1.358 . S
C995 C997 1.356 . S
C995 H1043 0.930 1_455 S
C996 N993 1.279 . S
C996 C995 1.358 . S
C996 H999 0.930 . S
C997 C994 1.348 . S
C997 C995 1.356 . S
H998 C992 0.930 . S
H999 C996 0.930 . S
C1000 C1002 1.348 . S
C1000 C1003 1.356 . S
C1000 O1030 1.325 . S
N1001 C1004 1.314 . S
N1001 C1005 1.279 . S
C1002 C1000 1.348 . S
C1002 C1004 1.353 . S
C1002 H1044 0.929 . S
C1003 C1000 1.356 . S
C1003 C1005 1.358 . S
C1003 H1045 0.930 . S
C1004 N1001 1.314 . S
C1004 C1002 1.353 . S
C1004 H1046 0.930 . S
C1005 N1001 1.279 . S
C1005 C1003 1.358 . S
C1005 H1047 0.930 . S
C1006 C1007 1.348 . S
C1006 C1008 1.356 . S
C1006 O1031 1.325 . S
C1007 C1006 1.348 . S
C1007 C1009 1.353 . S
C1007 H1048 0.929 . S
C1008 C1006 1.356 . S
C1008 C1010 1.358 . S
C1008 H1049 0.930 . S
C1009 C1007 1.353 . S
C1009 N1011 1.314 . S
C1009 H1050 0.930 . S
C1010 C1008 1.358 . S
C1010 N1011 1.279 . S
C1010 H1051 0.930 . S
N1011 C1009 1.314 . S
N1011 C1010 1.279 . S
C1012 C1014 1.353 . S
C1012 N1015 1.314 . S
C1012 H1018 0.930 . S
C1013 N1015 1.279 . S
C1013 C1016 1.358 . S
C1013 H1019 0.930 . S
C1014 C1012 1.353 . S
C1014 C1017 1.348 . S
C1014 H1052 0.929 . S
N1015 Li970 1.990 . S
N1015 C1012 1.314 . S
N1015 C1013 1.279 . S
C1016 C1013 1.358 . S
C1016 C1017 1.356 . S
C1016 H1053 0.930 . S
C1017 C1014 1.348 . S
C1017 C1016 1.356 . S
H1018 C1012 0.930 . S
H1019 C1013 0.930 . S
C1020 N1021 1.314 . S
C1020 C1022 1.353 . S
C1020 H1026 0.930 . S
N1021 Li971 1.990 . S
N1021 C1020 1.314 . S
N1021 C1024 1.279 . S
C1022 C1020 1.353 . S
C1022 C1025 1.348 . S
C1022 H1054 0.929 . S
C1023 C1024 1.358 . S
C1023 C1025 1.356 . S
C1023 H1055 0.930 . S
C1024 N1021 1.279 . S
C1024 C1023 1.358 . S
C1024 H1027 0.930 . S
C1025 C1022 1.348 . S
C1025 C1023 1.356 . S
H1026 C1020 0.930 . S
H1027 C1024 0.930 . S
O1028 Li968 1.956 . S
O1028 Li969 1.970 . S
O1028 Li970 1.961 . S
O1028 C972 1.325 . S
O1029 Li968 1.970 . S
O1029 Li969 1.956 . S
O1029 Li971 1.961 . S
O1029 C978 1.325 . S
O1030 Li968 1.961 . S
O1030 Li970 1.956 . S
O1030 Li971 1.970 . S
O1030 C1000 1.325 . S
O1031 Li969 1.961 . S
O1031 Li970 1.970 . S
O1031 Li971 1.956 . S
O1031 C1006 1.325 . S
H1032 C974 0.929 . S
H1033 C975 0.930 . S
H1034 C976 0.930 . S
H1035 C977 0.930 . S
H1036 C979 0.930 1_655 S
H1037 C981 0.929 . S
H1038 C982 0.930 . S
H1039 C983 0.930 . S
H1040 C986 0.930 . S
H1041 C989 0.929 . S
H1042 C994 0.929 . S
H1043 C995 0.930 1_655 S
H1044 C1002 0.929 . S
H1045 C1003 0.930 . S
H1046 C1004 0.930 . S
H1047 C1005 0.930 . S
H1048 C1007 0.929 . S
H1049 C1008 0.930 . S
H1050 C1009 0.930 . S
H1051 C1010 0.930 . S
H1052 C1014 0.929 . S
H1053 C1016 0.930 . S
H1054 C1022 0.929 . S
H1055 C1023 0.930 . S
Li1056 N1073 1.990 . S
Li1056 O1116 1.956 . S
Li1056 O1117 1.970 . S
Li1056 O1118 1.961 . S
Li1057 N1081 1.990 . S
Li1057 O1116 1.970 . S
Li1057 O1117 1.956 . S
Li1057 O1119 1.961 . S
Li1058 N1103 1.967 1_655 S
Li1058 O1116 1.961 . S
Li1058 O1118 1.956 . S
Li1058 O1119 1.970 . S
Li1059 N1109 1.990 . S
Li1059 O1117 1.961 . S
Li1059 O1118 1.970 . S
Li1059 O1119 1.956 . S
C1060 C1062 1.348 . S
C1060 C1063 1.356 1_655 S
C1060 O1116 1.325 . S
N1061 C1064 1.314 1_455 S
N1061 C1065 1.279 . S
C1062 C1060 1.348 . S
C1062 C1064 1.353 . S
C1062 H1120 0.929 . S
C1063 C1060 1.356 1_455 S
C1063 C1065 1.358 . S
C1063 H1121 0.930 . S
C1064 N1061 1.314 1_655 S
C1064 C1062 1.353 . S
C1064 H1122 0.930 . S
C1065 N1061 1.279 . S
C1065 C1063 1.358 . S
C1065 H1123 0.930 . S
C1066 C1069 1.348 . S
C1066 C1070 1.356 . S
C1066 O1117 1.325 . S
C1067 N1068 1.279 . S
C1067 C1070 1.358 . S
C1067 H1124 0.930 . S
N1068 C1067 1.279 . S
N1068 C1071 1.314 . S
C1069 C1066 1.348 . S
C1069 C1071 1.353 . S
C1069 H1125 0.929 . S
C1070 C1066 1.356 . S
C1070 C1067 1.358 . S
C1070 H1126 0.930 . S
C1071 N1068 1.314 . S
C1071 C1069 1.353 . S
C1071 H1127 0.930 . S
C1072 N1073 1.314 . S
C1072 C1077 1.353 . S
C1072 H1078 0.930 . S
N1073 Li1056 1.990 . S
N1073 C1072 1.314 . S
N1073 C1075 1.279 . S
C1074 C1075 1.358 . S
C1074 C1076 1.356 . S
C1074 H1128 0.930 . S
C1075 N1073 1.279 . S
C1075 C1074 1.358 . S
C1075 H1079 0.930 . S
C1076 C1074 1.356 . S
C1076 C1077 1.348 . S
C1077 C1072 1.353 . S
C1077 C1076 1.348 . S
C1077 H1129 0.929 . S
H1078 C1072 0.930 . S
H1079 C1075 0.930 . S
C1080 N1081 1.314 . S
C1080 C1082 1.353 . S
C1080 H1086 0.930 . S
N1081 Li1057 1.990 . S
N1081 C1080 1.314 . S
N1081 C1084 1.279 . S
C1082 C1080 1.353 . S
C1082 C1085 1.348 . S
C1082 H1130 0.929 . S
C1083 C1084 1.358 . S
C1083 C1085 1.356 . S
C1083 H1131 0.930 . S
C1084 N1081 1.279 . S
C1084 C1083 1.358 . S
C1084 H1087 0.930 . S
C1085 C1082 1.348 . S
C1085 C1083 1.356 . S
H1086 C1080 0.930 . S
H1087 C1084 0.930 . S
C1088 C1090 1.348 . S
C1088 C1091 1.356 . S
C1088 O1118 1.325 . S
N1089 C1092 1.314 . S
N1089 C1093 1.279 . S
C1090 C1088 1.348 . S
C1090 C1092 1.353 . S
C1090 H1132 0.929 . S
C1091 C1088 1.356 . S
C1091 C1093 1.358 . S
C1091 H1133 0.930 . S
C1092 N1089 1.314 . S
C1092 C1090 1.353 . S
C1092 H1134 0.930 . S
C1093 N1089 1.279 . S
C1093 C1091 1.358 . S
C1093 H1135 0.930 1_655 S
C1094 C1095 1.348 . S
C1094 C1096 1.356 . S
C1094 O1119 1.325 . S
C1095 C1094 1.348 . S
C1095 C1097 1.353 . S
C1095 H1136 0.929 . S
C1096 C1094 1.356 . S
C1096 C1098 1.358 . S
C1096 H1137 0.930 . S
C1097 C1095 1.353 . S
C1097 N1099 1.314 . S
C1097 H1138 0.930 . S
C1098 C1096 1.358 . S
C1098 N1099 1.279 . S
C1098 H1139 0.930 . S
N1099 C1097 1.314 . S
N1099 C1098 1.279 . S
C1100 C1102 1.353 . S
C1100 N1103 1.328 . S
C1100 H1106 0.930 . S
C1101 N1103 1.291 . S
C1101 C1104 1.358 . S
C1101 H1107 0.930 . S
C1102 C1100 1.353 . S
C1102 C1105 1.348 . S
C1102 H1140 0.929 . S
N1103 Li1058 1.967 1_455 S
N1103 C1100 1.328 . S
N1103 C1101 1.291 . S
C1104 C1101 1.358 . S
C1104 C1105 1.356 . S
C1104 H1141 0.930 . S
C1105 C1102 1.348 . S
C1105 C1104 1.356 . S
H1106 C1100 0.930 . S
H1107 C1101 0.930 . S
C1108 N1109 1.314 . S
C1108 C1110 1.353 . S
C1108 H1114 0.930 . S
N1109 Li1059 1.990 . S
N1109 C1108 1.314 . S
N1109 C1112 1.279 . S
C1110 C1108 1.353 . S
C1110 C1113 1.348 . S
C1110 H1142 0.929 . S
C1111 C1112 1.358 . S
C1111 C1113 1.356 . S
C1111 H1143 0.930 . S
C1112 N1109 1.279 . S
C1112 C1111 1.358 . S
C1112 H1115 0.930 . S
C1113 C1110 1.348 . S
C1113 C1111 1.356 . S
H1114 C1108 0.930 . S
H1115 C1112 0.930 . S
O1116 Li1056 1.956 . S
O1116 Li1057 1.970 . S
O1116 Li1058 1.961 . S
O1116 C1060 1.325 . S
O1117 Li1056 1.970 . S
O1117 Li1057 1.956 . S
O1117 Li1059 1.961 . S
O1117 C1066 1.325 . S
O1118 Li1056 1.961 . S
O1118 Li1058 1.956 . S
O1118 Li1059 1.970 . S
O1118 C1088 1.325 . S
O1119 Li1057 1.961 . S
O1119 Li1058 1.970 . S
O1119 Li1059 1.956 . S
O1119 C1094 1.325 . S
H1120 C1062 0.929 . S
H1121 C1063 0.930 . S
H1122 C1064 0.930 . S
H1123 C1065 0.930 . S
H1124 C1067 0.930 . S
H1125 C1069 0.929 . S
H1126 C1070 0.930 . S
H1127 C1071 0.930 . S
H1128 C1074 0.930 . S
H1129 C1077 0.929 . S
H1130 C1082 0.929 . S
H1131 C1083 0.930 . S
H1132 C1090 0.929 . S
H1133 C1091 0.930 . S
H1134 C1092 0.930 . S
H1135 C1093 0.930 1_455 S
H1136 C1095 0.929 . S
H1137 C1096 0.930 . S
H1138 C1097 0.930 . S
H1139 C1098 0.930 . S
H1140 C1102 0.929 . S
H1141 C1104 0.930 . S
H1142 C1110 0.929 . S
H1143 C1111 0.930 . S
Li1144 N1161 1.990 . S
Li1144 O1204 1.956 . S
Li1144 O1205 1.970 . S
Li1144 O1206 1.961 . S
Li1145 N1169 1.990 . S
Li1145 O1204 1.970 . S
Li1145 O1205 1.956 . S
Li1145 O1207 1.961 . S
Li1146 N1191 1.990 . S
Li1146 O1204 1.961 . S
Li1146 O1206 1.956 . S
Li1146 O1207 1.970 . S
Li1147 N1197 1.990 . S
Li1147 O1205 1.961 . S
Li1147 O1206 1.970 . S
Li1147 O1207 1.956 . S
C1148 C1150 1.348 . S
C1148 C1151 1.356 . S
C1148 O1204 1.325 . S
N1149 C1152 1.326 . S
N1149 C1153 1.280 . S
C1150 C1148 1.348 . S
C1150 C1152 1.353 . S
C1150 H1208 0.929 . S
C1151 C1148 1.356 . S
C1151 C1153 1.358 . S
C1151 H1209 0.930 . S
C1152 N1149 1.326 . S
C1152 C1150 1.353 . S
C1152 H1210 0.930 . S
C1153 N1149 1.280 . S
C1153 C1151 1.358 . S
C1153 H1211 0.930 1_655 S
C1154 C1157 1.348 . S
C1154 C1158 1.356 . S
C1154 O1205 1.325 . S
C1155 N1156 1.279 . S
C1155 C1158 1.358 . S
C1155 H1212 0.930 . S
N1156 C1155 1.279 . S
N1156 C1159 1.314 . S
C1157 C1154 1.348 . S
C1157 C1159 1.353 . S
C1157 H1213 0.929 . S
C1158 C1154 1.356 . S
C1158 C1155 1.358 . S
C1158 H1214 0.930 . S
C1159 N1156 1.314 . S
C1159 C1157 1.353 . S
C1159 H1215 0.930 . S
C1160 N1161 1.314 . S
C1160 C1165 1.353 . S
C1160 H1166 0.930 . S
N1161 Li1144 1.990 . S
N1161 C1160 1.314 . S
N1161 C1163 1.279 . S
C1162 C1163 1.358 . S
C1162 C1164 1.356 . S
C1162 H1216 0.930 . S
C1163 N1161 1.279 . S
C1163 C1162 1.358 . S
C1163 H1167 0.930 . S
C1164 C1162 1.356 . S
C1164 C1165 1.348 . S
C1165 C1160 1.353 . S
C1165 C1164 1.348 . S
C1165 H1217 0.929 . S
H1166 C1160 0.930 . S
H1167 C1163 0.930 . S
C1168 N1169 1.314 . S
C1168 C1170 1.353 . S
C1168 H1174 0.930 . S
N1169 Li1145 1.990 . S
N1169 C1168 1.314 . S
N1169 C1172 1.279 . S
C1170 C1168 1.353 . S
C1170 C1173 1.348 . S
C1170 H1218 0.929 . S
C1171 C1172 1.358 . S
C1171 C1173 1.356 . S
C1171 H1219 0.930 . S
C1172 N1169 1.279 . S
C1172 C1171 1.358 . S
C1172 H1175 0.930 . S
C1173 C1170 1.348 . S
C1173 C1171 1.356 . S
H1174 C1168 0.930 . S
H1175 C1172 0.930 . S
C1176 C1178 1.348 . S
C1176 C1179 1.356 . S
C1176 O1206 1.325 . S
N1177 C1180 1.314 . S
N1177 C1181 1.279 . S
C1178 C1176 1.348 . S
C1178 C1180 1.353 . S
C1178 H1220 0.929 . S
C1179 C1176 1.356 . S
C1179 C1181 1.358 . S
C1179 H1221 0.930 . S
C1180 N1177 1.314 . S
C1180 C1178 1.353 . S
C1180 H1222 0.930 . S
C1181 N1177 1.279 . S
C1181 C1179 1.358 . S
C1181 H1223 0.930 . S
C1182 C1183 1.348 . S
C1182 C1184 1.356 . S
C1182 O1207 1.325 . S
C1183 C1182 1.348 . S
C1183 C1185 1.353 . S
C1183 H1224 0.929 . S
C1184 C1182 1.356 . S
C1184 C1186 1.358 . S
C1184 H1225 0.930 . S
C1185 C1183 1.353 . S
C1185 N1187 1.314 . S
C1185 H1226 0.930 . S
C1186 C1184 1.358 . S
C1186 N1187 1.279 . S
C1186 H1227 0.930 . S
N1187 C1185 1.314 . S
N1187 C1186 1.279 . S
C1188 C1190 1.353 . S
C1188 N1191 1.314 . S
C1188 H1194 0.930 . S
C1189 N1191 1.279 . S
C1189 C1192 1.358 . S
C1189 H1195 0.930 . S
C1190 C1188 1.353 . S
C1190 C1193 1.348 . S
C1190 H1228 0.929 . S
N1191 Li1146 1.990 . S
N1191 C1188 1.314 . S
N1191 C1189 1.279 . S
C1192 C1189 1.358 . S
C1192 C1193 1.356 . S
C1192 H1229 0.930 . S
C1193 C1190 1.348 . S
C1193 C1192 1.356 . S
H1194 C1188 0.930 . S
H1195 C1189 0.930 . S
C1196 N1197 1.314 . S
C1196 C1198 1.353 . S
C1196 H1202 0.930 . S
N1197 Li1147 1.990 . S
N1197 C1196 1.314 . S
N1197 C1200 1.279 . S
C1198 C1196 1.353 . S
C1198 C1201 1.348 . S
C1198 H1230 0.929 . S
C1199 C1200 1.358 . S
C1199 C1201 1.356 . S
C1199 H1231 0.930 . S
C1200 N1197 1.279 . S
C1200 C1199 1.358 . S
C1200 H1203 0.930 . S
C1201 C1198 1.348 . S
C1201 C1199 1.356 . S
H1202 C1196 0.930 . S
H1203 C1200 0.930 . S
O1204 Li1144 1.956 . S
O1204 Li1145 1.970 . S
O1204 Li1146 1.961 . S
O1204 C1148 1.325 . S
O1205 Li1144 1.970 . S
O1205 Li1145 1.956 . S
O1205 Li1147 1.961 . S
O1205 C1154 1.325 . S
O1206 Li1144 1.961 . S
O1206 Li1146 1.956 . S
O1206 Li1147 1.970 . S
O1206 C1176 1.325 . S
O1207 Li1145 1.961 . S
O1207 Li1146 1.970 . S
O1207 Li1147 1.956 . S
O1207 C1182 1.325 . S
H1208 C1150 0.929 . S
H1209 C1151 0.930 . S
H1210 C1152 0.930 . S
H1211 C1153 0.930 1_455 S
H1212 C1155 0.930 . S
H1213 C1157 0.929 . S
H1214 C1158 0.930 . S
H1215 C1159 0.930 . S
H1216 C1162 0.930 . S
H1217 C1165 0.929 . S
H1218 C1170 0.929 . S
H1219 C1171 0.930 . S
H1220 C1178 0.929 . S
H1221 C1179 0.930 . S
H1222 C1180 0.930 . S
H1223 C1181 0.930 . S
H1224 C1183 0.929 . S
H1225 C1184 0.930 . S
H1226 C1185 0.930 . S
H1227 C1186 0.930 . S
H1228 C1190 0.929 . S
H1229 C1192 0.930 . S
H1230 C1198 0.929 . S
H1231 C1199 0.930 . S
Li1232 N1249 1.967 1_655 S
Li1232 O1292 1.956 . S
Li1232 O1293 1.970 . S
Li1232 O1294 1.961 . S
Li1233 N1257 1.990 . S
Li1233 O1292 1.970 . S
Li1233 O1293 1.956 . S
Li1233 O1295 1.961 . S
Li1234 N1279 1.990 . S
Li1234 O1292 1.961 . S
Li1234 O1294 1.956 . S
Li1234 O1295 1.970 . S
Li1235 N1285 1.990 . S
Li1235 O1293 1.961 . S
Li1235 O1294 1.970 . S
Li1235 O1295 1.956 . S
C1236 C1238 1.348 . S
C1236 C1239 1.356 . S
C1236 O1292 1.325 . S
N1237 C1240 1.314 . S
N1237 C1241 1.279 . S
C1238 C1236 1.348 . S
C1238 C1240 1.353 . S
C1238 H1296 0.929 . S
C1239 C1236 1.356 . S
C1239 C1241 1.358 . S
C1239 H1297 0.930 . S
C1240 N1237 1.314 . S
C1240 C1238 1.353 . S
C1240 H1298 0.930 . S
C1241 N1237 1.279 . S
C1241 C1239 1.358 . S
C1241 H1299 0.930 1_655 S
C1242 C1245 1.348 . S
C1242 C1246 1.356 . S
C1242 O1293 1.325 . S
C1243 N1244 1.279 . S
C1243 C1246 1.358 . S
C1243 H1300 0.930 . S
N1244 C1243 1.279 . S
N1244 C1247 1.314 . S
C1245 C1242 1.348 . S
C1245 C1247 1.353 . S
C1245 H1301 0.929 . S
C1246 C1242 1.356 . S
C1246 C1243 1.358 . S
C1246 H1302 0.930 . S
C1247 N1244 1.314 . S
C1247 C1245 1.353 . S
C1247 H1303 0.930 . S
C1248 N1249 1.328 . S
C1248 C1253 1.353 . S
C1248 H1254 0.930 . S
N1249 Li1232 1.967 1_455 S
N1249 C1248 1.328 . S
N1249 C1251 1.291 . S
C1250 C1251 1.358 . S
C1250 C1252 1.356 . S
C1250 H1304 0.930 . S
C1251 N1249 1.291 . S
C1251 C1250 1.358 . S
C1251 H1255 0.930 . S
C1252 C1250 1.356 . S
C1252 C1253 1.348 . S
C1253 C1248 1.353 . S
C1253 C1252 1.348 . S
C1253 H1305 0.929 . S
H1254 C1248 0.930 . S
H1255 C1251 0.930 . S
C1256 N1257 1.314 . S
C1256 C1258 1.353 . S
C1256 H1262 0.930 . S
N1257 Li1233 1.990 . S
N1257 C1256 1.314 . S
N1257 C1260 1.279 . S
C1258 C1256 1.353 . S
C1258 C1261 1.348 . S
C1258 H1306 0.929 . S
C1259 C1260 1.358 . S
C1259 C1261 1.356 . S
C1259 H1307 0.930 . S
C1260 N1257 1.279 . S
C1260 C1259 1.358 . S
C1260 H1263 0.930 . S
C1261 C1258 1.348 . S
C1261 C1259 1.356 . S
H1262 C1256 0.930 . S
H1263 C1260 0.930 . S
C1264 C1266 1.348 . S
C1264 C1267 1.356 1_655 S
C1264 O1294 1.325 . S
N1265 C1268 1.314 1_455 S
N1265 C1269 1.279 . S
C1266 C1264 1.348 . S
C1266 C1268 1.353 . S
C1266 H1308 0.929 . S
C1267 C1264 1.356 1_455 S
C1267 C1269 1.358 . S
C1267 H1309 0.930 . S
C1268 N1265 1.314 1_655 S
C1268 C1266 1.353 . S
C1268 H1310 0.930 . S
C1269 N1265 1.279 . S
C1269 C1267 1.358 . S
C1269 H1311 0.930 . S
C1270 C1271 1.348 . S
C1270 C1272 1.356 . S
C1270 O1295 1.325 . S
C1271 C1270 1.348 . S
C1271 C1273 1.353 . S
C1271 H1312 0.929 . S
C1272 C1270 1.356 . S
C1272 C1274 1.358 . S
C1272 H1313 0.930 . S
C1273 C1271 1.353 . S
C1273 N1275 1.314 . S
C1273 H1314 0.930 . S
C1274 C1272 1.358 . S
C1274 N1275 1.279 . S
C1274 H1315 0.930 . S
N1275 C1273 1.314 . S
N1275 C1274 1.279 . S
C1276 C1278 1.353 . S
C1276 N1279 1.314 . S
C1276 H1282 0.930 . S
C1277 N1279 1.279 . S
C1277 C1280 1.358 . S
C1277 H1283 0.930 . S
C1278 C1276 1.353 . S
C1278 C1281 1.348 . S
C1278 H1316 0.929 . S
N1279 Li1234 1.990 . S
N1279 C1276 1.314 . S
N1279 C1277 1.279 . S
C1280 C1277 1.358 . S
C1280 C1281 1.356 . S
C1280 H1317 0.930 . S
C1281 C1278 1.348 . S
C1281 C1280 1.356 . S
H1282 C1276 0.930 . S
H1283 C1277 0.930 . S
C1284 N1285 1.314 . S
C1284 C1286 1.353 . S
C1284 H1290 0.930 . S
N1285 Li1235 1.990 . S
N1285 C1284 1.314 . S
N1285 C1288 1.279 . S
C1286 C1284 1.353 . S
C1286 C1289 1.348 . S
C1286 H1318 0.929 . S
C1287 C1288 1.358 . S
C1287 C1289 1.356 . S
C1287 H1319 0.930 . S
C1288 N1285 1.279 . S
C1288 C1287 1.358 . S
C1288 H1291 0.930 . S
C1289 C1286 1.348 . S
C1289 C1287 1.356 . S
H1290 C1284 0.930 . S
H1291 C1288 0.930 . S
O1292 Li1232 1.956 . S
O1292 Li1233 1.970 . S
O1292 Li1234 1.961 . S
O1292 C1236 1.325 . S
O1293 Li1232 1.970 . S
O1293 Li1233 1.956 . S
O1293 Li1235 1.961 . S
O1293 C1242 1.325 . S
O1294 Li1232 1.961 . S
O1294 Li1234 1.956 . S
O1294 Li1235 1.970 . S
O1294 C1264 1.325 . S
O1295 Li1233 1.961 . S
O1295 Li1234 1.970 . S
O1295 Li1235 1.956 . S
O1295 C1270 1.325 . S
H1296 C1238 0.929 . S
H1297 C1239 0.930 . S
H1298 C1240 0.930 . S
H1299 C1241 0.930 1_455 S
H1300 C1243 0.930 . S
H1301 C1245 0.929 . S
H1302 C1246 0.930 . S
H1303 C1247 0.930 . S
H1304 C1250 0.930 . S
H1305 C1253 0.929 . S
H1306 C1258 0.929 . S
H1307 C1259 0.930 . S
H1308 C1266 0.929 . S
H1309 C1267 0.930 . S
H1310 C1268 0.930 . S
H1311 C1269 0.930 . S
H1312 C1271 0.929 . S
H1313 C1272 0.930 . S
H1314 C1273 0.930 . S
H1315 C1274 0.930 . S
H1316 C1278 0.929 . S
H1317 C1280 0.930 . S
H1318 C1286 0.929 . S
H1319 C1287 0.930 . S
Li1320 N1337 1.990 . S
Li1320 O1380 1.956 . S
Li1320 O1381 1.970 . S
Li1320 O1382 1.961 . S
Li1321 N1345 1.990 . S
Li1321 O1380 1.970 . S
Li1321 O1381 1.956 . S
Li1321 O1383 1.961 . S
Li1322 N1367 1.990 . S
Li1322 O1380 1.961 . S
Li1322 O1382 1.956 . S
Li1322 O1383 1.970 . S
Li1323 N1373 1.990 . S
Li1323 O1381 1.961 . S
Li1323 O1382 1.970 . S
Li1323 O1383 1.956 . S
C1324 C1326 1.348 . S
C1324 C1327 1.356 . S
C1324 O1380 1.325 . S
N1325 C1328 1.314 . S
N1325 C1329 1.279 . S
C1326 C1324 1.348 . S
C1326 C1328 1.353 . S
C1326 H1384 0.929 . S
C1327 C1324 1.356 . S
C1327 C1329 1.358 . S
C1327 H1385 0.930 . S
C1328 N1325 1.314 . S
C1328 C1326 1.353 . S
C1328 H1386 0.930 . S
C1329 N1325 1.279 . S
C1329 C1327 1.358 . S
C1329 H1387 0.930 . S
C1330 C1333 1.348 . S
C1330 C1334 1.356 . S
C1330 O1381 1.325 . S
C1331 N1332 1.279 . S
C1331 C1334 1.358 . S
C1331 H1388 0.930 . S
N1332 C1331 1.279 . S
N1332 C1335 1.314 . S
C1333 C1330 1.348 . S
C1333 C1335 1.353 . S
C1333 H1389 0.929 . S
C1334 C1330 1.356 . S
C1334 C1331 1.358 . S
C1334 H1390 0.930 . S
C1335 N1332 1.314 . S
C1335 C1333 1.353 . S
C1335 H1391 0.930 . S
C1336 N1337 1.314 . S
C1336 C1341 1.353 . S
C1336 H1342 0.930 . S
N1337 Li1320 1.990 . S
N1337 C1336 1.314 . S
N1337 C1339 1.279 . S
C1338 C1339 1.358 . S
C1338 C1340 1.356 . S
C1338 H1392 0.930 . S
C1339 N1337 1.279 . S
C1339 C1338 1.358 . S
C1339 H1343 0.930 . S
C1340 C1338 1.356 . S
C1340 C1341 1.348 . S
C1341 C1336 1.353 . S
C1341 C1340 1.348 . S
C1341 H1393 0.929 . S
H1342 C1336 0.930 . S
H1343 C1339 0.930 . S
C1344 N1345 1.314 . S
C1344 C1346 1.353 . S
C1344 H1350 0.930 . S
N1345 Li1321 1.990 . S
N1345 C1344 1.314 . S
N1345 C1348 1.279 . S
C1346 C1344 1.353 . S
C1346 C1349 1.348 . S
C1346 H1394 0.929 . S
C1347 C1348 1.358 . S
C1347 C1349 1.356 . S
C1347 H1395 0.930 . S
C1348 N1345 1.279 . S
C1348 C1347 1.358 . S
C1348 H1351 0.930 . S
C1349 C1346 1.348 . S
C1349 C1347 1.356 . S
H1350 C1344 0.930 . S
H1351 C1348 0.930 . S
C1352 C1354 1.348 . S
C1352 C1355 1.356 . S
C1352 O1382 1.325 . S
N1353 C1356 1.325 . S
N1353 C1357 1.280 . S
C1354 C1352 1.348 . S
C1354 C1356 1.353 . S
C1354 H1396 0.929 . S
C1355 C1352 1.356 . S
C1355 C1357 1.358 . S
C1355 H1397 0.930 . S
C1356 N1353 1.325 . S
C1356 C1354 1.353 . S
C1356 H1398 0.930 . S
C1357 N1353 1.280 . S
C1357 C1355 1.358 . S
C1357 H1399 0.930 1_655 S
C1358 C1359 1.348 . S
C1358 C1360 1.356 . S
C1358 O1383 1.325 . S
C1359 C1358 1.348 . S
C1359 C1361 1.353 . S
C1359 H1400 0.929 . S
C1360 C1358 1.356 . S
C1360 C1362 1.358 . S
C1360 H1401 0.930 . S
C1361 C1359 1.353 . S
C1361 N1363 1.314 . S
C1361 H1402 0.930 . S
C1362 C1360 1.358 . S
C1362 N1363 1.279 . S
C1362 H1403 0.930 . S
N1363 C1361 1.314 . S
N1363 C1362 1.279 . S
C1364 C1366 1.353 . S
C1364 N1367 1.314 . S
C1364 H1370 0.930 . S
C1365 N1367 1.279 . S
C1365 C1368 1.358 . S
C1365 H1371 0.930 . S
C1366 C1364 1.353 . S
C1366 C1369 1.348 . S
C1366 H1404 0.929 . S
N1367 Li1322 1.990 . S
N1367 C1364 1.314 . S
N1367 C1365 1.279 . S
C1368 C1365 1.358 . S
C1368 C1369 1.356 . S
C1368 H1405 0.930 . S
C1369 C1366 1.348 . S
C1369 C1368 1.356 . S
H1370 C1364 0.930 . S
H1371 C1365 0.930 . S
C1372 N1373 1.314 . S
C1372 C1374 1.353 . S
C1372 H1378 0.930 . S
N1373 Li1323 1.990 . S
N1373 C1372 1.314 . S
N1373 C1376 1.279 . S
C1374 C1372 1.353 . S
C1374 C1377 1.348 . S
C1374 H1406 0.929 . S
C1375 C1376 1.358 . S
C1375 C1377 1.356 . S
C1375 H1407 0.930 . S
C1376 N1373 1.279 . S
C1376 C1375 1.358 . S
C1376 H1379 0.930 . S
C1377 C1374 1.348 . S
C1377 C1375 1.356 . S
H1378 C1372 0.930 . S
H1379 C1376 0.930 . S
O1380 Li1320 1.956 . S
O1380 Li1321 1.970 . S
O1380 Li1322 1.961 . S
O1380 C1324 1.325 . S
O1381 Li1320 1.970 . S
O1381 Li1321 1.956 . S
O1381 Li1323 1.961 . S
O1381 C1330 1.325 . S
O1382 Li1320 1.961 . S
O1382 Li1322 1.956 . S
O1382 Li1323 1.970 . S
O1382 C1352 1.325 . S
O1383 Li1321 1.961 . S
O1383 Li1322 1.970 . S
O1383 Li1323 1.956 . S
O1383 C1358 1.325 . S
H1384 C1326 0.929 . S
H1385 C1327 0.930 . S
H1386 C1328 0.930 . S
H1387 C1329 0.930 . S
H1388 C1331 0.930 . S
H1389 C1333 0.929 . S
H1390 C1334 0.930 . S
H1391 C1335 0.930 . S
H1392 C1338 0.930 . S
H1393 C1341 0.929 . S
H1394 C1346 0.929 . S
H1395 C1347 0.930 . S
H1396 C1354 0.929 . S
H1397 C1355 0.930 . S
H1398 C1356 0.930 . S
H1399 C1357 0.930 1_455 S
H1400 C1359 0.929 . S
H1401 C1360 0.930 . S
H1402 C1361 0.930 . S
H1403 C1362 0.930 . S
H1404 C1366 0.929 . S
H1405 C1368 0.930 . S
H1406 C1374 0.929 . S
H1407 C1375 0.930 . S
Li1408 N1425 1.990 . S
Li1408 O1468 1.956 . S
Li1408 O1469 1.970 . S
Li1408 O1470 1.961 . S
Li1409 N1433 1.990 . S
Li1409 O1468 1.970 . S
Li1409 O1469 1.956 . S
Li1409 O1471 1.961 . S
Li1410 N1455 1.990 . S
Li1410 O1468 1.961 . S
Li1410 O1470 1.956 . S
Li1410 O1471 1.970 . S
Li1411 N1461 1.990 . S
Li1411 O1469 1.961 . S
Li1411 O1470 1.970 . S
Li1411 O1471 1.956 . S
C1412 C1414 1.348 . S
C1412 C1415 1.356 . S
C1412 O1468 1.325 . S
N1413 C1416 1.314 . S
N1413 C1417 1.279 . S
C1414 C1412 1.348 . S
C1414 C1416 1.353 . S
C1414 H1472 0.929 . S
C1415 C1412 1.356 . S
C1415 C1417 1.358 . S
C1415 H1473 0.930 . S
C1416 N1413 1.314 . S
C1416 C1414 1.353 . S
C1416 H1474 0.930 . S
C1417 N1413 1.279 . S
C1417 C1415 1.358 . S
C1417 H1475 0.930 . S
C1418 C1421 1.348 . S
C1418 C1422 1.356 . S
C1418 O1469 1.325 . S
C1419 N1420 1.279 . S
C1419 C1422 1.358 . S
C1419 H1476 0.930 . S
N1420 C1419 1.279 . S
N1420 C1423 1.314 . S
C1421 C1418 1.348 . S
C1421 C1423 1.353 . S
C1421 H1477 0.929 . S
C1422 C1418 1.356 . S
C1422 C1419 1.358 . S
C1422 H1478 0.930 . S
C1423 N1420 1.314 . S
C1423 C1421 1.353 . S
C1423 H1479 0.930 . S
C1424 N1425 1.314 . S
C1424 C1429 1.353 . S
C1424 H1430 0.930 . S
N1425 Li1408 1.990 . S
N1425 C1424 1.314 . S
N1425 C1427 1.279 . S
C1426 C1427 1.358 . S
C1426 C1428 1.356 . S
C1426 H1480 0.930 . S
C1427 N1425 1.279 . S
C1427 C1426 1.358 . S
C1427 H1431 0.930 . S
C1428 C1426 1.356 . S
C1428 C1429 1.348 . S
C1429 C1424 1.353 . S
C1429 C1428 1.348 . S
C1429 H1481 0.929 . S
H1430 C1424 0.930 . S
H1431 C1427 0.930 . S
C1432 N1433 1.314 . S
C1432 C1434 1.353 . S
C1432 H1438 0.930 . S
N1433 Li1409 1.990 . S
N1433 C1432 1.314 . S
N1433 C1436 1.279 . S
C1434 C1432 1.353 . S
C1434 C1437 1.348 . S
C1434 H1482 0.929 . S
C1435 C1436 1.358 . S
C1435 C1437 1.356 . S
C1435 H1483 0.930 . S
C1436 N1433 1.279 . S
C1436 C1435 1.358 . S
C1436 H1439 0.930 . S
C1437 C1434 1.348 . S
C1437 C1435 1.356 . S
H1438 C1432 0.930 . S
H1439 C1436 0.930 . S
C1440 C1442 1.348 . S
C1440 C1443 1.356 . S
C1440 O1470 1.325 . S
N1441 C1444 1.314 . S
N1441 C1445 1.279 . S
C1442 C1440 1.348 . S
C1442 C1444 1.353 . S
C1442 H1484 0.929 . S
C1443 C1440 1.356 . S
C1443 C1445 1.358 . S
C1443 H1485 0.930 . S
C1444 N1441 1.314 . S
C1444 C1442 1.353 . S
C1444 H1486 0.930 . S
C1445 N1441 1.279 . S
C1445 C1443 1.358 . S
C1445 H1487 0.930 . S
C1446 C1447 1.348 . S
C1446 C1448 1.356 . S
C1446 O1471 1.325 . S
C1447 C1446 1.348 . S
C1447 C1449 1.353 . S
C1447 H1488 0.929 . S
C1448 C1446 1.356 . S
C1448 C1450 1.358 . S
C1448 H1489 0.930 . S
C1449 C1447 1.353 . S
C1449 N1451 1.314 . S
C1449 H1490 0.930 . S
C1450 C1448 1.358 . S
C1450 N1451 1.279 . S
C1450 H1491 0.930 . S
N1451 C1449 1.314 . S
N1451 C1450 1.279 . S
C1452 C1454 1.353 . S
C1452 N1455 1.314 . S
C1452 H1458 0.930 . S
C1453 N1455 1.279 . S
C1453 C1456 1.358 . S
C1453 H1459 0.930 . S
C1454 C1452 1.353 . S
C1454 C1457 1.348 . S
C1454 H1492 0.929 . S
N1455 Li1410 1.990 . S
N1455 C1452 1.314 . S
N1455 C1453 1.279 . S
C1456 C1453 1.358 . S
C1456 C1457 1.356 . S
C1456 H1493 0.930 . S
C1457 C1454 1.348 . S
C1457 C1456 1.356 . S
H1458 C1452 0.930 . S
H1459 C1453 0.930 . S
C1460 N1461 1.314 . S
C1460 C1462 1.353 . S
C1460 H1466 0.930 . S
N1461 Li1411 1.990 . S
N1461 C1460 1.314 . S
N1461 C1464 1.279 . S
C1462 C1460 1.353 . S
C1462 C1465 1.348 . S
C1462 H1494 0.929 . S
C1463 C1464 1.358 . S
C1463 C1465 1.356 . S
C1463 H1495 0.930 . S
C1464 N1461 1.279 . S
C1464 C1463 1.358 . S
C1464 H1467 0.930 . S
C1465 C1462 1.348 . S
C1465 C1463 1.356 . S
H1466 C1460 0.930 . S
H1467 C1464 0.930 . S
O1468 Li1408 1.956 . S
O1468 Li1409 1.970 . S
O1468 Li1410 1.961 . S
O1468 C1412 1.325 . S
O1469 Li1408 1.970 . S
O1469 Li1409 1.956 . S
O1469 Li1411 1.961 . S
O1469 C1418 1.325 . S
O1470 Li1408 1.961 . S
O1470 Li1410 1.956 . S
O1470 Li1411 1.970 . S
O1470 C1440 1.325 . S
O1471 Li1409 1.961 . S
O1471 Li1410 1.970 . S
O1471 Li1411 1.956 . S
O1471 C1446 1.325 . S
H1472 C1414 0.929 . S
H1473 C1415 0.930 . S
H1474 C1416 0.930 . S
H1475 C1417 0.930 . S
H1476 C1419 0.930 . S
H1477 C1421 0.929 . S
H1478 C1422 0.930 . S
H1479 C1423 0.930 . S
H1480 C1426 0.930 . S
H1481 C1429 0.929 . S
H1482 C1434 0.929 . S
H1483 C1435 0.930 . S
H1484 C1442 0.929 . S
H1485 C1443 0.930 . S
H1486 C1444 0.930 . S
H1487 C1445 0.930 . S
H1488 C1447 0.929 . S
H1489 C1448 0.930 . S
H1490 C1449 0.930 . S
H1491 C1450 0.930 . S
H1492 C1454 0.929 . S
H1493 C1456 0.930 . S
H1494 C1462 0.929 . S
H1495 C1463 0.930 . S
Li1496 N1513 1.990 . S
Li1496 O1556 1.956 . S
Li1496 O1557 1.970 . S
Li1496 O1558 1.961 . S
Li1497 N1521 1.990 . S
Li1497 O1556 1.970 . S
Li1497 O1557 1.956 . S
Li1497 O1559 1.961 . S
Li1498 N1543 1.990 . S
Li1498 O1556 1.961 . S
Li1498 O1558 1.956 . S
Li1498 O1559 1.970 . S
Li1499 N1549 1.990 . S
Li1499 O1557 1.961 . S
Li1499 O1558 1.970 . S
Li1499 O1559 1.956 . S
C1500 C1502 1.348 . S
C1500 C1503 1.356 . S
C1500 O1556 1.325 . S
N1501 C1504 1.314 . S
N1501 C1505 1.279 . S
C1502 C1500 1.348 . S
C1502 C1504 1.353 . S
C1502 H1560 0.929 . S
C1503 C1500 1.356 . S
C1503 C1505 1.358 . S
C1503 H1561 0.930 . S
C1504 N1501 1.314 . S
C1504 C1502 1.353 . S
C1504 H1562 0.930 . S
C1505 N1501 1.279 . S
C1505 C1503 1.358 . S
C1505 H1563 0.930 . S
C1506 C1509 1.348 . S
C1506 C1510 1.356 . S
C1506 O1557 1.325 . S
C1507 N1508 1.279 . S
C1507 C1510 1.358 . S
C1507 H1564 0.930 . S
N1508 C1507 1.279 . S
N1508 C1511 1.314 . S
C1509 C1506 1.348 . S
C1509 C1511 1.353 . S
C1509 H1565 0.929 . S
C1510 C1506 1.356 . S
C1510 C1507 1.358 . S
C1510 H1566 0.930 . S
C1511 N1508 1.314 . S
C1511 C1509 1.353 . S
C1511 H1567 0.930 . S
C1512 N1513 1.314 . S
C1512 C1517 1.353 . S
C1512 H1518 0.930 . S
N1513 Li1496 1.990 . S
N1513 C1512 1.314 . S
N1513 C1515 1.279 . S
C1514 C1515 1.358 . S
C1514 C1516 1.356 . S
C1514 H1568 0.930 . S
C1515 N1513 1.279 . S
C1515 C1514 1.358 . S
C1515 H1519 0.930 . S
C1516 C1514 1.356 . S
C1516 C1517 1.348 . S
C1517 C1512 1.353 . S
C1517 C1516 1.348 . S
C1517 H1569 0.929 . S
H1518 C1512 0.930 . S
H1519 C1515 0.930 . S
C1520 N1521 1.314 . S
C1520 C1522 1.353 . S
C1520 H1526 0.930 . S
N1521 Li1497 1.990 . S
N1521 C1520 1.314 . S
N1521 C1524 1.279 . S
C1522 C1520 1.353 . S
C1522 C1525 1.348 . S
C1522 H1570 0.929 . S
C1523 C1524 1.358 . S
C1523 C1525 1.356 . S
C1523 H1571 0.930 . S
C1524 N1521 1.279 . S
C1524 C1523 1.358 . S
C1524 H1527 0.930 . S
C1525 C1522 1.348 . S
C1525 C1523 1.356 . S
H1526 C1520 0.930 . S
H1527 C1524 0.930 . S
C1528 C1530 1.348 . S
C1528 C1531 1.356 . S
C1528 O1558 1.325 . S
N1529 C1532 1.314 . S
N1529 C1533 1.279 . S
C1530 C1528 1.348 . S
C1530 C1532 1.353 . S
C1530 H1572 0.929 . S
C1531 C1528 1.356 . S
C1531 C1533 1.358 . S
C1531 H1573 0.930 . S
C1532 N1529 1.314 . S
C1532 C1530 1.353 . S
C1532 H1574 0.930 . S
C1533 N1529 1.279 . S
C1533 C1531 1.358 . S
C1533 H1575 0.930 . S
C1534 C1535 1.348 . S
C1534 C1536 1.356 . S
C1534 O1559 1.325 . S
C1535 C1534 1.348 . S
C1535 C1537 1.353 . S
C1535 H1576 0.929 . S
C1536 C1534 1.356 . S
C1536 C1538 1.358 . S
C1536 H1577 0.930 . S
C1537 C1535 1.353 . S
C1537 N1539 1.314 . S
C1537 H1578 0.930 . S
C1538 C1536 1.358 . S
C1538 N1539 1.279 . S
C1538 H1579 0.930 . S
N1539 C1537 1.314 . S
N1539 C1538 1.279 . S
C1540 C1542 1.353 . S
C1540 N1543 1.314 . S
C1540 H1546 0.930 . S
C1541 N1543 1.279 . S
C1541 C1544 1.358 . S
C1541 H1547 0.930 . S
C1542 C1540 1.353 . S
C1542 C1545 1.348 . S
C1542 H1580 0.929 . S
N1543 Li1498 1.990 . S
N1543 C1540 1.314 . S
N1543 C1541 1.279 . S
C1544 C1541 1.358 . S
C1544 C1545 1.356 . S
C1544 H1581 0.930 . S
C1545 C1542 1.348 . S
C1545 C1544 1.356 . S
H1546 C1540 0.930 . S
H1547 C1541 0.930 . S
C1548 N1549 1.314 . S
C1548 C1550 1.353 . S
C1548 H1554 0.930 . S
N1549 Li1499 1.990 . S
N1549 C1548 1.314 . S
N1549 C1552 1.279 . S
C1550 C1548 1.353 . S
C1550 C1553 1.348 . S
C1550 H1582 0.929 . S
C1551 C1552 1.358 . S
C1551 C1553 1.356 . S
C1551 H1583 0.930 . S
C1552 N1549 1.279 . S
C1552 C1551 1.358 . S
C1552 H1555 0.930 . S
C1553 C1550 1.348 . S
C1553 C1551 1.356 . S
H1554 C1548 0.930 . S
H1555 C1552 0.930 . S
O1556 Li1496 1.956 . S
O1556 Li1497 1.970 . S
O1556 Li1498 1.961 . S
O1556 C1500 1.325 . S
O1557 Li1496 1.970 . S
O1557 Li1497 1.956 . S
O1557 Li1499 1.961 . S
O1557 C1506 1.325 . S
O1558 Li1496 1.961 . S
O1558 Li1498 1.956 . S
O1558 Li1499 1.970 . S
O1558 C1528 1.325 . S
O1559 Li1497 1.961 . S
O1559 Li1498 1.970 . S
O1559 Li1499 1.956 . S
O1559 C1534 1.325 . S
H1560 C1502 0.929 . S
H1561 C1503 0.930 . S
H1562 C1504 0.930 . S
H1563 C1505 0.930 . S
H1564 C1507 0.930 . S
H1565 C1509 0.929 . S
H1566 C1510 0.930 . S
H1567 C1511 0.930 . S
H1568 C1514 0.930 . S
H1569 C1517 0.929 . S
H1570 C1522 0.929 . S
H1571 C1523 0.930 . S
H1572 C1530 0.929 . S
H1573 C1531 0.930 . S
H1574 C1532 0.930 . S
H1575 C1533 0.930 . S
H1576 C1535 0.929 . S
H1577 C1536 0.930 . S
H1578 C1537 0.930 . S
H1579 C1538 0.930 . S
H1580 C1542 0.929 . S
H1581 C1544 0.930 . S
H1582 C1550 0.929 . S
H1583 C1551 0.930 . S
Li1584 N1601 1.990 . S
Li1584 O1644 1.956 . S
Li1584 O1645 1.970 . S
Li1584 O1646 1.961 . S
Li1585 N1609 1.990 . S
Li1585 O1644 1.970 . S
Li1585 O1645 1.956 . S
Li1585 O1647 1.961 . S
Li1586 N1631 1.990 . S
Li1586 O1644 1.961 . S
Li1586 O1646 1.956 . S
Li1586 O1647 1.970 . S
Li1587 N1637 1.990 . S
Li1587 O1645 1.961 . S
Li1587 O1646 1.970 . S
Li1587 O1647 1.956 . S
C1588 C1590 1.348 . S
C1588 C1591 1.356 . S
C1588 O1644 1.325 . S
N1589 C1592 1.314 . S
N1589 C1593 1.279 . S
C1590 C1588 1.348 . S
C1590 C1592 1.353 . S
C1590 H1648 0.929 . S
C1591 C1588 1.356 . S
C1591 C1593 1.358 . S
C1591 H1649 0.930 . S
C1592 N1589 1.314 . S
C1592 C1590 1.353 . S
C1592 H1650 0.930 . S
C1593 N1589 1.279 . S
C1593 C1591 1.358 . S
C1593 H1651 0.930 . S
C1594 C1597 1.348 . S
C1594 C1598 1.356 . S
C1594 O1645 1.325 . S
C1595 N1596 1.279 . S
C1595 C1598 1.358 . S
C1595 H1652 0.930 . S
N1596 C1595 1.279 . S
N1596 C1599 1.314 . S
C1597 C1594 1.348 . S
C1597 C1599 1.353 . S
C1597 H1653 0.929 . S
C1598 C1594 1.356 . S
C1598 C1595 1.358 . S
C1598 H1654 0.930 . S
C1599 N1596 1.314 . S
C1599 C1597 1.353 . S
C1599 H1655 0.930 . S
C1600 N1601 1.314 . S
C1600 C1605 1.353 . S
C1600 H1606 0.930 . S
N1601 Li1584 1.990 . S
N1601 C1600 1.314 . S
N1601 C1603 1.279 . S
C1602 C1603 1.358 . S
C1602 C1604 1.356 . S
C1602 H1656 0.930 . S
C1603 N1601 1.279 . S
C1603 C1602 1.358 . S
C1603 H1607 0.930 . S
C1604 C1602 1.356 . S
C1604 C1605 1.348 . S
C1605 C1600 1.353 . S
C1605 C1604 1.348 . S
C1605 H1657 0.929 . S
H1606 C1600 0.930 . S
H1607 C1603 0.930 . S
C1608 N1609 1.314 . S
C1608 C1610 1.353 . S
C1608 H1614 0.930 . S
N1609 Li1585 1.990 . S
N1609 C1608 1.314 . S
N1609 C1612 1.279 . S
C1610 C1608 1.353 . S
C1610 C1613 1.348 . S
C1610 H1658 0.929 . S
C1611 C1612 1.358 . S
C1611 C1613 1.356 . S
C1611 H1659 0.930 . S
C1612 N1609 1.279 . S
C1612 C1611 1.358 . S
C1612 H1615 0.930 . S
C1613 C1610 1.348 . S
C1613 C1611 1.356 . S
H1614 C1608 0.930 . S
H1615 C1612 0.930 . S
C1616 C1618 1.348 . S
C1616 C1619 1.356 . S
C1616 O1646 1.325 . S
N1617 C1620 1.314 . S
N1617 C1621 1.279 . S
C1618 C1616 1.348 . S
C1618 C1620 1.353 . S
C1618 H1660 0.929 . S
C1619 C1616 1.356 . S
C1619 C1621 1.358 . S
C1619 H1661 0.930 . S
C1620 N1617 1.314 . S
C1620 C1618 1.353 . S
C1620 H1662 0.930 . S
C1621 N1617 1.279 . S
C1621 C1619 1.358 . S
C1621 H1663 0.930 . S
C1622 C1623 1.348 . S
C1622 C1624 1.356 . S
C1622 O1647 1.325 . S
C1623 C1622 1.348 . S
C1623 C1625 1.353 . S
C1623 H1664 0.929 . S
C1624 C1622 1.356 . S
C1624 C1626 1.358 . S
C1624 H1665 0.930 . S
C1625 C1623 1.353 . S
C1625 N1627 1.314 . S
C1625 H1666 0.930 . S
C1626 C1624 1.358 . S
C1626 N1627 1.279 . S
C1626 H1667 0.930 . S
N1627 C1625 1.314 . S
N1627 C1626 1.279 . S
C1628 C1630 1.353 . S
C1628 N1631 1.314 . S
C1628 H1634 0.930 . S
C1629 N1631 1.279 . S
C1629 C1632 1.358 . S
C1629 H1635 0.930 . S
C1630 C1628 1.353 . S
C1630 C1633 1.348 . S
C1630 H1668 0.929 . S
N1631 Li1586 1.990 . S
N1631 C1628 1.314 . S
N1631 C1629 1.279 . S
C1632 C1629 1.358 . S
C1632 C1633 1.356 . S
C1632 H1669 0.930 . S
C1633 C1630 1.348 . S
C1633 C1632 1.356 . S
H1634 C1628 0.930 . S
H1635 C1629 0.930 . S
C1636 N1637 1.314 . S
C1636 C1638 1.353 . S
C1636 H1642 0.930 . S
N1637 Li1587 1.990 . S
N1637 C1636 1.314 . S
N1637 C1640 1.279 . S
C1638 C1636 1.353 . S
C1638 C1641 1.348 . S
C1638 H1670 0.929 . S
C1639 C1640 1.358 . S
C1639 C1641 1.356 . S
C1639 H1671 0.930 . S
C1640 N1637 1.279 . S
C1640 C1639 1.358 . S
C1640 H1643 0.930 . S
C1641 C1638 1.348 . S
C1641 C1639 1.356 . S
H1642 C1636 0.930 . S
H1643 C1640 0.930 . S
O1644 Li1584 1.956 . S
O1644 Li1585 1.970 . S
O1644 Li1586 1.961 . S
O1644 C1588 1.325 . S
O1645 Li1584 1.970 . S
O1645 Li1585 1.956 . S
O1645 Li1587 1.961 . S
O1645 C1594 1.325 . S
O1646 Li1584 1.961 . S
O1646 Li1586 1.956 . S
O1646 Li1587 1.970 . S
O1646 C1616 1.325 . S
O1647 Li1585 1.961 . S
O1647 Li1586 1.970 . S
O1647 Li1587 1.956 . S
O1647 C1622 1.325 . S
H1648 C1590 0.929 . S
H1649 C1591 0.930 . S
H1650 C1592 0.930 . S
H1651 C1593 0.930 . S
H1652 C1595 0.930 . S
H1653 C1597 0.929 . S
H1654 C1598 0.930 . S
H1655 C1599 0.930 . S
H1656 C1602 0.930 . S
H1657 C1605 0.929 . S
H1658 C1610 0.929 . S
H1659 C1611 0.930 . S
H1660 C1618 0.929 . S
H1661 C1619 0.930 . S
H1662 C1620 0.930 . S
H1663 C1621 0.930 . S
H1664 C1623 0.929 . S
H1665 C1624 0.930 . S
H1666 C1625 0.930 . S
H1667 C1626 0.930 . S
H1668 C1630 0.929 . S
H1669 C1632 0.930 . S
H1670 C1638 0.929 . S
H1671 C1639 0.930 . S
Li1672 N1689 1.990 . S
Li1672 O1732 1.956 . S
Li1672 O1733 1.970 . S
Li1672 O1734 1.961 . S
Li1673 N1697 1.990 . S
Li1673 O1732 1.970 . S
Li1673 O1733 1.956 . S
Li1673 O1735 1.961 . S
Li1674 N1719 1.990 . S
Li1674 O1732 1.961 . S
Li1674 O1734 1.956 . S
Li1674 O1735 1.970 . S
Li1675 N1725 1.990 . S
Li1675 O1733 1.961 . S
Li1675 O1734 1.970 . S
Li1675 O1735 1.956 . S
C1676 C1678 1.348 . S
C1676 C1679 1.356 . S
C1676 O1732 1.325 . S
N1677 C1680 1.314 . S
N1677 C1681 1.279 . S
C1678 C1676 1.348 . S
C1678 C1680 1.353 . S
C1678 H1736 0.929 . S
C1679 C1676 1.356 . S
C1679 C1681 1.358 . S
C1679 H1737 0.930 . S
C1680 N1677 1.314 . S
C1680 C1678 1.353 . S
C1680 H1738 0.930 . S
C1681 N1677 1.279 . S
C1681 C1679 1.358 . S
C1681 H1739 0.930 . S
C1682 C1685 1.348 . S
C1682 C1686 1.356 . S
C1682 O1733 1.325 . S
C1683 N1684 1.279 . S
C1683 C1686 1.358 . S
C1683 H1740 0.930 . S
N1684 C1683 1.279 . S
N1684 C1687 1.314 . S
C1685 C1682 1.348 . S
C1685 C1687 1.353 . S
C1685 H1741 0.929 . S
C1686 C1682 1.356 . S
C1686 C1683 1.358 . S
C1686 H1742 0.930 . S
C1687 N1684 1.314 . S
C1687 C1685 1.353 . S
C1687 H1743 0.930 . S
C1688 N1689 1.314 . S
C1688 C1693 1.353 . S
C1688 H1694 0.930 . S
N1689 Li1672 1.990 . S
N1689 C1688 1.314 . S
N1689 C1691 1.279 . S
C1690 C1691 1.358 . S
C1690 C1692 1.356 . S
C1690 H1744 0.930 . S
C1691 N1689 1.279 . S
C1691 C1690 1.358 . S
C1691 H1695 0.930 . S
C1692 C1690 1.356 . S
C1692 C1693 1.348 . S
C1693 C1688 1.353 . S
C1693 C1692 1.348 . S
C1693 H1745 0.929 . S
H1694 C1688 0.930 . S
H1695 C1691 0.930 . S
C1696 N1697 1.314 . S
C1696 C1698 1.353 . S
C1696 H1702 0.930 . S
N1697 Li1673 1.990 . S
N1697 C1696 1.314 . S
N1697 C1700 1.279 . S
C1698 C1696 1.353 . S
C1698 C1701 1.348 . S
C1698 H1746 0.929 . S
C1699 C1700 1.358 . S
C1699 C1701 1.356 . S
C1699 H1747 0.930 . S
C1700 N1697 1.279 . S
C1700 C1699 1.358 . S
C1700 H1703 0.930 . S
C1701 C1698 1.348 . S
C1701 C1699 1.356 . S
H1702 C1696 0.930 . S
H1703 C1700 0.930 . S
C1704 C1706 1.348 . S
C1704 C1707 1.356 . S
C1704 O1734 1.325 . S
N1705 C1708 1.314 . S
N1705 C1709 1.279 . S
C1706 C1704 1.348 . S
C1706 C1708 1.353 . S
C1706 H1748 0.929 . S
C1707 C1704 1.356 . S
C1707 C1709 1.358 . S
C1707 H1749 0.930 . S
C1708 N1705 1.314 . S
C1708 C1706 1.353 . S
C1708 H1750 0.930 . S
C1709 N1705 1.279 . S
C1709 C1707 1.358 . S
C1709 H1751 0.930 . S
C1710 C1711 1.348 . S
C1710 C1712 1.356 . S
C1710 O1735 1.325 . S
C1711 C1710 1.348 . S
C1711 C1713 1.353 . S
C1711 H1752 0.929 . S
C1712 C1710 1.356 . S
C1712 C1714 1.358 . S
C1712 H1753 0.930 . S
C1713 C1711 1.353 . S
C1713 N1715 1.314 . S
C1713 H1754 0.930 . S
C1714 C1712 1.358 . S
C1714 N1715 1.279 . S
C1714 H1755 0.930 . S
N1715 C1713 1.314 . S
N1715 C1714 1.279 . S
C1716 C1718 1.353 . S
C1716 N1719 1.314 . S
C1716 H1722 0.930 . S
C1717 N1719 1.279 . S
C1717 C1720 1.358 . S
C1717 H1723 0.930 . S
C1718 C1716 1.353 . S
C1718 C1721 1.348 . S
C1718 H1756 0.929 . S
N1719 Li1674 1.990 . S
N1719 C1716 1.314 . S
N1719 C1717 1.279 . S
C1720 C1717 1.358 . S
C1720 C1721 1.356 . S
C1720 H1757 0.930 . S
C1721 C1718 1.348 . S
C1721 C1720 1.356 . S
H1722 C1716 0.930 . S
H1723 C1717 0.930 . S
C1724 N1725 1.314 . S
C1724 C1726 1.353 . S
C1724 H1730 0.930 . S
N1725 Li1675 1.990 . S
N1725 C1724 1.314 . S
N1725 C1728 1.279 . S
C1726 C1724 1.353 . S
C1726 C1729 1.348 . S
C1726 H1758 0.929 . S
C1727 C1728 1.358 . S
C1727 C1729 1.356 . S
C1727 H1759 0.930 . S
C1728 N1725 1.279 . S
C1728 C1727 1.358 . S
C1728 H1731 0.930 . S
C1729 C1726 1.348 . S
C1729 C1727 1.356 . S
H1730 C1724 0.930 . S
H1731 C1728 0.930 . S
O1732 Li1672 1.956 . S
O1732 Li1673 1.970 . S
O1732 Li1674 1.961 . S
O1732 C1676 1.325 . S
O1733 Li1672 1.970 . S
O1733 Li1673 1.956 . S
O1733 Li1675 1.961 . S
O1733 C1682 1.325 . S
O1734 Li1672 1.961 . S
O1734 Li1674 1.956 . S
O1734 Li1675 1.970 . S
O1734 C1704 1.325 . S
O1735 Li1673 1.961 . S
O1735 Li1674 1.970 . S
O1735 Li1675 1.956 . S
O1735 C1710 1.325 . S
H1736 C1678 0.929 . S
H1737 C1679 0.930 . S
H1738 C1680 0.930 . S
H1739 C1681 0.930 . S
H1740 C1683 0.930 . S
H1741 C1685 0.929 . S
H1742 C1686 0.930 . S
H1743 C1687 0.930 . S
H1744 C1690 0.930 . S
H1745 C1693 0.929 . S
H1746 C1698 0.929 . S
H1747 C1699 0.930 . S
H1748 C1706 0.929 . S
H1749 C1707 0.930 . S
H1750 C1708 0.930 . S
H1751 C1709 0.930 . S
H1752 C1711 0.929 . S
H1753 C1712 0.930 . S
H1754 C1713 0.930 . S
H1755 C1714 0.930 . S
H1756 C1718 0.929 . S
H1757 C1720 0.930 . S
H1758 C1726 0.929 . S
H1759 C1727 0.930 . S
Li1760 N1777 1.990 . S
Li1760 O1820 1.956 . S
Li1760 O1821 1.970 . S
Li1760 O1822 1.961 . S
Li1761 N1785 1.990 . S
Li1761 O1820 1.970 . S
Li1761 O1821 1.956 . S
Li1761 O1823 1.961 . S
Li1762 N1807 1.990 . S
Li1762 O1820 1.961 . S
Li1762 O1822 1.956 . S
Li1762 O1823 1.970 . S
Li1763 N1813 1.990 . S
Li1763 O1821 1.961 . S
Li1763 O1822 1.970 . S
Li1763 O1823 1.956 . S
C1764 C1766 1.348 . S
C1764 C1767 1.356 . S
C1764 O1820 1.325 . S
N1765 C1768 1.314 . S
N1765 C1769 1.279 . S
C1766 C1764 1.348 . S
C1766 C1768 1.353 . S
C1766 H1824 0.929 . S
C1767 C1764 1.356 . S
C1767 C1769 1.358 . S
C1767 H1825 0.930 . S
C1768 N1765 1.314 . S
C1768 C1766 1.353 . S
C1768 H1826 0.930 . S
C1769 N1765 1.279 . S
C1769 C1767 1.358 . S
C1769 H1827 0.930 . S
C1770 C1773 1.348 . S
C1770 C1774 1.356 . S
C1770 O1821 1.325 . S
C1771 N1772 1.279 . S
C1771 C1774 1.358 . S
C1771 H1828 0.930 . S
N1772 C1771 1.279 . S
N1772 C1775 1.314 . S
C1773 C1770 1.348 . S
C1773 C1775 1.353 . S
C1773 H1829 0.929 . S
C1774 C1770 1.356 . S
C1774 C1771 1.358 . S
C1774 H1830 0.930 . S
C1775 N1772 1.314 . S
C1775 C1773 1.353 . S
C1775 H1831 0.930 . S
C1776 N1777 1.314 . S
C1776 C1781 1.353 . S
C1776 H1782 0.930 . S
N1777 Li1760 1.990 . S
N1777 C1776 1.314 . S
N1777 C1779 1.279 . S
C1778 C1779 1.358 . S
C1778 C1780 1.356 . S
C1778 H1832 0.930 . S
C1779 N1777 1.279 . S
C1779 C1778 1.358 . S
C1779 H1783 0.930 . S
C1780 C1778 1.356 . S
C1780 C1781 1.348 . S
C1781 C1776 1.353 . S
C1781 C1780 1.348 . S
C1781 H1833 0.929 . S
H1782 C1776 0.930 . S
H1783 C1779 0.930 . S
C1784 N1785 1.314 . S
C1784 C1786 1.353 . S
C1784 H1790 0.930 . S
N1785 Li1761 1.990 . S
N1785 C1784 1.314 . S
N1785 C1788 1.279 . S
C1786 C1784 1.353 . S
C1786 C1789 1.348 . S
C1786 H1834 0.929 . S
C1787 C1788 1.358 . S
C1787 C1789 1.356 . S
C1787 H1835 0.930 . S
C1788 N1785 1.279 . S
C1788 C1787 1.358 . S
C1788 H1791 0.930 . S
C1789 C1786 1.348 . S
C1789 C1787 1.356 . S
H1790 C1784 0.930 . S
H1791 C1788 0.930 . S
C1792 C1794 1.348 . S
C1792 C1795 1.356 . S
C1792 O1822 1.325 . S
N1793 C1796 1.314 . S
N1793 C1797 1.279 . S
C1794 C1792 1.348 . S
C1794 C1796 1.353 . S
C1794 H1836 0.929 . S
C1795 C1792 1.356 . S
C1795 C1797 1.358 . S
C1795 H1837 0.930 . S
C1796 N1793 1.314 . S
C1796 C1794 1.353 . S
C1796 H1838 0.930 . S
C1797 N1793 1.279 . S
C1797 C1795 1.358 . S
C1797 H1839 0.930 . S
C1798 C1799 1.348 . S
C1798 C1800 1.356 . S
C1798 O1823 1.325 . S
C1799 C1798 1.348 . S
C1799 C1801 1.353 . S
C1799 H1840 0.929 . S
C1800 C1798 1.356 . S
C1800 C1802 1.358 . S
C1800 H1841 0.930 . S
C1801 C1799 1.353 . S
C1801 N1803 1.314 . S
C1801 H1842 0.930 . S
C1802 C1800 1.358 . S
C1802 N1803 1.279 . S
C1802 H1843 0.930 . S
N1803 C1801 1.314 . S
N1803 C1802 1.279 . S
C1804 C1806 1.353 . S
C1804 N1807 1.314 . S
C1804 H1810 0.930 . S
C1805 N1807 1.279 . S
C1805 C1808 1.358 . S
C1805 H1811 0.930 . S
C1806 C1804 1.353 . S
C1806 C1809 1.348 . S
C1806 H1844 0.929 . S
N1807 Li1762 1.990 . S
N1807 C1804 1.314 . S
N1807 C1805 1.279 . S
C1808 C1805 1.358 . S
C1808 C1809 1.356 . S
C1808 H1845 0.930 . S
C1809 C1806 1.348 . S
C1809 C1808 1.356 . S
H1810 C1804 0.930 . S
H1811 C1805 0.930 . S
C1812 N1813 1.314 . S
C1812 C1814 1.353 . S
C1812 H1818 0.930 . S
N1813 Li1763 1.990 . S
N1813 C1812 1.314 . S
N1813 C1816 1.279 . S
C1814 C1812 1.353 . S
C1814 C1817 1.348 . S
C1814 H1846 0.929 . S
C1815 C1816 1.358 . S
C1815 C1817 1.356 . S
C1815 H1847 0.930 . S
C1816 N1813 1.279 . S
C1816 C1815 1.358 . S
C1816 H1819 0.930 . S
C1817 C1814 1.348 . S
C1817 C1815 1.356 . S
H1818 C1812 0.930 . S
H1819 C1816 0.930 . S
O1820 Li1760 1.956 . S
O1820 Li1761 1.970 . S
O1820 Li1762 1.961 . S
O1820 C1764 1.325 . S
O1821 Li1760 1.970 . S
O1821 Li1761 1.956 . S
O1821 Li1763 1.961 . S
O1821 C1770 1.325 . S
O1822 Li1760 1.961 . S
O1822 Li1762 1.956 . S
O1822 Li1763 1.970 . S
O1822 C1792 1.325 . S
O1823 Li1761 1.961 . S
O1823 Li1762 1.970 . S
O1823 Li1763 1.956 . S
O1823 C1798 1.325 . S
H1824 C1766 0.929 . S
H1825 C1767 0.930 . S
H1826 C1768 0.930 . S
H1827 C1769 0.930 . S
H1828 C1771 0.930 . S
H1829 C1773 0.929 . S
H1830 C1774 0.930 . S
H1831 C1775 0.930 . S
H1832 C1778 0.930 . S
H1833 C1781 0.929 . S
H1834 C1786 0.929 . S
H1835 C1787 0.930 . S
H1836 C1794 0.929 . S
H1837 C1795 0.930 . S
H1838 C1796 0.930 . S
H1839 C1797 0.930 . S
H1840 C1799 0.929 . S
H1841 C1800 0.930 . S
H1842 C1801 0.930 . S
H1843 C1802 0.930 . S
H1844 C1806 0.929 . S
H1845 C1808 0.930 . S
H1846 C1814 0.929 . S
H1847 C1815 0.930 . S
Li1848 N1865 1.990 . S
Li1848 O1908 1.956 . S
Li1848 O1909 1.970 . S
Li1848 O1910 1.961 . S
Li1849 N1873 1.990 . S
Li1849 O1908 1.970 . S
Li1849 O1909 1.956 . S
Li1849 O1911 1.961 . S
Li1850 N1895 1.990 . S
Li1850 O1908 1.961 . S
Li1850 O1910 1.956 . S
Li1850 O1911 1.970 . S
Li1851 N1901 1.990 . S
Li1851 O1909 1.961 . S
Li1851 O1910 1.970 . S
Li1851 O1911 1.956 . S
C1852 C1854 1.348 . S
C1852 C1855 1.356 . S
C1852 O1908 1.325 . S
N1853 C1856 1.314 . S
N1853 C1857 1.279 . S
C1854 C1852 1.348 . S
C1854 C1856 1.353 . S
C1854 H1912 0.929 . S
C1855 C1852 1.356 . S
C1855 C1857 1.358 . S
C1855 H1913 0.930 . S
C1856 N1853 1.314 . S
C1856 C1854 1.353 . S
C1856 H1914 0.930 . S
C1857 N1853 1.279 . S
C1857 C1855 1.358 . S
C1857 H1915 0.930 . S
C1858 C1861 1.348 . S
C1858 C1862 1.356 . S
C1858 O1909 1.325 . S
C1859 N1860 1.279 . S
C1859 C1862 1.358 . S
C1859 H1916 0.930 . S
N1860 C1859 1.279 . S
N1860 C1863 1.314 . S
C1861 C1858 1.348 . S
C1861 C1863 1.353 . S
C1861 H1917 0.929 . S
C1862 C1858 1.356 . S
C1862 C1859 1.358 . S
C1862 H1918 0.930 . S
C1863 N1860 1.314 . S
C1863 C1861 1.353 . S
C1863 H1919 0.930 . S
C1864 N1865 1.314 . S
C1864 C1869 1.353 . S
C1864 H1870 0.930 . S
N1865 Li1848 1.990 . S
N1865 C1864 1.314 . S
N1865 C1867 1.279 . S
C1866 C1867 1.358 . S
C1866 C1868 1.356 . S
C1866 H1920 0.930 . S
C1867 N1865 1.279 . S
C1867 C1866 1.358 . S
C1867 H1871 0.930 . S
C1868 C1866 1.356 . S
C1868 C1869 1.348 . S
C1869 C1864 1.353 . S
C1869 C1868 1.348 . S
C1869 H1921 0.929 . S
H1870 C1864 0.930 . S
H1871 C1867 0.930 . S
C1872 N1873 1.314 . S
C1872 C1874 1.353 . S
C1872 H1878 0.930 . S
N1873 Li1849 1.990 . S
N1873 C1872 1.314 . S
N1873 C1876 1.279 . S
C1874 C1872 1.353 . S
C1874 C1877 1.348 . S
C1874 H1922 0.929 . S
C1875 C1876 1.358 . S
C1875 C1877 1.356 . S
C1875 H1923 0.930 . S
C1876 N1873 1.279 . S
C1876 C1875 1.358 . S
C1876 H1879 0.930 . S
C1877 C1874 1.348 . S
C1877 C1875 1.356 . S
H1878 C1872 0.930 . S
H1879 C1876 0.930 . S
C1880 C1882 1.348 . S
C1880 C1883 1.356 . S
C1880 O1910 1.325 . S
N1881 C1884 1.314 . S
N1881 C1885 1.279 . S
C1882 C1880 1.348 . S
C1882 C1884 1.353 . S
C1882 H1924 0.929 . S
C1883 C1880 1.356 . S
C1883 C1885 1.358 . S
C1883 H1925 0.930 . S
C1884 N1881 1.314 . S
C1884 C1882 1.353 . S
C1884 H1926 0.930 . S
C1885 N1881 1.279 . S
C1885 C1883 1.358 . S
C1885 H1927 0.930 . S
C1886 C1887 1.348 . S
C1886 C1888 1.356 . S
C1886 O1911 1.325 . S
C1887 C1886 1.348 . S
C1887 C1889 1.353 . S
C1887 H1928 0.929 . S
C1888 C1886 1.356 . S
C1888 C1890 1.358 . S
C1888 H1929 0.930 . S
C1889 C1887 1.353 . S
C1889 N1891 1.314 . S
C1889 H1930 0.930 . S
C1890 C1888 1.358 . S
C1890 N1891 1.279 . S
C1890 H1931 0.930 . S
N1891 C1889 1.314 . S
N1891 C1890 1.279 . S
C1892 C1894 1.353 . S
C1892 N1895 1.314 . S
C1892 H1898 0.930 . S
C1893 N1895 1.279 . S
C1893 C1896 1.358 . S
C1893 H1899 0.930 . S
C1894 C1892 1.353 . S
C1894 C1897 1.348 . S
C1894 H1932 0.929 . S
N1895 Li1850 1.990 . S
N1895 C1892 1.314 . S
N1895 C1893 1.279 . S
C1896 C1893 1.358 . S
C1896 C1897 1.356 . S
C1896 H1933 0.930 . S
C1897 C1894 1.348 . S
C1897 C1896 1.356 . S
H1898 C1892 0.930 . S
H1899 C1893 0.930 . S
C1900 N1901 1.314 . S
C1900 C1902 1.353 . S
C1900 H1906 0.930 . S
N1901 Li1851 1.990 . S
N1901 C1900 1.314 . S
N1901 C1904 1.279 . S
C1902 C1900 1.353 . S
C1902 C1905 1.348 . S
C1902 H1934 0.929 . S
C1903 C1904 1.358 . S
C1903 C1905 1.356 . S
C1903 H1935 0.930 . S
C1904 N1901 1.279 . S
C1904 C1903 1.358 . S
C1904 H1907 0.930 . S
C1905 C1902 1.348 . S
C1905 C1903 1.356 . S
H1906 C1900 0.930 . S
H1907 C1904 0.930 . S
O1908 Li1848 1.956 . S
O1908 Li1849 1.970 . S
O1908 Li1850 1.961 . S
O1908 C1852 1.325 . S
O1909 Li1848 1.970 . S
O1909 Li1849 1.956 . S
O1909 Li1851 1.961 . S
O1909 C1858 1.325 . S
O1910 Li1848 1.961 . S
O1910 Li1850 1.956 . S
O1910 Li1851 1.970 . S
O1910 C1880 1.325 . S
O1911 Li1849 1.961 . S
O1911 Li1850 1.970 . S
O1911 Li1851 1.956 . S
O1911 C1886 1.325 . S
H1912 C1854 0.929 . S
H1913 C1855 0.930 . S
H1914 C1856 0.930 . S
H1915 C1857 0.930 . S
H1916 C1859 0.930 . S
H1917 C1861 0.929 . S
H1918 C1862 0.930 . S
H1919 C1863 0.930 . S
H1920 C1866 0.930 . S
H1921 C1869 0.929 . S
H1922 C1874 0.929 . S
H1923 C1875 0.930 . S
H1924 C1882 0.929 . S
H1925 C1883 0.930 . S
H1926 C1884 0.930 . S
H1927 C1885 0.930 . S
H1928 C1887 0.929 . S
H1929 C1888 0.930 . S
H1930 C1889 0.930 . S
H1931 C1890 0.930 . S
H1932 C1894 0.929 . S
H1933 C1896 0.930 . S
H1934 C1902 0.929 . S
H1935 C1903 0.930 . S
Li1936 N1953 1.990 . S
Li1936 O1996 1.956 . S
Li1936 O1997 1.970 . S
Li1936 O1998 1.961 . S
Li1937 N1961 1.990 . S
Li1937 O1996 1.970 . S
Li1937 O1997 1.956 . S
Li1937 O1999 1.961 . S
Li1938 N1983 1.990 . S
Li1938 O1996 1.961 . S
Li1938 O1998 1.956 . S
Li1938 O1999 1.970 . S
Li1939 N1989 1.990 . S
Li1939 O1997 1.961 . S
Li1939 O1998 1.970 . S
Li1939 O1999 1.956 . S
C1940 C1942 1.348 . S
C1940 C1943 1.356 . S
C1940 O1996 1.325 . S
N1941 C1944 1.314 . S
N1941 C1945 1.279 . S
C1942 C1940 1.348 . S
C1942 C1944 1.353 . S
C1942 H2000 0.929 . S
C1943 C1940 1.356 . S
C1943 C1945 1.358 . S
C1943 H2001 0.930 . S
C1944 N1941 1.314 . S
C1944 C1942 1.353 . S
C1944 H2002 0.930 . S
C1945 N1941 1.279 . S
C1945 C1943 1.358 . S
C1945 H2003 0.930 . S
C1946 C1949 1.348 . S
C1946 C1950 1.356 . S
C1946 O1997 1.325 . S
C1947 N1948 1.279 . S
C1947 C1950 1.358 . S
C1947 H2004 0.930 . S
N1948 C1947 1.279 . S
N1948 C1951 1.314 . S
C1949 C1946 1.348 . S
C1949 C1951 1.353 . S
C1949 H2005 0.929 . S
C1950 C1946 1.356 . S
C1950 C1947 1.358 . S
C1950 H2006 0.930 . S
C1951 N1948 1.314 . S
C1951 C1949 1.353 . S
C1951 H2007 0.930 . S
C1952 N1953 1.314 . S
C1952 C1957 1.353 . S
C1952 H1958 0.930 . S
N1953 Li1936 1.990 . S
N1953 C1952 1.314 . S
N1953 C1955 1.279 . S
C1954 C1955 1.358 . S
C1954 C1956 1.356 . S
C1954 H2008 0.930 . S
C1955 N1953 1.279 . S
C1955 C1954 1.358 . S
C1955 H1959 0.930 . S
C1956 C1954 1.356 . S
C1956 C1957 1.348 . S
C1957 C1952 1.353 . S
C1957 C1956 1.348 . S
C1957 H2009 0.929 . S
H1958 C1952 0.930 . S
H1959 C1955 0.930 . S
C1960 N1961 1.314 . S
C1960 C1962 1.353 . S
C1960 H1966 0.930 . S
N1961 Li1937 1.990 . S
N1961 C1960 1.314 . S
N1961 C1964 1.279 . S
C1962 C1960 1.353 . S
C1962 C1965 1.348 . S
C1962 H2010 0.929 . S
C1963 C1964 1.358 . S
C1963 C1965 1.356 . S
C1963 H2011 0.930 . S
C1964 N1961 1.279 . S
C1964 C1963 1.358 . S
C1964 H1967 0.930 . S
C1965 C1962 1.348 . S
C1965 C1963 1.356 . S
H1966 C1960 0.930 . S
H1967 C1964 0.930 . S
C1968 C1970 1.348 . S
C1968 C1971 1.356 . S
C1968 O1998 1.325 . S
N1969 C1972 1.314 . S
N1969 C1973 1.279 . S
C1970 C1968 1.348 . S
C1970 C1972 1.353 . S
C1970 H2012 0.929 . S
C1971 C1968 1.356 . S
C1971 C1973 1.358 . S
C1971 H2013 0.930 . S
C1972 N1969 1.314 . S
C1972 C1970 1.353 . S
C1972 H2014 0.930 . S
C1973 N1969 1.279 . S
C1973 C1971 1.358 . S
C1973 H2015 0.930 . S
C1974 C1975 1.348 . S
C1974 C1976 1.356 . S
C1974 O1999 1.325 . S
C1975 C1974 1.348 . S
C1975 C1977 1.353 . S
C1975 H2016 0.929 . S
C1976 C1974 1.356 . S
C1976 C1978 1.358 . S
C1976 H2017 0.930 . S
C1977 C1975 1.353 . S
C1977 N1979 1.314 . S
C1977 H2018 0.930 . S
C1978 C1976 1.358 . S
C1978 N1979 1.279 . S
C1978 H2019 0.930 . S
N1979 C1977 1.314 . S
N1979 C1978 1.279 . S
C1980 C1982 1.353 . S
C1980 N1983 1.314 . S
C1980 H1986 0.930 . S
C1981 N1983 1.279 . S
C1981 C1984 1.358 . S
C1981 H1987 0.930 . S
C1982 C1980 1.353 . S
C1982 C1985 1.348 . S
C1982 H2020 0.929 . S
N1983 Li1938 1.990 . S
N1983 C1980 1.314 . S
N1983 C1981 1.279 . S
C1984 C1981 1.358 . S
C1984 C1985 1.356 . S
C1984 H2021 0.930 . S
C1985 C1982 1.348 . S
C1985 C1984 1.356 . S
H1986 C1980 0.930 . S
H1987 C1981 0.930 . S
C1988 N1989 1.314 . S
C1988 C1990 1.353 . S
C1988 H1994 0.930 . S
N1989 Li1939 1.990 . S
N1989 C1988 1.314 . S
N1989 C1992 1.279 . S
C1990 C1988 1.353 . S
C1990 C1993 1.348 . S
C1990 H2022 0.929 . S
C1991 C1992 1.358 . S
C1991 C1993 1.356 . S
C1991 H2023 0.930 . S
C1992 N1989 1.279 . S
C1992 C1991 1.358 . S
C1992 H1995 0.930 . S
C1993 C1990 1.348 . S
C1993 C1991 1.356 . S
H1994 C1988 0.930 . S
H1995 C1992 0.930 . S
O1996 Li1936 1.956 . S
O1996 Li1937 1.970 . S
O1996 Li1938 1.961 . S
O1996 C1940 1.325 . S
O1997 Li1936 1.970 . S
O1997 Li1937 1.956 . S
O1997 Li1939 1.961 . S
O1997 C1946 1.325 . S
O1998 Li1936 1.961 . S
O1998 Li1938 1.956 . S
O1998 Li1939 1.970 . S
O1998 C1968 1.325 . S
O1999 Li1937 1.961 . S
O1999 Li1938 1.970 . S
O1999 Li1939 1.956 . S
O1999 C1974 1.325 . S
H2000 C1942 0.929 . S
H2001 C1943 0.930 . S
H2002 C1944 0.930 . S
H2003 C1945 0.930 . S
H2004 C1947 0.930 . S
H2005 C1949 0.929 . S
H2006 C1950 0.930 . S
H2007 C1951 0.930 . S
H2008 C1954 0.930 . S
H2009 C1957 0.929 . S
H2010 C1962 0.929 . S
H2011 C1963 0.930 . S
H2012 C1970 0.929 . S
H2013 C1971 0.930 . S
H2014 C1972 0.930 . S
H2015 C1973 0.930 . S
H2016 C1975 0.929 . S
H2017 C1976 0.930 . S
H2018 C1977 0.930 . S
H2019 C1978 0.930 . S
H2020 C1982 0.929 . S
H2021 C1984 0.930 . S
H2022 C1990 0.929 . S
H2023 C1991 0.930 . S
Li2024 N2041 1.990 . S
Li2024 O2084 1.956 . S
Li2024 O2085 1.970 . S
Li2024 O2086 1.961 . S
Li2025 N2049 1.990 . S
Li2025 O2084 1.970 . S
Li2025 O2085 1.956 . S
Li2025 O2087 1.961 . S
Li2026 N2071 1.990 . S
Li2026 O2084 1.961 . S
Li2026 O2086 1.956 . S
Li2026 O2087 1.970 . S
Li2027 N2077 1.990 . S
Li2027 O2085 1.961 . S
Li2027 O2086 1.970 . S
Li2027 O2087 1.956 . S
C2028 C2030 1.348 . S
C2028 C2031 1.356 . S
C2028 O2084 1.325 . S
N2029 C2032 1.314 . S
N2029 C2033 1.279 . S
C2030 C2028 1.348 . S
C2030 C2032 1.353 . S
C2030 H2088 0.929 . S
C2031 C2028 1.356 . S
C2031 C2033 1.358 . S
C2031 H2089 0.930 . S
C2032 N2029 1.314 . S
C2032 C2030 1.353 . S
C2032 H2090 0.930 . S
C2033 N2029 1.279 . S
C2033 C2031 1.358 . S
C2033 H2091 0.930 . S
C2034 C2037 1.348 . S
C2034 C2038 1.356 . S
C2034 O2085 1.325 . S
C2035 N2036 1.279 . S
C2035 C2038 1.358 . S
C2035 H2092 0.930 . S
N2036 C2035 1.279 . S
N2036 C2039 1.314 . S
C2037 C2034 1.348 . S
C2037 C2039 1.353 . S
C2037 H2093 0.929 . S
C2038 C2034 1.356 . S
C2038 C2035 1.358 . S
C2038 H2094 0.930 . S
C2039 N2036 1.314 . S
C2039 C2037 1.353 . S
C2039 H2095 0.930 . S
C2040 N2041 1.314 . S
C2040 C2045 1.353 . S
C2040 H2046 0.930 . S
N2041 Li2024 1.990 . S
N2041 C2040 1.314 . S
N2041 C2043 1.279 . S
C2042 C2043 1.358 . S
C2042 C2044 1.356 . S
C2042 H2096 0.930 . S
C2043 N2041 1.279 . S
C2043 C2042 1.358 . S
C2043 H2047 0.930 . S
C2044 C2042 1.356 . S
C2044 C2045 1.348 . S
C2045 C2040 1.353 . S
C2045 C2044 1.348 . S
C2045 H2097 0.929 . S
H2046 C2040 0.930 . S
H2047 C2043 0.930 . S
C2048 N2049 1.314 . S
C2048 C2050 1.353 . S
C2048 H2054 0.930 . S
N2049 Li2025 1.990 . S
N2049 C2048 1.314 . S
N2049 C2052 1.279 . S
C2050 C2048 1.353 . S
C2050 C2053 1.348 . S
C2050 H2098 0.929 . S
C2051 C2052 1.358 . S
C2051 C2053 1.356 . S
C2051 H2099 0.930 . S
C2052 N2049 1.279 . S
C2052 C2051 1.358 . S
C2052 H2055 0.930 . S
C2053 C2050 1.348 . S
C2053 C2051 1.356 . S
H2054 C2048 0.930 . S
H2055 C2052 0.930 . S
C2056 C2058 1.348 . S
C2056 C2059 1.356 . S
C2056 O2086 1.325 . S
N2057 C2060 1.314 . S
N2057 C2061 1.279 . S
C2058 C2056 1.348 . S
C2058 C2060 1.353 . S
C2058 H2100 0.929 . S
C2059 C2056 1.356 . S
C2059 C2061 1.358 . S
C2059 H2101 0.930 . S
C2060 N2057 1.314 . S
C2060 C2058 1.353 . S
C2060 H2102 0.930 . S
C2061 N2057 1.279 . S
C2061 C2059 1.358 . S
C2061 H2103 0.930 . S
C2062 C2063 1.348 . S
C2062 C2064 1.356 . S
C2062 O2087 1.325 . S
C2063 C2062 1.348 . S
C2063 C2065 1.353 . S
C2063 H2104 0.929 . S
C2064 C2062 1.356 . S
C2064 C2066 1.358 . S
C2064 H2105 0.930 . S
C2065 C2063 1.353 . S
C2065 N2067 1.314 . S
C2065 H2106 0.930 . S
C2066 C2064 1.358 . S
C2066 N2067 1.279 . S
C2066 H2107 0.930 . S
N2067 C2065 1.314 . S
N2067 C2066 1.279 . S
C2068 C2070 1.353 . S
C2068 N2071 1.314 . S
C2068 H2074 0.930 . S
C2069 N2071 1.279 . S
C2069 C2072 1.358 . S
C2069 H2075 0.930 . S
C2070 C2068 1.353 . S
C2070 C2073 1.348 . S
C2070 H2108 0.929 . S
N2071 Li2026 1.990 . S
N2071 C2068 1.314 . S
N2071 C2069 1.279 . S
C2072 C2069 1.358 . S
C2072 C2073 1.356 . S
C2072 H2109 0.930 . S
C2073 C2070 1.348 . S
C2073 C2072 1.356 . S
H2074 C2068 0.930 . S
H2075 C2069 0.930 . S
C2076 N2077 1.314 . S
C2076 C2078 1.353 . S
C2076 H2082 0.930 . S
N2077 Li2027 1.990 . S
N2077 C2076 1.314 . S
N2077 C2080 1.279 . S
C2078 C2076 1.353 . S
C2078 C2081 1.348 . S
C2078 H2110 0.929 . S
C2079 C2080 1.358 . S
C2079 C2081 1.356 . S
C2079 H2111 0.930 . S
C2080 N2077 1.279 . S
C2080 C2079 1.358 . S
C2080 H2083 0.930 . S
C2081 C2078 1.348 . S
C2081 C2079 1.356 . S
H2082 C2076 0.930 . S
H2083 C2080 0.930 . S
O2084 Li2024 1.956 . S
O2084 Li2025 1.970 . S
O2084 Li2026 1.961 . S
O2084 C2028 1.325 . S
O2085 Li2024 1.970 . S
O2085 Li2025 1.956 . S
O2085 Li2027 1.961 . S
O2085 C2034 1.325 . S
O2086 Li2024 1.961 . S
O2086 Li2026 1.956 . S
O2086 Li2027 1.970 . S
O2086 C2056 1.325 . S
O2087 Li2025 1.961 . S
O2087 Li2026 1.970 . S
O2087 Li2027 1.956 . S
O2087 C2062 1.325 . S
H2088 C2030 0.929 . S
H2089 C2031 0.930 . S
H2090 C2032 0.930 . S
H2091 C2033 0.930 . S
H2092 C2035 0.930 . S
H2093 C2037 0.929 . S
H2094 C2038 0.930 . S
H2095 C2039 0.930 . S
H2096 C2042 0.930 . S
H2097 C2045 0.929 . S
H2098 C2050 0.929 . S
H2099 C2051 0.930 . S
H2100 C2058 0.929 . S
H2101 C2059 0.930 . S
H2102 C2060 0.930 . S
H2103 C2061 0.930 . S
H2104 C2063 0.929 . S
H2105 C2064 0.930 . S
H2106 C2065 0.930 . S
H2107 C2066 0.930 . S
H2108 C2070 0.929 . S
H2109 C2072 0.930 . S
H2110 C2078 0.929 . S
H2111 C2079 0.930 . S
Li2112 N2129 1.990 . S
Li2112 O2172 1.956 . S
Li2112 O2173 1.970 . S
Li2112 O2174 1.961 . S
Li2113 N2137 1.990 . S
Li2113 O2172 1.970 . S
Li2113 O2173 1.956 . S
Li2113 O2175 1.961 . S
Li2114 N2159 1.990 . S
Li2114 O2172 1.961 . S
Li2114 O2174 1.956 . S
Li2114 O2175 1.970 . S
Li2115 N2165 1.990 . S
Li2115 O2173 1.961 . S
Li2115 O2174 1.970 . S
Li2115 O2175 1.956 . S
C2116 C2118 1.348 . S
C2116 C2119 1.356 . S
C2116 O2172 1.325 . S
N2117 C2120 1.314 . S
N2117 C2121 1.279 . S
C2118 C2116 1.348 . S
C2118 C2120 1.353 . S
C2118 H2176 0.929 . S
C2119 C2116 1.356 . S
C2119 C2121 1.358 . S
C2119 H2177 0.930 . S
C2120 N2117 1.314 . S
C2120 C2118 1.353 . S
C2120 H2178 0.930 . S
C2121 N2117 1.279 . S
C2121 C2119 1.358 . S
C2121 H2179 0.930 . S
C2122 C2125 1.348 . S
C2122 C2126 1.356 . S
C2122 O2173 1.325 . S
C2123 N2124 1.279 . S
C2123 C2126 1.358 . S
C2123 H2180 0.930 . S
N2124 C2123 1.279 . S
N2124 C2127 1.314 . S
C2125 C2122 1.348 . S
C2125 C2127 1.353 . S
C2125 H2181 0.929 . S
C2126 C2122 1.356 . S
C2126 C2123 1.358 . S
C2126 H2182 0.930 . S
C2127 N2124 1.314 . S
C2127 C2125 1.353 . S
C2127 H2183 0.930 . S
C2128 N2129 1.314 . S
C2128 C2133 1.353 . S
C2128 H2134 0.930 . S
N2129 Li2112 1.990 . S
N2129 C2128 1.314 . S
N2129 C2131 1.279 . S
C2130 C2131 1.358 . S
C2130 C2132 1.356 . S
C2130 H2184 0.930 . S
C2131 N2129 1.279 . S
C2131 C2130 1.358 . S
C2131 H2135 0.930 . S
C2132 C2130 1.356 . S
C2132 C2133 1.348 . S
C2133 C2128 1.353 . S
C2133 C2132 1.348 . S
C2133 H2185 0.929 . S
H2134 C2128 0.930 . S
H2135 C2131 0.930 . S
C2136 N2137 1.314 . S
C2136 C2138 1.353 . S
C2136 H2142 0.930 . S
N2137 Li2113 1.990 . S
N2137 C2136 1.314 . S
N2137 C2140 1.279 . S
C2138 C2136 1.353 . S
C2138 C2141 1.348 . S
C2138 H2186 0.929 . S
C2139 C2140 1.358 . S
C2139 C2141 1.356 . S
C2139 H2187 0.930 . S
C2140 N2137 1.279 . S
C2140 C2139 1.358 . S
C2140 H2143 0.930 . S
C2141 C2138 1.348 . S
C2141 C2139 1.356 . S
H2142 C2136 0.930 . S
H2143 C2140 0.930 . S
C2144 C2146 1.348 . S
C2144 C2147 1.356 . S
C2144 O2174 1.325 . S
N2145 C2148 1.314 . S
N2145 C2149 1.279 . S
C2146 C2144 1.348 . S
C2146 C2148 1.353 . S
C2146 H2188 0.929 . S
C2147 C2144 1.356 . S
C2147 C2149 1.358 . S
C2147 H2189 0.930 . S
C2148 N2145 1.314 . S
C2148 C2146 1.353 . S
C2148 H2190 0.930 . S
C2149 N2145 1.279 . S
C2149 C2147 1.358 . S
C2149 H2191 0.930 . S
C2150 C2151 1.348 . S
C2150 C2152 1.356 . S
C2150 O2175 1.325 . S
C2151 C2150 1.348 . S
C2151 C2153 1.353 . S
C2151 H2192 0.929 . S
C2152 C2150 1.356 . S
C2152 C2154 1.358 . S
C2152 H2193 0.930 . S
C2153 C2151 1.353 . S
C2153 N2155 1.314 . S
C2153 H2194 0.930 . S
C2154 C2152 1.358 . S
C2154 N2155 1.279 . S
C2154 H2195 0.930 . S
N2155 C2153 1.314 . S
N2155 C2154 1.279 . S
C2156 C2158 1.353 . S
C2156 N2159 1.314 . S
C2156 H2162 0.930 . S
C2157 N2159 1.279 . S
C2157 C2160 1.358 . S
C2157 H2163 0.930 . S
C2158 C2156 1.353 . S
C2158 C2161 1.348 . S
C2158 H2196 0.929 . S
N2159 Li2114 1.990 . S
N2159 C2156 1.314 . S
N2159 C2157 1.279 . S
C2160 C2157 1.358 . S
C2160 C2161 1.356 . S
C2160 H2197 0.930 . S
C2161 C2158 1.348 . S
C2161 C2160 1.356 . S
H2162 C2156 0.930 . S
H2163 C2157 0.930 . S
C2164 N2165 1.314 . S
C2164 C2166 1.353 . S
C2164 H2170 0.930 . S
N2165 Li2115 1.990 . S
N2165 C2164 1.314 . S
N2165 C2168 1.279 . S
C2166 C2164 1.353 . S
C2166 C2169 1.348 . S
C2166 H2198 0.929 . S
C2167 C2168 1.358 . S
C2167 C2169 1.356 . S
C2167 H2199 0.930 . S
C2168 N2165 1.279 . S
C2168 C2167 1.358 . S
C2168 H2171 0.930 . S
C2169 C2166 1.348 . S
C2169 C2167 1.356 . S
H2170 C2164 0.930 . S
H2171 C2168 0.930 . S
O2172 Li2112 1.956 . S
O2172 Li2113 1.970 . S
O2172 Li2114 1.961 . S
O2172 C2116 1.325 . S
O2173 Li2112 1.970 . S
O2173 Li2113 1.956 . S
O2173 Li2115 1.961 . S
O2173 C2122 1.325 . S
O2174 Li2112 1.961 . S
O2174 Li2114 1.956 . S
O2174 Li2115 1.970 . S
O2174 C2144 1.325 . S
O2175 Li2113 1.961 . S
O2175 Li2114 1.970 . S
O2175 Li2115 1.956 . S
O2175 C2150 1.325 . S
H2176 C2118 0.929 . S
H2177 C2119 0.930 . S
H2178 C2120 0.930 . S
H2179 C2121 0.930 . S
H2180 C2123 0.930 . S
H2181 C2125 0.929 . S
H2182 C2126 0.930 . S
H2183 C2127 0.930 . S
H2184 C2130 0.930 . S
H2185 C2133 0.929 . S
H2186 C2138 0.929 . S
H2187 C2139 0.930 . S
H2188 C2146 0.929 . S
H2189 C2147 0.930 . S
H2190 C2148 0.930 . S
H2191 C2149 0.930 . S
H2192 C2151 0.929 . S
H2193 C2152 0.930 . S
H2194 C2153 0.930 . S
H2195 C2154 0.930 . S
H2196 C2158 0.929 . S
H2197 C2160 0.930 . S
H2198 C2166 0.929 . S
H2199 C2167 0.930 . S
Li2200 N2217 1.990 . S
Li2200 O2260 1.956 . S
Li2200 O2261 1.970 . S
Li2200 O2262 1.961 . S
Li2201 N2225 1.990 . S
Li2201 O2260 1.970 . S
Li2201 O2261 1.956 . S
Li2201 O2263 1.961 . S
Li2202 N2247 1.990 . S
Li2202 O2260 1.961 . S
Li2202 O2262 1.956 . S
Li2202 O2263 1.970 . S
Li2203 N2253 1.990 . S
Li2203 O2261 1.961 . S
Li2203 O2262 1.970 . S
Li2203 O2263 1.956 . S
C2204 C2206 1.348 . S
C2204 C2207 1.356 . S
C2204 O2260 1.325 . S
N2205 C2208 1.314 . S
N2205 C2209 1.279 . S
C2206 C2204 1.348 . S
C2206 C2208 1.353 . S
C2206 H2264 0.929 . S
C2207 C2204 1.356 . S
C2207 C2209 1.358 . S
C2207 H2265 0.930 . S
C2208 N2205 1.314 . S
C2208 C2206 1.353 . S
C2208 H2266 0.930 . S
C2209 N2205 1.279 . S
C2209 C2207 1.358 . S
C2209 H2267 0.930 . S
C2210 C2213 1.348 . S
C2210 C2214 1.356 . S
C2210 O2261 1.325 . S
C2211 N2212 1.279 . S
C2211 C2214 1.358 . S
C2211 H2268 0.930 . S
N2212 C2211 1.279 . S
N2212 C2215 1.314 . S
C2213 C2210 1.348 . S
C2213 C2215 1.353 . S
C2213 H2269 0.929 . S
C2214 C2210 1.356 . S
C2214 C2211 1.358 . S
C2214 H2270 0.930 . S
C2215 N2212 1.314 . S
C2215 C2213 1.353 . S
C2215 H2271 0.930 . S
C2216 N2217 1.314 . S
C2216 C2221 1.353 . S
C2216 H2222 0.930 . S
N2217 Li2200 1.990 . S
N2217 C2216 1.314 . S
N2217 C2219 1.279 . S
C2218 C2219 1.358 . S
C2218 C2220 1.356 . S
C2218 H2272 0.930 . S
C2219 N2217 1.279 . S
C2219 C2218 1.358 . S
C2219 H2223 0.930 . S
C2220 C2218 1.356 . S
C2220 C2221 1.348 . S
C2221 C2216 1.353 . S
C2221 C2220 1.348 . S
C2221 H2273 0.929 . S
H2222 C2216 0.930 . S
H2223 C2219 0.930 . S
C2224 N2225 1.314 . S
C2224 C2226 1.353 . S
C2224 H2230 0.930 . S
N2225 Li2201 1.990 . S
N2225 C2224 1.314 . S
N2225 C2228 1.279 . S
C2226 C2224 1.353 . S
C2226 C2229 1.348 . S
C2226 H2274 0.929 . S
C2227 C2228 1.358 . S
C2227 C2229 1.356 . S
C2227 H2275 0.930 . S
C2228 N2225 1.279 . S
C2228 C2227 1.358 . S
C2228 H2231 0.930 . S
C2229 C2226 1.348 . S
C2229 C2227 1.356 . S
H2230 C2224 0.930 . S
H2231 C2228 0.930 . S
C2232 C2234 1.348 . S
C2232 C2235 1.356 . S
C2232 O2262 1.325 . S
N2233 C2236 1.314 . S
N2233 C2237 1.279 . S
C2234 C2232 1.348 . S
C2234 C2236 1.353 . S
C2234 H2276 0.929 . S
C2235 C2232 1.356 . S
C2235 C2237 1.358 . S
C2235 H2277 0.930 . S
C2236 N2233 1.314 . S
C2236 C2234 1.353 . S
C2236 H2278 0.930 . S
C2237 N2233 1.279 . S
C2237 C2235 1.358 . S
C2237 H2279 0.930 . S
C2238 C2239 1.348 . S
C2238 C2240 1.356 . S
C2238 O2263 1.325 . S
C2239 C2238 1.348 . S
C2239 C2241 1.353 . S
C2239 H2280 0.929 . S
C2240 C2238 1.356 . S
C2240 C2242 1.358 . S
C2240 H2281 0.930 . S
C2241 C2239 1.353 . S
C2241 N2243 1.314 . S
C2241 H2282 0.930 . S
C2242 C2240 1.358 . S
C2242 N2243 1.279 . S
C2242 H2283 0.930 . S
N2243 C2241 1.314 . S
N2243 C2242 1.279 . S
C2244 C2246 1.353 . S
C2244 N2247 1.314 . S
C2244 H2250 0.930 . S
C2245 N2247 1.279 . S
C2245 C2248 1.358 . S
C2245 H2251 0.930 . S
C2246 C2244 1.353 . S
C2246 C2249 1.348 . S
C2246 H2284 0.929 . S
N2247 Li2202 1.990 . S
N2247 C2244 1.314 . S
N2247 C2245 1.279 . S
C2248 C2245 1.358 . S
C2248 C2249 1.356 . S
C2248 H2285 0.930 . S
C2249 C2246 1.348 . S
C2249 C2248 1.356 . S
H2250 C2244 0.930 . S
H2251 C2245 0.930 . S
C2252 N2253 1.314 . S
C2252 C2254 1.353 . S
C2252 H2258 0.930 . S
N2253 Li2203 1.990 . S
N2253 C2252 1.314 . S
N2253 C2256 1.279 . S
C2254 C2252 1.353 . S
C2254 C2257 1.348 . S
C2254 H2286 0.929 . S
C2255 C2256 1.358 . S
C2255 C2257 1.356 . S
C2255 H2287 0.930 . S
C2256 N2253 1.279 . S
C2256 C2255 1.358 . S
C2256 H2259 0.930 . S
C2257 C2254 1.348 . S
C2257 C2255 1.356 . S
H2258 C2252 0.930 . S
H2259 C2256 0.930 . S
O2260 Li2200 1.956 . S
O2260 Li2201 1.970 . S
O2260 Li2202 1.961 . S
O2260 C2204 1.325 . S
O2261 Li2200 1.970 . S
O2261 Li2201 1.956 . S
O2261 Li2203 1.961 . S
O2261 C2210 1.325 . S
O2262 Li2200 1.961 . S
O2262 Li2202 1.956 . S
O2262 Li2203 1.970 . S
O2262 C2232 1.325 . S
O2263 Li2201 1.961 . S
O2263 Li2202 1.970 . S
O2263 Li2203 1.956 . S
O2263 C2238 1.325 . S
H2264 C2206 0.929 . S
H2265 C2207 0.930 . S
H2266 C2208 0.930 . S
H2267 C2209 0.930 . S
H2268 C2211 0.930 . S
H2269 C2213 0.929 . S
H2270 C2214 0.930 . S
H2271 C2215 0.930 . S
H2272 C2218 0.930 . S
H2273 C2221 0.929 . S
H2274 C2226 0.929 . S
H2275 C2227 0.930 . S
H2276 C2234 0.929 . S
H2277 C2235 0.930 . S
H2278 C2236 0.930 . S
H2279 C2237 0.930 . S
H2280 C2239 0.929 . S
H2281 C2240 0.930 . S
H2282 C2241 0.930 . S
H2283 C2242 0.930 . S
H2284 C2246 0.929 . S
H2285 C2248 0.930 . S
H2286 C2254 0.929 . S
H2287 C2255 0.930 . S
Li2288 N2305 1.990 . S
Li2288 O2348 1.947 1_556 S
Li2288 O2349 1.970 . S
Li2288 O2350 1.961 . S
Li2289 N2313 1.990 . S
Li2289 O2348 1.974 . S
Li2289 O2349 1.956 1_554 S
Li2289 O2351 1.961 1_554 S
Li2290 N2335 1.990 . S
Li2290 O2348 1.952 1_556 S
Li2290 O2350 1.956 . S
Li2290 O2351 1.970 . S
Li2291 N2341 1.990 . S
Li2291 O2349 1.961 . S
Li2291 O2350 1.970 . S
Li2291 O2351 1.956 . S
C2292 C2294 1.348 . S
C2292 C2295 1.356 . S
C2292 O2348 1.331 . S
N2293 C2296 1.314 . S
N2293 C2297 1.279 . S
C2294 C2292 1.348 . S
C2294 C2296 1.353 . S
C2294 H2352 0.929 . S
C2295 C2292 1.356 . S
C2295 C2297 1.358 . S
C2295 H2353 0.930 1_554 S
C2296 N2293 1.314 . S
C2296 C2294 1.353 . S
C2296 H2354 0.930 . S
C2297 N2293 1.279 . S
C2297 C2295 1.358 . S
C2297 H2355 0.930 . S
C2298 C2301 1.348 . S
C2298 C2302 1.361 . S
C2298 O2349 1.325 . S
C2299 N2300 1.279 . S
C2299 C2302 1.353 1_554 S
C2299 H2356 0.930 . S
N2300 C2299 1.279 . S
N2300 C2303 1.314 . S
C2301 C2298 1.348 . S
C2301 C2303 1.353 1_556 S
C2301 H2357 0.929 . S
C2302 C2298 1.361 . S
C2302 C2299 1.353 1_556 S
C2302 H2358 0.929 . S
C2303 N2300 1.314 . S
C2303 C2301 1.353 1_554 S
C2303 H2359 0.930 . S
C2304 N2305 1.314 . S
C2304 C2309 1.353 . S
C2304 H2310 0.930 . S
N2305 Li2288 1.990 . S
N2305 C2304 1.314 . S
N2305 C2307 1.279 . S
C2306 C2307 1.358 . S
C2306 C2308 1.356 . S
C2306 H2360 0.930 . S
C2307 N2305 1.279 . S
C2307 C2306 1.358 . S
C2307 H2311 0.930 . S
C2308 C2306 1.356 . S
C2308 C2309 1.348 . S
C2309 C2304 1.353 . S
C2309 C2308 1.348 . S
C2309 H2361 0.929 . S
H2310 C2304 0.930 . S
H2311 C2307 0.930 . S
C2312 N2313 1.314 . S
C2312 C2314 1.353 . S
C2312 H2318 0.930 . S
N2313 Li2289 1.990 . S
N2313 C2312 1.314 . S
N2313 C2316 1.279 . S
C2314 C2312 1.353 . S
C2314 C2317 1.348 . S
C2314 H2362 0.929 . S
C2315 C2316 1.358 . S
C2315 C2317 1.356 . S
C2315 H2363 0.930 . S
C2316 N2313 1.279 . S
C2316 C2315 1.358 . S
C2316 H2319 0.930 . S
C2317 C2314 1.348 . S
C2317 C2315 1.356 . S
H2318 C2312 0.930 . S
H2319 C2316 0.930 . S
C2320 C2322 1.348 . S
C2320 C2323 1.356 . S
C2320 O2350 1.325 . S
N2321 C2324 1.314 . S
N2321 C2325 1.279 . S
C2322 C2320 1.348 . S
C2322 C2324 1.353 . S
C2322 H2364 0.929 . S
C2323 C2320 1.356 . S
C2323 C2325 1.358 . S
C2323 H2365 0.930 . S
C2324 N2321 1.314 . S
C2324 C2322 1.353 . S
C2324 H2366 0.930 . S
C2325 N2321 1.279 . S
C2325 C2323 1.358 . S
C2325 H2367 0.930 . S
C2326 C2327 1.348 . S
C2326 C2328 1.356 1_556 S
C2326 O2351 1.325 . S
C2327 C2326 1.348 . S
C2327 C2329 1.353 . S
C2327 H2368 0.929 . S
C2328 C2326 1.356 1_554 S
C2328 C2330 1.358 . S
C2328 H2369 0.930 . S
C2329 C2327 1.353 . S
C2329 N2331 1.314 1_556 S
C2329 H2370 0.930 . S
C2330 C2328 1.358 . S
C2330 N2331 1.279 . S
C2330 H2371 0.930 . S
N2331 C2329 1.314 1_554 S
N2331 C2330 1.279 . S
C2332 C2334 1.353 . S
C2332 N2335 1.314 . S
C2332 H2338 0.931 1_556 S
C2333 N2335 1.279 . S
C2333 C2336 1.358 . S
C2333 H2339 0.930 . S
C2334 C2332 1.353 . S
C2334 C2337 1.348 . S
C2334 H2372 0.929 . S
N2335 Li2290 1.990 . S
N2335 C2332 1.314 . S
N2335 C2333 1.279 . S
C2336 C2333 1.358 . S
C2336 C2337 1.356 . S
C2336 H2373 0.930 . S
C2337 C2334 1.348 . S
C2337 C2336 1.356 . S
H2338 C2332 0.931 1_554 S
H2339 C2333 0.930 . S
C2340 N2341 1.314 . S
C2340 C2342 1.353 . S
C2340 H2346 0.930 . S
N2341 Li2291 1.990 . S
N2341 C2340 1.314 . S
N2341 C2344 1.279 . S
C2342 C2340 1.353 . S
C2342 C2345 1.348 . S
C2342 H2374 0.929 . S
C2343 C2344 1.358 . S
C2343 C2345 1.356 . S
C2343 H2375 0.930 . S
C2344 N2341 1.279 . S
C2344 C2343 1.358 . S
C2344 H2347 0.930 . S
C2345 C2342 1.348 . S
C2345 C2343 1.356 . S
H2346 C2340 0.930 . S
H2347 C2344 0.930 . S
O2348 Li2288 1.947 1_554 S
O2348 Li2289 1.974 . S
O2348 Li2290 1.952 1_554 S
O2348 C2292 1.331 . S
O2349 Li2288 1.970 . S
O2349 Li2289 1.956 1_556 S
O2349 Li2291 1.961 . S
O2349 C2298 1.325 . S
O2350 Li2288 1.961 . S
O2350 Li2290 1.956 . S
O2350 Li2291 1.970 . S
O2350 C2320 1.325 . S
O2351 Li2289 1.961 1_556 S
O2351 Li2290 1.970 . S
O2351 Li2291 1.956 . S
O2351 C2326 1.325 . S
H2352 C2294 0.929 . S
H2353 C2295 0.930 1_556 S
H2354 C2296 0.930 . S
H2355 C2297 0.930 . S
H2356 C2299 0.930 . S
H2357 C2301 0.929 . S
H2358 C2302 0.929 . S
H2359 C2303 0.930 . S
H2360 C2306 0.930 . S
H2361 C2309 0.929 . S
H2362 C2314 0.929 . S
H2363 C2315 0.930 . S
H2364 C2322 0.929 . S
H2365 C2323 0.930 . S
H2366 C2324 0.930 . S
H2367 C2325 0.930 . S
H2368 C2327 0.929 . S
H2369 C2328 0.930 . S
H2370 C2329 0.930 . S
H2371 C2330 0.930 . S
H2372 C2334 0.929 . S
H2373 C2336 0.930 . S
H2374 C2342 0.929 . S
H2375 C2343 0.930 . S
Li2376 N2393 1.990 . S
Li2376 O2436 1.956 1_554 S
Li2376 O2437 1.974 . S
Li2376 O2438 1.961 1_554 S
Li2377 N2401 1.990 . S
Li2377 O2436 1.970 . S
Li2377 O2437 1.947 1_556 S
Li2377 O2439 1.961 . S
Li2378 N2423 1.990 . S
Li2378 O2436 1.961 . S
Li2378 O2438 1.956 . S
Li2378 O2439 1.970 . S
Li2379 N2429 1.990 . S
Li2379 O2437 1.952 1_556 S
Li2379 O2438 1.970 . S
Li2379 O2439 1.956 . S
C2380 C2382 1.348 . S
C2380 C2383 1.361 . S
C2380 O2436 1.325 . S
N2381 C2384 1.314 . S
N2381 C2385 1.279 . S
C2382 C2380 1.348 . S
C2382 C2384 1.353 1_556 S
C2382 H2440 0.929 . S
C2383 C2380 1.361 . S
C2383 C2385 1.353 1_556 S
C2383 H2441 0.929 . S
C2384 N2381 1.314 . S
C2384 C2382 1.353 1_554 S
C2384 H2442 0.930 . S
C2385 N2381 1.279 . S
C2385 C2383 1.353 1_554 S
C2385 H2443 0.930 . S
C2386 C2389 1.348 . S
C2386 C2390 1.356 . S
C2386 O2437 1.331 . S
C2387 N2388 1.279 . S
C2387 C2390 1.358 . S
C2387 H2444 0.930 . S
N2388 C2387 1.279 . S
N2388 C2391 1.314 . S
C2389 C2386 1.348 . S
C2389 C2391 1.353 . S
C2389 H2445 0.929 . S
C2390 C2386 1.356 . S
C2390 C2387 1.358 . S
C2390 H2446 0.930 1_554 S
C2391 N2388 1.314 . S
C2391 C2389 1.353 . S
C2391 H2447 0.930 . S
C2392 N2393 1.314 . S
C2392 C2397 1.353 . S
C2392 H2398 0.930 . S
N2393 Li2376 1.990 . S
N2393 C2392 1.314 . S
N2393 C2395 1.279 . S
C2394 C2395 1.358 . S
C2394 C2396 1.356 . S
C2394 H2448 0.930 . S
C2395 N2393 1.279 . S
C2395 C2394 1.358 . S
C2395 H2399 0.930 . S
C2396 C2394 1.356 . S
C2396 C2397 1.348 . S
C2397 C2392 1.353 . S
C2397 C2396 1.348 . S
C2397 H2449 0.929 . S
H2398 C2392 0.930 . S
H2399 C2395 0.930 . S
C2400 N2401 1.314 . S
C2400 C2402 1.353 . S
C2400 H2406 0.930 . S
N2401 Li2377 1.990 . S
N2401 C2400 1.314 . S
N2401 C2404 1.279 . S
C2402 C2400 1.353 . S
C2402 C2405 1.348 . S
C2402 H2450 0.929 . S
C2403 C2404 1.358 . S
C2403 C2405 1.356 . S
C2403 H2451 0.930 . S
C2404 N2401 1.279 . S
C2404 C2403 1.358 . S
C2404 H2407 0.930 . S
C2405 C2402 1.348 . S
C2405 C2403 1.356 . S
H2406 C2400 0.930 . S
H2407 C2404 0.930 . S
C2408 C2410 1.348 . S
C2408 C2411 1.356 1_556 S
C2408 O2438 1.325 . S
N2409 C2412 1.314 1_554 S
N2409 C2413 1.279 . S
C2410 C2408 1.348 . S
C2410 C2412 1.353 . S
C2410 H2452 0.929 . S
C2411 C2408 1.356 1_554 S
C2411 C2413 1.358 . S
C2411 H2453 0.930 . S
C2412 N2409 1.314 1_556 S
C2412 C2410 1.353 . S
C2412 H2454 0.930 . S
C2413 N2409 1.279 . S
C2413 C2411 1.358 . S
C2413 H2455 0.930 . S
C2414 C2415 1.348 . S
C2414 C2416 1.356 . S
C2414 O2439 1.325 . S
C2415 C2414 1.348 . S
C2415 C2417 1.353 . S
C2415 H2456 0.929 . S
C2416 C2414 1.356 . S
C2416 C2418 1.358 . S
C2416 H2457 0.930 . S
C2417 C2415 1.353 . S
C2417 N2419 1.314 . S
C2417 H2458 0.930 . S
C2418 C2416 1.358 . S
C2418 N2419 1.279 . S
C2418 H2459 0.930 . S
N2419 C2417 1.314 . S
N2419 C2418 1.279 . S
C2420 C2422 1.353 . S
C2420 N2423 1.314 . S
C2420 H2426 0.930 . S
C2421 N2423 1.279 . S
C2421 C2424 1.358 . S
C2421 H2427 0.930 . S
C2422 C2420 1.353 . S
C2422 C2425 1.348 . S
C2422 H2460 0.929 . S
N2423 Li2378 1.990 . S
N2423 C2420 1.314 . S
N2423 C2421 1.279 . S
C2424 C2421 1.358 . S
C2424 C2425 1.356 . S
C2424 H2461 0.930 . S
C2425 C2422 1.348 . S
C2425 C2424 1.356 . S
H2426 C2420 0.930 . S
H2427 C2421 0.930 . S
C2428 N2429 1.314 . S
C2428 C2430 1.353 . S
C2428 H2434 0.931 1_556 S
N2429 Li2379 1.990 . S
N2429 C2428 1.314 . S
N2429 C2432 1.279 . S
C2430 C2428 1.353 . S
C2430 C2433 1.348 . S
C2430 H2462 0.929 . S
C2431 C2432 1.358 . S
C2431 C2433 1.356 . S
C2431 H2463 0.930 . S
C2432 N2429 1.279 . S
C2432 C2431 1.358 . S
C2432 H2435 0.930 . S
C2433 C2430 1.348 . S
C2433 C2431 1.356 . S
H2434 C2428 0.931 1_554 S
H2435 C2432 0.930 . S
O2436 Li2376 1.956 1_556 S
O2436 Li2377 1.970 . S
O2436 Li2378 1.961 . S
O2436 C2380 1.325 . S
O2437 Li2376 1.974 . S
O2437 Li2377 1.947 1_554 S
O2437 Li2379 1.952 1_554 S
O2437 C2386 1.331 . S
O2438 Li2376 1.961 1_556 S
O2438 Li2378 1.956 . S
O2438 Li2379 1.970 . S
O2438 C2408 1.325 . S
O2439 Li2377 1.961 . S
O2439 Li2378 1.970 . S
O2439 Li2379 1.956 . S
O2439 C2414 1.325 . S
H2440 C2382 0.929 . S
H2441 C2383 0.929 . S
H2442 C2384 0.930 . S
H2443 C2385 0.930 . S
H2444 C2387 0.930 . S
H2445 C2389 0.929 . S
H2446 C2390 0.930 1_556 S
H2447 C2391 0.930 . S
H2448 C2394 0.930 . S
H2449 C2397 0.929 . S
H2450 C2402 0.929 . S
H2451 C2403 0.930 . S
H2452 C2410 0.929 . S
H2453 C2411 0.930 . S
H2454 C2412 0.930 . S
H2455 C2413 0.930 . S
H2456 C2415 0.929 . S
H2457 C2416 0.930 . S
H2458 C2417 0.930 . S
H2459 C2418 0.930 . S
H2460 C2422 0.929 . S
H2461 C2424 0.930 . S
H2462 C2430 0.929 . S
H2463 C2431 0.930 . S
Li2464 N2481 1.990 . S
Li2464 O2524 1.956 . S
Li2464 O2525 1.970 . S
Li2464 O2526 1.961 . S
Li2465 N2489 1.990 . S
Li2465 O2524 1.970 . S
Li2465 O2525 1.956 . S
Li2465 O2527 1.961 . S
Li2466 N2511 1.990 . S
Li2466 O2524 1.961 . S
Li2466 O2526 1.956 . S
Li2466 O2527 1.970 . S
Li2467 N2517 1.990 . S
Li2467 O2525 1.961 . S
Li2467 O2526 1.970 . S
Li2467 O2527 1.956 . S
C2468 C2470 1.348 . S
C2468 C2471 1.356 . S
C2468 O2524 1.325 . S
N2469 C2472 1.314 . S
N2469 C2473 1.279 . S
C2470 C2468 1.348 . S
C2470 C2472 1.353 . S
C2470 H2528 0.929 . S
C2471 C2468 1.356 . S
C2471 C2473 1.358 . S
C2471 H2529 0.930 . S
C2472 N2469 1.314 . S
C2472 C2470 1.353 . S
C2472 H2530 0.930 . S
C2473 N2469 1.279 . S
C2473 C2471 1.358 . S
C2473 H2531 0.930 . S
C2474 C2477 1.348 . S
C2474 C2478 1.356 . S
C2474 O2525 1.325 . S
C2475 N2476 1.279 . S
C2475 C2478 1.358 . S
C2475 H2532 0.930 . S
N2476 C2475 1.279 . S
N2476 C2479 1.314 . S
C2477 C2474 1.348 . S
C2477 C2479 1.353 . S
C2477 H2533 0.929 . S
C2478 C2474 1.356 . S
C2478 C2475 1.358 . S
C2478 H2534 0.930 . S
C2479 N2476 1.314 . S
C2479 C2477 1.353 . S
C2479 H2535 0.930 . S
C2480 N2481 1.314 . S
C2480 C2485 1.353 . S
C2480 H2486 0.930 . S
N2481 Li2464 1.990 . S
N2481 C2480 1.314 . S
N2481 C2483 1.279 . S
C2482 C2483 1.358 . S
C2482 C2484 1.356 . S
C2482 H2536 0.930 . S
C2483 N2481 1.279 . S
C2483 C2482 1.358 . S
C2483 H2487 0.930 . S
C2484 C2482 1.356 . S
C2484 C2485 1.348 . S
C2485 C2480 1.353 . S
C2485 C2484 1.348 . S
C2485 H2537 0.929 . S
H2486 C2480 0.930 . S
H2487 C2483 0.930 . S
C2488 N2489 1.314 . S
C2488 C2490 1.353 . S
C2488 H2494 0.930 . S
N2489 Li2465 1.990 . S
N2489 C2488 1.314 . S
N2489 C2492 1.279 . S
C2490 C2488 1.353 . S
C2490 C2493 1.348 . S
C2490 H2538 0.929 . S
C2491 C2492 1.358 . S
C2491 C2493 1.356 . S
C2491 H2539 0.930 . S
C2492 N2489 1.279 . S
C2492 C2491 1.358 . S
C2492 H2495 0.930 . S
C2493 C2490 1.348 . S
C2493 C2491 1.356 . S
H2494 C2488 0.930 . S
H2495 C2492 0.930 . S
C2496 C2498 1.348 . S
C2496 C2499 1.356 . S
C2496 O2526 1.325 . S
N2497 C2500 1.314 . S
N2497 C2501 1.279 . S
C2498 C2496 1.348 . S
C2498 C2500 1.353 . S
C2498 H2540 0.929 . S
C2499 C2496 1.356 . S
C2499 C2501 1.358 . S
C2499 H2541 0.930 . S
C2500 N2497 1.314 . S
C2500 C2498 1.353 . S
C2500 H2542 0.930 . S
C2501 N2497 1.279 . S
C2501 C2499 1.358 . S
C2501 H2543 0.930 . S
C2502 C2503 1.348 . S
C2502 C2504 1.356 . S
C2502 O2527 1.325 . S
C2503 C2502 1.348 . S
C2503 C2505 1.353 . S
C2503 H2544 0.929 . S
C2504 C2502 1.356 . S
C2504 C2506 1.358 . S
C2504 H2545 0.930 . S
C2505 C2503 1.353 . S
C2505 N2507 1.314 . S
C2505 H2546 0.930 . S
C2506 C2504 1.358 . S
C2506 N2507 1.279 . S
C2506 H2547 0.930 . S
N2507 C2505 1.314 . S
N2507 C2506 1.279 . S
C2508 C2510 1.353 . S
C2508 N2511 1.314 . S
C2508 H2514 0.930 . S
C2509 N2511 1.279 . S
C2509 C2512 1.358 . S
C2509 H2515 0.930 . S
C2510 C2508 1.353 . S
C2510 C2513 1.348 . S
C2510 H2548 0.929 . S
N2511 Li2466 1.990 . S
N2511 C2508 1.314 . S
N2511 C2509 1.279 . S
C2512 C2509 1.358 . S
C2512 C2513 1.356 . S
C2512 H2549 0.930 . S
C2513 C2510 1.348 . S
C2513 C2512 1.356 . S
H2514 C2508 0.930 . S
H2515 C2509 0.930 . S
C2516 N2517 1.314 . S
C2516 C2518 1.353 . S
C2516 H2522 0.930 . S
N2517 Li2467 1.990 . S
N2517 C2516 1.314 . S
N2517 C2520 1.279 . S
C2518 C2516 1.353 . S
C2518 C2521 1.348 . S
C2518 H2550 0.929 . S
C2519 C2520 1.358 . S
C2519 C2521 1.356 . S
C2519 H2551 0.930 . S
C2520 N2517 1.279 . S
C2520 C2519 1.358 . S
C2520 H2523 0.930 . S
C2521 C2518 1.348 . S
C2521 C2519 1.356 . S
H2522 C2516 0.930 . S
H2523 C2520 0.930 . S
O2524 Li2464 1.956 . S
O2524 Li2465 1.970 . S
O2524 Li2466 1.961 . S
O2524 C2468 1.325 . S
O2525 Li2464 1.970 . S
O2525 Li2465 1.956 . S
O2525 Li2467 1.961 . S
O2525 C2474 1.325 . S
O2526 Li2464 1.961 . S
O2526 Li2466 1.956 . S
O2526 Li2467 1.970 . S
O2526 C2496 1.325 . S
O2527 Li2465 1.961 . S
O2527 Li2466 1.970 . S
O2527 Li2467 1.956 . S
O2527 C2502 1.325 . S
H2528 C2470 0.929 . S
H2529 C2471 0.930 . S
H2530 C2472 0.930 . S
H2531 C2473 0.930 . S
H2532 C2475 0.930 . S
H2533 C2477 0.929 . S
H2534 C2478 0.930 . S
H2535 C2479 0.930 . S
H2536 C2482 0.930 . S
H2537 C2485 0.929 . S
H2538 C2490 0.929 . S
H2539 C2491 0.930 . S
H2540 C2498 0.929 . S
H2541 C2499 0.930 . S
H2542 C2500 0.930 . S
H2543 C2501 0.930 . S
H2544 C2503 0.929 . S
H2545 C2504 0.930 . S
H2546 C2505 0.930 . S
H2547 C2506 0.930 . S
H2548 C2510 0.929 . S
H2549 C2512 0.930 . S
H2550 C2518 0.929 . S
H2551 C2519 0.930 . S
Li2552 N2569 1.990 . S
Li2552 O2612 1.956 . S
Li2552 O2613 1.970 . S
Li2552 O2614 1.961 . S
Li2553 N2577 1.990 . S
Li2553 O2612 1.970 . S
Li2553 O2613 1.956 . S
Li2553 O2615 1.961 . S
Li2554 N2599 1.990 . S
Li2554 O2612 1.961 . S
Li2554 O2614 1.956 . S
Li2554 O2615 1.970 . S
Li2555 N2605 1.990 . S
Li2555 O2613 1.961 . S
Li2555 O2614 1.970 . S
Li2555 O2615 1.956 . S
C2556 C2558 1.348 . S
C2556 C2559 1.356 . S
C2556 O2612 1.325 . S
N2557 C2560 1.314 . S
N2557 C2561 1.279 . S
C2558 C2556 1.348 . S
C2558 C2560 1.353 . S
C2558 H2616 0.929 . S
C2559 C2556 1.356 . S
C2559 C2561 1.358 . S
C2559 H2617 0.930 . S
C2560 N2557 1.314 . S
C2560 C2558 1.353 . S
C2560 H2618 0.930 . S
C2561 N2557 1.279 . S
C2561 C2559 1.358 . S
C2561 H2619 0.930 . S
C2562 C2565 1.348 . S
C2562 C2566 1.356 . S
C2562 O2613 1.325 . S
C2563 N2564 1.279 . S
C2563 C2566 1.358 . S
C2563 H2620 0.930 . S
N2564 C2563 1.279 . S
N2564 C2567 1.314 . S
C2565 C2562 1.348 . S
C2565 C2567 1.353 . S
C2565 H2621 0.929 . S
C2566 C2562 1.356 . S
C2566 C2563 1.358 . S
C2566 H2622 0.930 . S
C2567 N2564 1.314 . S
C2567 C2565 1.353 . S
C2567 H2623 0.930 . S
C2568 N2569 1.314 . S
C2568 C2573 1.353 . S
C2568 H2574 0.930 . S
N2569 Li2552 1.990 . S
N2569 C2568 1.314 . S
N2569 C2571 1.279 . S
C2570 C2571 1.358 . S
C2570 C2572 1.356 . S
C2570 H2624 0.930 . S
C2571 N2569 1.279 . S
C2571 C2570 1.358 . S
C2571 H2575 0.930 . S
C2572 C2570 1.356 . S
C2572 C2573 1.348 . S
C2573 C2568 1.353 . S
C2573 C2572 1.348 . S
C2573 H2625 0.929 . S
H2574 C2568 0.930 . S
H2575 C2571 0.930 . S
C2576 N2577 1.314 . S
C2576 C2578 1.353 . S
C2576 H2582 0.930 . S
N2577 Li2553 1.990 . S
N2577 C2576 1.314 . S
N2577 C2580 1.279 . S
C2578 C2576 1.353 . S
C2578 C2581 1.348 . S
C2578 H2626 0.929 . S
C2579 C2580 1.358 . S
C2579 C2581 1.356 . S
C2579 H2627 0.930 . S
C2580 N2577 1.279 . S
C2580 C2579 1.358 . S
C2580 H2583 0.930 . S
C2581 C2578 1.348 . S
C2581 C2579 1.356 . S
H2582 C2576 0.930 . S
H2583 C2580 0.930 . S
C2584 C2586 1.348 . S
C2584 C2587 1.356 . S
C2584 O2614 1.325 . S
N2585 C2588 1.314 . S
N2585 C2589 1.279 . S
C2586 C2584 1.348 . S
C2586 C2588 1.353 . S
C2586 H2628 0.929 . S
C2587 C2584 1.356 . S
C2587 C2589 1.358 . S
C2587 H2629 0.930 . S
C2588 N2585 1.314 . S
C2588 C2586 1.353 . S
C2588 H2630 0.930 . S
C2589 N2585 1.279 . S
C2589 C2587 1.358 . S
C2589 H2631 0.930 . S
C2590 C2591 1.348 . S
C2590 C2592 1.356 . S
C2590 O2615 1.325 . S
C2591 C2590 1.348 . S
C2591 C2593 1.353 . S
C2591 H2632 0.929 . S
C2592 C2590 1.356 . S
C2592 C2594 1.358 . S
C2592 H2633 0.930 . S
C2593 C2591 1.353 . S
C2593 N2595 1.314 . S
C2593 H2634 0.930 . S
C2594 C2592 1.358 . S
C2594 N2595 1.279 . S
C2594 H2635 0.930 . S
N2595 C2593 1.314 . S
N2595 C2594 1.279 . S
C2596 C2598 1.353 . S
C2596 N2599 1.314 . S
C2596 H2602 0.930 . S
C2597 N2599 1.279 . S
C2597 C2600 1.358 . S
C2597 H2603 0.930 . S
C2598 C2596 1.353 . S
C2598 C2601 1.348 . S
C2598 H2636 0.929 . S
N2599 Li2554 1.990 . S
N2599 C2596 1.314 . S
N2599 C2597 1.279 . S
C2600 C2597 1.358 . S
C2600 C2601 1.356 . S
C2600 H2637 0.930 . S
C2601 C2598 1.348 . S
C2601 C2600 1.356 . S
H2602 C2596 0.930 . S
H2603 C2597 0.930 . S
C2604 N2605 1.314 . S
C2604 C2606 1.353 . S
C2604 H2610 0.930 . S
N2605 Li2555 1.990 . S
N2605 C2604 1.314 . S
N2605 C2608 1.279 . S
C2606 C2604 1.353 . S
C2606 C2609 1.348 . S
C2606 H2638 0.929 . S
C2607 C2608 1.358 . S
C2607 C2609 1.356 . S
C2607 H2639 0.930 . S
C2608 N2605 1.279 . S
C2608 C2607 1.358 . S
C2608 H2611 0.930 . S
C2609 C2606 1.348 . S
C2609 C2607 1.356 . S
H2610 C2604 0.930 . S
H2611 C2608 0.930 . S
O2612 Li2552 1.956 . S
O2612 Li2553 1.970 . S
O2612 Li2554 1.961 . S
O2612 C2556 1.325 . S
O2613 Li2552 1.970 . S
O2613 Li2553 1.956 . S
O2613 Li2555 1.961 . S
O2613 C2562 1.325 . S
O2614 Li2552 1.961 . S
O2614 Li2554 1.956 . S
O2614 Li2555 1.970 . S
O2614 C2584 1.325 . S
O2615 Li2553 1.961 . S
O2615 Li2554 1.970 . S
O2615 Li2555 1.956 . S
O2615 C2590 1.325 . S
H2616 C2558 0.929 . S
H2617 C2559 0.930 . S
H2618 C2560 0.930 . S
H2619 C2561 0.930 . S
H2620 C2563 0.930 . S
H2621 C2565 0.929 . S
H2622 C2566 0.930 . S
H2623 C2567 0.930 . S
H2624 C2570 0.930 . S
H2625 C2573 0.929 . S
H2626 C2578 0.929 . S
H2627 C2579 0.930 . S
H2628 C2586 0.929 . S
H2629 C2587 0.930 . S
H2630 C2588 0.930 . S
H2631 C2589 0.930 . S
H2632 C2591 0.929 . S
H2633 C2592 0.930 . S
H2634 C2593 0.930 . S
H2635 C2594 0.930 . S
H2636 C2598 0.929 . S
H2637 C2600 0.930 . S
H2638 C2606 0.929 . S
H2639 C2607 0.930 . S
Li2640 N2657 1.990 . S
Li2640 O2700 1.956 . S
Li2640 O2701 1.970 . S
Li2640 O2702 1.959 . S
Li2641 N2665 1.990 . S
Li2641 O2700 1.970 . S
Li2641 O2701 1.956 . S
Li2641 O2703 1.961 . S
Li2642 N2687 1.990 . S
Li2642 O2700 1.961 . S
Li2642 O2702 1.954 . S
Li2642 O2703 1.970 . S
Li2643 N2693 1.990 . S
Li2643 O2701 1.961 1_556 S
Li2643 O2702 1.971 1_556 S
Li2643 O2703 1.956 1_556 S
C2644 C2646 1.348 . S
C2644 C2647 1.356 . S
C2644 O2700 1.325 . S
N2645 C2648 1.314 . S
N2645 C2649 1.279 . S
C2646 C2644 1.348 . S
C2646 C2648 1.353 . S
C2646 H2704 0.929 . S
C2647 C2644 1.356 . S
C2647 C2649 1.358 . S
C2647 H2705 0.930 . S
C2648 N2645 1.314 . S
C2648 C2646 1.353 . S
C2648 H2706 0.930 . S
C2649 N2645 1.279 . S
C2649 C2647 1.358 . S
C2649 H2707 0.930 . S
C2650 C2653 1.348 . S
C2650 C2654 1.356 1_554 S
C2650 O2701 1.325 . S
C2651 N2652 1.279 . S
C2651 C2654 1.358 . S
C2651 H2708 0.930 . S
N2652 C2651 1.279 . S
N2652 C2655 1.314 1_556 S
C2653 C2650 1.348 . S
C2653 C2655 1.353 . S
C2653 H2709 0.929 . S
C2654 C2650 1.356 1_556 S
C2654 C2651 1.358 . S
C2654 H2710 0.930 . S
C2655 N2652 1.314 1_554 S
C2655 C2653 1.353 . S
C2655 H2711 0.930 . S
C2656 N2657 1.314 . S
C2656 C2661 1.353 . S
C2656 H2662 0.930 . S
N2657 Li2640 1.990 . S
N2657 C2656 1.314 . S
N2657 C2659 1.279 . S
C2658 C2659 1.358 . S
C2658 C2660 1.356 . S
C2658 H2712 0.930 . S
C2659 N2657 1.279 . S
C2659 C2658 1.358 . S
C2659 H2663 0.930 . S
C2660 C2658 1.356 . S
C2660 C2661 1.348 . S
C2661 C2656 1.353 . S
C2661 C2660 1.348 . S
C2661 H2713 0.929 . S
H2662 C2656 0.930 . S
H2663 C2659 0.930 . S
C2664 N2665 1.314 . S
C2664 C2666 1.353 . S
C2664 H2670 0.930 . S
N2665 Li2641 1.990 . S
N2665 C2664 1.314 . S
N2665 C2668 1.279 . S
C2666 C2664 1.353 . S
C2666 C2669 1.348 . S
C2666 H2714 0.929 . S
C2667 C2668 1.358 . S
C2667 C2669 1.356 . S
C2667 H2715 0.930 . S
C2668 N2665 1.279 . S
C2668 C2667 1.358 . S
C2668 H2671 0.930 . S
C2669 C2666 1.348 . S
C2669 C2667 1.356 . S
H2670 C2664 0.930 . S
H2671 C2668 0.930 . S
C2672 C2674 1.348 . S
C2672 C2675 1.356 . S
C2672 O2702 1.326 1_556 S
N2673 C2676 1.314 . S
N2673 C2677 1.279 . S
C2674 C2672 1.348 . S
C2674 C2676 1.353 . S
C2674 H2716 0.929 . S
C2675 C2672 1.356 . S
C2675 C2677 1.358 . S
C2675 H2717 0.930 1_556 S
C2676 N2673 1.314 . S
C2676 C2674 1.353 . S
C2676 H2718 0.930 . S
C2677 N2673 1.279 . S
C2677 C2675 1.358 . S
C2677 H2719 0.930 . S
C2678 C2679 1.350 . S
C2678 C2680 1.347 1_554 S
C2678 O2703 1.325 . S
C2679 C2678 1.350 . S
C2679 C2681 1.349 1_554 S
C2679 H2720 0.931 . S
C2680 C2678 1.347 1_556 S
C2680 C2682 1.370 . S
C2680 H2721 0.929 . S
C2681 C2679 1.349 1_556 S
C2681 N2683 1.314 . S
C2681 H2722 0.930 . S
C2682 C2680 1.370 . S
C2682 N2683 1.279 . S
C2682 H2723 0.930 . S
N2683 C2681 1.314 . S
N2683 C2682 1.279 . S
C2684 C2686 1.353 . S
C2684 N2687 1.314 . S
C2684 H2690 0.930 . S
C2685 N2687 1.279 . S
C2685 C2688 1.358 . S
C2685 H2691 0.930 . S
C2686 C2684 1.353 . S
C2686 C2689 1.348 . S
C2686 H2724 0.929 . S
N2687 Li2642 1.990 . S
N2687 C2684 1.314 . S
N2687 C2685 1.279 . S
C2688 C2685 1.358 . S
C2688 C2689 1.356 . S
C2688 H2725 0.930 . S
C2689 C2686 1.348 . S
C2689 C2688 1.356 . S
H2690 C2684 0.930 . S
H2691 C2685 0.930 . S
C2692 N2693 1.314 . S
C2692 C2694 1.353 . S
C2692 H2698 0.930 . S
N2693 Li2643 1.990 . S
N2693 C2692 1.314 . S
N2693 C2696 1.279 . S
C2694 C2692 1.353 . S
C2694 C2697 1.348 . S
C2694 H2726 0.929 . S
C2695 C2696 1.358 . S
C2695 C2697 1.356 . S
C2695 H2727 0.930 . S
C2696 N2693 1.279 . S
C2696 C2695 1.358 . S
C2696 H2699 0.930 . S
C2697 C2694 1.348 . S
C2697 C2695 1.356 . S
H2698 C2692 0.930 . S
H2699 C2696 0.930 . S
O2700 Li2640 1.956 . S
O2700 Li2641 1.970 . S
O2700 Li2642 1.961 . S
O2700 C2644 1.325 . S
O2701 Li2640 1.970 . S
O2701 Li2641 1.956 . S
O2701 Li2643 1.961 1_554 S
O2701 C2650 1.325 . S
O2702 Li2640 1.959 . S
O2702 Li2642 1.954 . S
O2702 Li2643 1.971 1_554 S
O2702 C2672 1.326 1_554 S
O2703 Li2641 1.961 . S
O2703 Li2642 1.970 . S
O2703 Li2643 1.956 1_554 S
O2703 C2678 1.325 . S
H2704 C2646 0.929 . S
H2705 C2647 0.930 . S
H2706 C2648 0.930 . S
H2707 C2649 0.930 . S
H2708 C2651 0.930 . S
H2709 C2653 0.929 . S
H2710 C2654 0.930 . S
H2711 C2655 0.930 . S
H2712 C2658 0.930 . S
H2713 C2661 0.929 . S
H2714 C2666 0.929 . S
H2715 C2667 0.930 . S
H2716 C2674 0.929 . S
H2717 C2675 0.930 1_554 S
H2718 C2676 0.930 . S
H2719 C2677 0.930 . S
H2720 C2679 0.931 . S
H2721 C2680 0.929 . S
H2722 C2681 0.930 . S
H2723 C2682 0.930 . S
H2724 C2686 0.929 . S
H2725 C2688 0.930 . S
H2726 C2694 0.929 . S
H2727 C2695 0.930 . S
Li2728 N2745 1.990 . S
Li2728 O2788 1.956 . S
Li2728 O2789 1.970 . S
Li2728 O2790 1.959 . S
Li2729 N2753 1.990 . S
Li2729 O2788 1.970 . S
Li2729 O2789 1.956 . S
Li2729 O2791 1.961 . S
Li2730 N2775 1.990 . S
Li2730 O2788 1.961 . S
Li2730 O2790 1.954 . S
Li2730 O2791 1.970 . S
Li2731 N2781 1.990 . S
Li2731 O2789 1.961 1_556 S
Li2731 O2790 1.971 1_556 S
Li2731 O2791 1.956 1_556 S
C2732 C2734 1.348 . S
C2732 C2735 1.356 . S
C2732 O2788 1.325 . S
N2733 C2736 1.314 . S
N2733 C2737 1.279 . S
C2734 C2732 1.348 . S
C2734 C2736 1.353 . S
C2734 H2792 0.929 . S
C2735 C2732 1.356 . S
C2735 C2737 1.358 . S
C2735 H2793 0.930 . S
C2736 N2733 1.314 . S
C2736 C2734 1.353 . S
C2736 H2794 0.930 . S
C2737 N2733 1.279 . S
C2737 C2735 1.358 . S
C2737 H2795 0.930 . S
C2738 C2741 1.348 . S
C2738 C2742 1.356 1_554 S
C2738 O2789 1.325 . S
C2739 N2740 1.279 . S
C2739 C2742 1.358 . S
C2739 H2796 0.930 . S
N2740 C2739 1.279 . S
N2740 C2743 1.314 1_556 S
C2741 C2738 1.348 . S
C2741 C2743 1.353 . S
C2741 H2797 0.929 . S
C2742 C2738 1.356 1_556 S
C2742 C2739 1.358 . S
C2742 H2798 0.930 . S
C2743 N2740 1.314 1_554 S
C2743 C2741 1.353 . S
C2743 H2799 0.930 . S
C2744 N2745 1.314 . S
C2744 C2749 1.353 . S
C2744 H2750 0.930 . S
N2745 Li2728 1.990 . S
N2745 C2744 1.314 . S
N2745 C2747 1.279 . S
C2746 C2747 1.358 . S
C2746 C2748 1.356 . S
C2746 H2800 0.930 . S
C2747 N2745 1.279 . S
C2747 C2746 1.358 . S
C2747 H2751 0.930 . S
C2748 C2746 1.356 . S
C2748 C2749 1.348 . S
C2749 C2744 1.353 . S
C2749 C2748 1.348 . S
C2749 H2801 0.929 . S
H2750 C2744 0.930 . S
H2751 C2747 0.930 . S
C2752 N2753 1.314 . S
C2752 C2754 1.353 . S
C2752 H2758 0.930 . S
N2753 Li2729 1.990 . S
N2753 C2752 1.314 . S
N2753 C2756 1.279 . S
C2754 C2752 1.353 . S
C2754 C2757 1.348 . S
C2754 H2802 0.929 . S
C2755 C2756 1.358 . S
C2755 C2757 1.356 . S
C2755 H2803 0.930 . S
C2756 N2753 1.279 . S
C2756 C2755 1.358 . S
C2756 H2759 0.930 . S
C2757 C2754 1.348 . S
C2757 C2755 1.356 . S
H2758 C2752 0.930 . S
H2759 C2756 0.930 . S
C2760 C2762 1.348 . S
C2760 C2763 1.356 . S
C2760 O2790 1.326 1_556 S
N2761 C2764 1.314 . S
N2761 C2765 1.279 . S
C2762 C2760 1.348 . S
C2762 C2764 1.353 . S
C2762 H2804 0.929 . S
C2763 C2760 1.356 . S
C2763 C2765 1.358 . S
C2763 H2805 0.930 1_556 S
C2764 N2761 1.314 . S
C2764 C2762 1.353 . S
C2764 H2806 0.930 . S
C2765 N2761 1.279 . S
C2765 C2763 1.358 . S
C2765 H2807 0.930 . S
C2766 C2767 1.350 . S
C2766 C2768 1.347 1_554 S
C2766 O2791 1.325 . S
C2767 C2766 1.350 . S
C2767 C2769 1.349 1_554 S
C2767 H2808 0.931 . S
C2768 C2766 1.347 1_556 S
C2768 C2770 1.370 . S
C2768 H2809 0.929 . S
C2769 C2767 1.349 1_556 S
C2769 N2771 1.314 . S
C2769 H2810 0.930 . S
C2770 C2768 1.370 . S
C2770 N2771 1.279 . S
C2770 H2811 0.930 . S
N2771 C2769 1.314 . S
N2771 C2770 1.279 . S
C2772 C2774 1.353 . S
C2772 N2775 1.314 . S
C2772 H2778 0.930 . S
C2773 N2775 1.279 . S
C2773 C2776 1.358 . S
C2773 H2779 0.930 . S
C2774 C2772 1.353 . S
C2774 C2777 1.348 . S
C2774 H2812 0.929 . S
N2775 Li2730 1.990 . S
N2775 C2772 1.314 . S
N2775 C2773 1.279 . S
C2776 C2773 1.358 . S
C2776 C2777 1.356 . S
C2776 H2813 0.930 . S
C2777 C2774 1.348 . S
C2777 C2776 1.356 . S
H2778 C2772 0.930 . S
H2779 C2773 0.930 . S
C2780 N2781 1.314 . S
C2780 C2782 1.353 . S
C2780 H2786 0.930 . S
N2781 Li2731 1.990 . S
N2781 C2780 1.314 . S
N2781 C2784 1.279 . S
C2782 C2780 1.353 . S
C2782 C2785 1.348 . S
C2782 H2814 0.929 . S
C2783 C2784 1.358 . S
C2783 C2785 1.356 . S
C2783 H2815 0.930 . S
C2784 N2781 1.279 . S
C2784 C2783 1.358 . S
C2784 H2787 0.930 . S
C2785 C2782 1.348 . S
C2785 C2783 1.356 . S
H2786 C2780 0.930 . S
H2787 C2784 0.930 . S
O2788 Li2728 1.956 . S
O2788 Li2729 1.970 . S
O2788 Li2730 1.961 . S
O2788 C2732 1.325 . S
O2789 Li2728 1.970 . S
O2789 Li2729 1.956 . S
O2789 Li2731 1.961 1_554 S
O2789 C2738 1.325 . S
O2790 Li2728 1.959 . S
O2790 Li2730 1.954 . S
O2790 Li2731 1.971 1_554 S
O2790 C2760 1.326 1_554 S
O2791 Li2729 1.961 . S
O2791 Li2730 1.970 . S
O2791 Li2731 1.956 1_554 S
O2791 C2766 1.325 . S
H2792 C2734 0.929 . S
H2793 C2735 0.930 . S
H2794 C2736 0.930 . S
H2795 C2737 0.930 . S
H2796 C2739 0.930 . S
H2797 C2741 0.929 . S
H2798 C2742 0.930 . S
H2799 C2743 0.930 . S
H2800 C2746 0.930 . S
H2801 C2749 0.929 . S
H2802 C2754 0.929 . S
H2803 C2755 0.930 . S
H2804 C2762 0.929 . S
H2805 C2763 0.930 1_554 S
H2806 C2764 0.930 . S
H2807 C2765 0.930 . S
H2808 C2767 0.931 . S
H2809 C2768 0.929 . S
H2810 C2769 0.930 . S
H2811 C2770 0.930 . S
H2812 C2774 0.929 . S
H2813 C2776 0.930 . S
H2814 C2782 0.929 . S
H2815 C2783 0.930 . S
C2816 C2817 1.369 . S
C2816 C2818 1.419 . S
C2816 H2820 0.930 . S
C2817 C2816 1.369 . S
C2817 C2826 1.429 . S
C2818 C2816 1.419 . S
C2818 C2819 1.363 . S
C2818 H2821 0.929 . S
C2819 C2818 1.363 . S
C2819 C2825 1.428 . S
H2820 C2816 0.930 . S
H2821 C2818 0.929 . S
S2822 N2823 1.613 . S
S2822 N2824 1.610 . S
N2823 S2822 1.613 . S
N2823 C2826 1.350 . S
N2824 S2822 1.610 . S
N2824 C2825 1.351 . S
C2825 C2819 1.428 . S
C2825 N2824 1.351 . S
C2825 C2826 1.434 . S
C2826 C2817 1.429 . S
C2826 N2823 1.350 . S
C2826 C2825 1.434 . S
C2827 C2828 1.369 . S
C2827 C2829 1.419 . S
C2827 H2831 0.930 . S
C2828 C2827 1.369 . S
C2828 C2837 1.429 . S
C2829 C2827 1.419 . S
C2829 C2830 1.363 . S
C2829 H2832 0.929 . S
C2830 C2829 1.363 . S
C2830 C2836 1.428 . S
H2831 C2827 0.930 . S
H2832 C2829 0.929 . S
S2833 N2834 1.613 . S
S2833 N2835 1.610 . S
N2834 S2833 1.613 . S
N2834 C2837 1.350 . S
N2835 S2833 1.610 . S
N2835 C2836 1.351 . S
C2836 C2830 1.428 . S
C2836 N2835 1.351 . S
C2836 C2837 1.434 . S
C2837 C2828 1.429 . S
C2837 N2834 1.350 . S
C2837 C2836 1.434 . S
C2838 C2839 1.369 . S
C2838 C2840 1.419 . S
C2838 H2842 0.930 . S
C2839 C2838 1.369 . S
C2839 C2848 1.429 . S
C2840 C2838 1.419 . S
C2840 C2841 1.363 . S
C2840 H2843 0.929 . S
C2841 C2840 1.363 . S
C2841 C2847 1.428 . S
H2842 C2838 0.930 . S
H2843 C2840 0.929 . S
S2844 N2845 1.613 . S
S2844 N2846 1.610 . S
N2845 S2844 1.613 . S
N2845 C2848 1.350 . S
N2846 S2844 1.610 . S
N2846 C2847 1.351 . S
C2847 C2841 1.428 . S
C2847 N2846 1.351 . S
C2847 C2848 1.434 . S
C2848 C2839 1.429 . S
C2848 N2845 1.350 . S
C2848 C2847 1.434 . S
C2849 C2850 1.369 . S
C2849 C2851 1.419 . S
C2849 H2853 0.930 . S
C2850 C2849 1.369 . S
C2850 C2859 1.429 . S
C2851 C2849 1.419 . S
C2851 C2852 1.363 . S
C2851 H2854 0.929 . S
C2852 C2851 1.363 . S
C2852 C2858 1.428 . S
H2853 C2849 0.930 . S
H2854 C2851 0.929 . S
S2855 N2856 1.613 . S
S2855 N2857 1.610 . S
N2856 S2855 1.613 . S
N2856 C2859 1.350 . S
N2857 S2855 1.610 . S
N2857 C2858 1.351 . S
C2858 C2852 1.428 . S
C2858 N2857 1.351 . S
C2858 C2859 1.434 . S
C2859 C2850 1.429 . S
C2859 N2856 1.350 . S
C2859 C2858 1.434 . S
C2860 C2861 1.369 . S
C2860 C2862 1.419 . S
C2860 H2864 0.930 . S
C2861 C2860 1.369 . S
C2861 C2870 1.429 . S
C2862 C2860 1.419 . S
C2862 C2863 1.363 . S
C2862 H2865 0.929 . S
C2863 C2862 1.363 . S
C2863 C2869 1.428 . S
H2864 C2860 0.930 . S
H2865 C2862 0.929 . S
S2866 N2867 1.613 . S
S2866 N2868 1.610 . S
N2867 S2866 1.613 . S
N2867 C2870 1.350 . S
N2868 S2866 1.610 . S
N2868 C2869 1.351 . S
C2869 C2863 1.428 . S
C2869 N2868 1.351 . S
C2869 C2870 1.434 . S
C2870 C2861 1.429 . S
C2870 N2867 1.350 . S
C2870 C2869 1.434 . S
C2871 C2872 1.369 . S
C2871 C2873 1.419 . S
C2871 H2875 0.930 . S
C2872 C2871 1.369 . S
C2872 C2881 1.429 . S
C2873 C2871 1.419 . S
C2873 C2874 1.363 . S
C2873 H2876 0.929 . S
C2874 C2873 1.363 . S
C2874 C2880 1.428 . S
H2875 C2871 0.930 . S
H2876 C2873 0.929 . S
S2877 N2878 1.613 . S
S2877 N2879 1.610 . S
N2878 S2877 1.613 . S
N2878 C2881 1.350 . S
N2879 S2877 1.610 . S
N2879 C2880 1.351 . S
C2880 C2874 1.428 . S
C2880 N2879 1.351 . S
C2880 C2881 1.434 . S
C2881 C2872 1.429 . S
C2881 N2878 1.350 . S
C2881 C2880 1.434 . S
C2882 C2883 1.369 . S
C2882 C2884 1.419 . S
C2882 H2886 0.930 . S
C2883 C2882 1.369 . S
C2883 C2892 1.429 . S
C2884 C2882 1.419 . S
C2884 C2885 1.363 . S
C2884 H2887 0.929 . S
C2885 C2884 1.363 . S
C2885 C2891 1.428 . S
H2886 C2882 0.930 . S
H2887 C2884 0.929 . S
S2888 N2889 1.613 . S
S2888 N2890 1.610 . S
N2889 S2888 1.613 . S
N2889 C2892 1.350 . S
N2890 S2888 1.610 . S
N2890 C2891 1.351 . S
C2891 C2885 1.428 . S
C2891 N2890 1.351 . S
C2891 C2892 1.434 . S
C2892 C2883 1.429 . S
C2892 N2889 1.350 . S
C2892 C2891 1.434 . S
C2893 C2894 1.369 . S
C2893 C2895 1.419 . S
C2893 H2897 0.930 . S
C2894 C2893 1.369 . S
C2894 C2903 1.429 . S
C2895 C2893 1.419 . S
C2895 C2896 1.363 . S
C2895 H2898 0.929 . S
C2896 C2895 1.363 . S
C2896 C2902 1.428 . S
H2897 C2893 0.930 . S
H2898 C2895 0.929 . S
S2899 N2900 1.613 . S
S2899 N2901 1.610 . S
N2900 S2899 1.613 . S
N2900 C2903 1.350 . S
N2901 S2899 1.610 . S
N2901 C2902 1.351 . S
C2902 C2896 1.428 . S
C2902 N2901 1.351 . S
C2902 C2903 1.434 . S
C2903 C2894 1.429 . S
C2903 N2900 1.350 . S
C2903 C2902 1.434 . S
C2904 C2905 1.369 . S
C2904 C2906 1.419 . S
C2904 H2908 0.930 . S
C2905 C2904 1.369 . S
C2905 C2914 1.429 . S
C2906 C2904 1.419 . S
C2906 C2907 1.363 . S
C2906 H2909 0.929 . S
C2907 C2906 1.363 . S
C2907 C2913 1.428 . S
H2908 C2904 0.930 . S
H2909 C2906 0.929 . S
S2910 N2911 1.613 . S
S2910 N2912 1.610 . S
N2911 S2910 1.613 . S
N2911 C2914 1.350 . S
N2912 S2910 1.610 . S
N2912 C2913 1.351 . S
C2913 C2907 1.428 . S
C2913 N2912 1.351 . S
C2913 C2914 1.434 . S
C2914 C2905 1.429 . S
C2914 N2911 1.350 . S
C2914 C2913 1.434 . S
C2915 C2916 1.369 . S
C2915 C2917 1.419 . S
C2915 H2919 0.930 . S
C2916 C2915 1.369 . S
C2916 C2925 1.429 . S
C2917 C2915 1.419 . S
C2917 C2918 1.363 . S
C2917 H2920 0.929 . S
C2918 C2917 1.363 . S
C2918 C2924 1.428 . S
H2919 C2915 0.930 . S
H2920 C2917 0.929 . S
S2921 N2922 1.613 . S
S2921 N2923 1.610 . S
N2922 S2921 1.613 . S
N2922 C2925 1.350 . S
N2923 S2921 1.610 . S
N2923 C2924 1.351 . S
C2924 C2918 1.428 . S
C2924 N2923 1.351 . S
C2924 C2925 1.434 . S
C2925 C2916 1.429 . S
C2925 N2922 1.350 . S
C2925 C2924 1.434 . S
C2926 C2927 1.369 . S
C2926 C2928 1.419 . S
C2926 H2930 0.930 . S
C2927 C2926 1.369 . S
C2927 C2936 1.429 . S
C2928 C2926 1.419 . S
C2928 C2929 1.363 . S
C2928 H2931 0.929 . S
C2929 C2928 1.363 . S
C2929 C2935 1.428 . S
H2930 C2926 0.930 . S
H2931 C2928 0.929 . S
S2932 N2933 1.613 . S
S2932 N2934 1.610 . S
N2933 S2932 1.613 . S
N2933 C2936 1.350 . S
N2934 S2932 1.610 . S
N2934 C2935 1.351 . S
C2935 C2929 1.428 . S
C2935 N2934 1.351 . S
C2935 C2936 1.434 . S
C2936 C2927 1.429 . S
C2936 N2933 1.350 . S
C2936 C2935 1.434 . S
C2937 C2938 1.369 . S
C2937 C2939 1.419 . S
C2937 H2941 0.930 . S
C2938 C2937 1.369 . S
C2938 C2947 1.429 . S
C2939 C2937 1.419 . S
C2939 C2940 1.363 . S
C2939 H2942 0.929 . S
C2940 C2939 1.363 . S
C2940 C2946 1.428 . S
H2941 C2937 0.930 . S
H2942 C2939 0.929 . S
S2943 N2944 1.613 . S
S2943 N2945 1.610 . S
N2944 S2943 1.613 . S
N2944 C2947 1.350 . S
N2945 S2943 1.610 . S
N2945 C2946 1.351 . S
C2946 C2940 1.428 . S
C2946 N2945 1.351 . S
C2946 C2947 1.434 . S
C2947 C2938 1.429 . S
C2947 N2944 1.350 . S
C2947 C2946 1.434 . S
C2948 C2949 1.369 . S
C2948 C2950 1.419 . S
C2948 H2952 0.930 . S
C2949 C2948 1.369 . S
C2949 C2958 1.429 . S
C2950 C2948 1.419 . S
C2950 C2951 1.363 . S
C2950 H2953 0.929 . S
C2951 C2950 1.363 . S
C2951 C2957 1.428 . S
H2952 C2948 0.930 . S
H2953 C2950 0.929 . S
S2954 N2955 1.613 . S
S2954 N2956 1.610 . S
N2955 S2954 1.613 . S
N2955 C2958 1.350 . S
N2956 S2954 1.610 . S
N2956 C2957 1.351 . S
C2957 C2951 1.428 . S
C2957 N2956 1.351 . S
C2957 C2958 1.434 . S
C2958 C2949 1.429 . S
C2958 N2955 1.350 . S
C2958 C2957 1.434 . S
C2959 C2960 1.369 . S
C2959 C2961 1.419 . S
C2959 H2963 0.930 . S
C2960 C2959 1.369 . S
C2960 C2969 1.429 . S
C2961 C2959 1.419 . S
C2961 C2962 1.363 . S
C2961 H2964 0.929 . S
C2962 C2961 1.363 . S
C2962 C2968 1.428 . S
H2963 C2959 0.930 . S
H2964 C2961 0.929 . S
S2965 N2966 1.613 . S
S2965 N2967 1.610 . S
N2966 S2965 1.613 . S
N2966 C2969 1.350 . S
N2967 S2965 1.610 . S
N2967 C2968 1.351 . S
C2968 C2962 1.428 . S
C2968 N2967 1.351 . S
C2968 C2969 1.434 . S
C2969 C2960 1.429 . S
C2969 N2966 1.350 . S
C2969 C2968 1.434 . S
C2970 C2971 1.369 . S
C2970 C2972 1.419 . S
C2970 H2974 0.930 . S
C2971 C2970 1.369 . S
C2971 C2980 1.429 . S
C2972 C2970 1.419 . S
C2972 C2973 1.363 . S
C2972 H2975 0.929 . S
C2973 C2972 1.363 . S
C2973 C2979 1.428 . S
H2974 C2970 0.930 . S
H2975 C2972 0.929 . S
S2976 N2977 1.613 . S
S2976 N2978 1.610 . S
N2977 S2976 1.613 . S
N2977 C2980 1.350 . S
N2978 S2976 1.610 . S
N2978 C2979 1.351 . S
C2979 C2973 1.428 . S
C2979 N2978 1.351 . S
C2979 C2980 1.434 . S
C2980 C2971 1.429 . S
C2980 N2977 1.350 . S
C2980 C2979 1.434 . S
C2981 C2982 1.369 . S
C2981 C2983 1.419 . S
C2981 H2985 0.930 . S
C2982 C2981 1.369 . S
C2982 C2991 1.429 . S
C2983 C2981 1.419 . S
C2983 C2984 1.363 . S
C2983 H2986 0.929 . S
C2984 C2983 1.363 . S
C2984 C2990 1.428 . S
H2985 C2981 0.930 . S
H2986 C2983 0.929 . S
S2987 N2988 1.613 . S
S2987 N2989 1.610 . S
N2988 S2987 1.613 . S
N2988 C2991 1.350 . S
N2989 S2987 1.610 . S
N2989 C2990 1.351 . S
C2990 C2984 1.428 . S
C2990 N2989 1.351 . S
C2990 C2991 1.434 . S
C2991 C2982 1.429 . S
C2991 N2988 1.350 . S
C2991 C2990 1.434 . S
C2992 C2993 1.369 1_545 S
C2992 C2994 1.419 . S
C2992 H2996 0.930 . S
C2993 C2992 1.369 1_565 S
C2993 C3002 1.429 . S
C2994 C2992 1.419 . S
C2994 C2995 1.363 . S
C2994 H2997 0.929 . S
C2995 C2994 1.363 . S
C2995 C3001 1.428 1_545 S
H2996 C2992 0.930 . S
H2997 C2994 0.929 . S
S2998 N2999 1.613 . S
S2998 N3000 1.610 . S
N2999 S2998 1.613 . S
N2999 C3002 1.350 . S
N3000 S2998 1.610 . S
N3000 C3001 1.351 . S
C3001 C2995 1.428 1_565 S
C3001 N3000 1.351 . S
C3001 C3002 1.434 . S
C3002 C2993 1.429 . S
C3002 N2999 1.350 . S
C3002 C3001 1.434 . S
C3003 C3004 1.368 . S
C3003 C3005 1.419 . S
C3003 H3007 0.930 . S
C3004 C3003 1.368 . S
C3004 C3013 1.429 1_455 S
C3005 C3003 1.419 . S
C3005 C3006 1.368 . S
C3005 H3008 0.929 . S
C3006 C3005 1.368 . S
C3006 C3012 1.424 1_455 S
H3007 C3003 0.930 . S
H3008 C3005 0.929 . S
S3009 N3010 1.613 . S
S3009 N3011 1.610 . S
N3010 S3009 1.613 . S
N3010 C3013 1.350 . S
N3011 S3009 1.610 . S
N3011 C3012 1.351 . S
C3012 C3006 1.424 1_655 S
C3012 N3011 1.351 . S
C3012 C3013 1.434 . S
C3013 C3004 1.429 1_655 S
C3013 N3010 1.350 . S
C3013 C3012 1.434 . S
C3014 C3015 1.369 1_554 S
C3014 C3016 1.419 . S
C3014 H3018 0.930 . S
C3015 C3014 1.369 1_556 S
C3015 C3024 1.429 . S
C3016 C3014 1.419 . S
C3016 C3017 1.363 . S
C3016 H3019 0.929 . S
C3017 C3016 1.363 . S
C3017 C3023 1.428 1_554 S
H3018 C3014 0.930 . S
H3019 C3016 0.929 . S
S3020 N3021 1.613 . S
S3020 N3022 1.610 . S
N3021 S3020 1.613 . S
N3021 C3024 1.350 . S
N3022 S3020 1.610 . S
N3022 C3023 1.351 . S
C3023 C3017 1.428 1_556 S
C3023 N3022 1.351 . S
C3023 C3024 1.434 . S
C3024 C3015 1.429 . S
C3024 N3021 1.350 . S
C3024 C3023 1.434 . S
C3025 C3026 1.369 1_655 S
C3025 C3027 1.419 1_546 S
C3025 H3029 0.930 . S
C3026 C3025 1.369 1_455 S
C3026 C3035 1.429 . S
C3027 C3025 1.419 1_564 S
C3027 C3028 1.355 1_655 S
C3027 H3030 0.929 . S
C3028 C3027 1.355 1_455 S
C3028 C3034 1.437 . S
H3029 C3025 0.930 . S
H3030 C3027 0.929 . S
S3031 N3032 1.613 1_554 S
S3031 N3033 1.610 1_545 S
N3032 S3031 1.613 1_556 S
N3032 C3035 1.350 . S
N3033 S3031 1.610 1_565 S
N3033 C3034 1.351 . S
C3034 C3028 1.437 . S
C3034 N3033 1.351 . S
C3034 C3035 1.434 1_564 S
C3035 C3026 1.429 . S
C3035 N3032 1.350 . S
C3035 C3034 1.434 1_546 S
C3036 C3037 1.369 . S
C3036 C3038 1.419 . S
C3036 H3040 0.930 . S
C3037 C3036 1.369 . S
C3037 C3046 1.429 1_545 S
C3038 C3036 1.419 . S
C3038 C3039 1.363 1_545 S
C3038 H3041 0.929 . S
C3039 C3038 1.363 1_565 S
C3039 C3045 1.428 . S
H3040 C3036 0.930 . S
H3041 C3038 0.929 . S
S3042 N3043 1.613 . S
S3042 N3044 1.610 . S
N3043 S3042 1.613 . S
N3043 C3046 1.350 . S
N3044 S3042 1.610 . S
N3044 C3045 1.351 . S
C3045 C3039 1.428 . S
C3045 N3044 1.351 . S
C3045 C3046 1.434 . S
C3046 C3037 1.429 1_565 S
C3046 N3043 1.350 . S
C3046 C3045 1.434 . S
C3047 C3048 1.351 1_655 S
C3047 C3049 1.419 . S
C3047 H3051 0.930 . S
C3048 C3047 1.351 1_455 S
C3048 C3057 1.447 . S
C3049 C3047 1.419 . S
C3049 C3050 1.359 1_655 S
C3049 H3052 0.929 . S
C3050 C3049 1.359 1_455 S
C3050 C3056 1.432 . S
H3051 C3047 0.930 . S
H3052 C3049 0.929 . S
S3053 N3054 1.613 . S
S3053 N3055 1.610 . S
N3054 S3053 1.613 . S
N3054 C3057 1.350 . S
N3055 S3053 1.610 . S
N3055 C3056 1.351 . S
C3056 C3050 1.432 . S
C3056 N3055 1.351 . S
C3056 C3057 1.434 . S
C3057 C3048 1.447 . S
C3057 N3054 1.350 . S
C3057 C3056 1.434 . S
C3058 C3059 1.369 . S
C3058 C3060 1.425 . S
C3058 H3062 0.930 . S
C3059 C3058 1.369 . S
C3059 C3068 1.429 1_556 S
C3060 C3058 1.425 . S
C3060 C3061 1.357 1_556 S
C3060 H3063 0.930 . S
C3061 C3060 1.357 1_554 S
C3061 C3067 1.428 . S
H3062 C3058 0.930 . S
H3063 C3060 0.930 . S
S3064 N3065 1.613 . S
S3064 N3066 1.610 . S
N3065 S3064 1.613 . S
N3065 C3068 1.350 . S
N3066 S3064 1.610 . S
N3066 C3067 1.351 . S
C3067 C3061 1.428 . S
C3067 N3066 1.351 . S
C3067 C3068 1.434 . S
C3068 C3059 1.429 1_554 S
C3068 N3065 1.350 . S
C3068 C3067 1.434 . S
C3069 C3070 1.369 . S
C3069 C3071 1.419 . S
C3069 H3073 0.930 . S
C3070 C3069 1.369 . S
C3070 C3079 1.429 . S
C3071 C3069 1.419 . S
C3071 C3072 1.363 . S
C3071 H3074 0.929 . S
C3072 C3071 1.363 . S
C3072 C3078 1.428 . S
H3073 C3069 0.930 . S
H3074 C3071 0.929 . S
S3075 N3076 1.613 . S
S3075 N3077 1.610 . S
N3076 S3075 1.613 . S
N3076 C3079 1.350 . S
N3077 S3075 1.610 . S
N3077 C3078 1.351 . S
C3078 C3072 1.428 . S
C3078 N3077 1.351 . S
C3078 C3079 1.434 . S
C3079 C3070 1.429 . S
C3079 N3076 1.350 . S
C3079 C3078 1.434 . S
C3080 C3081 1.369 . S
C3080 C3082 1.419 . S
C3080 H3084 0.930 . S
C3081 C3080 1.369 . S
C3081 C3090 1.429 . S
C3082 C3080 1.419 . S
C3082 C3083 1.363 . S
C3082 H3085 0.929 . S
C3083 C3082 1.363 . S
C3083 C3089 1.428 . S
H3084 C3080 0.930 . S
H3085 C3082 0.929 . S
S3086 N3087 1.613 . S
S3086 N3088 1.610 . S
N3087 S3086 1.613 . S
N3087 C3090 1.350 . S
N3088 S3086 1.610 . S
N3088 C3089 1.351 . S
C3089 C3083 1.428 . S
C3089 N3088 1.351 . S
C3089 C3090 1.434 . S
C3090 C3081 1.429 . S
C3090 N3087 1.350 . S
C3090 C3089 1.434 . S
C3091 C3092 1.365 1_455 S
C3091 C3093 1.419 . S
C3091 H3095 0.930 . S
C3092 C3091 1.365 1_655 S
C3092 C3101 1.433 . S
C3093 C3091 1.419 . S
C3093 C3094 1.365 . S
C3093 H3096 0.929 . S
C3094 C3093 1.365 . S
C3094 C3100 1.426 1_455 S
H3095 C3091 0.930 . S
H3096 C3093 0.929 . S
S3097 N3098 1.613 . S
S3097 N3099 1.610 . S
N3098 S3097 1.613 . S
N3098 C3101 1.350 . S
N3099 S3097 1.610 . S
N3099 C3100 1.351 . S
C3100 C3094 1.426 1_655 S
C3100 N3099 1.351 . S
C3100 C3101 1.434 . S
C3101 C3092 1.433 . S
C3101 N3098 1.350 . S
C3101 C3100 1.434 . S
C3102 C3103 1.369 . S
C3102 C3104 1.419 . S
C3102 H3106 0.930 . S
C3103 C3102 1.369 . S
C3103 C3112 1.429 . S
C3104 C3102 1.419 . S
C3104 C3105 1.363 . S
C3104 H3107 0.929 . S
C3105 C3104 1.363 . S
C3105 C3111 1.428 . S
H3106 C3102 0.930 . S
H3107 C3104 0.929 . S
S3108 N3109 1.613 . S
S3108 N3110 1.610 . S
N3109 S3108 1.613 . S
N3109 C3112 1.350 . S
N3110 S3108 1.610 . S
N3110 C3111 1.351 . S
C3111 C3105 1.428 . S
C3111 N3110 1.351 . S
C3111 C3112 1.434 . S
C3112 C3103 1.429 . S
C3112 N3109 1.350 . S
C3112 C3111 1.434 . S
C3113 C3114 1.369 . S
C3113 C3115 1.419 . S
C3113 H3117 0.930 . S
C3114 C3113 1.369 . S
C3114 C3123 1.429 . S
C3115 C3113 1.419 . S
C3115 C3116 1.363 . S
C3115 H3118 0.929 . S
C3116 C3115 1.363 . S
C3116 C3122 1.428 . S
H3117 C3113 0.930 . S
H3118 C3115 0.929 . S
S3119 N3120 1.613 . S
S3119 N3121 1.610 . S
N3120 S3119 1.613 . S
N3120 C3123 1.350 . S
N3121 S3119 1.610 . S
N3121 C3122 1.351 . S
C3122 C3116 1.428 . S
C3122 N3121 1.351 . S
C3122 C3123 1.434 . S
C3123 C3114 1.429 . S
C3123 N3120 1.350 . S
C3123 C3122 1.434 . S
C3124 C3125 1.369 . S
C3124 C3126 1.419 . S
C3124 H3128 0.930 . S
C3125 C3124 1.369 . S
C3125 C3134 1.429 . S
C3126 C3124 1.419 . S
C3126 C3127 1.363 . S
C3126 H3129 0.929 . S
C3127 C3126 1.363 . S
C3127 C3133 1.428 . S
H3128 C3124 0.930 . S
H3129 C3126 0.929 . S
S3130 N3131 1.613 . S
S3130 N3132 1.610 . S
N3131 S3130 1.613 . S
N3131 C3134 1.350 . S
N3132 S3130 1.610 . S
N3132 C3133 1.351 . S
C3133 C3127 1.428 . S
C3133 N3132 1.351 . S
C3133 C3134 1.434 . S
C3134 C3125 1.429 . S
C3134 N3131 1.350 . S
C3134 C3133 1.434 . S
C3135 C3136 1.369 . S
C3135 C3137 1.419 . S
C3135 H3139 0.930 . S
C3136 C3135 1.369 . S
C3136 C3145 1.429 1_545 S
C3137 C3135 1.419 . S
C3137 C3138 1.363 1_545 S
C3137 H3140 0.929 . S
C3138 C3137 1.363 1_565 S
C3138 C3144 1.428 . S
H3139 C3135 0.930 . S
H3140 C3137 0.929 . S
S3141 N3142 1.613 . S
S3141 N3143 1.610 . S
N3142 S3141 1.613 . S
N3142 C3145 1.350 . S
N3143 S3141 1.610 . S
N3143 C3144 1.351 . S
C3144 C3138 1.428 . S
C3144 N3143 1.351 . S
C3144 C3145 1.434 . S
C3145 C3136 1.429 1_565 S
C3145 N3142 1.350 . S
C3145 C3144 1.434 . S
C3146 C3147 1.369 . S
C3146 C3148 1.419 . S
C3146 H3150 0.930 . S
C3147 C3146 1.369 . S
C3147 C3156 1.429 . S
C3148 C3146 1.419 . S
C3148 C3149 1.363 . S
C3148 H3151 0.929 . S
C3149 C3148 1.363 . S
C3149 C3155 1.428 . S
H3150 C3146 0.930 . S
H3151 C3148 0.929 . S
S3152 N3153 1.613 . S
S3152 N3154 1.610 . S
N3153 S3152 1.613 . S
N3153 C3156 1.350 . S
N3154 S3152 1.610 . S
N3154 C3155 1.351 . S
C3155 C3149 1.428 . S
C3155 N3154 1.351 . S
C3155 C3156 1.434 . S
C3156 C3147 1.429 . S
C3156 N3153 1.350 . S
C3156 C3155 1.434 . S
C3157 C3158 1.369 . S
C3157 C3159 1.419 . S
C3157 H3161 0.930 . S
C3158 C3157 1.369 . S
C3158 C3167 1.429 1_554 S
C3159 C3157 1.419 . S
C3159 C3160 1.363 1_554 S
C3159 H3162 0.929 . S
C3160 C3159 1.363 1_556 S
C3160 C3166 1.428 . S
H3161 C3157 0.930 . S
H3162 C3159 0.929 . S
S3163 N3164 1.613 . S
S3163 N3165 1.610 . S
N3164 S3163 1.613 . S
N3164 C3167 1.350 . S
N3165 S3163 1.610 . S
N3165 C3166 1.351 . S
C3166 C3160 1.428 . S
C3166 N3165 1.351 . S
C3166 C3167 1.434 . S
C3167 C3158 1.429 1_556 S
C3167 N3164 1.350 . S
C3167 C3166 1.434 . S
C3168 C3169 1.369 . S
C3168 C3170 1.419 . S
C3168 H3172 0.930 . S
C3169 C3168 1.369 . S
C3169 C3178 1.429 . S
C3170 C3168 1.419 . S
C3170 C3171 1.363 . S
C3170 H3173 0.929 . S
C3171 C3170 1.363 . S
C3171 C3177 1.428 . S
H3172 C3168 0.930 . S
H3173 C3170 0.929 . S
S3174 N3175 1.613 . S
S3174 N3176 1.610 . S
N3175 S3174 1.613 . S
N3175 C3178 1.350 . S
N3176 S3174 1.610 . S
N3176 C3177 1.351 . S
C3177 C3171 1.428 . S
C3177 N3176 1.351 . S
C3177 C3178 1.434 . S
C3178 C3169 1.429 . S
C3178 N3175 1.350 . S
C3178 C3177 1.434 . S
C3179 C3180 1.369 . S
C3179 C3181 1.419 . S
C3179 H3183 0.930 . S
C3180 C3179 1.369 . S
C3180 C3189 1.429 . S
C3181 C3179 1.419 . S
C3181 C3182 1.363 . S
C3181 H3184 0.929 . S
C3182 C3181 1.363 . S
C3182 C3188 1.428 . S
H3183 C3179 0.930 . S
H3184 C3181 0.929 . S
S3185 N3186 1.613 . S
S3185 N3187 1.610 . S
N3186 S3185 1.613 . S
N3186 C3189 1.350 . S
N3187 S3185 1.610 . S
N3187 C3188 1.351 . S
C3188 C3182 1.428 . S
C3188 N3187 1.351 . S
C3188 C3189 1.434 . S
C3189 C3180 1.429 . S
C3189 N3186 1.350 . S
C3189 C3188 1.434 . S
C3190 C3191 1.369 . S
C3190 C3192 1.419 . S
C3190 H3194 0.930 . S
C3191 C3190 1.369 . S
C3191 C3200 1.429 . S
C3192 C3190 1.419 . S
C3192 C3193 1.363 . S
C3192 H3195 0.929 . S
C3193 C3192 1.363 . S
C3193 C3199 1.428 . S
H3194 C3190 0.930 . S
H3195 C3192 0.929 . S
S3196 N3197 1.613 . S
S3196 N3198 1.610 . S
N3197 S3196 1.613 . S
N3197 C3200 1.350 . S
N3198 S3196 1.610 . S
N3198 C3199 1.351 . S
C3199 C3193 1.428 . S
C3199 N3198 1.351 . S
C3199 C3200 1.434 . S
C3200 C3191 1.429 . S
C3200 N3197 1.350 . S
C3200 C3199 1.434 . S
C3201 C3202 1.369 . S
C3201 C3203 1.419 . S
C3201 H3205 0.930 . S
C3202 C3201 1.369 . S
C3202 C3211 1.429 . S
C3203 C3201 1.419 . S
C3203 C3204 1.363 . S
C3203 H3206 0.929 . S
C3204 C3203 1.363 . S
C3204 C3210 1.428 . S
H3205 C3201 0.930 . S
H3206 C3203 0.929 . S
S3207 N3208 1.613 . S
S3207 N3209 1.610 . S
N3208 S3207 1.613 . S
N3208 C3211 1.350 . S
N3209 S3207 1.610 . S
N3209 C3210 1.351 . S
C3210 C3204 1.428 . S
C3210 N3209 1.351 . S
C3210 C3211 1.434 . S
C3211 C3202 1.429 . S
C3211 N3208 1.350 . S
C3211 C3210 1.434 . S
C3212 C3213 1.369 . S
C3212 C3214 1.419 . S
C3212 H3216 0.930 . S
C3213 C3212 1.369 . S
C3213 C3222 1.429 . S
C3214 C3212 1.419 . S
C3214 C3215 1.363 . S
C3214 H3217 0.929 . S
C3215 C3214 1.363 . S
C3215 C3221 1.428 . S
H3216 C3212 0.930 . S
H3217 C3214 0.929 . S
S3218 N3219 1.613 . S
S3218 N3220 1.610 . S
N3219 S3218 1.613 . S
N3219 C3222 1.350 . S
N3220 S3218 1.610 . S
N3220 C3221 1.351 . S
C3221 C3215 1.428 . S
C3221 N3220 1.351 . S
C3221 C3222 1.434 . S
C3222 C3213 1.429 . S
C3222 N3219 1.350 . S
C3222 C3221 1.434 . S
C3223 C3224 1.369 . S
C3223 C3225 1.419 . S
C3223 H3227 0.930 . S
C3224 C3223 1.369 . S
C3224 C3233 1.429 . S
C3225 C3223 1.419 . S
C3225 C3226 1.363 . S
C3225 H3228 0.929 . S
C3226 C3225 1.363 . S
C3226 C3232 1.428 . S
H3227 C3223 0.930 . S
H3228 C3225 0.929 . S
S3229 N3230 1.613 . S
S3229 N3231 1.610 . S
N3230 S3229 1.613 . S
N3230 C3233 1.350 . S
N3231 S3229 1.610 . S
N3231 C3232 1.351 . S
C3232 C3226 1.428 . S
C3232 N3231 1.351 . S
C3232 C3233 1.434 . S
C3233 C3224 1.429 . S
C3233 N3230 1.350 . S
C3233 C3232 1.434 . S
C3234 C3235 1.369 . S
C3234 C3236 1.419 . S
C3234 H3238 0.930 . S
C3235 C3234 1.369 . S
C3235 C3244 1.429 . S
C3236 C3234 1.419 . S
C3236 C3237 1.363 . S
C3236 H3239 0.929 . S
C3237 C3236 1.363 . S
C3237 C3243 1.428 . S
H3238 C3234 0.930 . S
H3239 C3236 0.929 . S
S3240 N3241 1.613 . S
S3240 N3242 1.610 . S
N3241 S3240 1.613 . S
N3241 C3244 1.350 . S
N3242 S3240 1.610 . S
N3242 C3243 1.351 . S
C3243 C3237 1.428 . S
C3243 N3242 1.351 . S
C3243 C3244 1.434 . S
C3244 C3235 1.429 . S
C3244 N3241 1.350 . S
C3244 C3243 1.434 . S
C3245 C3246 1.369 . S
C3245 C3247 1.419 . S
C3245 H3249 0.930 . S
C3246 C3245 1.369 . S
C3246 C3255 1.429 . S
C3247 C3245 1.419 . S
C3247 C3248 1.363 . S
C3247 H3250 0.929 . S
C3248 C3247 1.363 . S
C3248 C3254 1.428 . S
H3249 C3245 0.930 . S
H3250 C3247 0.929 . S
S3251 N3252 1.613 . S
S3251 N3253 1.610 . S
N3252 S3251 1.613 . S
N3252 C3255 1.350 . S
N3253 S3251 1.610 . S
N3253 C3254 1.351 . S
C3254 C3248 1.428 . S
C3254 N3253 1.351 . S
C3254 C3255 1.434 . S
C3255 C3246 1.429 . S
C3255 N3252 1.350 . S
C3255 C3254 1.434 . S
C3256 C3257 1.369 . S
C3256 C3258 1.419 . S
C3256 H3260 0.930 . S
C3257 C3256 1.369 . S
C3257 C3266 1.429 . S
C3258 C3256 1.419 . S
C3258 C3259 1.363 . S
C3258 H3261 0.929 . S
C3259 C3258 1.363 . S
C3259 C3265 1.428 . S
H3260 C3256 0.930 . S
H3261 C3258 0.929 . S
S3262 N3263 1.613 . S
S3262 N3264 1.610 . S
N3263 S3262 1.613 . S
N3263 C3266 1.350 . S
N3264 S3262 1.610 . S
N3264 C3265 1.351 . S
C3265 C3259 1.428 . S
C3265 N3264 1.351 . S
C3265 C3266 1.434 . S
C3266 C3257 1.429 . S
C3266 N3263 1.350 . S
C3266 C3265 1.434 . S
C3267 C3268 1.369 . S
C3267 C3269 1.419 . S
C3267 H3271 0.930 . S
C3268 C3267 1.369 . S
C3268 C3277 1.429 . S
C3269 C3267 1.419 . S
C3269 C3270 1.363 . S
C3269 H3272 0.929 . S
C3270 C3269 1.363 . S
C3270 C3276 1.428 . S
H3271 C3267 0.930 . S
H3272 C3269 0.929 . S
S3273 N3274 1.613 . S
S3273 N3275 1.610 . S
N3274 S3273 1.613 . S
N3274 C3277 1.350 . S
N3275 S3273 1.610 . S
N3275 C3276 1.351 . S
C3276 C3270 1.428 . S
C3276 N3275 1.351 . S
C3276 C3277 1.434 . S
C3277 C3268 1.429 . S
C3277 N3274 1.350 . S
C3277 C3276 1.434 . S
C3278 C3279 1.369 . S
C3278 C3280 1.419 . S
C3278 H3282 0.930 . S
C3279 C3278 1.369 . S
C3279 C3288 1.429 . S
C3280 C3278 1.419 . S
C3280 C3281 1.363 . S
C3280 H3283 0.929 . S
C3281 C3280 1.363 . S
C3281 C3287 1.428 . S
H3282 C3278 0.930 . S
H3283 C3280 0.929 . S
S3284 N3285 1.613 . S
S3284 N3286 1.610 . S
N3285 S3284 1.613 . S
N3285 C3288 1.350 . S
N3286 S3284 1.610 . S
N3286 C3287 1.351 . S
C3287 C3281 1.428 . S
C3287 N3286 1.351 . S
C3287 C3288 1.434 . S
C3288 C3279 1.429 . S
C3288 N3285 1.350 . S
C3288 C3287 1.434 . S
C3289 C3290 1.369 . S
C3289 C3291 1.419 . S
C3289 H3293 0.930 . S
C3290 C3289 1.369 . S
C3290 C3299 1.429 . S
C3291 C3289 1.419 . S
C3291 C3292 1.363 . S
C3291 H3294 0.929 . S
C3292 C3291 1.363 . S
C3292 C3298 1.428 . S
H3293 C3289 0.930 . S
H3294 C3291 0.929 . S
S3295 N3296 1.613 . S
S3295 N3297 1.610 . S
N3296 S3295 1.613 . S
N3296 C3299 1.350 . S
N3297 S3295 1.610 . S
N3297 C3298 1.351 . S
C3298 C3292 1.428 . S
C3298 N3297 1.351 . S
C3298 C3299 1.434 . S
C3299 C3290 1.429 . S
C3299 N3296 1.350 . S
C3299 C3298 1.434 . S
C3300 C3301 1.369 . S
C3300 C3302 1.419 . S
C3300 H3304 0.930 . S
C3301 C3300 1.369 . S
C3301 C3310 1.429 . S
C3302 C3300 1.419 . S
C3302 C3303 1.363 . S
C3302 H3305 0.929 . S
C3303 C3302 1.363 . S
C3303 C3309 1.428 . S
H3304 C3300 0.930 . S
H3305 C3302 0.929 . S
S3306 N3307 1.613 . S
S3306 N3308 1.610 . S
N3307 S3306 1.613 . S
N3307 C3310 1.350 . S
N3308 S3306 1.610 . S
N3308 C3309 1.351 . S
C3309 C3303 1.428 . S
C3309 N3308 1.351 . S
C3309 C3310 1.434 . S
C3310 C3301 1.429 . S
C3310 N3307 1.350 . S
C3310 C3309 1.434 . S
C3311 C3312 1.369 . S
C3311 C3313 1.419 . S
C3311 H3315 0.930 . S
C3312 C3311 1.369 . S
C3312 C3321 1.429 . S
C3313 C3311 1.419 . S
C3313 C3314 1.363 . S
C3313 H3316 0.929 . S
C3314 C3313 1.363 . S
C3314 C3320 1.428 . S
H3315 C3311 0.930 . S
H3316 C3313 0.929 . S
S3317 N3318 1.613 . S
S3317 N3319 1.610 . S
N3318 S3317 1.613 . S
N3318 C3321 1.350 . S
N3319 S3317 1.610 . S
N3319 C3320 1.351 . S
C3320 C3314 1.428 . S
C3320 N3319 1.351 . S
C3320 C3321 1.434 . S
C3321 C3312 1.429 . S
C3321 N3318 1.350 . S
C3321 C3320 1.434 . S
C3322 C3323 1.369 . S
C3322 C3324 1.419 . S
C3322 H3326 0.930 . S
C3323 C3322 1.369 . S
C3323 C3332 1.429 . S
C3324 C3322 1.419 . S
C3324 C3325 1.363 . S
C3324 H3327 0.929 . S
C3325 C3324 1.363 . S
C3325 C3331 1.428 . S
H3326 C3322 0.930 . S
H3327 C3324 0.929 . S
S3328 N3329 1.613 . S
S3328 N3330 1.610 . S
N3329 S3328 1.613 . S
N3329 C3332 1.350 . S
N3330 S3328 1.610 . S
N3330 C3331 1.351 . S
C3331 C3325 1.428 . S
C3331 N3330 1.351 . S
C3331 C3332 1.434 . S
C3332 C3323 1.429 . S
C3332 N3329 1.350 . S
C3332 C3331 1.434 . S
C3333 C3334 1.369 . S
C3333 C3335 1.419 . S
C3333 H3337 0.930 . S
C3334 C3333 1.369 . S
C3334 C3343 1.429 . S
C3335 C3333 1.419 . S
C3335 C3336 1.363 . S
C3335 H3338 0.929 . S
C3336 C3335 1.363 . S
C3336 C3342 1.428 . S
H3337 C3333 0.930 . S
H3338 C3335 0.929 . S
S3339 N3340 1.613 . S
S3339 N3341 1.610 . S
N3340 S3339 1.613 . S
N3340 C3343 1.350 . S
N3341 S3339 1.610 . S
N3341 C3342 1.351 . S
C3342 C3336 1.428 . S
C3342 N3341 1.351 . S
C3342 C3343 1.434 . S
C3343 C3334 1.429 . S
C3343 N3340 1.350 . S
C3343 C3342 1.434 . S
C3344 C3345 1.369 . S
C3344 C3346 1.419 . S
C3344 H3348 0.930 . S
C3345 C3344 1.369 . S
C3345 C3354 1.429 . S
C3346 C3344 1.419 . S
C3346 C3347 1.363 . S
C3346 H3349 0.929 . S
C3347 C3346 1.363 . S
C3347 C3353 1.428 . S
H3348 C3344 0.930 . S
H3349 C3346 0.929 . S
S3350 N3351 1.613 . S
S3350 N3352 1.610 . S
N3351 S3350 1.613 . S
N3351 C3354 1.350 . S
N3352 S3350 1.610 . S
N3352 C3353 1.351 . S
C3353 C3347 1.428 . S
C3353 N3352 1.351 . S
C3353 C3354 1.434 . S
C3354 C3345 1.429 . S
C3354 N3351 1.350 . S
C3354 C3353 1.434 . S
C3355 C3356 1.369 . S
C3355 C3357 1.419 . S
C3355 H3359 0.930 . S
C3356 C3355 1.369 . S
C3356 C3365 1.429 . S
C3357 C3355 1.419 . S
C3357 C3358 1.363 . S
C3357 H3360 0.929 . S
C3358 C3357 1.363 . S
C3358 C3364 1.428 . S
H3359 C3355 0.930 . S
H3360 C3357 0.929 . S
S3361 N3362 1.613 . S
S3361 N3363 1.610 . S
N3362 S3361 1.613 . S
N3362 C3365 1.350 . S
N3363 S3361 1.610 . S
N3363 C3364 1.351 . S
C3364 C3358 1.428 . S
C3364 N3363 1.351 . S
C3364 C3365 1.434 . S
C3365 C3356 1.429 . S
C3365 N3362 1.350 . S
C3365 C3364 1.434 . S
C3366 C3367 1.369 . S
C3366 C3368 1.419 . S
C3366 H3370 0.930 . S
C3367 C3366 1.369 . S
C3367 C3376 1.429 . S
C3368 C3366 1.419 . S
C3368 C3369 1.363 . S
C3368 H3371 0.929 . S
C3369 C3368 1.363 . S
C3369 C3375 1.428 . S
H3370 C3366 0.930 . S
H3371 C3368 0.929 . S
S3372 N3373 1.613 . S
S3372 N3374 1.610 . S
N3373 S3372 1.613 . S
N3373 C3376 1.350 . S
N3374 S3372 1.610 . S
N3374 C3375 1.351 . S
C3375 C3369 1.428 . S
C3375 N3374 1.351 . S
C3375 C3376 1.434 . S
C3376 C3367 1.429 . S
C3376 N3373 1.350 . S
C3376 C3375 1.434 . S
C3377 C3378 1.369 . S
C3377 C3379 1.419 . S
C3377 H3381 0.930 . S
C3378 C3377 1.369 . S
C3378 C3387 1.429 . S
C3379 C3377 1.419 . S
C3379 C3380 1.363 . S
C3379 H3382 0.929 . S
C3380 C3379 1.363 . S
C3380 C3386 1.428 . S
H3381 C3377 0.930 . S
H3382 C3379 0.929 . S
S3383 N3384 1.613 . S
S3383 N3385 1.610 . S
N3384 S3383 1.613 . S
N3384 C3387 1.350 . S
N3385 S3383 1.610 . S
N3385 C3386 1.351 . S
C3386 C3380 1.428 . S
C3386 N3385 1.351 . S
C3386 C3387 1.434 . S
C3387 C3378 1.429 . S
C3387 N3384 1.350 . S
C3387 C3386 1.434 . S
C3388 C3389 1.369 . S
C3388 C3390 1.419 . S
C3388 H3392 0.930 . S
C3389 C3388 1.369 . S
C3389 C3398 1.429 . S
C3390 C3388 1.419 . S
C3390 C3391 1.363 . S
C3390 H3393 0.929 . S
C3391 C3390 1.363 . S
C3391 C3397 1.428 . S
H3392 C3388 0.930 . S
H3393 C3390 0.929 . S
S3394 N3395 1.613 . S
S3394 N3396 1.610 . S
N3395 S3394 1.613 . S
N3395 C3398 1.350 . S
N3396 S3394 1.610 . S
N3396 C3397 1.351 . S
C3397 C3391 1.428 . S
C3397 N3396 1.351 . S
C3397 C3398 1.434 . S
C3398 C3389 1.429 . S
C3398 N3395 1.350 . S
C3398 C3397 1.434 . S
C3399 C3400 1.369 . S
C3399 C3401 1.419 . S
C3399 H3403 0.930 . S
C3400 C3399 1.369 . S
C3400 C3409 1.429 . S
C3401 C3399 1.419 . S
C3401 C3402 1.363 . S
C3401 H3404 0.929 . S
C3402 C3401 1.363 . S
C3402 C3408 1.428 . S
H3403 C3399 0.930 . S
H3404 C3401 0.929 . S
S3405 N3406 1.613 . S
S3405 N3407 1.610 . S
N3406 S3405 1.613 . S
N3406 C3409 1.350 . S
N3407 S3405 1.610 . S
N3407 C3408 1.351 . S
C3408 C3402 1.428 . S
C3408 N3407 1.351 . S
C3408 C3409 1.434 . S
C3409 C3400 1.429 . S
C3409 N3406 1.350 . S
C3409 C3408 1.434 . S
C3410 C3411 1.369 . S
C3410 C3412 1.419 . S
C3410 H3414 0.930 . S
C3411 C3410 1.369 . S
C3411 C3420 1.429 . S
C3412 C3410 1.419 . S
C3412 C3413 1.363 . S
C3412 H3415 0.929 . S
C3413 C3412 1.363 . S
C3413 C3419 1.428 . S
H3414 C3410 0.930 . S
H3415 C3412 0.929 . S
S3416 N3417 1.613 . S
S3416 N3418 1.610 . S
N3417 S3416 1.613 . S
N3417 C3420 1.350 . S
N3418 S3416 1.610 . S
N3418 C3419 1.351 . S
C3419 C3413 1.428 . S
C3419 N3418 1.351 . S
C3419 C3420 1.434 . S
C3420 C3411 1.429 . S
C3420 N3417 1.350 . S
C3420 C3419 1.434 . S
C3421 C3422 1.369 . S
C3421 C3423 1.419 . S
C3421 H3425 0.930 . S
C3422 C3421 1.369 . S
C3422 C3431 1.429 . S
C3423 C3421 1.419 . S
C3423 C3424 1.363 . S
C3423 H3426 0.929 . S
C3424 C3423 1.363 . S
C3424 C3430 1.428 . S
H3425 C3421 0.930 . S
H3426 C3423 0.929 . S
S3427 N3428 1.613 . S
S3427 N3429 1.610 . S
N3428 S3427 1.613 . S
N3428 C3431 1.350 . S
N3429 S3427 1.610 . S
N3429 C3430 1.351 . S
C3430 C3424 1.428 . S
C3430 N3429 1.351 . S
C3430 C3431 1.434 . S
C3431 C3422 1.429 . S
C3431 N3428 1.350 . S
C3431 C3430 1.434 . S
C3432 C3433 1.369 . S
C3432 C3434 1.419 . S
C3432 H3436 0.930 . S
C3433 C3432 1.369 . S
C3433 C3442 1.429 . S
C3434 C3432 1.419 . S
C3434 C3435 1.363 . S
C3434 H3437 0.929 . S
C3435 C3434 1.363 . S
C3435 C3441 1.428 . S
H3436 C3432 0.930 . S
H3437 C3434 0.929 . S
S3438 N3439 1.613 . S
S3438 N3440 1.610 . S
N3439 S3438 1.613 . S
N3439 C3442 1.350 . S
N3440 S3438 1.610 . S
N3440 C3441 1.351 . S
C3441 C3435 1.428 . S
C3441 N3440 1.351 . S
C3441 C3442 1.434 . S
C3442 C3433 1.429 . S
C3442 N3439 1.350 . S
C3442 C3441 1.434 . S
C3443 C3444 1.369 . S
C3443 C3445 1.419 . S
C3443 H3447 0.930 . S
C3444 C3443 1.369 . S
C3444 C3453 1.429 . S
C3445 C3443 1.419 . S
C3445 C3446 1.363 . S
C3445 H3448 0.929 . S
C3446 C3445 1.363 . S
C3446 C3452 1.428 . S
H3447 C3443 0.930 . S
H3448 C3445 0.929 . S
S3449 N3450 1.613 . S
S3449 N3451 1.610 . S
N3450 S3449 1.613 . S
N3450 C3453 1.350 . S
N3451 S3449 1.610 . S
N3451 C3452 1.351 . S
C3452 C3446 1.428 . S
C3452 N3451 1.351 . S
C3452 C3453 1.434 . S
C3453 C3444 1.429 . S
C3453 N3450 1.350 . S
C3453 C3452 1.434 . S
C3454 C3455 1.369 . S
C3454 C3456 1.419 . S
C3454 H3458 0.930 . S
C3455 C3454 1.369 . S
C3455 C3464 1.429 . S
C3456 C3454 1.419 . S
C3456 C3457 1.363 . S
C3456 H3459 0.929 . S
C3457 C3456 1.363 . S
C3457 C3463 1.428 . S
H3458 C3454 0.930 . S
H3459 C3456 0.929 . S
S3460 N3461 1.613 . S
S3460 N3462 1.610 . S
N3461 S3460 1.613 . S
N3461 C3464 1.350 . S
N3462 S3460 1.610 . S
N3462 C3463 1.351 . S
C3463 C3457 1.428 . S
C3463 N3462 1.351 . S
C3463 C3464 1.434 . S
C3464 C3455 1.429 . S
C3464 N3461 1.350 . S
C3464 C3463 1.434 . S
C3465 C3466 1.369 . S
C3465 C3467 1.419 . S
C3465 H3469 0.930 . S
C3466 C3465 1.369 . S
C3466 C3475 1.429 . S
C3467 C3465 1.419 . S
C3467 C3468 1.363 . S
C3467 H3470 0.929 . S
C3468 C3467 1.363 . S
C3468 C3474 1.428 . S
H3469 C3465 0.930 . S
H3470 C3467 0.929 . S
S3471 N3472 1.613 . S
S3471 N3473 1.610 . S
N3472 S3471 1.613 . S
N3472 C3475 1.350 . S
N3473 S3471 1.610 . S
N3473 C3474 1.351 . S
C3474 C3468 1.428 . S
C3474 N3473 1.351 . S
C3474 C3475 1.434 . S
C3475 C3466 1.429 . S
C3475 N3472 1.350 . S
C3475 C3474 1.434 . S
C3476 C3477 1.369 . S
C3476 C3478 1.419 . S
C3476 H3480 0.930 . S
C3477 C3476 1.369 . S
C3477 C3486 1.429 . S
C3478 C3476 1.419 . S
C3478 C3479 1.363 . S
C3478 H3481 0.929 . S
C3479 C3478 1.363 . S
C3479 C3485 1.428 . S
H3480 C3476 0.930 . S
H3481 C3478 0.929 . S
S3482 N3483 1.613 . S
S3482 N3484 1.610 . S
N3483 S3482 1.613 . S
N3483 C3486 1.350 . S
N3484 S3482 1.610 . S
N3484 C3485 1.351 . S
C3485 C3479 1.428 . S
C3485 N3484 1.351 . S
C3485 C3486 1.434 . S
C3486 C3477 1.429 . S
C3486 N3483 1.350 . S
C3486 C3485 1.434 . S
C3487 C3488 1.369 . S
C3487 C3489 1.419 . S
C3487 H3491 0.930 . S
C3488 C3487 1.369 . S
C3488 C3497 1.429 . S
C3489 C3487 1.419 . S
C3489 C3490 1.363 . S
C3489 H3492 0.929 . S
C3490 C3489 1.363 . S
C3490 C3496 1.428 . S
H3491 C3487 0.930 . S
H3492 C3489 0.929 . S
S3493 N3494 1.613 . S
S3493 N3495 1.610 . S
N3494 S3493 1.613 . S
N3494 C3497 1.350 . S
N3495 S3493 1.610 . S
N3495 C3496 1.351 . S
C3496 C3490 1.428 . S
C3496 N3495 1.351 . S
C3496 C3497 1.434 . S
C3497 C3488 1.429 . S
C3497 N3494 1.350 . S
C3497 C3496 1.434 . S
C3498 C3499 1.369 . S
C3498 C3500 1.419 . S
C3498 H3502 0.930 . S
C3499 C3498 1.369 . S
C3499 C3508 1.429 . S
C3500 C3498 1.419 . S
C3500 C3501 1.363 . S
C3500 H3503 0.929 . S
C3501 C3500 1.363 . S
C3501 C3507 1.428 . S
H3502 C3498 0.930 . S
H3503 C3500 0.929 . S
S3504 N3505 1.613 . S
S3504 N3506 1.610 . S
N3505 S3504 1.613 . S
N3505 C3508 1.350 . S
N3506 S3504 1.610 . S
N3506 C3507 1.351 . S
C3507 C3501 1.428 . S
C3507 N3506 1.351 . S
C3507 C3508 1.434 . S
C3508 C3499 1.429 . S
C3508 N3505 1.350 . S
C3508 C3507 1.434 . S
C3509 C3510 1.369 . S
C3509 C3511 1.419 . S
C3509 H3513 0.930 . S
C3510 C3509 1.369 . S
C3510 C3519 1.429 . S
C3511 C3509 1.419 . S
C3511 C3512 1.363 . S
C3511 H3514 0.929 . S
C3512 C3511 1.363 . S
C3512 C3518 1.428 . S
H3513 C3509 0.930 . S
H3514 C3511 0.929 . S
S3515 N3516 1.613 . S
S3515 N3517 1.610 . S
N3516 S3515 1.613 . S
N3516 C3519 1.350 . S
N3517 S3515 1.610 . S
N3517 C3518 1.351 . S
C3518 C3512 1.428 . S
C3518 N3517 1.351 . S
C3518 C3519 1.434 . S
C3519 C3510 1.429 . S
C3519 N3516 1.350 . S
C3519 C3518 1.434 . S
C2817 C284 1.512 . S
C2819 C49 1.524 . S
C2828 C196 1.517 . S
C2830 C137 1.520 . S
C2839 C673 1.506 . S
C2841 C372 1.519 . S
C2850 C577 1.520 . S
C2852 C469 1.510 . S
C2861 C753 1.522 . S
C2863 C988 1.516 . S
C2872 C841 1.522 . S
C2874 C909 1.516 . S
C2883 C1377 1.519 . S
C2885 C1076 1.509 . S
C2894 C1173 1.520 . S
C2896 C1281 1.508 . S
C2905 C1465 1.527 . S
C2907 C1701 1.512 . S
C2916 C1545 1.521 . S
C2918 C1613 1.516 . S
C2927 C2081 1.520 . S
C2929 C1780 1.511 . S
C2938 C1985 1.506 . S
C2940 C1868 1.520 . S
C2949 C2396 1.525 . S
C2951 C2169 1.513 . S
C2960 C2249 1.515 . S
C2962 C2317 1.522 . S
C2971 C2484 1.510 . S
C2973 C2785 1.518 . S
C2982 C2581 1.522 . S
C2984 C2697 1.508 . S
C2993 C1817 2.107 . S
C2995 C57 2.105 . S
C3004 C1193 2.109 1_455 S
C3006 C145 2.107 . S
C3015 C205 2.107 . S
C3017 C2660 2.109 . S
C3026 C293 2.099 . S
C3028 C636 2.114 1_455 S
C3037 C1457 2.105 . S
C3039 C409 2.109 . S
C3048 C849 2.108 . S
C3050 C489 2.111 1_455 S
C3059 C2308 2.095 . S
C3061 C557 2.119 . S
C3070 C761 2.097 . S
C3072 C2521 2.116 . S
C3081 C1965 2.110 . S
C3083 C900 2.106 . S
C3092 C1340 2.116 . S
C3094 C997 2.103 . S
C3103 C2161 2.104 . S
C3105 C1113 2.111 . S
C3114 C1261 2.120 . S
C3116 C1604 2.098 . S
C3125 C2601 2.113 . S
C3127 C1553 2.100 . S
C3136 C1692 2.105 . S
C3138 C2044 2.113 . S
C3147 C2257 2.094 . S
C3149 C1905 2.117 . S
C3158 C2748 2.111 . S
C3160 C2405 2.104 . S
C3169 C117 1.790 . S
C3171 C29 1.793 . S
C3180 C233 1.796 . S
C3182 C321 1.786 . S
C3191 C381 1.792 . S
C3193 C460 1.792 . S
C3202 C665 1.788 . S
C3204 C585 1.797 . S
C3213 C733 1.788 . S
C3215 C821 1.791 . S
C3224 C929 1.787 . S
C3226 C1025 1.794 . S
C3235 C1164 1.799 . S
C3237 C1085 1.792 . S
C3246 C1289 1.798 . S
C3248 C1369 1.790 . S
C3257 C1428 1.796 . S
C3259 C1525 1.786 . S
C3268 C1633 1.796 . S
C3270 C1721 1.786 . S
C3279 C1789 1.799 . S
C3281 C1877 1.792 . S
C3290 C2073 1.789 . S
C3292 C1993 1.798 . S
C3301 C2229 1.796 . S
C3303 C2132 1.787 . S
C3312 C2337 1.785 . S
C3314 C2433 1.795 . S
C3323 C2493 1.790 . S
C3325 C2572 1.798 . S
C3334 C2777 1.798 . S
C3336 C2689 1.789 . S
C3345 C20 1.689 . S
C3347 C1729 1.693 . S
C3356 C108 1.691 . S
C3358 C1641 1.691 . S
C3367 C1516 1.693 . S
C3369 C225 1.692 . S
C3378 C313 1.690 . S
C3380 C1437 1.690 . S
C3389 C2053 1.689 . S
C3391 C401 1.689 . S
C3400 C497 1.694 . S
C3402 C1956 1.687 . S
C3411 C1897 1.693 . S
C3413 C548 1.691 . S
C3422 C645 1.691 . S
C3424 C1809 1.692 . S
C3433 C724 1.688 . S
C3435 C2425 1.694 . S
C3444 C812 1.693 . S
C3446 C2345 1.688 . S
C3455 C937 1.690 . S
C3457 C2220 1.692 . S
C3466 C2141 1.690 . S
C3468 C1017 1.688 . S
C3477 C1105 1.687 . S
C3479 C2757 1.693 . S
C3488 C1201 1.687 . S
C3490 C2669 1.693 . S
C3499 C1252 1.693 . S
C3501 C2609 1.689 . S
C3510 C2513 1.692 . S
C3512 C1349 1.690 . S
