# Generated by pormake.
# Topology uot, (4)-cn, num edge types: 1
# Building blocks:
#     Node 0, Type 0, BuildingBlock: UXUYUI_clean_sbu_0, # of connection points: 4
#     Node 1, Type 0, BuildingBlock: UXUYUI_clean_sbu_0, # of connection points: 4
#     Node 2, Type 0, BuildingBlock: UXUYUI_clean_sbu_0, # of connection points: 4
#     Node 3, Type 0, BuildingBlock: UXUYUI_clean_sbu_0, # of connection points: 4
#     Node 4, Type 0, BuildingBlock: UXUYUI_clean_sbu_0, # of connection points: 4
#     Node 5, Type 0, BuildingBlock: UXUYUI_clean_sbu_0, # of connection points: 4
#     Node 6, Type 0, BuildingBlock: UXUYUI_clean_sbu_0, # of connection points: 4
#     Node 7, Type 0, BuildingBlock: UXUYUI_clean_sbu_0, # of connection points: 4
#     Node 8, Type 0, BuildingBlock: UXUYUI_clean_sbu_0, # of connection points: 4
#     Node 9, Type 0, BuildingBlock: UXUYUI_clean_sbu_0, # of connection points: 4
#     Node 10, Type 0, BuildingBlock: UXUYUI_clean_sbu_0, # of connection points: 4
#     Node 11, Type 0, BuildingBlock: UXUYUI_clean_sbu_0, # of connection points: 4
#     Node 12, Type 0, BuildingBlock: UXUYUI_clean_sbu_0, # of connection points: 4
#     Node 13, Type 0, BuildingBlock: UXUYUI_clean_sbu_0, # of connection points: 4
#     Node 14, Type 0, BuildingBlock: UXUYUI_clean_sbu_0, # of connection points: 4
#     Node 15, Type 0, BuildingBlock: UXUYUI_clean_sbu_0, # of connection points: 4
#     Edge 16, Type (0, 0), BuildingBlock: UVAHIK_clean_linker_0, # of connection points: 2
#     Edge 17, Type (0, 0), BuildingBlock: UVAHIK_clean_linker_0, # of connection points: 2
#     Edge 18, Type (0, 0), BuildingBlock: UVAHIK_clean_linker_0, # of connection points: 2
#     Edge 19, Type (0, 0), BuildingBlock: UVAHIK_clean_linker_0, # of connection points: 2
#     Edge 20, Type (0, 0), BuildingBlock: UVAHIK_clean_linker_0, # of connection points: 2
#     Edge 21, Type (0, 0), BuildingBlock: UVAHIK_clean_linker_0, # of connection points: 2
#     Edge 22, Type (0, 0), BuildingBlock: UVAHIK_clean_linker_0, # of connection points: 2
#     Edge 23, Type (0, 0), BuildingBlock: UVAHIK_clean_linker_0, # of connection points: 2
#     Edge 24, Type (0, 0), BuildingBlock: UVAHIK_clean_linker_0, # of connection points: 2
#     Edge 25, Type (0, 0), BuildingBlock: UVAHIK_clean_linker_0, # of connection points: 2
#     Edge 26, Type (0, 0), BuildingBlock: UVAHIK_clean_linker_0, # of connection points: 2
#     Edge 27, Type (0, 0), BuildingBlock: UVAHIK_clean_linker_0, # of connection points: 2
#     Edge 28, Type (0, 0), BuildingBlock: UVAHIK_clean_linker_0, # of connection points: 2
#     Edge 29, Type (0, 0), BuildingBlock: UVAHIK_clean_linker_0, # of connection points: 2
#     Edge 30, Type (0, 0), BuildingBlock: UVAHIK_clean_linker_0, # of connection points: 2
#     Edge 31, Type (0, 0), BuildingBlock: UVAHIK_clean_linker_0, # of connection points: 2
#     Edge 32, Type (0, 0), BuildingBlock: UVAHIK_clean_linker_0, # of connection points: 2
#     Edge 33, Type (0, 0), BuildingBlock: UVAHIK_clean_linker_0, # of connection points: 2
#     Edge 34, Type (0, 0), BuildingBlock: UVAHIK_clean_linker_0, # of connection points: 2
#     Edge 35, Type (0, 0), BuildingBlock: UVAHIK_clean_linker_0, # of connection points: 2
#     Edge 36, Type (0, 0), BuildingBlock: UVAHIK_clean_linker_0, # of connection points: 2
#     Edge 37, Type (0, 0), BuildingBlock: UVAHIK_clean_linker_0, # of connection points: 2
#     Edge 38, Type (0, 0), BuildingBlock: UVAHIK_clean_linker_0, # of connection points: 2
#     Edge 39, Type (0, 0), BuildingBlock: UVAHIK_clean_linker_0, # of connection points: 2
#     Edge 40, Type (0, 0), BuildingBlock: UVAHIK_clean_linker_0, # of connection points: 2
#     Edge 41, Type (0, 0), BuildingBlock: UVAHIK_clean_linker_0, # of connection points: 2
#     Edge 42, Type (0, 0), BuildingBlock: UVAHIK_clean_linker_0, # of connection points: 2
#     Edge 43, Type (0, 0), BuildingBlock: UVAHIK_clean_linker_0, # of connection points: 2
#     Edge 44, Type (0, 0), BuildingBlock: UVAHIK_clean_linker_0, # of connection points: 2
#     Edge 45, Type (0, 0), BuildingBlock: UVAHIK_clean_linker_0, # of connection points: 2
#     Edge 46, Type (0, 0), BuildingBlock: UVAHIK_clean_linker_0, # of connection points: 2
#     Edge 47, Type (0, 0), BuildingBlock: UVAHIK_clean_linker_0, # of connection points: 2
# Relax obj value: 0.272
# Max RMSD: 0.247
# Mean RMSD: 0.247
data_MOF--net-uot--node1-UXUYUI_clean_sbu_0--edge1-UVAHIK_clean_linker_0
_symmetry_space_group_name_H-M    P1
_symmetry_Int_Tables_number       1
_symmetry_cell_setting            triclinic
loop_
_symmetry_equiv_pos_as_xyz
'x, y, z'
_cell_length_a     75.70626
_cell_length_b     75.450012
_cell_length_c     70.496693
_cell_angle_alpha  89.989959
_cell_angle_beta   90.009443
_cell_angle_gamma 89.997231
loop_
_atom_site_label
_atom_site_type_symbol
_atom_site_fract_x
_atom_site_fract_y
_atom_site_fract_z
_atom_type_partial_charge
Li0 Li 0.21833 0.47329 0.30215 0.0
Li1 Li 0.22098 0.46374 0.33539 0.0
Li2 Li 0.24179 0.45388 0.31097 0.0
Li3 Li 0.21132 0.44282 0.31139 0.0
C4 C 0.2543 0.48434 0.3227 0.0
N5 N 0.28894 0.49489 0.32763 0.0
C6 C 0.26148 0.48544 0.34093 0.0
C7 C 0.26467 0.48876 0.307 0.0
C8 C 0.27904 0.49077 0.34312 0.0
C9 C 0.28218 0.494 0.30978 0.0
C10 C 0.18678 0.47203 0.33061 0.0
C11 C 0.1666 0.46993 0.35698 0.0
N12 N 0.1618 0.48711 0.35418 0.0
C13 C 0.1816 0.48964 0.32793 0.0
C14 C 0.17918 0.46206 0.34519 0.0
C15 C 0.16895 0.49702 0.34001 0.0
C16 C 0.19552 0.49043 0.27671 0.0
N17 N 0.21097 0.49224 0.28633 0.0
C18 C 0.2143 0.52192 0.27508 0.0
C19 C 0.22045 0.50752 0.28565 0.0
C20 C 0.19828 0.52048 0.26513 0.0
C21 C 0.18897 0.5044 0.26584 0.0
H22 H 0.18807 0.47825 0.27788 0.0
H23 H 0.23258 0.50866 0.29365 0.0
C24 C 0.22608 0.45879 0.3743 0.0
N25 N 0.21919 0.47021 0.36138 0.0
C26 C 0.22568 0.46286 0.39359 0.0
C27 C 0.21101 0.4904 0.38597 0.0
C28 C 0.21204 0.48594 0.36678 0.0
C29 C 0.21794 0.47881 0.39974 0.0
H30 H 0.23218 0.44661 0.3696 0.0
H31 H 0.20716 0.49506 0.35619 0.0
C32 C 0.22193 0.4545 0.27095 0.0
N33 N 0.21373 0.46306 0.23389 0.0
C34 C 0.20664 0.44772 0.26255 0.0
C35 C 0.23314 0.46549 0.26048 0.0
C36 C 0.20271 0.45223 0.24379 0.0
C37 C 0.22873 0.46971 0.24177 0.0
C38 C 0.22855 0.42243 0.33593 0.0
C39 C 0.24027 0.40991 0.3285 0.0
C40 C 0.21511 0.41698 0.3482 0.0
C41 C 0.23822 0.39207 0.33336 0.0
C42 C 0.21348 0.39902 0.35268 0.0
N43 N 0.22497 0.38704 0.34523 0.0
C44 C 0.27552 0.44458 0.32321 0.0
C45 C 0.27177 0.44245 0.2899 0.0
C46 C 0.29247 0.4375 0.3219 0.0
N47 N 0.26553 0.44674 0.30738 0.0
C48 C 0.28865 0.43519 0.28793 0.0
C49 C 0.29909 0.43229 0.30413 0.0
H50 H 0.27007 0.44785 0.33695 0.0
H51 H 0.26339 0.44403 0.27759 0.0
C52 C 0.17881 0.42478 0.30955 0.0
N53 N 0.19643 0.42308 0.30645 0.0
C54 C 0.1674 0.41074 0.3056 0.0
C55 C 0.1925 0.3934 0.29538 0.0
C56 C 0.2034 0.40787 0.29934 0.0
C57 C 0.17419 0.39474 0.29842 0.0
H58 H 0.17355 0.43716 0.31474 0.0
H59 H 0.21743 0.40702 0.29662 0.0
O60 O 0.23725 0.47886 0.32024 0.0
O61 O 0.19917 0.46457 0.31896 0.0
O62 O 0.22586 0.45047 0.28939 0.0
O63 O 0.23019 0.43992 0.33117 0.0
H64 H 0.25364 0.48208 0.35324 0.0
H65 H 0.25931 0.48794 0.2928 0.0
H66 H 0.2848 0.4916 0.35714 0.0
H67 H 0.2904 0.49734 0.29775 0.0
H68 H 0.16068 0.4624 0.36838 0.0
H69 H 0.18737 0.49758 0.31677 0.0
H70 H 0.18304 0.44842 0.34744 0.0
H71 H 0.16487 0.51065 0.33816 0.0
H72 H 0.22189 0.53409 0.27485 0.0
H73 H 0.17641 0.50286 0.25866 0.0
H74 H 0.23169 0.4537 0.40349 0.0
H75 H 0.20479 0.50278 0.38992 0.0
H76 H 0.19781 0.43921 0.27046 0.0
H77 H 0.24501 0.47086 0.2668 0.0
H78 H 0.19087 0.44716 0.23712 0.0
H79 H 0.23721 0.47831 0.23354 0.0
H80 H 0.25071 0.41388 0.31893 0.0
H81 H 0.20597 0.42652 0.35411 0.0
H82 H 0.24714 0.38222 0.32764 0.0
H83 H 0.20308 0.3946 0.36208 0.0
H84 H 0.30013 0.43571 0.33473 0.0
H85 H 0.29312 0.43114 0.274 0.0
H86 H 0.15336 0.41261 0.30771 0.0
H87 H 0.19838 0.38133 0.28998 0.0
Li88 Li 0.44866 0.78726 0.68797 0.0
Li89 Li 0.47901 0.77677 0.693 0.0
Li90 Li 0.46563 0.7738 0.6622 0.0
Li91 Li 0.45582 0.75583 0.68956 0.0
C92 C 0.47555 0.81236 0.6825 0.0
N93 N 0.48569 0.84505 0.69646 0.0
C94 C 0.47429 0.81598 0.70192 0.0
C95 C 0.48197 0.82539 0.6702 0.0
C96 C 0.47949 0.83258 0.70869 0.0
C97 C 0.48701 0.84183 0.67753 0.0
C98 C 0.45462 0.76586 0.72664 0.0
C99 C 0.46009 0.74267 0.74947 0.0
N100 N 0.44659 0.7489 0.7603 0.0
C101 C 0.44091 0.77212 0.73809 0.0
C102 C 0.4644 0.75111 0.73245 0.0
C103 C 0.43701 0.76333 0.75503 0.0
C104 C 0.41548 0.79706 0.7016 0.0
N105 N 0.4303 0.80381 0.69349 0.0
C106 C 0.41777 0.83288 0.69346 0.0
C107 C 0.4315 0.82129 0.68895 0.0
C108 C 0.40245 0.8264 0.70234 0.0
C109 C 0.40134 0.80815 0.7062 0.0
H110 H 0.41465 0.783 0.70449 0.0
H111 H 0.44304 0.82633 0.68181 0.0
C112 C 0.51252 0.7921 0.69419 0.0
N113 N 0.50083 0.78282 0.70494 0.0
C114 C 0.52749 0.79956 0.70244 0.0
C115 C 0.51874 0.78692 0.73252 0.0
C116 C 0.50377 0.77986 0.72371 0.0
C117 C 0.53053 0.79732 0.72192 0.0
H118 H 0.50979 0.79437 0.67933 0.0
H119 H 0.49417 0.77271 0.73203 0.0
C120 C 0.429 0.77498 0.65782 0.0
N121 N 0.40466 0.78844 0.63242 0.0
C122 C 0.41359 0.76553 0.65376 0.0
C123 C 0.43202 0.7913 0.649 0.0
C124 C 0.40144 0.77255 0.64087 0.0
C125 C 0.41956 0.79787 0.63619 0.0
C126 C 0.49615 0.75038 0.67751 0.0
C127 C 0.50853 0.75758 0.665 0.0
C128 C 0.50162 0.73822 0.69126 0.0
C129 C 0.52627 0.75274 0.66668 0.0
C130 C 0.51948 0.73371 0.69249 0.0
N131 N 0.53134 0.74102 0.6803 0.0
C132 C 0.48182 0.78551 0.62864 0.0
C133 C 0.46044 0.76291 0.62419 0.0
C134 C 0.48535 0.78593 0.60922 0.0
N135 N 0.46962 0.77406 0.63568 0.0
C136 C 0.46341 0.76302 0.60464 0.0
C137 C 0.47609 0.77457 0.59696 0.0
H138 H 0.48892 0.79419 0.63816 0.0
H139 H 0.45087 0.75389 0.63024 0.0
C140 C 0.43116 0.73334 0.70717 0.0
N141 N 0.44609 0.73359 0.69646 0.0
C142 C 0.42302 0.71729 0.7116 0.0
C143 C 0.44541 0.70207 0.69332 0.0
C144 C 0.45336 0.71842 0.68959 0.0
C145 C 0.43003 0.70145 0.70442 0.0
H146 H 0.42537 0.74565 0.71196 0.0
H147 H 0.46506 0.71907 0.68082 0.0
O148 O 0.47094 0.79608 0.6755 0.0
O149 O 0.45845 0.77417 0.70987 0.0
O150 O 0.44092 0.76829 0.67053 0.0
O151 O 0.47877 0.75522 0.67629 0.0
H152 H 0.4694 0.80612 0.71171 0.0
H153 H 0.48306 0.82282 0.65515 0.0
H154 H 0.47861 0.83553 0.72367 0.0
H155 H 0.492 0.85203 0.66817 0.0
H156 H 0.46748 0.73117 0.75405 0.0
H157 H 0.4334 0.78369 0.734 0.0
H158 H 0.47509 0.74616 0.72382 0.0
H159 H 0.42639 0.76801 0.76399 0.0
H160 H 0.41933 0.84683 0.69029 0.0
H161 H 0.38965 0.80244 0.7126 0.0
H162 H 0.53635 0.80742 0.69379 0.0
H163 H 0.52058 0.78506 0.74763 0.0
H164 H 0.41104 0.7529 0.66053 0.0
H165 H 0.44384 0.79885 0.65201 0.0
H166 H 0.38946 0.76538 0.63758 0.0
H167 H 0.42173 0.81048 0.62927 0.0
H168 H 0.50453 0.76697 0.65425 0.0
H169 H 0.49218 0.73225 0.70083 0.0
H170 H 0.53602 0.75833 0.65719 0.0
H171 H 0.52391 0.72437 0.70312 0.0
H172 H 0.49511 0.79513 0.60383 0.0
H173 H 0.45612 0.75394 0.59567 0.0
H174 H 0.41098 0.7173 0.7199 0.0
H175 H 0.45107 0.69008 0.68745 0.0
Li176 Li 0.75311 0.54372 0.30477 0.0
Li177 Li 0.78386 0.55335 0.30814 0.0
Li178 Li 0.77639 0.52298 0.29922 0.0
Li179 Li 0.7711 0.53378 0.3315 0.0
C180 C 0.77658 0.54059 0.26726 0.0
N181 N 0.78796 0.5298 0.23187 0.0
C182 C 0.79313 0.54587 0.26053 0.0
C183 C 0.76576 0.52993 0.25595 0.0
C184 C 0.79865 0.54026 0.2426 0.0
C185 C 0.77177 0.52458 0.23811 0.0
C186 C 0.76559 0.57564 0.32901 0.0
C187 C 0.78074 0.59967 0.34464 0.0
N188 N 0.77039 0.61148 0.3352 0.0
C189 C 0.75507 0.588 0.3195 0.0
C190 C 0.77849 0.58149 0.34174 0.0
C191 C 0.7577 0.60607 0.32282 0.0
C192 C 0.71879 0.55452 0.31297 0.0
N193 N 0.73009 0.55159 0.29834 0.0
C194 C 0.70903 0.56279 0.27613 0.0
C195 C 0.72555 0.5554 0.28014 0.0
C196 C 0.69718 0.56622 0.29103 0.0
C197 C 0.70214 0.56173 0.30961 0.0
H198 H 0.72296 0.55175 0.32734 0.0
H199 H 0.73492 0.55316 0.26882 0.0
C200 C 0.81695 0.57049 0.31001 0.0
N201 N 0.80002 0.57224 0.30394 0.0
C202 C 0.8292 0.58395 0.3067 0.0
C203 C 0.80635 0.60079 0.29094 0.0
C204 C 0.79457 0.58692 0.29442 0.0
C205 C 0.82398 0.59939 0.29703 0.0
H206 H 0.82104 0.55851 0.31715 0.0
H207 H 0.78109 0.58781 0.28946 0.0
C208 C 0.7382 0.51422 0.3162 0.0
N209 N 0.70283 0.50541 0.31807 0.0
C210 C 0.72948 0.51407 0.33367 0.0
C211 C 0.72898 0.50976 0.2997 0.0
C212 C 0.71158 0.5096 0.33431 0.0
C213 C 0.71109 0.50539 0.30093 0.0
C214 C 0.8044 0.52348 0.33141 0.0
C215 C 0.80808 0.50535 0.33044 0.0
C216 C 0.81096 0.53347 0.34656 0.0
C217 C 0.81821 0.49749 0.34471 0.0
C218 C 0.821 0.52511 0.36057 0.0
N219 N 0.82438 0.50744 0.35937 0.0
C220 C 0.80118 0.50391 0.27804 0.0
C221 C 0.77401 0.48879 0.28225 0.0
C222 C 0.80822 0.48948 0.26826 0.0
N223 N 0.7844 0.50328 0.28483 0.0
C224 C 0.78054 0.47401 0.2726 0.0
C225 C 0.79792 0.47419 0.26559 0.0
H226 H 0.80923 0.5155 0.28061 0.0
H227 H 0.76077 0.48859 0.28798 0.0
C228 C 0.76617 0.54049 0.3704 0.0
N229 N 0.77045 0.5277 0.35766 0.0
C230 C 0.76547 0.53657 0.38972 0.0
C231 C 0.77347 0.50631 0.38245 0.0
C232 C 0.77379 0.51078 0.36323 0.0
C233 C 0.76928 0.51931 0.39603 0.0
H234 H 0.76311 0.55372 0.36555 0.0
H235 H 0.77678 0.50078 0.35274 0.0
O236 O 0.7711 0.54563 0.28492 0.0
O237 O 0.76341 0.5579 0.32573 0.0
O238 O 0.75564 0.51887 0.31524 0.0
O239 O 0.79434 0.53139 0.3177 0.0
H240 H 0.8017 0.55406 0.26913 0.0
H241 H 0.75295 0.52567 0.26099 0.0
H242 H 0.81146 0.54417 0.23724 0.0
H243 H 0.76359 0.51623 0.22926 0.0
H244 H 0.79074 0.60439 0.35436 0.0
H245 H 0.7451 0.58374 0.30951 0.0
H246 H 0.78679 0.57211 0.34916 0.0
H247 H 0.74971 0.61579 0.3155 0.0
H248 H 0.70569 0.56607 0.26161 0.0
H249 H 0.69357 0.5645 0.32155 0.0
H250 H 0.84273 0.58206 0.31127 0.0
H251 H 0.80167 0.61247 0.28356 0.0
H252 H 0.73639 0.51753 0.34658 0.0
H253 H 0.73552 0.5099 0.28606 0.0
H254 H 0.70463 0.50951 0.34772 0.0
H255 H 0.70376 0.50204 0.28826 0.0
H256 H 0.80303 0.49738 0.3189 0.0
H257 H 0.80816 0.54749 0.34759 0.0
H258 H 0.8211 0.48345 0.34418 0.0
H259 H 0.82606 0.53266 0.37243 0.0
H260 H 0.82177 0.49009 0.26341 0.0
H261 H 0.77213 0.46253 0.27075 0.0
H262 H 0.76173 0.54693 0.39956 0.0
H263 H 0.77664 0.49287 0.38659 0.0
Li264 Li 0.5496 0.20945 0.68743 0.0
Li265 Li 0.51977 0.22033 0.6948 0.0
Li266 Li 0.53198 0.2254 0.66375 0.0
Li267 Li 0.54322 0.24063 0.69221 0.0
C268 C 0.52174 0.1856 0.68081 0.0
N269 N 0.51113 0.15212 0.69192 0.0
C270 C 0.5233 0.18038 0.69979 0.0
C271 C 0.51478 0.17378 0.66751 0.0
C272 C 0.51785 0.16341 0.70511 0.0
C273 C 0.50951 0.1569 0.6734 0.0
C274 C 0.54685 0.22848 0.72748 0.0
C275 C 0.54421 0.25068 0.75194 0.0
N276 N 0.55899 0.24418 0.76043 0.0
C277 C 0.56187 0.22187 0.73659 0.0
C278 C 0.53781 0.24285 0.73536 0.0
C279 C 0.56785 0.23004 0.75317 0.0
C280 C 0.58344 0.19797 0.69734 0.0
N281 N 0.5678 0.19204 0.69033 0.0
C282 C 0.5793 0.16263 0.6878 0.0
C283 C 0.56569 0.17483 0.68506 0.0
C284 C 0.59541 0.16823 0.6957 0.0
C285 C 0.59746 0.18625 0.70024 0.0
H286 H 0.58499 0.21187 0.70075 0.0
H287 H 0.5535 0.17044 0.67872 0.0
C288 C 0.48588 0.20575 0.69634 0.0
N289 N 0.49829 0.21394 0.70718 0.0
C290 C 0.47099 0.19827 0.70474 0.0
C291 C 0.48131 0.20873 0.73521 0.0
C292 C 0.49618 0.21581 0.72623 0.0
C293 C 0.46878 0.19941 0.72445 0.0
H294 H 0.48793 0.2044 0.68123 0.0
H295 H 0.50634 0.22215 0.73456 0.0
C296 C 0.56836 0.22369 0.65766 0.0
N297 N 0.59137 0.21191 0.63 0.0
C298 C 0.58377 0.23318 0.65374 0.0
C299 C 0.56466 0.20818 0.64757 0.0
C300 C 0.59524 0.22701 0.63969 0.0
C301 C 0.57646 0.20245 0.63363 0.0
C302 C 0.50242 0.24756 0.68226 0.0
C303 C 0.48996 0.24214 0.66883 0.0
C304 C 0.49696 0.2574 0.698 0.0
C305 C 0.47218 0.24641 0.67153 0.0
C306 C 0.47905 0.26139 0.70021 0.0
N307 N 0.46714 0.25584 0.68705 0.0
C308 C 0.51477 0.21637 0.62983 0.0
C309 C 0.53639 0.23891 0.62656 0.0
C310 C 0.51097 0.21714 0.61048 0.0
N311 N 0.52725 0.22719 0.63742 0.0
C312 C 0.53318 0.23997 0.60708 0.0
C313 C 0.52028 0.22902 0.59885 0.0
H314 H 0.50771 0.2072 0.63885 0.0
H315 H 0.54623 0.24737 0.63303 0.0
C316 C 0.57101 0.26027 0.70708 0.0
N317 N 0.55413 0.26176 0.70076 0.0
C318 C 0.5803 0.27527 0.71284 0.0
C319 C 0.55473 0.29314 0.70523 0.0
C320 C 0.54584 0.27771 0.69979 0.0
C321 C 0.57223 0.292 0.71177 0.0
H322 H 0.57733 0.24741 0.70736 0.0
H323 H 0.53247 0.2785 0.69446 0.0
O324 O 0.52659 0.2023 0.67525 0.0
O325 O 0.54094 0.2208 0.71106 0.0
O326 O 0.55709 0.22954 0.67148 0.0
O327 O 0.51984 0.24315 0.68006 0.0
H328 H 0.52861 0.18929 0.71033 0.0
H329 H 0.51347 0.17758 0.65278 0.0
H330 H 0.51895 0.15921 0.71973 0.0
H331 H 0.50411 0.14762 0.66324 0.0
H332 H 0.53744 0.26194 0.75806 0.0
H333 H 0.56878 0.21048 0.73102 0.0
H334 H 0.52611 0.24805 0.7286 0.0
H335 H 0.5795 0.2251 0.76031 0.0
H336 H 0.57706 0.14889 0.6841 0.0
H337 H 0.60977 0.19127 0.70594 0.0
H338 H 0.46153 0.19125 0.69599 0.0
H339 H 0.48009 0.20971 0.75048 0.0
H340 H 0.58684 0.24517 0.6615 0.0
H341 H 0.55283 0.20061 0.65045 0.0
H342 H 0.60722 0.23423 0.63649 0.0
H343 H 0.57376 0.19048 0.6257 0.0
H344 H 0.49392 0.23455 0.65656 0.0
H345 H 0.5064 0.26191 0.70842 0.0
H346 H 0.46239 0.24217 0.66132 0.0
H347 H 0.47464 0.26891 0.71238 0.0
H348 H 0.50105 0.20836 0.60463 0.0
H349 H 0.54054 0.24939 0.5986 0.0
H350 H 0.59389 0.27385 0.71743 0.0
H351 H 0.54808 0.30581 0.70419 0.0
Li352 Li 0.21085 0.55337 0.68721 0.0
Li353 Li 0.24199 0.54516 0.69089 0.0
Li354 Li 0.22444 0.53426 0.66409 0.0
Li355 Li 0.21948 0.52336 0.69648 0.0
C356 C 0.22788 0.57639 0.66691 0.0
N357 N 0.22044 0.61193 0.66193 0.0
C358 C 0.23688 0.58916 0.67752 0.0
C359 C 0.21516 0.58169 0.65369 0.0
C360 C 0.23292 0.60707 0.6748 0.0
C361 C 0.21156 0.59972 0.65141 0.0
C362 C 0.21944 0.54151 0.72859 0.0
C363 C 0.22654 0.52659 0.75787 0.0
N364 N 0.21054 0.53136 0.765 0.0
C365 C 0.20311 0.54636 0.73623 0.0
C366 C 0.23131 0.53164 0.7395 0.0
C367 C 0.19884 0.54107 0.75467 0.0
C368 C 0.17786 0.57017 0.68274 0.0
N369 N 0.19386 0.57154 0.69131 0.0
C370 C 0.18491 0.59807 0.70715 0.0
C371 C 0.19765 0.58518 0.70324 0.0
C372 C 0.16812 0.59683 0.69873 0.0
C373 C 0.16478 0.58277 0.68616 0.0
H374 H 0.17512 0.55914 0.67348 0.0
H375 H 0.21046 0.58581 0.71001 0.0
C376 C 0.27732 0.55538 0.68466 0.0
N377 N 0.26446 0.55409 0.69804 0.0
C378 C 0.29343 0.56337 0.68903 0.0
C379 C 0.28259 0.56895 0.72075 0.0
C380 C 0.26681 0.56054 0.71587 0.0
C381 C 0.29606 0.57055 0.70717 0.0
H382 H 0.27485 0.5507 0.67042 0.0
H383 H 0.2562 0.55971 0.72609 0.0
C384 C 0.19137 0.52219 0.66459 0.0
N385 N 0.17153 0.50449 0.63767 0.0
C386 C 0.18753 0.50419 0.66689 0.0
C387 C 0.18505 0.5312 0.64863 0.0
C388 C 0.17748 0.49548 0.65312 0.0
C389 C 0.17508 0.522 0.63517 0.0
C390 C 0.25788 0.5155 0.67957 0.0
C391 C 0.26647 0.51495 0.66203 0.0
C392 C 0.26715 0.51119 0.69608 0.0
C393 C 0.28432 0.51029 0.66134 0.0
C394 C 0.285 0.50663 0.69479 0.0
N395 N 0.29314 0.50628 0.67759 0.0
C396 C 0.22963 0.54079 0.62518 0.0
C397 C 0.22129 0.51129 0.63241 0.0
C398 C 0.22958 0.53699 0.60581 0.0
N399 N 0.22524 0.52807 0.63797 0.0
C400 C 0.22069 0.507 0.61316 0.0
C401 C 0.22475 0.51997 0.59949 0.0
H402 H 0.23313 0.55391 0.63002 0.0
H403 H 0.21821 0.50134 0.64293 0.0
C404 C 0.19664 0.50407 0.72001 0.0
N405 N 0.21257 0.50345 0.71116 0.0
C406 C 0.19069 0.4896 0.73051 0.0
C407 C 0.21743 0.47389 0.72214 0.0
C408 C 0.223 0.4888 0.71202 0.0
C409 C 0.20107 0.47422 0.73153 0.0
H410 H 0.18843 0.51572 0.71863 0.0
H411 H 0.23549 0.4886 0.70461 0.0
O412 O 0.23122 0.55878 0.66971 0.0
O413 O 0.22375 0.54631 0.71047 0.0
O414 O 0.20127 0.53093 0.67787 0.0
O415 O 0.24045 0.52017 0.68055 0.0
H416 H 0.24669 0.58529 0.68788 0.0
H417 H 0.208 0.57195 0.64545 0.0
H418 H 0.23973 0.6171 0.68297 0.0
H419 H 0.20168 0.60401 0.64133 0.0
H420 H 0.23554 0.51886 0.76644 0.0
H421 H 0.19373 0.55392 0.72795 0.0
H422 H 0.24401 0.52781 0.7338 0.0
H423 H 0.18621 0.54464 0.76074 0.0
H424 H 0.188 0.60855 0.71711 0.0
H425 H 0.15213 0.58141 0.67915 0.0
H426 H 0.30339 0.56469 0.6781 0.0
H427 H 0.28415 0.57445 0.73484 0.0
H428 H 0.19234 0.49698 0.67909 0.0
H429 H 0.18808 0.54506 0.64647 0.0
H430 H 0.17446 0.48155 0.65469 0.0
H431 H 0.17023 0.52878 0.62268 0.0
H432 H 0.25948 0.51821 0.64911 0.0
H433 H 0.26068 0.51151 0.70974 0.0
H434 H 0.29117 0.50989 0.64788 0.0
H435 H 0.29237 0.50338 0.70746 0.0
H436 H 0.23334 0.54732 0.59595 0.0
H437 H 0.21672 0.49375 0.60912 0.0
H438 H 0.17785 0.49022 0.73726 0.0
H439 H 0.22577 0.46224 0.7226 0.0
Li440 Li 0.53147 0.77614 0.33289 0.0
Li441 Li 0.54355 0.75748 0.30788 0.0
Li442 Li 0.55294 0.78892 0.30927 0.0
Li443 Li 0.52399 0.78003 0.29938 0.0
C444 C 0.5676 0.77519 0.34255 0.0
N445 N 0.58997 0.78649 0.37105 0.0
C446 C 0.582 0.76476 0.34793 0.0
C447 C 0.56455 0.79135 0.35167 0.0
C448 C 0.59317 0.7707 0.36237 0.0
C449 C 0.57602 0.79684 0.36603 0.0
C450 C 0.51361 0.74241 0.31562 0.0
C451 C 0.50604 0.71608 0.298 0.0
N452 N 0.50492 0.70686 0.31453 0.0
C453 C 0.5122 0.73272 0.33244 0.0
C454 C 0.51033 0.73409 0.29826 0.0
C455 C 0.50785 0.71474 0.33159 0.0
C456 C 0.51408 0.78933 0.36591 0.0
N457 N 0.52477 0.77644 0.35889 0.0
C458 C 0.52732 0.76314 0.38953 0.0
C459 C 0.53148 0.76355 0.37025 0.0
C460 C 0.51607 0.77612 0.3972 0.0
C461 C 0.50944 0.78936 0.38509 0.0
H462 H 0.50919 0.79964 0.3567 0.0
H463 H 0.54018 0.75361 0.36432 0.0
C464 C 0.55691 0.72863 0.28616 0.0
N465 N 0.55238 0.73429 0.30379 0.0
C466 C 0.56477 0.71203 0.28372 0.0
C467 C 0.56278 0.70735 0.31759 0.0
C468 C 0.55506 0.72404 0.31937 0.0
C469 C 0.56806 0.70126 0.29962 0.0
H470 H 0.5549 0.73719 0.27407 0.0
H471 H 0.55148 0.72901 0.33324 0.0
C472 C 0.51845 0.81176 0.31425 0.0
N473 N 0.49379 0.83724 0.30465 0.0
C474 C 0.52369 0.82712 0.30469 0.0
C475 C 0.50066 0.80938 0.31895 0.0
C476 C 0.51102 0.83986 0.29998 0.0
C477 C 0.48839 0.8224 0.31394 0.0
C478 C 0.5441 0.77848 0.26825 0.0
C479 C 0.5508 0.79425 0.2607 0.0
C480 C 0.53466 0.76689 0.25658 0.0
C481 C 0.54776 0.79823 0.24162 0.0
C482 C 0.53187 0.77137 0.23758 0.0
N483 N 0.53842 0.78682 0.23056 0.0
C484 C 0.58611 0.79883 0.29546 0.0
C485 C 0.57256 0.82059 0.31487 0.0
C486 C 0.60038 0.81006 0.29193 0.0
N487 N 0.57245 0.8044 0.30643 0.0
C488 C 0.58662 0.83223 0.31181 0.0
C489 C 0.60063 0.82711 0.29993 0.0
H490 H 0.5857 0.78578 0.28911 0.0
H491 H 0.5616 0.82457 0.32373 0.0
C492 C 0.48922 0.7777 0.28477 0.0
N493 N 0.5048 0.78651 0.28291 0.0
C494 C 0.47432 0.78326 0.27472 0.0
C495 C 0.49186 0.80655 0.26061 0.0
C496 C 0.50637 0.8006 0.27099 0.0
C497 C 0.47548 0.79803 0.26265 0.0
H498 H 0.48819 0.76674 0.29457 0.0
H499 H 0.51867 0.80776 0.27015 0.0
O500 O 0.55657 0.76949 0.32845 0.0
O501 O 0.51822 0.75994 0.31611 0.0
O502 O 0.53061 0.79901 0.31871 0.0
O503 O 0.54702 0.77431 0.28689 0.0
H504 H 0.5845 0.75219 0.34102 0.0
H505 H 0.55344 0.79958 0.34774 0.0
H506 H 0.60437 0.76277 0.36669 0.0
H507 H 0.57382 0.80932 0.37321 0.0
H508 H 0.5036 0.70945 0.28465 0.0
H509 H 0.51452 0.73897 0.346 0.0
H510 H 0.51119 0.74143 0.28513 0.0
H511 H 0.50682 0.70705 0.3445 0.0
H512 H 0.53305 0.7529 0.39835 0.0
H513 H 0.50062 0.79955 0.39029 0.0
H514 H 0.56886 0.70801 0.26965 0.0
H515 H 0.56484 0.69942 0.3302 0.0
H516 H 0.53734 0.82908 0.30067 0.0
H517 H 0.49631 0.7974 0.32597 0.0
H518 H 0.51488 0.85176 0.29251 0.0
H519 H 0.47457 0.82064 0.31732 0.0
H520 H 0.55803 0.80346 0.2695 0.0
H521 H 0.52947 0.7546 0.26212 0.0
H522 H 0.55277 0.81044 0.23563 0.0
H523 H 0.5245 0.76256 0.22842 0.0
H524 H 0.61103 0.8055 0.28291 0.0
H525 H 0.58623 0.8453 0.31815 0.0
H526 H 0.46195 0.77628 0.27663 0.0
H527 H 0.49326 0.81821 0.25178 0.0
Li528 Li 0.77703 0.4787 0.69345 0.0
Li529 Li 0.77389 0.46746 0.66105 0.0
Li530 Li 0.75861 0.4532 0.68878 0.0
Li531 Li 0.79039 0.44936 0.68447 0.0
C532 C 0.74776 0.49358 0.68031 0.0
N533 N 0.73364 0.52698 0.68558 0.0
C534 C 0.74938 0.50642 0.66612 0.0
C535 C 0.73877 0.49763 0.69706 0.0
C536 C 0.74218 0.52325 0.66909 0.0
C537 C 0.73179 0.51462 0.6995 0.0
C538 C 0.81067 0.47767 0.66434 0.0
C539 C 0.83428 0.46916 0.64323 0.0
N540 N 0.84035 0.48612 0.64333 0.0
C541 C 0.81729 0.49497 0.66443 0.0
C542 C 0.81935 0.46462 0.65381 0.0
C543 C 0.83224 0.499 0.65364 0.0
C544 C 0.78324 0.49867 0.72683 0.0
N545 N 0.78118 0.49967 0.70771 0.0
C546 C 0.78826 0.53052 0.708 0.0
C547 C 0.78338 0.5152 0.69825 0.0
C548 C 0.79101 0.52982 0.7277 0.0
C549 C 0.78813 0.51368 0.73718 0.0
H550 H 0.78162 0.48612 0.73399 0.0
H551 H 0.78195 0.51556 0.683 0.0
C552 C 0.75955 0.46482 0.62445 0.0
N553 N 0.77182 0.47357 0.63495 0.0
C554 C 0.75775 0.46839 0.60511 0.0
C555 C 0.78108 0.4901 0.60782 0.0
C556 C 0.78231 0.48621 0.62712 0.0
C557 C 0.76872 0.48109 0.59648 0.0
H558 H 0.75122 0.45497 0.63112 0.0
H559 H 0.79166 0.49331 0.6358 0.0
C560 C 0.77114 0.44811 0.72378 0.0
N561 N 0.75747 0.43127 0.75533 0.0
C562 C 0.77817 0.43192 0.72977 0.0
C563 C 0.75732 0.45585 0.73398 0.0
C564 C 0.77104 0.42359 0.74573 0.0
C565 C 0.75054 0.4471 0.74984 0.0
C566 C 0.77472 0.42798 0.65527 0.0
C567 C 0.76715 0.41135 0.65853 0.0
C568 C 0.78554 0.43045 0.63943 0.0
C569 C 0.77092 0.39737 0.64618 0.0
C570 C 0.78898 0.41616 0.62739 0.0
N571 N 0.78168 0.40004 0.631 0.0
C572 C 0.72176 0.44791 0.69529 0.0
C573 C 0.74052 0.42368 0.70252 0.0
C574 C 0.70685 0.43786 0.69996 0.0
N575 N 0.73814 0.44061 0.69649 0.0
C576 C 0.72607 0.41323 0.70741 0.0
C577 C 0.70892 0.42017 0.70585 0.0
H578 H 0.72026 0.46138 0.6903 0.0
H579 H 0.75369 0.41819 0.70323 0.0
C580 C 0.82546 0.44113 0.6937 0.0
N581 N 0.80974 0.43383 0.68866 0.0
C582 C 0.83987 0.43032 0.69799 0.0
C583 C 0.82159 0.40464 0.69204 0.0
C584 C 0.80755 0.41597 0.68779 0.0
C585 C 0.83799 0.41179 0.69738 0.0
H586 H 0.82674 0.45538 0.69462 0.0
H587 H 0.79477 0.41048 0.68441 0.0
O588 O 0.75489 0.4771 0.67775 0.0
O589 O 0.79601 0.47354 0.67484 0.0
O590 O 0.7778 0.45635 0.70804 0.0
O591 O 0.77104 0.44184 0.6672 0.0
H592 H 0.75623 0.50348 0.65304 0.0
H593 H 0.73726 0.4878 0.70809 0.0
H594 H 0.74343 0.53336 0.65829 0.0
H595 H 0.72489 0.51798 0.71244 0.0
H596 H 0.8411 0.45916 0.63501 0.0
H597 H 0.81093 0.50522 0.67266 0.0
H598 H 0.81484 0.45105 0.65405 0.0
H599 H 0.83742 0.51236 0.65349 0.0
H600 H 0.79063 0.54256 0.70004 0.0
H601 H 0.78996 0.51258 0.75237 0.0
H602 H 0.7478 0.46135 0.59706 0.0
H603 H 0.78995 0.49987 0.60184 0.0
H604 H 0.78894 0.4258 0.72213 0.0
H605 H 0.75182 0.46843 0.72961 0.0
H606 H 0.77627 0.411 0.75046 0.0
H607 H 0.73976 0.45288 0.75779 0.0
H608 H 0.75852 0.4092 0.67051 0.0
H609 H 0.79106 0.4433 0.63625 0.0
H610 H 0.76526 0.38441 0.64864 0.0
H611 H 0.79737 0.41791 0.61511 0.0
H612 H 0.69386 0.44368 0.69837 0.0
H613 H 0.72833 0.39978 0.71218 0.0
H614 H 0.8523 0.43641 0.70188 0.0
H615 H 0.81944 0.39045 0.69177 0.0
Li616 Li 0.45343 0.2437 0.30909 0.0
Li617 Li 0.46524 0.2258 0.33481 0.0
Li618 Li 0.47302 0.22095 0.3015 0.0
Li619 Li 0.44398 0.21235 0.31148 0.0
C620 C 0.48345 0.25889 0.31624 0.0
N621 N 0.49243 0.29427 0.31327 0.0
C622 C 0.48448 0.26944 0.33248 0.0
C623 C 0.48726 0.26626 0.29852 0.0
C624 C 0.48898 0.28732 0.33068 0.0
C625 C 0.49169 0.28419 0.29729 0.0
C626 C 0.42918 0.22699 0.34425 0.0
C627 C 0.42073 0.20577 0.36817 0.0
N628 N 0.40695 0.21636 0.37316 0.0
C629 C 0.41496 0.23767 0.34961 0.0
C630 C 0.43213 0.21092 0.3536 0.0
C631 C 0.40386 0.23206 0.36426 0.0
C632 C 0.44126 0.27209 0.28594 0.0
N633 N 0.44497 0.26685 0.30395 0.0
C634 C 0.43503 0.29455 0.31633 0.0
C635 C 0.44205 0.27765 0.31904 0.0
C636 C 0.43075 0.30026 0.29792 0.0
C637 C 0.4341 0.28886 0.28258 0.0
H638 H 0.44354 0.26314 0.27424 0.0
H639 H 0.44492 0.27299 0.33322 0.0
C640 C 0.48189 0.21315 0.36846 0.0
N641 N 0.47172 0.22618 0.36087 0.0
C642 C 0.48638 0.21355 0.38766 0.0
C643 C 0.46937 0.24048 0.391 0.0
C644 C 0.46534 0.23962 0.37171 0.0
C645 C 0.48011 0.22737 0.39924 0.0
H646 H 0.48644 0.20236 0.35969 0.0
H647 H 0.45699 0.24963 0.36534 0.0
C648 C 0.45286 0.22148 0.27016 0.0
N649 N 0.45821 0.21192 0.23275 0.0
C650 C 0.44567 0.20572 0.26313 0.0
C651 C 0.46262 0.23245 0.2581 0.0
C652 C 0.44855 0.20111 0.24418 0.0
C653 C 0.46524 0.22735 0.23926 0.0
C654 C 0.47869 0.18987 0.31741 0.0
C655 C 0.4739 0.17443 0.30773 0.0
C656 C 0.49633 0.19249 0.32262 0.0
C657 C 0.48683 0.16182 0.3035 0.0
C658 C 0.50887 0.1796 0.31806 0.0
N659 N 0.5039 0.16465 0.30869 0.0
C660 C 0.50819 0.2222 0.28803 0.0
C661 C 0.49071 0.19992 0.27359 0.0
C662 C 0.52322 0.21605 0.27864 0.0
N663 N 0.49238 0.21397 0.28555 0.0
C664 C 0.50533 0.19345 0.26379 0.0
C665 C 0.52192 0.20133 0.26654 0.0
H666 H 0.50929 0.2331 0.2979 0.0
H667 H 0.47822 0.19315 0.27234 0.0
C668 C 0.41047 0.20182 0.29868 0.0
N669 N 0.42464 0.19659 0.3091 0.0
C670 C 0.39648 0.19015 0.29548 0.0
C671 C 0.41162 0.16821 0.31448 0.0
C672 C 0.42529 0.18032 0.31733 0.0
C673 C 0.39709 0.17295 0.30315 0.0
H674 H 0.41027 0.21494 0.29248 0.0
H675 H 0.43661 0.17663 0.32582 0.0
O676 O 0.47866 0.24145 0.31764 0.0
O677 O 0.44016 0.23237 0.32996 0.0
O678 O 0.45006 0.22628 0.28864 0.0
O679 O 0.46629 0.20254 0.32137 0.0
H680 H 0.48173 0.26394 0.34632 0.0
H681 H 0.4867 0.25823 0.28584 0.0
H682 H 0.4897 0.29568 0.34312 0.0
H683 H 0.49453 0.2901 0.28365 0.0
H684 H 0.42285 0.19337 0.37553 0.0
H685 H 0.41254 0.25017 0.34252 0.0
H686 H 0.44311 0.20251 0.34971 0.0
H687 H 0.39279 0.24019 0.36856 0.0
H688 H 0.43236 0.30278 0.32858 0.0
H689 H 0.43103 0.29278 0.26818 0.0
H690 H 0.49481 0.20323 0.3933 0.0
H691 H 0.4639 0.25116 0.3994 0.0
H692 H 0.43817 0.19699 0.27222 0.0
H693 H 0.46821 0.24472 0.26324 0.0
H694 H 0.44316 0.1889 0.23859 0.0
H695 H 0.47285 0.23567 0.22981 0.0
H696 H 0.46041 0.17232 0.30323 0.0
H697 H 0.50037 0.20456 0.32967 0.0
H698 H 0.48331 0.14985 0.29595 0.0
H699 H 0.52258 0.18153 0.32185 0.0
H700 H 0.5358 0.2225 0.28111 0.0
H701 H 0.50383 0.18183 0.25491 0.0
H702 H 0.38541 0.19448 0.28693 0.0
H703 H 0.41274 0.15507 0.32056 0.0
Li704 Li 0.72008 0.97921 0.80281 0.0
Li705 Li 0.72352 0.96903 0.83564 0.0
Li706 Li 0.74209 0.95741 0.81022 0.0
Li707 Li 0.71071 0.94953 0.8124 0.0
C708 C 0.75777 0.98715 0.821 0.0
N709 N 0.79313 0.99584 0.82365 0.0
C710 C 0.766 0.98789 0.83873 0.0
C711 C 0.76747 0.99099 0.80464 0.0
C712 C 0.78391 0.99229 0.83977 0.0
C713 C 0.78535 0.9953 0.80627 0.0
C714 C 0.69124 0.98147 0.83372 0.0
C715 C 0.67374 0.9822 0.8623 0.0
N716 N 0.67195 5e-05 0.86039 0.0
C717 C 0.68919 -0.00019 0.832 0.0
C718 C 0.6834 0.97256 0.84894 0.0
C719 C 0.67939 0.00897 0.84564 0.0
C720 C 0.69761 0.99776 0.77856 0.0
N721 N 0.7136 0.99868 0.78726 0.0
C722 C 0.71841 0.02779 0.77493 0.0
C723 C 0.72404 0.01326 0.78567 0.0
C724 C 0.70197 0.02714 0.76572 0.0
C725 C 0.69159 0.01182 0.7675 0.0
H726 H 0.68941 0.98617 0.7805 0.0
H727 H 0.73658 0.01374 0.793 0.0
C728 C 0.72533 0.96303 0.87495 0.0
N729 N 0.72346 0.97585 0.86158 0.0
C730 C 0.72558 0.96746 0.89415 0.0
C731 C 0.72202 0.99826 0.88548 0.0
C732 C 0.72198 0.99323 0.86641 0.0
C733 C 0.72389 0.98528 0.89962 0.0
H734 H 0.72675 0.94935 0.87072 0.0
H735 H 0.72087 0.00318 0.85543 0.0
C736 C 0.72086 0.96021 0.77132 0.0
N737 N 0.71264 0.96948 0.73445 0.0
C738 C 0.70469 0.95514 0.76343 0.0
C739 C 0.73291 0.96985 0.76042 0.0
C740 C 0.70078 0.95998 0.74477 0.0
C741 C 0.72849 0.97447 0.74182 0.0
C742 C 0.72693 0.92675 0.83432 0.0
C743 C 0.7375 0.9138 0.82584 0.0
C744 C 0.71289 0.92165 0.84599 0.0
C745 C 0.73377 0.89592 0.8291 0.0
C746 C 0.70957 0.90364 0.84887 0.0
N747 N 0.71999 0.89125 0.84043 0.0
C748 C 0.77628 0.94656 0.81972 0.0
C749 C 0.7691 0.94239 0.78731 0.0
C750 C 0.79267 0.93852 0.8171 0.0
N751 N 0.76491 0.9483 0.80495 0.0
C752 C 0.78528 0.934 0.78409 0.0
C753 C 0.79724 0.93174 0.79918 0.0
H754 H 0.77242 0.95102 0.83369 0.0
H755 H 0.75963 0.94362 0.77591 0.0
C756 C 0.67647 0.93511 0.81248 0.0
N757 N 0.69352 0.93169 0.80773 0.0
C758 C 0.66324 0.9229 0.80819 0.0
C759 C 0.68538 0.90371 0.79445 0.0
C760 C 0.69819 0.91639 0.79886 0.0
C761 C 0.66761 0.90703 0.79891 0.0
H762 H 0.67309 0.94749 0.81924 0.0
H763 H 0.71181 0.9142 0.79487 0.0
O764 O 0.74032 0.98268 0.81967 0.0
O765 O 0.70103 0.9723 0.8207 0.0
O766 O 0.72481 0.95587 0.78967 0.0
O767 O 0.73019 0.94432 0.83109 0.0
H768 H 0.7587 0.98495 0.85154 0.0
H769 H 0.76128 0.99049 0.79082 0.0
H770 H 0.79048 0.99282 0.85338 0.0
H771 H 0.79304 0.99819 0.79372 0.0
H772 H 0.66771 0.9755 0.87421 0.0
H773 H 0.69523 0.00694 0.82038 0.0
H774 H 0.68495 0.95838 0.85054 0.0
H775 H 0.67775 0.02317 0.84454 0.0
H776 H 0.72676 0.03941 0.77391 0.0
H777 H 0.67869 0.01095 0.76092 0.0
H778 H 0.72693 0.95704 0.90462 0.0
H779 H 0.72091 0.01217 0.8891 0.0
H780 H 0.69519 0.94771 0.77168 0.0
H781 H 0.74548 0.97386 0.76632 0.0
H782 H 0.68828 0.95624 0.73851 0.0
H783 H 0.73764 0.98203 0.73326 0.0
H784 H 0.74837 0.91748 0.81671 0.0
H785 H 0.7045 0.93151 0.85257 0.0
H786 H 0.7418 0.88575 0.82257 0.0
H787 H 0.69868 0.89951 0.85776 0.0
H788 H 0.80151 0.93733 0.8291 0.0
H789 H 0.78804 0.92873 0.77012 0.0
H790 H 0.64969 0.92591 0.81195 0.0
H791 H 0.68924 0.89174 0.78705 0.0
Li792 Li 0.95154 0.2895 0.19006 0.0
Li793 Li 0.98042 0.27618 0.19741 0.0
Li794 Li 0.96921 0.27507 0.16527 0.0
Li795 Li 0.95611 0.25794 0.19122 0.0
C796 C 0.98121 0.31211 0.18737 0.0
N797 N 0.99357 0.34351 0.20257 0.0
C798 C 0.98014 0.31516 0.20691 0.0
C799 C 0.98859 0.32503 0.17558 0.0
C800 C 0.98647 0.33111 0.21431 0.0
C801 C 0.99474 0.34083 0.18354 0.0
C802 C 0.95085 0.26519 0.22658 0.0
C803 C 0.95185 0.24046 0.24827 0.0
N804 N 0.93518 0.24435 0.2541 0.0
C805 C 0.93381 0.26906 0.23297 0.0
C806 C 0.96003 0.2509 0.23445 0.0
C807 C 0.92608 0.25833 0.24682 0.0
C808 C 0.91735 0.30173 0.19701 0.0
N809 N 0.93411 0.30762 0.19413 0.0
C810 C 0.92448 0.3377 0.19685 0.0
C811 C 0.93777 0.32526 0.19353 0.0
C812 C 0.90715 0.33198 0.20052 0.0
C813 C 0.90363 0.3137 0.20034 0.0
H814 H 0.91464 0.28766 0.19672 0.0
H815 H 0.95092 0.32986 0.19046 0.0
C816 C 0.01572 0.28596 0.20062 0.0
N817 N 0.00189 0.2798 0.21097 0.0
C818 C 0.0316 0.29029 0.20944 0.0
C819 C 0.01882 0.28172 0.23951 0.0
C820 C 0.00312 0.27756 0.23006 0.0
C821 C 0.03328 0.28835 0.22919 0.0
H822 H 0.01423 0.28794 0.18551 0.0
H823 H 0.99182 0.27297 0.23801 0.0
C824 C 0.93373 0.27982 0.1576 0.0
N825 N 0.91349 0.29596 0.12994 0.0
C826 C 0.91848 0.27153 0.15083 0.0
C827 C 0.93869 0.29632 0.15031 0.0
C828 C 0.90842 0.27991 0.13684 0.0
C829 C 0.92828 0.30426 0.13633 0.0
C830 C 0.99695 0.2497 0.18109 0.0
C831 C 0.00885 0.25365 0.16652 0.0
C832 C 0.00278 0.24015 0.19689 0.0
C833 C 0.02643 0.24824 0.16815 0.0
C834 C 0.02047 0.235 0.19802 0.0
N835 N 0.03184 0.23913 0.18375 0.0
C836 C 0.98699 0.28689 0.13239 0.0
C837 C 0.96596 0.26408 0.12735 0.0
C838 C 0.99117 0.28716 0.1131 0.0
N839 N 0.97462 0.27543 0.13906 0.0
C840 C 0.96961 0.264 0.10794 0.0
C841 C 0.98241 0.27561 0.10062 0.0
H842 H 0.99373 0.29568 0.1421 0.0
H843 H 0.95623 0.25507 0.13312 0.0
C844 C 0.9261 0.23704 0.19522 0.0
N845 N 0.94401 0.23646 0.19628 0.0
C846 C 0.91622 0.22157 0.19721 0.0
C847 C 0.94337 0.20528 0.20213 0.0
C848 C 0.95276 0.22107 0.19978 0.0
C849 C 0.92489 0.20541 0.20048 0.0
H850 H 0.91954 0.24951 0.19245 0.0
H851 H 0.96701 0.22099 0.20039 0.0
O852 O 0.97551 0.29641 0.17979 0.0
O853 O 0.95851 0.27532 0.21271 0.0
O854 O 0.94366 0.27174 0.17134 0.0
O855 O 0.97974 0.25518 0.17989 0.0
H856 H 0.97446 0.30537 0.2163 0.0
H857 H 0.98953 0.32291 0.16044 0.0
H858 H 0.98574 0.33363 0.2294 0.0
H859 H 0.00046 0.35095 0.17457 0.0
H860 H 0.95876 0.22925 0.25432 0.0
H861 H 0.92663 0.28026 0.22737 0.0
H862 H 0.97323 0.24774 0.22976 0.0
H863 H 0.91287 0.26114 0.25182 0.0
H864 H 0.92785 0.35165 0.19687 0.0
H865 H 0.8904 0.30869 0.20266 0.0
H866 H 0.04221 0.29572 0.20095 0.0
H867 H 0.01955 0.27997 0.25473 0.0
H868 H 0.91447 0.25876 0.15633 0.0
H869 H 0.95044 0.30297 0.15536 0.0
H870 H 0.89658 0.27364 0.13146 0.0
H871 H 0.93196 0.31702 0.13056 0.0
H872 H 0.00462 0.26091 0.15413 0.0
H873 H 0.99382 0.2369 0.20828 0.0
H874 H 0.03578 0.25131 0.15703 0.0
H875 H 0.02517 0.22774 0.21025 0.0
H876 H 0.00102 0.29641 0.10799 0.0
H877 H 0.9627 0.25475 0.09883 0.0
H878 H 0.90197 0.22218 0.19602 0.0
H879 H 0.95048 0.19302 0.2045 0.0
Li880 Li 0.25499 0.04103 0.80843 0.0
Li881 Li 0.2863 0.04867 0.81232 0.0
Li882 Li 0.27701 0.0186 0.80379 0.0
Li883 Li 0.27195 0.03041 0.83573 0.0
C884 C 0.27847 0.03596 0.77134 0.0
N885 N 0.2887 0.02471 0.73572 0.0
C886 C 0.29519 0.04033 0.76436 0.0
C887 C 0.26689 0.02602 0.76016 0.0
C888 C 0.30013 0.03449 0.74632 0.0
C889 C 0.27234 0.0204 0.74221 0.0
C890 C 0.26901 0.07257 0.8322 0.0
C891 C 0.28568 0.09604 0.84701 0.0
N892 N 0.27577 0.10821 0.83755 0.0
C893 C 0.25894 0.08531 0.82269 0.0
C894 C 0.28243 0.07796 0.84454 0.0
C895 C 0.26257 0.10326 0.82557 0.0
C896 C 0.21974 0.0521 0.81355 0.0
N897 N 0.23287 0.05027 0.80056 0.0
C898 C 0.21564 0.06514 0.77706 0.0
C899 C 0.23109 0.05643 0.78254 0.0
C900 C 0.20192 0.0673 0.79023 0.0
C901 C 0.20394 0.06039 0.80858 0.0
H902 H 0.22176 0.04764 0.82796 0.0
H903 H 0.24191 0.05514 0.77263 0.0
C904 C 0.32076 0.06259 0.81314 0.0
N905 N 0.30388 0.06614 0.8078 0.0
C906 C 0.33425 0.07459 0.80905 0.0
C907 C 0.3127 0.09382 0.79429 0.0
C908 C 0.29964 0.08133 0.79846 0.0
C909 C 0.33029 0.09038 0.79941 0.0
H910 H 0.32382 0.05028 0.82022 0.0
H911 H 0.28618 0.08359 0.79396 0.0
C912 C 0.23825 0.01203 0.82012 0.0
N913 N 0.20275 0.0037 0.8214 0.0
C914 C 0.2293 0.01193 0.83746 0.0
C915 C 0.22921 0.00774 0.80346 0.0
C916 C 0.21134 0.00771 0.8378 0.0
C917 C 0.21124 0.00362 0.8044 0.0
C918 C 0.30455 0.01787 0.83634 0.0
C919 C 0.3069 -0.00049 0.83578 0.0
C920 C 0.31173 0.02766 0.8513 0.0
C921 C 0.31632 0.99121 0.85033 0.0
C922 C 0.32102 0.01886 0.8656 0.0
N923 N 0.3231 0.00097 0.86483 0.0
C924 C 0.30025 0.99807 0.78216 0.0
C925 C 0.27297 0.98388 0.78872 0.0
C926 C 0.30634 0.98313 0.77255 0.0
N927 N 0.28383 0.99818 0.78993 0.0
C928 C 0.27862 0.96854 0.77942 0.0
C929 C 0.29554 0.96805 0.77125 0.0
H930 H 0.30874 0.0095 0.78377 0.0
H931 H 0.26008 0.98426 0.79527 0.0
C932 C 0.2683 0.03802 0.87467 0.0
N933 N 0.27087 0.02475 0.86196 0.0
C934 C 0.26797 0.03437 0.89407 0.0
C935 C 0.27272 0.0034 0.88692 0.0
C936 C 0.27275 0.00764 0.86764 0.0
C937 C 0.27039 0.01688 0.90047 0.0
H938 H 0.26648 0.05145 0.86975 0.0
H939 H 0.27449 0.99731 0.85717 0.0
O940 O 0.2735 0.04129 0.78909 0.0
O941 O 0.26582 0.05493 0.82939 0.0
O942 O 0.2558 0.01627 0.81947 0.0
O943 O 0.29515 0.02622 0.82238 0.0
H944 H 0.30433 0.048 0.77284 0.0
H945 H 0.2539 0.02256 0.76536 0.0
H946 H 0.31306 0.03769 0.74076 0.0
H947 H 0.26356 0.0126 0.73344 0.0
H948 H 0.2961 0.10039 0.85641 0.0
H949 H 0.24851 0.08139 0.81308 0.0
H950 H 0.29039 0.06827 0.85196 0.0
H951 H 0.25494 0.11326 0.81825 0.0
H952 H 0.21455 0.07044 0.76282 0.0
H953 H 0.19375 0.06215 0.81921 0.0
H954 H 0.34766 0.07149 0.81326 0.0
H955 H 0.30919 0.10572 0.78658 0.0
H956 H 0.23611 0.01521 0.85048 0.0
H957 H 0.23596 0.00775 0.78994 0.0
H958 H 0.20421 0.00766 0.8511 0.0
H959 H 0.20404 0.00039 0.7916 0.0
H960 H 0.30138 0.99171 0.82436 0.0
H961 H 0.30997 0.04188 0.85198 0.0
H962 H 0.31818 0.97699 0.85014 0.0
H963 H 0.32654 0.02625 0.87734 0.0
H964 H 0.3196 0.98316 0.76676 0.0
H965 H 0.26992 0.95717 0.7787 0.0
H966 H 0.26569 0.04514 0.90391 0.0
H967 H 0.27481 0.98976 0.89112 0.0
Li968 Li 0.0186 0.71893 0.19579 0.0
Li969 Li 0.04745 0.7061 0.18818 0.0
Li970 Li 0.04329 0.73803 0.19121 0.0
Li971 Li 0.0302 0.72174 0.16425 0.0
C972 C 0.04529 0.72659 0.2281 0.0
N973 N 0.05565 0.74124 0.26227 0.0
C974 C 0.05815 0.71822 0.23916 0.0
C975 C 0.03759 0.74232 0.23452 0.0
C976 C 0.06324 0.72585 0.25637 0.0
C977 C 0.04304 0.74954 0.2518 0.0
C978 C 0.01857 0.68344 0.18441 0.0
C979 C 0.00515 0.65473 0.18001 0.0
N980 N 0.00757 0.65117 0.19875 0.0
C981 C 0.02092 0.67948 0.20364 0.0
C982 C 0.01061 0.67096 0.1725 0.0
C983 C 0.01526 0.66311 0.2106 0.0
C984 C 0.98392 0.70668 0.19937 0.0
N985 N 0.99705 0.71479 0.20922 0.0
C986 C 0.9798 0.71397 0.2376 0.0
C987 C 0.99523 0.71865 0.22795 0.0
C988 C 0.9662 0.70506 0.22791 0.0
C989 C 0.96836 0.70163 0.20845 0.0
H990 H 0.98574 0.70367 0.1845 0.0
H991 H 0.00585 0.725 0.23553 0.0
C992 C 0.07998 0.69302 0.20026 0.0
N993 N 0.06459 0.68795 0.19198 0.0
C994 C 0.09336 0.68067 0.20355 0.0
C995 C 0.07501 0.65817 0.18917 0.0
C996 C 0.06205 0.67099 0.18605 0.0
C997 C 0.09091 0.6629 0.19816 0.0
H998 H 0.08186 0.70673 0.20428 0.0
H999 H 0.05001 0.66734 0.17885 0.0
C1000 C 0.00272 0.74684 0.18186 0.0
N1001 N 0.96833 0.75829 0.18651 0.0
C1002 C 0.98942 0.74066 0.16981 0.0
C1003 C 0.99859 0.75903 0.1961 0.0
C1004 C 0.9721 0.74656 0.17243 0.0
C1005 C 0.98111 0.76461 0.19827 0.0
C1006 C 0.06619 0.71762 0.15699 0.0
C1007 C 0.08205 0.72586 0.15203 0.0
C1008 C 0.06117 0.70193 0.1479 0.0
C1009 C 0.09266 0.71827 0.13799 0.0
C1010 C 0.07214 0.69476 0.13395 0.0
N1011 N 0.08753 0.70301 0.12932 0.0
C1012 C 0.07045 0.75796 0.20818 0.0
C1013 C 0.0492 0.77497 0.19151 0.0
C1014 C 0.08011 0.77317 0.21247 0.0
N1015 N 0.05528 0.75915 0.19796 0.0
C1016 C 0.05866 0.79051 0.1951 0.0
C1017 C 0.07446 0.78976 0.20562 0.0
H1018 H 0.07515 0.74515 0.21284 0.0
H1019 H 0.03724 0.77545 0.18312 0.0
C1020 C 0.01272 0.71144 0.13077 0.0
N1021 N 0.0248 0.72286 0.13808 0.0
C1022 C 0.00854 0.71199 0.1115 0.0
C1023 C 0.02942 0.73599 0.10766 0.0
C1024 C 0.03314 0.73501 0.12703 0.0
C1025 C 0.01695 0.72438 0.09966 0.0
H1026 H 0.00629 0.70196 0.13996 0.0
H1027 H 0.04267 0.74394 0.1333 0.0
O1028 O 0.04037 0.71943 0.21107 0.0
O1029 O 0.02378 0.69946 0.17718 0.0
O1030 O 0.01967 0.7409 0.17977 0.0
O1031 O 0.05574 0.72489 0.17078 0.0
H1032 H 0.06408 0.70592 0.23456 0.0
H1033 H 0.02764 0.74895 0.22615 0.0
H1034 H 0.0732 0.71953 0.26505 0.0
H1035 H 0.03726 0.76177 0.25686 0.0
H1036 H -0.00101 0.64495 0.17094 0.0
H1037 H 0.02701 0.68889 0.21314 0.0
H1038 H 0.0087 0.67377 0.15759 0.0
H1039 H 0.01699 0.65989 0.22544 0.0
H1040 H 0.97865 0.71709 0.25254 0.0
H1041 H 0.95845 0.69453 0.20042 0.0
H1042 H 0.10554 0.68503 0.21011 0.0
H1043 H 0.07246 0.64464 0.18485 0.0
H1044 H 0.99239 0.73122 0.15872 0.0
H1045 H 0.00876 0.76416 0.20536 0.0
H1046 H 0.96164 0.74177 0.16332 0.0
H1047 H 0.9777 0.77398 0.20929 0.0
H1048 H 0.08612 0.73799 0.15897 0.0
H1049 H 0.04897 0.69533 0.15158 0.0
H1050 H 0.10498 0.7245 0.134 0.0
H1051 H 0.06843 0.68263 0.1268 0.0
H1052 H 0.09197 0.77186 0.22092 0.0
H1053 H 0.0539 0.80284 0.18916 0.0
H1054 H -0.001 0.70267 0.10589 0.0
H1055 H 0.03606 0.74586 0.09909 0.0
Li1056 Li 0.70902 0.0505 0.18922 0.0
Li1057 Li 0.7408 0.04445 0.19061 0.0
Li1058 Li 0.72237 0.03348 0.16512 0.0
Li1059 Li 0.71935 0.02116 0.1972 0.0
C1060 C 0.7297 0.06641 0.15426 0.0
N1061 N 0.73416 0.0815 0.11882 0.0
C1062 C 0.7459 0.07393 0.14921 0.0
C1063 C 0.71565 0.06698 0.14141 0.0
C1064 C 0.74793 0.08141 0.13121 0.0
C1065 C 0.71819 0.07452 0.12352 0.0
C1066 C 0.72514 0.05688 0.2243 0.0
C1067 C 0.72666 0.06806 0.25631 0.0
N1068 N 0.72869 0.08478 0.24941 0.0
C1069 C 0.72722 0.07418 0.21753 0.0
C1070 C 0.72482 0.05379 0.24384 0.0
C1071 C 0.72899 0.0881 0.23045 0.0
C1072 C 0.68213 0.06563 0.21159 0.0
N1073 N 0.69121 0.06752 0.19507 0.0
C1074 C 0.67478 0.09355 0.18728 0.0
C1075 C 0.68789 0.08118 0.18302 0.0
C1076 C 0.66517 0.09193 0.20422 0.0
C1077 C 0.669 0.07777 0.21649 0.0
H1078 H 0.68508 0.05465 0.22093 0.0
H1079 H 0.69546 0.08253 0.17014 0.0
C1080 C 0.7755 0.05133 0.18083 0.0
N1081 N 0.7642 0.05264 0.19574 0.0
C1082 C 0.79234 0.05872 0.18188 0.0
C1083 C 0.78624 0.06734 0.21423 0.0
C1084 C 0.76948 0.05977 0.21253 0.0
C1085 C 0.79769 0.06738 0.19855 0.0
H1086 H 0.77111 0.04512 0.16782 0.0
H1087 H 0.76064 0.06005 0.22451 0.0
C1088 C 0.68266 0.02978 0.18112 0.0
N1089 N 0.64692 0.03548 0.1865 0.0
C1090 C 0.67414 0.0229 0.1971 0.0
C1091 C 0.67291 0.0394 0.16777 0.0
C1092 C 0.65608 0.02595 0.19958 0.0
C1093 C 0.65489 0.0422 0.17078 0.0
C1094 C 0.75337 0.01032 0.1882 0.0
C1095 C 0.76371 0.99906 0.17706 0.0
C1096 C 0.75652 0.01146 0.20771 0.0
C1097 C 0.77702 0.98905 0.18564 0.0
C1098 C 0.76996 0.00124 0.21575 0.0
N1099 N 0.77984 0.99033 0.20464 0.0
C1100 C 0.73839 0.02866 0.12953 0.0
C1101 C 0.70754 0.02318 0.12991 0.0
C1102 C 0.73905 0.02551 0.11003 0.0
N1103 N 0.72276 0.02763 0.13895 0.0
C1104 C 0.70757 0.02002 0.11041 0.0
C1105 C 0.72346 0.0213 0.1002 0.0
H1106 H 0.75027 0.03226 0.13714 0.0
H1107 H 0.69535 0.02227 0.13781 0.0
C1108 C 0.70833 0.0013 0.22911 0.0
N1109 N 0.715 0.00023 0.21126 0.0
C1110 C 0.70342 0.98593 0.23879 0.0
C1111 C 0.71333 0.96865 0.21194 0.0
C1112 C 0.7178 0.98437 0.20268 0.0
C1113 C 0.7056 0.96929 0.23008 0.0
H1114 H 0.70615 0.01415 0.23549 0.0
H1115 H 0.72317 0.98396 0.18847 0.0
O1116 O 0.72755 0.0588 0.17177 0.0
O1117 O 0.72303 0.04301 0.212 0.0
O1118 O 0.70045 0.02731 0.17872 0.0
O1119 O 0.74036 0.02025 0.17992 0.0
H1120 H 0.75677 0.07421 0.15912 0.0
H1121 H 0.70298 0.06138 0.14508 0.0
H1122 H 0.76043 0.08719 0.12711 0.0
H1123 H 0.70748 0.0748 0.11337 0.0
H1124 H 0.72645 0.06586 0.27147 0.0
H1125 H 0.7275 0.0769 0.20248 0.0
H1126 H 0.72317 0.04049 0.24932 0.0
H1127 H 0.73062 0.10154 0.22541 0.0
H1128 H 0.67237 0.10441 0.17757 0.0
H1129 H 0.66177 0.07598 0.22961 0.0
H1130 H 0.80091 0.05808 0.1696 0.0
H1131 H 0.78985 0.07382 0.22738 0.0
H1132 H 0.68138 0.01542 0.20757 0.0
H1133 H 0.67919 0.04483 0.15531 0.0
H1134 H 0.64937 0.02078 0.21195 0.0
H1135 H 0.64725 0.04975 0.16063 0.0
H1136 H 0.76145 0.99809 0.16193 0.0
H1137 H 0.74872 0.02014 0.21658 0.0
H1138 H 0.78512 0.98027 0.17718 0.0
H1139 H 0.77254 0.00198 0.23082 0.0
H1140 H 0.75154 0.02676 0.10266 0.0
H1141 H 0.69532 0.01655 0.10341 0.0
H1142 H 0.6973 0.98716 0.25261 0.0
H1143 H 0.71562 0.95616 0.20479 0.0
Li1144 Li 0.03575 0.27373 0.83613 0.0
Li1145 Li 0.04716 0.25663 0.80885 0.0
Li1146 Li 0.05394 0.28812 0.81207 0.0
Li1147 Li 0.02411 0.27775 0.80454 0.0
C1148 C 0.07208 0.27496 0.84293 0.0
N1149 N 0.09476 0.28776 0.8704 0.0
C1150 C 0.08739 0.26557 0.84756 0.0
C1151 C 0.06831 0.29088 0.85224 0.0
C1152 C 0.09869 0.27225 0.8615 0.0
C1153 C 0.07994 0.29712 0.86608 0.0
C1154 C 0.00624 0.2504 0.819 0.0
C1155 C 0.98355 0.23314 0.80366 0.0
N1156 N 0.97143 0.23975 0.816 0.0
C1157 C 0.99361 0.25683 0.8317 0.0
C1158 C 0.00123 0.23829 0.805 0.0
C1159 C 0.97606 0.25137 0.82989 0.0
C1160 C 0.01851 0.28491 0.86931 0.0
N1161 N 0.03047 0.27317 0.86238 0.0
C1162 C 0.03539 0.26128 0.89333 0.0
C1163 C 0.03884 0.2614 0.87387 0.0
C1164 C 0.02311 0.27331 0.90097 0.0
C1165 C 0.01456 0.28518 0.88863 0.0
H1166 H 0.01196 0.294 0.85977 0.0
H1167 H 0.04834 0.25225 0.86793 0.0
C1168 C 0.0717 0.23424 0.79064 0.0
N1169 N 0.05694 0.23455 0.80162 0.0
C1170 C 0.0796 0.21813 0.78594 0.0
C1171 C 0.05729 0.203 0.80443 0.0
C1172 C 0.0496 0.2194 0.80845 0.0
C1173 C 0.07251 0.2023 0.79309 0.0
H1174 H 0.07751 0.24652 0.78582 0.0
H1175 H 0.038 0.2201 0.81738 0.0
C1176 C 0.02651 0.3128 0.8164 0.0
N1177 N 0.01666 0.3456 0.80249 0.0
C1178 C 0.02966 0.31716 0.7974 0.0
C1179 C 0.01836 0.32515 0.82829 0.0
C1180 C 0.02458 0.3338 0.79065 0.0
C1181 C 0.01349 0.34166 0.821 0.0
C1182 C 0.04893 0.26796 0.77185 0.0
C1183 C 0.06252 0.2744 0.76035 0.0
C1184 C 0.03873 0.25366 0.76565 0.0
C1185 C 0.06582 0.26627 0.7429 0.0
C1186 C 0.04243 0.24587 0.74812 0.0
N1187 N 0.0558 0.25227 0.73721 0.0
C1188 C 0.08683 0.2999 0.79889 0.0
C1189 C 0.07062 0.32201 0.81518 0.0
C1190 C 0.10054 0.31185 0.79535 0.0
N1191 N 0.07211 0.30525 0.8083 0.0
C1192 C 0.08391 0.33443 0.81184 0.0
C1193 C 0.09908 0.32948 0.80164 0.0
H1194 H 0.08791 0.28631 0.79414 0.0
H1195 H 0.05912 0.32584 0.82324 0.0
C1196 C 0.99005 0.29151 0.80217 0.0
N1197 N 0.00313 0.2844 0.79139 0.0
C1198 C 0.97548 0.29949 0.79364 0.0
C1199 C 0.98783 0.29232 0.76296 0.0
C1200 C 0.0022 0.28446 0.77213 0.0
C1201 C 0.97445 0.30036 0.77377 0.0
H1202 H 0.99136 0.29177 0.81744 0.0
H1203 H 0.01298 0.27927 0.76382 0.0
O1204 O 0.06095 0.26857 0.82925 0.0
O1205 O 0.02347 0.25572 0.82046 0.0
O1206 O 0.03095 0.29642 0.82329 0.0
O1207 O 0.04573 0.27556 0.78914 0.0
H1208 H 0.09049 0.25324 0.84045 0.0
H1209 H 0.05654 0.29836 0.84883 0.0
H1210 H 0.11058 0.26512 0.86524 0.0
H1211 H 0.07719 0.30942 0.8734 0.0
H1212 H 0.97948 0.22383 0.79283 0.0
H1213 H 0.99726 0.26611 0.84269 0.0
H1214 H 0.01089 0.2328 0.79536 0.0
H1215 H 0.96611 0.25639 0.83951 0.0
H1216 H 0.04246 0.25205 0.90231 0.0
H1217 H 0.00478 0.29447 0.8938 0.0
H1218 H 0.09152 0.21808 0.77744 0.0
H1219 H 0.05154 0.19103 0.81024 0.0
H1220 H 0.03592 0.30783 0.78792 0.0
H1221 H 0.01579 0.32202 0.84301 0.0
H1222 H 0.02691 0.33732 0.77599 0.0
H1223 H 0.00716 0.35134 0.83005 0.0
H1224 H 0.07041 0.2856 0.76479 0.0
H1225 H 0.0281 0.24863 0.77431 0.0
H1226 H 0.07633 0.27109 0.73387 0.0
H1227 H 0.03468 0.23474 0.7432 0.0
H1228 H 0.11215 0.3073 0.78783 0.0
H1229 H 0.08209 0.34785 0.81689 0.0
H1230 H 0.96541 0.30542 0.8025 0.0
H1231 H 0.98768 0.29295 0.74762 0.0
Li1232 Li 0.27345 0.96552 0.16574 0.0
Li1233 Li 0.27879 0.97709 0.19954 0.0
Li1234 Li 0.28713 0.947 0.18998 0.0
Li1235 Li 0.25687 0.95466 0.19296 0.0
C1236 C 0.3133 0.96541 0.17641 0.0
N1237 N 0.34786 0.9548 0.17111 0.0
C1238 C 0.32594 0.96869 0.19042 0.0
C1239 C 0.31823 0.95682 0.15967 0.0
C1240 C 0.34335 0.9632 0.18748 0.0
C1241 C 0.33578 0.95154 0.15726 0.0
C1242 C 0.24032 0.98474 0.18246 0.0
C1243 C 0.2136 0.99328 0.19869 0.0
N1244 N 0.20525 0.9949 0.1817 0.0
C1245 C 0.23153 0.98668 0.16514 0.0
C1246 C 0.23135 0.98826 0.19936 0.0
C1247 C 0.21378 0.99176 0.16506 0.0
C1248 C 0.26041 0.9636 0.12859 0.0
N1249 N 0.27299 0.97119 0.13966 0.0
C1250 C 0.28531 0.98621 0.11295 0.0
C1251 C 0.28529 0.98235 0.13232 0.0
C1252 C 0.27242 0.97864 0.10107 0.0
C1253 C 0.2598 0.96724 0.10919 0.0
H1254 H 0.25078 0.95479 0.13489 0.0
H1255 H 0.29521 0.9881 0.1415 0.0
C1256 C 0.29713 0.99552 0.22815 0.0
N1257 N 0.28533 0.99726 0.21375 0.0
C1258 C 0.30284 0.01043 0.23813 0.0
C1259 C 0.28383 0.02855 0.21851 0.0
C1260 C 0.27849 0.01328 0.20891 0.0
C1261 C 0.29633 0.02727 0.2332 0.0
H1262 H 0.30231 0.98256 0.23165 0.0
H1263 H 0.26907 0.0142 0.19741 0.0
C1264 C 0.2631 0.92341 0.17313 0.0
N1265 N 0.25276 0.88835 0.17519 0.0
C1266 C 0.26343 0.91447 0.19049 0.0
C1267 C 0.2575 0.91452 0.15682 0.0
C1268 C 0.25815 0.89675 0.19125 0.0
C1269 C 0.25234 0.89679 0.15815 0.0
C1270 C 0.27045 0.95333 0.23177 0.0
C1271 C 0.27391 0.9377 0.24177 0.0
C1272 C 0.26233 0.96753 0.24104 0.0
C1273 C 0.26892 0.93645 0.2608 0.0
C1274 C 0.25756 0.96577 0.26009 0.0
N1275 N 0.26091 0.95039 0.26949 0.0
C1276 C 0.31306 0.92909 0.21087 0.0
C1277 C 0.30856 0.9174 0.18002 0.0
C1278 C 0.32604 0.91644 0.21455 0.0
N1279 N 0.30458 0.92927 0.19389 0.0
C1280 C 0.32156 0.90457 0.18304 0.0
C1281 C 0.33041 0.90394 0.20055 0.0
H1282 H 0.30981 0.9389 0.22149 0.0
H1283 H 0.30168 0.91797 0.16658 0.0
C1284 C 0.22255 0.94444 0.18388 0.0
N1285 N 0.23395 0.94527 0.19874 0.0
C1286 C 0.20617 0.93617 0.18587 0.0
C1287 C 0.21365 0.92937 0.21836 0.0
C1288 C 0.22973 0.9381 0.21585 0.0
C1289 C 0.20166 0.92809 0.20318 0.0
H1290 H 0.2264 0.94976 0.17026 0.0
H1291 H 0.23904 0.93842 0.22737 0.0
O1292 O 0.29608 0.97014 0.17928 0.0
O1293 O 0.25766 0.97959 0.18279 0.0
O1294 O 0.26795 0.94085 0.17206 0.0
O1295 O 0.27534 0.95476 0.21315 0.0
H1296 H 0.32231 0.97524 0.20349 0.0
H1297 H 0.30855 0.95401 0.14878 0.0
H1298 H 0.35326 0.96556 0.19824 0.0
H1299 H 0.33976 0.94478 0.14443 0.0
H1300 H 0.20646 0.9959 0.21169 0.0
H1301 H 0.2383 0.98426 0.15191 0.0
H1302 H 0.23793 0.98698 0.21286 0.0
H1303 H 0.20679 0.99321 0.15176 0.0
H1304 H 0.29548 0.99482 0.10733 0.0
H1305 H 0.24943 0.96133 0.10072 0.0
H1306 H 0.31264 0.00885 0.24919 0.0
H1307 H 0.2783 0.04122 0.21441 0.0
H1308 H 0.26763 0.92116 0.20326 0.0
H1309 H 0.25713 0.92128 0.14327 0.0
H1310 H 0.25832 0.88969 0.2046 0.0
H1311 H 0.24797 0.88974 0.14564 0.0
H1312 H 0.28028 0.92659 0.23489 0.0
H1313 H 0.25984 0.97983 0.23369 0.0
H1314 H 0.27144 0.9244 0.26867 0.0
H1315 H 0.25124 0.97666 0.26741 0.0
H1316 H 0.33277 0.91661 0.2281 0.0
H1317 H 0.3245 0.89513 0.17192 0.0
H1318 H 0.19735 0.93581 0.1738 0.0
H1319 H 0.21105 0.92305 0.23186 0.0
Li1320 Li 0.95244 0.74292 0.80634 0.0
Li1321 Li 0.96206 0.72418 0.83549 0.0
Li1322 Li 0.97382 0.71927 0.80358 0.0
Li1323 Li 0.94472 0.71146 0.80993 0.0
C1324 C 0.99233 0.74716 0.81543 0.0
N1325 N 0.02615 0.7584 0.8071 0.0
C1326 C 0.00682 0.73914 0.82421 0.0
C1327 C 0.99498 0.76099 0.80255 0.0
C1328 C 0.02384 0.74498 0.81974 0.0
C1329 C 0.01221 0.76647 0.79851 0.0
C1330 C 0.92071 0.72842 0.83036 0.0
C1331 C 0.8974 0.7166 0.84992 0.0
N1332 N 0.8854 0.72124 0.83645 0.0
C1333 C 0.90815 0.73317 0.81675 0.0
C1334 C 0.91533 0.72013 0.84712 0.0
C1335 C 0.89036 0.72938 0.82007 0.0
C1336 C 0.9338 0.76674 0.78314 0.0
N1337 N 0.94387 0.7654 0.79902 0.0
C1338 C 0.93847 0.79573 0.80674 0.0
C1339 C 0.94653 0.77948 0.81067 0.0
C1340 C 0.92759 0.79745 0.79066 0.0
C1341 C 0.92564 0.78275 0.77856 0.0
H1342 H 0.93168 0.7552 0.77432 0.0
H1343 H 0.9544 0.77789 0.82337 0.0
C1344 C 0.98136 0.71584 0.86816 0.0
N1345 N 0.9672 0.7251 0.8617 0.0
C1346 C 0.98562 0.71602 0.88742 0.0
C1347 C 0.96073 0.73545 0.89295 0.0
C1348 C 0.95697 0.73489 0.87355 0.0
C1349 C 0.9752 0.72587 0.90012 0.0
H1350 H 0.98929 0.70824 0.85833 0.0
H1351 H 0.94584 0.74221 0.86795 0.0
C1352 C 0.95998 0.72198 0.76949 0.0
N1353 N 0.97453 0.7176 0.73385 0.0
C1354 C 0.96236 0.70498 0.76204 0.0
C1355 C 0.96488 0.73677 0.75875 0.0
C1356 C 0.96979 0.70304 0.74403 0.0
C1357 C 0.97222 0.73427 0.74076 0.0
C1358 C 0.96139 0.68456 0.82636 0.0
C1359 C 0.96105 0.67191 0.81187 0.0
C1360 C 0.95699 0.67958 0.84487 0.0
C1361 C 0.95609 0.65452 0.81611 0.0
C1362 C 0.95214 0.66205 0.84854 0.0
N1363 N 0.95177 0.64999 0.8342 0.0
C1364 C 0.0014 0.69572 0.79579 0.0
C1365 C 0.00339 0.72198 0.77751 0.0
C1366 C 0.01606 0.68862 0.78659 0.0
N1367 N 0.99511 0.71196 0.79089 0.0
C1368 C 0.0182 0.71542 0.76797 0.0
C1369 C 0.02449 0.69838 0.77227 0.0
H1370 H 0.99496 0.68815 0.80677 0.0
H1371 H 0.99838 0.73496 0.774 0.0
C1372 C 0.91993 0.69474 0.78628 0.0
N1373 N 0.92582 0.69523 0.80448 0.0
C1374 C 0.9066 0.68298 0.78101 0.0
C1375 C 0.90519 0.67271 0.81343 0.0
C1376 C 0.91849 0.68477 0.81809 0.0
C1377 C 0.89921 0.67155 0.7946 0.0
H1378 H 0.92558 0.70351 0.7758 0.0
H1379 H 0.92304 0.68566 0.83257 0.0
O1380 O 0.97559 0.74151 0.81941 0.0
O1381 O 0.93821 0.73168 0.82719 0.0
O1382 O 0.95279 0.72414 0.78714 0.0
O1383 O 0.96627 0.70165 0.82249 0.0
H1384 H 0.00495 0.72841 0.83418 0.0
H1385 H 0.98387 0.7673 0.79564 0.0
H1386 H 0.0352 0.73882 0.82632 0.0
H1387 H 0.01449 0.77709 0.7885 0.0
H1388 H 0.89304 0.71009 0.86277 0.0
H1389 H 0.91214 0.73951 0.80367 0.0
H1390 H 0.92492 0.71624 0.85772 0.0
H1391 H 0.8805 0.73287 0.80962 0.0
H1392 H 0.94014 0.80655 0.81666 0.0
H1393 H 0.91758 0.78348 0.7659 0.0
H1394 H 0.99704 0.70866 0.89226 0.0
H1395 H 0.95226 0.74308 0.90224 0.0
H1396 H 0.95856 0.69341 0.77012 0.0
H1397 H 0.96332 0.75001 0.76436 0.0
H1398 H 0.9718 0.68995 0.73814 0.0
H1399 H 0.97618 0.74558 0.73235 0.0
H1400 H 0.96451 0.67549 0.7975 0.0
H1401 H 0.95707 0.68918 0.85625 0.0
H1402 H 0.95567 0.64463 0.80501 0.0
H1403 H 0.9486 0.65804 0.86277 0.0
H1404 H 0.02074 0.6756 0.79064 0.0
H1405 H 0.02434 0.72337 0.75701 0.0
H1406 H 0.90212 0.68288 0.76643 0.0
H1407 H 0.89995 0.66414 0.82439 0.0
C1408 C 0.3278 0.42545 0.28756 0.0
C1409 C 0.31612 0.42258 0.30277 0.0
C1410 C 0.34327 0.41541 0.28588 0.0
C1411 C 0.37297 0.38557 0.31307 0.0
H1412 H 0.38295 0.3646 0.26402 0.0
C1413 C 0.40682 0.3185 0.28311 0.0
C1414 C 0.42166 0.31746 0.29503 0.0
C1415 C 0.39689 0.33406 0.28213 0.0
C1416 C 0.38037 0.37039 0.2778 0.0
H1417 H 0.31152 0.40679 0.32803 0.0
H1418 H 0.33833 0.38944 0.32514 0.0
H1419 H 0.35975 0.3869 0.26684 0.0
H1420 H 0.43842 0.33225 0.31428 0.0
H1421 H 0.42116 0.35955 0.31242 0.0
H1422 H 0.3928 0.36839 0.32428 0.0
C1423 C 0.3358 0.39968 0.31472 0.0
C1424 C 0.36721 0.38331 0.27938 0.0
C1425 C 0.32039 0.40966 0.31638 0.0
C1426 C 0.42687 0.33259 0.30521 0.0
C1427 C 0.41698 0.3482 0.30415 0.0
C1428 C 0.38607 0.37264 0.31151 0.0
C1429 C 0.34736 0.40232 0.29939 0.0
C1430 C 0.36303 0.39066 0.29714 0.0
C1431 C 0.40161 0.34897 0.29297 0.0
C1432 C 0.3896 0.36454 0.29395 0.0
H1433 H 0.32497 0.43543 0.27694 0.0
H1434 H 0.35199 0.41784 0.27399 0.0
H1435 H 0.37025 0.3912 0.3269 0.0
H1436 H 0.40234 0.307 0.27527 0.0
H1437 H 0.38499 0.33407 0.2736 0.0
C1438 C 0.41542 0.67923 0.72558 0.0
C1439 C 0.42046 0.6846 0.70732 0.0
C1440 C 0.40482 0.66424 0.72808 0.0
C1441 C 0.3852 0.62555 0.70199 0.0
H1442 H 0.34918 0.62961 0.74077 0.0
C1443 C 0.32895 0.57428 0.7071 0.0
C1444 C 0.31211 0.58102 0.71126 0.0
C1445 C 0.34395 0.58486 0.70948 0.0
C1446 C 0.35904 0.62829 0.72975 0.0
H1447 H 0.4187 0.67855 0.67739 0.0
H1448 H 0.39958 0.65296 0.68151 0.0
H1449 H 0.37215 0.65183 0.73876 0.0
H1450 H 0.29766 0.60395 0.72122 0.0
H1451 H 0.32356 0.62266 0.72461 0.0
H1452 H 0.37124 0.60283 0.69199 0.0
C1453 C 0.40424 0.65977 0.69407 0.0
C1454 C 0.37249 0.64092 0.72881 0.0
C1455 C 0.41513 0.67452 0.69163 0.0
C1456 C 0.31054 0.59837 0.71817 0.0
C1457 C 0.32546 0.60906 0.72021 0.0
C1458 C 0.37153 0.61312 0.70268 0.0
C1459 C 0.39869 0.65456 0.71231 0.0
C1460 C 0.38557 0.63995 0.71466 0.0
C1461 C 0.34238 0.60254 0.71569 0.0
C1462 C 0.35804 0.61453 0.71633 0.0
H1463 H 0.41951 0.68678 0.7379 0.0
H1464 H 0.40121 0.66046 0.74237 0.0
H1465 H 0.39524 0.62406 0.69118 0.0
H1466 H 0.33047 0.56086 0.70186 0.0
H1467 H 0.35674 0.57922 0.70623 0.0
C1468 C 0.59089 0.67977 0.3111 0.0
C1469 C 0.57796 0.68435 0.29766 0.0
C1470 C 0.60087 0.66437 0.30897 0.0
C1471 C 0.617 0.63341 0.27291 0.0
H1472 H 0.63078 0.6061 0.3171 0.0
C1473 C 0.68011 0.591 0.2761 0.0
C1474 C 0.68036 0.57581 0.28763 0.0
C1475 C 0.66501 0.60161 0.27513 0.0
C1476 C 0.62685 0.61333 0.30451 0.0
H1477 H 0.56513 0.67606 0.27162 0.0
H1478 H 0.58273 0.6491 0.26783 0.0
H1479 H 0.60879 0.62939 0.32027 0.0
H1480 H 0.66462 0.5591 0.30604 0.0
H1481 H 0.63816 0.57752 0.30419 0.0
H1482 H 0.63524 0.61742 0.25719 0.0
C1483 C 0.58518 0.65758 0.27995 0.0
C1484 C 0.6144 0.62685 0.3064 0.0
C1485 C 0.57512 0.67301 0.28211 0.0
C1486 C 0.66488 0.57089 0.29728 0.0
C1487 C 0.64976 0.58146 0.29624 0.0
C1488 C 0.62948 0.61985 0.27101 0.0
C1489 C 0.59822 0.65314 0.29333 0.0
C1490 C 0.60967 0.63734 0.29074 0.0
C1491 C 0.64982 0.59723 0.28561 0.0
C1492 C 0.63486 0.60994 0.28689 0.0
H1493 H 0.59371 0.68837 0.32302 0.0
H1494 H 0.61107 0.66155 0.31932 0.0
H1495 H 0.61369 0.6413 0.26057 0.0
H1496 H 0.69189 0.59525 0.26867 0.0
H1497 H 0.66562 0.61377 0.26699 0.0
C1498 C 0.58248 0.32265 0.7037 0.0
C1499 C 0.5826 0.30815 0.7162 0.0
C1500 C 0.59422 0.33674 0.7063 0.0
C1501 C 0.63793 0.34472 0.72682 0.0
H1502 H 0.62888 0.39336 0.71189 0.0
C1503 C 0.69347 0.39095 0.70331 0.0
C1504 C 0.69336 0.40866 0.70949 0.0
C1505 C 0.67908 0.37991 0.70675 0.0
C1506 C 0.63156 0.37988 0.71635 0.0
H1507 H 0.59404 0.29766 0.74205 0.0
H1508 H 0.61439 0.32236 0.74675 0.0
H1509 H 0.60429 0.37245 0.71436 0.0
H1510 H 0.67791 0.42868 0.72405 0.0
H1511 H 0.65255 0.40928 0.72995 0.0
H1512 H 0.66515 0.35203 0.72863 0.0
C1513 C 0.60555 0.32266 0.73467 0.0
C1514 C 0.61752 0.36788 0.7176 0.0
C1515 C 0.59389 0.30853 0.73201 0.0
C1516 C 0.67835 0.41513 0.719 0.0
C1517 C 0.66386 0.40404 0.7224 0.0
C1518 C 0.65192 0.35668 0.72556 0.0
C1519 C 0.60625 0.33665 0.72151 0.0
C1520 C 0.6206 0.35006 0.72247 0.0
C1521 C 0.66416 0.38627 0.71642 0.0
C1522 C 0.64896 0.37427 0.71986 0.0
H1523 H 0.57403 0.32265 0.6913 0.0
H1524 H 0.59452 0.3472 0.69578 0.0
H1525 H 0.64085 0.33107 0.73041 0.0
H1526 H 0.70462 0.38565 0.69552 0.0
H1527 H 0.67955 0.3664 0.70155 0.0
C1528 C 0.82337 0.92202 0.77952 0.0
C1529 C 0.81378 0.92133 0.79662 0.0
C1530 C 0.83827 0.91132 0.77687 0.0
C1531 C 0.87163 0.88494 0.80262 0.0
H1532 H 0.87249 0.85553 0.75751 0.0
C1533 C 0.89975 0.81299 0.78079 0.0
C1534 C 0.91728 0.81396 0.78737 0.0
C1535 C 0.88945 0.82825 0.77925 0.0
C1536 C 0.87249 0.86375 0.77011 0.0
H1537 H 0.81248 0.90871 0.82429 0.0
H1538 H 0.83856 0.8905 0.8198 0.0
H1539 H 0.8502 0.8788 0.76057 0.0
H1540 H 0.9379 0.83197 0.79663 0.0
H1541 H 0.91969 0.85862 0.79429 0.0
H1542 H 0.89344 0.86946 0.81252 0.0
C1543 C 0.83467 0.89946 0.80853 0.0
C1544 C 0.85984 0.87716 0.77179 0.0
C1545 C 0.81971 0.90997 0.81111 0.0
C1546 C 0.92438 0.83069 0.79183 0.0
C1547 C 0.91399 0.84596 0.79042 0.0
C1548 C 0.88436 0.87165 0.80088 0.0
C1549 C 0.844 0.89987 0.79133 0.0
C1550 C 0.85897 0.88754 0.7883 0.0
C1551 C 0.89634 0.84485 0.78437 0.0
C1552 C 0.88461 0.8606 0.78484 0.0
H1553 H 0.81934 0.93079 0.76815 0.0
H1554 H 0.8453 0.91197 0.7635 0.0
H1555 H 0.87136 0.89287 0.81543 0.0
H1556 H 0.89369 0.80035 0.77758 0.0
H1557 H 0.8758 0.82692 0.77485 0.0
C1558 C 0.81897 0.08841 0.18347 0.0
C1559 C 0.81438 0.07769 0.19901 0.0
C1560 C 0.83374 0.09941 0.18428 0.0
C1561 C 0.86213 0.12257 0.21859 0.0
H1562 H 0.88895 0.13363 0.17323 0.0
C1563 C 0.91722 0.17633 0.21575 0.0
C1564 C 0.9147 0.18869 0.20108 0.0
C1565 C 0.90726 0.1607 0.21626 0.0
C1566 C 0.8816 0.13062 0.18602 0.0
H1567 H 0.82209 0.06964 0.22734 0.0
H1568 H 0.84812 0.08881 0.22871 0.0
H1569 H 0.86783 0.10923 0.17274 0.0
H1570 H 0.90028 0.19424 0.1752 0.0
H1571 H 0.88305 0.16693 0.17597 0.0
H1572 H 0.87587 0.14419 0.23173 0.0
C1573 C 0.84008 0.08887 0.216 0.0
C1574 C 0.86947 0.1167 0.18574 0.0
C1575 C 0.8252 0.07788 0.21521 0.0
C1576 C 0.90235 0.18501 0.18676 0.0
C1577 C 0.89263 0.16932 0.18711 0.0
C1578 C 0.87443 0.1364 0.21891 0.0
C1579 C 0.84439 0.09994 0.20061 0.0
C1580 C 0.85917 0.11287 0.20183 0.0
C1581 C 0.89491 0.15706 0.20189 0.0
C1582 C 0.88388 0.14087 0.20245 0.0
H1583 H 0.81072 0.08886 0.17092 0.0
H1584 H 0.83639 0.10802 0.17232 0.0
H1585 H 0.85432 0.12011 0.23118 0.0
H1586 H 0.92665 0.17891 0.22697 0.0
H1587 H 0.90926 0.15143 0.2278 0.0
C1588 C 0.08671 0.18016 0.77149 0.0
C1589 C 0.08177 0.18534 0.78985 0.0
C1590 C 0.09682 0.16487 0.7687 0.0
C1591 C 0.11468 0.12492 0.79403 0.0
H1592 H 0.15119 0.12822 0.75569 0.0
C1593 C 0.16917 0.07189 0.78922 0.0
C1594 C 0.18627 0.07816 0.78554 0.0
C1595 C 0.15453 0.08292 0.7865 0.0
C1596 C 0.14117 0.1271 0.76658 0.0
H1597 H 0.08327 0.17867 0.81966 0.0
H1598 H 0.10151 0.15253 0.81503 0.0
H1599 H 0.12907 0.15131 0.75791 0.0
H1600 H 0.20161 0.10066 0.776 0.0
H1601 H 0.17635 0.12015 0.77204 0.0
H1602 H 0.12765 0.10152 0.80373 0.0
C1603 C 0.09714 0.15974 0.80261 0.0
C1604 C 0.12822 0.14024 0.76764 0.0
C1605 C 0.08675 0.1748 0.80534 0.0
C1606 C 0.1885 0.09545 0.77868 0.0
C1607 C 0.17395 0.10659 0.77632 0.0
C1608 C 0.12785 0.11198 0.79322 0.0
C1609 C 0.10252 0.15466 0.78427 0.0
C1610 C 0.11501 0.13956 0.78167 0.0
C1611 C 0.15676 0.10058 0.78045 0.0
C1612 C 0.14153 0.1131 0.77976 0.0
H1613 H 0.08288 0.18804 0.75932 0.0
H1614 H 0.10034 0.16122 0.75434 0.0
H1615 H 0.10449 0.12364 0.80472 0.0
H1616 H 0.16715 0.05853 0.79442 0.0
H1617 H 0.14152 0.07765 0.78944 0.0
C1618 C 0.17626 0.91598 0.22243 0.0
C1619 C 0.18523 0.91731 0.20498 0.0
C1620 C 0.16189 0.90449 0.22448 0.0
C1621 C 0.12774 0.88009 0.19863 0.0
H1622 H 0.13345 0.84357 0.23691 0.0
C1623 C 0.10399 0.80472 0.20897 0.0
C1624 C 0.08543 0.80594 0.20859 0.0
C1625 C 0.11438 0.81987 0.21103 0.0
C1626 C 0.13161 0.85382 0.22632 0.0
H1627 H 0.18566 0.90767 0.17591 0.0
H1628 H 0.16023 0.88833 0.17938 0.0
H1629 H 0.15441 0.86827 0.23553 0.0
H1630 H 0.06337 0.82429 0.21057 0.0
H1631 H 0.0817 0.85084 0.21324 0.0
H1632 H 0.10513 0.86541 0.18918 0.0
C1633 C 0.1644 0.89619 0.19144 0.0
C1634 C 0.1435 0.86795 0.2256 0.0
C1635 C 0.17895 0.90739 0.18946 0.0
C1636 C 0.07759 0.82279 0.21044 0.0
C1637 C 0.08804 0.83801 0.21212 0.0
C1638 C 0.11565 0.86612 0.19958 0.0
C1639 C 0.15596 0.89438 0.20904 0.0
C1640 C 0.14192 0.88096 0.21144 0.0
C1641 C 0.10652 0.83664 0.21241 0.0
C1642 C 0.11776 0.85264 0.21312 0.0
H1643 H 0.18043 0.92365 0.23461 0.0
H1644 H 0.15549 0.90337 0.23818 0.0
H1645 H 0.12626 0.88999 0.18761 0.0
H1646 H 0.11062 0.79213 0.20712 0.0
H1647 H 0.12863 0.81852 0.21091 0.0
C1648 C 0.19032 0.55266 0.26388 0.0
C1649 C 0.19069 0.53597 0.25507 0.0
C1650 C 0.18171 0.56691 0.25526 0.0
C1651 C 0.14661 0.57616 0.22031 0.0
H1652 H 0.16235 0.62471 0.22666 0.0
C1653 C 0.10793 0.63544 0.18938 0.0
C1654 C 0.10463 0.6493 0.20225 0.0
C1655 C 0.1201 0.62212 0.19377 0.0
C1656 C 0.1578 0.61121 0.22481 0.0
H1657 H 0.1831 0.5213 0.22994 0.0
H1658 H 0.16833 0.54628 0.21466 0.0
H1659 H 0.18106 0.60042 0.23761 0.0
H1660 H 0.11178 0.66007 0.22976 0.0
H1661 H 0.13318 0.63701 0.23722 0.0
H1662 H 0.12331 0.58699 0.20762 0.0
C1663 C 0.17432 0.54827 0.22845 0.0
C1664 C 0.16848 0.59729 0.23112 0.0
C1665 C 0.18282 0.53398 0.23715 0.0
C1666 C 0.11416 0.64977 0.21938 0.0
C1667 C 0.12642 0.63654 0.22368 0.0
C1668 C 0.13602 0.59006 0.21387 0.0
C1669 C 0.17337 0.56484 0.23756 0.0
C1670 C 0.16287 0.5796 0.22925 0.0
C1671 C 0.12935 0.62246 0.21104 0.0
C1672 C 0.14136 0.60774 0.21635 0.0
H1673 H 0.19606 0.55453 0.27781 0.0
H1674 H 0.18101 0.57937 0.26285 0.0
H1675 H 0.14172 0.56274 0.2189 0.0
H1676 H 0.1011 0.63483 0.17591 0.0
H1677 H 0.12226 0.61153 0.18366 0.0
C1678 C 0.55659 0.79858 0.74399 0.0
C1679 C 0.54501 0.80711 0.73136 0.0
C1680 C 0.57003 0.80815 0.75301 0.0
C1681 C 0.58147 0.85294 0.76834 0.0
H1682 H 0.63038 0.83799 0.76501 0.0
C1683 C 0.63815 0.90092 0.78434 0.0
C1684 C 0.65354 0.8945 0.79306 0.0
C1685 C 0.62493 0.88927 0.77846 0.0
C1686 C 0.61677 0.84221 0.7664 0.0
H1687 H 0.53811 0.83228 0.71853 0.0
H1688 H 0.56139 0.849 0.73441 0.0
H1689 H 0.6071 0.81909 0.752 0.0
H1690 H 0.66714 0.87088 0.80264 0.0
H1691 H 0.64383 0.85044 0.7927 0.0
H1692 H 0.5909 0.87594 0.7828 0.0
C1693 C 0.56019 0.83493 0.73724 0.0
C1694 C 0.60347 0.83139 0.7589 0.0
C1695 C 0.54699 0.82535 0.72803 0.0
C1696 C 0.65545 0.87616 0.79582 0.0
C1697 C 0.64212 0.86447 0.79009 0.0
C1698 C 0.59469 0.86363 0.77603 0.0
C1699 C 0.57182 0.82645 0.74982 0.0
C1700 C 0.58576 0.83687 0.75944 0.0
C1701 C 0.62669 0.8709 0.78132 0.0
C1702 C 0.61256 0.85862 0.77476 0.0
H1703 H 0.55531 0.78451 0.74676 0.0
H1704 H 0.57883 0.80135 0.76269 0.0
H1705 H 0.56787 0.85732 0.7692 0.0
H1706 H 0.63646 0.91496 0.78169 0.0
H1707 H 0.61347 0.8947 0.77133 0.0
C1708 C 0.88061 0.34146 0.21933 0.0
C1709 C 0.89301 0.34501 0.20498 0.0
C1710 C 0.86805 0.35417 0.22443 0.0
C1711 C 0.84694 0.39616 0.2087 0.0
H1712 H 0.83983 0.40327 0.26264 0.0
C1713 C 0.81682 0.45993 0.24061 0.0
C1714 C 0.80569 0.45826 0.25647 0.0
C1715 C 0.82538 0.4451 0.23308 0.0
C1716 C 0.84142 0.40129 0.24752 0.0
H1717 H 0.9014 0.36445 0.18417 0.0
H1718 H 0.87982 0.38678 0.19341 0.0
H1719 H 0.8586 0.37917 0.25177 0.0
H1720 H 0.79447 0.43961 0.27655 0.0
H1721 H 0.80922 0.41371 0.26325 0.0
H1722 H 0.83005 0.41862 0.20455 0.0
C1723 C 0.87968 0.37411 0.20061 0.0
C1724 C 0.85219 0.38745 0.24127 0.0
C1725 C 0.89222 0.36138 0.19548 0.0
C1726 C 0.80285 0.44134 0.26424 0.0
C1727 C 0.81145 0.42652 0.25675 0.0
C1728 C 0.83619 0.41006 0.21497 0.0
C1729 C 0.86761 0.37075 0.21533 0.0
C1730 C 0.85523 0.38481 0.2218 0.0
C1731 C 0.82304 0.42828 0.24129 0.0
C1732 C 0.83345 0.41287 0.23446 0.0
H1733 H 0.88091 0.32905 0.22705 0.0
H1734 H 0.85879 0.35105 0.23565 0.0
H1735 H 0.84879 0.39434 0.1936 0.0
H1736 H 0.81912 0.47276 0.23417 0.0
H1737 H 0.83432 0.44693 0.22125 0.0
C1738 C 0.4518 0.17157 0.72974 0.0
C1739 C 0.45429 0.18961 0.73382 0.0
C1740 C 0.43854 0.16196 0.73883 0.0
C1741 C 0.39567 0.16559 0.76097 0.0
H1742 H 0.40764 0.12046 0.78396 0.0
C1743 C 0.3429 0.12107 0.79675 0.0
C1744 C 0.34461 0.10272 0.79389 0.0
C1745 C 0.35645 0.13261 0.79128 0.0
C1746 C 0.404 0.13292 0.77742 0.0
H1747 H 0.44488 0.21184 0.75042 0.0
H1748 H 0.42119 0.195 0.76608 0.0
H1749 H 0.43091 0.13896 0.77065 0.0
H1750 H 0.36155 0.08209 0.78269 0.0
H1751 H 0.3849 0.10212 0.77269 0.0
H1752 H 0.36868 0.15927 0.76691 0.0
C1753 C 0.42966 0.18836 0.75594 0.0
C1754 C 0.41736 0.14355 0.76992 0.0
C1755 C 0.44319 0.19793 0.74707 0.0
C1756 C 0.36003 0.09615 0.78537 0.0
C1757 C 0.37344 0.10766 0.77972 0.0
C1758 C 0.38223 0.15482 0.76824 0.0
C1759 C 0.42735 0.17025 0.75198 0.0
C1760 C 0.4133 0.15985 0.76139 0.0
C1761 C 0.37189 0.12604 0.78265 0.0
C1762 C 0.3862 0.13821 0.77628 0.0
H1763 H 0.46031 0.16482 0.71972 0.0
H1764 H 0.43693 0.14805 0.73543 0.0
H1765 H 0.39222 0.17807 0.75434 0.0
H1766 H 0.33118 0.12645 0.80341 0.0
H1767 H 0.35487 0.14665 0.79398 0.0
C1768 C 0.1945 0.44174 0.73263 0.0
C1769 C 0.19436 0.45836 0.74157 0.0
C1770 C 0.1866 0.4271 0.74131 0.0
C1771 C 0.15282 0.41647 0.7775 0.0
H1772 H 0.16937 0.36838 0.76962 0.0
C1773 C 0.11725 0.35626 0.81012 0.0
C1774 C 0.11296 0.34279 0.7971 0.0
C1775 C 0.12916 0.36963 0.80521 0.0
C1776 C 0.16462 0.38175 0.77192 0.0
H1777 H 0.18675 0.47257 0.76698 0.0
H1778 H 0.17343 0.44692 0.78246 0.0
H1779 H 0.18701 0.39326 0.75807 0.0
H1780 H 0.1183 0.33265 0.76885 0.0
H1781 H 0.13935 0.35578 0.7605 0.0
H1782 H 0.13045 0.40492 0.79134 0.0
C1783 C 0.17913 0.44524 0.76849 0.0
C1784 C 0.17466 0.39601 0.76525 0.0
C1785 C 0.18682 0.45993 0.75969 0.0
C1786 C 0.12144 0.34264 0.77934 0.0
C1787 C 0.13349 0.35592 0.77452 0.0
C1788 C 0.14291 0.40224 0.78434 0.0
C1789 C 0.17856 0.42872 0.75924 0.0
C1790 C 0.16875 0.41355 0.76769 0.0
C1791 C 0.13721 0.36972 0.78726 0.0
C1792 C 0.14857 0.38474 0.78137 0.0
H1793 H 0.20006 0.44023 0.71857 0.0
H1794 H 0.18621 0.41469 0.73361 0.0
H1795 H 0.14763 0.42972 0.77934 0.0
H1796 H 0.11129 0.35659 0.82407 0.0
H1797 H 0.13198 0.38 0.81539 0.0
C1798 C 0.3572 0.88667 0.19058 0.0
C1799 C 0.34422 0.89043 0.20425 0.0
C1800 C 0.3707 0.87456 0.19452 0.0
C1801 C 0.3832 0.83789 0.22666 0.0
H1802 H 0.43118 0.85273 0.21583 0.0
C1803 C 0.44366 0.80707 0.26352 0.0
C1804 C 0.45951 0.80537 0.25331 0.0
C1805 C 0.42905 0.81544 0.25541 0.0
C1806 C 0.41786 0.8482 0.21864 0.0
H1807 H 0.33484 0.88402 0.23248 0.0
H1808 H 0.35845 0.86303 0.23942 0.0
H1809 H 0.40653 0.87103 0.20536 0.0
H1810 H 0.47222 0.81044 0.2263 0.0
H1811 H 0.44661 0.82495 0.21203 0.0
H1812 H 0.39452 0.81519 0.2402 0.0
C1813 C 0.35817 0.86936 0.22563 0.0
C1814 C 0.40373 0.85871 0.21265 0.0
C1815 C 0.34477 0.88153 0.22175 0.0
C1816 C 0.46025 0.81175 0.23459 0.0
C1817 C 0.4456 0.82008 0.22645 0.0
C1818 C 0.39732 0.82734 0.23259 0.0
C1819 C 0.3714 0.86588 0.21215 0.0
C1820 C 0.38626 0.85384 0.2169 0.0
C1821 C 0.42991 0.82228 0.23687 0.0
C1822 C 0.41484 0.83253 0.22896 0.0
H1823 H 0.35717 0.89341 0.17701 0.0
H1824 H 0.38064 0.87206 0.1838 0.0
H1825 H 0.36986 0.83366 0.22988 0.0
H1826 H 0.44276 0.80256 0.27808 0.0
H1827 H 0.41729 0.81716 0.26397 0.0
C1828 C 0.7926 0.56271 0.73324 0.0
C1829 C 0.79818 0.54548 0.73792 0.0
C1830 C 0.80084 0.57748 0.74128 0.0
C1831 C 0.83089 0.59195 0.77989 0.0
H1832 H 0.84491 0.62802 0.74371 0.0
C1833 C 0.87139 0.65423 0.80103 0.0
C1834 C 0.88569 0.65824 0.78902 0.0
C1835 C 0.85889 0.64148 0.79576 0.0
C1836 C 0.84108 0.61807 0.75399 0.0
H1837 H 0.81647 0.5303 0.7552 0.0
H1838 H 0.83075 0.55603 0.76925 0.0
H1839 H 0.82588 0.6038 0.7335 0.0
H1840 H 0.89818 0.65171 0.7622 0.0
H1841 H 0.87633 0.62972 0.75297 0.0
H1842 H 0.84664 0.60596 0.80021 0.0
C1843 C 0.81987 0.55813 0.75952 0.0
C1844 C 0.83001 0.6043 0.7482 0.0
C1845 C 0.81166 0.54336 0.75146 0.0
C1846 C 0.88715 0.64925 0.77162 0.0
C1847 C 0.87463 0.63661 0.76633 0.0
C1848 C 0.84192 0.60579 0.78571 0.0
C1849 C 0.81482 0.57535 0.7542 0.0
C1850 C 0.82503 0.59091 0.76099 0.0
C1851 C 0.86038 0.63257 0.77833 0.0
C1852 C 0.8474 0.6188 0.77271 0.0
H1853 H 0.78205 0.56478 0.7231 0.0
H1854 H 0.79647 0.59059 0.73713 0.0
H1855 H 0.82716 0.58191 0.79011 0.0
H1856 H 0.86973 0.66106 0.81442 0.0
H1857 H 0.84796 0.63874 0.80522 0.0
C1858 C 0.63892 0.11044 0.19539 0.0
C1859 C 0.65124 0.10496 0.2091 0.0
C1860 C 0.62559 0.12246 0.20011 0.0
C1861 C 0.61342 0.15678 0.23485 0.0
H1862 H 0.56532 0.14549 0.22033 0.0
C1863 C 0.55301 0.19038 0.26912 0.0
C1864 C 0.5379 0.1933 0.25799 0.0
C1865 C 0.56749 0.18126 0.2617 0.0
C1866 C 0.5787 0.14905 0.22421 0.0
H1867 H 0.65954 0.10805 0.23834 0.0
H1868 H 0.6362 0.12902 0.24661 0.0
H1869 H 0.58941 0.12639 0.21002 0.0
H1870 H 0.52637 0.18967 0.23013 0.0
H1871 H 0.55181 0.174 0.21699 0.0
H1872 H 0.60275 0.17942 0.24909 0.0
C1873 C 0.63689 0.12405 0.23221 0.0
C1874 C 0.59249 0.13806 0.21834 0.0
C1875 C 0.65012 0.11192 0.22754 0.0
C1876 C 0.53779 0.18742 0.23908 0.0
C1877 C 0.55232 0.1784 0.2316 0.0
C1878 C 0.59964 0.16786 0.24062 0.0
C1879 C 0.62442 0.12936 0.21858 0.0
C1880 C 0.60996 0.14168 0.22381 0.0
C1881 C 0.56723 0.17494 0.24293 0.0
C1882 C 0.58207 0.16399 0.23559 0.0
H1883 H 0.63941 0.10519 0.1811 0.0
H1884 H 0.61622 0.12641 0.18929 0.0
H1885 H 0.6268 0.16003 0.23905 0.0
H1886 H 0.55337 0.1945 0.28383 0.0
H1887 H 0.57861 0.17859 0.27093 0.0
C1888 C 0.68695 0.04038 0.7374 0.0
C1889 C 0.69509 0.04265 0.75513 0.0
C1890 C 0.67883 0.05468 0.72832 0.0
C1891 C 0.67393 0.1039 0.7295 0.0
H1892 H 0.62833 0.09349 0.70703 0.0
C1893 C 0.61972 0.15646 0.71646 0.0
C1894 C 0.6097 0.15522 0.6997 0.0
C1895 C 0.6322 0.14349 0.72098 0.0
C1896 C 0.64116 0.0966 0.71297 0.0
H1897 H 0.70155 0.06169 0.77705 0.0
H1898 H 0.68706 0.08659 0.76146 0.0
H1899 H 0.64651 0.06939 0.71893 0.0
H1900 H 0.6057 0.13981 0.67406 0.0
H1901 H 0.62728 0.11701 0.68216 0.0
H1902 H 0.66811 0.13126 0.72412 0.0
C1903 C 0.68724 0.07389 0.75431 0.0
C1904 C 0.65164 0.08276 0.71977 0.0
C1905 C 0.69552 0.05962 0.7633 0.0
C1906 C 0.6129 0.14099 0.68728 0.0
C1907 C 0.6253 0.12795 0.69187 0.0
C1908 C 0.66336 0.11777 0.72282 0.0
C1909 C 0.67849 0.07152 0.73687 0.0
C1910 C 0.66807 0.08623 0.72832 0.0
C1911 C 0.63488 0.12893 0.7089 0.0
C1912 C 0.64678 0.11426 0.71467 0.0
H1913 H 0.68665 0.02747 0.73068 0.0
H1914 H 0.67258 0.05244 0.71471 0.0
H1915 H 0.68663 0.10705 0.73571 0.0
H1916 H 0.61746 0.1671 0.72648 0.0
H1917 H 0.63923 0.14448 0.73432 0.0
C1918 C 0.16514 0.3696 0.2771 0.0
C1919 C 0.16209 0.37991 0.29339 0.0
C1920 C 0.15307 0.35658 0.27159 0.0
C1921 C 0.11371 0.33094 0.28789 0.0
H1922 H 0.10332 0.32925 0.23406 0.0
C1923 C 0.04867 0.30389 0.25602 0.0
C1924 C 0.04964 0.29436 0.2389 0.0
C1925 C 0.06384 0.31141 0.26396 0.0
C1926 C 0.10625 0.32933 0.2491 0.0
H1927 H 0.14433 0.38391 0.31717 0.0
H1928 H 0.12295 0.3618 0.30712 0.0
H1929 H 0.12721 0.34793 0.24543 0.0
H1930 H 0.06753 0.28424 0.21744 0.0
H1931 H 0.09395 0.2976 0.23117 0.0
H1932 H 0.09212 0.31284 0.29148 0.0
C1933 C 0.1348 0.36355 0.29873 0.0
C1934 C 0.12 0.34003 0.25565 0.0
C1935 C 0.14695 0.37646 0.30435 0.0
C1936 C 0.06626 0.29181 0.23041 0.0
C1937 C 0.0814 0.29942 0.23828 0.0
C1938 C 0.09983 0.32035 0.28133 0.0
C1939 C 0.13756 0.35364 0.2821 0.0
C1940 C 0.1238 0.34114 0.27515 0.0
C1941 C 0.08027 0.30963 0.2549 0.0
C1942 C 0.09585 0.31959 0.26189 0.0
H1943 H 0.17656 0.37194 0.26821 0.0
H1944 H 0.15579 0.34899 0.25888 0.0
H1945 H 0.11644 0.33124 0.30296 0.0
H1946 H 0.03607 0.30629 0.26283 0.0
H1947 H 0.06255 0.31935 0.27668 0.0
C1948 C 0.31166 0.95243 0.7451 0.0
C1949 C 0.30239 0.95165 0.76234 0.0
C1950 C 0.31954 0.93722 0.73759 0.0
C1951 C 0.339 0.89563 0.75307 0.0
H1952 H 0.33853 0.88351 0.69962 0.0
C1953 C 0.37878 0.83619 0.72508 0.0
C1954 C 0.38798 0.8387 0.70796 0.0
C1955 C 0.36602 0.84838 0.73098 0.0
C1956 C 0.33893 0.88679 0.71457 0.0
H1957 H 0.2937 0.93431 0.78501 0.0
H1958 H 0.30755 0.90772 0.77192 0.0
H1959 H 0.32026 0.90793 0.71112 0.0
H1960 H 0.39029 0.85565 0.6832 0.0
H1961 H 0.36871 0.87727 0.69387 0.0
H1962 H 0.35816 0.87513 0.75654 0.0
C1963 C 0.30871 0.9201 0.76423 0.0
C1964 C 0.3284 0.90073 0.72114 0.0
C1965 C 0.30067 0.93527 0.77163 0.0
C1966 C 0.38373 0.85345 0.69664 0.0
C1967 C 0.3711 0.86573 0.70263 0.0
C1968 C 0.34965 0.88184 0.74649 0.0
C1969 C 0.31845 0.92099 0.74729 0.0
C1970 C 0.32847 0.90538 0.74043 0.0
C1971 C 0.36226 0.8635 0.72001 0.0
C1972 C 0.34991 0.87735 0.72712 0.0
H1973 H 0.31307 0.96487 0.73758 0.0
H1974 H 0.32707 0.93833 0.72458 0.0
H1975 H 0.33953 0.89909 0.76797 0.0
H1976 H 0.38177 0.82508 0.73426 0.0
H1977 H 0.35927 0.84605 0.74428 0.0
C1978 C 0.8367 0.62241 0.27514 0.0
C1979 C 0.83706 0.61355 0.2927 0.0
C1980 C 0.84968 0.63486 0.27056 0.0
C1981 C 0.89564 0.64541 0.28079 0.0
H1982 H 0.8855 0.68955 0.25479 0.0
C1983 C 0.95193 0.69115 0.25647 0.0
C1984 C 0.95035 0.69835 0.23814 0.0
C1985 C 0.93744 0.68319 0.26531 0.0
C1986 C 0.88857 0.67721 0.26191 0.0
H1987 H 0.85095 0.61153 0.31955 0.0
H1988 H 0.87382 0.63299 0.31133 0.0
H1989 H 0.86119 0.67106 0.26608 0.0
H1990 H 0.93195 0.70369 0.21524 0.0
H1991 H 0.90695 0.68918 0.23027 0.0
H1992 H 0.92291 0.65103 0.27602 0.0
C1993 C 0.86353 0.63016 0.3011 0.0
C1994 C 0.87464 0.66667 0.26842 0.0
C1995 C 0.85047 0.61782 0.30575 0.0
C1996 C 0.93374 0.698 0.22921 0.0
C1997 C 0.9193 0.68989 0.23797 0.0
C1998 C 0.90955 0.65584 0.27413 0.0
C1999 C 0.86338 0.63864 0.28336 0.0
C2000 C 0.87804 0.65057 0.27774 0.0
C2001 C 0.92105 0.68206 0.25599 0.0
C2002 C 0.90621 0.67178 0.26441 0.0
H2003 H 0.82675 0.6193 0.26462 0.0
H2004 H 0.84936 0.64103 0.25669 0.0
H2005 H 0.89866 0.63294 0.28768 0.0
H2006 H 0.96452 0.69103 0.26375 0.0
H2007 H 0.93921 0.67759 0.27933 0.0
C2008 C 0.69085 0.93954 0.22822 0.0
C2009 C 0.69879 0.95287 0.23926 0.0
C2010 C 0.68339 0.92464 0.23676 0.0
C2011 C 0.6623 0.91049 0.28049 0.0
H2012 H 0.66731 0.86349 0.25889 0.0
C2013 C 0.62234 0.85089 0.30897 0.0
C2014 C 0.6149 0.83981 0.29507 0.0
C2015 C 0.63509 0.86349 0.30403 0.0
C2016 C 0.66569 0.87655 0.26504 0.0
H2017 H 0.70557 0.96057 0.26803 0.0
H2018 H 0.69205 0.93467 0.28297 0.0
H2019 H 0.68528 0.88781 0.24673 0.0
H2020 H 0.61497 0.83328 0.26512 0.0
H2021 H 0.63694 0.85531 0.25647 0.0
H2022 H 0.64218 0.89949 0.29823 0.0
C2023 C 0.69166 0.93587 0.26766 0.0
C2024 C 0.67603 0.89044 0.25811 0.0
C2025 C 0.69932 0.95073 0.25909 0.0
C2026 C 0.62067 0.8414 0.27622 0.0
C2027 C 0.63331 0.85403 0.27127 0.0
C2028 C 0.65184 0.89663 0.28732 0.0
C2029 C 0.6835 0.92276 0.25657 0.0
C2030 C 0.67418 0.90762 0.2655 0.0
C2031 C 0.64059 0.86534 0.28507 0.0
C2032 C 0.65313 0.87957 0.27938 0.0
H2033 H 0.6898 0.94085 0.21297 0.0
H2034 H 0.67692 0.91489 0.22787 0.0
H2035 H 0.66047 0.92365 0.28632 0.0
H2036 H 0.6183 0.84982 0.32366 0.0
H2037 H 0.64059 0.87182 0.31505 0.0
C2038 C 0.86341 0.4045 0.71877 0.0
C2039 C 0.8528 0.40004 0.70312 0.0
C2040 C 0.87708 0.39335 0.72455 0.0
C2041 C 0.89217 0.3471 0.72259 0.0
H2042 H 0.93643 0.36753 0.73959 0.0
C2043 C 0.95195 0.30485 0.74792 0.0
C2044 C 0.96035 0.3109 0.76448 0.0
C2045 C 0.93912 0.31526 0.73895 0.0
C2046 C 0.92411 0.36164 0.735 0.0
H2047 H 0.84841 0.38043 0.68112 0.0
H2048 H 0.87234 0.36086 0.69132 0.0
H2049 H 0.91366 0.38669 0.72633 0.0
H2050 H 0.96208 0.33272 0.78445 0.0
H2051 H 0.93958 0.35065 0.76906 0.0
H2052 H 0.90261 0.32205 0.73153 0.0
C2053 C 0.86992 0.37295 0.69918 0.0
C2054 C 0.91107 0.3726 0.7274 0.0
C2055 C 0.85622 0.38415 0.69336 0.0
C2056 C 0.95566 0.32754 0.77188 0.0
C2057 C 0.94294 0.33794 0.76291 0.0
C2058 C 0.90525 0.3361 0.7302 0.0
C2059 C 0.88049 0.37744 0.71485 0.0
C2060 C 0.89483 0.36552 0.72143 0.0
C2061 C 0.9346 0.33198 0.74629 0.0
C2062 C 0.92123 0.34331 0.7368 0.0
H2063 H 0.86091 0.41644 0.72685 0.0
H2064 H 0.88475 0.39702 0.73691 0.0
H2065 H 0.87974 0.34126 0.71825 0.0
H2066 H 0.95526 0.29205 0.74193 0.0
H2067 H 0.93296 0.31036 0.72611 0.0
C2068 C 0.37735 0.14744 0.31213 0.0
C2069 C 0.3832 0.15971 0.29848 0.0
C2070 C 0.36534 0.13414 0.30722 0.0
C2071 C 0.33307 0.12067 0.27036 0.0
H2072 H 0.34509 0.07295 0.28619 0.0
C2073 C 0.30715 0.05865 0.23198 0.0
C2074 C 0.30319 0.04344 0.24268 0.0
C2075 C 0.31463 0.07352 0.2406 0.0
C2076 C 0.34133 0.08621 0.28192 0.0
H2077 H 0.38079 0.16771 0.26902 0.0
H2078 H 0.35982 0.14463 0.26053 0.0
H2079 H 0.36212 0.09793 0.29821 0.0
H2080 H 0.30338 0.03219 0.271 0.0
H2081 H 0.31647 0.05821 0.28607 0.0
H2082 H 0.31251 0.10891 0.25375 0.0
C2083 C 0.36433 0.14542 0.27509 0.0
C2084 C 0.3511 0.10054 0.28881 0.0
C2085 C 0.37636 0.15868 0.27997 0.0
C2086 C 0.30652 0.04361 0.26231 0.0
C2087 C 0.31401 0.0585 0.27094 0.0
C2088 C 0.32328 0.10635 0.26349 0.0
C2089 C 0.35887 0.13285 0.28858 0.0
C2090 C 0.34729 0.11789 0.28283 0.0
C2091 C 0.31833 0.07356 0.26014 0.0
C2092 C 0.32751 0.08892 0.2689 0.0
H2093 H 0.38215 0.14804 0.32659 0.0
H2094 H 0.36119 0.12478 0.31799 0.0
H2095 H 0.32963 0.13392 0.26573 0.0
H2096 H 0.30503 0.05887 0.21679 0.0
H2097 H 0.31808 0.08476 0.23179 0.0
C2098 C 0.15745 0.6277 0.7062 0.0
C2099 C 0.15385 0.60956 0.70368 0.0
C2100 C 0.14394 0.63947 0.71125 0.0
C2101 C 0.09526 0.64391 0.71172 0.0
H2102 H 0.10314 0.67688 0.75306 0.0
C2103 C 0.03857 0.67277 0.75564 0.0
C2104 C 0.03947 0.69049 0.76168 0.0
C2105 C 0.0528 0.66493 0.74633 0.0
C2106 C 0.10081 0.66798 0.74127 0.0
H2107 H 0.13329 0.58955 0.70491 0.0
H2108 H 0.10986 0.60998 0.71353 0.0
H2109 H 0.12778 0.65939 0.74081 0.0
H2110 H 0.05591 0.714 0.76242 0.0
H2111 H 0.08093 0.70024 0.74599 0.0
H2112 H 0.06824 0.65214 0.71246 0.0
C2113 C 0.12301 0.61521 0.71125 0.0
C2114 C 0.11492 0.65796 0.73426 0.0
C2115 C 0.13647 0.60348 0.70629 0.0
C2116 C 0.05483 0.70033 0.75786 0.0
C2117 C 0.06917 0.69243 0.7486 0.0
C2118 C 0.08119 0.65391 0.71871 0.0
C2119 C 0.12657 0.63332 0.71381 0.0
C2120 C 0.11219 0.64549 0.71973 0.0
C2121 C 0.06832 0.67461 0.74283 0.0
C2122 C 0.08371 0.66573 0.73387 0.0
H2123 H 0.17066 0.63284 0.70411 0.0
H2124 H 0.14705 0.65338 0.713 0.0
H2125 H 0.09282 0.63468 0.70025 0.0
H2126 H 0.02682 0.66492 0.75817 0.0
H2127 H 0.05179 0.65112 0.74229 0.0
C2128 C 0.22784 0.49883 0.57197 0.0
C2129 C 0.22375 0.51588 0.57882 0.0
C2130 C 0.22655 0.49497 0.55263 0.0
C2131 C 0.22986 0.51431 0.50606 0.0
H2132 H 0.20014 0.47565 0.48891 0.0
C2133 C 0.21911 0.50108 0.42636 0.0
C2134 C 0.21746 0.48339 0.42031 0.0
C2135 C 0.21909 0.50528 0.44567 0.0
C2136 C 0.20875 0.4863 0.49341 0.0
H2137 H 0.21488 0.54215 0.5704 0.0
H2138 H 0.21355 0.53553 0.5366 0.0
H2139 H 0.2023 0.48217 0.52271 0.0
H2140 H 0.21406 0.4563 0.4301 0.0
H2141 H 0.2152 0.46346 0.46355 0.0
H2142 H 0.23702 0.51808 0.47706 0.0
C2143 C 0.21762 0.5252 0.54636 0.0
C2144 C 0.20986 0.49008 0.51278 0.0
C2145 C 0.21853 0.52899 0.56572 0.0
C2146 C 0.2157 0.47005 0.43413 0.0
C2147 C 0.21602 0.47421 0.45342 0.0
C2148 C 0.22905 0.51032 0.48673 0.0
C2149 C 0.22152 0.50815 0.53969 0.0
C2150 C 0.22039 0.50413 0.51923 0.0
C2151 C 0.21775 0.49189 0.45949 0.0
C2152 C 0.21845 0.49627 0.48011 0.0
H2153 H 0.23224 0.48846 0.58147 0.0
H2154 H 0.22979 0.48175 0.54773 0.0
H2155 H 0.23818 0.52513 0.51078 0.0
H2156 H 0.22073 0.51174 0.41624 0.0
H2157 H 0.22011 0.51909 0.4497 0.0
C2158 C 0.50859 0.75972 0.42721 0.0
C2159 C 0.51137 0.77588 0.4177 0.0
C2160 C 0.50444 0.75947 0.44652 0.0
C2161 C 0.48577 0.78657 0.4848 0.0
H2162 H 0.51075 0.75409 0.51799 0.0
C2163 C 0.46594 0.77456 0.56308 0.0
C2164 C 0.47982 0.77462 0.57632 0.0
C2165 C 0.46952 0.7747 0.54363 0.0
C2166 C 0.50371 0.76326 0.50889 0.0
H2167 H 0.51203 0.80447 0.42122 0.0
H2168 H 0.50442 0.80398 0.45482 0.0
H2169 H 0.51749 0.75446 0.48409 0.0
H2170 H 0.50829 0.77462 0.57962 0.0
H2171 H 0.51454 0.77481 0.54562 0.0
H2172 H 0.47203 0.7954 0.50963 0.0
C2173 C 0.50538 0.79153 0.44724 0.0
C2174 C 0.50746 0.76337 0.48949 0.0
C2175 C 0.5097 0.79179 0.42797 0.0
C2176 C 0.49734 0.77472 0.56973 0.0
C2177 C 0.50091 0.77467 0.5503 0.0
C2178 C 0.48189 0.78633 0.50418 0.0
C2179 C 0.5028 0.77537 0.45672 0.0
C2180 C 0.49859 0.77508 0.47726 0.0
C2181 C 0.48704 0.7747 0.53705 0.0
C2182 C 0.49089 0.77473 0.51643 0.0
H2183 H 0.50943 0.74723 0.41971 0.0
H2184 H 0.50228 0.74683 0.45342 0.0
H2185 H 0.47864 0.79564 0.47567 0.0
H2186 H 0.45232 0.77461 0.56777 0.0
H2187 H 0.45858 0.7746 0.53372 0.0
C2188 C 0.76255 0.49835 0.4229 0.0
C2189 C 0.76877 0.51493 0.41662 0.0
C2190 C 0.76197 0.49435 0.44226 0.0
C2191 C 0.75936 0.51505 0.48907 0.0
H2192 H 0.77895 0.47084 0.50763 0.0
C2193 C 0.76986 0.50213 0.56883 0.0
C2194 C 0.76744 0.48483 0.57579 0.0
C2195 C 0.76932 0.50554 0.54937 0.0
C2196 C 0.77314 0.48311 0.50269 0.0
H2197 H 0.77962 0.54012 0.42593 0.0
H2198 H 0.77813 0.53326 0.45965 0.0
H2199 H 0.77921 0.47713 0.47369 0.0
H2200 H 0.7624 0.45757 0.56758 0.0
H2201 H 0.76069 0.46365 0.53376 0.0
H2202 H 0.75297 0.52099 0.5179 0.0
C2203 C 0.77362 0.52344 0.44954 0.0
C2204 C 0.77337 0.48673 0.48325 0.0
C2205 C 0.7744 0.52737 0.43021 0.0
C2206 C 0.76413 0.47109 0.56278 0.0
C2207 C 0.76342 0.47454 0.54332 0.0
C2208 C 0.75893 0.51136 0.50848 0.0
C2209 C 0.7674 0.5069 0.45575 0.0
C2210 C 0.76663 0.50279 0.47628 0.0
C2211 C 0.76614 0.49179 0.53634 0.0
C2212 C 0.76596 0.49541 0.51558 0.0
H2213 H 0.75782 0.48854 0.41291 0.0
H2214 H 0.75697 0.48156 0.44669 0.0
H2215 H 0.75385 0.52744 0.48403 0.0
H2216 H 0.77216 0.5131 0.57841 0.0
H2217 H 0.7717 0.51896 0.54455 0.0
C2218 C 0.48584 0.21236 0.43052 0.0
C2219 C 0.48466 0.22803 0.41978 0.0
C2220 C 0.49018 0.21298 0.44977 0.0
C2221 C 0.48914 0.24201 0.49131 0.0
H2222 H 0.52398 0.20951 0.51179 0.0
C2223 C 0.49906 0.23032 0.57162 0.0
C2224 C 0.51656 0.22989 0.57824 0.0
C2225 C 0.49551 0.23081 0.55219 0.0
C2226 C 0.5143 0.21873 0.50624 0.0
H2227 H 0.48738 0.25666 0.42095 0.0
H2228 H 0.49455 0.25771 0.45466 0.0
H2229 H 0.5172 0.20894 0.47788 0.0
H2230 H 0.54407 0.22959 0.56974 0.0
H2231 H 0.53786 0.23034 0.53569 0.0
H2232 H 0.48615 0.2517 0.51969 0.0
C2233 C 0.49203 0.24497 0.44812 0.0
C2234 C 0.51032 0.2183 0.48689 0.0
C2235 C 0.48786 0.24435 0.42882 0.0
C2236 C 0.53046 0.23003 0.56503 0.0
C2237 C 0.52691 0.23032 0.54558 0.0
C2238 C 0.49298 0.2423 0.51069 0.0
C2239 C 0.49328 0.22929 0.45877 0.0
C2240 C 0.49768 0.22992 0.47924 0.0
C2241 C 0.5094 0.23069 0.53897 0.0
C2242 C 0.50558 0.23065 0.51835 0.0
H2243 H 0.48314 0.19958 0.42416 0.0
H2244 H 0.49082 0.2007 0.45771 0.0
H2245 H 0.47926 0.25103 0.4858 0.0
H2246 H 0.4881 0.23036 0.5815 0.0
H2247 H 0.48189 0.23096 0.54748 0.0
C2248 C 0.7371 0.00822 0.07096 0.0
C2249 C 0.72371 0.01841 0.0794 0.0
C2250 C 0.73725 0.00542 0.05137 0.0
C2251 C 0.70823 0.00668 0.00911 0.0
H2252 H 0.75268 0.00615 0.98178 0.0
C2253 C 0.712 0.00241 0.92731 0.0
C2254 C 0.72424 0.99022 0.91997 0.0
C2255 C 0.71205 0.00664 0.94662 0.0
C2256 C 0.74018 0.00615 0.98925 0.0
H2257 H 0.70019 0.03398 0.0739 0.0
H2258 H 0.70054 0.02928 0.03969 0.0
H2259 H 0.75254 0.0121 0.01578 0.0
H2260 H 0.74641 0.97324 0.92696 0.0
H2261 H 0.74646 0.98055 0.96067 0.0
H2262 H 0.6959 0.00079 0.98251 0.0
C2263 C 0.71073 0.02312 0.04823 0.0
C2264 C 0.74009 0.00951 0.00874 0.0
C2265 C 0.71053 0.02584 0.06783 0.0
C2266 C 0.7367 0.98255 0.93225 0.0
C2267 C 0.73684 0.98687 0.95151 0.0
C2268 C 0.70832 0.00342 0.9896 0.0
C2269 C 0.72406 0.01283 0.03976 0.0
C2270 C 0.72412 0.0097 0.01894 0.0
C2271 C 0.72445 0.99887 0.95892 0.0
C2272 C 0.72431 0.003 0.97949 0.0
H2273 H 0.74731 0.00215 0.07956 0.0
H2274 H 0.74754 0.99717 0.04538 0.0
H2275 H 0.69572 0.00645 0.01655 0.0
H2276 H 0.70217 0.00844 0.9182 0.0
H2277 H 0.70243 0.01605 0.95192 0.0
C2278 C 0.01648 0.28968 0.93118 0.0
C2279 C 0.01924 0.27354 0.92165 0.0
C2280 C 0.01261 0.28991 0.95055 0.0
C2281 C 0.01672 0.26362 0.99421 0.0
H2282 H 0.97921 0.29412 0.01263 0.0
C2283 C 0.00435 0.27615 0.07398 0.0
C2284 C 0.9867 0.27555 0.08009 0.0
C2285 C 0.0084 0.27587 0.05464 0.0
C2286 C 0.98966 0.28548 0.00768 0.0
H2287 H 0.01997 0.24496 0.92509 0.0
H2288 H 0.01343 0.24542 0.95896 0.0
H2289 H 0.9861 0.29351 0.9788 0.0
H2290 H 0.95943 0.27446 0.07076 0.0
H2291 H 0.9665 0.27393 0.03696 0.0
H2292 H 0.02019 0.25551 0.02308 0.0
C2293 C 0.01441 0.25789 0.95142 0.0
C2294 C 0.99371 0.28525 0.98835 0.0
C2295 C 0.01819 0.25764 0.93202 0.0
C2296 C 0.97316 0.27479 0.06647 0.0
C2297 C 0.9772 0.27464 0.04713 0.0
C2298 C 0.01275 0.26395 0.01356 0.0
C2299 C 0.01151 0.27403 0.96087 0.0
C2300 C 0.00727 0.2743 0.98141 0.0
C2301 C 0.99487 0.27513 0.04102 0.0
C2302 C -0.00085 0.27486 0.02049 0.0
H2303 H 0.01753 0.30219 0.92374 0.0
H2304 H 0.0107 0.30257 0.95751 0.0
H2305 H 0.02732 0.25516 0.98929 0.0
H2306 H 0.01507 0.27659 0.08415 0.0
H2307 H 0.02213 0.27642 0.05035 0.0
C2308 C 0.2632 0.99692 0.92805 0.0
C2309 C 0.27056 0.01279 0.92113 0.0
C2310 C 0.26344 0.9931 0.94745 0.0
C2311 C 0.26567 0.01411 0.99412 0.0
H2312 H 0.28149 0.96805 0.01165 0.0
C2313 C 0.27661 -0.00053 0.07355 0.0
C2314 C 0.27217 0.98252 0.08036 0.0
C2315 C 0.27646 0.00308 0.05411 0.0
C2316 C 0.27678 0.98089 0.00702 0.0
H2317 H 0.28424 0.03691 0.92934 0.0
H2318 H 0.28418 0.03041 0.96319 0.0
H2319 H 0.28081 0.97441 0.97774 0.0
H2320 H 0.26424 0.95603 0.07187 0.0
H2321 H 0.2632 0.96254 0.03814 0.0
H2322 H 0.26124 0.02054 0.02325 0.0
C2323 C 0.27816 0.021 0.95354 0.0
C2324 C 0.27646 0.98453 0.98759 0.0
C2325 C 0.27812 0.02474 0.93414 0.0
C2326 C 0.2675 0.96931 0.06721 0.0
C2327 C 0.26717 0.97297 0.04779 0.0
C2328 C 0.26579 0.01041 0.01354 0.0
C2329 C 0.27085 0.00514 0.96038 0.0
C2330 C 0.27097 0.00119 0.98096 0.0
C2331 C 0.27168 0.98989 0.04097 0.0
C2332 C 0.27141 0.99378 0.02026 0.0
H2333 H 0.257 0.98754 0.91853 0.0
H2334 H 0.25754 0.98086 0.95238 0.0
H2335 H 0.26117 0.02699 0.98937 0.0
H2336 H 0.28006 0.01005 0.08323 0.0
H2337 H 0.28025 0.0162 0.0494 0.0
C2338 C 0.97811 0.74184 0.93125 0.0
C2339 C 0.97941 0.72608 0.9207 0.0
C2340 C 0.98221 0.74202 0.95058 0.0
C2341 C 0.007 0.71732 0.98708 0.0
H2342 H 0.97736 0.74333 0.02227 0.0
C2343 C 0.0262 0.7274 0.06561 0.0
C2344 C 0.01272 0.72517 0.07911 0.0
C2345 C 0.02223 0.72791 0.04626 0.0
C2346 C 0.98571 0.73592 0.01263 0.0
H2347 H 0.9857 0.69807 0.92233 0.0
H2348 H 0.9929 0.69841 0.95602 0.0
H2349 H 0.97006 0.74316 0.98855 0.0
H2350 H 0.98446 0.72206 0.08288 0.0
H2351 H 0.97756 0.72269 0.0491 0.0
H2352 H 0.02247 0.70981 0.01119 0.0
C2353 C 0.98898 0.71069 0.94927 0.0
C2354 C 0.98164 0.73599 0.99329 0.0
C2355 C 0.98485 0.7105 0.92996 0.0
C2356 C 0.99516 0.7236 0.07283 0.0
C2357 C 0.99119 0.72416 0.05349 0.0
C2358 C 0.0111 0.7173 0.0064 0.0
C2359 C 0.98774 0.72645 0.9598 0.0
C2360 C 0.9922 0.72662 0.98031 0.0
C2361 C 0.00468 0.72627 0.03998 0.0
C2362 C 0.00048 0.72655 0.0194 0.0
H2363 H 0.9742 0.75413 0.9245 0.0
H2364 H 0.98135 0.75443 0.95825 0.0
H2365 H 0.0155 0.71013 0.97742 0.0
H2366 H 0.03987 0.7285 0.06999 0.0
H2367 H 0.03291 0.72972 0.03622 0.0
loop_
_geom_bond_atom_site_label_1
_geom_bond_atom_site_label_2
_geom_bond_distance
_geom_bond_site_symmetry_2
_ccdc_geom_bond_type
Li0 N17 1.990 . S
Li0 O60 1.956 . S
Li0 O61 1.970 . S
Li0 O62 1.961 . S
Li1 N25 1.990 . S
Li1 O60 1.970 . S
Li1 O61 1.956 . S
Li1 O63 1.961 . S
Li2 N47 1.990 . S
Li2 O60 1.961 . S
Li2 O62 1.956 . S
Li2 O63 1.970 . S
Li3 N53 1.990 . S
Li3 O61 1.961 . S
Li3 O62 1.970 . S
Li3 O63 1.956 . S
C4 C6 1.348 . S
C4 C7 1.356 . S
C4 O60 1.325 . S
N5 C8 1.314 . S
N5 C9 1.279 . S
C6 C4 1.348 . S
C6 C8 1.353 . S
C6 H64 0.929 . S
C7 C4 1.356 . S
C7 C9 1.358 . S
C7 H65 0.930 . S
C8 N5 1.314 . S
C8 C6 1.353 . S
C8 H66 0.930 . S
C9 N5 1.279 . S
C9 C7 1.358 . S
C9 H67 0.930 . S
C10 C13 1.348 . S
C10 C14 1.356 . S
C10 O61 1.325 . S
C11 N12 1.279 . S
C11 C14 1.358 . S
C11 H68 0.930 . S
N12 C11 1.279 . S
N12 C15 1.314 . S
C13 C10 1.348 . S
C13 C15 1.353 . S
C13 H69 0.929 . S
C14 C10 1.356 . S
C14 C11 1.358 . S
C14 H70 0.930 . S
C15 N12 1.314 . S
C15 C13 1.353 . S
C15 H71 0.930 . S
C16 N17 1.314 . S
C16 C21 1.353 . S
C16 H22 0.930 . S
N17 Li0 1.990 . S
N17 C16 1.314 . S
N17 C19 1.279 . S
C18 C19 1.358 . S
C18 C20 1.356 . S
C18 H72 0.930 . S
C19 N17 1.279 . S
C19 C18 1.358 . S
C19 H23 0.930 . S
C20 C18 1.356 . S
C20 C21 1.348 . S
C21 C16 1.353 . S
C21 C20 1.348 . S
C21 H73 0.929 . S
H22 C16 0.930 . S
H23 C19 0.930 . S
C24 N25 1.314 . S
C24 C26 1.353 . S
C24 H30 0.930 . S
N25 Li1 1.990 . S
N25 C24 1.314 . S
N25 C28 1.279 . S
C26 C24 1.353 . S
C26 C29 1.348 . S
C26 H74 0.929 . S
C27 C28 1.358 . S
C27 C29 1.356 . S
C27 H75 0.930 . S
C28 N25 1.279 . S
C28 C27 1.358 . S
C28 H31 0.930 . S
C29 C26 1.348 . S
C29 C27 1.356 . S
H30 C24 0.930 . S
H31 C28 0.930 . S
C32 C34 1.348 . S
C32 C35 1.356 . S
C32 O62 1.325 . S
N33 C36 1.314 . S
N33 C37 1.279 . S
C34 C32 1.348 . S
C34 C36 1.353 . S
C34 H76 0.929 . S
C35 C32 1.356 . S
C35 C37 1.358 . S
C35 H77 0.930 . S
C36 N33 1.314 . S
C36 C34 1.353 . S
C36 H78 0.930 . S
C37 N33 1.279 . S
C37 C35 1.358 . S
C37 H79 0.930 . S
C38 C39 1.348 . S
C38 C40 1.356 . S
C38 O63 1.325 . S
C39 C38 1.348 . S
C39 C41 1.353 . S
C39 H80 0.929 . S
C40 C38 1.356 . S
C40 C42 1.358 . S
C40 H81 0.930 . S
C41 C39 1.353 . S
C41 N43 1.314 . S
C41 H82 0.930 . S
C42 C40 1.358 . S
C42 N43 1.279 . S
C42 H83 0.930 . S
N43 C41 1.314 . S
N43 C42 1.279 . S
C44 C46 1.353 . S
C44 N47 1.314 . S
C44 H50 0.930 . S
C45 N47 1.279 . S
C45 C48 1.358 . S
C45 H51 0.930 . S
C46 C44 1.353 . S
C46 C49 1.348 . S
C46 H84 0.929 . S
N47 Li2 1.990 . S
N47 C44 1.314 . S
N47 C45 1.279 . S
C48 C45 1.358 . S
C48 C49 1.356 . S
C48 H85 0.930 . S
C49 C46 1.348 . S
C49 C48 1.356 . S
H50 C44 0.930 . S
H51 C45 0.930 . S
C52 N53 1.314 . S
C52 C54 1.353 . S
C52 H58 0.930 . S
N53 Li3 1.990 . S
N53 C52 1.314 . S
N53 C56 1.279 . S
C54 C52 1.353 . S
C54 C57 1.348 . S
C54 H86 0.929 . S
C55 C56 1.358 . S
C55 C57 1.356 . S
C55 H87 0.930 . S
C56 N53 1.279 . S
C56 C55 1.358 . S
C56 H59 0.930 . S
C57 C54 1.348 . S
C57 C55 1.356 . S
H58 C52 0.930 . S
H59 C56 0.930 . S
O60 Li0 1.956 . S
O60 Li1 1.970 . S
O60 Li2 1.961 . S
O60 C4 1.325 . S
O61 Li0 1.970 . S
O61 Li1 1.956 . S
O61 Li3 1.961 . S
O61 C10 1.325 . S
O62 Li0 1.961 . S
O62 Li2 1.956 . S
O62 Li3 1.970 . S
O62 C32 1.325 . S
O63 Li1 1.961 . S
O63 Li2 1.970 . S
O63 Li3 1.956 . S
O63 C38 1.325 . S
H64 C6 0.929 . S
H65 C7 0.930 . S
H66 C8 0.930 . S
H67 C9 0.930 . S
H68 C11 0.930 . S
H69 C13 0.929 . S
H70 C14 0.930 . S
H71 C15 0.930 . S
H72 C18 0.930 . S
H73 C21 0.929 . S
H74 C26 0.929 . S
H75 C27 0.930 . S
H76 C34 0.929 . S
H77 C35 0.930 . S
H78 C36 0.930 . S
H79 C37 0.930 . S
H80 C39 0.929 . S
H81 C40 0.930 . S
H82 C41 0.930 . S
H83 C42 0.930 . S
H84 C46 0.929 . S
H85 C48 0.930 . S
H86 C54 0.929 . S
H87 C55 0.930 . S
Li88 N105 1.990 . S
Li88 O148 1.956 . S
Li88 O149 1.970 . S
Li88 O150 1.961 . S
Li89 N113 1.990 . S
Li89 O148 1.970 . S
Li89 O149 1.956 . S
Li89 O151 1.961 . S
Li90 N135 1.990 . S
Li90 O148 1.961 . S
Li90 O150 1.956 . S
Li90 O151 1.970 . S
Li91 N141 1.990 . S
Li91 O149 1.961 . S
Li91 O150 1.970 . S
Li91 O151 1.956 . S
C92 C94 1.348 . S
C92 C95 1.356 . S
C92 O148 1.325 . S
N93 C96 1.314 . S
N93 C97 1.279 . S
C94 C92 1.348 . S
C94 C96 1.353 . S
C94 H152 0.929 . S
C95 C92 1.356 . S
C95 C97 1.358 . S
C95 H153 0.930 . S
C96 N93 1.314 . S
C96 C94 1.353 . S
C96 H154 0.930 . S
C97 N93 1.279 . S
C97 C95 1.358 . S
C97 H155 0.930 . S
C98 C101 1.348 . S
C98 C102 1.356 . S
C98 O149 1.325 . S
C99 N100 1.279 . S
C99 C102 1.358 . S
C99 H156 0.930 . S
N100 C99 1.279 . S
N100 C103 1.314 . S
C101 C98 1.348 . S
C101 C103 1.353 . S
C101 H157 0.929 . S
C102 C98 1.356 . S
C102 C99 1.358 . S
C102 H158 0.930 . S
C103 N100 1.314 . S
C103 C101 1.353 . S
C103 H159 0.930 . S
C104 N105 1.314 . S
C104 C109 1.353 . S
C104 H110 0.930 . S
N105 Li88 1.990 . S
N105 C104 1.314 . S
N105 C107 1.279 . S
C106 C107 1.358 . S
C106 C108 1.356 . S
C106 H160 0.930 . S
C107 N105 1.279 . S
C107 C106 1.358 . S
C107 H111 0.930 . S
C108 C106 1.356 . S
C108 C109 1.348 . S
C109 C104 1.353 . S
C109 C108 1.348 . S
C109 H161 0.929 . S
H110 C104 0.930 . S
H111 C107 0.930 . S
C112 N113 1.314 . S
C112 C114 1.353 . S
C112 H118 0.930 . S
N113 Li89 1.990 . S
N113 C112 1.314 . S
N113 C116 1.279 . S
C114 C112 1.353 . S
C114 C117 1.348 . S
C114 H162 0.929 . S
C115 C116 1.358 . S
C115 C117 1.356 . S
C115 H163 0.930 . S
C116 N113 1.279 . S
C116 C115 1.358 . S
C116 H119 0.930 . S
C117 C114 1.348 . S
C117 C115 1.356 . S
H118 C112 0.930 . S
H119 C116 0.930 . S
C120 C122 1.348 . S
C120 C123 1.356 . S
C120 O150 1.325 . S
N121 C124 1.314 . S
N121 C125 1.279 . S
C122 C120 1.348 . S
C122 C124 1.353 . S
C122 H164 0.929 . S
C123 C120 1.356 . S
C123 C125 1.358 . S
C123 H165 0.930 . S
C124 N121 1.314 . S
C124 C122 1.353 . S
C124 H166 0.930 . S
C125 N121 1.279 . S
C125 C123 1.358 . S
C125 H167 0.930 . S
C126 C127 1.348 . S
C126 C128 1.356 . S
C126 O151 1.325 . S
C127 C126 1.348 . S
C127 C129 1.353 . S
C127 H168 0.929 . S
C128 C126 1.356 . S
C128 C130 1.358 . S
C128 H169 0.930 . S
C129 C127 1.353 . S
C129 N131 1.314 . S
C129 H170 0.930 . S
C130 C128 1.358 . S
C130 N131 1.279 . S
C130 H171 0.930 . S
N131 C129 1.314 . S
N131 C130 1.279 . S
C132 C134 1.353 . S
C132 N135 1.314 . S
C132 H138 0.930 . S
C133 N135 1.279 . S
C133 C136 1.358 . S
C133 H139 0.930 . S
C134 C132 1.353 . S
C134 C137 1.348 . S
C134 H172 0.929 . S
N135 Li90 1.990 . S
N135 C132 1.314 . S
N135 C133 1.279 . S
C136 C133 1.358 . S
C136 C137 1.356 . S
C136 H173 0.930 . S
C137 C134 1.348 . S
C137 C136 1.356 . S
H138 C132 0.930 . S
H139 C133 0.930 . S
C140 N141 1.314 . S
C140 C142 1.353 . S
C140 H146 0.930 . S
N141 Li91 1.990 . S
N141 C140 1.314 . S
N141 C144 1.279 . S
C142 C140 1.353 . S
C142 C145 1.348 . S
C142 H174 0.929 . S
C143 C144 1.358 . S
C143 C145 1.356 . S
C143 H175 0.930 . S
C144 N141 1.279 . S
C144 C143 1.358 . S
C144 H147 0.930 . S
C145 C142 1.348 . S
C145 C143 1.356 . S
H146 C140 0.930 . S
H147 C144 0.930 . S
O148 Li88 1.956 . S
O148 Li89 1.970 . S
O148 Li90 1.961 . S
O148 C92 1.325 . S
O149 Li88 1.970 . S
O149 Li89 1.956 . S
O149 Li91 1.961 . S
O149 C98 1.325 . S
O150 Li88 1.961 . S
O150 Li90 1.956 . S
O150 Li91 1.970 . S
O150 C120 1.325 . S
O151 Li89 1.961 . S
O151 Li90 1.970 . S
O151 Li91 1.956 . S
O151 C126 1.325 . S
H152 C94 0.929 . S
H153 C95 0.930 . S
H154 C96 0.930 . S
H155 C97 0.930 . S
H156 C99 0.930 . S
H157 C101 0.929 . S
H158 C102 0.930 . S
H159 C103 0.930 . S
H160 C106 0.930 . S
H161 C109 0.929 . S
H162 C114 0.929 . S
H163 C115 0.930 . S
H164 C122 0.929 . S
H165 C123 0.930 . S
H166 C124 0.930 . S
H167 C125 0.930 . S
H168 C127 0.929 . S
H169 C128 0.930 . S
H170 C129 0.930 . S
H171 C130 0.930 . S
H172 C134 0.929 . S
H173 C136 0.930 . S
H174 C142 0.929 . S
H175 C143 0.930 . S
Li176 N193 1.990 . S
Li176 O236 1.956 . S
Li176 O237 1.970 . S
Li176 O238 1.961 . S
Li177 N201 1.990 . S
Li177 O236 1.970 . S
Li177 O237 1.956 . S
Li177 O239 1.961 . S
Li178 N223 1.990 . S
Li178 O236 1.961 . S
Li178 O238 1.956 . S
Li178 O239 1.970 . S
Li179 N229 1.990 . S
Li179 O237 1.961 . S
Li179 O238 1.970 . S
Li179 O239 1.956 . S
C180 C182 1.348 . S
C180 C183 1.356 . S
C180 O236 1.325 . S
N181 C184 1.314 . S
N181 C185 1.279 . S
C182 C180 1.348 . S
C182 C184 1.353 . S
C182 H240 0.929 . S
C183 C180 1.356 . S
C183 C185 1.358 . S
C183 H241 0.930 . S
C184 N181 1.314 . S
C184 C182 1.353 . S
C184 H242 0.930 . S
C185 N181 1.279 . S
C185 C183 1.358 . S
C185 H243 0.930 . S
C186 C189 1.348 . S
C186 C190 1.356 . S
C186 O237 1.325 . S
C187 N188 1.279 . S
C187 C190 1.358 . S
C187 H244 0.930 . S
N188 C187 1.279 . S
N188 C191 1.314 . S
C189 C186 1.348 . S
C189 C191 1.353 . S
C189 H245 0.929 . S
C190 C186 1.356 . S
C190 C187 1.358 . S
C190 H246 0.930 . S
C191 N188 1.314 . S
C191 C189 1.353 . S
C191 H247 0.930 . S
C192 N193 1.314 . S
C192 C197 1.353 . S
C192 H198 0.930 . S
N193 Li176 1.990 . S
N193 C192 1.314 . S
N193 C195 1.279 . S
C194 C195 1.358 . S
C194 C196 1.356 . S
C194 H248 0.930 . S
C195 N193 1.279 . S
C195 C194 1.358 . S
C195 H199 0.930 . S
C196 C194 1.356 . S
C196 C197 1.348 . S
C197 C192 1.353 . S
C197 C196 1.348 . S
C197 H249 0.929 . S
H198 C192 0.930 . S
H199 C195 0.930 . S
C200 N201 1.314 . S
C200 C202 1.353 . S
C200 H206 0.930 . S
N201 Li177 1.990 . S
N201 C200 1.314 . S
N201 C204 1.279 . S
C202 C200 1.353 . S
C202 C205 1.348 . S
C202 H250 0.929 . S
C203 C204 1.358 . S
C203 C205 1.356 . S
C203 H251 0.930 . S
C204 N201 1.279 . S
C204 C203 1.358 . S
C204 H207 0.930 . S
C205 C202 1.348 . S
C205 C203 1.356 . S
H206 C200 0.930 . S
H207 C204 0.930 . S
C208 C210 1.348 . S
C208 C211 1.356 . S
C208 O238 1.325 . S
N209 C212 1.314 . S
N209 C213 1.279 . S
C210 C208 1.348 . S
C210 C212 1.353 . S
C210 H252 0.929 . S
C211 C208 1.356 . S
C211 C213 1.358 . S
C211 H253 0.930 . S
C212 N209 1.314 . S
C212 C210 1.353 . S
C212 H254 0.930 . S
C213 N209 1.279 . S
C213 C211 1.358 . S
C213 H255 0.930 . S
C214 C215 1.348 . S
C214 C216 1.356 . S
C214 O239 1.325 . S
C215 C214 1.348 . S
C215 C217 1.353 . S
C215 H256 0.929 . S
C216 C214 1.356 . S
C216 C218 1.358 . S
C216 H257 0.930 . S
C217 C215 1.353 . S
C217 N219 1.314 . S
C217 H258 0.930 . S
C218 C216 1.358 . S
C218 N219 1.279 . S
C218 H259 0.930 . S
N219 C217 1.314 . S
N219 C218 1.279 . S
C220 C222 1.353 . S
C220 N223 1.314 . S
C220 H226 0.930 . S
C221 N223 1.279 . S
C221 C224 1.358 . S
C221 H227 0.930 . S
C222 C220 1.353 . S
C222 C225 1.348 . S
C222 H260 0.929 . S
N223 Li178 1.990 . S
N223 C220 1.314 . S
N223 C221 1.279 . S
C224 C221 1.358 . S
C224 C225 1.356 . S
C224 H261 0.930 . S
C225 C222 1.348 . S
C225 C224 1.356 . S
H226 C220 0.930 . S
H227 C221 0.930 . S
C228 N229 1.314 . S
C228 C230 1.353 . S
C228 H234 0.930 . S
N229 Li179 1.990 . S
N229 C228 1.314 . S
N229 C232 1.279 . S
C230 C228 1.353 . S
C230 C233 1.348 . S
C230 H262 0.929 . S
C231 C232 1.358 . S
C231 C233 1.356 . S
C231 H263 0.930 . S
C232 N229 1.279 . S
C232 C231 1.358 . S
C232 H235 0.930 . S
C233 C230 1.348 . S
C233 C231 1.356 . S
H234 C228 0.930 . S
H235 C232 0.930 . S
O236 Li176 1.956 . S
O236 Li177 1.970 . S
O236 Li178 1.961 . S
O236 C180 1.325 . S
O237 Li176 1.970 . S
O237 Li177 1.956 . S
O237 Li179 1.961 . S
O237 C186 1.325 . S
O238 Li176 1.961 . S
O238 Li178 1.956 . S
O238 Li179 1.970 . S
O238 C208 1.325 . S
O239 Li177 1.961 . S
O239 Li178 1.970 . S
O239 Li179 1.956 . S
O239 C214 1.325 . S
H240 C182 0.929 . S
H241 C183 0.930 . S
H242 C184 0.930 . S
H243 C185 0.930 . S
H244 C187 0.930 . S
H245 C189 0.929 . S
H246 C190 0.930 . S
H247 C191 0.930 . S
H248 C194 0.930 . S
H249 C197 0.929 . S
H250 C202 0.929 . S
H251 C203 0.930 . S
H252 C210 0.929 . S
H253 C211 0.930 . S
H254 C212 0.930 . S
H255 C213 0.930 . S
H256 C215 0.929 . S
H257 C216 0.930 . S
H258 C217 0.930 . S
H259 C218 0.930 . S
H260 C222 0.929 . S
H261 C224 0.930 . S
H262 C230 0.929 . S
H263 C231 0.930 . S
Li264 N281 1.990 . S
Li264 O324 1.956 . S
Li264 O325 1.970 . S
Li264 O326 1.961 . S
Li265 N289 1.990 . S
Li265 O324 1.970 . S
Li265 O325 1.956 . S
Li265 O327 1.961 . S
Li266 N311 1.990 . S
Li266 O324 1.961 . S
Li266 O326 1.956 . S
Li266 O327 1.970 . S
Li267 N317 1.990 . S
Li267 O325 1.961 . S
Li267 O326 1.970 . S
Li267 O327 1.956 . S
C268 C270 1.348 . S
C268 C271 1.356 . S
C268 O324 1.325 . S
N269 C272 1.314 . S
N269 C273 1.279 . S
C270 C268 1.348 . S
C270 C272 1.353 . S
C270 H328 0.929 . S
C271 C268 1.356 . S
C271 C273 1.358 . S
C271 H329 0.930 . S
C272 N269 1.314 . S
C272 C270 1.353 . S
C272 H330 0.930 . S
C273 N269 1.279 . S
C273 C271 1.358 . S
C273 H331 0.930 . S
C274 C277 1.348 . S
C274 C278 1.356 . S
C274 O325 1.325 . S
C275 N276 1.279 . S
C275 C278 1.358 . S
C275 H332 0.930 . S
N276 C275 1.279 . S
N276 C279 1.314 . S
C277 C274 1.348 . S
C277 C279 1.353 . S
C277 H333 0.929 . S
C278 C274 1.356 . S
C278 C275 1.358 . S
C278 H334 0.930 . S
C279 N276 1.314 . S
C279 C277 1.353 . S
C279 H335 0.930 . S
C280 N281 1.314 . S
C280 C285 1.353 . S
C280 H286 0.930 . S
N281 Li264 1.990 . S
N281 C280 1.314 . S
N281 C283 1.279 . S
C282 C283 1.358 . S
C282 C284 1.356 . S
C282 H336 0.930 . S
C283 N281 1.279 . S
C283 C282 1.358 . S
C283 H287 0.930 . S
C284 C282 1.356 . S
C284 C285 1.348 . S
C285 C280 1.353 . S
C285 C284 1.348 . S
C285 H337 0.929 . S
H286 C280 0.930 . S
H287 C283 0.930 . S
C288 N289 1.314 . S
C288 C290 1.353 . S
C288 H294 0.930 . S
N289 Li265 1.990 . S
N289 C288 1.314 . S
N289 C292 1.279 . S
C290 C288 1.353 . S
C290 C293 1.348 . S
C290 H338 0.929 . S
C291 C292 1.358 . S
C291 C293 1.356 . S
C291 H339 0.930 . S
C292 N289 1.279 . S
C292 C291 1.358 . S
C292 H295 0.930 . S
C293 C290 1.348 . S
C293 C291 1.356 . S
H294 C288 0.930 . S
H295 C292 0.930 . S
C296 C298 1.348 . S
C296 C299 1.356 . S
C296 O326 1.325 . S
N297 C300 1.314 . S
N297 C301 1.279 . S
C298 C296 1.348 . S
C298 C300 1.353 . S
C298 H340 0.929 . S
C299 C296 1.356 . S
C299 C301 1.358 . S
C299 H341 0.930 . S
C300 N297 1.314 . S
C300 C298 1.353 . S
C300 H342 0.930 . S
C301 N297 1.279 . S
C301 C299 1.358 . S
C301 H343 0.930 . S
C302 C303 1.348 . S
C302 C304 1.356 . S
C302 O327 1.325 . S
C303 C302 1.348 . S
C303 C305 1.353 . S
C303 H344 0.929 . S
C304 C302 1.356 . S
C304 C306 1.358 . S
C304 H345 0.930 . S
C305 C303 1.353 . S
C305 N307 1.314 . S
C305 H346 0.930 . S
C306 C304 1.358 . S
C306 N307 1.279 . S
C306 H347 0.930 . S
N307 C305 1.314 . S
N307 C306 1.279 . S
C308 C310 1.353 . S
C308 N311 1.314 . S
C308 H314 0.930 . S
C309 N311 1.279 . S
C309 C312 1.358 . S
C309 H315 0.930 . S
C310 C308 1.353 . S
C310 C313 1.348 . S
C310 H348 0.929 . S
N311 Li266 1.990 . S
N311 C308 1.314 . S
N311 C309 1.279 . S
C312 C309 1.358 . S
C312 C313 1.356 . S
C312 H349 0.930 . S
C313 C310 1.348 . S
C313 C312 1.356 . S
H314 C308 0.930 . S
H315 C309 0.930 . S
C316 N317 1.314 . S
C316 C318 1.353 . S
C316 H322 0.930 . S
N317 Li267 1.990 . S
N317 C316 1.314 . S
N317 C320 1.279 . S
C318 C316 1.353 . S
C318 C321 1.348 . S
C318 H350 0.929 . S
C319 C320 1.358 . S
C319 C321 1.356 . S
C319 H351 0.930 . S
C320 N317 1.279 . S
C320 C319 1.358 . S
C320 H323 0.930 . S
C321 C318 1.348 . S
C321 C319 1.356 . S
H322 C316 0.930 . S
H323 C320 0.930 . S
O324 Li264 1.956 . S
O324 Li265 1.970 . S
O324 Li266 1.961 . S
O324 C268 1.325 . S
O325 Li264 1.970 . S
O325 Li265 1.956 . S
O325 Li267 1.961 . S
O325 C274 1.325 . S
O326 Li264 1.961 . S
O326 Li266 1.956 . S
O326 Li267 1.970 . S
O326 C296 1.325 . S
O327 Li265 1.961 . S
O327 Li266 1.970 . S
O327 Li267 1.956 . S
O327 C302 1.325 . S
H328 C270 0.929 . S
H329 C271 0.930 . S
H330 C272 0.930 . S
H331 C273 0.930 . S
H332 C275 0.930 . S
H333 C277 0.929 . S
H334 C278 0.930 . S
H335 C279 0.930 . S
H336 C282 0.930 . S
H337 C285 0.929 . S
H338 C290 0.929 . S
H339 C291 0.930 . S
H340 C298 0.929 . S
H341 C299 0.930 . S
H342 C300 0.930 . S
H343 C301 0.930 . S
H344 C303 0.929 . S
H345 C304 0.930 . S
H346 C305 0.930 . S
H347 C306 0.930 . S
H348 C310 0.929 . S
H349 C312 0.930 . S
H350 C318 0.929 . S
H351 C319 0.930 . S
Li352 N369 1.990 . S
Li352 O412 1.956 . S
Li352 O413 1.970 . S
Li352 O414 1.961 . S
Li353 N377 1.990 . S
Li353 O412 1.970 . S
Li353 O413 1.956 . S
Li353 O415 1.961 . S
Li354 N399 1.990 . S
Li354 O412 1.961 . S
Li354 O414 1.956 . S
Li354 O415 1.970 . S
Li355 N405 1.990 . S
Li355 O413 1.961 . S
Li355 O414 1.970 . S
Li355 O415 1.956 . S
C356 C358 1.348 . S
C356 C359 1.356 . S
C356 O412 1.325 . S
N357 C360 1.314 . S
N357 C361 1.279 . S
C358 C356 1.348 . S
C358 C360 1.353 . S
C358 H416 0.929 . S
C359 C356 1.356 . S
C359 C361 1.358 . S
C359 H417 0.930 . S
C360 N357 1.314 . S
C360 C358 1.353 . S
C360 H418 0.930 . S
C361 N357 1.279 . S
C361 C359 1.358 . S
C361 H419 0.930 . S
C362 C365 1.348 . S
C362 C366 1.356 . S
C362 O413 1.325 . S
C363 N364 1.279 . S
C363 C366 1.358 . S
C363 H420 0.930 . S
N364 C363 1.279 . S
N364 C367 1.314 . S
C365 C362 1.348 . S
C365 C367 1.353 . S
C365 H421 0.929 . S
C366 C362 1.356 . S
C366 C363 1.358 . S
C366 H422 0.930 . S
C367 N364 1.314 . S
C367 C365 1.353 . S
C367 H423 0.930 . S
C368 N369 1.314 . S
C368 C373 1.353 . S
C368 H374 0.930 . S
N369 Li352 1.990 . S
N369 C368 1.314 . S
N369 C371 1.279 . S
C370 C371 1.358 . S
C370 C372 1.356 . S
C370 H424 0.930 . S
C371 N369 1.279 . S
C371 C370 1.358 . S
C371 H375 0.930 . S
C372 C370 1.356 . S
C372 C373 1.348 . S
C373 C368 1.353 . S
C373 C372 1.348 . S
C373 H425 0.929 . S
H374 C368 0.930 . S
H375 C371 0.930 . S
C376 N377 1.314 . S
C376 C378 1.353 . S
C376 H382 0.930 . S
N377 Li353 1.990 . S
N377 C376 1.314 . S
N377 C380 1.279 . S
C378 C376 1.353 . S
C378 C381 1.348 . S
C378 H426 0.929 . S
C379 C380 1.358 . S
C379 C381 1.356 . S
C379 H427 0.930 . S
C380 N377 1.279 . S
C380 C379 1.358 . S
C380 H383 0.930 . S
C381 C378 1.348 . S
C381 C379 1.356 . S
H382 C376 0.930 . S
H383 C380 0.930 . S
C384 C386 1.348 . S
C384 C387 1.356 . S
C384 O414 1.325 . S
N385 C388 1.314 . S
N385 C389 1.279 . S
C386 C384 1.348 . S
C386 C388 1.353 . S
C386 H428 0.929 . S
C387 C384 1.356 . S
C387 C389 1.358 . S
C387 H429 0.930 . S
C388 N385 1.314 . S
C388 C386 1.353 . S
C388 H430 0.930 . S
C389 N385 1.279 . S
C389 C387 1.358 . S
C389 H431 0.930 . S
C390 C391 1.348 . S
C390 C392 1.356 . S
C390 O415 1.325 . S
C391 C390 1.348 . S
C391 C393 1.353 . S
C391 H432 0.929 . S
C392 C390 1.356 . S
C392 C394 1.358 . S
C392 H433 0.930 . S
C393 C391 1.353 . S
C393 N395 1.314 . S
C393 H434 0.930 . S
C394 C392 1.358 . S
C394 N395 1.279 . S
C394 H435 0.930 . S
N395 C393 1.314 . S
N395 C394 1.279 . S
C396 C398 1.353 . S
C396 N399 1.314 . S
C396 H402 0.930 . S
C397 N399 1.279 . S
C397 C400 1.358 . S
C397 H403 0.930 . S
C398 C396 1.353 . S
C398 C401 1.348 . S
C398 H436 0.929 . S
N399 Li354 1.990 . S
N399 C396 1.314 . S
N399 C397 1.279 . S
C400 C397 1.358 . S
C400 C401 1.356 . S
C400 H437 0.930 . S
C401 C398 1.348 . S
C401 C400 1.356 . S
H402 C396 0.930 . S
H403 C397 0.930 . S
C404 N405 1.314 . S
C404 C406 1.353 . S
C404 H410 0.930 . S
N405 Li355 1.990 . S
N405 C404 1.314 . S
N405 C408 1.279 . S
C406 C404 1.353 . S
C406 C409 1.348 . S
C406 H438 0.929 . S
C407 C408 1.358 . S
C407 C409 1.356 . S
C407 H439 0.930 . S
C408 N405 1.279 . S
C408 C407 1.358 . S
C408 H411 0.930 . S
C409 C406 1.348 . S
C409 C407 1.356 . S
H410 C404 0.930 . S
H411 C408 0.930 . S
O412 Li352 1.956 . S
O412 Li353 1.970 . S
O412 Li354 1.961 . S
O412 C356 1.325 . S
O413 Li352 1.970 . S
O413 Li353 1.956 . S
O413 Li355 1.961 . S
O413 C362 1.325 . S
O414 Li352 1.961 . S
O414 Li354 1.956 . S
O414 Li355 1.970 . S
O414 C384 1.325 . S
O415 Li353 1.961 . S
O415 Li354 1.970 . S
O415 Li355 1.956 . S
O415 C390 1.325 . S
H416 C358 0.929 . S
H417 C359 0.930 . S
H418 C360 0.930 . S
H419 C361 0.930 . S
H420 C363 0.930 . S
H421 C365 0.929 . S
H422 C366 0.930 . S
H423 C367 0.930 . S
H424 C370 0.930 . S
H425 C373 0.929 . S
H426 C378 0.929 . S
H427 C379 0.930 . S
H428 C386 0.929 . S
H429 C387 0.930 . S
H430 C388 0.930 . S
H431 C389 0.930 . S
H432 C391 0.929 . S
H433 C392 0.930 . S
H434 C393 0.930 . S
H435 C394 0.930 . S
H436 C398 0.929 . S
H437 C400 0.930 . S
H438 C406 0.929 . S
H439 C407 0.930 . S
Li440 N457 1.990 . S
Li440 O500 1.956 . S
Li440 O501 1.970 . S
Li440 O502 1.961 . S
Li441 N465 1.990 . S
Li441 O500 1.970 . S
Li441 O501 1.956 . S
Li441 O503 1.961 . S
Li442 N487 1.990 . S
Li442 O500 1.961 . S
Li442 O502 1.956 . S
Li442 O503 1.970 . S
Li443 N493 1.990 . S
Li443 O501 1.961 . S
Li443 O502 1.970 . S
Li443 O503 1.956 . S
C444 C446 1.348 . S
C444 C447 1.356 . S
C444 O500 1.325 . S
N445 C448 1.314 . S
N445 C449 1.279 . S
C446 C444 1.348 . S
C446 C448 1.353 . S
C446 H504 0.929 . S
C447 C444 1.356 . S
C447 C449 1.358 . S
C447 H505 0.930 . S
C448 N445 1.314 . S
C448 C446 1.353 . S
C448 H506 0.930 . S
C449 N445 1.279 . S
C449 C447 1.358 . S
C449 H507 0.930 . S
C450 C453 1.348 . S
C450 C454 1.356 . S
C450 O501 1.325 . S
C451 N452 1.279 . S
C451 C454 1.358 . S
C451 H508 0.930 . S
N452 C451 1.279 . S
N452 C455 1.314 . S
C453 C450 1.348 . S
C453 C455 1.353 . S
C453 H509 0.929 . S
C454 C450 1.356 . S
C454 C451 1.358 . S
C454 H510 0.930 . S
C455 N452 1.314 . S
C455 C453 1.353 . S
C455 H511 0.930 . S
C456 N457 1.314 . S
C456 C461 1.353 . S
C456 H462 0.930 . S
N457 Li440 1.990 . S
N457 C456 1.314 . S
N457 C459 1.279 . S
C458 C459 1.358 . S
C458 C460 1.356 . S
C458 H512 0.930 . S
C459 N457 1.279 . S
C459 C458 1.358 . S
C459 H463 0.930 . S
C460 C458 1.356 . S
C460 C461 1.348 . S
C461 C456 1.353 . S
C461 C460 1.348 . S
C461 H513 0.929 . S
H462 C456 0.930 . S
H463 C459 0.930 . S
C464 N465 1.314 . S
C464 C466 1.353 . S
C464 H470 0.930 . S
N465 Li441 1.990 . S
N465 C464 1.314 . S
N465 C468 1.279 . S
C466 C464 1.353 . S
C466 C469 1.348 . S
C466 H514 0.929 . S
C467 C468 1.358 . S
C467 C469 1.356 . S
C467 H515 0.930 . S
C468 N465 1.279 . S
C468 C467 1.358 . S
C468 H471 0.930 . S
C469 C466 1.348 . S
C469 C467 1.356 . S
H470 C464 0.930 . S
H471 C468 0.930 . S
C472 C474 1.348 . S
C472 C475 1.356 . S
C472 O502 1.325 . S
N473 C476 1.314 . S
N473 C477 1.279 . S
C474 C472 1.348 . S
C474 C476 1.353 . S
C474 H516 0.929 . S
C475 C472 1.356 . S
C475 C477 1.358 . S
C475 H517 0.930 . S
C476 N473 1.314 . S
C476 C474 1.353 . S
C476 H518 0.930 . S
C477 N473 1.279 . S
C477 C475 1.358 . S
C477 H519 0.930 . S
C478 C479 1.348 . S
C478 C480 1.356 . S
C478 O503 1.325 . S
C479 C478 1.348 . S
C479 C481 1.353 . S
C479 H520 0.929 . S
C480 C478 1.356 . S
C480 C482 1.358 . S
C480 H521 0.930 . S
C481 C479 1.353 . S
C481 N483 1.314 . S
C481 H522 0.930 . S
C482 C480 1.358 . S
C482 N483 1.279 . S
C482 H523 0.930 . S
N483 C481 1.314 . S
N483 C482 1.279 . S
C484 C486 1.353 . S
C484 N487 1.314 . S
C484 H490 0.930 . S
C485 N487 1.279 . S
C485 C488 1.358 . S
C485 H491 0.930 . S
C486 C484 1.353 . S
C486 C489 1.348 . S
C486 H524 0.929 . S
N487 Li442 1.990 . S
N487 C484 1.314 . S
N487 C485 1.279 . S
C488 C485 1.358 . S
C488 C489 1.356 . S
C488 H525 0.930 . S
C489 C486 1.348 . S
C489 C488 1.356 . S
H490 C484 0.930 . S
H491 C485 0.930 . S
C492 N493 1.314 . S
C492 C494 1.353 . S
C492 H498 0.930 . S
N493 Li443 1.990 . S
N493 C492 1.314 . S
N493 C496 1.279 . S
C494 C492 1.353 . S
C494 C497 1.348 . S
C494 H526 0.929 . S
C495 C496 1.358 . S
C495 C497 1.356 . S
C495 H527 0.930 . S
C496 N493 1.279 . S
C496 C495 1.358 . S
C496 H499 0.930 . S
C497 C494 1.348 . S
C497 C495 1.356 . S
H498 C492 0.930 . S
H499 C496 0.930 . S
O500 Li440 1.956 . S
O500 Li441 1.970 . S
O500 Li442 1.961 . S
O500 C444 1.325 . S
O501 Li440 1.970 . S
O501 Li441 1.956 . S
O501 Li443 1.961 . S
O501 C450 1.325 . S
O502 Li440 1.961 . S
O502 Li442 1.956 . S
O502 Li443 1.970 . S
O502 C472 1.325 . S
O503 Li441 1.961 . S
O503 Li442 1.970 . S
O503 Li443 1.956 . S
O503 C478 1.325 . S
H504 C446 0.929 . S
H505 C447 0.930 . S
H506 C448 0.930 . S
H507 C449 0.930 . S
H508 C451 0.930 . S
H509 C453 0.929 . S
H510 C454 0.930 . S
H511 C455 0.930 . S
H512 C458 0.930 . S
H513 C461 0.929 . S
H514 C466 0.929 . S
H515 C467 0.930 . S
H516 C474 0.929 . S
H517 C475 0.930 . S
H518 C476 0.930 . S
H519 C477 0.930 . S
H520 C479 0.929 . S
H521 C480 0.930 . S
H522 C481 0.930 . S
H523 C482 0.930 . S
H524 C486 0.929 . S
H525 C488 0.930 . S
H526 C494 0.929 . S
H527 C495 0.930 . S
Li528 N545 1.990 . S
Li528 O588 1.956 . S
Li528 O589 1.970 . S
Li528 O590 1.961 . S
Li529 N553 1.990 . S
Li529 O588 1.970 . S
Li529 O589 1.956 . S
Li529 O591 1.961 . S
Li530 N575 1.990 . S
Li530 O588 1.961 . S
Li530 O590 1.956 . S
Li530 O591 1.970 . S
Li531 N581 1.990 . S
Li531 O589 1.961 . S
Li531 O590 1.970 . S
Li531 O591 1.956 . S
C532 C534 1.348 . S
C532 C535 1.356 . S
C532 O588 1.325 . S
N533 C536 1.314 . S
N533 C537 1.279 . S
C534 C532 1.348 . S
C534 C536 1.353 . S
C534 H592 0.929 . S
C535 C532 1.356 . S
C535 C537 1.358 . S
C535 H593 0.930 . S
C536 N533 1.314 . S
C536 C534 1.353 . S
C536 H594 0.930 . S
C537 N533 1.279 . S
C537 C535 1.358 . S
C537 H595 0.930 . S
C538 C541 1.348 . S
C538 C542 1.356 . S
C538 O589 1.325 . S
C539 N540 1.279 . S
C539 C542 1.358 . S
C539 H596 0.930 . S
N540 C539 1.279 . S
N540 C543 1.314 . S
C541 C538 1.348 . S
C541 C543 1.353 . S
C541 H597 0.929 . S
C542 C538 1.356 . S
C542 C539 1.358 . S
C542 H598 0.930 . S
C543 N540 1.314 . S
C543 C541 1.353 . S
C543 H599 0.930 . S
C544 N545 1.314 . S
C544 C549 1.353 . S
C544 H550 0.930 . S
N545 Li528 1.990 . S
N545 C544 1.314 . S
N545 C547 1.279 . S
C546 C547 1.358 . S
C546 C548 1.356 . S
C546 H600 0.930 . S
C547 N545 1.279 . S
C547 C546 1.358 . S
C547 H551 0.930 . S
C548 C546 1.356 . S
C548 C549 1.348 . S
C549 C544 1.353 . S
C549 C548 1.348 . S
C549 H601 0.929 . S
H550 C544 0.930 . S
H551 C547 0.930 . S
C552 N553 1.314 . S
C552 C554 1.353 . S
C552 H558 0.930 . S
N553 Li529 1.990 . S
N553 C552 1.314 . S
N553 C556 1.279 . S
C554 C552 1.353 . S
C554 C557 1.348 . S
C554 H602 0.929 . S
C555 C556 1.358 . S
C555 C557 1.356 . S
C555 H603 0.930 . S
C556 N553 1.279 . S
C556 C555 1.358 . S
C556 H559 0.930 . S
C557 C554 1.348 . S
C557 C555 1.356 . S
H558 C552 0.930 . S
H559 C556 0.930 . S
C560 C562 1.348 . S
C560 C563 1.356 . S
C560 O590 1.325 . S
N561 C564 1.314 . S
N561 C565 1.279 . S
C562 C560 1.348 . S
C562 C564 1.353 . S
C562 H604 0.929 . S
C563 C560 1.356 . S
C563 C565 1.358 . S
C563 H605 0.930 . S
C564 N561 1.314 . S
C564 C562 1.353 . S
C564 H606 0.930 . S
C565 N561 1.279 . S
C565 C563 1.358 . S
C565 H607 0.930 . S
C566 C567 1.348 . S
C566 C568 1.356 . S
C566 O591 1.325 . S
C567 C566 1.348 . S
C567 C569 1.353 . S
C567 H608 0.929 . S
C568 C566 1.356 . S
C568 C570 1.358 . S
C568 H609 0.930 . S
C569 C567 1.353 . S
C569 N571 1.314 . S
C569 H610 0.930 . S
C570 C568 1.358 . S
C570 N571 1.279 . S
C570 H611 0.930 . S
N571 C569 1.314 . S
N571 C570 1.279 . S
C572 C574 1.353 . S
C572 N575 1.314 . S
C572 H578 0.930 . S
C573 N575 1.279 . S
C573 C576 1.358 . S
C573 H579 0.930 . S
C574 C572 1.353 . S
C574 C577 1.348 . S
C574 H612 0.929 . S
N575 Li530 1.990 . S
N575 C572 1.314 . S
N575 C573 1.279 . S
C576 C573 1.358 . S
C576 C577 1.356 . S
C576 H613 0.930 . S
C577 C574 1.348 . S
C577 C576 1.356 . S
H578 C572 0.930 . S
H579 C573 0.930 . S
C580 N581 1.314 . S
C580 C582 1.353 . S
C580 H586 0.930 . S
N581 Li531 1.990 . S
N581 C580 1.314 . S
N581 C584 1.279 . S
C582 C580 1.353 . S
C582 C585 1.348 . S
C582 H614 0.929 . S
C583 C584 1.358 . S
C583 C585 1.356 . S
C583 H615 0.930 . S
C584 N581 1.279 . S
C584 C583 1.358 . S
C584 H587 0.930 . S
C585 C582 1.348 . S
C585 C583 1.356 . S
H586 C580 0.930 . S
H587 C584 0.930 . S
O588 Li528 1.956 . S
O588 Li529 1.970 . S
O588 Li530 1.961 . S
O588 C532 1.325 . S
O589 Li528 1.970 . S
O589 Li529 1.956 . S
O589 Li531 1.961 . S
O589 C538 1.325 . S
O590 Li528 1.961 . S
O590 Li530 1.956 . S
O590 Li531 1.970 . S
O590 C560 1.325 . S
O591 Li529 1.961 . S
O591 Li530 1.970 . S
O591 Li531 1.956 . S
O591 C566 1.325 . S
H592 C534 0.929 . S
H593 C535 0.930 . S
H594 C536 0.930 . S
H595 C537 0.930 . S
H596 C539 0.930 . S
H597 C541 0.929 . S
H598 C542 0.930 . S
H599 C543 0.930 . S
H600 C546 0.930 . S
H601 C549 0.929 . S
H602 C554 0.929 . S
H603 C555 0.930 . S
H604 C562 0.929 . S
H605 C563 0.930 . S
H606 C564 0.930 . S
H607 C565 0.930 . S
H608 C567 0.929 . S
H609 C568 0.930 . S
H610 C569 0.930 . S
H611 C570 0.930 . S
H612 C574 0.929 . S
H613 C576 0.930 . S
H614 C582 0.929 . S
H615 C583 0.930 . S
Li616 N633 1.990 . S
Li616 O676 1.956 . S
Li616 O677 1.970 . S
Li616 O678 1.961 . S
Li617 N641 1.990 . S
Li617 O676 1.970 . S
Li617 O677 1.956 . S
Li617 O679 1.961 . S
Li618 N663 1.990 . S
Li618 O676 1.961 . S
Li618 O678 1.956 . S
Li618 O679 1.970 . S
Li619 N669 1.990 . S
Li619 O677 1.961 . S
Li619 O678 1.970 . S
Li619 O679 1.956 . S
C620 C622 1.348 . S
C620 C623 1.356 . S
C620 O676 1.325 . S
N621 C624 1.314 . S
N621 C625 1.279 . S
C622 C620 1.348 . S
C622 C624 1.353 . S
C622 H680 0.929 . S
C623 C620 1.356 . S
C623 C625 1.358 . S
C623 H681 0.930 . S
C624 N621 1.314 . S
C624 C622 1.353 . S
C624 H682 0.930 . S
C625 N621 1.279 . S
C625 C623 1.358 . S
C625 H683 0.930 . S
C626 C629 1.348 . S
C626 C630 1.356 . S
C626 O677 1.325 . S
C627 N628 1.279 . S
C627 C630 1.358 . S
C627 H684 0.930 . S
N628 C627 1.279 . S
N628 C631 1.314 . S
C629 C626 1.348 . S
C629 C631 1.353 . S
C629 H685 0.929 . S
C630 C626 1.356 . S
C630 C627 1.358 . S
C630 H686 0.930 . S
C631 N628 1.314 . S
C631 C629 1.353 . S
C631 H687 0.930 . S
C632 N633 1.314 . S
C632 C637 1.353 . S
C632 H638 0.930 . S
N633 Li616 1.990 . S
N633 C632 1.314 . S
N633 C635 1.279 . S
C634 C635 1.358 . S
C634 C636 1.356 . S
C634 H688 0.930 . S
C635 N633 1.279 . S
C635 C634 1.358 . S
C635 H639 0.930 . S
C636 C634 1.356 . S
C636 C637 1.348 . S
C637 C632 1.353 . S
C637 C636 1.348 . S
C637 H689 0.929 . S
H638 C632 0.930 . S
H639 C635 0.930 . S
C640 N641 1.314 . S
C640 C642 1.353 . S
C640 H646 0.930 . S
N641 Li617 1.990 . S
N641 C640 1.314 . S
N641 C644 1.279 . S
C642 C640 1.353 . S
C642 C645 1.348 . S
C642 H690 0.929 . S
C643 C644 1.358 . S
C643 C645 1.356 . S
C643 H691 0.930 . S
C644 N641 1.279 . S
C644 C643 1.358 . S
C644 H647 0.930 . S
C645 C642 1.348 . S
C645 C643 1.356 . S
H646 C640 0.930 . S
H647 C644 0.930 . S
C648 C650 1.348 . S
C648 C651 1.356 . S
C648 O678 1.325 . S
N649 C652 1.314 . S
N649 C653 1.279 . S
C650 C648 1.348 . S
C650 C652 1.353 . S
C650 H692 0.929 . S
C651 C648 1.356 . S
C651 C653 1.358 . S
C651 H693 0.930 . S
C652 N649 1.314 . S
C652 C650 1.353 . S
C652 H694 0.930 . S
C653 N649 1.279 . S
C653 C651 1.358 . S
C653 H695 0.930 . S
C654 C655 1.348 . S
C654 C656 1.356 . S
C654 O679 1.325 . S
C655 C654 1.348 . S
C655 C657 1.353 . S
C655 H696 0.929 . S
C656 C654 1.356 . S
C656 C658 1.358 . S
C656 H697 0.930 . S
C657 C655 1.353 . S
C657 N659 1.314 . S
C657 H698 0.930 . S
C658 C656 1.358 . S
C658 N659 1.279 . S
C658 H699 0.930 . S
N659 C657 1.314 . S
N659 C658 1.279 . S
C660 C662 1.353 . S
C660 N663 1.314 . S
C660 H666 0.930 . S
C661 N663 1.279 . S
C661 C664 1.358 . S
C661 H667 0.930 . S
C662 C660 1.353 . S
C662 C665 1.348 . S
C662 H700 0.929 . S
N663 Li618 1.990 . S
N663 C660 1.314 . S
N663 C661 1.279 . S
C664 C661 1.358 . S
C664 C665 1.356 . S
C664 H701 0.930 . S
C665 C662 1.348 . S
C665 C664 1.356 . S
H666 C660 0.930 . S
H667 C661 0.930 . S
C668 N669 1.314 . S
C668 C670 1.353 . S
C668 H674 0.930 . S
N669 Li619 1.990 . S
N669 C668 1.314 . S
N669 C672 1.279 . S
C670 C668 1.353 . S
C670 C673 1.348 . S
C670 H702 0.929 . S
C671 C672 1.358 . S
C671 C673 1.356 . S
C671 H703 0.930 . S
C672 N669 1.279 . S
C672 C671 1.358 . S
C672 H675 0.930 . S
C673 C670 1.348 . S
C673 C671 1.356 . S
H674 C668 0.930 . S
H675 C672 0.930 . S
O676 Li616 1.956 . S
O676 Li617 1.970 . S
O676 Li618 1.961 . S
O676 C620 1.325 . S
O677 Li616 1.970 . S
O677 Li617 1.956 . S
O677 Li619 1.961 . S
O677 C626 1.325 . S
O678 Li616 1.961 . S
O678 Li618 1.956 . S
O678 Li619 1.970 . S
O678 C648 1.325 . S
O679 Li617 1.961 . S
O679 Li618 1.970 . S
O679 Li619 1.956 . S
O679 C654 1.325 . S
H680 C622 0.929 . S
H681 C623 0.930 . S
H682 C624 0.930 . S
H683 C625 0.930 . S
H684 C627 0.930 . S
H685 C629 0.929 . S
H686 C630 0.930 . S
H687 C631 0.930 . S
H688 C634 0.930 . S
H689 C637 0.929 . S
H690 C642 0.929 . S
H691 C643 0.930 . S
H692 C650 0.929 . S
H693 C651 0.930 . S
H694 C652 0.930 . S
H695 C653 0.930 . S
H696 C655 0.929 . S
H697 C656 0.930 . S
H698 C657 0.930 . S
H699 C658 0.930 . S
H700 C662 0.929 . S
H701 C664 0.930 . S
H702 C670 0.929 . S
H703 C671 0.930 . S
Li704 N721 1.990 . S
Li704 O764 1.956 . S
Li704 O765 1.970 . S
Li704 O766 1.961 . S
Li705 N729 1.990 . S
Li705 O764 1.970 . S
Li705 O765 1.956 . S
Li705 O767 1.961 . S
Li706 N751 1.990 . S
Li706 O764 1.961 . S
Li706 O766 1.956 . S
Li706 O767 1.970 . S
Li707 N757 1.990 . S
Li707 O765 1.961 . S
Li707 O766 1.970 . S
Li707 O767 1.956 . S
C708 C710 1.348 . S
C708 C711 1.356 . S
C708 O764 1.325 . S
N709 C712 1.314 . S
N709 C713 1.279 . S
C710 C708 1.348 . S
C710 C712 1.353 . S
C710 H768 0.929 . S
C711 C708 1.356 . S
C711 C713 1.358 . S
C711 H769 0.930 . S
C712 N709 1.314 . S
C712 C710 1.353 . S
C712 H770 0.930 . S
C713 N709 1.279 . S
C713 C711 1.358 . S
C713 H771 0.930 . S
C714 C717 1.348 . S
C714 C718 1.356 . S
C714 O765 1.325 . S
C715 N716 1.279 . S
C715 C718 1.358 . S
C715 H772 0.930 . S
N716 C715 1.279 . S
N716 C719 1.314 . S
C717 C714 1.348 . S
C717 C719 1.353 . S
C717 H773 0.929 . S
C718 C714 1.356 . S
C718 C715 1.358 . S
C718 H774 0.930 . S
C719 N716 1.314 . S
C719 C717 1.353 . S
C719 H775 0.930 1_565 S
C720 N721 1.314 . S
C720 C725 1.353 1_565 S
C720 H726 0.930 . S
N721 Li704 1.990 . S
N721 C720 1.314 . S
N721 C723 1.276 1_565 S
C722 C723 1.362 . S
C722 C724 1.356 . S
C722 H776 0.930 . S
C723 N721 1.276 1_545 S
C723 C722 1.362 . S
C723 H727 0.930 1_545 S
C724 C722 1.356 . S
C724 C725 1.348 . S
C725 C720 1.353 1_545 S
C725 C724 1.348 . S
C725 H777 0.929 . S
H726 C720 0.930 . S
H727 C723 0.930 1_565 S
C728 N729 1.314 . S
C728 C730 1.353 . S
C728 H734 0.930 . S
N729 Li705 1.990 . S
N729 C728 1.314 . S
N729 C732 1.279 . S
C730 C728 1.353 . S
C730 C733 1.348 . S
C730 H778 0.929 . S
C731 C732 1.358 . S
C731 C733 1.356 . S
C731 H779 0.930 . S
C732 N729 1.279 . S
C732 C731 1.358 . S
C732 H735 0.930 . S
C733 C730 1.348 . S
C733 C731 1.356 . S
H734 C728 0.930 . S
H735 C732 0.930 . S
C736 C738 1.348 . S
C736 C739 1.356 . S
C736 O766 1.325 . S
N737 C740 1.314 . S
N737 C741 1.279 . S
C738 C736 1.348 . S
C738 C740 1.353 . S
C738 H780 0.929 . S
C739 C736 1.356 . S
C739 C741 1.358 . S
C739 H781 0.930 . S
C740 N737 1.314 . S
C740 C738 1.353 . S
C740 H782 0.930 . S
C741 N737 1.279 . S
C741 C739 1.358 . S
C741 H783 0.930 . S
C742 C743 1.348 . S
C742 C744 1.356 . S
C742 O767 1.325 . S
C743 C742 1.348 . S
C743 C745 1.353 . S
C743 H784 0.929 . S
C744 C742 1.356 . S
C744 C746 1.358 . S
C744 H785 0.930 . S
C745 C743 1.353 . S
C745 N747 1.314 . S
C745 H786 0.930 . S
C746 C744 1.358 . S
C746 N747 1.279 . S
C746 H787 0.930 . S
N747 C745 1.314 . S
N747 C746 1.279 . S
C748 C750 1.353 . S
C748 N751 1.314 . S
C748 H754 0.930 . S
C749 N751 1.279 . S
C749 C752 1.358 . S
C749 H755 0.930 . S
C750 C748 1.353 . S
C750 C753 1.348 . S
C750 H788 0.929 . S
N751 Li706 1.990 . S
N751 C748 1.314 . S
N751 C749 1.279 . S
C752 C749 1.358 . S
C752 C753 1.356 . S
C752 H789 0.930 . S
C753 C750 1.348 . S
C753 C752 1.356 . S
H754 C748 0.930 . S
H755 C749 0.930 . S
C756 N757 1.314 . S
C756 C758 1.353 . S
C756 H762 0.930 . S
N757 Li707 1.990 . S
N757 C756 1.314 . S
N757 C760 1.279 . S
C758 C756 1.353 . S
C758 C761 1.348 . S
C758 H790 0.929 . S
C759 C760 1.358 . S
C759 C761 1.356 . S
C759 H791 0.930 . S
C760 N757 1.279 . S
C760 C759 1.358 . S
C760 H763 0.930 . S
C761 C758 1.348 . S
C761 C759 1.356 . S
H762 C756 0.930 . S
H763 C760 0.930 . S
O764 Li704 1.956 . S
O764 Li705 1.970 . S
O764 Li706 1.961 . S
O764 C708 1.325 . S
O765 Li704 1.970 . S
O765 Li705 1.956 . S
O765 Li707 1.961 . S
O765 C714 1.325 . S
O766 Li704 1.961 . S
O766 Li706 1.956 . S
O766 Li707 1.970 . S
O766 C736 1.325 . S
O767 Li705 1.961 . S
O767 Li706 1.970 . S
O767 Li707 1.956 . S
O767 C742 1.325 . S
H768 C710 0.929 . S
H769 C711 0.930 . S
H770 C712 0.930 . S
H771 C713 0.930 . S
H772 C715 0.930 . S
H773 C717 0.929 . S
H774 C718 0.930 . S
H775 C719 0.930 1_545 S
H776 C722 0.930 . S
H777 C725 0.929 . S
H778 C730 0.929 . S
H779 C731 0.930 . S
H780 C738 0.929 . S
H781 C739 0.930 . S
H782 C740 0.930 . S
H783 C741 0.930 . S
H784 C743 0.929 . S
H785 C744 0.930 . S
H786 C745 0.930 . S
H787 C746 0.930 . S
H788 C750 0.929 . S
H789 C752 0.930 . S
H790 C758 0.929 . S
H791 C759 0.930 . S
Li792 N809 1.990 . S
Li792 O852 1.956 . S
Li792 O853 1.970 . S
Li792 O854 1.961 . S
Li793 N817 1.990 . S
Li793 O852 1.970 . S
Li793 O853 1.956 . S
Li793 O855 1.961 . S
Li794 N839 1.990 . S
Li794 O852 1.961 . S
Li794 O854 1.956 . S
Li794 O855 1.970 . S
Li795 N845 1.990 . S
Li795 O853 1.961 . S
Li795 O854 1.970 . S
Li795 O855 1.956 . S
C796 C798 1.348 . S
C796 C799 1.356 . S
C796 O852 1.325 . S
N797 C800 1.314 . S
N797 C801 1.279 . S
C798 C796 1.348 . S
C798 C800 1.353 . S
C798 H856 0.929 . S
C799 C796 1.356 . S
C799 C801 1.358 . S
C799 H857 0.930 . S
C800 N797 1.314 . S
C800 C798 1.353 . S
C800 H858 0.930 . S
C801 N797 1.279 . S
C801 C799 1.358 . S
C801 H859 0.930 . S
C802 C805 1.348 . S
C802 C806 1.356 . S
C802 O853 1.325 . S
C803 N804 1.279 . S
C803 C806 1.358 . S
C803 H860 0.930 . S
N804 C803 1.279 . S
N804 C807 1.314 . S
C805 C802 1.348 . S
C805 C807 1.353 . S
C805 H861 0.929 . S
C806 C802 1.356 . S
C806 C803 1.358 . S
C806 H862 0.930 . S
C807 N804 1.314 . S
C807 C805 1.353 . S
C807 H863 0.930 . S
C808 N809 1.314 . S
C808 C813 1.353 . S
C808 H814 0.930 . S
N809 Li792 1.990 . S
N809 C808 1.314 . S
N809 C811 1.279 . S
C810 C811 1.358 . S
C810 C812 1.356 . S
C810 H864 0.930 . S
C811 N809 1.279 . S
C811 C810 1.358 . S
C811 H815 0.930 . S
C812 C810 1.356 . S
C812 C813 1.348 . S
C813 C808 1.353 . S
C813 C812 1.348 . S
C813 H865 0.929 . S
H814 C808 0.930 . S
H815 C811 0.930 . S
C816 N817 1.276 1_455 S
C816 C818 1.391 . S
C816 H822 0.929 . S
N817 Li793 1.990 . S
N817 C816 1.276 1_655 S
N817 C820 1.279 . S
C818 C816 1.391 . S
C818 C821 1.348 . S
C818 H866 0.929 . S
C819 C820 1.358 1_455 S
C819 C821 1.356 . S
C819 H867 0.932 . S
C820 N817 1.279 . S
C820 C819 1.358 1_655 S
C820 H823 0.930 . S
C821 C818 1.348 . S
C821 C819 1.356 . S
H822 C816 0.929 . S
H823 C820 0.930 . S
C824 C826 1.348 . S
C824 C827 1.356 . S
C824 O854 1.325 . S
N825 C828 1.314 . S
N825 C829 1.279 . S
C826 C824 1.348 . S
C826 C828 1.353 . S
C826 H868 0.929 . S
C827 C824 1.356 . S
C827 C829 1.358 . S
C827 H869 0.930 . S
C828 N825 1.314 . S
C828 C826 1.353 . S
C828 H870 0.930 . S
C829 N825 1.279 . S
C829 C827 1.358 . S
C829 H871 0.930 . S
C830 C831 1.348 . S
C830 C832 1.356 . S
C830 O855 1.325 . S
C831 C830 1.348 . S
C831 C833 1.353 . S
C831 H872 0.929 . S
C832 C830 1.356 . S
C832 C834 1.358 . S
C832 H873 0.930 . S
C833 C831 1.353 . S
C833 N835 1.314 . S
C833 H874 0.930 . S
C834 C832 1.358 . S
C834 N835 1.279 . S
C834 H875 0.930 . S
N835 C833 1.314 . S
N835 C834 1.279 . S
C836 C838 1.353 . S
C836 N839 1.314 . S
C836 H842 0.930 . S
C837 N839 1.279 . S
C837 C840 1.358 . S
C837 H843 0.930 . S
C838 C836 1.353 . S
C838 C841 1.348 . S
C838 H876 0.929 . S
N839 Li794 1.990 . S
N839 C836 1.314 . S
N839 C837 1.279 . S
C840 C837 1.358 . S
C840 C841 1.356 . S
C840 H877 0.930 . S
C841 C838 1.348 . S
C841 C840 1.356 . S
H842 C836 0.930 . S
H843 C837 0.930 . S
C844 N845 1.314 . S
C844 C846 1.353 . S
C844 H850 0.930 . S
N845 Li795 1.990 . S
N845 C844 1.314 . S
N845 C848 1.279 . S
C846 C844 1.353 . S
C846 C849 1.348 . S
C846 H878 0.929 . S
C847 C848 1.358 . S
C847 C849 1.356 . S
C847 H879 0.930 . S
C848 N845 1.279 . S
C848 C847 1.358 . S
C848 H851 0.930 . S
C849 C846 1.348 . S
C849 C847 1.356 . S
H850 C844 0.930 . S
H851 C848 0.930 . S
O852 Li792 1.956 . S
O852 Li793 1.970 . S
O852 Li794 1.961 . S
O852 C796 1.325 . S
O853 Li792 1.970 . S
O853 Li793 1.956 . S
O853 Li795 1.961 . S
O853 C802 1.325 . S
O854 Li792 1.961 . S
O854 Li794 1.956 . S
O854 Li795 1.970 . S
O854 C824 1.325 . S
O855 Li793 1.961 . S
O855 Li794 1.970 . S
O855 Li795 1.956 . S
O855 C830 1.325 . S
H856 C798 0.929 . S
H857 C799 0.930 . S
H858 C800 0.930 . S
H859 C801 0.930 . S
H860 C803 0.930 . S
H861 C805 0.929 . S
H862 C806 0.930 . S
H863 C807 0.930 . S
H864 C810 0.930 . S
H865 C813 0.929 . S
H866 C818 0.929 . S
H867 C819 0.932 . S
H868 C826 0.929 . S
H869 C827 0.930 . S
H870 C828 0.930 . S
H871 C829 0.930 . S
H872 C831 0.929 . S
H873 C832 0.930 . S
H874 C833 0.930 . S
H875 C834 0.930 . S
H876 C838 0.929 . S
H877 C840 0.930 . S
H878 C846 0.929 . S
H879 C847 0.930 . S
Li880 N897 1.990 . S
Li880 O940 1.956 . S
Li880 O941 1.970 . S
Li880 O942 1.961 . S
Li881 N905 1.990 . S
Li881 O940 1.970 . S
Li881 O941 1.956 . S
Li881 O943 1.961 . S
Li882 N927 1.990 . S
Li882 O940 1.961 . S
Li882 O942 1.956 . S
Li882 O943 1.970 . S
Li883 N933 1.990 . S
Li883 O941 1.961 . S
Li883 O942 1.970 . S
Li883 O943 1.956 . S
C884 C886 1.348 . S
C884 C887 1.356 . S
C884 O940 1.325 . S
N885 C888 1.314 . S
N885 C889 1.279 . S
C886 C884 1.348 . S
C886 C888 1.353 . S
C886 H944 0.929 . S
C887 C884 1.356 . S
C887 C889 1.358 . S
C887 H945 0.930 . S
C888 N885 1.314 . S
C888 C886 1.353 . S
C888 H946 0.930 . S
C889 N885 1.279 . S
C889 C887 1.358 . S
C889 H947 0.930 . S
C890 C893 1.348 . S
C890 C894 1.356 . S
C890 O941 1.325 . S
C891 N892 1.279 . S
C891 C894 1.358 . S
C891 H948 0.930 . S
N892 C891 1.279 . S
N892 C895 1.314 . S
C893 C890 1.348 . S
C893 C895 1.353 . S
C893 H949 0.929 . S
C894 C890 1.356 . S
C894 C891 1.358 . S
C894 H950 0.930 . S
C895 N892 1.314 . S
C895 C893 1.353 . S
C895 H951 0.930 . S
C896 N897 1.314 . S
C896 C901 1.353 . S
C896 H902 0.930 . S
N897 Li880 1.990 . S
N897 C896 1.314 . S
N897 C899 1.279 . S
C898 C899 1.358 . S
C898 C900 1.356 . S
C898 H952 0.930 . S
C899 N897 1.279 . S
C899 C898 1.358 . S
C899 H903 0.930 . S
C900 C898 1.356 . S
C900 C901 1.348 . S
C901 C896 1.353 . S
C901 C900 1.348 . S
C901 H953 0.929 . S
H902 C896 0.930 . S
H903 C899 0.930 . S
C904 N905 1.314 . S
C904 C906 1.353 . S
C904 H910 0.930 . S
N905 Li881 1.990 . S
N905 C904 1.314 . S
N905 C908 1.279 . S
C906 C904 1.353 . S
C906 C909 1.348 . S
C906 H954 0.929 . S
C907 C908 1.358 . S
C907 C909 1.356 . S
C907 H955 0.930 . S
C908 N905 1.279 . S
C908 C907 1.358 . S
C908 H911 0.930 . S
C909 C906 1.348 . S
C909 C907 1.356 . S
H910 C904 0.930 . S
H911 C908 0.930 . S
C912 C914 1.348 . S
C912 C915 1.356 . S
C912 O942 1.325 . S
N913 C916 1.314 . S
N913 C917 1.279 . S
C914 C912 1.348 . S
C914 C916 1.353 . S
C914 H956 0.929 . S
C915 C912 1.356 . S
C915 C917 1.358 . S
C915 H957 0.930 . S
C916 N913 1.314 . S
C916 C914 1.353 . S
C916 H958 0.930 . S
C917 N913 1.279 . S
C917 C915 1.358 . S
C917 H959 0.930 . S
C918 C919 1.348 . S
C918 C920 1.356 . S
C918 O943 1.325 . S
C919 C918 1.348 . S
C919 C921 1.353 . S
C919 H960 0.929 . S
C920 C918 1.356 . S
C920 C922 1.358 . S
C920 H961 0.930 . S
C921 C919 1.353 . S
C921 N923 1.314 . S
C921 H962 0.930 1_545 S
C922 C920 1.358 . S
C922 N923 1.279 . S
C922 H963 0.930 . S
N923 C921 1.314 . S
N923 C922 1.279 . S
C924 C926 1.353 1_545 S
C924 N927 1.314 . S
C924 H930 0.930 . S
C925 N927 1.276 1_565 S
C925 C928 1.362 . S
C925 H931 0.930 1_565 S
C926 C924 1.353 1_565 S
C926 C929 1.348 . S
C926 H964 0.929 . S
N927 Li882 1.990 . S
N927 C924 1.314 . S
N927 C925 1.276 1_545 S
C928 C925 1.362 . S
C928 C929 1.356 . S
C928 H965 0.930 . S
C929 C926 1.348 . S
C929 C928 1.356 . S
H930 C924 0.930 . S
H931 C925 0.930 1_545 S
C932 N933 1.314 . S
C932 C934 1.353 . S
C932 H938 0.930 . S
N933 Li883 1.990 . S
N933 C932 1.314 . S
N933 C936 1.279 . S
C934 C932 1.353 . S
C934 C937 1.348 . S
C934 H966 0.929 . S
C935 C936 1.358 . S
C935 C937 1.356 . S
C935 H967 0.930 . S
C936 N933 1.279 . S
C936 C935 1.358 . S
C936 H939 0.930 . S
C937 C934 1.348 . S
C937 C935 1.356 . S
H938 C932 0.930 . S
H939 C936 0.930 . S
O940 Li880 1.956 . S
O940 Li881 1.970 . S
O940 Li882 1.961 . S
O940 C884 1.325 . S
O941 Li880 1.970 . S
O941 Li881 1.956 . S
O941 Li883 1.961 . S
O941 C890 1.325 . S
O942 Li880 1.961 . S
O942 Li882 1.956 . S
O942 Li883 1.970 . S
O942 C912 1.325 . S
O943 Li881 1.961 . S
O943 Li882 1.970 . S
O943 Li883 1.956 . S
O943 C918 1.325 . S
H944 C886 0.929 . S
H945 C887 0.930 . S
H946 C888 0.930 . S
H947 C889 0.930 . S
H948 C891 0.930 . S
H949 C893 0.929 . S
H950 C894 0.930 . S
H951 C895 0.930 . S
H952 C898 0.930 . S
H953 C901 0.929 . S
H954 C906 0.929 . S
H955 C907 0.930 . S
H956 C914 0.929 . S
H957 C915 0.930 . S
H958 C916 0.930 . S
H959 C917 0.930 . S
H960 C919 0.929 . S
H961 C920 0.930 . S
H962 C921 0.930 1_565 S
H963 C922 0.930 . S
H964 C926 0.929 . S
H965 C928 0.930 . S
H966 C934 0.929 . S
H967 C935 0.930 . S
Li968 N985 1.990 . S
Li968 O1028 1.956 . S
Li968 O1029 1.970 . S
Li968 O1030 1.961 . S
Li969 N993 1.990 . S
Li969 O1028 1.970 . S
Li969 O1029 1.956 . S
Li969 O1031 1.961 . S
Li970 N1015 1.990 . S
Li970 O1028 1.961 . S
Li970 O1030 1.956 . S
Li970 O1031 1.970 . S
Li971 N1021 1.990 . S
Li971 O1029 1.961 . S
Li971 O1030 1.970 . S
Li971 O1031 1.956 . S
C972 C974 1.348 . S
C972 C975 1.356 . S
C972 O1028 1.325 . S
N973 C976 1.314 . S
N973 C977 1.279 . S
C974 C972 1.348 . S
C974 C976 1.353 . S
C974 H1032 0.929 . S
C975 C972 1.356 . S
C975 C977 1.358 . S
C975 H1033 0.930 . S
C976 N973 1.314 . S
C976 C974 1.353 . S
C976 H1034 0.930 . S
C977 N973 1.279 . S
C977 C975 1.358 . S
C977 H1035 0.930 . S
C978 C981 1.348 . S
C978 C982 1.356 . S
C978 O1029 1.325 . S
C979 N980 1.279 . S
C979 C982 1.358 . S
C979 H1036 0.930 . S
N980 C979 1.279 . S
N980 C983 1.314 . S
C981 C978 1.348 . S
C981 C983 1.353 . S
C981 H1037 0.929 . S
C982 C978 1.356 . S
C982 C979 1.358 . S
C982 H1038 0.930 . S
C983 N980 1.314 . S
C983 C981 1.353 . S
C983 H1039 0.930 . S
C984 N985 1.276 1_655 S
C984 C989 1.391 . S
C984 H990 0.929 . S
N985 Li968 1.990 . S
N985 C984 1.276 1_455 S
N985 C987 1.279 . S
C986 C987 1.358 1_655 S
C986 C988 1.356 . S
C986 H1040 0.932 . S
C987 N985 1.279 . S
C987 C986 1.358 1_455 S
C987 H991 0.930 . S
C988 C986 1.356 . S
C988 C989 1.348 . S
C989 C984 1.391 . S
C989 C988 1.348 . S
C989 H1041 0.929 . S
H990 C984 0.929 . S
H991 C987 0.930 . S
C992 N993 1.314 . S
C992 C994 1.353 . S
C992 H998 0.930 . S
N993 Li969 1.990 . S
N993 C992 1.314 . S
N993 C996 1.279 . S
C994 C992 1.353 . S
C994 C997 1.348 . S
C994 H1042 0.929 . S
C995 C996 1.358 . S
C995 C997 1.356 . S
C995 H1043 0.930 . S
C996 N993 1.279 . S
C996 C995 1.358 . S
C996 H999 0.930 . S
C997 C994 1.348 . S
C997 C995 1.356 . S
H998 C992 0.930 . S
H999 C996 0.930 . S
C1000 C1002 1.348 . S
C1000 C1003 1.356 . S
C1000 O1030 1.325 . S
N1001 C1004 1.314 . S
N1001 C1005 1.279 . S
C1002 C1000 1.348 . S
C1002 C1004 1.353 . S
C1002 H1044 0.929 . S
C1003 C1000 1.356 . S
C1003 C1005 1.358 . S
C1003 H1045 0.930 . S
C1004 N1001 1.314 . S
C1004 C1002 1.353 . S
C1004 H1046 0.930 . S
C1005 N1001 1.279 . S
C1005 C1003 1.358 . S
C1005 H1047 0.930 . S
C1006 C1007 1.348 . S
C1006 C1008 1.356 . S
C1006 O1031 1.325 . S
C1007 C1006 1.348 . S
C1007 C1009 1.353 . S
C1007 H1048 0.929 . S
C1008 C1006 1.356 . S
C1008 C1010 1.358 . S
C1008 H1049 0.930 . S
C1009 C1007 1.353 . S
C1009 N1011 1.314 . S
C1009 H1050 0.930 . S
C1010 C1008 1.358 . S
C1010 N1011 1.279 . S
C1010 H1051 0.930 . S
N1011 C1009 1.314 . S
N1011 C1010 1.279 . S
C1012 C1014 1.353 . S
C1012 N1015 1.314 . S
C1012 H1018 0.930 . S
C1013 N1015 1.279 . S
C1013 C1016 1.358 . S
C1013 H1019 0.930 . S
C1014 C1012 1.353 . S
C1014 C1017 1.348 . S
C1014 H1052 0.929 . S
N1015 Li970 1.990 . S
N1015 C1012 1.314 . S
N1015 C1013 1.279 . S
C1016 C1013 1.358 . S
C1016 C1017 1.356 . S
C1016 H1053 0.930 . S
C1017 C1014 1.348 . S
C1017 C1016 1.356 . S
H1018 C1012 0.930 . S
H1019 C1013 0.930 . S
C1020 N1021 1.314 . S
C1020 C1022 1.353 . S
C1020 H1026 0.930 . S
N1021 Li971 1.990 . S
N1021 C1020 1.314 . S
N1021 C1024 1.279 . S
C1022 C1020 1.353 . S
C1022 C1025 1.348 . S
C1022 H1054 0.929 . S
C1023 C1024 1.358 . S
C1023 C1025 1.356 . S
C1023 H1055 0.930 . S
C1024 N1021 1.279 . S
C1024 C1023 1.358 . S
C1024 H1027 0.930 . S
C1025 C1022 1.348 . S
C1025 C1023 1.356 . S
H1026 C1020 0.930 . S
H1027 C1024 0.930 . S
O1028 Li968 1.956 . S
O1028 Li969 1.970 . S
O1028 Li970 1.961 . S
O1028 C972 1.325 . S
O1029 Li968 1.970 . S
O1029 Li969 1.956 . S
O1029 Li971 1.961 . S
O1029 C978 1.325 . S
O1030 Li968 1.961 . S
O1030 Li970 1.956 . S
O1030 Li971 1.970 . S
O1030 C1000 1.325 . S
O1031 Li969 1.961 . S
O1031 Li970 1.970 . S
O1031 Li971 1.956 . S
O1031 C1006 1.325 . S
H1032 C974 0.929 . S
H1033 C975 0.930 . S
H1034 C976 0.930 . S
H1035 C977 0.930 . S
H1036 C979 0.930 . S
H1037 C981 0.929 . S
H1038 C982 0.930 . S
H1039 C983 0.930 . S
H1040 C986 0.932 . S
H1041 C989 0.929 . S
H1042 C994 0.929 . S
H1043 C995 0.930 . S
H1044 C1002 0.929 . S
H1045 C1003 0.930 . S
H1046 C1004 0.930 . S
H1047 C1005 0.930 . S
H1048 C1007 0.929 . S
H1049 C1008 0.930 . S
H1050 C1009 0.930 . S
H1051 C1010 0.930 . S
H1052 C1014 0.929 . S
H1053 C1016 0.930 . S
H1054 C1022 0.929 . S
H1055 C1023 0.930 . S
Li1056 N1073 1.990 . S
Li1056 O1116 1.956 . S
Li1056 O1117 1.970 . S
Li1056 O1118 1.961 . S
Li1057 N1081 1.990 . S
Li1057 O1116 1.970 . S
Li1057 O1117 1.956 . S
Li1057 O1119 1.961 . S
Li1058 N1103 1.990 . S
Li1058 O1116 1.961 . S
Li1058 O1118 1.956 . S
Li1058 O1119 1.970 . S
Li1059 N1109 1.990 . S
Li1059 O1117 1.961 . S
Li1059 O1118 1.970 . S
Li1059 O1119 1.956 . S
C1060 C1062 1.348 . S
C1060 C1063 1.356 . S
C1060 O1116 1.325 . S
N1061 C1064 1.314 . S
N1061 C1065 1.279 . S
C1062 C1060 1.348 . S
C1062 C1064 1.353 . S
C1062 H1120 0.929 . S
C1063 C1060 1.356 . S
C1063 C1065 1.358 . S
C1063 H1121 0.930 . S
C1064 N1061 1.314 . S
C1064 C1062 1.353 . S
C1064 H1122 0.930 . S
C1065 N1061 1.279 . S
C1065 C1063 1.358 . S
C1065 H1123 0.930 . S
C1066 C1069 1.348 . S
C1066 C1070 1.356 . S
C1066 O1117 1.325 . S
C1067 N1068 1.279 . S
C1067 C1070 1.358 . S
C1067 H1124 0.930 . S
N1068 C1067 1.279 . S
N1068 C1071 1.314 . S
C1069 C1066 1.348 . S
C1069 C1071 1.353 . S
C1069 H1125 0.929 . S
C1070 C1066 1.356 . S
C1070 C1067 1.358 . S
C1070 H1126 0.930 . S
C1071 N1068 1.314 . S
C1071 C1069 1.353 . S
C1071 H1127 0.930 . S
C1072 N1073 1.314 . S
C1072 C1077 1.353 . S
C1072 H1078 0.930 . S
N1073 Li1056 1.990 . S
N1073 C1072 1.314 . S
N1073 C1075 1.279 . S
C1074 C1075 1.358 . S
C1074 C1076 1.356 . S
C1074 H1128 0.930 . S
C1075 N1073 1.279 . S
C1075 C1074 1.358 . S
C1075 H1079 0.930 . S
C1076 C1074 1.356 . S
C1076 C1077 1.348 . S
C1077 C1072 1.353 . S
C1077 C1076 1.348 . S
C1077 H1129 0.929 . S
H1078 C1072 0.930 . S
H1079 C1075 0.930 . S
C1080 N1081 1.314 . S
C1080 C1082 1.353 . S
C1080 H1086 0.930 . S
N1081 Li1057 1.990 . S
N1081 C1080 1.314 . S
N1081 C1084 1.279 . S
C1082 C1080 1.353 . S
C1082 C1085 1.348 . S
C1082 H1130 0.929 . S
C1083 C1084 1.358 . S
C1083 C1085 1.356 . S
C1083 H1131 0.930 . S
C1084 N1081 1.279 . S
C1084 C1083 1.358 . S
C1084 H1087 0.930 . S
C1085 C1082 1.348 . S
C1085 C1083 1.356 . S
H1086 C1080 0.930 . S
H1087 C1084 0.930 . S
C1088 C1090 1.348 . S
C1088 C1091 1.356 . S
C1088 O1118 1.325 . S
N1089 C1092 1.314 . S
N1089 C1093 1.279 . S
C1090 C1088 1.348 . S
C1090 C1092 1.353 . S
C1090 H1132 0.929 . S
C1091 C1088 1.356 . S
C1091 C1093 1.358 . S
C1091 H1133 0.930 . S
C1092 N1089 1.314 . S
C1092 C1090 1.353 . S
C1092 H1134 0.930 1_545 S
C1093 N1089 1.279 . S
C1093 C1091 1.358 . S
C1093 H1135 0.930 . S
C1094 C1095 1.348 . S
C1094 C1096 1.356 . S
C1094 O1119 1.325 . S
C1095 C1094 1.348 . S
C1095 C1097 1.353 . S
C1095 H1136 0.929 . S
C1096 C1094 1.356 . S
C1096 C1098 1.358 . S
C1096 H1137 0.930 . S
C1097 C1095 1.353 . S
C1097 N1099 1.314 . S
C1097 H1138 0.930 . S
C1098 C1096 1.358 . S
C1098 N1099 1.279 . S
C1098 H1139 0.930 . S
N1099 C1097 1.314 . S
N1099 C1098 1.279 . S
C1100 C1102 1.353 . S
C1100 N1103 1.314 . S
C1100 H1106 0.930 . S
C1101 N1103 1.279 . S
C1101 C1104 1.358 . S
C1101 H1107 0.930 . S
C1102 C1100 1.353 . S
C1102 C1105 1.348 . S
C1102 H1140 0.929 . S
N1103 Li1058 1.990 . S
N1103 C1100 1.314 . S
N1103 C1101 1.279 . S
C1104 C1101 1.358 . S
C1104 C1105 1.356 . S
C1104 H1141 0.930 . S
C1105 C1102 1.348 . S
C1105 C1104 1.356 . S
H1106 C1100 0.930 . S
H1107 C1101 0.930 . S
C1108 N1109 1.314 . S
C1108 C1110 1.353 1_545 S
C1108 H1114 0.930 . S
N1109 Li1059 1.990 . S
N1109 C1108 1.314 . S
N1109 C1112 1.276 1_545 S
C1110 C1108 1.353 1_565 S
C1110 C1113 1.348 . S
C1110 H1142 0.929 . S
C1111 C1112 1.362 . S
C1111 C1113 1.356 . S
C1111 H1143 0.930 . S
C1112 N1109 1.276 1_565 S
C1112 C1111 1.362 . S
C1112 H1115 0.930 1_565 S
C1113 C1110 1.348 . S
C1113 C1111 1.356 . S
H1114 C1108 0.930 . S
H1115 C1112 0.930 1_545 S
O1116 Li1056 1.956 . S
O1116 Li1057 1.970 . S
O1116 Li1058 1.961 . S
O1116 C1060 1.325 . S
O1117 Li1056 1.970 . S
O1117 Li1057 1.956 . S
O1117 Li1059 1.961 . S
O1117 C1066 1.325 . S
O1118 Li1056 1.961 . S
O1118 Li1058 1.956 . S
O1118 Li1059 1.970 . S
O1118 C1088 1.325 . S
O1119 Li1057 1.961 . S
O1119 Li1058 1.970 . S
O1119 Li1059 1.956 . S
O1119 C1094 1.325 . S
H1120 C1062 0.929 . S
H1121 C1063 0.930 . S
H1122 C1064 0.930 . S
H1123 C1065 0.930 . S
H1124 C1067 0.930 . S
H1125 C1069 0.929 . S
H1126 C1070 0.930 . S
H1127 C1071 0.930 . S
H1128 C1074 0.930 . S
H1129 C1077 0.929 . S
H1130 C1082 0.929 . S
H1131 C1083 0.930 . S
H1132 C1090 0.929 . S
H1133 C1091 0.930 . S
H1134 C1092 0.930 1_565 S
H1135 C1093 0.930 . S
H1136 C1095 0.929 . S
H1137 C1096 0.930 . S
H1138 C1097 0.930 . S
H1139 C1098 0.930 . S
H1140 C1102 0.929 . S
H1141 C1104 0.930 . S
H1142 C1110 0.929 . S
H1143 C1111 0.930 . S
Li1144 N1161 1.990 . S
Li1144 O1204 1.956 . S
Li1144 O1205 1.970 . S
Li1144 O1206 1.961 . S
Li1145 N1169 1.990 . S
Li1145 O1204 1.970 . S
Li1145 O1205 1.956 . S
Li1145 O1207 1.961 . S
Li1146 N1191 1.990 . S
Li1146 O1204 1.961 . S
Li1146 O1206 1.956 . S
Li1146 O1207 1.970 . S
Li1147 N1197 1.990 . S
Li1147 O1205 1.961 . S
Li1147 O1206 1.970 . S
Li1147 O1207 1.956 . S
C1148 C1150 1.348 . S
C1148 C1151 1.356 . S
C1148 O1204 1.325 . S
N1149 C1152 1.314 . S
N1149 C1153 1.279 . S
C1150 C1148 1.348 . S
C1150 C1152 1.353 . S
C1150 H1208 0.929 . S
C1151 C1148 1.356 . S
C1151 C1153 1.358 . S
C1151 H1209 0.930 . S
C1152 N1149 1.314 . S
C1152 C1150 1.353 . S
C1152 H1210 0.930 . S
C1153 N1149 1.279 . S
C1153 C1151 1.358 . S
C1153 H1211 0.930 . S
C1154 C1157 1.348 . S
C1154 C1158 1.356 . S
C1154 O1205 1.325 . S
C1155 N1156 1.279 . S
C1155 C1158 1.358 . S
C1155 H1212 0.930 . S
N1156 C1155 1.279 . S
N1156 C1159 1.314 . S
C1157 C1154 1.348 . S
C1157 C1159 1.353 . S
C1157 H1213 0.929 . S
C1158 C1154 1.356 . S
C1158 C1155 1.358 . S
C1158 H1214 0.930 . S
C1159 N1156 1.314 . S
C1159 C1157 1.353 . S
C1159 H1215 0.930 . S
C1160 N1161 1.314 . S
C1160 C1165 1.353 . S
C1160 H1166 0.930 . S
N1161 Li1144 1.990 . S
N1161 C1160 1.314 . S
N1161 C1163 1.279 . S
C1162 C1163 1.358 . S
C1162 C1164 1.356 . S
C1162 H1216 0.930 . S
C1163 N1161 1.279 . S
C1163 C1162 1.358 . S
C1163 H1167 0.930 . S
C1164 C1162 1.356 . S
C1164 C1165 1.348 . S
C1165 C1160 1.353 . S
C1165 C1164 1.348 . S
C1165 H1217 0.929 . S
H1166 C1160 0.930 . S
H1167 C1163 0.930 . S
C1168 N1169 1.314 . S
C1168 C1170 1.353 . S
C1168 H1174 0.930 . S
N1169 Li1145 1.990 . S
N1169 C1168 1.314 . S
N1169 C1172 1.279 . S
C1170 C1168 1.353 . S
C1170 C1173 1.348 . S
C1170 H1218 0.929 . S
C1171 C1172 1.358 . S
C1171 C1173 1.356 . S
C1171 H1219 0.930 . S
C1172 N1169 1.279 . S
C1172 C1171 1.358 . S
C1172 H1175 0.930 . S
C1173 C1170 1.348 . S
C1173 C1171 1.356 . S
H1174 C1168 0.930 . S
H1175 C1172 0.930 . S
C1176 C1178 1.348 . S
C1176 C1179 1.356 . S
C1176 O1206 1.325 . S
N1177 C1180 1.314 . S
N1177 C1181 1.279 . S
C1178 C1176 1.348 . S
C1178 C1180 1.353 . S
C1178 H1220 0.929 . S
C1179 C1176 1.356 . S
C1179 C1181 1.358 . S
C1179 H1221 0.930 . S
C1180 N1177 1.314 . S
C1180 C1178 1.353 . S
C1180 H1222 0.930 . S
C1181 N1177 1.279 . S
C1181 C1179 1.358 . S
C1181 H1223 0.930 . S
C1182 C1183 1.348 . S
C1182 C1184 1.356 . S
C1182 O1207 1.325 . S
C1183 C1182 1.348 . S
C1183 C1185 1.353 . S
C1183 H1224 0.929 . S
C1184 C1182 1.356 . S
C1184 C1186 1.358 . S
C1184 H1225 0.930 . S
C1185 C1183 1.353 . S
C1185 N1187 1.314 . S
C1185 H1226 0.930 . S
C1186 C1184 1.358 . S
C1186 N1187 1.279 . S
C1186 H1227 0.930 . S
N1187 C1185 1.314 . S
N1187 C1186 1.279 . S
C1188 C1190 1.353 . S
C1188 N1191 1.314 . S
C1188 H1194 0.930 . S
C1189 N1191 1.279 . S
C1189 C1192 1.358 . S
C1189 H1195 0.930 . S
C1190 C1188 1.353 . S
C1190 C1193 1.348 . S
C1190 H1228 0.929 . S
N1191 Li1146 1.990 . S
N1191 C1188 1.314 . S
N1191 C1189 1.279 . S
C1192 C1189 1.358 . S
C1192 C1193 1.356 . S
C1192 H1229 0.930 . S
C1193 C1190 1.348 . S
C1193 C1192 1.356 . S
H1194 C1188 0.930 . S
H1195 C1189 0.930 . S
C1196 N1197 1.276 1_655 S
C1196 C1198 1.391 . S
C1196 H1202 0.929 . S
N1197 Li1147 1.990 . S
N1197 C1196 1.276 1_455 S
N1197 C1200 1.279 . S
C1198 C1196 1.391 . S
C1198 C1201 1.348 . S
C1198 H1230 0.929 . S
C1199 C1200 1.358 1_655 S
C1199 C1201 1.356 . S
C1199 H1231 0.932 . S
C1200 N1197 1.279 . S
C1200 C1199 1.358 1_455 S
C1200 H1203 0.930 . S
C1201 C1198 1.348 . S
C1201 C1199 1.356 . S
H1202 C1196 0.929 . S
H1203 C1200 0.930 . S
O1204 Li1144 1.956 . S
O1204 Li1145 1.970 . S
O1204 Li1146 1.961 . S
O1204 C1148 1.325 . S
O1205 Li1144 1.970 . S
O1205 Li1145 1.956 . S
O1205 Li1147 1.961 . S
O1205 C1154 1.325 . S
O1206 Li1144 1.961 . S
O1206 Li1146 1.956 . S
O1206 Li1147 1.970 . S
O1206 C1176 1.325 . S
O1207 Li1145 1.961 . S
O1207 Li1146 1.970 . S
O1207 Li1147 1.956 . S
O1207 C1182 1.325 . S
H1208 C1150 0.929 . S
H1209 C1151 0.930 . S
H1210 C1152 0.930 . S
H1211 C1153 0.930 . S
H1212 C1155 0.930 . S
H1213 C1157 0.929 . S
H1214 C1158 0.930 . S
H1215 C1159 0.930 . S
H1216 C1162 0.930 . S
H1217 C1165 0.929 . S
H1218 C1170 0.929 . S
H1219 C1171 0.930 . S
H1220 C1178 0.929 . S
H1221 C1179 0.930 . S
H1222 C1180 0.930 . S
H1223 C1181 0.930 . S
H1224 C1183 0.929 . S
H1225 C1184 0.930 . S
H1226 C1185 0.930 . S
H1227 C1186 0.930 . S
H1228 C1190 0.929 . S
H1229 C1192 0.930 . S
H1230 C1198 0.929 . S
H1231 C1199 0.932 . S
Li1232 N1249 1.990 . S
Li1232 O1292 1.956 . S
Li1232 O1293 1.970 . S
Li1232 O1294 1.961 . S
Li1233 N1257 1.990 . S
Li1233 O1292 1.970 . S
Li1233 O1293 1.956 . S
Li1233 O1295 1.961 . S
Li1234 N1279 1.990 . S
Li1234 O1292 1.961 . S
Li1234 O1294 1.956 . S
Li1234 O1295 1.970 . S
Li1235 N1285 1.990 . S
Li1235 O1293 1.961 . S
Li1235 O1294 1.970 . S
Li1235 O1295 1.956 . S
C1236 C1238 1.348 . S
C1236 C1239 1.356 . S
C1236 O1292 1.325 . S
N1237 C1240 1.314 . S
N1237 C1241 1.279 . S
C1238 C1236 1.348 . S
C1238 C1240 1.353 . S
C1238 H1296 0.929 . S
C1239 C1236 1.356 . S
C1239 C1241 1.358 . S
C1239 H1297 0.930 . S
C1240 N1237 1.314 . S
C1240 C1238 1.353 . S
C1240 H1298 0.930 1_565 S
C1241 N1237 1.279 . S
C1241 C1239 1.358 . S
C1241 H1299 0.930 . S
C1242 C1245 1.348 . S
C1242 C1246 1.356 . S
C1242 O1293 1.325 . S
C1243 N1244 1.279 . S
C1243 C1246 1.358 . S
C1243 H1300 0.930 . S
N1244 C1243 1.279 . S
N1244 C1247 1.314 . S
C1245 C1242 1.348 . S
C1245 C1247 1.353 . S
C1245 H1301 0.929 . S
C1246 C1242 1.356 . S
C1246 C1243 1.358 . S
C1246 H1302 0.930 . S
C1247 N1244 1.314 . S
C1247 C1245 1.353 . S
C1247 H1303 0.930 . S
C1248 N1249 1.314 . S
C1248 C1253 1.353 . S
C1248 H1254 0.930 . S
N1249 Li1232 1.990 . S
N1249 C1248 1.314 . S
N1249 C1251 1.279 . S
C1250 C1251 1.358 . S
C1250 C1252 1.356 . S
C1250 H1304 0.930 . S
C1251 N1249 1.279 . S
C1251 C1250 1.358 . S
C1251 H1255 0.930 . S
C1252 C1250 1.356 . S
C1252 C1253 1.348 . S
C1253 C1248 1.353 . S
C1253 C1252 1.348 . S
C1253 H1305 0.929 . S
H1254 C1248 0.930 . S
H1255 C1251 0.930 . S
C1256 N1257 1.314 . S
C1256 C1258 1.353 1_565 S
C1256 H1262 0.930 . S
N1257 Li1233 1.990 . S
N1257 C1256 1.314 . S
N1257 C1260 1.276 1_565 S
C1258 C1256 1.353 1_545 S
C1258 C1261 1.348 . S
C1258 H1306 0.929 . S
C1259 C1260 1.362 . S
C1259 C1261 1.356 . S
C1259 H1307 0.930 . S
C1260 N1257 1.276 1_545 S
C1260 C1259 1.362 . S
C1260 H1263 0.930 1_545 S
C1261 C1258 1.348 . S
C1261 C1259 1.356 . S
H1262 C1256 0.930 . S
H1263 C1260 0.930 1_565 S
C1264 C1266 1.348 . S
C1264 C1267 1.356 . S
C1264 O1294 1.325 . S
N1265 C1268 1.314 . S
N1265 C1269 1.279 . S
C1266 C1264 1.348 . S
C1266 C1268 1.353 . S
C1266 H1308 0.929 . S
C1267 C1264 1.356 . S
C1267 C1269 1.358 . S
C1267 H1309 0.930 . S
C1268 N1265 1.314 . S
C1268 C1266 1.353 . S
C1268 H1310 0.930 . S
C1269 N1265 1.279 . S
C1269 C1267 1.358 . S
C1269 H1311 0.930 . S
C1270 C1271 1.348 . S
C1270 C1272 1.356 . S
C1270 O1295 1.325 . S
C1271 C1270 1.348 . S
C1271 C1273 1.353 . S
C1271 H1312 0.929 . S
C1272 C1270 1.356 . S
C1272 C1274 1.358 . S
C1272 H1313 0.930 . S
C1273 C1271 1.353 . S
C1273 N1275 1.314 . S
C1273 H1314 0.930 . S
C1274 C1272 1.358 . S
C1274 N1275 1.279 . S
C1274 H1315 0.930 . S
N1275 C1273 1.314 . S
N1275 C1274 1.279 . S
C1276 C1278 1.353 . S
C1276 N1279 1.314 . S
C1276 H1282 0.930 . S
C1277 N1279 1.279 . S
C1277 C1280 1.358 . S
C1277 H1283 0.930 . S
C1278 C1276 1.353 . S
C1278 C1281 1.348 . S
C1278 H1316 0.929 . S
N1279 Li1234 1.990 . S
N1279 C1276 1.314 . S
N1279 C1277 1.279 . S
C1280 C1277 1.358 . S
C1280 C1281 1.356 . S
C1280 H1317 0.930 . S
C1281 C1278 1.348 . S
C1281 C1280 1.356 . S
H1282 C1276 0.930 . S
H1283 C1277 0.930 . S
C1284 N1285 1.314 . S
C1284 C1286 1.353 . S
C1284 H1290 0.930 . S
N1285 Li1235 1.990 . S
N1285 C1284 1.314 . S
N1285 C1288 1.279 . S
C1286 C1284 1.353 . S
C1286 C1289 1.348 . S
C1286 H1318 0.929 . S
C1287 C1288 1.358 . S
C1287 C1289 1.356 . S
C1287 H1319 0.930 . S
C1288 N1285 1.279 . S
C1288 C1287 1.358 . S
C1288 H1291 0.930 . S
C1289 C1286 1.348 . S
C1289 C1287 1.356 . S
H1290 C1284 0.930 . S
H1291 C1288 0.930 . S
O1292 Li1232 1.956 . S
O1292 Li1233 1.970 . S
O1292 Li1234 1.961 . S
O1292 C1236 1.325 . S
O1293 Li1232 1.970 . S
O1293 Li1233 1.956 . S
O1293 Li1235 1.961 . S
O1293 C1242 1.325 . S
O1294 Li1232 1.961 . S
O1294 Li1234 1.956 . S
O1294 Li1235 1.970 . S
O1294 C1264 1.325 . S
O1295 Li1233 1.961 . S
O1295 Li1234 1.970 . S
O1295 Li1235 1.956 . S
O1295 C1270 1.325 . S
H1296 C1238 0.929 . S
H1297 C1239 0.930 . S
H1298 C1240 0.930 1_545 S
H1299 C1241 0.930 . S
H1300 C1243 0.930 . S
H1301 C1245 0.929 . S
H1302 C1246 0.930 . S
H1303 C1247 0.930 . S
H1304 C1250 0.930 . S
H1305 C1253 0.929 . S
H1306 C1258 0.929 . S
H1307 C1259 0.930 . S
H1308 C1266 0.929 . S
H1309 C1267 0.930 . S
H1310 C1268 0.930 . S
H1311 C1269 0.930 . S
H1312 C1271 0.929 . S
H1313 C1272 0.930 . S
H1314 C1273 0.930 . S
H1315 C1274 0.930 . S
H1316 C1278 0.929 . S
H1317 C1280 0.930 . S
H1318 C1286 0.929 . S
H1319 C1287 0.930 . S
Li1320 N1337 1.990 . S
Li1320 O1380 1.956 . S
Li1320 O1381 1.970 . S
Li1320 O1382 1.961 . S
Li1321 N1345 1.990 . S
Li1321 O1380 1.970 . S
Li1321 O1381 1.956 . S
Li1321 O1383 1.961 . S
Li1322 N1367 1.990 . S
Li1322 O1380 1.961 . S
Li1322 O1382 1.956 . S
Li1322 O1383 1.970 . S
Li1323 N1373 1.990 . S
Li1323 O1381 1.961 . S
Li1323 O1382 1.970 . S
Li1323 O1383 1.956 . S
C1324 C1326 1.348 . S
C1324 C1327 1.356 . S
C1324 O1380 1.325 . S
N1325 C1328 1.314 . S
N1325 C1329 1.279 . S
C1326 C1324 1.348 . S
C1326 C1328 1.353 . S
C1326 H1384 0.929 . S
C1327 C1324 1.356 . S
C1327 C1329 1.358 . S
C1327 H1385 0.930 . S
C1328 N1325 1.314 . S
C1328 C1326 1.353 . S
C1328 H1386 0.930 . S
C1329 N1325 1.279 . S
C1329 C1327 1.358 . S
C1329 H1387 0.930 . S
C1330 C1333 1.348 . S
C1330 C1334 1.356 . S
C1330 O1381 1.325 . S
C1331 N1332 1.279 . S
C1331 C1334 1.358 . S
C1331 H1388 0.930 . S
N1332 C1331 1.279 . S
N1332 C1335 1.314 . S
C1333 C1330 1.348 . S
C1333 C1335 1.353 . S
C1333 H1389 0.929 . S
C1334 C1330 1.356 . S
C1334 C1331 1.358 . S
C1334 H1390 0.930 . S
C1335 N1332 1.314 . S
C1335 C1333 1.353 . S
C1335 H1391 0.930 . S
C1336 N1337 1.314 . S
C1336 C1341 1.353 . S
C1336 H1342 0.930 . S
N1337 Li1320 1.990 . S
N1337 C1336 1.314 . S
N1337 C1339 1.279 . S
C1338 C1339 1.358 . S
C1338 C1340 1.356 . S
C1338 H1392 0.930 . S
C1339 N1337 1.279 . S
C1339 C1338 1.358 . S
C1339 H1343 0.930 . S
C1340 C1338 1.356 . S
C1340 C1341 1.348 . S
C1341 C1336 1.353 . S
C1341 C1340 1.348 . S
C1341 H1393 0.929 . S
H1342 C1336 0.930 . S
H1343 C1339 0.930 . S
C1344 N1345 1.314 . S
C1344 C1346 1.353 . S
C1344 H1350 0.930 . S
N1345 Li1321 1.990 . S
N1345 C1344 1.314 . S
N1345 C1348 1.279 . S
C1346 C1344 1.353 . S
C1346 C1349 1.348 . S
C1346 H1394 0.929 . S
C1347 C1348 1.358 . S
C1347 C1349 1.356 . S
C1347 H1395 0.930 . S
C1348 N1345 1.279 . S
C1348 C1347 1.358 . S
C1348 H1351 0.930 . S
C1349 C1346 1.348 . S
C1349 C1347 1.356 . S
H1350 C1344 0.930 . S
H1351 C1348 0.930 . S
C1352 C1354 1.348 . S
C1352 C1355 1.356 . S
C1352 O1382 1.325 . S
N1353 C1356 1.314 . S
N1353 C1357 1.279 . S
C1354 C1352 1.348 . S
C1354 C1356 1.353 . S
C1354 H1396 0.929 . S
C1355 C1352 1.356 . S
C1355 C1357 1.358 . S
C1355 H1397 0.930 . S
C1356 N1353 1.314 . S
C1356 C1354 1.353 . S
C1356 H1398 0.930 . S
C1357 N1353 1.279 . S
C1357 C1355 1.358 . S
C1357 H1399 0.930 . S
C1358 C1359 1.348 . S
C1358 C1360 1.356 . S
C1358 O1383 1.325 . S
C1359 C1358 1.348 . S
C1359 C1361 1.353 . S
C1359 H1400 0.929 . S
C1360 C1358 1.356 . S
C1360 C1362 1.358 . S
C1360 H1401 0.930 . S
C1361 C1359 1.353 . S
C1361 N1363 1.314 . S
C1361 H1402 0.930 . S
C1362 C1360 1.358 . S
C1362 N1363 1.279 . S
C1362 H1403 0.930 . S
N1363 C1361 1.314 . S
N1363 C1362 1.279 . S
C1364 C1366 1.391 . S
C1364 N1367 1.276 1_455 S
C1364 H1370 0.929 . S
C1365 N1367 1.279 . S
C1365 C1368 1.358 1_655 S
C1365 H1371 0.930 . S
C1366 C1364 1.391 . S
C1366 C1369 1.348 . S
C1366 H1404 0.929 . S
N1367 Li1322 1.990 . S
N1367 C1364 1.276 1_655 S
N1367 C1365 1.279 . S
C1368 C1365 1.358 1_455 S
C1368 C1369 1.356 . S
C1368 H1405 0.932 . S
C1369 C1366 1.348 . S
C1369 C1368 1.356 . S
H1370 C1364 0.929 . S
H1371 C1365 0.930 . S
C1372 N1373 1.314 . S
C1372 C1374 1.353 . S
C1372 H1378 0.930 . S
N1373 Li1323 1.990 . S
N1373 C1372 1.314 . S
N1373 C1376 1.279 . S
C1374 C1372 1.353 . S
C1374 C1377 1.348 . S
C1374 H1406 0.929 . S
C1375 C1376 1.358 . S
C1375 C1377 1.356 . S
C1375 H1407 0.930 . S
C1376 N1373 1.279 . S
C1376 C1375 1.358 . S
C1376 H1379 0.930 . S
C1377 C1374 1.348 . S
C1377 C1375 1.356 . S
H1378 C1372 0.930 . S
H1379 C1376 0.930 . S
O1380 Li1320 1.956 . S
O1380 Li1321 1.970 . S
O1380 Li1322 1.961 . S
O1380 C1324 1.325 . S
O1381 Li1320 1.970 . S
O1381 Li1321 1.956 . S
O1381 Li1323 1.961 . S
O1381 C1330 1.325 . S
O1382 Li1320 1.961 . S
O1382 Li1322 1.956 . S
O1382 Li1323 1.970 . S
O1382 C1352 1.325 . S
O1383 Li1321 1.961 . S
O1383 Li1322 1.970 . S
O1383 Li1323 1.956 . S
O1383 C1358 1.325 . S
H1384 C1326 0.929 . S
H1385 C1327 0.930 . S
H1386 C1328 0.930 . S
H1387 C1329 0.930 . S
H1388 C1331 0.930 . S
H1389 C1333 0.929 . S
H1390 C1334 0.930 . S
H1391 C1335 0.930 . S
H1392 C1338 0.930 . S
H1393 C1341 0.929 . S
H1394 C1346 0.929 . S
H1395 C1347 0.930 . S
H1396 C1354 0.929 . S
H1397 C1355 0.930 . S
H1398 C1356 0.930 . S
H1399 C1357 0.930 . S
H1400 C1359 0.929 . S
H1401 C1360 0.930 . S
H1402 C1361 0.930 . S
H1403 C1362 0.930 . S
H1404 C1366 0.929 . S
H1405 C1368 0.932 . S
H1406 C1374 0.929 . S
H1407 C1375 0.930 . S
C1408 C1409 1.349 . S
C1408 C1410 1.327 . S
C1408 H1433 0.950 . S
C1409 C1408 1.349 . S
C1409 C1425 1.349 . S
C1410 C1408 1.327 . S
C1410 C1429 1.429 . S
C1410 H1434 0.950 . S
C1411 C1428 1.574 . S
C1411 C1430 1.368 . S
C1411 H1435 0.949 . S
H1412 C1416 0.949 . S
C1413 C1414 1.349 . S
C1413 C1415 1.327 . S
C1413 H1436 0.950 . S
C1414 C1413 1.349 . S
C1414 C1426 1.349 . S
C1415 C1413 1.327 . S
C1415 C1431 1.429 . S
C1415 H1437 0.950 . S
C1416 H1412 0.949 . S
C1416 C1424 1.574 . S
C1416 C1432 1.368 . S
H1417 C1425 0.950 . S
H1418 C1423 0.950 . S
H1419 C1424 0.949 . S
H1420 C1426 0.950 . S
H1421 C1427 0.950 . S
H1422 C1428 0.949 . S
C1423 H1418 0.950 . S
C1423 C1425 1.327 . S
C1423 C1429 1.429 . S
C1424 C1416 1.574 . S
C1424 H1419 0.949 . S
C1424 C1430 1.368 . S
C1425 C1409 1.349 . S
C1425 H1417 0.950 . S
C1425 C1423 1.327 . S
C1426 C1414 1.349 . S
C1426 H1420 0.950 . S
C1426 C1427 1.327 . S
C1427 H1421 0.950 . S
C1427 C1426 1.327 . S
C1427 C1431 1.429 . S
C1428 C1411 1.574 . S
C1428 H1422 0.949 . S
C1428 C1432 1.368 . S
C1429 C1410 1.429 . S
C1429 C1423 1.429 . S
C1429 C1430 1.523 . S
C1430 C1411 1.368 . S
C1430 C1424 1.368 . S
C1430 C1429 1.523 . S
C1431 C1415 1.429 . S
C1431 C1427 1.429 . S
C1431 C1432 1.523 . S
C1432 C1416 1.368 . S
C1432 C1428 1.368 . S
C1432 C1431 1.523 . S
H1433 C1408 0.950 . S
H1434 C1410 0.950 . S
H1435 C1411 0.949 . S
H1436 C1413 0.950 . S
H1437 C1415 0.950 . S
C1438 C1439 1.349 . S
C1438 C1440 1.327 . S
C1438 H1463 0.950 . S
C1439 C1438 1.349 . S
C1439 C1455 1.349 . S
C1440 C1438 1.327 . S
C1440 C1459 1.429 . S
C1440 H1464 0.950 . S
C1441 C1458 1.574 . S
C1441 C1460 1.368 . S
C1441 H1465 0.949 . S
H1442 C1446 0.949 . S
C1443 C1444 1.349 . S
C1443 C1445 1.327 . S
C1443 H1466 0.950 . S
C1444 C1443 1.349 . S
C1444 C1456 1.349 . S
C1445 C1443 1.327 . S
C1445 C1461 1.429 . S
C1445 H1467 0.950 . S
C1446 H1442 0.949 . S
C1446 C1454 1.574 . S
C1446 C1462 1.368 . S
H1447 C1455 0.950 . S
H1448 C1453 0.950 . S
H1449 C1454 0.949 . S
H1450 C1456 0.950 . S
H1451 C1457 0.950 . S
H1452 C1458 0.949 . S
C1453 H1448 0.950 . S
C1453 C1455 1.327 . S
C1453 C1459 1.429 . S
C1454 C1446 1.574 . S
C1454 H1449 0.949 . S
C1454 C1460 1.368 . S
C1455 C1439 1.349 . S
C1455 H1447 0.950 . S
C1455 C1453 1.327 . S
C1456 C1444 1.349 . S
C1456 H1450 0.950 . S
C1456 C1457 1.327 . S
C1457 H1451 0.950 . S
C1457 C1456 1.327 . S
C1457 C1461 1.429 . S
C1458 C1441 1.574 . S
C1458 H1452 0.949 . S
C1458 C1462 1.368 . S
C1459 C1440 1.429 . S
C1459 C1453 1.429 . S
C1459 C1460 1.523 . S
C1460 C1441 1.368 . S
C1460 C1454 1.368 . S
C1460 C1459 1.523 . S
C1461 C1445 1.429 . S
C1461 C1457 1.429 . S
C1461 C1462 1.523 . S
C1462 C1446 1.368 . S
C1462 C1458 1.368 . S
C1462 C1461 1.523 . S
H1463 C1438 0.950 . S
H1464 C1440 0.950 . S
H1465 C1441 0.949 . S
H1466 C1443 0.950 . S
H1467 C1445 0.950 . S
C1468 C1469 1.349 . S
C1468 C1470 1.327 . S
C1468 H1493 0.950 . S
C1469 C1468 1.349 . S
C1469 C1485 1.349 . S
C1470 C1468 1.327 . S
C1470 C1489 1.429 . S
C1470 H1494 0.950 . S
C1471 C1488 1.574 . S
C1471 C1490 1.368 . S
C1471 H1495 0.949 . S
H1472 C1476 0.949 . S
C1473 C1474 1.349 . S
C1473 C1475 1.327 . S
C1473 H1496 0.950 . S
C1474 C1473 1.349 . S
C1474 C1486 1.349 . S
C1475 C1473 1.327 . S
C1475 C1491 1.429 . S
C1475 H1497 0.950 . S
C1476 H1472 0.949 . S
C1476 C1484 1.574 . S
C1476 C1492 1.368 . S
H1477 C1485 0.950 . S
H1478 C1483 0.950 . S
H1479 C1484 0.949 . S
H1480 C1486 0.950 . S
H1481 C1487 0.950 . S
H1482 C1488 0.949 . S
C1483 H1478 0.950 . S
C1483 C1485 1.327 . S
C1483 C1489 1.429 . S
C1484 C1476 1.574 . S
C1484 H1479 0.949 . S
C1484 C1490 1.368 . S
C1485 C1469 1.349 . S
C1485 H1477 0.950 . S
C1485 C1483 1.327 . S
C1486 C1474 1.349 . S
C1486 H1480 0.950 . S
C1486 C1487 1.327 . S
C1487 H1481 0.950 . S
C1487 C1486 1.327 . S
C1487 C1491 1.429 . S
C1488 C1471 1.574 . S
C1488 H1482 0.949 . S
C1488 C1492 1.368 . S
C1489 C1470 1.429 . S
C1489 C1483 1.429 . S
C1489 C1490 1.523 . S
C1490 C1471 1.368 . S
C1490 C1484 1.368 . S
C1490 C1489 1.523 . S
C1491 C1475 1.429 . S
C1491 C1487 1.429 . S
C1491 C1492 1.523 . S
C1492 C1476 1.368 . S
C1492 C1488 1.368 . S
C1492 C1491 1.523 . S
H1493 C1468 0.950 . S
H1494 C1470 0.950 . S
H1495 C1471 0.949 . S
H1496 C1473 0.950 . S
H1497 C1475 0.950 . S
C1498 C1499 1.349 . S
C1498 C1500 1.327 . S
C1498 H1523 0.950 . S
C1499 C1498 1.349 . S
C1499 C1515 1.349 . S
C1500 C1498 1.327 . S
C1500 C1519 1.429 . S
C1500 H1524 0.950 . S
C1501 C1518 1.574 . S
C1501 C1520 1.368 . S
C1501 H1525 0.949 . S
H1502 C1506 0.949 . S
C1503 C1504 1.349 . S
C1503 C1505 1.327 . S
C1503 H1526 0.950 . S
C1504 C1503 1.349 . S
C1504 C1516 1.349 . S
C1505 C1503 1.327 . S
C1505 C1521 1.429 . S
C1505 H1527 0.950 . S
C1506 H1502 0.949 . S
C1506 C1514 1.574 . S
C1506 C1522 1.368 . S
H1507 C1515 0.950 . S
H1508 C1513 0.950 . S
H1509 C1514 0.949 . S
H1510 C1516 0.950 . S
H1511 C1517 0.950 . S
H1512 C1518 0.949 . S
C1513 H1508 0.950 . S
C1513 C1515 1.327 . S
C1513 C1519 1.429 . S
C1514 C1506 1.574 . S
C1514 H1509 0.949 . S
C1514 C1520 1.368 . S
C1515 C1499 1.349 . S
C1515 H1507 0.950 . S
C1515 C1513 1.327 . S
C1516 C1504 1.349 . S
C1516 H1510 0.950 . S
C1516 C1517 1.327 . S
C1517 H1511 0.950 . S
C1517 C1516 1.327 . S
C1517 C1521 1.429 . S
C1518 C1501 1.574 . S
C1518 H1512 0.949 . S
C1518 C1522 1.368 . S
C1519 C1500 1.429 . S
C1519 C1513 1.429 . S
C1519 C1520 1.523 . S
C1520 C1501 1.368 . S
C1520 C1514 1.368 . S
C1520 C1519 1.523 . S
C1521 C1505 1.429 . S
C1521 C1517 1.429 . S
C1521 C1522 1.523 . S
C1522 C1506 1.368 . S
C1522 C1518 1.368 . S
C1522 C1521 1.523 . S
H1523 C1498 0.950 . S
H1524 C1500 0.950 . S
H1525 C1501 0.949 . S
H1526 C1503 0.950 . S
H1527 C1505 0.950 . S
C1528 C1529 1.349 . S
C1528 C1530 1.327 . S
C1528 H1553 0.950 . S
C1529 C1528 1.349 . S
C1529 C1545 1.349 . S
C1530 C1528 1.327 . S
C1530 C1549 1.429 . S
C1530 H1554 0.950 . S
C1531 C1548 1.574 . S
C1531 C1550 1.368 . S
C1531 H1555 0.949 . S
H1532 C1536 0.949 . S
C1533 C1534 1.349 . S
C1533 C1535 1.327 . S
C1533 H1556 0.950 . S
C1534 C1533 1.349 . S
C1534 C1546 1.349 . S
C1535 C1533 1.327 . S
C1535 C1551 1.429 . S
C1535 H1557 0.950 . S
C1536 H1532 0.949 . S
C1536 C1544 1.574 . S
C1536 C1552 1.368 . S
H1537 C1545 0.950 . S
H1538 C1543 0.950 . S
H1539 C1544 0.949 . S
H1540 C1546 0.950 . S
H1541 C1547 0.950 . S
H1542 C1548 0.949 . S
C1543 H1538 0.950 . S
C1543 C1545 1.327 . S
C1543 C1549 1.429 . S
C1544 C1536 1.574 . S
C1544 H1539 0.949 . S
C1544 C1550 1.368 . S
C1545 C1529 1.349 . S
C1545 H1537 0.950 . S
C1545 C1543 1.327 . S
C1546 C1534 1.349 . S
C1546 H1540 0.950 . S
C1546 C1547 1.327 . S
C1547 H1541 0.950 . S
C1547 C1546 1.327 . S
C1547 C1551 1.429 . S
C1548 C1531 1.574 . S
C1548 H1542 0.949 . S
C1548 C1552 1.368 . S
C1549 C1530 1.429 . S
C1549 C1543 1.429 . S
C1549 C1550 1.523 . S
C1550 C1531 1.368 . S
C1550 C1544 1.368 . S
C1550 C1549 1.523 . S
C1551 C1535 1.429 . S
C1551 C1547 1.429 . S
C1551 C1552 1.523 . S
C1552 C1536 1.368 . S
C1552 C1548 1.368 . S
C1552 C1551 1.523 . S
H1553 C1528 0.950 . S
H1554 C1530 0.950 . S
H1555 C1531 0.949 . S
H1556 C1533 0.950 . S
H1557 C1535 0.950 . S
C1558 C1559 1.349 . S
C1558 C1560 1.327 . S
C1558 H1583 0.950 . S
C1559 C1558 1.349 . S
C1559 C1575 1.349 . S
C1560 C1558 1.327 . S
C1560 C1579 1.429 . S
C1560 H1584 0.950 . S
C1561 C1578 1.574 . S
C1561 C1580 1.368 . S
C1561 H1585 0.949 . S
H1562 C1566 0.949 . S
C1563 C1564 1.349 . S
C1563 C1565 1.327 . S
C1563 H1586 0.950 . S
C1564 C1563 1.349 . S
C1564 C1576 1.349 . S
C1565 C1563 1.327 . S
C1565 C1581 1.429 . S
C1565 H1587 0.950 . S
C1566 H1562 0.949 . S
C1566 C1574 1.574 . S
C1566 C1582 1.368 . S
H1567 C1575 0.950 . S
H1568 C1573 0.950 . S
H1569 C1574 0.949 . S
H1570 C1576 0.950 . S
H1571 C1577 0.950 . S
H1572 C1578 0.949 . S
C1573 H1568 0.950 . S
C1573 C1575 1.327 . S
C1573 C1579 1.429 . S
C1574 C1566 1.574 . S
C1574 H1569 0.949 . S
C1574 C1580 1.368 . S
C1575 C1559 1.349 . S
C1575 H1567 0.950 . S
C1575 C1573 1.327 . S
C1576 C1564 1.349 . S
C1576 H1570 0.950 . S
C1576 C1577 1.327 . S
C1577 H1571 0.950 . S
C1577 C1576 1.327 . S
C1577 C1581 1.429 . S
C1578 C1561 1.574 . S
C1578 H1572 0.949 . S
C1578 C1582 1.368 . S
C1579 C1560 1.429 . S
C1579 C1573 1.429 . S
C1579 C1580 1.523 . S
C1580 C1561 1.368 . S
C1580 C1574 1.368 . S
C1580 C1579 1.523 . S
C1581 C1565 1.429 . S
C1581 C1577 1.429 . S
C1581 C1582 1.523 . S
C1582 C1566 1.368 . S
C1582 C1578 1.368 . S
C1582 C1581 1.523 . S
H1583 C1558 0.950 . S
H1584 C1560 0.950 . S
H1585 C1561 0.949 . S
H1586 C1563 0.950 . S
H1587 C1565 0.950 . S
C1588 C1589 1.349 . S
C1588 C1590 1.327 . S
C1588 H1613 0.950 . S
C1589 C1588 1.349 . S
C1589 C1605 1.349 . S
C1590 C1588 1.327 . S
C1590 C1609 1.429 . S
C1590 H1614 0.950 . S
C1591 C1608 1.574 . S
C1591 C1610 1.368 . S
C1591 H1615 0.949 . S
H1592 C1596 0.949 . S
C1593 C1594 1.349 . S
C1593 C1595 1.327 . S
C1593 H1616 0.950 . S
C1594 C1593 1.349 . S
C1594 C1606 1.349 . S
C1595 C1593 1.327 . S
C1595 C1611 1.429 . S
C1595 H1617 0.950 . S
C1596 H1592 0.949 . S
C1596 C1604 1.574 . S
C1596 C1612 1.368 . S
H1597 C1605 0.950 . S
H1598 C1603 0.950 . S
H1599 C1604 0.949 . S
H1600 C1606 0.950 . S
H1601 C1607 0.950 . S
H1602 C1608 0.949 . S
C1603 H1598 0.950 . S
C1603 C1605 1.327 . S
C1603 C1609 1.429 . S
C1604 C1596 1.574 . S
C1604 H1599 0.949 . S
C1604 C1610 1.368 . S
C1605 C1589 1.349 . S
C1605 H1597 0.950 . S
C1605 C1603 1.327 . S
C1606 C1594 1.349 . S
C1606 H1600 0.950 . S
C1606 C1607 1.327 . S
C1607 H1601 0.950 . S
C1607 C1606 1.327 . S
C1607 C1611 1.429 . S
C1608 C1591 1.574 . S
C1608 H1602 0.949 . S
C1608 C1612 1.368 . S
C1609 C1590 1.429 . S
C1609 C1603 1.429 . S
C1609 C1610 1.523 . S
C1610 C1591 1.368 . S
C1610 C1604 1.368 . S
C1610 C1609 1.523 . S
C1611 C1595 1.429 . S
C1611 C1607 1.429 . S
C1611 C1612 1.523 . S
C1612 C1596 1.368 . S
C1612 C1608 1.368 . S
C1612 C1611 1.523 . S
H1613 C1588 0.950 . S
H1614 C1590 0.950 . S
H1615 C1591 0.949 . S
H1616 C1593 0.950 . S
H1617 C1595 0.950 . S
C1618 C1619 1.349 . S
C1618 C1620 1.327 . S
C1618 H1643 0.950 . S
C1619 C1618 1.349 . S
C1619 C1635 1.349 . S
C1620 C1618 1.327 . S
C1620 C1639 1.429 . S
C1620 H1644 0.950 . S
C1621 C1638 1.574 . S
C1621 C1640 1.368 . S
C1621 H1645 0.949 . S
H1622 C1626 0.949 . S
C1623 C1624 1.349 . S
C1623 C1625 1.327 . S
C1623 H1646 0.950 . S
C1624 C1623 1.349 . S
C1624 C1636 1.349 . S
C1625 C1623 1.327 . S
C1625 C1641 1.429 . S
C1625 H1647 0.950 . S
C1626 H1622 0.949 . S
C1626 C1634 1.574 . S
C1626 C1642 1.368 . S
H1627 C1635 0.950 . S
H1628 C1633 0.950 . S
H1629 C1634 0.949 . S
H1630 C1636 0.950 . S
H1631 C1637 0.950 . S
H1632 C1638 0.949 . S
C1633 H1628 0.950 . S
C1633 C1635 1.327 . S
C1633 C1639 1.429 . S
C1634 C1626 1.574 . S
C1634 H1629 0.949 . S
C1634 C1640 1.368 . S
C1635 C1619 1.349 . S
C1635 H1627 0.950 . S
C1635 C1633 1.327 . S
C1636 C1624 1.349 . S
C1636 H1630 0.950 . S
C1636 C1637 1.327 . S
C1637 H1631 0.950 . S
C1637 C1636 1.327 . S
C1637 C1641 1.429 . S
C1638 C1621 1.574 . S
C1638 H1632 0.949 . S
C1638 C1642 1.368 . S
C1639 C1620 1.429 . S
C1639 C1633 1.429 . S
C1639 C1640 1.523 . S
C1640 C1621 1.368 . S
C1640 C1634 1.368 . S
C1640 C1639 1.523 . S
C1641 C1625 1.429 . S
C1641 C1637 1.429 . S
C1641 C1642 1.523 . S
C1642 C1626 1.368 . S
C1642 C1638 1.368 . S
C1642 C1641 1.523 . S
H1643 C1618 0.950 . S
H1644 C1620 0.950 . S
H1645 C1621 0.949 . S
H1646 C1623 0.950 . S
H1647 C1625 0.950 . S
C1648 C1649 1.349 . S
C1648 C1650 1.327 . S
C1648 H1673 0.950 . S
C1649 C1648 1.349 . S
C1649 C1665 1.349 . S
C1650 C1648 1.327 . S
C1650 C1669 1.429 . S
C1650 H1674 0.950 . S
C1651 C1668 1.574 . S
C1651 C1670 1.368 . S
C1651 H1675 0.949 . S
H1652 C1656 0.949 . S
C1653 C1654 1.349 . S
C1653 C1655 1.327 . S
C1653 H1676 0.950 . S
C1654 C1653 1.349 . S
C1654 C1666 1.349 . S
C1655 C1653 1.327 . S
C1655 C1671 1.429 . S
C1655 H1677 0.950 . S
C1656 H1652 0.949 . S
C1656 C1664 1.574 . S
C1656 C1672 1.368 . S
H1657 C1665 0.950 . S
H1658 C1663 0.950 . S
H1659 C1664 0.949 . S
H1660 C1666 0.950 . S
H1661 C1667 0.950 . S
H1662 C1668 0.949 . S
C1663 H1658 0.950 . S
C1663 C1665 1.327 . S
C1663 C1669 1.429 . S
C1664 C1656 1.574 . S
C1664 H1659 0.949 . S
C1664 C1670 1.368 . S
C1665 C1649 1.349 . S
C1665 H1657 0.950 . S
C1665 C1663 1.327 . S
C1666 C1654 1.349 . S
C1666 H1660 0.950 . S
C1666 C1667 1.327 . S
C1667 H1661 0.950 . S
C1667 C1666 1.327 . S
C1667 C1671 1.429 . S
C1668 C1651 1.574 . S
C1668 H1662 0.949 . S
C1668 C1672 1.368 . S
C1669 C1650 1.429 . S
C1669 C1663 1.429 . S
C1669 C1670 1.523 . S
C1670 C1651 1.368 . S
C1670 C1664 1.368 . S
C1670 C1669 1.523 . S
C1671 C1655 1.429 . S
C1671 C1667 1.429 . S
C1671 C1672 1.523 . S
C1672 C1656 1.368 . S
C1672 C1668 1.368 . S
C1672 C1671 1.523 . S
H1673 C1648 0.950 . S
H1674 C1650 0.950 . S
H1675 C1651 0.949 . S
H1676 C1653 0.950 . S
H1677 C1655 0.950 . S
C1678 C1679 1.349 . S
C1678 C1680 1.327 . S
C1678 H1703 0.950 . S
C1679 C1678 1.349 . S
C1679 C1695 1.349 . S
C1680 C1678 1.327 . S
C1680 C1699 1.429 . S
C1680 H1704 0.950 . S
C1681 C1698 1.574 . S
C1681 C1700 1.368 . S
C1681 H1705 0.949 . S
H1682 C1686 0.949 . S
C1683 C1684 1.349 . S
C1683 C1685 1.327 . S
C1683 H1706 0.950 . S
C1684 C1683 1.349 . S
C1684 C1696 1.349 . S
C1685 C1683 1.327 . S
C1685 C1701 1.429 . S
C1685 H1707 0.950 . S
C1686 H1682 0.949 . S
C1686 C1694 1.574 . S
C1686 C1702 1.368 . S
H1687 C1695 0.950 . S
H1688 C1693 0.950 . S
H1689 C1694 0.949 . S
H1690 C1696 0.950 . S
H1691 C1697 0.950 . S
H1692 C1698 0.949 . S
C1693 H1688 0.950 . S
C1693 C1695 1.327 . S
C1693 C1699 1.429 . S
C1694 C1686 1.574 . S
C1694 H1689 0.949 . S
C1694 C1700 1.368 . S
C1695 C1679 1.349 . S
C1695 H1687 0.950 . S
C1695 C1693 1.327 . S
C1696 C1684 1.349 . S
C1696 H1690 0.950 . S
C1696 C1697 1.327 . S
C1697 H1691 0.950 . S
C1697 C1696 1.327 . S
C1697 C1701 1.429 . S
C1698 C1681 1.574 . S
C1698 H1692 0.949 . S
C1698 C1702 1.368 . S
C1699 C1680 1.429 . S
C1699 C1693 1.429 . S
C1699 C1700 1.523 . S
C1700 C1681 1.368 . S
C1700 C1694 1.368 . S
C1700 C1699 1.523 . S
C1701 C1685 1.429 . S
C1701 C1697 1.429 . S
C1701 C1702 1.523 . S
C1702 C1686 1.368 . S
C1702 C1698 1.368 . S
C1702 C1701 1.523 . S
H1703 C1678 0.950 . S
H1704 C1680 0.950 . S
H1705 C1681 0.949 . S
H1706 C1683 0.950 . S
H1707 C1685 0.950 . S
C1708 C1709 1.349 . S
C1708 C1710 1.327 . S
C1708 H1733 0.950 . S
C1709 C1708 1.349 . S
C1709 C1725 1.349 . S
C1710 C1708 1.327 . S
C1710 C1729 1.429 . S
C1710 H1734 0.950 . S
C1711 C1728 1.574 . S
C1711 C1730 1.368 . S
C1711 H1735 0.949 . S
H1712 C1716 0.949 . S
C1713 C1714 1.349 . S
C1713 C1715 1.327 . S
C1713 H1736 0.950 . S
C1714 C1713 1.349 . S
C1714 C1726 1.349 . S
C1715 C1713 1.327 . S
C1715 C1731 1.429 . S
C1715 H1737 0.950 . S
C1716 H1712 0.949 . S
C1716 C1724 1.574 . S
C1716 C1732 1.368 . S
H1717 C1725 0.950 . S
H1718 C1723 0.950 . S
H1719 C1724 0.949 . S
H1720 C1726 0.950 . S
H1721 C1727 0.950 . S
H1722 C1728 0.949 . S
C1723 H1718 0.950 . S
C1723 C1725 1.327 . S
C1723 C1729 1.429 . S
C1724 C1716 1.574 . S
C1724 H1719 0.949 . S
C1724 C1730 1.368 . S
C1725 C1709 1.349 . S
C1725 H1717 0.950 . S
C1725 C1723 1.327 . S
C1726 C1714 1.349 . S
C1726 H1720 0.950 . S
C1726 C1727 1.327 . S
C1727 H1721 0.950 . S
C1727 C1726 1.327 . S
C1727 C1731 1.429 . S
C1728 C1711 1.574 . S
C1728 H1722 0.949 . S
C1728 C1732 1.368 . S
C1729 C1710 1.429 . S
C1729 C1723 1.429 . S
C1729 C1730 1.523 . S
C1730 C1711 1.368 . S
C1730 C1724 1.368 . S
C1730 C1729 1.523 . S
C1731 C1715 1.429 . S
C1731 C1727 1.429 . S
C1731 C1732 1.523 . S
C1732 C1716 1.368 . S
C1732 C1728 1.368 . S
C1732 C1731 1.523 . S
H1733 C1708 0.950 . S
H1734 C1710 0.950 . S
H1735 C1711 0.949 . S
H1736 C1713 0.950 . S
H1737 C1715 0.950 . S
C1738 C1739 1.349 . S
C1738 C1740 1.327 . S
C1738 H1763 0.950 . S
C1739 C1738 1.349 . S
C1739 C1755 1.349 . S
C1740 C1738 1.327 . S
C1740 C1759 1.429 . S
C1740 H1764 0.950 . S
C1741 C1758 1.574 . S
C1741 C1760 1.368 . S
C1741 H1765 0.949 . S
H1742 C1746 0.949 . S
C1743 C1744 1.349 . S
C1743 C1745 1.327 . S
C1743 H1766 0.950 . S
C1744 C1743 1.349 . S
C1744 C1756 1.349 . S
C1745 C1743 1.327 . S
C1745 C1761 1.429 . S
C1745 H1767 0.950 . S
C1746 H1742 0.949 . S
C1746 C1754 1.574 . S
C1746 C1762 1.368 . S
H1747 C1755 0.950 . S
H1748 C1753 0.950 . S
H1749 C1754 0.949 . S
H1750 C1756 0.950 . S
H1751 C1757 0.950 . S
H1752 C1758 0.949 . S
C1753 H1748 0.950 . S
C1753 C1755 1.327 . S
C1753 C1759 1.429 . S
C1754 C1746 1.574 . S
C1754 H1749 0.949 . S
C1754 C1760 1.368 . S
C1755 C1739 1.349 . S
C1755 H1747 0.950 . S
C1755 C1753 1.327 . S
C1756 C1744 1.349 . S
C1756 H1750 0.950 . S
C1756 C1757 1.327 . S
C1757 H1751 0.950 . S
C1757 C1756 1.327 . S
C1757 C1761 1.429 . S
C1758 C1741 1.574 . S
C1758 H1752 0.949 . S
C1758 C1762 1.368 . S
C1759 C1740 1.429 . S
C1759 C1753 1.429 . S
C1759 C1760 1.523 . S
C1760 C1741 1.368 . S
C1760 C1754 1.368 . S
C1760 C1759 1.523 . S
C1761 C1745 1.429 . S
C1761 C1757 1.429 . S
C1761 C1762 1.523 . S
C1762 C1746 1.368 . S
C1762 C1758 1.368 . S
C1762 C1761 1.523 . S
H1763 C1738 0.950 . S
H1764 C1740 0.950 . S
H1765 C1741 0.949 . S
H1766 C1743 0.950 . S
H1767 C1745 0.950 . S
C1768 C1769 1.349 . S
C1768 C1770 1.327 . S
C1768 H1793 0.950 . S
C1769 C1768 1.349 . S
C1769 C1785 1.349 . S
C1770 C1768 1.327 . S
C1770 C1789 1.429 . S
C1770 H1794 0.950 . S
C1771 C1788 1.574 . S
C1771 C1790 1.368 . S
C1771 H1795 0.949 . S
H1772 C1776 0.949 . S
C1773 C1774 1.349 . S
C1773 C1775 1.327 . S
C1773 H1796 0.950 . S
C1774 C1773 1.349 . S
C1774 C1786 1.349 . S
C1775 C1773 1.327 . S
C1775 C1791 1.429 . S
C1775 H1797 0.950 . S
C1776 H1772 0.949 . S
C1776 C1784 1.574 . S
C1776 C1792 1.368 . S
H1777 C1785 0.950 . S
H1778 C1783 0.950 . S
H1779 C1784 0.949 . S
H1780 C1786 0.950 . S
H1781 C1787 0.950 . S
H1782 C1788 0.949 . S
C1783 H1778 0.950 . S
C1783 C1785 1.327 . S
C1783 C1789 1.429 . S
C1784 C1776 1.574 . S
C1784 H1779 0.949 . S
C1784 C1790 1.368 . S
C1785 C1769 1.349 . S
C1785 H1777 0.950 . S
C1785 C1783 1.327 . S
C1786 C1774 1.349 . S
C1786 H1780 0.950 . S
C1786 C1787 1.327 . S
C1787 H1781 0.950 . S
C1787 C1786 1.327 . S
C1787 C1791 1.429 . S
C1788 C1771 1.574 . S
C1788 H1782 0.949 . S
C1788 C1792 1.368 . S
C1789 C1770 1.429 . S
C1789 C1783 1.429 . S
C1789 C1790 1.523 . S
C1790 C1771 1.368 . S
C1790 C1784 1.368 . S
C1790 C1789 1.523 . S
C1791 C1775 1.429 . S
C1791 C1787 1.429 . S
C1791 C1792 1.523 . S
C1792 C1776 1.368 . S
C1792 C1788 1.368 . S
C1792 C1791 1.523 . S
H1793 C1768 0.950 . S
H1794 C1770 0.950 . S
H1795 C1771 0.949 . S
H1796 C1773 0.950 . S
H1797 C1775 0.950 . S
C1798 C1799 1.349 . S
C1798 C1800 1.327 . S
C1798 H1823 0.950 . S
C1799 C1798 1.349 . S
C1799 C1815 1.349 . S
C1800 C1798 1.327 . S
C1800 C1819 1.429 . S
C1800 H1824 0.950 . S
C1801 C1818 1.574 . S
C1801 C1820 1.368 . S
C1801 H1825 0.949 . S
H1802 C1806 0.949 . S
C1803 C1804 1.349 . S
C1803 C1805 1.327 . S
C1803 H1826 0.950 . S
C1804 C1803 1.349 . S
C1804 C1816 1.349 . S
C1805 C1803 1.327 . S
C1805 C1821 1.429 . S
C1805 H1827 0.950 . S
C1806 H1802 0.949 . S
C1806 C1814 1.574 . S
C1806 C1822 1.368 . S
H1807 C1815 0.950 . S
H1808 C1813 0.950 . S
H1809 C1814 0.949 . S
H1810 C1816 0.950 . S
H1811 C1817 0.950 . S
H1812 C1818 0.949 . S
C1813 H1808 0.950 . S
C1813 C1815 1.327 . S
C1813 C1819 1.429 . S
C1814 C1806 1.574 . S
C1814 H1809 0.949 . S
C1814 C1820 1.368 . S
C1815 C1799 1.349 . S
C1815 H1807 0.950 . S
C1815 C1813 1.327 . S
C1816 C1804 1.349 . S
C1816 H1810 0.950 . S
C1816 C1817 1.327 . S
C1817 H1811 0.950 . S
C1817 C1816 1.327 . S
C1817 C1821 1.429 . S
C1818 C1801 1.574 . S
C1818 H1812 0.949 . S
C1818 C1822 1.368 . S
C1819 C1800 1.429 . S
C1819 C1813 1.429 . S
C1819 C1820 1.523 . S
C1820 C1801 1.368 . S
C1820 C1814 1.368 . S
C1820 C1819 1.523 . S
C1821 C1805 1.429 . S
C1821 C1817 1.429 . S
C1821 C1822 1.523 . S
C1822 C1806 1.368 . S
C1822 C1818 1.368 . S
C1822 C1821 1.523 . S
H1823 C1798 0.950 . S
H1824 C1800 0.950 . S
H1825 C1801 0.949 . S
H1826 C1803 0.950 . S
H1827 C1805 0.950 . S
C1828 C1829 1.349 . S
C1828 C1830 1.327 . S
C1828 H1853 0.950 . S
C1829 C1828 1.349 . S
C1829 C1845 1.349 . S
C1830 C1828 1.327 . S
C1830 C1849 1.429 . S
C1830 H1854 0.950 . S
C1831 C1848 1.574 . S
C1831 C1850 1.368 . S
C1831 H1855 0.949 . S
H1832 C1836 0.949 . S
C1833 C1834 1.349 . S
C1833 C1835 1.327 . S
C1833 H1856 0.950 . S
C1834 C1833 1.349 . S
C1834 C1846 1.349 . S
C1835 C1833 1.327 . S
C1835 C1851 1.429 . S
C1835 H1857 0.950 . S
C1836 H1832 0.949 . S
C1836 C1844 1.574 . S
C1836 C1852 1.368 . S
H1837 C1845 0.950 . S
H1838 C1843 0.950 . S
H1839 C1844 0.949 . S
H1840 C1846 0.950 . S
H1841 C1847 0.950 . S
H1842 C1848 0.949 . S
C1843 H1838 0.950 . S
C1843 C1845 1.327 . S
C1843 C1849 1.429 . S
C1844 C1836 1.574 . S
C1844 H1839 0.949 . S
C1844 C1850 1.368 . S
C1845 C1829 1.349 . S
C1845 H1837 0.950 . S
C1845 C1843 1.327 . S
C1846 C1834 1.349 . S
C1846 H1840 0.950 . S
C1846 C1847 1.327 . S
C1847 H1841 0.950 . S
C1847 C1846 1.327 . S
C1847 C1851 1.429 . S
C1848 C1831 1.574 . S
C1848 H1842 0.949 . S
C1848 C1852 1.368 . S
C1849 C1830 1.429 . S
C1849 C1843 1.429 . S
C1849 C1850 1.523 . S
C1850 C1831 1.368 . S
C1850 C1844 1.368 . S
C1850 C1849 1.523 . S
C1851 C1835 1.429 . S
C1851 C1847 1.429 . S
C1851 C1852 1.523 . S
C1852 C1836 1.368 . S
C1852 C1848 1.368 . S
C1852 C1851 1.523 . S
H1853 C1828 0.950 . S
H1854 C1830 0.950 . S
H1855 C1831 0.949 . S
H1856 C1833 0.950 . S
H1857 C1835 0.950 . S
C1858 C1859 1.349 . S
C1858 C1860 1.327 . S
C1858 H1883 0.950 . S
C1859 C1858 1.349 . S
C1859 C1875 1.349 . S
C1860 C1858 1.327 . S
C1860 C1879 1.429 . S
C1860 H1884 0.950 . S
C1861 C1878 1.574 . S
C1861 C1880 1.368 . S
C1861 H1885 0.949 . S
H1862 C1866 0.949 . S
C1863 C1864 1.349 . S
C1863 C1865 1.327 . S
C1863 H1886 0.950 . S
C1864 C1863 1.349 . S
C1864 C1876 1.349 . S
C1865 C1863 1.327 . S
C1865 C1881 1.429 . S
C1865 H1887 0.950 . S
C1866 H1862 0.949 . S
C1866 C1874 1.574 . S
C1866 C1882 1.368 . S
H1867 C1875 0.950 . S
H1868 C1873 0.950 . S
H1869 C1874 0.949 . S
H1870 C1876 0.950 . S
H1871 C1877 0.950 . S
H1872 C1878 0.949 . S
C1873 H1868 0.950 . S
C1873 C1875 1.327 . S
C1873 C1879 1.429 . S
C1874 C1866 1.574 . S
C1874 H1869 0.949 . S
C1874 C1880 1.368 . S
C1875 C1859 1.349 . S
C1875 H1867 0.950 . S
C1875 C1873 1.327 . S
C1876 C1864 1.349 . S
C1876 H1870 0.950 . S
C1876 C1877 1.327 . S
C1877 H1871 0.950 . S
C1877 C1876 1.327 . S
C1877 C1881 1.429 . S
C1878 C1861 1.574 . S
C1878 H1872 0.949 . S
C1878 C1882 1.368 . S
C1879 C1860 1.429 . S
C1879 C1873 1.429 . S
C1879 C1880 1.523 . S
C1880 C1861 1.368 . S
C1880 C1874 1.368 . S
C1880 C1879 1.523 . S
C1881 C1865 1.429 . S
C1881 C1877 1.429 . S
C1881 C1882 1.523 . S
C1882 C1866 1.368 . S
C1882 C1878 1.368 . S
C1882 C1881 1.523 . S
H1883 C1858 0.950 . S
H1884 C1860 0.950 . S
H1885 C1861 0.949 . S
H1886 C1863 0.950 . S
H1887 C1865 0.950 . S
C1888 C1889 1.349 . S
C1888 C1890 1.327 . S
C1888 H1913 0.950 . S
C1889 C1888 1.349 . S
C1889 C1905 1.349 . S
C1890 C1888 1.327 . S
C1890 C1909 1.429 . S
C1890 H1914 0.950 . S
C1891 C1908 1.574 . S
C1891 C1910 1.368 . S
C1891 H1915 0.949 . S
H1892 C1896 0.949 . S
C1893 C1894 1.349 . S
C1893 C1895 1.327 . S
C1893 H1916 0.950 . S
C1894 C1893 1.349 . S
C1894 C1906 1.349 . S
C1895 C1893 1.327 . S
C1895 C1911 1.429 . S
C1895 H1917 0.950 . S
C1896 H1892 0.949 . S
C1896 C1904 1.574 . S
C1896 C1912 1.368 . S
H1897 C1905 0.950 . S
H1898 C1903 0.950 . S
H1899 C1904 0.949 . S
H1900 C1906 0.950 . S
H1901 C1907 0.950 . S
H1902 C1908 0.949 . S
C1903 H1898 0.950 . S
C1903 C1905 1.327 . S
C1903 C1909 1.429 . S
C1904 C1896 1.574 . S
C1904 H1899 0.949 . S
C1904 C1910 1.368 . S
C1905 C1889 1.349 . S
C1905 H1897 0.950 . S
C1905 C1903 1.327 . S
C1906 C1894 1.349 . S
C1906 H1900 0.950 . S
C1906 C1907 1.327 . S
C1907 H1901 0.950 . S
C1907 C1906 1.327 . S
C1907 C1911 1.429 . S
C1908 C1891 1.574 . S
C1908 H1902 0.949 . S
C1908 C1912 1.368 . S
C1909 C1890 1.429 . S
C1909 C1903 1.429 . S
C1909 C1910 1.523 . S
C1910 C1891 1.368 . S
C1910 C1904 1.368 . S
C1910 C1909 1.523 . S
C1911 C1895 1.429 . S
C1911 C1907 1.429 . S
C1911 C1912 1.523 . S
C1912 C1896 1.368 . S
C1912 C1908 1.368 . S
C1912 C1911 1.523 . S
H1913 C1888 0.950 . S
H1914 C1890 0.950 . S
H1915 C1891 0.949 . S
H1916 C1893 0.950 . S
H1917 C1895 0.950 . S
C1918 C1919 1.349 . S
C1918 C1920 1.327 . S
C1918 H1943 0.950 . S
C1919 C1918 1.349 . S
C1919 C1935 1.349 . S
C1920 C1918 1.327 . S
C1920 C1939 1.429 . S
C1920 H1944 0.950 . S
C1921 C1938 1.574 . S
C1921 C1940 1.368 . S
C1921 H1945 0.949 . S
H1922 C1926 0.949 . S
C1923 C1924 1.349 . S
C1923 C1925 1.327 . S
C1923 H1946 0.950 . S
C1924 C1923 1.349 . S
C1924 C1936 1.349 . S
C1925 C1923 1.327 . S
C1925 C1941 1.429 . S
C1925 H1947 0.950 . S
C1926 H1922 0.949 . S
C1926 C1934 1.574 . S
C1926 C1942 1.368 . S
H1927 C1935 0.950 . S
H1928 C1933 0.950 . S
H1929 C1934 0.949 . S
H1930 C1936 0.950 . S
H1931 C1937 0.950 . S
H1932 C1938 0.949 . S
C1933 H1928 0.950 . S
C1933 C1935 1.327 . S
C1933 C1939 1.429 . S
C1934 C1926 1.574 . S
C1934 H1929 0.949 . S
C1934 C1940 1.368 . S
C1935 C1919 1.349 . S
C1935 H1927 0.950 . S
C1935 C1933 1.327 . S
C1936 C1924 1.349 . S
C1936 H1930 0.950 . S
C1936 C1937 1.327 . S
C1937 H1931 0.950 . S
C1937 C1936 1.327 . S
C1937 C1941 1.429 . S
C1938 C1921 1.574 . S
C1938 H1932 0.949 . S
C1938 C1942 1.368 . S
C1939 C1920 1.429 . S
C1939 C1933 1.429 . S
C1939 C1940 1.523 . S
C1940 C1921 1.368 . S
C1940 C1934 1.368 . S
C1940 C1939 1.523 . S
C1941 C1925 1.429 . S
C1941 C1937 1.429 . S
C1941 C1942 1.523 . S
C1942 C1926 1.368 . S
C1942 C1938 1.368 . S
C1942 C1941 1.523 . S
H1943 C1918 0.950 . S
H1944 C1920 0.950 . S
H1945 C1921 0.949 . S
H1946 C1923 0.950 . S
H1947 C1925 0.950 . S
C1948 C1949 1.349 . S
C1948 C1950 1.327 . S
C1948 H1973 0.950 . S
C1949 C1948 1.349 . S
C1949 C1965 1.349 . S
C1950 C1948 1.327 . S
C1950 C1969 1.429 . S
C1950 H1974 0.950 . S
C1951 C1968 1.574 . S
C1951 C1970 1.368 . S
C1951 H1975 0.949 . S
H1952 C1956 0.949 . S
C1953 C1954 1.349 . S
C1953 C1955 1.327 . S
C1953 H1976 0.950 . S
C1954 C1953 1.349 . S
C1954 C1966 1.349 . S
C1955 C1953 1.327 . S
C1955 C1971 1.429 . S
C1955 H1977 0.950 . S
C1956 H1952 0.949 . S
C1956 C1964 1.574 . S
C1956 C1972 1.368 . S
H1957 C1965 0.950 . S
H1958 C1963 0.950 . S
H1959 C1964 0.949 . S
H1960 C1966 0.950 . S
H1961 C1967 0.950 . S
H1962 C1968 0.949 . S
C1963 H1958 0.950 . S
C1963 C1965 1.327 . S
C1963 C1969 1.429 . S
C1964 C1956 1.574 . S
C1964 H1959 0.949 . S
C1964 C1970 1.368 . S
C1965 C1949 1.349 . S
C1965 H1957 0.950 . S
C1965 C1963 1.327 . S
C1966 C1954 1.349 . S
C1966 H1960 0.950 . S
C1966 C1967 1.327 . S
C1967 H1961 0.950 . S
C1967 C1966 1.327 . S
C1967 C1971 1.429 . S
C1968 C1951 1.574 . S
C1968 H1962 0.949 . S
C1968 C1972 1.368 . S
C1969 C1950 1.429 . S
C1969 C1963 1.429 . S
C1969 C1970 1.523 . S
C1970 C1951 1.368 . S
C1970 C1964 1.368 . S
C1970 C1969 1.523 . S
C1971 C1955 1.429 . S
C1971 C1967 1.429 . S
C1971 C1972 1.523 . S
C1972 C1956 1.368 . S
C1972 C1968 1.368 . S
C1972 C1971 1.523 . S
H1973 C1948 0.950 . S
H1974 C1950 0.950 . S
H1975 C1951 0.949 . S
H1976 C1953 0.950 . S
H1977 C1955 0.950 . S
C1978 C1979 1.349 . S
C1978 C1980 1.327 . S
C1978 H2003 0.950 . S
C1979 C1978 1.349 . S
C1979 C1995 1.349 . S
C1980 C1978 1.327 . S
C1980 C1999 1.429 . S
C1980 H2004 0.950 . S
C1981 C1998 1.574 . S
C1981 C2000 1.368 . S
C1981 H2005 0.949 . S
H1982 C1986 0.949 . S
C1983 C1984 1.349 . S
C1983 C1985 1.327 . S
C1983 H2006 0.950 . S
C1984 C1983 1.349 . S
C1984 C1996 1.349 . S
C1985 C1983 1.327 . S
C1985 C2001 1.429 . S
C1985 H2007 0.950 . S
C1986 H1982 0.949 . S
C1986 C1994 1.574 . S
C1986 C2002 1.368 . S
H1987 C1995 0.950 . S
H1988 C1993 0.950 . S
H1989 C1994 0.949 . S
H1990 C1996 0.950 . S
H1991 C1997 0.950 . S
H1992 C1998 0.949 . S
C1993 H1988 0.950 . S
C1993 C1995 1.327 . S
C1993 C1999 1.429 . S
C1994 C1986 1.574 . S
C1994 H1989 0.949 . S
C1994 C2000 1.368 . S
C1995 C1979 1.349 . S
C1995 H1987 0.950 . S
C1995 C1993 1.327 . S
C1996 C1984 1.349 . S
C1996 H1990 0.950 . S
C1996 C1997 1.327 . S
C1997 H1991 0.950 . S
C1997 C1996 1.327 . S
C1997 C2001 1.429 . S
C1998 C1981 1.574 . S
C1998 H1992 0.949 . S
C1998 C2002 1.368 . S
C1999 C1980 1.429 . S
C1999 C1993 1.429 . S
C1999 C2000 1.523 . S
C2000 C1981 1.368 . S
C2000 C1994 1.368 . S
C2000 C1999 1.523 . S
C2001 C1985 1.429 . S
C2001 C1997 1.429 . S
C2001 C2002 1.523 . S
C2002 C1986 1.368 . S
C2002 C1998 1.368 . S
C2002 C2001 1.523 . S
H2003 C1978 0.950 . S
H2004 C1980 0.950 . S
H2005 C1981 0.949 . S
H2006 C1983 0.950 . S
H2007 C1985 0.950 . S
C2008 C2009 1.349 . S
C2008 C2010 1.327 . S
C2008 H2033 0.950 . S
C2009 C2008 1.349 . S
C2009 C2025 1.349 . S
C2010 C2008 1.327 . S
C2010 C2029 1.429 . S
C2010 H2034 0.950 . S
C2011 C2028 1.574 . S
C2011 C2030 1.368 . S
C2011 H2035 0.949 . S
H2012 C2016 0.949 . S
C2013 C2014 1.349 . S
C2013 C2015 1.327 . S
C2013 H2036 0.950 . S
C2014 C2013 1.349 . S
C2014 C2026 1.349 . S
C2015 C2013 1.327 . S
C2015 C2031 1.429 . S
C2015 H2037 0.950 . S
C2016 H2012 0.949 . S
C2016 C2024 1.574 . S
C2016 C2032 1.368 . S
H2017 C2025 0.950 . S
H2018 C2023 0.950 . S
H2019 C2024 0.949 . S
H2020 C2026 0.950 . S
H2021 C2027 0.950 . S
H2022 C2028 0.949 . S
C2023 H2018 0.950 . S
C2023 C2025 1.327 . S
C2023 C2029 1.429 . S
C2024 C2016 1.574 . S
C2024 H2019 0.949 . S
C2024 C2030 1.368 . S
C2025 C2009 1.349 . S
C2025 H2017 0.950 . S
C2025 C2023 1.327 . S
C2026 C2014 1.349 . S
C2026 H2020 0.950 . S
C2026 C2027 1.327 . S
C2027 H2021 0.950 . S
C2027 C2026 1.327 . S
C2027 C2031 1.429 . S
C2028 C2011 1.574 . S
C2028 H2022 0.949 . S
C2028 C2032 1.368 . S
C2029 C2010 1.429 . S
C2029 C2023 1.429 . S
C2029 C2030 1.523 . S
C2030 C2011 1.368 . S
C2030 C2024 1.368 . S
C2030 C2029 1.523 . S
C2031 C2015 1.429 . S
C2031 C2027 1.429 . S
C2031 C2032 1.523 . S
C2032 C2016 1.368 . S
C2032 C2028 1.368 . S
C2032 C2031 1.523 . S
H2033 C2008 0.950 . S
H2034 C2010 0.950 . S
H2035 C2011 0.949 . S
H2036 C2013 0.950 . S
H2037 C2015 0.950 . S
C2038 C2039 1.349 . S
C2038 C2040 1.327 . S
C2038 H2063 0.950 . S
C2039 C2038 1.349 . S
C2039 C2055 1.349 . S
C2040 C2038 1.327 . S
C2040 C2059 1.429 . S
C2040 H2064 0.950 . S
C2041 C2058 1.574 . S
C2041 C2060 1.368 . S
C2041 H2065 0.949 . S
H2042 C2046 0.949 . S
C2043 C2044 1.349 . S
C2043 C2045 1.327 . S
C2043 H2066 0.950 . S
C2044 C2043 1.349 . S
C2044 C2056 1.349 . S
C2045 C2043 1.327 . S
C2045 C2061 1.429 . S
C2045 H2067 0.950 . S
C2046 H2042 0.949 . S
C2046 C2054 1.574 . S
C2046 C2062 1.368 . S
H2047 C2055 0.950 . S
H2048 C2053 0.950 . S
H2049 C2054 0.949 . S
H2050 C2056 0.950 . S
H2051 C2057 0.950 . S
H2052 C2058 0.949 . S
C2053 H2048 0.950 . S
C2053 C2055 1.327 . S
C2053 C2059 1.429 . S
C2054 C2046 1.574 . S
C2054 H2049 0.949 . S
C2054 C2060 1.368 . S
C2055 C2039 1.349 . S
C2055 H2047 0.950 . S
C2055 C2053 1.327 . S
C2056 C2044 1.349 . S
C2056 H2050 0.950 . S
C2056 C2057 1.327 . S
C2057 H2051 0.950 . S
C2057 C2056 1.327 . S
C2057 C2061 1.429 . S
C2058 C2041 1.574 . S
C2058 H2052 0.949 . S
C2058 C2062 1.368 . S
C2059 C2040 1.429 . S
C2059 C2053 1.429 . S
C2059 C2060 1.523 . S
C2060 C2041 1.368 . S
C2060 C2054 1.368 . S
C2060 C2059 1.523 . S
C2061 C2045 1.429 . S
C2061 C2057 1.429 . S
C2061 C2062 1.523 . S
C2062 C2046 1.368 . S
C2062 C2058 1.368 . S
C2062 C2061 1.523 . S
H2063 C2038 0.950 . S
H2064 C2040 0.950 . S
H2065 C2041 0.949 . S
H2066 C2043 0.950 . S
H2067 C2045 0.950 . S
C2068 C2069 1.349 . S
C2068 C2070 1.327 . S
C2068 H2093 0.950 . S
C2069 C2068 1.349 . S
C2069 C2085 1.349 . S
C2070 C2068 1.327 . S
C2070 C2089 1.429 . S
C2070 H2094 0.950 . S
C2071 C2088 1.574 . S
C2071 C2090 1.368 . S
C2071 H2095 0.949 . S
H2072 C2076 0.949 . S
C2073 C2074 1.349 . S
C2073 C2075 1.327 . S
C2073 H2096 0.950 . S
C2074 C2073 1.349 . S
C2074 C2086 1.349 . S
C2075 C2073 1.327 . S
C2075 C2091 1.429 . S
C2075 H2097 0.950 . S
C2076 H2072 0.949 . S
C2076 C2084 1.574 . S
C2076 C2092 1.368 . S
H2077 C2085 0.950 . S
H2078 C2083 0.950 . S
H2079 C2084 0.949 . S
H2080 C2086 0.950 . S
H2081 C2087 0.950 . S
H2082 C2088 0.949 . S
C2083 H2078 0.950 . S
C2083 C2085 1.327 . S
C2083 C2089 1.429 . S
C2084 C2076 1.574 . S
C2084 H2079 0.949 . S
C2084 C2090 1.368 . S
C2085 C2069 1.349 . S
C2085 H2077 0.950 . S
C2085 C2083 1.327 . S
C2086 C2074 1.349 . S
C2086 H2080 0.950 . S
C2086 C2087 1.327 . S
C2087 H2081 0.950 . S
C2087 C2086 1.327 . S
C2087 C2091 1.429 . S
C2088 C2071 1.574 . S
C2088 H2082 0.949 . S
C2088 C2092 1.368 . S
C2089 C2070 1.429 . S
C2089 C2083 1.429 . S
C2089 C2090 1.523 . S
C2090 C2071 1.368 . S
C2090 C2084 1.368 . S
C2090 C2089 1.523 . S
C2091 C2075 1.429 . S
C2091 C2087 1.429 . S
C2091 C2092 1.523 . S
C2092 C2076 1.368 . S
C2092 C2088 1.368 . S
C2092 C2091 1.523 . S
H2093 C2068 0.950 . S
H2094 C2070 0.950 . S
H2095 C2071 0.949 . S
H2096 C2073 0.950 . S
H2097 C2075 0.950 . S
C2098 C2099 1.349 . S
C2098 C2100 1.327 . S
C2098 H2123 0.950 . S
C2099 C2098 1.349 . S
C2099 C2115 1.349 . S
C2100 C2098 1.327 . S
C2100 C2119 1.429 . S
C2100 H2124 0.950 . S
C2101 C2118 1.574 . S
C2101 C2120 1.368 . S
C2101 H2125 0.949 . S
H2102 C2106 0.949 . S
C2103 C2104 1.349 . S
C2103 C2105 1.327 . S
C2103 H2126 0.950 . S
C2104 C2103 1.349 . S
C2104 C2116 1.349 . S
C2105 C2103 1.327 . S
C2105 C2121 1.429 . S
C2105 H2127 0.950 . S
C2106 H2102 0.949 . S
C2106 C2114 1.574 . S
C2106 C2122 1.368 . S
H2107 C2115 0.950 . S
H2108 C2113 0.950 . S
H2109 C2114 0.949 . S
H2110 C2116 0.950 . S
H2111 C2117 0.950 . S
H2112 C2118 0.949 . S
C2113 H2108 0.950 . S
C2113 C2115 1.327 . S
C2113 C2119 1.429 . S
C2114 C2106 1.574 . S
C2114 H2109 0.949 . S
C2114 C2120 1.368 . S
C2115 C2099 1.349 . S
C2115 H2107 0.950 . S
C2115 C2113 1.327 . S
C2116 C2104 1.349 . S
C2116 H2110 0.950 . S
C2116 C2117 1.327 . S
C2117 H2111 0.950 . S
C2117 C2116 1.327 . S
C2117 C2121 1.429 . S
C2118 C2101 1.574 . S
C2118 H2112 0.949 . S
C2118 C2122 1.368 . S
C2119 C2100 1.429 . S
C2119 C2113 1.429 . S
C2119 C2120 1.523 . S
C2120 C2101 1.368 . S
C2120 C2114 1.368 . S
C2120 C2119 1.523 . S
C2121 C2105 1.429 . S
C2121 C2117 1.429 . S
C2121 C2122 1.523 . S
C2122 C2106 1.368 . S
C2122 C2118 1.368 . S
C2122 C2121 1.523 . S
H2123 C2098 0.950 . S
H2124 C2100 0.950 . S
H2125 C2101 0.949 . S
H2126 C2103 0.950 . S
H2127 C2105 0.950 . S
C2128 C2129 1.349 . S
C2128 C2130 1.327 . S
C2128 H2153 0.950 . S
C2129 C2128 1.349 . S
C2129 C2145 1.349 . S
C2130 C2128 1.327 . S
C2130 C2149 1.429 . S
C2130 H2154 0.950 . S
C2131 C2148 1.574 . S
C2131 C2150 1.368 . S
C2131 H2155 0.949 . S
H2132 C2136 0.949 . S
C2133 C2134 1.349 . S
C2133 C2135 1.327 . S
C2133 H2156 0.950 . S
C2134 C2133 1.349 . S
C2134 C2146 1.349 . S
C2135 C2133 1.327 . S
C2135 C2151 1.429 . S
C2135 H2157 0.950 . S
C2136 H2132 0.949 . S
C2136 C2144 1.574 . S
C2136 C2152 1.368 . S
H2137 C2145 0.950 . S
H2138 C2143 0.950 . S
H2139 C2144 0.949 . S
H2140 C2146 0.950 . S
H2141 C2147 0.950 . S
H2142 C2148 0.949 . S
C2143 H2138 0.950 . S
C2143 C2145 1.327 . S
C2143 C2149 1.429 . S
C2144 C2136 1.574 . S
C2144 H2139 0.949 . S
C2144 C2150 1.368 . S
C2145 C2129 1.349 . S
C2145 H2137 0.950 . S
C2145 C2143 1.327 . S
C2146 C2134 1.349 . S
C2146 H2140 0.950 . S
C2146 C2147 1.327 . S
C2147 H2141 0.950 . S
C2147 C2146 1.327 . S
C2147 C2151 1.429 . S
C2148 C2131 1.574 . S
C2148 H2142 0.949 . S
C2148 C2152 1.368 . S
C2149 C2130 1.429 . S
C2149 C2143 1.429 . S
C2149 C2150 1.523 . S
C2150 C2131 1.368 . S
C2150 C2144 1.368 . S
C2150 C2149 1.523 . S
C2151 C2135 1.429 . S
C2151 C2147 1.429 . S
C2151 C2152 1.523 . S
C2152 C2136 1.368 . S
C2152 C2148 1.368 . S
C2152 C2151 1.523 . S
H2153 C2128 0.950 . S
H2154 C2130 0.950 . S
H2155 C2131 0.949 . S
H2156 C2133 0.950 . S
H2157 C2135 0.950 . S
C2158 C2159 1.349 . S
C2158 C2160 1.327 . S
C2158 H2183 0.950 . S
C2159 C2158 1.349 . S
C2159 C2175 1.349 . S
C2160 C2158 1.327 . S
C2160 C2179 1.429 . S
C2160 H2184 0.950 . S
C2161 C2178 1.574 . S
C2161 C2180 1.368 . S
C2161 H2185 0.949 . S
H2162 C2166 0.949 . S
C2163 C2164 1.349 . S
C2163 C2165 1.327 . S
C2163 H2186 0.950 . S
C2164 C2163 1.349 . S
C2164 C2176 1.349 . S
C2165 C2163 1.327 . S
C2165 C2181 1.429 . S
C2165 H2187 0.950 . S
C2166 H2162 0.949 . S
C2166 C2174 1.574 . S
C2166 C2182 1.368 . S
H2167 C2175 0.950 . S
H2168 C2173 0.950 . S
H2169 C2174 0.949 . S
H2170 C2176 0.950 . S
H2171 C2177 0.950 . S
H2172 C2178 0.949 . S
C2173 H2168 0.950 . S
C2173 C2175 1.327 . S
C2173 C2179 1.429 . S
C2174 C2166 1.574 . S
C2174 H2169 0.949 . S
C2174 C2180 1.368 . S
C2175 C2159 1.349 . S
C2175 H2167 0.950 . S
C2175 C2173 1.327 . S
C2176 C2164 1.349 . S
C2176 H2170 0.950 . S
C2176 C2177 1.327 . S
C2177 H2171 0.950 . S
C2177 C2176 1.327 . S
C2177 C2181 1.429 . S
C2178 C2161 1.574 . S
C2178 H2172 0.949 . S
C2178 C2182 1.368 . S
C2179 C2160 1.429 . S
C2179 C2173 1.429 . S
C2179 C2180 1.523 . S
C2180 C2161 1.368 . S
C2180 C2174 1.368 . S
C2180 C2179 1.523 . S
C2181 C2165 1.429 . S
C2181 C2177 1.429 . S
C2181 C2182 1.523 . S
C2182 C2166 1.368 . S
C2182 C2178 1.368 . S
C2182 C2181 1.523 . S
H2183 C2158 0.950 . S
H2184 C2160 0.950 . S
H2185 C2161 0.949 . S
H2186 C2163 0.950 . S
H2187 C2165 0.950 . S
C2188 C2189 1.349 . S
C2188 C2190 1.327 . S
C2188 H2213 0.950 . S
C2189 C2188 1.349 . S
C2189 C2205 1.349 . S
C2190 C2188 1.327 . S
C2190 C2209 1.429 . S
C2190 H2214 0.950 . S
C2191 C2208 1.574 . S
C2191 C2210 1.368 . S
C2191 H2215 0.949 . S
H2192 C2196 0.949 . S
C2193 C2194 1.349 . S
C2193 C2195 1.327 . S
C2193 H2216 0.950 . S
C2194 C2193 1.349 . S
C2194 C2206 1.349 . S
C2195 C2193 1.327 . S
C2195 C2211 1.429 . S
C2195 H2217 0.950 . S
C2196 H2192 0.949 . S
C2196 C2204 1.574 . S
C2196 C2212 1.368 . S
H2197 C2205 0.950 . S
H2198 C2203 0.950 . S
H2199 C2204 0.949 . S
H2200 C2206 0.950 . S
H2201 C2207 0.950 . S
H2202 C2208 0.949 . S
C2203 H2198 0.950 . S
C2203 C2205 1.327 . S
C2203 C2209 1.429 . S
C2204 C2196 1.574 . S
C2204 H2199 0.949 . S
C2204 C2210 1.368 . S
C2205 C2189 1.349 . S
C2205 H2197 0.950 . S
C2205 C2203 1.327 . S
C2206 C2194 1.349 . S
C2206 H2200 0.950 . S
C2206 C2207 1.327 . S
C2207 H2201 0.950 . S
C2207 C2206 1.327 . S
C2207 C2211 1.429 . S
C2208 C2191 1.574 . S
C2208 H2202 0.949 . S
C2208 C2212 1.368 . S
C2209 C2190 1.429 . S
C2209 C2203 1.429 . S
C2209 C2210 1.523 . S
C2210 C2191 1.368 . S
C2210 C2204 1.368 . S
C2210 C2209 1.523 . S
C2211 C2195 1.429 . S
C2211 C2207 1.429 . S
C2211 C2212 1.523 . S
C2212 C2196 1.368 . S
C2212 C2208 1.368 . S
C2212 C2211 1.523 . S
H2213 C2188 0.950 . S
H2214 C2190 0.950 . S
H2215 C2191 0.949 . S
H2216 C2193 0.950 . S
H2217 C2195 0.950 . S
C2218 C2219 1.349 . S
C2218 C2220 1.327 . S
C2218 H2243 0.950 . S
C2219 C2218 1.349 . S
C2219 C2235 1.349 . S
C2220 C2218 1.327 . S
C2220 C2239 1.429 . S
C2220 H2244 0.950 . S
C2221 C2238 1.574 . S
C2221 C2240 1.368 . S
C2221 H2245 0.949 . S
H2222 C2226 0.949 . S
C2223 C2224 1.349 . S
C2223 C2225 1.327 . S
C2223 H2246 0.950 . S
C2224 C2223 1.349 . S
C2224 C2236 1.349 . S
C2225 C2223 1.327 . S
C2225 C2241 1.429 . S
C2225 H2247 0.950 . S
C2226 H2222 0.949 . S
C2226 C2234 1.574 . S
C2226 C2242 1.368 . S
H2227 C2235 0.950 . S
H2228 C2233 0.950 . S
H2229 C2234 0.949 . S
H2230 C2236 0.950 . S
H2231 C2237 0.950 . S
H2232 C2238 0.949 . S
C2233 H2228 0.950 . S
C2233 C2235 1.327 . S
C2233 C2239 1.429 . S
C2234 C2226 1.574 . S
C2234 H2229 0.949 . S
C2234 C2240 1.368 . S
C2235 C2219 1.349 . S
C2235 H2227 0.950 . S
C2235 C2233 1.327 . S
C2236 C2224 1.349 . S
C2236 H2230 0.950 . S
C2236 C2237 1.327 . S
C2237 H2231 0.950 . S
C2237 C2236 1.327 . S
C2237 C2241 1.429 . S
C2238 C2221 1.574 . S
C2238 H2232 0.949 . S
C2238 C2242 1.368 . S
C2239 C2220 1.429 . S
C2239 C2233 1.429 . S
C2239 C2240 1.523 . S
C2240 C2221 1.368 . S
C2240 C2234 1.368 . S
C2240 C2239 1.523 . S
C2241 C2225 1.429 . S
C2241 C2237 1.429 . S
C2241 C2242 1.523 . S
C2242 C2226 1.368 . S
C2242 C2238 1.368 . S
C2242 C2241 1.523 . S
H2243 C2218 0.950 . S
H2244 C2220 0.950 . S
H2245 C2221 0.949 . S
H2246 C2223 0.950 . S
H2247 C2225 0.950 . S
C2248 C2249 1.349 . S
C2248 C2250 1.327 . S
C2248 H2273 0.950 . S
C2249 C2248 1.349 . S
C2249 C2265 1.349 . S
C2250 C2248 1.327 . S
C2250 C2269 1.429 . S
C2250 H2274 0.950 . S
C2251 C2268 1.574 1_554 S
C2251 C2270 1.368 1_565 S
C2251 H2275 0.949 . S
H2252 C2256 0.949 . S
C2253 C2254 1.349 . S
C2253 C2255 1.327 . S
C2253 H2276 0.950 . S
C2254 C2253 1.349 . S
C2254 C2266 1.349 . S
C2255 C2253 1.327 . S
C2255 C2271 1.429 . S
C2255 H2277 0.950 . S
C2256 H2252 0.949 . S
C2256 C2264 1.574 1_556 S
C2256 C2272 1.368 1_545 S
H2257 C2265 0.950 . S
H2258 C2263 0.960 . S
H2259 C2264 0.949 . S
H2260 C2266 0.950 . S
H2261 C2267 0.960 . S
H2262 C2268 0.949 . S
C2263 H2258 0.960 . S
C2263 C2265 1.327 . S
C2263 C2269 1.429 . S
C2264 C2256 1.574 1_554 S
C2264 H2259 0.949 . S
C2264 C2270 1.368 . S
C2265 C2249 1.349 . S
C2265 H2257 0.950 . S
C2265 C2263 1.327 . S
C2266 C2254 1.349 . S
C2266 H2260 0.950 . S
C2266 C2267 1.327 . S
C2267 H2261 0.960 . S
C2267 C2266 1.327 . S
C2267 C2271 1.429 . S
C2268 C2251 1.574 1_556 S
C2268 H2262 0.949 . S
C2268 C2272 1.368 . S
C2269 C2250 1.429 . S
C2269 C2263 1.429 . S
C2269 C2270 1.523 . S
C2270 C2251 1.368 1_545 S
C2270 C2264 1.368 . S
C2270 C2269 1.523 . S
C2271 C2255 1.429 . S
C2271 C2267 1.429 . S
C2271 C2272 1.523 . S
C2272 C2256 1.368 1_565 S
C2272 C2268 1.368 . S
C2272 C2271 1.523 . S
H2273 C2248 0.950 . S
H2274 C2250 0.950 . S
H2275 C2251 0.949 . S
H2276 C2253 0.950 . S
H2277 C2255 0.950 . S
C2278 C2279 1.349 . S
C2278 C2280 1.327 . S
C2278 H2303 0.950 . S
C2279 C2278 1.349 . S
C2279 C2295 1.349 . S
C2280 C2278 1.327 . S
C2280 C2299 1.429 . S
C2280 H2304 0.950 . S
C2281 C2298 1.574 1_556 S
C2281 C2300 1.368 . S
C2281 H2305 0.949 . S
H2282 C2286 0.949 . S
C2283 C2284 1.349 . S
C2283 C2285 1.327 . S
C2283 H2306 0.950 . S
C2284 C2283 1.349 . S
C2284 C2296 1.349 . S
C2285 C2283 1.327 . S
C2285 C2301 1.429 . S
C2285 H2307 0.950 . S
C2286 H2282 0.949 . S
C2286 C2294 1.574 1_554 S
C2286 C2302 1.368 . S
H2287 C2295 0.950 . S
H2288 C2293 0.950 . S
H2289 C2294 0.949 . S
H2290 C2296 0.950 . S
H2291 C2297 0.950 . S
H2292 C2298 0.949 . S
C2293 H2288 0.950 . S
C2293 C2295 1.327 . S
C2293 C2299 1.429 . S
C2294 C2286 1.574 1_556 S
C2294 H2289 0.949 . S
C2294 C2300 1.368 1_655 S
C2295 C2279 1.349 . S
C2295 H2287 0.950 . S
C2295 C2293 1.327 . S
C2296 C2284 1.349 . S
C2296 H2290 0.950 . S
C2296 C2297 1.327 . S
C2297 H2291 0.950 . S
C2297 C2296 1.327 . S
C2297 C2301 1.429 . S
C2298 C2281 1.574 1_554 S
C2298 H2292 0.949 . S
C2298 C2302 1.368 1_455 S
C2299 C2280 1.429 . S
C2299 C2293 1.429 . S
C2299 C2300 1.523 . S
C2300 C2281 1.368 . S
C2300 C2294 1.368 1_455 S
C2300 C2299 1.523 . S
C2301 C2285 1.429 . S
C2301 C2297 1.429 . S
C2301 C2302 1.523 . S
C2302 C2286 1.368 . S
C2302 C2298 1.368 1_655 S
C2302 C2301 1.523 . S
H2303 C2278 0.950 . S
H2304 C2280 0.950 . S
H2305 C2281 0.949 . S
H2306 C2283 0.950 . S
H2307 C2285 0.950 . S
C2308 C2309 1.349 . S
C2308 C2310 1.327 . S
C2308 H2333 0.950 . S
C2309 C2308 1.349 . S
C2309 C2325 1.349 . S
C2310 C2308 1.327 . S
C2310 C2329 1.429 . S
C2310 H2334 0.950 1_545 S
C2311 C2328 1.574 1_556 S
C2311 C2330 1.368 . S
C2311 H2335 0.949 . S
H2312 C2316 0.949 . S
C2313 C2314 1.349 . S
C2313 C2315 1.327 . S
C2313 H2336 0.950 . S
C2314 C2313 1.349 . S
C2314 C2326 1.349 . S
C2315 C2313 1.327 . S
C2315 C2331 1.429 . S
C2315 H2337 0.950 1_565 S
C2316 H2312 0.949 . S
C2316 C2324 1.574 1_554 S
C2316 C2332 1.368 . S
H2317 C2325 0.950 . S
H2318 C2323 0.950 . S
H2319 C2324 0.949 . S
H2320 C2326 0.950 . S
H2321 C2327 0.950 . S
H2322 C2328 0.949 . S
C2323 H2318 0.950 . S
C2323 C2325 1.327 . S
C2323 C2329 1.429 . S
C2324 C2316 1.574 1_556 S
C2324 H2319 0.949 . S
C2324 C2330 1.368 1_565 S
C2325 C2309 1.349 . S
C2325 H2317 0.950 . S
C2325 C2323 1.327 . S
C2326 C2314 1.349 . S
C2326 H2320 0.950 . S
C2326 C2327 1.327 . S
C2327 H2321 0.950 . S
C2327 C2326 1.327 . S
C2327 C2331 1.429 . S
C2328 C2311 1.574 1_554 S
C2328 H2322 0.949 . S
C2328 C2332 1.368 1_545 S
C2329 C2310 1.429 . S
C2329 C2323 1.429 . S
C2329 C2330 1.523 . S
C2330 C2311 1.368 . S
C2330 C2324 1.368 1_545 S
C2330 C2329 1.523 . S
C2331 C2315 1.429 . S
C2331 C2327 1.429 . S
C2331 C2332 1.523 . S
C2332 C2316 1.368 . S
C2332 C2328 1.368 1_565 S
C2332 C2331 1.523 . S
H2333 C2308 0.950 . S
H2334 C2310 0.950 1_565 S
H2335 C2311 0.949 . S
H2336 C2313 0.950 . S
H2337 C2315 0.950 1_545 S
C2338 C2339 1.349 . S
C2338 C2340 1.327 . S
C2338 H2363 0.950 . S
C2339 C2338 1.349 . S
C2339 C2355 1.349 . S
C2340 C2338 1.327 . S
C2340 C2359 1.429 . S
C2340 H2364 0.950 . S
C2341 C2358 1.574 1_556 S
C2341 C2360 1.368 1_455 S
C2341 H2365 0.949 . S
H2342 C2346 0.949 . S
C2343 C2344 1.349 . S
C2343 C2345 1.327 . S
C2343 H2366 0.950 . S
C2344 C2343 1.349 . S
C2344 C2356 1.349 . S
C2345 C2343 1.327 . S
C2345 C2361 1.429 . S
C2345 H2367 0.950 . S
C2346 H2342 0.949 . S
C2346 C2354 1.574 1_554 S
C2346 C2362 1.368 1_655 S
H2347 C2355 0.950 . S
H2348 C2353 0.950 . S
H2349 C2354 0.949 . S
H2350 C2356 0.950 . S
H2351 C2357 0.950 . S
H2352 C2358 0.949 . S
C2353 H2348 0.950 . S
C2353 C2355 1.327 . S
C2353 C2359 1.429 . S
C2354 C2346 1.574 1_556 S
C2354 H2349 0.949 . S
C2354 C2360 1.368 . S
C2355 C2339 1.349 . S
C2355 H2347 0.950 . S
C2355 C2353 1.327 . S
C2356 C2344 1.349 . S
C2356 H2350 0.950 . S
C2356 C2357 1.327 . S
C2357 H2351 0.950 . S
C2357 C2356 1.327 . S
C2357 C2361 1.429 . S
C2358 C2341 1.574 1_554 S
C2358 H2352 0.949 . S
C2358 C2362 1.368 . S
C2359 C2340 1.429 . S
C2359 C2353 1.429 . S
C2359 C2360 1.523 . S
C2360 C2341 1.368 1_655 S
C2360 C2354 1.368 . S
C2360 C2359 1.523 . S
C2361 C2345 1.429 . S
C2361 C2357 1.429 . S
C2361 C2362 1.523 . S
C2362 C2346 1.368 1_455 S
C2362 C2358 1.368 . S
C2362 C2361 1.523 . S
H2363 C2338 0.950 . S
H2364 C2340 0.950 . S
H2365 C2341 0.949 . S
H2366 C2343 0.950 . S
H2367 C2345 0.950 . S
C1409 C49 0.772 . S
C1414 C636 0.772 . S
C1439 C145 0.772 . S
C1444 C381 0.772 . S
C1469 C469 0.772 . S
C1474 C196 0.772 . S
C1499 C321 0.772 . S
C1504 C577 0.772 . S
C1529 C753 0.772 . S
C1534 C1340 0.772 . S
C1559 C1085 0.772 . S
C1564 C849 0.772 . S
C1589 C1173 0.772 . S
C1594 C900 0.772 . S
C1619 C1289 0.772 . S
C1624 C1017 0.772 . S
C1649 C20 0.991 . S
C1654 C997 1.025 . S
C1679 C117 1.000 . S
C1684 C761 1.036 . S
C1709 C812 1.025 . S
C1714 C225 0.991 . S
C1739 C293 1.000 . S
C1744 C909 1.036 . S
C1769 C409 0.991 . S
C1774 C1193 1.025 . S
C1799 C1281 1.036 . S
C1804 C497 1.000 . S
C1829 C548 0.991 . S
C1834 C1377 1.025 . S
C1859 C1076 1.036 . S
C1864 C665 1.000 . S
C1889 C724 0.991 . S
C1894 C284 1.025 . S
C1919 C57 1.036 . S
C1924 C821 1.000 . S
C1949 C929 0.991 . S
C1954 C108 1.025 . S
C1979 C205 1.036 . S
C1984 C988 1.000 . S
C2009 C1113 0.991 . S
C2014 C489 1.025 . S
C2039 C585 1.036 . S
C2044 C1201 1.000 . S
C2069 C673 1.025 . S
C2074 C1261 0.991 . S
C2099 C372 1.036 . S
C2104 C1369 1.000 . S
C2129 C401 1.694 . S
C2134 C29 1.694 . S
C2159 C460 1.687 . S
C2164 C137 1.687 . S
C2189 C233 1.694 . S
C2194 C557 1.694 . S
C2219 C645 1.687 . S
C2224 C313 1.687 . S
C2249 C1105 1.694 . S
C2254 C733 1.694 . S
C2279 C1164 1.687 . S
C2284 C841 1.687 . S
C2309 C937 1.694 . S
C2314 C1252 1.694 . S
C2339 C1349 1.687 . S
C2344 C1025 1.687 . S
