# Generated by pormake.
# Topology wji, (4)-cn, num edge types: 1
# Building blocks:
#     Node 0, Type 0, BuildingBlock: QUQFOY_clean_sbu_3, # of connection points: 4
#     Node 1, Type 0, BuildingBlock: QUQFOY_clean_sbu_3, # of connection points: 4
#     Node 2, Type 0, BuildingBlock: QUQFOY_clean_sbu_3, # of connection points: 4
#     Node 3, Type 0, BuildingBlock: QUQFOY_clean_sbu_3, # of connection points: 4
#     Node 4, Type 0, BuildingBlock: QUQFOY_clean_sbu_3, # of connection points: 4
#     Node 5, Type 0, BuildingBlock: QUQFOY_clean_sbu_3, # of connection points: 4
#     Node 6, Type 0, BuildingBlock: QUQFOY_clean_sbu_3, # of connection points: 4
#     Node 7, Type 0, BuildingBlock: QUQFOY_clean_sbu_3, # of connection points: 4
#     Node 8, Type 0, BuildingBlock: QUQFOY_clean_sbu_3, # of connection points: 4
#     Node 9, Type 0, BuildingBlock: QUQFOY_clean_sbu_3, # of connection points: 4
#     Node 10, Type 0, BuildingBlock: QUQFOY_clean_sbu_3, # of connection points: 4
#     Node 11, Type 0, BuildingBlock: QUQFOY_clean_sbu_3, # of connection points: 4
#     Edge 12, Type (0, 0), BuildingBlock: ZUJKAS_clean_linker_0, # of connection points: 2
#     Edge 13, Type (0, 0), BuildingBlock: ZUJKAS_clean_linker_0, # of connection points: 2
#     Edge 14, Type (0, 0), BuildingBlock: ZUJKAS_clean_linker_0, # of connection points: 2
#     Edge 15, Type (0, 0), BuildingBlock: ZUJKAS_clean_linker_0, # of connection points: 2
#     Edge 16, Type (0, 0), BuildingBlock: ZUJKAS_clean_linker_0, # of connection points: 2
#     Edge 17, Type (0, 0), BuildingBlock: ZUJKAS_clean_linker_0, # of connection points: 2
#     Edge 18, Type (0, 0), BuildingBlock: ZUJKAS_clean_linker_0, # of connection points: 2
#     Edge 19, Type (0, 0), BuildingBlock: ZUJKAS_clean_linker_0, # of connection points: 2
#     Edge 20, Type (0, 0), BuildingBlock: ZUJKAS_clean_linker_0, # of connection points: 2
#     Edge 21, Type (0, 0), BuildingBlock: ZUJKAS_clean_linker_0, # of connection points: 2
#     Edge 22, Type (0, 0), BuildingBlock: ZUJKAS_clean_linker_0, # of connection points: 2
#     Edge 23, Type (0, 0), BuildingBlock: ZUJKAS_clean_linker_0, # of connection points: 2
#     Edge 24, Type (0, 0), BuildingBlock: ZUJKAS_clean_linker_0, # of connection points: 2
#     Edge 25, Type (0, 0), BuildingBlock: ZUJKAS_clean_linker_0, # of connection points: 2
#     Edge 26, Type (0, 0), BuildingBlock: ZUJKAS_clean_linker_0, # of connection points: 2
#     Edge 27, Type (0, 0), BuildingBlock: ZUJKAS_clean_linker_0, # of connection points: 2
#     Edge 28, Type (0, 0), BuildingBlock: ZUJKAS_clean_linker_0, # of connection points: 2
#     Edge 29, Type (0, 0), BuildingBlock: ZUJKAS_clean_linker_0, # of connection points: 2
#     Edge 30, Type (0, 0), BuildingBlock: ZUJKAS_clean_linker_0, # of connection points: 2
#     Edge 31, Type (0, 0), BuildingBlock: ZUJKAS_clean_linker_0, # of connection points: 2
#     Edge 32, Type (0, 0), BuildingBlock: ZUJKAS_clean_linker_0, # of connection points: 2
#     Edge 33, Type (0, 0), BuildingBlock: ZUJKAS_clean_linker_0, # of connection points: 2
#     Edge 34, Type (0, 0), BuildingBlock: ZUJKAS_clean_linker_0, # of connection points: 2
#     Edge 35, Type (0, 0), BuildingBlock: ZUJKAS_clean_linker_0, # of connection points: 2
# Relax obj value: 0.220
# Max RMSD: 0.128
# Mean RMSD: 0.128
data_MOF--net-wji--node1-QUQFOY_clean_sbu_3--edge1-ZUJKAS_clean_linker_0
_symmetry_space_group_name_H-M    P1
_symmetry_Int_Tables_number       1
_symmetry_cell_setting            triclinic
loop_
_symmetry_equiv_pos_as_xyz
'x, y, z'
_cell_length_a     77.173466
_cell_length_b     77.044077
_cell_length_c     30.070588
_cell_angle_alpha  89.991208
_cell_angle_beta   90.037168
_cell_angle_gamma 119.96811
loop_
_atom_site_label
_atom_site_type_symbol
_atom_site_fract_x
_atom_site_fract_y
_atom_site_fract_z
_atom_type_partial_charge
C0 C 0.43562 0.36019 0.44414 0.0
O1 O 0.42389 0.36551 0.46085 0.0
Cd2 Cd 0.3888 0.34413 0.46833 0.0
O3 O 0.42904 0.34205 0.43227 0.0
Cd4 Cd 0.39658 0.30949 0.43556 0.0
C5 C 0.37685 0.32678 0.35968 0.0
O6 O 0.38423 0.31492 0.50488 0.0
O7 O 0.36184 0.29175 0.4637 0.0
O8 O 0.41713 0.29749 0.46892 0.0
C9 C 0.36638 0.30079 0.50076 0.0
O10 O 0.37598 0.33674 0.39257 0.0
C11 C 0.40834 0.28025 0.4513 0.0
O12 O 0.38504 0.31597 0.3638 0.0
O13 O 0.39479 0.27688 0.42285 0.0
C14 C 0.05882 0.43476 0.6124 0.0
O15 O 0.042 0.42295 0.62993 0.0
Cd16 Cd 0.02926 0.38808 0.64173 0.0
O17 O 0.07073 0.42849 0.60156 0.0
Cd18 Cd 0.0719 0.39665 0.60755 0.0
C19 C 0.0338 0.37419 0.53457 0.0
O20 O 0.05483 0.38508 0.67803 0.0
O21 O 0.05728 0.36278 0.63988 0.0
O22 O 0.10459 0.41863 0.63862 0.0
C23 C 0.05227 0.36754 0.67599 0.0
O24 O 0.02323 0.3735 0.56777 0.0
C25 C 0.11331 0.41004 0.62134 0.0
O26 O 0.05287 0.38318 0.53737 0.0
O27 O 0.10317 0.39597 0.59391 0.0
C28 C 0.61174 0.06949 0.77587 0.0
O29 O 0.60683 0.05259 0.79293 0.0
Cd30 Cd 0.62883 0.03955 0.80018 0.0
O31 O 0.62974 0.08127 0.76369 0.0
Cd32 Cd 0.66271 0.08219 0.76693 0.0
C33 C 0.64589 0.04514 0.69125 0.0
O34 O 0.65782 0.06464 0.83639 0.0
O35 O 0.68104 0.06569 0.79507 0.0
O36 O 0.67396 0.11469 0.79991 0.0
C37 C 0.67212 0.06117 0.83223 0.0
O38 O 0.63616 0.03425 0.72425 0.0
C39 C 0.69114 0.12348 0.78214 0.0
O40 O 0.65643 0.06416 0.69527 0.0
O41 O 0.69484 0.11346 0.75389 0.0
C42 C 0.53106 0.61758 0.94327 0.0
O43 O 0.54292 0.61245 0.9601 0.0
Cd44 Cd 0.57795 0.63425 0.96804 0.0
O45 O 0.53746 0.6357 0.93146 0.0
Cd46 Cd 0.56964 0.66849 0.9349 0.0
C47 C 0.59003 0.6517 0.85955 0.0
O48 O 0.5821 0.66334 0.00439 0.0
O49 O 0.60433 0.68669 0.96331 0.0
O50 O 0.5486 0.6798 0.96839 0.0
C51 C 0.59986 0.67767 0.00037 0.0
O52 O 0.59104 0.64189 0.89259 0.0
C53 C 0.55704 0.69707 0.95093 0.0
O54 O 0.58148 0.66219 0.86331 0.0
O55 O 0.57066 0.7008 0.92244 0.0
C56 C 0.90128 0.53926 0.10503 0.0
O57 O 0.91767 0.55122 0.12404 0.0
Cd58 Cd 0.92992 0.58615 0.13153 0.0
O59 O 0.88976 0.5455 0.0909 0.0
Cd60 Cd 0.88877 0.57756 0.09278 0.0
C61 C 0.92714 0.59809 0.02124 0.0
O62 O 0.90399 0.58971 0.16482 0.0
O63 O 0.90513 0.61231 0.12071 0.0
O64 O 0.85574 0.55587 0.1222 0.0
C65 C 0.90734 0.60743 0.15963 0.0
O66 O 0.9372 0.5993 0.05589 0.0
C67 C 0.84742 0.56486 0.10494 0.0
O68 O 0.90806 0.58936 0.02277 0.0
O69 O 0.85791 0.57898 0.0779 0.0
C70 C 0.35689 0.9135 0.28546 0.0
O71 O 0.36194 0.93068 0.30117 0.0
Cd72 Cd 0.33998 0.94397 0.30724 0.0
O73 O 0.33878 0.90152 0.27428 0.0
Cd74 Cd 0.3058 0.90032 0.27727 0.0
C75 C 0.32199 0.93637 0.19881 0.0
O76 O 0.31085 0.91963 0.34431 0.0
O77 O 0.28644 0.91589 0.30264 0.0
O78 O 0.29485 0.86958 0.31751 0.0
C79 C 0.29582 0.92193 0.33913 0.0
O80 O 0.33201 0.9478 0.23091 0.0
C81 C 0.27831 0.8593 0.29755 0.0
O82 O 0.31149 0.91742 0.20433 0.0
O83 O 0.27486 0.86764 0.26482 0.0
C84 C 0.61505 0.53937 0.36663 0.0
O85 O 0.61023 0.55095 0.3471 0.0
Cd86 Cd 0.63231 0.58603 0.33964 0.0
O87 O 0.63283 0.54609 0.38101 0.0
Cd88 Cd 0.66548 0.57838 0.37902 0.0
C89 C 0.64687 0.59841 0.44997 0.0
O90 O 0.66221 0.59037 0.30692 0.0
O91 O 0.68344 0.61309 0.35114 0.0
O92 O 0.67695 0.55677 0.34968 0.0
C93 C 0.67635 0.60816 0.31222 0.0
O94 O 0.63787 0.59927 0.41521 0.0
C95 C 0.69427 0.56584 0.36675 0.0
O96 O 0.6576 0.59006 0.44875 0.0
O97 O 0.6979 0.58003 0.39363 0.0
C98 C 0.06067 0.61594 0.5275 0.0
O99 O 0.04388 0.61118 0.5101 0.0
Cd100 Cd 0.03107 0.63338 0.50177 0.0
O101 O 0.07255 0.63397 0.53958 0.0
Cd102 Cd 0.07375 0.66707 0.53581 0.0
C103 C 0.03624 0.65049 0.61049 0.0
O104 O 0.05628 0.66258 0.46651 0.0
O105 O 0.05764 0.68588 0.50834 0.0
O106 O 0.10549 0.67876 0.49962 0.0
C107 C 0.05301 0.67702 0.47105 0.0
O108 O 0.02546 0.64086 0.57727 0.0
C109 C 0.11502 0.69523 0.52032 0.0
O110 O 0.05528 0.6608 0.60696 0.0
O111 O 0.10572 0.69829 0.55155 0.0
C112 C 0.43069 0.06674 0.69923 0.0
O113 O 0.41891 0.04992 0.68151 0.0
Cd114 Cd 0.38382 0.03672 0.6729 0.0
O115 O 0.42423 0.07829 0.71183 0.0
Cd116 Cd 0.39224 0.07915 0.70953 0.0
C117 C 0.37139 0.04064 0.78202 0.0
O118 O 0.38006 0.06236 0.63877 0.0
O119 O 0.3582 0.06459 0.6792 0.0
O120 O 0.41401 0.11215 0.67955 0.0
C121 C 0.36262 0.05991 0.64223 0.0
O122 O 0.3705 0.03025 0.74822 0.0
C123 C 0.40546 0.12071 0.69779 0.0
O124 O 0.37991 0.05972 0.7795 0.0
O125 O 0.39148 0.1103 0.72513 0.0
C126 C 0.35079 0.43839 0.86759 0.0
O127 O 0.35546 0.42671 0.848 0.0
Cd128 Cd 0.3332 0.3917 0.83996 0.0
O129 O 0.33305 0.43181 0.88202 0.0
Cd130 Cd 0.30032 0.39957 0.88011 0.0
C131 C 0.3188 0.379 0.95012 0.0
O132 O 0.3034 0.38785 0.80755 0.0
O133 O 0.28216 0.36497 0.85135 0.0
O134 O 0.28836 0.42108 0.8523 0.0
C135 C 0.28923 0.37005 0.81247 0.0
O136 O 0.32768 0.3781 0.91522 0.0
C137 C 0.27126 0.41194 0.87035 0.0
O138 O 0.30826 0.38755 0.94919 0.0
O139 O 0.26801 0.39774 0.89685 0.0
C140 C 0.90337 0.35903 0.03837 0.0
O141 O 0.92043 0.36394 0.02236 0.0
Cd142 Cd 0.93329 0.34177 0.01398 0.0
O143 O 0.89129 0.3409 0.04939 0.0
Cd144 Cd 0.89 0.30774 0.04599 0.0
C145 C 0.92705 0.32367 0.12197 0.0
O146 O 0.9081 0.31308 0.97712 0.0
O147 O 0.90484 0.28822 0.01616 0.0
O148 O 0.85774 0.29714 0.01264 0.0
C149 C 0.91054 0.29805 0.98018 0.0
O150 O 0.93809 0.33364 0.08939 0.0
C151 C 0.84863 0.27994 0.03048 0.0
O152 O 0.90806 0.31333 0.11757 0.0
O153 O 0.85837 0.27597 0.05894 0.0
C154 C 0.53442 0.90937 0.2004 0.0
O155 O 0.54613 0.92551 0.18021 0.0
Cd156 Cd 0.58093 0.93753 0.17119 0.0
O157 O 0.54077 0.89793 0.21453 0.0
Cd158 Cd 0.57246 0.89643 0.211 0.0
C159 C 0.5938 0.93542 0.28108 0.0
O160 O 0.58413 0.91123 0.13844 0.0
O161 O 0.60688 0.91228 0.18183 0.0
O162 O 0.55037 0.8632 0.18281 0.0
C163 C 0.60182 0.9145 0.14309 0.0
O164 O 0.59475 0.94531 0.24631 0.0
C165 C 0.5591 0.85476 0.20075 0.0
O166 O 0.58502 0.9163 0.28006 0.0
O167 O 0.5734 0.86537 0.2273 0.0
H168 H 0.33574 0.35552 0.95959 0.0
H169 H 0.34279 0.34333 0.02804 0.0
H170 H 0.31611 0.3713 0.1044 0.0
H171 H 0.30865 0.3834 0.03556 0.0
H172 H 0.36695 0.3664 0.09538 0.0
H173 H 0.29046 0.31544 0.15903 0.0
H174 H 0.29518 0.32464 0.10257 0.0
H175 H 0.29537 0.34033 0.14703 0.0
C176 C 0.33115 0.35897 -0.00916 0.0
C177 C 0.32164 0.37052 -0.00798 0.0
C178 C 0.33521 0.35194 0.03 0.0
C179 C 0.32984 0.35623 0.07134 0.0
C180 C 0.32005 0.36747 0.0728 0.0
H181 H 0.35498 0.34501 0.34379 0.0
H182 H 0.34326 0.35033 0.27276 0.0
C183 C 0.31587 0.37447 0.03344 0.0
C184 C 0.33571 0.34995 0.11275 0.0
H185 H 0.31745 0.32299 0.20849 0.0
C186 C 0.35611 0.35676 0.11994 0.0
C187 C 0.32156 0.33735 0.14469 0.0
C188 C 0.2994 0.32884 0.13789 0.0
C189 C 0.36279 0.35178 0.15875 0.0
C190 C 0.34866 0.3394 0.19098 0.0
C191 C 0.32824 0.3324 0.1836 0.0
C192 C 0.35493 0.33482 0.23401 0.0
C193 C 0.38497 0.3604 0.16568 0.0
C194 C 0.3651 0.32396 0.23598 0.0
C195 C 0.37192 0.32086 0.27685 0.0
C196 C 0.36867 0.32861 0.31633 0.0
C197 C 0.35794 0.33895 0.31411 0.0
C198 C 0.35112 0.34197 0.27348 0.0
H199 H 0.39397 0.37278 0.14208 0.0
H200 H 0.38931 0.36612 0.20014 0.0
H201 H 0.3888 0.34845 0.16046 0.0
H202 H 0.36792 0.31804 0.2059 0.0
H203 H 0.38004 0.31276 0.27738 0.0
H204 H -0.00587 0.34791 0.52329 0.0
H205 H 0.97576 0.33552 0.45389 0.0
H206 H 0.03079 0.36763 0.38007 0.0
H207 H 0.0495 0.38001 0.44995 0.0
H208 H 0.97404 0.35963 0.38905 0.0
H209 H 0.00336 0.31253 0.32002 0.0
H210 H 0.0068 0.32039 0.37749 0.0
H211 H 0.02229 0.3375 0.33495 0.0
C212 C 0.00245 0.35219 0.49239 0.0
C213 C 0.02332 0.36508 0.4922 0.0
C214 C -0.00812 0.34504 0.45271 0.0
C215 C 0.00187 0.35054 0.4118 0.0
C216 C 0.0228 0.36291 0.41132 0.0
H217 H 0.96704 0.34215 0.13892 0.0
H218 H -0.0163 0.3467 0.21013 0.0
C219 C 0.03347 0.37004 0.45126 0.0
C220 C -0.00993 0.34458 0.36997 0.0
H221 H -0.01694 0.3195 0.27199 0.0
C222 C 0.97589 0.3507 0.3636 0.0
C223 C -0.0075 0.33294 0.33687 0.0
C224 C 0.00693 0.32527 0.34268 0.0
C225 C 0.96445 0.34599 0.32453 0.0
C226 C 0.967 0.33451 0.2912 0.0
C227 C 0.98104 0.32819 0.29774 0.0
C228 C 0.95639 0.33028 0.24792 0.0
C229 C 0.95027 0.35397 0.31859 0.0
C230 C 0.9354 0.31915 0.24528 0.0
C231 C 0.92569 0.31654 0.20431 0.0
C232 C 0.93685 0.32499 0.16535 0.0
C233 C 0.95789 0.33554 0.16817 0.0
C234 C 0.96751 0.33812 0.20891 0.0
H235 H 0.9532 0.36599 0.34292 0.0
H236 H 0.95144 0.36 0.2845 0.0
H237 H 0.93469 0.3416 0.32353 0.0
H238 H 0.92654 0.31268 0.27495 0.0
H239 H 0.9095 0.30824 0.2033 0.0
H240 H 0.61764 0.97577 0.29077 0.0
H241 H 0.62987 -0.0051 0.35935 0.0
H242 H 0.60149 0.94015 0.43538 0.0
H243 H 0.58933 0.92069 0.36641 0.0
H244 H 0.60662 -0.00401 0.42651 0.0
H245 H 0.65725 0.97003 0.49059 0.0
H246 H 0.64824 0.96575 0.43397 0.0
H247 H 0.63242 0.95016 0.47812 0.0
C248 C 0.61412 0.96769 0.32197 0.0
C249 C 0.60242 0.94664 0.32302 0.0
C250 C 0.62116 0.97871 0.3612 0.0
C251 C 0.61676 0.96899 0.40249 0.0
C252 C 0.6054 0.94795 0.40382 0.0
H253 H 0.62784 0.00503 0.6752 0.0
H254 H 0.62257 0.98805 0.6041 0.0
C255 C 0.59838 0.93685 0.36439 0.0
C256 C 0.62297 0.98108 0.44397 0.0
H257 H 0.64974 -0.01046 0.53994 0.0
C258 C 0.61619 -0.00529 0.45115 0.0
C259 C 0.63548 0.97941 0.47602 0.0
C260 C 0.64395 0.96569 0.46924 0.0
C261 C 0.6211 0.00631 0.49005 0.0
C262 C 0.6334 0.00446 0.52236 0.0
C263 C 0.64039 -0.009 0.51499 0.0
C264 C 0.63795 0.01527 0.56544 0.0
C265 C 0.61249 0.01991 0.49695 0.0
C266 C 0.64873 0.03632 0.5675 0.0
C267 C 0.65178 0.0462 0.6084 0.0
C268 C 0.64409 0.03516 0.64786 0.0
C269 C 0.63385 0.01408 0.64556 0.0
C270 C 0.63087 0.00428 0.60489 0.0
H271 H 0.60011 0.01654 0.47336 0.0
H272 H 0.6068 0.01856 0.53142 0.0
H273 H 0.6244 0.03568 0.49168 0.0
H274 H 0.6546 0.04508 0.53746 0.0
H275 H 0.65981 0.06242 0.609 0.0
H276 H 0.65729 0.59411 0.53538 0.0
H277 H 0.64954 0.6059 0.60449 0.0
H278 H 0.62231 0.63341 0.52842 0.0
H279 H 0.62968 0.62163 0.45981 0.0
H280 H 0.65966 0.64522 0.63366 0.0
H281 H 0.57762 0.59615 0.61357 0.0
H282 H 0.59549 0.59267 0.58182 0.0
H283 H 0.58983 0.61185 0.56642 0.0
C284 C 0.64976 0.60277 0.53341 0.0
C285 C 0.64389 0.60669 0.49204 0.0
C286 C 0.64534 0.60948 0.57288 0.0
C287 C 0.63498 0.62017 0.57157 0.0
C288 C 0.62988 0.62478 0.53028 0.0
H289 H 0.58491 0.66342 0.77617 0.0
H290 H 0.59723 0.65799 0.70512 0.0
C291 C 0.6342 0.61806 0.49102 0.0
C292 C 0.6291 0.62625 0.61315 0.0
H293 H 0.58844 0.62019 0.6714 0.0
C294 C 0.6441 0.63972 0.64203 0.0
C295 C 0.60878 0.61913 0.62384 0.0
C296 C 0.59197 0.60401 0.59504 0.0
C297 C 0.63931 0.6464 0.68115 0.0
C298 C 0.61898 0.63918 0.69193 0.0
C299 C 0.60401 0.62585 0.66286 0.0
C300 C 0.61282 0.64404 0.73475 0.0
C301 C 0.65604 0.66128 0.71039 0.0
C302 C 0.61747 0.63799 0.77478 0.0
C303 C 0.61043 0.64098 0.81511 0.0
C304 C 0.59848 0.65005 0.81645 0.0
C305 C 0.59412 0.65648 0.77634 0.0
C306 C 0.60112 0.65335 0.73577 0.0
H307 H 0.67026 0.66969 0.69157 0.0
H308 H 0.65225 0.67215 0.72532 0.0
H309 H 0.65857 0.65315 0.73778 0.0
H310 H 0.6261 0.63041 0.77477 0.0
H311 H 0.61414 0.63585 0.84527 0.0
H312 H -0.00372 0.63441 0.62472 0.0
H313 H 0.97887 0.62901 0.69518 0.0
H314 H 0.03526 0.65706 0.76482 0.0
H315 H 0.05302 0.66243 0.69384 0.0
H316 H 0.0067 0.61949 0.79918 0.0
H317 H 0.97345 0.66821 0.77749 0.0
H318 H 0.96866 0.65144 0.73174 0.0
H319 H -0.0061 0.67068 0.74368 0.0
C320 C 0.0051 0.63966 0.65487 0.0
C321 C 0.02611 0.64884 0.65354 0.0
C322 C -0.00493 0.63669 0.69518 0.0
C323 C 0.00575 0.6429 0.7352 0.0
C324 C 0.02674 0.65231 0.73419 0.0
H325 H 0.96736 0.62193 0.0106 0.0
H326 H -0.01383 0.63348 0.94157 0.0
C327 C 0.03687 0.65539 0.69365 0.0
C328 C -0.00524 0.63811 0.77804 0.0
H329 H 0.95996 0.64404 0.83601 0.0
C330 C -0.00334 0.62504 0.8075 0.0
C331 C 0.98149 0.64518 0.78855 0.0
C332 C 0.97935 0.6598 0.75891 0.0
C333 C -0.0147 0.61847 0.84669 0.0
C334 C 0.97195 0.62545 0.85713 0.0
C335 C 0.97013 0.63864 0.82783 0.0
C336 C 0.96015 0.61954 0.89892 0.0
C337 C -0.0127 0.60365 0.87599 0.0
C338 C 0.93914 0.60854 0.89798 0.0
C339 C 0.9282 0.60194 0.93769 0.0
C340 C 0.93814 0.60631 0.97891 0.0
C341 C 0.95916 0.61802 0.97952 0.0
C342 C 0.97001 0.62462 0.94003 0.0
H343 H -0.00607 0.59582 0.85777 0.0
H344 H -0.00275 0.61173 0.90444 0.0
H345 H 0.97254 0.59225 0.88945 0.0
H346 H 0.93124 0.6046 0.86652 0.0
H347 H 0.91204 0.59302 0.93603 0.0
H348 H 0.34749 0.00046 0.79416 0.0
H349 H 0.33561 0.98221 0.86383 0.0
H350 H 0.36451 0.0379 0.93651 0.0
H351 H 0.37633 0.05648 0.86638 0.0
H352 H 0.35928 0.98194 0.93102 0.0
H353 H 0.30906 0.00871 -0.00662 0.0
H354 H 0.31772 0.01229 0.93654 0.0
H355 H 0.33383 0.0284 0.97976 0.0
C356 C 0.3512 0.00894 0.82484 0.0
C357 C 0.36296 0.02999 0.82462 0.0
C358 C 0.34435 -0.00157 0.8647 0.0
C359 C 0.34901 0.00865 0.90537 0.0
C360 C 0.3604 0.0297 0.90543 0.0
H361 H 0.33974 0.9762 0.17995 0.0
H362 H 0.3444 -0.00787 0.10775 0.0
C363 C 0.36723 0.04031 0.86535 0.0
C364 C 0.34304 -0.00293 0.94754 0.0
H365 H 0.31682 -0.01027 0.04384 0.0
C366 C 0.34985 0.98351 0.95554 0.0
C367 C 0.33071 -0.00089 0.97941 0.0
C368 C 0.32223 0.01277 0.9718 0.0
C369 C 0.34515 0.97236 -0.00494 0.0
C370 C 0.33303 0.97459 0.02721 0.0
C371 C 0.32601 0.98797 0.01902 0.0
C372 C 0.32882 0.96437 0.07098 0.0
C373 C 0.3538 0.95884 0.00279 0.0
C374 C 0.31813 0.94336 0.07449 0.0
C375 C 0.31544 0.93407 0.11606 0.0
C376 C 0.32339 0.94568 0.15472 0.0
C377 C 0.33353 0.96672 0.15096 0.0
C378 C 0.33617 0.97592 0.10964 0.0
H379 H 0.36601 0.96191 0.97901 0.0
H380 H 0.35973 0.96063 0.03717 0.0
H381 H 0.34185 0.94301 -0.00149 0.0
H382 H 0.31206 0.93417 0.04506 0.0
H383 H 0.30747 0.91787 0.11778 0.0
H384 H 0.61895 0.50991 0.40931 0.0
H385 H 0.59291 0.47491 0.42097 0.0
H386 H 0.55058 0.48579 0.35045 0.0
H387 H 0.57632 0.52044 0.33818 0.0
H388 H 0.55776 0.46125 0.46619 0.0
H389 H 0.54145 0.43432 0.29285 0.0
H390 H 0.56389 0.45716 0.30826 0.0
H391 H 0.54079 0.45712 0.29916 0.0
C392 C 0.60414 0.50477 0.39588 0.0
C393 C 0.59974 0.518 0.37275 0.0
C394 C 0.58931 0.48477 0.40252 0.0
C395 C 0.56992 0.47764 0.38578 0.0
C396 C 0.56557 0.4908 0.36259 0.0
H397 H 0.45434 0.39927 0.47024 0.0
H398 H 0.489 0.4249 0.45844 0.0
C399 C 0.5803 0.5107 0.35597 0.0
C400 C 0.55363 0.45699 0.39533 0.0
H401 H 0.51432 0.41672 0.34576 0.0
C402 C 0.54852 0.45129 0.43986 0.0
C403 C 0.54181 0.44378 0.36105 0.0
C404 C 0.54741 0.44833 0.31267 0.0
C405 C 0.53096 0.43352 0.45093 0.0
C406 C 0.51806 0.42138 0.41658 0.0
C407 C 0.52405 0.4262 0.37211 0.0
C408 C 0.49739 0.40513 0.42586 0.0
C409 C 0.52608 0.42825 0.49936 0.0
C410 C 0.4904 0.38552 0.41051 0.0
C411 C 0.47038 0.37072 0.41694 0.0
C412 C 0.45702 0.3754 0.43837 0.0
C413 C 0.46418 0.39507 0.45374 0.0
C414 C 0.48409 0.40975 0.4474 0.0
H415 H 0.53991 0.43446 0.51979 0.0
H416 H 0.5171 0.43488 0.51169 0.0
H417 H 0.51732 0.41178 0.50435 0.0
H418 H 0.50039 0.38172 0.39333 0.0
H419 H 0.46534 0.35574 0.4046 0.0
H420 H 0.03676 0.4525 0.63168 0.0
H421 H 0.045 0.48683 0.61684 0.0
H422 H 0.10164 0.49965 0.561 0.0
H423 H 0.09339 0.46498 0.57525 0.0
H424 H 0.07758 0.52316 0.64651 0.0
H425 H 0.07564 0.51606 0.46191 0.0
H426 H 0.06559 0.49449 0.49806 0.0
H427 H 0.09216 0.51001 0.49168 0.0
C428 C 0.051 0.46254 0.61626 0.0
C429 C 0.06435 0.4559 0.60437 0.0
C430 C 0.05571 0.48222 0.60796 0.0
C431 C 0.07384 0.49572 0.58751 0.0
C432 C 0.08744 0.48936 0.57628 0.0
H433 H 0.09471 0.61951 0.5659 0.0
H434 H 0.10244 0.59267 0.57931 0.0
C435 C 0.08272 0.46957 0.58457 0.0
C436 C 0.07789 0.51623 0.57731 0.0
H437 H 0.07909 0.54578 0.49143 0.0
C438 C 0.0783 0.52833 0.61264 0.0
C439 C 0.07873 0.52281 0.53305 0.0
C440 C 0.0779 0.51019 0.49384 0.0
C441 C 0.07843 0.54637 0.60491 0.0
C442 C 0.07847 0.55256 0.56062 0.0
C443 C 0.07915 0.54099 0.52532 0.0
C444 C 0.07496 0.56935 0.55019 0.0
C445 C 0.07722 0.55797 0.64408 0.0
C446 C 0.05724 0.56521 0.5284 0.0
C447 C 0.05283 0.58041 0.52056 0.0
C448 C 0.06608 0.60018 0.5343 0.0
C449 C 0.08412 0.60443 0.55516 0.0
C450 C 0.08854 0.58912 0.56297 0.0
H451 H 0.07424 0.54952 0.67575 0.0
H452 H 0.09162 0.57221 0.64754 0.0
H453 H 0.06524 0.56175 0.63883 0.0
H454 H 0.04655 0.55005 0.51828 0.0
H455 H 0.03885 0.57656 0.50423 0.0
H456 H 0.46046 0.10083 0.73887 0.0
H457 H 0.49549 0.1099 0.75003 0.0
H458 H 0.48399 0.05523 0.68519 0.0
H459 H 0.44928 0.04617 0.67348 0.0
H460 H 0.50958 0.08901 0.79754 0.0
H461 H 0.5347 0.09668 0.62312 0.0
H462 H 0.51208 0.09664 0.63884 0.0
H463 H 0.51201 0.07339 0.63183 0.0
C464 C 0.46546 0.09084 0.72661 0.0
C465 C 0.45204 0.07278 0.70521 0.0
C466 C 0.48547 0.09607 0.73296 0.0
C467 C 0.49243 0.08344 0.71763 0.0
C468 C 0.47909 0.06547 0.69622 0.0
H469 H 0.573 0.04893 0.80376 0.0
H470 H 0.54679 0.05716 0.79165 0.0
C471 C 0.45915 0.06023 0.68993 0.0
C472 C 0.51317 0.08801 0.72669 0.0
H473 H 0.55316 0.08862 0.67673 0.0
C474 C 0.51932 0.08938 0.77109 0.0
C475 C 0.52607 0.08893 0.6922 0.0
C476 C 0.52096 0.08906 0.64382 0.0
C477 C 0.5373 0.09 0.78199 0.0
C478 C 0.54921 0.08887 0.7476 0.0
C479 C 0.54387 0.08918 0.70312 0.0
C480 C 0.5658 0.08496 0.75707 0.0
C481 C 0.54307 0.09122 0.83031 0.0
C482 C 0.58517 0.09766 0.74078 0.0
C483 C 0.6003 0.09291 0.74743 0.0
C484 C 0.59619 0.07525 0.77 0.0
C485 C 0.57676 0.06267 0.78634 0.0
C486 C 0.56175 0.06745 0.77981 0.0
H487 H 0.53679 0.09892 0.85029 0.0
H488 H 0.5369 0.07584 0.84376 0.0
H489 H 0.55957 0.0993 0.83455 0.0
H490 H 0.58853 0.11114 0.72269 0.0
H491 H 0.61509 0.10289 0.73431 0.0
H492 H 0.50105 0.62183 0.90458 0.0
H493 H 0.46602 0.59572 0.89374 0.0
H494 H 0.47806 0.55263 0.95711 0.0
H495 H 0.51272 0.5784 0.96849 0.0
H496 H 0.45193 0.56076 0.84577 0.0
H497 H 0.42749 0.5429 0.02047 0.0
H498 H 0.44993 0.56562 0.00459 0.0
H499 H 0.45027 0.54255 0.01127 0.0
C500 C 0.49616 0.60683 0.9166 0.0
C501 C 0.50971 0.60223 0.93747 0.0
C502 C 0.47615 0.59196 0.91042 0.0
C503 C 0.46935 0.57234 0.92545 0.0
C504 C 0.48284 0.56778 0.94633 0.0
H505 H 0.38938 0.45706 0.83839 0.0
H506 H 0.41539 0.49162 0.85054 0.0
C507 C 0.50274 0.58254 0.95243 0.0
C508 C 0.44864 0.55606 0.91662 0.0
H509 H 0.40918 0.51625 0.96691 0.0
C510 C 0.44236 0.55127 0.87229 0.0
C511 C 0.43595 0.54392 0.95121 0.0
C512 C 0.44117 0.54915 -0.00044 0.0
C513 C 0.42448 0.53374 0.86155 0.0
C514 C 0.41284 0.52055 0.896 0.0
C515 C 0.41827 0.5262 0.94045 0.0
C516 C 0.39639 0.49996 0.88662 0.0
C517 C 0.41856 0.52923 0.8133 0.0
C518 C 0.3771 0.49297 0.90381 0.0
C519 C 0.36211 0.47302 0.89722 0.0
C520 C 0.36625 0.45971 0.87371 0.0
C521 C 0.3856 0.46686 0.8565 0.0
C522 C 0.40048 0.48671 0.86305 0.0
H523 H 0.42451 0.54324 0.79352 0.0
H524 H 0.42497 0.52031 0.79937 0.0
H525 H 0.40205 0.52052 0.80935 0.0
H526 H 0.37371 0.50291 0.92256 0.0
H527 H 0.34739 0.46799 0.91099 0.0
H528 H 0.92577 0.39871 0.01821 0.0
H529 H 0.91728 0.42486 0.0291 0.0
H530 H 0.8597 0.38137 0.0816 0.0
H531 H 0.8682 0.35488 0.07132 0.0
H532 H 0.88518 0.42828 -0.00556 0.0
H533 H 0.88399 0.42459 0.17959 0.0
H534 H 0.89468 0.41283 0.14618 0.0
H535 H 0.86802 0.4018 0.14991 0.0
C536 C 0.91127 0.39459 0.03207 0.0
C537 C 0.89772 0.37467 0.04418 0.0
C538 C 0.90641 0.40959 0.03811 0.0
C539 C 0.88794 0.40509 0.05644 0.0
C540 C 0.87416 0.38519 0.06791 0.0
H541 H 0.86778 0.50877 0.0649 0.0
H542 H 0.85991 0.47401 0.05369 0.0
C543 C 0.87902 0.37008 0.0619 0.0
C544 C 0.88373 0.42161 0.06428 0.0
H545 H 0.88141 0.45079 0.14679 0.0
C546 C 0.88396 0.43303 0.02767 0.0
C547 C 0.88222 0.42774 0.10773 0.0
C548 C 0.88231 0.41624 0.14827 0.0
C549 C 0.88385 0.45106 0.03344 0.0
C550 C 0.8832 0.45764 0.07699 0.0
C551 C 0.88183 0.44563 0.11347 0.0
C552 C 0.88683 0.47811 0.08571 0.0
C553 C 0.88576 0.46356 -0.00689 0.0
C554 C 0.90428 0.49173 0.1083 0.0
C555 C 0.90877 0.51145 0.11488 0.0
C556 C 0.89586 0.51803 0.09906 0.0
C557 C 0.8781 0.50423 0.07724 0.0
C558 C 0.8736 0.48439 0.07069 0.0
H559 H 0.88906 0.45772 0.96242 0.0
H560 H 0.87153 0.46357 0.98796 0.0
H561 H 0.89781 0.47932 -0.00185 0.0
H562 H 0.9147 0.4872 0.12011 0.0
H563 H 0.92253 0.52159 0.13197 0.0
H564 H 0.3526 0.87879 0.2492 0.0
H565 H 0.3788 0.87008 0.23766 0.0
H566 H 0.42223 0.92632 0.29619 0.0
H567 H 0.39633 0.93503 0.3083 0.0
H568 H 0.41269 0.89041 0.18685 0.0
H569 H 0.43376 0.88687 0.36075 0.0
H570 H 0.41072 0.88622 0.34626 0.0
H571 H 0.43377 0.90977 0.35005 0.0
C572 C 0.36769 0.8892 0.26005 0.0
C573 C 0.37234 0.90761 0.27974 0.0
C574 C 0.38262 0.88418 0.25346 0.0
C575 C 0.40238 0.89738 0.26685 0.0
C576 C 0.407 0.91567 0.28667 0.0
H577 H 0.51607 0.92967 0.17119 0.0
H578 H 0.48206 0.92227 0.18588 0.0
C579 C 0.39216 0.9207 0.29321 0.0
C580 C 0.41864 0.89299 0.25728 0.0
H581 H 0.45914 0.89378 0.30512 0.0
C582 C 0.42262 0.89072 0.21279 0.0
C583 C 0.43137 0.89298 0.29115 0.0
C584 C 0.42706 0.89387 0.33976 0.0
C585 C 0.43983 0.88997 0.20103 0.0
C586 C 0.45354 0.89191 0.23459 0.0
C587 C 0.44878 0.89261 0.27933 0.0
C588 C 0.47375 0.89534 0.22376 0.0
C589 C 0.44342 0.88766 0.15265 0.0
C590 C 0.48057 0.88289 0.24102 0.0
C591 C 0.5002 0.88717 0.23292 0.0
C592 C 0.51336 0.90412 0.20782 0.0
C593 C 0.50637 0.91646 0.19052 0.0
C594 C 0.48683 0.91215 0.19854 0.0
H595 H 0.4291 0.87958 0.13403 0.0
H596 H 0.45238 0.90272 0.13747 0.0
H597 H 0.45173 0.87943 0.14866 0.0
H598 H 0.47076 0.86995 0.26098 0.0
H599 H 0.50512 0.87739 0.24683 0.0
H600 H 0.28293 0.37336 0.72531 0.0
H601 H 0.28346 0.35242 0.66481 0.0
H602 H 0.28917 0.31388 0.76089 0.0
H603 H 0.28711 0.33398 0.82123 0.0
H604 H 0.31551 0.35263 0.65077 0.0
H605 H 0.25854 0.27308 0.66965 0.0
H606 H 0.25684 0.29262 0.69901 0.0
H607 H 0.27145 0.28226 0.72135 0.0
C608 C 0.28343 0.3599 0.7333 0.0
C609 C 0.28505 0.3552 0.77755 0.0
C610 C 0.28372 0.34794 0.69885 0.0
C611 C 0.28634 0.33151 0.70811 0.0
C612 C 0.28659 0.32608 0.75266 0.0
H613 H 0.372 0.31165 0.58743 0.0
H614 H 0.34855 0.31493 0.63636 0.0
C615 C 0.28562 0.3377 0.78721 0.0
C616 C 0.29315 0.32304 0.67234 0.0
H617 H 0.2901 0.27977 0.63434 0.0
C618 C 0.30948 0.33665 0.64649 0.0
C619 C 0.2854 0.3022 0.66636 0.0
C620 C 0.26694 0.28676 0.69032 0.0
C621 C 0.31897 0.33013 0.61696 0.0
C622 C 0.31238 0.30947 0.61405 0.0
C623 C 0.29532 0.29565 0.63753 0.0
C624 C 0.32421 0.30258 0.58895 0.0
C625 C 0.33654 0.34552 0.59029 0.0
C626 C 0.3178 0.29354 0.54716 0.0
C627 C 0.33115 0.29149 0.5192 0.0
C628 C 0.35104 0.29869 0.53277 0.0
C629 C 0.35682 0.30622 0.57602 0.0
C630 C 0.34345 0.30802 0.60402 0.0
H631 H 0.33642 0.35985 0.58756 0.0
H632 H 0.35064 0.34869 0.60703 0.0
H633 H 0.33655 0.33992 0.55627 0.0
H634 H 0.30298 0.28933 0.5351 0.0
H635 H 0.32633 0.28559 0.48598 0.0
H636 H 0.92437 0.27143 0.98454 0.0
H637 H 0.9478 0.2691 0.93292 0.0
H638 H 0.94746 0.31482 0.85068 0.0
H639 H 0.92403 0.317 0.90118 0.0
H640 H 0.94709 0.28303 0.80229 0.0
H641 H 0.00664 0.3147 0.93238 0.0
H642 H -0.0163 0.2918 0.94347 0.0
H643 H -0.01643 0.31497 0.93938 0.0
C644 C 0.92909 0.28074 0.95503 0.0
C645 C 0.92262 0.29461 0.94715 0.0
C646 C 0.94248 0.27941 0.92573 0.0
C647 C 0.9495 0.29195 0.88835 0.0
C648 C 0.94218 0.30498 0.87933 0.0
H649 H 0.03943 0.37411 0.75473 0.0
H650 H 0.01649 0.3492 0.80713 0.0
C651 C 0.92887 0.3063 0.90839 0.0
C652 C 0.96588 0.29341 0.86028 0.0
H653 H 0.01685 0.31868 0.85826 0.0
C654 C 0.96236 0.29017 0.81445 0.0
C655 C -0.01429 0.30257 0.87657 0.0
C656 C -0.00969 0.30632 0.92559 0.0
C657 C 0.97824 0.29811 0.78401 0.0
C658 C -0.00194 0.30922 0.8002 0.0
C659 C 0.00159 0.31022 0.84615 0.0
C660 C 0.01437 0.3238 0.77141 0.0
C661 C 0.97359 0.29648 0.73491 0.0
C662 C 0.02124 0.31781 0.73457 0.0
C663 C 0.03432 0.33212 0.70414 0.0
C664 C 0.04066 0.35254 0.71038 0.0
C665 C 0.03466 0.35849 0.74875 0.0
C666 C 0.02164 0.34426 0.7789 0.0
H667 H 0.95725 0.28843 0.72817 0.0
H668 H 0.98032 0.31164 0.71984 0.0
H669 H 0.98015 0.28827 0.71816 0.0
H670 H 0.01599 0.30209 0.72858 0.0
H671 H 0.03887 0.32713 0.67501 0.0
H672 H 0.59818 0.90514 0.05575 0.0
H673 H 0.61923 0.92652 -0.00463 0.0
H674 H 0.6584 0.9701 0.09174 0.0
H675 H 0.63817 0.94799 0.15194 0.0
H676 H 0.61975 0.9588 0.98188 0.0
H677 H 0.69879 0.97962 0.00018 0.0
H678 H 0.67905 0.95853 0.02943 0.0
H679 H 0.68986 0.98351 0.05204 0.0
C680 C 0.61179 0.91892 0.06382 0.0
C681 C 0.61663 0.92506 0.10813 0.0
C682 C 0.62381 0.93112 0.02943 0.0
C683 C 0.64047 0.94998 0.03882 0.0
C684 C 0.64602 0.95546 0.0834 0.0
H685 H 0.66213 0.05646 0.91934 0.0
H686 H 0.65875 0.02962 0.9682 0.0
C687 C 0.63433 0.94291 0.11787 0.0
C688 C 0.64914 0.96532 0.00321 0.0
H689 H 0.69271 0.00504 0.96529 0.0
C690 C 0.63574 0.96848 0.97756 0.0
C691 C 0.66999 0.97807 -0.00281 0.0
C692 C 0.68519 0.97458 0.02092 0.0
C693 C 0.64251 0.98459 0.94818 0.0
C694 C 0.66322 -0.00168 0.94522 0.0
C695 C 0.6768 -0.00536 0.96852 0.0
C696 C 0.67039 0.01713 0.92025 0.0
C697 C 0.62734 0.98724 0.92172 0.0
C698 C 0.6791 0.01952 0.87816 0.0
C699 C 0.68123 0.03501 0.85025 0.0
C700 C 0.67441 0.04799 0.86416 0.0
C701 C 0.66728 0.04649 0.9077 0.0
C702 C 0.66542 0.03126 0.93565 0.0
H703 H 0.61285 0.973 0.91906 0.0
H704 H 0.62454 -0.00158 0.93857 0.0
H705 H 0.63293 -0.00721 0.88768 0.0
H706 H 0.68295 0.00867 0.86582 0.0
H707 H 0.6868 0.03588 0.81679 0.0
H708 H 0.63995 0.6931 0.98576 0.0
H709 H 0.6634 0.68961 0.03512 0.0
H710 H 0.61787 0.66405 0.13636 0.0
H711 H 0.59433 0.66709 0.08719 0.0
H712 H 0.67602 0.69913 0.13553 0.0
H713 H 0.63032 0.61927 0.08627 0.0
H714 H 0.63036 0.63933 0.05515 0.0
H715 H 0.61594 0.63031 0.10537 0.0
C716 C 0.63516 0.68729 0.01904 0.0
C717 C 0.61526 0.68001 0.03253 0.0
C718 C 0.64857 0.68538 0.04714 0.0
C719 C 0.64221 0.67641 0.089 0.0
C720 C 0.62295 0.67093 0.10399 0.0
H721 H 0.67816 0.64406 0.3215 0.0
H722 H 0.67638 0.66442 0.26138 0.0
C723 C 0.60952 0.67259 0.07586 0.0
C724 C 0.65402 0.66951 0.11411 0.0
H725 H 0.65095 0.62625 0.14991 0.0
C726 C 0.67088 0.68325 0.13827 0.0
C727 C 0.64754 0.64886 0.11645 0.0
C728 C 0.63016 0.63357 0.08911 0.0
C729 C 0.6807 0.67662 0.16721 0.0
C730 C 0.67304 0.65576 0.1726 0.0
C731 C 0.65693 0.64224 0.14607 0.0
C732 C 0.67967 0.64715 0.20845 0.0
C733 C 0.69896 0.69199 0.19191 0.0
C734 C 0.68243 0.63082 0.19904 0.0
C735 C 0.68254 0.6187 0.23334 0.0
C736 C 0.68061 0.62314 0.2776 0.0
C737 C 0.67988 0.64055 0.28747 0.0
C738 C 0.67909 0.65232 0.25306 0.0
H739 H 0.70745 0.70579 0.17167 0.0
H740 H 0.69421 0.69628 0.22286 0.0
H741 H 0.70907 0.68615 0.20083 0.0
H742 H 0.68295 0.62654 0.16496 0.0
H743 H 0.68317 0.60533 0.22519 0.0
H744 H 0.02788 0.69183 0.48701 0.0
H745 H 0.0009 0.68841 0.43788 0.0
H746 H 0.02189 0.6646 0.33472 0.0
H747 H 0.0485 0.66756 0.38364 0.0
H748 H -0.00221 0.69863 0.33718 0.0
H749 H 0.96499 0.61864 0.38443 0.0
H750 H -0.01535 0.63874 0.41612 0.0
H751 H -0.00954 0.63025 0.3656 0.0
C752 C 0.02708 0.68646 0.45336 0.0
C753 C 0.04 0.67962 0.43921 0.0
C754 C 0.01173 0.68458 0.42539 0.0
C755 C 0.00942 0.67611 0.38302 0.0
C756 C 0.02349 0.67112 0.36745 0.0
H757 H 0.94102 0.64362 0.15055 0.0
H758 H 0.96303 0.66402 0.21078 0.0
C759 C 0.03859 0.67273 0.39545 0.0
C760 C -0.00932 0.66906 0.35794 0.0
H761 H 0.95101 0.62563 0.32143 0.0
C762 C -0.01273 0.68272 0.33416 0.0
C763 C 0.97681 0.64835 0.35518 0.0
C764 C 0.97925 0.63312 0.382 0.0
C765 C 0.97081 0.67597 0.30523 0.0
C766 C 0.95791 0.6551 0.29946 0.0
C767 C 0.9608 0.64164 0.32558 0.0
C768 C 0.94268 0.64644 0.26365 0.0
C769 C 0.96761 0.69126 0.28093 0.0
C770 C 0.92373 0.62993 0.27299 0.0
C771 C 0.91158 0.61781 0.23862 0.0
C772 C 0.91788 0.62241 0.19436 0.0
C773 C 0.93583 0.63998 0.18458 0.0
C774 C 0.94832 0.65176 0.21906 0.0
H775 H 0.97275 0.70498 0.30139 0.0
H776 H 0.97659 0.69572 0.24992 0.0
H777 H 0.95163 0.68525 0.27216 0.0
H778 H 0.91901 0.62553 0.30706 0.0
H779 H 0.89772 0.60431 0.2467 0.0
H780 H 0.31057 0.93243 0.42264 0.0
H781 H 0.30686 0.95497 0.4731 0.0
H782 H 0.26765 0.96077 0.37949 0.0
H783 H 0.27143 0.93807 0.32817 0.0
H784 H 0.29859 -0.00319 0.40476 0.0
H785 H 0.26433 0.9525 0.5553 0.0
H786 H 0.28366 0.94775 0.53697 0.0
H787 H 0.26225 0.94093 0.50174 0.0
C788 C 0.30085 0.93817 0.41305 0.0
C789 C 0.29141 0.93361 0.37137 0.0
C790 C 0.29852 0.95087 0.4422 0.0
C791 C 0.28664 0.95924 0.43045 0.0
C792 C 0.27664 0.95423 0.38941 0.0
H793 H 0.32207 0.04481 0.64713 0.0
H794 H 0.29692 0.02331 0.5922 0.0
C795 C 0.27886 0.94133 0.36017 0.0
C796 C 0.28754 0.97542 0.45853 0.0
H797 H 0.29155 0.98759 0.56826 0.0
C798 C 0.29633 -0.00523 0.44041 0.0
C799 C 0.284 0.9728 0.50481 0.0
C800 C 0.2728 0.95229 0.52564 0.0
C801 C 0.30438 0.01166 0.46807 0.0
C802 C 0.3039 0.009 0.51465 0.0
C803 C 0.29242 -0.01031 0.53249 0.0
C804 C 0.31856 0.02493 0.54421 0.0
C805 C 0.31468 0.03218 0.44711 0.0
C806 C 0.33903 0.03307 0.53527 0.0
C807 C 0.35332 0.04514 0.56648 0.0
C808 C 0.34745 0.04923 0.60749 0.0
C809 C 0.32701 0.04187 0.61575 0.0
C810 C 0.31264 0.02966 0.58442 0.0
H811 H 0.30678 0.03225 0.41625 0.0
H812 H 0.31537 0.04376 0.47021 0.0
H813 H 0.33014 0.03621 0.43765 0.0
H814 H 0.34398 0.02917 0.50513 0.0
H815 H 0.36895 0.05063 0.5591 0.0
H816 H 0.38447 0.23965 0.44164 0.0
H817 H 0.38652 0.21368 0.48451 0.0
H818 H 0.44181 0.25867 0.5436 0.0
H819 H 0.43965 0.2847 0.50172 0.0
H820 H 0.4139 0.20094 0.49379 0.0
H821 H 0.40626 0.23364 0.65185 0.0
H822 H 0.40217 0.24147 0.5982 0.0
H823 H 0.42719 0.25085 0.61874 0.0
C824 C 0.39728 0.24396 0.46302 0.0
C825 C 0.41178 0.26424 0.46867 0.0
C826 C 0.39838 0.22912 0.48769 0.0
C827 C 0.41401 0.23433 0.51824 0.0
C828 C 0.42931 0.25439 0.52123 0.0
H829 H 0.43783 0.14804 0.6508 0.0
H830 H 0.44103 0.17693 0.61 0.0
C831 C 0.42814 0.26922 0.49692 0.0
C832 C 0.41384 0.21897 0.54834 0.0
H833 H 0.41298 0.20686 0.65804 0.0
C834 C 0.41372 0.20223 0.52969 0.0
C835 C 0.4132 0.22049 0.59522 0.0
C836 C 0.41201 0.23747 0.61727 0.0
C837 C 0.41326 0.18711 0.55659 0.0
C838 C 0.41338 0.18901 0.60349 0.0
C839 C 0.4132 0.20559 0.62214 0.0
C840 C 0.41302 0.17353 0.63353 0.0
C841 C 0.41214 0.16898 0.53446 0.0
C842 C 0.39693 0.16293 0.66284 0.0
C843 C 0.39523 0.14659 0.68693 0.0
C844 C 0.40958 0.14059 0.68187 0.0
C845 C 0.42644 0.15219 0.65509 0.0
C846 C 0.4282 0.16859 0.6314 0.0
H847 H 0.40684 0.16733 0.49952 0.0
H848 H 0.42727 0.17063 0.53398 0.0
H849 H 0.40196 0.15506 0.55287 0.0
H850 H 0.38515 0.16665 0.66536 0.0
H851 H 0.38205 0.13793 0.70717 0.0
H852 H 0.23077 0.38739 0.87873 0.0
H853 H 0.20487 0.38979 0.83652 0.0
H854 H 0.24948 0.44685 0.78364 0.0
H855 H 0.27545 0.4444 0.82494 0.0
H856 H 0.19141 0.41711 0.82921 0.0
H857 H 0.22656 0.41257 0.67197 0.0
H858 H 0.23371 0.40767 0.72561 0.0
H859 H 0.24301 0.43303 0.70728 0.0
C860 C 0.23499 0.40068 0.85902 0.0
C861 C 0.25518 0.4156 0.85475 0.0
C862 C 0.22019 0.40198 0.8347 0.0
C863 C 0.22537 0.41821 0.80592 0.0
C864 C 0.24526 0.43392 0.80466 0.0
H865 H 0.13978 0.4421 0.6706 0.0
H866 H 0.16823 0.44519 0.71293 0.0
C867 C 0.26005 0.43258 0.82863 0.0
C868 C 0.21024 0.41817 0.77534 0.0
H869 H 0.19935 0.4185 0.66521 0.0
C870 C 0.19314 0.41744 0.79338 0.0
C871 C 0.21235 0.4182 0.72852 0.0
C872 C 0.22979 0.41771 0.70708 0.0
C873 C 0.17823 0.41705 0.76589 0.0
C874 C 0.18069 0.41781 0.71909 0.0
C875 C 0.19764 0.41822 0.70105 0.0
C876 C 0.16545 0.41751 0.68846 0.0
C877 C 0.15973 0.41533 0.78724 0.0
C878 C 0.15535 0.40165 0.65824 0.0
C879 C 0.13926 0.4 0.63335 0.0
C880 C 0.133 0.41418 0.63844 0.0
C881 C 0.14413 0.43083 0.66622 0.0
C882 C 0.16027 0.43253 0.69079 0.0
H883 H 0.1578 0.40969 0.82193 0.0
H884 H 0.16105 0.43034 0.78821 0.0
H885 H 0.14611 0.40513 0.76793 0.0
H886 H 0.15927 0.39 0.65558 0.0
H887 H 0.13096 0.38698 0.61234 0.0
H888 H 0.82286 0.28599 0.97981 0.0
H889 H 0.79378 0.26077 0.93897 0.0
H890 H 0.80125 0.21406 -0.00107 0.0
H891 H 0.83014 0.23923 0.04074 0.0
H892 H 0.79554 0.2364 0.87717 0.0
H893 H 0.74143 0.19065 0.00816 0.0
H894 H 0.76289 0.21491 0.01941 0.0
H895 H 0.76561 0.19307 0.01584 0.0
C896 C 0.81799 0.27031 0.98526 0.0
C897 C 0.8288 0.2646 0.01354 0.0
C898 C 0.80141 0.25592 0.9617 0.0
C899 C 0.79528 0.23551 0.96588 0.0
C900 C 0.80546 0.22968 -0.00427 0.0
H901 H 0.73176 0.14121 0.77237 0.0
H902 H 0.75719 0.17001 0.81404 0.0
C903 C 0.82199 0.24409 0.01964 0.0
C904 C 0.77948 0.22063 0.93607 0.0
H905 H 0.73503 0.17663 0.9351 0.0
C906 C 0.78221 0.22342 0.88985 0.0
C907 C 0.76202 0.20379 0.95255 0.0
C908 C 0.75768 0.20049 0.0017 0.0
C909 C 0.76816 0.20964 0.85971 0.0
C910 C 0.7511 0.19239 0.8762 0.0
C911 C 0.74818 0.1898 0.92241 0.0
C912 C 0.73611 0.17665 0.84642 0.0
C913 C 0.77162 0.21385 0.81054 0.0
C914 C 0.71583 0.17094 0.85026 0.0
C915 C 0.70129 0.15442 0.82678 0.0
C916 C 0.70673 0.14325 0.79893 0.0
C917 C 0.72712 0.14965 0.79314 0.0
C918 C 0.74168 0.16612 0.81697 0.0
H919 H 0.78174 0.23006 0.80391 0.0
H920 H 0.77878 0.2056 0.79678 0.0
H921 H 0.75732 0.20886 0.7926 0.0
H922 H 0.71119 0.17885 0.87267 0.0
H923 H 0.6857 0.14987 0.83197 0.0
H924 H 0.52641 0.82742 0.15474 0.0
H925 H 0.5227 0.79826 0.11436 0.0
H926 H 0.57881 0.80839 0.16825 0.0
H927 H 0.58244 0.83742 0.20951 0.0
H928 H 0.54854 0.8011 0.04967 0.0
H929 H 0.54399 0.74806 0.17992 0.0
H930 H 0.5403 0.76895 0.19184 0.0
H931 H 0.56517 0.77277 0.18617 0.0
C932 C 0.53769 0.82311 0.15906 0.0
C933 C 0.55474 0.83474 0.18531 0.0
C934 C 0.53559 0.80649 0.13574 0.0
C935 C 0.55046 0.80112 0.13821 0.0
C936 C 0.56697 0.81203 0.16637 0.0
H937 H 0.57981 0.73778 0.9408 0.0
H938 H 0.57692 0.76327 0.98351 0.0
C939 C 0.56903 0.82863 0.18999 0.0
C940 C 0.54959 0.78543 0.10808 0.0
H941 H 0.55021 0.74146 0.10588 0.0
C942 C 0.54875 0.78797 0.06198 0.0
C943 C 0.54972 0.76825 0.12413 0.0
C944 C 0.54965 0.76419 0.17323 0.0
C945 C 0.54836 0.77397 0.03148 0.0
C946 C 0.54918 0.75715 0.04748 0.0
C947 C 0.54969 0.75444 0.0936 0.0
C948 C 0.54962 0.74215 0.01721 0.0
C949 C 0.54681 0.77721 0.98249 0.0
C950 C 0.53511 0.72184 0.0214 0.0
C951 C 0.53679 0.70728 -0.00276 0.0
C952 C 0.55306 0.71271 0.96842 0.0
C953 C 0.56699 0.73314 0.96234 0.0
C954 C 0.56535 0.74773 0.98678 0.0
H955 H 0.54064 0.78732 0.97659 0.0
H956 H 0.56195 0.78427 0.96747 0.0
H957 H 0.53719 0.76279 0.96517 0.0
H958 H 0.52282 0.71719 0.04456 0.0
H959 H 0.52581 0.69167 0.00269 0.0
H960 H 0.7349 0.59027 0.37262 0.0
H961 H 0.7601 0.58782 0.32769 0.0
H962 H 0.71455 0.53093 0.27596 0.0
H963 H 0.6893 0.53339 0.32008 0.0
H964 H 0.77302 0.55987 0.31742 0.0
H965 H 0.73619 0.56585 0.16423 0.0
H966 H 0.73005 0.57081 0.21891 0.0
H967 H 0.71998 0.54544 0.1999 0.0
C968 C 0.73035 0.57699 0.3526 0.0
C969 C 0.71009 0.56213 0.34952 0.0
C970 C 0.74474 0.57567 0.32671 0.0
C971 C 0.73907 0.55948 0.29751 0.0
C972 C 0.71915 0.54382 0.29734 0.0
H973 H 0.82018 0.53273 0.15271 0.0
H974 H 0.7926 0.53057 0.19681 0.0
C975 C 0.70477 0.54517 0.32292 0.0
C976 C 0.75367 0.55947 0.26544 0.0
H977 H 0.76283 0.55921 0.15426 0.0
C978 C 0.77081 0.55971 0.28177 0.0
C979 C 0.75092 0.55966 0.21887 0.0
C980 C 0.7334 0.56063 0.19931 0.0
C981 C 0.7851 0.55977 0.2528 0.0
C982 C 0.78197 0.55919 0.20625 0.0
C983 C 0.76503 0.55934 0.18991 0.0
C984 C 0.79646 0.55895 0.17418 0.0
C985 C 0.80365 0.56086 0.27233 0.0
C986 C 0.80683 0.57491 0.14439 0.0
C987 C 0.82245 0.57605 0.11851 0.0
C988 C 0.82793 0.56123 0.1222 0.0
C989 C 0.81643 0.54447 0.14939 0.0
C990 C 0.80078 0.5433 0.17496 0.0
H991 H 0.80621 0.56636 0.3072 0.0
H992 H 0.8019 0.54566 0.27231 0.0
H993 H 0.81709 0.57087 0.25234 0.0
H994 H 0.80356 0.58704 0.14293 0.0
H995 H 0.83106 0.58917 0.09801 0.0
H996 H 0.1363 0.69236 0.45151 0.0
H997 H 0.16591 0.71926 0.41634 0.0
H998 H 0.16878 0.76053 0.51697 0.0
H999 H 0.13848 0.73361 0.55174 0.0
H1000 H 0.17114 0.77543 0.43631 0.0
H1001 H 0.22418 0.74708 0.44423 0.0
H1002 H 0.20109 0.72915 0.41877 0.0
H1003 H 0.20134 0.73604 0.47613 0.0
C1004 C 0.14342 0.70705 0.46684 0.0
C1005 C 0.13499 0.71083 0.5045 0.0
C1006 C 0.16049 0.72243 0.44674 0.0
C1007 C 0.16979 0.7419 0.46424 0.0
C1008 C 0.1619 0.74559 0.50294 0.0
H1009 H 0.28191 0.84023 0.37008 0.0
H1010 H 0.25549 0.81136 0.40861 0.0
C1011 C 0.14465 0.73018 0.52294 0.0
C1012 C 0.18655 0.75862 0.43974 0.0
H1013 H 0.23166 0.77304 0.39073 0.0
C1014 C 0.18447 0.775 0.42673 0.0
C1015 C 0.20403 0.75816 0.42743 0.0
C1016 C 0.2079 0.74175 0.44279 0.0
C1017 C 0.19918 0.79073 0.40124 0.0
C1018 C 0.21619 0.78979 0.38708 0.0
C1019 C 0.21844 0.77359 0.40076 0.0
C1020 C 0.23245 0.80611 0.36065 0.0
C1021 C 0.19653 0.80843 0.39072 0.0
C1022 C 0.22855 0.81236 0.31976 0.0
C1023 C 0.24368 0.82911 0.29768 0.0
C1024 C 0.26303 0.83968 0.31583 0.0
C1025 C 0.26716 0.83252 0.35519 0.0
C1026 C 0.25203 0.81597 0.37737 0.0
H1027 H 0.1858 0.80938 0.41385 0.0
H1028 H 0.211 0.8227 0.39259 0.0
H1029 H 0.19051 0.8068 0.35651 0.0
H1030 H 0.21368 0.80461 0.3055 0.0
H1031 H 0.24005 0.83418 0.26731 0.0
loop_
_geom_bond_atom_site_label_1
_geom_bond_atom_site_label_2
_geom_bond_distance
_geom_bond_site_symmetry_2
_ccdc_geom_bond_type
C0 O1 1.306 . S
C0 O3 1.160 . S
O1 C0 1.306 . S
O1 Cd2 2.228 . S
Cd2 O1 2.228 . S
Cd2 O6 2.273 . S
Cd2 O10 2.277 . S
O3 C0 1.160 . S
O3 Cd4 2.203 . S
Cd4 O3 2.203 . S
Cd4 O6 2.411 . S
Cd4 O7 2.333 . S
Cd4 O8 2.352 . S
Cd4 O12 2.277 . S
Cd4 O13 2.356 . S
C5 O10 1.209 . S
C5 O12 1.226 . S
O6 Cd2 2.273 . S
O6 Cd4 2.411 . S
O6 C9 1.320 . S
O7 Cd4 2.333 . S
O7 C9 1.214 . S
O8 Cd4 2.352 . S
O8 C11 1.258 . S
C9 O6 1.320 . S
C9 O7 1.214 . S
O10 Cd2 2.277 . S
O10 C5 1.209 . S
C11 O8 1.258 . S
C11 O13 1.282 . S
O12 Cd4 2.277 . S
O12 C5 1.226 . S
O13 Cd4 2.356 . S
O13 C11 1.282 . S
C14 O15 1.306 . S
C14 O17 1.160 . S
O15 C14 1.306 . S
O15 Cd16 2.228 . S
Cd16 O15 2.228 . S
Cd16 O20 2.273 . S
Cd16 O24 2.277 . S
O17 C14 1.160 . S
O17 Cd18 2.203 . S
Cd18 O17 2.203 . S
Cd18 O20 2.411 . S
Cd18 O21 2.333 . S
Cd18 O22 2.352 . S
Cd18 O26 2.277 . S
Cd18 O27 2.356 . S
C19 O24 1.209 . S
C19 O26 1.226 . S
O20 Cd16 2.273 . S
O20 Cd18 2.411 . S
O20 C23 1.320 . S
O21 Cd18 2.333 . S
O21 C23 1.214 . S
O22 Cd18 2.352 . S
O22 C25 1.258 . S
C23 O20 1.320 . S
C23 O21 1.214 . S
O24 Cd16 2.277 . S
O24 C19 1.209 . S
C25 O22 1.258 . S
C25 O27 1.282 . S
O26 Cd18 2.277 . S
O26 C19 1.226 . S
O27 Cd18 2.356 . S
O27 C25 1.282 . S
C28 O29 1.306 . S
C28 O31 1.160 . S
O29 C28 1.306 . S
O29 Cd30 2.228 . S
Cd30 O29 2.228 . S
Cd30 O34 2.273 . S
Cd30 O38 2.277 . S
O31 C28 1.160 . S
O31 Cd32 2.203 . S
Cd32 O31 2.203 . S
Cd32 O34 2.411 . S
Cd32 O35 2.333 . S
Cd32 O36 2.352 . S
Cd32 O40 2.277 . S
Cd32 O41 2.356 . S
C33 O38 1.209 . S
C33 O40 1.226 . S
O34 Cd30 2.273 . S
O34 Cd32 2.411 . S
O34 C37 1.320 . S
O35 Cd32 2.333 . S
O35 C37 1.214 . S
O36 Cd32 2.352 . S
O36 C39 1.258 . S
C37 O34 1.320 . S
C37 O35 1.214 . S
O38 Cd30 2.277 . S
O38 C33 1.209 . S
C39 O36 1.258 . S
C39 O41 1.282 . S
O40 Cd32 2.277 . S
O40 C33 1.226 . S
O41 Cd32 2.356 . S
O41 C39 1.282 . S
C42 O43 1.306 . S
C42 O45 1.160 . S
O43 C42 1.306 . S
O43 Cd44 2.228 . S
Cd44 O43 2.228 . S
Cd44 O48 2.273 . S
Cd44 O52 2.277 . S
O45 C42 1.160 . S
O45 Cd46 2.203 . S
Cd46 O45 2.203 . S
Cd46 O48 2.411 . S
Cd46 O49 2.333 . S
Cd46 O50 2.352 . S
Cd46 O54 2.277 . S
Cd46 O55 2.356 . S
C47 O52 1.209 . S
C47 O54 1.226 . S
O48 Cd44 2.273 . S
O48 Cd46 2.411 . S
O48 C51 1.320 . S
O49 Cd46 2.333 . S
O49 C51 1.214 . S
O50 Cd46 2.352 . S
O50 C53 1.258 . S
C51 O48 1.320 . S
C51 O49 1.214 . S
O52 Cd44 2.277 . S
O52 C47 1.209 . S
C53 O50 1.258 . S
C53 O55 1.282 . S
O54 Cd46 2.277 . S
O54 C47 1.226 . S
O55 Cd46 2.356 . S
O55 C53 1.282 . S
C56 O57 1.306 . S
C56 O59 1.160 . S
O57 C56 1.306 . S
O57 Cd58 2.228 . S
Cd58 O57 2.228 . S
Cd58 O62 2.273 . S
Cd58 O66 2.277 . S
O59 C56 1.160 . S
O59 Cd60 2.203 . S
Cd60 O59 2.203 . S
Cd60 O62 2.411 . S
Cd60 O63 2.333 . S
Cd60 O64 2.352 . S
Cd60 O68 2.277 . S
Cd60 O69 2.356 . S
C61 O66 1.209 . S
C61 O68 1.226 . S
O62 Cd58 2.273 . S
O62 Cd60 2.411 . S
O62 C65 1.320 . S
O63 Cd60 2.333 . S
O63 C65 1.214 . S
O64 Cd60 2.352 . S
O64 C67 1.258 . S
C65 O62 1.320 . S
C65 O63 1.214 . S
O66 Cd58 2.277 . S
O66 C61 1.209 . S
C67 O64 1.258 . S
C67 O69 1.282 . S
O68 Cd60 2.277 . S
O68 C61 1.226 . S
O69 Cd60 2.356 . S
O69 C67 1.282 . S
C70 O71 1.306 . S
C70 O73 1.160 . S
O71 C70 1.306 . S
O71 Cd72 2.228 . S
Cd72 O71 2.228 . S
Cd72 O76 2.273 . S
Cd72 O80 2.277 . S
O73 C70 1.160 . S
O73 Cd74 2.203 . S
Cd74 O73 2.203 . S
Cd74 O76 2.411 . S
Cd74 O77 2.333 . S
Cd74 O78 2.352 . S
Cd74 O82 2.277 . S
Cd74 O83 2.356 . S
C75 O80 1.209 . S
C75 O82 1.226 . S
O76 Cd72 2.273 . S
O76 Cd74 2.411 . S
O76 C79 1.320 . S
O77 Cd74 2.333 . S
O77 C79 1.214 . S
O78 Cd74 2.352 . S
O78 C81 1.258 . S
C79 O76 1.320 . S
C79 O77 1.214 . S
O80 Cd72 2.277 . S
O80 C75 1.209 . S
C81 O78 1.258 . S
C81 O83 1.282 . S
O82 Cd74 2.277 . S
O82 C75 1.226 . S
O83 Cd74 2.356 . S
O83 C81 1.282 . S
C84 O85 1.306 . S
C84 O87 1.160 . S
O85 C84 1.306 . S
O85 Cd86 2.228 . S
Cd86 O85 2.228 . S
Cd86 O90 2.273 . S
Cd86 O94 2.277 . S
O87 C84 1.160 . S
O87 Cd88 2.203 . S
Cd88 O87 2.203 . S
Cd88 O90 2.411 . S
Cd88 O91 2.333 . S
Cd88 O92 2.352 . S
Cd88 O96 2.277 . S
Cd88 O97 2.356 . S
C89 O94 1.209 . S
C89 O96 1.226 . S
O90 Cd86 2.273 . S
O90 Cd88 2.411 . S
O90 C93 1.320 . S
O91 Cd88 2.333 . S
O91 C93 1.214 . S
O92 Cd88 2.352 . S
O92 C95 1.258 . S
C93 O90 1.320 . S
C93 O91 1.214 . S
O94 Cd86 2.277 . S
O94 C89 1.209 . S
C95 O92 1.258 . S
C95 O97 1.282 . S
O96 Cd88 2.277 . S
O96 C89 1.226 . S
O97 Cd88 2.356 . S
O97 C95 1.282 . S
C98 O99 1.306 . S
C98 O101 1.160 . S
O99 C98 1.306 . S
O99 Cd100 2.228 . S
Cd100 O99 2.228 . S
Cd100 O104 2.273 . S
Cd100 O108 2.277 . S
O101 C98 1.160 . S
O101 Cd102 2.203 . S
Cd102 O101 2.203 . S
Cd102 O104 2.411 . S
Cd102 O105 2.333 . S
Cd102 O106 2.352 . S
Cd102 O110 2.277 . S
Cd102 O111 2.356 . S
C103 O108 1.209 . S
C103 O110 1.226 . S
O104 Cd100 2.273 . S
O104 Cd102 2.411 . S
O104 C107 1.320 . S
O105 Cd102 2.333 . S
O105 C107 1.214 . S
O106 Cd102 2.352 . S
O106 C109 1.258 . S
C107 O104 1.320 . S
C107 O105 1.214 . S
O108 Cd100 2.277 . S
O108 C103 1.209 . S
C109 O106 1.258 . S
C109 O111 1.282 . S
O110 Cd102 2.277 . S
O110 C103 1.226 . S
O111 Cd102 2.356 . S
O111 C109 1.282 . S
C112 O113 1.306 . S
C112 O115 1.160 . S
O113 C112 1.306 . S
O113 Cd114 2.228 . S
Cd114 O113 2.228 . S
Cd114 O118 2.273 . S
Cd114 O122 2.277 . S
O115 C112 1.160 . S
O115 Cd116 2.203 . S
Cd116 O115 2.203 . S
Cd116 O118 2.411 . S
Cd116 O119 2.333 . S
Cd116 O120 2.352 . S
Cd116 O124 2.277 . S
Cd116 O125 2.356 . S
C117 O122 1.209 . S
C117 O124 1.226 . S
O118 Cd114 2.273 . S
O118 Cd116 2.411 . S
O118 C121 1.320 . S
O119 Cd116 2.333 . S
O119 C121 1.214 . S
O120 Cd116 2.352 . S
O120 C123 1.258 . S
C121 O118 1.320 . S
C121 O119 1.214 . S
O122 Cd114 2.277 . S
O122 C117 1.209 . S
C123 O120 1.258 . S
C123 O125 1.282 . S
O124 Cd116 2.277 . S
O124 C117 1.226 . S
O125 Cd116 2.356 . S
O125 C123 1.282 . S
C126 O127 1.306 . S
C126 O129 1.160 . S
O127 C126 1.306 . S
O127 Cd128 2.228 . S
Cd128 O127 2.228 . S
Cd128 O132 2.273 . S
Cd128 O136 2.277 . S
O129 C126 1.160 . S
O129 Cd130 2.203 . S
Cd130 O129 2.203 . S
Cd130 O132 2.411 . S
Cd130 O133 2.333 . S
Cd130 O134 2.352 . S
Cd130 O138 2.277 . S
Cd130 O139 2.356 . S
C131 O136 1.209 . S
C131 O138 1.226 . S
O132 Cd128 2.273 . S
O132 Cd130 2.411 . S
O132 C135 1.320 . S
O133 Cd130 2.333 . S
O133 C135 1.214 . S
O134 Cd130 2.352 . S
O134 C137 1.258 . S
C135 O132 1.320 . S
C135 O133 1.214 . S
O136 Cd128 2.277 . S
O136 C131 1.209 . S
C137 O134 1.258 . S
C137 O139 1.282 . S
O138 Cd130 2.277 . S
O138 C131 1.226 . S
O139 Cd130 2.356 . S
O139 C137 1.282 . S
C140 O141 1.306 . S
C140 O143 1.160 . S
O141 C140 1.306 . S
O141 Cd142 2.228 . S
Cd142 O141 2.228 . S
Cd142 O146 2.273 . S
Cd142 O150 2.277 . S
O143 C140 1.160 . S
O143 Cd144 2.203 . S
Cd144 O143 2.203 . S
Cd144 O146 2.411 . S
Cd144 O147 2.333 . S
Cd144 O148 2.352 . S
Cd144 O152 2.277 . S
Cd144 O153 2.356 . S
C145 O150 1.209 . S
C145 O152 1.226 . S
O146 Cd142 2.273 . S
O146 Cd144 2.411 . S
O146 C149 1.320 . S
O147 Cd144 2.333 . S
O147 C149 1.214 . S
O148 Cd144 2.352 . S
O148 C151 1.258 . S
C149 O146 1.320 . S
C149 O147 1.214 . S
O150 Cd142 2.277 . S
O150 C145 1.209 . S
C151 O148 1.258 . S
C151 O153 1.282 . S
O152 Cd144 2.277 . S
O152 C145 1.226 . S
O153 Cd144 2.356 . S
O153 C151 1.282 . S
C154 O155 1.306 . S
C154 O157 1.160 . S
O155 C154 1.306 . S
O155 Cd156 2.228 . S
Cd156 O155 2.228 . S
Cd156 O160 2.273 . S
Cd156 O164 2.277 . S
O157 C154 1.160 . S
O157 Cd158 2.203 . S
Cd158 O157 2.203 . S
Cd158 O160 2.411 . S
Cd158 O161 2.333 . S
Cd158 O162 2.352 . S
Cd158 O166 2.277 . S
Cd158 O167 2.356 . S
C159 O164 1.209 . S
C159 O166 1.226 . S
O160 Cd156 2.273 . S
O160 Cd158 2.411 . S
O160 C163 1.320 . S
O161 Cd158 2.333 . S
O161 C163 1.214 . S
O162 Cd158 2.352 . S
O162 C165 1.258 . S
C163 O160 1.320 . S
C163 O161 1.214 . S
O164 Cd156 2.277 . S
O164 C159 1.209 . S
C165 O162 1.258 . S
C165 O167 1.282 . S
O166 Cd158 2.277 . S
O166 C159 1.226 . S
O167 Cd158 2.356 . S
O167 C165 1.282 . S
H168 C176 0.929 1_556 S
H169 C178 0.930 . S
H170 C180 0.930 . S
H171 C183 0.929 . S
H172 C186 0.930 . S
H173 C188 0.960 . S
H174 C188 0.960 . S
H175 C188 0.960 . S
C176 H168 0.929 1_554 S
C176 C177 1.377 . S
C176 C178 1.384 . S
C177 C176 1.377 . S
C177 C183 1.390 . S
C178 H169 0.930 . S
C178 C176 1.384 . S
C178 C179 1.372 . S
C179 C178 1.372 . S
C179 C180 1.400 . S
C179 C184 1.490 . S
C180 H170 0.930 . S
C180 C179 1.400 . S
C180 C183 1.386 . S
H181 C197 0.930 . S
H182 C198 0.931 . S
C183 H171 0.929 . S
C183 C177 1.390 . S
C183 C180 1.386 . S
C184 C179 1.490 . S
C184 C186 1.395 . S
C184 C187 1.403 . S
H185 C191 0.930 . S
C186 H172 0.930 . S
C186 C184 1.395 . S
C186 C189 1.403 . S
C187 C184 1.403 . S
C187 C188 1.524 . S
C187 C191 1.400 . S
C188 H173 0.960 . S
C188 H174 0.960 . S
C188 H175 0.960 . S
C188 C187 1.524 . S
C189 C186 1.403 . S
C189 C190 1.392 . S
C189 C193 1.495 . S
C190 C189 1.392 . S
C190 C191 1.385 . S
C190 C192 1.478 . S
C191 H185 0.930 . S
C191 C187 1.400 . S
C191 C190 1.385 . S
C192 C190 1.478 . S
C192 C194 1.381 . S
C192 C198 1.383 . S
C193 C189 1.495 . S
C193 H199 0.959 . S
C193 H200 0.961 . S
C193 H201 0.960 . S
C194 C192 1.381 . S
C194 C195 1.394 . S
C194 H202 0.930 . S
C195 C194 1.394 . S
C195 C196 1.383 . S
C195 H203 0.929 . S
C196 C195 1.383 . S
C196 C197 1.377 . S
C197 H181 0.930 . S
C197 C196 1.377 . S
C197 C198 1.379 . S
C198 H182 0.931 . S
C198 C192 1.383 . S
C198 C197 1.379 . S
H199 C193 0.959 . S
H200 C193 0.961 . S
H201 C193 0.960 . S
H202 C194 0.930 . S
H203 C195 0.929 . S
H204 C212 0.929 . S
H205 C214 0.930 . S
H206 C216 0.930 . S
H207 C219 0.929 . S
H208 C222 0.930 . S
H209 C224 0.960 . S
H210 C224 0.960 . S
H211 C224 0.960 . S
C212 H204 0.929 . S
C212 C213 1.377 . S
C212 C214 1.384 . S
C213 C212 1.377 . S
C213 C219 1.390 . S
C214 H205 0.930 . S
C214 C212 1.384 . S
C214 C215 1.372 . S
C215 C214 1.372 . S
C215 C216 1.400 . S
C215 C220 1.490 . S
C216 H206 0.930 . S
C216 C215 1.400 . S
C216 C219 1.386 . S
H217 C233 0.930 . S
H218 C234 0.931 . S
C219 H207 0.929 . S
C219 C213 1.390 . S
C219 C216 1.386 . S
C220 C215 1.490 . S
C220 C222 1.395 1_455 S
C220 C223 1.403 . S
H221 C227 0.930 . S
C222 H208 0.930 . S
C222 C220 1.395 1_655 S
C222 C225 1.403 . S
C223 C220 1.403 . S
C223 C224 1.524 . S
C223 C227 1.400 . S
C224 H209 0.960 . S
C224 H210 0.960 . S
C224 H211 0.960 . S
C224 C223 1.524 . S
C225 C222 1.403 . S
C225 C226 1.392 . S
C225 C229 1.495 . S
C226 C225 1.392 . S
C226 C227 1.385 1_655 S
C226 C228 1.478 . S
C227 H221 0.930 . S
C227 C223 1.400 . S
C227 C226 1.385 1_455 S
C228 C226 1.478 . S
C228 C230 1.381 . S
C228 C234 1.383 . S
C229 C225 1.495 . S
C229 H235 0.959 . S
C229 H236 0.961 . S
C229 H237 0.960 . S
C230 C228 1.381 . S
C230 C231 1.394 . S
C230 H238 0.930 . S
C231 C230 1.394 . S
C231 C232 1.383 . S
C231 H239 0.929 . S
C232 C231 1.383 . S
C232 C233 1.377 . S
C233 H217 0.930 . S
C233 C232 1.377 . S
C233 C234 1.379 . S
C234 H218 0.931 . S
C234 C228 1.383 . S
C234 C233 1.379 . S
H235 C229 0.959 . S
H236 C229 0.961 . S
H237 C229 0.960 . S
H238 C230 0.930 . S
H239 C231 0.929 . S
H240 C248 0.929 . S
H241 C250 0.930 . S
H242 C252 0.930 . S
H243 C255 0.929 . S
H244 C258 0.948 . S
H245 C260 0.960 . S
H246 C260 0.960 . S
H247 C260 0.960 . S
C248 H240 0.929 . S
C248 C249 1.377 . S
C248 C250 1.384 . S
C249 C248 1.377 . S
C249 C255 1.390 . S
C250 H241 0.930 . S
C250 C248 1.384 . S
C250 C251 1.372 . S
C251 C250 1.372 . S
C251 C252 1.400 . S
C251 C256 1.490 . S
C252 H242 0.930 . S
C252 C251 1.400 . S
C252 C255 1.386 . S
H253 C269 0.930 . S
H254 C270 0.931 . S
C255 H243 0.929 . S
C255 C249 1.390 . S
C255 C252 1.386 . S
C256 C251 1.490 . S
C256 C258 1.351 1_565 S
C256 C259 1.403 . S
H257 C263 0.930 . S
C258 H244 0.948 . S
C258 C256 1.351 1_545 S
C258 C261 1.433 . S
C259 C256 1.403 . S
C259 C260 1.524 . S
C259 C263 1.400 1_565 S
C260 H245 0.960 . S
C260 H246 0.960 . S
C260 H247 0.960 . S
C260 C259 1.524 . S
C261 C258 1.433 . S
C261 C262 1.392 . S
C261 C265 1.495 . S
C262 C261 1.392 . S
C262 C263 1.385 . S
C262 C264 1.478 . S
C263 H257 0.930 . S
C263 C259 1.400 1_545 S
C263 C262 1.385 . S
C264 C262 1.478 . S
C264 C266 1.381 . S
C264 C270 1.383 . S
C265 C261 1.495 . S
C265 H271 0.959 . S
C265 H272 0.961 . S
C265 H273 0.960 . S
C266 C264 1.381 . S
C266 C267 1.394 . S
C266 H274 0.930 . S
C267 C266 1.394 . S
C267 C268 1.383 . S
C267 H275 0.929 . S
C268 C267 1.383 . S
C268 C269 1.377 . S
C269 H253 0.930 . S
C269 C268 1.377 . S
C269 C270 1.379 . S
C270 H254 0.931 . S
C270 C264 1.383 . S
C270 C269 1.379 . S
H271 C265 0.959 . S
H272 C265 0.961 . S
H273 C265 0.960 . S
H274 C266 0.930 . S
H275 C267 0.929 . S
H276 C284 0.929 . S
H277 C286 0.930 . S
H278 C288 0.930 . S
H279 C291 0.929 . S
H280 C294 0.930 . S
H281 C296 0.960 . S
H282 C296 0.960 . S
H283 C296 0.960 . S
C284 H276 0.929 . S
C284 C285 1.377 . S
C284 C286 1.384 . S
C285 C284 1.377 . S
C285 C291 1.390 . S
C286 H277 0.930 . S
C286 C284 1.384 . S
C286 C287 1.372 . S
C287 C286 1.372 . S
C287 C288 1.400 . S
C287 C292 1.490 . S
C288 H278 0.930 . S
C288 C287 1.400 . S
C288 C291 1.386 . S
H289 C305 0.930 . S
H290 C306 0.931 . S
C291 H279 0.929 . S
C291 C285 1.390 . S
C291 C288 1.386 . S
C292 C287 1.490 . S
C292 C294 1.395 . S
C292 C295 1.403 . S
H293 C299 0.930 . S
C294 H280 0.930 . S
C294 C292 1.395 . S
C294 C297 1.403 . S
C295 C292 1.403 . S
C295 C296 1.524 . S
C295 C299 1.400 . S
C296 H281 0.960 . S
C296 H282 0.960 . S
C296 H283 0.960 . S
C296 C295 1.524 . S
C297 C294 1.403 . S
C297 C298 1.392 . S
C297 C301 1.495 . S
C298 C297 1.392 . S
C298 C299 1.385 . S
C298 C300 1.478 . S
C299 H293 0.930 . S
C299 C295 1.400 . S
C299 C298 1.385 . S
C300 C298 1.478 . S
C300 C302 1.381 . S
C300 C306 1.383 . S
C301 C297 1.495 . S
C301 H307 0.959 . S
C301 H308 0.961 . S
C301 H309 0.960 . S
C302 C300 1.381 . S
C302 C303 1.394 . S
C302 H310 0.930 . S
C303 C302 1.394 . S
C303 C304 1.383 . S
C303 H311 0.929 . S
C304 C303 1.383 . S
C304 C305 1.377 . S
C305 H289 0.930 . S
C305 C304 1.377 . S
C305 C306 1.379 . S
C306 H290 0.931 . S
C306 C300 1.383 . S
C306 C305 1.379 . S
H307 C301 0.959 . S
H308 C301 0.961 . S
H309 C301 0.960 . S
H310 C302 0.930 . S
H311 C303 0.929 . S
H312 C320 0.929 . S
H313 C322 0.930 . S
H314 C324 0.930 . S
H315 C327 0.929 . S
H316 C330 0.930 . S
H317 C332 0.960 . S
H318 C332 0.960 . S
H319 C332 0.960 1_455 S
C320 H312 0.929 . S
C320 C321 1.377 . S
C320 C322 1.384 . S
C321 C320 1.377 . S
C321 C327 1.390 . S
C322 H313 0.930 . S
C322 C320 1.384 . S
C322 C323 1.372 . S
C323 C322 1.372 . S
C323 C324 1.400 . S
C323 C328 1.490 . S
C324 H314 0.930 . S
C324 C323 1.400 . S
C324 C327 1.386 . S
H325 C341 0.930 . S
H326 C342 0.931 . S
C327 H315 0.929 . S
C327 C321 1.390 . S
C327 C324 1.386 . S
C328 C323 1.490 . S
C328 C330 1.395 . S
C328 C331 1.403 1_455 S
H329 C335 0.930 . S
C330 H316 0.930 . S
C330 C328 1.395 . S
C330 C333 1.403 . S
C331 C328 1.403 1_655 S
C331 C332 1.524 . S
C331 C335 1.400 . S
C332 H317 0.960 . S
C332 H318 0.960 . S
C332 H319 0.960 1_655 S
C332 C331 1.524 . S
C333 C330 1.403 . S
C333 C334 1.392 1_455 S
C333 C337 1.495 . S
C334 C333 1.392 1_655 S
C334 C335 1.385 . S
C334 C336 1.478 . S
C335 H329 0.930 . S
C335 C331 1.400 . S
C335 C334 1.385 . S
C336 C334 1.478 . S
C336 C338 1.381 . S
C336 C342 1.383 . S
C337 C333 1.495 . S
C337 H343 0.959 . S
C337 H344 0.961 . S
C337 H345 0.960 1_455 S
C338 C336 1.381 . S
C338 C339 1.394 . S
C338 H346 0.930 . S
C339 C338 1.394 . S
C339 C340 1.383 . S
C339 H347 0.929 . S
C340 C339 1.383 . S
C340 C341 1.377 . S
C341 H325 0.930 . S
C341 C340 1.377 . S
C341 C342 1.379 . S
C342 H326 0.931 . S
C342 C336 1.383 . S
C342 C341 1.379 . S
H343 C337 0.959 . S
H344 C337 0.961 . S
H345 C337 0.960 1_655 S
H346 C338 0.930 . S
H347 C339 0.929 . S
H348 C356 0.929 . S
H349 C358 0.930 . S
H350 C360 0.930 . S
H351 C363 0.929 . S
H352 C366 0.930 . S
H353 C368 0.960 . S
H354 C368 0.960 1_556 S
H355 C368 0.960 . S
C356 H348 0.929 . S
C356 C357 1.377 . S
C356 C358 1.384 . S
C357 C356 1.377 . S
C357 C363 1.390 . S
C358 H349 0.930 . S
C358 C356 1.384 . S
C358 C359 1.372 . S
C359 C358 1.372 . S
C359 C360 1.400 . S
C359 C364 1.490 . S
C360 H350 0.930 . S
C360 C359 1.400 . S
C360 C363 1.386 . S
H361 C377 0.930 . S
H362 C378 0.931 . S
C363 H351 0.929 . S
C363 C357 1.390 . S
C363 C360 1.386 . S
C364 C359 1.490 . S
C364 C366 1.395 1_545 S
C364 C367 1.397 1_556 S
H365 C371 0.908 1_545 S
C366 H352 0.930 . S
C366 C364 1.395 1_565 S
C366 C369 1.403 . S
C367 C364 1.397 1_554 S
C367 C368 1.524 . S
C367 C371 1.394 1_545 S
C368 H353 0.960 . S
C368 H354 0.960 1_554 S
C368 H355 0.960 . S
C368 C367 1.524 . S
C369 C366 1.403 . S
C369 C370 1.392 1_556 S
C369 C373 1.495 . S
C370 C369 1.392 1_554 S
C370 C371 1.403 . S
C370 C372 1.478 . S
C371 H365 0.908 1_565 S
C371 C367 1.394 1_565 S
C371 C370 1.403 . S
C372 C370 1.478 . S
C372 C374 1.381 . S
C372 C378 1.383 . S
C373 C369 1.495 . S
C373 H379 0.959 . S
C373 H380 0.961 1_556 S
C373 H381 0.960 . S
C374 C372 1.381 . S
C374 C375 1.394 . S
C374 H382 0.930 . S
C375 C374 1.394 . S
C375 C376 1.383 . S
C375 H383 0.929 . S
C376 C375 1.383 . S
C376 C377 1.377 . S
C377 H361 0.930 . S
C377 C376 1.377 . S
C377 C378 1.379 . S
C378 H362 0.931 . S
C378 C372 1.383 . S
C378 C377 1.379 . S
H379 C373 0.959 . S
H380 C373 0.961 1_554 S
H381 C373 0.960 . S
H382 C374 0.930 . S
H383 C375 0.929 . S
H384 C392 0.929 . S
H385 C394 0.930 . S
H386 C396 0.930 . S
H387 C399 0.929 . S
H388 C402 0.930 . S
H389 C404 0.960 . S
H390 C404 0.960 . S
H391 C404 0.960 . S
C392 H384 0.929 . S
C392 C393 1.377 . S
C392 C394 1.384 . S
C393 C392 1.377 . S
C393 C399 1.390 . S
C394 H385 0.930 . S
C394 C392 1.384 . S
C394 C395 1.372 . S
C395 C394 1.372 . S
C395 C396 1.400 . S
C395 C400 1.490 . S
C396 H386 0.930 . S
C396 C395 1.400 . S
C396 C399 1.386 . S
H397 C413 0.930 . S
H398 C414 0.931 . S
C399 H387 0.929 . S
C399 C393 1.390 . S
C399 C396 1.386 . S
C400 C395 1.490 . S
C400 C402 1.395 . S
C400 C403 1.403 . S
H401 C407 0.930 . S
C402 H388 0.930 . S
C402 C400 1.395 . S
C402 C405 1.403 . S
C403 C400 1.403 . S
C403 C404 1.524 . S
C403 C407 1.400 . S
C404 H389 0.960 . S
C404 H390 0.960 . S
C404 H391 0.960 . S
C404 C403 1.524 . S
C405 C402 1.403 . S
C405 C406 1.392 . S
C405 C409 1.495 . S
C406 C405 1.392 . S
C406 C407 1.385 . S
C406 C408 1.478 . S
C407 H401 0.930 . S
C407 C403 1.400 . S
C407 C406 1.385 . S
C408 C406 1.478 . S
C408 C410 1.381 . S
C408 C414 1.383 . S
C409 C405 1.495 . S
C409 H415 0.959 . S
C409 H416 0.961 . S
C409 H417 0.960 . S
C410 C408 1.381 . S
C410 C411 1.394 . S
C410 H418 0.930 . S
C411 C410 1.394 . S
C411 C412 1.383 . S
C411 H419 0.929 . S
C412 C411 1.383 . S
C412 C413 1.377 . S
C413 H397 0.930 . S
C413 C412 1.377 . S
C413 C414 1.379 . S
C414 H398 0.931 . S
C414 C408 1.383 . S
C414 C413 1.379 . S
H415 C409 0.959 . S
H416 C409 0.961 . S
H417 C409 0.960 . S
H418 C410 0.930 . S
H419 C411 0.929 . S
H420 C428 0.929 . S
H421 C430 0.930 . S
H422 C432 0.930 . S
H423 C435 0.929 . S
H424 C438 0.930 . S
H425 C440 0.960 . S
H426 C440 0.960 . S
H427 C440 0.960 . S
C428 H420 0.929 . S
C428 C429 1.377 . S
C428 C430 1.384 . S
C429 C428 1.377 . S
C429 C435 1.390 . S
C430 H421 0.930 . S
C430 C428 1.384 . S
C430 C431 1.372 . S
C431 C430 1.372 . S
C431 C432 1.400 . S
C431 C436 1.490 . S
C432 H422 0.930 . S
C432 C431 1.400 . S
C432 C435 1.386 . S
H433 C449 0.930 . S
H434 C450 0.931 . S
C435 H423 0.929 . S
C435 C429 1.390 . S
C435 C432 1.386 . S
C436 C431 1.490 . S
C436 C438 1.395 . S
C436 C439 1.403 . S
H437 C443 0.930 . S
C438 H424 0.930 . S
C438 C436 1.395 . S
C438 C441 1.403 . S
C439 C436 1.403 . S
C439 C440 1.524 . S
C439 C443 1.400 . S
C440 H425 0.960 . S
C440 H426 0.960 . S
C440 H427 0.960 . S
C440 C439 1.524 . S
C441 C438 1.403 . S
C441 C442 1.392 . S
C441 C445 1.495 . S
C442 C441 1.392 . S
C442 C443 1.385 . S
C442 C444 1.478 . S
C443 H437 0.930 . S
C443 C439 1.400 . S
C443 C442 1.385 . S
C444 C442 1.478 . S
C444 C446 1.381 . S
C444 C450 1.383 . S
C445 C441 1.495 . S
C445 H451 0.959 . S
C445 H452 0.961 . S
C445 H453 0.960 . S
C446 C444 1.381 . S
C446 C447 1.394 . S
C446 H454 0.930 . S
C447 C446 1.394 . S
C447 C448 1.383 . S
C447 H455 0.929 . S
C448 C447 1.383 . S
C448 C449 1.377 . S
C449 H433 0.930 . S
C449 C448 1.377 . S
C449 C450 1.379 . S
C450 H434 0.931 . S
C450 C444 1.383 . S
C450 C449 1.379 . S
H451 C445 0.959 . S
H452 C445 0.961 . S
H453 C445 0.960 . S
H454 C446 0.930 . S
H455 C447 0.929 . S
H456 C464 0.929 . S
H457 C466 0.930 . S
H458 C468 0.930 . S
H459 C471 0.929 . S
H460 C474 0.930 . S
H461 C476 0.960 . S
H462 C476 0.960 . S
H463 C476 0.960 . S
C464 H456 0.929 . S
C464 C465 1.377 . S
C464 C466 1.384 . S
C465 C464 1.377 . S
C465 C471 1.390 . S
C466 H457 0.930 . S
C466 C464 1.384 . S
C466 C467 1.372 . S
C467 C466 1.372 . S
C467 C468 1.400 . S
C467 C472 1.490 . S
C468 H458 0.930 . S
C468 C467 1.400 . S
C468 C471 1.386 . S
H469 C485 0.930 . S
H470 C486 0.931 . S
C471 H459 0.929 . S
C471 C465 1.390 . S
C471 C468 1.386 . S
C472 C467 1.490 . S
C472 C474 1.395 . S
C472 C475 1.403 . S
H473 C479 0.930 . S
C474 H460 0.930 . S
C474 C472 1.395 . S
C474 C477 1.403 . S
C475 C472 1.403 . S
C475 C476 1.524 . S
C475 C479 1.400 . S
C476 H461 0.960 . S
C476 H462 0.960 . S
C476 H463 0.960 . S
C476 C475 1.524 . S
C477 C474 1.403 . S
C477 C478 1.392 . S
C477 C481 1.495 . S
C478 C477 1.392 . S
C478 C479 1.385 . S
C478 C480 1.478 . S
C479 H473 0.930 . S
C479 C475 1.400 . S
C479 C478 1.385 . S
C480 C478 1.478 . S
C480 C482 1.381 . S
C480 C486 1.383 . S
C481 C477 1.495 . S
C481 H487 0.959 . S
C481 H488 0.961 . S
C481 H489 0.960 . S
C482 C480 1.381 . S
C482 C483 1.394 . S
C482 H490 0.930 . S
C483 C482 1.394 . S
C483 C484 1.383 . S
C483 H491 0.929 . S
C484 C483 1.383 . S
C484 C485 1.377 . S
C485 H469 0.930 . S
C485 C484 1.377 . S
C485 C486 1.379 . S
C486 H470 0.931 . S
C486 C480 1.383 . S
C486 C485 1.379 . S
H487 C481 0.959 . S
H488 C481 0.961 . S
H489 C481 0.960 . S
H490 C482 0.930 . S
H491 C483 0.929 . S
H492 C500 0.929 . S
H493 C502 0.930 . S
H494 C504 0.930 . S
H495 C507 0.929 . S
H496 C510 0.930 . S
H497 C512 0.960 1_554 S
H498 C512 0.960 . S
H499 C512 0.960 1_554 S
C500 H492 0.929 . S
C500 C501 1.377 . S
C500 C502 1.384 . S
C501 C500 1.377 . S
C501 C507 1.390 . S
C502 H493 0.930 . S
C502 C500 1.384 . S
C502 C503 1.372 . S
C503 C502 1.372 . S
C503 C504 1.400 . S
C503 C508 1.490 . S
C504 H494 0.930 . S
C504 C503 1.400 . S
C504 C507 1.386 . S
H505 C521 0.930 . S
H506 C522 0.931 . S
C507 H495 0.929 . S
C507 C501 1.390 . S
C507 C504 1.386 . S
C508 C503 1.490 . S
C508 C510 1.395 . S
C508 C511 1.403 . S
H509 C515 0.930 . S
C510 H496 0.930 . S
C510 C508 1.395 . S
C510 C513 1.403 . S
C511 C508 1.403 . S
C511 C512 1.524 . S
C511 C515 1.400 . S
C512 H497 0.960 1_556 S
C512 H498 0.960 . S
C512 H499 0.960 1_556 S
C512 C511 1.524 . S
C513 C510 1.403 . S
C513 C514 1.392 . S
C513 C517 1.495 . S
C514 C513 1.392 . S
C514 C515 1.385 . S
C514 C516 1.478 . S
C515 H509 0.930 . S
C515 C511 1.400 . S
C515 C514 1.385 . S
C516 C514 1.478 . S
C516 C518 1.381 . S
C516 C522 1.383 . S
C517 C513 1.495 . S
C517 H523 0.959 . S
C517 H524 0.961 . S
C517 H525 0.960 . S
C518 C516 1.381 . S
C518 C519 1.394 . S
C518 H526 0.930 . S
C519 C518 1.394 . S
C519 C520 1.383 . S
C519 H527 0.929 . S
C520 C519 1.383 . S
C520 C521 1.377 . S
C521 H505 0.930 . S
C521 C520 1.377 . S
C521 C522 1.379 . S
C522 H506 0.931 . S
C522 C516 1.383 . S
C522 C521 1.379 . S
H523 C517 0.959 . S
H524 C517 0.961 . S
H525 C517 0.960 . S
H526 C518 0.930 . S
H527 C519 0.929 . S
H528 C536 0.929 . S
H529 C538 0.930 . S
H530 C540 0.930 . S
H531 C543 0.929 . S
H532 C546 0.930 . S
H533 C548 0.960 . S
H534 C548 0.960 . S
H535 C548 0.960 . S
C536 H528 0.929 . S
C536 C537 1.377 . S
C536 C538 1.384 . S
C537 C536 1.377 . S
C537 C543 1.390 . S
C538 H529 0.930 . S
C538 C536 1.384 . S
C538 C539 1.372 . S
C539 C538 1.372 . S
C539 C540 1.400 . S
C539 C544 1.490 . S
C540 H530 0.930 . S
C540 C539 1.400 . S
C540 C543 1.386 . S
H541 C557 0.930 . S
H542 C558 0.931 . S
C543 H531 0.929 . S
C543 C537 1.390 . S
C543 C540 1.386 . S
C544 C539 1.490 . S
C544 C546 1.395 . S
C544 C547 1.403 . S
H545 C551 0.930 . S
C546 H532 0.930 . S
C546 C544 1.395 . S
C546 C549 1.403 . S
C547 C544 1.403 . S
C547 C548 1.524 . S
C547 C551 1.400 . S
C548 H533 0.960 . S
C548 H534 0.960 . S
C548 H535 0.960 . S
C548 C547 1.524 . S
C549 C546 1.403 . S
C549 C550 1.392 . S
C549 C553 1.495 1_554 S
C550 C549 1.392 . S
C550 C551 1.385 . S
C550 C552 1.478 . S
C551 H545 0.930 . S
C551 C547 1.400 . S
C551 C550 1.385 . S
C552 C550 1.478 . S
C552 C554 1.381 . S
C552 C558 1.383 . S
C553 C549 1.495 1_556 S
C553 H559 0.959 . S
C553 H560 0.961 . S
C553 H561 0.960 . S
C554 C552 1.381 . S
C554 C555 1.394 . S
C554 H562 0.930 . S
C555 C554 1.394 . S
C555 C556 1.383 . S
C555 H563 0.929 . S
C556 C555 1.383 . S
C556 C557 1.377 . S
C557 H541 0.930 . S
C557 C556 1.377 . S
C557 C558 1.379 . S
C558 H542 0.931 . S
C558 C552 1.383 . S
C558 C557 1.379 . S
H559 C553 0.959 . S
H560 C553 0.961 . S
H561 C553 0.960 . S
H562 C554 0.930 . S
H563 C555 0.929 . S
H564 C572 0.929 . S
H565 C574 0.930 . S
H566 C576 0.930 . S
H567 C579 0.929 . S
H568 C582 0.930 . S
H569 C584 0.960 . S
H570 C584 0.960 . S
H571 C584 0.960 . S
C572 H564 0.929 . S
C572 C573 1.377 . S
C572 C574 1.384 . S
C573 C572 1.377 . S
C573 C579 1.390 . S
C574 H565 0.930 . S
C574 C572 1.384 . S
C574 C575 1.372 . S
C575 C574 1.372 . S
C575 C576 1.400 . S
C575 C580 1.490 . S
C576 H566 0.930 . S
C576 C575 1.400 . S
C576 C579 1.386 . S
H577 C593 0.930 . S
H578 C594 0.931 . S
C579 H567 0.929 . S
C579 C573 1.390 . S
C579 C576 1.386 . S
C580 C575 1.490 . S
C580 C582 1.395 . S
C580 C583 1.403 . S
H581 C587 0.930 . S
C582 H568 0.930 . S
C582 C580 1.395 . S
C582 C585 1.403 . S
C583 C580 1.403 . S
C583 C584 1.524 . S
C583 C587 1.400 . S
C584 H569 0.960 . S
C584 H570 0.960 . S
C584 H571 0.960 . S
C584 C583 1.524 . S
C585 C582 1.403 . S
C585 C586 1.392 . S
C585 C589 1.495 . S
C586 C585 1.392 . S
C586 C587 1.385 . S
C586 C588 1.478 . S
C587 H581 0.930 . S
C587 C583 1.400 . S
C587 C586 1.385 . S
C588 C586 1.478 . S
C588 C590 1.381 . S
C588 C594 1.383 . S
C589 C585 1.495 . S
C589 H595 0.959 . S
C589 H596 0.961 . S
C589 H597 0.960 . S
C590 C588 1.381 . S
C590 C591 1.394 . S
C590 H598 0.930 . S
C591 C590 1.394 . S
C591 C592 1.383 . S
C591 H599 0.929 . S
C592 C591 1.383 . S
C592 C593 1.377 . S
C593 H577 0.930 . S
C593 C592 1.377 . S
C593 C594 1.379 . S
C594 H578 0.931 . S
C594 C588 1.383 . S
C594 C593 1.379 . S
H595 C589 0.959 . S
H596 C589 0.961 . S
H597 C589 0.960 . S
H598 C590 0.930 . S
H599 C591 0.929 . S
H600 C608 0.929 . S
H601 C610 0.930 . S
H602 C612 0.930 . S
H603 C615 0.929 . S
H604 C618 0.930 . S
H605 C620 0.960 . S
H606 C620 0.960 . S
H607 C620 0.960 . S
C608 H600 0.929 . S
C608 C609 1.377 . S
C608 C610 1.384 . S
C609 C608 1.377 . S
C609 C615 1.390 . S
C610 H601 0.930 . S
C610 C608 1.384 . S
C610 C611 1.372 . S
C611 C610 1.372 . S
C611 C612 1.400 . S
C611 C616 1.490 . S
C612 H602 0.930 . S
C612 C611 1.400 . S
C612 C615 1.386 . S
H613 C629 0.930 . S
H614 C630 0.931 . S
C615 H603 0.929 . S
C615 C609 1.390 . S
C615 C612 1.386 . S
C616 C611 1.490 . S
C616 C618 1.395 . S
C616 C619 1.403 . S
H617 C623 0.930 . S
C618 H604 0.930 . S
C618 C616 1.395 . S
C618 C621 1.403 . S
C619 C616 1.403 . S
C619 C620 1.524 . S
C619 C623 1.400 . S
C620 H605 0.960 . S
C620 H606 0.960 . S
C620 H607 0.960 . S
C620 C619 1.524 . S
C621 C618 1.403 . S
C621 C622 1.392 . S
C621 C625 1.495 . S
C622 C621 1.392 . S
C622 C623 1.385 . S
C622 C624 1.478 . S
C623 H617 0.930 . S
C623 C619 1.400 . S
C623 C622 1.385 . S
C624 C622 1.478 . S
C624 C626 1.381 . S
C624 C630 1.383 . S
C625 C621 1.495 . S
C625 H631 0.959 . S
C625 H632 0.961 . S
C625 H633 0.960 . S
C626 C624 1.381 . S
C626 C627 1.394 . S
C626 H634 0.930 . S
C627 C626 1.394 . S
C627 C628 1.383 . S
C627 H635 0.929 . S
C628 C627 1.383 . S
C628 C629 1.377 . S
C629 H613 0.930 . S
C629 C628 1.377 . S
C629 C630 1.379 . S
C630 H614 0.931 . S
C630 C624 1.383 . S
C630 C629 1.379 . S
H631 C625 0.959 . S
H632 C625 0.961 . S
H633 C625 0.960 . S
H634 C626 0.930 . S
H635 C627 0.929 . S
H636 C644 0.929 . S
H637 C646 0.930 . S
H638 C648 0.930 . S
H639 C651 0.929 . S
H640 C654 0.930 . S
H641 C656 0.960 . S
H642 C656 0.960 . S
H643 C656 0.960 1_655 S
C644 H636 0.929 . S
C644 C645 1.377 . S
C644 C646 1.384 . S
C645 C644 1.377 . S
C645 C651 1.390 . S
C646 H637 0.930 . S
C646 C644 1.384 . S
C646 C647 1.372 . S
C647 C646 1.372 . S
C647 C648 1.400 . S
C647 C652 1.490 . S
C648 H638 0.930 . S
C648 C647 1.400 . S
C648 C651 1.386 . S
H649 C665 0.930 . S
H650 C666 0.931 . S
C651 H639 0.929 . S
C651 C645 1.390 . S
C651 C648 1.386 . S
C652 C647 1.490 . S
C652 C654 1.395 . S
C652 C655 1.403 1_655 S
H653 C659 0.930 . S
C654 H640 0.930 . S
C654 C652 1.395 . S
C654 C657 1.403 . S
C655 C652 1.403 1_455 S
C655 C656 1.524 . S
C655 C659 1.400 . S
C656 H641 0.960 . S
C656 H642 0.960 . S
C656 H643 0.960 1_455 S
C656 C655 1.524 . S
C657 C654 1.403 . S
C657 C658 1.392 1_655 S
C657 C661 1.495 . S
C658 C657 1.392 1_455 S
C658 C659 1.385 . S
C658 C660 1.478 . S
C659 H653 0.930 . S
C659 C655 1.400 . S
C659 C658 1.385 . S
C660 C658 1.478 . S
C660 C662 1.381 . S
C660 C666 1.383 . S
C661 C657 1.495 . S
C661 H667 0.959 . S
C661 H668 0.961 . S
C661 H669 0.960 1_655 S
C662 C660 1.381 . S
C662 C663 1.394 . S
C662 H670 0.930 . S
C663 C662 1.394 . S
C663 C664 1.383 . S
C663 H671 0.929 . S
C664 C663 1.383 . S
C664 C665 1.377 . S
C665 H649 0.930 . S
C665 C664 1.377 . S
C665 C666 1.379 . S
C666 H650 0.931 . S
C666 C660 1.383 . S
C666 C665 1.379 . S
H667 C661 0.959 . S
H668 C661 0.961 . S
H669 C661 0.960 1_455 S
H670 C662 0.930 . S
H671 C663 0.929 . S
H672 C680 0.929 . S
H673 C682 0.930 . S
H674 C684 0.930 . S
H675 C687 0.929 . S
H676 C690 0.930 . S
H677 C692 0.969 . S
H678 C692 0.936 1_565 S
H679 C692 0.967 . S
C680 H672 0.929 . S
C680 C681 1.377 . S
C680 C682 1.384 . S
C681 C680 1.377 . S
C681 C687 1.390 . S
C682 H673 0.930 . S
C682 C680 1.384 . S
C682 C683 1.372 . S
C683 C682 1.372 . S
C683 C684 1.400 . S
C683 C688 1.490 . S
C684 H674 0.930 . S
C684 C683 1.400 . S
C684 C687 1.386 . S
H685 C701 0.930 . S
H686 C702 0.931 . S
C687 H675 0.929 . S
C687 C681 1.390 . S
C687 C684 1.386 . S
C688 C683 1.490 . S
C688 C690 1.395 . S
C688 C691 1.413 . S
H689 C695 0.930 . S
C690 H676 0.930 . S
C690 C688 1.395 . S
C690 C693 1.403 1_554 S
C691 C688 1.413 . S
C691 C692 1.550 1_565 S
C691 C695 1.374 1_564 S
C692 H677 0.969 . S
C692 H678 0.936 1_545 S
C692 H679 0.967 . S
C692 C691 1.550 1_545 S
C693 C690 1.403 1_556 S
C693 C694 1.392 1_565 S
C693 C697 1.495 . S
C694 C693 1.392 1_545 S
C694 C695 1.385 . S
C694 C696 1.478 . S
C695 H689 0.930 . S
C695 C691 1.374 1_546 S
C695 C694 1.385 . S
C696 C694 1.478 . S
C696 C698 1.381 . S
C696 C702 1.383 . S
C697 C693 1.495 . S
C697 H703 0.959 . S
C697 H704 0.961 1_565 S
C697 H705 0.960 . S
C698 C696 1.381 . S
C698 C699 1.394 . S
C698 H706 0.930 . S
C699 C698 1.394 . S
C699 C700 1.383 . S
C699 H707 0.929 . S
C700 C699 1.383 . S
C700 C701 1.377 . S
C701 H685 0.930 . S
C701 C700 1.377 . S
C701 C702 1.379 . S
C702 H686 0.931 . S
C702 C696 1.383 . S
C702 C701 1.379 . S
H703 C697 0.959 . S
H704 C697 0.961 1_545 S
H705 C697 0.960 . S
H706 C698 0.930 . S
H707 C699 0.929 . S
H708 C716 0.929 1_556 S
H709 C718 0.930 . S
H710 C720 0.930 . S
H711 C723 0.929 . S
H712 C726 0.930 . S
H713 C728 0.960 . S
H714 C728 0.960 . S
H715 C728 0.960 . S
C716 H708 0.929 1_554 S
C716 C717 1.377 . S
C716 C718 1.384 . S
C717 C716 1.377 . S
C717 C723 1.390 . S
C718 H709 0.930 . S
C718 C716 1.384 . S
C718 C719 1.372 . S
C719 C718 1.372 . S
C719 C720 1.400 . S
C719 C724 1.490 . S
C720 H710 0.930 . S
C720 C719 1.400 . S
C720 C723 1.386 . S
H721 C737 0.930 . S
H722 C738 0.931 . S
C723 H711 0.929 . S
C723 C717 1.390 . S
C723 C720 1.386 . S
C724 C719 1.490 . S
C724 C726 1.395 . S
C724 C727 1.403 . S
H725 C731 0.930 . S
C726 H712 0.930 . S
C726 C724 1.395 . S
C726 C729 1.403 . S
C727 C724 1.403 . S
C727 C728 1.524 . S
C727 C731 1.400 . S
C728 H713 0.960 . S
C728 H714 0.960 . S
C728 H715 0.960 . S
C728 C727 1.524 . S
C729 C726 1.403 . S
C729 C730 1.392 . S
C729 C733 1.495 . S
C730 C729 1.392 . S
C730 C731 1.385 . S
C730 C732 1.478 . S
C731 H725 0.930 . S
C731 C727 1.400 . S
C731 C730 1.385 . S
C732 C730 1.478 . S
C732 C734 1.381 . S
C732 C738 1.383 . S
C733 C729 1.495 . S
C733 H739 0.959 . S
C733 H740 0.961 . S
C733 H741 0.960 . S
C734 C732 1.381 . S
C734 C735 1.394 . S
C734 H742 0.930 . S
C735 C734 1.394 . S
C735 C736 1.383 . S
C735 H743 0.929 . S
C736 C735 1.383 . S
C736 C737 1.377 . S
C737 H721 0.930 . S
C737 C736 1.377 . S
C737 C738 1.379 . S
C738 H722 0.931 . S
C738 C732 1.383 . S
C738 C737 1.379 . S
H739 C733 0.959 . S
H740 C733 0.961 . S
H741 C733 0.960 . S
H742 C734 0.930 . S
H743 C735 0.929 . S
H744 C752 0.929 . S
H745 C754 0.930 . S
H746 C756 0.930 . S
H747 C759 0.929 . S
H748 C762 0.930 . S
H749 C764 0.960 . S
H750 C764 0.960 . S
H751 C764 0.960 . S
C752 H744 0.929 . S
C752 C753 1.377 . S
C752 C754 1.384 . S
C753 C752 1.377 . S
C753 C759 1.390 . S
C754 H745 0.930 . S
C754 C752 1.384 . S
C754 C755 1.372 . S
C755 C754 1.372 . S
C755 C756 1.400 . S
C755 C760 1.490 . S
C756 H746 0.930 . S
C756 C755 1.400 . S
C756 C759 1.386 . S
H757 C773 0.930 . S
H758 C774 0.931 . S
C759 H747 0.929 . S
C759 C753 1.390 . S
C759 C756 1.386 . S
C760 C755 1.490 . S
C760 C762 1.395 1_455 S
C760 C763 1.403 . S
H761 C767 0.930 . S
C762 H748 0.930 . S
C762 C760 1.395 1_655 S
C762 C765 1.403 . S
C763 C760 1.403 . S
C763 C764 1.524 . S
C763 C767 1.400 1_455 S
C764 H749 0.960 . S
C764 H750 0.960 . S
C764 H751 0.960 . S
C764 C763 1.524 . S
C765 C762 1.403 . S
C765 C766 1.392 . S
C765 C769 1.495 . S
C766 C765 1.392 . S
C766 C767 1.385 . S
C766 C768 1.478 . S
C767 H761 0.930 . S
C767 C763 1.400 1_655 S
C767 C766 1.385 . S
C768 C766 1.478 . S
C768 C770 1.381 . S
C768 C774 1.383 . S
C769 C765 1.495 . S
C769 H775 0.959 . S
C769 H776 0.961 . S
C769 H777 0.960 . S
C770 C768 1.381 . S
C770 C771 1.394 . S
C770 H778 0.930 . S
C771 C770 1.394 . S
C771 C772 1.383 . S
C771 H779 0.929 . S
C772 C771 1.383 . S
C772 C773 1.377 . S
C773 H757 0.930 . S
C773 C772 1.377 . S
C773 C774 1.379 . S
C774 H758 0.931 . S
C774 C768 1.383 . S
C774 C773 1.379 . S
H775 C769 0.959 . S
H776 C769 0.961 . S
H777 C769 0.960 . S
H778 C770 0.930 . S
H779 C771 0.929 . S
H780 C788 0.929 . S
H781 C790 0.930 . S
H782 C792 0.930 . S
H783 C795 0.929 . S
H784 C798 0.960 . S
H785 C800 0.960 . S
H786 C800 0.960 . S
H787 C800 0.960 . S
C788 H780 0.929 . S
C788 C789 1.377 . S
C788 C790 1.384 . S
C789 C788 1.377 . S
C789 C795 1.390 . S
C790 H781 0.930 . S
C790 C788 1.384 . S
C790 C791 1.372 . S
C791 C790 1.372 . S
C791 C792 1.400 . S
C791 C796 1.490 . S
C792 H782 0.930 . S
C792 C791 1.400 . S
C792 C795 1.386 . S
H793 C809 0.930 . S
H794 C810 0.931 . S
C795 H783 0.929 . S
C795 C789 1.390 . S
C795 C792 1.386 . S
C796 C791 1.490 . S
C796 C798 1.406 . S
C796 C799 1.403 . S
H797 C803 0.930 . S
C798 H784 0.960 . S
C798 C796 1.406 . S
C798 C801 1.367 1_565 S
C799 C796 1.403 . S
C799 C800 1.524 . S
C799 C803 1.400 1_565 S
C800 H785 0.960 . S
C800 H786 0.960 . S
C800 H787 0.960 . S
C800 C799 1.524 . S
C801 C798 1.367 1_545 S
C801 C802 1.392 . S
C801 C805 1.495 . S
C802 C801 1.392 . S
C802 C803 1.385 . S
C802 C804 1.478 . S
C803 H797 0.930 . S
C803 C799 1.400 1_545 S
C803 C802 1.385 . S
C804 C802 1.478 . S
C804 C806 1.381 . S
C804 C810 1.383 . S
C805 C801 1.495 . S
C805 H811 0.959 . S
C805 H812 0.961 . S
C805 H813 0.960 . S
C806 C804 1.381 . S
C806 C807 1.394 . S
C806 H814 0.930 . S
C807 C806 1.394 . S
C807 C808 1.383 . S
C807 H815 0.929 . S
C808 C807 1.383 . S
C808 C809 1.377 . S
C809 H793 0.930 . S
C809 C808 1.377 . S
C809 C810 1.379 . S
C810 H794 0.931 . S
C810 C804 1.383 . S
C810 C809 1.379 . S
H811 C805 0.959 . S
H812 C805 0.961 . S
H813 C805 0.960 . S
H814 C806 0.930 . S
H815 C807 0.929 . S
H816 C824 0.929 . S
H817 C826 0.930 . S
H818 C828 0.930 . S
H819 C831 0.929 . S
H820 C834 0.930 . S
H821 C836 0.960 . S
H822 C836 0.960 . S
H823 C836 0.960 . S
C824 H816 0.929 . S
C824 C825 1.377 . S
C824 C826 1.384 . S
C825 C824 1.377 . S
C825 C831 1.390 . S
C826 H817 0.930 . S
C826 C824 1.384 . S
C826 C827 1.372 . S
C827 C826 1.372 . S
C827 C828 1.400 . S
C827 C832 1.490 . S
C828 H818 0.930 . S
C828 C827 1.400 . S
C828 C831 1.386 . S
H829 C845 0.930 . S
H830 C846 0.931 . S
C831 H819 0.929 . S
C831 C825 1.390 . S
C831 C828 1.386 . S
C832 C827 1.490 . S
C832 C834 1.395 . S
C832 C835 1.403 . S
H833 C839 0.930 . S
C834 H820 0.930 . S
C834 C832 1.395 . S
C834 C837 1.403 . S
C835 C832 1.403 . S
C835 C836 1.524 . S
C835 C839 1.400 . S
C836 H821 0.960 . S
C836 H822 0.960 . S
C836 H823 0.960 . S
C836 C835 1.524 . S
C837 C834 1.403 . S
C837 C838 1.392 . S
C837 C841 1.495 . S
C838 C837 1.392 . S
C838 C839 1.385 . S
C838 C840 1.478 . S
C839 H833 0.930 . S
C839 C835 1.400 . S
C839 C838 1.385 . S
C840 C838 1.478 . S
C840 C842 1.381 . S
C840 C846 1.383 . S
C841 C837 1.495 . S
C841 H847 0.959 . S
C841 H848 0.961 . S
C841 H849 0.960 . S
C842 C840 1.381 . S
C842 C843 1.394 . S
C842 H850 0.930 . S
C843 C842 1.394 . S
C843 C844 1.383 . S
C843 H851 0.929 . S
C844 C843 1.383 . S
C844 C845 1.377 . S
C845 H829 0.930 . S
C845 C844 1.377 . S
C845 C846 1.379 . S
C846 H830 0.931 . S
C846 C840 1.383 . S
C846 C845 1.379 . S
H847 C841 0.959 . S
H848 C841 0.961 . S
H849 C841 0.960 . S
H850 C842 0.930 . S
H851 C843 0.929 . S
H852 C860 0.929 . S
H853 C862 0.930 . S
H854 C864 0.930 . S
H855 C867 0.929 . S
H856 C870 0.930 . S
H857 C872 0.960 . S
H858 C872 0.960 . S
H859 C872 0.960 . S
C860 H852 0.929 . S
C860 C861 1.377 . S
C860 C862 1.384 . S
C861 C860 1.377 . S
C861 C867 1.390 . S
C862 H853 0.930 . S
C862 C860 1.384 . S
C862 C863 1.372 . S
C863 C862 1.372 . S
C863 C864 1.400 . S
C863 C868 1.490 . S
C864 H854 0.930 . S
C864 C863 1.400 . S
C864 C867 1.386 . S
H865 C881 0.930 . S
H866 C882 0.931 . S
C867 H855 0.929 . S
C867 C861 1.390 . S
C867 C864 1.386 . S
C868 C863 1.490 . S
C868 C870 1.395 . S
C868 C871 1.403 . S
H869 C875 0.930 . S
C870 H856 0.930 . S
C870 C868 1.395 . S
C870 C873 1.403 . S
C871 C868 1.403 . S
C871 C872 1.524 . S
C871 C875 1.400 . S
C872 H857 0.960 . S
C872 H858 0.960 . S
C872 H859 0.960 . S
C872 C871 1.524 . S
C873 C870 1.403 . S
C873 C874 1.392 . S
C873 C877 1.495 . S
C874 C873 1.392 . S
C874 C875 1.385 . S
C874 C876 1.478 . S
C875 H869 0.930 . S
C875 C871 1.400 . S
C875 C874 1.385 . S
C876 C874 1.478 . S
C876 C878 1.381 . S
C876 C882 1.383 . S
C877 C873 1.495 . S
C877 H883 0.959 . S
C877 H884 0.961 . S
C877 H885 0.960 . S
C878 C876 1.381 . S
C878 C879 1.394 . S
C878 H886 0.930 . S
C879 C878 1.394 . S
C879 C880 1.383 . S
C879 H887 0.929 . S
C880 C879 1.383 . S
C880 C881 1.377 . S
C881 H865 0.930 . S
C881 C880 1.377 . S
C881 C882 1.379 . S
C882 H866 0.931 . S
C882 C876 1.383 . S
C882 C881 1.379 . S
H883 C877 0.959 . S
H884 C877 0.961 . S
H885 C877 0.960 . S
H886 C878 0.930 . S
H887 C879 0.929 . S
H888 C896 0.929 . S
H889 C898 0.930 . S
H890 C900 0.930 . S
H891 C903 0.929 . S
H892 C906 0.930 . S
H893 C908 0.960 . S
H894 C908 0.960 . S
H895 C908 0.960 . S
C896 H888 0.929 . S
C896 C897 1.377 1_556 S
C896 C898 1.384 . S
C897 C896 1.377 1_554 S
C897 C903 1.390 . S
C898 H889 0.930 . S
C898 C896 1.384 . S
C898 C899 1.372 . S
C899 C898 1.372 . S
C899 C900 1.400 1_556 S
C899 C904 1.490 . S
C900 H890 0.930 . S
C900 C899 1.400 1_554 S
C900 C903 1.386 . S
H901 C917 0.930 . S
H902 C918 0.931 . S
C903 H891 0.929 . S
C903 C897 1.390 . S
C903 C900 1.386 . S
C904 C899 1.490 . S
C904 C906 1.395 . S
C904 C907 1.403 . S
H905 C911 0.930 . S
C906 H892 0.930 . S
C906 C904 1.395 . S
C906 C909 1.403 . S
C907 C904 1.403 . S
C907 C908 1.524 1_556 S
C907 C911 1.400 . S
C908 H893 0.960 . S
C908 H894 0.960 . S
C908 H895 0.960 . S
C908 C907 1.524 1_554 S
C909 C906 1.403 . S
C909 C910 1.392 . S
C909 C913 1.495 . S
C910 C909 1.392 . S
C910 C911 1.385 . S
C910 C912 1.478 . S
C911 H905 0.930 . S
C911 C907 1.400 . S
C911 C910 1.385 . S
C912 C910 1.478 . S
C912 C914 1.381 . S
C912 C918 1.383 . S
C913 C909 1.495 . S
C913 H919 0.959 . S
C913 H920 0.961 . S
C913 H921 0.960 . S
C914 C912 1.381 . S
C914 C915 1.394 . S
C914 H922 0.930 . S
C915 C914 1.394 . S
C915 C916 1.383 . S
C915 H923 0.929 . S
C916 C915 1.383 . S
C916 C917 1.377 . S
C917 H901 0.930 . S
C917 C916 1.377 . S
C917 C918 1.379 . S
C918 H902 0.931 . S
C918 C912 1.383 . S
C918 C917 1.379 . S
H919 C913 0.959 . S
H920 C913 0.961 . S
H921 C913 0.960 . S
H922 C914 0.930 . S
H923 C915 0.929 . S
H924 C932 0.929 . S
H925 C934 0.930 . S
H926 C936 0.930 . S
H927 C939 0.929 . S
H928 C942 0.930 . S
H929 C944 0.960 . S
H930 C944 0.960 . S
H931 C944 0.960 . S
C932 H924 0.929 . S
C932 C933 1.377 . S
C932 C934 1.384 . S
C933 C932 1.377 . S
C933 C939 1.390 . S
C934 H925 0.930 . S
C934 C932 1.384 . S
C934 C935 1.372 . S
C935 C934 1.372 . S
C935 C936 1.400 . S
C935 C940 1.490 . S
C936 H926 0.930 . S
C936 C935 1.400 . S
C936 C939 1.386 . S
H937 C953 0.930 . S
H938 C954 0.931 . S
C939 H927 0.929 . S
C939 C933 1.390 . S
C939 C936 1.386 . S
C940 C935 1.490 . S
C940 C942 1.395 . S
C940 C943 1.403 . S
H941 C947 0.930 . S
C942 H928 0.930 . S
C942 C940 1.395 . S
C942 C945 1.403 . S
C943 C940 1.403 . S
C943 C944 1.524 . S
C943 C947 1.400 . S
C944 H929 0.960 . S
C944 H930 0.960 . S
C944 H931 0.960 . S
C944 C943 1.524 . S
C945 C942 1.403 . S
C945 C946 1.392 . S
C945 C949 1.495 . S
C946 C945 1.392 . S
C946 C947 1.385 . S
C946 C948 1.478 . S
C947 H941 0.930 . S
C947 C943 1.400 . S
C947 C946 1.385 . S
C948 C946 1.478 . S
C948 C950 1.381 . S
C948 C954 1.383 1_554 S
C949 C945 1.495 . S
C949 H955 0.959 . S
C949 H956 0.938 1_554 S
C949 H957 0.960 . S
C950 C948 1.381 . S
C950 C951 1.394 . S
C950 H958 0.930 . S
C951 C950 1.394 . S
C951 C952 1.383 1_554 S
C951 H959 0.929 . S
C952 C951 1.383 1_556 S
C952 C953 1.377 . S
C953 H937 0.930 . S
C953 C952 1.377 . S
C953 C954 1.379 . S
C954 H938 0.931 . S
C954 C948 1.383 1_556 S
C954 C953 1.379 . S
H955 C949 0.959 . S
H956 C949 0.938 1_556 S
H957 C949 0.960 . S
H958 C950 0.930 . S
H959 C951 0.929 . S
H960 C968 0.929 . S
H961 C970 0.930 . S
H962 C972 0.930 . S
H963 C975 0.929 . S
H964 C978 0.930 . S
H965 C980 0.960 . S
H966 C980 0.960 . S
H967 C980 0.960 . S
C968 H960 0.929 . S
C968 C969 1.377 . S
C968 C970 1.384 . S
C969 C968 1.377 . S
C969 C975 1.390 . S
C970 H961 0.930 . S
C970 C968 1.384 . S
C970 C971 1.372 . S
C971 C970 1.372 . S
C971 C972 1.400 . S
C971 C976 1.490 . S
C972 H962 0.930 . S
C972 C971 1.400 . S
C972 C975 1.386 . S
H973 C989 0.930 . S
H974 C990 0.931 . S
C975 H963 0.929 . S
C975 C969 1.390 . S
C975 C972 1.386 . S
C976 C971 1.490 . S
C976 C978 1.395 . S
C976 C979 1.403 . S
H977 C983 0.930 . S
C978 H964 0.930 . S
C978 C976 1.395 . S
C978 C981 1.403 . S
C979 C976 1.403 . S
C979 C980 1.524 . S
C979 C983 1.400 . S
C980 H965 0.960 . S
C980 H966 0.960 . S
C980 H967 0.960 . S
C980 C979 1.524 . S
C981 C978 1.403 . S
C981 C982 1.392 . S
C981 C985 1.495 . S
C982 C981 1.392 . S
C982 C983 1.385 . S
C982 C984 1.478 . S
C983 H977 0.930 . S
C983 C979 1.400 . S
C983 C982 1.385 . S
C984 C982 1.478 . S
C984 C986 1.381 . S
C984 C990 1.383 . S
C985 C981 1.495 . S
C985 H991 0.959 . S
C985 H992 0.961 . S
C985 H993 0.960 . S
C986 C984 1.381 . S
C986 C987 1.394 . S
C986 H994 0.930 . S
C987 C986 1.394 . S
C987 C988 1.383 . S
C987 H995 0.929 . S
C988 C987 1.383 . S
C988 C989 1.377 . S
C989 H973 0.930 . S
C989 C988 1.377 . S
C989 C990 1.379 . S
C990 H974 0.931 . S
C990 C984 1.383 . S
C990 C989 1.379 . S
H991 C985 0.959 . S
H992 C985 0.961 . S
H993 C985 0.960 . S
H994 C986 0.930 . S
H995 C987 0.929 . S
H996 C1004 0.929 . S
H997 C1006 0.930 . S
H998 C1008 0.930 . S
H999 C1011 0.929 . S
H1000 C1014 0.930 . S
H1001 C1016 0.960 . S
H1002 C1016 0.960 . S
H1003 C1016 0.960 . S
C1004 H996 0.929 . S
C1004 C1005 1.377 . S
C1004 C1006 1.384 . S
C1005 C1004 1.377 . S
C1005 C1011 1.390 . S
C1006 H997 0.930 . S
C1006 C1004 1.384 . S
C1006 C1007 1.372 . S
C1007 C1006 1.372 . S
C1007 C1008 1.400 . S
C1007 C1012 1.490 . S
C1008 H998 0.930 . S
C1008 C1007 1.400 . S
C1008 C1011 1.386 . S
H1009 C1025 0.930 . S
H1010 C1026 0.931 . S
C1011 H999 0.929 . S
C1011 C1005 1.390 . S
C1011 C1008 1.386 . S
C1012 C1007 1.490 . S
C1012 C1014 1.395 . S
C1012 C1015 1.403 . S
H1013 C1019 0.930 . S
C1014 H1000 0.930 . S
C1014 C1012 1.395 . S
C1014 C1017 1.403 . S
C1015 C1012 1.403 . S
C1015 C1016 1.524 . S
C1015 C1019 1.400 . S
C1016 H1001 0.960 . S
C1016 H1002 0.960 . S
C1016 H1003 0.960 . S
C1016 C1015 1.524 . S
C1017 C1014 1.403 . S
C1017 C1018 1.392 . S
C1017 C1021 1.495 . S
C1018 C1017 1.392 . S
C1018 C1019 1.385 . S
C1018 C1020 1.478 . S
C1019 H1013 0.930 . S
C1019 C1015 1.400 . S
C1019 C1018 1.385 . S
C1020 C1018 1.478 . S
C1020 C1022 1.381 . S
C1020 C1026 1.383 . S
C1021 C1017 1.495 . S
C1021 H1027 0.959 . S
C1021 H1028 0.961 . S
C1021 H1029 0.960 . S
C1022 C1020 1.381 . S
C1022 C1023 1.394 . S
C1022 H1030 0.930 . S
C1023 C1022 1.394 . S
C1023 C1024 1.383 . S
C1023 H1031 0.929 . S
C1024 C1023 1.383 . S
C1024 C1025 1.377 . S
C1025 H1009 0.930 . S
C1025 C1024 1.377 . S
C1025 C1026 1.379 . S
C1026 H1010 0.931 . S
C1026 C1020 1.383 . S
C1026 C1025 1.379 . S
H1027 C1021 0.959 . S
H1028 C1021 0.961 . S
H1029 C1021 0.960 . S
H1030 C1022 0.930 . S
H1031 C1023 0.929 . S
C177 C131 1.628 1_554 S
C196 C5 1.619 . S
C213 C19 1.629 . S
C232 C145 1.629 . S
C249 C159 1.628 . S
C268 C33 1.619 . S
C285 C89 1.626 . S
C304 C47 1.625 . S
C321 C103 1.625 . S
C340 C61 1.613 1_556 S
C357 C117 1.628 . S
C376 C75 1.622 . S
C393 C84 1.446 . S
C412 C0 1.454 . S
C429 C14 1.451 . S
C448 C98 1.422 . S
C465 C112 1.452 . S
C484 C28 1.425 . S
C501 C42 1.452 . S
C520 C126 1.422 . S
C537 C140 1.443 . S
C556 C56 1.458 . S
C573 C70 1.452 . S
C592 C154 1.417 . S
C609 C135 1.205 . S
C628 C9 1.193 . S
C645 C149 1.207 1_556 S
C664 C23 1.215 . S
C681 C163 1.206 . S
C700 C37 1.196 . S
C717 C51 1.204 1_554 S
C736 C93 1.210 . S
C753 C107 1.204 . S
C772 C65 1.209 . S
C789 C79 1.204 . S
C808 C121 1.191 . S
C825 C11 1.087 . S
C844 C123 1.075 . S
C861 C137 1.087 . S
C880 C25 1.074 . S
C897 C151 1.092 . S
C916 C39 1.094 . S
C933 C165 1.092 . S
C952 C53 1.101 . S
C969 C95 1.087 . S
C988 C67 1.073 . S
C1005 C109 1.090 . S
C1024 C81 1.088 . S
