# Generated by pormake.
# Topology sra, (4)-cn, num edge types: 1
# Building blocks:
#     Node 0, Type 0, BuildingBlock: GALJAG_clean_sbu_0, # of connection points: 4
#     Node 1, Type 0, BuildingBlock: GALJAG_clean_sbu_0, # of connection points: 4
#     Node 2, Type 0, BuildingBlock: GALJAG_clean_sbu_0, # of connection points: 4
#     Node 3, Type 0, BuildingBlock: GALJAG_clean_sbu_0, # of connection points: 4
#     Node 4, Type 0, BuildingBlock: GALJAG_clean_sbu_0, # of connection points: 4
#     Node 5, Type 0, BuildingBlock: GALJAG_clean_sbu_0, # of connection points: 4
#     Node 6, Type 0, BuildingBlock: GALJAG_clean_sbu_0, # of connection points: 4
#     Node 7, Type 0, BuildingBlock: GALJAG_clean_sbu_0, # of connection points: 4
#     Edge 8, Type (0, 0), BuildingBlock: XIVTED_clean_linker_0, # of connection points: 2
#     Edge 9, Type (0, 0), BuildingBlock: XIVTED_clean_linker_0, # of connection points: 2
#     Edge 10, Type (0, 0), BuildingBlock: XIVTED_clean_linker_0, # of connection points: 2
#     Edge 11, Type (0, 0), BuildingBlock: XIVTED_clean_linker_0, # of connection points: 2
#     Edge 12, Type (0, 0), BuildingBlock: XIVTED_clean_linker_0, # of connection points: 2
#     Edge 13, Type (0, 0), BuildingBlock: XIVTED_clean_linker_0, # of connection points: 2
#     Edge 14, Type (0, 0), BuildingBlock: XIVTED_clean_linker_0, # of connection points: 2
#     Edge 15, Type (0, 0), BuildingBlock: XIVTED_clean_linker_0, # of connection points: 2
#     Edge 16, Type (0, 0), BuildingBlock: XIVTED_clean_linker_0, # of connection points: 2
#     Edge 17, Type (0, 0), BuildingBlock: XIVTED_clean_linker_0, # of connection points: 2
#     Edge 18, Type (0, 0), BuildingBlock: XIVTED_clean_linker_0, # of connection points: 2
#     Edge 19, Type (0, 0), BuildingBlock: XIVTED_clean_linker_0, # of connection points: 2
#     Edge 20, Type (0, 0), BuildingBlock: XIVTED_clean_linker_0, # of connection points: 2
#     Edge 21, Type (0, 0), BuildingBlock: XIVTED_clean_linker_0, # of connection points: 2
#     Edge 22, Type (0, 0), BuildingBlock: XIVTED_clean_linker_0, # of connection points: 2
#     Edge 23, Type (0, 0), BuildingBlock: XIVTED_clean_linker_0, # of connection points: 2
# Relax obj value: 0.076
# Max RMSD: 0.110
# Mean RMSD: 0.110
data_MOF--net-sra--node1-GALJAG_clean_sbu_0--edge1-XIVTED_clean_linker_0
_symmetry_space_group_name_H-M    P1
_symmetry_Int_Tables_number       1
_symmetry_cell_setting            triclinic
loop_
_symmetry_equiv_pos_as_xyz
'x, y, z'
_cell_length_a     28.606563
_cell_length_b     54.459999
_cell_length_c     29.69409
_cell_angle_alpha  89.890481
_cell_angle_beta   90.158244
_cell_angle_gamma 89.973674
loop_
_atom_site_label
_atom_site_type_symbol
_atom_site_fract_x
_atom_site_fract_y
_atom_site_fract_z
_atom_type_partial_charge
In0 In 0.03397 0.10495 0.12875 0.0
O1 O 0.03605 0.08955 0.05768 0.0
O2 O 0.04123 0.06483 0.11353 0.0
C3 C 0.02564 0.15371 0.12073 0.0
C4 C 0.94839 0.09456 0.15969 0.0
C5 C 0.12055 0.10202 0.16299 0.0
O6 O 0.03155 0.14021 0.08658 0.0
O7 O 0.02421 0.14252 0.15792 0.0
O8 O 0.08479 0.09752 0.18661 0.0
O9 O 0.11227 0.1082 0.12278 0.0
C10 C 0.04021 0.0676 0.07133 0.0
O11 O 0.98416 0.09352 0.18483 0.0
O12 O 0.95614 0.10082 0.11945 0.0
In13 In 0.03178 0.38512 0.14722 0.0
O14 O 0.0323 0.40353 0.07854 0.0
O15 O 0.03508 0.42593 0.13761 0.0
C16 C 0.02472 0.33669 0.134 0.0
C17 C 0.11866 0.3874 0.18056 0.0
C18 C 0.94604 0.39299 0.17965 0.0
O19 O 0.03019 0.35135 0.10129 0.0
O20 O 0.02327 0.3466 0.17232 0.0
O21 O 0.98191 0.39391 0.20471 0.0
O22 O 0.95383 0.38809 0.13882 0.0
C23 C 0.03396 0.42492 0.09516 0.0
O24 O 0.08312 0.39037 0.20527 0.0
O25 O 0.11003 0.38326 0.13959 0.0
In26 In 0.04721 0.88577 0.80742 0.0
O27 O 0.99619 0.89379 0.74999 0.0
O28 O 0.96896 0.88594 0.81527 0.0
C29 C 0.13328 0.8919 0.77433 0.0
C30 C 0.04769 0.92387 0.86349 0.0
C31 C 0.04801 0.83695 0.81809 0.0
O32 O 0.09724 0.89437 0.74989 0.0
O33 O 0.12551 0.88644 0.81493 0.0
O34 O 0.04584 0.85126 0.85153 0.0
O35 O 0.04975 0.84738 0.78018 0.0
C36 C 0.96053 0.8912 0.77468 0.0
O37 O 0.04876 0.90195 0.87776 0.0
O38 O 0.04635 0.92631 0.82122 0.0
In39 In 0.02017 0.60499 0.82791 0.0
O40 O 0.02304 0.59227 0.90072 0.0
O41 O 0.01371 0.56551 0.84886 0.0
C42 C 0.027 0.65398 0.83217 0.0
C43 C 0.10502 0.59444 0.79504 0.0
C44 C 0.93283 0.59961 0.79659 0.0
O45 O 0.02293 0.64101 0.8673 0.0
O46 O 0.02717 0.64219 0.79567 0.0
O47 O 0.96817 0.59427 0.77299 0.0
O48 O 0.94188 0.60788 0.8353 0.0
C49 C 0.01802 0.56989 0.89039 0.0
O50 O 0.06879 0.59375 0.7705 0.0
O51 O 0.09805 0.60041 0.83547 0.0
In52 In 0.51868 0.59638 0.64878 0.0
O53 O 0.46716 0.58673 0.70469 0.0
O54 O 0.44043 0.59736 0.64039 0.0
C55 C 0.60485 0.59009 0.68243 0.0
C56 C 0.51809 0.55878 0.59167 0.0
C57 C 0.52158 0.64519 0.63839 0.0
O58 O 0.56897 0.58896 0.70723 0.0
O59 O 0.59684 0.59416 0.64131 0.0
O60 O 0.52157 0.6309 0.60487 0.0
O61 O 0.51964 0.63476 0.67629 0.0
C62 C 0.43166 0.59051 0.68007 0.0
O63 O 0.51792 0.58082 0.57806 0.0
O64 O 0.51858 0.55594 0.63389 0.0
In65 In 0.54639 0.87712 0.62795 0.0
O66 O 0.5977 0.88726 0.68362 0.0
O67 O 0.62463 0.87782 0.61893 0.0
C68 C 0.46077 0.88422 0.66158 0.0
C69 C 0.54406 0.91402 0.56906 0.0
C70 C 0.54585 0.82809 0.62279 0.0
O71 O 0.49715 0.88735 0.68524 0.0
O72 O 0.46794 0.87736 0.62164 0.0
O73 O 0.5448 0.84131 0.5877 0.0
O74 O 0.54744 0.8397 0.65945 0.0
C75 C 0.63321 0.88443 0.65883 0.0
O76 O 0.54451 0.89185 0.55618 0.0
O77 O 0.54514 0.91719 0.61113 0.0
In78 In 0.53482 0.37807 0.32603 0.0
O79 O 0.48398 0.38641 0.26867 0.0
O80 O 0.45664 0.37435 0.33173 0.0
C81 C 0.62019 0.38894 0.29543 0.0
C82 C 0.52828 0.41463 0.38503 0.0
C83 C 0.54398 0.32929 0.33187 0.0
O84 O 0.58445 0.39001 0.27025 0.0
O85 O 0.61249 0.38247 0.33556 0.0
O86 O 0.53793 0.34233 0.3666 0.0
O87 O 0.54504 0.34093 0.29514 0.0
C88 C 0.4483 0.38129 0.29197 0.0
O89 O 0.5323 0.39252 0.39776 0.0
O90 O 0.52757 0.41796 0.34297 0.0
In91 In 0.53712 0.09781 0.3088 0.0
O92 O 0.58661 0.08818 0.25122 0.0
O93 O 0.61508 0.09398 0.31684 0.0
C94 C 0.45022 0.09568 0.27504 0.0
C95 C 0.53304 0.05969 0.36498 0.0
C96 C 0.54488 0.1463 0.3215 0.0
O97 O 0.48576 0.09179 0.25079 0.0
O98 O 0.45886 0.1006 0.31569 0.0
O99 O 0.53952 0.13168 0.35421 0.0
O100 O 0.54604 0.13636 0.2832 0.0
C101 C 0.62262 0.08891 0.27608 0.0
O102 O 0.53623 0.08155 0.37906 0.0
O103 O 0.53161 0.05727 0.32272 0.0
H104 H 0.00105 0.30407 0.1987 0.0
H105 H 0.03835 0.18426 0.04769 0.0
H106 H 0.0384 0.30847 0.05817 0.0
H107 H 0.00289 0.18427 0.1889 0.0
H108 H 0.03428 0.22941 0.04776 0.0
H109 H -0.00301 0.2598 0.19272 0.0
C110 C 0.00836 0.29566 0.16644 0.0
C111 C 0.02043 0.30992 0.12894 0.0
C112 C 0.02719 0.21943 0.07857 0.0
C113 C 0.01606 0.25892 0.12178 0.0
C114 C 0.02946 0.19375 0.07853 0.0
C115 C 0.02126 0.18061 0.11843 0.0
C116 C 0.01652 0.2318 0.11875 0.0
C117 C 0.00983 0.19366 0.15745 0.0
C118 C 0.00599 0.27031 0.163 0.0
C119 C 0.02912 0.29805 0.0879 0.0
N120 N 0.00795 0.21847 0.15662 0.0
N121 N 0.02708 0.2731 0.08542 0.0
H122 H 0.05834 0.80405 0.7506 0.0
H123 H 0.02423 0.68496 0.90517 0.0
H124 H 0.03719 0.80865 0.89423 0.0
H125 H 0.04058 0.68411 0.7607 0.0
H126 H 0.03169 0.72991 0.90385 0.0
H127 H 0.05528 0.75964 0.75561 0.0
C128 C 0.05311 0.79566 0.78331 0.0
C129 C 0.04779 0.81002 0.82205 0.0
C130 C 0.03368 0.71981 0.87254 0.0
C131 C 0.04404 0.75895 0.8281 0.0
C132 C 0.02942 0.69423 0.87328 0.0
C133 C 0.03163 0.68088 0.83297 0.0
C134 C 0.04029 0.73192 0.83121 0.0
C135 C 0.03848 0.69368 0.79256 0.0
C136 C 0.05134 0.77024 0.78618 0.0
C137 C 0.04135 0.79816 0.86356 0.0
N138 N 0.04252 0.71843 0.79276 0.0
N139 N 0.03947 0.77321 0.86553 0.0
H140 H 0.52478 0.67805 0.70663 0.0
H141 H 0.53826 0.79733 0.5496 0.0
H142 H 0.52593 0.67341 0.56152 0.0
H143 H 0.54926 0.79749 0.69463 0.0
H144 H 0.53253 0.75227 0.55147 0.0
H145 H 0.53174 0.72232 0.70127 0.0
C146 C 0.52642 0.6864 0.67353 0.0
C147 C 0.52478 0.67208 0.63445 0.0
C148 C 0.53634 0.76226 0.58276 0.0
C149 C 0.53292 0.72298 0.62795 0.0
C150 C 0.53964 0.78789 0.58171 0.0
C151 C 0.5441 0.80109 0.62203 0.0
C152 C 0.53742 0.74997 0.62443 0.0
C153 C 0.54571 0.78807 0.66273 0.0
C154 C 0.53051 0.71174 0.67046 0.0
C155 C 0.52708 0.68388 0.59246 0.0
N156 N 0.54227 0.7633 0.66285 0.0
N157 N 0.53103 0.70876 0.59026 0.0
H158 H 0.56747 0.29964 0.26253 0.0
H159 H 0.53423 0.17393 0.39828 0.0
H160 H 0.53186 0.2979 0.40367 0.0
H161 H 0.56491 0.17948 0.25637 0.0
H162 H 0.53815 0.21892 0.40372 0.0
H163 H 0.57209 0.2552 0.26242 0.0
C164 C 0.56069 0.28985 0.29362 0.0
C165 C 0.54891 0.30241 0.33309 0.0
C166 C 0.54421 0.2102 0.37152 0.0
C167 C 0.55389 0.25129 0.33323 0.0
C168 C 0.54201 0.1846 0.36841 0.0
C169 C 0.54895 0.17306 0.32676 0.0
C170 C 0.55355 0.22413 0.33269 0.0
C171 C 0.559 0.18763 0.28909 0.0
C172 C 0.56336 0.26441 0.29357 0.0
C173 C 0.5409 0.28881 0.37249 0.0
N174 N 0.56086 0.21235 0.29297 0.0
N175 N 0.54323 0.26385 0.37154 0.0
H176 H 0.42116 0.09179 0.18737 0.0
H177 H 0.14904 0.09397 0.24991 0.0
H178 H 0.36969 0.09792 0.32339 0.0
H179 H 0.2014 0.10522 0.11525 0.0
H180 H 0.2297 0.09094 0.27729 0.0
H181 H 0.34033 0.09211 0.15984 0.0
C182 C 0.39284 0.0931 0.21139 0.0
C183 C 0.402 0.09494 0.25763 0.0
C184 C 0.22347 0.09407 0.24175 0.0
C185 C 0.30982 0.09526 0.2266 0.0
C186 C 0.17751 0.09577 0.22616 0.0
C187 C 0.16866 0.09995 0.18035 0.0
C188 C 0.26066 0.09638 0.2112 0.0
C189 C 0.20674 0.1021 0.15092 0.0
C190 C 0.3468 0.09335 0.19571 0.0
C191 C 0.36411 0.09659 0.2874 0.0
N192 N 0.25111 0.10026 0.16684 0.0
N193 N 0.31966 0.0967 0.27137 0.0
H194 H 0.70005 0.39148 0.34525 0.0
H195 H 0.86592 0.39587 0.13037 0.0
H196 H 0.64871 0.39722 0.20882 0.0
H197 H 0.91736 0.39794 0.26709 0.0
H198 H 0.78616 0.39867 0.15855 0.0
H199 H 0.77974 0.39618 0.31755 0.0
C200 C 0.70558 0.3939 0.30944 0.0
C201 C 0.66786 0.39376 0.27917 0.0
C202 C 0.81484 0.39871 0.18243 0.0
C203 C 0.75892 0.39901 0.24724 0.0
C204 C 0.86039 0.39706 0.16637 0.0
C205 C 0.89819 0.39646 0.19653 0.0
C206 C 0.80699 0.39957 0.22902 0.0
C207 C 0.88912 0.39823 0.24275 0.0
C208 C 0.75107 0.39662 0.29366 0.0
C209 C 0.67689 0.39712 0.23322 0.0
N210 N 0.84432 0.3995 0.25765 0.0
N211 N 0.72162 0.3994 0.21858 0.0
H212 H 0.16112 0.89688 0.68667 0.0
H213 H 0.4339 0.8939 0.74821 0.0
H214 H 0.21425 0.89209 0.82261 0.0
H215 H 0.3795 0.88354 0.61385 0.0
H216 H 0.3538 0.89884 0.77573 0.0
H217 H 0.2416 0.89776 0.65883 0.0
C218 C 0.18973 0.8962 0.71062 0.0
C219 C 0.18117 0.89422 0.75691 0.0
C220 C 0.35947 0.89556 0.74021 0.0
C221 C 0.27295 0.8952 0.72551 0.0
C222 C 0.40511 0.89277 0.72453 0.0
C223 C 0.41317 0.88813 0.67882 0.0
C224 C 0.32186 0.89383 0.70982 0.0
C225 C 0.37474 0.88691 0.64946 0.0
C226 C 0.23558 0.89664 0.69476 0.0
C227 C 0.2194 0.89344 0.78658 0.0
N228 N 0.33071 0.8897 0.66549 0.0
N229 N 0.26367 0.89386 0.77036 0.0
H230 H 0.68469 0.58513 0.63385 0.0
H231 H 0.85275 0.60562 0.84474 0.0
H232 H 0.63435 0.59076 0.77031 0.0
H233 H 0.90286 0.58584 0.71272 0.0
H234 H 0.77254 0.60059 0.81812 0.0
H235 H 0.76481 0.58528 0.66209 0.0
C236 C 0.69055 0.58624 0.66985 0.0
C237 C 0.65293 0.58807 0.69984 0.0
C238 C 0.80104 0.59722 0.79502 0.0
C239 C 0.74454 0.58847 0.73235 0.0
C240 C 0.84684 0.60019 0.81012 0.0
C241 C 0.88443 0.59625 0.78076 0.0
C242 C 0.79277 0.59047 0.75013 0.0
C243 C 0.87482 0.58912 0.73637 0.0
C244 C 0.7363 0.58629 0.68594 0.0
C245 C 0.66244 0.58933 0.7461 0.0
N246 N 0.82985 0.58659 0.7223 0.0
N247 N 0.70742 0.58973 0.76096 0.0
H248 H 0.71324 0.88393 0.60935 0.0
H249 H 0.88044 0.89179 0.82378 0.0
H250 H 0.66256 0.8934 0.74499 0.0
H251 H 0.93106 0.89536 0.68713 0.0
H252 H 0.80038 0.89276 0.79547 0.0
H253 H 0.79324 0.88837 0.63696 0.0
C254 C 0.71899 0.88703 0.64496 0.0
C255 C 0.68134 0.88816 0.67504 0.0
C256 C 0.82893 0.89351 0.77164 0.0
C257 C 0.77269 0.89317 0.70683 0.0
C258 C 0.87465 0.8929 0.78776 0.0
C259 C 0.91233 0.89335 0.75767 0.0
C260 C 0.82082 0.89433 0.72504 0.0
C261 C 0.90291 0.89493 0.71142 0.0
C262 C 0.76464 0.88963 0.66066 0.0
C263 C 0.69067 0.89234 0.72073 0.0
N264 N 0.85798 0.89517 0.69645 0.0
N265 N 0.73551 0.89453 0.73531 0.0
H266 H 0.35169 0.59348 0.6305 0.0
H267 H 0.18453 0.58851 0.84422 0.0
H268 H 0.40168 0.581 0.76589 0.0
H269 H 0.13337 0.58983 0.70738 0.0
H270 H 0.26407 0.58418 0.81603 0.0
H271 H 0.27147 0.59084 0.65768 0.0
C272 C 0.34574 0.59007 0.66598 0.0
C273 C 0.38331 0.58764 0.69612 0.0
C274 C 0.23549 0.58521 0.79211 0.0
C275 C 0.29159 0.58466 0.72745 0.0
C276 C 0.19007 0.58773 0.80817 0.0
C277 C 0.15245 0.58973 0.778 0.0
C278 C 0.24342 0.58496 0.74551 0.0
C279 C 0.16149 0.58842 0.73172 0.0
C280 C 0.29992 0.5885 0.68143 0.0
C281 C 0.37366 0.58309 0.74161 0.0
N282 N 0.2062 0.58635 0.71683 0.0
N283 N 0.32866 0.58194 0.75599 0.0
H284 H 0.70283 0.0853 0.32507 0.0
H285 H 0.86834 0.09238 0.11001 0.0
H286 H 0.65112 0.08463 0.18841 0.0
H287 H 0.91996 0.08583 0.24622 0.0
H288 H 0.78874 0.08719 0.13771 0.0
H289 H 0.78257 0.08301 0.29664 0.0
C290 C 0.70829 0.08449 0.28902 0.0
C291 C 0.67041 0.08536 0.25897 0.0
C292 C 0.81745 0.0867 0.16155 0.0
C293 C 0.76162 0.08289 0.22619 0.0
C294 C 0.8629 0.0897 0.14578 0.0
C295 C 0.90069 0.08973 0.17598 0.0
C296 C 0.80969 0.08388 0.20791 0.0
C297 C 0.89173 0.08604 0.22186 0.0
C298 C 0.75384 0.08316 0.27282 0.0
C299 C 0.67942 0.0841 0.21267 0.0
N300 N 0.84705 0.08345 0.2365 0.0
N301 N 0.72421 0.08315 0.19764 0.0
H302 H 0.1477 0.3899 0.26833 0.0
H303 H 0.41975 0.39117 0.2057 0.0
H304 H 0.19915 0.38703 0.13192 0.0
H305 H 0.36755 0.37667 0.33939 0.0
H306 H 0.33902 0.39436 0.17851 0.0
H307 H 0.22851 0.38987 0.29575 0.0
C308 C 0.17601 0.38936 0.24421 0.0
C309 C 0.16687 0.38833 0.19788 0.0
C310 C 0.34532 0.39049 0.21379 0.0
C311 C 0.25903 0.38834 0.2288 0.0
C312 C 0.3913 0.38869 0.22928 0.0
C313 C 0.40019 0.38353 0.27474 0.0
C314 C 0.30818 0.38728 0.24413 0.0
C315 C 0.36217 0.38054 0.30398 0.0
C316 C 0.22205 0.38928 0.25982 0.0
C317 C 0.20474 0.38769 0.16797 0.0
N318 N 0.31779 0.38248 0.28817 0.0
N319 N 0.24921 0.3877 0.18396 0.0
H320 H 0.04914 0.01949 0.0942 0.0
H321 H 0.04467 0.97216 0.83985 0.0
H322 H 0.0377 0.06776 -0.02081 0.0
H323 H 0.0511 0.92406 0.95545 0.0
H324 H 0.04431 0.0075 0.89016 0.0
H325 H 0.05228 0.98439 0.04362 0.0
C326 C 0.04736 0.02269 0.05822 0.0
C327 C 0.04306 0.04651 0.04074 0.0
C328 C 0.04583 0.98923 0.90455 0.0
C329 C 0.04658 0.00644 -0.01729 0.0
C330 C 0.04604 0.96905 0.87588 0.0
C331 C 0.04784 0.9452 0.89365 0.0
C332 C 0.04745 0.98549 0.95128 0.0
C333 C 0.04962 0.94218 0.94046 0.0
C334 C 0.04914 0.00264 0.02938 0.0
C335 C 0.04097 0.04964 -0.00605 0.0
N336 N 0.04934 0.96214 0.96773 0.0
N337 N 0.04269 0.02978 0.96646 0.0
H338 H 0.0386 0.5731 -0.01989 0.0
H339 H 0.03004 0.47215 0.12444 0.0
H340 H 0.00076 0.52147 0.87615 0.0
H341 H 0.03455 0.42852 0.00333 0.0
H342 H 0.02482 0.50907 0.07888 0.0
H343 H 0.04468 0.5393 0.03355 0.0
C344 C 0.03086 0.55464 0.96881 0.0
C345 C 0.01901 0.55002 0.92384 0.0
C346 C 0.02799 0.4916 0.06197 0.0
C347 C 0.02473 0.51119 -0.01515 0.0
C348 C 0.0306 0.47041 0.08811 0.0
C349 C 0.03297 0.4473 0.06753 0.0
C350 C 0.02822 0.48962 0.01482 0.0
C351 C 0.03295 0.44603 0.02047 0.0
C352 C 0.03402 0.53527 -0.00057 0.0
C353 C 0.00995 0.5258 0.91062 0.0
N354 N 0.03053 0.46695 -0.00433 0.0
N355 N 0.0131 0.50728 0.94101 0.0
H356 H 0.52914 0.4133 0.4772 0.0
H357 H 0.5163 0.55959 0.49976 0.0
H358 H 0.52047 0.46301 0.36404 0.0
H359 H 0.52 0.51024 0.61368 0.0
H360 H 0.51738 0.5242 0.44937 0.0
H361 H 0.52531 0.44852 0.52817 0.0
C362 C 0.52635 0.43162 0.46316 0.0
C363 C 0.5252 0.43533 0.41648 0.0
C364 C 0.51787 0.5211 0.4854 0.0
C365 C 0.52089 0.47552 0.47419 0.0
C366 C 0.51728 0.54129 0.5141 0.0
C367 C 0.51813 0.53776 0.56081 0.0
C368 C 0.51941 0.49729 0.50365 0.0
C369 C 0.51935 0.51372 0.57778 0.0
C370 C 0.52417 0.45168 0.49217 0.0
C371 C 0.52153 0.45937 0.39989 0.0
N372 N 0.52003 0.49436 0.54916 0.0
N373 N 0.51959 0.47857 0.42874 0.0
H374 H 0.5395 0.91317 0.47688 0.0
H375 H 0.53584 0.05977 0.45681 0.0
H376 H 0.54321 0.96241 0.59063 0.0
H377 H 0.52908 0.01131 0.34207 0.0
H378 H 0.53751 0.02401 0.50647 0.0
H379 H 0.53508 0.94876 0.42647 0.0
C380 C 0.53943 0.93146 0.49116 0.0
C381 C 0.54179 0.93492 0.53784 0.0
C382 C 0.53555 0.02118 0.47043 0.0
C383 C 0.53666 0.97551 0.4808 0.0
C384 C 0.53456 0.04158 0.44213 0.0
C385 C 0.53242 0.03842 0.3954 0.0
C386 C 0.53449 -0.0025 0.45175 0.0
C387 C 0.5308 0.01451 0.37801 0.0
C388 C 0.53684 0.95173 0.46248 0.0
C389 C 0.54149 0.95894 0.55478 0.0
N390 N 0.53199 -0.00509 0.40624 0.0
N391 N 0.539 0.97832 0.52625 0.0
loop_
_geom_bond_atom_site_label_1
_geom_bond_atom_site_label_2
_geom_bond_distance
_geom_bond_site_symmetry_2
_ccdc_geom_bond_type
In0 O1 2.294 . S
In0 O2 2.326 . S
In0 O6 2.266 . S
In0 O7 2.326 . S
In0 O8 2.266 . S
In0 O9 2.326 . S
In0 O11 2.294 1_455 S
In0 O12 2.326 1_455 S
O1 In0 2.294 . S
O1 C10 1.240 . S
O2 In0 2.326 . S
O2 C10 1.252 . S
C3 O6 1.252 . S
C3 O7 1.260 . S
C4 O11 1.240 . S
C4 O12 1.252 . S
C5 O8 1.252 . S
C5 O9 1.260 . S
O6 In0 2.266 . S
O6 C3 1.252 . S
O7 In0 2.326 . S
O7 C3 1.260 . S
O8 In0 2.266 . S
O8 C5 1.252 . S
O9 In0 2.326 . S
O9 C5 1.260 . S
C10 O1 1.240 . S
C10 O2 1.252 . S
O11 In0 2.294 1_655 S
O11 C4 1.240 . S
O12 In0 2.326 1_655 S
O12 C4 1.252 . S
In13 O14 2.294 . S
In13 O15 2.326 . S
In13 O19 2.266 . S
In13 O20 2.326 . S
In13 O21 2.266 1_455 S
In13 O22 2.326 1_455 S
In13 O24 2.294 . S
In13 O25 2.326 . S
O14 In13 2.294 . S
O14 C23 1.240 . S
O15 In13 2.326 . S
O15 C23 1.252 . S
C16 O19 1.252 . S
C16 O20 1.260 . S
C17 O24 1.240 . S
C17 O25 1.252 . S
C18 O21 1.252 . S
C18 O22 1.260 . S
O19 In13 2.266 . S
O19 C16 1.252 . S
O20 In13 2.326 . S
O20 C16 1.260 . S
O21 In13 2.266 1_655 S
O21 C18 1.252 . S
O22 In13 2.326 1_655 S
O22 C18 1.260 . S
C23 O14 1.240 . S
C23 O15 1.252 . S
O24 In13 2.294 . S
O24 C17 1.240 . S
O25 In13 2.326 . S
O25 C17 1.252 . S
In26 O27 2.294 1_455 S
In26 O28 2.326 1_455 S
In26 O32 2.266 . S
In26 O33 2.326 . S
In26 O34 2.266 . S
In26 O35 2.326 . S
In26 O37 2.294 . S
In26 O38 2.326 . S
O27 In26 2.294 1_655 S
O27 C36 1.240 . S
O28 In26 2.326 1_655 S
O28 C36 1.252 . S
C29 O32 1.252 . S
C29 O33 1.260 . S
C30 O37 1.240 . S
C30 O38 1.252 . S
C31 O34 1.252 . S
C31 O35 1.260 . S
O32 In26 2.266 . S
O32 C29 1.252 . S
O33 In26 2.326 . S
O33 C29 1.260 . S
O34 In26 2.266 . S
O34 C31 1.252 . S
O35 In26 2.326 . S
O35 C31 1.260 . S
C36 O27 1.240 . S
C36 O28 1.252 . S
O37 In26 2.294 . S
O37 C30 1.240 . S
O38 In26 2.326 . S
O38 C30 1.252 . S
In39 O40 2.294 . S
In39 O41 2.326 . S
In39 O45 2.266 . S
In39 O46 2.326 . S
In39 O47 2.266 1_455 S
In39 O48 2.326 1_455 S
In39 O50 2.294 . S
In39 O51 2.326 . S
O40 In39 2.294 . S
O40 C49 1.240 . S
O41 In39 2.326 . S
O41 C49 1.252 . S
C42 O45 1.252 . S
C42 O46 1.260 . S
C43 O50 1.240 . S
C43 O51 1.252 . S
C44 O47 1.252 . S
C44 O48 1.260 . S
O45 In39 2.266 . S
O45 C42 1.252 . S
O46 In39 2.326 . S
O46 C42 1.260 . S
O47 In39 2.266 1_655 S
O47 C44 1.252 . S
O48 In39 2.326 1_655 S
O48 C44 1.260 . S
C49 O40 1.240 . S
C49 O41 1.252 . S
O50 In39 2.294 . S
O50 C43 1.240 . S
O51 In39 2.326 . S
O51 C43 1.252 . S
In52 O53 2.294 . S
In52 O54 2.326 . S
In52 O58 2.266 . S
In52 O59 2.326 . S
In52 O60 2.266 . S
In52 O61 2.326 . S
In52 O63 2.294 . S
In52 O64 2.326 . S
O53 In52 2.294 . S
O53 C62 1.240 . S
O54 In52 2.326 . S
O54 C62 1.252 . S
C55 O58 1.252 . S
C55 O59 1.260 . S
C56 O63 1.240 . S
C56 O64 1.252 . S
C57 O60 1.252 . S
C57 O61 1.260 . S
O58 In52 2.266 . S
O58 C55 1.252 . S
O59 In52 2.326 . S
O59 C55 1.260 . S
O60 In52 2.266 . S
O60 C57 1.252 . S
O61 In52 2.326 . S
O61 C57 1.260 . S
C62 O53 1.240 . S
C62 O54 1.252 . S
O63 In52 2.294 . S
O63 C56 1.240 . S
O64 In52 2.326 . S
O64 C56 1.252 . S
In65 O66 2.294 . S
In65 O67 2.326 . S
In65 O71 2.266 . S
In65 O72 2.326 . S
In65 O73 2.266 . S
In65 O74 2.326 . S
In65 O76 2.294 . S
In65 O77 2.326 . S
O66 In65 2.294 . S
O66 C75 1.240 . S
O67 In65 2.326 . S
O67 C75 1.252 . S
C68 O71 1.252 . S
C68 O72 1.260 . S
C69 O76 1.240 . S
C69 O77 1.252 . S
C70 O73 1.252 . S
C70 O74 1.260 . S
O71 In65 2.266 . S
O71 C68 1.252 . S
O72 In65 2.326 . S
O72 C68 1.260 . S
O73 In65 2.266 . S
O73 C70 1.252 . S
O74 In65 2.326 . S
O74 C70 1.260 . S
C75 O66 1.240 . S
C75 O67 1.252 . S
O76 In65 2.294 . S
O76 C69 1.240 . S
O77 In65 2.326 . S
O77 C69 1.252 . S
In78 O79 2.294 . S
In78 O80 2.326 . S
In78 O84 2.266 . S
In78 O85 2.326 . S
In78 O86 2.266 . S
In78 O87 2.326 . S
In78 O89 2.294 . S
In78 O90 2.326 . S
O79 In78 2.294 . S
O79 C88 1.240 . S
O80 In78 2.326 . S
O80 C88 1.252 . S
C81 O84 1.252 . S
C81 O85 1.260 . S
C82 O89 1.240 . S
C82 O90 1.252 . S
C83 O86 1.252 . S
C83 O87 1.260 . S
O84 In78 2.266 . S
O84 C81 1.252 . S
O85 In78 2.326 . S
O85 C81 1.260 . S
O86 In78 2.266 . S
O86 C83 1.252 . S
O87 In78 2.326 . S
O87 C83 1.260 . S
C88 O79 1.240 . S
C88 O80 1.252 . S
O89 In78 2.294 . S
O89 C82 1.240 . S
O90 In78 2.326 . S
O90 C82 1.252 . S
In91 O92 2.294 . S
In91 O93 2.326 . S
In91 O97 2.266 . S
In91 O98 2.326 . S
In91 O99 2.266 . S
In91 O100 2.326 . S
In91 O102 2.294 . S
In91 O103 2.326 . S
O92 In91 2.294 . S
O92 C101 1.240 . S
O93 In91 2.326 . S
O93 C101 1.252 . S
C94 O97 1.252 . S
C94 O98 1.260 . S
C95 O102 1.240 . S
C95 O103 1.252 . S
C96 O99 1.252 . S
C96 O100 1.260 . S
O97 In91 2.266 . S
O97 C94 1.252 . S
O98 In91 2.326 . S
O98 C94 1.260 . S
O99 In91 2.266 . S
O99 C96 1.252 . S
O100 In91 2.326 . S
O100 C96 1.260 . S
C101 O92 1.240 . S
C101 O93 1.252 . S
O102 In91 2.294 . S
O102 C95 1.240 . S
O103 In91 2.326 . S
O103 C95 1.252 . S
H104 C110 0.930 . S
H105 C114 0.930 . S
H106 C119 0.929 . S
H107 C117 0.929 . S
H108 C112 0.929 . S
H109 C118 0.929 . S
C110 H104 0.930 . S
C110 C111 1.367 . S
C110 C118 1.378 . S
C111 C110 1.367 . S
C111 C119 1.433 . S
C112 H108 0.929 . S
C112 C114 1.378 . S
C112 C116 1.350 . S
C113 C116 1.463 . S
C113 C118 1.350 . S
C113 N121 1.427 . S
C114 H105 0.930 . S
C114 C112 1.378 . S
C114 C115 1.367 . S
C115 C114 1.367 . S
C115 C117 1.433 . S
C116 C112 1.350 . S
C116 C113 1.463 . S
C116 N120 1.427 . S
C117 H107 0.929 . S
C117 C115 1.433 . S
C117 N120 1.384 . S
C118 H109 0.929 . S
C118 C110 1.378 . S
C118 C113 1.350 . S
C119 H106 0.929 . S
C119 C111 1.433 . S
C119 N121 1.384 . S
N120 C116 1.427 . S
N120 C117 1.384 . S
N121 C113 1.427 . S
N121 C119 1.384 . S
H122 C128 0.930 . S
H123 C132 0.930 . S
H124 C137 0.929 . S
H125 C135 0.929 . S
H126 C130 0.929 . S
H127 C136 0.929 . S
C128 H122 0.930 . S
C128 C129 1.367 . S
C128 C136 1.378 . S
C129 C128 1.367 . S
C129 C137 1.433 . S
C130 H126 0.929 . S
C130 C132 1.378 . S
C130 C134 1.350 . S
C131 C134 1.463 . S
C131 C136 1.350 . S
C131 N139 1.427 . S
C132 H123 0.930 . S
C132 C130 1.378 . S
C132 C133 1.367 . S
C133 C132 1.367 . S
C133 C135 1.433 . S
C134 C130 1.350 . S
C134 C131 1.463 . S
C134 N138 1.427 . S
C135 H125 0.929 . S
C135 C133 1.433 . S
C135 N138 1.384 . S
C136 H127 0.929 . S
C136 C128 1.378 . S
C136 C131 1.350 . S
C137 H124 0.929 . S
C137 C129 1.433 . S
C137 N139 1.384 . S
N138 C134 1.427 . S
N138 C135 1.384 . S
N139 C131 1.427 . S
N139 C137 1.384 . S
H140 C146 0.930 . S
H141 C150 0.930 . S
H142 C155 0.929 . S
H143 C153 0.929 . S
H144 C148 0.929 . S
H145 C154 0.929 . S
C146 H140 0.930 . S
C146 C147 1.367 . S
C146 C154 1.378 . S
C147 C146 1.367 . S
C147 C155 1.433 . S
C148 H144 0.929 . S
C148 C150 1.378 . S
C148 C152 1.350 . S
C149 C152 1.463 . S
C149 C154 1.350 . S
C149 N157 1.427 . S
C150 H141 0.930 . S
C150 C148 1.378 . S
C150 C151 1.367 . S
C151 C150 1.367 . S
C151 C153 1.433 . S
C152 C148 1.350 . S
C152 C149 1.463 . S
C152 N156 1.427 . S
C153 H143 0.929 . S
C153 C151 1.433 . S
C153 N156 1.384 . S
C154 H145 0.929 . S
C154 C146 1.378 . S
C154 C149 1.350 . S
C155 H142 0.929 . S
C155 C147 1.433 . S
C155 N157 1.384 . S
N156 C152 1.427 . S
N156 C153 1.384 . S
N157 C149 1.427 . S
N157 C155 1.384 . S
H158 C164 0.930 . S
H159 C168 0.930 . S
H160 C173 0.929 . S
H161 C171 0.929 . S
H162 C166 0.929 . S
H163 C172 0.929 . S
C164 H158 0.930 . S
C164 C165 1.367 . S
C164 C172 1.378 . S
C165 C164 1.367 . S
C165 C173 1.433 . S
C166 H162 0.929 . S
C166 C168 1.378 . S
C166 C170 1.350 . S
C167 C170 1.463 . S
C167 C172 1.350 . S
C167 N175 1.427 . S
C168 H159 0.930 . S
C168 C166 1.378 . S
C168 C169 1.367 . S
C169 C168 1.367 . S
C169 C171 1.433 . S
C170 C166 1.350 . S
C170 C167 1.463 . S
C170 N174 1.427 . S
C171 H161 0.929 . S
C171 C169 1.433 . S
C171 N174 1.384 . S
C172 H163 0.929 . S
C172 C164 1.378 . S
C172 C167 1.350 . S
C173 H160 0.929 . S
C173 C165 1.433 . S
C173 N175 1.384 . S
N174 C170 1.427 . S
N174 C171 1.384 . S
N175 C167 1.427 . S
N175 C173 1.384 . S
H176 C182 0.930 . S
H177 C186 0.930 . S
H178 C191 0.929 . S
H179 C189 0.929 . S
H180 C184 0.929 . S
H181 C190 0.929 . S
C182 H176 0.930 . S
C182 C183 1.367 . S
C182 C190 1.378 . S
C183 C182 1.367 . S
C183 C191 1.433 . S
C184 H180 0.929 . S
C184 C186 1.378 . S
C184 C188 1.350 . S
C185 C188 1.463 . S
C185 C190 1.350 . S
C185 N193 1.427 . S
C186 H177 0.930 . S
C186 C184 1.378 . S
C186 C187 1.367 . S
C187 C186 1.367 . S
C187 C189 1.433 . S
C188 C184 1.350 . S
C188 C185 1.463 . S
C188 N192 1.427 . S
C189 H179 0.929 . S
C189 C187 1.433 . S
C189 N192 1.384 . S
C190 H181 0.929 . S
C190 C182 1.378 . S
C190 C185 1.350 . S
C191 H178 0.929 . S
C191 C183 1.433 . S
C191 N193 1.384 . S
N192 C188 1.427 . S
N192 C189 1.384 . S
N193 C185 1.427 . S
N193 C191 1.384 . S
H194 C200 0.930 . S
H195 C204 0.930 . S
H196 C209 0.929 . S
H197 C207 0.929 . S
H198 C202 0.929 . S
H199 C208 0.929 . S
C200 H194 0.930 . S
C200 C201 1.367 . S
C200 C208 1.378 . S
C201 C200 1.367 . S
C201 C209 1.433 . S
C202 H198 0.929 . S
C202 C204 1.378 . S
C202 C206 1.350 . S
C203 C206 1.463 . S
C203 C208 1.350 . S
C203 N211 1.427 . S
C204 H195 0.930 . S
C204 C202 1.378 . S
C204 C205 1.367 . S
C205 C204 1.367 . S
C205 C207 1.433 . S
C206 C202 1.350 . S
C206 C203 1.463 . S
C206 N210 1.427 . S
C207 H197 0.929 . S
C207 C205 1.433 . S
C207 N210 1.384 . S
C208 H199 0.929 . S
C208 C200 1.378 . S
C208 C203 1.350 . S
C209 H196 0.929 . S
C209 C201 1.433 . S
C209 N211 1.384 . S
N210 C206 1.427 . S
N210 C207 1.384 . S
N211 C203 1.427 . S
N211 C209 1.384 . S
H212 C218 0.930 . S
H213 C222 0.930 . S
H214 C227 0.929 . S
H215 C225 0.929 . S
H216 C220 0.929 . S
H217 C226 0.929 . S
C218 H212 0.930 . S
C218 C219 1.367 . S
C218 C226 1.378 . S
C219 C218 1.367 . S
C219 C227 1.433 . S
C220 H216 0.929 . S
C220 C222 1.378 . S
C220 C224 1.350 . S
C221 C224 1.463 . S
C221 C226 1.350 . S
C221 N229 1.427 . S
C222 H213 0.930 . S
C222 C220 1.378 . S
C222 C223 1.367 . S
C223 C222 1.367 . S
C223 C225 1.433 . S
C224 C220 1.350 . S
C224 C221 1.463 . S
C224 N228 1.427 . S
C225 H215 0.929 . S
C225 C223 1.433 . S
C225 N228 1.384 . S
C226 H217 0.929 . S
C226 C218 1.378 . S
C226 C221 1.350 . S
C227 H214 0.929 . S
C227 C219 1.433 . S
C227 N229 1.384 . S
N228 C224 1.427 . S
N228 C225 1.384 . S
N229 C221 1.427 . S
N229 C227 1.384 . S
H230 C236 0.930 . S
H231 C240 0.930 . S
H232 C245 0.929 . S
H233 C243 0.929 . S
H234 C238 0.929 . S
H235 C244 0.929 . S
C236 H230 0.930 . S
C236 C237 1.367 . S
C236 C244 1.378 . S
C237 C236 1.367 . S
C237 C245 1.433 . S
C238 H234 0.929 . S
C238 C240 1.378 . S
C238 C242 1.350 . S
C239 C242 1.463 . S
C239 C244 1.350 . S
C239 N247 1.427 . S
C240 H231 0.930 . S
C240 C238 1.378 . S
C240 C241 1.367 . S
C241 C240 1.367 . S
C241 C243 1.433 . S
C242 C238 1.350 . S
C242 C239 1.463 . S
C242 N246 1.427 . S
C243 H233 0.929 . S
C243 C241 1.433 . S
C243 N246 1.384 . S
C244 H235 0.929 . S
C244 C236 1.378 . S
C244 C239 1.350 . S
C245 H232 0.929 . S
C245 C237 1.433 . S
C245 N247 1.384 . S
N246 C242 1.427 . S
N246 C243 1.384 . S
N247 C239 1.427 . S
N247 C245 1.384 . S
H248 C254 0.930 . S
H249 C258 0.930 . S
H250 C263 0.929 . S
H251 C261 0.929 . S
H252 C256 0.929 . S
H253 C262 0.929 . S
C254 H248 0.930 . S
C254 C255 1.367 . S
C254 C262 1.378 . S
C255 C254 1.367 . S
C255 C263 1.433 . S
C256 H252 0.929 . S
C256 C258 1.378 . S
C256 C260 1.350 . S
C257 C260 1.463 . S
C257 C262 1.350 . S
C257 N265 1.427 . S
C258 H249 0.930 . S
C258 C256 1.378 . S
C258 C259 1.367 . S
C259 C258 1.367 . S
C259 C261 1.433 . S
C260 C256 1.350 . S
C260 C257 1.463 . S
C260 N264 1.427 . S
C261 H251 0.929 . S
C261 C259 1.433 . S
C261 N264 1.384 . S
C262 H253 0.929 . S
C262 C254 1.378 . S
C262 C257 1.350 . S
C263 H250 0.929 . S
C263 C255 1.433 . S
C263 N265 1.384 . S
N264 C260 1.427 . S
N264 C261 1.384 . S
N265 C257 1.427 . S
N265 C263 1.384 . S
H266 C272 0.930 . S
H267 C276 0.930 . S
H268 C281 0.929 . S
H269 C279 0.929 . S
H270 C274 0.929 . S
H271 C280 0.929 . S
C272 H266 0.930 . S
C272 C273 1.367 . S
C272 C280 1.378 . S
C273 C272 1.367 . S
C273 C281 1.433 . S
C274 H270 0.929 . S
C274 C276 1.378 . S
C274 C278 1.350 . S
C275 C278 1.463 . S
C275 C280 1.350 . S
C275 N283 1.427 . S
C276 H267 0.930 . S
C276 C274 1.378 . S
C276 C277 1.367 . S
C277 C276 1.367 . S
C277 C279 1.433 . S
C278 C274 1.350 . S
C278 C275 1.463 . S
C278 N282 1.427 . S
C279 H269 0.929 . S
C279 C277 1.433 . S
C279 N282 1.384 . S
C280 H271 0.929 . S
C280 C272 1.378 . S
C280 C275 1.350 . S
C281 H268 0.929 . S
C281 C273 1.433 . S
C281 N283 1.384 . S
N282 C278 1.427 . S
N282 C279 1.384 . S
N283 C275 1.427 . S
N283 C281 1.384 . S
H284 C290 0.930 . S
H285 C294 0.930 . S
H286 C299 0.929 . S
H287 C297 0.929 . S
H288 C292 0.929 . S
H289 C298 0.929 . S
C290 H284 0.930 . S
C290 C291 1.367 . S
C290 C298 1.378 . S
C291 C290 1.367 . S
C291 C299 1.433 . S
C292 H288 0.929 . S
C292 C294 1.378 . S
C292 C296 1.350 . S
C293 C296 1.463 . S
C293 C298 1.350 . S
C293 N301 1.427 . S
C294 H285 0.930 . S
C294 C292 1.378 . S
C294 C295 1.367 . S
C295 C294 1.367 . S
C295 C297 1.433 . S
C296 C292 1.350 . S
C296 C293 1.463 . S
C296 N300 1.427 . S
C297 H287 0.929 . S
C297 C295 1.433 . S
C297 N300 1.384 . S
C298 H289 0.929 . S
C298 C290 1.378 . S
C298 C293 1.350 . S
C299 H286 0.929 . S
C299 C291 1.433 . S
C299 N301 1.384 . S
N300 C296 1.427 . S
N300 C297 1.384 . S
N301 C293 1.427 . S
N301 C299 1.384 . S
H302 C308 0.930 . S
H303 C312 0.930 . S
H304 C317 0.929 . S
H305 C315 0.929 . S
H306 C310 0.929 . S
H307 C316 0.929 . S
C308 H302 0.930 . S
C308 C309 1.367 . S
C308 C316 1.378 . S
C309 C308 1.367 . S
C309 C317 1.433 . S
C310 H306 0.929 . S
C310 C312 1.378 . S
C310 C314 1.350 . S
C311 C314 1.463 . S
C311 C316 1.350 . S
C311 N319 1.427 . S
C312 H303 0.930 . S
C312 C310 1.378 . S
C312 C313 1.367 . S
C313 C312 1.367 . S
C313 C315 1.433 . S
C314 C310 1.350 . S
C314 C311 1.463 . S
C314 N318 1.427 . S
C315 H305 0.929 . S
C315 C313 1.433 . S
C315 N318 1.384 . S
C316 H307 0.929 . S
C316 C308 1.378 . S
C316 C311 1.350 . S
C317 H304 0.929 . S
C317 C309 1.433 . S
C317 N319 1.384 . S
N318 C314 1.427 . S
N318 C315 1.384 . S
N319 C311 1.427 . S
N319 C317 1.384 . S
H320 C326 0.930 . S
H321 C330 0.930 . S
H322 C335 0.929 . S
H323 C333 0.929 . S
H324 C328 0.929 1_545 S
H325 C334 0.929 1_565 S
C326 H320 0.930 . S
C326 C327 1.367 1_655 S
C326 C334 1.378 . S
C327 C326 1.367 1_455 S
C327 C335 1.433 . S
C328 H324 0.929 1_565 S
C328 C330 1.378 . S
C328 C332 1.350 . S
C329 C332 1.463 1_544 S
C329 C334 1.350 1_455 S
C329 N337 1.435 . S
C330 H321 0.930 . S
C330 C328 1.378 . S
C330 C331 1.367 . S
C331 C330 1.367 . S
C331 C333 1.433 1_455 S
C332 C328 1.350 . S
C332 C329 1.463 1_566 S
C332 N336 1.435 1_455 S
C333 H323 0.929 . S
C333 C331 1.433 1_655 S
C333 N336 1.398 . S
C334 H325 0.929 1_545 S
C334 C326 1.378 . S
C334 C329 1.350 1_655 S
C335 H322 0.929 . S
C335 C327 1.433 . S
C335 N337 1.398 . S
N336 C332 1.435 1_655 S
N336 C333 1.398 . S
N337 C329 1.435 . S
N337 C335 1.398 . S
H338 C344 0.930 . S
H339 C348 0.930 1_655 S
H340 C353 0.929 1_655 S
H341 C351 0.929 . S
H342 C346 0.929 1_655 S
H343 C352 0.929 . S
C344 H338 0.930 . S
C344 C345 1.367 . S
C344 C352 1.378 . S
C345 C344 1.367 . S
C345 C353 1.433 . S
C346 H342 0.929 1_455 S
C346 C348 1.378 . S
C346 C350 1.350 . S
C347 C350 1.463 1_556 S
C347 C352 1.350 . S
C347 N355 1.427 . S
C348 H339 0.930 1_455 S
C348 C346 1.378 . S
C348 C349 1.367 . S
C349 C348 1.367 . S
C349 C351 1.433 . S
C350 C346 1.350 . S
C350 C347 1.463 1_554 S
C350 N354 1.427 . S
C351 H341 0.929 . S
C351 C349 1.433 . S
C351 N354 1.384 . S
C352 H343 0.929 . S
C352 C344 1.378 . S
C352 C347 1.350 . S
C353 H340 0.929 1_455 S
C353 C345 1.433 . S
C353 N355 1.384 . S
N354 C350 1.427 . S
N354 C351 1.384 . S
N355 C347 1.427 . S
N355 C353 1.384 . S
H356 C362 0.930 . S
H357 C366 0.930 . S
H358 C371 0.929 . S
H359 C369 0.929 . S
H360 C364 0.929 . S
H361 C370 0.929 . S
C362 H356 0.930 . S
C362 C363 1.367 . S
C362 C370 1.378 . S
C363 C362 1.367 . S
C363 C371 1.433 . S
C364 H360 0.929 . S
C364 C366 1.378 . S
C364 C368 1.350 . S
C365 C368 1.463 . S
C365 C370 1.350 . S
C365 N373 1.427 . S
C366 H357 0.930 . S
C366 C364 1.378 . S
C366 C367 1.367 . S
C367 C366 1.367 . S
C367 C369 1.433 . S
C368 C364 1.350 . S
C368 C365 1.463 . S
C368 N372 1.427 . S
C369 H359 0.929 . S
C369 C367 1.433 . S
C369 N372 1.384 . S
C370 H361 0.929 . S
C370 C362 1.378 . S
C370 C365 1.350 . S
C371 H358 0.929 . S
C371 C363 1.433 . S
C371 N373 1.384 . S
N372 C368 1.427 . S
N372 C369 1.384 . S
N373 C365 1.427 . S
N373 C371 1.384 . S
H374 C380 0.930 . S
H375 C384 0.930 . S
H376 C389 0.929 . S
H377 C387 0.929 . S
H378 C382 0.929 . S
H379 C388 0.929 . S
C380 H374 0.930 . S
C380 C381 1.367 . S
C380 C388 1.378 . S
C381 C380 1.367 . S
C381 C389 1.433 . S
C382 H378 0.929 . S
C382 C384 1.378 . S
C382 C386 1.350 . S
C383 C386 1.463 1_565 S
C383 C388 1.350 . S
C383 N391 1.427 . S
C384 H375 0.930 . S
C384 C382 1.378 . S
C384 C385 1.367 . S
C385 C384 1.367 . S
C385 C387 1.433 . S
C386 C382 1.350 . S
C386 C383 1.463 1_545 S
C386 N390 1.427 . S
C387 H377 0.929 . S
C387 C385 1.433 . S
C387 N390 1.384 . S
C388 H379 0.929 . S
C388 C380 1.378 . S
C388 C383 1.350 . S
C389 H376 0.929 . S
C389 C381 1.433 . S
C389 N391 1.384 . S
N390 C386 1.427 . S
N390 C387 1.384 . S
N391 C383 1.427 . S
N391 C389 1.384 . S
C111 C16 1.457 . S
C115 C3 1.461 . S
C129 C31 1.457 . S
C133 C42 1.460 . S
C147 C57 1.456 . S
C151 C70 1.459 . S
C165 C83 1.458 . S
C169 C96 1.461 . S
C183 C94 1.678 . S
C187 C5 1.679 . S
C201 C81 1.675 . S
C205 C18 1.676 . S
C219 C29 1.677 . S
C223 C68 1.678 . S
C237 C55 1.676 . S
C241 C44 1.675 . S
C255 C75 1.190 . S
C259 C36 1.189 . S
C273 C62 1.187 . S
C277 C43 1.192 . S
C291 C101 1.188 . S
C295 C4 1.191 . S
C309 C17 1.188 . S
C313 C88 1.193 . S
C327 C10 1.415 . S
C331 C30 1.414 . S
C345 C49 1.416 . S
C349 C23 1.414 . S
C363 C82 1.415 . S
C367 C56 1.416 . S
C381 C69 1.415 . S
C385 C95 1.416 . S
