# Generated by pormake.
# Topology nbo, (4)-cn, num edge types: 1
# Building blocks:
#     Node 0, Type 0, BuildingBlock: MUDLON_clean_sbu_0, # of connection points: 4
#     Node 1, Type 0, BuildingBlock: MUDLON_clean_sbu_0, # of connection points: 4
#     Node 2, Type 0, BuildingBlock: MUDLON_clean_sbu_0, # of connection points: 4
#     Node 3, Type 0, BuildingBlock: MUDLON_clean_sbu_0, # of connection points: 4
#     Node 4, Type 0, BuildingBlock: MUDLON_clean_sbu_0, # of connection points: 4
#     Node 5, Type 0, BuildingBlock: MUDLON_clean_sbu_0, # of connection points: 4
#     Edge 6, Type (0, 0), BuildingBlock: UVAHIK_clean_linker_0, # of connection points: 2
#     Edge 7, Type (0, 0), BuildingBlock: UVAHIK_clean_linker_0, # of connection points: 2
#     Edge 8, Type (0, 0), BuildingBlock: UVAHIK_clean_linker_0, # of connection points: 2
#     Edge 9, Type (0, 0), BuildingBlock: UVAHIK_clean_linker_0, # of connection points: 2
#     Edge 10, Type (0, 0), BuildingBlock: UVAHIK_clean_linker_0, # of connection points: 2
#     Edge 11, Type (0, 0), BuildingBlock: UVAHIK_clean_linker_0, # of connection points: 2
#     Edge 12, Type (0, 0), BuildingBlock: UVAHIK_clean_linker_0, # of connection points: 2
#     Edge 13, Type (0, 0), BuildingBlock: UVAHIK_clean_linker_0, # of connection points: 2
#     Edge 14, Type (0, 0), BuildingBlock: UVAHIK_clean_linker_0, # of connection points: 2
#     Edge 15, Type (0, 0), BuildingBlock: UVAHIK_clean_linker_0, # of connection points: 2
#     Edge 16, Type (0, 0), BuildingBlock: UVAHIK_clean_linker_0, # of connection points: 2
#     Edge 17, Type (0, 0), BuildingBlock: UVAHIK_clean_linker_0, # of connection points: 2
# Relax obj value: 0.000
# Max RMSD: 0.009
# Mean RMSD: 0.009
data_MOF--net-nbo--node1-MUDLON_clean_sbu_0--edge1-UVAHIK_clean_linker_0
_symmetry_space_group_name_H-M    P1
_symmetry_Int_Tables_number       1
_symmetry_cell_setting            triclinic
loop_
_symmetry_equiv_pos_as_xyz
'x, y, z'
_cell_length_a     39.562388
_cell_length_b     39.548196
_cell_length_c     39.583926
_cell_angle_alpha  91.209675
_cell_angle_beta   91.048912
_cell_angle_gamma 90.831529
loop_
_atom_site_label
_atom_site_type_symbol
_atom_site_fract_x
_atom_site_fract_y
_atom_site_fract_z
_atom_type_partial_charge
Mg0 Mg 0.05796 0.98776 0.54165 0.0
C1 C 0.0718 0.06215 0.51724 0.0
O2 O 0.0842 0.04489 0.49174 0.0
C3 C 0.06912 0.9128 0.51703 0.0
O4 O 0.08133 0.92925 0.49141 0.0
C5 C 0.98243 0.97563 0.51492 0.0
O6 O 0.99781 0.96263 0.48864 0.0
O7 O 1.00008 0.98806 0.53946 0.0
O8 O 0.0591 0.04615 0.54166 0.0
O9 O 0.11586 0.98684 0.54705 0.0
C10 C 0.13617 0.98513 0.52254 0.0
O11 O 0.12411 0.98531 0.49141 0.0
O12 O 0.05673 0.92948 0.54159 0.0
Mg13 Mg 0.50108 0.07288 0.05784 0.0
C14 C 0.52781 0.14803 0.06921 0.0
O15 O 0.55627 0.13232 0.07516 0.0
C16 C 0.52346 0.99608 0.06181 0.0
O17 O 0.55275 0.01024 0.0702 0.0
C18 C 0.53405 0.07768 0.9873 0.0
O19 O 0.56073 0.08001 0.00753 0.0
O20 O 0.50501 0.07435 1.00019 0.0
O21 O 0.50151 0.13075 0.06086 0.0
O22 O 0.49799 0.072 0.11547 0.0
C23 C 0.5251 0.07108 0.13319 0.0
O24 O 0.55421 0.06983 0.11781 0.0
O25 O 0.49845 0.01484 0.05517 0.0
Mg26 Mg 0.97724 0.5332 0.97677 0.0
C27 C 0.05509 0.51293 0.97301 0.0
O28 O 0.04241 0.48238 0.96749 0.0
C29 C 0.90156 0.50661 0.96523 0.0
O30 O 0.91669 0.47858 0.95622 0.0
C31 C 0.97817 0.50458 0.90294 0.0
O32 O 0.9808 0.47671 0.92022 0.0
O33 O 0.97698 0.53278 0.9189 0.0
O34 O 0.03515 0.53743 0.97791 0.0
O35 O 0.97675 0.53263 0.03469 0.0
C36 C 0.97302 0.50442 0.04914 0.0
O37 O 0.97021 0.47672 0.03032 0.0
O38 O 0.91935 0.53204 0.97528 0.0
Mg39 Mg 0.48409 0.55982 0.02206 0.0
C40 C 0.49538 0.63352 0.01762 0.0
O41 O 0.49584 0.62253 0.98609 0.0
C42 C 0.50857 0.50883 0.07162 0.0
O43 O 0.5372 0.52475 0.06582 0.0
C44 C 0.41393 0.5765 0.99865 0.0
O45 O 0.42174 0.60309 0.0178 0.0
O46 O 0.43636 0.55428 0.99361 0.0
O47 O 0.49066 0.61208 0.04068 0.0
O48 O 0.53025 0.54564 0.99653 0.0
C49 C 0.54238 0.55207 0.96782 0.0
O50 O 0.52485 0.56974 0.94612 0.0
O51 O 0.48123 0.52098 0.06 0.0
Mg52 Mg 0.01446 0.4888 0.47848 0.0
C53 C 0.05529 0.54859 0.5076 0.0
O54 O 0.04791 0.53416 0.53619 0.0
C55 C 0.05361 0.42656 0.50373 0.0
O56 O 0.05933 0.44541 0.53103 0.0
C57 C 0.98443 0.46841 0.40975 0.0
O58 O 0.99511 0.43871 0.41921 0.0
O59 O 0.98682 0.49333 0.43058 0.0
O60 O 0.04764 0.53324 0.47987 0.0
O61 O 0.98469 0.49433 0.52394 0.0
C62 C 0.97598 0.4692 0.5415 0.0
O63 O 0.98066 0.43847 0.52941 0.0
O64 O 0.03806 0.43914 0.47865 0.0
Mg65 Mg 0.55551 0.01738 0.56199 0.0
C66 C 0.61927 0.98537 0.53381 0.0
O67 O 0.60158 0.98614 0.50546 0.0
C68 C 0.49237 0.98293 0.58833 0.0
O69 O 0.50074 1.0008 0.61563 0.0
C70 C 0.53435 0.02428 0.49088 0.0
O71 O 0.52618 0.99298 0.4981 0.0
O72 O 0.54791 0.04309 0.51404 0.0
O73 O 0.60558 0.9948 0.56121 0.0
O74 O 0.55229 0.04901 0.60767 0.0
C75 C 0.57764 0.05252 0.62774 0.0
O76 O 0.60699 0.04084 0.61831 0.0
O77 O 0.51271 0.98211 0.56381 0.0
C78 C 0.05319 0.11876 0.53988 0.0
C79 C 0.07251 0.09972 0.51713 0.0
C80 C 0.05325 0.15418 0.5388 0.0
C81 C 0.07459 0.22526 0.48198 0.0
H82 H 0.06553 0.27962 0.5638 0.0
C83 C 0.04731 0.36821 0.47801 0.0
C84 C 0.06056 0.38972 0.50388 0.0
C85 C 0.05087 0.33314 0.47963 0.0
C86 C 0.06854 0.26493 0.54069 0.0
H87 H 0.10783 0.10309 0.47604 0.0
H88 H 0.10881 0.16451 0.47484 0.0
H89 H 0.06839 0.21839 0.56732 0.0
H90 H 0.08897 0.39112 0.55125 0.0
H91 H 0.09617 0.33004 0.55357 0.0
H92 H 0.07589 0.27176 0.45544 0.0
C93 C 0.09274 0.15227 0.4929 0.0
C94 C 0.06963 0.22963 0.54267 0.0
C95 C 0.09236 0.11693 0.49373 0.0
C96 C 0.07835 0.37531 0.53093 0.0
C97 C 0.08219 0.34019 0.53241 0.0
C98 C 0.07382 0.26052 0.48003 0.0
C99 C 0.07294 0.17147 0.51518 0.0
C100 C 0.07246 0.20923 0.51331 0.0
C101 C 0.0681 0.31853 0.507 0.0
C102 C 0.0705 0.28092 0.50932 0.0
H103 H 0.0375 0.10629 0.55814 0.0
H104 H 0.03728 0.16792 0.55607 0.0
H105 H 0.07632 0.21057 0.4587 0.0
H106 H 0.03322 0.37835 0.4569 0.0
H107 H 0.03916 0.31746 0.45982 0.0
C108 C 0.92866 0.98547 0.54614 0.0
C109 C 0.94497 0.97485 0.51656 0.0
C110 C 0.8934 0.98408 0.54802 0.0
C111 C 0.81574 0.98181 0.49518 0.0
H112 H 0.77352 0.94977 0.5764 0.0
C113 C 0.6709 0.96705 0.50293 0.0
C114 C 0.65593 0.97802 0.53309 0.0
C115 C 0.70597 0.96363 0.50112 0.0
C116 C 0.78487 0.9591 0.55365 0.0
H117 H 0.93684 0.95459 0.46566 0.0
H118 H 0.87528 0.95231 0.46892 0.0
H119 H 0.83502 0.95057 0.57266 0.0
H120 H 0.66611 0.993 0.58536 0.0
H121 H 0.72722 0.98756 0.5821 0.0
H122 H 0.76578 0.99098 0.47635 0.0
C123 C 0.88983 0.96183 0.49063 0.0
C124 C 0.82014 0.95953 0.55151 0.0
C125 C 0.92513 0.96302 0.48881 0.0
C126 C 0.67677 0.98437 0.56175 0.0
C127 C 0.71188 0.98113 0.55989 0.0
C128 C 0.78049 0.98155 0.49738 0.0
C129 C 0.87355 0.97224 0.5203 0.0
C130 C 0.83601 0.97103 0.5223 0.0
C131 C 0.727 0.97127 0.52939 0.0
C132 C 0.76456 0.97031 0.52669 0.0
H133 H 0.94313 0.99474 0.568 0.0
H134 H 0.88165 0.9927 0.57109 0.0
H135 H 0.82716 0.99125 0.4725 0.0
H136 H 0.6556 0.96172 0.48042 0.0
H137 H 0.71662 0.95529 0.47741 0.0
C138 C 0.05994 0.6042 0.47875 0.0
C139 C 0.06546 0.58485 0.50765 0.0
C140 C 0.06413 0.63938 0.48019 0.0
C141 C 0.06756 0.71148 0.54256 0.0
H142 H 0.09002 0.76197 0.46305 0.0
C143 C 0.04894 0.8563 0.53728 0.0
C144 C 0.07084 0.87542 0.51742 0.0
C145 C 0.05033 0.82091 0.53673 0.0
C146 C 0.0842 0.74847 0.48577 0.0
H147 H 0.08174 0.58711 0.56022 0.0
H148 H 0.09075 0.64824 0.56237 0.0
H149 H 0.09225 0.70083 0.46103 0.0
H150 H 0.11215 0.87255 0.48233 0.0
H151 H 0.11574 0.81131 0.48252 0.0
H152 H 0.06106 0.75922 0.56777 0.0
C153 C 0.08184 0.63649 0.53885 0.0
C154 C 0.08492 0.71312 0.48441 0.0
C155 C 0.07707 0.60132 0.53755 0.0
C156 C 0.0946 0.85849 0.49758 0.0
C157 C 0.09648 0.82323 0.49753 0.0
C158 C 0.06742 0.74688 0.54411 0.0
C159 C 0.07455 0.65618 0.51043 0.0
C160 C 0.07617 0.69401 0.51263 0.0
C161 C 0.07413 0.80379 0.5168 0.0
C162 C 0.07537 0.76595 0.51562 0.0
H163 H 0.05067 0.59241 0.45536 0.0
H164 H 0.05773 0.65341 0.45785 0.0
H165 H 0.06016 0.6979 0.56476 0.0
H166 H 0.03023 0.86866 0.5527 0.0
H167 H 0.03225 0.80702 0.55148 0.0
C168 C 0.43342 0.97473 0.60908 0.0
C169 C 0.45688 0.9711 0.58304 0.0
C170 C 0.3988 0.97011 0.60244 0.0
C171 C 0.33821 0.97847 0.53232 0.0
H172 H 0.27408 0.93991 0.59416 0.0
C173 C 0.19481 0.97449 0.50224 0.0
C174 C 0.17291 0.98125 0.52904 0.0
C175 C 0.22933 0.9699 0.5084 0.0
C176 C 0.29164 0.95108 0.57677 0.0
H177 H 0.46246 0.95732 0.53008 0.0
H178 H 0.40209 0.94908 0.51861 0.0
H179 H 0.33465 0.93546 0.60592 0.0
H180 H 0.17024 0.9887 0.58337 0.0
H181 H 0.23053 0.98151 0.59403 0.0
H182 H 0.29546 0.99496 0.50364 0.0
C183 C 0.41048 0.95604 0.54406 0.0
C184 C 0.32635 0.94838 0.58346 0.0
C185 C 0.44511 0.96049 0.55072 0.0
C186 C 0.18638 0.98344 0.56214 0.0
C187 C 0.22095 0.97903 0.56829 0.0
C188 C 0.30357 0.98133 0.52573 0.0
C189 C 0.38687 0.96186 0.56958 0.0
C190 C 0.35003 0.96225 0.56142 0.0
C191 C 0.24288 0.97214 0.5415 0.0
C192 C 0.2798 0.96792 0.54799 0.0
H193 H 0.44161 0.98278 0.63428 0.0
H194 H 0.3813 0.97489 0.62265 0.0
H195 H 0.35576 0.99001 0.51516 0.0
H196 H 0.18525 0.97237 0.47646 0.0
H197 H 0.24534 0.96417 0.48719 0.0
C198 C 0.54131 0.0676 0.44544 0.0
C199 C 0.5296 0.03577 0.45572 0.0
C200 C 0.53822 0.07681 0.41148 0.0
C201 C 0.49337 0.05242 0.33057 0.0
H202 H 0.57052 0.0948 0.28879 0.0
C203 C 0.49379 0.07817 0.18745 0.0
C204 C 0.52406 0.07172 0.1706 0.0
C205 C 0.49299 0.07867 0.22279 0.0
C206 C 0.5488 0.0828 0.30002 0.0
H207 H 0.50484 0.989 0.43844 0.0
H208 H 0.50007 1.00466 0.37987 0.0
H209 H 0.57113 0.0867 0.34967 0.0
H210 H 0.57727 0.06085 0.17769 0.0
H211 H 0.5757 0.0607 0.23907 0.0
H212 H 0.47176 0.04679 0.28089 0.0
C213 C 0.51111 0.02288 0.39782 0.0
C214 C 0.54895 0.07862 0.33505 0.0
C215 C 0.51415 0.01375 0.43153 0.0
C216 C 0.55353 0.066 0.18986 0.0
C217 C 0.55269 0.06622 0.22515 0.0
C218 C 0.49332 0.05638 0.29559 0.0
C219 C 0.52327 0.05439 0.38721 0.0
C220 C 0.52153 0.0627 0.35068 0.0
C221 C 0.52239 0.07246 0.24213 0.0
C222 C 0.52129 0.07104 0.27973 0.0
H223 H 0.5533 0.08515 0.46347 0.0
H224 H 0.5476 0.10142 0.40421 0.0
H225 H 0.47154 0.0406 0.3418 0.0
H226 H 0.47069 0.08297 0.17337 0.0
H227 H 0.46931 0.08405 0.23494 0.0
C228 C 0.9719 0.53216 0.10695 0.0
C229 C 0.97125 0.50263 0.08651 0.0
C230 C 0.96981 0.53019 0.14216 0.0
C231 C 0.94434 0.4718 0.21008 0.0
H232 H 1.00096 0.53071 0.26736 0.0
C233 C 0.97225 0.44611 0.35096 0.0
C234 C 0.97496 0.47377 0.3738 0.0
C235 C 0.9677 0.45118 0.31632 0.0
C236 C 0.98458 0.51441 0.25177 0.0
H237 H 0.96814 0.44783 0.08721 0.0
H238 H 0.96512 0.44439 0.14834 0.0
H239 H 1.00179 0.53665 0.20621 0.0
H240 H 0.97363 0.52852 0.37814 0.0
H241 H 0.96556 0.53732 0.31765 0.0
H242 H 0.92772 0.4491 0.25567 0.0
C243 C 0.96657 0.46915 0.13725 0.0
C244 C 0.98506 0.51781 0.21665 0.0
C245 C 0.96857 0.47112 0.10211 0.0
C246 C 0.97167 0.50662 0.36129 0.0
C247 C 0.96733 0.5117 0.32657 0.0
C248 C 0.94397 0.46833 0.24517 0.0
C249 C 0.96708 0.49864 0.15778 0.0
C250 C 0.96524 0.49628 0.19529 0.0
C251 C 0.9659 0.48405 0.30361 0.0
C252 C 0.96435 0.48935 0.26645 0.0
H253 H 0.97382 0.55686 0.09576 0.0
H254 H 0.96992 0.55345 0.15709 0.0
H255 H 0.92821 0.45523 0.19451 0.0
H256 H 0.97467 0.42047 0.35969 0.0
H257 H 0.96698 0.42932 0.29936 0.0
C258 C 0.60115 0.06796 0.68529 0.0
C259 C 0.57301 0.0638 0.66334 0.0
C260 C 0.59685 0.07355 0.71993 0.0
C261 C 0.5339 0.09615 0.78529 0.0
H262 H 0.59322 0.04472 0.84318 0.0
C263 C 0.50971 0.07696 0.92806 0.0
C264 C 0.53802 0.07865 0.9501 0.0
C265 C 0.51376 0.07745 0.89298 0.0
C266 C 0.57669 0.05959 0.82746 0.0
H267 H 0.51819 0.06387 0.66047 0.0
H268 H 0.51069 0.07317 0.72093 0.0
H269 H 0.60085 0.04289 0.78238 0.0
H270 H 0.59277 0.08262 0.95241 0.0
H271 H 0.59976 0.08356 0.89146 0.0
H272 H 0.50944 0.11238 0.83062 0.0
C273 C 0.53614 0.07246 0.71136 0.0
C274 C 0.58112 0.05863 0.79252 0.0
C275 C 0.54045 0.06704 0.67663 0.0
C276 C 0.5704 0.08111 0.93623 0.0
C277 C 0.57444 0.08149 0.90123 0.0
C278 C 0.5294 0.09704 0.82033 0.0
C279 C 0.5643 0.07492 0.73358 0.0
C280 C 0.55984 0.07692 0.77092 0.0
C281 C 0.54621 0.07948 0.87914 0.0
C282 C 0.55079 0.07878 0.84184 0.0
H283 H 0.62659 0.06591 0.67589 0.0
H284 H 0.61913 0.07615 0.73614 0.0
H285 H 0.51724 0.11082 0.76949 0.0
H286 H 0.48439 0.07506 0.93788 0.0
H287 H 0.49149 0.07553 0.87669 0.0
C288 C 0.96331 0.44681 0.59876 0.0
C289 C 0.96697 0.47454 0.57742 0.0
C290 C 0.95997 0.45179 0.63362 0.0
C291 C 0.9811 0.51484 0.70108 0.0
H292 H 0.92762 0.45526 0.75619 0.0
C293 C 0.97297 0.5324 0.84656 0.0
C294 C 0.97518 0.50282 0.86554 0.0
C295 C 0.96945 0.53044 0.8113 0.0
C296 C 0.94286 0.47198 0.74116 0.0
H297 H 0.96807 0.52936 0.57587 0.0
H298 H 0.96159 0.53802 0.63655 0.0
H299 H 0.92404 0.44945 0.69475 0.0
H300 H 0.97551 0.44799 0.86224 0.0
H301 H 0.96959 0.44462 0.80093 0.0
H302 H 1.00015 0.53714 0.74752 0.0
C303 C 0.96206 0.51238 0.62643 0.0
C304 C 0.9408 0.46866 0.70593 0.0
C305 C 0.96547 0.5074 0.59156 0.0
C306 C 0.97384 0.47129 0.84845 0.0
C307 C 0.97018 0.46933 0.81328 0.0
C308 C 0.98308 0.51822 0.73631 0.0
C309 C 0.96009 0.48463 0.648 0.0
C310 C 0.9602 0.48977 0.68542 0.0
C311 C 0.96787 0.49886 0.79427 0.0
C312 C 0.96432 0.49655 0.75678 0.0
H313 H 0.96443 0.42115 0.58877 0.0
H314 H 0.95882 0.4298 0.64942 0.0
H315 H 0.99685 0.53118 0.68616 0.0
H316 H 0.97383 0.5571 0.85893 0.0
H317 H 0.96749 0.55365 0.79742 0.0
C318 C 0.10566 0.5518 0.9787 0.0
C319 C 0.09223 0.51901 0.97308 0.0
C320 C 0.14059 0.55769 0.97879 0.0
C321 C 0.2216 0.52144 0.9509 0.0
H322 H 0.25989 0.58303 0.0193 0.0
C323 C 0.3663 0.538 0.97805 0.0
C324 C 0.37821 0.57049 0.98785 0.0
C325 C 0.33158 0.53165 0.97307 0.0
C326 C 0.24963 0.56614 0.99968 0.0
H327 H 0.10516 0.4667 0.96293 0.0
H328 H 0.1662 0.47698 0.96343 0.0
H329 H 0.19933 0.57184 0.01756 0.0
H330 H 0.36323 0.62224 0.99777 0.0
H331 H 0.3031 0.6114 0.98834 0.0
H332 H 0.27216 0.51571 0.93317 0.0
C333 C 0.14963 0.49819 0.9674 0.0
C334 C 0.21482 0.55967 0.99873 0.0
C335 C 0.11462 0.49228 0.96735 0.0
C336 C 0.35489 0.59682 0.99065 0.0
C337 C 0.32034 0.59055 0.98549 0.0
C338 C 0.25654 0.52796 0.95183 0.0
C339 C 0.16306 0.53097 0.97329 0.0
C340 C 0.2003 0.53736 0.97427 0.0
C341 C 0.3081 0.5577 0.97763 0.0
C342 C 0.27097 0.55056 0.97615 0.0
H343 H 0.0892 0.57304 0.98301 0.0
H344 H 0.14999 0.58334 0.9829 0.0
H345 H 0.21121 0.50436 0.93151 0.0
H346 H 0.3836 0.51713 0.97579 0.0
H347 H 0.32306 0.50603 0.96714 0.0
C348 C 0.53994 0.45877 0.09295 0.0
C349 C 0.50915 0.47347 0.08343 0.0
C350 C 0.54199 0.42387 0.09738 0.0
C351 C 0.49104 0.34439 0.10504 0.0
H352 H 0.56786 0.30389 0.06111 0.0
C353 C 0.49527 0.20208 0.06868 0.0
C354 C 0.52607 0.18534 0.07338 0.0
C355 C 0.49352 0.23719 0.0732 0.0
C356 C 0.54649 0.31474 0.07392 0.0
H357 H 0.45584 0.46319 0.07343 0.0
H358 H 0.45947 0.40239 0.08084 0.0
H359 H 0.56409 0.36514 0.06547 0.0
H360 H 0.57918 0.19248 0.08666 0.0
H361 H 0.57608 0.25365 0.0946 0.0
H362 H 0.47318 0.29379 0.11283 0.0
C363 C 0.48206 0.41781 0.08508 0.0
C364 C 0.54435 0.34994 0.07652 0.0
C365 C 0.47998 0.45275 0.08075 0.0
C366 C 0.55507 0.20455 0.08269 0.0
C367 C 0.55333 0.23966 0.08713 0.0
C368 C 0.49316 0.30913 0.10237 0.0
C369 C 0.51332 0.40279 0.09232 0.0
C370 C 0.51649 0.36526 0.09189 0.0
C371 C 0.52253 0.25643 0.08246 0.0
C372 C 0.52079 0.29388 0.08654 0.0
H373 H 0.56286 0.47399 0.09551 0.0
H374 H 0.56631 0.41327 0.10376 0.0
H375 H 0.46944 0.35531 0.11738 0.0
H376 H 0.47243 0.18809 0.0615 0.0
H377 H 0.4695 0.24932 0.06892 0.0
C378 C 0.84453 0.48209 0.94883 0.0
C379 C 0.86424 0.50913 0.96242 0.0
C380 C 0.8094 0.48485 0.94544 0.0
C381 C 0.74095 0.54813 0.9427 0.0
H382 H 0.6836 0.47204 0.96568 0.0
C383 C 0.59501 0.55484 0.93302 0.0
C384 C 0.57775 0.54237 0.96098 0.0
C385 C 0.62947 0.54832 0.92899 0.0
C386 C 0.69924 0.49356 0.95919 0.0
H387 H 0.86237 0.56022 0.98331 0.0
H388 H 0.80122 0.56479 0.97795 0.0
H389 H 0.74482 0.46638 0.96802 0.0
H390 H 0.5829 0.51205 1.00585 0.0
H391 H 0.64255 0.5011 0.99903 0.0
H392 H 0.69539 0.57573 0.9352 0.0
C393 C 0.81291 0.54165 0.96931 0.0
C394 C 0.73438 0.4902 0.9602 0.0
C395 C 0.848 0.53892 0.97265 0.0
C396 C 0.59536 0.52219 0.98404 0.0
C397 C 0.62963 0.51566 0.97999 0.0
C398 C 0.7058 0.55151 0.94173 0.0
C399 C 0.79315 0.51469 0.95558 0.0
C400 C 0.75571 0.5176 0.95246 0.0
C401 C 0.6473 0.52907 0.95275 0.0
C402 C 0.68451 0.52442 0.95048 0.0
H403 H 0.85623 0.45884 0.94054 0.0
H404 H 0.79504 0.46371 0.93445 0.0
H405 H 0.75659 0.5696 0.93606 0.0
H406 H 0.5822 0.57041 0.91476 0.0
H407 H 0.64223 0.55868 0.90747 0.0
C408 C 0.49523 0.68372 0.05813 0.0
C409 C 0.49888 0.67033 0.02522 0.0
C410 C 0.49737 0.71878 0.06432 0.0
C411 C 0.489 0.79998 0.02009 0.0
H412 H 0.53745 0.8387 0.09798 0.0
C413 C 0.48855 0.9434 0.05017 0.0
C414 C 0.51959 0.95866 0.06011 0.0
C415 C 0.48502 0.90816 0.04809 0.0
C416 C 0.52394 0.82827 0.07602 0.0
H417 H 0.50853 0.68333 0.97322 0.0
H418 H 0.51255 0.74386 0.98403 0.0
H419 H 0.53378 0.77722 0.09018 0.0
H420 H 0.57115 0.94866 0.07612 0.0
H421 H 0.56507 0.88722 0.07216 0.0
H422 H 0.47981 0.85079 1.00539 0.0
C423 C 0.50739 0.72752 1.005 0.0
C424 C 0.52153 0.79304 0.07176 0.0
C425 C 0.50528 0.69268 0.99885 0.0
C426 C 0.54689 0.93778 0.06833 0.0
C427 C 0.54334 0.90252 0.06631 0.0
C428 C 0.49133 0.8351 0.02438 0.0
C429 C 0.50311 0.74111 0.03769 0.0
C430 C 0.50434 0.77848 0.04351 0.0
C431 C 0.51242 0.88725 0.05593 0.0
C432 C 0.50904 0.84975 0.05225 0.0
H433 H 0.49027 0.6672 0.079 0.0
H434 H 0.4938 0.72844 0.08978 0.0
H435 H 0.47516 0.78966 0.99828 0.0
H436 H 0.46693 0.95867 0.04382 0.0
H437 H 0.46072 0.89729 0.04045 0.0
loop_
_geom_bond_atom_site_label_1
_geom_bond_atom_site_label_2
_geom_bond_distance
_geom_bond_site_symmetry_2
_ccdc_geom_bond_type
Mg0 O7 2.141 1_455 S
Mg0 O8 2.048 . S
Mg0 O9 2.048 . S
Mg0 O12 2.141 1_545 S
C1 O2 1.313 . S
C1 O8 1.195 . S
O2 C1 1.313 . S
C3 O4 1.245 . S
C3 O12 1.289 . S
O4 C3 1.245 . S
C5 O6 1.245 . S
C5 O7 1.289 . S
O6 C5 1.245 . S
O7 Mg0 2.141 1_655 S
O7 C5 1.289 . S
O8 Mg0 2.048 . S
O8 C1 1.195 . S
O9 Mg0 2.048 . S
O9 C10 1.195 . S
C10 O9 1.195 . S
C10 O11 1.313 . S
O11 C10 1.313 . S
O12 Mg0 2.141 1_565 S
O12 C3 1.289 . S
Mg13 O20 2.141 1_554 S
Mg13 O21 2.048 . S
Mg13 O22 2.048 . S
Mg13 O25 2.141 1_545 S
C14 O15 1.313 . S
C14 O21 1.195 . S
O15 C14 1.313 . S
C16 O17 1.245 . S
C16 O25 1.289 . S
O17 C16 1.245 . S
C18 O19 1.245 . S
C18 O20 1.289 . S
O19 C18 1.245 . S
O20 Mg13 2.141 1_556 S
O20 C18 1.289 . S
O21 Mg13 2.048 . S
O21 C14 1.195 . S
O22 Mg13 2.048 . S
O22 C23 1.195 . S
C23 O22 1.195 . S
C23 O24 1.313 . S
O24 C23 1.313 . S
O25 Mg13 2.141 1_565 S
O25 C16 1.289 . S
Mg26 O33 2.141 1_554 S
Mg26 O34 2.048 . S
Mg26 O35 2.048 . S
Mg26 O38 2.141 1_455 S
C27 O28 1.313 . S
C27 O34 1.195 . S
O28 C27 1.313 . S
C29 O30 1.245 . S
C29 O38 1.289 . S
O30 C29 1.245 . S
C31 O32 1.245 . S
C31 O33 1.289 . S
O32 C31 1.245 . S
O33 Mg26 2.141 1_556 S
O33 C31 1.289 . S
O34 Mg26 2.048 . S
O34 C27 1.195 . S
O35 Mg26 2.048 . S
O35 C36 1.195 . S
C36 O35 1.195 . S
C36 O37 1.313 . S
O37 C36 1.313 . S
O38 Mg26 2.141 1_655 S
O38 C29 1.289 . S
Mg39 O46 2.141 . S
Mg39 O47 2.048 . S
Mg39 O48 2.048 . S
Mg39 O51 2.141 . S
C40 O41 1.313 1_554 S
C40 O47 1.195 . S
O41 C40 1.313 1_556 S
C42 O43 1.245 1_554 S
C42 O51 1.289 . S
O43 C42 1.245 1_556 S
C44 O45 1.245 1_554 S
C44 O46 1.289 . S
O45 C44 1.245 1_556 S
O46 Mg39 2.141 . S
O46 C44 1.289 . S
O47 Mg39 2.048 . S
O47 C40 1.195 . S
O48 Mg39 2.048 . S
O48 C49 1.195 . S
C49 O48 1.195 . S
C49 O50 1.313 1_554 S
O50 C49 1.313 1_556 S
O51 Mg39 2.141 . S
O51 C42 1.289 . S
Mg52 O59 2.141 1_455 S
Mg52 O60 2.048 . S
Mg52 O61 2.048 . S
Mg52 O64 2.141 1_455 S
C53 O54 1.313 . S
C53 O60 1.195 . S
O54 C53 1.313 . S
C55 O56 1.245 . S
C55 O64 1.281 1_455 S
O56 C55 1.245 . S
C57 O58 1.245 . S
C57 O59 1.281 1_455 S
O58 C57 1.245 . S
O59 Mg52 2.141 1_655 S
O59 C57 1.281 1_655 S
O60 Mg52 2.048 . S
O60 C53 1.195 . S
O61 Mg52 2.048 . S
O61 C62 1.195 . S
C62 O61 1.195 . S
C62 O63 1.313 . S
O63 C62 1.313 . S
O64 Mg52 2.141 1_655 S
O64 C55 1.281 1_655 S
Mg65 O72 2.141 . S
Mg65 O73 2.048 . S
Mg65 O74 2.048 . S
Mg65 O77 2.141 . S
C66 O67 1.313 1_545 S
C66 O73 1.195 . S
O67 C66 1.313 1_565 S
C68 O69 1.245 1_545 S
C68 O77 1.289 . S
O69 C68 1.245 1_565 S
C70 O71 1.245 1_545 S
C70 O72 1.289 . S
O71 C70 1.245 1_565 S
O72 Mg65 2.141 . S
O72 C70 1.289 . S
O73 Mg65 2.048 . S
O73 C66 1.195 . S
O74 Mg65 2.048 . S
O74 C75 1.195 . S
C75 O74 1.195 . S
C75 O76 1.313 1_545 S
O76 C75 1.313 1_565 S
O77 Mg65 2.141 . S
O77 C68 1.289 . S
C78 C79 1.349 . S
C78 C80 1.327 . S
C78 H103 0.950 . S
C79 C78 1.349 . S
C79 C95 1.349 1_455 S
C80 C78 1.327 . S
C80 C99 1.429 . S
C80 H104 0.950 . S
C81 C98 1.574 . S
C81 C100 1.368 1_655 S
C81 H105 0.949 . S
H82 C86 0.949 . S
C83 C84 1.367 . S
C83 C85 1.327 1_455 S
C83 H106 0.933 1_455 S
C84 C83 1.367 . S
C84 C96 1.349 . S
C85 C83 1.327 1_655 S
C85 C101 1.426 1_655 S
C85 H107 0.952 . S
C86 H82 0.949 . S
C86 C94 1.574 . S
C86 C102 1.368 . S
H87 C95 0.950 . S
H88 C93 0.950 . S
H89 C94 0.949 . S
H90 C96 0.950 . S
H91 C97 0.950 . S
H92 C98 0.949 . S
C93 H88 0.950 . S
C93 C95 1.327 . S
C93 C99 1.429 1_655 S
C94 C86 1.574 . S
C94 H89 0.949 . S
C94 C100 1.368 . S
C95 C79 1.349 1_655 S
C95 H87 0.950 . S
C95 C93 1.327 . S
C96 C84 1.349 . S
C96 H90 0.950 . S
C96 C97 1.327 . S
C97 H91 0.950 . S
C97 C96 1.327 . S
C97 C101 1.429 . S
C98 C81 1.574 . S
C98 H92 0.949 . S
C98 C102 1.368 1_655 S
C99 C80 1.429 . S
C99 C93 1.429 1_455 S
C99 C100 1.523 . S
C100 C81 1.368 1_455 S
C100 C94 1.368 . S
C100 C99 1.523 . S
C101 C85 1.426 1_455 S
C101 C97 1.429 . S
C101 C102 1.523 . S
C102 C86 1.368 . S
C102 C98 1.368 1_455 S
C102 C101 1.523 . S
H103 C78 0.950 . S
H104 C80 0.950 . S
H105 C81 0.949 . S
H106 C83 0.933 1_655 S
H107 C85 0.952 . S
C108 C109 1.349 . S
C108 C110 1.327 . S
C108 H133 0.950 . S
C109 C108 1.349 . S
C109 C125 1.356 . S
C110 C108 1.327 . S
C110 C129 1.429 . S
C110 H134 0.950 . S
C111 C128 1.574 . S
C111 C130 1.368 . S
C111 H135 0.949 1_545 S
H112 C116 0.949 . S
C113 C114 1.349 . S
C113 C115 1.327 . S
C113 H136 0.950 1_545 S
C114 C113 1.349 . S
C114 C126 1.349 . S
C115 C113 1.327 . S
C115 C131 1.429 . S
C115 H137 0.950 1_545 S
C116 H112 0.949 . S
C116 C124 1.574 . S
C116 C132 1.368 . S
H117 C125 0.942 1_565 S
H118 C123 0.950 1_565 S
H119 C124 0.949 . S
H120 C126 0.950 . S
H121 C127 0.950 . S
H122 C128 0.949 1_565 S
C123 H118 0.950 1_545 S
C123 C125 1.328 . S
C123 C129 1.429 . S
C124 C116 1.574 . S
C124 H119 0.949 . S
C124 C130 1.368 . S
C125 C109 1.356 . S
C125 H117 0.942 1_545 S
C125 C123 1.328 . S
C126 C114 1.349 . S
C126 H120 0.950 . S
C126 C127 1.327 . S
C127 H121 0.950 . S
C127 C126 1.327 . S
C127 C131 1.429 . S
C128 C111 1.574 . S
C128 H122 0.949 1_545 S
C128 C132 1.368 . S
C129 C110 1.429 . S
C129 C123 1.429 . S
C129 C130 1.523 . S
C130 C111 1.368 . S
C130 C124 1.368 . S
C130 C129 1.523 . S
C131 C115 1.429 . S
C131 C127 1.429 . S
C131 C132 1.523 . S
C132 C116 1.368 . S
C132 C128 1.368 . S
C132 C131 1.523 . S
H133 C108 0.950 . S
H134 C110 0.950 . S
H135 C111 0.949 1_565 S
H136 C113 0.950 1_565 S
H137 C115 0.950 1_565 S
C138 C139 1.349 . S
C138 C140 1.328 . S
C138 H163 0.950 1_455 S
C139 C138 1.349 . S
C139 C155 1.349 . S
C140 C138 1.328 . S
C140 C159 1.436 . S
C140 H164 0.941 1_455 S
C141 C158 1.574 . S
C141 C160 1.368 . S
C141 H165 0.949 . S
H142 C146 0.949 . S
C143 C144 1.349 . S
C143 C145 1.327 . S
C143 H166 0.950 . S
C144 C143 1.349 . S
C144 C156 1.349 1_455 S
C145 C143 1.327 . S
C145 C161 1.429 . S
C145 H167 0.950 . S
C146 H142 0.949 . S
C146 C154 1.574 . S
C146 C162 1.368 1_655 S
H147 C155 0.950 . S
H148 C153 0.950 . S
H149 C154 0.949 . S
H150 C156 0.950 . S
H151 C157 0.950 . S
H152 C158 0.949 . S
C153 H148 0.950 . S
C153 C155 1.327 . S
C153 C159 1.429 . S
C154 C146 1.574 . S
C154 H149 0.949 . S
C154 C160 1.368 1_655 S
C155 C139 1.349 . S
C155 H147 0.950 . S
C155 C153 1.327 . S
C156 C144 1.349 1_655 S
C156 H150 0.950 . S
C156 C157 1.327 . S
C157 H151 0.950 . S
C157 C156 1.327 . S
C157 C161 1.429 1_655 S
C158 C141 1.574 . S
C158 H152 0.949 . S
C158 C162 1.368 . S
C159 C140 1.436 . S
C159 C153 1.429 . S
C159 C160 1.523 . S
C160 C141 1.368 . S
C160 C154 1.368 1_455 S
C160 C159 1.523 . S
C161 C145 1.429 . S
C161 C157 1.429 1_455 S
C161 C162 1.523 . S
C162 C146 1.368 1_455 S
C162 C158 1.368 . S
C162 C161 1.523 . S
H163 C138 0.950 1_655 S
H164 C140 0.941 1_655 S
H165 C141 0.949 . S
H166 C143 0.950 . S
H167 C145 0.950 . S
C168 C169 1.349 1_565 S
C168 C170 1.327 . S
C168 H193 0.950 . S
C169 C168 1.349 1_545 S
C169 C185 1.349 . S
C170 C168 1.327 . S
C170 C189 1.429 1_565 S
C170 H194 0.950 . S
C171 C188 1.574 . S
C171 C190 1.368 . S
C171 H195 0.949 . S
H172 C176 0.949 . S
C173 C174 1.349 . S
C173 C175 1.327 . S
C173 H196 0.950 . S
C174 C173 1.349 . S
C174 C186 1.349 1_545 S
C175 C173 1.327 . S
C175 C191 1.429 . S
C175 H197 0.950 . S
C176 H172 0.949 . S
C176 C184 1.574 . S
C176 C192 1.368 1_565 S
H177 C185 0.950 . S
H178 C183 0.950 . S
H179 C184 0.949 . S
H180 C186 0.950 . S
H181 C187 0.950 . S
H182 C188 0.949 . S
C183 H178 0.950 . S
C183 C185 1.327 . S
C183 C189 1.429 . S
C184 C176 1.574 . S
C184 H179 0.949 . S
C184 C190 1.368 1_565 S
C185 C169 1.349 . S
C185 H177 0.950 . S
C185 C183 1.327 . S
C186 C174 1.349 1_565 S
C186 H180 0.950 . S
C186 C187 1.327 . S
C187 H181 0.950 . S
C187 C186 1.327 . S
C187 C191 1.429 1_565 S
C188 C171 1.574 . S
C188 H182 0.949 . S
C188 C192 1.368 . S
C189 C170 1.429 1_545 S
C189 C183 1.429 . S
C189 C190 1.523 . S
C190 C171 1.368 . S
C190 C184 1.368 1_545 S
C190 C189 1.523 . S
C191 C175 1.429 . S
C191 C187 1.429 1_545 S
C191 C192 1.523 . S
C192 C176 1.368 1_545 S
C192 C188 1.368 . S
C192 C191 1.523 . S
H193 C168 0.950 . S
H194 C170 0.950 . S
H195 C171 0.949 . S
H196 C173 0.950 . S
H197 C175 0.950 . S
C198 C199 1.349 . S
C198 C200 1.327 . S
C198 H223 0.950 . S
C199 C198 1.349 . S
C199 C215 1.349 1_545 S
C200 C198 1.327 . S
C200 C219 1.429 . S
C200 H224 0.950 . S
C201 C218 1.574 . S
C201 C220 1.368 1_565 S
C201 H225 0.949 . S
H202 C206 0.949 . S
C203 C204 1.349 1_565 S
C203 C205 1.327 . S
C203 H226 0.950 . S
C204 C203 1.349 1_545 S
C204 C216 1.349 . S
C205 C203 1.327 . S
C205 C221 1.429 1_565 S
C205 H227 0.950 . S
C206 H202 0.949 . S
C206 C214 1.574 . S
C206 C222 1.368 . S
H207 C215 0.950 . S
H208 C213 0.950 . S
H209 C214 0.949 . S
H210 C216 0.950 . S
H211 C217 0.950 . S
H212 C218 0.949 . S
C213 H208 0.950 . S
C213 C215 1.327 . S
C213 C219 1.429 1_565 S
C214 C206 1.574 . S
C214 H209 0.949 . S
C214 C220 1.368 . S
C215 C199 1.349 1_565 S
C215 H207 0.950 . S
C215 C213 1.327 . S
C216 C204 1.349 . S
C216 H210 0.950 . S
C216 C217 1.327 . S
C217 H211 0.950 . S
C217 C216 1.327 . S
C217 C221 1.429 . S
C218 C201 1.574 . S
C218 H212 0.949 . S
C218 C222 1.368 1_565 S
C219 C200 1.429 . S
C219 C213 1.429 1_545 S
C219 C220 1.523 . S
C220 C201 1.368 1_545 S
C220 C214 1.368 . S
C220 C219 1.523 . S
C221 C205 1.429 1_545 S
C221 C217 1.429 . S
C221 C222 1.523 . S
C222 C206 1.368 . S
C222 C218 1.368 1_545 S
C222 C221 1.523 . S
H223 C198 0.950 . S
H224 C200 0.950 . S
H225 C201 0.949 . S
H226 C203 0.950 . S
H227 C205 0.950 . S
C228 C229 1.349 1_655 S
C228 C230 1.327 . S
C228 H253 0.950 . S
C229 C228 1.349 1_455 S
C229 C245 1.349 . S
C230 C228 1.327 . S
C230 C249 1.429 1_655 S
C230 H254 0.950 . S
C231 C248 1.574 . S
C231 C250 1.368 . S
C231 H255 0.949 . S
H232 C236 0.949 . S
C233 C234 1.349 . S
C233 C235 1.327 . S
C233 H256 0.950 . S
C234 C233 1.349 . S
C234 C246 1.349 . S
C235 C233 1.327 . S
C235 C251 1.429 . S
C235 H257 0.950 . S
C236 H232 0.949 . S
C236 C244 1.574 . S
C236 C252 1.368 1_655 S
H237 C245 0.950 . S
H238 C243 0.950 . S
H239 C244 0.949 . S
H240 C246 0.950 1_655 S
H241 C247 0.950 1_655 S
H242 C248 0.949 . S
C243 H238 0.950 . S
C243 C245 1.327 . S
C243 C249 1.429 . S
C244 C236 1.574 . S
C244 H239 0.949 . S
C244 C250 1.368 1_655 S
C245 C229 1.349 . S
C245 H237 0.950 . S
C245 C243 1.327 . S
C246 C234 1.349 . S
C246 H240 0.950 1_455 S
C246 C247 1.327 . S
C247 H241 0.950 1_455 S
C247 C246 1.327 . S
C247 C251 1.429 . S
C248 C231 1.574 . S
C248 H242 0.949 . S
C248 C252 1.368 . S
C249 C230 1.429 1_455 S
C249 C243 1.429 . S
C249 C250 1.523 . S
C250 C231 1.368 . S
C250 C244 1.368 1_455 S
C250 C249 1.523 . S
C251 C235 1.429 . S
C251 C247 1.429 . S
C251 C252 1.523 . S
C252 C236 1.368 1_455 S
C252 C248 1.368 . S
C252 C251 1.523 . S
H253 C228 0.950 . S
H254 C230 0.950 . S
H255 C231 0.949 . S
H256 C233 0.950 . S
H257 C235 0.950 . S
C258 C259 1.349 1_565 S
C258 C260 1.327 . S
C258 H283 0.950 . S
C259 C258 1.349 1_545 S
C259 C275 1.349 . S
C260 C258 1.327 . S
C260 C279 1.429 1_565 S
C260 H284 0.950 . S
C261 C278 1.574 . S
C261 C280 1.368 . S
C261 H285 0.949 . S
H262 C266 0.949 . S
C263 C264 1.349 . S
C263 C265 1.327 . S
C263 H286 0.950 . S
C264 C263 1.349 . S
C264 C276 1.349 1_545 S
C265 C263 1.327 . S
C265 C281 1.429 . S
C265 H287 0.950 . S
C266 H262 0.949 . S
C266 C274 1.574 . S
C266 C282 1.368 1_565 S
H267 C275 0.950 . S
H268 C273 0.950 . S
H269 C274 0.949 . S
H270 C276 0.950 . S
H271 C277 0.950 . S
H272 C278 0.949 . S
C273 H268 0.950 . S
C273 C275 1.327 . S
C273 C279 1.429 . S
C274 C266 1.574 . S
C274 H269 0.949 . S
C274 C280 1.368 1_565 S
C275 C259 1.349 . S
C275 H267 0.950 . S
C275 C273 1.327 . S
C276 C264 1.349 1_565 S
C276 H270 0.950 . S
C276 C277 1.327 . S
C277 H271 0.950 . S
C277 C276 1.327 . S
C277 C281 1.429 1_565 S
C278 C261 1.574 . S
C278 H272 0.949 . S
C278 C282 1.368 . S
C279 C260 1.429 1_545 S
C279 C273 1.429 . S
C279 C280 1.523 . S
C280 C261 1.368 . S
C280 C274 1.368 1_545 S
C280 C279 1.523 . S
C281 C265 1.429 . S
C281 C277 1.429 1_545 S
C281 C282 1.523 . S
C282 C266 1.368 1_545 S
C282 C278 1.368 . S
C282 C281 1.523 . S
H283 C258 0.950 . S
H284 C260 0.950 . S
H285 C261 0.949 . S
H286 C263 0.950 . S
H287 C265 0.950 . S
C288 C289 1.349 . S
C288 C290 1.327 . S
C288 H313 0.950 . S
C289 C288 1.349 . S
C289 C305 1.349 . S
C290 C288 1.327 . S
C290 C309 1.429 . S
C290 H314 0.950 . S
C291 C308 1.574 . S
C291 C310 1.368 1_655 S
C291 H315 0.949 . S
H292 C296 0.949 . S
C293 C294 1.349 1_655 S
C293 C295 1.327 . S
C293 H316 0.950 . S
C294 C293 1.349 1_455 S
C294 C306 1.349 . S
C295 C293 1.327 . S
C295 C311 1.429 1_655 S
C295 H317 0.950 . S
C296 H292 0.949 . S
C296 C304 1.574 . S
C296 C312 1.368 . S
H297 C305 0.950 1_655 S
H298 C303 0.950 1_655 S
H299 C304 0.949 . S
H300 C306 0.950 . S
H301 C307 0.950 . S
H302 C308 0.949 . S
C303 H298 0.950 1_455 S
C303 C305 1.327 . S
C303 C309 1.429 . S
C304 C296 1.574 . S
C304 H299 0.949 . S
C304 C310 1.368 . S
C305 C289 1.349 . S
C305 H297 0.950 1_455 S
C305 C303 1.327 . S
C306 C294 1.349 . S
C306 H300 0.950 . S
C306 C307 1.327 . S
C307 H301 0.950 . S
C307 C306 1.327 . S
C307 C311 1.429 . S
C308 C291 1.574 . S
C308 H302 0.949 . S
C308 C312 1.368 1_655 S
C309 C290 1.429 . S
C309 C303 1.429 . S
C309 C310 1.523 . S
C310 C291 1.368 1_455 S
C310 C304 1.368 . S
C310 C309 1.523 . S
C311 C295 1.429 1_455 S
C311 C307 1.429 . S
C311 C312 1.523 . S
C312 C296 1.368 . S
C312 C308 1.368 1_455 S
C312 C311 1.523 . S
H313 C288 0.950 . S
H314 C290 0.950 . S
H315 C291 0.949 . S
H316 C293 0.950 . S
H317 C295 0.950 . S
C318 C319 1.349 1_556 S
C318 C320 1.327 . S
C318 H343 0.950 . S
C319 C318 1.349 1_554 S
C319 C335 1.349 . S
C320 C318 1.327 . S
C320 C339 1.429 1_556 S
C320 H344 0.950 . S
C321 C338 1.574 . S
C321 C340 1.368 . S
C321 H345 0.949 . S
H322 C326 0.948 1_556 S
C323 C324 1.349 . S
C323 C325 1.327 . S
C323 H346 0.950 . S
C324 C323 1.349 . S
C324 C336 1.349 . S
C325 C323 1.327 . S
C325 C341 1.429 . S
C325 H347 0.950 . S
C326 H322 0.948 1_554 S
C326 C334 1.574 1_554 S
C326 C342 1.370 . S
H327 C335 0.950 . S
H328 C333 0.950 . S
H329 C334 0.960 . S
H330 C336 0.950 1_556 S
H331 C337 0.950 1_556 S
H332 C338 0.949 . S
C333 H328 0.950 . S
C333 C335 1.327 . S
C333 C339 1.429 . S
C334 C326 1.574 1_556 S
C334 H329 0.960 . S
C334 C340 1.357 1_556 S
C335 C319 1.349 . S
C335 H327 0.950 . S
C335 C333 1.327 . S
C336 C324 1.349 . S
C336 H330 0.950 1_554 S
C336 C337 1.327 . S
C337 H331 0.950 1_554 S
C337 C336 1.327 . S
C337 C341 1.429 . S
C338 C321 1.574 . S
C338 H332 0.949 . S
C338 C342 1.368 . S
C339 C320 1.429 1_554 S
C339 C333 1.429 . S
C339 C340 1.523 . S
C340 C321 1.368 . S
C340 C334 1.357 1_554 S
C340 C339 1.523 . S
C341 C325 1.429 . S
C341 C337 1.429 . S
C341 C342 1.523 . S
C342 C326 1.370 . S
C342 C338 1.368 . S
C342 C341 1.523 . S
H343 C318 0.950 . S
H344 C320 0.950 . S
H345 C321 0.949 . S
H346 C323 0.950 . S
H347 C325 0.950 . S
C348 C349 1.349 1_556 S
C348 C350 1.327 . S
C348 H373 0.950 . S
C349 C348 1.349 1_554 S
C349 C365 1.349 . S
C350 C348 1.327 . S
C350 C369 1.429 1_556 S
C350 H374 0.950 . S
C351 C368 1.574 . S
C351 C370 1.368 . S
C351 H375 0.949 . S
H352 C356 0.949 . S
C353 C354 1.349 . S
C353 C355 1.327 . S
C353 H376 0.950 . S
C354 C353 1.349 . S
C354 C366 1.349 1_554 S
C355 C353 1.327 . S
C355 C371 1.429 . S
C355 H377 0.950 . S
C356 H352 0.949 . S
C356 C364 1.574 . S
C356 C372 1.368 1_556 S
H357 C365 0.950 . S
H358 C363 0.950 . S
H359 C364 0.949 . S
H360 C366 0.950 . S
H361 C367 0.950 . S
H362 C368 0.949 . S
C363 H358 0.950 . S
C363 C365 1.327 . S
C363 C369 1.429 . S
C364 C356 1.574 . S
C364 H359 0.949 . S
C364 C370 1.368 1_556 S
C365 C349 1.349 . S
C365 H357 0.950 . S
C365 C363 1.327 . S
C366 C354 1.349 1_556 S
C366 H360 0.950 . S
C366 C367 1.327 . S
C367 H361 0.950 . S
C367 C366 1.327 . S
C367 C371 1.429 1_556 S
C368 C351 1.574 . S
C368 H362 0.949 . S
C368 C372 1.368 . S
C369 C350 1.429 1_554 S
C369 C363 1.429 . S
C369 C370 1.523 . S
C370 C351 1.368 . S
C370 C364 1.368 1_554 S
C370 C369 1.523 . S
C371 C355 1.429 . S
C371 C367 1.429 1_554 S
C371 C372 1.523 . S
C372 C356 1.368 1_554 S
C372 C368 1.368 . S
C372 C371 1.523 . S
H373 C348 0.950 . S
H374 C350 0.950 . S
H375 C351 0.949 . S
H376 C353 0.950 . S
H377 C355 0.950 . S
C378 C379 1.349 . S
C378 C380 1.327 . S
C378 H403 0.950 . S
C379 C378 1.349 . S
C379 C395 1.349 1_554 S
C380 C378 1.327 . S
C380 C399 1.429 . S
C380 H404 0.950 . S
C381 C398 1.574 . S
C381 C400 1.368 1_556 S
C381 H405 0.949 . S
H382 C386 0.949 . S
C383 C384 1.349 1_556 S
C383 C385 1.327 . S
C383 H406 0.950 . S
C384 C383 1.349 1_554 S
C384 C396 1.349 . S
C385 C383 1.327 . S
C385 C401 1.429 1_556 S
C385 H407 0.950 . S
C386 H382 0.949 . S
C386 C394 1.574 . S
C386 C402 1.368 . S
H387 C395 0.950 . S
H388 C393 0.950 . S
H389 C394 0.949 . S
H390 C396 0.950 . S
H391 C397 0.950 . S
H392 C398 0.949 . S
C393 H388 0.950 . S
C393 C395 1.327 . S
C393 C399 1.429 1_556 S
C394 C386 1.574 . S
C394 H389 0.949 . S
C394 C400 1.368 . S
C395 C379 1.349 1_556 S
C395 H387 0.950 . S
C395 C393 1.327 . S
C396 C384 1.349 . S
C396 H390 0.950 . S
C396 C397 1.327 . S
C397 H391 0.950 . S
C397 C396 1.327 . S
C397 C401 1.429 . S
C398 C381 1.574 . S
C398 H392 0.949 . S
C398 C402 1.368 1_556 S
C399 C380 1.429 . S
C399 C393 1.429 1_554 S
C399 C400 1.523 . S
C400 C381 1.368 1_554 S
C400 C394 1.368 . S
C400 C399 1.523 . S
C401 C385 1.429 1_554 S
C401 C397 1.429 . S
C401 C402 1.523 . S
C402 C386 1.368 . S
C402 C398 1.368 1_554 S
C402 C401 1.523 . S
H403 C378 0.950 . S
H404 C380 0.950 . S
H405 C381 0.949 . S
H406 C383 0.950 . S
H407 C385 0.950 . S
C408 C409 1.349 . S
C408 C410 1.327 . S
C408 H433 0.950 . S
C409 C408 1.349 . S
C409 C425 1.349 1_554 S
C410 C408 1.327 . S
C410 C429 1.429 . S
C410 H434 0.950 . S
C411 C428 1.574 . S
C411 C430 1.368 1_556 S
C411 H435 0.949 . S
H412 C416 0.949 . S
C413 C414 1.349 1_556 S
C413 C415 1.327 . S
C413 H436 0.950 . S
C414 C413 1.349 1_554 S
C414 C426 1.349 . S
C415 C413 1.327 . S
C415 C431 1.429 1_556 S
C415 H437 0.950 . S
C416 H412 0.949 . S
C416 C424 1.574 . S
C416 C432 1.368 . S
H417 C425 0.950 . S
H418 C423 0.950 . S
H419 C424 0.949 . S
H420 C426 0.950 . S
H421 C427 0.950 . S
H422 C428 0.949 . S
C423 H418 0.950 . S
C423 C425 1.327 . S
C423 C429 1.429 1_556 S
C424 C416 1.574 . S
C424 H419 0.949 . S
C424 C430 1.368 . S
C425 C409 1.349 1_556 S
C425 H417 0.950 . S
C425 C423 1.327 . S
C426 C414 1.349 . S
C426 H420 0.950 . S
C426 C427 1.327 . S
C427 H421 0.950 . S
C427 C426 1.327 . S
C427 C431 1.429 . S
C428 C411 1.574 . S
C428 H422 0.949 . S
C428 C432 1.368 1_556 S
C429 C410 1.429 . S
C429 C423 1.429 1_554 S
C429 C430 1.523 . S
C430 C411 1.368 1_554 S
C430 C424 1.368 . S
C430 C429 1.523 . S
C431 C415 1.429 1_554 S
C431 C427 1.429 . S
C431 C432 1.523 . S
C432 C416 1.368 . S
C432 C428 1.368 1_554 S
C432 C431 1.523 . S
H433 C408 0.950 . S
H434 C410 0.950 . S
H435 C411 0.949 . S
H436 C413 0.950 . S
H437 C415 0.950 . S
C79 C1 1.493 . S
C84 C55 1.493 . S
C109 C5 1.489 . S
C114 C66 1.493 . S
C139 C53 1.496 . S
C144 C3 1.489 . S
C169 C68 1.489 . S
C174 C10 1.493 . S
C199 C70 1.489 . S
C204 C23 1.496 . S
C229 C36 1.493 . S
C234 C57 1.493 . S
C259 C75 1.493 . S
C264 C18 1.493 . S
C289 C62 1.496 . S
C294 C31 1.489 . S
C319 C27 1.493 . S
C324 C44 1.489 . S
C349 C42 1.489 . S
C354 C14 1.496 . S
C379 C29 1.489 . S
C384 C49 1.493 . S
C409 C40 1.493 . S
C414 C16 1.493 . S
