# Generated by pormake.
# Topology vcm, (7)-cn, num edge types: 1
# Building blocks:
#     Node 0, Type 0, BuildingBlock: HICVOG_clean_sbu_0, # of connection points: 7
#     Node 1, Type 0, BuildingBlock: HICVOG_clean_sbu_0, # of connection points: 7
#     Node 2, Type 0, BuildingBlock: HICVOG_clean_sbu_0, # of connection points: 7
#     Node 3, Type 0, BuildingBlock: HICVOG_clean_sbu_0, # of connection points: 7
#     Node 4, Type 0, BuildingBlock: HICVOG_clean_sbu_0, # of connection points: 7
#     Node 5, Type 0, BuildingBlock: HICVOG_clean_sbu_0, # of connection points: 7
#     Node 6, Type 0, BuildingBlock: HICVOG_clean_sbu_0, # of connection points: 7
#     Node 7, Type 0, BuildingBlock: HICVOG_clean_sbu_0, # of connection points: 7
#     Edge 8, Type (0, 0), BuildingBlock: OJICUG_clean_linker_0, # of connection points: 2
#     Edge 9, Type (0, 0), BuildingBlock: OJICUG_clean_linker_0, # of connection points: 2
#     Edge 10, Type (0, 0), BuildingBlock: OJICUG_clean_linker_0, # of connection points: 2
#     Edge 11, Type (0, 0), BuildingBlock: OJICUG_clean_linker_0, # of connection points: 2
#     Edge 12, Type (0, 0), BuildingBlock: OJICUG_clean_linker_0, # of connection points: 2
#     Edge 13, Type (0, 0), BuildingBlock: OJICUG_clean_linker_0, # of connection points: 2
#     Edge 14, Type (0, 0), BuildingBlock: OJICUG_clean_linker_0, # of connection points: 2
#     Edge 15, Type (0, 0), BuildingBlock: OJICUG_clean_linker_0, # of connection points: 2
#     Edge 16, Type (0, 0), BuildingBlock: OJICUG_clean_linker_0, # of connection points: 2
#     Edge 17, Type (0, 0), BuildingBlock: OJICUG_clean_linker_0, # of connection points: 2
#     Edge 18, Type (0, 0), BuildingBlock: OJICUG_clean_linker_0, # of connection points: 2
#     Edge 19, Type (0, 0), BuildingBlock: OJICUG_clean_linker_0, # of connection points: 2
#     Edge 20, Type (0, 0), BuildingBlock: OJICUG_clean_linker_0, # of connection points: 2
#     Edge 21, Type (0, 0), BuildingBlock: OJICUG_clean_linker_0, # of connection points: 2
#     Edge 22, Type (0, 0), BuildingBlock: OJICUG_clean_linker_0, # of connection points: 2
#     Edge 23, Type (0, 0), BuildingBlock: OJICUG_clean_linker_0, # of connection points: 2
#     Edge 24, Type (0, 0), BuildingBlock: OJICUG_clean_linker_0, # of connection points: 2
#     Edge 25, Type (0, 0), BuildingBlock: OJICUG_clean_linker_0, # of connection points: 2
#     Edge 26, Type (0, 0), BuildingBlock: OJICUG_clean_linker_0, # of connection points: 2
#     Edge 27, Type (0, 0), BuildingBlock: OJICUG_clean_linker_0, # of connection points: 2
#     Edge 28, Type (0, 0), BuildingBlock: OJICUG_clean_linker_0, # of connection points: 2
#     Edge 29, Type (0, 0), BuildingBlock: OJICUG_clean_linker_0, # of connection points: 2
#     Edge 30, Type (0, 0), BuildingBlock: OJICUG_clean_linker_0, # of connection points: 2
#     Edge 31, Type (0, 0), BuildingBlock: OJICUG_clean_linker_0, # of connection points: 2
#     Edge 32, Type (0, 0), BuildingBlock: OJICUG_clean_linker_0, # of connection points: 2
#     Edge 33, Type (0, 0), BuildingBlock: OJICUG_clean_linker_0, # of connection points: 2
#     Edge 34, Type (0, 0), BuildingBlock: OJICUG_clean_linker_0, # of connection points: 2
#     Edge 35, Type (0, 0), BuildingBlock: OJICUG_clean_linker_0, # of connection points: 2
# Relax obj value: 0.290
# Max RMSD: 0.262
# Mean RMSD: 0.262
data_MOF--net-vcm--node1-HICVOG_clean_sbu_0--edge1-OJICUG_clean_linker_0
_symmetry_space_group_name_H-M    P1
_symmetry_Int_Tables_number       1
_symmetry_cell_setting            triclinic
loop_
_symmetry_equiv_pos_as_xyz
'x, y, z'
_cell_length_a     31.671635
_cell_length_b     26.015945
_cell_length_c     18.755334
_cell_angle_alpha  89.976232
_cell_angle_beta   89.960284
_cell_angle_gamma 89.770344
loop_
_atom_site_label
_atom_site_type_symbol
_atom_site_fract_x
_atom_site_fract_y
_atom_site_fract_z
_atom_type_partial_charge
Zn0 Zn 0.02575 0.29669 0.18559 0.0
C1 C 0.0782 0.39118 0.05166 0.0
N2 N 0.06906 0.35493 1.00315 0.0
C3 C 0.06047 0.31385 0.04385 0.0
N4 N 0.06328 0.32455 0.1139 0.0
N5 N 0.07615 0.37263 0.119 0.0
C6 C 0.07056 0.48795 0.24019 0.0
O7 O 0.0352 0.46528 0.22188 0.0
O8 O 0.03135 0.21932 0.19376 0.0
Zn9 Zn 0.11261 0.39069 0.19814 0.0
N10 N 0.96726 0.31385 0.15981 0.0
C11 C 0.91874 0.35023 0.07662 0.0
C12 C 0.9599 0.33918 0.09749 0.0
C13 C 0.93458 0.30107 0.20377 0.0
N14 N 0.88632 0.33738 0.12011 0.0
C15 C 0.89276 0.31355 0.1838 0.0
O16 O 0.10538 0.34354 0.28344 0.0
C17 C 0.07281 0.32667 0.31548 0.0
O18 O 0.037 0.32489 0.28481 0.0
H19 H 0.98552 0.35106 0.0638 0.0
H20 H 0.94121 0.28152 0.25346 0.0
C21 C 0.20306 0.39324 0.21054 0.0
C22 C 0.24506 0.38324 0.18928 0.0
C23 C 0.21959 0.35153 0.07865 0.0
C24 C 0.17828 0.35976 0.10103 0.0
N25 N 0.17067 0.38106 0.16607 0.0
N26 N 0.2518 0.36305 0.12324 0.0
H27 H 0.19575 0.40995 0.26184 0.0
C28 C 0.06529 0.19835 0.21581 0.0
O29 O 0.09854 0.22725 0.22706 0.0
O30 O 0.10525 0.46365 0.23399 0.0
H31 H 0.15273 0.3484 0.0668 0.0
H32 H 0.9126 0.36971 1.0267 0.0
H33 H 0.22604 0.33498 1.02685 0.0
Zn34 Zn 0.52311 0.61477 0.72392 0.0
C35 C 0.55229 0.67887 0.55049 0.0
N36 N 0.53717 0.6348 0.52326 0.0
C37 C 0.54058 0.6023 0.57855 0.0
N38 N 0.55568 0.62569 0.63731 0.0
N39 N 0.56531 0.67316 0.61844 0.0
C40 C 0.5627 0.80966 0.70185 0.0
O41 O 0.53441 0.77804 0.72808 0.0
O42 O 0.51995 0.53943 0.74998 0.0
Zn43 Zn 0.60407 0.71424 0.67356 0.0
N44 N 0.46661 0.64166 0.70579 0.0
C45 C 0.42387 0.70387 0.64644 0.0
C46 C 0.46338 0.6843 0.6641 0.0
C47 C 0.4315 0.61928 0.7338 0.0
N48 N 0.38895 0.68163 0.67412 0.0
C49 C 0.3914 0.6402 0.71828 0.0
O50 O 0.59848 0.70152 0.77829 0.0
C51 C 0.57576 0.68064 0.82605 0.0
O52 O 0.54546 0.6508 0.81067 0.0
H53 H 0.49113 0.7035 0.645 0.0
H54 H 0.4349 0.58598 0.76791 0.0
C55 C 0.69498 0.707 0.68938 0.0
C56 C 0.73645 0.69445 0.66742 0.0
C57 C 0.70913 0.66613 0.55624 0.0
C58 C 0.66828 0.67739 0.57892 0.0
N59 N 0.66189 0.69821 0.64454 0.0
N60 N 0.74204 0.6747 0.60083 0.0
H61 H 0.68882 0.72359 0.74123 0.0
C62 C 0.55066 0.51994 0.78449 0.0
O63 O 0.58363 0.54869 0.79859 0.0
O64 O 0.59403 0.79107 0.66779 0.0
H65 H 0.64188 0.66961 0.54422 0.0
H66 H 0.42098 0.73724 0.61233 0.0
H67 H 0.71464 0.65003 0.50386 0.0
Zn68 Zn 1.01561 0.70877 0.86594 0.0
C69 C 0.06855 0.6059 0.98938 0.0
N70 N 0.05718 0.63697 0.04331 0.0
C71 C 0.04675 0.68064 1.00881 0.0
N72 N 0.05131 0.67621 0.93732 0.0
N73 N 0.06599 0.62941 0.92557 0.0
C74 C 0.07094 0.52221 0.78064 0.0
O75 O 0.03932 0.55327 0.7658 0.0
O76 O 1.01495 0.78589 0.87508 0.0
Zn77 Zn 0.10487 0.61309 0.84896 0.0
N78 N 0.95792 0.68228 0.87682 0.0
C79 C 0.91109 0.62905 0.94321 0.0
C80 C 0.95142 0.64761 0.93005 0.0
C81 C 0.92519 0.69815 0.83466 0.0
N82 N 0.87861 0.64499 0.90176 0.0
C83 C 0.88416 0.67884 0.84724 0.0
O84 O 0.09701 0.65506 0.75927 0.0
C85 C 0.06858 0.6825 0.72988 0.0
O86 O 0.03642 0.69903 0.764 0.0
H87 H 0.97717 0.63426 0.9626 0.0
H88 H 0.93106 0.72579 0.79273 0.0
C89 C 0.19579 0.61245 0.84497 0.0
C90 C 0.23668 0.62112 0.87186 0.0
C91 C 0.20667 0.654 0.97855 0.0
C92 C 0.16642 0.64689 0.95083 0.0
N93 N 0.16157 0.6254 0.88518 0.0
N94 N 0.24073 0.64124 0.93848 0.0
H95 H 0.191 0.59581 0.79276 0.0
C96 C 0.04936 0.80931 0.86276 0.0
O97 O 0.08428 0.78235 0.85566 0.0
O98 O 0.10152 0.53875 0.81797 0.0
H99 H 0.13948 0.6588 0.98178 0.0
H100 H 0.90562 0.60185 0.98585 0.0
H101 H 0.21089 0.67047 0.03101 0.0
Zn102 Zn 0.61341 0.29522 0.37268 0.0
C103 C 0.56159 0.38914 0.50958 0.0
N104 N 0.57702 0.35529 0.55705 0.0
C105 C 0.58624 0.31426 0.51665 0.0
N106 N 0.57726 0.32261 0.44727 0.0
N107 N 0.56061 0.36925 0.4428 0.0
C108 C 0.56537 0.48392 0.31563 0.0
O109 O 0.60077 0.45871 0.32691 0.0
O110 O 0.61578 0.21801 0.37778 0.0
Zn111 Zn 0.52375 0.38877 0.36386 0.0
N112 N 0.67026 0.32304 0.38547 0.0
C113 C 0.71554 0.3794 0.44967 0.0
C114 C 0.67549 0.3602 0.4357 0.0
C115 C 0.70384 0.30542 0.34679 0.0
N116 N 0.7489 0.36177 0.41154 0.0
C117 C 0.74448 0.32553 0.35979 0.0
O118 O 0.53045 0.34653 0.27373 0.0
C119 C 0.55926 0.32183 0.24097 0.0
O120 O 0.59313 0.30743 0.27169 0.0
H121 H 0.64892 0.37503 0.46512 0.0
H122 H 0.69887 0.27595 0.30702 0.0
C123 C 0.43338 0.39066 0.35205 0.0
C124 C 0.39157 0.38006 0.3733 0.0
C125 C 0.4178 0.34592 0.48227 0.0
C126 C 0.45897 0.35495 0.45989 0.0
N127 N 0.46602 0.37755 0.39558 0.0
N128 N 0.38527 0.35828 0.4385 0.0
H129 H 0.44042 0.40877 0.3016 0.0
C130 C 0.58116 0.19441 0.36834 0.0
O131 O 0.54595 0.22119 0.3646 0.0
O132 O 0.5304 0.46253 0.33027 0.0
H133 H 0.48496 0.34362 0.49359 0.0
H134 H 0.72006 0.40854 0.49005 0.0
H135 H 0.4117 0.32831 0.5335 0.0
Zn136 Zn 0.52237 0.78533 0.17368 0.0
C137 C 0.58653 0.89692 0.07868 0.0
N138 N 0.59039 0.86421 1.02375 0.0
C139 C 0.57485 0.82034 0.05099 0.0
N140 N 0.56113 0.82645 0.1185 0.0
N141 N 0.57076 0.87393 0.13727 0.0
C142 C 0.57638 0.98062 0.28474 0.0
O143 O 0.54308 0.95259 0.29952 0.0
O144 O 0.53303 0.70869 0.16806 0.0
Zn145 Zn 0.60284 0.88512 0.22408 0.0
N146 N 0.46454 0.80097 0.14438 0.0
C147 C 0.41753 0.83295 0.05574 0.0
C148 C 0.45833 0.8219 0.07877 0.0
C149 C 0.43132 0.79197 0.18895 0.0
N150 N 0.38449 0.82414 0.10004 0.0
C151 C 0.38989 0.80433 0.16666 0.0
O152 O 0.58019 0.84942 0.31086 0.0
C153 C 0.55009 0.81927 0.32622 0.0
O154 O 0.52764 0.79808 0.27841 0.0
H155 H 0.48484 0.82995 0.04435 0.0
H156 H 0.43734 0.77539 0.24087 0.0
C157 C 0.69414 0.88104 0.23371 0.0
C158 C 0.73432 0.85959 0.22021 0.0
C159 C 0.70214 0.79382 0.15172 0.0
C160 C 0.66256 0.81406 0.16745 0.0
N161 N 0.65918 0.85777 0.20681 0.0
N162 N 0.73693 0.81677 0.1787 0.0
H163 H 0.69046 0.9155 0.26539 0.0
C164 C 0.56468 0.6908 0.20193 0.0
O165 O 0.59246 0.72301 0.22817 0.0
O166 O 0.60662 0.96048 0.24973 0.0
H167 H 0.63485 0.79458 0.1487 0.0
H168 H 0.41216 0.84911 1.00336 0.0
H169 H 0.7052 0.75947 0.11962 0.0
Zn170 Zn 0.02136 0.11403 0.70316 0.0
C171 C 0.07095 0.18226 0.53823 0.0
N172 N 0.05962 0.13874 0.5046 0.0
C173 C 0.05183 0.10693 0.55951 0.0
N174 N 0.05765 0.12989 0.62301 0.0
N175 N 0.07085 0.17699 0.60983 0.0
C176 C 0.07139 0.311 0.68447 0.0
O177 O 0.03726 0.28353 0.69532 0.0
O178 O 0.02199 0.03862 0.7298 0.0
Zn179 Zn 0.10861 0.211 0.67561 0.0
N180 N 0.96424 0.13346 0.67599 0.0
C181 C 0.9177 0.17681 0.59635 0.0
C182 C 0.95831 0.16246 0.61644 0.0
C183 C 0.93093 0.11892 0.71711 0.0
N184 N 0.88456 0.16278 0.63761 0.0
C185 C 0.88971 0.13448 0.69812 0.0
O186 O 0.09397 0.19854 0.77928 0.0
C187 C 0.06504 0.17956 0.81839 0.0
O188 O 0.03554 0.15201 0.79324 0.0
H189 H 0.98475 0.17474 0.58468 0.0
H190 H 0.93689 0.09561 0.76377 0.0
C191 C 0.19929 0.20082 0.69993 0.0
C192 C 0.24074 0.18539 0.68183 0.0
C193 C 0.21434 0.14625 0.57676 0.0
C194 C 0.17351 0.16063 0.59552 0.0
N195 N 0.16658 0.18843 0.65589 0.0
N196 N 0.24683 0.15884 0.62015 0.0
H197 H 0.19304 0.22266 0.74791 0.0
C198 C 0.05167 0.02095 0.76852 0.0
O199 O 0.08306 0.05127 0.7861 0.0
O200 O 0.10564 0.28818 0.66812 0.0
H201 H 0.14774 0.14953 0.56169 0.0
H202 H 0.91254 0.1996 0.54886 0.0
H203 H 0.22017 0.12469 0.52841 0.0
Zn204 Zn 0.51935 0.20398 0.87148 0.0
C205 C 0.56858 0.11033 1.00898 0.0
N206 N 0.55293 0.14438 0.05597 0.0
C207 C 0.54529 0.1859 1.01557 0.0
N208 N 0.55545 0.17762 0.94663 0.0
N209 N 0.57136 0.13059 0.94256 0.0
C210 C 0.56591 0.01631 0.81651 0.0
O211 O 0.53091 0.04177 0.83011 0.0
O212 O 0.51599 0.28114 0.87579 0.0
Zn213 Zn 0.609 0.11069 0.86461 0.0
N214 N 0.46265 0.17563 0.8839 0.0
C215 C 0.41713 0.11915 0.9476 0.0
C216 C 0.45725 0.13828 0.93385 0.0
C217 C 0.42918 0.19348 0.84523 0.0
N218 N 0.38386 0.13704 0.90951 0.0
C219 C 0.38849 0.17346 0.858 0.0
O220 O 0.60373 0.15385 0.77482 0.0
C221 C 0.57478 0.17774 0.74125 0.0
O222 O 0.54034 0.19125 0.77102 0.0
H223 H 0.48373 0.12328 0.96326 0.0
H224 H 0.43426 0.22308 0.80564 0.0
C225 C 0.6997 0.11176 0.85336 0.0
C226 C 0.74127 0.12115 0.87685 0.0
C227 C 0.71421 0.14538 0.99017 0.0
C228 C 0.67326 0.13759 0.96593 0.0
N229 N 0.66669 0.12036 0.89836 0.0
N230 N 0.74705 0.13732 0.94519 0.0
H231 H 0.69324 0.09807 0.80009 0.0
C232 C 0.55017 0.30572 0.86667 0.0
O233 O 0.5859 0.27999 0.86337 0.0
O234 O 0.60128 0.03727 0.82961 0.0
H235 H 0.64711 0.14558 1.001 0.0
H236 H 0.41248 0.08988 0.98779 0.0
H237 H 0.71987 0.15865 0.04397 0.0
Zn238 Zn 0.10865 0.79995 0.35419 0.0
C239 C 0.06276 0.89249 0.49489 0.0
N240 N 0.07875 0.85835 0.54143 0.0
C241 C 0.08502 0.8163 0.50126 0.0
N242 N 0.07379 0.82452 0.43273 0.0
N243 N 0.05829 0.87168 0.42918 0.0
C244 C 0.06437 0.98622 0.31085 0.0
O245 O 0.09826 0.96491 0.33862 0.0
O246 O 0.10686 0.72248 0.34734 0.0
Zn247 Zn 1.01973 0.89026 0.35263 0.0
N248 N 0.16707 0.82266 0.37003 0.0
C249 C 0.21429 0.87514 0.4366 0.0
C250 C 0.17362 0.85849 0.42165 0.0
C251 C 0.20007 0.80437 0.33036 0.0
N252 N 0.24702 0.85684 0.39757 0.0
C253 C 0.24141 0.82223 0.34404 0.0
O254 O 0.02136 0.84014 0.26942 0.0
C255 C 0.05249 0.82471 0.232 0.0
O256 O 0.09 0.82561 0.25631 0.0
H257 H 0.14758 0.87464 0.45098 0.0
H258 H 0.19407 0.77641 0.28896 0.0
C259 C 0.92895 0.89526 0.34778 0.0
C260 C 0.88766 0.89163 0.37538 0.0
C261 C 0.91617 0.87327 0.48963 0.0
C262 C 0.95676 0.87505 0.46152 0.0
N263 N 0.96257 0.88689 0.39148 0.0
N264 N 0.88271 0.88123 0.44603 0.0
H265 H 0.93459 0.9042 0.29227 0.0
C266 C 0.07209 0.70033 0.33326 0.0
O267 O 0.03738 0.72805 0.33031 0.0
O268 O 0.02977 0.96158 0.31122 0.0
H269 H 0.98318 0.86689 0.49576 0.0
H270 H 0.21979 0.90314 0.47817 0.0
H271 H 0.9112 0.86455 0.54541 0.0
C272 C 0.27782 0.39013 0.31188 0.0
C273 C 0.28201 0.39052 0.23721 0.0
H274 H 0.30894 0.38767 0.41277 0.0
C275 C 0.32287 0.39248 0.20782 0.0
H276 H 0.24722 0.38769 0.3372 0.0
C277 C 0.35856 0.39134 0.25147 0.0
C278 C 0.35441 0.38873 0.32607 0.0
H279 H 0.32747 0.39297 0.15059 0.0
H280 H 0.38912 0.38993 0.22586 0.0
C281 C 0.31353 0.38947 0.35558 0.0
C282 C 0.31406 0.60351 0.86252 0.0
C283 C 0.27533 0.61356 0.82845 0.0
H284 H 0.38138 0.60332 0.85447 0.0
C285 C 0.27528 0.62398 0.75494 0.0
H286 H 0.3151 0.59519 0.91911 0.0
C287 C 0.31332 0.62847 0.71781 0.0
C288 C 0.35215 0.62237 0.75319 0.0
H289 H 0.2462 0.6326 0.727 0.0
H290 H 0.31238 0.6397 0.66219 0.0
C291 C 0.35211 0.60768 0.82526 0.0
C292 C 0.81465 0.70378 0.68559 0.0
C293 C 0.7739 0.69908 0.71513 0.0
H294 H 0.88145 0.70161 0.7034 0.0
C295 C 0.77015 0.6934 0.78941 0.0
H296 H 0.81878 0.70831 0.6286 0.0
C297 C 0.80615 0.68983 0.83229 0.0
C298 C 0.84689 0.69197 0.80234 0.0
H299 H 0.73961 0.68878 0.81442 0.0
H300 H 0.80202 0.68344 0.88894 0.0
C301 C 0.85072 0.70045 0.72863 0.0
C302 C 0.85903 0.31153 0.30536 0.0
C303 C 0.85573 0.30542 0.23116 0.0
H304 H 0.82624 0.32206 0.40412 0.0
C305 C 0.81538 0.29883 0.20108 0.0
H306 H 0.88941 0.31743 0.33042 0.0
C307 C 0.77904 0.30157 0.24341 0.0
C308 C 0.78224 0.31139 0.31685 0.0
H309 H 0.81175 0.29393 0.14406 0.0
H310 H 0.74853 0.29945 0.21761 0.0
C311 C 0.82269 0.31467 0.3476 0.0
C312 C 0.81037 0.90767 0.36033 0.0
C313 C 0.84946 0.89422 0.32977 0.0
H314 H 0.74326 0.90761 0.35028 0.0
C315 C 0.8503 0.87655 0.25897 0.0
H316 H 0.80863 0.92161 0.41468 0.0
C317 C 0.8127 0.86899 0.22166 0.0
C318 C 0.77345 0.87887 0.25412 0.0
H319 H 0.87958 0.86506 0.23374 0.0
H320 H 0.81433 0.85279 0.16851 0.0
C321 C 0.77276 0.90013 0.32298 0.0
C322 C 0.81927 0.11198 0.85928 0.0
C323 C 0.77874 0.11704 0.82927 0.0
H324 H 0.88581 0.114 0.84304 0.0
C325 C 0.77531 0.12321 0.755 0.0
H326 H 0.82323 0.10712 0.91626 0.0
C327 C 0.81146 0.12626 0.71251 0.0
C328 C 0.85202 0.12357 0.74296 0.0
H329 H 0.74496 0.12829 0.72953 0.0
H330 H 0.80751 0.13247 0.65579 0.0
C331 C 0.85542 0.11535 0.81685 0.0
C332 C 0.31043 0.18566 0.84569 0.0
C333 C 0.35095 0.18781 0.81487 0.0
H334 H 0.24365 0.18395 0.82834 0.0
C335 C 0.35437 0.19654 0.74119 0.0
H336 H 0.30676 0.17908 0.90239 0.0
C337 C 0.31814 0.19922 0.69872 0.0
C338 C 0.27771 0.19379 0.72896 0.0
H339 H 0.38495 0.19775 0.71543 0.0
H340 H 0.32188 0.20313 0.64155 0.0
C341 C 0.27418 0.1889 0.8033 0.0
C342 C 0.31941 0.80959 0.33071 0.0
C343 C 0.27882 0.80769 0.30021 0.0
H344 H 0.38607 0.81013 0.31367 0.0
C345 C 0.27539 0.79871 0.22657 0.0
H346 H 0.32325 0.81637 0.38732 0.0
C347 C 0.31166 0.79488 0.18406 0.0
C348 C 0.35226 0.79962 0.21405 0.0
H349 H 0.24481 0.79774 0.20085 0.0
H350 H 0.30781 0.79013 0.12706 0.0
C351 C 0.35564 0.80553 0.28833 0.0
C352 C 0.10875 0.61608 0.31156 0.0
C353 C 0.07129 0.64519 0.31326 0.0
H354 H 0.13792 0.54393 0.28707 0.0
C355 C 0.03335 0.6218 0.29198 0.0
H356 H 0.13855 0.63291 0.32729 0.0
C357 C 0.03297 0.57065 0.26883 0.0
C358 C 0.07053 0.54177 0.26629 0.0
H359 H 1.00394 0.64318 0.29222 0.0
H360 H 1.00329 0.55398 0.2522 0.0
C361 C 0.10838 0.56503 0.28827 0.0
C362 C 0.58702 0.38985 0.85184 0.0
C363 C 0.54945 0.36138 0.85045 0.0
H364 H 0.61679 0.46217 0.83242 0.0
C365 C 0.51195 0.38573 0.82834 0.0
H366 H 0.61643 0.37216 0.86846 0.0
C367 C 0.51227 0.4372 0.80653 0.0
C368 C 0.54996 0.46552 0.80748 0.0
H369 H 0.48255 0.36468 0.82606 0.0
H370 H 0.48301 0.45477 0.78894 0.0
C371 C 0.58722 0.44143 0.83107 0.0
C372 C 0.10914 0.4409 0.74886 0.0
C373 C 0.07113 0.46872 0.75373 0.0
H374 H 0.13919 0.36978 0.72122 0.0
C375 C 0.03343 0.44507 0.73207 0.0
H376 H 0.13875 0.45819 0.7647 0.0
C377 C 0.0336 0.39417 0.70786 0.0
C378 C 0.0716 0.36626 0.70338 0.0
H379 H 1.00363 0.46554 0.73521 0.0
H380 H 1.00393 0.37651 0.69322 0.0
C381 C 0.10944 0.39041 0.72327 0.0
C382 C 0.52911 0.60624 0.22331 0.0
C383 C 0.566 0.63608 0.22401 0.0
H384 H 0.4998 0.53532 0.25288 0.0
C385 C 0.60308 0.61483 0.25314 0.0
H386 H 0.4999 0.62161 0.20195 0.0
C387 C 0.6031 0.56515 0.28197 0.0
C388 C 0.56586 0.536 0.28342 0.0
H389 H 0.63198 0.63692 0.25473 0.0
H390 H 0.63208 0.55007 0.30457 0.0
C391 C 0.52895 0.55695 0.25321 0.0
C392 C 0.54144 0.05995 0.33221 0.0
C393 C 0.57816 0.03492 0.30804 0.0
H394 H 0.51367 0.12986 0.37043 0.0
C395 C 0.61639 0.06216 0.307 0.0
H396 H 0.51148 0.04005 0.33369 0.0
C397 C 0.61777 0.11349 0.32925 0.0
C398 C 0.58081 0.13879 0.3519 0.0
H399 H 0.64527 0.04385 0.289 0.0
H400 H 0.64757 0.13371 0.32684 0.0
C401 C 0.54269 0.1114 0.35342 0.0
C402 C 1.01195 0.88875 0.82047 0.0
C403 C 0.04918 0.86464 0.84428 0.0
H404 H 0.98372 0.9567 0.77637 0.0
C405 C 0.08703 0.89263 0.84398 0.0
H406 H 0.98237 0.86802 0.81928 0.0
C407 C 0.08772 0.94353 0.81997 0.0
C408 C 0.05073 0.96722 0.79447 0.0
H409 H 0.11624 0.87502 0.86171 0.0
H410 H 0.11743 0.96401 0.82017 0.0
C411 C 1.0128 0.93936 0.79519 0.0
C412 C 0.5996 0.89355 0.72238 0.0
C413 C 0.56234 0.86437 0.72421 0.0
H414 H 0.63013 0.96385 0.75119 0.0
C415 C 0.52588 0.88627 0.75469 0.0
H416 H 0.62836 0.8777 0.69996 0.0
C417 C 0.52682 0.93586 0.78372 0.0
C418 C 0.56443 0.96434 0.784 0.0
H419 H 0.49671 0.86473 0.7572 0.0
H420 H 0.49829 0.95139 0.80739 0.0
C421 C 0.60071 0.94277 0.75243 0.0
C422 C 0.02979 0.11264 0.22765 0.0
C423 C 0.06604 0.1431 0.23568 0.0
H424 H 1.00083 0.03952 0.24491 0.0
C425 C 0.10226 0.12096 0.26663 0.0
H426 H 1.00131 0.12843 0.20423 0.0
C427 C 0.10201 0.06982 0.29 0.0
C428 C 0.0655 0.03967 0.28312 0.0
H429 H 0.13067 0.14337 0.27403 0.0
H430 H 0.13024 0.05423 0.31452 0.0
C431 C 0.02951 0.0616 0.25116 0.0
C432 C 0.0967 0.24019 0.9914 0.0
C433 C 0.05823 0.26262 1.01206 0.0
H434 H 0.12921 0.19615 0.91182 0.0
C435 C 1.02089 0.24744 0.97817 0.0
H436 H 0.12598 0.25234 1.01597 0.0
C437 C 0.02261 0.21452 0.91925 0.0
C438 C 0.06186 0.19799 0.89248 0.0
H439 H 0.99105 0.26526 0.99206 0.0
H440 H 0.9938 0.207 0.89 0.0
C441 C 0.09863 0.20863 0.93131 0.0
C442 C 0.5111 0.73627 0.47348 0.0
C443 C 0.54866 0.72744 0.51118 0.0
H444 H 0.48157 0.77452 0.38608 0.0
C445 C 0.58343 0.75947 0.49945 0.0
H446 H 0.48353 0.71265 0.48296 0.0
C447 C 0.58244 0.79501 0.4433 0.0
C448 C 0.54656 0.7986 0.39915 0.0
H449 H 0.61244 0.754 0.5288 0.0
H450 H 0.61107 0.81562 0.4302 0.0
C451 C 0.50994 0.77177 0.41818 0.0
C452 C 0.07527 0.79846 0.10931 0.0
C453 C 0.04478 0.7977 0.16381 0.0
H454 H 0.0981 0.76294 1.01344 0.0
C455 C 1.00965 0.76525 0.15663 0.0
H456 H 0.10262 0.82315 0.1135 0.0
C457 C 1.00751 0.73029 0.10004 0.0
C458 C 0.03957 0.72858 0.04842 0.0
H459 H 0.98583 0.76357 0.19804 0.0
H460 H 0.98256 0.7019 0.09966 0.0
C461 C 0.07238 0.76458 0.05153 0.0
C462 C 0.55517 0.23368 0.55907 0.0
C463 C 0.59151 0.26378 0.55054 0.0
H464 H 0.52093 0.18299 0.62815 0.0
C465 C 0.62571 0.25621 0.59695 0.0
H466 H 0.52798 0.23986 0.52502 0.0
C467 C 0.62202 0.22291 0.65531 0.0
C468 C 0.5835 0.19819 0.6692 0.0
H469 H 0.65359 0.28002 0.5924 0.0
H470 H 0.64756 0.22105 0.69363 0.0
C471 C 0.5509 0.20174 0.61867 0.0
C472 C 0.54309 0.74014 0.99994 0.0
C473 C 0.57812 0.77174 1.01168 0.0
H474 H 0.51489 0.68466 0.93041 0.0
C475 C 0.61556 0.76261 0.9737 0.0
H476 H 0.51418 0.74578 1.02954 0.0
C477 C 0.61635 0.72739 0.91808 0.0
C478 C 0.57947 0.70111 0.89905 0.0
H479 H 0.64334 0.78586 0.98317 0.0
H480 H 0.64466 0.72443 0.88581 0.0
C481 C 0.5437 0.70489 0.94347 0.0
C482 C 0.04497 0.26483 0.4911 0.0
C483 C 0.07854 0.22997 0.4988 0.0
H484 H 1.01653 0.32296 0.42551 0.0
C485 C 0.1132 0.23306 0.45249 0.0
H486 H 1.01744 0.26211 0.52525 0.0
C487 C 0.11319 0.26858 0.39654 0.0
C488 C 0.07767 0.29993 0.38444 0.0
H489 H 0.13881 0.20548 0.45614 0.0
H490 H 0.13921 0.26807 0.359 0.0
C491 C 0.04426 0.29917 0.43373 0.0
C492 C 0.50727 0.24587 0.09521 0.0
C493 C 0.54168 0.23646 0.04983 0.0
H494 H 0.4856 0.28224 0.19113 0.0
C495 C 0.57902 0.26448 0.05955 0.0
H496 H 0.47857 0.22366 0.08977 0.0
C497 C 0.5838 0.29614 0.11929 0.0
C498 C 0.55075 0.30154 0.16875 0.0
H499 H 0.60634 0.25683 1.0263 0.0
H500 H 0.61431 0.31325 0.12967 0.0
C501 C 0.51152 0.27894 0.15366 0.0
C502 C 0.04704 0.74236 0.55037 0.0
C503 C 0.08602 0.76592 0.53646 0.0
H504 H 1.01058 0.69799 0.62446 0.0
C505 C 0.12099 0.75306 0.57881 0.0
H506 H 1.01936 0.75285 0.51959 0.0
C507 C 0.11617 0.72086 0.63811 0.0
C508 C 0.07596 0.70269 0.65722 0.0
H509 H 0.15101 0.77193 0.57025 0.0
H510 H 0.14297 0.71471 0.67301 0.0
C511 C 0.04186 0.71167 0.61101 0.0
C512 C 0.05674 0.46351 0.97438 0.0
C513 C 0.08154 0.44574 0.03146 0.0
H514 H 0.03291 0.52866 0.91763 0.0
C515 C 0.10647 0.48077 0.06926 0.0
H516 H 0.03719 0.43739 0.94398 0.0
C517 C 0.10375 0.53346 0.05416 0.0
C518 C 0.07737 0.55105 0.99908 0.0
H519 H 0.12778 0.46754 0.11022 0.0
H520 H 0.12167 0.56042 0.08596 0.0
C521 C 0.05452 0.51568 0.95865 0.0
C522 C 0.56764 0.51522 0.60698 0.0
C523 C 0.53939 0.54621 0.56879 0.0
H524 H 0.59649 0.44157 0.61779 0.0
C525 C 0.51571 0.52434 0.51323 0.0
H526 H 0.5875 0.53141 0.64812 0.0
C527 C 0.52134 0.4726 0.49484 0.0
C528 C 0.55123 0.44239 0.5308 0.0
H529 H 0.49381 0.54763 0.48267 0.0
H530 H 0.50255 0.45665 0.45259 0.0
C531 C 0.57322 0.46383 0.58864 0.0
C532 C 0.61264 0.97431 1.01344 0.0
C533 C 0.58837 0.95294 0.06869 0.0
H534 H 0.62697 0.04166 0.95286 0.0
C535 C 0.56028 0.98444 0.10645 0.0
H536 H 0.63444 0.95062 0.98325 0.0
C537 C 0.55544 0.03591 0.08792 0.0
C538 C 0.57806 0.0569 0.03039 0.0
H539 H 0.54003 0.96865 0.14742 0.0
H540 H 0.5323 0.05861 0.11673 0.0
C541 C 0.60775 0.02612 0.99488 0.0
C542 C 0.07281 0.01854 0.59147 0.0
C543 C 0.04759 0.05128 0.55023 0.0
H544 H 0.09713 0.94286 0.606 0.0
C545 C 0.02415 0.03097 0.49353 0.0
H546 H 0.09236 0.0337 0.63381 0.0
C547 C 0.02684 0.97856 0.47737 0.0
C548 C 0.05413 0.94631 0.51583 0.0
H549 H 1.0046 0.0558 0.4608 0.0
H550 H 1.00803 0.96376 0.43452 0.0
C551 C 0.07588 0.96656 0.57474 0.0
loop_
_geom_bond_atom_site_label_1
_geom_bond_atom_site_label_2
_geom_bond_distance
_geom_bond_site_symmetry_2
_ccdc_geom_bond_type
Zn0 N4 2.020 . S
Zn0 O8 2.027 . S
Zn0 N10 2.119 1_455 S
Zn0 O18 1.975 . S
C1 N2 1.334 . S
C1 N5 1.336 . S
N2 C1 1.334 . S
N2 C3 1.334 . S
C3 N2 1.334 . S
C3 N4 1.336 . S
N4 Zn0 2.020 . S
N4 C3 1.336 . S
N4 N5 1.354 . S
N5 C1 1.336 . S
N5 N4 1.354 . S
N5 Zn9 2.020 . S
C6 O7 1.244 . S
C6 O30 1.257 . S
O7 C6 1.244 . S
O8 Zn0 2.027 . S
O8 C28 1.279 . S
Zn9 N5 2.020 . S
Zn9 O16 1.975 . S
Zn9 N25 2.119 . S
Zn9 O30 2.019 . S
N10 Zn0 2.119 1_655 S
N10 C12 1.334 . S
N10 C13 1.328 . S
C11 C12 1.391 . S
C11 N14 1.329 . S
C11 H32 0.930 . S
C12 N10 1.334 . S
C12 C11 1.391 . S
C12 H19 0.930 . S
C13 N10 1.328 . S
C13 C15 1.392 . S
C13 H20 0.930 . S
N14 C11 1.329 . S
N14 C15 1.331 . S
C15 C13 1.392 . S
C15 N14 1.331 . S
O16 Zn9 1.975 . S
O16 C17 1.252 . S
C17 O16 1.252 . S
C17 O18 1.252 . S
O18 Zn0 1.975 . S
O18 C17 1.252 . S
H19 C12 0.930 . S
H20 C13 0.930 . S
C21 C22 1.392 . S
C21 N25 1.328 . S
C21 H27 0.930 . S
C22 C21 1.392 . S
C22 N26 1.331 . S
C23 C24 1.391 . S
C23 N26 1.329 . S
C23 H33 0.930 . S
C24 C23 1.391 . S
C24 N25 1.334 . S
C24 H31 0.930 . S
N25 Zn9 2.119 . S
N25 C21 1.328 . S
N25 C24 1.334 . S
N26 C22 1.331 . S
N26 C23 1.329 . S
H27 C21 0.930 . S
C28 O8 1.279 . S
C28 O29 1.244 . S
O29 C28 1.244 . S
O30 C6 1.257 . S
O30 Zn9 2.019 . S
H31 C24 0.930 . S
H32 C11 0.930 . S
H33 C23 0.930 . S
Zn34 N38 2.020 . S
Zn34 O42 2.019 . S
Zn34 N44 2.119 . S
Zn34 O52 1.975 . S
C35 N36 1.334 . S
C35 N39 1.336 . S
N36 C35 1.334 . S
N36 C37 1.334 . S
C37 N36 1.334 . S
C37 N38 1.336 . S
N38 Zn34 2.020 . S
N38 C37 1.336 . S
N38 N39 1.354 . S
N39 C35 1.336 . S
N39 N38 1.354 . S
N39 Zn43 2.020 . S
C40 O41 1.244 . S
C40 O64 1.257 . S
O41 C40 1.244 . S
O42 Zn34 2.019 . S
O42 C62 1.257 . S
Zn43 N39 2.020 . S
Zn43 O50 1.975 . S
Zn43 N59 2.119 . S
Zn43 O64 2.019 . S
N44 Zn34 2.119 . S
N44 C46 1.334 . S
N44 C47 1.328 . S
C45 C46 1.391 . S
C45 N48 1.329 . S
C45 H66 0.930 . S
C46 N44 1.334 . S
C46 C45 1.391 . S
C46 H53 0.930 . S
C47 N44 1.328 . S
C47 C49 1.392 . S
C47 H54 0.930 . S
N48 C45 1.329 . S
N48 C49 1.331 . S
C49 C47 1.392 . S
C49 N48 1.331 . S
O50 Zn43 1.975 . S
O50 C51 1.252 . S
C51 O50 1.252 . S
C51 O52 1.252 . S
O52 Zn34 1.975 . S
O52 C51 1.252 . S
H53 C46 0.930 . S
H54 C47 0.930 . S
C55 C56 1.392 . S
C55 N59 1.328 . S
C55 H61 0.930 . S
C56 C55 1.392 . S
C56 N60 1.331 . S
C57 C58 1.391 . S
C57 N60 1.329 . S
C57 H67 0.930 . S
C58 C57 1.391 . S
C58 N59 1.334 . S
C58 H65 0.930 . S
N59 Zn43 2.119 . S
N59 C55 1.328 . S
N59 C58 1.334 . S
N60 C56 1.331 . S
N60 C57 1.329 . S
H61 C55 0.930 . S
C62 O42 1.257 . S
C62 O63 1.244 . S
O63 C62 1.244 . S
O64 C40 1.257 . S
O64 Zn43 2.019 . S
H65 C58 0.930 . S
H66 C45 0.930 . S
H67 C57 0.930 . S
Zn68 N72 2.020 . S
Zn68 O76 2.027 . S
Zn68 N78 2.119 1_455 S
Zn68 O86 1.975 . S
C69 N70 1.334 . S
C69 N73 1.336 . S
N70 C69 1.334 . S
N70 C71 1.334 . S
C71 N70 1.334 . S
C71 N72 1.336 . S
N72 Zn68 2.020 . S
N72 C71 1.336 . S
N72 N73 1.354 . S
N73 C69 1.336 . S
N73 N72 1.354 . S
N73 Zn77 2.020 . S
C74 O75 1.244 . S
C74 O98 1.257 . S
O75 C74 1.244 . S
O76 Zn68 2.027 . S
O76 C96 1.279 . S
Zn77 N73 2.020 . S
Zn77 O84 1.975 . S
Zn77 N93 2.119 . S
Zn77 O98 2.019 . S
N78 Zn68 2.119 1_655 S
N78 C80 1.334 . S
N78 C81 1.328 . S
C79 C80 1.391 . S
C79 N82 1.329 . S
C79 H100 0.930 . S
C80 N78 1.334 . S
C80 C79 1.391 . S
C80 H87 0.930 . S
C81 N78 1.328 . S
C81 C83 1.392 . S
C81 H88 0.930 . S
N82 C79 1.329 . S
N82 C83 1.331 . S
C83 C81 1.392 . S
C83 N82 1.331 . S
O84 Zn77 1.975 . S
O84 C85 1.252 . S
C85 O84 1.252 . S
C85 O86 1.252 . S
O86 Zn68 1.975 . S
O86 C85 1.252 . S
H87 C80 0.930 . S
H88 C81 0.930 . S
C89 C90 1.392 . S
C89 N93 1.328 . S
C89 H95 0.930 . S
C90 C89 1.392 . S
C90 N94 1.331 . S
C91 C92 1.391 . S
C91 N94 1.329 . S
C91 H101 0.930 . S
C92 C91 1.391 . S
C92 N93 1.334 . S
C92 H99 0.930 . S
N93 Zn77 2.119 . S
N93 C89 1.328 . S
N93 C92 1.334 . S
N94 C90 1.331 . S
N94 C91 1.329 . S
H95 C89 0.930 . S
C96 O76 1.279 . S
C96 O97 1.244 . S
O97 C96 1.244 . S
O98 C74 1.257 . S
O98 Zn77 2.019 . S
H99 C92 0.930 . S
H100 C79 0.930 . S
H101 C91 0.930 . S
Zn102 N106 2.020 . S
Zn102 O110 2.019 . S
Zn102 N112 2.119 . S
Zn102 O120 1.975 . S
C103 N104 1.334 . S
C103 N107 1.336 . S
N104 C103 1.334 . S
N104 C105 1.334 . S
C105 N104 1.334 . S
C105 N106 1.336 . S
N106 Zn102 2.020 . S
N106 C105 1.336 . S
N106 N107 1.354 . S
N107 C103 1.336 . S
N107 N106 1.354 . S
N107 Zn111 2.020 . S
C108 O109 1.244 . S
C108 O132 1.257 . S
O109 C108 1.244 . S
O110 Zn102 2.019 . S
O110 C130 1.257 . S
Zn111 N107 2.020 . S
Zn111 O118 1.975 . S
Zn111 N127 2.119 . S
Zn111 O132 2.019 . S
N112 Zn102 2.119 . S
N112 C114 1.334 . S
N112 C115 1.328 . S
C113 C114 1.391 . S
C113 N116 1.329 . S
C113 H134 0.930 . S
C114 N112 1.334 . S
C114 C113 1.391 . S
C114 H121 0.930 . S
C115 N112 1.328 . S
C115 C117 1.392 . S
C115 H122 0.930 . S
N116 C113 1.329 . S
N116 C117 1.331 . S
C117 C115 1.392 . S
C117 N116 1.331 . S
O118 Zn111 1.975 . S
O118 C119 1.252 . S
C119 O118 1.252 . S
C119 O120 1.252 . S
O120 Zn102 1.975 . S
O120 C119 1.252 . S
H121 C114 0.930 . S
H122 C115 0.930 . S
C123 C124 1.392 . S
C123 N127 1.328 . S
C123 H129 0.930 . S
C124 C123 1.392 . S
C124 N128 1.331 . S
C125 C126 1.391 . S
C125 N128 1.329 . S
C125 H135 0.930 . S
C126 C125 1.391 . S
C126 N127 1.334 . S
C126 H133 0.930 . S
N127 Zn111 2.119 . S
N127 C123 1.328 . S
N127 C126 1.334 . S
N128 C124 1.331 . S
N128 C125 1.329 . S
H129 C123 0.930 . S
C130 O110 1.257 . S
C130 O131 1.244 . S
O131 C130 1.244 . S
O132 C108 1.257 . S
O132 Zn111 2.019 . S
H133 C126 0.930 . S
H134 C113 0.930 . S
H135 C125 0.930 . S
Zn136 N140 2.020 . S
Zn136 O144 2.019 . S
Zn136 N146 2.119 . S
Zn136 O154 1.975 . S
C137 N138 1.334 . S
C137 N141 1.336 . S
N138 C137 1.334 . S
N138 C139 1.334 . S
C139 N138 1.334 . S
C139 N140 1.336 . S
N140 Zn136 2.020 . S
N140 C139 1.336 . S
N140 N141 1.354 . S
N141 C137 1.336 . S
N141 N140 1.354 . S
N141 Zn145 2.020 . S
C142 O143 1.244 . S
C142 O166 1.257 . S
O143 C142 1.244 . S
O144 Zn136 2.019 . S
O144 C164 1.257 . S
Zn145 N141 2.020 . S
Zn145 O152 1.975 . S
Zn145 N161 2.119 . S
Zn145 O166 2.019 . S
N146 Zn136 2.119 . S
N146 C148 1.334 . S
N146 C149 1.328 . S
C147 C148 1.391 . S
C147 N150 1.329 . S
C147 H168 0.930 . S
C148 N146 1.334 . S
C148 C147 1.391 . S
C148 H155 0.930 . S
C149 N146 1.328 . S
C149 C151 1.392 . S
C149 H156 0.930 . S
N150 C147 1.329 . S
N150 C151 1.331 . S
C151 C149 1.392 . S
C151 N150 1.331 . S
O152 Zn145 1.975 . S
O152 C153 1.252 . S
C153 O152 1.252 . S
C153 O154 1.252 . S
O154 Zn136 1.975 . S
O154 C153 1.252 . S
H155 C148 0.930 . S
H156 C149 0.930 . S
C157 C158 1.392 . S
C157 N161 1.328 . S
C157 H163 0.930 . S
C158 C157 1.392 . S
C158 N162 1.331 . S
C159 C160 1.391 . S
C159 N162 1.329 . S
C159 H169 0.930 . S
C160 C159 1.391 . S
C160 N161 1.334 . S
C160 H167 0.930 . S
N161 Zn145 2.119 . S
N161 C157 1.328 . S
N161 C160 1.334 . S
N162 C158 1.331 . S
N162 C159 1.329 . S
H163 C157 0.930 . S
C164 O144 1.257 . S
C164 O165 1.244 . S
O165 C164 1.244 . S
O166 C142 1.257 . S
O166 Zn145 2.019 . S
H167 C160 0.930 . S
H168 C147 0.930 . S
H169 C159 0.930 . S
Zn170 N174 2.020 . S
Zn170 O178 2.019 1_455 S
Zn170 N180 2.119 1_455 S
Zn170 O188 1.975 . S
C171 N172 1.334 . S
C171 N175 1.336 . S
N172 C171 1.334 . S
N172 C173 1.334 . S
C173 N172 1.334 . S
C173 N174 1.336 . S
N174 Zn170 2.020 . S
N174 C173 1.336 . S
N174 N175 1.354 . S
N175 C171 1.336 . S
N175 N174 1.354 . S
N175 Zn179 2.020 . S
C176 O177 1.244 . S
C176 O200 1.257 . S
O177 C176 1.244 . S
O178 Zn170 2.019 1_655 S
O178 C198 1.257 1_655 S
Zn179 N175 2.020 . S
Zn179 O186 1.975 . S
Zn179 N195 2.119 . S
Zn179 O200 2.019 . S
N180 Zn170 2.119 1_655 S
N180 C182 1.334 . S
N180 C183 1.328 . S
C181 C182 1.391 . S
C181 N184 1.329 . S
C181 H202 0.930 . S
C182 N180 1.334 . S
C182 C181 1.391 . S
C182 H189 0.930 . S
C183 N180 1.328 . S
C183 C185 1.392 . S
C183 H190 0.930 . S
N184 C181 1.329 . S
N184 C185 1.331 . S
C185 C183 1.392 . S
C185 N184 1.331 . S
O186 Zn179 1.975 . S
O186 C187 1.252 . S
C187 O186 1.252 . S
C187 O188 1.252 . S
O188 Zn170 1.975 . S
O188 C187 1.252 . S
H189 C182 0.930 . S
H190 C183 0.930 . S
C191 C192 1.392 . S
C191 N195 1.328 . S
C191 H197 0.930 . S
C192 C191 1.392 . S
C192 N196 1.331 . S
C193 C194 1.391 . S
C193 N196 1.329 . S
C193 H203 0.930 . S
C194 C193 1.391 . S
C194 N195 1.334 . S
C194 H201 0.930 . S
N195 Zn179 2.119 . S
N195 C191 1.328 . S
N195 C194 1.334 . S
N196 C192 1.331 . S
N196 C193 1.329 . S
H197 C191 0.930 . S
C198 O178 1.257 1_455 S
C198 O199 1.244 . S
O199 C198 1.244 . S
O200 C176 1.257 . S
O200 Zn179 2.019 . S
H201 C194 0.930 . S
H202 C181 0.930 . S
H203 C193 0.930 . S
Zn204 N208 2.020 . S
Zn204 O212 2.019 . S
Zn204 N214 2.119 . S
Zn204 O222 1.975 . S
C205 N206 1.334 . S
C205 N209 1.336 . S
N206 C205 1.334 . S
N206 C207 1.334 . S
C207 N206 1.334 . S
C207 N208 1.336 . S
N208 Zn204 2.020 . S
N208 C207 1.336 . S
N208 N209 1.354 . S
N209 C205 1.336 . S
N209 N208 1.354 . S
N209 Zn213 2.020 . S
C210 O211 1.244 . S
C210 O234 1.257 . S
O211 C210 1.244 . S
O212 Zn204 2.019 . S
O212 C232 1.257 . S
Zn213 N209 2.020 . S
Zn213 O220 1.975 . S
Zn213 N229 2.119 . S
Zn213 O234 2.019 . S
N214 Zn204 2.119 . S
N214 C216 1.334 . S
N214 C217 1.328 . S
C215 C216 1.391 . S
C215 N218 1.329 . S
C215 H236 0.930 . S
C216 N214 1.334 . S
C216 C215 1.391 . S
C216 H223 0.930 . S
C217 N214 1.328 . S
C217 C219 1.392 . S
C217 H224 0.930 . S
N218 C215 1.329 . S
N218 C219 1.331 . S
C219 C217 1.392 . S
C219 N218 1.331 . S
O220 Zn213 1.975 . S
O220 C221 1.252 . S
C221 O220 1.252 . S
C221 O222 1.252 . S
O222 Zn204 1.975 . S
O222 C221 1.252 . S
H223 C216 0.930 . S
H224 C217 0.930 . S
C225 C226 1.392 . S
C225 N229 1.328 . S
C225 H231 0.930 . S
C226 C225 1.392 . S
C226 N230 1.331 . S
C227 C228 1.391 . S
C227 N230 1.329 . S
C227 H237 0.930 . S
C228 C227 1.391 . S
C228 N229 1.334 . S
C228 H235 0.930 . S
N229 Zn213 2.119 . S
N229 C225 1.328 . S
N229 C228 1.334 . S
N230 C226 1.331 . S
N230 C227 1.329 . S
H231 C225 0.930 . S
C232 O212 1.257 . S
C232 O233 1.244 . S
O233 C232 1.244 . S
O234 C210 1.257 . S
O234 Zn213 2.019 . S
H235 C228 0.930 . S
H236 C215 0.930 . S
H237 C227 0.930 . S
Zn238 N242 2.020 . S
Zn238 O246 2.019 . S
Zn238 N248 2.119 . S
Zn238 O256 1.975 . S
C239 N240 1.334 . S
C239 N243 1.336 . S
N240 C239 1.334 . S
N240 C241 1.334 . S
C241 N240 1.334 . S
C241 N242 1.336 . S
N242 Zn238 2.020 . S
N242 C241 1.336 . S
N242 N243 1.354 . S
N243 C239 1.336 . S
N243 N242 1.354 . S
N243 Zn247 2.020 . S
C244 O245 1.244 . S
C244 O268 1.257 1_455 S
O245 C244 1.244 . S
O246 Zn238 2.019 . S
O246 C266 1.257 . S
Zn247 N243 2.020 . S
Zn247 O254 1.975 . S
Zn247 N263 2.119 1_455 S
Zn247 O268 2.019 1_455 S
N248 Zn238 2.119 . S
N248 C250 1.334 . S
N248 C251 1.328 . S
C249 C250 1.391 . S
C249 N252 1.329 . S
C249 H270 0.930 . S
C250 N248 1.334 . S
C250 C249 1.391 . S
C250 H257 0.930 . S
C251 N248 1.328 . S
C251 C253 1.392 . S
C251 H258 0.930 . S
N252 C249 1.329 . S
N252 C253 1.331 . S
C253 C251 1.392 . S
C253 N252 1.331 . S
O254 Zn247 1.975 . S
O254 C255 1.252 . S
C255 O254 1.252 . S
C255 O256 1.252 . S
O256 Zn238 1.975 . S
O256 C255 1.252 . S
H257 C250 0.930 . S
H258 C251 0.930 . S
C259 C260 1.392 . S
C259 N263 1.328 . S
C259 H265 0.930 . S
C260 C259 1.392 . S
C260 N264 1.331 . S
C261 C262 1.391 . S
C261 N264 1.329 . S
C261 H271 0.930 . S
C262 C261 1.391 . S
C262 N263 1.334 . S
C262 H269 0.930 . S
N263 Zn247 2.119 1_655 S
N263 C259 1.328 . S
N263 C262 1.334 . S
N264 C260 1.331 . S
N264 C261 1.329 . S
H265 C259 0.930 . S
C266 O246 1.257 . S
C266 O267 1.244 . S
O267 C266 1.244 . S
O268 C244 1.257 1_655 S
O268 Zn247 2.019 1_655 S
H269 C262 0.930 . S
H270 C249 0.930 . S
H271 C261 0.930 . S
C272 C273 1.387 . S
C272 H276 0.950 . S
C272 C281 1.390 . S
C273 C272 1.387 . S
C273 C275 1.387 . S
H274 C281 0.950 . S
C275 C273 1.387 . S
C275 C277 1.390 . S
C275 H279 0.950 . S
H276 C272 0.950 . S
C277 C275 1.390 . S
C277 C278 1.387 . S
C277 H280 0.950 . S
C278 C277 1.387 . S
C278 C281 1.387 . S
H279 C275 0.950 . S
H280 C277 0.950 . S
C281 C272 1.390 . S
C281 H274 0.950 . S
C281 C278 1.387 . S
C282 C283 1.387 . S
C282 H286 0.950 . S
C282 C291 1.390 . S
C283 C282 1.387 . S
C283 C285 1.387 . S
H284 C291 0.950 . S
C285 C283 1.387 . S
C285 C287 1.390 . S
C285 H289 0.950 . S
H286 C282 0.950 . S
C287 C285 1.390 . S
C287 C288 1.387 . S
C287 H290 0.950 . S
C288 C287 1.387 . S
C288 C291 1.387 . S
H289 C285 0.950 . S
H290 C287 0.950 . S
C291 C282 1.390 . S
C291 H284 0.950 . S
C291 C288 1.387 . S
C292 C293 1.387 . S
C292 H296 0.950 . S
C292 C301 1.390 . S
C293 C292 1.387 . S
C293 C295 1.387 . S
H294 C301 0.950 . S
C295 C293 1.387 . S
C295 C297 1.390 . S
C295 H299 0.950 . S
H296 C292 0.950 . S
C297 C295 1.390 . S
C297 C298 1.387 . S
C297 H300 0.950 . S
C298 C297 1.387 . S
C298 C301 1.387 . S
H299 C295 0.950 . S
H300 C297 0.950 . S
C301 C292 1.390 . S
C301 H294 0.950 . S
C301 C298 1.387 . S
C302 C303 1.387 . S
C302 H306 0.950 . S
C302 C311 1.390 . S
C303 C302 1.387 . S
C303 C305 1.387 . S
H304 C311 0.950 . S
C305 C303 1.387 . S
C305 C307 1.390 . S
C305 H309 0.950 . S
H306 C302 0.950 . S
C307 C305 1.390 . S
C307 C308 1.387 . S
C307 H310 0.950 . S
C308 C307 1.387 . S
C308 C311 1.387 . S
H309 C305 0.950 . S
H310 C307 0.950 . S
C311 C302 1.390 . S
C311 H304 0.950 . S
C311 C308 1.387 . S
C312 C313 1.387 . S
C312 H316 0.950 . S
C312 C321 1.390 . S
C313 C312 1.387 . S
C313 C315 1.387 . S
H314 C321 0.950 . S
C315 C313 1.387 . S
C315 C317 1.390 . S
C315 H319 0.950 . S
H316 C312 0.950 . S
C317 C315 1.390 . S
C317 C318 1.387 . S
C317 H320 0.950 . S
C318 C317 1.387 . S
C318 C321 1.387 . S
H319 C315 0.950 . S
H320 C317 0.950 . S
C321 C312 1.390 . S
C321 H314 0.950 . S
C321 C318 1.387 . S
C322 C323 1.387 . S
C322 H326 0.950 . S
C322 C331 1.390 . S
C323 C322 1.387 . S
C323 C325 1.387 . S
H324 C331 0.950 . S
C325 C323 1.387 . S
C325 C327 1.390 . S
C325 H329 0.950 . S
H326 C322 0.950 . S
C327 C325 1.390 . S
C327 C328 1.387 . S
C327 H330 0.950 . S
C328 C327 1.387 . S
C328 C331 1.387 . S
H329 C325 0.950 . S
H330 C327 0.950 . S
C331 C322 1.390 . S
C331 H324 0.950 . S
C331 C328 1.387 . S
C332 C333 1.387 . S
C332 H336 0.950 . S
C332 C341 1.390 . S
C333 C332 1.387 . S
C333 C335 1.387 . S
H334 C341 0.950 . S
C335 C333 1.387 . S
C335 C337 1.390 . S
C335 H339 0.950 . S
H336 C332 0.950 . S
C337 C335 1.390 . S
C337 C338 1.387 . S
C337 H340 0.950 . S
C338 C337 1.387 . S
C338 C341 1.387 . S
H339 C335 0.950 . S
H340 C337 0.950 . S
C341 C332 1.390 . S
C341 H334 0.950 . S
C341 C338 1.387 . S
C342 C343 1.387 . S
C342 H346 0.950 . S
C342 C351 1.390 . S
C343 C342 1.387 . S
C343 C345 1.387 . S
H344 C351 0.950 . S
C345 C343 1.387 . S
C345 C347 1.390 . S
C345 H349 0.950 . S
H346 C342 0.950 . S
C347 C345 1.390 . S
C347 C348 1.387 . S
C347 H350 0.950 . S
C348 C347 1.387 . S
C348 C351 1.387 . S
H349 C345 0.950 . S
H350 C347 0.950 . S
C351 C342 1.390 . S
C351 H344 0.950 . S
C351 C348 1.387 . S
C352 C353 1.387 . S
C352 H356 0.950 . S
C352 C361 1.390 . S
C353 C352 1.387 . S
C353 C355 1.387 . S
H354 C361 0.950 . S
C355 C353 1.387 . S
C355 C357 1.390 . S
C355 H359 0.950 . S
H356 C352 0.950 . S
C357 C355 1.390 . S
C357 C358 1.387 . S
C357 H360 0.950 . S
C358 C357 1.387 . S
C358 C361 1.387 . S
H359 C355 0.950 . S
H360 C357 0.950 . S
C361 C352 1.390 . S
C361 H354 0.950 . S
C361 C358 1.387 . S
C362 C363 1.387 . S
C362 H366 0.950 . S
C362 C371 1.390 . S
C363 C362 1.387 . S
C363 C365 1.387 . S
H364 C371 0.950 . S
C365 C363 1.387 . S
C365 C367 1.390 . S
C365 H369 0.950 . S
H366 C362 0.950 . S
C367 C365 1.390 . S
C367 C368 1.387 . S
C367 H370 0.950 . S
C368 C367 1.387 . S
C368 C371 1.387 . S
H369 C365 0.950 . S
H370 C367 0.950 . S
C371 C362 1.390 . S
C371 H364 0.950 . S
C371 C368 1.387 . S
C372 C373 1.387 . S
C372 H376 0.950 . S
C372 C381 1.390 . S
C373 C372 1.387 . S
C373 C375 1.387 . S
H374 C381 0.950 . S
C375 C373 1.387 . S
C375 C377 1.390 . S
C375 H379 0.950 . S
H376 C372 0.950 . S
C377 C375 1.390 . S
C377 C378 1.387 . S
C377 H380 0.950 . S
C378 C377 1.387 . S
C378 C381 1.387 . S
H379 C375 0.950 . S
H380 C377 0.950 . S
C381 C372 1.390 . S
C381 H374 0.950 . S
C381 C378 1.387 . S
C382 C383 1.387 . S
C382 H386 0.950 . S
C382 C391 1.390 . S
C383 C382 1.387 . S
C383 C385 1.387 . S
H384 C391 0.950 . S
C385 C383 1.387 . S
C385 C387 1.390 . S
C385 H389 0.950 . S
H386 C382 0.950 . S
C387 C385 1.390 . S
C387 C388 1.387 . S
C387 H390 0.950 . S
C388 C387 1.387 . S
C388 C391 1.387 . S
H389 C385 0.950 . S
H390 C387 0.950 . S
C391 C382 1.390 . S
C391 H384 0.950 . S
C391 C388 1.387 . S
C392 C393 1.387 . S
C392 H396 0.950 . S
C392 C401 1.390 . S
C393 C392 1.387 . S
C393 C395 1.387 . S
H394 C401 0.950 . S
C395 C393 1.387 . S
C395 C397 1.390 . S
C395 H399 0.950 . S
H396 C392 0.950 . S
C397 C395 1.390 . S
C397 C398 1.387 . S
C397 H400 0.950 . S
C398 C397 1.387 . S
C398 C401 1.387 . S
H399 C395 0.950 . S
H400 C397 0.950 . S
C401 C392 1.390 . S
C401 H394 0.950 . S
C401 C398 1.387 . S
C402 C403 1.387 . S
C402 H406 0.950 . S
C402 C411 1.390 . S
C403 C402 1.387 . S
C403 C405 1.387 . S
H404 C411 0.950 . S
C405 C403 1.387 . S
C405 C407 1.390 . S
C405 H409 0.950 . S
H406 C402 0.950 . S
C407 C405 1.390 . S
C407 C408 1.387 . S
C407 H410 0.950 . S
C408 C407 1.387 . S
C408 C411 1.387 . S
H409 C405 0.950 . S
H410 C407 0.950 . S
C411 C402 1.390 . S
C411 H404 0.950 . S
C411 C408 1.387 . S
C412 C413 1.387 . S
C412 H416 0.950 . S
C412 C421 1.390 . S
C413 C412 1.387 . S
C413 C415 1.387 . S
H414 C421 0.950 . S
C415 C413 1.387 . S
C415 C417 1.390 . S
C415 H419 0.950 . S
H416 C412 0.950 . S
C417 C415 1.390 . S
C417 C418 1.387 . S
C417 H420 0.950 . S
C418 C417 1.387 . S
C418 C421 1.387 . S
H419 C415 0.950 . S
H420 C417 0.950 . S
C421 C412 1.390 . S
C421 H414 0.950 . S
C421 C418 1.387 . S
C422 C423 1.387 1_655 S
C422 H426 0.950 . S
C422 C431 1.390 . S
C423 C422 1.387 1_455 S
C423 C425 1.387 . S
H424 C431 0.950 . S
C425 C423 1.387 . S
C425 C427 1.390 . S
C425 H429 0.950 . S
H426 C422 0.950 . S
C427 C425 1.390 . S
C427 C428 1.387 . S
C427 H430 0.950 . S
C428 C427 1.387 . S
C428 C431 1.387 1_455 S
H429 C425 0.950 . S
H430 C427 0.950 . S
C431 C422 1.390 . S
C431 H424 0.950 . S
C431 C428 1.387 1_655 S
C432 C433 1.387 1_556 S
C432 H436 0.950 . S
C432 C441 1.390 . S
C433 C432 1.387 1_554 S
C433 C435 1.387 1_454 S
H434 C441 0.950 . S
C435 C433 1.387 1_656 S
C435 C437 1.390 1_655 S
C435 H439 0.950 1_556 S
H436 C432 0.950 . S
C437 C435 1.390 1_455 S
C437 C438 1.387 . S
C437 H440 0.950 1_455 S
C438 C437 1.387 . S
C438 C441 1.387 . S
H439 C435 0.950 1_554 S
H440 C437 0.950 1_655 S
C441 C432 1.390 . S
C441 H434 0.950 . S
C441 C438 1.387 . S
C442 C443 1.387 . S
C442 H446 0.950 . S
C442 C451 1.390 . S
C443 C442 1.387 . S
C443 C445 1.387 . S
H444 C451 0.950 . S
C445 C443 1.387 . S
C445 C447 1.390 . S
C445 H449 0.950 . S
H446 C442 0.950 . S
C447 C445 1.390 . S
C447 C448 1.387 . S
C447 H450 0.950 . S
C448 C447 1.387 . S
C448 C451 1.387 . S
H449 C445 0.950 . S
H450 C447 0.950 . S
C451 C442 1.390 . S
C451 H444 0.950 . S
C451 C448 1.387 . S
C452 C453 1.387 . S
C452 H456 0.950 . S
C452 C461 1.390 1_554 S
C453 C452 1.387 . S
C453 C455 1.387 . S
H454 C461 0.950 . S
C455 C453 1.387 . S
C455 C457 1.390 . S
C455 H459 0.950 1_455 S
H456 C452 0.950 . S
C457 C455 1.390 . S
C457 C458 1.387 1_554 S
C457 H460 0.950 1_455 S
C458 C457 1.387 1_556 S
C458 C461 1.387 . S
H459 C455 0.950 1_655 S
H460 C457 0.950 1_655 S
C461 C452 1.390 1_556 S
C461 H454 0.950 . S
C461 C458 1.387 . S
C462 C463 1.387 . S
C462 H466 0.950 . S
C462 C471 1.390 . S
C463 C462 1.387 . S
C463 C465 1.387 . S
H464 C471 0.950 . S
C465 C463 1.387 . S
C465 C467 1.390 . S
C465 H469 0.950 . S
H466 C462 0.950 . S
C467 C465 1.390 . S
C467 C468 1.387 . S
C467 H470 0.950 . S
C468 C467 1.387 . S
C468 C471 1.387 . S
H469 C465 0.950 . S
H470 C467 0.950 . S
C471 C462 1.390 . S
C471 H464 0.950 . S
C471 C468 1.387 . S
C472 C473 1.387 1_556 S
C472 H476 0.950 . S
C472 C481 1.390 . S
C473 C472 1.387 1_554 S
C473 C475 1.387 . S
H474 C481 0.950 . S
C475 C473 1.387 . S
C475 C477 1.390 1_554 S
C475 H479 0.950 . S
H476 C472 0.950 . S
C477 C475 1.390 1_556 S
C477 C478 1.387 . S
C477 H480 0.950 . S
C478 C477 1.387 . S
C478 C481 1.387 . S
H479 C475 0.950 . S
H480 C477 0.950 . S
C481 C472 1.390 . S
C481 H474 0.950 . S
C481 C478 1.387 . S
C482 C483 1.387 . S
C482 H486 0.936 1_455 S
C482 C491 1.390 . S
C483 C482 1.387 . S
C483 C485 1.387 . S
H484 C491 0.950 1_655 S
C485 C483 1.387 . S
C485 C487 1.390 . S
C485 H489 0.950 . S
H486 C482 0.936 1_655 S
C487 C485 1.390 . S
C487 C488 1.387 . S
C487 H490 0.950 . S
C488 C487 1.387 . S
C488 C491 1.387 . S
H489 C485 0.950 . S
H490 C487 0.950 . S
C491 C482 1.390 . S
C491 H484 0.950 1_455 S
C491 C488 1.387 . S
C492 C493 1.387 1_554 S
C492 H496 0.950 . S
C492 C501 1.390 . S
C493 C492 1.387 1_556 S
C493 C495 1.387 1_556 S
H494 C501 0.950 . S
C495 C493 1.387 1_554 S
C495 C497 1.390 . S
C495 H499 0.950 1_554 S
H496 C492 0.950 . S
C497 C495 1.390 . S
C497 C498 1.387 . S
C497 H500 0.950 . S
C498 C497 1.387 . S
C498 C501 1.387 . S
H499 C495 0.950 1_556 S
H500 C497 0.950 . S
C501 C492 1.390 . S
C501 H494 0.950 . S
C501 C498 1.387 . S
C502 C503 1.387 . S
C502 H506 0.950 . S
C502 C511 1.390 . S
C503 C502 1.387 . S
C503 C505 1.387 . S
H504 C511 0.950 . S
C505 C503 1.387 . S
C505 C507 1.390 . S
C505 H509 0.950 . S
H506 C502 0.950 . S
C507 C505 1.390 . S
C507 C508 1.387 . S
C507 H510 0.950 . S
C508 C507 1.387 . S
C508 C511 1.387 . S
H509 C505 0.950 . S
H510 C507 0.950 . S
C511 C502 1.390 . S
C511 H504 0.950 . S
C511 C508 1.387 . S
C512 C513 1.387 . S
C512 H516 0.950 . S
C512 C521 1.390 1_554 S
C513 C512 1.387 . S
C513 C515 1.387 . S
H514 C521 0.950 . S
C515 C513 1.387 . S
C515 C517 1.390 1_554 S
C515 H519 0.950 . S
H516 C512 0.950 . S
C517 C515 1.390 1_556 S
C517 C518 1.387 . S
C517 H520 0.950 . S
C518 C517 1.387 . S
C518 C521 1.387 . S
H519 C515 0.950 . S
H520 C517 0.950 . S
C521 C512 1.390 1_556 S
C521 H514 0.950 . S
C521 C518 1.387 . S
C522 C523 1.387 . S
C522 H526 0.950 . S
C522 C531 1.390 . S
C523 C522 1.387 . S
C523 C525 1.387 . S
H524 C531 0.950 . S
C525 C523 1.387 . S
C525 C527 1.390 . S
C525 H529 0.950 . S
H526 C522 0.950 . S
C527 C525 1.390 . S
C527 C528 1.387 . S
C527 H530 0.950 . S
C528 C527 1.387 . S
C528 C531 1.387 . S
H529 C525 0.950 . S
H530 C527 0.950 . S
C531 C522 1.390 . S
C531 H524 0.950 . S
C531 C528 1.387 . S
C532 C533 1.387 . S
C532 H536 0.950 . S
C532 C541 1.390 1_564 S
C533 C532 1.387 . S
C533 C535 1.387 . S
H534 C541 0.950 . S
C535 C533 1.387 . S
C535 C537 1.390 1_564 S
C535 H539 0.950 . S
H536 C532 0.950 . S
C537 C535 1.390 1_546 S
C537 C538 1.387 . S
C537 H540 0.950 . S
C538 C537 1.387 . S
C538 C541 1.387 . S
H539 C535 0.950 . S
H540 C537 0.950 . S
C541 C532 1.390 1_546 S
C541 H534 0.950 . S
C541 C538 1.387 . S
C542 C543 1.387 . S
C542 H546 0.950 . S
C542 C551 1.390 1_545 S
C543 C542 1.387 . S
C543 C545 1.387 1_455 S
H544 C551 0.950 . S
C545 C543 1.387 1_655 S
C545 C547 1.390 1_545 S
C545 H549 0.950 . S
H546 C542 0.950 . S
C547 C545 1.390 1_565 S
C547 C548 1.387 1_655 S
C547 H550 0.950 . S
C548 C547 1.387 1_455 S
C548 C551 1.387 . S
H549 C545 0.950 . S
H550 C547 0.950 . S
C551 C542 1.390 1_565 S
C551 H544 0.950 . S
C551 C548 1.387 . S
C273 C22 1.383 . S
C278 C124 1.383 . S
C283 C90 1.383 . S
C288 C49 1.383 . S
C293 C56 1.928 . S
C298 C83 1.928 . S
C303 C15 1.929 . S
C308 C117 1.929 . S
C313 C260 1.383 . S
C318 C158 1.383 . S
C323 C226 1.384 . S
C328 C185 1.384 . S
C333 C219 1.928 . S
C338 C192 1.928 . S
C343 C253 1.928 . S
C348 C151 1.928 . S
C353 C266 1.102 . S
C358 C6 1.117 . S
C363 C232 1.105 . S
C368 C62 1.118 . S
C373 C74 1.118 . S
C378 C176 1.104 . S
C383 C164 1.102 . S
C388 C108 1.118 . S
C393 C142 1.118 1_545 S
C398 C130 1.105 . S
C403 C96 1.104 . S
C408 C198 1.118 1_565 S
C413 C40 1.102 . S
C418 C210 1.118 1_565 S
C423 C28 1.102 . S
C428 C244 1.118 1_545 S
C433 C3 1.594 . S
C438 C187 1.660 . S
C443 C35 1.593 . S
C448 C153 1.660 . S
C453 C255 1.659 . S
C458 C71 1.592 . S
C463 C105 1.593 . S
C468 C221 1.660 . S
C473 C139 1.596 . S
C478 C51 1.659 . S
C483 C171 1.593 . S
C488 C17 1.660 . S
C493 C207 1.596 . S
C498 C119 1.657 . S
C503 C241 1.595 . S
C508 C85 1.659 . S
C513 C1 2.022 . S
C518 C69 2.022 . S
C523 C37 2.022 . S
C528 C103 2.022 . S
C533 C137 2.023 . S
C538 C205 2.023 . S
C543 C173 2.022 . S
C548 C239 2.022 . S
