# Generated by pormake.
# Topology ure, (4)-cn, num edge types: 1
# Building blocks:
#     Node 0, Type 0, BuildingBlock: UXUYUI_clean_sbu_0, # of connection points: 4
#     Node 1, Type 0, BuildingBlock: UXUYUI_clean_sbu_0, # of connection points: 4
#     Node 2, Type 0, BuildingBlock: UXUYUI_clean_sbu_0, # of connection points: 4
#     Node 3, Type 0, BuildingBlock: UXUYUI_clean_sbu_0, # of connection points: 4
#     Node 4, Type 0, BuildingBlock: UXUYUI_clean_sbu_0, # of connection points: 4
#     Node 5, Type 0, BuildingBlock: UXUYUI_clean_sbu_0, # of connection points: 4
#     Node 6, Type 0, BuildingBlock: UXUYUI_clean_sbu_0, # of connection points: 4
#     Node 7, Type 0, BuildingBlock: UXUYUI_clean_sbu_0, # of connection points: 4
#     Node 8, Type 0, BuildingBlock: UXUYUI_clean_sbu_0, # of connection points: 4
#     Node 9, Type 0, BuildingBlock: UXUYUI_clean_sbu_0, # of connection points: 4
#     Node 10, Type 0, BuildingBlock: UXUYUI_clean_sbu_0, # of connection points: 4
#     Node 11, Type 0, BuildingBlock: UXUYUI_clean_sbu_0, # of connection points: 4
#     Node 12, Type 0, BuildingBlock: UXUYUI_clean_sbu_0, # of connection points: 4
#     Node 13, Type 0, BuildingBlock: UXUYUI_clean_sbu_0, # of connection points: 4
#     Node 14, Type 0, BuildingBlock: UXUYUI_clean_sbu_0, # of connection points: 4
#     Node 15, Type 0, BuildingBlock: UXUYUI_clean_sbu_0, # of connection points: 4
#     Edge 16, Type (0, 0), BuildingBlock: EZIPEK_clean_linker_0, # of connection points: 2
#     Edge 17, Type (0, 0), BuildingBlock: EZIPEK_clean_linker_0, # of connection points: 2
#     Edge 18, Type (0, 0), BuildingBlock: EZIPEK_clean_linker_0, # of connection points: 2
#     Edge 19, Type (0, 0), BuildingBlock: EZIPEK_clean_linker_0, # of connection points: 2
#     Edge 20, Type (0, 0), BuildingBlock: EZIPEK_clean_linker_0, # of connection points: 2
#     Edge 21, Type (0, 0), BuildingBlock: EZIPEK_clean_linker_0, # of connection points: 2
#     Edge 22, Type (0, 0), BuildingBlock: EZIPEK_clean_linker_0, # of connection points: 2
#     Edge 23, Type (0, 0), BuildingBlock: EZIPEK_clean_linker_0, # of connection points: 2
#     Edge 24, Type (0, 0), BuildingBlock: EZIPEK_clean_linker_0, # of connection points: 2
#     Edge 25, Type (0, 0), BuildingBlock: EZIPEK_clean_linker_0, # of connection points: 2
#     Edge 26, Type (0, 0), BuildingBlock: EZIPEK_clean_linker_0, # of connection points: 2
#     Edge 27, Type (0, 0), BuildingBlock: EZIPEK_clean_linker_0, # of connection points: 2
#     Edge 28, Type (0, 0), BuildingBlock: EZIPEK_clean_linker_0, # of connection points: 2
#     Edge 29, Type (0, 0), BuildingBlock: EZIPEK_clean_linker_0, # of connection points: 2
#     Edge 30, Type (0, 0), BuildingBlock: EZIPEK_clean_linker_0, # of connection points: 2
#     Edge 31, Type (0, 0), BuildingBlock: EZIPEK_clean_linker_0, # of connection points: 2
#     Edge 32, Type (0, 0), BuildingBlock: EZIPEK_clean_linker_0, # of connection points: 2
#     Edge 33, Type (0, 0), BuildingBlock: EZIPEK_clean_linker_0, # of connection points: 2
#     Edge 34, Type (0, 0), BuildingBlock: EZIPEK_clean_linker_0, # of connection points: 2
#     Edge 35, Type (0, 0), BuildingBlock: EZIPEK_clean_linker_0, # of connection points: 2
#     Edge 36, Type (0, 0), BuildingBlock: EZIPEK_clean_linker_0, # of connection points: 2
#     Edge 37, Type (0, 0), BuildingBlock: EZIPEK_clean_linker_0, # of connection points: 2
#     Edge 38, Type (0, 0), BuildingBlock: EZIPEK_clean_linker_0, # of connection points: 2
#     Edge 39, Type (0, 0), BuildingBlock: EZIPEK_clean_linker_0, # of connection points: 2
#     Edge 40, Type (0, 0), BuildingBlock: EZIPEK_clean_linker_0, # of connection points: 2
#     Edge 41, Type (0, 0), BuildingBlock: EZIPEK_clean_linker_0, # of connection points: 2
#     Edge 42, Type (0, 0), BuildingBlock: EZIPEK_clean_linker_0, # of connection points: 2
#     Edge 43, Type (0, 0), BuildingBlock: EZIPEK_clean_linker_0, # of connection points: 2
#     Edge 44, Type (0, 0), BuildingBlock: EZIPEK_clean_linker_0, # of connection points: 2
#     Edge 45, Type (0, 0), BuildingBlock: EZIPEK_clean_linker_0, # of connection points: 2
#     Edge 46, Type (0, 0), BuildingBlock: EZIPEK_clean_linker_0, # of connection points: 2
#     Edge 47, Type (0, 0), BuildingBlock: EZIPEK_clean_linker_0, # of connection points: 2
# Relax obj value: 0.164
# Max RMSD: 0.090
# Mean RMSD: 0.090
data_MOF--net-ure--node1-UXUYUI_clean_sbu_0--edge1-EZIPEK_clean_linker_0
_symmetry_space_group_name_H-M    P1
_symmetry_Int_Tables_number       1
_symmetry_cell_setting            triclinic
loop_
_symmetry_equiv_pos_as_xyz
'x, y, z'
_cell_length_a     37.981443
_cell_length_b     37.922126
_cell_length_c     37.932045
_cell_angle_alpha  90.020668
_cell_angle_beta   90.095921
_cell_angle_gamma 90.150355
loop_
_atom_site_label
_atom_site_type_symbol
_atom_site_fract_x
_atom_site_fract_y
_atom_site_fract_z
_atom_type_partial_charge
Li0 Li 0.2589 0.30832 0.26039 0.0
Li1 Li 0.26077 0.25986 0.30435 0.0
Li2 Li 0.30404 0.26236 0.25843 0.0
Li3 Li 0.24286 0.24568 0.24399 0.0
C4 C 0.32611 0.31563 0.29957 0.0
N5 N 0.38948 0.351 0.30614 0.0
C6 C 0.34675 0.31124 0.32978 0.0
C7 C 0.33771 0.33802 0.27269 0.0
C8 C 0.37877 0.32924 0.33254 0.0
C9 C 0.36978 0.35574 0.27656 0.0
C10 C 0.18886 0.28544 0.29402 0.0
C11 C 0.12909 0.27033 0.30924 0.0
N12 N 0.12669 0.3005 0.32849 0.0
C13 C 0.18579 0.31636 0.31383 0.0
C14 C 0.16028 0.26228 0.29155 0.0
C15 C 0.15414 0.32348 0.33111 0.0
C16 C 0.23724 0.37097 0.22398 0.0
N17 N 0.24995 0.35742 0.25466 0.0
C18 C 0.25551 0.41511 0.27947 0.0
C19 C 0.25864 0.3786 0.28229 0.0
C20 C 0.24305 0.42989 0.24801 0.0
C21 C 0.23334 0.40748 0.22013 0.0
H22 H 0.23068 0.35348 0.20239 0.0
H23 H 0.26859 0.36711 0.3064 0.0
C24 C 0.28657 0.24006 0.37012 0.0
N25 N 0.25611 0.24945 0.35372 0.0
C26 C 0.28751 0.23533 0.40661 0.0
C27 C 0.22539 0.24882 0.40873 0.0
C28 C 0.22558 0.25297 0.37212 0.0
C29 C 0.25678 0.24053 0.42626 0.0
H30 H 0.31037 0.23701 0.35484 0.0
H31 H 0.20148 0.25967 0.35876 0.0
C32 C 0.28344 0.26643 0.18655 0.0
N33 N 0.30099 0.23767 0.12203 0.0
C34 C 0.29487 0.23148 0.18438 0.0
C35 C 0.28093 0.28674 0.15594 0.0
C36 C 0.3036 0.21742 0.1515 0.0
C37 C 0.28996 0.27173 0.12356 0.0
C38 C 0.27029 0.19196 0.29526 0.0
C39 C 0.29766 0.17198 0.30957 0.0
C40 C 0.23541 0.18366 0.3036 0.0
C41 C 0.28965 0.14411 0.33231 0.0
C42 C 0.22849 0.15562 0.32646 0.0
N43 N 0.25553 0.13661 0.34024 0.0
C44 C 0.37235 0.24125 0.27632 0.0
C45 C 0.36914 0.27016 0.22096 0.0
C46 C 0.40902 0.24012 0.27433 0.0
N47 N 0.35326 0.25624 0.24996 0.0
C48 C 0.40578 0.26932 0.21775 0.0
C49 C 0.42604 0.25459 0.24492 0.0
H50 H 0.35912 0.23153 0.29959 0.0
H51 H 0.35357 0.28307 0.20094 0.0
C52 C 0.18621 0.23283 0.19652 0.0
N53 N 0.21305 0.21734 0.21451 0.0
C54 C 0.16445 0.21267 0.17448 0.0
C55 C 0.19828 0.16103 0.18999 0.0
C56 C 0.21951 0.18219 0.21152 0.0
C57 C 0.17041 0.17631 0.17115 0.0
H58 H 0.1818 0.26087 0.19925 0.0
H59 H 0.24127 0.17057 0.22573 0.0
O60 O 0.29504 0.29759 0.29601 0.0
O61 O 0.2195 0.27801 0.27676 0.0
O62 O 0.27435 0.28074 0.21835 0.0
O63 O 0.27754 0.22002 0.2738 0.0
H64 H 0.33824 0.29407 0.35086 0.0
H65 H 0.32231 0.34135 0.24889 0.0
H66 H 0.39511 0.32584 0.35566 0.0
H67 H 0.37912 0.37308 0.25593 0.0
H68 H 0.10677 0.25262 0.30764 0.0
H69 H 0.20771 0.33445 0.31615 0.0
H70 H 0.16219 0.23833 0.27613 0.0
H71 H 0.15142 0.34723 0.34667 0.0
H72 H 0.26313 0.43172 0.30145 0.0
H73 H 0.22358 0.4182 0.19554 0.0
H74 H 0.31211 0.22882 0.41951 0.0
H75 H 0.20122 0.25278 0.42331 0.0
H76 H 0.29704 0.21535 0.20777 0.0
H77 H 0.27208 0.31383 0.15721 0.0
H78 H 0.31245 0.19041 0.14942 0.0
H79 H 0.28815 0.28715 0.09964 0.0
H80 H 0.32479 0.17795 0.30329 0.0
H81 H 0.21395 0.199 0.29286 0.0
H82 H 0.31057 0.12849 0.34368 0.0
H83 H 0.20163 0.14905 0.33332 0.0
H84 H 0.42404 0.22888 0.29585 0.0
H85 H 0.41828 0.28097 0.19488 0.0
H86 H 0.1432 0.22525 0.16019 0.0
H87 H 0.20362 0.13307 0.18787 0.0
Li88 Li 0.99951 0.06133 0.50426 0.0
Li89 Li 0.958 0.0137 0.5076 0.0
Li90 Li 1.00254 0.01713 0.55151 0.0
Li91 Li 0.01657 0.99851 0.48949 0.0
C92 C 0.96672 0.0789 0.56578 0.0
N93 N 0.96984 0.13418 0.61322 0.0
C94 C 0.93576 0.09459 0.57791 0.0
C95 C 0.9993 0.09146 0.5777 0.0
C96 C 0.93788 0.12248 0.6019 0.0
C97 C 1.0003 0.11937 0.60173 0.0
C98 C 0.96236 0.02896 0.43627 0.0
C99 C 0.94414 1.00057 0.38232 0.0
N100 N 0.91907 0.02572 0.37776 0.0
C101 C 0.93662 0.05469 0.43092 0.0
C102 C 0.96634 1.00177 0.41171 0.0
C103 C 0.9149 0.05251 0.40123 0.0
C104 C 0.03725 0.12563 0.49296 0.0
N105 N 1.00492 0.11022 0.49441 0.0
C106 C 0.97669 0.16628 0.4897 0.0
C107 C 0.97492 0.12965 0.49255 0.0
C108 C 0.00965 0.18291 0.48925 0.0
C109 C 0.04025 0.16232 0.49049 0.0
H110 H 0.06062 0.10956 0.49482 0.0
H111 H 0.94959 0.11676 0.49469 0.0
C112 C 0.88994 0.0106 0.53357 0.0
N113 N 0.90838 1.00368 0.50365 0.0
C114 C 0.85345 0.00649 0.53428 0.0
C115 C 0.85538 0.98728 0.47354 0.0
C116 C 0.89197 0.99124 0.47419 0.0
C117 C 0.83583 0.9954 0.50377 0.0
H118 H 0.90362 0.01962 0.55691 0.0
H119 H 0.90704 0.98448 0.45113 0.0
C120 C 0.07428 0.02294 0.53119 0.0
N121 N 0.13955 0.99954 0.55324 0.0
C122 C 0.08015 0.98696 0.53657 0.0
C123 C 0.10155 0.04703 0.53723 0.0
C124 C 0.11337 0.97565 0.54759 0.0
C125 C 0.13435 0.03468 0.54839 0.0
C126 C 0.96252 0.94831 0.52392 0.0
C127 C 0.94371 0.93878 0.55409 0.0
C128 C 0.95461 0.93223 0.49168 0.0
C129 C 0.91696 0.91354 0.55143 0.0
C130 C 0.92773 0.90705 0.49013 0.0
N131 N 0.90957 0.89836 0.51977 0.0
C132 C 0.98024 0.00883 0.62051 0.0
C133 C 0.04245 0.0129 0.61721 0.0
C134 C 0.98168 0.00719 0.65723 0.0
N135 N 0.01031 0.01161 0.60126 0.0
C136 C 0.04512 0.0111 0.65393 0.0
C137 C 0.01442 0.00843 0.67418 0.0
H138 H 0.955 0.00873 0.60728 0.0
H139 H 0.06602 0.01612 0.60181 0.0
C140 C 0.06478 0.98514 0.43385 0.0
N141 N 0.04573 0.96969 0.45999 0.0
C142 C 0.08619 0.96469 0.41193 0.0
C143 C 0.06806 0.91284 0.44431 0.0
C144 C 0.04706 0.93427 0.46561 0.0
C145 C 0.08786 0.92811 0.41714 0.0
H146 H 0.06327 0.01337 0.43002 0.0
H147 H 0.03195 0.92265 0.48678 0.0
O148 O 0.96491 0.0519 0.54182 0.0
O149 O 0.98412 0.03076 0.46495 0.0
O150 O 0.04206 0.03469 0.52023 0.0
O151 O 0.98798 0.97383 0.5257 0.0
H152 H 0.91033 0.08542 0.56874 0.0
H153 H 0.02359 0.07993 0.56848 0.0
H154 H 0.91411 0.13488 0.61147 0.0
H155 H 0.02532 0.12932 0.61117 0.0
H156 H 0.94681 0.97961 0.36316 0.0
H157 H 0.93321 0.07588 0.44964 0.0
H158 H 0.98624 0.98174 0.41535 0.0
H159 H 0.8947 0.0721 0.39687 0.0
H160 H 0.95266 0.18159 0.48917 0.0
H161 H 0.06604 0.17458 0.49039 0.0
H162 H 0.839 0.01274 0.55806 0.0
H163 H 0.84241 0.97831 0.44971 0.0
H164 H 0.05918 0.96801 0.5328 0.0
H165 H 0.09739 0.075 0.53357 0.0
H166 H 0.11827 0.94789 0.55185 0.0
H167 H 0.15566 0.05305 0.55322 0.0
H168 H 0.94953 0.95086 0.57925 0.0
H169 H 0.96864 0.93958 0.46799 0.0
H170 H 0.90204 0.90607 0.57453 0.0
H171 H 0.92113 0.89462 0.46531 0.0
H172 H 0.95754 0.00543 0.6723 0.0
H173 H 0.07074 0.01245 0.66646 0.0
H174 H 0.10125 0.97718 0.39116 0.0
H175 H 0.06894 0.88468 0.449 0.0
Li176 Li 0.20003 0.74528 0.75694 0.0
Li177 Li 0.26262 0.76389 0.74248 0.0
Li178 Li 0.24675 0.70043 0.75957 0.0
Li179 Li 0.24496 0.74777 0.80189 0.0
C180 C 0.21436 0.72993 0.68598 0.0
N181 N 0.17987 0.73356 0.62186 0.0
C182 C 0.21778 0.75991 0.66479 0.0
C183 C 0.19362 0.70168 0.67439 0.0
C184 C 0.20012 0.76124 0.63248 0.0
C185 C 0.17629 0.70408 0.64197 0.0
C186 C 0.22679 0.8129 0.79792 0.0
C187 C 0.25727 0.85631 0.83309 0.0
N188 N 0.22751 0.86129 0.85235 0.0
C189 C 0.19645 0.81857 0.81789 0.0
C190 C 0.25744 0.83196 0.80544 0.0
C191 C 0.19737 0.84312 0.84536 0.0
C192 C 0.13006 0.74562 0.77806 0.0
N193 N 0.15052 0.75226 0.74939 0.0
C194 C 0.09939 0.7646 0.71455 0.0
C195 C 0.13599 0.76237 0.71816 0.0
C196 C 0.07787 0.75668 0.74349 0.0
C197 C 0.09347 0.74747 0.77563 0.0
H198 H 0.14219 0.7384 0.80281 0.0
H199 H 0.15257 0.76853 0.69597 0.0
C200 C 0.31955 0.77751 0.69612 0.0
N201 N 0.29197 0.79264 0.7132 0.0
C202 C 0.34175 0.79797 0.67494 0.0
C203 C 0.30655 0.8491 0.68901 0.0
C204 C 0.28507 0.82769 0.70997 0.0
C205 C 0.3353 0.83418 0.67133 0.0
H206 H 0.32439 0.74958 0.69918 0.0
H207 H 0.26284 0.83899 0.72367 0.0
C208 C 0.19079 0.68057 0.79954 0.0
N209 N 0.15335 0.61882 0.80982 0.0
C210 C 0.19298 0.66272 0.83172 0.0
C211 C 0.16955 0.66699 0.77263 0.0
C212 C 0.17384 0.63155 0.8364 0.0
C213 C 0.15083 0.63575 0.77832 0.0
C214 C 0.31588 0.73394 0.79614 0.0
C215 C 0.32301 0.7085 0.82181 0.0
C216 C 0.33889 0.76245 0.79181 0.0
C217 C 0.35292 0.71219 0.843 0.0
C218 C 0.36858 0.76513 0.81345 0.0
N219 N 0.3749 0.74018 0.83841 0.0
C220 C 0.25466 0.63625 0.72088 0.0
C221 C 0.262 0.63205 0.78285 0.0
C222 C 0.25772 0.59966 0.71748 0.0
N223 N 0.25626 0.65152 0.7533 0.0
C224 C 0.26524 0.5955 0.78068 0.0
C225 C 0.26257 0.57901 0.74776 0.0
H226 H 0.25022 0.65235 0.69781 0.0
H227 H 0.26286 0.64481 0.8083 0.0
C228 C 0.2205 0.74884 0.87083 0.0
N229 N 0.24952 0.75728 0.85159 0.0
C230 C 0.22071 0.75241 0.90742 0.0
C231 C 0.28036 0.7745 0.90393 0.0
C232 C 0.2788 0.77097 0.86728 0.0
C233 C 0.25118 0.76468 0.92427 0.0
H234 H 0.19716 0.73903 0.85773 0.0
H235 H 0.30102 0.77902 0.85158 0.0
O236 O 0.23173 0.72803 0.71755 0.0
O237 O 0.22681 0.78805 0.77182 0.0
O238 O 0.20979 0.71088 0.79433 0.0
O239 O 0.28696 0.73062 0.77486 0.0
H240 H 0.23364 0.78204 0.67327 0.0
H241 H 0.1909 0.67812 0.69019 0.0
H242 H 0.20243 0.78433 0.6159 0.0
H243 H 0.16006 0.68248 0.63275 0.0
H244 H 0.28087 0.87107 0.83939 0.0
H245 H 0.17259 0.80386 0.8125 0.0
H246 H 0.28125 0.82758 0.79045 0.0
H247 H 0.17416 0.84762 0.86122 0.0
H248 H 0.08797 0.77208 0.68947 0.0
H249 H 0.07746 0.74148 0.79848 0.0
H250 H 0.36375 0.78574 0.66158 0.0
H251 H 0.30092 0.87698 0.68665 0.0
H252 H 0.20955 0.67264 0.85275 0.0
H253 H 0.16752 0.68045 0.74763 0.0
H254 H 0.17534 0.61744 0.86114 0.0
H255 H 0.13431 0.62496 0.75769 0.0
H256 H 0.30549 0.68634 0.82559 0.0
H257 H 0.3338 0.78244 0.77215 0.0
H258 H 0.35865 0.6928 0.86311 0.0
H259 H 0.38654 0.78711 0.81047 0.0
H260 H 0.25555 0.5875 0.69172 0.0
H261 H 0.26883 0.58014 0.80448 0.0
H262 H 0.19768 0.74494 0.92251 0.0
H263 H 0.30409 0.78449 0.91631 0.0
Li264 Li 0.50813 0.99117 0.05861 0.0
Li265 Li 0.50797 0.94942 0.01028 0.0
Li266 Li 0.55456 0.99392 0.01439 0.0
Li267 Li 0.49321 0.0105 0.99621 0.0
C268 C 0.55327 0.94078 0.07849 0.0
N269 N 0.57279 0.9106 0.14189 0.0
C270 C 0.53784 0.90913 0.08948 0.0
C271 C 0.57841 0.95723 0.09993 0.0
C272 C 0.54804 0.89432 0.12163 0.0
C273 C 0.58804 0.94146 0.13179 0.0
C274 C 0.4353 0.96304 0.01993 0.0
C275 C 0.38877 0.95175 0.97799 0.0
N276 N 0.37016 0.93475 1.00346 0.0
C277 C 0.41559 0.94564 0.04574 0.0
C278 C 0.42173 0.96624 0.9858 0.0
C279 C 0.38278 0.93142 0.03686 0.0
C280 C 0.51036 0.02519 0.12566 0.0
N281 N 0.49881 0.99622 0.10788 0.0
C282 C 0.48025 0.96909 0.16167 0.0
C283 C 0.48338 0.96873 0.125 0.0
C284 C 0.49314 0.99806 0.1807 0.0
C285 C 0.5078 0.02665 0.1624 0.0
H286 H 0.52247 0.0467 0.11147 0.0
H287 H 0.47482 0.94585 0.1103 0.0
C288 C 0.53307 0.88163 1.00143 0.0
N289 N 0.50247 0.90014 0.99956 0.0
C290 C 0.533 0.84505 0.99768 0.0
C291 C 0.46999 0.84705 0.98889 0.0
C292 C 0.47129 0.88369 0.99268 0.0
C293 C 0.50107 0.82746 0.992 0.0
H294 H 0.55751 0.89527 0.00694 0.0
H295 H 0.4473 0.8986 0.99091 0.0
C296 C 0.54665 0.062 0.03253 0.0
N297 N 0.59241 0.11874 0.03183 0.0
C298 C 0.54264 0.08868 0.00745 0.0
C299 C 0.57377 0.06427 0.0574 0.0
C300 C 0.56606 0.11716 0.00753 0.0
C301 C 0.59671 0.09312 0.05653 0.0
C302 C 0.53337 0.95492 0.94635 0.0
C303 C 0.5667 0.93983 0.94267 0.0
C304 C 0.50567 0.94335 0.92493 0.0
C305 C 0.57166 0.91305 0.91787 0.0
C306 C 0.51168 0.91648 0.90048 0.0
N307 N 0.54427 0.90199 0.89751 0.0
C308 C 0.62607 0.97778 0.02178 0.0
C309 C 0.6163 0.02986 0.98863 0.0
C310 C 0.66241 0.98209 0.019 0.0
N311 N 0.60384 1.00188 0.00737 0.0
C312 C 0.65259 0.03534 0.98538 0.0
C313 C 0.67589 0.01134 1.001 0.0
H314 H 0.6156 0.95504 0.03533 0.0
H315 H 0.59813 0.04802 0.97642 0.0
C316 C 0.4407 0.06218 0.98283 0.0
N317 N 0.46585 0.04176 0.96763 0.0
C318 C 0.41998 0.08455 0.96211 0.0
C319 C 0.45146 0.06445 0.91055 0.0
C320 C 0.47166 0.04258 0.93225 0.0
C321 C 0.42525 0.08568 0.92551 0.0
H322 H 0.43663 0.06091 0.01102 0.0
H323 H 0.49183 0.02606 0.92088 0.0
O324 O 0.5441 0.95542 0.04678 0.0
O325 O 0.4673 0.97747 0.02834 0.0
O326 O 0.52412 0.03381 0.03271 0.0
O327 O 0.52773 0.98034 0.97129 0.0
H328 H 0.51797 0.89626 0.07355 0.0
H329 H 0.59044 0.98185 0.09201 0.0
H330 H 0.53626 0.86988 0.13047 0.0
H331 H 0.60757 0.95382 0.14856 0.0
H332 H 0.37804 0.95394 0.95164 0.0
H333 H 0.42548 0.9431 0.07234 0.0
H334 H 0.43651 0.97944 0.96542 0.0
H335 H 0.36731 0.91779 0.05656 0.0
H336 H 0.46896 0.94658 0.17515 0.0
H337 H 0.518 0.04934 0.17648 0.0
H338 H 0.55738 0.83052 1.0003 0.0
H339 H 0.44495 0.83401 0.98452 0.0
H340 H 0.52177 0.08735 0.98804 0.0
H341 H 0.57737 0.04375 0.07686 0.0
H342 H 0.56334 0.13796 0.98822 0.0
H343 H 0.61799 0.09508 0.07543 0.0
H344 H 0.58842 0.94838 0.95907 0.0
H345 H 0.47974 0.95476 0.92735 0.0
H346 H 0.59726 0.90097 0.91491 0.0
H347 H 0.49043 0.90709 0.88392 0.0
H348 H 0.67986 0.9629 0.03088 0.0
H349 H 0.66239 0.05794 0.97094 0.0
H350 H 0.39994 0.10066 0.9744 0.0
H351 H 0.45612 0.06475 0.88239 0.0
Li352 Li 0.24862 0.76663 0.26069 0.0
Li353 Li 0.26207 0.70502 0.24105 0.0
Li354 Li 0.30712 0.74821 0.24573 0.0
Li355 Li 0.26615 0.75274 0.19818 0.0
C356 C 0.2997 0.73496 0.31267 0.0
N357 N 0.34653 0.74569 0.36755 0.0
C358 C 0.32244 0.70799 0.32313 0.0
C359 C 0.30077 0.76739 0.33021 0.0
C360 C 0.34598 0.71395 0.35086 0.0
C361 C 0.32456 0.77227 0.35792 0.0
C362 C 0.19112 0.72789 0.23865 0.0
C363 C 0.12772 0.72573 0.23521 0.0
N364 N 0.12661 0.71114 0.26794 0.0
C365 C 0.18933 0.71292 0.2723 0.0
C366 C 0.16006 0.73443 0.21998 0.0
C367 C 0.15648 0.70462 0.28662 0.0
C368 C 0.20572 0.82593 0.27504 0.0
N369 N 0.21844 0.79551 0.28909 0.0
C370 C 0.18846 0.8067 0.3434 0.0
C371 C 0.20997 0.78541 0.32245 0.0
C372 C 0.17544 0.83843 0.32968 0.0
C373 C 0.18407 0.84799 0.29505 0.0
H374 H 0.21267 0.83318 0.24835 0.0
H375 H 0.22015 0.76093 0.33289 0.0
C376 C 0.27919 0.63506 0.25672 0.0
N377 N 0.25222 0.65542 0.24492 0.0
C378 C 0.27598 0.5984 0.25732 0.0
C379 C 0.21749 0.60401 0.23279 0.0
C380 C 0.22173 0.64065 0.23293 0.0
C381 C 0.24492 0.58256 0.24503 0.0
H382 H 0.30368 0.64728 0.26454 0.0
H383 H 0.20113 0.6571 0.22229 0.0
C384 C 0.30566 0.81848 0.23296 0.0
N385 N 0.35377 0.8728 0.24037 0.0
C386 C 0.33391 0.8215 0.20957 0.0
C387 C 0.3017 0.84329 0.25994 0.0
C388 C 0.35804 0.84905 0.21384 0.0
C389 C 0.32632 0.87054 0.26325 0.0
C390 C 0.29722 0.69091 0.17928 0.0
C391 C 0.32742 0.67692 0.16357 0.0
C392 C 0.26407 0.68143 0.16615 0.0
C393 C 0.32393 0.65342 0.13538 0.0
C394 C 0.26168 0.65785 0.13795 0.0
N395 N 0.29141 0.64443 0.12328 0.0
C396 C 0.37732 0.72699 0.24361 0.0
C397 C 0.3704 0.77965 0.27648 0.0
C398 C 0.41373 0.72828 0.24818 0.0
N399 N 0.35649 0.75286 0.25694 0.0
C400 C 0.40676 0.78193 0.28182 0.0
C401 C 0.42874 0.75627 0.26703 0.0
H402 H 0.36564 0.70538 0.22926 0.0
H403 H 0.35347 0.79948 0.28768 0.0
C404 C 0.22848 0.76163 0.13375 0.0
N405 N 0.26066 0.76325 0.14946 0.0
C406 C 0.2256 0.76404 0.09708 0.0
C407 C 0.28885 0.77096 0.09371 0.0
C408 C 0.29054 0.76797 0.13032 0.0
C409 C 0.25615 0.76835 0.0768 0.0
H410 H 0.20528 0.75702 0.14954 0.0
H411 H 0.31584 0.76778 0.14334 0.0
O412 O 0.27694 0.72994 0.28506 0.0
O413 O 0.22295 0.7369 0.22427 0.0
O414 O 0.28169 0.79174 0.22922 0.0
O415 O 0.30035 0.71448 0.2066 0.0
H416 H 0.32218 0.68279 0.3099 0.0
H417 H 0.28396 0.78885 0.3221 0.0
H418 H 0.36385 0.69335 0.35908 0.0
H419 H 0.32578 0.7973 0.37155 0.0
H420 H 0.10349 0.73065 0.22104 0.0
H421 H 0.21297 0.70764 0.28723 0.0
H422 H 0.16088 0.74623 0.19403 0.0
H423 H 0.15474 0.693 0.3126 0.0
H424 H 0.18211 0.79861 0.37002 0.0
H425 H 0.17431 0.87231 0.28375 0.0
H426 H 0.29781 0.58247 0.26644 0.0
H427 H 0.1934 0.59247 0.22266 0.0
H428 H 0.33756 0.80243 0.18876 0.0
H429 H 0.28002 0.84142 0.27828 0.0
H430 H 0.38022 0.85149 0.19615 0.0
H431 H 0.32367 0.88982 0.28409 0.0
H432 H 0.35336 0.68428 0.17278 0.0
H433 H 0.24034 0.69227 0.17737 0.0
H434 H 0.3471 0.64242 0.12305 0.0
H435 H 0.23618 0.65032 0.12764 0.0
H436 H 0.43008 0.70787 0.23681 0.0
H437 H 0.41768 0.80369 0.29682 0.0
H438 H 0.20005 0.7616 0.08458 0.0
H439 H 0.31288 0.77378 0.07861 0.0
Li440 Li 0.56141 0.00757 0.50098 0.0
Li441 Li 0.51932 0.05565 0.50217 0.0
Li442 Li 0.50056 0.99295 0.51633 0.0
Li443 Li 0.51627 0.01229 0.45494 0.0
C444 C 0.54816 0.01753 0.57428 0.0
N445 N 0.57711 1.00285 0.63953 0.0
C446 C 0.56409 0.04435 0.59399 0.0
C447 C 0.54669 0.98331 0.5879 0.0
C448 C 0.57868 0.03637 0.62687 0.0
C449 C 0.56151 0.97641 0.62091 0.0
C450 C 0.56927 0.07657 0.45689 0.0
C451 C 0.56648 0.13184 0.42554 0.0
N452 N 0.59848 0.14093 0.43895 0.0
C453 C 0.60217 0.08644 0.47032 0.0
C454 C 0.55125 0.09946 0.43434 0.0
C455 C 0.61646 0.11911 0.46096 0.0
C456 C 0.62791 0.99521 0.4743 0.0
N457 N 0.61069 0.99725 0.50567 0.0
C458 C 0.66516 0.99244 0.53704 0.0
C459 C 0.62848 0.99531 0.53679 0.0
C460 C 0.68341 0.99121 0.50499 0.0
C461 C 0.66445 0.99181 0.47332 0.0
H462 H 0.6133 0.99757 0.44993 0.0
H463 H 0.61466 0.99711 0.56146 0.0
C464 C 0.48316 0.1212 0.50462 0.0
N465 N 0.51377 0.10452 0.51275 0.0
C466 C 0.48052 0.15777 0.50834 0.0
C467 C 0.5406 0.15911 0.52956 0.0
C468 C 0.54196 0.12252 0.52578 0.0
C469 C 0.50975 0.17703 0.5203 0.0
H470 H 0.46113 0.10627 0.4944 0.0
H471 H 0.56596 0.1086 0.53201 0.0
C472 C 0.55463 0.9432 0.47437 0.0
N473 N 0.60515 0.89254 0.46149 0.0
C474 C 0.5674 0.93813 0.44021 0.0
C475 C 0.56721 0.92221 0.5019 0.0
C476 C 0.59301 0.91244 0.43426 0.0
C477 C 0.59287 0.89684 0.49488 0.0
C478 C 0.44837 0.02919 0.46393 0.0
C479 C 0.42274 1.00288 0.46715 0.0
C480 C 0.44491 0.05498 0.43785 0.0
C481 C 0.39414 1.00265 0.44393 0.0
C482 C 0.41598 0.05377 0.41508 0.0
N483 N 0.39142 0.02785 0.41857 0.0
C484 C 0.45302 0.97855 0.57211 0.0
C485 C 0.46607 0.92939 0.53576 0.0
C486 C 0.43089 0.95782 0.5931 0.0
N487 N 0.47006 0.96406 0.54414 0.0
C488 C 0.44415 0.90772 0.55601 0.0
C489 C 0.42636 0.92199 0.58505 0.0
H490 H 0.45678 0.00618 0.57818 0.0
H491 H 0.47998 0.91859 0.51338 0.0
C492 C 0.53174 0.02216 0.38358 0.0
N493 N 0.50811 0.0064 0.40544 0.0
C494 C 0.52781 0.01981 0.34713 0.0
C495 C 0.4758 0.98402 0.35599 0.0
C496 C 0.48083 0.98697 0.39244 0.0
C497 C 0.49945 1.0008 0.33309 0.0
H498 H 0.55393 0.03633 0.39442 0.0
H499 H 0.46302 0.97376 0.41029 0.0
O500 O 0.53367 0.02496 0.54211 0.0
O501 O 0.55487 0.04461 0.4656 0.0
O502 O 0.53019 0.96881 0.48088 0.0
O503 O 0.47667 0.02969 0.48626 0.0
H504 H 0.56526 0.07102 0.584 0.0
H505 H 0.53438 0.96225 0.57316 0.0
H506 H 0.59123 0.05684 0.64233 0.0
H507 H 0.56064 0.95003 0.63171 0.0
H508 H 0.55284 0.14977 0.40808 0.0
H509 H 0.61639 0.06928 0.48805 0.0
H510 H 0.52577 0.09228 0.42375 0.0
H511 H 0.64183 0.12712 0.47125 0.0
H512 H 0.67924 0.99211 0.5619 0.0
H513 H 0.67792 0.99119 0.44819 0.0
H514 H 0.45639 0.17104 0.50094 0.0
H515 H 0.56359 0.17338 0.53877 0.0
H516 H 0.55794 0.9541 0.41858 0.0
H517 H 0.55748 0.92562 0.52843 0.0
H518 H 0.60332 0.9084 0.408 0.0
H519 H 0.60304 0.88059 0.51598 0.0
H520 H 0.42498 0.98276 0.48725 0.0
H521 H 0.46453 0.0755 0.43499 0.0
H522 H 0.37415 0.98238 0.44603 0.0
H523 H 0.4131 0.0734 0.3946 0.0
H524 H 0.41749 0.96953 0.61539 0.0
H525 H 0.44116 0.88013 0.54919 0.0
H526 H 0.54676 0.03258 0.33001 0.0
H527 H 0.45392 0.96875 0.34576 0.0
Li528 Li 0.26715 0.24611 0.76443 0.0
Li529 Li 0.25081 0.30365 0.743 0.0
Li530 Li 0.2054 0.26111 0.75167 0.0
Li531 Li 0.24761 0.25689 0.70008 0.0
C532 C 0.22963 0.27074 0.82196 0.0
N533 N 0.21635 0.24715 0.88959 0.0
C534 C 0.23815 0.29187 0.85096 0.0
C535 C 0.21439 0.23764 0.82739 0.0
C536 C 0.23123 0.27948 0.88494 0.0
C537 C 0.20784 0.22618 0.86175 0.0
C538 C 0.318 0.29667 0.727 0.0
C539 C 0.36124 0.33305 0.69791 0.0
N540 N 0.37251 0.34494 0.72985 0.0
C541 C 0.33015 0.30904 0.75954 0.0
C542 C 0.33373 0.30858 0.69591 0.0
C543 C 0.35768 0.33353 0.76042 0.0
C544 C 0.30597 0.18494 0.78239 0.0
N545 N 0.2976 0.218 0.79346 0.0
C546 C 0.33101 0.20991 0.84643 0.0
C547 C 0.30998 0.23088 0.82462 0.0
C548 C 0.3396 0.17557 0.83584 0.0
C549 C 0.32706 0.16312 0.80332 0.0
H550 H 0.29602 0.17542 0.7574 0.0
H551 H 0.30343 0.25737 0.83269 0.0
C552 C 0.2499 0.37134 0.77462 0.0
N553 N 0.2592 0.35348 0.74499 0.0
C554 C 0.25198 0.40812 0.77553 0.0
C555 C 0.27355 0.40741 0.71559 0.0
C556 C 0.27102 0.37068 0.71581 0.0
C557 C 0.2636 0.42641 0.74561 0.0
H558 H 0.23981 0.3571 0.79711 0.0
H559 H 0.27729 0.35597 0.69225 0.0
C560 C 0.21432 0.18834 0.73204 0.0
N561 N 0.17713 0.12577 0.72657 0.0
C562 C 0.19552 0.18047 0.70132 0.0
C563 C 0.21486 0.16393 0.75968 0.0
C564 C 0.17668 0.14886 0.69915 0.0
C565 C 0.19572 0.13257 0.75649 0.0
C566 C 0.19732 0.32321 0.70082 0.0
C567 C 0.17445 0.34093 0.72352 0.0
C568 C 0.20555 0.33789 0.66805 0.0
C569 C 0.16019 0.3732 0.71303 0.0
C570 C 0.19087 0.37028 0.65861 0.0
N571 N 0.16866 0.38709 0.68109 0.0
C572 C 0.1418 0.27006 0.79166 0.0
C573 C 0.13573 0.24203 0.73609 0.0
C574 C 0.10529 0.27 0.79625 0.0
N575 N 0.15628 0.25594 0.76202 0.0
C576 C 0.09917 0.24144 0.73958 0.0
C577 C 0.0837 0.25581 0.76982 0.0
H578 H 0.15831 0.28276 0.81108 0.0
H579 H 0.14761 0.23284 0.71198 0.0
C580 C 0.28306 0.23829 0.63637 0.0
N581 N 0.25147 0.24582 0.65139 0.0
C582 C 0.28569 0.23465 0.59975 0.0
C583 C 0.2231 0.24547 0.5951 0.0
C584 C 0.22172 0.24912 0.63167 0.0
C585 C 0.25546 0.23871 0.57885 0.0
H586 H 0.30634 0.23621 0.65269 0.0
H587 H 0.19708 0.25564 0.64432 0.0
O588 O 0.23714 0.28217 0.78857 0.0
O589 O 0.29064 0.27323 0.72564 0.0
O590 O 0.23322 0.21909 0.73445 0.0
O591 O 0.21163 0.29165 0.71065 0.0
H592 H 0.25034 0.31743 0.84729 0.0
H593 H 0.20722 0.22127 0.80529 0.0
H594 H 0.23779 0.29552 0.90762 0.0
H595 H 0.19593 0.20064 0.86627 0.0
H596 H 0.37354 0.34268 0.67407 0.0
H597 H 0.31807 0.30022 0.78381 0.0
H598 H 0.32453 0.29936 0.67051 0.0
H599 H 0.36718 0.34355 0.7854 0.0
H600 H 0.34042 0.2203 0.87134 0.0
H601 H 0.33335 0.13675 0.79438 0.0
H602 H 0.24384 0.42222 0.79897 0.0
H603 H 0.28227 0.42092 0.692 0.0
H604 H 0.1952 0.19871 0.67946 0.0
H605 H 0.23006 0.16893 0.78329 0.0
H606 H 0.16175 0.14264 0.67563 0.0
H607 H 0.19577 0.11357 0.77776 0.0
H608 H 0.16801 0.33005 0.74907 0.0
H609 H 0.2234 0.32461 0.65028 0.0
H610 H 0.14253 0.38728 0.73036 0.0
H611 H 0.19719 0.38208 0.63344 0.0
H612 H 0.09395 0.28192 0.81955 0.0
H613 H 0.08304 0.23093 0.71845 0.0
H614 H 0.31106 0.22967 0.58777 0.0
H615 H 0.19943 0.24902 0.57954 0.0
Li616 Li 0.99672 0.99592 0.94879 0.0
Li617 Li 0.01091 0.01625 0.00924 0.0
Li618 Li 0.99254 0.95329 0.99678 0.0
Li619 Li 0.94884 1.00109 0.99498 0.0
C620 C 0.06493 0.97826 0.96014 0.0
N621 N 0.12431 0.97672 0.91819 0.0
C622 C 0.09065 1.00449 0.96347 0.0
C623 C 0.06957 0.95106 0.93573 0.0
C624 C 0.12046 1.00327 0.94198 0.0
C625 C 0.09971 0.95082 0.91466 0.0
C626 C 0.97833 0.07416 0.97167 0.0
C627 C 0.95709 0.13043 0.99211 0.0
N628 N 0.97664 0.14684 0.96694 0.0
C629 C 0.99789 0.09154 0.94575 0.0
C630 C 0.95746 0.0937 0.99482 0.0
C631 C 0.99682 0.12831 0.94388 0.0
C632 C 0.9781 0.98917 0.87798 0.0
N633 N 1.00449 1.00119 0.89914 0.0
C634 C 0.03831 0.0183 0.84873 0.0
C635 C 0.03402 0.01615 0.8853 0.0
C636 C 0.01171 0.00534 0.82653 0.0
C637 C 0.98125 0.99084 0.84141 0.0
H638 H 0.95447 0.9783 0.88949 0.0
H639 H 0.0542 0.02651 0.90252 0.0
C640 C 0.04916 0.03482 0.07083 0.0
N641 N 0.04054 0.04623 0.03791 0.0
C642 C 0.07026 0.05559 0.09292 0.0
C643 C 0.07362 0.0994 0.04683 0.0
C644 C 0.05261 0.07772 0.02557 0.0
C645 C 0.08258 0.08836 0.08095 0.0
H646 H 0.03959 0.00954 0.07996 0.0
H647 H 0.04631 0.08596 0.99911 0.0
C648 C 0.94414 0.9322 0.94805 0.0
N649 N 0.91751 0.86865 0.92408 0.0
C650 C 0.91021 0.9215 0.95754 0.0
C651 C 0.96442 0.91068 0.92615 0.0
C652 C 0.89725 0.88924 0.94522 0.0
C653 C 0.95051 0.87864 0.91435 0.0
C654 C 0.9622 0.99355 0.06728 0.0
C655 C 0.94976 0.96709 0.0897 0.0
C656 C 0.95905 0.02889 0.07718 0.0
C657 C 0.93392 0.9765 0.12155 0.0
C658 C 0.9431 0.03722 0.10926 0.0
N659 N 0.93093 0.01108 0.13058 0.0
C660 C 0.02733 0.88695 1.00162 0.0
C661 C 0.96753 0.88744 0.0196 0.0
C662 C 0.02869 0.85032 0.00548 0.0
N663 N 0.99686 0.90454 0.00807 0.0
C664 C 0.96761 0.85082 0.02347 0.0
C665 C 0.99833 0.83196 0.01586 0.0
H666 H 0.05025 0.9012 0.99253 0.0
H667 H 0.94368 0.90214 0.02451 0.0
C668 C 0.88478 0.03378 0.97776 0.0
N669 N 0.90022 0.01108 1.0008 0.0
C670 C 0.84823 0.03787 0.97753 0.0
C671 C 0.8443 0.99571 0.02522 0.0
C672 C 0.88088 0.99236 0.02448 0.0
C673 C 0.82772 0.01822 1.00112 0.0
H674 H 0.90075 0.04763 0.95864 0.0
H675 H 0.89361 0.97353 0.04157 0.0
O676 O 0.0356 0.97903 0.98099 0.0
O677 O 0.97887 0.03816 0.97365 0.0
O678 O 0.95724 0.9638 0.95972 0.0
O679 O 0.97755 0.98477 0.03591 0.0
H680 H 0.0876 0.0256 0.98237 0.0
H681 H 0.05006 0.93045 0.93294 0.0
H682 H 0.14051 0.02347 0.94418 0.0
H683 H 0.10354 0.93004 0.89551 0.0
H684 H 0.94114 0.14589 0.00992 0.0
H685 H 0.01396 0.0768 0.92746 0.0
H686 H 0.94146 0.08066 0.01446 0.0
H687 H 0.01201 0.14212 0.92411 0.0
H688 H 0.06199 0.02995 0.83788 0.0
H689 H 0.96016 0.98094 0.82485 0.0
H690 H 0.07687 0.04626 0.11909 0.0
H691 H 0.08294 0.12444 0.03672 0.0
H692 H 0.89404 0.93789 0.97426 0.0
H693 H 0.99057 0.9187 0.91828 0.0
H694 H 0.87106 0.8806 0.95242 0.0
H695 H 0.96595 0.86171 0.89744 0.0
H696 H 0.95216 0.93959 0.08247 0.0
H697 H 0.96902 0.04962 0.06039 0.0
H698 H 0.92401 0.95631 0.13909 0.0
H699 H 0.94046 0.06448 0.11724 0.0
H700 H 0.05274 0.83633 0.99936 0.0
H701 H 0.94379 0.83726 0.03145 0.0
H702 H 0.836 0.05521 0.95844 0.0
H703 H 0.82899 0.97992 0.04342 0.0
Li704 Li 0.75033 0.26857 0.76458 0.0
Li705 Li 0.76497 0.20639 0.74498 0.0
Li706 Li 0.80993 0.2514 0.74794 0.0
Li707 Li 0.76748 0.25338 0.70148 0.0
C708 C 0.80539 0.22905 0.81284 0.0
N709 N 0.85872 0.22266 0.86197 0.0
C710 C 0.82529 0.19815 0.81447 0.0
C711 C 0.81242 0.25662 0.83628 0.0
C712 C 0.85222 0.19547 0.83946 0.0
C713 C 0.83952 0.25287 0.86095 0.0
C714 C 0.69673 0.21597 0.73124 0.0
C715 C 0.6638 0.16523 0.7113 0.0
N716 N 0.63944 0.17125 0.73684 0.0
C717 C 0.67133 0.2217 0.75723 0.0
C718 C 0.69289 0.18759 0.70798 0.0
C719 C 0.64256 0.19879 0.75963 0.0
C720 C 0.70322 0.32445 0.77955 0.0
N721 N 0.7206 0.29663 0.79398 0.0
C722 C 0.69523 0.30853 0.85045 0.0
C723 C 0.71691 0.28826 0.82866 0.0
C724 C 0.67721 0.33749 0.83627 0.0
C725 C 0.68129 0.34543 0.80039 0.0
H726 H 0.70654 0.33038 0.75186 0.0
H727 H 0.73074 0.26578 0.83936 0.0
C728 C 0.77968 0.13462 0.73713 0.0
N729 N 0.75678 0.15717 0.75286 0.0
C730 C 0.77543 0.09829 0.74062 0.0
C731 C 0.72507 0.10875 0.77807 0.0
C732 C 0.73027 0.14505 0.77376 0.0
C733 C 0.74769 0.08508 0.761 0.0
H734 H 0.80149 0.14483 0.72201 0.0
H735 H 0.7131 0.1635 0.78694 0.0
C736 C 0.80586 0.32121 0.73786 0.0
N737 N 0.85157 0.3768 0.74996 0.0
C738 C 0.83516 0.32621 0.71612 0.0
C739 C 0.79984 0.34454 0.76575 0.0
C740 C 0.85797 0.35443 0.72269 0.0
C741 C 0.82323 0.37249 0.77141 0.0
C742 C 0.81369 0.20805 0.67768 0.0
C743 C 0.8429 0.22539 0.66337 0.0
C744 C 0.79632 0.18221 0.65787 0.0
C745 C 0.85465 0.21607 0.62977 0.0
C746 C 0.80902 0.17349 0.62446 0.0
N747 N 0.83771 0.19043 0.61124 0.0
C748 C 0.87975 0.22877 0.74693 0.0
C749 C 0.8737 0.28239 0.7784 0.0
C750 C 0.91612 0.22944 0.75162 0.0
N751 N 0.8594 0.25559 0.75917 0.0
C752 C 0.9101 0.28409 0.78381 0.0
C753 C 0.93163 0.25768 0.76965 0.0
H754 H 0.86775 0.20687 0.73319 0.0
H755 H 0.85702 0.30259 0.78938 0.0
C756 C 0.73172 0.24822 0.63569 0.0
N757 N 0.75946 0.2636 0.65251 0.0
C758 C 0.72801 0.25136 0.59916 0.0
C759 C 0.7806 0.28736 0.59805 0.0
C760 C 0.78328 0.28353 0.63458 0.0
C761 C 0.75305 0.27061 0.58001 0.0
H762 H 0.71306 0.23264 0.65043 0.0
H763 H 0.80515 0.29533 0.64838 0.0
O764 O 0.77979 0.23264 0.78776 0.0
O765 O 0.72517 0.23805 0.72861 0.0
O766 O 0.78293 0.29397 0.73168 0.0
O767 O 0.80241 0.21604 0.71103 0.0
H768 H 0.82028 0.17668 0.79632 0.0
H769 H 0.79749 0.28087 0.83505 0.0
H770 H 0.86803 0.17182 0.84087 0.0
H771 H 0.84543 0.27408 0.87911 0.0
H772 H 0.66067 0.143 0.69369 0.0
H773 H 0.6738 0.24355 0.7754 0.0
H774 H 0.7125 0.18247 0.688 0.0
H775 H 0.62274 0.20288 0.77965 0.0
H776 H 0.69249 0.30171 0.87803 0.0
H777 H 0.66765 0.36761 0.78872 0.0
H778 H 0.79366 0.08063 0.72765 0.0
H779 H 0.70373 0.09922 0.79443 0.0
H780 H 0.84076 0.30808 0.69492 0.0
H781 H 0.77747 0.34107 0.78298 0.0
H782 H 0.88089 0.35841 0.70626 0.0
H783 H 0.81889 0.3907 0.79292 0.0
H784 H 0.85635 0.24587 0.678 0.0
H785 H 0.77334 0.16889 0.66821 0.0
H786 H 0.87728 0.2292 0.61844 0.0
H787 H 0.79597 0.15337 0.60896 0.0
H788 H 0.93209 0.2084 0.74087 0.0
H789 H 0.9214 0.30596 0.79834 0.0
H790 H 0.70652 0.23804 0.58583 0.0
H791 H 0.80043 0.30222 0.58387 0.0
Li792 Li 0.01428 0.55793 0.99967 0.0
Li793 Li 0.05546 0.51042 0.99675 0.0
Li794 Li 0.01025 0.51321 0.95342 0.0
Li795 Li 0.99666 0.49565 0.0152 0.0
C796 C 0.04636 0.57349 0.93625 0.0
N797 N 0.04251 0.62475 0.88456 0.0
C798 C 0.07674 0.58421 0.91839 0.0
C799 C 0.01403 0.58898 0.92783 0.0
C800 C 0.07424 0.61012 0.89232 0.0
C801 C 0.01264 0.61483 0.90164 0.0
C802 C 0.05257 0.53157 0.0667 0.0
C803 C 0.0739 0.51326 0.12371 0.0
N804 N 0.09891 0.53898 0.12241 0.0
C805 C 0.07831 0.55795 0.066 0.0
C806 C 0.05019 0.50911 0.09581 0.0
C807 C 0.10158 0.5612 0.09439 0.0
C808 C 0.97741 0.62093 0.01852 0.0
N809 N 0.00914 0.60696 0.00965 0.0
C810 C 0.03543 0.66427 0.00801 0.0
C811 C 0.038 0.62774 1.00489 0.0
C812 C 1.00292 0.6794 0.01633 0.0
C813 C 0.97371 0.65746 0.02218 0.0
H814 H 0.95487 0.60379 0.02191 0.0
H815 H 0.06283 0.61599 0.99755 0.0
C816 C 0.12355 0.50553 0.97114 0.0
N817 N 0.10477 0.50002 1.00115 0.0
C818 C 0.16002 0.50142 0.97103 0.0
C819 C 0.15727 0.48462 0.03245 0.0
C820 C 0.12072 0.48869 0.03126 0.0
C821 C 0.17719 0.49156 1.00216 0.0
H822 H 0.11013 0.51349 0.94732 0.0
H823 H 0.10532 0.48314 0.05445 0.0
C824 C 0.93914 0.51721 0.97572 0.0
N825 N 0.8742 0.48863 0.9591 0.0
C826 C 0.93673 0.48294 0.9623 0.0
C827 C 0.90853 0.53695 0.98064 0.0
C828 C 0.90366 0.46896 0.95408 0.0
C829 C 0.87594 0.52204 0.97207 0.0
C830 C 0.04863 0.44371 0.98702 0.0
C831 C 0.06952 0.42938 0.96034 0.0
C832 C 0.05246 0.43164 0.02164 0.0
C833 C 0.09406 0.40332 0.96879 0.0
C834 C 0.07722 0.40547 0.02899 0.0
N835 N 0.09737 0.39201 1.00265 0.0
C836 C 0.02745 0.49471 0.88447 0.0
C837 C 0.97142 0.52183 0.88882 0.0
C838 C 0.02519 0.49455 0.84776 0.0
N839 N 1.00081 0.50816 0.90417 0.0
C840 C 0.96817 0.52242 0.85211 0.0
C841 C 0.99545 0.5089 0.83129 0.0
H842 H 0.05112 0.4855 0.89727 0.0
H843 H 0.9512 0.5337 0.90488 0.0
C844 C 0.95312 0.48092 0.07449 0.0
N845 N 0.96705 0.46706 0.04453 0.0
C846 C 0.93151 0.4603 0.09617 0.0
C847 C 0.93888 0.41164 0.05567 0.0
C848 C 0.96027 0.43317 0.03478 0.0
C849 C 0.9243 0.42522 0.08676 0.0
H850 H 0.95886 0.50797 0.08156 0.0
H851 H 0.97155 0.42284 0.01076 0.0
O852 O 0.04843 0.5477 0.96149 0.0
O853 O 0.02957 0.52784 0.03921 0.0
O854 O 0.97116 0.53136 0.98446 0.0
O855 O 0.02534 0.47019 0.97963 0.0
H856 H 0.10202 0.57269 0.92458 0.0
H857 H 0.9902 0.58116 0.94128 0.0
H858 H 0.09754 0.61859 0.87827 0.0
H859 H 0.9878 0.62698 0.89488 0.0
H860 H 0.07247 0.496 0.14637 0.0
H861 H 0.08064 0.57535 0.04357 0.0
H862 H 0.03035 0.48858 0.09675 0.0
H863 H 0.12181 0.58133 0.09411 0.0
H864 H 0.05835 0.68063 1.00324 0.0
H865 H 0.94824 0.66856 0.02851 0.0
H866 H 0.17479 0.5067 0.9472 0.0
H867 H 0.16991 0.47661 0.05676 0.0
H868 H 0.9601 0.46727 0.95817 0.0
H869 H 0.90993 0.5635 0.99103 0.0
H870 H 0.90142 0.44247 0.94371 0.0
H871 H 0.85202 0.53701 0.97576 0.0
H872 H 0.06701 0.43838 0.93344 0.0
H873 H 0.03697 0.44283 0.04274 0.0
H874 H 0.11052 0.39213 0.94843 0.0
H875 H 0.0806 0.39606 0.0557 0.0
H876 H 0.04686 0.48436 0.83231 0.0
H877 H 0.94511 0.5341 0.84005 0.0
H878 H 0.92057 0.47152 0.12 0.0
H879 H 0.93374 0.38467 0.04772 0.0
Li880 Li 0.76447 0.74995 0.26963 0.0
Li881 Li 0.74856 0.80771 0.24852 0.0
Li882 Li 0.70302 0.76527 0.25585 0.0
Li883 Li 0.74586 0.76134 0.20511 0.0
C884 C 0.72516 0.77318 0.32638 0.0
N885 N 0.70904 0.74719 0.3925 0.0
C886 C 0.73041 0.7941 0.35629 0.0
C887 C 0.71179 0.73906 0.33014 0.0
C888 C 0.72208 0.78049 0.38948 0.0
C889 C 0.70376 0.72639 0.36375 0.0
C890 C 0.81598 0.80046 0.23256 0.0
C891 C 0.85926 0.83646 0.20309 0.0
N892 N 0.87094 0.84821 0.23493 0.0
C893 C 0.82856 0.81265 0.265 0.0
C894 C 0.83152 0.81225 0.20133 0.0
C895 C 0.85631 0.83689 0.26564 0.0
C896 C 0.80411 0.6891 0.28683 0.0
N897 N 0.79465 0.72159 0.29867 0.0
C898 C 0.82713 0.71279 0.35211 0.0
C899 C 0.80596 0.73382 0.33049 0.0
C900 C 0.83702 0.67907 0.34063 0.0
C901 C 0.82544 0.66728 0.30751 0.0
H902 H 0.79495 0.68009 0.26135 0.0
H903 H 0.79849 0.75989 0.33917 0.0
C904 C 0.74867 0.87523 0.28072 0.0
N905 N 0.75734 0.8574 0.25088 0.0
C906 C 0.75112 0.91199 0.28175 0.0
C907 C 0.77195 0.9113 0.22154 0.0
C908 C 0.7689 0.8746 0.2216 0.0
C909 C 0.7626 0.93027 0.25177 0.0
H910 H 0.73879 0.86099 0.30331 0.0
H911 H 0.7746 0.85991 0.19787 0.0
C912 C 0.71216 0.69278 0.23426 0.0
N913 N 0.67522 0.63061 0.22431 0.0
C914 C 0.69346 0.68702 0.20301 0.0
C915 C 0.71273 0.66648 0.26011 0.0
C916 C 0.67475 0.65556 0.19858 0.0
C917 C 0.69371 0.63535 0.25468 0.0
C918 C 0.69399 0.82778 0.20749 0.0
C919 C 0.67172 0.8438 0.23199 0.0
C920 C 0.69973 0.84385 0.17482 0.0
C921 C 0.65531 0.87557 0.22328 0.0
C922 C 0.68288 0.87565 0.16715 0.0
N923 N 0.66115 0.89068 0.1913 0.0
C924 C 0.63811 0.77085 0.29516 0.0
C925 C 0.63407 0.74792 0.23714 0.0
C926 C 0.60147 0.77009 0.29854 0.0
N927 N 0.65367 0.75955 0.26486 0.0
C928 C 0.59744 0.74664 0.23941 0.0
C929 C 0.58088 0.75805 0.2703 0.0
H930 H 0.65384 0.78185 0.3162 0.0
H931 H 0.6468 0.74104 0.21269 0.0
C932 C 0.78143 0.73872 0.14265 0.0
N933 N 0.75055 0.75027 0.15654 0.0
C934 C 0.78465 0.73398 0.1062 0.0
C935 C 0.72413 0.75257 0.09938 0.0
C936 C 0.72206 0.75683 0.13582 0.0
C937 C 0.75583 0.74148 0.08425 0.0
H938 H 0.80373 0.734 0.15978 0.0
H939 H 0.69788 0.76607 0.14763 0.0
O940 O 0.73413 0.78586 0.29381 0.0
O941 O 0.78846 0.77722 0.23141 0.0
O942 O 0.73097 0.72333 0.23888 0.0
O943 O 0.71001 0.79646 0.21537 0.0
H944 H 0.74109 0.82047 0.35394 0.0
H945 H 0.7072 0.72279 0.30732 0.0
H946 H 0.72608 0.79637 0.41285 0.0
H947 H 0.69326 0.70004 0.36697 0.0
H948 H 0.87143 0.84599 0.17914 0.0
H949 H 0.81669 0.80382 0.28938 0.0
H950 H 0.82201 0.80304 0.17602 0.0
H951 H 0.86617 0.84678 0.29053 0.0
H952 H 0.83575 0.72268 0.37749 0.0
H953 H 0.83273 0.64142 0.29788 0.0
H954 H 0.74344 0.92609 0.30535 0.0
H955 H 0.78051 0.92482 0.1979 0.0
H956 H 0.69315 0.70673 0.18247 0.0
H957 H 0.72786 0.66987 0.28406 0.0
H958 H 0.65991 0.65095 0.17464 0.0
H959 H 0.69378 0.61491 0.27456 0.0
H960 H 0.66734 0.83199 0.25756 0.0
H961 H 0.71716 0.83199 0.15568 0.0
H962 H 0.63799 0.88827 0.24198 0.0
H963 H 0.68709 0.8884 0.14199 0.0
H964 H 0.58927 0.7797 0.32246 0.0
H965 H 0.58211 0.73784 0.21694 0.0
H966 H 0.80948 0.72544 0.09514 0.0
H967 H 0.70149 0.75859 0.08307 0.0
Li968 Li 0.01666 0.49939 0.55727 0.0
Li969 Li 0.01912 0.45785 0.50985 0.0
Li970 Li 0.06147 0.5043 0.51128 0.0
Li971 Li 0.99901 0.51643 0.49543 0.0
C972 C 0.08129 0.4688 0.57097 0.0
N973 N 0.13458 0.47399 0.62046 0.0
C974 C 0.10006 0.43882 0.58113 0.0
C975 C 0.08962 0.50144 0.58607 0.0
C976 C 0.12691 0.44199 0.60616 0.0
C977 C 0.11663 0.50351 0.61103 0.0
C978 C 0.94967 0.46026 0.53466 0.0
C979 C 0.89123 0.43889 0.52168 0.0
N980 N 0.89461 0.41439 0.54765 0.0
C981 C 0.95255 0.43498 0.56129 0.0
C982 C 0.91877 0.46235 0.51471 0.0
C983 C 0.92443 0.41198 0.56742 0.0
C984 C 0.99551 0.53515 0.62034 0.0
N985 N 0.00738 0.50432 0.60645 0.0
C986 C 0.01055 0.47822 0.6637 0.0
C987 C 0.01451 0.47601 0.62726 0.0
C988 C 0.99883 0.50977 0.67881 0.0
C989 C 0.99082 0.53842 0.6568 0.0
H990 H 0.9901 0.55725 0.60316 0.0
H991 H 0.02388 0.4518 0.61558 0.0
C992 C 0.04553 0.38983 0.50382 0.0
N993 N 0.01507 0.40824 0.50005 0.0
C994 C 0.04574 0.35322 0.50004 0.0
C995 C 0.98336 0.35511 0.48742 0.0
C996 C 0.98445 0.39178 0.49102 0.0
C997 C 0.01421 0.33555 0.49248 0.0
H998 H 0.06965 0.40363 0.51021 0.0
H999 H 0.96077 0.40689 0.48696 0.0
C1000 C 0.03764 0.57512 0.51644 0.0
N1001 N 0.05198 0.64084 0.48842 0.0
C1002 C 0.04836 0.57835 0.48133 0.0
C1003 C 0.03424 0.60529 0.53729 0.0
C1004 C 0.05545 0.61181 0.46766 0.0
C1005 C 0.04164 0.63829 0.52265 0.0
C1006 C 0.02749 0.46408 0.4432 0.0
C1007 C 0.05481 0.44453 0.42826 0.0
C1008 C 0.99279 0.45799 0.43239 0.0
C1009 C 0.04691 0.419 0.40286 0.0
C1010 C 0.98599 0.43229 0.40685 0.0
N1011 N 0.01296 0.41345 0.39278 0.0
C1012 C 0.13035 0.48808 0.49231 0.0
C1013 C 0.12513 0.54559 0.5163 0.0
C1014 C 0.16693 0.49137 0.49106 0.0
N1015 N 0.11027 0.51496 0.50475 0.0
C1016 C 0.16167 0.55 0.51554 0.0
C1017 C 0.18286 0.52249 0.50309 0.0
H1018 H 0.118 0.46351 0.48477 0.0
H1019 H 0.10889 0.56604 0.5275 0.0
C1020 C 0.94093 0.56224 0.48348 0.0
N1021 N 0.96838 0.5455 0.46775 0.0
C1022 C 0.91886 0.58424 0.46375 0.0
C1023 C 0.95363 0.57121 0.41205 0.0
C1024 C 0.97513 0.54969 0.43278 0.0
C1025 C 0.92517 0.58882 0.42758 0.0
H1026 H 0.93633 0.55862 0.51138 0.0
H1027 H 0.99738 0.53645 0.421 0.0
O1028 O 0.05529 0.46605 0.54601 0.0
O1029 O 0.97684 0.48298 0.52808 0.0
O1030 O 0.03003 0.54272 0.53035 0.0
O1031 O 0.03442 0.48831 0.46905 0.0
H1032 H 0.09398 0.41333 0.56981 0.0
H1033 H 0.07548 0.52499 0.57862 0.0
H1034 H 0.14165 0.41899 0.61418 0.0
H1035 H 0.12336 0.5286 0.62286 0.0
H1036 H 0.86718 0.44012 0.50642 0.0
H1037 H 0.97642 0.43278 0.57666 0.0
H1038 H 0.91619 0.48181 0.49399 0.0
H1039 H 0.92636 0.39213 0.5878 0.0
H1040 H 0.01689 0.45566 0.68002 0.0
H1041 H 0.98165 0.5631 0.6678 0.0
H1042 H 0.06999 0.33875 0.50387 0.0
H1043 H 0.9587 0.34209 0.48122 0.0
H1044 H 0.05125 0.55531 0.46481 0.0
H1045 H 0.02594 0.60322 0.5645 0.0
H1046 H 0.06373 0.6147 0.44054 0.0
H1047 H 0.03912 0.66188 0.53848 0.0
H1048 H 0.08179 0.44885 0.43629 0.0
H1049 H 0.97126 0.47247 0.44408 0.0
H1050 H 0.06777 0.40355 0.3912 0.0
H1051 H 0.95925 0.42714 0.39843 0.0
H1052 H 0.18272 0.46951 0.4818 0.0
H1053 H 0.17337 0.57411 0.5255 0.0
H1054 H 0.89716 0.59759 0.47651 0.0
H1055 H 0.95924 0.57432 0.38424 0.0
Li1056 Li 0.49326 0.5531 0.01155 0.0
Li1057 Li 0.45125 0.50448 0.01084 0.0
Li1058 Li 0.49612 0.50866 0.05738 0.0
Li1059 Li 0.51253 0.49137 0.99603 0.0
C1060 C 0.44167 0.57253 0.05464 0.0
N1061 N 0.40996 0.63621 0.07006 0.0
C1062 C 0.40967 0.58153 0.03877 0.0
C1063 C 0.45763 0.59606 0.07817 0.0
C1064 C 0.39407 0.61385 0.0469 0.0
C1065 C 0.4411 0.62802 0.08575 0.0
C1066 C 0.46816 0.51446 0.93752 0.0
C1067 C 0.45649 0.47061 0.8929 0.0
N1068 N 0.44623 0.49652 0.87035 0.0
C1069 C 0.45773 0.54067 0.91384 0.0
C1070 C 0.46769 0.47917 0.92694 0.0
C1071 C 0.44662 0.53106 0.88003 0.0
C1072 C 0.5266 0.62038 0.0143 0.0
N1073 N 0.49823 0.60225 1.00188 0.0
C1074 C 0.47212 0.65548 0.98057 0.0
C1075 C 0.47152 0.61889 0.98474 0.0
C1076 C 0.50053 0.67484 0.99413 0.0
C1077 C 0.52827 0.65702 0.01073 0.0
H1078 H 0.54748 0.60653 0.02774 0.0
H1079 H 0.44916 0.60384 0.97541 0.0
C1080 C 0.38432 0.48915 0.03541 0.0
N1081 N 0.40225 0.49389 1.00473 0.0
C1082 C 0.34777 0.48567 0.03527 0.0
C1083 C 0.34845 0.49222 0.97188 0.0
C1084 C 0.38512 0.49512 0.9732 0.0
C1085 C 0.32952 0.48791 1.00327 0.0
H1086 H 0.39834 0.48966 0.06023 0.0
H1087 H 0.3995 0.49978 0.94919 0.0
C1088 C 0.56353 0.52637 0.05038 0.0
N1089 N 0.61885 0.52367 0.09766 0.0
C1090 C 0.58967 0.50078 0.04667 0.0
C1091 C 0.56562 0.55074 0.07798 0.0
C1092 C 0.61744 0.49985 0.07086 0.0
C1093 C 0.59375 0.54886 0.10168 0.0
C1094 C 0.45912 0.43936 0.03818 0.0
C1095 C 0.44643 0.43568 0.07257 0.0
C1096 C 0.4478 0.41591 0.01205 0.0
C1097 C 0.42215 0.40899 0.08009 0.0
C1098 C 0.42347 0.38959 0.0206 0.0
N1099 N 0.41123 0.38673 0.05415 0.0
C1100 C 0.48243 0.51854 0.12926 0.0
C1101 C 0.53052 0.48018 0.11887 0.0
C1102 C 0.48707 0.51561 0.16558 0.0
N1103 N 0.50441 0.50152 0.10672 0.0
C1104 C 0.5362 0.47657 0.15517 0.0
C1105 C 0.51435 0.49467 0.17878 0.0
H1106 H 0.46112 0.5343 0.11908 0.0
H1107 H 0.54707 0.46621 0.10043 0.0
C1108 C 0.56111 0.47927 0.94062 0.0
N1109 N 0.54331 0.46361 0.96751 0.0
C1110 C 0.58323 0.45933 0.91897 0.0
C1111 C 0.56838 0.4076 0.95317 0.0
C1112 C 0.54655 0.42852 0.97417 0.0
C1113 C 0.58693 0.42307 0.9252 0.0
H1114 H 0.55792 0.50721 0.93591 0.0
H1115 H 0.53203 0.41678 0.9957 0.0
O1116 O 0.4572 0.54078 0.0474 0.0
O1117 O 0.47918 0.5235 0.97067 0.0
O1118 O 0.536 0.52749 0.02713 0.0
O1119 O 0.48253 0.46569 0.0302 0.0
H1120 H 0.39706 0.56394 0.02019 0.0
H1121 H 0.48255 0.58971 0.09045 0.0
H1122 H 0.36933 0.62115 0.0348 0.0
H1123 H 0.4531 0.64639 0.10403 0.0
H1124 H 0.45596 0.44338 0.88441 0.0
H1125 H 0.45816 0.56816 0.92148 0.0
H1126 H 0.47588 0.45862 0.94479 0.0
H1127 H 0.43835 0.55106 0.86148 0.0
H1128 H 0.45025 0.66864 0.96785 0.0
H1129 H 0.55046 0.67141 0.02155 0.0
H1130 H 0.33374 0.48284 0.05995 0.0
H1131 H 0.33489 0.49437 0.94683 0.0
H1132 H 0.58845 0.48175 0.02543 0.0
H1133 H 0.54545 0.57053 0.0814 0.0
H1134 H 0.63781 0.48013 0.06839 0.0
H1135 H 0.59555 0.56734 0.12334 0.0
H1136 H 0.45481 0.45347 0.0932 0.0
H1137 H 0.45763 0.41793 0.98543 0.0
H1138 H 0.41193 0.40605 0.10653 0.0
H1139 H 0.41436 0.37141 1.00057 0.0
H1140 H 0.46961 0.5296 0.18326 0.0
H1141 H 0.55736 0.46003 0.16472 0.0
H1142 H 0.59721 0.47197 0.89753 0.0
H1143 H 0.57073 0.37966 0.95858 0.0
Li1144 Li 0.75645 0.81081 0.76751 0.0
Li1145 Li 0.75887 0.76219 0.81034 0.0
Li1146 Li 0.80413 0.76645 0.7615 0.0
Li1147 Li 0.74311 0.74794 0.74973 0.0
C1148 C 0.81116 0.82788 0.81561 0.0
N1149 N 0.84496 0.88548 0.84534 0.0
C1150 C 0.79976 0.84165 0.84783 0.0
C1151 C 0.8403 0.84312 0.79894 0.0
C1152 C 0.81701 0.87086 0.86231 0.0
C1153 C 0.85688 0.87228 0.81426 0.0
C1154 C 0.6893 0.77775 0.80563 0.0
C1155 C 0.65154 0.74467 0.84466 0.0
N1156 N 0.63344 0.77464 0.85216 0.0
C1157 C 0.67016 0.80817 0.81352 0.0
C1158 C 0.67978 0.74568 0.82113 0.0
C1159 C 0.64207 0.80608 0.83718 0.0
C1160 C 0.74779 0.87801 0.73337 0.0
N1161 N 0.74562 0.85997 0.7643 0.0
C1162 C 0.73463 0.91337 0.79596 0.0
C1163 C 0.73805 0.87675 0.79506 0.0
C1164 C 0.73919 0.93275 0.76486 0.0
C1165 C 0.74498 0.91474 0.7331 0.0
H1166 H 0.75261 0.86409 0.70904 0.0
H1167 H 0.73551 0.86171 0.81911 0.0
C1168 C 0.77219 0.72437 0.87324 0.0
N1169 N 0.75423 0.75216 0.85948 0.0
C1170 C 0.77306 0.71901 0.90972 0.0
C1171 C 0.73612 0.77035 0.91699 0.0
C1172 C 0.7361 0.7748 0.8805 0.0
C1173 C 0.75521 0.74253 0.93189 0.0
H1174 H 0.78681 0.70709 0.85596 0.0
H1175 H 0.7227 0.79716 0.86908 0.0
C1176 C 0.79058 0.79817 0.69644 0.0
N1177 N 0.83002 0.8249 0.64129 0.0
C1178 C 0.78762 0.78353 0.66272 0.0
C1179 C 0.81329 0.8267 0.70191 0.0
C1180 C 0.80785 0.79733 0.63523 0.0
C1181 C 0.83308 0.83978 0.67378 0.0
C1182 C 0.77658 0.69028 0.76829 0.0
C1183 C 0.79826 0.67887 0.74086 0.0
C1184 C 0.75182 0.66716 0.78276 0.0
C1185 C 0.79447 0.64453 0.72801 0.0
C1186 C 0.74878 0.63305 0.76912 0.0
N1187 N 0.76997 0.62255 0.74224 0.0
C1188 C 0.87424 0.76198 0.78155 0.0
C1189 C 0.86716 0.7562 0.71967 0.0
C1190 C 0.91077 0.76068 0.77824 0.0
N1191 N 0.85328 0.76052 0.75246 0.0
C1192 C 0.90368 0.75465 0.71515 0.0
C1193 C 0.92574 0.75736 0.74471 0.0
H1194 H 0.86249 0.76496 0.80733 0.0
H1195 H 0.85003 0.75426 0.69701 0.0
C1196 C 0.68051 0.7105 0.72994 0.0
N1197 N 0.71432 0.71761 0.72042 0.0
C1198 C 0.65951 0.68814 0.70939 0.0
C1199 C 0.70811 0.68134 0.66901 0.0
C1200 C 0.72839 0.7033 0.69072 0.0
C1201 C 0.67321 0.6735 0.67835 0.0
H1202 H 0.66971 0.72217 0.75346 0.0
H1203 H 0.75548 0.7087 0.68399 0.0
O1204 O 0.79462 0.79903 0.80114 0.0
O1205 O 0.71715 0.77942 0.78282 0.0
O1206 O 0.77159 0.78444 0.72391 0.0
O1207 O 0.7792 0.72412 0.78049 0.0
H1208 H 0.77762 0.83019 0.86143 0.0
H1209 H 0.85045 0.83238 0.77465 0.0
H1210 H 0.80819 0.88188 0.88707 0.0
H1211 H 0.87937 0.88431 0.80152 0.0
H1212 H 0.64406 0.72007 0.85703 0.0
H1213 H 0.67681 0.83311 0.80141 0.0
H1214 H 0.69431 0.72191 0.81535 0.0
H1215 H 0.62709 0.82944 0.84359 0.0
H1216 H 0.72976 0.92655 0.82081 0.0
H1217 H 0.74819 0.92904 0.7086 0.0
H1218 H 0.78821 0.69743 0.9206 0.0
H1219 H 0.72233 0.78906 0.93352 0.0
H1220 H 0.76984 0.76183 0.65771 0.0
H1221 H 0.8152 0.83892 0.72749 0.0
H1222 H 0.80588 0.78615 0.60905 0.0
H1223 H 0.85078 0.86182 0.67775 0.0
H1224 H 0.81747 0.69648 0.72929 0.0
H1225 H 0.73503 0.6755 0.80418 0.0
H1226 H 0.8109 0.63541 0.70661 0.0
H1227 H 0.72957 0.61494 0.7799 0.0
H1228 H 0.92723 0.76261 0.80152 0.0
H1229 H 0.91462 0.75178 0.68896 0.0
H1230 H 0.6327 0.68262 0.7174 0.0
H1231 H 0.71957 0.67038 0.6453 0.0
Li1232 Li 0.76275 0.26702 0.24684 0.0
Li1233 Li 0.70066 0.24923 0.26017 0.0
Li1234 Li 0.74382 0.25205 0.30531 0.0
Li1235 Li 0.74685 0.20454 0.26401 0.0
C1236 C 0.73146 0.31844 0.29958 0.0
N1237 N 0.74135 0.37001 0.35015 0.0
C1238 C 0.70313 0.3299 0.32003 0.0
C1239 C 0.76477 0.33336 0.3047 0.0
C1240 C 0.70869 0.35593 0.34554 0.0
C1241 C 0.76923 0.35941 0.33039 0.0
C1242 C 0.72294 0.24505 0.18879 0.0
C1243 C 0.7149 0.23807 0.12609 0.0
N1244 N 0.70558 0.27259 0.12362 0.0
C1245 C 0.71318 0.28044 0.18565 0.0
C1246 C 0.72379 0.22367 0.1588 0.0
C1247 C 0.70456 0.29388 0.15246 0.0
C1248 C 0.82088 0.28072 0.20161 0.0
N1249 N 0.79248 0.29558 0.21753 0.0
C1250 C 0.80586 0.35155 0.19154 0.0
C1251 C 0.78459 0.33025 0.2128 0.0
C1252 C 0.83537 0.33692 0.17494 0.0
C1253 C 0.84285 0.30106 0.18004 0.0
H1254 H 0.82646 0.25306 0.20572 0.0
H1255 H 0.76171 0.34138 0.22551 0.0
C1256 C 0.63189 0.26245 0.2805 0.0
N1257 N 0.65134 0.25497 0.25138 0.0
C1258 C 0.59523 0.26378 0.27848 0.0
C1259 C 0.59907 0.24961 0.21646 0.0
C1260 C 0.63572 0.24838 0.21971 0.0
C1261 C 0.57855 0.25709 0.2462 0.0
H1262 H 0.64487 0.26617 0.30561 0.0
H1263 H 0.65138 0.24102 0.1972 0.0
C1264 C 0.81406 0.23443 0.3028 0.0
N1265 N 0.87021 0.23401 0.34918 0.0
C1266 C 0.81591 0.20894 0.32934 0.0
C1267 C 0.84091 0.25951 0.29961 0.0
C1268 C 0.84446 0.20926 0.35262 0.0
C1269 C 0.86906 0.25888 0.32336 0.0
C1270 C 0.68421 0.18808 0.29547 0.0
C1271 C 0.66918 0.1739 0.32598 0.0
C1272 C 0.67406 0.17499 0.26248 0.0
C1273 C 0.6441 0.14704 0.32298 0.0
C1274 C 0.6489 0.14811 0.2606 0.0
N1275 N 0.63455 0.13482 0.29062 0.0
C1276 C 0.71869 0.25414 0.37394 0.0
C1277 C 0.77707 0.27613 0.37064 0.0
C1278 C 0.71867 0.25794 0.41051 0.0
N1279 N 0.74789 0.26233 0.35487 0.0
C1280 C 0.77831 0.28011 0.40725 0.0
C1281 C 0.749 0.27039 0.42745 0.0
H1282 H 0.69546 0.24427 0.36073 0.0
H1283 H 0.79954 0.28373 0.35504 0.0
C1284 C 0.76086 0.14041 0.22669 0.0
N1285 N 0.75631 0.1555 0.2589 0.0
C1286 C 0.76396 0.10377 0.2237 0.0
C1287 C 0.75842 0.09917 0.28706 0.0
C1288 C 0.75531 0.13576 0.28881 0.0
C1289 C 0.76237 0.08289 0.25419 0.0
H1290 H 0.76119 0.15673 0.20334 0.0
H1291 H 0.75092 0.14838 0.31398 0.0
O1292 O 0.72686 0.29219 0.27524 0.0
O1293 O 0.73195 0.23133 0.22092 0.0
O1294 O 0.78648 0.23452 0.27963 0.0
O1295 O 0.70886 0.21443 0.29816 0.0
H1296 H 0.67718 0.31872 0.31642 0.0
H1297 H 0.7871 0.32446 0.28947 0.0
H1298 H 0.68705 0.3649 0.3617 0.0
H1299 H 0.79492 0.371 0.33479 0.0
H1300 H 0.71543 0.22181 0.10266 0.0
H1301 H 0.71202 0.29734 0.20855 0.0
H1302 H 0.73121 0.19621 0.16075 0.0
H1303 H 0.69698 0.32121 0.14966 0.0
H1304 H 0.79938 0.37912 0.18803 0.0
H1305 H 0.86543 0.28903 0.1675 0.0
H1306 H 0.57999 0.2692 0.30197 0.0
H1307 H 0.5868 0.24392 0.19129 0.0
H1308 H 0.79533 0.18944 0.33222 0.0
H1309 H 0.83993 0.27933 0.27912 0.0
H1310 H 0.8461 0.18987 0.37346 0.0
H1311 H 0.88996 0.2782 0.32131 0.0
H1312 H 0.67689 0.18342 0.35176 0.0
H1313 H 0.68542 0.18535 0.23853 0.0
H1314 H 0.63225 0.13588 0.34639 0.0
H1315 H 0.6408 0.1378 0.23525 0.0
H1316 H 0.69561 0.25043 0.42552 0.0
H1317 H 0.80201 0.29005 0.41974 0.0
H1318 H 0.76681 0.09177 0.19795 0.0
H1319 H 0.75681 0.08362 0.31096 0.0
Li1320 Li 0.51466 0.51351 0.51519 0.0
Li1321 Li 0.50209 0.49333 0.45293 0.0
Li1322 Li 0.45635 0.49986 0.49467 0.0
Li1323 Li 0.49442 0.45052 0.50126 0.0
C1324 C 0.46603 0.56585 0.4795 0.0
N1325 N 0.41903 0.62105 0.48525 0.0
C1326 C 0.44397 0.57438 0.45124 0.0
C1327 C 0.46432 0.58553 0.51061 0.0
C1328 C 0.42031 0.6023 0.45471 0.0
C1329 C 0.4404 0.61336 0.51299 0.0
C1330 C 0.57284 0.48014 0.47692 0.0
C1331 C 0.63067 0.45719 0.4645 0.0
N1332 N 0.64182 0.49027 0.45619 0.0
C1333 C 0.58477 0.51383 0.46795 0.0
C1334 C 0.59587 0.45152 0.47499 0.0
C1335 C 0.61979 0.51845 0.45767 0.0
C1336 C 0.55124 0.53096 0.57854 0.0
N1337 N 0.54426 0.54197 0.54511 0.0
C1338 C 0.57883 0.59413 0.55411 0.0
C1339 C 0.55733 0.57306 0.53278 0.0
C1340 C 0.58623 0.58358 0.5888 0.0
C1341 C 0.57202 0.55164 0.60107 0.0
H1342 H 0.54041 0.50624 0.58779 0.0
H1343 H 0.55084 0.58168 0.5064 0.0
C1344 C 0.48409 0.50336 0.38309 0.0
N1345 N 0.51269 0.49647 0.40356 0.0
C1346 C 0.48674 0.50289 0.34642 0.0
C1347 C 0.54833 0.48809 0.35224 0.0
C1348 C 0.54446 0.48867 0.38889 0.0
C1349 C 0.51913 0.49507 0.33076 0.0
H1350 H 0.45885 0.50801 0.39533 0.0
H1351 H 0.56655 0.48176 0.40531 0.0
C1352 C 0.45307 0.48211 0.5635 0.0
N1353 N 0.39943 0.48035 0.61257 0.0
C1354 C 0.42622 0.45699 0.56066 0.0
C1355 C 0.45286 0.50613 0.59145 0.0
C1356 C 0.39925 0.45662 0.58567 0.0
C1357 C 0.42547 0.50483 0.61598 0.0
C1358 C 0.46555 0.43317 0.43748 0.0
C1359 C 0.43576 0.41992 0.42022 0.0
C1360 C 0.49855 0.41854 0.43018 0.0
C1361 C 0.43948 0.39255 0.39587 0.0
C1362 C 0.50116 0.39113 0.40572 0.0
N1363 N 0.47182 0.37883 0.38917 0.0
C1364 C 0.38631 0.49932 0.47231 0.0
C1365 C 0.39361 0.53221 0.52495 0.0
C1366 C 0.34993 0.50392 0.47356 0.0
N1367 N 0.40729 0.51257 0.49822 0.0
C1368 C 0.35725 0.53755 0.52722 0.0
C1369 C 0.33508 0.52265 0.50161 0.0
H1370 H 0.39783 0.48477 0.45084 0.0
H1371 H 0.41073 0.54326 0.54484 0.0
C1372 C 0.52854 0.38778 0.52505 0.0
N1373 N 0.49778 0.40181 0.51326 0.0
C1374 C 0.53173 0.35128 0.52931 0.0
C1375 C 0.47121 0.34469 0.5104 0.0
C1376 C 0.46913 0.3812 0.50673 0.0
C1377 C 0.50295 0.32946 0.52122 0.0
H1378 H 0.55082 0.40482 0.53021 0.0
H1379 H 0.44497 0.393 0.49742 0.0
O1380 O 0.48881 0.53807 0.47698 0.0
O1381 O 0.53863 0.47497 0.48688 0.0
O1382 O 0.47953 0.48311 0.53914 0.0
O1383 O 0.4622 0.4605 0.461 0.0
H1384 H 0.44488 0.55946 0.427 0.0
H1385 H 0.48083 0.57904 0.53293 0.0
H1386 H 0.40292 0.60904 0.43313 0.0
H1387 H 0.43865 0.62867 0.53699 0.0
H1388 H 0.64878 0.43528 0.46288 0.0
H1389 H 0.56695 0.53596 0.46803 0.0
H1390 H 0.58692 0.42516 0.48126 0.0
H1391 H 0.62936 0.54438 0.4506 0.0
H1392 H 0.5892 0.6187 0.54386 0.0
H1393 H 0.57705 0.54279 0.62775 0.0
H1394 H 0.46365 0.50797 0.33042 0.0
H1395 H 0.57357 0.48153 0.34074 0.0
H1396 H 0.42591 0.43838 0.53908 0.0
H1397 H 0.47341 0.52579 0.59396 0.0
H1398 H 0.37812 0.43755 0.58362 0.0
H1399 H 0.42484 0.52337 0.63765 0.0
H1400 H 0.40993 0.43056 0.4255 0.0
H1401 H 0.522 0.42812 0.44312 0.0
H1402 H 0.41661 0.38227 0.38229 0.0
H1403 H 0.52654 0.37967 0.39987 0.0
H1404 H 0.33346 0.49245 0.4532 0.0
H1405 H 0.34647 0.55245 0.54902 0.0
H1406 H 0.55657 0.3401 0.53771 0.0
H1407 H 0.44861 0.32841 0.50396 0.0
C1408 C 0.11231 0.14689 0.15752 0.0
C1409 C 0.14769 0.15418 0.14781 0.0
C1410 C 0.14129 0.11565 0.09611 0.0
C1411 C 0.10504 0.11104 0.10403 0.0
N1412 N 0.05444 0.12727 0.13872 0.0
N1413 N 0.19405 0.15078 0.10456 0.0
C1414 C 0.09008 0.12808 0.13377 0.0
C1415 C 0.16169 0.14003 0.11614 0.0
N1416 N 0.1003 0.15683 0.18998 0.0
N1417 N 0.15655 0.09583 0.07021 0.0
H1418 H 0.20967 0.16882 0.11832 0.0
H1419 H 0.20406 0.14434 0.07985 0.0
H1420 H 0.14257 0.07752 0.05512 0.0
H1421 H 0.18359 0.09521 0.0658 0.0
H1422 H 0.07605 0.14891 0.20008 0.0
H1423 H 0.11579 0.17046 0.2082 0.0
H1424 H 0.0416 0.14235 0.15769 0.0
H1425 H 0.03725 0.11394 0.12185 0.0
C1426 C 0.14724 0.904 0.40053 0.0
C1427 C 0.11043 0.90568 0.39425 0.0
C1428 C 0.11592 0.86152 0.34719 0.0
C1429 C 0.15302 0.8618 0.35175 0.0
N1430 N 0.2048 0.88696 0.37877 0.0
N1431 N 0.06012 0.89044 0.35849 0.0
C1432 C 0.16892 0.8841 0.37732 0.0
C1433 C 0.09486 0.88565 0.36666 0.0
N1434 N 0.16131 0.92055 0.42935 0.0
N1435 N 0.10074 0.83742 0.325 0.0
H1436 H 0.04382 0.90763 0.37238 0.0
H1437 H 0.04807 0.87961 0.3363 0.0
H1438 H 0.11533 0.81964 0.31 0.0
H1439 H 0.0737 0.83313 0.32343 0.0
H1440 H 0.1872 0.91711 0.4377 0.0
H1441 H 0.14636 0.93571 0.44669 0.0
H1442 H 0.21797 0.9056 0.39407 0.0
H1443 H 0.22153 0.8725 0.3625 0.0
C1444 C 0.36878 0.89052 0.59493 0.0
C1445 C 0.40305 0.89938 0.60711 0.0
C1446 C 0.39186 0.86772 0.66248 0.0
C1447 C 0.35871 0.85655 0.64913 0.0
N1448 N 0.3175 0.85267 0.60089 0.0
N1449 N 0.44953 0.89236 0.64987 0.0
C1450 C 0.34768 0.86668 0.61483 0.0
C1451 C 0.41524 0.88685 0.6402 0.0
N1452 N 0.35602 0.90575 0.56486 0.0
N1453 N 0.40054 0.86094 0.69681 0.0
H1454 H 0.46732 0.90652 0.63442 0.0
H1455 H 0.46116 0.88061 0.67176 0.0
H1456 H 0.38428 0.84669 0.7138 0.0
H1457 H 0.42249 0.8717 0.70933 0.0
H1458 H 0.32995 0.90351 0.55663 0.0
H1459 H 0.37081 0.92305 0.54942 0.0
H1460 H 0.30999 0.85585 0.57468 0.0
H1461 H 0.3012 0.83542 0.6148 0.0
C1462 C 0.36744 0.1 0.89622 0.0
C1463 C 0.4032 0.1089 0.90277 0.0
C1464 C 0.39807 0.15964 0.8629 0.0
C1465 C 0.36155 0.15258 0.85891 0.0
N1466 N 0.31002 0.11975 0.87652 0.0
N1467 N 0.45111 0.15038 0.89732 0.0
C1468 C 0.3458 0.12376 0.87691 0.0
C1469 C 0.41813 0.13965 0.88749 0.0
N1470 N 0.35445 0.06826 0.90741 0.0
N1471 N 0.41385 0.18468 0.84232 0.0
H1472 H 0.46657 0.1365 0.91532 0.0
H1473 H 0.46194 0.17456 0.89007 0.0
H1474 H 0.40007 0.1998 0.82396 0.0
H1475 H 0.441 0.18839 0.84122 0.0
H1476 H 0.32981 0.05859 0.90011 0.0
H1477 H 0.36946 0.05011 0.92156 0.0
H1478 H 0.29669 0.10161 0.89224 0.0
H1479 H 0.29326 0.13665 0.86279 0.0
C1480 C 0.61692 0.3558 0.85669 0.0
C1481 C 0.65406 0.35951 0.859 0.0
C1482 C 0.6472 0.4028 0.90667 0.0
C1483 C 0.6101 0.40124 0.90231 0.0
N1484 N 0.55956 0.38062 0.86965 0.0
N1485 N 0.70475 0.39027 0.88205 0.0
C1486 C 0.59491 0.37892 0.87631 0.0
C1487 C 0.66927 0.38407 0.88288 0.0
N1488 N 0.60271 0.32942 0.83656 0.0
N1489 N 0.66129 0.42134 0.93424 0.0
H1490 H 0.72178 0.37695 0.86513 0.0
H1491 H 0.71695 0.41058 0.89597 0.0
H1492 H 0.64599 0.43558 0.95205 0.0
H1493 H 0.68779 0.42034 0.94121 0.0
H1494 H 0.57609 0.32282 0.83682 0.0
H1495 H 0.61795 0.3121 0.82168 0.0
H1496 H 0.54748 0.36797 0.84847 0.0
H1497 H 0.54258 0.39707 0.8836 0.0
C1498 C 0.86671 0.39431 0.09841 0.0
C1499 C 0.9015 0.40263 0.10943 0.0
C1500 C 0.89198 0.3701 0.1646 0.0
C1501 C 0.85836 0.35925 0.1522 0.0
N1502 N 0.81585 0.35606 0.10502 0.0
N1503 N 0.94953 0.39384 0.15012 0.0
C1504 C 0.8463 0.36999 0.11843 0.0
C1505 C 0.91479 0.38924 0.14176 0.0
N1506 N 0.85278 0.41053 0.06939 0.0
N1507 N 0.90167 0.36311 0.19862 0.0
H1508 H 0.96703 0.40777 0.13414 0.0
H1509 H 0.96173 0.38142 0.17134 0.0
H1510 H 0.88576 0.3491 0.21612 0.0
H1511 H 0.92412 0.37366 0.21042 0.0
H1512 H 0.82637 0.40856 0.06222 0.0
H1513 H 0.8669 0.42845 0.05404 0.0
H1514 H 0.80762 0.35983 0.0791 0.0
H1515 H 0.8002 0.33818 0.11887 0.0
C1516 C 0.91585 0.64466 0.3929 0.0
C1517 C 0.90226 0.61228 0.40593 0.0
C1518 C 0.84481 0.62565 0.37936 0.0
C1519 C 0.85948 0.65613 0.36329 0.0
N1520 N 0.91056 0.69156 0.34983 0.0
N1521 N 0.85565 0.56894 0.40675 0.0
C1522 C 0.89547 0.66482 0.36872 0.0
C1523 C 0.8672 0.60193 0.39786 0.0
N1524 N 0.94777 0.65674 0.40452 0.0
N1525 N 0.80929 0.61992 0.37792 0.0
H1526 H 0.87128 0.55074 0.42013 0.0
H1527 H 0.83173 0.5585 0.39819 0.0
H1528 H 0.79199 0.63678 0.36483 0.0
H1529 H 0.79658 0.60027 0.3923 0.0
H1530 H 0.95737 0.68187 0.39891 0.0
H1531 H 0.96334 0.64291 0.42246 0.0
H1532 H 0.93752 0.69663 0.34979 0.0
H1533 H 0.89662 0.70678 0.33169 0.0
C1534 C 0.59683 0.64076 0.62126 0.0
C1535 C 0.60836 0.60631 0.61228 0.0
C1536 C 0.66026 0.61443 0.6502 0.0
C1537 C 0.6509 0.65028 0.65554 0.0
N1538 N 0.61385 0.69948 0.63971 0.0
N1539 N 0.65487 0.563 0.61272 0.0
C1540 C 0.62016 0.66401 0.63924 0.0
C1541 C 0.64117 0.59384 0.62524 0.0
N1542 N 0.56315 0.65094 0.61377 0.0
N1543 N 0.68654 0.59961 0.66984 0.0
H1544 H 0.64223 0.54757 0.59375 0.0
H1545 H 0.68029 0.55454 0.61856 0.0
H1546 H 0.70057 0.61351 0.68902 0.0
H1547 H 0.69202 0.57271 0.66956 0.0
H1548 H 0.55232 0.67445 0.62288 0.0
H1549 H 0.54485 0.63436 0.60159 0.0
H1550 H 0.59375 0.71123 0.62518 0.0
H1551 H 0.63077 0.71759 0.65168 0.0
C1552 C 0.24929 0.20779 0.48341 0.0
C1553 C 0.2579 0.23944 0.46538 0.0
C1554 C 0.26494 0.27051 0.52172 0.0
C1555 C 0.25784 0.2385 0.53978 0.0
N1556 N 0.24787 0.17578 0.53891 0.0
N1557 N 0.27861 0.29962 0.46645 0.0
C1558 C 0.25136 0.20682 0.5209 0.0
C1559 C 0.26718 0.27042 0.48431 0.0
N1560 N 0.23839 0.17895 0.46463 0.0
N1561 N 0.2684 0.30123 0.54037 0.0
H1562 H 0.27926 0.30113 0.439 0.0
H1563 H 0.28974 0.32158 0.47864 0.0
H1564 H 0.26809 0.30225 0.56785 0.0
H1565 H 0.26929 0.32609 0.52879 0.0
H1566 H 0.22794 0.1563 0.47607 0.0
H1567 H 0.2378 0.17837 0.43713 0.0
H1568 H 0.24669 0.15115 0.52686 0.0
H1569 H 0.2486 0.17432 0.56637 0.0
C1570 C 0.02336 0.97559 0.7687 0.0
C1571 C 0.01534 0.00686 0.7876 0.0
C1572 C 0.01197 0.04 0.73218 0.0
C1573 C 0.0163 0.00803 0.71324 0.0
N1574 N 0.0226 0.94479 0.71261 0.0
N1575 N 0.99815 0.06804 0.78794 0.0
C1576 C 0.02117 0.97563 0.73127 0.0
C1577 C 0.0088 0.03895 0.76952 0.0
N1578 N 0.03383 0.94611 0.7866 0.0
N1579 N 0.01139 0.07139 0.71443 0.0
H1580 H 0.99595 0.06845 0.81534 0.0
H1581 H 0.98904 0.09102 0.77605 0.0
H1582 H 0.01292 0.07311 0.68702 0.0
H1583 H 0.01217 0.09586 0.72685 0.0
H1584 H 0.04348 0.92355 0.77436 0.0
H1585 H 0.03567 0.94516 0.81403 0.0
H1586 H 0.02194 0.91995 0.72426 0.0
H1587 H 0.022 0.9439 0.68513 0.0
C1588 C 0.24682 0.79821 0.98123 0.0
C1589 C 0.25282 0.76588 0.96336 0.0
C1590 C 0.26184 0.73548 0.01979 0.0
C1591 C 0.25435 0.76749 0.03771 0.0
N1592 N 0.23673 0.82845 0.03683 0.0
N1593 N 0.26326 0.70318 0.96451 0.0
C1594 C 0.24601 0.79865 0.01877 0.0
C1595 C 0.25959 0.73434 0.98236 0.0
N1596 N 0.24244 0.82852 0.96216 0.0
N1597 N 0.27172 0.70635 0.03866 0.0
H1598 H 0.26384 0.70155 0.93707 0.0
H1599 H 0.26396 0.67856 0.97656 0.0
H1600 H 0.27171 0.70548 0.06614 0.0
H1601 H 0.28166 0.68343 0.02742 0.0
H1602 H 0.24176 0.85363 0.97317 0.0
H1603 H 0.24135 0.82892 0.93469 0.0
H1604 H 0.2267 0.85104 0.02502 0.0
H1605 H 0.23717 0.83006 0.06428 0.0
C1606 C 0.47174 0.02066 0.27624 0.0
C1607 C 0.49542 0.99802 0.29426 0.0
C1608 C 0.51836 0.97644 0.23795 0.0
C1609 C 0.49329 0.9975 0.21988 0.0
N1610 N 0.44222 0.03505 0.22131 0.0
N1611 N 0.53649 0.94971 0.29311 0.0
C1612 C 0.46879 0.01828 0.2389 0.0
C1613 C 0.51725 0.97443 0.27532 0.0
N1614 N 0.45301 0.04523 0.29471 0.0
N1615 N 0.54418 0.95953 0.21946 0.0
H1616 H 0.53648 0.94766 0.32054 0.0
H1617 H 0.55 0.92933 0.28072 0.0
H1618 H 0.54597 0.96051 0.19207 0.0
H1619 H 0.56551 0.947 0.23127 0.0
H1620 H 0.43847 0.0652 0.28283 0.0
H1621 H 0.45391 0.04722 0.32214 0.0
H1622 H 0.42136 0.04757 0.23387 0.0
H1623 H 0.43944 0.03404 0.19396 0.0
C1624 C 0.4833 0.28792 0.24857 0.0
C1625 C 0.46514 0.25552 0.24341 0.0
C1626 C 0.52135 0.22392 0.24168 0.0
C1627 C 0.5395 0.25661 0.24407 0.0
N1628 N 0.53827 0.32017 0.24352 0.0
N1629 N 0.46652 0.19371 0.2286 0.0
C1630 C 0.5206 0.28878 0.24564 0.0
C1631 C 0.48409 0.22378 0.23805 0.0
N1632 N 0.46504 0.31758 0.25765 0.0
N1633 N 0.53957 0.19296 0.24428 0.0
H1634 H 0.43923 0.19266 0.2256 0.0
H1635 H 0.47915 0.17068 0.2207 0.0
H1636 H 0.56688 0.19189 0.24703 0.0
H1637 H 0.52744 0.16842 0.24669 0.0
H1638 H 0.47707 0.34095 0.26566 0.0
H1639 H 0.43772 0.31806 0.26001 0.0
H1640 H 0.52575 0.34442 0.24077 0.0
H1641 H 0.56561 0.32181 0.24141 0.0
C1642 C 0.01057 0.27734 0.5236 0.0
C1643 C 0.01327 0.29641 0.49149 0.0
C1644 C 0.01653 0.24101 0.4581 0.0
C1645 C 0.01185 0.22201 0.49 0.0
N1646 N 1.00159 0.22102 0.55273 0.0
N1647 N 0.01588 0.29764 0.42805 0.0
C1648 C 0.00816 0.2399 0.52268 0.0
C1649 C 0.01547 0.27856 0.45866 0.0
N1650 N 0.01093 0.29512 0.55501 0.0
N1651 N 0.02254 0.22303 0.42743 0.0
H1652 H 0.01656 0.32514 0.42755 0.0
H1653 H 0.01358 0.28657 0.40306 0.0
H1654 H 0.02224 0.19557 0.42589 0.0
H1655 H 0.02989 0.23496 0.40387 0.0
H1656 H 0.01333 0.28297 0.57947 0.0
H1657 H 0.01078 0.32257 0.55678 0.0
H1658 H 0.99433 0.23229 0.57662 0.0
H1659 H 1.00153 0.19352 0.55353 0.0
C1660 C 0.98319 0.78981 0.74082 0.0
C1661 C 0.96463 0.75728 0.74087 0.0
C1662 C 0.02031 0.72499 0.73642 0.0
C1663 C 0.03891 0.75727 0.74032 0.0
N1664 N 0.03886 0.82019 0.74948 0.0
N1665 N 0.96476 0.69372 0.74192 0.0
C1666 C 0.02058 0.78971 0.74317 0.0
C1667 C 0.98298 0.72477 0.73933 0.0
N1668 N 0.96499 0.82077 0.738 0.0
N1669 N 0.03839 0.69467 0.72931 0.0
H1670 H 0.93735 0.69251 0.74318 0.0
H1671 H 0.97674 0.66929 0.74519 0.0
H1672 H 0.06577 0.69383 0.7273 0.0
H1673 H 0.02631 0.67093 0.72258 0.0
H1674 H 0.97696 0.84518 0.73412 0.0
H1675 H 0.93757 0.82182 0.73672 0.0
H1676 H 0.02697 0.84404 0.75588 0.0
H1677 H 0.06629 0.82123 0.75069 0.0
C1678 C 0.48887 0.73294 0.02329 0.0
C1679 C 0.50012 0.71398 0.99309 0.0
C1680 C 0.50849 0.76947 0.96087 0.0
C1681 C 0.5 0.78837 0.99199 0.0
N1682 N 0.48695 0.78884 0.05421 0.0
N1683 N 0.52451 0.71339 0.93451 0.0
C1684 C 0.49146 0.7703 0.0236 0.0
C1685 C 0.51095 0.73203 0.96217 0.0
N1686 N 0.47484 0.71519 0.05135 0.0
N1687 N 0.51344 0.78736 0.92996 0.0
H1688 H 0.52613 0.68593 0.93439 0.0
H1689 H 0.53643 0.72505 0.91273 0.0
H1690 H 0.51237 0.8148 0.92827 0.0
H1691 H 0.51606 0.77511 0.90556 0.0
H1692 H 0.46239 0.72755 0.07242 0.0
H1693 H 0.47314 0.68778 0.05237 0.0
H1694 H 0.48481 0.77704 0.0789 0.0
H1695 H 0.48799 0.8163 0.05547 0.0
C1696 C 0.52363 0.78589 0.25308 0.0
C1697 C 0.54187 0.75933 0.27203 0.0
C1698 C 0.48574 0.73509 0.29285 0.0
C1699 C 0.4676 0.75885 0.27041 0.0
N1700 N 0.46897 0.80408 0.22564 0.0
N1701 N 0.54089 0.70623 0.30698 0.0
C1702 C 0.48644 0.78368 0.24968 0.0
C1703 C 0.5231 0.73333 0.2913 0.0
N1704 N 0.54185 0.81364 0.23895 0.0
N1705 N 0.46722 0.71476 0.31615 0.0
H1706 H 0.56828 0.70427 0.30672 0.0
H1707 H 0.52851 0.68432 0.31797 0.0
H1708 H 0.43982 0.71549 0.31801 0.0
H1709 H 0.47903 0.69953 0.33568 0.0
H1710 H 0.52975 0.83571 0.22806 0.0
H1711 H 0.56915 0.81615 0.24091 0.0
H1712 H 0.48168 0.81966 0.20697 0.0
H1713 H 0.44171 0.80339 0.22239 0.0
C1714 C 0.49984 0.23397 0.55266 0.0
C1715 C 0.50883 0.21615 0.52104 0.0
C1716 C 0.51791 0.27275 0.49099 0.0
C1717 C 0.50641 0.2905 0.52183 0.0
N1718 N 0.48338 0.28901 0.58094 0.0
N1719 N 0.5234 0.21748 0.4592 0.0
C1720 C 0.49661 0.27137 0.55245 0.0
C1721 C 0.51712 0.23527 0.48994 0.0
N1722 N 0.49494 0.21507 0.58298 0.0
N1723 N 0.53009 0.29185 0.4629 0.0
H1724 H 0.52429 0.19005 0.45766 0.0
H1725 H 0.52556 0.22958 0.43469 0.0
H1726 H 0.52995 0.31934 0.4622 0.0
H1727 H 0.54254 0.28076 0.44117 0.0
H1728 H 0.49215 0.22646 0.60777 0.0
H1729 H 0.49588 0.18759 0.58379 0.0
H1730 H 0.47196 0.27662 0.60258 0.0
H1731 H 0.48189 0.31645 0.58215 0.0
C1732 C 0.02585 0.23372 0.79337 0.0
C1733 C 0.0448 0.25822 0.77242 0.0
C1734 C 0.98953 0.28314 0.75033 0.0
C1735 C 0.97055 0.25974 0.77252 0.0
N1736 N 0.97 0.21753 0.81998 0.0
N1737 N 0.04547 0.31084 0.73673 0.0
C1738 C 0.98857 0.23647 0.79557 0.0
C1739 C 0.02684 0.2844 0.75269 0.0
N1740 N 0.04337 0.20707 0.8101 0.0
N1741 N 0.97202 0.303 0.72586 0.0
H1742 H 0.07288 0.31253 0.73773 0.0
H1743 H 0.03374 0.33277 0.72516 0.0
H1744 H 0.94467 0.30308 0.72338 0.0
H1745 H 0.98465 0.31736 0.70618 0.0
H1746 H 0.03078 0.18603 0.82246 0.0
H1747 H 0.07071 0.20456 0.80951 0.0
H1748 H 0.98177 0.20275 0.83987 0.0
H1749 H 0.94267 0.21902 0.82227 0.0
C1750 C 0.9909 0.77392 0.98499 0.0
C1751 C 0.99808 0.7928 0.01656 0.0
C1752 C 0.00783 0.73727 0.0483 0.0
C1753 C 0.99944 0.71839 0.01706 0.0
N1754 N 0.97867 0.71759 0.95697 0.0
N1755 N 0.00879 0.79344 0.07916 0.0
C1756 C 0.98963 0.73642 0.98578 0.0
C1757 C 0.00516 0.77472 0.04853 0.0
N1758 N 0.98618 0.79194 0.9541 0.0
N1759 N 0.01924 0.71933 0.07742 0.0
H1760 H 0.00817 0.82092 0.08006 0.0
H1761 H 0.01017 0.78193 0.10401 0.0
H1762 H 0.02013 0.69186 0.07863 0.0
H1763 H 0.0297 0.73145 0.09973 0.0
H1764 H 0.98493 0.78001 0.92943 0.0
H1765 H 0.98558 0.81939 0.9527 0.0
H1766 H 0.96744 0.7289 0.93466 0.0
H1767 H 0.97859 0.6901 0.95612 0.0
C1768 C 0.21653 0.48803 0.26517 0.0
C1769 C 0.24106 0.46892 0.24448 0.0
C1770 C 0.26301 0.52435 0.21939 0.0
C1771 C 0.24198 0.54346 0.24363 0.0
N1772 N 0.20185 0.54366 0.29288 0.0
N1773 N 0.29137 0.46895 0.20561 0.0
C1774 C 0.21939 0.52537 0.26732 0.0
C1775 C 0.26522 0.48706 0.22239 0.0
N1776 N 0.19004 0.4705 0.28217 0.0
N1777 N 0.28028 0.54177 0.19299 0.0
H1778 H 0.29423 0.44167 0.20734 0.0
H1779 H 0.31206 0.48127 0.19242 0.0
H1780 H 0.27898 0.56906 0.18973 0.0
H1781 H 0.29307 0.52893 0.17241 0.0
H1782 H 0.1693 0.48322 0.29477 0.0
H1783 H 0.18696 0.44318 0.28085 0.0
H1784 H 0.18816 0.53153 0.31334 0.0
H1785 H 0.20333 0.57101 0.29542 0.0
C1786 C 0.76815 0.02699 0.78467 0.0
C1787 C 0.74319 0.04634 0.76474 0.0
C1788 C 0.71235 0.99144 0.74969 0.0
C1789 C 0.73985 0.97194 0.76582 0.0
N1790 N 0.79699 0.97091 0.79393 0.0
N1791 N 0.69392 0.04718 0.72449 0.0
C1792 C 0.76855 0.98963 0.7822 0.0
C1793 C 0.71578 0.02865 0.74632 0.0
N1794 N 0.79108 0.04434 0.80646 0.0
N1795 N 0.68261 0.97447 0.73837 0.0
H1796 H 0.69542 0.07447 0.72147 0.0
H1797 H 0.67609 0.03525 0.70732 0.0
H1798 H 0.67916 0.94726 0.7406 0.0
H1799 H 0.66017 0.98761 0.72968 0.0
H1800 H 0.80743 0.03152 0.82439 0.0
H1801 H 0.79139 0.07174 0.80906 0.0
H1802 H 0.82025 0.9827 0.80256 0.0
H1803 H 0.79873 0.94353 0.79212 0.0
C1804 C 0.27284 0.52075 0.01058 0.0
C1805 C 0.29045 0.48861 1.00306 0.0
C1806 C 0.23378 0.45774 0.99774 0.0
C1807 C 0.21621 0.49025 1.00331 0.0
N1808 N 0.21786 0.55322 0.01211 0.0
N1809 N 0.2889 0.42729 0.98657 0.0
C1810 C 0.23545 0.52191 0.009 0.0
C1811 C 0.27124 0.45727 0.99584 0.0
N1812 N 0.29196 0.55 0.01978 0.0
N1813 N 0.21456 0.42731 0.99487 0.0
H1814 H 0.31632 0.42568 0.98625 0.0
H1815 H 0.27672 0.40452 0.97724 0.0
H1816 H 0.18709 0.42689 0.99495 0.0
H1817 H 0.22551 0.40221 0.9945 0.0
H1818 H 0.28095 0.57301 0.02976 0.0
H1819 H 0.31941 0.55083 0.01935 0.0
H1820 H 0.23008 0.5778 0.01199 0.0
H1821 H 0.19047 0.55497 0.0129 0.0
C1822 C 0.73116 0.02526 0.24491 0.0
C1823 C 0.76293 0.04382 0.25183 0.0
C1824 C 0.79426 0.98791 0.26026 0.0
C1825 C 0.76296 0.9694 0.25138 0.0
N1826 N 0.70306 0.96963 0.23024 0.0
N1827 N 0.82566 0.0438 0.26128 0.0
C1828 C 0.73181 0.98787 0.2422 0.0
C1829 C 0.7948 0.02539 0.25812 0.0
N1830 N 0.70015 0.04335 0.24214 0.0
N1831 N 0.82312 0.96963 0.2716 0.0
H1832 H 0.82688 0.07127 0.26033 0.0
H1833 H 0.85035 0.03199 0.26224 0.0
H1834 H 0.82391 0.94214 0.27263 0.0
H1835 H 0.84546 0.98152 0.28224 0.0
H1836 H 0.67555 0.03124 0.24126 0.0
H1837 H 0.69867 0.0708 0.2432 0.0
H1838 H 0.68096 0.98158 0.21929 0.0
H1839 H 0.70222 0.94218 0.22884 0.0
C1840 C 0.76951 0.04049 0.02283 0.0
C1841 C 0.78873 0.0191 0.99903 0.0
C1842 C 0.73368 0.99804 0.97235 0.0
C1843 C 0.71455 0.01636 0.99864 0.0
N1844 N 0.71336 0.05295 0.05062 0.0
N1845 N 0.78999 0.97492 0.95325 0.0
C1846 C 0.73221 0.03725 0.02425 0.0
C1847 C 0.77106 0.99731 0.97417 0.0
N1848 N 0.78698 0.06427 0.04363 0.0
N1849 N 0.71603 0.98175 0.94541 0.0
H1850 H 0.81744 0.97405 0.9533 0.0
H1851 H 0.77862 0.95543 0.93757 0.0
H1852 H 0.68862 0.98137 0.94359 0.0
H1853 H 0.72839 0.9711 0.92338 0.0
H1854 H 0.77442 0.08321 0.05894 0.0
H1855 H 0.81433 0.06691 0.04354 0.0
H1856 H 0.72483 0.06504 0.07244 0.0
H1857 H 0.68593 0.05207 0.05187 0.0
C1858 C 0.23082 0.52113 0.74315 0.0
C1859 C 0.26309 0.53995 0.7455 0.0
C1860 C 0.29565 0.48433 0.74973 0.0
C1861 C 0.26362 0.46555 0.74509 0.0
N1862 N 0.20162 0.46547 0.73125 0.0
N1863 N 0.32652 0.54032 0.74559 0.0
C1864 C 0.23143 0.4838 0.74001 0.0
C1865 C 0.29564 0.52177 0.74719 0.0
N1866 N 0.19956 0.53886 0.74519 0.0
N1867 N 0.32584 0.4664 0.75766 0.0
H1868 H 0.32742 0.56778 0.74407 0.0
H1869 H 0.35111 0.52856 0.74296 0.0
H1870 H 0.3269 0.43896 0.75929 0.0
H1871 H 0.34922 0.47866 0.76519 0.0
H1872 H 0.17526 0.52636 0.74776 0.0
H1873 H 0.19796 0.56625 0.74704 0.0
H1874 H 0.1783 0.47746 0.72328 0.0
H1875 H 0.20095 0.43807 0.72915 0.0
C1876 C 0.24048 0.50646 0.53103 0.0
C1877 C 0.22185 0.52521 0.50457 0.0
C1878 C 0.27758 0.54769 0.48082 0.0
C1879 C 0.29618 0.52544 0.50441 0.0
N1880 N 0.29571 0.48028 0.54925 0.0
N1881 N 0.2221 0.56091 0.45199 0.0
C1882 C 0.27775 0.50405 0.52898 0.0
C1883 C 0.24023 0.54529 0.47892 0.0
N1884 N 0.22253 0.49155 0.5585 0.0
N1885 N 0.29565 0.57157 0.46075 0.0
H1886 H 0.19472 0.56005 0.44995 0.0
H1887 H 0.23423 0.5725 0.43028 0.0
H1888 H 0.32301 0.57402 0.46159 0.0
H1889 H 0.28348 0.59097 0.44565 0.0
H1890 H 0.23483 0.48074 0.58052 0.0
H1891 H 0.19519 0.49274 0.56086 0.0
H1892 H 0.28339 0.46114 0.56461 0.0
H1893 H 0.32303 0.47775 0.54872 0.0
C1894 C 0.77951 0.76432 0.98933 0.0
C1895 C 0.75819 0.7397 0.97083 0.0
C1896 C 0.7413 0.71201 0.02673 0.0
C1897 C 0.75889 0.73941 0.04526 0.0
N1898 N 0.79108 0.79439 0.04449 0.0
N1899 N 0.7159 0.69219 0.97142 0.0
C1900 C 0.77724 0.76622 0.02666 0.0
C1901 C 0.73844 0.7139 0.98937 0.0
N1902 N 0.8024 0.78547 0.9712 0.0
N1903 N 0.72789 0.68389 0.04488 0.0
H1904 H 0.71339 0.69257 0.94403 0.0
H1905 H 0.69783 0.6756 0.98373 0.0
H1906 H 0.72961 0.68172 0.07225 0.0
H1907 H 0.71787 0.66137 0.03273 0.0
H1908 H 0.82125 0.80132 0.98341 0.0
H1909 H 0.8048 0.7848 0.94381 0.0
H1910 H 0.80108 0.81673 0.03203 0.0
H1911 H 0.79007 0.79686 0.07185 0.0
C1912 C 0.51012 0.46251 0.27392 0.0
C1913 C 0.52188 0.49326 0.29178 0.0
C1914 C 0.53585 0.52127 0.23527 0.0
C1915 C 0.51989 0.49245 0.21746 0.0
N1916 N 0.48936 0.43663 0.21916 0.0
N1917 N 0.54343 0.5531 0.29025 0.0
C1918 C 0.50662 0.46313 0.23658 0.0
C1919 C 0.53434 0.52291 0.27268 0.0
N1920 N 0.50272 0.43262 0.29272 0.0
N1921 N 0.55291 0.54677 0.21631 0.0
H1922 H 0.54342 0.55503 0.31769 0.0
H1923 H 0.5487 0.57696 0.27774 0.0
H1924 H 0.55445 0.54635 0.18884 0.0
H1925 H 0.5681 0.56662 0.22773 0.0
H1926 H 0.49754 0.40826 0.28113 0.0
H1927 H 0.50459 0.43142 0.32014 0.0
H1928 H 0.47554 0.41658 0.23181 0.0
H1929 H 0.48686 0.43586 0.19178 0.0
C1930 C 0.76264 0.24064 0.48471 0.0
C1931 C 0.7507 0.27102 0.4665 0.0
C1932 C 0.73805 0.30043 0.52269 0.0
C1933 C 0.75205 0.27089 0.54086 0.0
N1934 N 0.78227 0.21507 0.53984 0.0
N1935 N 0.73103 0.33135 0.46701 0.0
C1936 C 0.7656 0.24157 0.52203 0.0
C1937 C 0.73956 0.30141 0.48519 0.0
N1938 N 0.77036 0.21059 0.46632 0.0
N1939 N 0.72243 0.32698 0.54133 0.0
H1940 H 0.73104 0.33264 0.43953 0.0
H1941 H 0.72628 0.35558 0.47896 0.0
H1942 H 0.72132 0.32725 0.56881 0.0
H1943 H 0.7084 0.34747 0.52975 0.0
H1944 H 0.77502 0.1863 0.47819 0.0
H1945 H 0.76982 0.20919 0.43886 0.0
H1946 H 0.7964 0.19503 0.5276 0.0
H1947 H 0.78424 0.21446 0.56722 0.0
C1948 C 0.9695 0.49234 0.73547 0.0
C1949 C 0.99562 0.51246 0.71778 0.0
C1950 C 0.01679 0.53518 0.77451 0.0
C1951 C 0.99397 0.51139 0.79222 0.0
N1952 N 0.95146 0.46405 0.78982 0.0
N1953 N 0.04756 0.54927 0.72046 0.0
C1954 C 0.97091 0.48918 0.77279 0.0
C1955 C 0.02011 0.53307 0.73727 0.0
N1956 N 0.94294 0.47686 0.7166 0.0
N1957 N 0.03473 0.56029 0.79324 0.0
H1958 H 0.05121 0.54817 0.69324 0.0
H1959 H 0.0684 0.56127 0.73376 0.0
H1960 H 0.03271 0.56285 0.82056 0.0
H1961 H 0.04894 0.58063 0.78145 0.0
H1962 H 0.92122 0.46479 0.72823 0.0
H1963 H 0.94093 0.47894 0.68924 0.0
H1964 H 0.93723 0.4445 0.77674 0.0
H1965 H 0.95176 0.46089 0.81713 0.0
C1966 C 0.77749 0.02578 0.49917 0.0
C1967 C 0.79676 0.99396 0.50317 0.0
C1968 C 0.74174 0.96037 0.50957 0.0
C1969 C 0.7225 0.99201 0.50447 0.0
N1970 N 0.72078 0.05431 0.49176 0.0
N1971 N 0.79849 0.93075 0.50927 0.0
C1972 C 0.74005 0.0246 0.49853 0.0
C1973 C 0.77921 0.96114 0.50753 0.0
N1974 N 0.79515 0.0572 0.49662 0.0
N1975 N 0.72406 0.92977 0.51696 0.0
H1976 H 0.82595 0.93051 0.50945 0.0
H1977 H 0.78766 0.90555 0.50877 0.0
H1978 H 0.69665 0.92799 0.51715 0.0
H1979 H 0.73616 0.90643 0.52463 0.0
H1980 H 0.78317 0.08178 0.498 0.0
H1981 H 0.82249 0.059 0.4947 0.0
H1982 H 0.7315 0.07801 0.48305 0.0
H1983 H 0.69337 0.05507 0.49318 0.0
loop_
_geom_bond_atom_site_label_1
_geom_bond_atom_site_label_2
_geom_bond_distance
_geom_bond_site_symmetry_2
_ccdc_geom_bond_type
Li0 N17 1.990 . S
Li0 O60 1.956 . S
Li0 O61 1.970 . S
Li0 O62 1.961 . S
Li1 N25 1.990 . S
Li1 O60 1.970 . S
Li1 O61 1.956 . S
Li1 O63 1.961 . S
Li2 N47 1.990 . S
Li2 O60 1.961 . S
Li2 O62 1.956 . S
Li2 O63 1.970 . S
Li3 N53 1.990 . S
Li3 O61 1.961 . S
Li3 O62 1.970 . S
Li3 O63 1.956 . S
C4 C6 1.348 . S
C4 C7 1.356 . S
C4 O60 1.325 . S
N5 C8 1.314 . S
N5 C9 1.279 . S
C6 C4 1.348 . S
C6 C8 1.353 . S
C6 H64 0.929 . S
C7 C4 1.356 . S
C7 C9 1.358 . S
C7 H65 0.930 . S
C8 N5 1.314 . S
C8 C6 1.353 . S
C8 H66 0.930 . S
C9 N5 1.279 . S
C9 C7 1.358 . S
C9 H67 0.930 . S
C10 C13 1.348 . S
C10 C14 1.356 . S
C10 O61 1.325 . S
C11 N12 1.279 . S
C11 C14 1.358 . S
C11 H68 0.930 . S
N12 C11 1.279 . S
N12 C15 1.314 . S
C13 C10 1.348 . S
C13 C15 1.353 . S
C13 H69 0.929 . S
C14 C10 1.356 . S
C14 C11 1.358 . S
C14 H70 0.930 . S
C15 N12 1.314 . S
C15 C13 1.353 . S
C15 H71 0.930 . S
C16 N17 1.314 . S
C16 C21 1.353 . S
C16 H22 0.930 . S
N17 Li0 1.990 . S
N17 C16 1.314 . S
N17 C19 1.279 . S
C18 C19 1.358 . S
C18 C20 1.356 . S
C18 H72 0.930 . S
C19 N17 1.279 . S
C19 C18 1.358 . S
C19 H23 0.930 . S
C20 C18 1.356 . S
C20 C21 1.348 . S
C21 C16 1.353 . S
C21 C20 1.348 . S
C21 H73 0.929 . S
H22 C16 0.930 . S
H23 C19 0.930 . S
C24 N25 1.314 . S
C24 C26 1.353 . S
C24 H30 0.930 . S
N25 Li1 1.990 . S
N25 C24 1.314 . S
N25 C28 1.279 . S
C26 C24 1.353 . S
C26 C29 1.348 . S
C26 H74 0.929 . S
C27 C28 1.358 . S
C27 C29 1.356 . S
C27 H75 0.930 . S
C28 N25 1.279 . S
C28 C27 1.358 . S
C28 H31 0.930 . S
C29 C26 1.348 . S
C29 C27 1.356 . S
H30 C24 0.930 . S
H31 C28 0.930 . S
C32 C34 1.348 . S
C32 C35 1.356 . S
C32 O62 1.325 . S
N33 C36 1.314 . S
N33 C37 1.279 . S
C34 C32 1.348 . S
C34 C36 1.353 . S
C34 H76 0.929 . S
C35 C32 1.356 . S
C35 C37 1.358 . S
C35 H77 0.930 . S
C36 N33 1.314 . S
C36 C34 1.353 . S
C36 H78 0.930 . S
C37 N33 1.279 . S
C37 C35 1.358 . S
C37 H79 0.930 . S
C38 C39 1.348 . S
C38 C40 1.356 . S
C38 O63 1.325 . S
C39 C38 1.348 . S
C39 C41 1.353 . S
C39 H80 0.929 . S
C40 C38 1.356 . S
C40 C42 1.358 . S
C40 H81 0.930 . S
C41 C39 1.353 . S
C41 N43 1.314 . S
C41 H82 0.930 . S
C42 C40 1.358 . S
C42 N43 1.279 . S
C42 H83 0.930 . S
N43 C41 1.314 . S
N43 C42 1.279 . S
C44 C46 1.353 . S
C44 N47 1.314 . S
C44 H50 0.930 . S
C45 N47 1.279 . S
C45 C48 1.358 . S
C45 H51 0.930 . S
C46 C44 1.353 . S
C46 C49 1.348 . S
C46 H84 0.929 . S
N47 Li2 1.990 . S
N47 C44 1.314 . S
N47 C45 1.279 . S
C48 C45 1.358 . S
C48 C49 1.356 . S
C48 H85 0.930 . S
C49 C46 1.348 . S
C49 C48 1.356 . S
H50 C44 0.930 . S
H51 C45 0.930 . S
C52 N53 1.314 . S
C52 C54 1.353 . S
C52 H58 0.930 . S
N53 Li3 1.990 . S
N53 C52 1.314 . S
N53 C56 1.279 . S
C54 C52 1.353 . S
C54 C57 1.348 . S
C54 H86 0.929 . S
C55 C56 1.358 . S
C55 C57 1.356 . S
C55 H87 0.930 . S
C56 N53 1.279 . S
C56 C55 1.358 . S
C56 H59 0.930 . S
C57 C54 1.348 . S
C57 C55 1.356 . S
H58 C52 0.930 . S
H59 C56 0.930 . S
O60 Li0 1.956 . S
O60 Li1 1.970 . S
O60 Li2 1.961 . S
O60 C4 1.325 . S
O61 Li0 1.970 . S
O61 Li1 1.956 . S
O61 Li3 1.961 . S
O61 C10 1.325 . S
O62 Li0 1.961 . S
O62 Li2 1.956 . S
O62 Li3 1.970 . S
O62 C32 1.325 . S
O63 Li1 1.961 . S
O63 Li2 1.970 . S
O63 Li3 1.956 . S
O63 C38 1.325 . S
H64 C6 0.929 . S
H65 C7 0.930 . S
H66 C8 0.930 . S
H67 C9 0.930 . S
H68 C11 0.930 . S
H69 C13 0.929 . S
H70 C14 0.930 . S
H71 C15 0.930 . S
H72 C18 0.930 . S
H73 C21 0.929 . S
H74 C26 0.929 . S
H75 C27 0.930 . S
H76 C34 0.929 . S
H77 C35 0.930 . S
H78 C36 0.930 . S
H79 C37 0.930 . S
H80 C39 0.929 . S
H81 C40 0.930 . S
H82 C41 0.930 . S
H83 C42 0.930 . S
H84 C46 0.929 . S
H85 C48 0.930 . S
H86 C54 0.929 . S
H87 C55 0.930 . S
Li88 N105 1.990 1_655 S
Li88 O148 1.956 . S
Li88 O149 1.970 . S
Li88 O150 1.961 1_655 S
Li89 N113 1.990 . S
Li89 O148 1.970 . S
Li89 O149 1.956 . S
Li89 O151 1.961 1_545 S
Li90 N135 1.990 . S
Li90 O148 1.961 . S
Li90 O150 1.956 1_655 S
Li90 O151 1.970 1_545 S
Li91 N141 1.990 . S
Li91 O149 1.961 1_465 S
Li91 O150 1.970 1_565 S
Li91 O151 1.956 1_455 S
C92 C94 1.348 . S
C92 C95 1.356 . S
C92 O148 1.325 . S
N93 C96 1.314 . S
N93 C97 1.279 . S
C94 C92 1.348 . S
C94 C96 1.353 . S
C94 H152 0.929 . S
C95 C92 1.356 . S
C95 C97 1.358 . S
C95 H153 0.930 . S
C96 N93 1.314 . S
C96 C94 1.353 . S
C96 H154 0.930 . S
C97 N93 1.279 . S
C97 C95 1.358 . S
C97 H155 0.930 . S
C98 C101 1.348 . S
C98 C102 1.356 . S
C98 O149 1.325 . S
C99 N100 1.279 . S
C99 C102 1.358 . S
C99 H156 0.930 . S
N100 C99 1.279 . S
N100 C103 1.314 . S
C101 C98 1.348 . S
C101 C103 1.353 . S
C101 H157 0.929 . S
C102 C98 1.356 . S
C102 C99 1.358 . S
C102 H158 0.930 1_545 S
C103 N100 1.314 . S
C103 C101 1.353 . S
C103 H159 0.930 . S
C104 N105 1.314 . S
C104 C109 1.353 . S
C104 H110 0.930 . S
N105 Li88 1.990 1_455 S
N105 C104 1.314 . S
N105 C107 1.279 1_455 S
C106 C107 1.358 . S
C106 C108 1.356 1_655 S
C106 H160 0.930 . S
C107 N105 1.279 1_655 S
C107 C106 1.358 . S
C107 H111 0.930 . S
C108 C106 1.356 1_455 S
C108 C109 1.348 . S
C109 C104 1.353 . S
C109 C108 1.348 . S
C109 H161 0.929 . S
H110 C104 0.930 . S
H111 C107 0.930 . S
C112 N113 1.314 1_565 S
C112 C114 1.353 . S
C112 H118 0.930 . S
N113 Li89 1.990 . S
N113 C112 1.314 1_545 S
N113 C116 1.279 . S
C114 C112 1.353 . S
C114 C117 1.348 . S
C114 H162 0.929 . S
C115 C116 1.358 . S
C115 C117 1.356 1_545 S
C115 H163 0.930 . S
C116 N113 1.279 . S
C116 C115 1.358 . S
C116 H119 0.930 . S
C117 C114 1.348 . S
C117 C115 1.356 1_565 S
H118 C112 0.930 . S
H119 C116 0.930 . S
C120 C122 1.348 . S
C120 C123 1.356 . S
C120 O150 1.325 . S
N121 C124 1.314 . S
N121 C125 1.279 . S
C122 C120 1.348 . S
C122 C124 1.353 . S
C122 H164 0.929 1_545 S
C123 C120 1.356 . S
C123 C125 1.358 . S
C123 H165 0.930 . S
C124 N121 1.314 . S
C124 C122 1.353 . S
C124 H166 0.945 . S
C125 N121 1.279 . S
C125 C123 1.358 . S
C125 H167 0.930 . S
C126 C127 1.348 . S
C126 C128 1.356 . S
C126 O151 1.325 . S
C127 C126 1.348 . S
C127 C129 1.353 . S
C127 H168 0.929 . S
C128 C126 1.356 . S
C128 C130 1.358 . S
C128 H169 0.930 . S
C129 C127 1.353 . S
C129 N131 1.314 . S
C129 H170 0.930 . S
C130 C128 1.358 . S
C130 N131 1.279 . S
C130 H171 0.930 . S
N131 C129 1.314 . S
N131 C130 1.279 . S
C132 C134 1.353 . S
C132 N135 1.314 1_565 S
C132 H138 0.930 1_565 S
C133 N135 1.279 1_465 S
C133 C136 1.358 . S
C133 H139 0.930 . S
C134 C132 1.353 . S
C134 C137 1.348 1_655 S
C134 H172 0.929 . S
N135 Li90 1.990 . S
N135 C132 1.314 1_545 S
N135 C133 1.279 1_645 S
C136 C133 1.358 . S
C136 C137 1.356 . S
C136 H173 0.930 . S
C137 C134 1.348 1_455 S
C137 C136 1.356 . S
H138 C132 0.930 1_545 S
H139 C133 0.930 . S
C140 N141 1.314 . S
C140 C142 1.353 . S
C140 H146 0.934 . S
N141 Li91 1.990 . S
N141 C140 1.314 . S
N141 C144 1.279 . S
C142 C140 1.353 . S
C142 C145 1.348 . S
C142 H174 0.929 . S
C143 C144 1.358 . S
C143 C145 1.356 . S
C143 H175 0.930 . S
C144 N141 1.279 . S
C144 C143 1.358 . S
C144 H147 0.930 . S
C145 C142 1.348 . S
C145 C143 1.356 . S
H146 C140 0.934 . S
H147 C144 0.930 . S
O148 Li88 1.956 . S
O148 Li89 1.970 . S
O148 Li90 1.961 . S
O148 C92 1.325 . S
O149 Li88 1.970 . S
O149 Li89 1.956 . S
O149 Li91 1.961 1_645 S
O149 C98 1.325 . S
O150 Li88 1.961 1_455 S
O150 Li90 1.956 1_455 S
O150 Li91 1.970 1_545 S
O150 C120 1.325 . S
O151 Li89 1.961 1_565 S
O151 Li90 1.970 1_565 S
O151 Li91 1.956 1_655 S
O151 C126 1.325 . S
H152 C94 0.929 . S
H153 C95 0.930 . S
H154 C96 0.930 . S
H155 C97 0.930 . S
H156 C99 0.930 . S
H157 C101 0.929 . S
H158 C102 0.930 1_565 S
H159 C103 0.930 . S
H160 C106 0.930 . S
H161 C109 0.929 . S
H162 C114 0.929 . S
H163 C115 0.930 . S
H164 C122 0.929 1_565 S
H165 C123 0.930 . S
H166 C124 0.945 . S
H167 C125 0.930 . S
H168 C127 0.929 . S
H169 C128 0.930 . S
H170 C129 0.930 . S
H171 C130 0.930 . S
H172 C134 0.929 . S
H173 C136 0.930 . S
H174 C142 0.929 . S
H175 C143 0.930 . S
Li176 N193 1.990 . S
Li176 O236 1.956 . S
Li176 O237 1.970 . S
Li176 O238 1.961 . S
Li177 N201 1.990 . S
Li177 O236 1.970 . S
Li177 O237 1.956 . S
Li177 O239 1.961 . S
Li178 N223 1.990 . S
Li178 O236 1.961 . S
Li178 O238 1.956 . S
Li178 O239 1.970 . S
Li179 N229 1.990 . S
Li179 O237 1.961 . S
Li179 O238 1.970 . S
Li179 O239 1.956 . S
C180 C182 1.348 . S
C180 C183 1.356 . S
C180 O236 1.325 . S
N181 C184 1.314 . S
N181 C185 1.279 . S
C182 C180 1.348 . S
C182 C184 1.353 . S
C182 H240 0.929 . S
C183 C180 1.356 . S
C183 C185 1.358 . S
C183 H241 0.930 . S
C184 N181 1.314 . S
C184 C182 1.353 . S
C184 H242 0.930 . S
C185 N181 1.279 . S
C185 C183 1.358 . S
C185 H243 0.930 . S
C186 C189 1.348 . S
C186 C190 1.356 . S
C186 O237 1.325 . S
C187 N188 1.279 . S
C187 C190 1.358 . S
C187 H244 0.930 . S
N188 C187 1.279 . S
N188 C191 1.314 . S
C189 C186 1.348 . S
C189 C191 1.353 . S
C189 H245 0.929 . S
C190 C186 1.356 . S
C190 C187 1.358 . S
C190 H246 0.930 . S
C191 N188 1.314 . S
C191 C189 1.353 . S
C191 H247 0.930 . S
C192 N193 1.314 . S
C192 C197 1.353 . S
C192 H198 0.930 . S
N193 Li176 1.990 . S
N193 C192 1.314 . S
N193 C195 1.279 . S
C194 C195 1.358 . S
C194 C196 1.356 . S
C194 H248 0.930 . S
C195 N193 1.279 . S
C195 C194 1.358 . S
C195 H199 0.930 . S
C196 C194 1.356 . S
C196 C197 1.348 . S
C197 C192 1.353 . S
C197 C196 1.348 . S
C197 H249 0.929 . S
H198 C192 0.930 . S
H199 C195 0.930 . S
C200 N201 1.314 . S
C200 C202 1.353 . S
C200 H206 0.930 . S
N201 Li177 1.990 . S
N201 C200 1.314 . S
N201 C204 1.279 . S
C202 C200 1.353 . S
C202 C205 1.348 . S
C202 H250 0.929 . S
C203 C204 1.358 . S
C203 C205 1.356 . S
C203 H251 0.930 . S
C204 N201 1.279 . S
C204 C203 1.358 . S
C204 H207 0.930 . S
C205 C202 1.348 . S
C205 C203 1.356 . S
H206 C200 0.930 . S
H207 C204 0.930 . S
C208 C210 1.348 . S
C208 C211 1.356 . S
C208 O238 1.325 . S
N209 C212 1.314 . S
N209 C213 1.279 . S
C210 C208 1.348 . S
C210 C212 1.353 . S
C210 H252 0.929 . S
C211 C208 1.356 . S
C211 C213 1.358 . S
C211 H253 0.930 . S
C212 N209 1.314 . S
C212 C210 1.353 . S
C212 H254 0.930 . S
C213 N209 1.279 . S
C213 C211 1.358 . S
C213 H255 0.930 . S
C214 C215 1.348 . S
C214 C216 1.356 . S
C214 O239 1.325 . S
C215 C214 1.348 . S
C215 C217 1.353 . S
C215 H256 0.929 . S
C216 C214 1.356 . S
C216 C218 1.358 . S
C216 H257 0.930 . S
C217 C215 1.353 . S
C217 N219 1.314 . S
C217 H258 0.930 . S
C218 C216 1.358 . S
C218 N219 1.279 . S
C218 H259 0.930 . S
N219 C217 1.314 . S
N219 C218 1.279 . S
C220 C222 1.353 . S
C220 N223 1.314 . S
C220 H226 0.930 . S
C221 N223 1.279 . S
C221 C224 1.358 . S
C221 H227 0.930 . S
C222 C220 1.353 . S
C222 C225 1.348 . S
C222 H260 0.929 . S
N223 Li178 1.990 . S
N223 C220 1.314 . S
N223 C221 1.279 . S
C224 C221 1.358 . S
C224 C225 1.356 . S
C224 H261 0.930 . S
C225 C222 1.348 . S
C225 C224 1.356 . S
H226 C220 0.930 . S
H227 C221 0.930 . S
C228 N229 1.314 . S
C228 C230 1.353 . S
C228 H234 0.930 . S
N229 Li179 1.990 . S
N229 C228 1.314 . S
N229 C232 1.279 . S
C230 C228 1.353 . S
C230 C233 1.348 . S
C230 H262 0.929 . S
C231 C232 1.358 . S
C231 C233 1.356 . S
C231 H263 0.930 . S
C232 N229 1.279 . S
C232 C231 1.358 . S
C232 H235 0.930 . S
C233 C230 1.348 . S
C233 C231 1.356 . S
H234 C228 0.930 . S
H235 C232 0.930 . S
O236 Li176 1.956 . S
O236 Li177 1.970 . S
O236 Li178 1.961 . S
O236 C180 1.325 . S
O237 Li176 1.970 . S
O237 Li177 1.956 . S
O237 Li179 1.961 . S
O237 C186 1.325 . S
O238 Li176 1.961 . S
O238 Li178 1.956 . S
O238 Li179 1.970 . S
O238 C208 1.325 . S
O239 Li177 1.961 . S
O239 Li178 1.970 . S
O239 Li179 1.956 . S
O239 C214 1.325 . S
H240 C182 0.929 . S
H241 C183 0.930 . S
H242 C184 0.930 . S
H243 C185 0.930 . S
H244 C187 0.930 . S
H245 C189 0.929 . S
H246 C190 0.930 . S
H247 C191 0.930 . S
H248 C194 0.930 . S
H249 C197 0.929 . S
H250 C202 0.929 . S
H251 C203 0.930 . S
H252 C210 0.929 . S
H253 C211 0.930 . S
H254 C212 0.930 . S
H255 C213 0.930 . S
H256 C215 0.929 . S
H257 C216 0.930 . S
H258 C217 0.930 . S
H259 C218 0.930 . S
H260 C222 0.929 . S
H261 C224 0.930 . S
H262 C230 0.929 . S
H263 C231 0.930 . S
Li264 N281 1.985 1_565 S
Li264 O324 1.956 . S
Li264 O325 1.970 . S
Li264 O326 1.961 1_565 S
Li265 N289 1.990 . S
Li265 O324 1.970 . S
Li265 O325 1.956 . S
Li265 O327 1.961 1_554 S
Li266 N311 1.993 . S
Li266 O324 1.961 . S
Li266 O326 1.956 1_565 S
Li266 O327 1.970 1_554 S
Li267 N317 1.990 . S
Li267 O325 1.961 1_546 S
Li267 O326 1.970 1_556 S
Li267 O327 1.956 1_545 S
C268 C270 1.348 . S
C268 C271 1.356 . S
C268 O324 1.325 . S
N269 C272 1.314 . S
N269 C273 1.279 . S
C270 C268 1.348 . S
C270 C272 1.353 . S
C270 H328 0.929 . S
C271 C268 1.356 . S
C271 C273 1.358 . S
C271 H329 0.930 . S
C272 N269 1.314 . S
C272 C270 1.353 . S
C272 H330 0.930 . S
C273 N269 1.279 . S
C273 C271 1.358 . S
C273 H331 0.930 . S
C274 C277 1.348 . S
C274 C278 1.356 . S
C274 O325 1.325 . S
C275 N276 1.279 . S
C275 C278 1.358 . S
C275 H332 0.930 . S
N276 C275 1.279 . S
N276 C279 1.314 . S
C277 C274 1.348 . S
C277 C279 1.353 . S
C277 H333 0.929 . S
C278 C274 1.356 . S
C278 C275 1.358 . S
C278 H334 0.930 1_554 S
C279 N276 1.314 . S
C279 C277 1.353 . S
C279 H335 0.930 . S
C280 N281 1.333 . S
C280 C285 1.353 . S
C280 H286 0.930 . S
N281 Li264 1.985 1_545 S
N281 C280 1.333 . S
N281 C283 1.267 1_545 S
C282 C283 1.358 . S
C282 C284 1.356 1_565 S
C282 H336 0.930 . S
C283 N281 1.267 1_565 S
C283 C282 1.358 . S
C283 H287 0.930 . S
C284 C282 1.356 1_545 S
C284 C285 1.348 . S
C285 C280 1.353 . S
C285 C284 1.348 . S
C285 H337 0.929 . S
H286 C280 0.930 . S
H287 C283 0.930 . S
C288 N289 1.314 1_556 S
C288 C290 1.353 . S
C288 H294 0.930 . S
N289 Li265 1.990 . S
N289 C288 1.314 1_554 S
N289 C292 1.279 . S
C290 C288 1.353 . S
C290 C293 1.348 . S
C290 H338 0.929 . S
C291 C292 1.358 . S
C291 C293 1.356 1_554 S
C291 H339 0.930 . S
C292 N289 1.279 . S
C292 C291 1.358 . S
C292 H295 0.930 . S
C293 C290 1.348 . S
C293 C291 1.356 1_556 S
H294 C288 0.930 . S
H295 C292 0.930 . S
C296 C298 1.348 . S
C296 C299 1.356 . S
C296 O326 1.325 . S
N297 C300 1.314 . S
N297 C301 1.279 . S
C298 C296 1.348 . S
C298 C300 1.353 . S
C298 H340 0.929 1_554 S
C299 C296 1.356 . S
C299 C301 1.358 . S
C299 H341 0.930 . S
C300 N297 1.314 . S
C300 C298 1.353 . S
C300 H342 0.926 1_554 S
C301 N297 1.279 . S
C301 C299 1.358 . S
C301 H343 0.930 . S
C302 C303 1.348 . S
C302 C304 1.356 . S
C302 O327 1.325 . S
C303 C302 1.348 . S
C303 C305 1.353 . S
C303 H344 0.929 . S
C304 C302 1.356 . S
C304 C306 1.358 . S
C304 H345 0.930 . S
C305 C303 1.353 . S
C305 N307 1.314 . S
C305 H346 0.930 . S
C306 C304 1.358 . S
C306 N307 1.279 . S
C306 H347 0.930 . S
N307 C305 1.314 . S
N307 C306 1.279 . S
C308 C310 1.353 . S
C308 N311 1.313 1_556 S
C308 H314 0.929 1_556 S
C309 N311 1.277 1_546 S
C309 C312 1.358 . S
C309 H315 0.930 . S
C310 C308 1.353 . S
C310 C313 1.348 1_565 S
C310 H348 0.929 . S
N311 Li266 1.993 . S
N311 C308 1.313 1_554 S
N311 C309 1.277 1_564 S
C312 C309 1.358 . S
C312 C313 1.356 . S
C312 H349 0.930 . S
C313 C310 1.348 1_545 S
C313 C312 1.356 . S
H314 C308 0.929 1_554 S
H315 C309 0.930 . S
C316 N317 1.314 . S
C316 C318 1.353 . S
C316 H322 0.930 . S
N317 Li267 1.990 . S
N317 C316 1.314 . S
N317 C320 1.279 . S
C318 C316 1.353 . S
C318 C321 1.348 . S
C318 H350 0.929 . S
C319 C320 1.358 . S
C319 C321 1.356 . S
C319 H351 0.930 . S
C320 N317 1.279 . S
C320 C319 1.358 . S
C320 H323 0.930 . S
C321 C318 1.348 . S
C321 C319 1.356 . S
H322 C316 0.930 . S
H323 C320 0.930 . S
O324 Li264 1.956 . S
O324 Li265 1.970 . S
O324 Li266 1.961 . S
O324 C268 1.325 . S
O325 Li264 1.970 . S
O325 Li265 1.956 . S
O325 Li267 1.961 1_564 S
O325 C274 1.325 . S
O326 Li264 1.961 1_545 S
O326 Li266 1.956 1_545 S
O326 Li267 1.970 1_554 S
O326 C296 1.325 . S
O327 Li265 1.961 1_556 S
O327 Li266 1.970 1_556 S
O327 Li267 1.956 1_565 S
O327 C302 1.325 . S
H328 C270 0.929 . S
H329 C271 0.930 . S
H330 C272 0.930 . S
H331 C273 0.930 . S
H332 C275 0.930 . S
H333 C277 0.929 . S
H334 C278 0.930 1_556 S
H335 C279 0.930 . S
H336 C282 0.930 . S
H337 C285 0.929 . S
H338 C290 0.929 . S
H339 C291 0.930 . S
H340 C298 0.929 1_556 S
H341 C299 0.930 . S
H342 C300 0.926 1_556 S
H343 C301 0.930 . S
H344 C303 0.929 . S
H345 C304 0.930 . S
H346 C305 0.930 . S
H347 C306 0.930 . S
H348 C310 0.929 . S
H349 C312 0.930 . S
H350 C318 0.929 . S
H351 C319 0.930 . S
Li352 N369 1.990 . S
Li352 O412 1.956 . S
Li352 O413 1.970 . S
Li352 O414 1.961 . S
Li353 N377 1.990 . S
Li353 O412 1.970 . S
Li353 O413 1.956 . S
Li353 O415 1.961 . S
Li354 N399 1.990 . S
Li354 O412 1.961 . S
Li354 O414 1.956 . S
Li354 O415 1.970 . S
Li355 N405 1.990 . S
Li355 O413 1.961 . S
Li355 O414 1.970 . S
Li355 O415 1.956 . S
C356 C358 1.348 . S
C356 C359 1.356 . S
C356 O412 1.325 . S
N357 C360 1.314 . S
N357 C361 1.279 . S
C358 C356 1.348 . S
C358 C360 1.353 . S
C358 H416 0.929 . S
C359 C356 1.356 . S
C359 C361 1.358 . S
C359 H417 0.930 . S
C360 N357 1.314 . S
C360 C358 1.353 . S
C360 H418 0.930 . S
C361 N357 1.279 . S
C361 C359 1.358 . S
C361 H419 0.930 . S
C362 C365 1.348 . S
C362 C366 1.356 . S
C362 O413 1.325 . S
C363 N364 1.279 . S
C363 C366 1.358 . S
C363 H420 0.930 . S
N364 C363 1.279 . S
N364 C367 1.314 . S
C365 C362 1.348 . S
C365 C367 1.353 . S
C365 H421 0.929 . S
C366 C362 1.356 . S
C366 C363 1.358 . S
C366 H422 0.930 . S
C367 N364 1.314 . S
C367 C365 1.353 . S
C367 H423 0.930 . S
C368 N369 1.314 . S
C368 C373 1.353 . S
C368 H374 0.930 . S
N369 Li352 1.990 . S
N369 C368 1.314 . S
N369 C371 1.279 . S
C370 C371 1.358 . S
C370 C372 1.356 . S
C370 H424 0.930 . S
C371 N369 1.279 . S
C371 C370 1.358 . S
C371 H375 0.930 . S
C372 C370 1.356 . S
C372 C373 1.348 . S
C373 C368 1.353 . S
C373 C372 1.348 . S
C373 H425 0.929 . S
H374 C368 0.930 . S
H375 C371 0.930 . S
C376 N377 1.314 . S
C376 C378 1.353 . S
C376 H382 0.930 . S
N377 Li353 1.990 . S
N377 C376 1.314 . S
N377 C380 1.279 . S
C378 C376 1.353 . S
C378 C381 1.348 . S
C378 H426 0.929 . S
C379 C380 1.358 . S
C379 C381 1.356 . S
C379 H427 0.930 . S
C380 N377 1.279 . S
C380 C379 1.358 . S
C380 H383 0.930 . S
C381 C378 1.348 . S
C381 C379 1.356 . S
H382 C376 0.930 . S
H383 C380 0.930 . S
C384 C386 1.348 . S
C384 C387 1.356 . S
C384 O414 1.325 . S
N385 C388 1.314 . S
N385 C389 1.279 . S
C386 C384 1.348 . S
C386 C388 1.353 . S
C386 H428 0.929 . S
C387 C384 1.356 . S
C387 C389 1.358 . S
C387 H429 0.930 . S
C388 N385 1.314 . S
C388 C386 1.353 . S
C388 H430 0.930 . S
C389 N385 1.279 . S
C389 C387 1.358 . S
C389 H431 0.930 . S
C390 C391 1.348 . S
C390 C392 1.356 . S
C390 O415 1.325 . S
C391 C390 1.348 . S
C391 C393 1.353 . S
C391 H432 0.929 . S
C392 C390 1.356 . S
C392 C394 1.358 . S
C392 H433 0.930 . S
C393 C391 1.353 . S
C393 N395 1.314 . S
C393 H434 0.930 . S
C394 C392 1.358 . S
C394 N395 1.279 . S
C394 H435 0.930 . S
N395 C393 1.314 . S
N395 C394 1.279 . S
C396 C398 1.353 . S
C396 N399 1.314 . S
C396 H402 0.930 . S
C397 N399 1.279 . S
C397 C400 1.358 . S
C397 H403 0.930 . S
C398 C396 1.353 . S
C398 C401 1.348 . S
C398 H436 0.929 . S
N399 Li354 1.990 . S
N399 C396 1.314 . S
N399 C397 1.279 . S
C400 C397 1.358 . S
C400 C401 1.356 . S
C400 H437 0.930 . S
C401 C398 1.348 . S
C401 C400 1.356 . S
H402 C396 0.930 . S
H403 C397 0.930 . S
C404 N405 1.314 . S
C404 C406 1.353 . S
C404 H410 0.930 . S
N405 Li355 1.990 . S
N405 C404 1.314 . S
N405 C408 1.279 . S
C406 C404 1.353 . S
C406 C409 1.348 . S
C406 H438 0.929 . S
C407 C408 1.358 . S
C407 C409 1.356 . S
C407 H439 0.930 . S
C408 N405 1.279 . S
C408 C407 1.358 . S
C408 H411 0.930 . S
C409 C406 1.348 . S
C409 C407 1.356 . S
H410 C404 0.930 . S
H411 C408 0.930 . S
O412 Li352 1.956 . S
O412 Li353 1.970 . S
O412 Li354 1.961 . S
O412 C356 1.325 . S
O413 Li352 1.970 . S
O413 Li353 1.956 . S
O413 Li355 1.961 . S
O413 C362 1.325 . S
O414 Li352 1.961 . S
O414 Li354 1.956 . S
O414 Li355 1.970 . S
O414 C384 1.325 . S
O415 Li353 1.961 . S
O415 Li354 1.970 . S
O415 Li355 1.956 . S
O415 C390 1.325 . S
H416 C358 0.929 . S
H417 C359 0.930 . S
H418 C360 0.930 . S
H419 C361 0.930 . S
H420 C363 0.930 . S
H421 C365 0.929 . S
H422 C366 0.930 . S
H423 C367 0.930 . S
H424 C370 0.930 . S
H425 C373 0.929 . S
H426 C378 0.929 . S
H427 C379 0.930 . S
H428 C386 0.929 . S
H429 C387 0.930 . S
H430 C388 0.930 . S
H431 C389 0.930 . S
H432 C391 0.929 . S
H433 C392 0.930 . S
H434 C393 0.930 . S
H435 C394 0.930 . S
H436 C398 0.929 . S
H437 C400 0.930 . S
H438 C406 0.929 . S
H439 C407 0.930 . S
Li440 N457 1.990 . S
Li440 O500 1.956 . S
Li440 O501 1.970 . S
Li440 O502 1.961 1_545 S
Li441 N465 1.990 . S
Li441 O500 1.970 . S
Li441 O501 1.956 . S
Li441 O503 1.961 . S
Li442 N487 1.990 . S
Li442 O500 1.961 1_565 S
Li442 O502 1.956 . S
Li442 O503 1.970 1_565 S
Li443 N493 1.997 . S
Li443 O501 1.961 . S
Li443 O502 1.970 1_545 S
Li443 O503 1.956 . S
C444 C446 1.348 . S
C444 C447 1.356 . S
C444 O500 1.325 . S
N445 C448 1.314 . S
N445 C449 1.279 . S
C446 C444 1.348 . S
C446 C448 1.353 . S
C446 H504 0.929 . S
C447 C444 1.356 . S
C447 C449 1.358 . S
C447 H505 0.930 1_545 S
C448 N445 1.314 . S
C448 C446 1.353 . S
C448 H506 0.930 . S
C449 N445 1.279 . S
C449 C447 1.358 . S
C449 H507 0.930 . S
C450 C453 1.348 . S
C450 C454 1.356 . S
C450 O501 1.325 . S
C451 N452 1.279 . S
C451 C454 1.358 . S
C451 H508 0.930 . S
N452 C451 1.279 . S
N452 C455 1.314 . S
C453 C450 1.348 . S
C453 C455 1.353 . S
C453 H509 0.929 . S
C454 C450 1.356 . S
C454 C451 1.358 . S
C454 H510 0.930 . S
C455 N452 1.314 . S
C455 C453 1.353 . S
C455 H511 0.930 . S
C456 N457 1.314 1_565 S
C456 C461 1.353 . S
C456 H462 0.930 . S
N457 Li440 1.990 . S
N457 C456 1.314 1_545 S
N457 C459 1.279 . S
C458 C459 1.358 . S
C458 C460 1.356 1_545 S
C458 H512 0.930 . S
C459 N457 1.279 . S
C459 C458 1.358 . S
C459 H463 0.930 . S
C460 C458 1.356 1_565 S
C460 C461 1.348 . S
C461 C456 1.353 . S
C461 C460 1.348 . S
C461 H513 0.929 . S
H462 C456 0.930 . S
H463 C459 0.930 . S
C464 N465 1.314 . S
C464 C466 1.353 . S
C464 H470 0.930 . S
N465 Li441 1.990 . S
N465 C464 1.314 . S
N465 C468 1.279 . S
C466 C464 1.353 . S
C466 C469 1.348 . S
C466 H514 0.929 . S
C467 C468 1.358 . S
C467 C469 1.356 . S
C467 H515 0.930 . S
C468 N465 1.279 . S
C468 C467 1.358 . S
C468 H471 0.930 . S
C469 C466 1.348 . S
C469 C467 1.356 . S
H470 C464 0.930 . S
H471 C468 0.930 . S
C472 C474 1.348 . S
C472 C475 1.356 . S
C472 O502 1.325 . S
N473 C476 1.314 . S
N473 C477 1.279 . S
C474 C472 1.348 . S
C474 C476 1.353 . S
C474 H516 0.929 . S
C475 C472 1.356 . S
C475 C477 1.358 . S
C475 H517 0.930 . S
C476 N473 1.314 . S
C476 C474 1.353 . S
C476 H518 0.930 . S
C477 N473 1.279 . S
C477 C475 1.358 . S
C477 H519 0.930 . S
C478 C479 1.348 . S
C478 C480 1.356 . S
C478 O503 1.325 . S
C479 C478 1.348 . S
C479 C481 1.353 . S
C479 H520 0.929 1_545 S
C480 C478 1.356 . S
C480 C482 1.358 . S
C480 H521 0.930 . S
C481 C479 1.353 . S
C481 N483 1.314 . S
C481 H522 0.931 1_545 S
C482 C480 1.358 . S
C482 N483 1.279 . S
C482 H523 0.930 . S
N483 C481 1.314 . S
N483 C482 1.279 . S
C484 C486 1.353 . S
C484 N487 1.314 . S
C484 H490 0.937 . S
C485 N487 1.279 . S
C485 C488 1.358 . S
C485 H491 0.930 . S
C486 C484 1.353 . S
C486 C489 1.348 . S
C486 H524 0.929 . S
N487 Li442 1.990 . S
N487 C484 1.314 . S
N487 C485 1.279 . S
C488 C485 1.358 . S
C488 C489 1.356 . S
C488 H525 0.930 . S
C489 C486 1.348 . S
C489 C488 1.356 . S
H490 C484 0.937 . S
H491 C485 0.930 . S
C492 N493 1.311 1_565 S
C492 C494 1.353 . S
C492 H498 0.925 1_565 S
N493 Li443 1.997 . S
N493 C492 1.311 1_545 S
N493 C496 1.274 1_545 S
C494 C492 1.353 . S
C494 C497 1.348 . S
C494 H526 0.929 . S
C495 C496 1.358 . S
C495 C497 1.356 . S
C495 H527 0.930 . S
C496 N493 1.274 1_565 S
C496 C495 1.358 . S
C496 H499 0.930 . S
C497 C494 1.348 . S
C497 C495 1.356 . S
H498 C492 0.925 1_545 S
H499 C496 0.930 . S
O500 Li440 1.956 . S
O500 Li441 1.970 . S
O500 Li442 1.961 1_545 S
O500 C444 1.325 . S
O501 Li440 1.970 . S
O501 Li441 1.956 . S
O501 Li443 1.961 . S
O501 C450 1.325 . S
O502 Li440 1.961 1_565 S
O502 Li442 1.956 . S
O502 Li443 1.970 1_565 S
O502 C472 1.325 . S
O503 Li441 1.961 . S
O503 Li442 1.970 1_545 S
O503 Li443 1.956 . S
O503 C478 1.325 . S
H504 C446 0.929 . S
H505 C447 0.930 1_565 S
H506 C448 0.930 . S
H507 C449 0.930 . S
H508 C451 0.930 . S
H509 C453 0.929 . S
H510 C454 0.930 . S
H511 C455 0.930 . S
H512 C458 0.930 . S
H513 C461 0.929 . S
H514 C466 0.929 . S
H515 C467 0.930 . S
H516 C474 0.929 . S
H517 C475 0.930 . S
H518 C476 0.930 . S
H519 C477 0.930 . S
H520 C479 0.929 1_565 S
H521 C480 0.930 . S
H522 C481 0.931 1_565 S
H523 C482 0.930 . S
H524 C486 0.929 . S
H525 C488 0.930 . S
H526 C494 0.929 . S
H527 C495 0.930 . S
Li528 N545 1.990 . S
Li528 O588 1.956 . S
Li528 O589 1.970 . S
Li528 O590 1.961 . S
Li529 N553 1.990 . S
Li529 O588 1.970 . S
Li529 O589 1.956 . S
Li529 O591 1.961 . S
Li530 N575 1.990 . S
Li530 O588 1.961 . S
Li530 O590 1.956 . S
Li530 O591 1.970 . S
Li531 N581 1.990 . S
Li531 O589 1.961 . S
Li531 O590 1.970 . S
Li531 O591 1.956 . S
C532 C534 1.348 . S
C532 C535 1.356 . S
C532 O588 1.325 . S
N533 C536 1.314 . S
N533 C537 1.279 . S
C534 C532 1.348 . S
C534 C536 1.353 . S
C534 H592 0.929 . S
C535 C532 1.356 . S
C535 C537 1.358 . S
C535 H593 0.930 . S
C536 N533 1.314 . S
C536 C534 1.353 . S
C536 H594 0.930 . S
C537 N533 1.279 . S
C537 C535 1.358 . S
C537 H595 0.930 . S
C538 C541 1.348 . S
C538 C542 1.356 . S
C538 O589 1.325 . S
C539 N540 1.279 . S
C539 C542 1.358 . S
C539 H596 0.930 . S
N540 C539 1.279 . S
N540 C543 1.314 . S
C541 C538 1.348 . S
C541 C543 1.353 . S
C541 H597 0.929 . S
C542 C538 1.356 . S
C542 C539 1.358 . S
C542 H598 0.930 . S
C543 N540 1.314 . S
C543 C541 1.353 . S
C543 H599 0.930 . S
C544 N545 1.314 . S
C544 C549 1.353 . S
C544 H550 0.930 . S
N545 Li528 1.990 . S
N545 C544 1.314 . S
N545 C547 1.279 . S
C546 C547 1.358 . S
C546 C548 1.356 . S
C546 H600 0.930 . S
C547 N545 1.279 . S
C547 C546 1.358 . S
C547 H551 0.930 . S
C548 C546 1.356 . S
C548 C549 1.348 . S
C549 C544 1.353 . S
C549 C548 1.348 . S
C549 H601 0.929 . S
H550 C544 0.930 . S
H551 C547 0.930 . S
C552 N553 1.314 . S
C552 C554 1.353 . S
C552 H558 0.930 . S
N553 Li529 1.990 . S
N553 C552 1.314 . S
N553 C556 1.279 . S
C554 C552 1.353 . S
C554 C557 1.348 . S
C554 H602 0.929 . S
C555 C556 1.358 . S
C555 C557 1.356 . S
C555 H603 0.930 . S
C556 N553 1.279 . S
C556 C555 1.358 . S
C556 H559 0.930 . S
C557 C554 1.348 . S
C557 C555 1.356 . S
H558 C552 0.930 . S
H559 C556 0.930 . S
C560 C562 1.348 . S
C560 C563 1.356 . S
C560 O590 1.325 . S
N561 C564 1.314 . S
N561 C565 1.279 . S
C562 C560 1.348 . S
C562 C564 1.353 . S
C562 H604 0.929 . S
C563 C560 1.356 . S
C563 C565 1.358 . S
C563 H605 0.930 . S
C564 N561 1.314 . S
C564 C562 1.353 . S
C564 H606 0.930 . S
C565 N561 1.279 . S
C565 C563 1.358 . S
C565 H607 0.930 . S
C566 C567 1.348 . S
C566 C568 1.356 . S
C566 O591 1.325 . S
C567 C566 1.348 . S
C567 C569 1.353 . S
C567 H608 0.929 . S
C568 C566 1.356 . S
C568 C570 1.358 . S
C568 H609 0.930 . S
C569 C567 1.353 . S
C569 N571 1.314 . S
C569 H610 0.930 . S
C570 C568 1.358 . S
C570 N571 1.279 . S
C570 H611 0.930 . S
N571 C569 1.314 . S
N571 C570 1.279 . S
C572 C574 1.353 . S
C572 N575 1.314 . S
C572 H578 0.930 . S
C573 N575 1.279 . S
C573 C576 1.358 . S
C573 H579 0.930 . S
C574 C572 1.353 . S
C574 C577 1.348 . S
C574 H612 0.929 . S
N575 Li530 1.990 . S
N575 C572 1.314 . S
N575 C573 1.279 . S
C576 C573 1.358 . S
C576 C577 1.356 . S
C576 H613 0.930 . S
C577 C574 1.348 . S
C577 C576 1.356 . S
H578 C572 0.930 . S
H579 C573 0.930 . S
C580 N581 1.314 . S
C580 C582 1.353 . S
C580 H586 0.930 . S
N581 Li531 1.990 . S
N581 C580 1.314 . S
N581 C584 1.279 . S
C582 C580 1.353 . S
C582 C585 1.348 . S
C582 H614 0.929 . S
C583 C584 1.358 . S
C583 C585 1.356 . S
C583 H615 0.930 . S
C584 N581 1.279 . S
C584 C583 1.358 . S
C584 H587 0.930 . S
C585 C582 1.348 . S
C585 C583 1.356 . S
H586 C580 0.930 . S
H587 C584 0.930 . S
O588 Li528 1.956 . S
O588 Li529 1.970 . S
O588 Li530 1.961 . S
O588 C532 1.325 . S
O589 Li528 1.970 . S
O589 Li529 1.956 . S
O589 Li531 1.961 . S
O589 C538 1.325 . S
O590 Li528 1.961 . S
O590 Li530 1.956 . S
O590 Li531 1.970 . S
O590 C560 1.325 . S
O591 Li529 1.961 . S
O591 Li530 1.970 . S
O591 Li531 1.956 . S
O591 C566 1.325 . S
H592 C534 0.929 . S
H593 C535 0.930 . S
H594 C536 0.930 . S
H595 C537 0.930 . S
H596 C539 0.930 . S
H597 C541 0.929 . S
H598 C542 0.930 . S
H599 C543 0.930 . S
H600 C546 0.930 . S
H601 C549 0.929 . S
H602 C554 0.929 . S
H603 C555 0.930 . S
H604 C562 0.929 . S
H605 C563 0.930 . S
H606 C564 0.930 . S
H607 C565 0.930 . S
H608 C567 0.929 . S
H609 C568 0.930 . S
H610 C569 0.930 . S
H611 C570 0.930 . S
H612 C574 0.929 . S
H613 C576 0.930 . S
H614 C582 0.929 . S
H615 C583 0.930 . S
Li616 N633 1.990 . S
Li616 O676 1.956 1_655 S
Li616 O677 1.970 1_565 S
Li616 O678 1.961 . S
Li617 N641 1.990 . S
Li617 O676 1.970 1_544 S
Li617 O677 1.956 1_454 S
Li617 O679 1.961 1_445 S
Li618 N663 1.990 1_655 S
Li618 O676 1.961 1_655 S
Li618 O678 1.956 . S
Li618 O679 1.970 1_556 S
Li619 N669 1.990 1_556 S
Li619 O677 1.961 1_565 S
Li619 O678 1.970 . S
Li619 O679 1.956 1_556 S
C620 C622 1.348 . S
C620 C623 1.356 . S
C620 O676 1.325 . S
N621 C624 1.314 . S
N621 C625 1.279 . S
C622 C620 1.348 . S
C622 C624 1.353 . S
C622 H680 0.929 1_565 S
C623 C620 1.356 . S
C623 C625 1.358 . S
C623 H681 0.930 . S
C624 N621 1.314 . S
C624 C622 1.353 . S
C624 H682 0.940 . S
C625 N621 1.279 . S
C625 C623 1.358 . S
C625 H683 0.930 . S
C626 C629 1.348 . S
C626 C630 1.356 . S
C626 O677 1.325 . S
C627 N628 1.279 . S
C627 C630 1.358 . S
C627 H684 0.930 1_556 S
N628 C627 1.279 . S
N628 C631 1.314 . S
C629 C626 1.348 . S
C629 C631 1.353 . S
C629 H685 0.929 . S
C630 C626 1.356 . S
C630 C627 1.358 . S
C630 H686 0.930 1_556 S
C631 N628 1.314 . S
C631 C629 1.353 . S
C631 H687 0.930 . S
C632 N633 1.314 1_545 S
C632 C637 1.353 . S
C632 H638 0.930 1_545 S
N633 Li616 1.990 . S
N633 C632 1.314 1_565 S
N633 C635 1.279 1_665 S
C634 C635 1.358 . S
C634 C636 1.356 . S
C634 H688 0.930 . S
C635 N633 1.279 1_445 S
C635 C634 1.358 . S
C635 H639 0.930 . S
C636 C634 1.356 . S
C636 C637 1.348 1_455 S
C637 C632 1.353 . S
C637 C636 1.348 1_655 S
C637 H689 0.929 . S
H638 C632 0.930 1_565 S
H639 C635 0.930 . S
C640 N641 1.314 . S
C640 C642 1.353 . S
C640 H646 0.932 1_545 S
N641 Li617 1.990 . S
N641 C640 1.314 . S
N641 C644 1.279 . S
C642 C640 1.353 . S
C642 C645 1.348 . S
C642 H690 0.929 . S
C643 C644 1.358 . S
C643 C645 1.356 . S
C643 H691 0.930 . S
C644 N641 1.279 . S
C644 C643 1.358 . S
C644 H647 0.930 . S
C645 C642 1.348 . S
C645 C643 1.356 . S
H646 C640 0.932 1_565 S
H647 C644 0.930 . S
C648 C650 1.348 . S
C648 C651 1.356 . S
C648 O678 1.325 . S
N649 C652 1.314 . S
N649 C653 1.279 . S
C650 C648 1.348 . S
C650 C652 1.353 . S
C650 H692 0.929 . S
C651 C648 1.356 . S
C651 C653 1.358 . S
C651 H693 0.930 . S
C652 N649 1.314 . S
C652 C650 1.353 . S
C652 H694 0.930 . S
C653 N649 1.279 . S
C653 C651 1.358 . S
C653 H695 0.930 . S
C654 C655 1.348 . S
C654 C656 1.356 . S
C654 O679 1.325 . S
C655 C654 1.348 . S
C655 C657 1.353 . S
C655 H696 0.929 . S
C656 C654 1.356 . S
C656 C658 1.358 . S
C656 H697 0.930 1_565 S
C657 C655 1.353 . S
C657 N659 1.314 . S
C657 H698 0.930 . S
C658 C656 1.358 . S
C658 N659 1.279 . S
C658 H699 0.930 . S
N659 C657 1.314 . S
N659 C658 1.279 . S
C660 C662 1.353 . S
C660 N663 1.314 1_554 S
C660 H666 0.930 . S
C661 N663 1.279 1_655 S
C661 C664 1.358 . S
C661 H667 0.930 . S
C662 C660 1.353 . S
C662 C665 1.348 . S
C662 H700 0.929 . S
N663 Li618 1.990 1_455 S
N663 C660 1.314 1_556 S
N663 C661 1.279 1_455 S
C664 C661 1.358 . S
C664 C665 1.356 1_656 S
C664 H701 0.930 . S
C665 C662 1.348 . S
C665 C664 1.356 1_454 S
H666 C660 0.930 . S
H667 C661 0.930 . S
C668 N669 1.314 1_546 S
C668 C670 1.353 . S
C668 H674 0.930 . S
N669 Li619 1.990 1_554 S
N669 C668 1.314 1_564 S
N669 C672 1.279 . S
C670 C668 1.353 . S
C670 C673 1.348 1_556 S
C670 H702 0.929 . S
C671 C672 1.358 . S
C671 C673 1.356 1_565 S
C671 H703 0.930 . S
C672 N669 1.279 . S
C672 C671 1.358 . S
C672 H675 0.930 . S
C673 C670 1.348 1_554 S
C673 C671 1.356 1_545 S
H674 C668 0.930 . S
H675 C672 0.930 . S
O676 Li616 1.956 1_455 S
O676 Li617 1.970 1_566 S
O676 Li618 1.961 1_455 S
O676 C620 1.325 . S
O677 Li616 1.970 1_545 S
O677 Li617 1.956 1_656 S
O677 Li619 1.961 1_545 S
O677 C626 1.325 . S
O678 Li616 1.961 . S
O678 Li618 1.956 . S
O678 Li619 1.970 . S
O678 C648 1.325 . S
O679 Li617 1.961 1_665 S
O679 Li618 1.970 1_554 S
O679 Li619 1.956 1_554 S
O679 C654 1.325 . S
H680 C622 0.929 1_545 S
H681 C623 0.930 . S
H682 C624 0.940 . S
H683 C625 0.930 . S
H684 C627 0.930 1_554 S
H685 C629 0.929 . S
H686 C630 0.930 1_554 S
H687 C631 0.930 . S
H688 C634 0.930 . S
H689 C637 0.929 . S
H690 C642 0.929 . S
H691 C643 0.930 . S
H692 C650 0.929 . S
H693 C651 0.930 . S
H694 C652 0.930 . S
H695 C653 0.930 . S
H696 C655 0.929 . S
H697 C656 0.930 1_545 S
H698 C657 0.930 . S
H699 C658 0.930 . S
H700 C662 0.929 . S
H701 C664 0.930 . S
H702 C670 0.929 . S
H703 C671 0.930 . S
Li704 N721 1.990 . S
Li704 O764 1.956 . S
Li704 O765 1.970 . S
Li704 O766 1.961 . S
Li705 N729 1.990 . S
Li705 O764 1.970 . S
Li705 O765 1.956 . S
Li705 O767 1.961 . S
Li706 N751 1.990 . S
Li706 O764 1.961 . S
Li706 O766 1.956 . S
Li706 O767 1.970 . S
Li707 N757 1.990 . S
Li707 O765 1.961 . S
Li707 O766 1.970 . S
Li707 O767 1.956 . S
C708 C710 1.348 . S
C708 C711 1.356 . S
C708 O764 1.325 . S
N709 C712 1.314 . S
N709 C713 1.279 . S
C710 C708 1.348 . S
C710 C712 1.353 . S
C710 H768 0.929 . S
C711 C708 1.356 . S
C711 C713 1.358 . S
C711 H769 0.930 . S
C712 N709 1.314 . S
C712 C710 1.353 . S
C712 H770 0.930 . S
C713 N709 1.279 . S
C713 C711 1.358 . S
C713 H771 0.930 . S
C714 C717 1.348 . S
C714 C718 1.356 . S
C714 O765 1.325 . S
C715 N716 1.279 . S
C715 C718 1.358 . S
C715 H772 0.930 . S
N716 C715 1.279 . S
N716 C719 1.314 . S
C717 C714 1.348 . S
C717 C719 1.353 . S
C717 H773 0.929 . S
C718 C714 1.356 . S
C718 C715 1.358 . S
C718 H774 0.930 . S
C719 N716 1.314 . S
C719 C717 1.353 . S
C719 H775 0.930 . S
C720 N721 1.314 . S
C720 C725 1.353 . S
C720 H726 0.930 . S
N721 Li704 1.990 . S
N721 C720 1.314 . S
N721 C723 1.279 . S
C722 C723 1.358 . S
C722 C724 1.356 . S
C722 H776 0.930 . S
C723 N721 1.279 . S
C723 C722 1.358 . S
C723 H727 0.930 . S
C724 C722 1.356 . S
C724 C725 1.348 . S
C725 C720 1.353 . S
C725 C724 1.348 . S
C725 H777 0.929 . S
H726 C720 0.930 . S
H727 C723 0.930 . S
C728 N729 1.314 . S
C728 C730 1.353 . S
C728 H734 0.930 . S
N729 Li705 1.990 . S
N729 C728 1.314 . S
N729 C732 1.279 . S
C730 C728 1.353 . S
C730 C733 1.348 . S
C730 H778 0.929 . S
C731 C732 1.358 . S
C731 C733 1.356 . S
C731 H779 0.930 . S
C732 N729 1.279 . S
C732 C731 1.358 . S
C732 H735 0.930 . S
C733 C730 1.348 . S
C733 C731 1.356 . S
H734 C728 0.930 . S
H735 C732 0.930 . S
C736 C738 1.348 . S
C736 C739 1.356 . S
C736 O766 1.325 . S
N737 C740 1.314 . S
N737 C741 1.279 . S
C738 C736 1.348 . S
C738 C740 1.353 . S
C738 H780 0.929 . S
C739 C736 1.356 . S
C739 C741 1.358 . S
C739 H781 0.930 . S
C740 N737 1.314 . S
C740 C738 1.353 . S
C740 H782 0.930 . S
C741 N737 1.279 . S
C741 C739 1.358 . S
C741 H783 0.930 . S
C742 C743 1.348 . S
C742 C744 1.356 . S
C742 O767 1.325 . S
C743 C742 1.348 . S
C743 C745 1.353 . S
C743 H784 0.929 . S
C744 C742 1.356 . S
C744 C746 1.358 . S
C744 H785 0.930 . S
C745 C743 1.353 . S
C745 N747 1.314 . S
C745 H786 0.930 . S
C746 C744 1.358 . S
C746 N747 1.279 . S
C746 H787 0.930 . S
N747 C745 1.314 . S
N747 C746 1.279 . S
C748 C750 1.353 . S
C748 N751 1.314 . S
C748 H754 0.930 . S
C749 N751 1.279 . S
C749 C752 1.358 . S
C749 H755 0.930 . S
C750 C748 1.353 . S
C750 C753 1.348 . S
C750 H788 0.929 . S
N751 Li706 1.990 . S
N751 C748 1.314 . S
N751 C749 1.279 . S
C752 C749 1.358 . S
C752 C753 1.356 . S
C752 H789 0.930 . S
C753 C750 1.348 . S
C753 C752 1.356 . S
H754 C748 0.930 . S
H755 C749 0.930 . S
C756 N757 1.314 . S
C756 C758 1.353 . S
C756 H762 0.930 . S
N757 Li707 1.990 . S
N757 C756 1.314 . S
N757 C760 1.279 . S
C758 C756 1.353 . S
C758 C761 1.348 . S
C758 H790 0.929 . S
C759 C760 1.358 . S
C759 C761 1.356 . S
C759 H791 0.930 . S
C760 N757 1.279 . S
C760 C759 1.358 . S
C760 H763 0.930 . S
C761 C758 1.348 . S
C761 C759 1.356 . S
H762 C756 0.930 . S
H763 C760 0.930 . S
O764 Li704 1.956 . S
O764 Li705 1.970 . S
O764 Li706 1.961 . S
O764 C708 1.325 . S
O765 Li704 1.970 . S
O765 Li705 1.956 . S
O765 Li707 1.961 . S
O765 C714 1.325 . S
O766 Li704 1.961 . S
O766 Li706 1.956 . S
O766 Li707 1.970 . S
O766 C736 1.325 . S
O767 Li705 1.961 . S
O767 Li706 1.970 . S
O767 Li707 1.956 . S
O767 C742 1.325 . S
H768 C710 0.929 . S
H769 C711 0.930 . S
H770 C712 0.930 . S
H771 C713 0.930 . S
H772 C715 0.930 . S
H773 C717 0.929 . S
H774 C718 0.930 . S
H775 C719 0.930 . S
H776 C722 0.930 . S
H777 C725 0.929 . S
H778 C730 0.929 . S
H779 C731 0.930 . S
H780 C738 0.929 . S
H781 C739 0.930 . S
H782 C740 0.930 . S
H783 C741 0.930 . S
H784 C743 0.929 . S
H785 C744 0.930 . S
H786 C745 0.930 . S
H787 C746 0.930 . S
H788 C750 0.929 . S
H789 C752 0.930 . S
H790 C758 0.929 . S
H791 C759 0.930 . S
Li792 N809 1.990 1_455 S
Li792 O852 1.956 . S
Li792 O853 1.970 1_556 S
Li792 O854 1.961 1_455 S
Li793 N817 1.990 1_556 S
Li793 O852 1.970 . S
Li793 O853 1.956 1_556 S
Li793 O855 1.961 . S
Li794 N839 1.990 . S
Li794 O852 1.961 . S
Li794 O854 1.956 1_455 S
Li794 O855 1.970 . S
Li795 N845 1.990 . S
Li795 O853 1.961 1_655 S
Li795 O854 1.970 1_554 S
Li795 O855 1.956 1_654 S
C796 C798 1.348 . S
C796 C799 1.356 . S
C796 O852 1.325 . S
N797 C800 1.314 . S
N797 C801 1.279 . S
C798 C796 1.348 . S
C798 C800 1.353 . S
C798 H856 0.929 . S
C799 C796 1.356 . S
C799 C801 1.358 . S
C799 H857 0.930 . S
C800 N797 1.314 . S
C800 C798 1.353 . S
C800 H858 0.930 . S
C801 N797 1.279 . S
C801 C799 1.358 . S
C801 H859 0.930 . S
C802 C805 1.348 . S
C802 C806 1.356 . S
C802 O853 1.325 . S
C803 N804 1.279 . S
C803 C806 1.358 . S
C803 H860 0.930 . S
N804 C803 1.279 . S
N804 C807 1.314 . S
C805 C802 1.348 . S
C805 C807 1.353 . S
C805 H861 0.929 . S
C806 C802 1.356 . S
C806 C803 1.358 . S
C806 H862 0.930 . S
C807 N804 1.314 . S
C807 C805 1.353 . S
C807 H863 0.930 . S
C808 N809 1.314 1_554 S
C808 C813 1.353 . S
C808 H814 0.930 . S
N809 Li792 1.990 1_655 S
N809 C808 1.314 1_556 S
N809 C811 1.279 1_655 S
C810 C811 1.358 . S
C810 C812 1.356 1_456 S
C810 H864 0.930 . S
C811 N809 1.279 1_455 S
C811 C810 1.358 . S
C811 H815 0.930 . S
C812 C810 1.356 1_654 S
C812 C813 1.348 . S
C813 C808 1.353 . S
C813 C812 1.348 . S
C813 H865 0.929 . S
H814 C808 0.930 . S
H815 C811 0.930 . S
C816 N817 1.314 1_556 S
C816 C818 1.353 . S
C816 H822 0.930 . S
N817 Li793 1.990 1_554 S
N817 C816 1.314 1_554 S
N817 C820 1.279 . S
C818 C816 1.353 . S
C818 C821 1.348 1_556 S
C818 H866 0.929 . S
C819 C820 1.358 . S
C819 C821 1.356 . S
C819 H867 0.930 . S
C820 N817 1.279 . S
C820 C819 1.358 . S
C820 H823 0.930 . S
C821 C818 1.348 1_554 S
C821 C819 1.356 . S
H822 C816 0.930 . S
H823 C820 0.930 . S
C824 C826 1.348 . S
C824 C827 1.356 . S
C824 O854 1.325 . S
N825 C828 1.314 . S
N825 C829 1.279 . S
C826 C824 1.348 . S
C826 C828 1.353 . S
C826 H868 0.929 . S
C827 C824 1.356 . S
C827 C829 1.358 . S
C827 H869 0.930 . S
C828 N825 1.314 . S
C828 C826 1.353 . S
C828 H870 0.930 . S
C829 N825 1.279 . S
C829 C827 1.358 . S
C829 H871 0.930 . S
C830 C831 1.348 . S
C830 C832 1.356 . S
C830 O855 1.325 . S
C831 C830 1.348 . S
C831 C833 1.353 . S
C831 H872 0.929 . S
C832 C830 1.356 . S
C832 C834 1.358 . S
C832 H873 0.930 1_556 S
C833 C831 1.353 . S
C833 N835 1.314 . S
C833 H874 0.930 . S
C834 C832 1.358 . S
C834 N835 1.279 . S
C834 H875 0.930 1_556 S
N835 C833 1.314 . S
N835 C834 1.279 . S
C836 C838 1.353 . S
C836 N839 1.314 . S
C836 H842 0.930 . S
C837 N839 1.279 1_655 S
C837 C840 1.358 . S
C837 H843 0.930 . S
C838 C836 1.353 . S
C838 C841 1.348 1_455 S
C838 H876 0.929 . S
N839 Li794 1.990 . S
N839 C836 1.314 . S
N839 C837 1.279 1_455 S
C840 C837 1.358 . S
C840 C841 1.356 . S
C840 H877 0.930 . S
C841 C838 1.348 1_655 S
C841 C840 1.356 . S
H842 C836 0.930 . S
H843 C837 0.930 . S
C844 N845 1.314 . S
C844 C846 1.353 . S
C844 H850 0.930 . S
N845 Li795 1.990 . S
N845 C844 1.314 . S
N845 C848 1.279 . S
C846 C844 1.353 . S
C846 C849 1.348 . S
C846 H878 0.929 . S
C847 C848 1.358 . S
C847 C849 1.356 . S
C847 H879 0.930 . S
C848 N845 1.279 . S
C848 C847 1.358 . S
C848 H851 0.930 . S
C849 C846 1.348 . S
C849 C847 1.356 . S
H850 C844 0.930 . S
H851 C848 0.930 . S
O852 Li792 1.956 . S
O852 Li793 1.970 . S
O852 Li794 1.961 . S
O852 C796 1.325 . S
O853 Li792 1.970 1_554 S
O853 Li793 1.956 1_554 S
O853 Li795 1.961 1_455 S
O853 C802 1.325 . S
O854 Li792 1.961 1_655 S
O854 Li794 1.956 1_655 S
O854 Li795 1.970 1_556 S
O854 C824 1.325 . S
O855 Li793 1.961 . S
O855 Li794 1.970 . S
O855 Li795 1.956 1_456 S
O855 C830 1.325 . S
H856 C798 0.929 . S
H857 C799 0.930 . S
H858 C800 0.930 . S
H859 C801 0.930 . S
H860 C803 0.930 . S
H861 C805 0.929 . S
H862 C806 0.930 . S
H863 C807 0.930 . S
H864 C810 0.930 . S
H865 C813 0.929 . S
H866 C818 0.929 . S
H867 C819 0.930 . S
H868 C826 0.929 . S
H869 C827 0.930 . S
H870 C828 0.930 . S
H871 C829 0.930 . S
H872 C831 0.929 . S
H873 C832 0.930 1_554 S
H874 C833 0.930 . S
H875 C834 0.930 1_554 S
H876 C838 0.929 . S
H877 C840 0.930 . S
H878 C846 0.929 . S
H879 C847 0.930 . S
Li880 N897 1.990 . S
Li880 O940 1.956 . S
Li880 O941 1.970 . S
Li880 O942 1.961 . S
Li881 N905 1.990 . S
Li881 O940 1.970 . S
Li881 O941 1.956 . S
Li881 O943 1.961 . S
Li882 N927 1.990 . S
Li882 O940 1.961 . S
Li882 O942 1.956 . S
Li882 O943 1.970 . S
Li883 N933 1.990 . S
Li883 O941 1.961 . S
Li883 O942 1.970 . S
Li883 O943 1.956 . S
C884 C886 1.348 . S
C884 C887 1.356 . S
C884 O940 1.325 . S
N885 C888 1.314 . S
N885 C889 1.279 . S
C886 C884 1.348 . S
C886 C888 1.353 . S
C886 H944 0.929 . S
C887 C884 1.356 . S
C887 C889 1.358 . S
C887 H945 0.930 . S
C888 N885 1.314 . S
C888 C886 1.353 . S
C888 H946 0.930 . S
C889 N885 1.279 . S
C889 C887 1.358 . S
C889 H947 0.930 . S
C890 C893 1.348 . S
C890 C894 1.356 . S
C890 O941 1.325 . S
C891 N892 1.279 . S
C891 C894 1.358 . S
C891 H948 0.930 . S
N892 C891 1.279 . S
N892 C895 1.314 . S
C893 C890 1.348 . S
C893 C895 1.353 . S
C893 H949 0.929 . S
C894 C890 1.356 . S
C894 C891 1.358 . S
C894 H950 0.930 . S
C895 N892 1.314 . S
C895 C893 1.353 . S
C895 H951 0.930 . S
C896 N897 1.314 . S
C896 C901 1.353 . S
C896 H902 0.930 . S
N897 Li880 1.990 . S
N897 C896 1.314 . S
N897 C899 1.279 . S
C898 C899 1.358 . S
C898 C900 1.356 . S
C898 H952 0.930 . S
C899 N897 1.279 . S
C899 C898 1.358 . S
C899 H903 0.930 . S
C900 C898 1.356 . S
C900 C901 1.348 . S
C901 C896 1.353 . S
C901 C900 1.348 . S
C901 H953 0.929 . S
H902 C896 0.930 . S
H903 C899 0.930 . S
C904 N905 1.314 . S
C904 C906 1.353 . S
C904 H910 0.930 . S
N905 Li881 1.990 . S
N905 C904 1.314 . S
N905 C908 1.279 . S
C906 C904 1.353 . S
C906 C909 1.348 . S
C906 H954 0.929 . S
C907 C908 1.358 . S
C907 C909 1.356 . S
C907 H955 0.930 . S
C908 N905 1.279 . S
C908 C907 1.358 . S
C908 H911 0.930 . S
C909 C906 1.348 . S
C909 C907 1.356 . S
H910 C904 0.930 . S
H911 C908 0.930 . S
C912 C914 1.348 . S
C912 C915 1.356 . S
C912 O942 1.325 . S
N913 C916 1.314 . S
N913 C917 1.279 . S
C914 C912 1.348 . S
C914 C916 1.353 . S
C914 H956 0.929 . S
C915 C912 1.356 . S
C915 C917 1.358 . S
C915 H957 0.930 . S
C916 N913 1.314 . S
C916 C914 1.353 . S
C916 H958 0.930 . S
C917 N913 1.279 . S
C917 C915 1.358 . S
C917 H959 0.930 . S
C918 C919 1.348 . S
C918 C920 1.356 . S
C918 O943 1.325 . S
C919 C918 1.348 . S
C919 C921 1.353 . S
C919 H960 0.929 . S
C920 C918 1.356 . S
C920 C922 1.358 . S
C920 H961 0.930 . S
C921 C919 1.353 . S
C921 N923 1.314 . S
C921 H962 0.930 . S
C922 C920 1.358 . S
C922 N923 1.279 . S
C922 H963 0.930 . S
N923 C921 1.314 . S
N923 C922 1.279 . S
C924 C926 1.353 . S
C924 N927 1.314 . S
C924 H930 0.930 . S
C925 N927 1.279 . S
C925 C928 1.358 . S
C925 H931 0.930 . S
C926 C924 1.353 . S
C926 C929 1.348 . S
C926 H964 0.929 . S
N927 Li882 1.990 . S
N927 C924 1.314 . S
N927 C925 1.279 . S
C928 C925 1.358 . S
C928 C929 1.356 . S
C928 H965 0.930 . S
C929 C926 1.348 . S
C929 C928 1.356 . S
H930 C924 0.930 . S
H931 C925 0.930 . S
C932 N933 1.314 . S
C932 C934 1.353 . S
C932 H938 0.930 . S
N933 Li883 1.990 . S
N933 C932 1.314 . S
N933 C936 1.279 . S
C934 C932 1.353 . S
C934 C937 1.348 . S
C934 H966 0.929 . S
C935 C936 1.358 . S
C935 C937 1.356 . S
C935 H967 0.930 . S
C936 N933 1.279 . S
C936 C935 1.358 . S
C936 H939 0.930 . S
C937 C934 1.348 . S
C937 C935 1.356 . S
H938 C932 0.930 . S
H939 C936 0.930 . S
O940 Li880 1.956 . S
O940 Li881 1.970 . S
O940 Li882 1.961 . S
O940 C884 1.325 . S
O941 Li880 1.970 . S
O941 Li881 1.956 . S
O941 Li883 1.961 . S
O941 C890 1.325 . S
O942 Li880 1.961 . S
O942 Li882 1.956 . S
O942 Li883 1.970 . S
O942 C912 1.325 . S
O943 Li881 1.961 . S
O943 Li882 1.970 . S
O943 Li883 1.956 . S
O943 C918 1.325 . S
H944 C886 0.929 . S
H945 C887 0.930 . S
H946 C888 0.930 . S
H947 C889 0.930 . S
H948 C891 0.930 . S
H949 C893 0.929 . S
H950 C894 0.930 . S
H951 C895 0.930 . S
H952 C898 0.930 . S
H953 C901 0.929 . S
H954 C906 0.929 . S
H955 C907 0.930 . S
H956 C914 0.929 . S
H957 C915 0.930 . S
H958 C916 0.930 . S
H959 C917 0.930 . S
H960 C919 0.929 . S
H961 C920 0.930 . S
H962 C921 0.930 . S
H963 C922 0.930 . S
H964 C926 0.929 . S
H965 C928 0.930 . S
H966 C934 0.929 . S
H967 C935 0.930 . S
Li968 N985 1.990 . S
Li968 O1028 1.956 . S
Li968 O1029 1.970 1_455 S
Li968 O1030 1.961 . S
Li969 N993 1.990 1_455 S
Li969 O1028 1.970 . S
Li969 O1029 1.956 1_455 S
Li969 O1031 1.961 . S
Li970 N1015 1.990 . S
Li970 O1028 1.961 . S
Li970 O1030 1.956 . S
Li970 O1031 1.970 . S
Li971 N1021 1.990 . S
Li971 O1029 1.961 . S
Li971 O1030 1.970 1_655 S
Li971 O1031 1.956 1_655 S
C972 C974 1.348 . S
C972 C975 1.356 . S
C972 O1028 1.325 . S
N973 C976 1.314 . S
N973 C977 1.279 . S
C974 C972 1.348 . S
C974 C976 1.353 . S
C974 H1032 0.929 . S
C975 C972 1.356 . S
C975 C977 1.358 . S
C975 H1033 0.930 . S
C976 N973 1.314 . S
C976 C974 1.353 . S
C976 H1034 0.930 . S
C977 N973 1.279 . S
C977 C975 1.358 . S
C977 H1035 0.930 . S
C978 C981 1.348 . S
C978 C982 1.356 . S
C978 O1029 1.325 . S
C979 N980 1.279 . S
C979 C982 1.358 . S
C979 H1036 0.930 . S
N980 C979 1.279 . S
N980 C983 1.314 . S
C981 C978 1.348 . S
C981 C983 1.353 . S
C981 H1037 0.929 . S
C982 C978 1.356 . S
C982 C979 1.358 . S
C982 H1038 0.930 . S
C983 N980 1.314 . S
C983 C981 1.353 . S
C983 H1039 0.930 . S
C984 N985 1.314 1_655 S
C984 C989 1.353 . S
C984 H990 0.930 . S
N985 Li968 1.990 . S
N985 C984 1.314 1_455 S
N985 C987 1.279 . S
C986 C987 1.358 . S
C986 C988 1.356 1_455 S
C986 H1040 0.930 . S
C987 N985 1.279 . S
C987 C986 1.358 . S
C987 H991 0.930 . S
C988 C986 1.356 1_655 S
C988 C989 1.348 . S
C989 C984 1.353 . S
C989 C988 1.348 . S
C989 H1041 0.929 . S
H990 C984 0.930 . S
H991 C987 0.930 . S
C992 N993 1.314 1_455 S
C992 C994 1.353 . S
C992 H998 0.930 . S
N993 Li969 1.990 1_655 S
N993 C992 1.314 1_655 S
N993 C996 1.279 . S
C994 C992 1.353 . S
C994 C997 1.348 1_455 S
C994 H1042 0.929 . S
C995 C996 1.358 . S
C995 C997 1.356 . S
C995 H1043 0.930 . S
C996 N993 1.279 . S
C996 C995 1.358 . S
C996 H999 0.930 . S
C997 C994 1.348 1_655 S
C997 C995 1.356 . S
H998 C992 0.930 . S
H999 C996 0.930 . S
C1000 C1002 1.348 . S
C1000 C1003 1.356 . S
C1000 O1030 1.325 . S
N1001 C1004 1.314 . S
N1001 C1005 1.279 . S
C1002 C1000 1.348 . S
C1002 C1004 1.353 . S
C1002 H1044 0.929 . S
C1003 C1000 1.356 . S
C1003 C1005 1.358 . S
C1003 H1045 0.930 . S
C1004 N1001 1.314 . S
C1004 C1002 1.353 . S
C1004 H1046 0.930 . S
C1005 N1001 1.279 . S
C1005 C1003 1.358 . S
C1005 H1047 0.930 . S
C1006 C1007 1.348 . S
C1006 C1008 1.356 . S
C1006 O1031 1.325 . S
C1007 C1006 1.348 . S
C1007 C1009 1.353 . S
C1007 H1048 0.929 . S
C1008 C1006 1.356 . S
C1008 C1010 1.358 . S
C1008 H1049 0.930 1_455 S
C1009 C1007 1.353 . S
C1009 N1011 1.314 . S
C1009 H1050 0.930 . S
C1010 C1008 1.358 . S
C1010 N1011 1.279 . S
C1010 H1051 0.930 1_455 S
N1011 C1009 1.314 . S
N1011 C1010 1.279 . S
C1012 C1014 1.353 . S
C1012 N1015 1.314 . S
C1012 H1018 0.930 . S
C1013 N1015 1.279 . S
C1013 C1016 1.358 . S
C1013 H1019 0.930 . S
C1014 C1012 1.353 . S
C1014 C1017 1.348 . S
C1014 H1052 0.929 . S
N1015 Li970 1.990 . S
N1015 C1012 1.314 . S
N1015 C1013 1.279 . S
C1016 C1013 1.358 . S
C1016 C1017 1.356 . S
C1016 H1053 0.930 . S
C1017 C1014 1.348 . S
C1017 C1016 1.356 . S
H1018 C1012 0.930 . S
H1019 C1013 0.930 . S
C1020 N1021 1.314 . S
C1020 C1022 1.353 . S
C1020 H1026 0.930 . S
N1021 Li971 1.990 . S
N1021 C1020 1.314 . S
N1021 C1024 1.279 . S
C1022 C1020 1.353 . S
C1022 C1025 1.348 . S
C1022 H1054 0.929 . S
C1023 C1024 1.358 . S
C1023 C1025 1.356 . S
C1023 H1055 0.930 . S
C1024 N1021 1.279 . S
C1024 C1023 1.358 . S
C1024 H1027 0.930 . S
C1025 C1022 1.348 . S
C1025 C1023 1.356 . S
H1026 C1020 0.930 . S
H1027 C1024 0.930 . S
O1028 Li968 1.956 . S
O1028 Li969 1.970 . S
O1028 Li970 1.961 . S
O1028 C972 1.325 . S
O1029 Li968 1.970 1_655 S
O1029 Li969 1.956 1_655 S
O1029 Li971 1.961 . S
O1029 C978 1.325 . S
O1030 Li968 1.961 . S
O1030 Li970 1.956 . S
O1030 Li971 1.970 1_455 S
O1030 C1000 1.325 . S
O1031 Li969 1.961 . S
O1031 Li970 1.970 . S
O1031 Li971 1.956 1_455 S
O1031 C1006 1.325 . S
H1032 C974 0.929 . S
H1033 C975 0.930 . S
H1034 C976 0.930 . S
H1035 C977 0.930 . S
H1036 C979 0.930 . S
H1037 C981 0.929 . S
H1038 C982 0.930 . S
H1039 C983 0.930 . S
H1040 C986 0.930 . S
H1041 C989 0.929 . S
H1042 C994 0.929 . S
H1043 C995 0.930 . S
H1044 C1002 0.929 . S
H1045 C1003 0.930 . S
H1046 C1004 0.930 . S
H1047 C1005 0.930 . S
H1048 C1007 0.929 . S
H1049 C1008 0.930 1_655 S
H1050 C1009 0.930 . S
H1051 C1010 0.930 1_655 S
H1052 C1014 0.929 . S
H1053 C1016 0.930 . S
H1054 C1022 0.929 . S
H1055 C1023 0.930 . S
Li1056 N1073 1.990 . S
Li1056 O1116 1.956 . S
Li1056 O1117 1.970 1_554 S
Li1056 O1118 1.961 . S
Li1057 N1081 1.990 1_554 S
Li1057 O1116 1.970 . S
Li1057 O1117 1.956 1_554 S
Li1057 O1119 1.961 . S
Li1058 N1103 1.990 . S
Li1058 O1116 1.961 . S
Li1058 O1118 1.956 . S
Li1058 O1119 1.970 . S
Li1059 N1109 1.990 . S
Li1059 O1117 1.961 . S
Li1059 O1118 1.970 1_556 S
Li1059 O1119 1.956 1_556 S
C1060 C1062 1.348 . S
C1060 C1063 1.356 . S
C1060 O1116 1.325 . S
N1061 C1064 1.314 . S
N1061 C1065 1.279 . S
C1062 C1060 1.348 . S
C1062 C1064 1.353 . S
C1062 H1120 0.929 . S
C1063 C1060 1.356 . S
C1063 C1065 1.358 . S
C1063 H1121 0.930 . S
C1064 N1061 1.314 . S
C1064 C1062 1.353 . S
C1064 H1122 0.930 . S
C1065 N1061 1.279 . S
C1065 C1063 1.358 . S
C1065 H1123 0.930 . S
C1066 C1069 1.348 . S
C1066 C1070 1.356 . S
C1066 O1117 1.325 . S
C1067 N1068 1.279 . S
C1067 C1070 1.358 . S
C1067 H1124 0.930 . S
N1068 C1067 1.279 . S
N1068 C1071 1.314 . S
C1069 C1066 1.348 . S
C1069 C1071 1.353 . S
C1069 H1125 0.929 . S
C1070 C1066 1.356 . S
C1070 C1067 1.358 . S
C1070 H1126 0.930 . S
C1071 N1068 1.314 . S
C1071 C1069 1.353 . S
C1071 H1127 0.930 . S
C1072 N1073 1.314 1_556 S
C1072 C1077 1.353 . S
C1072 H1078 0.930 . S
N1073 Li1056 1.990 . S
N1073 C1072 1.314 1_554 S
N1073 C1075 1.279 . S
C1074 C1075 1.358 . S
C1074 C1076 1.356 1_554 S
C1074 H1128 0.930 . S
C1075 N1073 1.279 . S
C1075 C1074 1.358 . S
C1075 H1079 0.930 . S
C1076 C1074 1.356 1_556 S
C1076 C1077 1.348 . S
C1077 C1072 1.353 . S
C1077 C1076 1.348 . S
C1077 H1129 0.929 . S
H1078 C1072 0.930 . S
H1079 C1075 0.930 . S
C1080 N1081 1.314 1_554 S
C1080 C1082 1.353 . S
C1080 H1086 0.930 . S
N1081 Li1057 1.990 1_556 S
N1081 C1080 1.314 1_556 S
N1081 C1084 1.279 . S
C1082 C1080 1.353 . S
C1082 C1085 1.348 1_554 S
C1082 H1130 0.929 . S
C1083 C1084 1.358 . S
C1083 C1085 1.356 . S
C1083 H1131 0.930 . S
C1084 N1081 1.279 . S
C1084 C1083 1.358 . S
C1084 H1087 0.930 . S
C1085 C1082 1.348 1_556 S
C1085 C1083 1.356 . S
H1086 C1080 0.930 . S
H1087 C1084 0.930 . S
C1088 C1090 1.348 . S
C1088 C1091 1.356 . S
C1088 O1118 1.325 . S
N1089 C1092 1.314 . S
N1089 C1093 1.279 . S
C1090 C1088 1.348 . S
C1090 C1092 1.353 . S
C1090 H1132 0.929 . S
C1091 C1088 1.356 . S
C1091 C1093 1.358 . S
C1091 H1133 0.930 . S
C1092 N1089 1.314 . S
C1092 C1090 1.353 . S
C1092 H1134 0.930 . S
C1093 N1089 1.279 . S
C1093 C1091 1.358 . S
C1093 H1135 0.930 . S
C1094 C1095 1.348 . S
C1094 C1096 1.356 . S
C1094 O1119 1.325 . S
C1095 C1094 1.348 . S
C1095 C1097 1.353 . S
C1095 H1136 0.929 . S
C1096 C1094 1.356 . S
C1096 C1098 1.358 . S
C1096 H1137 0.930 1_554 S
C1097 C1095 1.353 . S
C1097 N1099 1.314 . S
C1097 H1138 0.930 . S
C1098 C1096 1.358 . S
C1098 N1099 1.279 . S
C1098 H1139 0.930 1_554 S
N1099 C1097 1.314 . S
N1099 C1098 1.279 . S
C1100 C1102 1.353 . S
C1100 N1103 1.314 . S
C1100 H1106 0.930 . S
C1101 N1103 1.279 . S
C1101 C1104 1.358 . S
C1101 H1107 0.930 . S
C1102 C1100 1.353 . S
C1102 C1105 1.348 . S
C1102 H1140 0.929 . S
N1103 Li1058 1.990 . S
N1103 C1100 1.314 . S
N1103 C1101 1.279 . S
C1104 C1101 1.358 . S
C1104 C1105 1.356 . S
C1104 H1141 0.930 . S
C1105 C1102 1.348 . S
C1105 C1104 1.356 . S
H1106 C1100 0.930 . S
H1107 C1101 0.930 . S
C1108 N1109 1.314 . S
C1108 C1110 1.353 . S
C1108 H1114 0.930 . S
N1109 Li1059 1.990 . S
N1109 C1108 1.314 . S
N1109 C1112 1.279 . S
C1110 C1108 1.353 . S
C1110 C1113 1.348 . S
C1110 H1142 0.929 . S
C1111 C1112 1.358 . S
C1111 C1113 1.356 . S
C1111 H1143 0.930 . S
C1112 N1109 1.279 . S
C1112 C1111 1.358 . S
C1112 H1115 0.930 . S
C1113 C1110 1.348 . S
C1113 C1111 1.356 . S
H1114 C1108 0.930 . S
H1115 C1112 0.930 . S
O1116 Li1056 1.956 . S
O1116 Li1057 1.970 . S
O1116 Li1058 1.961 . S
O1116 C1060 1.325 . S
O1117 Li1056 1.970 1_556 S
O1117 Li1057 1.956 1_556 S
O1117 Li1059 1.961 . S
O1117 C1066 1.325 . S
O1118 Li1056 1.961 . S
O1118 Li1058 1.956 . S
O1118 Li1059 1.970 1_554 S
O1118 C1088 1.325 . S
O1119 Li1057 1.961 . S
O1119 Li1058 1.970 . S
O1119 Li1059 1.956 1_554 S
O1119 C1094 1.325 . S
H1120 C1062 0.929 . S
H1121 C1063 0.930 . S
H1122 C1064 0.930 . S
H1123 C1065 0.930 . S
H1124 C1067 0.930 . S
H1125 C1069 0.929 . S
H1126 C1070 0.930 . S
H1127 C1071 0.930 . S
H1128 C1074 0.930 . S
H1129 C1077 0.929 . S
H1130 C1082 0.929 . S
H1131 C1083 0.930 . S
H1132 C1090 0.929 . S
H1133 C1091 0.930 . S
H1134 C1092 0.930 . S
H1135 C1093 0.930 . S
H1136 C1095 0.929 . S
H1137 C1096 0.930 1_556 S
H1138 C1097 0.930 . S
H1139 C1098 0.930 1_556 S
H1140 C1102 0.929 . S
H1141 C1104 0.930 . S
H1142 C1110 0.929 . S
H1143 C1111 0.930 . S
Li1144 N1161 1.990 . S
Li1144 O1204 1.956 . S
Li1144 O1205 1.970 . S
Li1144 O1206 1.961 . S
Li1145 N1169 1.990 . S
Li1145 O1204 1.970 . S
Li1145 O1205 1.956 . S
Li1145 O1207 1.961 . S
Li1146 N1191 1.990 . S
Li1146 O1204 1.961 . S
Li1146 O1206 1.956 . S
Li1146 O1207 1.970 . S
Li1147 N1197 1.990 . S
Li1147 O1205 1.961 . S
Li1147 O1206 1.970 . S
Li1147 O1207 1.956 . S
C1148 C1150 1.348 . S
C1148 C1151 1.356 . S
C1148 O1204 1.325 . S
N1149 C1152 1.314 . S
N1149 C1153 1.279 . S
C1150 C1148 1.348 . S
C1150 C1152 1.353 . S
C1150 H1208 0.929 . S
C1151 C1148 1.356 . S
C1151 C1153 1.358 . S
C1151 H1209 0.930 . S
C1152 N1149 1.314 . S
C1152 C1150 1.353 . S
C1152 H1210 0.930 . S
C1153 N1149 1.279 . S
C1153 C1151 1.358 . S
C1153 H1211 0.930 . S
C1154 C1157 1.348 . S
C1154 C1158 1.356 . S
C1154 O1205 1.325 . S
C1155 N1156 1.279 . S
C1155 C1158 1.358 . S
C1155 H1212 0.930 . S
N1156 C1155 1.279 . S
N1156 C1159 1.314 . S
C1157 C1154 1.348 . S
C1157 C1159 1.353 . S
C1157 H1213 0.929 . S
C1158 C1154 1.356 . S
C1158 C1155 1.358 . S
C1158 H1214 0.930 . S
C1159 N1156 1.314 . S
C1159 C1157 1.353 . S
C1159 H1215 0.930 . S
C1160 N1161 1.314 . S
C1160 C1165 1.353 . S
C1160 H1166 0.930 . S
N1161 Li1144 1.990 . S
N1161 C1160 1.314 . S
N1161 C1163 1.279 . S
C1162 C1163 1.358 . S
C1162 C1164 1.356 . S
C1162 H1216 0.930 . S
C1163 N1161 1.279 . S
C1163 C1162 1.358 . S
C1163 H1167 0.930 . S
C1164 C1162 1.356 . S
C1164 C1165 1.348 . S
C1165 C1160 1.353 . S
C1165 C1164 1.348 . S
C1165 H1217 0.929 . S
H1166 C1160 0.930 . S
H1167 C1163 0.930 . S
C1168 N1169 1.314 . S
C1168 C1170 1.353 . S
C1168 H1174 0.930 . S
N1169 Li1145 1.990 . S
N1169 C1168 1.314 . S
N1169 C1172 1.279 . S
C1170 C1168 1.353 . S
C1170 C1173 1.348 . S
C1170 H1218 0.929 . S
C1171 C1172 1.358 . S
C1171 C1173 1.356 . S
C1171 H1219 0.930 . S
C1172 N1169 1.279 . S
C1172 C1171 1.358 . S
C1172 H1175 0.930 . S
C1173 C1170 1.348 . S
C1173 C1171 1.356 . S
H1174 C1168 0.930 . S
H1175 C1172 0.930 . S
C1176 C1178 1.348 . S
C1176 C1179 1.356 . S
C1176 O1206 1.325 . S
N1177 C1180 1.314 . S
N1177 C1181 1.279 . S
C1178 C1176 1.348 . S
C1178 C1180 1.353 . S
C1178 H1220 0.929 . S
C1179 C1176 1.356 . S
C1179 C1181 1.358 . S
C1179 H1221 0.930 . S
C1180 N1177 1.314 . S
C1180 C1178 1.353 . S
C1180 H1222 0.930 . S
C1181 N1177 1.279 . S
C1181 C1179 1.358 . S
C1181 H1223 0.930 . S
C1182 C1183 1.348 . S
C1182 C1184 1.356 . S
C1182 O1207 1.325 . S
C1183 C1182 1.348 . S
C1183 C1185 1.353 . S
C1183 H1224 0.929 . S
C1184 C1182 1.356 . S
C1184 C1186 1.358 . S
C1184 H1225 0.930 . S
C1185 C1183 1.353 . S
C1185 N1187 1.314 . S
C1185 H1226 0.930 . S
C1186 C1184 1.358 . S
C1186 N1187 1.279 . S
C1186 H1227 0.930 . S
N1187 C1185 1.314 . S
N1187 C1186 1.279 . S
C1188 C1190 1.353 . S
C1188 N1191 1.314 . S
C1188 H1194 0.930 . S
C1189 N1191 1.279 . S
C1189 C1192 1.358 . S
C1189 H1195 0.930 . S
C1190 C1188 1.353 . S
C1190 C1193 1.348 . S
C1190 H1228 0.929 . S
N1191 Li1146 1.990 . S
N1191 C1188 1.314 . S
N1191 C1189 1.279 . S
C1192 C1189 1.358 . S
C1192 C1193 1.356 . S
C1192 H1229 0.930 . S
C1193 C1190 1.348 . S
C1193 C1192 1.356 . S
H1194 C1188 0.930 . S
H1195 C1189 0.930 . S
C1196 N1197 1.314 . S
C1196 C1198 1.353 . S
C1196 H1202 0.930 . S
N1197 Li1147 1.990 . S
N1197 C1196 1.314 . S
N1197 C1200 1.279 . S
C1198 C1196 1.353 . S
C1198 C1201 1.348 . S
C1198 H1230 0.929 . S
C1199 C1200 1.358 . S
C1199 C1201 1.356 . S
C1199 H1231 0.930 . S
C1200 N1197 1.279 . S
C1200 C1199 1.358 . S
C1200 H1203 0.930 . S
C1201 C1198 1.348 . S
C1201 C1199 1.356 . S
H1202 C1196 0.930 . S
H1203 C1200 0.930 . S
O1204 Li1144 1.956 . S
O1204 Li1145 1.970 . S
O1204 Li1146 1.961 . S
O1204 C1148 1.325 . S
O1205 Li1144 1.970 . S
O1205 Li1145 1.956 . S
O1205 Li1147 1.961 . S
O1205 C1154 1.325 . S
O1206 Li1144 1.961 . S
O1206 Li1146 1.956 . S
O1206 Li1147 1.970 . S
O1206 C1176 1.325 . S
O1207 Li1145 1.961 . S
O1207 Li1146 1.970 . S
O1207 Li1147 1.956 . S
O1207 C1182 1.325 . S
H1208 C1150 0.929 . S
H1209 C1151 0.930 . S
H1210 C1152 0.930 . S
H1211 C1153 0.930 . S
H1212 C1155 0.930 . S
H1213 C1157 0.929 . S
H1214 C1158 0.930 . S
H1215 C1159 0.930 . S
H1216 C1162 0.930 . S
H1217 C1165 0.929 . S
H1218 C1170 0.929 . S
H1219 C1171 0.930 . S
H1220 C1178 0.929 . S
H1221 C1179 0.930 . S
H1222 C1180 0.930 . S
H1223 C1181 0.930 . S
H1224 C1183 0.929 . S
H1225 C1184 0.930 . S
H1226 C1185 0.930 . S
H1227 C1186 0.930 . S
H1228 C1190 0.929 . S
H1229 C1192 0.930 . S
H1230 C1198 0.929 . S
H1231 C1199 0.930 . S
Li1232 N1249 1.990 . S
Li1232 O1292 1.956 . S
Li1232 O1293 1.970 . S
Li1232 O1294 1.961 . S
Li1233 N1257 1.990 . S
Li1233 O1292 1.970 . S
Li1233 O1293 1.956 . S
Li1233 O1295 1.961 . S
Li1234 N1279 1.990 . S
Li1234 O1292 1.961 . S
Li1234 O1294 1.956 . S
Li1234 O1295 1.970 . S
Li1235 N1285 1.990 . S
Li1235 O1293 1.961 . S
Li1235 O1294 1.970 . S
Li1235 O1295 1.956 . S
C1236 C1238 1.348 . S
C1236 C1239 1.356 . S
C1236 O1292 1.325 . S
N1237 C1240 1.314 . S
N1237 C1241 1.279 . S
C1238 C1236 1.348 . S
C1238 C1240 1.353 . S
C1238 H1296 0.929 . S
C1239 C1236 1.356 . S
C1239 C1241 1.358 . S
C1239 H1297 0.930 . S
C1240 N1237 1.314 . S
C1240 C1238 1.353 . S
C1240 H1298 0.930 . S
C1241 N1237 1.279 . S
C1241 C1239 1.358 . S
C1241 H1299 0.930 . S
C1242 C1245 1.348 . S
C1242 C1246 1.356 . S
C1242 O1293 1.325 . S
C1243 N1244 1.279 . S
C1243 C1246 1.358 . S
C1243 H1300 0.930 . S
N1244 C1243 1.279 . S
N1244 C1247 1.314 . S
C1245 C1242 1.348 . S
C1245 C1247 1.353 . S
C1245 H1301 0.929 . S
C1246 C1242 1.356 . S
C1246 C1243 1.358 . S
C1246 H1302 0.930 . S
C1247 N1244 1.314 . S
C1247 C1245 1.353 . S
C1247 H1303 0.930 . S
C1248 N1249 1.314 . S
C1248 C1253 1.353 . S
C1248 H1254 0.930 . S
N1249 Li1232 1.990 . S
N1249 C1248 1.314 . S
N1249 C1251 1.279 . S
C1250 C1251 1.358 . S
C1250 C1252 1.356 . S
C1250 H1304 0.930 . S
C1251 N1249 1.279 . S
C1251 C1250 1.358 . S
C1251 H1255 0.930 . S
C1252 C1250 1.356 . S
C1252 C1253 1.348 . S
C1253 C1248 1.353 . S
C1253 C1252 1.348 . S
C1253 H1305 0.929 . S
H1254 C1248 0.930 . S
H1255 C1251 0.930 . S
C1256 N1257 1.314 . S
C1256 C1258 1.353 . S
C1256 H1262 0.930 . S
N1257 Li1233 1.990 . S
N1257 C1256 1.314 . S
N1257 C1260 1.279 . S
C1258 C1256 1.353 . S
C1258 C1261 1.348 . S
C1258 H1306 0.929 . S
C1259 C1260 1.358 . S
C1259 C1261 1.356 . S
C1259 H1307 0.930 . S
C1260 N1257 1.279 . S
C1260 C1259 1.358 . S
C1260 H1263 0.930 . S
C1261 C1258 1.348 . S
C1261 C1259 1.356 . S
H1262 C1256 0.930 . S
H1263 C1260 0.930 . S
C1264 C1266 1.348 . S
C1264 C1267 1.356 . S
C1264 O1294 1.325 . S
N1265 C1268 1.314 . S
N1265 C1269 1.279 . S
C1266 C1264 1.348 . S
C1266 C1268 1.353 . S
C1266 H1308 0.929 . S
C1267 C1264 1.356 . S
C1267 C1269 1.358 . S
C1267 H1309 0.930 . S
C1268 N1265 1.314 . S
C1268 C1266 1.353 . S
C1268 H1310 0.930 . S
C1269 N1265 1.279 . S
C1269 C1267 1.358 . S
C1269 H1311 0.930 . S
C1270 C1271 1.348 . S
C1270 C1272 1.356 . S
C1270 O1295 1.325 . S
C1271 C1270 1.348 . S
C1271 C1273 1.353 . S
C1271 H1312 0.929 . S
C1272 C1270 1.356 . S
C1272 C1274 1.358 . S
C1272 H1313 0.930 . S
C1273 C1271 1.353 . S
C1273 N1275 1.314 . S
C1273 H1314 0.930 . S
C1274 C1272 1.358 . S
C1274 N1275 1.279 . S
C1274 H1315 0.930 . S
N1275 C1273 1.314 . S
N1275 C1274 1.279 . S
C1276 C1278 1.353 . S
C1276 N1279 1.314 . S
C1276 H1282 0.930 . S
C1277 N1279 1.279 . S
C1277 C1280 1.358 . S
C1277 H1283 0.930 . S
C1278 C1276 1.353 . S
C1278 C1281 1.348 . S
C1278 H1316 0.929 . S
N1279 Li1234 1.990 . S
N1279 C1276 1.314 . S
N1279 C1277 1.279 . S
C1280 C1277 1.358 . S
C1280 C1281 1.356 . S
C1280 H1317 0.930 . S
C1281 C1278 1.348 . S
C1281 C1280 1.356 . S
H1282 C1276 0.930 . S
H1283 C1277 0.930 . S
C1284 N1285 1.314 . S
C1284 C1286 1.353 . S
C1284 H1290 0.930 . S
N1285 Li1235 1.990 . S
N1285 C1284 1.314 . S
N1285 C1288 1.279 . S
C1286 C1284 1.353 . S
C1286 C1289 1.348 . S
C1286 H1318 0.929 . S
C1287 C1288 1.358 . S
C1287 C1289 1.356 . S
C1287 H1319 0.930 . S
C1288 N1285 1.279 . S
C1288 C1287 1.358 . S
C1288 H1291 0.930 . S
C1289 C1286 1.348 . S
C1289 C1287 1.356 . S
H1290 C1284 0.930 . S
H1291 C1288 0.930 . S
O1292 Li1232 1.956 . S
O1292 Li1233 1.970 . S
O1292 Li1234 1.961 . S
O1292 C1236 1.325 . S
O1293 Li1232 1.970 . S
O1293 Li1233 1.956 . S
O1293 Li1235 1.961 . S
O1293 C1242 1.325 . S
O1294 Li1232 1.961 . S
O1294 Li1234 1.956 . S
O1294 Li1235 1.970 . S
O1294 C1264 1.325 . S
O1295 Li1233 1.961 . S
O1295 Li1234 1.970 . S
O1295 Li1235 1.956 . S
O1295 C1270 1.325 . S
H1296 C1238 0.929 . S
H1297 C1239 0.930 . S
H1298 C1240 0.930 . S
H1299 C1241 0.930 . S
H1300 C1243 0.930 . S
H1301 C1245 0.929 . S
H1302 C1246 0.930 . S
H1303 C1247 0.930 . S
H1304 C1250 0.930 . S
H1305 C1253 0.929 . S
H1306 C1258 0.929 . S
H1307 C1259 0.930 . S
H1308 C1266 0.929 . S
H1309 C1267 0.930 . S
H1310 C1268 0.930 . S
H1311 C1269 0.930 . S
H1312 C1271 0.929 . S
H1313 C1272 0.930 . S
H1314 C1273 0.930 . S
H1315 C1274 0.930 . S
H1316 C1278 0.929 . S
H1317 C1280 0.930 . S
H1318 C1286 0.929 . S
H1319 C1287 0.930 . S
Li1320 N1337 1.990 . S
Li1320 O1380 1.956 . S
Li1320 O1381 1.970 . S
Li1320 O1382 1.961 . S
Li1321 N1345 1.990 . S
Li1321 O1380 1.970 . S
Li1321 O1381 1.956 . S
Li1321 O1383 1.961 . S
Li1322 N1367 1.990 . S
Li1322 O1380 1.961 . S
Li1322 O1382 1.956 . S
Li1322 O1383 1.970 . S
Li1323 N1373 1.990 . S
Li1323 O1381 1.961 . S
Li1323 O1382 1.970 . S
Li1323 O1383 1.956 . S
C1324 C1326 1.348 . S
C1324 C1327 1.356 . S
C1324 O1380 1.325 . S
N1325 C1328 1.314 . S
N1325 C1329 1.279 . S
C1326 C1324 1.348 . S
C1326 C1328 1.353 . S
C1326 H1384 0.929 . S
C1327 C1324 1.356 . S
C1327 C1329 1.358 . S
C1327 H1385 0.930 . S
C1328 N1325 1.314 . S
C1328 C1326 1.353 . S
C1328 H1386 0.930 . S
C1329 N1325 1.279 . S
C1329 C1327 1.358 . S
C1329 H1387 0.930 . S
C1330 C1333 1.348 . S
C1330 C1334 1.356 . S
C1330 O1381 1.325 . S
C1331 N1332 1.279 . S
C1331 C1334 1.358 . S
C1331 H1388 0.930 . S
N1332 C1331 1.279 . S
N1332 C1335 1.314 . S
C1333 C1330 1.348 . S
C1333 C1335 1.353 . S
C1333 H1389 0.929 . S
C1334 C1330 1.356 . S
C1334 C1331 1.358 . S
C1334 H1390 0.930 . S
C1335 N1332 1.314 . S
C1335 C1333 1.353 . S
C1335 H1391 0.930 . S
C1336 N1337 1.314 . S
C1336 C1341 1.353 . S
C1336 H1342 0.930 . S
N1337 Li1320 1.990 . S
N1337 C1336 1.314 . S
N1337 C1339 1.279 . S
C1338 C1339 1.358 . S
C1338 C1340 1.356 . S
C1338 H1392 0.930 . S
C1339 N1337 1.279 . S
C1339 C1338 1.358 . S
C1339 H1343 0.930 . S
C1340 C1338 1.356 . S
C1340 C1341 1.348 . S
C1341 C1336 1.353 . S
C1341 C1340 1.348 . S
C1341 H1393 0.929 . S
H1342 C1336 0.930 . S
H1343 C1339 0.930 . S
C1344 N1345 1.314 . S
C1344 C1346 1.353 . S
C1344 H1350 0.930 . S
N1345 Li1321 1.990 . S
N1345 C1344 1.314 . S
N1345 C1348 1.279 . S
C1346 C1344 1.353 . S
C1346 C1349 1.348 . S
C1346 H1394 0.929 . S
C1347 C1348 1.358 . S
C1347 C1349 1.356 . S
C1347 H1395 0.930 . S
C1348 N1345 1.279 . S
C1348 C1347 1.358 . S
C1348 H1351 0.930 . S
C1349 C1346 1.348 . S
C1349 C1347 1.356 . S
H1350 C1344 0.930 . S
H1351 C1348 0.930 . S
C1352 C1354 1.348 . S
C1352 C1355 1.356 . S
C1352 O1382 1.325 . S
N1353 C1356 1.314 . S
N1353 C1357 1.279 . S
C1354 C1352 1.348 . S
C1354 C1356 1.353 . S
C1354 H1396 0.929 . S
C1355 C1352 1.356 . S
C1355 C1357 1.358 . S
C1355 H1397 0.930 . S
C1356 N1353 1.314 . S
C1356 C1354 1.353 . S
C1356 H1398 0.930 . S
C1357 N1353 1.279 . S
C1357 C1355 1.358 . S
C1357 H1399 0.930 . S
C1358 C1359 1.348 . S
C1358 C1360 1.356 . S
C1358 O1383 1.325 . S
C1359 C1358 1.348 . S
C1359 C1361 1.353 . S
C1359 H1400 0.929 . S
C1360 C1358 1.356 . S
C1360 C1362 1.358 . S
C1360 H1401 0.930 . S
C1361 C1359 1.353 . S
C1361 N1363 1.314 . S
C1361 H1402 0.930 . S
C1362 C1360 1.358 . S
C1362 N1363 1.279 . S
C1362 H1403 0.930 . S
N1363 C1361 1.314 . S
N1363 C1362 1.279 . S
C1364 C1366 1.353 . S
C1364 N1367 1.314 . S
C1364 H1370 0.930 . S
C1365 N1367 1.279 . S
C1365 C1368 1.358 . S
C1365 H1371 0.930 . S
C1366 C1364 1.353 . S
C1366 C1369 1.348 . S
C1366 H1404 0.929 . S
N1367 Li1322 1.990 . S
N1367 C1364 1.314 . S
N1367 C1365 1.279 . S
C1368 C1365 1.358 . S
C1368 C1369 1.356 . S
C1368 H1405 0.930 . S
C1369 C1366 1.348 . S
C1369 C1368 1.356 . S
H1370 C1364 0.930 . S
H1371 C1365 0.930 . S
C1372 N1373 1.314 . S
C1372 C1374 1.353 . S
C1372 H1378 0.930 . S
N1373 Li1323 1.990 . S
N1373 C1372 1.314 . S
N1373 C1376 1.279 . S
C1374 C1372 1.353 . S
C1374 C1377 1.348 . S
C1374 H1406 0.929 . S
C1375 C1376 1.358 . S
C1375 C1377 1.356 . S
C1375 H1407 0.930 . S
C1376 N1373 1.279 . S
C1376 C1375 1.358 . S
C1376 H1379 0.930 . S
C1377 C1374 1.348 . S
C1377 C1375 1.356 . S
H1378 C1372 0.930 . S
H1379 C1376 0.930 . S
O1380 Li1320 1.956 . S
O1380 Li1321 1.970 . S
O1380 Li1322 1.961 . S
O1380 C1324 1.325 . S
O1381 Li1320 1.970 . S
O1381 Li1321 1.956 . S
O1381 Li1323 1.961 . S
O1381 C1330 1.325 . S
O1382 Li1320 1.961 . S
O1382 Li1322 1.956 . S
O1382 Li1323 1.970 . S
O1382 C1352 1.325 . S
O1383 Li1321 1.961 . S
O1383 Li1322 1.970 . S
O1383 Li1323 1.956 . S
O1383 C1358 1.325 . S
H1384 C1326 0.929 . S
H1385 C1327 0.930 . S
H1386 C1328 0.930 . S
H1387 C1329 0.930 . S
H1388 C1331 0.930 . S
H1389 C1333 0.929 . S
H1390 C1334 0.930 . S
H1391 C1335 0.930 . S
H1392 C1338 0.930 . S
H1393 C1341 0.929 . S
H1394 C1346 0.929 . S
H1395 C1347 0.930 . S
H1396 C1354 0.929 . S
H1397 C1355 0.930 . S
H1398 C1356 0.930 . S
H1399 C1357 0.930 . S
H1400 C1359 0.929 . S
H1401 C1360 0.930 . S
H1402 C1361 0.930 . S
H1403 C1362 0.930 . S
H1404 C1366 0.929 . S
H1405 C1368 0.930 . S
H1406 C1374 0.929 . S
H1407 C1375 0.930 . S
C1408 C1409 1.363 . S
C1408 C1414 1.379 . S
C1408 N1416 1.356 . S
C1409 C1408 1.363 . S
C1409 C1415 1.363 . S
C1410 C1411 1.363 . S
C1410 C1415 1.379 . S
C1410 N1417 1.356 . S
C1411 C1410 1.363 . S
C1411 C1414 1.363 . S
N1412 C1414 1.356 . S
N1412 H1424 0.984 . S
N1412 H1425 0.985 . S
N1413 C1415 1.356 . S
N1413 H1418 0.984 . S
N1413 H1419 0.985 . S
C1414 C1408 1.379 . S
C1414 C1411 1.363 . S
C1414 N1412 1.356 . S
C1415 C1409 1.363 . S
C1415 C1410 1.379 . S
C1415 N1413 1.356 . S
N1416 C1408 1.356 . S
N1416 H1422 0.984 . S
N1416 H1423 0.984 . S
N1417 C1410 1.356 . S
N1417 H1420 0.984 . S
N1417 H1421 0.985 . S
H1418 N1413 0.984 . S
H1419 N1413 0.985 . S
H1420 N1417 0.984 . S
H1421 N1417 0.985 . S
H1422 N1416 0.984 . S
H1423 N1416 0.984 . S
H1424 N1412 0.984 . S
H1425 N1412 0.985 . S
C1426 C1427 1.363 . S
C1426 C1432 1.379 . S
C1426 N1434 1.356 . S
C1427 C1426 1.363 . S
C1427 C1433 1.363 . S
C1428 C1429 1.363 . S
C1428 C1433 1.379 . S
C1428 N1435 1.356 . S
C1429 C1428 1.363 . S
C1429 C1432 1.363 . S
N1430 C1432 1.356 . S
N1430 H1442 0.984 . S
N1430 H1443 0.985 . S
N1431 C1433 1.356 . S
N1431 H1436 0.984 . S
N1431 H1437 0.985 . S
C1432 C1426 1.379 . S
C1432 C1429 1.363 . S
C1432 N1430 1.356 . S
C1433 C1427 1.363 . S
C1433 C1428 1.379 . S
C1433 N1431 1.356 . S
N1434 C1426 1.356 . S
N1434 H1440 0.984 . S
N1434 H1441 0.984 . S
N1435 C1428 1.356 . S
N1435 H1438 0.984 . S
N1435 H1439 0.985 . S
H1436 N1431 0.984 . S
H1437 N1431 0.985 . S
H1438 N1435 0.984 . S
H1439 N1435 0.985 . S
H1440 N1434 0.984 . S
H1441 N1434 0.984 . S
H1442 N1430 0.984 . S
H1443 N1430 0.985 . S
C1444 C1445 1.363 . S
C1444 C1450 1.379 . S
C1444 N1452 1.356 . S
C1445 C1444 1.363 . S
C1445 C1451 1.363 . S
C1446 C1447 1.363 . S
C1446 C1451 1.379 . S
C1446 N1453 1.356 . S
C1447 C1446 1.363 . S
C1447 C1450 1.363 . S
N1448 C1450 1.356 . S
N1448 H1460 0.984 . S
N1448 H1461 0.985 . S
N1449 C1451 1.356 . S
N1449 H1454 0.984 . S
N1449 H1455 0.985 . S
C1450 C1444 1.379 . S
C1450 C1447 1.363 . S
C1450 N1448 1.356 . S
C1451 C1445 1.363 . S
C1451 C1446 1.379 . S
C1451 N1449 1.356 . S
N1452 C1444 1.356 . S
N1452 H1458 0.984 . S
N1452 H1459 0.984 . S
N1453 C1446 1.356 . S
N1453 H1456 0.984 . S
N1453 H1457 0.985 . S
H1454 N1449 0.984 . S
H1455 N1449 0.985 . S
H1456 N1453 0.984 . S
H1457 N1453 0.985 . S
H1458 N1452 0.984 . S
H1459 N1452 0.984 . S
H1460 N1448 0.984 . S
H1461 N1448 0.985 . S
C1462 C1463 1.363 . S
C1462 C1468 1.379 . S
C1462 N1470 1.356 . S
C1463 C1462 1.363 . S
C1463 C1469 1.363 . S
C1464 C1465 1.363 . S
C1464 C1469 1.379 . S
C1464 N1471 1.356 . S
C1465 C1464 1.363 . S
C1465 C1468 1.363 . S
N1466 C1468 1.356 . S
N1466 H1478 0.984 . S
N1466 H1479 0.985 . S
N1467 C1469 1.356 . S
N1467 H1472 0.984 . S
N1467 H1473 0.985 . S
C1468 C1462 1.379 . S
C1468 C1465 1.363 . S
C1468 N1466 1.356 . S
C1469 C1463 1.363 . S
C1469 C1464 1.379 . S
C1469 N1467 1.356 . S
N1470 C1462 1.356 . S
N1470 H1476 0.984 . S
N1470 H1477 0.984 . S
N1471 C1464 1.356 . S
N1471 H1474 0.984 . S
N1471 H1475 0.985 . S
H1472 N1467 0.984 . S
H1473 N1467 0.985 . S
H1474 N1471 0.984 . S
H1475 N1471 0.985 . S
H1476 N1470 0.984 . S
H1477 N1470 0.984 . S
H1478 N1466 0.984 . S
H1479 N1466 0.985 . S
C1480 C1481 1.363 . S
C1480 C1486 1.379 . S
C1480 N1488 1.356 . S
C1481 C1480 1.363 . S
C1481 C1487 1.363 . S
C1482 C1483 1.363 . S
C1482 C1487 1.379 . S
C1482 N1489 1.356 . S
C1483 C1482 1.363 . S
C1483 C1486 1.363 . S
N1484 C1486 1.356 . S
N1484 H1496 0.984 . S
N1484 H1497 0.985 . S
N1485 C1487 1.356 . S
N1485 H1490 0.984 . S
N1485 H1491 0.985 . S
C1486 C1480 1.379 . S
C1486 C1483 1.363 . S
C1486 N1484 1.356 . S
C1487 C1481 1.363 . S
C1487 C1482 1.379 . S
C1487 N1485 1.356 . S
N1488 C1480 1.356 . S
N1488 H1494 0.984 . S
N1488 H1495 0.984 . S
N1489 C1482 1.356 . S
N1489 H1492 0.984 . S
N1489 H1493 0.985 . S
H1490 N1485 0.984 . S
H1491 N1485 0.985 . S
H1492 N1489 0.984 . S
H1493 N1489 0.985 . S
H1494 N1488 0.984 . S
H1495 N1488 0.984 . S
H1496 N1484 0.984 . S
H1497 N1484 0.985 . S
C1498 C1499 1.363 . S
C1498 C1504 1.379 . S
C1498 N1506 1.356 . S
C1499 C1498 1.363 . S
C1499 C1505 1.363 . S
C1500 C1501 1.363 . S
C1500 C1505 1.379 . S
C1500 N1507 1.356 . S
C1501 C1500 1.363 . S
C1501 C1504 1.363 . S
N1502 C1504 1.356 . S
N1502 H1514 0.984 . S
N1502 H1515 0.985 . S
N1503 C1505 1.356 . S
N1503 H1508 0.984 . S
N1503 H1509 0.985 . S
C1504 C1498 1.379 . S
C1504 C1501 1.363 . S
C1504 N1502 1.356 . S
C1505 C1499 1.363 . S
C1505 C1500 1.379 . S
C1505 N1503 1.356 . S
N1506 C1498 1.356 . S
N1506 H1512 0.984 . S
N1506 H1513 0.984 . S
N1507 C1500 1.356 . S
N1507 H1510 0.984 . S
N1507 H1511 0.985 . S
H1508 N1503 0.984 . S
H1509 N1503 0.985 . S
H1510 N1507 0.984 . S
H1511 N1507 0.985 . S
H1512 N1506 0.984 . S
H1513 N1506 0.984 . S
H1514 N1502 0.984 . S
H1515 N1502 0.985 . S
C1516 C1517 1.363 . S
C1516 C1522 1.379 . S
C1516 N1524 1.356 . S
C1517 C1516 1.363 . S
C1517 C1523 1.363 . S
C1518 C1519 1.363 . S
C1518 C1523 1.379 . S
C1518 N1525 1.356 . S
C1519 C1518 1.363 . S
C1519 C1522 1.363 . S
N1520 C1522 1.356 . S
N1520 H1532 0.984 . S
N1520 H1533 0.985 . S
N1521 C1523 1.356 . S
N1521 H1526 0.984 . S
N1521 H1527 0.985 . S
C1522 C1516 1.379 . S
C1522 C1519 1.363 . S
C1522 N1520 1.356 . S
C1523 C1517 1.363 . S
C1523 C1518 1.379 . S
C1523 N1521 1.356 . S
N1524 C1516 1.356 . S
N1524 H1530 0.984 . S
N1524 H1531 0.984 . S
N1525 C1518 1.356 . S
N1525 H1528 0.984 . S
N1525 H1529 0.985 . S
H1526 N1521 0.984 . S
H1527 N1521 0.985 . S
H1528 N1525 0.984 . S
H1529 N1525 0.985 . S
H1530 N1524 0.984 . S
H1531 N1524 0.984 . S
H1532 N1520 0.984 . S
H1533 N1520 0.985 . S
C1534 C1535 1.363 . S
C1534 C1540 1.379 . S
C1534 N1542 1.356 . S
C1535 C1534 1.363 . S
C1535 C1541 1.363 . S
C1536 C1537 1.363 . S
C1536 C1541 1.379 . S
C1536 N1543 1.356 . S
C1537 C1536 1.363 . S
C1537 C1540 1.363 . S
N1538 C1540 1.356 . S
N1538 H1550 0.984 . S
N1538 H1551 0.985 . S
N1539 C1541 1.356 . S
N1539 H1544 0.984 . S
N1539 H1545 0.985 . S
C1540 C1534 1.379 . S
C1540 C1537 1.363 . S
C1540 N1538 1.356 . S
C1541 C1535 1.363 . S
C1541 C1536 1.379 . S
C1541 N1539 1.356 . S
N1542 C1534 1.356 . S
N1542 H1548 0.984 . S
N1542 H1549 0.984 . S
N1543 C1536 1.356 . S
N1543 H1546 0.984 . S
N1543 H1547 0.985 . S
H1544 N1539 0.984 . S
H1545 N1539 0.985 . S
H1546 N1543 0.984 . S
H1547 N1543 0.985 . S
H1548 N1542 0.984 . S
H1549 N1542 0.984 . S
H1550 N1538 0.984 . S
H1551 N1538 0.985 . S
C1552 C1553 1.363 . S
C1552 C1558 1.379 . S
C1552 N1560 1.356 . S
C1553 C1552 1.363 . S
C1553 C1559 1.363 . S
C1554 C1555 1.363 . S
C1554 C1559 1.379 . S
C1554 N1561 1.356 . S
C1555 C1554 1.363 . S
C1555 C1558 1.363 . S
N1556 C1558 1.356 . S
N1556 H1568 0.984 . S
N1556 H1569 0.985 . S
N1557 C1559 1.356 . S
N1557 H1562 0.984 . S
N1557 H1563 0.985 . S
C1558 C1552 1.379 . S
C1558 C1555 1.363 . S
C1558 N1556 1.356 . S
C1559 C1553 1.363 . S
C1559 C1554 1.379 . S
C1559 N1557 1.356 . S
N1560 C1552 1.356 . S
N1560 H1566 0.984 . S
N1560 H1567 0.984 . S
N1561 C1554 1.356 . S
N1561 H1564 0.984 . S
N1561 H1565 0.985 . S
H1562 N1557 0.984 . S
H1563 N1557 0.985 . S
H1564 N1561 0.984 . S
H1565 N1561 0.985 . S
H1566 N1560 0.984 . S
H1567 N1560 0.984 . S
H1568 N1556 0.984 . S
H1569 N1556 0.985 . S
C1570 C1571 1.363 1_565 S
C1570 C1576 1.379 . S
C1570 N1578 1.356 . S
C1571 C1570 1.363 1_545 S
C1571 C1577 1.363 1_455 S
C1572 C1573 1.363 1_645 S
C1572 C1577 1.379 . S
C1572 N1579 1.356 . S
C1573 C1572 1.363 1_465 S
C1573 C1576 1.363 . S
N1574 C1576 1.356 . S
N1574 H1586 0.984 . S
N1574 H1587 0.985 . S
N1575 C1577 1.356 . S
N1575 H1580 0.984 . S
N1575 H1581 0.985 . S
C1576 C1570 1.379 . S
C1576 C1573 1.363 . S
C1576 N1574 1.356 . S
C1577 C1571 1.363 1_655 S
C1577 C1572 1.379 . S
C1577 N1575 1.356 . S
N1578 C1570 1.356 . S
N1578 H1584 0.984 . S
N1578 H1585 0.984 . S
N1579 C1572 1.356 . S
N1579 H1582 0.984 . S
N1579 H1583 0.985 . S
H1580 N1575 0.984 . S
H1581 N1575 0.985 . S
H1582 N1579 0.984 . S
H1583 N1579 0.985 . S
H1584 N1578 0.984 . S
H1585 N1578 0.984 . S
H1586 N1574 0.984 . S
H1587 N1574 0.985 . S
C1588 C1589 1.363 . S
C1588 C1594 1.379 1_556 S
C1588 N1596 1.356 . S
C1589 C1588 1.363 . S
C1589 C1595 1.363 . S
C1590 C1591 1.363 . S
C1590 C1595 1.379 1_554 S
C1590 N1597 1.356 . S
C1591 C1590 1.363 . S
C1591 C1594 1.363 . S
N1592 C1594 1.356 . S
N1592 H1604 0.984 . S
N1592 H1605 0.985 . S
N1593 C1595 1.356 . S
N1593 H1598 0.984 . S
N1593 H1599 0.985 . S
C1594 C1588 1.379 1_554 S
C1594 C1591 1.363 . S
C1594 N1592 1.356 . S
C1595 C1589 1.363 . S
C1595 C1590 1.379 1_556 S
C1595 N1593 1.356 . S
N1596 C1588 1.356 . S
N1596 H1602 0.984 . S
N1596 H1603 0.984 . S
N1597 C1590 1.356 . S
N1597 H1600 0.984 . S
N1597 H1601 0.985 . S
H1598 N1593 0.984 . S
H1599 N1593 0.985 . S
H1600 N1597 0.984 . S
H1601 N1597 0.985 . S
H1602 N1596 0.984 . S
H1603 N1596 0.984 . S
H1604 N1592 0.984 . S
H1605 N1592 0.985 . S
C1606 C1607 1.363 1_545 S
C1606 C1612 1.379 . S
C1606 N1614 1.356 . S
C1607 C1606 1.363 1_565 S
C1607 C1613 1.363 . S
C1608 C1609 1.363 1_565 S
C1608 C1613 1.379 . S
C1608 N1615 1.356 . S
C1609 C1608 1.363 1_545 S
C1609 C1612 1.363 . S
N1610 C1612 1.356 . S
N1610 H1622 0.984 . S
N1610 H1623 0.985 . S
N1611 C1613 1.356 . S
N1611 H1616 0.984 . S
N1611 H1617 0.985 . S
C1612 C1606 1.379 . S
C1612 C1609 1.363 . S
C1612 N1610 1.356 . S
C1613 C1607 1.363 . S
C1613 C1608 1.379 . S
C1613 N1611 1.356 . S
N1614 C1606 1.356 . S
N1614 H1620 0.984 . S
N1614 H1621 0.987 1_545 S
N1615 C1608 1.356 . S
N1615 H1618 0.984 . S
N1615 H1619 0.985 . S
H1616 N1611 0.984 . S
H1617 N1611 0.985 . S
H1618 N1615 0.984 . S
H1619 N1615 0.985 . S
H1620 N1614 0.984 . S
H1621 N1614 0.987 1_565 S
H1622 N1610 0.984 . S
H1623 N1610 0.985 . S
C1624 C1625 1.363 . S
C1624 C1630 1.379 . S
C1624 N1632 1.356 . S
C1625 C1624 1.363 . S
C1625 C1631 1.363 . S
C1626 C1627 1.363 . S
C1626 C1631 1.379 . S
C1626 N1633 1.356 . S
C1627 C1626 1.363 . S
C1627 C1630 1.363 . S
N1628 C1630 1.356 . S
N1628 H1640 0.984 . S
N1628 H1641 0.985 . S
N1629 C1631 1.356 . S
N1629 H1634 0.984 . S
N1629 H1635 0.985 . S
C1630 C1624 1.379 . S
C1630 C1627 1.363 . S
C1630 N1628 1.356 . S
C1631 C1625 1.363 . S
C1631 C1626 1.379 . S
C1631 N1629 1.356 . S
N1632 C1624 1.356 . S
N1632 H1638 0.984 . S
N1632 H1639 0.984 . S
N1633 C1626 1.356 . S
N1633 H1636 0.984 . S
N1633 H1637 0.985 . S
H1634 N1629 0.984 . S
H1635 N1629 0.985 . S
H1636 N1633 0.984 . S
H1637 N1633 0.985 . S
H1638 N1632 0.984 . S
H1639 N1632 0.984 . S
H1640 N1628 0.984 . S
H1641 N1628 0.985 . S
C1642 C1643 1.363 1_455 S
C1642 C1648 1.379 . S
C1642 N1650 1.356 . S
C1643 C1642 1.363 1_655 S
C1643 C1649 1.363 . S
C1644 C1645 1.363 1_655 S
C1644 C1649 1.379 . S
C1644 N1651 1.356 . S
C1645 C1644 1.363 1_455 S
C1645 C1648 1.363 . S
N1646 C1648 1.356 . S
N1646 H1658 0.984 . S
N1646 H1659 0.985 . S
N1647 C1649 1.356 . S
N1647 H1652 0.984 . S
N1647 H1653 0.985 . S
C1648 C1642 1.379 . S
C1648 C1645 1.363 . S
C1648 N1646 1.356 . S
C1649 C1643 1.363 . S
C1649 C1644 1.379 . S
C1649 N1647 1.356 . S
N1650 C1642 1.356 . S
N1650 H1656 0.984 . S
N1650 H1657 0.984 1_455 S
N1651 C1644 1.356 . S
N1651 H1654 0.984 1_655 S
N1651 H1655 0.985 . S
H1652 N1647 0.984 . S
H1653 N1647 0.985 . S
H1654 N1651 0.984 1_455 S
H1655 N1651 0.985 . S
H1656 N1650 0.984 . S
H1657 N1650 0.984 1_655 S
H1658 N1646 0.984 . S
H1659 N1646 0.985 . S
C1660 C1661 1.363 . S
C1660 C1666 1.379 1_655 S
C1660 N1668 1.356 . S
C1661 C1660 1.363 . S
C1661 C1667 1.363 . S
C1662 C1663 1.363 . S
C1662 C1667 1.379 1_455 S
C1662 N1669 1.356 . S
C1663 C1662 1.363 . S
C1663 C1666 1.363 . S
N1664 C1666 1.356 . S
N1664 H1676 0.984 . S
N1664 H1677 0.985 . S
N1665 C1667 1.356 . S
N1665 H1670 0.984 . S
N1665 H1671 0.985 . S
C1666 C1660 1.379 1_455 S
C1666 C1663 1.363 . S
C1666 N1664 1.356 . S
C1667 C1661 1.363 . S
C1667 C1662 1.379 1_655 S
C1667 N1665 1.356 . S
N1668 C1660 1.356 . S
N1668 H1674 0.984 . S
N1668 H1675 0.984 . S
N1669 C1662 1.356 . S
N1669 H1672 0.984 . S
N1669 H1673 0.985 . S
H1670 N1665 0.984 . S
H1671 N1665 0.985 . S
H1672 N1669 0.984 . S
H1673 N1669 0.985 . S
H1674 N1668 0.984 . S
H1675 N1668 0.984 . S
H1676 N1664 0.984 . S
H1677 N1664 0.985 . S
C1678 C1679 1.363 1_554 S
C1678 C1684 1.379 . S
C1678 N1686 1.356 . S
C1679 C1678 1.363 1_556 S
C1679 C1685 1.363 . S
C1680 C1681 1.363 . S
C1680 C1685 1.379 . S
C1680 N1687 1.356 . S
C1681 C1680 1.363 . S
C1681 C1684 1.363 1_556 S
N1682 C1684 1.356 . S
N1682 H1694 0.984 . S
N1682 H1695 0.985 . S
N1683 C1685 1.356 . S
N1683 H1688 0.984 . S
N1683 H1689 0.985 . S
C1684 C1678 1.379 . S
C1684 C1681 1.363 1_554 S
C1684 N1682 1.356 . S
C1685 C1679 1.363 . S
C1685 C1680 1.379 . S
C1685 N1683 1.356 . S
N1686 C1678 1.356 . S
N1686 H1692 0.984 . S
N1686 H1693 0.984 . S
N1687 C1680 1.356 . S
N1687 H1690 0.984 . S
N1687 H1691 0.985 . S
H1688 N1683 0.984 . S
H1689 N1683 0.985 . S
H1690 N1687 0.984 . S
H1691 N1687 0.985 . S
H1692 N1686 0.984 . S
H1693 N1686 0.984 . S
H1694 N1682 0.984 . S
H1695 N1682 0.985 . S
C1696 C1697 1.363 . S
C1696 C1702 1.379 . S
C1696 N1704 1.356 . S
C1697 C1696 1.363 . S
C1697 C1703 1.363 . S
C1698 C1699 1.363 . S
C1698 C1703 1.379 . S
C1698 N1705 1.356 . S
C1699 C1698 1.363 . S
C1699 C1702 1.363 . S
N1700 C1702 1.356 . S
N1700 H1712 0.984 . S
N1700 H1713 0.985 . S
N1701 C1703 1.356 . S
N1701 H1706 0.984 . S
N1701 H1707 0.985 . S
C1702 C1696 1.379 . S
C1702 C1699 1.363 . S
C1702 N1700 1.356 . S
C1703 C1697 1.363 . S
C1703 C1698 1.379 . S
C1703 N1701 1.356 . S
N1704 C1696 1.356 . S
N1704 H1710 0.984 . S
N1704 H1711 0.984 . S
N1705 C1698 1.356 . S
N1705 H1708 0.984 . S
N1705 H1709 0.985 . S
H1706 N1701 0.984 . S
H1707 N1701 0.985 . S
H1708 N1705 0.984 . S
H1709 N1705 0.985 . S
H1710 N1704 0.984 . S
H1711 N1704 0.984 . S
H1712 N1700 0.984 . S
H1713 N1700 0.985 . S
C1714 C1715 1.363 . S
C1714 C1720 1.379 . S
C1714 N1722 1.356 . S
C1715 C1714 1.363 . S
C1715 C1721 1.363 . S
C1716 C1717 1.363 . S
C1716 C1721 1.379 . S
C1716 N1723 1.356 . S
C1717 C1716 1.363 . S
C1717 C1720 1.363 . S
N1718 C1720 1.356 . S
N1718 H1730 0.984 . S
N1718 H1731 0.985 . S
N1719 C1721 1.356 . S
N1719 H1724 0.984 . S
N1719 H1725 0.985 . S
C1720 C1714 1.379 . S
C1720 C1717 1.363 . S
C1720 N1718 1.356 . S
C1721 C1715 1.363 . S
C1721 C1716 1.379 . S
C1721 N1719 1.356 . S
N1722 C1714 1.356 . S
N1722 H1728 0.984 . S
N1722 H1729 0.984 . S
N1723 C1716 1.356 . S
N1723 H1726 0.984 . S
N1723 H1727 0.985 . S
H1724 N1719 0.984 . S
H1725 N1719 0.985 . S
H1726 N1723 0.984 . S
H1727 N1723 0.985 . S
H1728 N1722 0.984 . S
H1729 N1722 0.984 . S
H1730 N1718 0.984 . S
H1731 N1718 0.985 . S
C1732 C1733 1.363 . S
C1732 C1738 1.379 1_455 S
C1732 N1740 1.356 . S
C1733 C1732 1.363 . S
C1733 C1739 1.363 . S
C1734 C1735 1.363 . S
C1734 C1739 1.379 1_655 S
C1734 N1741 1.356 . S
C1735 C1734 1.363 . S
C1735 C1738 1.363 . S
N1736 C1738 1.356 . S
N1736 H1748 0.984 . S
N1736 H1749 0.985 . S
N1737 C1739 1.356 . S
N1737 H1742 0.984 . S
N1737 H1743 0.985 . S
C1738 C1732 1.379 1_655 S
C1738 C1735 1.363 . S
C1738 N1736 1.356 . S
C1739 C1733 1.363 . S
C1739 C1734 1.379 1_455 S
C1739 N1737 1.356 . S
N1740 C1732 1.356 . S
N1740 H1746 0.984 . S
N1740 H1747 0.984 . S
N1741 C1734 1.356 . S
N1741 H1744 0.984 . S
N1741 H1745 0.985 . S
H1742 N1737 0.984 . S
H1743 N1737 0.985 . S
H1744 N1741 0.984 . S
H1745 N1741 0.985 . S
H1746 N1740 0.984 . S
H1747 N1740 0.984 . S
H1748 N1736 0.984 . S
H1749 N1736 0.985 . S
C1750 C1751 1.363 1_656 S
C1750 C1756 1.379 . S
C1750 N1758 1.356 . S
C1751 C1750 1.363 1_454 S
C1751 C1757 1.363 . S
C1752 C1753 1.363 1_455 S
C1752 C1757 1.379 . S
C1752 N1759 1.356 . S
C1753 C1752 1.363 1_655 S
C1753 C1756 1.363 1_554 S
N1754 C1756 1.356 . S
N1754 H1766 0.984 . S
N1754 H1767 0.985 . S
N1755 C1757 1.356 . S
N1755 H1760 0.984 . S
N1755 H1761 0.985 . S
C1756 C1750 1.379 . S
C1756 C1753 1.363 1_556 S
C1756 N1754 1.356 . S
C1757 C1751 1.363 . S
C1757 C1752 1.379 . S
C1757 N1755 1.356 . S
N1758 C1750 1.356 . S
N1758 H1764 0.984 . S
N1758 H1765 0.984 1_655 S
N1759 C1752 1.356 . S
N1759 H1762 0.984 1_455 S
N1759 H1763 0.985 . S
H1760 N1755 0.984 . S
H1761 N1755 0.985 . S
H1762 N1759 0.984 1_655 S
H1763 N1759 0.985 . S
H1764 N1758 0.984 . S
H1765 N1758 0.984 1_455 S
H1766 N1754 0.984 . S
H1767 N1754 0.985 . S
C1768 C1769 1.363 . S
C1768 C1774 1.379 . S
C1768 N1776 1.356 . S
C1769 C1768 1.363 . S
C1769 C1775 1.363 . S
C1770 C1771 1.363 . S
C1770 C1775 1.379 . S
C1770 N1777 1.356 . S
C1771 C1770 1.363 . S
C1771 C1774 1.363 . S
N1772 C1774 1.356 . S
N1772 H1784 0.984 . S
N1772 H1785 0.985 . S
N1773 C1775 1.356 . S
N1773 H1778 0.984 . S
N1773 H1779 0.985 . S
C1774 C1768 1.379 . S
C1774 C1771 1.363 . S
C1774 N1772 1.356 . S
C1775 C1769 1.363 . S
C1775 C1770 1.379 . S
C1775 N1773 1.356 . S
N1776 C1768 1.356 . S
N1776 H1782 0.984 . S
N1776 H1783 0.984 . S
N1777 C1770 1.356 . S
N1777 H1780 0.984 . S
N1777 H1781 0.985 . S
H1778 N1773 0.984 . S
H1779 N1773 0.985 . S
H1780 N1777 0.984 . S
H1781 N1777 0.985 . S
H1782 N1776 0.984 . S
H1783 N1776 0.984 . S
H1784 N1772 0.984 . S
H1785 N1772 0.985 . S
C1786 C1787 1.363 . S
C1786 C1792 1.379 1_545 S
C1786 N1794 1.356 . S
C1787 C1786 1.363 . S
C1787 C1793 1.363 . S
C1788 C1789 1.363 . S
C1788 C1793 1.379 1_565 S
C1788 N1795 1.356 . S
C1789 C1788 1.363 . S
C1789 C1792 1.363 . S
N1790 C1792 1.356 . S
N1790 H1802 0.984 . S
N1790 H1803 0.985 . S
N1791 C1793 1.356 . S
N1791 H1796 0.984 . S
N1791 H1797 0.985 . S
C1792 C1786 1.379 1_565 S
C1792 C1789 1.363 . S
C1792 N1790 1.356 . S
C1793 C1787 1.363 . S
C1793 C1788 1.379 1_545 S
C1793 N1791 1.356 . S
N1794 C1786 1.356 . S
N1794 H1800 0.984 . S
N1794 H1801 0.984 . S
N1795 C1788 1.356 . S
N1795 H1798 0.984 . S
N1795 H1799 0.985 . S
H1796 N1791 0.984 . S
H1797 N1791 0.985 . S
H1798 N1795 0.984 . S
H1799 N1795 0.985 . S
H1800 N1794 0.984 . S
H1801 N1794 0.984 . S
H1802 N1790 0.984 . S
H1803 N1790 0.985 . S
C1804 C1805 1.363 1_554 S
C1804 C1810 1.379 . S
C1804 N1812 1.356 . S
C1805 C1804 1.363 1_556 S
C1805 C1811 1.363 . S
C1806 C1807 1.363 1_556 S
C1806 C1811 1.379 . S
C1806 N1813 1.356 . S
C1807 C1806 1.363 1_554 S
C1807 C1810 1.363 . S
N1808 C1810 1.356 . S
N1808 H1820 0.984 . S
N1808 H1821 0.985 . S
N1809 C1811 1.356 . S
N1809 H1814 0.984 . S
N1809 H1815 0.985 . S
C1810 C1804 1.379 . S
C1810 C1807 1.363 . S
C1810 N1808 1.356 . S
C1811 C1805 1.363 . S
C1811 C1806 1.379 . S
C1811 N1809 1.356 . S
N1812 C1804 1.356 . S
N1812 H1818 0.984 . S
N1812 H1819 0.984 1_554 S
N1813 C1806 1.356 . S
N1813 H1816 0.984 1_556 S
N1813 H1817 0.985 . S
H1814 N1809 0.984 . S
H1815 N1809 0.985 . S
H1816 N1813 0.984 1_554 S
H1817 N1813 0.985 . S
H1818 N1812 0.984 . S
H1819 N1812 0.984 1_556 S
H1820 N1808 0.984 . S
H1821 N1808 0.985 . S
C1822 C1823 1.363 . S
C1822 C1828 1.379 1_545 S
C1822 N1830 1.356 . S
C1823 C1822 1.363 . S
C1823 C1829 1.363 . S
C1824 C1825 1.363 . S
C1824 C1829 1.379 1_565 S
C1824 N1831 1.356 . S
C1825 C1824 1.363 . S
C1825 C1828 1.363 . S
N1826 C1828 1.356 . S
N1826 H1838 0.984 . S
N1826 H1839 0.985 . S
N1827 C1829 1.356 . S
N1827 H1832 0.984 . S
N1827 H1833 0.985 . S
C1828 C1822 1.379 1_565 S
C1828 C1825 1.363 . S
C1828 N1826 1.356 . S
C1829 C1823 1.363 . S
C1829 C1824 1.379 1_545 S
C1829 N1827 1.356 . S
N1830 C1822 1.356 . S
N1830 H1836 0.984 . S
N1830 H1837 0.984 . S
N1831 C1824 1.356 . S
N1831 H1834 0.984 . S
N1831 H1835 0.985 . S
H1832 N1827 0.984 . S
H1833 N1827 0.985 . S
H1834 N1831 0.984 . S
H1835 N1831 0.985 . S
H1836 N1830 0.984 . S
H1837 N1830 0.984 . S
H1838 N1826 0.984 . S
H1839 N1826 0.985 . S
C1840 C1841 1.363 . S
C1840 C1846 1.379 . S
C1840 N1848 1.356 . S
C1841 C1840 1.363 . S
C1841 C1847 1.363 1_544 S
C1842 C1843 1.363 1_565 S
C1842 C1847 1.379 . S
C1842 N1849 1.356 . S
C1843 C1842 1.363 1_545 S
C1843 C1846 1.363 1_556 S
N1844 C1846 1.356 . S
N1844 H1856 0.984 . S
N1844 H1857 0.985 1_554 S
N1845 C1847 1.356 . S
N1845 H1850 0.984 1_556 S
N1845 H1851 0.985 . S
C1846 C1840 1.379 . S
C1846 C1843 1.363 1_554 S
C1846 N1844 1.356 . S
C1847 C1841 1.363 1_566 S
C1847 C1842 1.379 . S
C1847 N1845 1.356 . S
N1848 C1840 1.356 . S
N1848 H1854 0.984 . S
N1848 H1855 0.984 . S
N1849 C1842 1.356 . S
N1849 H1852 0.984 . S
N1849 H1853 0.985 . S
H1850 N1845 0.984 1_554 S
H1851 N1845 0.985 . S
H1852 N1849 0.984 . S
H1853 N1849 0.985 . S
H1854 N1848 0.984 . S
H1855 N1848 0.984 . S
H1856 N1844 0.984 . S
H1857 N1844 0.985 1_556 S
C1858 C1859 1.363 . S
C1858 C1864 1.379 . S
C1858 N1866 1.356 . S
C1859 C1858 1.363 . S
C1859 C1865 1.363 . S
C1860 C1861 1.363 . S
C1860 C1865 1.379 . S
C1860 N1867 1.356 . S
C1861 C1860 1.363 . S
C1861 C1864 1.363 . S
N1862 C1864 1.356 . S
N1862 H1874 0.984 . S
N1862 H1875 0.985 . S
N1863 C1865 1.356 . S
N1863 H1868 0.984 . S
N1863 H1869 0.985 . S
C1864 C1858 1.379 . S
C1864 C1861 1.363 . S
C1864 N1862 1.356 . S
C1865 C1859 1.363 . S
C1865 C1860 1.379 . S
C1865 N1863 1.356 . S
N1866 C1858 1.356 . S
N1866 H1872 0.984 . S
N1866 H1873 0.984 . S
N1867 C1860 1.356 . S
N1867 H1870 0.984 . S
N1867 H1871 0.985 . S
H1868 N1863 0.984 . S
H1869 N1863 0.985 . S
H1870 N1867 0.984 . S
H1871 N1867 0.985 . S
H1872 N1866 0.984 . S
H1873 N1866 0.984 . S
H1874 N1862 0.984 . S
H1875 N1862 0.985 . S
C1876 C1877 1.363 . S
C1876 C1882 1.379 . S
C1876 N1884 1.356 . S
C1877 C1876 1.363 . S
C1877 C1883 1.363 . S
C1878 C1879 1.363 . S
C1878 C1883 1.379 . S
C1878 N1885 1.356 . S
C1879 C1878 1.363 . S
C1879 C1882 1.363 . S
N1880 C1882 1.356 . S
N1880 H1892 0.984 . S
N1880 H1893 0.985 . S
N1881 C1883 1.356 . S
N1881 H1886 0.984 . S
N1881 H1887 0.985 . S
C1882 C1876 1.379 . S
C1882 C1879 1.363 . S
C1882 N1880 1.356 . S
C1883 C1877 1.363 . S
C1883 C1878 1.379 . S
C1883 N1881 1.356 . S
N1884 C1876 1.356 . S
N1884 H1890 0.984 . S
N1884 H1891 0.984 . S
N1885 C1878 1.356 . S
N1885 H1888 0.984 . S
N1885 H1889 0.985 . S
H1886 N1881 0.984 . S
H1887 N1881 0.985 . S
H1888 N1885 0.984 . S
H1889 N1885 0.985 . S
H1890 N1884 0.984 . S
H1891 N1884 0.984 . S
H1892 N1880 0.984 . S
H1893 N1880 0.985 . S
C1894 C1895 1.363 . S
C1894 C1900 1.379 1_556 S
C1894 N1902 1.356 . S
C1895 C1894 1.363 . S
C1895 C1901 1.363 . S
C1896 C1897 1.363 . S
C1896 C1901 1.379 1_554 S
C1896 N1903 1.356 . S
C1897 C1896 1.363 . S
C1897 C1900 1.363 . S
N1898 C1900 1.356 . S
N1898 H1910 0.984 . S
N1898 H1911 0.985 . S
N1899 C1901 1.356 . S
N1899 H1904 0.984 . S
N1899 H1905 0.985 . S
C1900 C1894 1.379 1_554 S
C1900 C1897 1.363 . S
C1900 N1898 1.356 . S
C1901 C1895 1.363 . S
C1901 C1896 1.379 1_556 S
C1901 N1899 1.356 . S
N1902 C1894 1.356 . S
N1902 H1908 0.984 . S
N1902 H1909 0.984 . S
N1903 C1896 1.356 . S
N1903 H1906 0.984 . S
N1903 H1907 0.985 . S
H1904 N1899 0.984 . S
H1905 N1899 0.985 . S
H1906 N1903 0.984 . S
H1907 N1903 0.985 . S
H1908 N1902 0.984 . S
H1909 N1902 0.984 . S
H1910 N1898 0.984 . S
H1911 N1898 0.985 . S
C1912 C1913 1.363 . S
C1912 C1918 1.379 . S
C1912 N1920 1.356 . S
C1913 C1912 1.363 . S
C1913 C1919 1.363 . S
C1914 C1915 1.363 . S
C1914 C1919 1.379 . S
C1914 N1921 1.356 . S
C1915 C1914 1.363 . S
C1915 C1918 1.363 . S
N1916 C1918 1.356 . S
N1916 H1928 0.984 . S
N1916 H1929 0.985 . S
N1917 C1919 1.356 . S
N1917 H1922 0.984 . S
N1917 H1923 0.985 . S
C1918 C1912 1.379 . S
C1918 C1915 1.363 . S
C1918 N1916 1.356 . S
C1919 C1913 1.363 . S
C1919 C1914 1.379 . S
C1919 N1917 1.356 . S
N1920 C1912 1.356 . S
N1920 H1926 0.984 . S
N1920 H1927 0.984 . S
N1921 C1914 1.356 . S
N1921 H1924 0.984 . S
N1921 H1925 0.985 . S
H1922 N1917 0.984 . S
H1923 N1917 0.985 . S
H1924 N1921 0.984 . S
H1925 N1921 0.985 . S
H1926 N1920 0.984 . S
H1927 N1920 0.984 . S
H1928 N1916 0.984 . S
H1929 N1916 0.985 . S
C1930 C1931 1.363 . S
C1930 C1936 1.379 . S
C1930 N1938 1.356 . S
C1931 C1930 1.363 . S
C1931 C1937 1.363 . S
C1932 C1933 1.363 . S
C1932 C1937 1.379 . S
C1932 N1939 1.356 . S
C1933 C1932 1.363 . S
C1933 C1936 1.363 . S
N1934 C1936 1.356 . S
N1934 H1946 0.984 . S
N1934 H1947 0.985 . S
N1935 C1937 1.356 . S
N1935 H1940 0.984 . S
N1935 H1941 0.985 . S
C1936 C1930 1.379 . S
C1936 C1933 1.363 . S
C1936 N1934 1.356 . S
C1937 C1931 1.363 . S
C1937 C1932 1.379 . S
C1937 N1935 1.356 . S
N1938 C1930 1.356 . S
N1938 H1944 0.984 . S
N1938 H1945 0.984 . S
N1939 C1932 1.356 . S
N1939 H1942 0.984 . S
N1939 H1943 0.985 . S
H1940 N1935 0.984 . S
H1941 N1935 0.985 . S
H1942 N1939 0.984 . S
H1943 N1939 0.985 . S
H1944 N1938 0.984 . S
H1945 N1938 0.984 . S
H1946 N1934 0.984 . S
H1947 N1934 0.985 . S
C1948 C1949 1.363 . S
C1948 C1954 1.379 . S
C1948 N1956 1.356 . S
C1949 C1948 1.363 . S
C1949 C1955 1.363 1_655 S
C1950 C1951 1.363 1_455 S
C1950 C1955 1.379 . S
C1950 N1957 1.356 . S
C1951 C1950 1.363 1_655 S
C1951 C1954 1.363 . S
N1952 C1954 1.356 . S
N1952 H1964 0.984 . S
N1952 H1965 0.985 . S
N1953 C1955 1.356 . S
N1953 H1958 0.984 . S
N1953 H1959 0.985 . S
C1954 C1948 1.379 . S
C1954 C1951 1.363 . S
C1954 N1952 1.356 . S
C1955 C1949 1.363 1_455 S
C1955 C1950 1.379 . S
C1955 N1953 1.356 . S
N1956 C1948 1.356 . S
N1956 H1962 0.984 . S
N1956 H1963 0.984 . S
N1957 C1950 1.356 . S
N1957 H1960 0.984 . S
N1957 H1961 0.985 . S
H1958 N1953 0.984 . S
H1959 N1953 0.985 . S
H1960 N1957 0.984 . S
H1961 N1957 0.985 . S
H1962 N1956 0.984 . S
H1963 N1956 0.984 . S
H1964 N1952 0.984 . S
H1965 N1952 0.985 . S
C1966 C1967 1.363 1_545 S
C1966 C1972 1.379 . S
C1966 N1974 1.356 . S
C1967 C1966 1.363 1_565 S
C1967 C1973 1.363 . S
C1968 C1969 1.363 . S
C1968 C1973 1.379 . S
C1968 N1975 1.356 . S
C1969 C1968 1.363 . S
C1969 C1972 1.363 1_565 S
N1970 C1972 1.356 . S
N1970 H1982 0.984 . S
N1970 H1983 0.985 . S
N1971 C1973 1.356 . S
N1971 H1976 0.984 . S
N1971 H1977 0.985 . S
C1972 C1966 1.379 . S
C1972 C1969 1.363 1_545 S
C1972 N1970 1.356 . S
C1973 C1967 1.363 . S
C1973 C1968 1.379 . S
C1973 N1971 1.356 . S
N1974 C1966 1.356 . S
N1974 H1980 0.984 . S
N1974 H1981 0.984 . S
N1975 C1968 1.356 . S
N1975 H1978 0.984 . S
N1975 H1979 0.985 . S
H1976 N1971 0.984 . S
H1977 N1971 0.985 . S
H1978 N1975 0.984 . S
H1979 N1975 0.985 . S
H1980 N1974 0.984 . S
H1981 N1974 0.984 . S
H1982 N1970 0.984 . S
H1983 N1970 0.985 . S
C1409 C57 1.843 . S
C1411 C645 1.843 . S
C1427 C145 1.846 . S
C1429 C372 1.846 . S
C1445 C489 1.843 . S
C1447 C205 1.843 . S
C1463 C321 1.845 . S
C1465 C548 1.845 . S
C1481 C724 1.846 . S
C1483 C1113 1.846 . S
C1499 C849 1.843 . S
C1501 C1252 1.843 . S
C1517 C1025 1.845 . S
C1519 C900 1.845 . S
C1535 C1340 1.843 . S
C1537 C1201 1.843 . S
C1553 C29 1.349 . S
C1555 C585 1.336 . S
C1571 C636 1.353 . S
C1573 C137 1.353 . S
C1589 C233 1.348 . S
C1591 C409 1.334 . S
C1607 C497 1.362 . S
C1609 C284 1.367 . S
C1625 C49 1.349 . S
C1627 C1261 1.349 . S
C1643 C997 1.344 . S
C1645 C108 1.330 . S
C1661 C1193 1.349 . S
C1663 C196 1.349 . S
C1679 C1076 1.330 . S
C1681 C293 1.344 . S
C1697 C929 1.369 . S
C1699 C401 1.369 . S
C1715 C469 1.343 . S
C1717 C1377 1.343 . S
C1733 C577 1.369 . S
C1735 C753 1.369 . S
C1751 C665 1.343 . S
C1753 C812 1.343 . S
C1769 C20 1.357 . S
C1771 C381 1.354 . S
C1787 C733 1.354 . S
C1789 C1164 1.357 . S
C1805 C1085 1.359 . S
C1807 C821 1.359 . S
C1823 C1289 1.353 . S
C1825 C909 1.349 . S
C1841 C673 1.360 . S
C1843 C313 1.342 . S
C1859 C225 1.353 . S
C1861 C557 1.348 . S
C1877 C1017 1.342 . S
C1879 C1369 1.360 . S
C1895 C1173 1.349 . S
C1897 C937 1.336 . S
C1913 C1349 1.353 . S
C1915 C1105 1.353 . S
C1931 C1281 1.348 . S
C1933 C761 1.334 . S
C1949 C988 1.367 . S
C1951 C841 1.362 . S
C1967 C117 1.359 . S
C1969 C460 1.359 . S
