# Generated by pormake.
# Topology whz, (6)-cn, num edge types: 1
# Building blocks:
#     Node 0, Type 0, BuildingBlock: JUFBIX_clean_sbu_0, # of connection points: 6
#     Node 1, Type 0, BuildingBlock: JUFBIX_clean_sbu_0, # of connection points: 6
#     Node 2, Type 0, BuildingBlock: JUFBIX_clean_sbu_0, # of connection points: 6
#     Node 3, Type 0, BuildingBlock: JUFBIX_clean_sbu_0, # of connection points: 6
#     Node 4, Type 0, BuildingBlock: JUFBIX_clean_sbu_0, # of connection points: 6
#     Node 5, Type 0, BuildingBlock: JUFBIX_clean_sbu_0, # of connection points: 6
#     Node 6, Type 0, BuildingBlock: JUFBIX_clean_sbu_0, # of connection points: 6
#     Node 7, Type 0, BuildingBlock: JUFBIX_clean_sbu_0, # of connection points: 6
#     Node 8, Type 0, BuildingBlock: JUFBIX_clean_sbu_0, # of connection points: 6
#     Node 9, Type 0, BuildingBlock: JUFBIX_clean_sbu_0, # of connection points: 6
#     Node 10, Type 0, BuildingBlock: JUFBIX_clean_sbu_0, # of connection points: 6
#     Node 11, Type 0, BuildingBlock: JUFBIX_clean_sbu_0, # of connection points: 6
#     Node 12, Type 0, BuildingBlock: JUFBIX_clean_sbu_0, # of connection points: 6
#     Node 13, Type 0, BuildingBlock: JUFBIX_clean_sbu_0, # of connection points: 6
#     Node 14, Type 0, BuildingBlock: JUFBIX_clean_sbu_0, # of connection points: 6
#     Node 15, Type 0, BuildingBlock: JUFBIX_clean_sbu_0, # of connection points: 6
#     Edge 16, Type (0, 0), BuildingBlock: KIFKEQ_clean_linker_1, # of connection points: 2
#     Edge 17, Type (0, 0), BuildingBlock: KIFKEQ_clean_linker_1, # of connection points: 2
#     Edge 18, Type (0, 0), BuildingBlock: KIFKEQ_clean_linker_1, # of connection points: 2
#     Edge 19, Type (0, 0), BuildingBlock: KIFKEQ_clean_linker_1, # of connection points: 2
#     Edge 20, Type (0, 0), BuildingBlock: KIFKEQ_clean_linker_1, # of connection points: 2
#     Edge 21, Type (0, 0), BuildingBlock: KIFKEQ_clean_linker_1, # of connection points: 2
#     Edge 22, Type (0, 0), BuildingBlock: KIFKEQ_clean_linker_1, # of connection points: 2
#     Edge 23, Type (0, 0), BuildingBlock: KIFKEQ_clean_linker_1, # of connection points: 2
#     Edge 24, Type (0, 0), BuildingBlock: KIFKEQ_clean_linker_1, # of connection points: 2
#     Edge 25, Type (0, 0), BuildingBlock: KIFKEQ_clean_linker_1, # of connection points: 2
#     Edge 26, Type (0, 0), BuildingBlock: KIFKEQ_clean_linker_1, # of connection points: 2
#     Edge 27, Type (0, 0), BuildingBlock: KIFKEQ_clean_linker_1, # of connection points: 2
#     Edge 28, Type (0, 0), BuildingBlock: KIFKEQ_clean_linker_1, # of connection points: 2
#     Edge 29, Type (0, 0), BuildingBlock: KIFKEQ_clean_linker_1, # of connection points: 2
#     Edge 30, Type (0, 0), BuildingBlock: KIFKEQ_clean_linker_1, # of connection points: 2
#     Edge 31, Type (0, 0), BuildingBlock: KIFKEQ_clean_linker_1, # of connection points: 2
#     Edge 32, Type (0, 0), BuildingBlock: KIFKEQ_clean_linker_1, # of connection points: 2
#     Edge 33, Type (0, 0), BuildingBlock: KIFKEQ_clean_linker_1, # of connection points: 2
#     Edge 34, Type (0, 0), BuildingBlock: KIFKEQ_clean_linker_1, # of connection points: 2
#     Edge 35, Type (0, 0), BuildingBlock: KIFKEQ_clean_linker_1, # of connection points: 2
#     Edge 36, Type (0, 0), BuildingBlock: KIFKEQ_clean_linker_1, # of connection points: 2
#     Edge 37, Type (0, 0), BuildingBlock: KIFKEQ_clean_linker_1, # of connection points: 2
#     Edge 38, Type (0, 0), BuildingBlock: KIFKEQ_clean_linker_1, # of connection points: 2
#     Edge 39, Type (0, 0), BuildingBlock: KIFKEQ_clean_linker_1, # of connection points: 2
#     Edge 40, Type (0, 0), BuildingBlock: KIFKEQ_clean_linker_1, # of connection points: 2
#     Edge 41, Type (0, 0), BuildingBlock: KIFKEQ_clean_linker_1, # of connection points: 2
#     Edge 42, Type (0, 0), BuildingBlock: KIFKEQ_clean_linker_1, # of connection points: 2
#     Edge 43, Type (0, 0), BuildingBlock: KIFKEQ_clean_linker_1, # of connection points: 2
#     Edge 44, Type (0, 0), BuildingBlock: KIFKEQ_clean_linker_1, # of connection points: 2
#     Edge 45, Type (0, 0), BuildingBlock: KIFKEQ_clean_linker_1, # of connection points: 2
#     Edge 46, Type (0, 0), BuildingBlock: KIFKEQ_clean_linker_1, # of connection points: 2
#     Edge 47, Type (0, 0), BuildingBlock: KIFKEQ_clean_linker_1, # of connection points: 2
#     Edge 48, Type (0, 0), BuildingBlock: KIFKEQ_clean_linker_1, # of connection points: 2
#     Edge 49, Type (0, 0), BuildingBlock: KIFKEQ_clean_linker_1, # of connection points: 2
#     Edge 50, Type (0, 0), BuildingBlock: KIFKEQ_clean_linker_1, # of connection points: 2
#     Edge 51, Type (0, 0), BuildingBlock: KIFKEQ_clean_linker_1, # of connection points: 2
#     Edge 52, Type (0, 0), BuildingBlock: KIFKEQ_clean_linker_1, # of connection points: 2
#     Edge 53, Type (0, 0), BuildingBlock: KIFKEQ_clean_linker_1, # of connection points: 2
#     Edge 54, Type (0, 0), BuildingBlock: KIFKEQ_clean_linker_1, # of connection points: 2
#     Edge 55, Type (0, 0), BuildingBlock: KIFKEQ_clean_linker_1, # of connection points: 2
#     Edge 56, Type (0, 0), BuildingBlock: KIFKEQ_clean_linker_1, # of connection points: 2
#     Edge 57, Type (0, 0), BuildingBlock: KIFKEQ_clean_linker_1, # of connection points: 2
#     Edge 58, Type (0, 0), BuildingBlock: KIFKEQ_clean_linker_1, # of connection points: 2
#     Edge 59, Type (0, 0), BuildingBlock: KIFKEQ_clean_linker_1, # of connection points: 2
#     Edge 60, Type (0, 0), BuildingBlock: KIFKEQ_clean_linker_1, # of connection points: 2
#     Edge 61, Type (0, 0), BuildingBlock: KIFKEQ_clean_linker_1, # of connection points: 2
#     Edge 62, Type (0, 0), BuildingBlock: KIFKEQ_clean_linker_1, # of connection points: 2
#     Edge 63, Type (0, 0), BuildingBlock: KIFKEQ_clean_linker_1, # of connection points: 2
# Relax obj value: 0.408
# Max RMSD: 0.257
# Mean RMSD: 0.257
data_MOF--net-whz--node1-JUFBIX_clean_sbu_0--edge1-KIFKEQ_clean_linker_1
_symmetry_space_group_name_H-M    P1
_symmetry_Int_Tables_number       1
_symmetry_cell_setting            triclinic
loop_
_symmetry_equiv_pos_as_xyz
'x, y, z'
_cell_length_a     40.878466
_cell_length_b     40.908044
_cell_length_c     46.286088
_cell_angle_alpha  89.984687
_cell_angle_beta   89.985831
_cell_angle_gamma 90.090548
loop_
_atom_site_label
_atom_site_type_symbol
_atom_site_fract_x
_atom_site_fract_y
_atom_site_fract_z
_atom_type_partial_charge
Co0 Co 0.26839 0.14119 0.14178 0.0
C1 C 0.32544 0.10539 0.15098 0.0
Co2 Co 0.31329 0.16512 0.12548 0.0
C3 C 0.2012 0.11691 0.14731 0.0
C4 C 0.23307 0.10184 0.18154 0.0
N5 N 0.23228 0.11972 0.15702 0.0
N6 N 0.18297 0.09757 0.1647 0.0
C7 C 0.20295 0.08806 0.18617 0.0
H8 H 0.19238 0.12804 0.12758 0.0
H9 H 0.25439 0.09872 0.1951 0.0
C10 C 0.25595 0.20155 0.11875 0.0
N11 N 0.35019 0.18695 0.111 0.0
C12 C 0.37907 0.19444 0.12388 0.0
C13 C 0.3516 0.20192 0.08506 0.0
N14 N 0.39806 0.21389 0.10707 0.0
C15 C 0.38078 0.21849 0.08265 0.0
C16 C 0.28018 0.12779 0.08434 0.0
O17 O 0.24253 0.17797 0.13218 0.0
O18 O 0.2862 0.19993 0.1124 0.0
O19 O 0.30686 0.1432 0.08894 0.0
O20 O 0.26033 0.12343 0.10514 0.0
O21 O 0.34001 0.13 0.13997 0.0
H22 H 0.33219 0.20158 0.06918 0.0
H23 H 0.38548 0.18688 0.14556 0.0
O24 O 0.29446 0.10495 0.15161 0.0
O25 O 0.27612 0.15983 0.17817 0.0
O26 O 0.31786 0.18751 0.16118 0.0
C27 C 0.29805 0.18136 0.18165 0.0
H28 H 0.19616 0.07226 0.20397 0.0
H29 H 0.38862 0.233 0.06434 0.0
Co30 Co 0.63101 0.51858 0.39076 0.0
C31 C 0.6694 0.57322 0.40176 0.0
Co32 Co 0.60958 0.56478 0.37434 0.0
C33 C 0.6546 0.45148 0.39628 0.0
C34 C 0.65767 0.47895 0.43555 0.0
N35 N 0.64852 0.48131 0.40759 0.0
N36 N 0.66667 0.43069 0.41629 0.0
C37 C 0.66857 0.44787 0.44098 0.0
H38 H 0.64997 0.44501 0.37397 0.0
H39 H 0.65665 0.49868 0.45108 0.0
C40 C 0.57039 0.50984 0.36635 0.0
N41 N 0.59158 0.60279 0.35805 0.0
C42 C 0.58244 0.63172 0.36998 0.0
C43 C 0.58332 0.60552 0.32996 0.0
N44 N 0.56923 0.65234 0.3502 0.0
C45 C 0.56984 0.63571 0.32509 0.0
C46 C 0.6477 0.52863 0.33437 0.0
O47 O 0.59362 0.49497 0.37896 0.0
O48 O 0.57311 0.54023 0.36092 0.0
O49 O 0.63265 0.55552 0.33854 0.0
O50 O 0.65114 0.50896 0.35537 0.0
O51 O 0.64632 0.589 0.38951 0.0
H52 H 0.58622 0.58645 0.31399 0.0
H53 H 0.58538 0.63751 0.39264 0.0
O54 O 0.66794 0.54227 0.40287 0.0
O55 O 0.60977 0.52802 0.42586 0.0
O56 O 0.5861 0.57216 0.40916 0.0
C57 C 0.59001 0.55149 0.42935 0.0
H58 H 0.6779 0.43876 0.46134 0.0
H59 H 0.5603 0.64438 0.30467 0.0
Co60 Co 0.25568 0.88035 0.64184 0.0
C61 C 0.20124 0.91821 0.65288 0.0
Co62 Co 0.20994 0.85873 0.62473 0.0
C63 C 0.3236 0.90089 0.64681 0.0
C64 C 0.2963 0.90783 0.68581 0.0
N65 N 0.29335 0.89755 0.65822 0.0
N66 N 0.34525 0.91238 0.66638 0.0
C67 C 0.32817 0.91677 0.69091 0.0
H68 H 0.32976 0.89446 0.62478 0.0
H69 H 0.27654 0.90856 0.70134 0.0
C70 C 0.26489 0.82024 0.61635 0.0
N71 N 0.17173 0.84061 0.60872 0.0
C72 C 0.14296 0.83116 0.6209 0.0
C73 C 0.16865 0.83257 0.58061 0.0
N74 N 0.12211 0.81794 0.60128 0.0
C75 C 0.13844 0.81889 0.57599 0.0
C76 C 0.24539 0.89746 0.58536 0.0
O77 O 0.27899 0.84294 0.63031 0.0
O78 O 0.23471 0.82298 0.61005 0.0
O79 O 0.21829 0.88267 0.58939 0.0
O80 O 0.26528 0.90018 0.6063 0.0
O81 O 0.18566 0.8948 0.64087 0.0
H82 H 0.18751 0.83579 0.56446 0.0
H83 H 0.13748 0.83388 0.64365 0.0
O84 O 0.23225 0.91734 0.65373 0.0
O85 O 0.24627 0.85959 0.67705 0.0
O86 O 0.20346 0.83437 0.65925 0.0
C87 C 0.22344 0.83892 0.6799 0.0
H88 H 0.33795 0.92632 0.71095 0.0
H89 H 0.12957 0.80944 0.5556 0.0
Co90 Co 0.88964 0.5034 0.89227 0.0
C91 C 0.85345 0.44658 0.90175 0.0
Co92 Co 0.91431 0.45831 0.87737 0.0
C93 C 0.86698 0.57085 0.89797 0.0
C94 C 0.85205 0.53968 0.93272 0.0
N95 N 0.86882 0.53972 0.90764 0.0
N96 N 0.84977 0.59021 0.91618 0.0
C97 C 0.8403 0.57047 0.93798 0.0
H98 H 0.87839 0.57913 0.87818 0.0
H99 H 0.84855 0.51851 0.94639 0.0
C100 C 0.95111 0.51535 0.87049 0.0
N101 N 0.93542 0.42123 0.86226 0.0
C102 C 0.94334 0.39173 0.87384 0.0
C103 C 0.94673 0.41981 0.83491 0.0
N104 N 0.95865 0.37205 0.85448 0.0
C105 C 0.96074 0.38988 0.83008 0.0
C106 C 0.87679 0.49193 0.83539 0.0
O107 O 0.92687 0.52896 0.88275 0.0
O108 O 0.94989 0.48492 0.86486 0.0
O109 O 0.89264 0.46567 0.84041 0.0
O110 O 0.87188 0.51185 0.85594 0.0
O111 O 0.87835 0.43204 0.89123 0.0
H112 H 0.94511 0.43951 0.81938 0.0
H113 H 0.93765 0.38471 0.89583 0.0
O114 O 0.85297 0.47758 0.90215 0.0
O115 O 0.90804 0.49536 0.92835 0.0
O116 O 0.93618 0.45292 0.91376 0.0
C117 C 0.92909 0.47345 0.93348 0.0
H118 H 0.82541 0.57753 0.95626 0.0
H119 H 0.97214 0.382 0.81016 0.0
Co120 Co 0.70976 0.8587 0.88408 0.0
C121 C 0.764 0.81774 0.89104 0.0
Co122 Co 0.75682 0.87969 0.86947 0.0
C123 C 0.64238 0.8315 0.88665 0.0
C124 C 0.66795 0.83092 0.927 0.0
N125 N 0.6712 0.84018 0.89918 0.0
N126 N 0.62135 0.81766 0.90581 0.0
C127 C 0.6376 0.81736 0.93112 0.0
H128 H 0.63696 0.83522 0.864 0.0
H129 H 0.68678 0.83319 0.94329 0.0
C130 C 0.70299 0.92025 0.86001 0.0
N131 N 0.79426 0.89801 0.85362 0.0
C132 C 0.82549 0.89927 0.86313 0.0
C133 C 0.79469 0.91381 0.82803 0.0
N134 N 0.8453 0.91514 0.8443 0.0
C135 C 0.82581 0.92433 0.82229 0.0
C136 C 0.72354 0.84324 0.82795 0.0
O137 O 0.68612 0.89662 0.87019 0.0
O138 O 0.73392 0.91801 0.86004 0.0
O139 O 0.74707 0.86235 0.83341 0.0
O140 O 0.70261 0.83721 0.84762 0.0
O141 O 0.77954 0.84077 0.87865 0.0
H142 H 0.77353 0.91769 0.81442 0.0
H143 H 0.83347 0.88863 0.88334 0.0
O144 O 0.7337 0.82131 0.8966 0.0
O145 O 0.71902 0.87991 0.9212 0.0
O146 O 0.76702 0.89646 0.90575 0.0
C147 C 0.74672 0.89327 0.9263 0.0
H148 H 0.62854 0.80717 0.95118 0.0
H149 H 0.83325 0.93844 0.80363 0.0
Co150 Co 0.41754 0.46059 0.63515 0.0
C151 C 0.45483 0.51756 0.64456 0.0
Co152 Co 0.39308 0.50729 0.62433 0.0
C153 C 0.44647 0.39457 0.63439 0.0
C154 C 0.45577 0.42143 0.67324 0.0
N155 N 0.43968 0.42323 0.64785 0.0
N156 N 0.46656 0.3754 0.65035 0.0
C157 C 0.4723 0.39229 0.67478 0.0
H158 H 0.43793 0.38845 0.61293 0.0
H159 H 0.45622 0.44058 0.68935 0.0
C160 C 0.35649 0.45064 0.61203 0.0
N161 N 0.37148 0.54381 0.6102 0.0
C162 C 0.37048 0.57531 0.61895 0.0
C163 C 0.35413 0.54324 0.58538 0.0
N164 N 0.35331 0.59422 0.60034 0.0
C165 C 0.34289 0.57392 0.57939 0.0
C166 C 0.43126 0.47985 0.58021 0.0
O167 O 0.38091 0.43472 0.62178 0.0
O168 O 0.35712 0.48157 0.61305 0.0
O169 O 0.41185 0.50232 0.5878 0.0
O170 O 0.43752 0.45686 0.59787 0.0
O171 O 0.42981 0.53289 0.63548 0.0
H172 H 0.35036 0.52186 0.57203 0.0
H173 H 0.38279 0.58428 0.63808 0.0
O174 O 0.45368 0.4866 0.64689 0.0
O175 O 0.39799 0.46614 0.6733 0.0
O176 O 0.37473 0.51263 0.66105 0.0
C177 C 0.38101 0.49121 0.68012 0.0
H178 H 0.48756 0.38417 0.6925 0.0
H179 H 0.328 0.58067 0.56101 0.0
Co180 Co 0.81443 0.16453 0.38705 0.0
C181 C 0.76237 0.20715 0.39692 0.0
Co182 Co 0.76636 0.14696 0.37107 0.0
C183 C 0.88229 0.18942 0.39039 0.0
C184 C 0.85848 0.18547 0.43143 0.0
N185 N 0.85393 0.17961 0.40304 0.0
N186 N 0.90428 0.2008 0.40992 0.0
C187 C 0.88915 0.19822 0.43569 0.0
H188 H 0.88659 0.18856 0.36733 0.0
H189 H 0.84026 0.18177 0.44804 0.0
C190 C 0.81777 0.10481 0.35864 0.0
N191 N 0.72764 0.13252 0.35442 0.0
C192 C 0.69809 0.12658 0.36642 0.0
C193 C 0.72376 0.12543 0.32612 0.0
N194 N 0.67605 0.11658 0.34655 0.0
C195 C 0.69209 0.1159 0.32121 0.0
C196 C 0.80155 0.18621 0.33264 0.0
O197 O 0.83575 0.12621 0.37101 0.0
O198 O 0.78707 0.10911 0.35784 0.0
O199 O 0.77661 0.16841 0.33642 0.0
O200 O 0.82295 0.18822 0.35244 0.0
O201 O 0.74564 0.18532 0.38413 0.0
H202 H 0.74289 0.12663 0.31001 0.0
H203 H 0.6928 0.12953 0.38919 0.0
O204 O 0.79272 0.20243 0.40147 0.0
O205 O 0.80399 0.14134 0.42266 0.0
O206 O 0.756 0.12645 0.40604 0.0
C207 C 0.77618 0.12791 0.42683 0.0
H208 H 0.89905 0.2062 0.4562 0.0
H209 H 0.68187 0.10801 0.30079 0.0
Co210 Co 0.10877 0.56181 0.13781 0.0
C211 C 0.07092 0.50578 0.14762 0.0
Co212 Co 0.131 0.51535 0.12309 0.0
C213 C 0.07804 0.62737 0.13899 0.0
C214 C 0.07778 0.60248 0.17969 0.0
N215 N 0.08868 0.59973 0.15229 0.0
N216 N 0.06063 0.64678 0.15708 0.0
C217 C 0.06068 0.63111 0.18267 0.0
H218 H 0.08153 0.63235 0.11623 0.0
H219 H 0.08087 0.58411 0.19627 0.0
C220 C 0.16835 0.57084 0.11058 0.0
N221 N 0.15037 0.47822 0.10781 0.0
C222 C 0.15148 0.44703 0.1174 0.0
C223 C 0.16591 0.47765 0.0821 0.0
N224 N 0.16696 0.4271 0.09848 0.0
C225 C 0.17615 0.44648 0.07638 0.0
C226 C 0.08994 0.54491 0.08305 0.0
O227 O 0.14475 0.58696 0.12168 0.0
O228 O 0.1673 0.53988 0.11112 0.0
O229 O 0.11058 0.52233 0.08716 0.0
O230 O 0.08527 0.56614 0.10265 0.0
O231 O 0.09402 0.49099 0.13476 0.0
H232 H 0.16936 0.49863 0.06819 0.0
H233 H 0.14061 0.43906 0.13753 0.0
O234 O 0.07335 0.53632 0.15244 0.0
O235 O 0.13168 0.55554 0.1739 0.0
O236 O 0.15075 0.50806 0.15939 0.0
C237 C 0.14719 0.52919 0.17929 0.0
H238 H 0.04856 0.63949 0.2021 0.0
H239 H 0.18973 0.43882 0.05749 0.0
Co240 Co 0.76861 0.64467 0.6419 0.0
C241 C 0.82206 0.60524 0.65377 0.0
Co242 Co 0.81556 0.6652 0.62597 0.0
C243 C 0.70035 0.62469 0.64571 0.0
C244 C 0.72634 0.61893 0.68554 0.0
N245 N 0.73021 0.6284 0.6578 0.0
N246 N 0.67806 0.61374 0.66498 0.0
C247 C 0.69432 0.6101 0.69004 0.0
H248 H 0.69493 0.63037 0.62337 0.0
H249 H 0.74559 0.61854 0.70156 0.0
C250 C 0.76188 0.70539 0.61692 0.0
N251 N 0.85443 0.68241 0.61025 0.0
C252 C 0.88321 0.69172 0.62248 0.0
C253 C 0.8579 0.68991 0.58204 0.0
N254 N 0.90443 0.70425 0.60277 0.0
C255 C 0.88832 0.70304 0.5774 0.0
C256 C 0.77949 0.62742 0.58577 0.0
O257 O 0.74632 0.68259 0.62954 0.0
O258 O 0.79227 0.70201 0.61184 0.0
O259 O 0.80665 0.642 0.59016 0.0
O260 O 0.75934 0.62467 0.6065 0.0
O261 O 0.83851 0.62808 0.64177 0.0
H262 H 0.83915 0.68678 0.56579 0.0
H263 H 0.88846 0.68945 0.64531 0.0
O264 O 0.79108 0.60723 0.65456 0.0
O265 O 0.77766 0.66565 0.67709 0.0
O266 O 0.82242 0.68884 0.66085 0.0
C267 C 0.80129 0.68523 0.68077 0.0
H268 H 0.68391 0.60105 0.71001 0.0
H269 H 0.89752 0.71198 0.55693 0.0
Co270 Co 0.1297 0.01886 0.89282 0.0
C271 C 0.16719 0.07438 0.90261 0.0
Co272 Co 0.10752 0.06424 0.87556 0.0
C273 C 0.15406 0.95174 0.89989 0.0
C274 C 0.15938 0.98178 0.93743 0.0
N275 N 0.1483 0.98222 0.91001 0.0
N276 N 0.16832 0.93236 0.92006 0.0
C277 C 0.17139 0.95139 0.94369 0.0
H278 H 0.14837 0.94421 0.87806 0.0
H279 H 0.15886 1.00238 0.95206 0.0
C280 C 0.06956 1.00825 0.86804 0.0
N281 N 0.08864 0.10182 0.85921 0.0
C282 C 0.07946 0.1307 0.87123 0.0
C283 C 0.08013 0.10454 0.83118 0.0
N284 N 0.06595 0.15129 0.8516 0.0
C285 C 0.06643 0.13469 0.82645 0.0
C286 C 0.14617 0.02868 0.83622 0.0
O287 O 0.09246 0.99446 0.88203 0.0
O288 O 0.07203 0.03843 0.86158 0.0
O289 O 0.1312 0.05565 0.84017 0.0
O290 O 0.14924 1.00895 0.85726 0.0
O291 O 0.14338 0.08955 0.8909 0.0
H292 H 0.08321 0.08555 0.81516 0.0
H293 H 0.08274 0.13654 0.89385 0.0
O294 O 0.1665 0.04342 0.90382 0.0
O295 O 0.10917 0.02865 0.92805 0.0
O296 O 0.08345 0.071 0.91018 0.0
C297 C 0.08845 0.05135 0.93096 0.0
H298 H 0.1814 0.94407 0.96432 0.0
H299 H 0.0568 0.14343 0.80608 0.0
Co300 Co 0.75493 0.38043 0.14113 0.0
C301 C 0.69792 0.41706 0.15006 0.0
Co302 Co 0.70907 0.35558 0.12819 0.0
C303 C 0.82221 0.40502 0.14528 0.0
C304 C 0.79044 0.42165 0.17901 0.0
N305 N 0.79116 0.40266 0.15516 0.0
N306 N 0.84045 0.42517 0.16191 0.0
C307 C 0.82054 0.43562 0.18309 0.0
H308 H 0.83101 0.39291 0.126 0.0
H309 H 0.76919 0.42532 0.19257 0.0
C310 C 0.76602 0.318 0.12259 0.0
N311 N 0.67201 0.333 0.11483 0.0
C312 C 0.64264 0.32653 0.12733 0.0
C313 C 0.67132 0.31631 0.08969 0.0
N314 N 0.62413 0.30607 0.11104 0.0
C315 C 0.6422 0.29975 0.08739 0.0
C316 C 0.74249 0.38988 0.08385 0.0
O317 O 0.78072 0.34294 0.13264 0.0
O318 O 0.73542 0.31936 0.11789 0.0
O319 O 0.71609 0.37441 0.08974 0.0
O320 O 0.76246 0.39618 0.10408 0.0
O321 O 0.68288 0.3921 0.14024 0.0
H322 H 0.69121 0.31551 0.07429 0.0
H323 H 0.63551 0.3356 0.14837 0.0
O324 O 0.72893 0.41728 0.14992 0.0
O325 O 0.74788 0.36401 0.17807 0.0
O326 O 0.70409 0.33643 0.16581 0.0
C327 C 0.72545 0.34402 0.18469 0.0
H328 H 0.82738 0.45212 0.20036 0.0
H329 H 0.63488 0.28407 0.06968 0.0
Co330 Co 0.39568 1.00437 0.39043 0.0
C331 C 0.35694 0.95014 0.40174 0.0
Co332 Co 0.41676 0.95793 0.37413 0.0
C333 C 0.37356 0.07199 0.39596 0.0
C334 C 0.36945 0.04443 0.43513 0.0
N335 N 0.37871 0.04194 0.4072 0.0
N336 N 0.36197 0.09304 0.41598 0.0
C337 C 0.3594 0.07578 0.4406 0.0
H338 H 0.37854 0.07842 0.37369 0.0
H339 H 0.3699 0.02462 0.45061 0.0
C340 C 0.45618 0.01253 0.36548 0.0
N341 N 0.43435 0.91969 0.35789 0.0
C342 C 0.4436 0.89083 0.36992 0.0
C343 C 0.44219 0.91668 0.32972 0.0
N344 N 0.45647 0.87001 0.35014 0.0
C345 C 0.45553 0.88642 0.32492 0.0
C346 C 0.37865 0.99422 0.33429 0.0
O347 O 0.43319 0.02756 0.37829 0.0
O348 O 0.45333 0.98209 0.36036 0.0
O349 O 0.39357 0.96725 0.33845 0.0
O350 O 0.37546 0.01401 0.35522 0.0
O351 O 0.3799 0.93413 0.38954 0.0
H352 H 0.43914 0.93562 0.31366 0.0
H353 H 0.441 0.88525 0.39267 0.0
O354 O 0.35863 0.98108 0.40276 0.0
O355 O 0.41691 0.99485 0.42542 0.0
O356 O 0.44032 0.95048 0.4089 0.0
C357 C 0.43637 0.97118 0.42905 0.0
H358 H 0.35018 0.08505 0.46095 0.0
H359 H 0.46476 0.87756 0.30445 0.0
Co360 Co 0.2098 0.35564 0.38794 0.0
C361 C 0.26398 0.31589 0.39973 0.0
Co362 Co 0.25801 0.37733 0.37687 0.0
C363 C 0.14176 0.32937 0.38934 0.0
C364 C 0.16732 0.32746 0.42966 0.0
N365 N 0.1707 0.33733 0.40201 0.0
N366 N 0.12056 0.31548 0.40833 0.0
C367 C 0.13681 0.31434 0.43361 0.0
H368 H 0.13638 0.33362 0.36675 0.0
H369 H 0.18618 0.32899 0.44597 0.0
C370 C 0.20456 0.41629 0.36182 0.0
N371 N 0.29645 0.39484 0.36215 0.0
C372 C 0.32638 0.39887 0.37404 0.0
C373 C 0.29969 0.40548 0.33466 0.0
N374 N 0.34803 0.41096 0.35472 0.0
C375 C 0.33134 0.41513 0.33 0.0
C376 C 0.22781 0.3383 0.33414 0.0
O377 O 0.18704 0.39353 0.37274 0.0
O378 O 0.23545 0.41402 0.36315 0.0
O379 O 0.25155 0.35632 0.34153 0.0
O380 O 0.20422 0.33402 0.35166 0.0
O381 O 0.28058 0.33992 0.39025 0.0
H382 H 0.2802 0.40612 0.31887 0.0
H383 H 0.3323 0.39263 0.39616 0.0
O384 O 0.233 0.31825 0.40134 0.0
O385 O 0.21715 0.37695 0.42511 0.0
O386 O 0.26462 0.39777 0.41248 0.0
C387 C 0.24291 0.39303 0.43161 0.0
H388 H 0.1276 0.30383 0.45348 0.0
H389 H 0.34127 0.42504 0.31015 0.0
Co390 Co 0.91714 0.95756 0.13769 0.0
C391 C 0.95369 0.01353 0.14921 0.0
Co392 Co 0.89254 1.00387 0.12551 0.0
C393 C 0.94431 0.88994 0.13885 0.0
C394 C 0.94985 0.91698 0.17814 0.0
N395 N 0.93757 0.91933 0.15118 0.0
N396 N 0.95993 0.86947 0.15738 0.0
C397 C 0.96339 0.88668 0.182 0.0
H398 H 0.93757 0.88358 0.11695 0.0
H399 H 0.94922 0.9363 0.19408 0.0
C400 C 0.85674 0.94832 0.11115 0.0
N401 N 0.87308 0.04169 0.11175 0.0
C402 C 0.8705 0.07155 0.12401 0.0
C403 C 0.86069 0.04532 0.08491 0.0
N404 N 0.85755 0.09361 0.10558 0.0
C405 C 0.85132 0.07721 0.08101 0.0
C406 C 0.93311 0.97675 0.08317 0.0
O407 O 0.88105 0.93288 0.12182 0.0
O408 O 0.85635 0.97932 0.1124 0.0
O409 O 0.91269 0.99872 0.08977 0.0
O410 O 0.93956 0.95434 0.10139 0.0
O411 O 0.92947 0.02834 0.13806 0.0
H412 H 0.85917 0.02608 0.06893 0.0
H413 H 0.87882 0.07722 0.14564 0.0
O414 O 0.95266 0.98266 0.15212 0.0
O415 O 0.89506 0.96255 0.17461 0.0
O416 O 0.87277 1.00918 0.16167 0.0
C417 C 0.87797 0.98765 0.18087 0.0
H418 H 0.97534 0.87812 0.20144 0.0
H419 H 0.84057 0.08756 0.0617 0.0
Co420 Co 0.31357 0.66553 0.88504 0.0
C421 C 0.25887 0.70536 0.89549 0.0
Co422 Co 0.26551 0.6435 0.87374 0.0
C423 C 0.38141 0.69268 0.88597 0.0
C424 C 0.35559 0.69564 0.92613 0.0
N425 N 0.35242 0.68493 0.89871 0.0
N426 N 0.40244 0.70723 0.90472 0.0
C427 C 0.38603 0.70904 0.92988 0.0
H428 H 0.38702 0.68763 0.86356 0.0
H429 H 0.33668 0.69434 0.94242 0.0
C430 C 0.32 0.60444 0.86047 0.0
N431 N 0.22745 0.62457 0.85934 0.0
C432 C 0.19632 0.62355 0.86927 0.0
C433 C 0.2264 0.60884 0.83373 0.0
N434 N 0.17604 0.60795 0.85063 0.0
C435 C 0.19512 0.59862 0.8284 0.0
C436 C 0.29553 0.68114 0.8304 0.0
O437 O 0.3371 0.62794 0.87058 0.0
O438 O 0.28905 0.60627 0.86176 0.0
O439 O 0.27209 0.66264 0.83766 0.0
O440 O 0.31856 0.68649 0.8483 0.0
O441 O 0.24232 0.68156 0.88545 0.0
H442 H 0.24717 0.60517 0.81962 0.0
H443 H 0.18866 0.63445 0.88947 0.0
O444 O 0.28974 0.70253 0.89797 0.0
O445 O 0.3066 0.64483 0.92252 0.0
O446 O 0.25869 0.62477 0.9101 0.0
C447 C 0.28049 0.62938 0.92919 0.0
H448 H 0.39516 0.72002 0.94958 0.0
H449 H 0.1872 0.58485 0.80969 0.0
Co450 Co 0.60524 0.06442 0.63679 0.0
C451 C 0.56875 1.00791 0.6481 0.0
Co452 Co 0.63047 0.01793 0.62652 0.0
C453 C 0.57643 0.13056 0.6351 0.0
C454 C 0.56761 0.10453 0.67449 0.0
N455 N 0.58333 0.10215 0.64895 0.0
N456 N 0.55661 0.1501 0.65098 0.0
C457 C 0.55117 0.13373 0.67574 0.0
H458 H 0.58469 0.13623 0.61345 0.0
H459 H 0.56736 0.08573 0.69094 0.0
C460 C 0.66586 0.07423 0.61203 0.0
N461 N 0.65145 0.98073 0.61325 0.0
C462 C 0.65478 0.95059 0.62483 0.0
C463 C 0.66486 0.97845 0.58665 0.0
N464 N 0.66915 0.92974 0.60612 0.0
C465 C 0.67553 0.94716 0.58216 0.0
C466 C 0.59104 0.04376 0.58245 0.0
O467 O 0.64145 0.08969 0.62238 0.0
O468 O 0.6662 0.04326 0.61339 0.0
O469 O 0.61063 0.02162 0.59037 0.0
O470 O 0.58473 0.06714 0.59966 0.0
O471 O 0.59393 0.99265 0.63927 0.0
H472 H 0.66614 0.99821 0.57115 0.0
H473 H 0.64595 0.94381 0.64607 0.0
O474 O 0.56946 0.03891 0.64954 0.0
O475 O 0.62534 0.05999 0.67474 0.0
O476 O 0.64981 0.01401 0.66296 0.0
C477 C 0.64309 0.03557 0.68177 0.0
H478 H 0.53619 0.14225 0.69349 0.0
H479 H 0.68715 0.93782 0.56283 0.0
H480 H 0.27813 0.16835 0.23659 0.0
H481 H 0.30528 0.24672 0.17894 0.0
H482 H 0.25793 0.20814 0.27157 0.0
H483 H 0.28288 0.28629 0.21235 0.0
H484 H 0.26925 0.35115 0.29024 0.0
H485 H 0.28879 0.31318 0.25463 0.0
H486 H 0.21455 0.24357 0.28072 0.0
H487 H 0.19665 0.28127 0.31855 0.0
C488 C 0.28033 0.19419 0.23175 0.0
C489 C 0.29387 0.2046 0.20546 0.0
C490 C 0.26803 0.21698 0.2514 0.0
C491 C 0.26817 0.25056 0.24472 0.0
C492 C 0.28275 0.26081 0.21867 0.0
C493 C 0.2959 0.23812 0.19949 0.0
C494 C 0.25666 0.32794 0.28816 0.0
C495 C 0.23172 0.31899 0.30752 0.0
C496 C 0.26784 0.30606 0.26748 0.0
C497 C 0.25375 0.27487 0.26496 0.0
C498 C 0.22673 0.26698 0.28265 0.0
C499 C 0.21592 0.28881 0.30391 0.0
H500 H 0.41869 0.52363 0.53778 0.0
H501 H 0.48796 0.44931 0.56319 0.0
H502 H 0.45684 0.5443 0.50246 0.0
H503 H 0.52573 0.46864 0.52601 0.0
H504 H 0.60191 0.53233 0.48447 0.0
H505 H 0.56138 0.51268 0.51904 0.0
H506 H 0.48421 0.5394 0.45955 0.0
H507 H 0.52475 0.56096 0.42622 0.0
C508 C 0.44177 0.51098 0.53516 0.0
C509 C 0.4505 0.48509 0.55361 0.0
C510 C 0.46374 0.52286 0.51472 0.0
C511 C 0.49482 0.50871 0.51167 0.0
C512 C 0.50244 0.4809 0.52841 0.0
C513 C 0.48055 0.46931 0.54932 0.0
C514 C 0.57616 0.5351 0.47946 0.0
C515 C 0.56634 0.5487 0.45304 0.0
C516 C 0.55293 0.52311 0.49889 0.0
C517 C 0.51942 0.52369 0.49192 0.0
C518 C 0.50967 0.53877 0.46595 0.0
C519 C 0.53289 0.55149 0.44687 0.0
H520 H 0.21684 0.77353 0.67552 0.0
H521 H 0.24076 0.85054 0.73556 0.0
H522 H 0.23953 0.73335 0.70842 0.0
H523 H 0.26138 0.8102 0.76979 0.0
H524 H 0.3254 0.73882 0.81497 0.0
H525 H 0.30644 0.77636 0.77748 0.0
H526 H 0.23462 0.7048 0.75041 0.0
H527 H 0.25514 0.66701 0.78594 0.0
C528 C 0.2255 0.78162 0.69646 0.0
C529 C 0.22664 0.81498 0.70328 0.0
C530 C 0.23886 0.75862 0.7153 0.0
C531 C 0.2529 0.76844 0.74172 0.0
C532 C 0.25183 0.80175 0.74929 0.0
C533 C 0.23924 0.82483 0.73008 0.0
C534 C 0.30646 0.73081 0.80021 0.0
C535 C 0.29153 0.70017 0.8036 0.0
C536 C 0.29502 0.75254 0.77913 0.0
C537 C 0.26824 0.74408 0.76138 0.0
C538 C 0.25525 0.71238 0.76345 0.0
C539 C 0.26702 0.69061 0.78402 0.0
H540 H 0.91668 0.51337 0.97875 0.0
H541 H 0.98743 0.44361 0.94717 0.0
H542 H 0.95542 0.53311 0.01366 0.0
H543 H 0.02591 0.46155 0.98431 0.0
H544 H 0.10151 0.5251 0.02788 0.0
H545 H 0.06093 0.50468 0.99368 0.0
H546 H 0.98421 0.52811 0.05481 0.0
H547 H 0.02459 0.55091 0.08737 0.0
C548 C 0.94026 0.50138 0.97994 0.0
C549 C 0.94915 0.47724 0.95981 0.0
C550 C 0.96263 0.5127 1.00024 0.0
C551 C 0.9943 0.49951 1.00166 0.0
C552 C 1.00218 0.47317 0.98324 0.0
C553 C 0.97989 0.4623 0.96233 0.0
C554 C 0.07579 0.52694 0.03329 0.0
C555 C 0.06601 0.54031 0.05981 0.0
C556 C 0.05253 0.51449 0.01408 0.0
C557 C 0.01909 0.51414 0.02148 0.0
C558 C 1.00948 0.52839 0.04787 0.0
C559 C 0.03264 0.54176 0.06658 0.0
H560 H 0.75705 0.85946 0.77979 0.0
H561 H 0.69745 0.78267 0.81639 0.0
H562 H 0.77892 0.82187 0.74483 0.0
H563 H 0.71729 0.74505 0.77937 0.0
H564 H 0.787 0.67489 0.73732 0.0
H565 H 0.76389 0.71504 0.77045 0.0
H566 H 0.77687 0.79003 0.70532 0.0
H567 H 0.80254 0.75037 0.67379 0.0
C568 C 0.74757 0.8347 0.77956 0.0
C569 C 0.72599 0.82385 0.8012 0.0
C570 C 0.76016 0.81297 0.75933 0.0
C571 C 0.75074 0.77992 0.75958 0.0
C572 C 0.7262 0.76997 0.77921 0.0
C573 C 0.7141 0.79171 0.8 0.0
C574 C 0.78621 0.70034 0.73086 0.0
C575 C 0.79735 0.70983 0.70347 0.0
C576 C 0.77207 0.72324 0.74942 0.0
C577 C 0.7677 0.75589 0.74051 0.0
C578 C 0.78012 0.76542 0.71337 0.0
C579 C 0.79523 0.74273 0.69527 0.0
H580 H 0.69823 0.28486 0.19928 0.0
H581 H 0.76417 0.35976 0.23005 0.0
H582 H 0.71909 0.24752 0.236 0.0
H583 H 0.78671 0.32218 0.26487 0.0
H584 H 0.80762 0.25136 0.33829 0.0
H585 H 0.78407 0.29176 0.30601 0.0
H586 H 0.7657 0.21597 0.24272 0.0
H587 H 0.78704 0.17539 0.27636 0.0
C588 C 0.71659 0.29358 0.21429 0.0
C589 C 0.72981 0.32508 0.21153 0.0
C590 C 0.72919 0.27197 0.23492 0.0
C591 C 0.7555 0.28135 0.25284 0.0
C592 C 0.76658 0.31383 0.25159 0.0
C593 C 0.7536 0.3355 0.23147 0.0
C594 C 0.79969 0.24366 0.317 0.0
C595 C 0.79962 0.21048 0.30949 0.0
C596 C 0.78578 0.26676 0.29853 0.0
C597 C 0.77223 0.25718 0.27184 0.0
C598 C 0.77476 0.22419 0.26347 0.0
C599 C 0.78785 0.20101 0.28231 0.0
H600 H 0.91841 0.01723 0.03892 0.0
H601 H 0.99214 0.94928 0.06819 0.0
H602 H 0.95567 0.03882 1.00346 0.0
H603 H 0.02919 0.96928 0.03066 0.0
H604 H 0.10143 0.03549 0.98672 0.0
H605 H 0.06204 0.01483 0.02187 0.0
H606 H 0.98368 0.03408 0.9613 0.0
H607 H 0.02289 0.05688 0.9275 0.0
C608 C 0.94238 1.00611 0.03713 0.0
C609 C 0.95253 0.98187 0.0567 0.0
C610 C 0.96384 0.0185 0.01656 0.0
C611 C 0.99585 1.00638 0.01442 0.0
C612 C 1.00508 0.98002 0.03232 0.0
C613 C 0.98366 0.96799 0.05343 0.0
C614 C 0.07558 0.03647 0.98162 0.0
C615 C 0.06502 0.04834 0.95477 0.0
C616 C 0.05305 0.02386 1.00137 0.0
C617 C 0.01961 0.02201 0.9943 0.0
C618 C 1.00906 0.03538 0.96783 0.0
C619 C 0.03151 0.0488 0.94845 0.0
H620 H 0.42299 0.98888 0.4842 0.0
H621 H 0.50172 0.96222 0.42686 0.0
H622 H 0.46249 1.00856 0.51963 0.0
H623 H 0.54128 0.98378 0.46111 0.0
H624 H 0.60483 0.99992 0.54044 0.0
H625 H 0.56767 0.97872 0.50459 0.0
H626 H 0.49724 0.05336 0.52709 0.0
H627 H 0.53404 0.07327 0.56481 0.0
C628 C 0.44887 0.98652 0.47959 0.0
C629 C 0.45945 0.97354 0.45316 0.0
C630 C 0.47151 0.99852 0.49951 0.0
C631 C 0.50514 0.99856 0.49304 0.0
C632 C 0.51568 0.98395 0.46709 0.0
C633 C 0.49304 0.97123 0.4475 0.0
C634 C 0.5816 0.01222 0.53751 0.0
C635 C 0.57215 0.038 0.55578 0.0
C636 C 0.56023 1.00004 0.51675 0.0
C637 C 0.52904 0.01377 0.51324 0.0
C638 C 0.52066 0.04144 0.52986 0.0
C639 C 0.54197 0.05335 0.55108 0.0
H640 H 0.22941 0.05466 0.91408 0.0
H641 H 0.15979 0.13095 0.933 0.0
H642 H 0.26231 0.0713 0.95572 0.0
H643 H 0.19245 0.1471 0.97496 0.0
H644 H 0.21953 0.1082 0.06786 0.0
H645 H 0.19808 0.10277 0.01924 0.0
H646 H 0.29335 0.12424 0.98393 0.0
H647 H 0.31519 0.13087 0.03323 0.0
C648 C 0.22187 0.07585 0.92642 0.0
C649 C 0.19196 0.09145 0.92036 0.0
C650 C 0.2407 0.0853 0.95026 0.0
C651 C 0.22965 0.11016 0.96866 0.0
C652 C 0.20138 0.12776 0.96107 0.0
C653 C 0.18285 0.11871 0.93692 0.0
C654 C 0.23621 0.11157 0.0499 0.0
C655 C 0.2692 0.11993 0.05455 0.0
C656 C 0.22371 0.10883 0.02201 0.0
C657 C 0.24391 0.11377 0.99792 0.0
C658 C 0.27724 0.12073 1.00226 0.0
C659 C 0.28973 0.12423 0.0304 0.0
H660 H 0.64624 0.56354 0.28324 0.0
H661 H 0.66635 0.46757 0.31802 0.0
H662 H 0.65262 0.54165 0.23402 0.0
H663 H 0.67167 0.44601 0.26935 0.0
H664 H 0.64297 0.40838 0.18259 0.0
H665 H 0.62874 0.43985 0.22569 0.0
H666 H 0.70249 0.51135 0.20431 0.0
H667 H 0.71724 0.47962 0.16144 0.0
C668 C 0.65235 0.53798 0.28046 0.0
C669 C 0.65591 0.5174 0.30467 0.0
C670 C 0.65573 0.52545 0.25233 0.0
C671 C 0.6619 0.49201 0.24794 0.0
C672 C 0.66623 0.47174 0.27209 0.0
C673 C 0.66357 0.48428 0.30003 0.0
C674 C 0.65516 0.43154 0.18631 0.0
C675 C 0.68129 0.44145 0.16862 0.0
C676 C 0.64728 0.44935 0.2112 0.0
C677 C 0.66489 0.47775 0.21852 0.0
C678 C 0.68854 0.48958 0.19917 0.0
C679 C 0.69684 0.47146 0.17456 0.0
H680 H 0.21003 0.89778 0.53451 0.0
H681 H 0.30672 0.91547 0.56908 0.0
H682 H 0.23174 0.90501 0.4853 0.0
H683 H 0.32805 0.92159 0.5204 0.0
H684 H 0.36405 0.89394 0.4327 0.0
H685 H 0.3323 0.87899 0.47555 0.0
H686 H 0.26355 0.95609 0.45716 0.0
H687 H 0.29561 0.97155 0.41462 0.0
C688 C 0.23571 0.90353 0.53169 0.0
C689 C 0.25656 0.90618 0.5558 0.0
C690 C 0.24811 0.90738 0.50357 0.0
C691 C 0.28166 0.9131 0.49914 0.0
C692 C 0.30222 0.91651 0.52321 0.0
C693 C 0.28982 0.91339 0.55115 0.0
C694 C 0.34141 0.90677 0.43704 0.0
C695 C 0.33236 0.93396 0.42036 0.0
C696 C 0.32344 0.89844 0.46174 0.0
C697 C 0.29576 0.91671 0.46978 0.0
C698 C 0.28474 0.94162 0.45139 0.0
C699 C 0.30305 0.95036 0.42702 0.0
H700 H 0.87958 0.61006 0.68336 0.0
H701 H 0.79879 0.54456 0.6669 0.0
H702 H 0.89535 0.57676 0.72507 0.0
H703 H 0.81517 0.51096 0.70823 0.0
H704 H 0.88522 0.45817 0.78408 0.0
H705 H 0.87723 0.47962 0.73478 0.0
H706 H 0.84338 0.57094 0.77018 0.0
H707 H 0.85017 0.5498 0.81884 0.0
C708 C 0.86618 0.58773 0.68774 0.0
C709 C 0.83789 0.57998 0.67192 0.0
C710 C 0.8751 0.5688 0.7117 0.0
C711 C 0.85639 0.54141 0.71975 0.0
C712 C 0.83011 0.53179 0.70225 0.0
C713 C 0.8208 0.55104 0.67864 0.0
C714 C 0.87553 0.48259 0.78129 0.0
C715 C 0.86829 0.50218 0.8055 0.0
C716 C 0.87123 0.49488 0.75315 0.0
C717 C 0.86031 0.52708 0.74891 0.0
C718 C 0.85233 0.54621 0.77298 0.0
C719 C 0.856 0.53389 0.80086 0.0
H720 H 0.86468 0.89176 0.08053 0.0
H721 H 0.79558 0.96941 0.0965 0.0
H722 H 0.83335 0.87542 0.03788 0.0
H723 H 0.76406 0.95264 0.05408 0.0
H724 H 0.71079 0.89459 0.97717 0.0
H725 H 0.73216 0.90238 0.02653 0.0
H726 H 0.82944 0.91447 0.99203 0.0
H727 H 0.80854 0.90779 0.94341 0.0
C728 C 0.84208 0.90445 0.07572 0.0
C729 C 0.83275 0.932 0.09184 0.0
C730 C 0.82429 0.89527 0.05114 0.0
C731 C 0.7965 0.91304 0.0425 0.0
C732 C 0.7853 0.93847 0.06025 0.0
C733 C 0.80339 0.94802 0.08456 0.0
C734 C 0.73664 0.8993 0.98018 0.0
C735 C 0.75783 0.90075 0.95622 0.0
C736 C 0.74886 0.90354 0.00839 0.0
C737 C 0.78256 0.90838 0.01309 0.0
C738 C 0.80348 0.91014 0.98914 0.0
C739 C 0.79131 0.90667 0.96117 0.0
H740 H 0.28991 0.54902 0.84179 0.0
H741 H 0.38174 0.60112 0.83636 0.0
H742 H 0.30599 0.51497 0.80113 0.0
H743 H 0.39808 0.56612 0.79573 0.0
H744 H 0.32529 0.5198 0.69935 0.0
H745 H 0.3139 0.54012 0.74795 0.0
H746 H 0.40612 0.50161 0.77772 0.0
H747 H 0.41708 0.48014 0.72897 0.0
C748 C 0.31402 0.55257 0.83257 0.0
C749 C 0.33437 0.57818 0.8422 0.0
C750 C 0.32313 0.53303 0.80918 0.0
C751 C 0.35306 0.53816 0.79507 0.0
C752 C 0.37487 0.5616 0.80631 0.0
C753 C 0.36556 0.58156 0.82964 0.0
C754 C 0.34271 0.51487 0.71644 0.0
C755 C 0.37184 0.49804 0.71048 0.0
C756 C 0.33626 0.52656 0.74423 0.0
C757 C 0.35917 0.52248 0.76659 0.0
C758 C 0.38807 0.50505 0.76087 0.0
C759 C 0.39414 0.49251 0.73311 0.0
H760 H 0.81155 0.12616 0.47775 0.0
H761 H 0.71452 0.1109 0.44308 0.0
H762 H 0.78979 0.1184 0.52688 0.0
H763 H 0.69315 0.10416 0.49166 0.0
H764 H 0.65714 0.12945 0.57983 0.0
H765 H 0.68815 0.14436 0.53658 0.0
H766 H 0.75869 0.06903 0.5554 0.0
H767 H 0.72746 0.05367 0.59843 0.0
C768 C 0.78577 0.12086 0.48052 0.0
C769 C 0.76486 0.11907 0.45638 0.0
C770 C 0.77333 0.11666 0.50861 0.0
C771 C 0.73967 0.1114 0.51305 0.0
C772 C 0.71906 0.10887 0.48892 0.0
C773 C 0.73148 0.11237 0.46101 0.0
C774 C 0.67995 0.11694 0.57544 0.0
C775 C 0.68975 0.09029 0.59251 0.0
C776 C 0.69751 0.12524 0.5505 0.0
C777 C 0.72554 0.1075 0.54245 0.0
C778 C 0.73721 0.0831 0.56108 0.0
C779 C 0.71934 0.0744 0.58576 0.0
H780 H 0.23577 0.47041 0.34177 0.0
H781 H 0.14322 0.41948 0.33685 0.0
H782 H 0.22098 0.50285 0.29969 0.0
H783 H 0.12812 0.45316 0.2949 0.0
H784 H 0.11649 0.54656 0.22946 0.0
H785 H 0.12644 0.52437 0.27805 0.0
H786 H 0.20838 0.46955 0.24519 0.0
H787 H 0.19785 0.49066 0.19656 0.0
C788 C 0.21176 0.46684 0.33236 0.0
C789 C 0.19081 0.44199 0.3426 0.0
C790 C 0.20342 0.48546 0.30818 0.0
C791 C 0.17362 0.48026 0.29399 0.0
C792 C 0.15124 0.45763 0.30563 0.0
C793 C 0.15982 0.43851 0.32972 0.0
C794 C 0.13702 0.53029 0.23276 0.0
C795 C 0.15664 0.52059 0.20926 0.0
C796 C 0.14243 0.51737 0.26045 0.0
C797 C 0.16807 0.49525 0.26522 0.0
C798 C 0.18847 0.48663 0.24201 0.0
C799 C 0.18256 0.49882 0.21426 0.0
H800 H 0.81528 0.62722 0.53506 0.0
H801 H 0.71835 0.60938 0.56906 0.0
H802 H 0.79402 0.61965 0.48572 0.0
H803 H 0.69746 0.60295 0.5203 0.0
H804 H 0.66197 0.62971 0.43227 0.0
H805 H 0.69343 0.64519 0.47513 0.0
H806 H 0.76249 0.56811 0.45769 0.0
H807 H 0.73073 0.55212 0.41515 0.0
C808 C 0.78965 0.6214 0.5321 0.0
C809 C 0.76861 0.61878 0.55609 0.0
C810 C 0.77749 0.61734 0.5039 0.0
C811 C 0.74399 0.61146 0.49928 0.0
C812 C 0.72325 0.60815 0.52324 0.0
C813 C 0.7354 0.61146 0.55123 0.0
C814 C 0.68462 0.61699 0.43682 0.0
C815 C 0.69383 0.58965 0.42039 0.0
C816 C 0.70243 0.62563 0.46152 0.0
C817 C 0.73013 0.60755 0.46984 0.0
C818 C 0.7413 0.58247 0.45171 0.0
C819 C 0.72315 0.57341 0.42733 0.0
H820 H 0.1638 0.96736 0.81996 0.0
H821 H 0.14689 0.0641 0.78544 0.0
H822 H 0.17035 0.94618 0.7713 0.0
H823 H 0.1545 0.04256 0.73625 0.0
H824 H 0.22181 0.97978 0.66604 0.0
H825 H 0.20551 0.01146 0.70847 0.0
H826 H 0.12892 0.94162 0.72609 0.0
H827 H 0.14475 0.91019 0.68336 0.0
C828 C 0.16196 0.9843 0.80204 0.0
C829 C 0.15489 0.01753 0.80669 0.0
C830 C 0.16532 0.97199 0.77411 0.0
C831 C 0.16226 0.99262 0.75006 0.0
C832 C 0.1566 0.02613 0.7545 0.0
C833 C 0.15251 0.03844 0.78261 0.0
C834 C 0.20057 0.97198 0.67825 0.0
C835 C 0.1846 0.94245 0.67144 0.0
C836 C 0.19133 0.99009 0.70256 0.0
C837 C 0.16633 0.97867 0.72071 0.0
C838 C 0.14845 0.95078 0.71247 0.0
C839 C 0.15729 0.93298 0.68785 0.0
H840 H 0.70623 0.38774 0.03307 0.0
H841 H 0.80361 0.40552 0.06603 0.0
H842 H 0.72716 0.39491 0.98338 0.0
H843 H 0.82405 0.41145 0.01724 0.0
H844 H 0.86046 0.38839 0.93006 0.0
H845 H 0.828 0.37028 0.97148 0.0
H846 H 0.75884 0.44782 0.95611 0.0
H847 H 0.79147 0.46635 0.91492 0.0
C848 C 0.73189 0.39323 0.0298 0.0
C849 C 0.7531 0.39631 0.05362 0.0
C850 C 0.74386 0.3971 1.00144 0.0
C851 C 0.77735 0.40307 0.99654 0.0
C852 C 0.79828 0.40623 0.02034 0.0
C853 C 0.78634 0.4032 0.04839 0.0
C854 C 0.8376 0.40071 0.93467 0.0
C855 C 0.8287 0.42897 0.91933 0.0
C856 C 0.81913 0.39047 0.95852 0.0
C857 C 0.79111 0.40789 0.96713 0.0
C858 C 0.78021 0.43388 0.94987 0.0
C859 C 0.79896 0.44446 0.9263 0.0
H860 H 0.38067 0.11507 0.18284 0.0
H861 H 0.30751 0.04253 0.16224 0.0
H862 H 0.39618 0.08355 0.22561 0.0
H863 H 0.32348 1.01079 0.20474 0.0
H864 H 0.38025 0.95932 0.2832 0.0
H865 H 0.37363 0.98124 0.23401 0.0
H866 H 0.35394 0.0767 0.26945 0.0
H867 H 0.35952 0.05514 0.31806 0.0
C868 C 0.36902 0.09164 0.18661 0.0
C869 C 0.3428 0.08133 0.16924 0.0
C870 C 0.37764 0.07379 0.21128 0.0
C871 C 0.36064 0.04503 0.21865 0.0
C872 C 0.33696 0.03285 0.19954 0.0
C873 C 0.32794 0.05098 0.17516 0.0
C874 C 0.37397 0.98485 0.28044 0.0
C875 C 0.3703 1.00539 0.30464 0.0
C876 C 0.37047 0.99739 0.25234 0.0
C877 C 0.36406 0.0308 0.24801 0.0
C878 C 0.35962 0.05101 0.27216 0.0
C879 C 0.36241 0.03847 0.30006 0.0
H880 H 0.2983 0.47739 0.59669 0.0
H881 H 0.35657 0.39028 0.58539 0.0
H882 H 0.2646 0.46185 0.55555 0.0
H883 H 0.32175 0.37433 0.54443 0.0
H884 H 0.22816 0.35838 0.48039 0.0
H885 H 0.25009 0.36746 0.52926 0.0
H886 H 0.2973 0.4557 0.49977 0.0
H887 H 0.27655 0.4461 0.45088 0.0
C888 C 0.30321 0.45427 0.58615 0.0
C889 C 0.33046 0.43526 0.59419 0.0
C890 C 0.28387 0.44549 0.56253 0.0
C891 C 0.2908 0.41712 0.54677 0.0
C892 C 0.31589 0.39629 0.55642 0.0
C893 C 0.33568 0.40533 0.57995 0.0
C894 C 0.24258 0.3801 0.48456 0.0
C895 C 0.25037 0.40177 0.46193 0.0
C896 C 0.25537 0.38504 0.51238 0.0
C897 C 0.27536 0.4122 0.51812 0.0
C898 C 0.28183 0.43462 0.49584 0.0
C899 C 0.26985 0.42923 0.46795 0.0
H900 H 0.9123 0.97514 0.23029 0.0
H901 H 0.82277 0.01817 0.19895 0.0
H902 H 0.90116 0.99728 0.27873 0.0
H903 H 0.81119 0.03923 0.24726 0.0
H904 H 0.78572 0.0506 0.3402 0.0
H905 H 0.80123 0.0151 0.30035 0.0
H906 H 0.89561 0.06207 0.29604 0.0
H907 H 0.87989 0.09846 0.33593 0.0
C908 C 0.88975 0.98837 0.234 0.0
C909 C 0.86817 0.99468 0.21098 0.0
C910 C 0.8836 1.0013 0.26158 0.0
C911 C 0.85534 0.01991 0.26669 0.0
C912 C 0.83304 0.02473 0.24397 0.0
C913 C 0.83958 0.01262 0.21636 0.0
C914 C 0.81017 0.05289 0.33138 0.0
C915 C 0.83142 0.07773 0.34102 0.0
C916 C 0.81896 0.03253 0.30849 0.0
C917 C 0.84939 0.03614 0.2949 0.0
C918 C 0.87199 0.05875 0.30625 0.0
C919 C 0.86304 0.0795 0.32914 0.0
H920 H 0.22582 0.54375 0.0938 0.0
H921 H 0.16814 0.63153 0.08441 0.0
H922 H 0.25899 0.55969 0.05244 0.0
H923 H 0.20242 0.64787 0.04315 0.0
H924 H 0.29516 0.66411 0.97799 0.0
H925 H 0.2734 0.65481 0.02694 0.0
H926 H 0.2263 0.56657 0.99738 0.0
H927 H 0.24688 0.57637 0.94848 0.0
C928 C 0.22092 0.56707 0.08359 0.0
C929 C 0.19401 0.5862 0.09228 0.0
C930 C 0.23997 0.57609 0.05985 0.0
C931 C 0.23305 0.60479 0.04455 0.0
C932 C 0.20828 0.62565 0.05478 0.0
C933 C 0.18879 0.61639 0.07847 0.0
C934 C 0.28077 0.64236 0.98217 0.0
C935 C 0.27299 0.62072 0.95953 0.0
C936 C 0.26807 0.6373 0.01003 0.0
C937 C 0.24819 0.61005 0.01579 0.0
C938 C 0.24167 0.58772 0.99346 0.0
C939 C 0.25355 0.59322 0.96556 0.0
H940 H 0.6061 0.04606 0.73008 0.0
H941 H 0.69928 1.0085 0.70168 0.0
H942 H 0.6165 0.0245 0.77887 0.0
H943 H 0.7101 0.9881 0.75037 0.0
H944 H 0.64142 0.92365 0.8358 0.0
H945 H 0.62519 0.9598 0.79594 0.0
H946 H 0.7162 0.0124 0.80409 0.0
H947 H 0.73215 0.97715 0.84401 0.0
C948 C 0.62924 0.03421 0.73453 0.0
C949 C 0.65209 0.02923 0.71221 0.0
C950 C 0.63499 0.02161 0.76231 0.0
C951 C 0.66409 1.00469 0.76836 0.0
C952 C 0.68758 1.00129 0.74638 0.0
C953 C 0.68146 0.01303 0.71854 0.0
C954 C 0.6573 0.9438 0.82992 0.0
C955 C 0.68823 0.94723 0.84291 0.0
C956 C 0.64807 0.96441 0.80702 0.0
C957 C 0.66971 0.98855 0.7967 0.0
C958 C 0.69922 0.9938 0.81143 0.0
C959 C 0.70825 0.97359 0.83438 0.0
H960 H 0.41919 0.27438 0.09288 0.0
H961 H 0.44861 0.18558 0.1357 0.0
H962 H 0.47407 0.29695 0.0994 0.0
H963 H 0.50396 0.20808 0.14207 0.0
H964 H 0.60455 0.24404 0.10167 0.0
H965 H 0.54917 0.22203 0.10597 0.0
H966 H 0.51545 0.3153 0.13766 0.0
H967 H 0.57138 0.33721 0.13359 0.0
C968 C 0.4374 0.25978 0.1039 0.0
C969 C 0.42965 0.22809 0.11358 0.0
C970 C 0.46877 0.27283 0.10786 0.0
C971 C 0.49346 0.25434 0.12122 0.0
C972 C 0.48552 0.22291 0.1316 0.0
C973 C 0.45384 0.21007 0.1281 0.0
C974 C 0.58538 0.2597 0.10993 0.0
C975 C 0.59224 0.2924 0.11715 0.0
C976 C 0.55369 0.24703 0.11259 0.0
C977 C 0.52781 0.2669 0.12208 0.0
C978 C 0.53482 0.2994 0.13015 0.0
C979 C 0.56681 0.31191 0.12802 0.0
H980 H 0.53853 0.6773 0.39783 0.0
H981 H 0.56958 0.70142 0.31133 0.0
H982 H 0.51003 0.73017 0.40112 0.0
H983 H 0.54151 0.75353 0.3145 0.0
H984 H 0.45541 0.82058 0.31166 0.0
H985 H 0.48353 0.76848 0.31485 0.0
H986 H 0.51649 0.79262 0.40084 0.0
H987 H 0.48795 0.84547 0.39754 0.0
C988 C 0.5397 0.69402 0.37973 0.0
C989 C 0.55585 0.68483 0.3541 0.0
C990 C 0.52334 0.72427 0.38158 0.0
C991 C 0.52282 0.74583 0.35782 0.0
C992 C 0.54052 0.73721 0.33292 0.0
C993 C 0.55671 0.70726 0.3311 0.0
C994 C 0.46862 0.8149 0.3313 0.0
C995 C 0.46988 0.83754 0.35412 0.0
C996 C 0.48483 0.78497 0.33313 0.0
C997 C 0.50296 0.77657 0.35784 0.0
C998 C 0.50284 0.79834 0.38144 0.0
C999 C 0.48646 0.82858 0.37959 0.0
H1000 H 0.92867 0.73684 0.64976 0.0
H1001 H 0.95436 0.70197 0.56481 0.0
H1002 H 0.98162 0.76554 0.6528 0.0
H1003 H 1.00648 0.7303 0.56771 0.0
H1004 H 0.07276 0.81722 0.56259 0.0
H1005 H 0.02079 0.78878 0.56632 0.0
H1006 H 0.04462 0.75899 0.65324 0.0
H1007 H 0.09744 0.78773 0.64937 0.0
C1008 C 0.94575 0.73485 0.63198 0.0
C1009 C 0.93698 0.71758 0.60681 0.0
C1010 C 0.97604 0.75134 0.63368 0.0
C1011 C 0.99804 0.75087 0.61021 0.0
C1012 C 0.98984 0.73202 0.58587 0.0
C1013 C 0.95988 0.7157 0.5842 0.0
C1014 C 0.0671 0.80461 0.58253 0.0
C1015 C 0.08968 0.80429 0.60545 0.0
C1016 C 0.03721 0.78824 0.58468 0.0
C1017 C 0.02873 0.77093 0.60985 0.0
C1018 C 0.05041 0.77199 0.63351 0.0
C1019 C 0.08064 0.7885 0.63132 0.0
H1020 H 0.95776 0.32449 0.81436 0.0
H1021 H 0.98706 0.3445 0.90205 0.0
H1022 H 0.984 0.27137 0.81662 0.0
H1023 H 0.01412 0.29075 0.90438 0.0
H1024 H 0.03544 0.17621 0.89932 0.0
H1025 H 1.00791 0.22953 0.9031 0.0
H1026 H 0.03994 0.25334 0.81671 0.0
H1027 H 0.06677 0.20064 0.81299 0.0
C1028 C 0.96986 0.31746 0.83421 0.0
C1029 C 0.97073 0.33899 0.85785 0.0
C1030 C 0.98509 0.28697 0.83549 0.0
C1031 C 1.00199 0.27692 0.86043 0.0
C1032 C 1.00144 0.29768 0.88478 0.0
C1033 C 0.98591 0.32843 0.8835 0.0
C1034 C 0.03687 0.1931 0.88135 0.0
C1035 C 0.05284 0.18388 0.85564 0.0
C1036 C 0.02107 0.22363 0.88348 0.0
C1037 C 0.02099 0.24556 0.85996 0.0
C1038 C 0.03849 0.23681 0.83495 0.0
C1039 C 0.05403 0.20652 0.83281 0.0
H1040 H 0.59693 0.78755 0.8576 0.0
H1041 H 0.57154 0.81812 0.9439 0.0
H1042 H 0.54387 0.75915 0.85353 0.0
H1043 H 0.51931 0.79018 0.93996 0.0
H1044 H 0.45226 0.70445 0.9425 0.0
H1045 H 0.50488 0.73185 0.93921 0.0
H1046 H 0.48075 0.76572 0.8535 0.0
H1047 H 0.42736 0.73773 0.85692 0.0
C1048 C 0.57988 0.78866 0.87547 0.0
C1049 C 0.58876 0.80461 0.90129 0.0
C1050 C 0.54954 0.77235 0.87318 0.0
C1051 C 0.5276 0.77169 0.89668 0.0
C1052 C 0.53591 0.78929 0.92173 0.0
C1053 C 0.56593 0.80541 0.92399 0.0
C1054 C 0.45816 0.71755 0.92284 0.0
C1055 C 0.43536 0.71933 0.90018 0.0
C1056 C 0.48835 0.73339 0.92097 0.0
C1057 C 0.49683 0.75172 0.89637 0.0
C1058 C 0.47495 0.75193 0.87281 0.0
C1059 C 0.44444 0.73586 0.87471 0.0
H1060 H 0.528 0.35492 0.66109 0.0
H1061 H 0.43617 0.32449 0.62401 0.0
H1062 H 0.54976 0.2998 0.65493 0.0
H1063 H 0.45786 0.26886 0.61796 0.0
H1064 H 0.49517 0.17057 0.66156 0.0
H1065 H 0.47339 0.22565 0.65515 0.0
H1066 H 0.56524 0.25638 0.61789 0.0
H1067 H 0.58693 0.20076 0.62418 0.0
C1068 C 0.51261 0.33644 0.6513 0.0
C1069 C 0.4803 0.34391 0.64323 0.0
C1070 C 0.52516 0.30493 0.64754 0.0
C1071 C 0.50555 0.27989 0.63602 0.0
C1072 C 0.47354 0.2876 0.62701 0.0
C1073 C 0.46116 0.31941 0.6303 0.0
C1074 C 0.51053 0.18899 0.65162 0.0
C1075 C 0.54282 0.18147 0.64355 0.0
C1076 C 0.49798 0.22048 0.64773 0.0
C1077 C 0.51758 0.24545 0.63608 0.0
C1078 C 0.54957 0.23768 0.62704 0.0
C1079 C 0.56195 0.20588 0.63046 0.0
H1080 H 0.09607 0.28494 0.36044 0.0
H1081 H 0.07071 0.31738 0.44619 0.0
H1082 H 0.04311 0.25618 0.35698 0.0
H1083 H 0.01863 0.28894 0.44292 0.0
H1084 H 0.9554 0.19944 0.44674 0.0
H1085 H 1.00685 0.22878 0.44259 0.0
H1086 H 0.97886 0.2635 0.35813 0.0
H1087 H 0.92649 0.23404 0.36246 0.0
C1088 C 0.07899 0.28646 0.37826 0.0
C1089 C 0.08783 0.30295 0.4038 0.0
C1090 C 0.04875 0.26994 0.37634 0.0
C1091 C 0.02698 0.26965 0.39995 0.0
C1092 C 0.03515 0.28791 0.42463 0.0
C1093 C 0.06502 0.30429 0.4265 0.0
C1094 C 0.96003 0.2133 0.42725 0.0
C1095 C 0.93642 0.21484 0.40521 0.0
C1096 C 0.98962 0.23014 0.42485 0.0
C1097 C 0.99673 0.24907 0.40029 0.0
C1098 C 0.97406 0.24922 0.37737 0.0
C1099 C 0.94412 0.23229 0.37983 0.0
H1100 H 0.08036 0.6981 0.12377 0.0
H1101 H 1.00081 0.66306 0.17648 0.0
H1102 H 0.05331 0.75168 0.11988 0.0
H1103 H 0.9735 0.71557 0.17214 0.0
H1104 H 0.96113 0.82183 0.19749 0.0
H1105 H 0.98403 0.76754 0.19319 0.0
H1106 H 1.00605 0.78563 0.10331 0.0
H1107 H 0.98354 0.84124 0.10807 0.0
C1108 C 0.05681 0.70166 0.13398 0.0
C1109 C 0.043 0.67661 0.15089 0.0
C1110 C 0.04124 0.73229 0.13174 0.0
C1111 C 1.01146 0.7383 0.1462 0.0
C1112 C 0.99681 0.71232 0.1614 0.0
C1113 C 0.01242 0.6821 0.16385 0.0
C1114 C 0.97079 0.81437 0.17675 0.0
C1115 C 0.97065 0.83606 0.1532 0.0
C1116 C 0.98368 0.78294 0.17416 0.0
C1117 C 0.99684 0.77188 0.14784 0.0
C1118 C 0.9963 0.79333 0.12396 0.0
C1119 C 0.98311 0.82505 0.12657 0.0
H1120 H 0.27212 0.25025 0.08129 0.0
H1121 H 0.1992 0.222 0.14417 0.0
H1122 H 0.24575 0.30331 0.07601 0.0
H1123 H 0.17287 0.2754 0.13894 0.0
H1124 H 0.1731 0.39148 0.14778 0.0
H1125 H 0.19006 0.33426 0.15141 0.0
H1126 H 0.19258 0.32746 0.05837 0.0
H1127 H 0.17512 0.3841 0.05469 0.0
C1128 C 0.2502 0.25523 0.09369 0.0
C1129 C 0.23768 0.23197 0.11308 0.0
C1130 C 0.23505 0.28556 0.09061 0.0
C1131 C 0.2073 0.29344 0.10711 0.0
C1132 C 0.19434 0.26997 0.1261 0.0
C1133 C 0.20925 0.23937 0.12888 0.0
C1134 C 0.17663 0.37758 0.12814 0.0
C1135 C 0.17335 0.39256 0.10096 0.0
C1136 C 0.18634 0.34484 0.13021 0.0
C1137 C 0.19301 0.32662 0.10514 0.0
C1138 C 0.18818 0.34114 0.07804 0.0
C1139 C 0.17833 0.37365 0.07597 0.0
H1140 H 0.39824 0.39655 0.31966 0.0
H1141 H 0.37309 0.44571 0.39894 0.0
H1142 H 0.45406 0.41831 0.32271 0.0
H1143 H 0.42882 0.46823 0.40176 0.0
H1144 H 0.51029 0.53785 0.36377 0.0
H1145 H 0.45729 0.5102 0.36355 0.0
H1146 H 0.50573 0.41665 0.36002 0.0
H1147 H 0.55908 0.44425 0.36097 0.0
C1148 C 0.40498 0.41162 0.33795 0.0
C1149 C 0.38166 0.41957 0.35908 0.0
C1150 C 0.43675 0.42397 0.33971 0.0
C1151 C 0.44544 0.44505 0.36232 0.0
C1152 C 0.42248 0.4521 0.38405 0.0
C1153 C 0.39086 0.4391 0.38261 0.0
C1154 C 0.50968 0.5114 0.36253 0.0
C1155 C 0.53877 0.49316 0.36216 0.0
C1156 C 0.47939 0.49564 0.3628 0.0
C1157 C 0.47764 0.4614 0.36211 0.0
C1158 C 0.50662 0.44311 0.36069 0.0
C1159 C 0.537 0.45887 0.36108 0.0
H1160 H 0.32295 0.80056 0.63943 0.0
H1161 H 0.24598 0.76992 0.58134 0.0
H1162 H 0.34863 0.74697 0.63495 0.0
H1163 H 0.27188 0.71643 0.5768 0.0
H1164 H 0.34275 0.63503 0.55539 0.0
H1165 H 0.32461 0.69154 0.55768 0.0
H1166 H 0.33162 0.68905 0.65071 0.0
H1167 H 0.34921 0.63188 0.64851 0.0
C1168 C 0.31181 0.78259 0.62532 0.0
C1169 C 0.28244 0.78943 0.61068 0.0
C1170 C 0.3264 0.75187 0.62299 0.0
C1171 C 0.31217 0.72763 0.60564 0.0
C1172 C 0.28348 0.73483 0.59017 0.0
C1173 C 0.26863 0.76539 0.59279 0.0
C1174 C 0.34036 0.64641 0.57638 0.0
C1175 C 0.34677 0.62875 0.60184 0.0
C1176 C 0.3301 0.67881 0.57763 0.0
C1177 C 0.32636 0.69445 0.60435 0.0
C1178 C 0.33445 0.67751 0.6298 0.0
C1179 C 0.34454 0.64486 0.62856 0.0
H1180 H 0.97064 0.57253 0.89579 0.0
H1181 H 1.00103 0.4992 0.83426 0.0
H1182 H 0.02391 0.59957 0.89111 0.0
H1183 H 0.05391 0.52638 0.82942 0.0
H1184 H 0.13262 0.59962 0.80717 0.0
H1185 H 0.07636 0.58083 0.81115 0.0
H1186 H 0.08377 0.58319 0.90413 0.0
H1187 H 0.14079 0.60138 0.90021 0.0
C1188 C 0.98847 0.56251 0.88093 0.0
C1189 C 0.98167 0.53379 0.86531 0.0
C1190 C 0.019 0.57783 0.87847 0.0
C1191 C 0.04298 0.56505 0.85994 0.0
C1192 C 0.03576 0.53692 0.84369 0.0
C1193 C 1.00553 0.52133 0.8465 0.0
C1194 C 0.12241 0.5961 0.82852 0.0
C1195 C 0.1415 0.60131 0.85339 0.0
C1196 C 0.0901 0.58548 0.83075 0.0
C1197 C 0.07588 0.58015 0.85791 0.0
C1198 C 0.09417 0.58721 0.88289 0.0
C1199 C 0.12677 0.59764 0.88066 0.0
H1200 H 0.82197 0.79538 0.86918 0.0
H1201 H 0.74215 0.76835 0.92562 0.0
H1202 H 0.84604 0.74113 0.87562 0.0
H1203 H 0.76628 0.71437 0.93208 0.0
H1204 H 0.83479 0.63276 0.95907 0.0
H1205 H 0.8167 0.68902 0.95395 0.0
H1206 H 0.82987 0.68275 0.8616 0.0
H1207 H 0.84737 0.62589 0.86655 0.0
C1208 C 0.80979 0.77803 0.88323 0.0
C1209 C 0.78018 0.78614 0.89694 0.0
C1210 C 0.82345 0.74693 0.88672 0.0
C1211 C 0.80802 0.72356 0.90431 0.0
C1212 C 0.77888 0.732 0.91859 0.0
C1213 C 0.76501 0.76287 0.91482 0.0
C1214 C 0.83369 0.64315 0.93761 0.0
C1215 C 0.84204 0.62447 0.91317 0.0
C1216 C 0.82344 0.67549 0.93473 0.0
C1217 C 0.8216 0.69015 0.90738 0.0
C1218 C 0.83126 0.67209 0.88299 0.0
C1219 C 0.8413 0.63953 0.88584 0.0
H1220 H 0.62728 0.62505 0.70073 0.0
H1221 H 0.65301 0.58336 0.61824 0.0
H1222 H 0.57103 0.60505 0.69505 0.0
H1223 H 0.59693 0.56278 0.61278 0.0
H1224 H 0.51519 0.49019 0.64535 0.0
H1225 H 0.56792 0.51774 0.64807 0.0
H1226 H 0.51931 0.6108 0.65624 0.0
H1227 H 0.4659 0.58325 0.65272 0.0
C1228 C 0.6207 0.61193 0.68126 0.0
C1229 C 0.64436 0.60553 0.65996 0.0
C1230 C 0.58861 0.60071 0.67796 0.0
C1231 C 0.57988 0.58234 0.65357 0.0
C1232 C 0.60322 0.57689 0.6318 0.0
C1233 C 0.63513 0.58873 0.63483 0.0
C1234 C 0.51558 0.51652 0.64793 0.0
C1235 C 0.48636 0.53457 0.64894 0.0
C1236 C 0.5458 0.53225 0.6492 0.0
C1237 C 0.54752 0.56631 0.65205 0.0
C1238 C 0.51845 0.58446 0.65391 0.0
C1239 C 0.48803 0.56874 0.65199 0.0
H1240 H 0.69795 0.22071 0.40645 0.0
H1241 H 0.79319 0.26602 0.39961 0.0
H1242 H 0.67273 0.27483 0.4107 0.0
H1243 H 0.7678 0.32 0.40313 0.0
H1244 H 0.70139 0.40636 0.37166 0.0
H1245 H 0.72434 0.35101 0.36801 0.0
H1246 H 0.67827 0.32508 0.44875 0.0
H1247 H 0.656 0.38052 0.45263 0.0
C1248 C 0.71346 0.24221 0.40616 0.0
C1249 C 0.74751 0.23923 0.40295 0.0
C1250 C 0.69905 0.27306 0.4085 0.0
C1251 C 0.71838 0.30139 0.40693 0.0
C1252 C 0.75243 0.29843 0.40412 0.0
C1253 C 0.76693 0.26759 0.40245 0.0
C1254 C 0.69591 0.38861 0.38834 0.0
C1255 C 0.67709 0.3975 0.41243 0.0
C1256 C 0.70917 0.3572 0.3864 0.0
C1257 C 0.70314 0.33405 0.40822 0.0
C1258 C 0.68321 0.34255 0.4317 0.0
C1259 C 0.67059 0.37414 0.43393 0.0
H1260 H 0.86447 0.48578 0.16727 0.0
H1261 H 0.89172 0.38637 0.1484 0.0
H1262 H 0.92149 0.50246 0.16505 0.0
H1263 H 0.94954 0.40245 0.14749 0.0
H1264 H 0.04618 0.45279 0.11947 0.0
H1265 H 0.99057 0.43155 0.12235 0.0
H1266 H 0.96972 0.49926 0.19171 0.0
H1267 H 0.02474 0.52161 0.18756 0.0
C1268 C 0.88292 0.4675 0.16278 0.0
C1269 C 0.87393 0.43485 0.15813 0.0
C1270 C 0.91565 0.4769 0.16181 0.0
C1271 C 0.94037 0.45371 0.15674 0.0
C1272 C 0.93122 0.42103 0.15134 0.0
C1273 C 0.89821 0.41175 0.15182 0.0
C1274 C 0.02982 0.46269 0.13567 0.0
C1275 C 0.03964 0.48897 0.1532 0.0
C1276 C 0.9979 0.45051 0.13734 0.0
C1277 C 0.97533 0.46404 0.1569 0.0
C1278 C 0.98604 0.48891 0.17572 0.0
C1279 C 0.01769 0.5015 0.17364 0.0
H1280 H 0.79141 0.76481 0.61461 0.0
H1281 H 0.69662 0.71805 0.61082 0.0
H1282 H 0.76501 0.81833 0.6145 0.0
H1283 H 0.67031 0.77195 0.60987 0.0
H1284 H 0.65529 0.88104 0.56935 0.0
H1285 H 0.67534 0.82463 0.57204 0.0
H1286 H 0.7218 0.84637 0.65354 0.0
H1287 H 0.70085 0.90268 0.65111 0.0
C1288 C 0.76498 0.76598 0.61315 0.0
C1289 C 0.74603 0.73731 0.61251 0.0
C1290 C 0.74994 0.79655 0.61347 0.0
C1291 C 0.71575 0.79901 0.61254 0.0
C1292 C 0.69675 0.77048 0.61077 0.0
C1293 C 0.71178 0.7398 0.61115 0.0
C1294 C 0.66919 0.87339 0.58808 0.0
C1295 C 0.67664 0.89585 0.61005 0.0
C1296 C 0.68056 0.84131 0.58963 0.0
C1297 C 0.7002 0.83148 0.61287 0.0
C1298 C 0.70674 0.85361 0.63537 0.0
C1299 C 0.69466 0.88554 0.63413 0.0
H1300 H 0.8804 0.92098 0.89396 0.0
H1301 H 0.88836 0.92636 0.80097 0.0
H1302 H 0.93701 0.93978 0.89834 0.0
H1303 H 0.94438 0.94579 0.80547 0.0
H1304 H 0.02052 0.0258 0.8312 0.0
H1305 H 0.96762 0.99901 0.82494 0.0
H1306 H 0.99606 0.92394 0.88549 0.0
H1307 H 0.04916 0.95059 0.89169 0.0
C1308 C 0.89429 0.92566 0.87448 0.0
C1309 C 0.87962 0.92268 0.84713 0.0
C1310 C 0.92667 0.93647 0.87699 0.0
C1311 C 0.94486 0.94461 0.85222 0.0
C1312 C 0.93069 0.94026 0.82491 0.0
C1313 C 0.89854 0.92924 0.82239 0.0
C1314 C 0.01567 1.00336 0.84288 0.0
C1315 C 0.039 0.99028 0.86188 0.0
C1316 C 0.98544 0.98798 0.83925 0.0
C1317 C 0.97778 0.95946 0.8548 0.0
C1318 C 1.0013 0.94602 0.8734 0.0
C1319 C 0.03174 0.96115 0.87675 0.0
H1320 H 0.86889 0.1435 0.069 0.0
H1321 H 0.83057 0.12 0.1533 0.0
H1322 H 0.85081 0.20028 0.07476 0.0
H1323 H 0.81172 0.17667 0.15882 0.0
H1324 H 0.73828 0.25788 0.12344 0.0
H1325 H 0.76547 0.20498 0.12233 0.0
H1326 H 0.85912 0.25287 0.11428 0.0
H1327 H 0.83191 0.30649 0.11629 0.0
C1328 C 0.85699 0.15072 0.0889 0.0
C1329 C 0.85088 0.12756 0.11067 0.0
C1330 C 0.84689 0.1831 0.09225 0.0
C1331 C 0.82991 0.1926 0.11718 0.0
C1332 C 0.82487 0.16977 0.13944 0.0
C1333 C 0.83566 0.13754 0.13635 0.0
C1334 C 0.76467 0.25728 0.12128 0.0
C1335 C 0.78299 0.28634 0.11975 0.0
C1336 C 0.78018 0.22699 0.12096 0.0
C1337 C 0.81428 0.22505 0.11851 0.0
C1338 C 0.83275 0.25394 0.11634 0.0
C1339 C 0.81722 0.28446 0.11738 0.0
H1340 H 0.51633 0.98488 0.36067 0.0
H1341 H 0.46673 0.07809 0.35927 0.0
H1342 H 0.56904 0.01293 0.35781 0.0
H1343 H 0.51969 0.10607 0.35575 0.0
H1344 H 0.62418 0.12927 0.31269 0.0
H1345 H 0.56927 0.10555 0.31697 0.0
H1346 H 0.59908 0.05479 0.39435 0.0
H1347 H 0.65386 0.07906 0.39029 0.0
C1348 C 0.51667 0.01132 0.35922 0.0
C1349 C 0.48747 0.02935 0.36004 0.0
C1350 C 0.54681 0.02731 0.35792 0.0
C1351 C 0.54824 0.06156 0.35686 0.0
C1352 C 0.51907 0.07961 0.35663 0.0
C1353 C 0.4889 0.06363 0.35855 0.0
C1354 C 0.61872 0.11341 0.3308 0.0
C1355 C 0.64304 0.10586 0.35115 0.0
C1356 C 0.58744 0.09997 0.33328 0.0
C1357 C 0.58024 0.07824 0.35584 0.0
C1358 C 0.60426 0.07137 0.37667 0.0
C1359 C 0.63537 0.08538 0.37451 0.0
H1360 H 0.3289 0.30384 0.40976 0.0
H1361 H 0.23518 0.25596 0.40031 0.0
H1362 H 0.35561 0.25027 0.41285 0.0
H1363 H 0.262 0.20278 0.40271 0.0
H1364 H 0.32866 0.11843 0.37098 0.0
H1365 H 0.30614 0.17393 0.36766 0.0
H1366 H 0.35099 0.19841 0.44925 0.0
H1367 H 0.37291 0.14279 0.45276 0.0
C1368 C 0.31402 0.28194 0.40862 0.0
C1369 C 0.27995 0.28408 0.40495 0.0
C1370 C 0.32929 0.2514 0.41029 0.0
C1371 C 0.31082 0.22259 0.40763 0.0
C1372 C 0.27676 0.22472 0.40445 0.0
C1373 C 0.26143 0.25514 0.40341 0.0
C1374 C 0.33407 0.13591 0.38788 0.0
C1375 C 0.35232 0.12649 0.41216 0.0
C1376 C 0.32107 0.16744 0.38613 0.0
C1377 C 0.32676 0.19021 0.40832 0.0
C1378 C 0.34635 0.18127 0.43189 0.0
C1379 C 0.35873 0.14956 0.43393 0.0
H1380 H 0.99969 0.99825 0.18933 0.0
H1381 H 0.97752 0.06747 0.12179 0.0
H1382 H 0.05422 0.02155 0.1941 0.0
H1383 H 0.03281 0.08962 0.12509 0.0
H1384 H 0.1313 0.13557 0.1506 0.0
H1385 H 0.07367 0.11884 0.14962 0.0
H1386 H 0.10277 0.01943 0.16858 0.0
H1387 H 0.15953 0.03685 0.17104 0.0
C1388 C 1.00651 0.01866 0.17565 0.0
C1389 C 0.9845 0.03103 0.15519 0.0
C1390 C 0.03791 0.03179 0.17806 0.0
C1391 C 0.04841 0.05701 0.15947 0.0
C1392 C 0.0257 0.0704 0.13991 0.0
C1393 C 0.99396 0.05771 0.13798 0.0
C1394 C 0.12506 0.11019 0.15436 0.0
C1395 C 0.14957 0.08748 0.16111 0.0
C1396 C 0.09214 0.10052 0.15382 0.0
C1397 C 0.08329 0.06781 0.15954 0.0
C1398 C 0.10828 0.04502 0.1651 0.0
C1399 C 0.1409 0.05483 0.1662 0.0
H1400 H 0.21177 0.90054 0.95446 0.0
H1401 H 0.15026 0.88747 0.8793 0.0
H1402 H 0.23008 0.8448 0.95053 0.0
H1403 H 0.17048 0.83158 0.87438 0.0
H1404 H 0.19418 0.72262 0.88954 0.0
H1405 H 0.1703 0.77699 0.89606 0.0
H1406 H 0.2653 0.8147 0.92005 0.0
H1407 H 0.28871 0.76075 0.91451 0.0
C1408 C 0.20191 0.8859 0.93709 0.0
C1409 C 0.17929 0.89889 0.91724 0.0
C1410 C 0.21288 0.85381 0.93463 0.0
C1411 C 0.20205 0.8337 0.91199 0.0
C1412 C 0.17915 0.84634 0.89223 0.0
C1413 C 0.16788 0.87858 0.89484 0.0
C1414 C 0.20979 0.74249 0.8966 0.0
C1415 C 0.24331 0.73728 0.90167 0.0
C1416 C 0.19619 0.77369 0.90004 0.0
C1417 C 0.21584 0.80025 0.90862 0.0
C1418 C 0.24925 0.79478 0.91394 0.0
C1419 C 0.26274 0.76375 0.91065 0.0
H1420 H 0.39471 0.90199 0.70378 0.0
H1421 H 0.37213 0.9409 0.6195 0.0
H1422 H 0.45129 0.92146 0.69903 0.0
H1423 H 0.42851 0.96095 0.61499 0.0
H1424 H 0.50831 0.03502 0.64942 0.0
H1425 H 0.45573 1.00726 0.6519 0.0
H1426 H 0.50463 0.91434 0.6598 0.0
H1427 H 0.55799 0.9421 0.65645 0.0
C1428 C 0.40205 0.91437 0.68413 0.0
C1429 C 0.37918 0.92018 0.66205 0.0
C1430 C 0.43433 0.92526 0.68136 0.0
C1431 C 0.444 0.94269 0.65671 0.0
C1432 C 0.42147 0.9475 0.63419 0.0
C1433 C 0.38939 0.93599 0.6367 0.0
C1434 C 0.50806 1.00868 0.65194 0.0
C1435 C 0.53736 0.99073 0.65283 0.0
C1436 C 0.47791 0.99284 0.65307 0.0
C1437 C 0.47632 0.95877 0.6557 0.0
C1438 C 0.50543 0.94069 0.65762 0.0
C1439 C 0.53582 0.95655 0.65581 0.0
loop_
_geom_bond_atom_site_label_1
_geom_bond_atom_site_label_2
_geom_bond_distance
_geom_bond_site_symmetry_2
_ccdc_geom_bond_type
Co0 N5 2.057 . S
Co0 O17 2.021 . S
Co0 O20 2.062 . S
Co0 O24 2.117 . S
Co0 O25 2.020 . S
C1 O21 1.259 . S
C1 O24 1.258 . S
Co2 N11 2.057 . S
Co2 O18 2.117 . S
Co2 O19 2.020 . S
Co2 O21 2.021 . S
Co2 O26 2.062 . S
C3 N5 1.316 . S
C3 N6 1.347 . S
C3 H8 0.931 . S
C4 N5 1.375 . S
C4 C7 1.350 . S
C4 H9 0.930 . S
N5 Co0 2.057 . S
N5 C3 1.316 . S
N5 C4 1.375 . S
N6 C3 1.347 . S
N6 C7 1.373 . S
C7 C4 1.350 . S
C7 N6 1.373 . S
C7 H28 0.931 . S
H8 C3 0.931 . S
H9 C4 0.930 . S
C10 O17 1.259 . S
C10 O18 1.258 . S
N11 Co2 2.057 . S
N11 C12 1.316 . S
N11 C13 1.375 . S
C12 N11 1.316 . S
C12 N14 1.347 . S
C12 H23 0.931 . S
C13 N11 1.375 . S
C13 C15 1.350 . S
C13 H22 0.930 . S
N14 C12 1.347 . S
N14 C15 1.373 . S
C15 C13 1.350 . S
C15 N14 1.373 . S
C15 H29 0.931 . S
C16 O19 1.256 . S
C16 O20 1.255 . S
O17 Co0 2.021 . S
O17 C10 1.259 . S
O18 Co2 2.117 . S
O18 C10 1.258 . S
O19 Co2 2.020 . S
O19 C16 1.256 . S
O20 Co0 2.062 . S
O20 C16 1.255 . S
O21 C1 1.259 . S
O21 Co2 2.021 . S
H22 C13 0.930 . S
H23 C12 0.931 . S
O24 Co0 2.117 . S
O24 C1 1.258 . S
O25 Co0 2.020 . S
O25 C27 1.256 . S
O26 Co2 2.062 . S
O26 C27 1.255 . S
C27 O25 1.256 . S
C27 O26 1.255 . S
H28 C7 0.931 . S
H29 C15 0.931 . S
Co30 N35 2.057 . S
Co30 O47 2.021 . S
Co30 O50 2.062 . S
Co30 O54 2.117 . S
Co30 O55 2.020 . S
C31 O51 1.259 . S
C31 O54 1.258 . S
Co32 N41 2.057 . S
Co32 O48 2.117 . S
Co32 O49 2.020 . S
Co32 O51 2.021 . S
Co32 O56 2.062 . S
C33 N35 1.316 . S
C33 N36 1.347 . S
C33 H38 0.931 . S
C34 N35 1.375 . S
C34 C37 1.350 . S
C34 H39 0.930 . S
N35 Co30 2.057 . S
N35 C33 1.316 . S
N35 C34 1.375 . S
N36 C33 1.347 . S
N36 C37 1.373 . S
C37 C34 1.350 . S
C37 N36 1.373 . S
C37 H58 0.931 . S
H38 C33 0.931 . S
H39 C34 0.930 . S
C40 O47 1.259 . S
C40 O48 1.258 . S
N41 Co32 2.057 . S
N41 C42 1.316 . S
N41 C43 1.375 . S
C42 N41 1.316 . S
C42 N44 1.347 . S
C42 H53 0.931 . S
C43 N41 1.375 . S
C43 C45 1.350 . S
C43 H52 0.930 . S
N44 C42 1.347 . S
N44 C45 1.373 . S
C45 C43 1.350 . S
C45 N44 1.373 . S
C45 H59 0.931 . S
C46 O49 1.256 . S
C46 O50 1.255 . S
O47 Co30 2.021 . S
O47 C40 1.259 . S
O48 Co32 2.117 . S
O48 C40 1.258 . S
O49 Co32 2.020 . S
O49 C46 1.256 . S
O50 Co30 2.062 . S
O50 C46 1.255 . S
O51 C31 1.259 . S
O51 Co32 2.021 . S
H52 C43 0.930 . S
H53 C42 0.931 . S
O54 Co30 2.117 . S
O54 C31 1.258 . S
O55 Co30 2.020 . S
O55 C57 1.256 . S
O56 Co32 2.062 . S
O56 C57 1.255 . S
C57 O55 1.256 . S
C57 O56 1.255 . S
H58 C37 0.931 . S
H59 C45 0.931 . S
Co60 N65 2.057 . S
Co60 O77 2.021 . S
Co60 O80 2.062 . S
Co60 O84 2.117 . S
Co60 O85 2.020 . S
C61 O81 1.259 . S
C61 O84 1.258 . S
Co62 N71 2.057 . S
Co62 O78 2.117 . S
Co62 O79 2.020 . S
Co62 O81 2.021 . S
Co62 O86 2.062 . S
C63 N65 1.316 . S
C63 N66 1.347 . S
C63 H68 0.931 . S
C64 N65 1.375 . S
C64 C67 1.350 . S
C64 H69 0.930 . S
N65 Co60 2.057 . S
N65 C63 1.316 . S
N65 C64 1.375 . S
N66 C63 1.347 . S
N66 C67 1.373 . S
C67 C64 1.350 . S
C67 N66 1.373 . S
C67 H88 0.931 . S
H68 C63 0.931 . S
H69 C64 0.930 . S
C70 O77 1.259 . S
C70 O78 1.258 . S
N71 Co62 2.057 . S
N71 C72 1.316 . S
N71 C73 1.375 . S
C72 N71 1.316 . S
C72 N74 1.347 . S
C72 H83 0.931 . S
C73 N71 1.375 . S
C73 C75 1.350 . S
C73 H82 0.930 . S
N74 C72 1.347 . S
N74 C75 1.373 . S
C75 C73 1.350 . S
C75 N74 1.373 . S
C75 H89 0.931 . S
C76 O79 1.256 . S
C76 O80 1.255 . S
O77 Co60 2.021 . S
O77 C70 1.259 . S
O78 Co62 2.117 . S
O78 C70 1.258 . S
O79 Co62 2.020 . S
O79 C76 1.256 . S
O80 Co60 2.062 . S
O80 C76 1.255 . S
O81 C61 1.259 . S
O81 Co62 2.021 . S
H82 C73 0.930 . S
H83 C72 0.931 . S
O84 Co60 2.117 . S
O84 C61 1.258 . S
O85 Co60 2.020 . S
O85 C87 1.256 . S
O86 Co62 2.062 . S
O86 C87 1.255 . S
C87 O85 1.256 . S
C87 O86 1.255 . S
H88 C67 0.931 . S
H89 C75 0.931 . S
Co90 N95 2.057 . S
Co90 O107 2.021 . S
Co90 O110 2.062 . S
Co90 O114 2.117 . S
Co90 O115 2.020 . S
C91 O111 1.259 . S
C91 O114 1.258 . S
Co92 N101 2.057 . S
Co92 O108 2.117 . S
Co92 O109 2.020 . S
Co92 O111 2.021 . S
Co92 O116 2.062 . S
C93 N95 1.316 . S
C93 N96 1.347 . S
C93 H98 0.931 . S
C94 N95 1.375 . S
C94 C97 1.350 . S
C94 H99 0.930 . S
N95 Co90 2.057 . S
N95 C93 1.316 . S
N95 C94 1.375 . S
N96 C93 1.347 . S
N96 C97 1.373 . S
C97 C94 1.350 . S
C97 N96 1.373 . S
C97 H118 0.931 . S
H98 C93 0.931 . S
H99 C94 0.930 . S
C100 O107 1.259 . S
C100 O108 1.258 . S
N101 Co92 2.057 . S
N101 C102 1.316 . S
N101 C103 1.375 . S
C102 N101 1.316 . S
C102 N104 1.347 . S
C102 H113 0.931 . S
C103 N101 1.375 . S
C103 C105 1.350 . S
C103 H112 0.930 . S
N104 C102 1.347 . S
N104 C105 1.373 . S
C105 C103 1.350 . S
C105 N104 1.373 . S
C105 H119 0.931 . S
C106 O109 1.256 . S
C106 O110 1.255 . S
O107 Co90 2.021 . S
O107 C100 1.259 . S
O108 Co92 2.117 . S
O108 C100 1.258 . S
O109 Co92 2.020 . S
O109 C106 1.256 . S
O110 Co90 2.062 . S
O110 C106 1.255 . S
O111 C91 1.259 . S
O111 Co92 2.021 . S
H112 C103 0.930 . S
H113 C102 0.931 . S
O114 Co90 2.117 . S
O114 C91 1.258 . S
O115 Co90 2.020 . S
O115 C117 1.256 . S
O116 Co92 2.062 . S
O116 C117 1.255 . S
C117 O115 1.256 . S
C117 O116 1.255 . S
H118 C97 0.931 . S
H119 C105 0.931 . S
Co120 N125 2.057 . S
Co120 O137 2.021 . S
Co120 O140 2.062 . S
Co120 O144 2.117 . S
Co120 O145 2.020 . S
C121 O141 1.259 . S
C121 O144 1.258 . S
Co122 N131 2.057 . S
Co122 O138 2.117 . S
Co122 O139 2.020 . S
Co122 O141 2.021 . S
Co122 O146 2.062 . S
C123 N125 1.316 . S
C123 N126 1.347 . S
C123 H128 0.931 . S
C124 N125 1.375 . S
C124 C127 1.350 . S
C124 H129 0.930 . S
N125 Co120 2.057 . S
N125 C123 1.316 . S
N125 C124 1.375 . S
N126 C123 1.347 . S
N126 C127 1.373 . S
C127 C124 1.350 . S
C127 N126 1.373 . S
C127 H148 0.931 . S
H128 C123 0.931 . S
H129 C124 0.930 . S
C130 O137 1.259 . S
C130 O138 1.258 . S
N131 Co122 2.057 . S
N131 C132 1.316 . S
N131 C133 1.375 . S
C132 N131 1.316 . S
C132 N134 1.347 . S
C132 H143 0.931 . S
C133 N131 1.375 . S
C133 C135 1.350 . S
C133 H142 0.930 . S
N134 C132 1.347 . S
N134 C135 1.373 . S
C135 C133 1.350 . S
C135 N134 1.373 . S
C135 H149 0.931 . S
C136 O139 1.256 . S
C136 O140 1.255 . S
O137 Co120 2.021 . S
O137 C130 1.259 . S
O138 Co122 2.117 . S
O138 C130 1.258 . S
O139 Co122 2.020 . S
O139 C136 1.256 . S
O140 Co120 2.062 . S
O140 C136 1.255 . S
O141 C121 1.259 . S
O141 Co122 2.021 . S
H142 C133 0.930 . S
H143 C132 0.931 . S
O144 Co120 2.117 . S
O144 C121 1.258 . S
O145 Co120 2.020 . S
O145 C147 1.256 . S
O146 Co122 2.062 . S
O146 C147 1.255 . S
C147 O145 1.256 . S
C147 O146 1.255 . S
H148 C127 0.931 . S
H149 C135 0.931 . S
Co150 N155 2.057 . S
Co150 O167 2.021 . S
Co150 O170 2.062 . S
Co150 O174 2.117 . S
Co150 O175 2.020 . S
C151 O171 1.259 . S
C151 O174 1.258 . S
Co152 N161 2.057 . S
Co152 O168 2.117 . S
Co152 O169 2.020 . S
Co152 O171 2.021 . S
Co152 O176 2.062 . S
C153 N155 1.316 . S
C153 N156 1.347 . S
C153 H158 0.931 . S
C154 N155 1.375 . S
C154 C157 1.350 . S
C154 H159 0.930 . S
N155 Co150 2.057 . S
N155 C153 1.316 . S
N155 C154 1.375 . S
N156 C153 1.347 . S
N156 C157 1.373 . S
C157 C154 1.350 . S
C157 N156 1.373 . S
C157 H178 0.931 . S
H158 C153 0.931 . S
H159 C154 0.930 . S
C160 O167 1.259 . S
C160 O168 1.258 . S
N161 Co152 2.057 . S
N161 C162 1.316 . S
N161 C163 1.375 . S
C162 N161 1.316 . S
C162 N164 1.347 . S
C162 H173 0.931 . S
C163 N161 1.375 . S
C163 C165 1.350 . S
C163 H172 0.930 . S
N164 C162 1.347 . S
N164 C165 1.373 . S
C165 C163 1.350 . S
C165 N164 1.373 . S
C165 H179 0.931 . S
C166 O169 1.256 . S
C166 O170 1.255 . S
O167 Co150 2.021 . S
O167 C160 1.259 . S
O168 Co152 2.117 . S
O168 C160 1.258 . S
O169 Co152 2.020 . S
O169 C166 1.256 . S
O170 Co150 2.062 . S
O170 C166 1.255 . S
O171 C151 1.259 . S
O171 Co152 2.021 . S
H172 C163 0.930 . S
H173 C162 0.931 . S
O174 Co150 2.117 . S
O174 C151 1.258 . S
O175 Co150 2.020 . S
O175 C177 1.256 . S
O176 Co152 2.062 . S
O176 C177 1.255 . S
C177 O175 1.256 . S
C177 O176 1.255 . S
H178 C157 0.931 . S
H179 C165 0.931 . S
Co180 N185 2.057 . S
Co180 O197 2.021 . S
Co180 O200 2.062 . S
Co180 O204 2.117 . S
Co180 O205 2.020 . S
C181 O201 1.259 . S
C181 O204 1.258 . S
Co182 N191 2.057 . S
Co182 O198 2.117 . S
Co182 O199 2.020 . S
Co182 O201 2.021 . S
Co182 O206 2.062 . S
C183 N185 1.316 . S
C183 N186 1.347 . S
C183 H188 0.931 . S
C184 N185 1.375 . S
C184 C187 1.350 . S
C184 H189 0.930 . S
N185 Co180 2.057 . S
N185 C183 1.316 . S
N185 C184 1.375 . S
N186 C183 1.347 . S
N186 C187 1.373 . S
C187 C184 1.350 . S
C187 N186 1.373 . S
C187 H208 0.931 . S
H188 C183 0.931 . S
H189 C184 0.930 . S
C190 O197 1.259 . S
C190 O198 1.258 . S
N191 Co182 2.057 . S
N191 C192 1.316 . S
N191 C193 1.375 . S
C192 N191 1.316 . S
C192 N194 1.347 . S
C192 H203 0.931 . S
C193 N191 1.375 . S
C193 C195 1.350 . S
C193 H202 0.930 . S
N194 C192 1.347 . S
N194 C195 1.373 . S
C195 C193 1.350 . S
C195 N194 1.373 . S
C195 H209 0.931 . S
C196 O199 1.256 . S
C196 O200 1.255 . S
O197 Co180 2.021 . S
O197 C190 1.259 . S
O198 Co182 2.117 . S
O198 C190 1.258 . S
O199 Co182 2.020 . S
O199 C196 1.256 . S
O200 Co180 2.062 . S
O200 C196 1.255 . S
O201 C181 1.259 . S
O201 Co182 2.021 . S
H202 C193 0.930 . S
H203 C192 0.931 . S
O204 Co180 2.117 . S
O204 C181 1.258 . S
O205 Co180 2.020 . S
O205 C207 1.256 . S
O206 Co182 2.062 . S
O206 C207 1.255 . S
C207 O205 1.256 . S
C207 O206 1.255 . S
H208 C187 0.931 . S
H209 C195 0.931 . S
Co210 N215 2.057 . S
Co210 O227 2.021 . S
Co210 O230 2.062 . S
Co210 O234 2.117 . S
Co210 O235 2.020 . S
C211 O231 1.259 . S
C211 O234 1.258 . S
Co212 N221 2.057 . S
Co212 O228 2.117 . S
Co212 O229 2.020 . S
Co212 O231 2.021 . S
Co212 O236 2.062 . S
C213 N215 1.316 . S
C213 N216 1.347 . S
C213 H218 0.931 . S
C214 N215 1.375 . S
C214 C217 1.350 . S
C214 H219 0.930 . S
N215 Co210 2.057 . S
N215 C213 1.316 . S
N215 C214 1.375 . S
N216 C213 1.347 . S
N216 C217 1.373 . S
C217 C214 1.350 . S
C217 N216 1.373 . S
C217 H238 0.931 . S
H218 C213 0.931 . S
H219 C214 0.930 . S
C220 O227 1.259 . S
C220 O228 1.258 . S
N221 Co212 2.057 . S
N221 C222 1.316 . S
N221 C223 1.375 . S
C222 N221 1.316 . S
C222 N224 1.347 . S
C222 H233 0.931 . S
C223 N221 1.375 . S
C223 C225 1.350 . S
C223 H232 0.930 . S
N224 C222 1.347 . S
N224 C225 1.373 . S
C225 C223 1.350 . S
C225 N224 1.373 . S
C225 H239 0.931 . S
C226 O229 1.256 . S
C226 O230 1.255 . S
O227 Co210 2.021 . S
O227 C220 1.259 . S
O228 Co212 2.117 . S
O228 C220 1.258 . S
O229 Co212 2.020 . S
O229 C226 1.256 . S
O230 Co210 2.062 . S
O230 C226 1.255 . S
O231 C211 1.259 . S
O231 Co212 2.021 . S
H232 C223 0.930 . S
H233 C222 0.931 . S
O234 Co210 2.117 . S
O234 C211 1.258 . S
O235 Co210 2.020 . S
O235 C237 1.256 . S
O236 Co212 2.062 . S
O236 C237 1.255 . S
C237 O235 1.256 . S
C237 O236 1.255 . S
H238 C217 0.931 . S
H239 C225 0.931 . S
Co240 N245 2.057 . S
Co240 O257 2.021 . S
Co240 O260 2.062 . S
Co240 O264 2.117 . S
Co240 O265 2.020 . S
C241 O261 1.259 . S
C241 O264 1.258 . S
Co242 N251 2.057 . S
Co242 O258 2.117 . S
Co242 O259 2.020 . S
Co242 O261 2.021 . S
Co242 O266 2.062 . S
C243 N245 1.316 . S
C243 N246 1.347 . S
C243 H248 0.931 . S
C244 N245 1.375 . S
C244 C247 1.350 . S
C244 H249 0.930 . S
N245 Co240 2.057 . S
N245 C243 1.316 . S
N245 C244 1.375 . S
N246 C243 1.347 . S
N246 C247 1.373 . S
C247 C244 1.350 . S
C247 N246 1.373 . S
C247 H268 0.931 . S
H248 C243 0.931 . S
H249 C244 0.930 . S
C250 O257 1.259 . S
C250 O258 1.258 . S
N251 Co242 2.057 . S
N251 C252 1.316 . S
N251 C253 1.375 . S
C252 N251 1.316 . S
C252 N254 1.347 . S
C252 H263 0.931 . S
C253 N251 1.375 . S
C253 C255 1.350 . S
C253 H262 0.930 . S
N254 C252 1.347 . S
N254 C255 1.373 . S
C255 C253 1.350 . S
C255 N254 1.373 . S
C255 H269 0.931 . S
C256 O259 1.256 . S
C256 O260 1.255 . S
O257 Co240 2.021 . S
O257 C250 1.259 . S
O258 Co242 2.117 . S
O258 C250 1.258 . S
O259 Co242 2.020 . S
O259 C256 1.256 . S
O260 Co240 2.062 . S
O260 C256 1.255 . S
O261 C241 1.259 . S
O261 Co242 2.021 . S
H262 C253 0.930 . S
H263 C252 0.931 . S
O264 Co240 2.117 . S
O264 C241 1.258 . S
O265 Co240 2.020 . S
O265 C267 1.256 . S
O266 Co242 2.062 . S
O266 C267 1.255 . S
C267 O265 1.256 . S
C267 O266 1.255 . S
H268 C247 0.931 . S
H269 C255 0.931 . S
Co270 N275 2.057 . S
Co270 O287 2.021 . S
Co270 O290 2.062 . S
Co270 O294 2.117 1_565 S
Co270 O295 2.027 . S
C271 O291 1.259 . S
C271 O294 1.258 . S
Co272 N281 2.057 . S
Co272 O288 2.117 . S
Co272 O289 2.020 . S
Co272 O291 2.021 . S
Co272 O296 2.062 . S
C273 N275 1.316 . S
C273 N276 1.347 . S
C273 H278 0.931 . S
C274 N275 1.375 . S
C274 C277 1.350 . S
C274 H279 0.930 . S
N275 Co270 2.057 . S
N275 C273 1.316 . S
N275 C274 1.375 . S
N276 C273 1.347 . S
N276 C277 1.373 . S
C277 C274 1.350 . S
C277 N276 1.373 . S
C277 H298 0.931 . S
H278 C273 0.931 . S
H279 C274 0.930 . S
C280 O287 1.259 . S
C280 O288 1.258 1_565 S
N281 Co272 2.057 . S
N281 C282 1.316 . S
N281 C283 1.375 . S
C282 N281 1.316 . S
C282 N284 1.347 . S
C282 H293 0.931 . S
C283 N281 1.375 . S
C283 C285 1.350 . S
C283 H292 0.930 . S
N284 C282 1.347 . S
N284 C285 1.373 . S
C285 C283 1.350 . S
C285 N284 1.373 . S
C285 H299 0.931 . S
C286 O289 1.256 . S
C286 O290 1.255 1_545 S
O287 Co270 2.021 . S
O287 C280 1.259 . S
O288 Co272 2.117 . S
O288 C280 1.258 1_545 S
O289 Co272 2.020 . S
O289 C286 1.256 . S
O290 Co270 2.062 . S
O290 C286 1.255 1_565 S
O291 C271 1.259 . S
O291 Co272 2.021 . S
H292 C283 0.930 . S
H293 C282 0.931 . S
O294 Co270 2.117 1_545 S
O294 C271 1.258 . S
O295 Co270 2.027 . S
O295 C297 1.224 1_565 S
O296 Co272 2.062 . S
O296 C297 1.255 . S
C297 O295 1.224 1_545 S
C297 O296 1.255 . S
H298 C277 0.931 . S
H299 C285 0.931 . S
Co300 N305 2.057 . S
Co300 O317 2.021 . S
Co300 O320 2.062 . S
Co300 O324 2.117 . S
Co300 O325 2.020 . S
C301 O321 1.259 . S
C301 O324 1.258 . S
Co302 N311 2.057 . S
Co302 O318 2.117 . S
Co302 O319 2.020 . S
Co302 O321 2.021 . S
Co302 O326 2.062 . S
C303 N305 1.316 . S
C303 N306 1.347 . S
C303 H308 0.931 . S
C304 N305 1.375 . S
C304 C307 1.350 . S
C304 H309 0.930 . S
N305 Co300 2.057 . S
N305 C303 1.316 . S
N305 C304 1.375 . S
N306 C303 1.347 . S
N306 C307 1.373 . S
C307 C304 1.350 . S
C307 N306 1.373 . S
C307 H328 0.931 . S
H308 C303 0.931 . S
H309 C304 0.930 . S
C310 O317 1.259 . S
C310 O318 1.258 . S
N311 Co302 2.057 . S
N311 C312 1.316 . S
N311 C313 1.375 . S
C312 N311 1.316 . S
C312 N314 1.347 . S
C312 H323 0.931 . S
C313 N311 1.375 . S
C313 C315 1.350 . S
C313 H322 0.930 . S
N314 C312 1.347 . S
N314 C315 1.373 . S
C315 C313 1.350 . S
C315 N314 1.373 . S
C315 H329 0.931 . S
C316 O319 1.256 . S
C316 O320 1.255 . S
O317 Co300 2.021 . S
O317 C310 1.259 . S
O318 Co302 2.117 . S
O318 C310 1.258 . S
O319 Co302 2.020 . S
O319 C316 1.256 . S
O320 Co300 2.062 . S
O320 C316 1.255 . S
O321 C301 1.259 . S
O321 Co302 2.021 . S
H322 C313 0.930 . S
H323 C312 0.931 . S
O324 Co300 2.117 . S
O324 C301 1.258 . S
O325 Co300 2.020 . S
O325 C327 1.256 . S
O326 Co302 2.062 . S
O326 C327 1.255 . S
C327 O325 1.256 . S
C327 O326 1.255 . S
H328 C307 0.931 . S
H329 C315 0.931 . S
Co330 N335 2.057 . S
Co330 O347 2.021 . S
Co330 O350 2.062 . S
Co330 O354 2.117 1_545 S
Co330 O355 2.027 . S
C331 O351 1.259 . S
C331 O354 1.258 . S
Co332 N341 2.057 . S
Co332 O348 2.117 . S
Co332 O349 2.020 . S
Co332 O351 2.021 . S
Co332 O356 2.062 . S
C333 N335 1.316 . S
C333 N336 1.347 . S
C333 H338 0.931 . S
C334 N335 1.375 . S
C334 C337 1.350 . S
C334 H339 0.930 . S
N335 Co330 2.057 . S
N335 C333 1.316 . S
N335 C334 1.375 . S
N336 C333 1.347 . S
N336 C337 1.373 . S
C337 C334 1.350 . S
C337 N336 1.373 . S
C337 H358 0.931 . S
H338 C333 0.931 . S
H339 C334 0.930 . S
C340 O347 1.259 . S
C340 O348 1.258 1_545 S
N341 Co332 2.057 . S
N341 C342 1.316 . S
N341 C343 1.375 . S
C342 N341 1.316 . S
C342 N344 1.347 . S
C342 H353 0.931 . S
C343 N341 1.375 . S
C343 C345 1.350 . S
C343 H352 0.930 . S
N344 C342 1.347 . S
N344 C345 1.373 . S
C345 C343 1.350 . S
C345 N344 1.373 . S
C345 H359 0.931 . S
C346 O349 1.256 . S
C346 O350 1.255 1_565 S
O347 Co330 2.021 . S
O347 C340 1.259 . S
O348 Co332 2.117 . S
O348 C340 1.258 1_565 S
O349 Co332 2.020 . S
O349 C346 1.256 . S
O350 Co330 2.062 . S
O350 C346 1.255 1_545 S
O351 C331 1.259 . S
O351 Co332 2.021 . S
H352 C343 0.930 . S
H353 C342 0.931 . S
O354 Co330 2.117 1_565 S
O354 C331 1.258 . S
O355 Co330 2.027 . S
O355 C357 1.224 1_545 S
O356 Co332 2.062 . S
O356 C357 1.255 . S
C357 O355 1.224 1_565 S
C357 O356 1.255 . S
H358 C337 0.931 . S
H359 C345 0.931 . S
Co360 N365 2.057 . S
Co360 O377 2.021 . S
Co360 O380 2.062 . S
Co360 O384 2.117 . S
Co360 O385 2.020 . S
C361 O381 1.259 . S
C361 O384 1.258 . S
Co362 N371 2.057 . S
Co362 O378 2.117 . S
Co362 O379 2.020 . S
Co362 O381 2.021 . S
Co362 O386 2.062 . S
C363 N365 1.316 . S
C363 N366 1.347 . S
C363 H368 0.931 . S
C364 N365 1.375 . S
C364 C367 1.350 . S
C364 H369 0.930 . S
N365 Co360 2.057 . S
N365 C363 1.316 . S
N365 C364 1.375 . S
N366 C363 1.347 . S
N366 C367 1.373 . S
C367 C364 1.350 . S
C367 N366 1.373 . S
C367 H388 0.931 . S
H368 C363 0.931 . S
H369 C364 0.930 . S
C370 O377 1.259 . S
C370 O378 1.258 . S
N371 Co362 2.057 . S
N371 C372 1.316 . S
N371 C373 1.375 . S
C372 N371 1.316 . S
C372 N374 1.347 . S
C372 H383 0.931 . S
C373 N371 1.375 . S
C373 C375 1.350 . S
C373 H382 0.930 . S
N374 C372 1.347 . S
N374 C375 1.373 . S
C375 C373 1.350 . S
C375 N374 1.373 . S
C375 H389 0.931 . S
C376 O379 1.256 . S
C376 O380 1.255 . S
O377 Co360 2.021 . S
O377 C370 1.259 . S
O378 Co362 2.117 . S
O378 C370 1.258 . S
O379 Co362 2.020 . S
O379 C376 1.256 . S
O380 Co360 2.062 . S
O380 C376 1.255 . S
O381 C361 1.259 . S
O381 Co362 2.021 . S
H382 C373 0.930 . S
H383 C372 0.931 . S
O384 Co360 2.117 . S
O384 C361 1.258 . S
O385 Co360 2.020 . S
O385 C387 1.256 . S
O386 Co362 2.062 . S
O386 C387 1.255 . S
C387 O385 1.256 . S
C387 O386 1.255 . S
H388 C367 0.931 . S
H389 C375 0.931 . S
Co390 N395 2.057 . S
Co390 O407 2.021 . S
Co390 O410 2.062 . S
Co390 O414 2.117 . S
Co390 O415 2.020 . S
C391 O411 1.259 . S
C391 O414 1.258 1_545 S
Co392 N401 2.057 . S
Co392 O408 2.117 1_545 S
Co392 O409 2.027 . S
Co392 O411 2.021 . S
Co392 O416 2.062 . S
C393 N395 1.316 . S
C393 N396 1.347 . S
C393 H398 0.931 . S
C394 N395 1.375 . S
C394 C397 1.350 . S
C394 H399 0.930 . S
N395 Co390 2.057 . S
N395 C393 1.316 . S
N395 C394 1.375 . S
N396 C393 1.347 . S
N396 C397 1.373 . S
C397 C394 1.350 . S
C397 N396 1.373 . S
C397 H418 0.931 . S
H398 C393 0.931 . S
H399 C394 0.930 . S
C400 O407 1.259 . S
C400 O408 1.258 . S
N401 Co392 2.057 . S
N401 C402 1.316 . S
N401 C403 1.375 . S
C402 N401 1.316 . S
C402 N404 1.347 . S
C402 H413 0.931 . S
C403 N401 1.375 . S
C403 C405 1.350 . S
C403 H412 0.930 . S
N404 C402 1.347 . S
N404 C405 1.373 . S
C405 C403 1.350 . S
C405 N404 1.373 . S
C405 H419 0.931 . S
C406 O409 1.224 1_565 S
C406 O410 1.255 . S
O407 Co390 2.021 . S
O407 C400 1.259 . S
O408 Co392 2.117 1_565 S
O408 C400 1.258 . S
O409 Co392 2.027 . S
O409 C406 1.224 1_545 S
O410 Co390 2.062 . S
O410 C406 1.255 . S
O411 C391 1.259 . S
O411 Co392 2.021 . S
H412 C403 0.930 . S
H413 C402 0.931 . S
O414 Co390 2.117 . S
O414 C391 1.258 1_565 S
O415 Co390 2.020 . S
O415 C417 1.256 . S
O416 Co392 2.062 . S
O416 C417 1.255 1_545 S
C417 O415 1.256 . S
C417 O416 1.255 1_565 S
H418 C397 0.931 . S
H419 C405 0.931 . S
Co420 N425 2.057 . S
Co420 O437 2.021 . S
Co420 O440 2.062 . S
Co420 O444 2.117 . S
Co420 O445 2.020 . S
C421 O441 1.259 . S
C421 O444 1.258 . S
Co422 N431 2.057 . S
Co422 O438 2.117 . S
Co422 O439 2.020 . S
Co422 O441 2.021 . S
Co422 O446 2.062 . S
C423 N425 1.316 . S
C423 N426 1.347 . S
C423 H428 0.931 . S
C424 N425 1.375 . S
C424 C427 1.350 . S
C424 H429 0.930 . S
N425 Co420 2.057 . S
N425 C423 1.316 . S
N425 C424 1.375 . S
N426 C423 1.347 . S
N426 C427 1.373 . S
C427 C424 1.350 . S
C427 N426 1.373 . S
C427 H448 0.931 . S
H428 C423 0.931 . S
H429 C424 0.930 . S
C430 O437 1.259 . S
C430 O438 1.258 . S
N431 Co422 2.057 . S
N431 C432 1.316 . S
N431 C433 1.375 . S
C432 N431 1.316 . S
C432 N434 1.347 . S
C432 H443 0.931 . S
C433 N431 1.375 . S
C433 C435 1.350 . S
C433 H442 0.930 . S
N434 C432 1.347 . S
N434 C435 1.373 . S
C435 C433 1.350 . S
C435 N434 1.373 . S
C435 H449 0.931 . S
C436 O439 1.256 . S
C436 O440 1.255 . S
O437 Co420 2.021 . S
O437 C430 1.259 . S
O438 Co422 2.117 . S
O438 C430 1.258 . S
O439 Co422 2.020 . S
O439 C436 1.256 . S
O440 Co420 2.062 . S
O440 C436 1.255 . S
O441 C421 1.259 . S
O441 Co422 2.021 . S
H442 C433 0.930 . S
H443 C432 0.931 . S
O444 Co420 2.117 . S
O444 C421 1.258 . S
O445 Co420 2.020 . S
O445 C447 1.256 . S
O446 Co422 2.062 . S
O446 C447 1.255 . S
C447 O445 1.256 . S
C447 O446 1.255 . S
H448 C427 0.931 . S
H449 C435 0.931 . S
Co450 N455 2.057 . S
Co450 O467 2.021 . S
Co450 O470 2.062 . S
Co450 O474 2.117 . S
Co450 O475 2.020 . S
C451 O471 1.259 . S
C451 O474 1.258 1_565 S
Co452 N461 2.057 . S
Co452 O468 2.117 1_565 S
Co452 O469 2.027 . S
Co452 O471 2.021 . S
Co452 O476 2.062 . S
C453 N455 1.316 . S
C453 N456 1.347 . S
C453 H458 0.931 . S
C454 N455 1.375 . S
C454 C457 1.350 . S
C454 H459 0.930 . S
N455 Co450 2.057 . S
N455 C453 1.316 . S
N455 C454 1.375 . S
N456 C453 1.347 . S
N456 C457 1.373 . S
C457 C454 1.350 . S
C457 N456 1.373 . S
C457 H478 0.931 . S
H458 C453 0.931 . S
H459 C454 0.930 . S
C460 O467 1.259 . S
C460 O468 1.258 . S
N461 Co452 2.057 . S
N461 C462 1.316 . S
N461 C463 1.375 . S
C462 N461 1.316 . S
C462 N464 1.347 . S
C462 H473 0.931 . S
C463 N461 1.375 . S
C463 C465 1.350 . S
C463 H472 0.930 . S
N464 C462 1.347 . S
N464 C465 1.373 . S
C465 C463 1.350 . S
C465 N464 1.373 . S
C465 H479 0.931 . S
C466 O469 1.224 1_545 S
C466 O470 1.255 . S
O467 Co450 2.021 . S
O467 C460 1.259 . S
O468 Co452 2.117 1_545 S
O468 C460 1.258 . S
O469 Co452 2.027 . S
O469 C466 1.224 1_565 S
O470 Co450 2.062 . S
O470 C466 1.255 . S
O471 C451 1.259 . S
O471 Co452 2.021 . S
H472 C463 0.930 . S
H473 C462 0.931 . S
O474 Co450 2.117 . S
O474 C451 1.258 1_545 S
O475 Co450 2.020 . S
O475 C477 1.256 . S
O476 Co452 2.062 . S
O476 C477 1.255 1_565 S
C477 O475 1.256 . S
C477 O476 1.255 1_545 S
H478 C457 0.931 . S
H479 C465 0.931 . S
H480 C488 0.950 . S
H481 C493 0.950 . S
H482 C490 0.950 . S
H483 C492 0.950 . S
H484 C494 0.950 . S
H485 C496 0.950 . S
H486 C498 0.950 . S
H487 C499 0.950 . S
C488 H480 0.950 . S
C488 C489 1.386 . S
C488 C490 1.391 . S
C489 C488 1.386 . S
C489 C493 1.393 . S
C490 H482 0.950 . S
C490 C488 1.391 . S
C490 C491 1.400 . S
C491 C490 1.400 . S
C491 C492 1.398 . S
C491 C497 1.491 . S
C492 H483 0.950 . S
C492 C491 1.398 . S
C492 C493 1.391 . S
C493 H481 0.950 . S
C493 C489 1.393 . S
C493 C492 1.391 . S
C494 H484 0.950 . S
C494 C495 1.386 . S
C494 C496 1.391 . S
C495 C494 1.386 . S
C495 C499 1.393 . S
C496 H485 0.950 . S
C496 C494 1.391 . S
C496 C497 1.400 . S
C497 C491 1.491 . S
C497 C496 1.400 . S
C497 C498 1.398 . S
C498 H486 0.950 . S
C498 C497 1.398 . S
C498 C499 1.391 . S
C499 H487 0.950 . S
C499 C495 1.393 . S
C499 C498 1.391 . S
H500 C508 0.950 . S
H501 C513 0.950 . S
H502 C510 0.950 . S
H503 C512 0.950 . S
H504 C514 0.950 . S
H505 C516 0.950 . S
H506 C518 0.950 . S
H507 C519 0.950 . S
C508 H500 0.950 . S
C508 C509 1.386 . S
C508 C510 1.391 . S
C509 C508 1.386 . S
C509 C513 1.393 . S
C510 H502 0.950 . S
C510 C508 1.391 . S
C510 C511 1.400 . S
C511 C510 1.400 . S
C511 C512 1.398 . S
C511 C517 1.491 . S
C512 H503 0.950 . S
C512 C511 1.398 . S
C512 C513 1.391 . S
C513 H501 0.950 . S
C513 C509 1.393 . S
C513 C512 1.391 . S
C514 H504 0.950 . S
C514 C515 1.386 . S
C514 C516 1.391 . S
C515 C514 1.386 . S
C515 C519 1.393 . S
C516 H505 0.950 . S
C516 C514 1.391 . S
C516 C517 1.400 . S
C517 C511 1.491 . S
C517 C516 1.400 . S
C517 C518 1.398 . S
C518 H506 0.950 . S
C518 C517 1.398 . S
C518 C519 1.391 . S
C519 H507 0.950 . S
C519 C515 1.393 . S
C519 C518 1.391 . S
H520 C528 0.950 . S
H521 C533 0.950 . S
H522 C530 0.950 . S
H523 C532 0.950 . S
H524 C534 0.950 . S
H525 C536 0.950 . S
H526 C538 0.950 . S
H527 C539 0.950 . S
C528 H520 0.950 . S
C528 C529 1.386 . S
C528 C530 1.391 . S
C529 C528 1.386 . S
C529 C533 1.393 . S
C530 H522 0.950 . S
C530 C528 1.391 . S
C530 C531 1.400 . S
C531 C530 1.400 . S
C531 C532 1.398 . S
C531 C537 1.491 . S
C532 H523 0.950 . S
C532 C531 1.398 . S
C532 C533 1.391 . S
C533 H521 0.950 . S
C533 C529 1.393 . S
C533 C532 1.391 . S
C534 H524 0.950 . S
C534 C535 1.386 . S
C534 C536 1.391 . S
C535 C534 1.386 . S
C535 C539 1.393 . S
C536 H525 0.950 . S
C536 C534 1.391 . S
C536 C537 1.400 . S
C537 C531 1.491 . S
C537 C536 1.400 . S
C537 C538 1.398 . S
C538 H526 0.950 . S
C538 C537 1.398 . S
C538 C539 1.391 . S
C539 H527 0.950 . S
C539 C535 1.393 . S
C539 C538 1.391 . S
H540 C548 0.950 . S
H541 C553 0.950 . S
H542 C550 0.961 . S
H543 C552 0.950 1_455 S
H544 C554 0.950 . S
H545 C556 0.961 . S
H546 C558 0.950 1_655 S
H547 C559 0.950 . S
C548 H540 0.950 . S
C548 C549 1.386 . S
C548 C550 1.384 1_556 S
C549 C548 1.386 . S
C549 C553 1.393 . S
C550 H542 0.961 . S
C550 C548 1.384 1_554 S
C550 C551 1.396 1_554 S
C551 C550 1.396 1_556 S
C551 C552 1.398 . S
C551 C557 1.491 1_656 S
C552 H543 0.950 1_655 S
C552 C551 1.398 . S
C552 C553 1.391 . S
C553 H541 0.950 . S
C553 C549 1.393 . S
C553 C552 1.391 . S
C554 H544 0.950 . S
C554 C555 1.386 . S
C554 C556 1.384 1_554 S
C555 C554 1.386 . S
C555 C559 1.393 . S
C556 H545 0.961 . S
C556 C554 1.384 1_556 S
C556 C557 1.396 1_556 S
C557 C551 1.491 1_454 S
C557 C556 1.396 1_554 S
C557 C558 1.398 . S
C558 H546 0.950 1_455 S
C558 C557 1.398 . S
C558 C559 1.391 . S
C559 H547 0.950 . S
C559 C555 1.393 . S
C559 C558 1.391 . S
H560 C568 0.950 . S
H561 C573 0.950 . S
H562 C570 0.950 . S
H563 C572 0.950 . S
H564 C574 0.950 . S
H565 C576 0.950 . S
H566 C578 0.950 . S
H567 C579 0.950 . S
C568 H560 0.950 . S
C568 C569 1.386 . S
C568 C570 1.391 . S
C569 C568 1.386 . S
C569 C573 1.393 . S
C570 H562 0.950 . S
C570 C568 1.391 . S
C570 C571 1.400 . S
C571 C570 1.400 . S
C571 C572 1.398 . S
C571 C577 1.491 . S
C572 H563 0.950 . S
C572 C571 1.398 . S
C572 C573 1.391 . S
C573 H561 0.950 . S
C573 C569 1.393 . S
C573 C572 1.391 . S
C574 H564 0.950 . S
C574 C575 1.386 . S
C574 C576 1.391 . S
C575 C574 1.386 . S
C575 C579 1.393 . S
C576 H565 0.950 . S
C576 C574 1.391 . S
C576 C577 1.400 . S
C577 C571 1.491 . S
C577 C576 1.400 . S
C577 C578 1.398 . S
C578 H566 0.950 . S
C578 C577 1.398 . S
C578 C579 1.391 . S
C579 H567 0.950 . S
C579 C575 1.393 . S
C579 C578 1.391 . S
H580 C588 0.950 . S
H581 C593 0.950 . S
H582 C590 0.950 . S
H583 C592 0.950 . S
H584 C594 0.950 . S
H585 C596 0.950 . S
H586 C598 0.950 . S
H587 C599 0.950 . S
C588 H580 0.950 . S
C588 C589 1.386 . S
C588 C590 1.391 . S
C589 C588 1.386 . S
C589 C593 1.393 . S
C590 H582 0.950 . S
C590 C588 1.391 . S
C590 C591 1.400 . S
C591 C590 1.400 . S
C591 C592 1.398 . S
C591 C597 1.491 . S
C592 H583 0.950 . S
C592 C591 1.398 . S
C592 C593 1.391 . S
C593 H581 0.950 . S
C593 C589 1.393 . S
C593 C592 1.391 . S
C594 H584 0.950 . S
C594 C595 1.386 . S
C594 C596 1.391 . S
C595 C594 1.386 . S
C595 C599 1.393 . S
C596 H585 0.950 . S
C596 C594 1.391 . S
C596 C597 1.400 . S
C597 C591 1.491 . S
C597 C596 1.400 . S
C597 C598 1.398 . S
C598 H586 0.950 . S
C598 C597 1.398 . S
C598 C599 1.391 . S
C599 H587 0.950 . S
C599 C595 1.393 . S
C599 C598 1.391 . S
H600 C608 0.950 1_545 S
H601 C613 0.950 . S
H602 C610 0.950 1_556 S
H603 C612 0.950 1_455 S
H604 C614 0.950 1_565 S
H605 C616 0.950 1_554 S
H606 C618 0.950 1_655 S
H607 C619 0.950 . S
C608 H600 0.950 1_565 S
C608 C609 1.386 . S
C608 C610 1.391 1_565 S
C609 C608 1.386 . S
C609 C613 1.393 . S
C610 H602 0.950 1_554 S
C610 C608 1.391 1_545 S
C610 C611 1.400 1_545 S
C611 C610 1.400 1_565 S
C611 C612 1.398 . S
C611 C617 1.491 1_664 S
C612 H603 0.950 1_655 S
C612 C611 1.398 . S
C612 C613 1.391 . S
C613 H601 0.950 . S
C613 C609 1.393 . S
C613 C612 1.391 . S
C614 H604 0.950 1_545 S
C614 C615 1.386 . S
C614 C616 1.391 1_545 S
C615 C614 1.386 . S
C615 C619 1.393 . S
C616 H605 0.950 1_556 S
C616 C614 1.391 1_565 S
C616 C617 1.400 1_565 S
C617 C611 1.491 1_446 S
C617 C616 1.400 1_545 S
C617 C618 1.398 . S
C618 H606 0.950 1_455 S
C618 C617 1.398 . S
C618 C619 1.391 . S
C619 H607 0.950 . S
C619 C615 1.393 . S
C619 C618 1.391 . S
H620 C628 0.950 . S
H621 C633 0.950 . S
H622 C630 0.950 . S
H623 C632 0.950 1_545 S
H624 C634 0.950 . S
H625 C636 0.950 . S
H626 C638 0.950 1_565 S
H627 C639 0.950 . S
C628 H620 0.950 . S
C628 C629 1.386 . S
C628 C630 1.391 . S
C629 C628 1.386 . S
C629 C633 1.393 . S
C630 H622 0.950 . S
C630 C628 1.391 . S
C630 C631 1.400 . S
C631 C630 1.400 . S
C631 C632 1.398 . S
C631 C637 1.491 1_565 S
C632 H623 0.950 1_565 S
C632 C631 1.398 . S
C632 C633 1.391 . S
C633 H621 0.950 . S
C633 C629 1.393 . S
C633 C632 1.391 . S
C634 H624 0.950 . S
C634 C635 1.386 . S
C634 C636 1.391 . S
C635 C634 1.386 . S
C635 C639 1.393 . S
C636 H625 0.950 . S
C636 C634 1.391 . S
C636 C637 1.400 . S
C637 C631 1.491 1_545 S
C637 C636 1.400 . S
C637 C638 1.398 . S
C638 H626 0.950 1_545 S
C638 C637 1.398 . S
C638 C639 1.391 . S
C639 H627 0.950 . S
C639 C635 1.393 . S
C639 C638 1.391 . S
H640 C648 0.950 . S
H641 C653 0.950 . S
H642 C650 0.950 . S
H643 C652 0.949 1_554 S
H644 C654 0.950 . S
H645 C656 0.950 . S
H646 C658 0.950 1_556 S
H647 C659 0.950 . S
C648 H640 0.950 . S
C648 C649 1.386 . S
C648 C650 1.391 . S
C649 C648 1.386 . S
C649 C653 1.393 . S
C650 H642 0.950 . S
C650 C648 1.391 . S
C650 C651 1.400 . S
C651 C650 1.400 . S
C651 C652 1.398 . S
C651 C657 1.491 1_556 S
C652 H643 0.949 1_556 S
C652 C651 1.398 . S
C652 C653 1.391 . S
C653 H641 0.950 . S
C653 C649 1.393 . S
C653 C652 1.391 . S
C654 H644 0.950 . S
C654 C655 1.386 . S
C654 C656 1.391 . S
C655 C654 1.386 . S
C655 C659 1.393 . S
C656 H645 0.950 . S
C656 C654 1.391 . S
C656 C657 1.400 . S
C657 C651 1.491 1_554 S
C657 C656 1.400 . S
C657 C658 1.398 . S
C658 H646 0.950 1_554 S
C658 C657 1.398 . S
C658 C659 1.391 . S
C659 H647 0.950 . S
C659 C655 1.393 . S
C659 C658 1.391 . S
H660 C668 0.950 . S
H661 C673 0.950 . S
H662 C670 0.950 . S
H663 C672 0.950 . S
H664 C674 0.950 . S
H665 C676 0.950 . S
H666 C678 0.950 . S
H667 C679 0.950 . S
C668 H660 0.950 . S
C668 C669 1.386 . S
C668 C670 1.391 . S
C669 C668 1.386 . S
C669 C673 1.393 . S
C670 H662 0.950 . S
C670 C668 1.391 . S
C670 C671 1.400 . S
C671 C670 1.400 . S
C671 C672 1.398 . S
C671 C677 1.491 . S
C672 H663 0.950 . S
C672 C671 1.398 . S
C672 C673 1.391 . S
C673 H661 0.950 . S
C673 C669 1.393 . S
C673 C672 1.391 . S
C674 H664 0.950 . S
C674 C675 1.386 . S
C674 C676 1.391 . S
C675 C674 1.386 . S
C675 C679 1.393 . S
C676 H665 0.950 . S
C676 C674 1.391 . S
C676 C677 1.400 . S
C677 C671 1.491 . S
C677 C676 1.400 . S
C677 C678 1.398 . S
C678 H666 0.950 . S
C678 C677 1.398 . S
C678 C679 1.391 . S
C679 H667 0.950 . S
C679 C675 1.393 . S
C679 C678 1.391 . S
H680 C688 0.950 . S
H681 C693 0.950 . S
H682 C690 0.950 . S
H683 C692 0.950 . S
H684 C694 0.950 . S
H685 C696 0.950 . S
H686 C698 0.950 . S
H687 C699 0.950 . S
C688 H680 0.950 . S
C688 C689 1.386 . S
C688 C690 1.391 . S
C689 C688 1.386 . S
C689 C693 1.393 . S
C690 H682 0.950 . S
C690 C688 1.391 . S
C690 C691 1.400 . S
C691 C690 1.400 . S
C691 C692 1.398 . S
C691 C697 1.491 . S
C692 H683 0.950 . S
C692 C691 1.398 . S
C692 C693 1.391 . S
C693 H681 0.950 . S
C693 C689 1.393 . S
C693 C692 1.391 . S
C694 H684 0.950 . S
C694 C695 1.386 . S
C694 C696 1.391 . S
C695 C694 1.386 . S
C695 C699 1.393 . S
C696 H685 0.950 . S
C696 C694 1.391 . S
C696 C697 1.400 . S
C697 C691 1.491 . S
C697 C696 1.400 . S
C697 C698 1.398 . S
C698 H686 0.950 . S
C698 C697 1.398 . S
C698 C699 1.391 . S
C699 H687 0.950 . S
C699 C695 1.393 . S
C699 C698 1.391 . S
H700 C708 0.950 . S
H701 C713 0.950 . S
H702 C710 0.950 . S
H703 C712 0.950 . S
H704 C714 0.950 . S
H705 C716 0.950 . S
H706 C718 0.950 . S
H707 C719 0.950 . S
C708 H700 0.950 . S
C708 C709 1.386 . S
C708 C710 1.391 . S
C709 C708 1.386 . S
C709 C713 1.393 . S
C710 H702 0.950 . S
C710 C708 1.391 . S
C710 C711 1.400 . S
C711 C710 1.400 . S
C711 C712 1.398 . S
C711 C717 1.491 . S
C712 H703 0.950 . S
C712 C711 1.398 . S
C712 C713 1.391 . S
C713 H701 0.950 . S
C713 C709 1.393 . S
C713 C712 1.391 . S
C714 H704 0.950 . S
C714 C715 1.386 . S
C714 C716 1.391 . S
C715 C714 1.386 . S
C715 C719 1.393 . S
C716 H705 0.950 . S
C716 C714 1.391 . S
C716 C717 1.400 . S
C717 C711 1.491 . S
C717 C716 1.400 . S
C717 C718 1.398 . S
C718 H706 0.950 . S
C718 C717 1.398 . S
C718 C719 1.391 . S
C719 H707 0.950 . S
C719 C715 1.393 . S
C719 C718 1.391 . S
H720 C728 0.950 . S
H721 C733 0.950 . S
H722 C730 0.950 1_556 S
H723 C732 0.950 . S
H724 C734 0.950 . S
H725 C736 0.950 1_554 S
H726 C738 0.950 . S
H727 C739 0.950 . S
C728 H720 0.950 . S
C728 C729 1.386 . S
C728 C730 1.391 . S
C729 C728 1.386 . S
C729 C733 1.393 . S
C730 H722 0.950 1_554 S
C730 C728 1.391 . S
C730 C731 1.400 . S
C731 C730 1.400 . S
C731 C732 1.398 . S
C731 C737 1.491 1_554 S
C732 H723 0.950 . S
C732 C731 1.398 . S
C732 C733 1.391 . S
C733 H721 0.950 . S
C733 C729 1.393 . S
C733 C732 1.391 . S
C734 H724 0.950 . S
C734 C735 1.386 . S
C734 C736 1.391 . S
C735 C734 1.386 . S
C735 C739 1.393 . S
C736 H725 0.950 1_556 S
C736 C734 1.391 . S
C736 C737 1.400 . S
C737 C731 1.491 1_556 S
C737 C736 1.400 . S
C737 C738 1.398 . S
C738 H726 0.950 . S
C738 C737 1.398 . S
C738 C739 1.391 . S
C739 H727 0.950 . S
C739 C735 1.393 . S
C739 C738 1.391 . S
H740 C748 0.950 . S
H741 C753 0.950 . S
H742 C750 0.950 . S
H743 C752 0.950 . S
H744 C754 0.950 . S
H745 C756 0.950 . S
H746 C758 0.950 . S
H747 C759 0.950 . S
C748 H740 0.950 . S
C748 C749 1.386 . S
C748 C750 1.391 . S
C749 C748 1.386 . S
C749 C753 1.393 . S
C750 H742 0.950 . S
C750 C748 1.391 . S
C750 C751 1.400 . S
C751 C750 1.400 . S
C751 C752 1.398 . S
C751 C757 1.491 . S
C752 H743 0.950 . S
C752 C751 1.398 . S
C752 C753 1.391 . S
C753 H741 0.950 . S
C753 C749 1.393 . S
C753 C752 1.391 . S
C754 H744 0.950 . S
C754 C755 1.386 . S
C754 C756 1.391 . S
C755 C754 1.386 . S
C755 C759 1.393 . S
C756 H745 0.950 . S
C756 C754 1.391 . S
C756 C757 1.400 . S
C757 C751 1.491 . S
C757 C756 1.400 . S
C757 C758 1.398 . S
C758 H746 0.950 . S
C758 C757 1.398 . S
C758 C759 1.391 . S
C759 H747 0.950 . S
C759 C755 1.393 . S
C759 C758 1.391 . S
H760 C768 0.950 . S
H761 C773 0.950 . S
H762 C770 0.950 . S
H763 C772 0.950 . S
H764 C774 0.950 . S
H765 C776 0.950 . S
H766 C778 0.950 . S
H767 C779 0.950 . S
C768 H760 0.950 . S
C768 C769 1.386 . S
C768 C770 1.391 . S
C769 C768 1.386 . S
C769 C773 1.393 . S
C770 H762 0.950 . S
C770 C768 1.391 . S
C770 C771 1.400 . S
C771 C770 1.400 . S
C771 C772 1.398 . S
C771 C777 1.491 . S
C772 H763 0.950 . S
C772 C771 1.398 . S
C772 C773 1.391 . S
C773 H761 0.950 . S
C773 C769 1.393 . S
C773 C772 1.391 . S
C774 H764 0.950 . S
C774 C775 1.386 . S
C774 C776 1.391 . S
C775 C774 1.386 . S
C775 C779 1.393 . S
C776 H765 0.950 . S
C776 C774 1.391 . S
C776 C777 1.400 . S
C777 C771 1.491 . S
C777 C776 1.400 . S
C777 C778 1.398 . S
C778 H766 0.950 . S
C778 C777 1.398 . S
C778 C779 1.391 . S
C779 H767 0.950 . S
C779 C775 1.393 . S
C779 C778 1.391 . S
H780 C788 0.950 . S
H781 C793 0.950 . S
H782 C790 0.950 . S
H783 C792 0.950 . S
H784 C794 0.950 . S
H785 C796 0.950 . S
H786 C798 0.950 . S
H787 C799 0.950 . S
C788 H780 0.950 . S
C788 C789 1.386 . S
C788 C790 1.391 . S
C789 C788 1.386 . S
C789 C793 1.393 . S
C790 H782 0.950 . S
C790 C788 1.391 . S
C790 C791 1.400 . S
C791 C790 1.400 . S
C791 C792 1.398 . S
C791 C797 1.491 . S
C792 H783 0.950 . S
C792 C791 1.398 . S
C792 C793 1.391 . S
C793 H781 0.950 . S
C793 C789 1.393 . S
C793 C792 1.391 . S
C794 H784 0.950 . S
C794 C795 1.386 . S
C794 C796 1.391 . S
C795 C794 1.386 . S
C795 C799 1.393 . S
C796 H785 0.950 . S
C796 C794 1.391 . S
C796 C797 1.400 . S
C797 C791 1.491 . S
C797 C796 1.400 . S
C797 C798 1.398 . S
C798 H786 0.950 . S
C798 C797 1.398 . S
C798 C799 1.391 . S
C799 H787 0.950 . S
C799 C795 1.393 . S
C799 C798 1.391 . S
H800 C808 0.950 . S
H801 C813 0.950 . S
H802 C810 0.950 . S
H803 C812 0.950 . S
H804 C814 0.950 . S
H805 C816 0.950 . S
H806 C818 0.950 . S
H807 C819 0.950 . S
C808 H800 0.950 . S
C808 C809 1.386 . S
C808 C810 1.391 . S
C809 C808 1.386 . S
C809 C813 1.393 . S
C810 H802 0.950 . S
C810 C808 1.391 . S
C810 C811 1.400 . S
C811 C810 1.400 . S
C811 C812 1.398 . S
C811 C817 1.491 . S
C812 H803 0.950 . S
C812 C811 1.398 . S
C812 C813 1.391 . S
C813 H801 0.950 . S
C813 C809 1.393 . S
C813 C812 1.391 . S
C814 H804 0.950 . S
C814 C815 1.386 . S
C814 C816 1.391 . S
C815 C814 1.386 . S
C815 C819 1.393 . S
C816 H805 0.950 . S
C816 C814 1.391 . S
C816 C817 1.400 . S
C817 C811 1.491 . S
C817 C816 1.400 . S
C817 C818 1.398 . S
C818 H806 0.950 . S
C818 C817 1.398 . S
C818 C819 1.391 . S
C819 H807 0.950 . S
C819 C815 1.393 . S
C819 C818 1.391 . S
H820 C828 0.950 . S
H821 C833 0.950 . S
H822 C830 0.950 . S
H823 C832 0.950 . S
H824 C834 0.950 . S
H825 C836 0.950 . S
H826 C838 0.950 . S
H827 C839 0.950 . S
C828 H820 0.950 . S
C828 C829 1.386 1_565 S
C828 C830 1.391 . S
C829 C828 1.386 1_545 S
C829 C833 1.393 . S
C830 H822 0.950 . S
C830 C828 1.391 . S
C830 C831 1.400 . S
C831 C830 1.400 . S
C831 C832 1.398 1_565 S
C831 C837 1.491 . S
C832 H823 0.950 . S
C832 C831 1.398 1_545 S
C832 C833 1.391 . S
C833 H821 0.950 . S
C833 C829 1.393 . S
C833 C832 1.391 . S
C834 H824 0.950 . S
C834 C835 1.386 . S
C834 C836 1.391 . S
C835 C834 1.386 . S
C835 C839 1.393 . S
C836 H825 0.950 . S
C836 C834 1.391 . S
C836 C837 1.400 . S
C837 C831 1.491 . S
C837 C836 1.400 . S
C837 C838 1.398 . S
C838 H826 0.950 . S
C838 C837 1.398 . S
C838 C839 1.391 . S
C839 H827 0.950 . S
C839 C835 1.393 . S
C839 C838 1.391 . S
H840 C848 0.950 . S
H841 C853 0.950 . S
H842 C850 0.950 . S
H843 C852 0.950 . S
H844 C854 0.950 . S
H845 C856 0.950 . S
H846 C858 0.950 . S
H847 C859 0.950 . S
C848 H840 0.950 . S
C848 C849 1.386 . S
C848 C850 1.391 . S
C849 C848 1.386 . S
C849 C853 1.393 . S
C850 H842 0.950 . S
C850 C848 1.391 . S
C850 C851 1.400 . S
C851 C850 1.400 . S
C851 C852 1.398 . S
C851 C857 1.491 1_554 S
C852 H843 0.950 . S
C852 C851 1.398 . S
C852 C853 1.391 . S
C853 H841 0.950 . S
C853 C849 1.393 . S
C853 C852 1.391 . S
C854 H844 0.950 . S
C854 C855 1.386 . S
C854 C856 1.391 . S
C855 C854 1.386 . S
C855 C859 1.393 . S
C856 H845 0.950 . S
C856 C854 1.391 . S
C856 C857 1.400 . S
C857 C851 1.491 1_556 S
C857 C856 1.400 . S
C857 C858 1.398 . S
C858 H846 0.950 . S
C858 C857 1.398 . S
C858 C859 1.391 . S
C859 H847 0.950 . S
C859 C855 1.393 . S
C859 C858 1.391 . S
H860 C868 0.950 . S
H861 C873 0.950 . S
H862 C870 0.950 . S
H863 C872 0.950 . S
H864 C874 0.950 . S
H865 C876 0.950 . S
H866 C878 0.950 . S
H867 C879 0.950 . S
C868 H860 0.950 . S
C868 C869 1.386 . S
C868 C870 1.391 . S
C869 C868 1.386 . S
C869 C873 1.393 . S
C870 H862 0.950 . S
C870 C868 1.391 . S
C870 C871 1.400 . S
C871 C870 1.400 . S
C871 C872 1.398 . S
C871 C877 1.491 . S
C872 H863 0.950 . S
C872 C871 1.398 . S
C872 C873 1.391 . S
C873 H861 0.950 . S
C873 C869 1.393 . S
C873 C872 1.391 . S
C874 H864 0.950 . S
C874 C875 1.386 . S
C874 C876 1.391 . S
C875 C874 1.386 . S
C875 C879 1.393 1_565 S
C876 H865 0.950 . S
C876 C874 1.391 . S
C876 C877 1.400 1_565 S
C877 C871 1.491 . S
C877 C876 1.400 1_545 S
C877 C878 1.398 . S
C878 H866 0.950 . S
C878 C877 1.398 . S
C878 C879 1.391 . S
C879 H867 0.950 . S
C879 C875 1.393 1_545 S
C879 C878 1.391 . S
H880 C888 0.950 . S
H881 C893 0.950 . S
H882 C890 0.950 . S
H883 C892 0.950 . S
H884 C894 0.950 . S
H885 C896 0.950 . S
H886 C898 0.950 . S
H887 C899 0.950 . S
C888 H880 0.950 . S
C888 C889 1.386 . S
C888 C890 1.391 . S
C889 C888 1.386 . S
C889 C893 1.393 . S
C890 H882 0.950 . S
C890 C888 1.391 . S
C890 C891 1.400 . S
C891 C890 1.400 . S
C891 C892 1.398 . S
C891 C897 1.491 . S
C892 H883 0.950 . S
C892 C891 1.398 . S
C892 C893 1.391 . S
C893 H881 0.950 . S
C893 C889 1.393 . S
C893 C892 1.391 . S
C894 H884 0.950 . S
C894 C895 1.386 . S
C894 C896 1.391 . S
C895 C894 1.386 . S
C895 C899 1.393 . S
C896 H885 0.950 . S
C896 C894 1.391 . S
C896 C897 1.400 . S
C897 C891 1.491 . S
C897 C896 1.400 . S
C897 C898 1.398 . S
C898 H886 0.950 . S
C898 C897 1.398 . S
C898 C899 1.391 . S
C899 H887 0.950 . S
C899 C895 1.393 . S
C899 C898 1.391 . S
H900 C908 0.950 . S
H901 C913 0.950 . S
H902 C910 0.950 . S
H903 C912 0.950 . S
H904 C914 0.950 . S
H905 C916 0.950 . S
H906 C918 0.950 . S
H907 C919 0.950 . S
C908 H900 0.950 . S
C908 C909 1.386 1_545 S
C908 C910 1.391 . S
C909 C908 1.386 1_565 S
C909 C913 1.393 . S
C910 H902 0.950 . S
C910 C908 1.391 . S
C910 C911 1.400 . S
C911 C910 1.400 . S
C911 C912 1.398 1_545 S
C911 C917 1.491 . S
C912 H903 0.950 . S
C912 C911 1.398 1_565 S
C912 C913 1.391 . S
C913 H901 0.950 . S
C913 C909 1.393 . S
C913 C912 1.391 . S
C914 H904 0.950 . S
C914 C915 1.386 . S
C914 C916 1.391 . S
C915 C914 1.386 . S
C915 C919 1.393 . S
C916 H905 0.950 . S
C916 C914 1.391 . S
C916 C917 1.400 . S
C917 C911 1.491 . S
C917 C916 1.400 . S
C917 C918 1.398 . S
C918 H906 0.950 . S
C918 C917 1.398 . S
C918 C919 1.391 . S
C919 H907 0.950 . S
C919 C915 1.393 . S
C919 C918 1.391 . S
H920 C928 0.950 . S
H921 C933 0.950 . S
H922 C930 0.950 . S
H923 C932 0.950 . S
H924 C934 0.950 . S
H925 C936 0.950 . S
H926 C938 0.950 . S
H927 C939 0.950 . S
C928 H920 0.950 . S
C928 C929 1.386 . S
C928 C930 1.391 . S
C929 C928 1.386 . S
C929 C933 1.393 . S
C930 H922 0.950 . S
C930 C928 1.391 . S
C930 C931 1.400 . S
C931 C930 1.400 . S
C931 C932 1.398 . S
C931 C937 1.491 1_554 S
C932 H923 0.950 . S
C932 C931 1.398 . S
C932 C933 1.391 . S
C933 H921 0.950 . S
C933 C929 1.393 . S
C933 C932 1.391 . S
C934 H924 0.950 . S
C934 C935 1.386 . S
C934 C936 1.391 . S
C935 C934 1.386 . S
C935 C939 1.393 . S
C936 H925 0.950 . S
C936 C934 1.391 . S
C936 C937 1.400 . S
C937 C931 1.491 1_556 S
C937 C936 1.400 . S
C937 C938 1.398 . S
C938 H926 0.950 . S
C938 C937 1.398 . S
C938 C939 1.391 . S
C939 H927 0.950 . S
C939 C935 1.393 . S
C939 C938 1.391 . S
H940 C948 0.950 . S
H941 C953 0.950 . S
H942 C950 0.950 . S
H943 C952 0.950 . S
H944 C954 0.950 . S
H945 C956 0.950 . S
H946 C958 0.950 . S
H947 C959 0.950 . S
C948 H940 0.950 . S
C948 C949 1.386 . S
C948 C950 1.391 . S
C949 C948 1.386 . S
C949 C953 1.393 1_545 S
C950 H942 0.950 . S
C950 C948 1.391 . S
C950 C951 1.400 1_545 S
C951 C950 1.400 1_565 S
C951 C952 1.398 . S
C951 C957 1.491 . S
C952 H943 0.950 . S
C952 C951 1.398 . S
C952 C953 1.391 . S
C953 H941 0.950 . S
C953 C949 1.393 1_565 S
C953 C952 1.391 . S
C954 H944 0.950 . S
C954 C955 1.386 . S
C954 C956 1.391 . S
C955 C954 1.386 . S
C955 C959 1.393 . S
C956 H945 0.950 . S
C956 C954 1.391 . S
C956 C957 1.400 . S
C957 C951 1.491 . S
C957 C956 1.400 . S
C957 C958 1.398 . S
C958 H946 0.950 . S
C958 C957 1.398 . S
C958 C959 1.391 . S
C959 H947 0.950 . S
C959 C955 1.393 . S
C959 C958 1.391 . S
H960 C968 0.950 . S
H961 C973 0.950 . S
H962 C970 0.950 . S
H963 C972 0.950 . S
H964 C974 0.950 . S
H965 C976 0.950 . S
H966 C978 0.950 . S
H967 C979 0.950 . S
C968 H960 0.950 . S
C968 C969 1.386 . S
C968 C970 1.391 . S
C969 C968 1.386 . S
C969 C973 1.393 . S
C970 H962 0.950 . S
C970 C968 1.391 . S
C970 C971 1.400 . S
C971 C970 1.400 . S
C971 C972 1.398 . S
C971 C977 1.491 . S
C972 H963 0.950 . S
C972 C971 1.398 . S
C972 C973 1.391 . S
C973 H961 0.950 . S
C973 C969 1.393 . S
C973 C972 1.391 . S
C974 H964 0.950 . S
C974 C975 1.386 . S
C974 C976 1.391 . S
C975 C974 1.386 . S
C975 C979 1.393 . S
C976 H965 0.950 . S
C976 C974 1.391 . S
C976 C977 1.400 . S
C977 C971 1.491 . S
C977 C976 1.400 . S
C977 C978 1.398 . S
C978 H966 0.950 . S
C978 C977 1.398 . S
C978 C979 1.391 . S
C979 H967 0.950 . S
C979 C975 1.393 . S
C979 C978 1.391 . S
H980 C988 0.950 . S
H981 C993 0.950 . S
H982 C990 0.950 . S
H983 C992 0.950 . S
H984 C994 0.950 . S
H985 C996 0.950 . S
H986 C998 0.950 . S
H987 C999 0.950 . S
C988 H980 0.950 . S
C988 C989 1.386 . S
C988 C990 1.391 . S
C989 C988 1.386 . S
C989 C993 1.393 . S
C990 H982 0.950 . S
C990 C988 1.391 . S
C990 C991 1.400 . S
C991 C990 1.400 . S
C991 C992 1.398 . S
C991 C997 1.491 . S
C992 H983 0.950 . S
C992 C991 1.398 . S
C992 C993 1.391 . S
C993 H981 0.950 . S
C993 C989 1.393 . S
C993 C992 1.391 . S
C994 H984 0.950 . S
C994 C995 1.386 . S
C994 C996 1.391 . S
C995 C994 1.386 . S
C995 C999 1.393 . S
C996 H985 0.950 . S
C996 C994 1.391 . S
C996 C997 1.400 . S
C997 C991 1.491 . S
C997 C996 1.400 . S
C997 C998 1.398 . S
C998 H986 0.950 . S
C998 C997 1.398 . S
C998 C999 1.391 . S
C999 H987 0.950 . S
C999 C995 1.393 . S
C999 C998 1.391 . S
H1000 C1008 0.950 . S
H1001 C1013 0.950 . S
H1002 C1010 0.950 . S
H1003 C1012 0.950 . S
H1004 C1014 0.950 . S
H1005 C1016 0.950 . S
H1006 C1018 0.950 . S
H1007 C1019 0.950 . S
C1008 H1000 0.950 . S
C1008 C1009 1.386 . S
C1008 C1010 1.391 . S
C1009 C1008 1.386 . S
C1009 C1013 1.393 . S
C1010 H1002 0.950 . S
C1010 C1008 1.391 . S
C1010 C1011 1.400 . S
C1011 C1010 1.400 . S
C1011 C1012 1.398 . S
C1011 C1017 1.491 1_655 S
C1012 H1003 0.950 . S
C1012 C1011 1.398 . S
C1012 C1013 1.391 . S
C1013 H1001 0.950 . S
C1013 C1009 1.393 . S
C1013 C1012 1.391 . S
C1014 H1004 0.950 . S
C1014 C1015 1.386 . S
C1014 C1016 1.391 . S
C1015 C1014 1.386 . S
C1015 C1019 1.393 . S
C1016 H1005 0.950 . S
C1016 C1014 1.391 . S
C1016 C1017 1.400 . S
C1017 C1011 1.491 1_455 S
C1017 C1016 1.400 . S
C1017 C1018 1.398 . S
C1018 H1006 0.950 . S
C1018 C1017 1.398 . S
C1018 C1019 1.391 . S
C1019 H1007 0.950 . S
C1019 C1015 1.393 . S
C1019 C1018 1.391 . S
H1020 C1028 0.950 . S
H1021 C1033 0.950 . S
H1022 C1030 0.950 . S
H1023 C1032 0.950 1_455 S
H1024 C1034 0.950 . S
H1025 C1036 0.950 . S
H1026 C1038 0.950 1_655 S
H1027 C1039 0.950 . S
C1028 H1020 0.950 . S
C1028 C1029 1.386 . S
C1028 C1030 1.391 . S
C1029 C1028 1.386 . S
C1029 C1033 1.393 . S
C1030 H1022 0.950 . S
C1030 C1028 1.391 . S
C1030 C1031 1.400 . S
C1031 C1030 1.400 . S
C1031 C1032 1.398 . S
C1031 C1037 1.491 1_655 S
C1032 H1023 0.950 1_655 S
C1032 C1031 1.398 . S
C1032 C1033 1.391 . S
C1033 H1021 0.950 . S
C1033 C1029 1.393 . S
C1033 C1032 1.391 . S
C1034 H1024 0.950 . S
C1034 C1035 1.386 . S
C1034 C1036 1.391 . S
C1035 C1034 1.386 . S
C1035 C1039 1.393 . S
C1036 H1025 0.950 . S
C1036 C1034 1.391 . S
C1036 C1037 1.400 . S
C1037 C1031 1.491 1_455 S
C1037 C1036 1.400 . S
C1037 C1038 1.398 . S
C1038 H1026 0.950 1_455 S
C1038 C1037 1.398 . S
C1038 C1039 1.391 . S
C1039 H1027 0.950 . S
C1039 C1035 1.393 . S
C1039 C1038 1.391 . S
H1040 C1048 0.950 . S
H1041 C1053 0.950 . S
H1042 C1050 0.950 . S
H1043 C1052 0.950 . S
H1044 C1054 0.950 . S
H1045 C1056 0.950 . S
H1046 C1058 0.950 . S
H1047 C1059 0.950 . S
C1048 H1040 0.950 . S
C1048 C1049 1.386 . S
C1048 C1050 1.391 . S
C1049 C1048 1.386 . S
C1049 C1053 1.393 . S
C1050 H1042 0.950 . S
C1050 C1048 1.391 . S
C1050 C1051 1.400 . S
C1051 C1050 1.400 . S
C1051 C1052 1.398 . S
C1051 C1057 1.491 . S
C1052 H1043 0.950 . S
C1052 C1051 1.398 . S
C1052 C1053 1.391 . S
C1053 H1041 0.950 . S
C1053 C1049 1.393 . S
C1053 C1052 1.391 . S
C1054 H1044 0.950 . S
C1054 C1055 1.386 . S
C1054 C1056 1.391 . S
C1055 C1054 1.386 . S
C1055 C1059 1.393 . S
C1056 H1045 0.950 . S
C1056 C1054 1.391 . S
C1056 C1057 1.400 . S
C1057 C1051 1.491 . S
C1057 C1056 1.400 . S
C1057 C1058 1.398 . S
C1058 H1046 0.950 . S
C1058 C1057 1.398 . S
C1058 C1059 1.391 . S
C1059 H1047 0.950 . S
C1059 C1055 1.393 . S
C1059 C1058 1.391 . S
H1060 C1068 0.950 . S
H1061 C1073 0.950 . S
H1062 C1070 0.950 . S
H1063 C1072 0.950 . S
H1064 C1074 0.950 . S
H1065 C1076 0.950 . S
H1066 C1078 0.950 . S
H1067 C1079 0.950 . S
C1068 H1060 0.950 . S
C1068 C1069 1.386 . S
C1068 C1070 1.391 . S
C1069 C1068 1.386 . S
C1069 C1073 1.393 . S
C1070 H1062 0.950 . S
C1070 C1068 1.391 . S
C1070 C1071 1.400 . S
C1071 C1070 1.400 . S
C1071 C1072 1.398 . S
C1071 C1077 1.491 . S
C1072 H1063 0.950 . S
C1072 C1071 1.398 . S
C1072 C1073 1.391 . S
C1073 H1061 0.950 . S
C1073 C1069 1.393 . S
C1073 C1072 1.391 . S
C1074 H1064 0.950 . S
C1074 C1075 1.386 . S
C1074 C1076 1.391 . S
C1075 C1074 1.386 . S
C1075 C1079 1.393 . S
C1076 H1065 0.950 . S
C1076 C1074 1.391 . S
C1076 C1077 1.400 . S
C1077 C1071 1.491 . S
C1077 C1076 1.400 . S
C1077 C1078 1.398 . S
C1078 H1066 0.950 . S
C1078 C1077 1.398 . S
C1078 C1079 1.391 . S
C1079 H1067 0.950 . S
C1079 C1075 1.393 . S
C1079 C1078 1.391 . S
H1080 C1088 0.950 . S
H1081 C1093 0.950 . S
H1082 C1090 0.950 . S
H1083 C1092 0.950 . S
H1084 C1094 0.950 . S
H1085 C1096 0.950 . S
H1086 C1098 0.950 . S
H1087 C1099 0.950 . S
C1088 H1080 0.950 . S
C1088 C1089 1.386 . S
C1088 C1090 1.391 . S
C1089 C1088 1.386 . S
C1089 C1093 1.393 . S
C1090 H1082 0.950 . S
C1090 C1088 1.391 . S
C1090 C1091 1.400 . S
C1091 C1090 1.400 . S
C1091 C1092 1.398 . S
C1091 C1097 1.491 1_455 S
C1092 H1083 0.950 . S
C1092 C1091 1.398 . S
C1092 C1093 1.391 . S
C1093 H1081 0.950 . S
C1093 C1089 1.393 . S
C1093 C1092 1.391 . S
C1094 H1084 0.950 . S
C1094 C1095 1.386 . S
C1094 C1096 1.391 . S
C1095 C1094 1.386 . S
C1095 C1099 1.393 . S
C1096 H1085 0.950 . S
C1096 C1094 1.391 . S
C1096 C1097 1.400 . S
C1097 C1091 1.491 1_655 S
C1097 C1096 1.400 . S
C1097 C1098 1.398 . S
C1098 H1086 0.950 . S
C1098 C1097 1.398 . S
C1098 C1099 1.391 . S
C1099 H1087 0.950 . S
C1099 C1095 1.393 . S
C1099 C1098 1.391 . S
H1100 C1108 0.950 . S
H1101 C1113 0.950 1_655 S
H1102 C1110 0.950 . S
H1103 C1112 0.950 . S
H1104 C1114 0.950 . S
H1105 C1116 0.950 . S
H1106 C1118 0.950 . S
H1107 C1119 0.950 1_455 S
C1108 H1100 0.950 . S
C1108 C1109 1.386 . S
C1108 C1110 1.391 . S
C1109 C1108 1.386 . S
C1109 C1113 1.393 . S
C1110 H1102 0.950 . S
C1110 C1108 1.391 . S
C1110 C1111 1.400 . S
C1111 C1110 1.400 . S
C1111 C1112 1.398 1_455 S
C1111 C1117 1.491 1_455 S
C1112 H1103 0.950 . S
C1112 C1111 1.398 1_655 S
C1112 C1113 1.391 1_655 S
C1113 H1101 0.950 1_455 S
C1113 C1109 1.393 . S
C1113 C1112 1.391 1_455 S
C1114 H1104 0.950 . S
C1114 C1115 1.386 . S
C1114 C1116 1.391 . S
C1115 C1114 1.386 . S
C1115 C1119 1.393 . S
C1116 H1105 0.950 . S
C1116 C1114 1.391 . S
C1116 C1117 1.400 . S
C1117 C1111 1.491 1_655 S
C1117 C1116 1.400 . S
C1117 C1118 1.398 1_655 S
C1118 H1106 0.950 . S
C1118 C1117 1.398 1_455 S
C1118 C1119 1.391 1_455 S
C1119 H1107 0.950 1_655 S
C1119 C1115 1.393 . S
C1119 C1118 1.391 1_655 S
H1120 C1128 0.950 . S
H1121 C1133 0.950 . S
H1122 C1130 0.950 . S
H1123 C1132 0.950 . S
H1124 C1134 0.950 . S
H1125 C1136 0.950 . S
H1126 C1138 0.950 . S
H1127 C1139 0.950 . S
C1128 H1120 0.950 . S
C1128 C1129 1.386 . S
C1128 C1130 1.391 . S
C1129 C1128 1.386 . S
C1129 C1133 1.393 . S
C1130 H1122 0.950 . S
C1130 C1128 1.391 . S
C1130 C1131 1.400 . S
C1131 C1130 1.400 . S
C1131 C1132 1.398 . S
C1131 C1137 1.491 . S
C1132 H1123 0.950 . S
C1132 C1131 1.398 . S
C1132 C1133 1.391 . S
C1133 H1121 0.950 . S
C1133 C1129 1.393 . S
C1133 C1132 1.391 . S
C1134 H1124 0.950 . S
C1134 C1135 1.386 . S
C1134 C1136 1.391 . S
C1135 C1134 1.386 . S
C1135 C1139 1.393 . S
C1136 H1125 0.950 . S
C1136 C1134 1.391 . S
C1136 C1137 1.400 . S
C1137 C1131 1.491 . S
C1137 C1136 1.400 . S
C1137 C1138 1.398 . S
C1138 H1126 0.950 . S
C1138 C1137 1.398 . S
C1138 C1139 1.391 . S
C1139 H1127 0.950 . S
C1139 C1135 1.393 . S
C1139 C1138 1.391 . S
H1140 C1148 0.950 . S
H1141 C1153 0.950 . S
H1142 C1150 0.950 . S
H1143 C1152 0.950 . S
H1144 C1154 0.950 . S
H1145 C1156 0.950 . S
H1146 C1158 0.950 . S
H1147 C1159 0.950 . S
C1148 H1140 0.950 . S
C1148 C1149 1.386 . S
C1148 C1150 1.391 . S
C1149 C1148 1.386 . S
C1149 C1153 1.393 . S
C1150 H1142 0.950 . S
C1150 C1148 1.391 . S
C1150 C1151 1.400 . S
C1151 C1150 1.400 . S
C1151 C1152 1.398 . S
C1151 C1157 1.491 . S
C1152 H1143 0.950 . S
C1152 C1151 1.398 . S
C1152 C1153 1.391 . S
C1153 H1141 0.950 . S
C1153 C1149 1.393 . S
C1153 C1152 1.391 . S
C1154 H1144 0.950 . S
C1154 C1155 1.386 . S
C1154 C1156 1.391 . S
C1155 C1154 1.386 . S
C1155 C1159 1.393 . S
C1156 H1145 0.950 . S
C1156 C1154 1.391 . S
C1156 C1157 1.400 . S
C1157 C1151 1.491 . S
C1157 C1156 1.400 . S
C1157 C1158 1.398 . S
C1158 H1146 0.950 . S
C1158 C1157 1.398 . S
C1158 C1159 1.391 . S
C1159 H1147 0.950 . S
C1159 C1155 1.393 . S
C1159 C1158 1.391 . S
H1160 C1168 0.950 . S
H1161 C1173 0.950 . S
H1162 C1170 0.950 . S
H1163 C1172 0.950 . S
H1164 C1174 0.950 . S
H1165 C1176 0.950 . S
H1166 C1178 0.950 . S
H1167 C1179 0.950 . S
C1168 H1160 0.950 . S
C1168 C1169 1.386 . S
C1168 C1170 1.391 . S
C1169 C1168 1.386 . S
C1169 C1173 1.393 . S
C1170 H1162 0.950 . S
C1170 C1168 1.391 . S
C1170 C1171 1.400 . S
C1171 C1170 1.400 . S
C1171 C1172 1.398 . S
C1171 C1177 1.491 . S
C1172 H1163 0.950 . S
C1172 C1171 1.398 . S
C1172 C1173 1.391 . S
C1173 H1161 0.950 . S
C1173 C1169 1.393 . S
C1173 C1172 1.391 . S
C1174 H1164 0.950 . S
C1174 C1175 1.386 . S
C1174 C1176 1.391 . S
C1175 C1174 1.386 . S
C1175 C1179 1.393 . S
C1176 H1165 0.950 . S
C1176 C1174 1.391 . S
C1176 C1177 1.400 . S
C1177 C1171 1.491 . S
C1177 C1176 1.400 . S
C1177 C1178 1.398 . S
C1178 H1166 0.950 . S
C1178 C1177 1.398 . S
C1178 C1179 1.391 . S
C1179 H1167 0.950 . S
C1179 C1175 1.393 . S
C1179 C1178 1.391 . S
H1180 C1188 0.950 . S
H1181 C1193 0.950 . S
H1182 C1190 0.950 . S
H1183 C1192 0.950 . S
H1184 C1194 0.950 . S
H1185 C1196 0.950 . S
H1186 C1198 0.950 . S
H1187 C1199 0.950 . S
C1188 H1180 0.950 . S
C1188 C1189 1.386 . S
C1188 C1190 1.391 1_655 S
C1189 C1188 1.386 . S
C1189 C1193 1.393 . S
C1190 H1182 0.950 . S
C1190 C1188 1.391 1_455 S
C1190 C1191 1.400 . S
C1191 C1190 1.400 . S
C1191 C1192 1.398 . S
C1191 C1197 1.491 . S
C1192 H1183 0.950 . S
C1192 C1191 1.398 . S
C1192 C1193 1.391 1_455 S
C1193 H1181 0.950 . S
C1193 C1189 1.393 . S
C1193 C1192 1.391 1_655 S
C1194 H1184 0.950 . S
C1194 C1195 1.386 . S
C1194 C1196 1.391 . S
C1195 C1194 1.386 . S
C1195 C1199 1.393 . S
C1196 H1185 0.950 . S
C1196 C1194 1.391 . S
C1196 C1197 1.400 . S
C1197 C1191 1.491 . S
C1197 C1196 1.400 . S
C1197 C1198 1.398 . S
C1198 H1186 0.950 . S
C1198 C1197 1.398 . S
C1198 C1199 1.391 . S
C1199 H1187 0.950 . S
C1199 C1195 1.393 . S
C1199 C1198 1.391 . S
H1200 C1208 0.950 . S
H1201 C1213 0.950 . S
H1202 C1210 0.950 . S
H1203 C1212 0.950 . S
H1204 C1214 0.950 . S
H1205 C1216 0.950 . S
H1206 C1218 0.950 . S
H1207 C1219 0.950 . S
C1208 H1200 0.950 . S
C1208 C1209 1.386 . S
C1208 C1210 1.391 . S
C1209 C1208 1.386 . S
C1209 C1213 1.393 . S
C1210 H1202 0.950 . S
C1210 C1208 1.391 . S
C1210 C1211 1.400 . S
C1211 C1210 1.400 . S
C1211 C1212 1.398 . S
C1211 C1217 1.491 . S
C1212 H1203 0.950 . S
C1212 C1211 1.398 . S
C1212 C1213 1.391 . S
C1213 H1201 0.950 . S
C1213 C1209 1.393 . S
C1213 C1212 1.391 . S
C1214 H1204 0.950 . S
C1214 C1215 1.386 . S
C1214 C1216 1.391 . S
C1215 C1214 1.386 . S
C1215 C1219 1.393 . S
C1216 H1205 0.950 . S
C1216 C1214 1.391 . S
C1216 C1217 1.400 . S
C1217 C1211 1.491 . S
C1217 C1216 1.400 . S
C1217 C1218 1.398 . S
C1218 H1206 0.950 . S
C1218 C1217 1.398 . S
C1218 C1219 1.391 . S
C1219 H1207 0.950 . S
C1219 C1215 1.393 . S
C1219 C1218 1.391 . S
H1220 C1228 0.950 . S
H1221 C1233 0.950 . S
H1222 C1230 0.950 . S
H1223 C1232 0.950 . S
H1224 C1234 0.950 . S
H1225 C1236 0.950 . S
H1226 C1238 0.950 . S
H1227 C1239 0.950 . S
C1228 H1220 0.950 . S
C1228 C1229 1.386 . S
C1228 C1230 1.391 . S
C1229 C1228 1.386 . S
C1229 C1233 1.393 . S
C1230 H1222 0.950 . S
C1230 C1228 1.391 . S
C1230 C1231 1.400 . S
C1231 C1230 1.400 . S
C1231 C1232 1.398 . S
C1231 C1237 1.491 . S
C1232 H1223 0.950 . S
C1232 C1231 1.398 . S
C1232 C1233 1.391 . S
C1233 H1221 0.950 . S
C1233 C1229 1.393 . S
C1233 C1232 1.391 . S
C1234 H1224 0.950 . S
C1234 C1235 1.386 . S
C1234 C1236 1.391 . S
C1235 C1234 1.386 . S
C1235 C1239 1.393 . S
C1236 H1225 0.950 . S
C1236 C1234 1.391 . S
C1236 C1237 1.400 . S
C1237 C1231 1.491 . S
C1237 C1236 1.400 . S
C1237 C1238 1.398 . S
C1238 H1226 0.950 . S
C1238 C1237 1.398 . S
C1238 C1239 1.391 . S
C1239 H1227 0.950 . S
C1239 C1235 1.393 . S
C1239 C1238 1.391 . S
H1240 C1248 0.950 . S
H1241 C1253 0.950 . S
H1242 C1250 0.950 . S
H1243 C1252 0.950 . S
H1244 C1254 0.950 . S
H1245 C1256 0.950 . S
H1246 C1258 0.950 . S
H1247 C1259 0.950 . S
C1248 H1240 0.950 . S
C1248 C1249 1.386 . S
C1248 C1250 1.391 . S
C1249 C1248 1.386 . S
C1249 C1253 1.393 . S
C1250 H1242 0.950 . S
C1250 C1248 1.391 . S
C1250 C1251 1.400 . S
C1251 C1250 1.400 . S
C1251 C1252 1.398 . S
C1251 C1257 1.491 . S
C1252 H1243 0.950 . S
C1252 C1251 1.398 . S
C1252 C1253 1.391 . S
C1253 H1241 0.950 . S
C1253 C1249 1.393 . S
C1253 C1252 1.391 . S
C1254 H1244 0.950 . S
C1254 C1255 1.386 . S
C1254 C1256 1.391 . S
C1255 C1254 1.386 . S
C1255 C1259 1.393 . S
C1256 H1245 0.950 . S
C1256 C1254 1.391 . S
C1256 C1257 1.400 . S
C1257 C1251 1.491 . S
C1257 C1256 1.400 . S
C1257 C1258 1.398 . S
C1258 H1246 0.950 . S
C1258 C1257 1.398 . S
C1258 C1259 1.391 . S
C1259 H1247 0.950 . S
C1259 C1255 1.393 . S
C1259 C1258 1.391 . S
H1260 C1268 0.950 . S
H1261 C1273 0.950 . S
H1262 C1270 0.950 . S
H1263 C1272 0.950 . S
H1264 C1274 0.950 . S
H1265 C1276 0.950 . S
H1266 C1278 0.950 . S
H1267 C1279 0.950 . S
C1268 H1260 0.950 . S
C1268 C1269 1.386 . S
C1268 C1270 1.391 . S
C1269 C1268 1.386 . S
C1269 C1273 1.393 . S
C1270 H1262 0.950 . S
C1270 C1268 1.391 . S
C1270 C1271 1.400 . S
C1271 C1270 1.400 . S
C1271 C1272 1.398 . S
C1271 C1277 1.491 . S
C1272 H1263 0.950 . S
C1272 C1271 1.398 . S
C1272 C1273 1.391 . S
C1273 H1261 0.950 . S
C1273 C1269 1.393 . S
C1273 C1272 1.391 . S
C1274 H1264 0.950 . S
C1274 C1275 1.386 . S
C1274 C1276 1.391 1_455 S
C1275 C1274 1.386 . S
C1275 C1279 1.393 . S
C1276 H1265 0.950 . S
C1276 C1274 1.391 1_655 S
C1276 C1277 1.400 . S
C1277 C1271 1.491 . S
C1277 C1276 1.400 . S
C1277 C1278 1.398 . S
C1278 H1266 0.950 . S
C1278 C1277 1.398 . S
C1278 C1279 1.391 1_655 S
C1279 H1267 0.950 . S
C1279 C1275 1.393 . S
C1279 C1278 1.391 1_455 S
H1280 C1288 0.950 . S
H1281 C1293 0.950 . S
H1282 C1290 0.950 . S
H1283 C1292 0.950 . S
H1284 C1294 0.950 . S
H1285 C1296 0.950 . S
H1286 C1298 0.950 . S
H1287 C1299 0.950 . S
C1288 H1280 0.950 . S
C1288 C1289 1.386 . S
C1288 C1290 1.391 . S
C1289 C1288 1.386 . S
C1289 C1293 1.393 . S
C1290 H1282 0.950 . S
C1290 C1288 1.391 . S
C1290 C1291 1.400 . S
C1291 C1290 1.400 . S
C1291 C1292 1.398 . S
C1291 C1297 1.491 . S
C1292 H1283 0.950 . S
C1292 C1291 1.398 . S
C1292 C1293 1.391 . S
C1293 H1281 0.950 . S
C1293 C1289 1.393 . S
C1293 C1292 1.391 . S
C1294 H1284 0.950 . S
C1294 C1295 1.386 . S
C1294 C1296 1.391 . S
C1295 C1294 1.386 . S
C1295 C1299 1.393 . S
C1296 H1285 0.950 . S
C1296 C1294 1.391 . S
C1296 C1297 1.400 . S
C1297 C1291 1.491 . S
C1297 C1296 1.400 . S
C1297 C1298 1.398 . S
C1298 H1286 0.950 . S
C1298 C1297 1.398 . S
C1298 C1299 1.391 . S
C1299 H1287 0.950 . S
C1299 C1295 1.393 . S
C1299 C1298 1.391 . S
H1300 C1308 0.950 . S
H1301 C1313 0.950 . S
H1302 C1310 0.950 . S
H1303 C1312 0.950 . S
H1304 C1314 0.950 . S
H1305 C1316 0.950 . S
H1306 C1318 0.950 . S
H1307 C1319 0.950 . S
C1308 H1300 0.950 . S
C1308 C1309 1.386 . S
C1308 C1310 1.391 . S
C1309 C1308 1.386 . S
C1309 C1313 1.393 . S
C1310 H1302 0.950 . S
C1310 C1308 1.391 . S
C1310 C1311 1.400 . S
C1311 C1310 1.400 . S
C1311 C1312 1.398 . S
C1311 C1317 1.491 . S
C1312 H1303 0.950 . S
C1312 C1311 1.398 . S
C1312 C1313 1.391 . S
C1313 H1301 0.950 . S
C1313 C1309 1.393 . S
C1313 C1312 1.391 . S
C1314 H1304 0.950 . S
C1314 C1315 1.386 . S
C1314 C1316 1.391 1_455 S
C1315 C1314 1.386 . S
C1315 C1319 1.393 . S
C1316 H1305 0.950 . S
C1316 C1314 1.391 1_655 S
C1316 C1317 1.400 . S
C1317 C1311 1.491 . S
C1317 C1316 1.400 . S
C1317 C1318 1.398 . S
C1318 H1306 0.950 . S
C1318 C1317 1.398 . S
C1318 C1319 1.391 1_655 S
C1319 H1307 0.950 . S
C1319 C1315 1.393 . S
C1319 C1318 1.391 1_455 S
H1320 C1328 0.950 . S
H1321 C1333 0.950 . S
H1322 C1330 0.950 . S
H1323 C1332 0.950 . S
H1324 C1334 0.950 . S
H1325 C1336 0.950 . S
H1326 C1338 0.950 . S
H1327 C1339 0.950 . S
C1328 H1320 0.950 . S
C1328 C1329 1.386 . S
C1328 C1330 1.391 . S
C1329 C1328 1.386 . S
C1329 C1333 1.393 . S
C1330 H1322 0.950 . S
C1330 C1328 1.391 . S
C1330 C1331 1.400 . S
C1331 C1330 1.400 . S
C1331 C1332 1.398 . S
C1331 C1337 1.491 . S
C1332 H1323 0.950 . S
C1332 C1331 1.398 . S
C1332 C1333 1.391 . S
C1333 H1321 0.950 . S
C1333 C1329 1.393 . S
C1333 C1332 1.391 . S
C1334 H1324 0.950 . S
C1334 C1335 1.386 . S
C1334 C1336 1.391 . S
C1335 C1334 1.386 . S
C1335 C1339 1.393 . S
C1336 H1325 0.950 . S
C1336 C1334 1.391 . S
C1336 C1337 1.400 . S
C1337 C1331 1.491 . S
C1337 C1336 1.400 . S
C1337 C1338 1.398 . S
C1338 H1326 0.950 . S
C1338 C1337 1.398 . S
C1338 C1339 1.391 . S
C1339 H1327 0.950 . S
C1339 C1335 1.393 . S
C1339 C1338 1.391 . S
H1340 C1348 0.950 1_565 S
H1341 C1353 0.950 . S
H1342 C1350 0.950 . S
H1343 C1352 0.950 . S
H1344 C1354 0.950 . S
H1345 C1356 0.950 . S
H1346 C1358 0.950 . S
H1347 C1359 0.950 . S
C1348 H1340 0.950 1_545 S
C1348 C1349 1.386 . S
C1348 C1350 1.391 . S
C1349 C1348 1.386 . S
C1349 C1353 1.393 . S
C1350 H1342 0.950 . S
C1350 C1348 1.391 . S
C1350 C1351 1.400 . S
C1351 C1350 1.400 . S
C1351 C1352 1.398 . S
C1351 C1357 1.491 . S
C1352 H1343 0.950 . S
C1352 C1351 1.398 . S
C1352 C1353 1.391 . S
C1353 H1341 0.950 . S
C1353 C1349 1.393 . S
C1353 C1352 1.391 . S
C1354 H1344 0.950 . S
C1354 C1355 1.386 . S
C1354 C1356 1.391 . S
C1355 C1354 1.386 . S
C1355 C1359 1.393 . S
C1356 H1345 0.950 . S
C1356 C1354 1.391 . S
C1356 C1357 1.400 . S
C1357 C1351 1.491 . S
C1357 C1356 1.400 . S
C1357 C1358 1.398 . S
C1358 H1346 0.950 . S
C1358 C1357 1.398 . S
C1358 C1359 1.391 . S
C1359 H1347 0.950 . S
C1359 C1355 1.393 . S
C1359 C1358 1.391 . S
H1360 C1368 0.950 . S
H1361 C1373 0.950 . S
H1362 C1370 0.950 . S
H1363 C1372 0.950 . S
H1364 C1374 0.950 . S
H1365 C1376 0.950 . S
H1366 C1378 0.950 . S
H1367 C1379 0.950 . S
C1368 H1360 0.950 . S
C1368 C1369 1.386 . S
C1368 C1370 1.391 . S
C1369 C1368 1.386 . S
C1369 C1373 1.393 . S
C1370 H1362 0.950 . S
C1370 C1368 1.391 . S
C1370 C1371 1.400 . S
C1371 C1370 1.400 . S
C1371 C1372 1.398 . S
C1371 C1377 1.491 . S
C1372 H1363 0.950 . S
C1372 C1371 1.398 . S
C1372 C1373 1.391 . S
C1373 H1361 0.950 . S
C1373 C1369 1.393 . S
C1373 C1372 1.391 . S
C1374 H1364 0.950 . S
C1374 C1375 1.386 . S
C1374 C1376 1.391 . S
C1375 C1374 1.386 . S
C1375 C1379 1.393 . S
C1376 H1365 0.950 . S
C1376 C1374 1.391 . S
C1376 C1377 1.400 . S
C1377 C1371 1.491 . S
C1377 C1376 1.400 . S
C1377 C1378 1.398 . S
C1378 H1366 0.950 . S
C1378 C1377 1.398 . S
C1378 C1379 1.391 . S
C1379 H1367 0.950 . S
C1379 C1375 1.393 . S
C1379 C1378 1.391 . S
H1380 C1388 0.950 . S
H1381 C1393 0.950 . S
H1382 C1390 0.942 1_565 S
H1383 C1392 0.950 . S
H1384 C1394 0.950 . S
H1385 C1396 0.950 . S
H1386 C1398 0.950 . S
H1387 C1399 0.950 . S
C1388 H1380 0.950 . S
C1388 C1389 1.386 1_565 S
C1388 C1390 1.391 1_665 S
C1389 C1388 1.386 1_545 S
C1389 C1393 1.393 . S
C1390 H1382 0.942 1_545 S
C1390 C1388 1.391 1_445 S
C1390 C1391 1.400 . S
C1391 C1390 1.400 . S
C1391 C1392 1.398 . S
C1391 C1397 1.491 . S
C1392 H1383 0.950 . S
C1392 C1391 1.398 . S
C1392 C1393 1.391 1_455 S
C1393 H1381 0.950 . S
C1393 C1389 1.393 . S
C1393 C1392 1.391 1_655 S
C1394 H1384 0.950 . S
C1394 C1395 1.386 . S
C1394 C1396 1.391 . S
C1395 C1394 1.386 . S
C1395 C1399 1.393 . S
C1396 H1385 0.950 . S
C1396 C1394 1.391 . S
C1396 C1397 1.400 . S
C1397 C1391 1.491 . S
C1397 C1396 1.400 . S
C1397 C1398 1.398 . S
C1398 H1386 0.950 . S
C1398 C1397 1.398 . S
C1398 C1399 1.391 . S
C1399 H1387 0.950 . S
C1399 C1395 1.393 . S
C1399 C1398 1.391 . S
H1400 C1408 0.950 . S
H1401 C1413 0.950 . S
H1402 C1410 0.950 . S
H1403 C1412 0.950 . S
H1404 C1414 0.950 . S
H1405 C1416 0.950 . S
H1406 C1418 0.950 . S
H1407 C1419 0.950 . S
C1408 H1400 0.950 . S
C1408 C1409 1.386 . S
C1408 C1410 1.391 . S
C1409 C1408 1.386 . S
C1409 C1413 1.393 . S
C1410 H1402 0.950 . S
C1410 C1408 1.391 . S
C1410 C1411 1.400 . S
C1411 C1410 1.400 . S
C1411 C1412 1.398 . S
C1411 C1417 1.491 . S
C1412 H1403 0.950 . S
C1412 C1411 1.398 . S
C1412 C1413 1.391 . S
C1413 H1401 0.950 . S
C1413 C1409 1.393 . S
C1413 C1412 1.391 . S
C1414 H1404 0.950 . S
C1414 C1415 1.386 . S
C1414 C1416 1.391 . S
C1415 C1414 1.386 . S
C1415 C1419 1.393 . S
C1416 H1405 0.950 . S
C1416 C1414 1.391 . S
C1416 C1417 1.400 . S
C1417 C1411 1.491 . S
C1417 C1416 1.400 . S
C1417 C1418 1.398 . S
C1418 H1406 0.950 . S
C1418 C1417 1.398 . S
C1418 C1419 1.391 . S
C1419 H1407 0.950 . S
C1419 C1415 1.393 . S
C1419 C1418 1.391 . S
H1420 C1428 0.950 . S
H1421 C1433 0.950 . S
H1422 C1430 0.950 . S
H1423 C1432 0.950 . S
H1424 C1434 0.950 . S
H1425 C1436 0.950 1_545 S
H1426 C1438 0.950 . S
H1427 C1439 0.950 . S
C1428 H1420 0.950 . S
C1428 C1429 1.386 . S
C1428 C1430 1.391 . S
C1429 C1428 1.386 . S
C1429 C1433 1.393 . S
C1430 H1422 0.950 . S
C1430 C1428 1.391 . S
C1430 C1431 1.400 . S
C1431 C1430 1.400 . S
C1431 C1432 1.398 . S
C1431 C1437 1.491 . S
C1432 H1423 0.950 . S
C1432 C1431 1.398 . S
C1432 C1433 1.391 . S
C1433 H1421 0.950 . S
C1433 C1429 1.393 . S
C1433 C1432 1.391 . S
C1434 H1424 0.950 . S
C1434 C1435 1.386 1_545 S
C1434 C1436 1.391 1_545 S
C1435 C1434 1.386 1_565 S
C1435 C1439 1.393 . S
C1436 H1425 0.950 1_565 S
C1436 C1434 1.391 1_565 S
C1436 C1437 1.400 . S
C1437 C1431 1.491 . S
C1437 C1436 1.400 . S
C1437 C1438 1.398 . S
C1438 H1426 0.950 . S
C1438 C1437 1.398 . S
C1438 C1439 1.391 . S
C1439 H1427 0.950 . S
C1439 C1435 1.393 . S
C1439 C1438 1.391 . S
C489 C27 0.892 . S
C495 C376 0.892 . S
C509 C166 0.873 . S
C515 C57 0.873 . S
C529 C87 0.867 . S
C535 C436 0.867 . S
C549 C117 0.882 . S
C555 C226 0.882 . S
C569 C136 0.864 . S
C575 C267 0.864 . S
C589 C327 0.857 . S
C595 C196 0.857 . S
C609 C406 0.855 . S
C615 C297 0.855 . S
C629 C357 0.881 . S
C635 C466 0.881 . S
C649 C271 1.531 . S
C655 C16 1.518 . S
C669 C46 1.522 . S
C675 C301 1.526 . S
C689 C76 1.521 . S
C695 C331 1.527 . S
C709 C241 1.537 . S
C715 C106 1.499 . S
C729 C400 1.526 . S
C735 C147 1.522 . S
C749 C430 1.528 . S
C755 C177 1.504 . S
C769 C207 1.500 . S
C775 C460 1.535 . S
C789 C370 1.519 . S
C795 C237 1.519 . S
C809 C256 1.523 . S
C815 C31 1.523 . S
C829 C286 1.504 . S
C835 C61 1.529 . S
C849 C316 1.510 . S
C855 C91 1.537 . S
C869 C1 1.525 . S
C875 C346 1.508 . S
C889 C160 1.521 . S
C895 C387 1.514 . S
C909 C417 1.510 . S
C915 C190 1.537 . S
C929 C220 1.521 . S
C935 C447 1.514 . S
C949 C477 1.500 . S
C955 C130 1.535 . S
C969 N14 1.343 . S
C975 N314 1.332 . S
C989 N44 1.342 . S
C995 N344 1.336 . S
C1009 N254 1.341 . S
C1015 N74 1.338 . S
C1029 N104 1.321 . S
C1035 N284 1.326 . S
C1049 N126 1.321 . S
C1055 N426 1.326 . S
C1069 N156 1.328 . S
C1075 N456 1.342 . S
C1089 N366 1.323 . S
C1095 N186 1.324 . S
C1109 N216 1.332 . S
C1115 N396 1.320 . S
C1129 C10 1.151 . S
C1135 N224 1.162 . S
C1149 N374 1.154 . S
C1155 C40 1.136 . S
C1169 C70 1.139 . S
C1175 N164 1.169 . S
C1189 C100 1.139 . S
C1195 N434 1.169 . S
C1209 C121 1.156 . S
C1215 N96 1.167 . S
C1229 N246 1.173 . S
C1235 C151 1.160 . S
C1249 C181 1.159 . S
C1255 N36 1.176 . S
C1269 N306 1.159 . S
C1275 C211 1.129 . S
C1289 C250 1.154 . S
C1295 N464 1.176 . S
C1309 N134 1.170 . S
C1315 C280 1.141 . S
C1329 N404 1.154 . S
C1335 C310 1.136 . S
C1349 C340 1.158 . S
C1355 N194 1.176 . S
C1369 C361 1.153 . S
C1375 N336 1.175 . S
C1389 C391 1.129 . S
C1395 N6 1.159 . S
C1409 N276 1.165 . S
C1415 C421 1.134 . S
C1429 N66 1.173 . S
C1435 C451 1.160 . S
