# Generated by pormake.
# Topology zfw, (5)-cn, num edge types: 1
# Building blocks:
#     Node 0, Type 0, BuildingBlock: BEQFEK_clean_sbu_0, # of connection points: 5
#     Node 1, Type 0, BuildingBlock: BEQFEK_clean_sbu_0, # of connection points: 5
#     Node 2, Type 0, BuildingBlock: BEQFEK_clean_sbu_0, # of connection points: 5
#     Node 3, Type 0, BuildingBlock: BEQFEK_clean_sbu_0, # of connection points: 5
#     Node 4, Type 0, BuildingBlock: BEQFEK_clean_sbu_0, # of connection points: 5
#     Node 5, Type 0, BuildingBlock: BEQFEK_clean_sbu_0, # of connection points: 5
#     Node 6, Type 0, BuildingBlock: BEQFEK_clean_sbu_0, # of connection points: 5
#     Node 7, Type 0, BuildingBlock: BEQFEK_clean_sbu_0, # of connection points: 5
#     Node 8, Type 0, BuildingBlock: BEQFEK_clean_sbu_0, # of connection points: 5
#     Node 9, Type 0, BuildingBlock: BEQFEK_clean_sbu_0, # of connection points: 5
#     Node 10, Type 0, BuildingBlock: BEQFEK_clean_sbu_0, # of connection points: 5
#     Node 11, Type 0, BuildingBlock: BEQFEK_clean_sbu_0, # of connection points: 5
#     Node 12, Type 0, BuildingBlock: BEQFEK_clean_sbu_0, # of connection points: 5
#     Node 13, Type 0, BuildingBlock: BEQFEK_clean_sbu_0, # of connection points: 5
#     Node 14, Type 0, BuildingBlock: BEQFEK_clean_sbu_0, # of connection points: 5
#     Node 15, Type 0, BuildingBlock: BEQFEK_clean_sbu_0, # of connection points: 5
#     Edge 16, Type (0, 0), BuildingBlock: TEMPAE_clean_linker_10, # of connection points: 2
#     Edge 17, Type (0, 0), BuildingBlock: TEMPAE_clean_linker_10, # of connection points: 2
#     Edge 18, Type (0, 0), BuildingBlock: TEMPAE_clean_linker_10, # of connection points: 2
#     Edge 19, Type (0, 0), BuildingBlock: TEMPAE_clean_linker_10, # of connection points: 2
#     Edge 20, Type (0, 0), BuildingBlock: TEMPAE_clean_linker_10, # of connection points: 2
#     Edge 21, Type (0, 0), BuildingBlock: TEMPAE_clean_linker_10, # of connection points: 2
#     Edge 22, Type (0, 0), BuildingBlock: TEMPAE_clean_linker_10, # of connection points: 2
#     Edge 23, Type (0, 0), BuildingBlock: TEMPAE_clean_linker_10, # of connection points: 2
#     Edge 24, Type (0, 0), BuildingBlock: TEMPAE_clean_linker_10, # of connection points: 2
#     Edge 25, Type (0, 0), BuildingBlock: TEMPAE_clean_linker_10, # of connection points: 2
#     Edge 26, Type (0, 0), BuildingBlock: TEMPAE_clean_linker_10, # of connection points: 2
#     Edge 27, Type (0, 0), BuildingBlock: TEMPAE_clean_linker_10, # of connection points: 2
#     Edge 28, Type (0, 0), BuildingBlock: TEMPAE_clean_linker_10, # of connection points: 2
#     Edge 29, Type (0, 0), BuildingBlock: TEMPAE_clean_linker_10, # of connection points: 2
#     Edge 30, Type (0, 0), BuildingBlock: TEMPAE_clean_linker_10, # of connection points: 2
#     Edge 31, Type (0, 0), BuildingBlock: TEMPAE_clean_linker_10, # of connection points: 2
#     Edge 32, Type (0, 0), BuildingBlock: TEMPAE_clean_linker_10, # of connection points: 2
#     Edge 33, Type (0, 0), BuildingBlock: TEMPAE_clean_linker_10, # of connection points: 2
#     Edge 34, Type (0, 0), BuildingBlock: TEMPAE_clean_linker_10, # of connection points: 2
#     Edge 35, Type (0, 0), BuildingBlock: TEMPAE_clean_linker_10, # of connection points: 2
#     Edge 36, Type (0, 0), BuildingBlock: TEMPAE_clean_linker_10, # of connection points: 2
#     Edge 37, Type (0, 0), BuildingBlock: TEMPAE_clean_linker_10, # of connection points: 2
#     Edge 38, Type (0, 0), BuildingBlock: TEMPAE_clean_linker_10, # of connection points: 2
#     Edge 39, Type (0, 0), BuildingBlock: TEMPAE_clean_linker_10, # of connection points: 2
#     Edge 40, Type (0, 0), BuildingBlock: TEMPAE_clean_linker_10, # of connection points: 2
#     Edge 41, Type (0, 0), BuildingBlock: TEMPAE_clean_linker_10, # of connection points: 2
#     Edge 42, Type (0, 0), BuildingBlock: TEMPAE_clean_linker_10, # of connection points: 2
#     Edge 43, Type (0, 0), BuildingBlock: TEMPAE_clean_linker_10, # of connection points: 2
#     Edge 44, Type (0, 0), BuildingBlock: TEMPAE_clean_linker_10, # of connection points: 2
#     Edge 45, Type (0, 0), BuildingBlock: TEMPAE_clean_linker_10, # of connection points: 2
#     Edge 46, Type (0, 0), BuildingBlock: TEMPAE_clean_linker_10, # of connection points: 2
#     Edge 47, Type (0, 0), BuildingBlock: TEMPAE_clean_linker_10, # of connection points: 2
#     Edge 48, Type (0, 0), BuildingBlock: TEMPAE_clean_linker_10, # of connection points: 2
#     Edge 49, Type (0, 0), BuildingBlock: TEMPAE_clean_linker_10, # of connection points: 2
#     Edge 50, Type (0, 0), BuildingBlock: TEMPAE_clean_linker_10, # of connection points: 2
#     Edge 51, Type (0, 0), BuildingBlock: TEMPAE_clean_linker_10, # of connection points: 2
#     Edge 52, Type (0, 0), BuildingBlock: TEMPAE_clean_linker_10, # of connection points: 2
#     Edge 53, Type (0, 0), BuildingBlock: TEMPAE_clean_linker_10, # of connection points: 2
#     Edge 54, Type (0, 0), BuildingBlock: TEMPAE_clean_linker_10, # of connection points: 2
#     Edge 55, Type (0, 0), BuildingBlock: TEMPAE_clean_linker_10, # of connection points: 2
# Relax obj value: 0.382
# Max RMSD: 0.227
# Mean RMSD: 0.227
data_MOF--net-zfw--node1-BEQFEK_clean_sbu_0--edge1-TEMPAE_clean_linker_10
_symmetry_space_group_name_H-M    P1
_symmetry_Int_Tables_number       1
_symmetry_cell_setting            triclinic
loop_
_symmetry_equiv_pos_as_xyz
'x, y, z'
_cell_length_a     70.133817
_cell_length_b     70.051268
_cell_length_c     18.005293
_cell_angle_alpha  90.031008
_cell_angle_beta   90.029102
_cell_angle_gamma 90.002021
loop_
_atom_site_label
_atom_site_type_symbol
_atom_site_fract_x
_atom_site_fract_y
_atom_site_fract_z
_atom_type_partial_charge
Co0 Co 0.01145 0.09599 0.32215 0.0
Co1 Co 0.01327 0.11633 0.16878 0.0
C2 C 0.98126 0.12311 0.2757 0.0
O3 O 0.98798 0.11124 0.32191 0.0
O4 O 0.98973 0.1265 0.21482 0.0
C5 C 0.99397 0.07615 0.43826 0.0
O6 O 0.97912 0.07759 0.39406 0.0
C7 C -0.00158 0.11795 0.02058 0.0
C8 C 0.02196 0.13075 0.95636 0.0
C9 C 0.00439 0.12181 0.94882 0.0
N10 N 0.01211 0.12362 0.06777 0.0
N11 N 0.02594 0.13177 0.02944 0.0
C12 C 0.9803 0.10846 0.04471 0.0
H13 H 0.97449 0.11578 0.09431 0.0
H14 H 0.98325 0.09345 0.06043 0.0
H15 H 0.96942 0.1088 -3e-05 0.0
C16 C 0.01495 0.06156 0.22827 0.0
N17 N 0.01339 0.08057 0.23766 0.0
N18 N 0.01552 0.08918 0.17334 0.0
C19 C 0.01933 0.07588 0.12129 0.0
C20 C 0.01863 0.05801 0.15391 0.0
C21 C 0.01263 0.04728 0.28935 0.0
H22 H -0.00136 0.04948 0.31663 0.0
H23 H 0.01341 0.0324 0.26859 0.0
H24 H 0.02389 0.04961 0.33174 0.0
O25 O 0.03376 0.11357 0.3288 0.0
O26 O 0.03506 0.12826 0.21925 0.0
H27 H 0.03565 0.06847 0.02392 0.0
H28 H 0.01378 0.08076 0.00627 0.0
C29 C 0.02614 0.08003 0.04419 0.0
H30 H 0.03402 0.09371 0.04271 0.0
H31 H 0.03859 0.13686 0.05266 0.0
O32 O 0.01026 0.08111 0.41419 0.0
C33 C 0.04143 0.12561 0.28476 0.0
Co34 Co 0.15999 0.74891 0.53132 0.0
Co35 Co 0.14027 0.74549 0.3764 0.0
C36 C 0.13628 0.71495 0.48914 0.0
O37 O 0.14654 0.72438 0.53397 0.0
O38 O 0.1325 0.72132 0.42476 0.0
C39 C 0.18064 0.73309 0.64765 0.0
O40 O 0.18173 0.71886 0.60027 0.0
C41 C 0.13654 0.72944 0.22854 0.0
C42 C 0.12521 0.75377 0.1645 0.0
C43 C 0.13249 0.73546 0.15684 0.0
N44 N 0.13259 0.74379 0.27556 0.0
N45 N 0.12524 0.75809 0.23732 0.0
C46 C 0.14433 0.71051 0.25279 0.0
H47 H 0.13461 0.70422 0.2947 0.0
H48 H 0.15837 0.7125 0.28012 0.0
H49 H 0.14563 0.70039 0.20568 0.0
C50 C 0.19396 0.7554 0.43971 0.0
N51 N 0.1754 0.75108 0.44734 0.0
N52 N 0.16727 0.75017 0.38151 0.0
C53 C 0.18056 0.75416 0.32953 0.0
C54 C 0.19787 0.75751 0.3648 0.0
C55 C 0.20724 0.75877 0.50345 0.0
H56 H 0.20002 0.7675 0.54643 0.0
H57 H 0.21105 0.74484 0.52876 0.0
H58 H 0.22047 0.76612 0.48539 0.0
O59 O 0.14139 0.77001 0.53232 0.0
O60 O 0.12636 0.76696 0.42397 0.0
H61 H 0.18914 0.75945 0.21487 0.0
H62 H 0.1738 0.73966 0.22935 0.0
C63 C 0.17683 0.75436 0.24767 0.0
H64 H 0.1643 0.76346 0.2355 0.0
H65 H 0.12142 0.77122 0.26031 0.0
O66 O 0.17428 0.74907 0.62522 0.0
C67 C 0.12871 0.77538 0.48611 0.0
Co68 Co 0.52144 0.89954 0.8007 0.0
Co69 Co 0.51558 0.87535 0.65703 0.0
C70 C 0.55135 0.87279 0.74884 0.0
O71 O 0.54559 0.88543 0.79428 0.0
O72 O 0.54117 0.86759 0.6938 0.0
C73 C 0.53577 0.91586 0.93235 0.0
O74 O 0.55286 0.91235 0.90587 0.0
C75 C 0.52309 0.86763 0.50192 0.0
C76 C 0.49599 0.85477 0.46498 0.0
C77 C 0.51328 0.8617 0.43935 0.0
N78 N 0.51207 0.86456 0.56152 0.0
N79 N 0.49613 0.85623 0.53951 0.0
C80 C 0.54142 0.8786 0.50401 0.0
H81 H 0.54286 0.88646 0.55724 0.0
H82 H 0.54231 0.8887 0.45664 0.0
H83 H 0.55347 0.86842 0.49895 0.0
C84 C 0.51486 0.93129 0.69669 0.0
N85 N 0.51628 0.91257 0.71234 0.0
N86 N 0.51263 0.9025 0.65229 0.0
C87 C 0.50802 0.91463 0.59699 0.0
C88 C 0.50962 0.93318 0.62286 0.0
C89 C 0.51944 0.94688 0.75066 0.0
H90 H 0.53135 0.94241 0.78729 0.0
H91 H 0.52333 0.96028 0.72157 0.0
H92 H 0.50675 0.94959 0.78593 0.0
O93 O 0.50056 0.88145 0.8244 0.0
O94 O 0.49632 0.86418 0.72261 0.0
H95 H 0.49116 0.92006 0.4991 0.0
H96 H 0.51271 0.90692 0.48389 0.0
C97 C 0.50058 0.90883 0.5225 0.0
H98 H 0.49241 0.89537 0.52678 0.0
H99 H 0.48472 0.85306 0.57456 0.0
O100 O 0.52172 0.91633 0.88796 0.0
C101 C 0.49203 0.8682 0.78937 0.0
Co102 Co 0.35925 0.24818 0.07478 0.0
Co103 Co 0.37925 0.24952 0.91986 0.0
C104 C 0.38711 0.27908 0.0327 0.0
O105 O 0.37586 0.27088 0.0776 0.0
O106 O 0.38979 0.27253 0.96778 0.0
C107 C 0.34072 0.26651 0.19114 0.0
O108 O 0.34157 0.28081 0.14407 0.0
C109 C 0.38582 0.26454 0.77164 0.0
C110 C 0.39286 0.23847 0.70852 0.0
C111 C 0.38873 0.25772 0.70015 0.0
N112 N 0.3873 0.24985 0.81919 0.0
N113 N 0.39215 0.23442 0.78149 0.0
C114 C 0.38109 0.28452 0.79502 0.0
H115 H 0.39178 0.2894 0.83628 0.0
H116 H 0.36699 0.28481 0.82287 0.0
H117 H 0.38121 0.29454 0.74732 0.0
C118 C 0.3249 0.24444 0.98192 0.0
N119 N 0.3437 0.24764 0.99023 0.0
N120 N 0.35195 0.24814 0.9246 0.0
C121 C 0.3385 0.24531 0.87213 0.0
C122 C 0.32099 0.24275 0.90672 0.0
C123 C 0.31147 0.24124 0.04525 0.0
H124 H 0.31841 0.23218 0.08792 0.0
H125 H 0.30806 0.25519 0.07126 0.0
H126 H 0.29805 0.23435 0.02659 0.0
O127 O 0.37522 0.22504 0.0769 0.0
O128 O 0.39037 0.22669 0.96851 0.0
H129 H 0.35255 0.23387 0.77634 0.0
H130 H 0.32923 0.24364 0.75654 0.0
C131 C 0.3423 0.24535 0.79034 0.0
H132 H 0.34853 0.25922 0.77512 0.0
H133 H 0.3937 0.22089 0.80494 0.0
O134 O 0.34492 0.24985 0.16839 0.0
C135 C 0.38723 0.21845 0.03044 0.0
Co136 Co 0.0085 0.90098 0.69488 0.0
Co137 Co 0.01267 0.87676 0.83909 0.0
C138 C 0.97726 0.87554 0.74507 0.0
O139 O 0.98378 0.88789 0.70007 0.0
O140 O 0.98692 0.86998 0.80097 0.0
C141 C 0.99474 0.91812 0.56427 0.0
O142 O 0.97758 0.9159 0.59205 0.0
C143 C 0.00433 0.86923 0.99373 0.0
C144 C 0.03082 0.85536 0.03177 0.0
C145 C 0.0137 0.86287 0.05667 0.0
N146 N 0.01546 0.86585 0.93465 0.0
N147 N 0.03101 0.85693 0.95729 0.0
C148 C 0.98638 0.88079 0.99085 0.0
H149 H 0.98556 0.88901 0.93827 0.0
H150 H 0.98545 0.89061 0.0391 0.0
H151 H 0.974 0.87096 0.99354 0.0
C152 C 0.01585 0.93258 0.79862 0.0
N153 N 0.01387 0.9139 0.78327 0.0
N154 N 0.01674 0.90381 0.84387 0.0
C155 C 0.02137 0.91589 0.8994 0.0
C156 C 0.02064 0.93445 0.87292 0.0
C157 C 0.01201 0.9482 0.74399 0.0
H158 H 0.02479 0.95016 0.70846 0.0
H159 H -0.00012 0.94419 0.70765 0.0
H160 H 0.00877 0.96188 0.77237 0.0
O161 O 0.02856 0.88192 0.6721 0.0
O162 O 0.03159 0.86462 0.77435 0.0
H163 H 0.03738 0.92096 -0.00031 0.0
H164 H 0.01525 0.90861 0.01188 0.0
C165 C 0.02782 0.91002 0.97513 0.0
H166 H 0.03555 0.89626 0.97243 0.0
H167 H 0.04242 0.85338 0.92277 0.0
O168 O 0.00899 0.91771 0.60764 0.0
C169 C 0.03627 0.86828 0.70771 0.0
Co170 Co 0.36242 0.75602 0.93768 0.0
Co171 Co 0.37992 0.74906 0.09394 0.0
C172 C 0.38696 0.72178 0.97497 0.0
O173 O 0.37836 0.73294 0.93084 0.0
O174 O 0.38796 0.72529 0.04401 0.0
C175 C 0.34255 0.73968 0.82226 0.0
O176 O 0.34171 0.72589 0.87158 0.0
C177 C 0.38387 0.73236 0.24102 0.0
C178 C 0.39413 0.75694 0.30656 0.0
C179 C 0.38783 0.73825 0.31297 0.0
N180 N 0.38706 0.7471 0.19501 0.0
N181 N 0.39373 0.76158 0.23414 0.0
C182 C 0.37727 0.7131 0.21547 0.0
H183 H 0.38865 0.70659 0.18095 0.0
H184 H 0.36453 0.71455 0.17936 0.0
H185 H 0.37424 0.7034 0.26267 0.0
C186 C 0.32719 0.76003 0.02475 0.0
N187 N 0.34586 0.75588 0.01922 0.0
N188 N 0.35308 0.75338 0.08596 0.0
C189 C 0.33909 0.7559 0.13646 0.0
C190 C 0.32228 0.7602 0.09922 0.0
C191 C 0.3148 0.76525 0.96021 0.0
H192 H 0.32292 0.77426 0.92067 0.0
H193 H 0.31045 0.75202 0.9308 0.0
H194 H 0.30182 0.773 0.97847 0.0
O195 O 0.37951 0.77805 0.9446 0.0
O196 O 0.39414 0.77115 0.05098 0.0
H197 H 0.35332 0.76309 0.23803 0.0
H198 H 0.32857 0.75675 0.25049 0.0
C199 C 0.34167 0.75365 0.21852 0.0
H200 H 0.34556 0.7387 0.23016 0.0
H201 H 0.39694 0.77496 0.21197 0.0
O202 O 0.34885 0.7559 0.84238 0.0
C203 C 0.39215 0.7816 0.99347 0.0
Co204 Co 0.51121 0.09336 0.16301 0.0
Co205 Co 0.51197 0.11381 0.31683 0.0
C206 C 0.54131 0.12185 0.20158 0.0
O207 O 0.53354 0.11015 0.15726 0.0
O208 O 0.53456 0.12463 0.26612 0.0
C209 C 0.52911 0.07446 0.04714 0.0
O210 O 0.54355 0.07582 0.09336 0.0
C211 C 0.52793 0.11668 0.46396 0.0
C212 C 0.50442 0.12937 0.52871 0.0
C213 C 0.52228 0.121 0.53584 0.0
N214 N 0.51381 0.12156 0.41736 0.0
N215 N 0.5 0.12965 0.45597 0.0
C216 C 0.54626 0.10771 0.43917 0.0
H217 H 0.55137 0.11476 0.38784 0.0
H218 H 0.54386 0.09245 0.42583 0.0
H219 H 0.5574 0.10892 0.4827 0.0
C220 C 0.5107 0.05895 0.25794 0.0
N221 N 0.51168 0.07799 0.24814 0.0
N222 N 0.51065 0.08659 0.313 0.0
C223 C 0.50816 0.07324 0.36599 0.0
C224 C 0.50862 0.05538 0.33319 0.0
C225 C 0.51176 0.0447 0.19619 0.0
H226 H 0.50006 0.04743 0.1561 0.0
H227 H 0.52544 0.04651 0.16622 0.0
H228 H 0.51084 0.02982 0.21679 0.0
O229 O 0.48784 0.10944 0.16222 0.0
O230 O 0.48901 0.12473 0.27064 0.0
H231 H 0.49349 0.06551 0.4669 0.0
H232 H 0.51536 0.07817 0.47966 0.0
C233 C 0.50247 0.07724 0.44461 0.0
H234 H 0.49434 0.09075 0.44815 0.0
H235 H 0.48709 0.13424 0.43331 0.0
O236 O 0.5125 0.07866 0.07027 0.0
C237 C 0.48101 0.12148 0.20832 0.0
Co238 Co 0.16415 0.25026 0.44003 0.0
Co239 Co 0.14361 0.25237 0.59397 0.0
C240 C 0.13856 0.28296 0.48235 0.0
O241 O 0.14944 0.27418 0.4377 0.0
O242 O 0.13494 0.27625 0.54631 0.0
C243 C 0.18383 0.26719 0.3231 0.0
O244 O 0.18397 0.28163 0.36967 0.0
C245 C 0.13796 0.26772 0.7424 0.0
C246 C 0.12893 0.24221 0.80499 0.0
C247 C 0.13453 0.26108 0.8138 0.0
N248 N 0.13538 0.25323 0.69453 0.0
N249 N 0.12934 0.23819 0.73193 0.0
C250 C 0.14416 0.28732 0.71939 0.0
H251 H 0.13394 0.29297 0.67786 0.0
H252 H 0.15831 0.2866 0.69198 0.0
H253 H 0.14466 0.29731 0.76718 0.0
C254 C 0.19793 0.24449 0.53441 0.0
N255 N 0.17931 0.24841 0.52524 0.0
N256 N 0.17083 0.24905 0.59042 0.0
C257 C 0.18395 0.24547 0.64346 0.0
C258 C 0.2015 0.24242 0.6097 0.0
C259 C 0.21156 0.24134 0.47168 0.0
H260 H 0.20462 0.23263 0.42787 0.0
H261 H 0.21535 0.25535 0.447 0.0
H262 H 0.22475 0.23408 0.49064 0.0
O263 O 0.14654 0.22835 0.43653 0.0
O264 O 0.13098 0.23045 0.544 0.0
H265 H 0.16854 0.23506 0.73777 0.0
H266 H 0.19254 0.24252 0.75957 0.0
C267 C 0.17987 0.24558 0.72504 0.0
H268 H 0.17492 0.25993 0.74071 0.0
H269 H 0.1268 0.22483 0.70823 0.0
O270 O 0.17871 0.25087 0.34665 0.0
C271 C 0.13392 0.22232 0.48164 0.0
Co272 Co 0.86334 0.25025 0.44009 0.0
Co273 Co 0.88394 0.2494 0.59355 0.0
C274 C 0.89047 0.21912 0.47995 0.0
O275 O 0.87899 0.22711 0.43542 0.0
O276 O 0.89381 0.22619 0.5436 0.0
C277 C 0.84384 0.23297 0.32382 0.0
O278 O 0.84474 0.2184 0.36964 0.0
C279 C 0.8864 0.23351 0.74085 0.0
C280 C 0.89947 0.25688 0.80547 0.0
C281 C 0.89072 0.23919 0.81273 0.0
N282 N 0.89163 0.24749 0.69411 0.0
N283 N 0.89995 0.2612 0.73267 0.0
C284 C 0.87706 0.21534 0.7162 0.0
H285 H 0.88417 0.20989 0.66551 0.0
H286 H 0.86193 0.2181 0.70188 0.0
H287 H 0.87782 0.20426 0.76014 0.0
C288 C 0.82908 0.25159 0.5357 0.0
N289 N 0.84807 0.25056 0.52539 0.0
N290 N 0.85678 0.25165 0.58998 0.0
C291 C 0.84356 0.25433 0.64325 0.0
C292 C 0.82565 0.25384 0.61102 0.0
C293 C 0.81473 0.25001 0.47448 0.0
H294 H 0.81737 0.26139 0.43291 0.0
H295 H 0.81651 0.23607 0.44617 0.0
H296 H 0.7999 0.25107 0.49525 0.0
O297 O 0.88037 0.27303 0.43836 0.0
O298 O 0.89567 0.27187 0.54668 0.0
H299 H 0.86134 0.26796 0.72502 0.0
H300 H 0.83615 0.26916 0.74416 0.0
C301 C 0.84773 0.26001 0.72175 0.0
H302 H 0.84851 0.24711 0.75684 0.0
H303 H 0.90481 0.274 0.70989 0.0
O304 O 0.84858 0.24942 0.34735 0.0
C305 C 0.89262 0.27971 0.48393 0.0
Co306 Co 0.66802 0.74675 0.92048 0.0
Co307 Co 0.6466 0.74849 0.07219 0.0
C308 C 0.64248 0.77927 0.95861 0.0
O309 O 0.65376 0.77069 0.91504 0.0
O310 O 0.63837 0.77232 0.02176 0.0
C311 C 0.68831 0.76279 0.80357 0.0
O312 O 0.6881 0.77756 0.84855 0.0
C313 C 0.64518 0.76431 0.21971 0.0
C314 C 0.62991 0.7422 0.28349 0.0
C315 C 0.64026 0.75898 0.29139 0.0
N316 N 0.63874 0.75093 0.17251 0.0
N317 N 0.62914 0.73802 0.21056 0.0
C318 C 0.6563 0.7815 0.19569 0.0
H319 H 0.65021 0.78734 0.14366 0.0
H320 H 0.67126 0.77736 0.18398 0.0
H321 H 0.65609 0.79276 0.23908 0.0
C322 C 0.70153 0.74279 0.01918 0.0
N323 N 0.68275 0.74535 0.00708 0.0
N324 N 0.67354 0.74439 0.07058 0.0
C325 C 0.68611 0.74015 0.12473 0.0
C326 C 0.70424 0.73952 0.09444 0.0
C327 C 0.71638 0.74371 0.95967 0.0
H328 H 0.71528 0.73078 0.92429 0.0
H329 H 0.71378 0.75631 0.92401 0.0
H330 H 0.73097 0.74469 0.98306 0.0
O331 O 0.6497 0.72504 0.91721 0.0
O332 O 0.63379 0.72676 0.02406 0.0
H333 H 0.69151 0.72354 0.22335 0.0
H334 H 0.68066 0.74627 0.2391 0.0
C335 C 0.68085 0.73382 0.20145 0.0
H336 H 0.66666 0.7269 0.20135 0.0
H337 H 0.62315 0.72574 0.1874 0.0
O338 O 0.68309 0.74661 0.82838 0.0
C339 C 0.63683 0.71891 0.96128 0.0
Co340 Co 0.66354 0.24516 0.05765 0.0
Co341 Co 0.64342 0.25006 0.90511 0.0
C342 C 0.635 0.21717 0.00824 0.0
O343 O 0.64776 0.22225 0.05395 0.0
O344 O 0.63152 0.22696 0.95037 0.0
C345 C 0.68234 0.2266 0.17484 0.0
O346 O 0.67988 0.21163 0.1319 0.0
C347 C 0.64118 0.23567 0.75665 0.0
C348 C 0.62993 0.26004 0.69258 0.0
C349 C 0.63787 0.24198 0.68494 0.0
N350 N 0.63618 0.24959 0.80398 0.0
N351 N 0.62895 0.26394 0.76573 0.0
C352 C 0.64965 0.21701 0.78058 0.0
H353 H 0.6421 0.21158 0.83025 0.0
H354 H 0.66481 0.21911 0.79601 0.0
H355 H 0.64865 0.20617 0.73575 0.0
C356 C 0.69809 0.24725 0.96365 0.0
N357 N 0.67906 0.24705 0.97342 0.0
N358 N 0.67056 0.25035 0.90962 0.0
C359 C 0.68399 0.25372 0.85779 0.0
C360 C 0.70178 0.25136 0.8897 0.0
C361 C 0.71222 0.24316 0.02383 0.0
H362 H 0.7084 0.22957 0.05156 0.0
H363 H 0.72696 0.24203 0.00203 0.0
H364 H 0.71155 0.25467 0.0661 0.0
O365 O 0.64651 0.26792 0.06709 0.0
O366 O 0.63361 0.27285 0.95543 0.0
H367 H 0.69229 0.27078 0.76347 0.0
H368 H 0.67858 0.24998 0.74192 0.0
C369 C 0.68019 0.26177 0.78221 0.0
H370 H 0.66706 0.27054 0.78269 0.0
H371 H 0.62455 0.27685 0.78911 0.0
O372 O 0.67833 0.24307 0.14971 0.0
C373 C 0.636 0.27757 0.02307 0.0
Co374 Co 0.86354 0.75063 0.54702 0.0
Co375 Co 0.88505 0.75401 0.39579 0.0
C376 C 0.88833 0.78407 0.51235 0.0
O377 O 0.87732 0.77478 0.55469 0.0
O378 O 0.89265 0.7778 0.4483 0.0
C379 C 0.8429 0.76587 0.66436 0.0
O380 O 0.84251 0.7806 0.6192 0.0
C381 C 0.88588 0.7702 0.24868 0.0
C382 C 0.90234 0.74899 0.18471 0.0
C383 C 0.89119 0.76525 0.17696 0.0
N384 N 0.8929 0.75708 0.29569 0.0
N385 N 0.9032 0.74473 0.25754 0.0
C386 C 0.87392 0.78679 0.27295 0.0
H387 H 0.87944 0.79261 0.326 0.0
H388 H 0.85908 0.78199 0.28295 0.0
H389 H 0.87389 0.79823 0.23033 0.0
C390 C 0.83026 0.74612 0.44764 0.0
N391 N 0.84889 0.74946 0.46019 0.0
N392 N 0.8582 0.74913 0.39678 0.0
C393 C 0.84588 0.74449 0.34222 0.0
C394 C 0.82777 0.74298 0.37219 0.0
C395 C 0.81535 0.74589 0.50704 0.0
H396 H 0.8166 0.73243 0.53917 0.0
H397 H 0.81768 0.75795 0.54573 0.0
H398 H 0.80078 0.74699 0.48352 0.0
O399 O 0.8822 0.72923 0.54786 0.0
O400 O 0.89837 0.7323 0.44202 0.0
H401 H 0.8414 0.72748 0.24385 0.0
H402 H 0.85113 0.75068 0.22777 0.0
C403 C 0.85152 0.7383 0.26569 0.0
H404 H 0.86603 0.73208 0.26609 0.0
H405 H 0.90975 0.73273 0.28051 0.0
O406 O 0.84854 0.74984 0.63938 0.0
C407 C 0.8953 0.72379 0.50344 0.0
Co408 Co 0.50951 0.59796 0.81045 0.0
Co409 Co 0.50823 0.61965 0.65903 0.0
C410 C 0.47904 0.62654 0.77301 0.0
O411 O 0.48814 0.61591 0.81742 0.0
O412 O 0.48434 0.62872 0.70618 0.0
C413 C 0.49009 0.58055 0.92491 0.0
O414 O 0.47617 0.58216 0.87648 0.0
C415 C 0.49505 0.62367 0.50731 0.0
C416 C 0.51771 0.64111 0.45618 0.0
C417 C 0.50126 0.63089 0.43914 0.0
N418 N 0.50758 0.6289 0.55999 0.0
N419 N 0.52083 0.63973 0.52961 0.0
C420 C 0.47837 0.61096 0.52355 0.0
H421 H 0.47882 0.60584 0.58179 0.0
H422 H 0.47818 0.59849 0.48565 0.0
H423 H 0.46497 0.61914 0.51573 0.0
C424 C 0.5104 0.56444 0.71018 0.0
N425 N 0.50904 0.58334 0.72259 0.0
N426 N 0.5104 0.59252 0.65899 0.0
C427 C 0.51358 0.57972 0.60445 0.0
C428 C 0.51315 0.56158 0.63472 0.0
C429 C 0.50942 0.54962 0.76982 0.0
H430 H 0.52284 0.54995 0.80247 0.0
H431 H 0.4975 0.55292 0.8081 0.0
H432 H 0.50736 0.53511 0.7464 0.0
O433 O 0.53312 0.61333 0.81439 0.0
O434 O 0.53045 0.63081 0.71162 0.0
H435 H 0.5308 0.57373 0.50817 0.0
H436 H 0.50825 0.58437 0.4885 0.0
C437 C 0.52038 0.58455 0.5278 0.0
H438 H 0.52733 0.59874 0.52699 0.0
H439 H 0.53248 0.64535 0.55828 0.0
O440 O 0.50713 0.58286 0.90258 0.0
C441 C 0.53911 0.62655 0.77172 0.0
Co442 Co 0.01704 0.40331 0.31187 0.0
Co443 Co 0.01541 0.38119 0.16252 0.0
C444 C 0.04825 0.37654 0.26414 0.0
O445 O 0.0409 0.38827 0.30969 0.0
O446 O 0.03999 0.37239 0.2034 0.0
C447 C 0.03411 0.42061 0.4355 0.0
O448 O 0.05 0.42032 0.39704 0.0
C449 C 0.02538 0.3725 0.00973 0.0
C450 C 0.99745 0.36376 0.96457 0.0
C451 C 0.01597 0.36827 0.94414 0.0
N452 N 0.01282 0.3712 0.06566 0.0
N453 N 0.99635 0.36522 0.03883 0.0
C454 C 0.04517 0.38029 0.01813 0.0
H455 H 0.04657 0.38835 0.07091 0.0
H456 H 0.04898 0.38963 0.97062 0.0
H457 H 0.05539 0.3682 0.01905 0.0
C458 C 0.0102 0.43625 0.21449 0.0
N459 N 0.01351 0.41756 0.22513 0.0
N460 N 0.01293 0.40853 0.16107 0.0
C461 C 0.00933 0.4214 0.10698 0.0
C462 C 0.00745 0.43938 0.13919 0.0
C463 C 0.0084 0.45043 0.27631 0.0
H464 H -0.00014 0.44419 0.32205 0.0
H465 H 0.02281 0.45371 0.29844 0.0
H466 H 0.00151 0.46384 0.25744 0.0
O467 O 0.99512 0.38604 0.32707 0.0
O468 O 0.99469 0.36969 0.2216 0.0
H469 H 0.99789 0.4053 0.0161 0.0
H470 H 0.0052 0.42909 0.99045 0.0
C471 C 0.00858 0.41667 0.02586 0.0
H472 H 0.02271 0.41148 0.0081 0.0
H473 H 0.98396 0.36369 0.07035 0.0
O474 O 0.01832 0.41907 0.40155 0.0
C475 C 0.98802 0.37311 0.28592 0.0
Co476 Co 0.50996 0.40132 0.1773 0.0
Co477 Co 0.51534 0.38047 0.32911 0.0
C478 C 0.48191 0.3727 0.22906 0.0
O479 O 0.48728 0.38523 0.18297 0.0
O480 O 0.49162 0.36913 0.287 0.0
C481 C 0.48973 0.41852 0.06181 0.0
O482 O 0.47558 0.4166 0.10896 0.0
C483 C 0.5025 0.37709 0.47995 0.0
C484 C 0.52567 0.36124 0.53525 0.0
C485 C 0.50853 0.3706 0.54942 0.0
N486 N 0.51565 0.37221 0.42924 0.0
N487 N 0.52929 0.36238 0.46206 0.0
C488 C 0.48536 0.38885 0.4604 0.0
H489 H 0.48584 0.3934 0.4015 0.0
H490 H 0.4845 0.40172 0.49612 0.0
H491 H 0.47228 0.38017 0.46832 0.0
C492 C 0.51288 0.43546 0.27389 0.0
N493 N 0.51254 0.41646 0.26286 0.0
N494 N 0.51594 0.40768 0.32611 0.0
C495 C 0.5194 0.42089 0.37882 0.0
C496 C 0.51712 0.43884 0.34799 0.0
C497 C 0.50874 0.44987 0.21475 0.0
H498 H 0.52058 0.44986 0.17388 0.0
H499 H 0.49553 0.44578 0.18487 0.0
H500 H 0.50703 0.46442 0.23807 0.0
O501 O 0.5326 0.38439 0.16447 0.0
O502 O 0.53749 0.3706 0.27454 0.0
H503 H 0.53681 0.42845 0.47296 0.0
H504 H 0.51538 0.4159 0.49525 0.0
C505 C 0.5272 0.41676 0.45464 0.0
H506 H 0.53527 0.40317 0.45466 0.0
H507 H 0.54138 0.35716 0.43511 0.0
O508 O 0.50669 0.41611 0.08487 0.0
C509 C 0.54214 0.3734 0.20705 0.0
Co510 Co 0.0167 0.59625 0.6742 0.0
Co511 Co 0.01588 0.61877 0.82276 0.0
C512 C 0.04894 0.62176 0.721 0.0
O513 O 0.0412 0.61014 0.67597 0.0
O514 O 0.04079 0.62646 0.78137 0.0
C515 C 0.03226 0.57869 0.54862 0.0
O516 O 0.04862 0.57896 0.58405 0.0
C517 C 0.02638 0.6278 0.97488 0.0
C518 C -0.00105 0.63775 0.02033 0.0
C519 C 0.0174 0.63287 0.04044 0.0
N520 N 0.01372 0.62917 0.91928 0.0
N521 N 0.99755 0.63587 0.94624 0.0
C522 C 0.04589 0.61936 0.9666 0.0
H523 H 0.04668 0.61033 0.91602 0.0
H524 H 0.04986 0.61085 0.01626 0.0
H525 H 0.05637 0.63113 0.96094 0.0
C526 C 0.00892 0.56376 0.77261 0.0
N527 N 0.01255 0.58236 0.76118 0.0
N528 N 0.01232 0.59155 0.82487 0.0
C529 C 0.00859 0.57889 0.87947 0.0
C530 C 0.00631 0.56086 0.8481 0.0
C531 C 0.00695 0.54941 0.71145 0.0
H532 H -0.00178 0.55553 0.66591 0.0
H533 H 0.02128 0.54612 0.68871 0.0
H534 H 0.00015 0.53605 0.73116 0.0
O535 O 0.99577 0.61462 0.65795 0.0
O536 O 0.99572 0.63104 0.76318 0.0
H537 H 0.99781 0.5956 0.96911 0.0
H538 H 0.00445 0.57172 -0.00359 0.0
C539 C 0.00816 0.58389 0.96018 0.0
H540 H 0.02247 0.58876 0.97729 0.0
H541 H 0.98512 0.63762 0.91512 0.0
O542 O 0.01691 0.58019 0.58546 0.0
C543 C 0.98914 0.62792 0.69848 0.0
C544 C 0.12867 0.19267 0.40762 0.0
C545 C 0.12188 0.20603 0.45925 0.0
C546 C 0.11691 0.17794 0.3815 0.0
C547 C 0.09779 0.1769 0.40621 0.0
C548 C 0.09101 0.19006 0.45977 0.0
C549 C 0.10324 0.20436 0.48637 0.0
C550 C 0.12476 0.16385 0.32587 0.0
C551 C 0.0706 0.18961 0.48642 0.0
C552 C 0.06095 0.15529 0.27738 0.0
C553 C 0.05709 0.13783 0.31233 0.0
C554 C 0.07437 0.16801 0.30693 0.0
C555 C 0.08445 0.16297 0.37215 0.0
C556 C 0.08121 0.14504 0.40602 0.0
C557 C 0.06739 0.13274 0.37612 0.0
C558 C 0.07726 0.18713 0.26979 0.0
C559 C 0.09204 0.13902 0.47462 0.0
H560 H 0.14316 0.19382 0.38718 0.0
H561 H 0.09794 0.21472 0.52604 0.0
H562 H 0.12164 0.14902 0.34377 0.0
H563 H 0.11775 0.166 0.27128 0.0
H564 H 0.14041 0.1654 0.31838 0.0
H565 H 0.06781 0.20035 0.53051 0.0
H566 H 0.06086 0.19245 0.4391 0.0
H567 H 0.06702 0.17526 0.50832 0.0
H568 H 0.05297 0.15937 0.22832 0.0
H569 H 0.06455 0.1192 0.40306 0.0
H570 H 0.09247 0.18905 0.25473 0.0
H571 H 0.07346 0.19876 0.30895 0.0
H572 H 0.06848 0.18872 0.21878 0.0
H573 H 0.1076 0.14054 0.46536 0.0
H574 H 0.08895 0.12403 0.49061 0.0
H575 H 0.08821 0.14846 0.52179 0.0
C576 C 0.1221 0.80502 0.55806 0.0
C577 C 0.11594 0.79121 0.50709 0.0
C578 C 0.10962 0.81911 0.58418 0.0
C579 C 0.09041 0.81905 0.56012 0.0
C580 C 0.08429 0.80558 0.50648 0.0
C581 C 0.09723 0.79192 0.4799 0.0
C582 C 0.11678 0.83354 0.63996 0.0
C583 C 0.06382 0.80488 0.48051 0.0
C584 C 0.05475 0.83797 0.69954 0.0
C585 C 0.05032 0.85593 0.66994 0.0
C586 C 0.06752 0.82574 0.66343 0.0
C587 C 0.07637 0.83176 0.59681 0.0
C588 C 0.07207 0.84992 0.5667 0.0
C589 C 0.05894 0.86175 0.60335 0.0
C590 C 0.07148 0.80632 0.69652 0.0
C591 C 0.08146 0.8569 0.49636 0.0
H592 H 0.13665 0.80464 0.5784 0.0
H593 H 0.09242 0.78121 0.44062 0.0
H594 H 0.11254 0.84817 0.62318 0.0
H595 H 0.11025 0.83069 0.69496 0.0
H596 H 0.13254 0.83306 0.64615 0.0
H597 H 0.06179 0.79474 0.43368 0.0
H598 H 0.05455 0.80036 0.52722 0.0
H599 H 0.05896 0.81923 0.46277 0.0
H600 H 0.04799 0.8333 0.75052 0.0
H601 H 0.05556 0.87563 0.5802 0.0
H602 H 0.08677 0.80516 0.71169 0.0
H603 H 0.06845 0.795 0.655 0.0
H604 H 0.06279 0.80351 0.74691 0.0
H605 H 0.09715 0.85738 0.50409 0.0
H606 H 0.07643 0.87134 0.47996 0.0
H607 H 0.07855 0.84686 0.45009 0.0
C608 C 0.46894 0.86345 0.89378 0.0
C609 C 0.47717 0.85692 0.82743 0.0
C610 C 0.45475 0.8528 0.92985 0.0
C611 C 0.44893 0.83513 0.89925 0.0
C612 C 0.45745 0.82833 0.83307 0.0
C613 C 0.47134 0.83938 0.79765 0.0
C614 C 0.4458 0.86057 -0.00014 0.0
C615 C 0.45185 0.80936 0.79944 0.0
C616 C 0.42421 0.79647 0.00971 0.0
C617 C 0.40579 0.79724 0.97964 0.0
C618 C 0.43827 0.80948 0.98725 0.0
C619 C 0.43361 0.82374 0.93465 0.0
C620 C 0.41464 0.82549 0.90869 0.0
C621 C 0.40098 0.81207 0.93091 0.0
C622 C 0.4584 0.80702 0.01549 0.0
C623 C 0.40903 0.84081 0.85389 0.0
H624 H 0.4734 0.87702 0.91703 0.0
H625 H 0.47778 0.83415 0.74684 0.0
H626 H 0.4303 0.86277 0.99095 0.0
H627 H 0.44736 0.85015 0.04582 0.0
H628 H 0.45228 0.87433 0.01738 0.0
H629 H 0.46047 0.80577 0.74961 0.0
H630 H 0.45362 0.7978 0.84097 0.0
H631 H 0.4366 0.80965 0.78318 0.0
H632 H 0.42798 0.78501 0.04741 0.0
H633 H 0.38666 0.81287 0.90839 0.0
H634 H 0.4645 0.82093 0.0328 0.0
H635 H 0.46749 0.80137 0.97011 0.0
H636 H 0.45914 0.79698 0.06315 0.0
H637 H 0.41465 0.85489 0.87173 0.0
H638 H 0.39332 0.8419 0.84738 0.0
H639 H 0.41533 0.83754 0.79882 0.0
C640 C 0.45249 0.12739 0.12796 0.0
C641 C 0.46442 0.13316 0.18635 0.0
C642 C 0.43792 0.13938 0.10193 0.0
C643 C 0.4356 0.15769 0.13396 0.0
C644 C 0.44718 0.1633 0.19455 0.0
C645 C 0.46131 0.15087 0.22054 0.0
C646 C 0.42546 0.13274 0.03859 0.0
C647 C 0.44532 0.18282 0.22953 0.0
C648 C 0.41656 0.19861 0.01879 0.0
C649 C 0.39862 0.20155 0.05102 0.0
C650 C 0.42851 0.18393 0.04367 0.0
C651 C 0.42215 0.17164 0.10097 0.0
C652 C 0.40362 0.17385 0.13074 0.0
C653 C 0.39213 0.18895 0.10601 0.0
C654 C 0.44831 0.18221 0.01137 0.0
C655 C 0.39619 0.1607 0.19052 0.0
H656 H 0.45472 0.11362 0.10184 0.0
H657 H 0.47052 0.15544 0.26555 0.0
H658 H 0.4102 0.13526 0.05171 0.0
H659 H 0.42883 0.14107 0.98789 0.0
H660 H 0.42751 0.11735 0.02611 0.0
H661 H 0.45493 0.18467 0.27808 0.0
H662 H 0.44878 0.19396 0.18785 0.0
H663 H 0.43043 0.1853 0.24789 0.0
H664 H 0.42165 0.20835 0.9764 0.0
H665 H 0.37816 0.19105 0.13045 0.0
H666 H 0.45083 0.16747 0.99108 0.0
H667 H 0.45905 0.18513 0.05523 0.0
H668 H 0.45071 0.19229 0.96472 0.0
H669 H 0.39871 0.14557 0.17503 0.0
H670 H 0.38071 0.16278 0.20081 0.0
H671 H 0.40398 0.16339 0.24314 0.0
C672 C 0.91524 0.80732 0.51411 0.0
C673 C 0.89761 0.80137 0.54212 0.0
C674 C 0.92583 0.8215 0.55051 0.0
C675 C 0.91835 0.83016 0.61544 0.0
C676 C 0.89992 0.82521 0.64072 0.0
C677 C 0.88985 0.81069 0.60419 0.0
C678 C 0.94553 0.82629 0.52218 0.0
C679 C 0.89122 0.83445 0.70847 0.0
C680 C 0.95676 0.84655 0.74817 0.0
C681 C 0.95953 0.86543 0.72489 0.0
C682 C 0.9426 0.83515 0.71575 0.0
C683 C 0.93068 0.843 0.66009 0.0
C684 C 0.93221 0.86256 0.64166 0.0
C685 C 0.9468 0.87352 0.67365 0.0
C686 C 0.94147 0.8143 0.73676 0.0
C687 C 0.91924 0.87162 0.58479 0.0
H688 H 0.9213 0.80013 0.4663 0.0
H689 H 0.8761 0.80626 0.62568 0.0
H690 H 0.94691 0.84189 0.51328 0.0
H691 H 0.95633 0.82212 0.56425 0.0
H692 H 0.94889 0.81887 0.46923 0.0
H693 H 0.87558 0.83202 0.71131 0.0
H694 H 0.89775 0.82833 0.75926 0.0
H695 H 0.89399 0.85005 0.70892 0.0
H696 H 0.96655 0.84022 0.78773 0.0
H697 H 0.94873 0.8882 0.6562 0.0
H698 H 0.9458 0.80539 0.68863 0.0
H699 H 0.92662 0.81034 0.75111 0.0
H700 H 0.95084 0.81076 0.78457 0.0
H701 H 0.92336 0.86675 0.52842 0.0
H702 H 0.92006 0.88745 0.58622 0.0
H703 H 0.90423 0.86721 0.59411 0.0
C704 C 0.89419 0.19131 0.39456 0.0
C705 C 0.9011 0.20219 0.45427 0.0
C706 C 0.90512 0.17652 0.36391 0.0
C707 C 0.92354 0.17287 0.39262 0.0
C708 C 0.93032 0.1834 0.45442 0.0
C709 C 0.9189 0.1978 0.48512 0.0
C710 C 0.89721 0.16528 0.29925 0.0
C711 C 0.95005 0.18016 0.48571 0.0
C712 C 0.95217 0.12818 0.35305 0.0
C713 C 0.96455 0.13463 0.29729 0.0
C714 C 0.9379 0.14012 0.38165 0.0
C715 C 0.93636 0.15906 0.35513 0.0
C716 C 0.94829 0.16536 0.29661 0.0
C717 C 0.96209 0.15296 0.2677 0.0
C718 C 0.92504 0.13273 0.4424 0.0
C719 C 0.94731 0.18558 0.26771 0.0
H720 H 0.88035 0.19456 0.3709 0.0
H721 H 0.92432 0.20624 0.53098 0.0
H722 H 0.90515 0.16895 0.24794 0.0
H723 H 0.89907 0.14974 0.30885 0.0
H724 H 0.88185 0.16828 0.28967 0.0
H725 H 0.95294 0.18918 0.53523 0.0
H726 H 0.9519 0.16498 0.50149 0.0
H727 H 0.96089 0.18344 0.44266 0.0
H728 H 0.95393 0.11394 0.37561 0.0
H729 H 0.97169 0.15803 0.22486 0.0
H730 H 0.90993 0.13617 0.42983 0.0
H731 H 0.92868 0.13979 0.4957 0.0
H732 H 0.92641 0.11704 0.44994 0.0
H733 H 0.93254 0.18916 0.25071 0.0
H734 H 0.95692 0.18792 0.21954 0.0
H735 H 0.95139 0.19567 0.31255 0.0
C736 C 0.56727 0.12821 0.10995 0.0
C737 C 0.55744 0.1335 0.1747 0.0
C738 C 0.58125 0.14012 0.07921 0.0
C739 C 0.58523 0.15786 0.11339 0.0
C740 C 0.57574 0.16305 0.17982 0.0
C741 C 0.56208 0.1507 0.2101 0.0
C742 C 0.59136 0.13393 0.00918 0.0
C743 C 0.57945 0.18198 0.21737 0.0
C744 C 0.62991 0.18658 0.07597 0.0
C745 C 0.62309 0.20047 0.02656 0.0
C746 C 0.618 0.17194 0.1016 0.0
C747 C 0.59873 0.17147 0.07849 0.0
C748 C 0.59198 0.185 0.02629 0.0
C749 C 0.60433 0.19924 0.00026 0.0
C750 C 0.62584 0.15745 0.1557 0.0
C751 C 0.57142 0.18511 0.00122 0.0
H752 H 0.56382 0.11486 0.08254 0.0
H753 H 0.55447 0.1549 0.25989 0.0
H754 H 0.58715 0.14335 0.96248 0.0
H755 H 0.60702 0.1353 0.01613 0.0
H756 H 0.58795 0.11896 0.99376 0.0
H757 H 0.57108 0.18371 0.26931 0.0
H758 H 0.5948 0.18342 0.23094 0.0
H759 H 0.57572 0.19381 0.17904 0.0
H760 H 0.64448 0.18738 0.09588 0.0
H761 H 0.599 0.21001 0.96234 0.0
H762 H 0.6221 0.14278 0.13761 0.0
H763 H 0.61934 0.1597 0.21118 0.0
H764 H 0.64158 0.15849 0.16143 0.0
H765 H 0.56729 0.17087 0.97975 0.0
H766 H 0.56872 0.19591 0.95727 0.0
H767 H 0.56204 0.1883 0.04929 0.0
C768 C 0.5712 0.84337 0.74134 0.0
C769 C 0.56894 0.86215 0.76673 0.0
C770 C 0.58556 0.83162 0.77025 0.0
C771 C 0.59819 0.839 0.82451 0.0
C772 C 0.59704 0.85843 0.84538 0.0
C773 C 0.58225 0.86975 0.81686 0.0
C774 C 0.58624 0.81091 0.7469 0.0
C775 C 0.6107 0.86697 0.90104 0.0
C776 C 0.61535 0.80225 0.96321 0.0
C777 C 0.63267 0.79658 0.93156 0.0
C778 C 0.60432 0.81663 0.93033 0.0
C779 C 0.611 0.82579 0.86517 0.0
C780 C 0.62911 0.82103 0.83596 0.0
C781 C 0.63966 0.80633 0.86912 0.0
C782 C 0.58498 0.8212 0.96278 0.0
C783 C 0.63695 0.83077 0.7677 0.0
H784 H 0.56095 0.83742 0.70263 0.0
H785 H 0.58071 0.88435 0.83594 0.0
H786 H 0.60088 0.80691 0.72963 0.0
H787 H 0.58236 0.80172 0.79477 0.0
H788 H 0.57631 0.80777 0.70037 0.0
H789 H 0.6099 0.88281 0.90201 0.0
H790 H 0.60726 0.86159 0.95739 0.0
H791 H 0.62557 0.86264 0.88835 0.0
H792 H 0.60988 0.79475 0.01136 0.0
H793 H 0.65316 0.80212 0.84479 0.0
H794 H 0.57368 0.81733 0.92228 0.0
H795 H 0.58372 0.83673 0.97369 0.0
H796 H 0.58226 0.81339 0.01542 0.0
H797 H 0.62939 0.82543 0.71771 0.0
H798 H 0.65243 0.82798 0.76038 0.0
H799 H 0.63462 0.84643 0.77065 0.0
C800 C 0.62983 0.69119 0.87795 0.0
C801 C 0.62439 0.70306 0.93702 0.0
C802 C 0.61746 0.67707 0.85081 0.0
C803 C 0.59913 0.67508 0.88261 0.0
C804 C 0.59376 0.68667 0.94353 0.0
C805 C 0.60654 0.70041 0.97045 0.0
C806 C 0.62381 0.66466 0.78684 0.0
C807 C 0.57422 0.68513 0.97829 0.0
C808 C 0.5585 0.65634 0.76484 0.0
C809 C 0.55568 0.63812 0.79511 0.0
C810 C 0.57291 0.66835 0.79174 0.0
C811 C 0.58501 0.66183 0.84931 0.0
C812 C 0.58282 0.64313 0.87777 0.0
C813 C 0.56804 0.63154 0.8508 0.0
C814 C 0.57464 0.68831 0.76071 0.0
C815 C 0.59573 0.63558 0.9381 0.0
H816 H 0.64369 0.69306 0.85236 0.0
H817 H 0.60222 0.70957 0.01598 0.0
H818 H 0.62138 0.64938 0.80004 0.0
H819 H 0.61522 0.66805 0.73679 0.0
H820 H 0.63912 0.66674 0.77325 0.0
H821 H 0.57256 0.69468 0.02714 0.0
H822 H 0.56317 0.68891 0.93665 0.0
H823 H 0.57144 0.67024 -0.00389 0.0
H824 H 0.54896 0.66155 0.72201 0.0
H825 H 0.56602 0.61741 0.87398 0.0
H826 H 0.58936 0.69087 0.7405 0.0
H827 H 0.57178 0.69889 0.80524 0.0
H828 H 0.56455 0.69093 0.71426 0.0
H829 H 0.6109 0.63775 0.9227 0.0
H830 H 0.59335 0.62015 0.94898 0.0
H831 H 0.59319 0.64357 0.99036 0.0
C832 C 0.57537 0.36108 0.21395 0.0
C833 C 0.55801 0.36236 0.17591 0.0
C834 C 0.59 0.34922 0.18767 0.0
C835 C 0.58672 0.33774 0.12416 0.0
C836 C 0.56928 0.3393 0.08492 0.0
C837 C 0.55526 0.35193 0.11054 0.0
C838 C 0.60873 0.34857 0.22897 0.0
C839 C 0.56496 0.32683 0.01852 0.0
C840 C 0.62571 0.31155 0.01948 0.0
C841 C 0.62488 0.29354 0.05283 0.0
C842 C 0.61408 0.32649 0.04492 0.0
C843 C 0.60075 0.32292 0.10234 0.0
C844 C 0.60003 0.30469 0.13633 0.0
C845 C 0.61242 0.29032 0.11208 0.0
C846 C 0.61583 0.34596 0.00967 0.0
C847 C 0.58558 0.3001 0.19591 0.0
H848 H 0.57744 0.36932 0.26434 0.0
H849 H 0.5417 0.35287 0.08177 0.0
H850 H 0.61005 0.33479 0.25879 0.0
H851 H 0.62083 0.34953 0.18945 0.0
H852 H 0.60998 0.36032 0.27015 0.0
H853 H 0.55089 0.33016 0.99328 0.0
H854 H 0.57612 0.32856 0.97548 0.0
H855 H 0.56502 0.31161 0.03563 0.0
H856 H 0.63547 0.31392 0.97372 0.0
H857 H 0.61176 0.27624 0.13705 0.0
H858 H 0.61693 0.35714 0.05318 0.0
H859 H 0.60289 0.34908 0.97643 0.0
H860 H 0.62846 0.34698 0.97266 0.0
H861 H 0.58736 0.30987 0.24387 0.0
H862 H 0.58682 0.28517 0.2161 0.0
H863 H 0.57095 0.30228 0.1739 0.0
C864 C 0.96055 0.36786 0.37209 0.0
C865 C 0.97227 0.36123 0.31449 0.0
C866 C 0.94603 0.35631 0.40136 0.0
C867 C 0.94357 0.33757 0.37356 0.0
C868 C 0.95525 0.3309 0.31494 0.0
C869 C 0.9693 0.3429 0.28552 0.0
C870 C 0.93352 0.36404 0.4626 0.0
C871 C 0.95331 0.31085 0.28482 0.0
C872 C 0.92242 0.2989 0.49485 0.0
C873 C 0.90462 0.29603 0.46119 0.0
C874 C 0.93501 0.31285 0.46839 0.0
C875 C 0.92948 0.32447 0.40784 0.0
C876 C 0.9111 0.32239 0.37635 0.0
C877 C 0.89895 0.30801 0.40285 0.0
C878 C 0.95462 0.31443 0.50266 0.0
C879 C 0.90454 0.33487 0.31296 0.0
H880 H 0.96271 0.3821 0.39421 0.0
H881 H 0.9784 0.33768 0.24129 0.0
H882 H 0.91827 0.36221 0.44785 0.0
H883 H 0.93606 0.35592 0.51453 0.0
H884 H 0.93626 0.3794 0.47374 0.0
H885 H 0.96341 0.30795 0.23868 0.0
H886 H 0.95597 0.30037 0.32984 0.0
H887 H 0.93859 0.30844 0.26437 0.0
H888 H 0.92692 0.28965 0.53982 0.0
H889 H 0.88511 0.30598 0.37717 0.0
H890 H 0.95755 0.32938 0.51946 0.0
H891 H 0.96555 0.31039 0.46098 0.0
H892 H 0.9563 0.30508 0.55204 0.0
H893 H 0.90727 0.35012 0.32581 0.0
H894 H 0.88912 0.333 0.3008 0.0
H895 H 0.91274 0.33132 0.26214 0.0
C896 C 0.92624 0.70634 0.49579 0.0
C897 C 0.90782 0.70783 0.52547 0.0
C898 C 0.93892 0.69231 0.52104 0.0
C899 C 0.93286 0.67923 0.5761 0.0
C900 C 0.91399 0.6801 0.60369 0.0
C901 C 0.90174 0.69454 0.57864 0.0
C902 C 0.95905 0.69203 0.49125 0.0
C903 C 0.90693 0.66611 0.66121 0.0
C904 C 0.96356 0.63527 0.60581 0.0
C905 C 0.97411 0.64056 0.66876 0.0
C906 C 0.94974 0.64753 0.57582 0.0
C907 C 0.94672 0.66562 0.60879 0.0
C908 C 0.95727 0.67101 0.67245 0.0
C909 C 0.97071 0.65834 0.70207 0.0
C910 C 0.93849 0.64121 0.50866 0.0
C911 C 0.95468 0.69033 0.70838 0.0
H912 H 0.93102 0.71663 0.45487 0.0
H913 H 0.88744 0.69552 0.60111 0.0
H914 H 0.96921 0.69534 0.53675 0.0
H915 H 0.96267 0.67762 0.47005 0.0
H916 H 0.96119 0.70255 0.44584 0.0
H917 H 0.89137 0.66754 0.67147 0.0
H918 H 0.90996 0.65126 0.64329 0.0
H919 H 0.91457 0.66847 0.71439 0.0
H920 H 0.96607 0.62151 0.58001 0.0
H921 H 0.9789 0.66258 0.75041 0.0
H922 H 0.94149 0.65082 0.46116 0.0
H923 H 0.92298 0.64217 0.52036 0.0
H924 H 0.94192 0.62634 0.49186 0.0
H925 H 0.95781 0.70177 0.66755 0.0
H926 H 0.96408 0.69232 0.75745 0.0
H927 H 0.93966 0.69217 0.72628 0.0
C928 C 0.3929 0.30543 0.12344 0.0
C929 C 0.39845 0.29548 0.05932 0.0
C930 C 0.4046 0.31961 0.15422 0.0
C931 C 0.42244 0.32357 0.12101 0.0
C932 C 0.42784 0.314 0.05497 0.0
C933 C 0.41567 0.3002 0.02444 0.0
C934 C 0.3981 0.32986 0.22354 0.0
C935 C 0.44688 0.31769 0.0184 0.0
C936 C 0.45142 0.36802 0.16032 0.0
C937 C 0.46503 0.36105 0.21057 0.0
C938 C 0.43677 0.35626 0.13376 0.0
C939 C 0.43598 0.33698 0.1569 0.0
C940 C 0.44918 0.33011 0.21013 0.0
C941 C 0.46346 0.34232 0.237 0.0
C942 C 0.42263 0.36424 0.07864 0.0
C943 C 0.44894 0.30955 0.23538 0.0
H944 H 0.37953 0.30192 0.15037 0.0
H945 H 0.42006 0.2925 0.97508 0.0
H946 H 0.40638 0.32463 0.27193 0.0
H947 H 0.4007 0.34544 0.21872 0.0
H948 H 0.38272 0.32747 0.2349 0.0
H949 H 0.44873 0.30934 0.96644 0.0
H950 H 0.44841 0.33307 0.00506 0.0
H951 H 0.45857 0.31391 0.05728 0.0
H952 H 0.45247 0.38258 0.14037 0.0
H953 H 0.47401 0.33687 0.27558 0.0
H954 H 0.40786 0.36045 0.09512 0.0
H955 H 0.42523 0.3579 0.02309 0.0
H956 H 0.42371 0.38001 0.07373 0.0
H957 H 0.43461 0.30568 0.25656 0.0
H958 H 0.45961 0.30671 0.27963 0.0
H959 H 0.45202 0.30007 0.18747 0.0
C960 C 0.39796 0.68784 0.97718 0.0
C961 C 0.39782 0.70582 0.94336 0.0
C962 C 0.40904 0.67295 0.94766 0.0
C963 C 0.42091 0.67658 0.88555 0.0
C964 C 0.42063 0.69474 0.85108 0.0
C965 C 0.40874 0.709 0.87951 0.0
C966 C 0.40831 0.6535 0.98357 0.0
C967 C 0.43362 0.69947 0.78673 0.0
C968 C 0.46693 0.64893 0.86739 0.0
C969 C 0.46355 0.63825 0.80308 0.0
C970 C 0.453 0.66124 0.89561 0.0
C971 C 0.43497 0.66215 0.86045 0.0
C972 C 0.43113 0.65052 0.79774 0.0
C973 C 0.44571 0.63901 0.76845 0.0
C974 C 0.45798 0.67394 0.96068 0.0
C975 C 0.41175 0.6504 0.76124 0.0
H976 H 0.38931 0.68542 0.02619 0.0
H977 H 0.40867 0.723 0.85382 0.0
H978 H 0.40696 0.64221 0.94063 0.0
H979 H 0.42174 0.6508 0.01435 0.0
H980 H 0.39622 0.65222 0.02311 0.0
H981 H 0.43159 0.7143 0.76638 0.0
H982 H 0.44872 0.69772 0.80401 0.0
H983 H 0.43107 0.68953 0.73988 0.0
H984 H 0.48081 0.64825 0.89386 0.0
H985 H 0.44314 0.63046 0.71924 0.0
H986 H 0.44788 0.67157 0.00705 0.0
H987 H 0.45673 0.68914 0.94398 0.0
H988 H 0.47268 0.67139 0.98149 0.0
H989 H 0.40039 0.649 0.8038 0.0
H990 H 0.41027 0.63858 0.7205 0.0
H991 H 0.40935 0.66409 0.7318 0.0
C992 C 0.10939 0.69173 0.48827 0.0
C993 C 0.12718 0.6973 0.51612 0.0
C994 C 0.09891 0.67721 0.52293 0.0
C995 C 0.10669 0.66775 0.58559 0.0
C996 C 0.12531 0.67228 0.61011 0.0
C997 C 0.13524 0.68722 0.5757 0.0
C998 C 0.07897 0.67296 0.4957 0.0
C999 C 0.13438 0.66211 0.67505 0.0
C1000 C 0.06951 0.65067 0.72215 0.0
C1001 C 0.06625 0.63202 0.69706 0.0
C1002 C 0.08332 0.66222 0.6884 0.0
C1003 C 0.09446 0.65471 0.62966 0.0
C1004 C 0.09238 0.63536 0.60864 0.0
C1005 C 0.07806 0.6243 0.64185 0.0
C1006 C 0.08495 0.68287 0.7119 0.0
C1007 C 0.10456 0.62664 0.54844 0.0
H1008 H 0.10311 0.69954 0.44239 0.0
H1009 H 0.14911 0.69137 0.59686 0.0
H1010 H 0.07731 0.65749 0.48442 0.0
H1011 H 0.0685 0.67683 0.53942 0.0
H1012 H 0.07538 0.68098 0.44433 0.0
H1013 H 0.15004 0.66448 0.67712 0.0
H1014 H 0.12815 0.6675 0.72763 0.0
H1015 H 0.13158 0.64653 0.67228 0.0
H1016 H 0.06038 0.65672 0.76464 0.0
H1017 H 0.0757 0.6098 0.62287 0.0
H1018 H 0.08061 0.69226 0.66518 0.0
H1019 H 0.09993 0.68641 0.72588 0.0
H1020 H 0.07585 0.68622 0.76071 0.0
H1021 H 0.09982 0.63197 0.49346 0.0
H1022 H 0.10358 0.61081 0.54811 0.0
H1023 H 0.11972 0.63082 0.55559 0.0
C1024 C 0.13585 0.31057 0.39541 0.0
C1025 C 0.12861 0.30023 0.45588 0.0
C1026 C 0.12527 0.32534 0.36284 0.0
C1027 C 0.10681 0.32945 0.3902 0.0
C1028 C 0.0998 0.31963 0.4533 0.0
C1029 C 0.11091 0.30528 0.48602 0.0
C1030 C 0.1335 0.33586 0.29709 0.0
C1031 C 0.08005 0.32339 0.48345 0.0
C1032 C 0.0776 0.37318 0.34166 0.0
C1033 C 0.06539 0.36582 0.28698 0.0
C1034 C 0.09213 0.36189 0.37233 0.0
C1035 C 0.09404 0.34267 0.3493 0.0
C1036 C 0.08235 0.33549 0.29151 0.0
C1037 C 0.06833 0.34726 0.2603 0.0
C1038 C 0.10485 0.37026 0.43167 0.0
C1039 C 0.08376 0.31498 0.2661 0.0
H1040 H 0.14963 0.30682 0.37235 0.0
H1041 H 0.10524 0.29728 0.53257 0.0
H1042 H 0.12686 0.33049 0.24523 0.0
H1043 H 0.13046 0.35137 0.30093 0.0
H1044 H 0.14917 0.33379 0.29265 0.0
H1045 H 0.07703 0.31504 0.53454 0.0
H1046 H 0.07826 0.33877 0.49629 0.0
H1047 H 0.06925 0.31962 0.44078 0.0
H1048 H 0.07549 0.3876 0.36188 0.0
H1049 H 0.05887 0.3415 0.21825 0.0
H1050 H 0.11998 0.36654 0.42088 0.0
H1051 H 0.10097 0.36418 0.48648 0.0
H1052 H 0.10352 0.38604 0.43496 0.0
H1053 H 0.0986 0.31155 0.24959 0.0
H1054 H 0.07418 0.31187 0.21844 0.0
H1055 H 0.07993 0.30533 0.31265 0.0
C1056 C 0.00827 0.03608 0.054 0.0
C1057 C 0.02004 0.03956 0.11527 0.0
C1058 C 0.00936 0.01883 0.0151 0.0
C1059 C 0.02269 0.00484 0.0379 0.0
C1060 C 0.03481 0.0084 0.09932 0.0
C1061 C 0.03329 0.02579 0.13761 0.0
C1062 C 0.99609 0.01551 0.95024 0.0
C1063 C 0.04934 0.99387 0.12443 0.0
C1064 C 0.0112 0.95413 0.9814 0.0
C1065 C 0.02213 0.95212 0.91686 0.0
C1066 C 0.01166 0.97107 0.02258 0.0
C1067 C 0.02342 0.98627 -0.00145 0.0
C1068 C 0.03489 0.98411 0.93436 0.0
C1069 C 0.03402 0.96701 0.89389 0.0
C1070 C -0.00092 0.97291 0.09029 0.0
C1071 C 0.04775 -4e-05 0.9077 0.0
H1072 H -0.00197 0.04684 0.03704 0.0
H1073 H 0.04257 0.02874 0.18441 0.0
H1074 H 0.00443 0.01239 0.89934 0.0
H1075 H 0.98696 0.00289 0.96136 0.0
H1076 H 0.98675 0.028 0.93917 0.0
H1077 H 0.05805 -0.00091 0.17182 0.0
H1078 H 0.04205 0.98051 0.1414 0.0
H1079 H 0.059 0.99021 0.07777 0.0
H1080 H 0.00186 0.94261 -0.00149 0.0
H1081 H 0.04257 0.96528 0.84419 0.0
H1082 H 0.98824 0.98418 0.08069 0.0
H1083 H 0.00766 0.97731 0.13915 0.0
H1084 H 0.99161 0.95936 0.10379 0.0
H1085 H 0.03902 0.0124 0.89038 0.0
H1086 H 0.05676 0.99549 0.86003 0.0
H1087 H 0.05717 0.00482 0.9535 0.0
C1088 C 0.28769 0.75292 0.10792 0.0
C1089 C 0.30333 0.76367 0.13178 0.0
C1090 C 0.27011 0.75433 0.14437 0.0
C1091 C 0.26839 0.76654 0.20672 0.0
C1092 C 0.28389 0.7782 0.2284 0.0
C1093 C 0.30115 0.77683 0.18967 0.0
C1094 C 0.2537 0.74205 0.11849 0.0
C1095 C 0.28264 0.79123 0.29505 0.0
C1096 C 0.21851 0.77603 0.27808 0.0
C1097 C 0.21649 0.76133 0.33009 0.0
C1098 C 0.23551 0.77822 0.23814 0.0
C1099 C 0.25094 0.76577 0.25279 0.0
C1100 C 0.24935 0.75173 0.30898 0.0
C1101 C 0.23202 0.74956 0.34657 0.0
C1102 C 0.23664 0.79321 0.1781 0.0
C1103 C 0.2657 0.73851 0.32744 0.0
H1104 H 0.28942 0.74285 0.06266 0.0
H1105 H 0.31321 0.78549 0.20657 0.0
H1106 H 0.25078 0.73082 0.16041 0.0
H1107 H 0.24056 0.75076 0.11278 0.0
H1108 H 0.25672 0.73501 0.06446 0.0
H1109 H 0.2953 0.80067 0.30005 0.0
H1110 H 0.26965 0.80022 0.29204 0.0
H1111 H 0.28155 0.78249 0.34629 0.0
H1112 H 0.20656 0.78543 0.26703 0.0
H1113 H 0.23041 0.73827 0.38726 0.0
H1114 H 0.23786 0.78615 0.12312 0.0
H1115 H 0.24954 0.80216 0.18554 0.0
H1116 H 0.22389 0.80263 0.17746 0.0
H1117 H 0.26855 0.72895 0.27959 0.0
H1118 H 0.26269 0.72956 0.37698 0.0
H1119 H 0.27888 0.74686 0.33789 0.0
C1120 C 0.52091 0.03367 0.43019 0.0
C1121 C 0.50804 0.03697 0.37226 0.0
C1122 C 0.52038 0.01665 0.47067 0.0
C1123 C 0.50651 0.00271 0.45286 0.0
C1124 C 0.49335 0.00605 0.3946 0.0
C1125 C 0.4943 0.02322 0.35468 0.0
C1126 C 0.53474 0.01356 0.5321 0.0
C1127 C 0.47825 0.99154 0.37483 0.0
C1128 C 0.51811 0.95223 0.51162 0.0
C1129 C 0.50812 0.9508 0.57864 0.0
C1130 C 0.5173 0.96891 0.46903 0.0
C1131 C 0.5062 0.98446 0.49436 0.0
C1132 C 0.49577 0.98294 0.56144 0.0
C1133 C 0.49692 0.96607 0.60311 0.0
C1134 C 0.52875 0.97006 0.39812 0.0
C1135 C 0.48366 -0.00078 0.58966 0.0
H1136 H 0.53149 0.04444 0.44355 0.0
H1137 H 0.48415 0.02605 0.31062 0.0
H1138 H 0.52728 0.01093 0.58543 0.0
H1139 H 0.54347 0.00073 0.51988 0.0
H1140 H 0.54443 0.02598 0.53933 0.0
H1141 H 0.46891 0.99649 0.32886 0.0
H1142 H 0.48506 0.97791 0.35806 0.0
H1143 H 0.46927 0.98848 0.4241 0.0
H1144 H 0.52694 0.94042 0.49332 0.0
H1145 H 0.48907 0.96478 0.65471 0.0
H1146 H 0.53988 0.98122 0.40368 0.0
H1147 H 0.51942 0.97423 0.35107 0.0
H1148 H 0.53578 0.9563 0.38424 0.0
H1149 H 0.49285 0.01167 0.60274 0.0
H1150 H 0.47554 0.99531 0.64036 0.0
H1151 H 0.47346 0.00381 0.54609 0.0
C1152 C 0.30135 0.22437 0.81633 0.0
C1153 C 0.30256 0.23863 0.87067 0.0
C1154 C 0.28502 0.22253 0.77212 0.0
C1155 C 0.26931 0.23471 0.78517 0.0
C1156 C 0.26985 0.24797 0.8446 0.0
C1157 C 0.28664 0.24995 0.8862 0.0
C1158 C 0.28511 0.20845 0.70856 0.0
C1159 C 0.25306 0.26072 0.86188 0.0
C1160 C 0.23571 0.24982 0.63184 0.0
C1161 C 0.21983 0.23838 0.64664 0.0
C1162 C 0.2524 0.24797 0.67407 0.0
C1163 C 0.25288 0.23472 0.73348 0.0
C1164 C 0.2372 0.22245 0.74598 0.0
C1165 C 0.22098 0.22416 0.70106 0.0
C1166 C 0.26916 0.2608 0.65732 0.0
C1167 C 0.23705 0.2084 0.80953 0.0
H1168 H 0.31358 0.21528 0.80592 0.0
H1169 H 0.28757 0.26086 0.92876 0.0
H1170 H 0.27195 0.19968 0.70882 0.0
H1171 H 0.28541 0.21636 0.65518 0.0
H1172 H 0.29766 0.19879 0.7105 0.0
H1173 H 0.25495 0.26855 0.91504 0.0
H1174 H 0.25121 0.2713 0.81663 0.0
H1175 H 0.23975 0.25218 0.86508 0.0
H1176 H 0.23482 0.26073 0.58927 0.0
H1177 H 0.20879 0.21498 0.7109 0.0
H1178 H 0.28249 0.25231 0.65405 0.0
H1179 H 0.27095 0.27132 0.70286 0.0
H1180 H 0.26729 0.26871 0.60433 0.0
H1181 H 0.25023 0.19965 0.80951 0.0
H1182 H 0.22452 0.19871 0.80734 0.0
H1183 H 0.23668 0.21632 0.86291 0.0
C1184 C 0.73504 0.26361 0.87633 0.0
C1185 C 0.72021 0.252 0.85073 0.0
C1186 C 0.75233 0.26462 0.83743 0.0
C1187 C 0.75468 0.25372 0.77177 0.0
C1188 C 0.73967 0.24199 0.74583 0.0
C1189 C 0.72257 0.24131 0.78569 0.0
C1190 C 0.76805 0.27735 0.86634 0.0
C1191 C 0.74168 0.23008 0.6763 0.0
C1192 C 0.79305 0.26703 0.63273 0.0
C1193 C 0.80733 0.25391 0.65079 0.0
C1194 C 0.77583 0.26731 0.67231 0.0
C1195 C 0.77301 0.25414 0.73101 0.0
C1196 C 0.78753 0.24096 0.74959 0.0
C1197 C 0.80456 0.24104 0.7092 0.0
C1198 C 0.76067 0.28164 0.65147 0.0
C1199 C 0.78502 0.22666 0.81159 0.0
H1200 H 0.73298 0.27208 0.9261 0.0
H1201 H 0.71102 0.23229 0.76628 0.0
H1202 H 0.78093 0.26871 0.87856 0.0
H1203 H 0.77207 0.28795 0.82334 0.0
H1204 H 0.76382 0.2851 0.91759 0.0
H1205 H 0.7286 0.22173 0.66381 0.0
H1206 H 0.74486 0.23942 0.62811 0.0
H1207 H 0.75381 0.22003 0.68238 0.0
H1208 H 0.79546 0.27719 0.5883 0.0
H1209 H 0.81571 0.23091 0.72286 0.0
H1210 H 0.75701 0.29058 0.70032 0.0
H1211 H 0.74747 0.2741 0.63431 0.0
H1212 H 0.76526 0.29113 0.60543 0.0
H1213 H 0.78188 0.23416 0.86446 0.0
H1214 H 0.79788 0.21763 0.81971 0.0
H1215 H 0.7727 0.21723 0.79932 0.0
C1216 C 0.72517 0.74905 0.19878 0.0
C1217 C 0.72226 0.73768 0.13586 0.0
C1218 C 0.74225 0.74812 0.23861 0.0
C1219 C 0.75678 0.73556 0.21448 0.0
C1220 C 0.75373 0.72366 0.15196 0.0
C1221 C 0.7364 0.72485 0.11328 0.0
C1222 C 0.74496 0.76102 0.30507 0.0
C1223 C 0.76893 0.71007 0.12499 0.0
C1224 C 0.80646 0.7512 0.26734 0.0
C1225 C 0.80991 0.74011 0.33056 0.0
C1226 C 0.78948 0.74931 0.22738 0.0
C1227 C 0.7756 0.73606 0.25168 0.0
C1228 C 0.77922 0.72444 0.31446 0.0
C1229 C 0.79644 0.72659 0.35326 0.0
C1230 C 0.78614 0.76195 0.16065 0.0
C1231 C 0.76472 0.71013 0.34163 0.0
H1232 H 0.71421 0.75905 0.21586 0.0
H1233 H 0.73391 0.71583 0.0653 0.0
H1234 H 0.74913 0.75251 0.3544 0.0
H1235 H 0.75666 0.77128 0.29395 0.0
H1236 H 0.73186 0.76921 0.31869 0.0
H1237 H 0.7638 0.70086 0.07888 0.0
H1238 H 0.78147 0.71828 0.10529 0.0
H1239 H 0.77384 0.70083 0.17122 0.0
H1240 H 0.8169 0.76172 0.25015 0.0
H1241 H 0.79935 0.71778 0.40143 0.0
H1242 H 0.77397 0.77167 0.17163 0.0
H1243 H 0.78236 0.75316 0.11153 0.0
H1244 H 0.79884 0.77072 0.14677 0.0
H1245 H 0.75179 0.71771 0.36127 0.0
H1246 H 0.77031 0.70123 0.38784 0.0
H1247 H 0.76027 0.7006 0.29552 0.0
C1248 C 0.50291 0.54064 0.53145 0.0
C1249 C 0.51462 0.54351 0.59337 0.0
C1250 C 0.50407 0.52382 0.48986 0.0
C1251 C 0.51738 0.50962 0.51069 0.0
C1252 C 0.52946 0.51258 0.57274 0.0
C1253 C 0.52788 0.52955 0.61369 0.0
C1254 C 0.49082 0.52111 0.4245 0.0
C1255 C 0.54392 0.49778 0.59596 0.0
C1256 C 0.50605 0.45908 0.45196 0.0
C1257 C 0.51735 0.45708 0.38844 0.0
C1258 C 0.50611 0.47606 0.49279 0.0
C1259 C 0.5179 0.49132 0.46956 0.0
C1260 C 0.52951 0.4893 0.40567 0.0
C1261 C 0.52904 0.47213 0.36548 0.0
C1262 C 0.49337 0.47776 0.56009 0.0
C1263 C 0.54236 0.50525 0.37984 0.0
H1264 H 0.49262 0.55152 0.51617 0.0
H1265 H 0.53713 0.53202 0.661 0.0
H1266 H 0.49916 0.51815 0.37345 0.0
H1267 H 0.48147 0.50859 0.43436 0.0
H1268 H 0.4817 0.53382 0.41446 0.0
H1269 H 0.55278 0.50263 0.64352 0.0
H1270 H 0.53655 0.48439 0.61196 0.0
H1271 H 0.55345 0.49432 0.54865 0.0
H1272 H 0.49695 0.44737 0.46916 0.0
H1273 H 0.53793 0.47037 0.31672 0.0
H1274 H 0.48297 0.48951 0.55175 0.0
H1275 H 0.50197 0.48138 0.60985 0.0
H1276 H 0.48537 0.46438 0.57144 0.0
H1277 H 0.5337 0.51797 0.36535 0.0
H1278 H 0.55099 0.50113 0.33065 0.0
H1279 H 0.55215 0.50953 0.42533 0.0
C1280 C 0.01517 0.52696 0.87096 0.0
C1281 C 0.00333 0.54251 0.88684 0.0
C1282 C 0.01362 0.50992 0.91112 0.0
C1283 C 0.00045 0.50876 0.9705 0.0
C1284 C 0.98808 0.52425 0.98543 0.0
C1285 C 0.98932 0.54077 0.94182 0.0
C1286 C 0.02653 0.4934 0.89156 0.0
C1287 C 0.97428 0.52378 0.04974 0.0
C1288 C 0.98982 0.45961 0.04775 0.0
C1289 C 0.00415 0.45782 0.10149 0.0
C1290 C 0.98822 0.47624 0.00495 0.0
C1291 C 0.00057 0.49177 0.01946 0.0
C1292 C 0.01404 0.49057 0.07785 0.0
C1293 C 0.01593 0.47343 0.11722 0.0
C1294 C 0.97406 0.47676 0.94176 0.0
C1295 C 0.02693 0.50713 0.09701 0.0
H1296 H 0.026 0.52828 0.82832 0.0
H1297 H 0.97975 0.55261 0.95239 0.0
H1298 H 0.0372 0.4913 0.93628 0.0
H1299 H 0.01814 0.48002 0.88688 0.0
H1300 H 0.03424 0.49579 0.83849 0.0
H1301 H 0.9649 0.53655 0.0511 0.0
H1302 H 0.96523 0.51082 0.04707 0.0
H1303 H 0.98237 0.52312 0.10267 0.0
H1304 H 0.98029 0.44772 0.03742 0.0
H1305 H 0.02698 0.47209 0.15905 0.0
H1306 H 0.98186 0.47761 0.88823 0.0
H1307 H 0.96494 0.48964 0.94564 0.0
H1308 H 0.96477 0.46393 0.94067 0.0
H1309 H 0.03743 0.50932 0.05179 0.0
H1310 H 0.03484 0.50472 0.14965 0.0
H1311 H 0.0185 0.52047 0.10228 0.0
C1312 C 0.99001 0.09496 0.87604 0.0
C1313 C 0.99707 0.11371 0.87862 0.0
C1314 C 0.98621 0.08595 0.80822 0.0
C1315 C 0.98975 0.0959 0.7415 0.0
C1316 C 0.99591 0.11517 0.74369 0.0
C1317 C -0.0004 0.12381 0.81238 0.0
C1318 C 0.97972 0.06539 0.80828 0.0
C1319 C -0.00033 0.12631 0.6734 0.0
C1320 C 0.00694 0.07261 0.56571 0.0
C1321 C 0.99117 0.07534 0.51921 0.0
C1322 C 0.00612 0.07771 0.64075 0.0
C1323 C 0.98915 0.08579 0.66934 0.0
C1324 C 0.97257 0.08656 0.62476 0.0
C1325 C 0.97374 0.08119 0.54991 0.0
C1326 C 0.02399 0.07622 0.68727 0.0
C1327 C 0.95413 0.09478 0.65385 0.0
H1328 H 0.98846 0.08676 0.92646 0.0
H1329 H 0.00511 0.13826 0.81424 0.0
H1330 H 0.96877 0.06285 0.7649 0.0
H1331 H 0.99205 0.056 0.79587 0.0
H1332 H 0.97379 0.06112 0.86303 0.0
H1333 H 0.00284 0.14158 0.68476 0.0
H1334 H 0.01201 0.12 0.64366 0.0
H1335 H 0.98718 0.1255 0.63572 0.0
H1336 H 0.02035 0.0678 0.54222 0.0
H1337 H 0.96145 0.08324 0.51427 0.0
H1338 H 0.02073 0.06996 0.74238 0.0
H1339 H 0.02991 0.09071 0.69677 0.0
H1340 H 0.03511 0.06738 0.65994 0.0
H1341 H 0.95113 0.08951 0.71075 0.0
H1342 H 0.94186 0.09119 0.61734 0.0
H1343 H 0.95536 0.11055 0.65684 0.0
C1344 C 0.15873 0.72101 0.08165 0.0
C1345 C 0.13994 0.72784 0.08606 0.0
C1346 C 0.16762 0.71824 0.01281 0.0
C1347 C 0.15746 0.72244 0.94706 0.0
C1348 C 0.13802 0.72787 0.95104 0.0
C1349 C 0.12954 0.73067 0.02067 0.0
C1350 C 0.18833 0.71237 0.01088 0.0
C1351 C 0.12659 0.73212 0.8819 0.0
C1352 C 0.18094 0.74415 0.77874 0.0
C1353 C 0.17987 0.72907 0.72791 0.0
C1354 C 0.175 0.74172 0.85234 0.0
C1355 C 0.16762 0.72382 0.87508 0.0
C1356 C 0.16809 0.7081 0.8258 0.0
C1357 C 0.17436 0.71089 0.75266 0.0
C1358 C 0.17516 0.75873 0.90392 0.0
C1359 C 0.16042 0.68879 0.84795 0.0
H1360 H 0.16705 0.71911 0.13163 0.0
H1361 H 0.11505 0.736 0.02401 0.0
H1362 H 0.1909 0.70168 0.96652 0.0
H1363 H 0.19726 0.72504 -0.00165 0.0
H1364 H 0.19309 0.70632 0.06482 0.0
H1365 H 0.11118 0.73402 0.8941 0.0
H1366 H 0.13201 0.7454 0.85578 0.0
H1367 H 0.12822 0.72043 0.8408 0.0
H1368 H 0.18533 0.75817 0.75976 0.0
H1369 H 0.17343 0.69916 0.71352 0.0
H1370 H 0.18153 0.75483 0.95824 0.0
H1371 H 0.1603 0.76346 0.91442 0.0
H1372 H 0.18327 0.77094 0.88042 0.0
H1373 H 0.16461 0.68513 0.90563 0.0
H1374 H 0.16549 0.67735 0.81004 0.0
H1375 H 0.14461 0.68911 0.84566 0.0
C1376 C 0.51708 0.89698 0.02255 0.0
C1377 C 0.53177 0.91012 0.00925 0.0
C1378 C 0.51446 0.88897 0.09284 0.0
C1379 C 0.52642 0.89476 0.1519 0.0
C1380 C 0.54088 0.90854 0.13954 0.0
C1381 C 0.54367 0.91578 0.0676 0.0
C1382 C 0.49923 0.87393 0.10325 0.0
C1383 C 0.55339 0.91554 0.20212 0.0
C1384 C 0.50588 0.88534 0.3422 0.0
C1385 C 0.51632 0.86933 0.36458 0.0
C1386 C 0.50964 0.89427 0.27438 0.0
C1387 C 0.52356 0.88641 0.22657 0.0
C1388 C 0.53391 0.86995 0.24846 0.0
C1389 C 0.53042 0.8618 0.31835 0.0
C1390 C 0.49875 0.91214 0.25411 0.0
C1391 C 0.5484 0.86081 0.19767 0.0
H1392 H 0.50812 0.89224 0.97703 0.0
H1393 H 0.55511 0.92581 0.05687 0.0
H1394 H 0.50563 0.86072 0.12643 0.0
H1395 H 0.4884 0.879 0.14355 0.0
H1396 H 0.49187 0.87028 0.05044 0.0
H1397 H 0.56327 0.92703 0.18401 0.0
H1398 H 0.54443 0.92105 0.2482 0.0
H1399 H 0.56194 0.90355 0.22463 0.0
H1400 H 0.49504 0.89112 0.37865 0.0
H1401 H 0.53851 0.84948 0.33661 0.0
H1402 H 0.4895 0.90933 0.20535 0.0
H1403 H 0.50881 0.92367 0.23833 0.0
H1404 H 0.48967 0.91732 0.30047 0.0
H1405 H 0.54147 0.8566 0.14471 0.0
H1406 H 0.55507 0.84797 0.22286 0.0
H1407 H 0.55979 0.87119 0.18382 0.0
C1408 C 0.34994 0.28754 0.29665 0.0
C1409 C 0.34201 0.2703 0.27152 0.0
C1410 C 0.35656 0.28937 0.36982 0.0
C1411 C 0.35491 0.27368 0.41881 0.0
C1412 C 0.34513 0.257 0.39578 0.0
C1413 C 0.33891 0.25546 0.3221 0.0
C1414 C 0.36683 0.30743 0.3921 0.0
C1415 C 0.34261 0.24014 0.44712 0.0
C1416 C 0.39195 0.2617 0.56372 0.0
C1417 C 0.38224 0.26613 0.62932 0.0
C1418 C 0.38376 0.2655 0.49425 0.0
C1419 C 0.36526 0.27357 0.49066 0.0
C1420 C 0.35594 0.27926 0.55658 0.0
C1421 C 0.36456 0.27548 0.62524 0.0
C1422 C 0.39435 0.25963 0.42489 0.0
C1423 C 0.33623 0.28793 0.55501 0.0
H1424 H 0.35245 0.29908 0.25775 0.0
H1425 H 0.33264 0.24219 0.30287 0.0
H1426 H 0.36392 0.31122 0.45083 0.0
H1427 H 0.38242 0.30519 0.38628 0.0
H1428 H 0.3627 0.31964 0.35621 0.0
H1429 H 0.33278 0.22925 0.42365 0.0
H1430 H 0.35665 0.23331 0.45716 0.0
H1431 H 0.33697 0.24487 0.50167 0.0
H1432 H 0.40557 0.25441 0.56682 0.0
H1433 H 0.35673 0.27865 0.67545 0.0
H1434 H 0.39434 0.27143 0.38383 0.0
H1435 H 0.38704 0.24726 0.39891 0.0
H1436 H 0.40935 0.25554 0.43675 0.0
H1437 H 0.3352 0.29904 0.51129 0.0
H1438 H 0.33232 0.29439 0.60928 0.0
H1439 H 0.32564 0.27668 0.54159 0.0
C1440 C 0.986 0.91803 0.42981 0.0
C1441 C -0.00203 0.91196 0.48728 0.0
C1442 C 0.98807 0.91056 0.35784 0.0
C1443 C 0.00187 0.89618 0.3446 0.0
C1444 C 0.01385 0.88991 0.40285 0.0
C1445 C 0.01196 0.89812 0.47315 0.0
C1446 C 0.97556 0.91802 0.2961 0.0
C1447 C 0.0284 0.87425 0.39148 0.0
C1448 C 0.99651 0.86354 0.17761 0.0
C1449 C 0.0108 0.87066 0.1313 0.0
C1450 C 0.99333 0.87177 0.24763 0.0
C1451 C 0.00423 0.88787 0.26959 0.0
C1452 C 0.01833 0.89534 0.22163 0.0
C1453 C 0.02173 0.88634 0.15366 0.0
C1454 C 0.97862 0.86307 0.29858 0.0
C1455 C 0.02986 0.91279 0.24207 0.0
H1456 H 0.97509 0.9286 0.4412 0.0
H1457 H 0.02095 0.89306 0.51802 0.0
H1458 H 0.98453 0.9234 0.24986 0.0
H1459 H 0.96664 0.90631 0.2735 0.0
H1460 H 0.96604 0.92973 0.31506 0.0
H1461 H 0.03583 0.87032 0.44381 0.0
H1462 H 0.02136 0.86132 0.36875 0.0
H1463 H 0.03925 0.87887 0.35046 0.0
H1464 H 0.98804 0.85147 0.15937 0.0
H1465 H 0.03274 0.89178 0.11719 0.0
H1466 H 0.9677 0.87386 0.31353 0.0
H1467 H 0.98553 0.8584 0.35098 0.0
H1468 H 0.97136 0.85059 0.27301 0.0
H1469 H 0.02024 0.92461 0.25889 0.0
H1470 H 0.03895 0.9178 0.19545 0.0
H1471 H 0.03919 0.90954 0.29019 0.0
C1472 C 0.34198 0.74964 0.68985 0.0
C1473 C 0.34265 0.73497 0.74248 0.0
C1474 C 0.34731 0.74628 0.61609 0.0
C1475 C 0.35364 0.72785 0.59502 0.0
C1476 C 0.35263 0.71259 0.64619 0.0
C1477 C 0.347 0.71632 0.71949 0.0
C1478 C 0.34771 0.76285 0.56244 0.0
C1479 C 0.35911 0.69273 0.62571 0.0
C1480 C 0.36181 0.72385 0.38854 0.0
C1481 C 0.38075 0.73016 0.38327 0.0
C1482 C 0.35306 0.72144 0.45784 0.0
C1483 C 0.36356 0.72545 0.52299 0.0
C1484 C 0.3832 0.73005 0.51803 0.0
C1485 C 0.39151 0.73255 0.44799 0.0
C1486 C 0.33214 0.71642 0.46078 0.0
C1487 C 0.39501 0.73401 0.5865 0.0
H1488 H 0.33841 0.76402 0.70736 0.0
H1489 H 0.34753 0.70488 0.75996 0.0
H1490 H 0.36273 0.76678 0.55044 0.0
H1491 H 0.34092 0.75882 0.50905 0.0
H1492 H 0.3403 0.77563 0.58493 0.0
H1493 H 0.35365 0.68188 0.66534 0.0
H1494 H 0.35441 0.68886 0.56883 0.0
H1495 H 0.37492 0.69219 0.62666 0.0
H1496 H 0.35327 0.7223 0.33887 0.0
H1497 H 0.40613 0.73748 0.44383 0.0
H1498 H 0.32372 0.72958 0.47073 0.0
H1499 H 0.32913 0.7064 0.50702 0.0
H1500 H 0.32717 0.7099 0.40792 0.0
H1501 H 0.39041 0.74772 0.6117 0.0
H1502 H 0.41047 0.73498 0.57363 0.0
H1503 H 0.39284 0.72265 0.62858 0.0
C1504 C 0.53754 0.09506 0.61087 0.0
C1505 C 0.53001 0.1136 0.6066 0.0
C1506 C 0.54096 0.08635 0.6796 0.0
C1507 C 0.53667 0.09643 0.74545 0.0
C1508 C 0.53039 0.11562 0.7416 0.0
C1509 C 0.52702 0.12394 0.67208 0.0
C1510 C 0.54773 0.06589 0.68142 0.0
C1511 C 0.52594 0.12695 0.81087 0.0
C1512 C 0.51739 0.07252 0.91708 0.0
C1513 C 0.53264 0.07482 0.96647 0.0
C1514 C 0.51904 0.07816 0.8428 0.0
C1515 C 0.53634 0.08638 0.81783 0.0
C1516 C 0.55234 0.08702 0.86553 0.0
C1517 C 0.55033 0.08111 0.93948 0.0
C1518 C 0.50175 0.07686 0.793 0.0
C1519 C 0.57107 0.09553 0.84078 0.0
H1520 H 0.5396 0.08672 0.56106 0.0
H1521 H 0.52121 0.13826 0.66896 0.0
H1522 H 0.55877 0.06386 0.72487 0.0
H1523 H 0.53557 0.0564 0.69524 0.0
H1524 H 0.55366 0.06129 0.62705 0.0
H1525 H 0.52306 0.14221 0.79853 0.0
H1526 H 0.5132 0.12081 0.83852 0.0
H1527 H 0.53797 0.12609 0.85077 0.0
H1528 H 0.50376 0.06746 0.93765 0.0
H1529 H 0.56222 0.08292 0.97736 0.0
H1530 H 0.50563 0.07055 0.73857 0.0
H1531 H 0.49613 0.09142 0.78235 0.0
H1532 H 0.4902 0.06816 0.81812 0.0
H1533 H 0.57458 0.09113 0.78318 0.0
H1534 H 0.58297 0.09131 0.87805 0.0
H1535 H 0.56995 0.11133 0.84153 0.0
C1536 C 0.13164 0.265 0.95049 0.0
C1537 C 0.14159 0.26892 0.88491 0.0
C1538 C 0.14006 0.26822 0.02003 0.0
C1539 C 0.15902 0.27515 0.02378 0.0
C1540 C 0.16867 0.2803 0.95792 0.0
C1541 C 0.15983 0.27714 0.8892 0.0
C1542 C 0.12914 0.26294 0.0893 0.0
C1543 C 0.18889 0.28769 0.95957 0.0
C1544 C 0.17536 0.28845 0.21743 0.0
C1545 C 0.18241 0.27086 0.24265 0.0
C1546 C 0.16865 0.29052 0.14448 0.0
C1547 C 0.16933 0.2747 0.09572 0.0
C1548 C 0.17818 0.25752 0.11886 0.0
C1549 C 0.1845 0.25576 0.19235 0.0
C1550 C 0.15936 0.30908 0.12204 0.0
C1551 C 0.17963 0.24047 0.06778 0.0
H1552 H 0.1176 0.25858 0.94728 0.0
H1553 H 0.16783 0.27989 0.83908 0.0
H1554 H 0.13568 0.25012 0.11504 0.0
H1555 H 0.12986 0.27468 0.1306 0.0
H1556 H 0.11392 0.25978 0.07737 0.0
H1557 H 0.19319 0.29397 0.90544 0.0
H1558 H 0.19066 0.29864 0.00357 0.0
H1559 H 0.19875 0.27576 0.97256 0.0
H1560 H 0.17362 0.30019 0.25614 0.0
H1561 H 0.19006 0.2422 0.21166 0.0
H1562 H 0.14363 0.30745 0.12482 0.0
H1563 H 0.16309 0.31297 0.06414 0.0
H1564 H 0.16353 0.32099 0.15946 0.0
H1565 H 0.16519 0.2345 0.05791 0.0
H1566 H 0.18878 0.22903 0.09136 0.0
H1567 H 0.18552 0.24477 0.01313 0.0
C1568 C 0.84201 0.2449 0.19405 0.0
C1569 C 0.84409 0.22954 0.24307 0.0
C1570 C 0.84758 0.24323 0.11967 0.0
C1571 C 0.85553 0.22583 0.0943 0.0
C1572 C 0.85594 0.20974 0.14165 0.0
C1573 C 0.85007 0.21175 0.21565 0.0
C1574 C 0.8465 0.2606 0.07018 0.0
C1575 C 0.86415 0.19091 0.1164 0.0
C1576 C 0.8644 0.2245 0.88742 0.0
C1577 C 0.88306 0.23171 0.88345 0.0
C1578 C 0.85555 0.22127 0.95598 0.0
C1579 C 0.8656 0.22543 0.02201 0.0
C1580 C 0.88488 0.23143 0.0185 0.0
C1581 C 0.89333 0.23461 0.94913 0.0
C1582 C 0.835 0.21485 0.95733 0.0
C1583 C 0.89617 0.23575 0.08796 0.0
H1584 H 0.83719 0.25859 0.21497 0.0
H1585 H 0.8517 0.19978 0.25326 0.0
H1586 H 0.86111 0.26607 0.05966 0.0
H1587 H 0.84015 0.25684 0.01568 0.0
H1588 H 0.83794 0.27225 0.0955 0.0
H1589 H 0.86015 0.17905 0.1543 0.0
H1590 H 0.8593 0.18736 0.05937 0.0
H1591 H 0.87993 0.19194 0.11524 0.0
H1592 H 0.8561 0.22255 0.83747 0.0
H1593 H 0.90774 0.24018 0.94627 0.0
H1594 H 0.82569 0.2273 0.96901 0.0
H1595 H 0.83257 0.20418 0.00185 0.0
H1596 H 0.83054 0.20857 0.90335 0.0
H1597 H 0.89018 0.24859 0.11553 0.0
H1598 H 0.91147 0.23843 0.07588 0.0
H1599 H 0.89511 0.22373 0.12783 0.0
C1600 C 0.68285 0.78396 0.69459 0.0
C1601 C 0.68777 0.76592 0.72261 0.0
C1602 C 0.67686 0.78611 0.62079 0.0
C1603 C 0.676 0.76988 0.57421 0.0
C1604 C 0.68277 0.75205 0.60016 0.0
C1605 C 0.68854 0.75027 0.67429 0.0
C1606 C 0.66996 0.8054 0.59481 0.0
C1607 C 0.68249 0.73449 0.55146 0.0
C1608 C 0.63786 0.76372 0.42793 0.0
C1609 C 0.64843 0.76572 0.36249 0.0
C1610 C 0.64643 0.76633 0.49754 0.0
C1611 C 0.66609 0.77084 0.50157 0.0
C1612 C 0.67655 0.77407 0.43577 0.0
C1613 C 0.66762 0.77138 0.36698 0.0
C1614 C 0.63472 0.76303 0.56675 0.0
C1615 C 0.69752 0.77895 0.43756 0.0
H1616 H 0.68223 0.79616 0.7316 0.0
H1617 H 0.69252 0.73635 0.69562 0.0
H1618 H 0.67511 0.80847 0.53779 0.0
H1619 H 0.65415 0.80545 0.5933 0.0
H1620 H 0.67472 0.81705 0.6324 0.0
H1621 H 0.69002 0.72224 0.5775 0.0
H1622 H 0.6675 0.73022 0.54062 0.0
H1623 H 0.68923 0.73755 0.49704 0.0
H1624 H 0.62306 0.75933 0.42471 0.0
H1625 H 0.67616 0.77253 0.31733 0.0
H1626 H 0.63659 0.77505 0.60624 0.0
H1627 H 0.63971 0.74986 0.59498 0.0
H1628 H 0.61929 0.76144 0.55424 0.0
H1629 H 0.70234 0.78529 0.38423 0.0
H1630 H 0.70589 0.76574 0.4474 0.0
H1631 H 0.70082 0.78906 0.48322 0.0
C1632 C 0.63584 0.23726 0.54846 0.0
C1633 C 0.64568 0.23426 0.61496 0.0
C1634 C 0.64428 0.23285 0.48009 0.0
C1635 C 0.66309 0.22546 0.4785 0.0
C1636 C 0.67277 0.22157 0.54553 0.0
C1637 C 0.66399 0.22613 0.613 0.0
C1638 C 0.63343 0.23707 0.40945 0.0
C1639 C 0.69286 0.2138 0.54634 0.0
C1640 C 0.67638 0.20734 0.28837 0.0
C1641 C 0.68327 0.22419 0.25595 0.0
C1642 C 0.67113 0.20696 0.36343 0.0
C1643 C 0.67307 0.22374 0.40644 0.0
C1644 C 0.68222 0.23998 0.3762 0.0
C1645 C 0.68719 0.24002 0.30097 0.0
C1646 C 0.66181 0.18927 0.39446 0.0
C1647 C 0.68504 0.25797 0.42113 0.0
H1648 H 0.62175 0.24363 0.54986 0.0
H1649 H 0.67204 0.22426 0.66363 0.0
H1650 H 0.64061 0.24878 0.37879 0.0
H1651 H 0.63335 0.22434 0.37275 0.0
H1652 H 0.61845 0.24138 0.42043 0.0
H1653 H 0.69649 0.20735 0.60091 0.0
H1654 H 0.69493 0.2029 0.50234 0.0
H1655 H 0.70303 0.22561 0.53564 0.0
H1656 H 0.67344 0.19499 0.25389 0.0
H1657 H 0.69281 0.25295 0.27616 0.0
H1658 H 0.64619 0.19162 0.39857 0.0
H1659 H 0.66716 0.18618 0.45119 0.0
H1660 H 0.66432 0.17659 0.35868 0.0
H1661 H 0.67103 0.26494 0.43041 0.0
H1662 H 0.69457 0.2683 0.39268 0.0
H1663 H 0.69116 0.25458 0.47638 0.0
C1664 C 0.86336 0.77632 0.10084 0.0
C1665 C 0.88279 0.77162 0.10573 0.0
C1666 C 0.85436 0.77841 0.03185 0.0
C1667 C 0.86504 0.7756 0.96625 0.0
C1668 C 0.88491 0.77216 0.97067 0.0
C1669 C 0.89353 0.7701 0.04047 0.0
C1670 C 0.83316 0.78215 0.02966 0.0
C1671 C 0.89685 0.76941 0.9017 0.0
C1672 C 0.84371 0.75353 0.79393 0.0
C1673 C 0.84356 0.76913 0.74529 0.0
C1674 C 0.84945 0.75575 0.86794 0.0
C1675 C 0.85526 0.77397 0.8935 0.0
C1676 C 0.85352 0.79004 0.84655 0.0
C1677 C 0.84757 0.78745 0.77289 0.0
C1678 C 0.8507 0.73831 0.91703 0.0
C1679 C 0.85938 0.80972 0.87206 0.0
H1680 H 0.85472 0.77714 0.15034 0.0
H1681 H 0.90853 0.76648 0.04398 0.0
H1682 H 0.82939 0.79204 0.98388 0.0
H1683 H 0.82554 0.7685 0.01971 0.0
H1684 H 0.82794 0.78825 0.08286 0.0
H1685 H 0.91234 0.7687 0.91446 0.0
H1686 H 0.89263 0.75594 0.87369 0.0
H1687 H 0.89437 0.78124 0.86191 0.0
H1688 H 0.84044 0.73939 0.77298 0.0
H1689 H 0.84747 0.7996 0.73567 0.0
H1690 H 0.84377 0.74109 0.97134 0.0
H1691 H 0.86589 0.73491 0.92806 0.0
H1692 H 0.84388 0.72562 0.89123 0.0
H1693 H 0.85402 0.82103 0.83419 0.0
H1694 H 0.87517 0.8106 0.87364 0.0
H1695 H 0.85406 0.81262 0.92899 0.0
C1696 C 0.50867 0.62764 0.30417 0.0
C1697 C 0.49547 0.62544 0.36225 0.0
C1698 C 0.50502 0.6204 0.23309 0.0
C1699 C 0.48793 0.61026 0.21978 0.0
C1700 C 0.47407 0.60884 0.27645 0.0
C1701 C 0.47777 0.61697 0.34633 0.0
C1702 C 0.51981 0.62306 0.17293 0.0
C1703 C 0.45566 0.59812 0.26413 0.0
C1704 C 0.47638 0.60273 0.01672 0.0
C1705 C 0.48612 0.58566 0.00236 0.0
C1706 C 0.476 0.61057 0.08824 0.0
C1707 C 0.48508 0.60071 0.14701 0.0
C1708 C 0.49359 0.58265 0.13367 0.0
C1709 C 0.49443 0.57554 0.06083 0.0
C1710 C 0.46746 0.63019 0.09879 0.0
C1711 C 0.50277 0.57139 0.19556 0.0
H1712 H 0.52225 0.63452 0.31451 0.0
H1713 H 0.46677 0.61639 0.38797 0.0
H1714 H 0.52626 0.60907 0.15864 0.0
H1715 H 0.51306 0.62877 0.1218 0.0
H1716 H 0.53141 0.63292 0.19015 0.0
H1717 H 0.44618 0.59859 0.31351 0.0
H1718 H 0.44786 0.60414 0.21591 0.0
H1719 H 0.45885 0.58297 0.25096 0.0
H1720 H 0.4703 0.61074 0.97088 0.0
H1721 H 0.50204 0.5624 0.04922 0.0
H1722 H 0.47911 0.6409 0.09996 0.0
H1723 H 0.45965 0.63128 0.15212 0.0
H1724 H 0.45759 0.63398 0.05279 0.0
H1725 H 0.51626 0.57842 0.21255 0.0
H1726 H 0.50606 0.55652 0.17844 0.0
H1727 H 0.4933 0.57099 0.24492 0.0
C1728 C 0.03798 0.36984 0.83519 0.0
C1729 C 0.02121 0.37564 0.87064 0.0
C1730 C 0.04293 0.37743 0.76561 0.0
C1731 C 0.03093 0.39127 0.73232 0.0
C1732 C 0.01436 0.39761 0.76968 0.0
C1733 C 0.00963 0.38959 0.83815 0.0
C1734 C 0.06058 0.37022 0.72673 0.0
C1735 C 0.00128 0.41248 0.73639 0.0
C1736 C 0.04494 0.42197 0.5677 0.0
C1737 C 0.03464 0.41297 0.51119 0.0
C1738 C 0.04466 0.41459 0.64029 0.0
C1739 C 0.03422 0.39768 0.65514 0.0
C1740 C 0.0248 0.388 0.59682 0.0
C1741 C 0.025 0.39587 0.52571 0.0
C1742 C 0.0547 0.42533 0.70154 0.0
C1743 C 0.01376 0.36978 0.61004 0.0
H1744 H 0.04699 0.35921 0.86134 0.0
H1745 H 0.9969 0.39437 0.8668 0.0
H1746 H 0.05641 0.36209 0.67638 0.0
H1747 H 0.06953 0.38237 0.70815 0.0
H1748 H 0.06927 0.36078 0.76293 0.0
H1749 H 0.98997 0.41707 0.77572 0.0
H1750 H 0.00957 0.42523 0.71927 0.0
H1751 H 0.99434 0.40662 0.68591 0.0
H1752 H 0.05262 0.43504 0.55565 0.0
H1753 H 0.01751 0.38862 0.48111 0.0
H1754 H 0.06349 0.41546 0.73544 0.0
H1755 H 0.04396 0.43182 0.73908 0.0
H1756 H 0.06399 0.43687 0.67959 0.0
H1757 H 0.02258 0.35938 0.64126 0.0
H1758 H 0.00901 0.36302 0.55736 0.0
H1759 H 0.00096 0.37291 0.64417 0.0
C1760 C 0.51379 0.37351 0.68613 0.0
C1761 C 0.50148 0.37567 0.6251 0.0
C1762 C 0.50888 0.38042 0.75654 0.0
C1763 C 0.49145 0.39028 0.76604 0.0
C1764 C 0.47849 0.39166 0.70625 0.0
C1765 C 0.48339 0.38374 0.63725 0.0
C1766 C 0.52268 0.37775 0.82017 0.0
C1767 C 0.45981 0.40219 0.71426 0.0
C1768 C 0.47665 0.39715 0.966 0.0
C1769 C 0.48621 0.41414 0.98346 0.0
C1770 C 0.47735 0.38957 0.89412 0.0
C1771 C 0.48731 0.39964 0.83815 0.0
C1772 C 0.49546 0.41771 0.8542 0.0
C1773 C 0.49525 0.42453 0.92746 0.0
C1774 C 0.46913 0.36994 0.8806 0.0
C1775 C 0.50549 0.42922 0.79509 0.0
H1776 H 0.52762 0.36688 0.67878 0.0
H1777 H 0.47297 0.3842 0.59348 0.0
H1778 H 0.52883 0.39174 0.83626 0.0
H1779 H 0.51517 0.37194 0.86945 0.0
H1780 H 0.53457 0.36796 0.80561 0.0
H1781 H 0.45107 0.40158 0.66286 0.0
H1782 H 0.45138 0.39619 0.76079 0.0
H1783 H 0.46267 0.41739 0.72775 0.0
H1784 H 0.47001 0.38893 0.01001 0.0
H1785 H 0.50272 0.4376 0.94151 0.0
H1786 H 0.48089 0.35934 0.88053 0.0
H1787 H 0.46195 0.36906 0.82587 0.0
H1788 H 0.45878 0.36581 0.9245 0.0
H1789 H 0.51935 0.42243 0.78152 0.0
H1790 H 0.50825 0.44411 0.81343 0.0
H1791 H 0.49687 0.42957 0.74337 0.0
C1792 C 0.01839 0.59938 0.45147 0.0
C1793 C 0.03184 0.58549 0.47145 0.0
C1794 C 0.01851 0.60759 0.38097 0.0
C1795 C 0.03209 0.60136 0.32828 0.0
C1796 C 0.04576 0.58735 0.34787 0.0
C1797 C 0.04567 0.57976 0.42008 0.0
C1798 C 0.00391 0.62277 0.36269 0.0
C1799 C 0.0601 0.58009 0.29214 0.0
C1800 C 0.01294 0.60809 0.13538 0.0
C1801 C 0.02218 0.62482 0.11312 0.0
C1802 C 0.01723 0.59948 0.20313 0.0
C1803 C 0.03051 0.60834 0.25111 0.0
C1804 C 0.04015 0.62515 0.22843 0.0
C1805 C 0.03605 0.63309 0.15857 0.0
C1806 C 0.00689 0.58137 0.22457 0.0
C1807 C 0.05404 0.63519 0.27918 0.0
H1808 H 0.00799 0.60428 0.49175 0.0
H1809 H 0.05621 0.56921 0.43612 0.0
H1810 H 0.01102 0.63554 0.33902 0.0
H1811 H 0.99384 0.61729 0.32021 0.0
H1812 H 0.99556 0.62724 0.41217 0.0
H1813 H 0.07045 0.56999 0.31737 0.0
H1814 H 0.05255 0.5727 0.24621 0.0
H1815 H 0.06806 0.59218 0.26729 0.0
H1816 H 0.00221 0.60176 0.09982 0.0
H1817 H 0.04323 0.64597 0.14038 0.0
H1818 H 0.99639 0.58454 0.26897 0.0
H1819 H 0.01706 0.57068 0.24686 0.0
H1820 H -0.00084 0.57493 0.17684 0.0
H1821 H 0.04623 0.64131 0.3272 0.0
H1822 H 0.06175 0.64691 0.25048 0.0
H1823 H 0.06462 0.62494 0.30165 0.0
loop_
_geom_bond_atom_site_label_1
_geom_bond_atom_site_label_2
_geom_bond_distance
_geom_bond_site_symmetry_2
_ccdc_geom_bond_type
Co0 O3 1.970 1_455 S
Co0 N17 1.989 . S
Co0 O25 1.967 . S
Co0 O32 1.920 . S
Co1 O4 1.977 . S
Co1 N10 2.022 . S
Co1 N18 1.993 . S
Co1 O26 1.941 . S
C2 O3 1.258 . S
C2 O4 1.257 1_655 S
O3 Co0 1.970 1_655 S
O3 C2 1.258 . S
O4 Co1 1.977 . S
O4 C2 1.257 1_455 S
C5 O6 1.235 1_455 S
C5 O32 1.289 . S
O6 C5 1.235 1_655 S
C7 C9 1.406 . S
C7 N10 1.347 1_556 S
C7 C12 1.498 1_456 S
C8 C9 1.387 . S
C8 N11 1.341 . S
C9 C7 1.406 . S
C9 C8 1.387 . S
N10 Co1 2.022 . S
N10 C7 1.347 1_554 S
N10 N11 1.365 1_554 S
N11 C8 1.341 . S
N11 N10 1.365 1_556 S
N11 H31 0.862 1_556 S
C12 C7 1.498 1_654 S
C12 H13 0.961 . S
C12 H14 0.961 . S
C12 H15 0.960 . S
H13 C12 0.961 . S
H14 C12 0.961 . S
H15 C12 0.960 . S
C16 N17 1.342 . S
C16 C20 1.401 . S
C16 C21 1.499 . S
N17 Co0 1.989 . S
N17 C16 1.342 . S
N17 N18 1.388 . S
N18 Co1 1.993 . S
N18 N17 1.388 . S
N18 C19 1.346 . S
C19 N18 1.346 . S
C19 C20 1.396 . S
C19 C29 1.510 . S
C20 C16 1.401 . S
C20 C19 1.396 . S
C21 C16 1.499 . S
C21 H22 0.959 . S
C21 H23 0.960 . S
C21 H24 0.961 . S
H22 C21 0.959 . S
H23 C21 0.960 . S
H24 C21 0.961 . S
O25 Co0 1.967 . S
O25 C33 1.258 . S
O26 Co1 1.941 . S
O26 C33 1.266 . S
H27 C29 0.959 . S
H28 C29 0.961 . S
C29 C19 1.510 . S
C29 H27 0.959 . S
C29 H28 0.961 . S
C29 H30 0.960 . S
H30 C29 0.960 . S
H31 N11 0.862 1_554 S
O32 Co0 1.920 . S
O32 C5 1.289 . S
C33 O25 1.258 . S
C33 O26 1.266 . S
Co34 O37 1.970 . S
Co34 N51 1.989 . S
Co34 O59 1.967 . S
Co34 O66 1.920 . S
Co35 O38 1.966 . S
Co35 N44 2.022 . S
Co35 N52 1.993 . S
Co35 O60 1.941 . S
C36 O37 1.258 . S
C36 O38 1.263 . S
O37 Co34 1.970 . S
O37 C36 1.258 . S
O38 Co35 1.966 . S
O38 C36 1.263 . S
C39 O40 1.235 . S
C39 O66 1.289 . S
O40 C39 1.235 . S
C41 C43 1.400 . S
C41 N44 1.351 . S
C41 C46 1.501 . S
C42 C43 1.387 . S
C42 N45 1.341 . S
C43 C41 1.400 . S
C43 C42 1.387 . S
N44 Co35 2.022 . S
N44 C41 1.351 . S
N44 N45 1.365 . S
N45 C42 1.341 . S
N45 N44 1.365 . S
N45 H65 0.862 . S
C46 C41 1.501 . S
C46 H47 0.961 . S
C46 H48 0.961 . S
C46 H49 0.960 . S
H47 C46 0.961 . S
H48 C46 0.961 . S
H49 C46 0.960 . S
C50 N51 1.342 . S
C50 C54 1.401 . S
C50 C55 1.499 . S
N51 Co34 1.989 . S
N51 C50 1.342 . S
N51 N52 1.388 . S
N52 Co35 1.993 . S
N52 N51 1.388 . S
N52 C53 1.346 . S
C53 N52 1.346 . S
C53 C54 1.396 . S
C53 C63 1.510 . S
C54 C50 1.401 . S
C54 C53 1.396 . S
C55 C50 1.499 . S
C55 H56 0.959 . S
C55 H57 0.960 . S
C55 H58 0.961 . S
H56 C55 0.959 . S
H57 C55 0.960 . S
H58 C55 0.961 . S
O59 Co34 1.967 . S
O59 C67 1.258 . S
O60 Co35 1.941 . S
O60 C67 1.266 . S
H61 C63 0.959 . S
H62 C63 0.961 . S
C63 C53 1.510 . S
C63 H61 0.959 . S
C63 H62 0.961 . S
C63 H64 0.960 . S
H64 C63 0.960 . S
H65 N45 0.862 . S
O66 Co34 1.920 . S
O66 C39 1.289 . S
C67 O59 1.258 . S
C67 O60 1.266 . S
Co68 O71 1.970 . S
Co68 N85 1.989 . S
Co68 O93 1.967 . S
Co68 O100 1.920 . S
Co69 O72 1.966 . S
Co69 N78 2.022 . S
Co69 N86 1.993 . S
Co69 O94 1.941 . S
C70 O71 1.258 . S
C70 O72 1.263 . S
O71 Co68 1.970 . S
O71 C70 1.258 . S
O72 Co69 1.966 . S
O72 C70 1.263 . S
C73 O74 1.235 . S
C73 O100 1.289 . S
O74 C73 1.235 . S
C75 C77 1.400 . S
C75 N78 1.351 . S
C75 C80 1.501 . S
C76 C77 1.387 . S
C76 N79 1.341 . S
C77 C75 1.400 . S
C77 C76 1.387 . S
N78 Co69 2.022 . S
N78 C75 1.351 . S
N78 N79 1.365 . S
N79 C76 1.341 . S
N79 N78 1.365 . S
N79 H99 0.862 . S
C80 C75 1.501 . S
C80 H81 0.961 . S
C80 H82 0.961 . S
C80 H83 0.960 . S
H81 C80 0.961 . S
H82 C80 0.961 . S
H83 C80 0.960 . S
C84 N85 1.342 . S
C84 C88 1.401 . S
C84 C89 1.499 . S
N85 Co68 1.989 . S
N85 C84 1.342 . S
N85 N86 1.388 . S
N86 Co69 1.993 . S
N86 N85 1.388 . S
N86 C87 1.346 . S
C87 N86 1.346 . S
C87 C88 1.396 . S
C87 C97 1.510 . S
C88 C84 1.401 . S
C88 C87 1.396 . S
C89 C84 1.499 . S
C89 H90 0.959 . S
C89 H91 0.960 . S
C89 H92 0.961 . S
H90 C89 0.959 . S
H91 C89 0.960 . S
H92 C89 0.961 . S
O93 Co68 1.967 . S
O93 C101 1.258 . S
O94 Co69 1.941 . S
O94 C101 1.266 . S
H95 C97 0.959 . S
H96 C97 0.961 . S
C97 C87 1.510 . S
C97 H95 0.959 . S
C97 H96 0.961 . S
C97 H98 0.960 . S
H98 C97 0.960 . S
H99 N79 0.862 . S
O100 Co68 1.920 . S
O100 C73 1.289 . S
C101 O93 1.258 . S
C101 O94 1.266 . S
Co102 O105 1.970 . S
Co102 N119 1.989 . S
Co102 O127 1.967 . S
Co102 O134 1.920 . S
Co103 O106 1.966 . S
Co103 N112 2.022 . S
Co103 N120 1.993 . S
Co103 O128 1.941 . S
C104 O105 1.258 . S
C104 O106 1.263 1_554 S
O105 Co102 1.970 . S
O105 C104 1.258 . S
O106 Co103 1.966 . S
O106 C104 1.263 1_556 S
C107 O108 1.235 . S
C107 O134 1.289 . S
O108 C107 1.235 . S
C109 C111 1.400 . S
C109 N112 1.351 . S
C109 C114 1.501 . S
C110 C111 1.387 . S
C110 N113 1.341 . S
C111 C109 1.400 . S
C111 C110 1.387 . S
N112 Co103 2.022 . S
N112 C109 1.351 . S
N112 N113 1.365 . S
N113 C110 1.341 . S
N113 N112 1.365 . S
N113 H133 0.862 . S
C114 C109 1.501 . S
C114 H115 0.961 . S
C114 H116 0.961 . S
C114 H117 0.960 . S
H115 C114 0.961 . S
H116 C114 0.961 . S
H117 C114 0.960 . S
C118 N119 1.342 . S
C118 C122 1.401 1_554 S
C118 C123 1.499 . S
N119 Co102 1.989 . S
N119 C118 1.342 . S
N119 N120 1.388 1_554 S
N120 Co103 1.993 . S
N120 N119 1.388 1_556 S
N120 C121 1.346 . S
C121 N120 1.346 . S
C121 C122 1.396 . S
C121 C131 1.510 . S
C122 C118 1.401 1_556 S
C122 C121 1.396 . S
C123 C118 1.499 . S
C123 H124 0.959 . S
C123 H125 0.960 . S
C123 H126 0.961 . S
H124 C123 0.959 . S
H125 C123 0.960 . S
H126 C123 0.961 . S
O127 Co102 1.967 . S
O127 C135 1.258 . S
O128 Co103 1.941 . S
O128 C135 1.266 1_556 S
H129 C131 0.959 . S
H130 C131 0.961 . S
C131 C121 1.510 . S
C131 H129 0.959 . S
C131 H130 0.961 . S
C131 H132 0.960 . S
H132 C131 0.960 . S
H133 N113 0.862 . S
O134 Co102 1.920 . S
O134 C107 1.289 . S
C135 O127 1.258 . S
C135 O128 1.266 1_554 S
Co136 O139 1.970 1_455 S
Co136 N153 1.989 . S
Co136 O161 1.967 . S
Co136 O168 1.920 . S
Co137 O140 1.977 . S
Co137 N146 2.022 . S
Co137 N154 1.993 . S
Co137 O162 1.941 . S
C138 O139 1.258 . S
C138 O140 1.257 1_655 S
O139 Co136 1.970 1_655 S
O139 C138 1.258 . S
O140 Co137 1.977 . S
O140 C138 1.257 1_455 S
C141 O142 1.235 1_455 S
C141 O168 1.289 . S
O142 C141 1.235 1_655 S
C143 C145 1.406 . S
C143 N146 1.347 1_554 S
C143 C148 1.498 1_454 S
C144 C145 1.387 . S
C144 N147 1.341 . S
C145 C143 1.406 . S
C145 C144 1.387 . S
N146 Co137 2.022 . S
N146 C143 1.347 1_556 S
N146 N147 1.365 1_556 S
N147 C144 1.341 . S
N147 N146 1.365 1_554 S
N147 H167 0.862 1_554 S
C148 C143 1.498 1_656 S
C148 H149 0.961 . S
C148 H150 0.961 . S
C148 H151 0.960 . S
H149 C148 0.961 . S
H150 C148 0.961 . S
H151 C148 0.960 . S
C152 N153 1.342 . S
C152 C156 1.401 . S
C152 C157 1.499 . S
N153 Co136 1.989 . S
N153 C152 1.342 . S
N153 N154 1.388 . S
N154 Co137 1.993 . S
N154 N153 1.388 . S
N154 C155 1.346 . S
C155 N154 1.346 . S
C155 C156 1.396 . S
C155 C165 1.510 . S
C156 C152 1.401 . S
C156 C155 1.396 . S
C157 C152 1.499 . S
C157 H158 0.959 . S
C157 H159 0.960 . S
C157 H160 0.961 . S
H158 C157 0.959 . S
H159 C157 0.960 . S
H160 C157 0.961 . S
O161 Co136 1.967 . S
O161 C169 1.258 . S
O162 Co137 1.941 . S
O162 C169 1.266 . S
H163 C165 0.959 . S
H164 C165 0.961 . S
C165 C155 1.510 . S
C165 H163 0.959 . S
C165 H164 0.961 . S
C165 H166 0.960 . S
H166 C165 0.960 . S
H167 N147 0.862 1_556 S
O168 Co136 1.920 . S
O168 C141 1.289 . S
C169 O161 1.258 . S
C169 O162 1.266 . S
Co170 O173 1.970 . S
Co170 N187 1.989 . S
Co170 O195 1.967 . S
Co170 O202 1.920 . S
Co171 O174 1.966 . S
Co171 N180 2.022 . S
Co171 N188 1.993 . S
Co171 O196 1.941 . S
C172 O173 1.258 . S
C172 O174 1.263 1_556 S
O173 Co170 1.970 . S
O173 C172 1.258 . S
O174 Co171 1.966 . S
O174 C172 1.263 1_554 S
C175 O176 1.235 . S
C175 O202 1.289 . S
O176 C175 1.235 . S
C177 C179 1.400 . S
C177 N180 1.351 . S
C177 C182 1.501 . S
C178 C179 1.387 . S
C178 N181 1.341 . S
C179 C177 1.400 . S
C179 C178 1.387 . S
N180 Co171 2.022 . S
N180 C177 1.351 . S
N180 N181 1.365 . S
N181 C178 1.341 . S
N181 N180 1.365 . S
N181 H201 0.862 . S
C182 C177 1.501 . S
C182 H183 0.961 . S
C182 H184 0.961 . S
C182 H185 0.960 . S
H183 C182 0.961 . S
H184 C182 0.961 . S
H185 C182 0.960 . S
C186 N187 1.342 . S
C186 C190 1.401 1_556 S
C186 C191 1.499 . S
N187 Co170 1.989 . S
N187 C186 1.342 . S
N187 N188 1.388 1_556 S
N188 Co171 1.993 . S
N188 N187 1.388 1_554 S
N188 C189 1.346 . S
C189 N188 1.346 . S
C189 C190 1.396 . S
C189 C199 1.510 . S
C190 C186 1.401 1_554 S
C190 C189 1.396 . S
C191 C186 1.499 . S
C191 H192 0.959 . S
C191 H193 0.960 . S
C191 H194 0.961 . S
H192 C191 0.959 . S
H193 C191 0.960 . S
H194 C191 0.961 . S
O195 Co170 1.967 . S
O195 C203 1.258 . S
O196 Co171 1.941 . S
O196 C203 1.266 1_554 S
H197 C199 0.959 . S
H198 C199 0.961 . S
C199 C189 1.510 . S
C199 H197 0.959 . S
C199 H198 0.961 . S
C199 H200 0.960 . S
H200 C199 0.960 . S
H201 N181 0.862 . S
O202 Co170 1.920 . S
O202 C175 1.289 . S
C203 O195 1.258 . S
C203 O196 1.266 1_556 S
Co204 O207 1.970 . S
Co204 N221 1.989 . S
Co204 O229 1.967 . S
Co204 O236 1.920 . S
Co205 O208 1.966 . S
Co205 N214 2.022 . S
Co205 N222 1.993 . S
Co205 O230 1.941 . S
C206 O207 1.258 . S
C206 O208 1.263 . S
O207 Co204 1.970 . S
O207 C206 1.258 . S
O208 Co205 1.966 . S
O208 C206 1.263 . S
C209 O210 1.235 . S
C209 O236 1.289 . S
O210 C209 1.235 . S
C211 C213 1.400 . S
C211 N214 1.351 . S
C211 C216 1.501 . S
C212 C213 1.387 . S
C212 N215 1.341 . S
C213 C211 1.400 . S
C213 C212 1.387 . S
N214 Co205 2.022 . S
N214 C211 1.351 . S
N214 N215 1.365 . S
N215 C212 1.341 . S
N215 N214 1.365 . S
N215 H235 0.862 . S
C216 C211 1.501 . S
C216 H217 0.961 . S
C216 H218 0.961 . S
C216 H219 0.960 . S
H217 C216 0.961 . S
H218 C216 0.961 . S
H219 C216 0.960 . S
C220 N221 1.342 . S
C220 C224 1.401 . S
C220 C225 1.499 . S
N221 Co204 1.989 . S
N221 C220 1.342 . S
N221 N222 1.388 . S
N222 Co205 1.993 . S
N222 N221 1.388 . S
N222 C223 1.346 . S
C223 N222 1.346 . S
C223 C224 1.396 . S
C223 C233 1.510 . S
C224 C220 1.401 . S
C224 C223 1.396 . S
C225 C220 1.499 . S
C225 H226 0.959 . S
C225 H227 0.960 . S
C225 H228 0.961 . S
H226 C225 0.959 . S
H227 C225 0.960 . S
H228 C225 0.961 . S
O229 Co204 1.967 . S
O229 C237 1.258 . S
O230 Co205 1.941 . S
O230 C237 1.266 . S
H231 C233 0.959 . S
H232 C233 0.961 . S
C233 C223 1.510 . S
C233 H231 0.959 . S
C233 H232 0.961 . S
C233 H234 0.960 . S
H234 C233 0.960 . S
H235 N215 0.862 . S
O236 Co204 1.920 . S
O236 C209 1.289 . S
C237 O229 1.258 . S
C237 O230 1.266 . S
Co238 O241 1.970 . S
Co238 N255 1.989 . S
Co238 O263 1.967 . S
Co238 O270 1.920 . S
Co239 O242 1.966 . S
Co239 N248 2.022 . S
Co239 N256 1.993 . S
Co239 O264 1.941 . S
C240 O241 1.258 . S
C240 O242 1.263 . S
O241 Co238 1.970 . S
O241 C240 1.258 . S
O242 Co239 1.966 . S
O242 C240 1.263 . S
C243 O244 1.235 . S
C243 O270 1.289 . S
O244 C243 1.235 . S
C245 C247 1.400 . S
C245 N248 1.351 . S
C245 C250 1.501 . S
C246 C247 1.387 . S
C246 N249 1.341 . S
C247 C245 1.400 . S
C247 C246 1.387 . S
N248 Co239 2.022 . S
N248 C245 1.351 . S
N248 N249 1.365 . S
N249 C246 1.341 . S
N249 N248 1.365 . S
N249 H269 0.862 . S
C250 C245 1.501 . S
C250 H251 0.961 . S
C250 H252 0.961 . S
C250 H253 0.960 . S
H251 C250 0.961 . S
H252 C250 0.961 . S
H253 C250 0.960 . S
C254 N255 1.342 . S
C254 C258 1.401 . S
C254 C259 1.499 . S
N255 Co238 1.989 . S
N255 C254 1.342 . S
N255 N256 1.388 . S
N256 Co239 1.993 . S
N256 N255 1.388 . S
N256 C257 1.346 . S
C257 N256 1.346 . S
C257 C258 1.396 . S
C257 C267 1.510 . S
C258 C254 1.401 . S
C258 C257 1.396 . S
C259 C254 1.499 . S
C259 H260 0.959 . S
C259 H261 0.960 . S
C259 H262 0.961 . S
H260 C259 0.959 . S
H261 C259 0.960 . S
H262 C259 0.961 . S
O263 Co238 1.967 . S
O263 C271 1.258 . S
O264 Co239 1.941 . S
O264 C271 1.266 . S
H265 C267 0.959 . S
H266 C267 0.961 . S
C267 C257 1.510 . S
C267 H265 0.959 . S
C267 H266 0.961 . S
C267 H268 0.960 . S
H268 C267 0.960 . S
H269 N249 0.862 . S
O270 Co238 1.920 . S
O270 C243 1.289 . S
C271 O263 1.258 . S
C271 O264 1.266 . S
Co272 O275 1.970 . S
Co272 N289 1.989 . S
Co272 O297 1.967 . S
Co272 O304 1.920 . S
Co273 O276 1.966 . S
Co273 N282 2.022 . S
Co273 N290 1.993 . S
Co273 O298 1.941 . S
C274 O275 1.258 . S
C274 O276 1.263 . S
O275 Co272 1.970 . S
O275 C274 1.258 . S
O276 Co273 1.966 . S
O276 C274 1.263 . S
C277 O278 1.235 . S
C277 O304 1.289 . S
O278 C277 1.235 . S
C279 C281 1.400 . S
C279 N282 1.351 . S
C279 C284 1.501 . S
C280 C281 1.387 . S
C280 N283 1.341 . S
C281 C279 1.400 . S
C281 C280 1.387 . S
N282 Co273 2.022 . S
N282 C279 1.351 . S
N282 N283 1.365 . S
N283 C280 1.341 . S
N283 N282 1.365 . S
N283 H303 0.862 . S
C284 C279 1.501 . S
C284 H285 0.961 . S
C284 H286 0.961 . S
C284 H287 0.960 . S
H285 C284 0.961 . S
H286 C284 0.961 . S
H287 C284 0.960 . S
C288 N289 1.342 . S
C288 C292 1.401 . S
C288 C293 1.499 . S
N289 Co272 1.989 . S
N289 C288 1.342 . S
N289 N290 1.388 . S
N290 Co273 1.993 . S
N290 N289 1.388 . S
N290 C291 1.346 . S
C291 N290 1.346 . S
C291 C292 1.396 . S
C291 C301 1.510 . S
C292 C288 1.401 . S
C292 C291 1.396 . S
C293 C288 1.499 . S
C293 H294 0.959 . S
C293 H295 0.960 . S
C293 H296 0.961 . S
H294 C293 0.959 . S
H295 C293 0.960 . S
H296 C293 0.961 . S
O297 Co272 1.967 . S
O297 C305 1.258 . S
O298 Co273 1.941 . S
O298 C305 1.266 . S
H299 C301 0.959 . S
H300 C301 0.961 . S
C301 C291 1.510 . S
C301 H299 0.959 . S
C301 H300 0.961 . S
C301 H302 0.960 . S
H302 C301 0.960 . S
H303 N283 0.862 . S
O304 Co272 1.920 . S
O304 C277 1.289 . S
C305 O297 1.258 . S
C305 O298 1.266 . S
Co306 O309 1.970 . S
Co306 N323 1.989 . S
Co306 O331 1.967 . S
Co306 O338 1.920 . S
Co307 O310 1.966 . S
Co307 N316 2.022 . S
Co307 N324 1.993 . S
Co307 O332 1.941 . S
C308 O309 1.258 . S
C308 O310 1.263 1_556 S
O309 Co306 1.970 . S
O309 C308 1.258 . S
O310 Co307 1.966 . S
O310 C308 1.263 1_554 S
C311 O312 1.235 . S
C311 O338 1.289 . S
O312 C311 1.235 . S
C313 C315 1.400 . S
C313 N316 1.351 . S
C313 C318 1.501 . S
C314 C315 1.387 . S
C314 N317 1.341 . S
C315 C313 1.400 . S
C315 C314 1.387 . S
N316 Co307 2.022 . S
N316 C313 1.351 . S
N316 N317 1.365 . S
N317 C314 1.341 . S
N317 N316 1.365 . S
N317 H337 0.862 . S
C318 C313 1.501 . S
C318 H319 0.961 . S
C318 H320 0.961 . S
C318 H321 0.960 . S
H319 C318 0.961 . S
H320 C318 0.961 . S
H321 C318 0.960 . S
C322 N323 1.342 . S
C322 C326 1.401 1_556 S
C322 C327 1.499 . S
N323 Co306 1.989 . S
N323 C322 1.342 . S
N323 N324 1.388 1_556 S
N324 Co307 1.993 . S
N324 N323 1.388 1_554 S
N324 C325 1.346 . S
C325 N324 1.346 . S
C325 C326 1.396 . S
C325 C335 1.510 . S
C326 C322 1.401 1_554 S
C326 C325 1.396 . S
C327 C322 1.499 . S
C327 H328 0.959 . S
C327 H329 0.960 . S
C327 H330 0.961 . S
H328 C327 0.959 . S
H329 C327 0.960 . S
H330 C327 0.961 . S
O331 Co306 1.967 . S
O331 C339 1.258 . S
O332 Co307 1.941 . S
O332 C339 1.266 1_554 S
H333 C335 0.959 . S
H334 C335 0.961 . S
C335 C325 1.510 . S
C335 H333 0.959 . S
C335 H334 0.961 . S
C335 H336 0.960 . S
H336 C335 0.960 . S
H337 N317 0.862 . S
O338 Co306 1.920 . S
O338 C311 1.289 . S
C339 O331 1.258 . S
C339 O332 1.266 1_556 S
Co340 O343 1.970 . S
Co340 N357 1.989 . S
Co340 O365 1.967 . S
Co340 O372 1.920 . S
Co341 O344 1.966 . S
Co341 N350 2.022 . S
Co341 N358 1.993 . S
Co341 O366 1.941 . S
C342 O343 1.258 . S
C342 O344 1.263 1_554 S
O343 Co340 1.970 . S
O343 C342 1.258 . S
O344 Co341 1.966 . S
O344 C342 1.263 1_556 S
C345 O346 1.235 . S
C345 O372 1.289 . S
O346 C345 1.235 . S
C347 C349 1.400 . S
C347 N350 1.351 . S
C347 C352 1.501 . S
C348 C349 1.387 . S
C348 N351 1.341 . S
C349 C347 1.400 . S
C349 C348 1.387 . S
N350 Co341 2.022 . S
N350 C347 1.351 . S
N350 N351 1.365 . S
N351 C348 1.341 . S
N351 N350 1.365 . S
N351 H371 0.862 . S
C352 C347 1.501 . S
C352 H353 0.961 . S
C352 H354 0.961 . S
C352 H355 0.960 . S
H353 C352 0.961 . S
H354 C352 0.961 . S
H355 C352 0.960 . S
C356 N357 1.342 . S
C356 C360 1.401 1_554 S
C356 C361 1.499 . S
N357 Co340 1.989 . S
N357 C356 1.342 . S
N357 N358 1.388 1_554 S
N358 Co341 1.993 . S
N358 N357 1.388 1_556 S
N358 C359 1.346 . S
C359 N358 1.346 . S
C359 C360 1.396 . S
C359 C369 1.510 . S
C360 C356 1.401 1_556 S
C360 C359 1.396 . S
C361 C356 1.499 . S
C361 H362 0.959 . S
C361 H363 0.960 . S
C361 H364 0.961 . S
H362 C361 0.959 . S
H363 C361 0.960 . S
H364 C361 0.961 . S
O365 Co340 1.967 . S
O365 C373 1.258 . S
O366 Co341 1.941 . S
O366 C373 1.266 1_556 S
H367 C369 0.959 . S
H368 C369 0.961 . S
C369 C359 1.510 . S
C369 H367 0.959 . S
C369 H368 0.961 . S
C369 H370 0.960 . S
H370 C369 0.960 . S
H371 N351 0.862 . S
O372 Co340 1.920 . S
O372 C345 1.289 . S
C373 O365 1.258 . S
C373 O366 1.266 1_554 S
Co374 O377 1.970 . S
Co374 N391 1.989 . S
Co374 O399 1.967 . S
Co374 O406 1.920 . S
Co375 O378 1.966 . S
Co375 N384 2.022 . S
Co375 N392 1.993 . S
Co375 O400 1.941 . S
C376 O377 1.258 . S
C376 O378 1.263 . S
O377 Co374 1.970 . S
O377 C376 1.258 . S
O378 Co375 1.966 . S
O378 C376 1.263 . S
C379 O380 1.235 . S
C379 O406 1.289 . S
O380 C379 1.235 . S
C381 C383 1.400 . S
C381 N384 1.351 . S
C381 C386 1.501 . S
C382 C383 1.387 . S
C382 N385 1.341 . S
C383 C381 1.400 . S
C383 C382 1.387 . S
N384 Co375 2.022 . S
N384 C381 1.351 . S
N384 N385 1.365 . S
N385 C382 1.341 . S
N385 N384 1.365 . S
N385 H405 0.862 . S
C386 C381 1.501 . S
C386 H387 0.961 . S
C386 H388 0.961 . S
C386 H389 0.960 . S
H387 C386 0.961 . S
H388 C386 0.961 . S
H389 C386 0.960 . S
C390 N391 1.342 . S
C390 C394 1.401 . S
C390 C395 1.499 . S
N391 Co374 1.989 . S
N391 C390 1.342 . S
N391 N392 1.388 . S
N392 Co375 1.993 . S
N392 N391 1.388 . S
N392 C393 1.346 . S
C393 N392 1.346 . S
C393 C394 1.396 . S
C393 C403 1.510 . S
C394 C390 1.401 . S
C394 C393 1.396 . S
C395 C390 1.499 . S
C395 H396 0.959 . S
C395 H397 0.960 . S
C395 H398 0.961 . S
H396 C395 0.959 . S
H397 C395 0.960 . S
H398 C395 0.961 . S
O399 Co374 1.967 . S
O399 C407 1.258 . S
O400 Co375 1.941 . S
O400 C407 1.266 . S
H401 C403 0.959 . S
H402 C403 0.961 . S
C403 C393 1.510 . S
C403 H401 0.959 . S
C403 H402 0.961 . S
C403 H404 0.960 . S
H404 C403 0.960 . S
H405 N385 0.862 . S
O406 Co374 1.920 . S
O406 C379 1.289 . S
C407 O399 1.258 . S
C407 O400 1.266 . S
Co408 O411 1.970 . S
Co408 N425 1.989 . S
Co408 O433 1.967 . S
Co408 O440 1.920 . S
Co409 O412 1.966 . S
Co409 N418 2.022 . S
Co409 N426 1.993 . S
Co409 O434 1.941 . S
C410 O411 1.258 . S
C410 O412 1.263 . S
O411 Co408 1.970 . S
O411 C410 1.258 . S
O412 Co409 1.966 . S
O412 C410 1.263 . S
C413 O414 1.235 . S
C413 O440 1.289 . S
O414 C413 1.235 . S
C415 C417 1.400 . S
C415 N418 1.351 . S
C415 C420 1.501 . S
C416 C417 1.387 . S
C416 N419 1.341 . S
C417 C415 1.400 . S
C417 C416 1.387 . S
N418 Co409 2.022 . S
N418 C415 1.351 . S
N418 N419 1.365 . S
N419 C416 1.341 . S
N419 N418 1.365 . S
N419 H439 0.862 . S
C420 C415 1.501 . S
C420 H421 0.961 . S
C420 H422 0.961 . S
C420 H423 0.960 . S
H421 C420 0.961 . S
H422 C420 0.961 . S
H423 C420 0.960 . S
C424 N425 1.342 . S
C424 C428 1.401 . S
C424 C429 1.499 . S
N425 Co408 1.989 . S
N425 C424 1.342 . S
N425 N426 1.388 . S
N426 Co409 1.993 . S
N426 N425 1.388 . S
N426 C427 1.346 . S
C427 N426 1.346 . S
C427 C428 1.396 . S
C427 C437 1.510 . S
C428 C424 1.401 . S
C428 C427 1.396 . S
C429 C424 1.499 . S
C429 H430 0.959 . S
C429 H431 0.960 . S
C429 H432 0.961 . S
H430 C429 0.959 . S
H431 C429 0.960 . S
H432 C429 0.961 . S
O433 Co408 1.967 . S
O433 C441 1.258 . S
O434 Co409 1.941 . S
O434 C441 1.266 . S
H435 C437 0.959 . S
H436 C437 0.961 . S
C437 C427 1.510 . S
C437 H435 0.959 . S
C437 H436 0.961 . S
C437 H438 0.960 . S
H438 C437 0.960 . S
H439 N419 0.862 . S
O440 Co408 1.920 . S
O440 C413 1.289 . S
C441 O433 1.258 . S
C441 O434 1.266 . S
Co442 O445 1.970 . S
Co442 N459 1.989 . S
Co442 O467 1.967 1_455 S
Co442 O474 1.920 . S
Co443 O446 1.966 . S
Co443 N452 2.022 . S
Co443 N460 1.993 . S
Co443 O468 1.941 1_455 S
C444 O445 1.258 . S
C444 O446 1.263 . S
O445 Co442 1.970 . S
O445 C444 1.258 . S
O446 Co443 1.966 . S
O446 C444 1.263 . S
C447 O448 1.235 . S
C447 O474 1.289 . S
O448 C447 1.235 . S
C449 C451 1.406 . S
C449 N452 1.347 1_556 S
C449 C454 1.498 1_556 S
C450 C451 1.392 1_655 S
C450 N453 1.339 . S
C451 C449 1.406 . S
C451 C450 1.392 1_455 S
N452 Co443 2.022 . S
N452 C449 1.347 1_554 S
N452 N453 1.365 1_454 S
N453 C450 1.339 . S
N453 N452 1.365 1_656 S
N453 H473 0.862 1_556 S
C454 C449 1.498 1_554 S
C454 H455 0.961 . S
C454 H456 0.961 . S
C454 H457 0.960 . S
H455 C454 0.961 . S
H456 C454 0.961 . S
H457 C454 0.960 . S
C458 N459 1.342 . S
C458 C462 1.401 . S
C458 C463 1.499 . S
N459 Co442 1.989 . S
N459 C458 1.342 . S
N459 N460 1.388 . S
N460 Co443 1.993 . S
N460 N459 1.388 . S
N460 C461 1.346 . S
C461 N460 1.346 . S
C461 C462 1.396 . S
C461 C471 1.510 . S
C462 C458 1.401 . S
C462 C461 1.396 . S
C463 C458 1.499 . S
C463 H464 0.959 . S
C463 H465 0.960 . S
C463 H466 0.961 1_455 S
H464 C463 0.959 . S
H465 C463 0.960 . S
H466 C463 0.961 1_655 S
O467 Co442 1.967 1_655 S
O467 C475 1.258 . S
O468 Co443 1.941 1_655 S
O468 C475 1.266 . S
H469 C471 0.959 1_655 S
H470 C471 0.961 . S
C471 C461 1.510 . S
C471 H469 0.959 1_455 S
C471 H470 0.961 . S
C471 H472 0.960 . S
H472 C471 0.960 . S
H473 N453 0.862 1_554 S
O474 Co442 1.920 . S
O474 C447 1.289 . S
C475 O467 1.258 . S
C475 O468 1.266 . S
Co476 O479 1.970 . S
Co476 N493 1.989 . S
Co476 O501 1.967 . S
Co476 O508 1.920 . S
Co477 O480 1.966 . S
Co477 N486 2.022 . S
Co477 N494 1.993 . S
Co477 O502 1.941 . S
C478 O479 1.258 . S
C478 O480 1.263 . S
O479 Co476 1.970 . S
O479 C478 1.258 . S
O480 Co477 1.966 . S
O480 C478 1.263 . S
C481 O482 1.235 . S
C481 O508 1.289 . S
O482 C481 1.235 . S
C483 C485 1.400 . S
C483 N486 1.351 . S
C483 C488 1.501 . S
C484 C485 1.387 . S
C484 N487 1.341 . S
C485 C483 1.400 . S
C485 C484 1.387 . S
N486 Co477 2.022 . S
N486 C483 1.351 . S
N486 N487 1.365 . S
N487 C484 1.341 . S
N487 N486 1.365 . S
N487 H507 0.862 . S
C488 C483 1.501 . S
C488 H489 0.961 . S
C488 H490 0.961 . S
C488 H491 0.960 . S
H489 C488 0.961 . S
H490 C488 0.961 . S
H491 C488 0.960 . S
C492 N493 1.342 . S
C492 C496 1.401 . S
C492 C497 1.499 . S
N493 Co476 1.989 . S
N493 C492 1.342 . S
N493 N494 1.388 . S
N494 Co477 1.993 . S
N494 N493 1.388 . S
N494 C495 1.346 . S
C495 N494 1.346 . S
C495 C496 1.396 . S
C495 C505 1.510 . S
C496 C492 1.401 . S
C496 C495 1.396 . S
C497 C492 1.499 . S
C497 H498 0.959 . S
C497 H499 0.960 . S
C497 H500 0.961 . S
H498 C497 0.959 . S
H499 C497 0.960 . S
H500 C497 0.961 . S
O501 Co476 1.967 . S
O501 C509 1.258 . S
O502 Co477 1.941 . S
O502 C509 1.266 . S
H503 C505 0.959 . S
H504 C505 0.961 . S
C505 C495 1.510 . S
C505 H503 0.959 . S
C505 H504 0.961 . S
C505 H506 0.960 . S
H506 C505 0.960 . S
H507 N487 0.862 . S
O508 Co476 1.920 . S
O508 C481 1.289 . S
C509 O501 1.258 . S
C509 O502 1.266 . S
Co510 O513 1.970 . S
Co510 N527 1.989 . S
Co510 O535 1.967 1_455 S
Co510 O542 1.920 . S
Co511 O514 1.966 . S
Co511 N520 2.022 . S
Co511 N528 1.993 . S
Co511 O536 1.941 1_455 S
C512 O513 1.258 . S
C512 O514 1.263 . S
O513 Co510 1.970 . S
O513 C512 1.258 . S
O514 Co511 1.966 . S
O514 C512 1.263 . S
C515 O516 1.235 . S
C515 O542 1.289 . S
O516 C515 1.235 . S
C517 C519 1.406 . S
C517 N520 1.347 1_554 S
C517 C522 1.498 1_554 S
C518 C519 1.392 1_655 S
C518 N521 1.339 . S
C519 C517 1.406 . S
C519 C518 1.392 1_455 S
N520 Co511 2.022 . S
N520 C517 1.347 1_556 S
N520 N521 1.365 1_456 S
N521 C518 1.339 . S
N521 N520 1.365 1_654 S
N521 H541 0.862 1_554 S
C522 C517 1.498 1_556 S
C522 H523 0.961 . S
C522 H524 0.961 . S
C522 H525 0.960 . S
H523 C522 0.961 . S
H524 C522 0.961 . S
H525 C522 0.960 . S
C526 N527 1.342 . S
C526 C530 1.401 . S
C526 C531 1.499 . S
N527 Co510 1.989 . S
N527 C526 1.342 . S
N527 N528 1.388 . S
N528 Co511 1.993 . S
N528 N527 1.388 . S
N528 C529 1.346 . S
C529 N528 1.346 . S
C529 C530 1.396 . S
C529 C539 1.510 . S
C530 C526 1.401 . S
C530 C529 1.396 . S
C531 C526 1.499 . S
C531 H532 0.959 . S
C531 H533 0.960 . S
C531 H534 0.961 1_455 S
H532 C531 0.959 . S
H533 C531 0.960 . S
H534 C531 0.961 1_655 S
O535 Co510 1.967 1_655 S
O535 C543 1.258 . S
O536 Co511 1.941 1_655 S
O536 C543 1.266 . S
H537 C539 0.959 1_655 S
H538 C539 0.961 . S
C539 C529 1.510 . S
C539 H537 0.959 1_455 S
C539 H538 0.961 . S
C539 H540 0.960 . S
H540 C539 0.960 . S
H541 N521 0.862 1_556 S
O542 Co510 1.920 . S
O542 C515 1.289 . S
C543 O535 1.258 . S
C543 O536 1.266 . S
C544 C545 1.391 . S
C544 C546 1.394 . S
C544 H560 0.931 . S
C545 C544 1.391 . S
C545 C549 1.376 . S
C546 C544 1.394 . S
C546 C547 1.369 . S
C546 C550 1.531 . S
C547 C546 1.369 . S
C547 C548 1.410 . S
C547 C555 1.503 . S
C548 C547 1.410 . S
C548 C549 1.392 . S
C548 C551 1.511 . S
C549 C545 1.376 . S
C549 C548 1.392 . S
C549 H561 0.929 . S
C550 C546 1.531 . S
C550 H562 0.960 . S
C550 H563 0.962 . S
C550 H564 0.960 . S
C551 C548 1.511 . S
C551 H565 0.961 . S
C551 H566 0.961 . S
C551 H567 0.961 . S
C552 C553 1.370 . S
C552 C554 1.363 . S
C552 H568 0.931 . S
C553 C552 1.370 . S
C553 C557 1.408 . S
C554 C552 1.363 . S
C554 C555 1.370 . S
C554 C558 1.524 . S
C555 C547 1.503 . S
C555 C554 1.370 . S
C555 C556 1.403 . S
C556 C555 1.403 . S
C556 C557 1.404 . S
C556 C559 1.539 . S
C557 C553 1.408 . S
C557 C556 1.404 . S
C557 H569 0.930 . S
C558 C554 1.524 . S
C558 H570 0.956 . S
C558 H571 0.961 . S
C558 H572 0.961 . S
C559 C556 1.539 . S
C559 H573 0.958 . S
C559 H574 0.961 . S
C559 H575 0.960 . S
H560 C544 0.931 . S
H561 C549 0.929 . S
H562 C550 0.960 . S
H563 C550 0.962 . S
H564 C550 0.960 . S
H565 C551 0.961 . S
H566 C551 0.961 . S
H567 C551 0.961 . S
H568 C552 0.931 . S
H569 C557 0.930 . S
H570 C558 0.956 . S
H571 C558 0.961 . S
H572 C558 0.961 . S
H573 C559 0.958 . S
H574 C559 0.961 . S
H575 C559 0.960 . S
C576 C577 1.391 . S
C576 C578 1.394 . S
C576 H592 0.931 . S
C577 C576 1.391 . S
C577 C581 1.376 . S
C578 C576 1.394 . S
C578 C579 1.369 . S
C578 C582 1.531 . S
C579 C578 1.369 . S
C579 C580 1.410 . S
C579 C587 1.503 . S
C580 C579 1.410 . S
C580 C581 1.392 . S
C580 C583 1.511 . S
C581 C577 1.376 . S
C581 C580 1.392 . S
C581 H593 0.929 . S
C582 C578 1.531 . S
C582 H594 0.960 . S
C582 H595 0.962 . S
C582 H596 0.960 . S
C583 C580 1.511 . S
C583 H597 0.961 . S
C583 H598 0.961 . S
C583 H599 0.961 . S
C584 C585 1.370 . S
C584 C586 1.363 . S
C584 H600 0.931 . S
C585 C584 1.370 . S
C585 C589 1.408 . S
C586 C584 1.363 . S
C586 C587 1.370 . S
C586 C590 1.524 . S
C587 C579 1.503 . S
C587 C586 1.370 . S
C587 C588 1.403 . S
C588 C587 1.403 . S
C588 C589 1.404 . S
C588 C591 1.539 . S
C589 C585 1.408 . S
C589 C588 1.404 . S
C589 H601 0.930 . S
C590 C586 1.524 . S
C590 H602 0.956 . S
C590 H603 0.961 . S
C590 H604 0.961 . S
C591 C588 1.539 . S
C591 H605 0.958 . S
C591 H606 0.961 . S
C591 H607 0.960 . S
H592 C576 0.931 . S
H593 C581 0.929 . S
H594 C582 0.960 . S
H595 C582 0.962 . S
H596 C582 0.960 . S
H597 C583 0.961 . S
H598 C583 0.961 . S
H599 C583 0.961 . S
H600 C584 0.931 . S
H601 C589 0.930 . S
H602 C590 0.956 . S
H603 C590 0.961 . S
H604 C590 0.961 . S
H605 C591 0.958 . S
H606 C591 0.961 . S
H607 C591 0.960 . S
C608 C609 1.391 . S
C608 C610 1.394 . S
C608 H624 0.931 . S
C609 C608 1.391 . S
C609 C613 1.376 . S
C610 C608 1.394 . S
C610 C611 1.369 . S
C610 C614 1.531 . S
C611 C610 1.369 . S
C611 C612 1.410 . S
C611 C619 1.503 . S
C612 C611 1.410 . S
C612 C613 1.392 . S
C612 C615 1.511 . S
C613 C609 1.376 . S
C613 C612 1.392 . S
C613 H625 0.929 . S
C614 C610 1.531 . S
C614 H626 0.960 . S
C614 H627 0.962 . S
C614 H628 0.960 . S
C615 C612 1.511 . S
C615 H629 0.961 . S
C615 H630 0.961 . S
C615 H631 0.961 . S
C616 C617 1.370 . S
C616 C618 1.363 . S
C616 H632 0.931 1_556 S
C617 C616 1.370 . S
C617 C621 1.408 . S
C618 C616 1.363 . S
C618 C619 1.370 . S
C618 C622 1.524 1_556 S
C619 C611 1.503 . S
C619 C618 1.370 . S
C619 C620 1.403 . S
C620 C619 1.403 . S
C620 C621 1.404 . S
C620 C623 1.539 . S
C621 C617 1.408 . S
C621 C620 1.404 . S
C621 H633 0.930 . S
C622 C618 1.524 1_554 S
C622 H634 0.956 1_554 S
C622 H635 0.961 1_554 S
C622 H636 0.961 . S
C623 C620 1.539 . S
C623 H637 0.958 . S
C623 H638 0.961 . S
C623 H639 0.960 . S
H624 C608 0.931 . S
H625 C613 0.929 . S
H626 C614 0.960 . S
H627 C614 0.962 . S
H628 C614 0.960 . S
H629 C615 0.961 . S
H630 C615 0.961 . S
H631 C615 0.961 . S
H632 C616 0.931 1_554 S
H633 C621 0.930 . S
H634 C622 0.956 1_556 S
H635 C622 0.961 1_556 S
H636 C622 0.961 . S
H637 C623 0.958 . S
H638 C623 0.961 . S
H639 C623 0.960 . S
C640 C641 1.391 . S
C640 C642 1.394 . S
C640 H656 0.931 . S
C641 C640 1.391 . S
C641 C645 1.376 . S
C642 C640 1.394 . S
C642 C643 1.369 . S
C642 C646 1.531 . S
C643 C642 1.369 . S
C643 C644 1.410 . S
C643 C651 1.503 . S
C644 C643 1.410 . S
C644 C645 1.392 . S
C644 C647 1.511 . S
C645 C641 1.376 . S
C645 C644 1.392 . S
C645 H657 0.929 . S
C646 C642 1.531 . S
C646 H658 0.960 . S
C646 H659 0.962 . S
C646 H660 0.960 . S
C647 C644 1.511 . S
C647 H661 0.961 . S
C647 H662 0.961 . S
C647 H663 0.961 . S
C648 C649 1.370 . S
C648 C650 1.363 . S
C648 H664 0.931 1_554 S
C649 C648 1.370 . S
C649 C653 1.408 . S
C650 C648 1.363 . S
C650 C651 1.370 . S
C650 C654 1.524 . S
C651 C643 1.503 . S
C651 C650 1.370 . S
C651 C652 1.403 . S
C652 C651 1.403 . S
C652 C653 1.404 . S
C652 C655 1.539 . S
C653 C649 1.408 . S
C653 C652 1.404 . S
C653 H665 0.930 . S
C654 C650 1.524 . S
C654 H666 0.955 1_554 S
C654 H667 0.961 . S
C654 H668 0.961 1_554 S
C655 C652 1.539 . S
C655 H669 0.958 . S
C655 H670 0.961 . S
C655 H671 0.960 . S
H656 C640 0.931 . S
H657 C645 0.929 . S
H658 C646 0.960 . S
H659 C646 0.962 . S
H660 C646 0.960 . S
H661 C647 0.961 . S
H662 C647 0.961 . S
H663 C647 0.961 . S
H664 C648 0.931 1_556 S
H665 C653 0.930 . S
H666 C654 0.955 1_556 S
H667 C654 0.961 . S
H668 C654 0.961 1_556 S
H669 C655 0.958 . S
H670 C655 0.961 . S
H671 C655 0.960 . S
C672 C673 1.391 . S
C672 C674 1.394 . S
C672 H688 0.931 . S
C673 C672 1.391 . S
C673 C677 1.376 . S
C674 C672 1.394 . S
C674 C675 1.369 . S
C674 C678 1.531 . S
C675 C674 1.369 . S
C675 C676 1.410 . S
C675 C683 1.503 . S
C676 C675 1.410 . S
C676 C677 1.392 . S
C676 C679 1.511 . S
C677 C673 1.376 . S
C677 C676 1.392 . S
C677 H689 0.929 . S
C678 C674 1.531 . S
C678 H690 0.960 . S
C678 H691 0.962 . S
C678 H692 0.960 . S
C679 C676 1.511 . S
C679 H693 0.961 . S
C679 H694 0.961 . S
C679 H695 0.961 . S
C680 C681 1.370 . S
C680 C682 1.363 . S
C680 H696 0.931 . S
C681 C680 1.370 . S
C681 C685 1.408 . S
C682 C680 1.363 . S
C682 C683 1.370 . S
C682 C686 1.524 . S
C683 C675 1.503 . S
C683 C682 1.370 . S
C683 C684 1.403 . S
C684 C683 1.403 . S
C684 C685 1.404 . S
C684 C687 1.539 . S
C685 C681 1.408 . S
C685 C684 1.404 . S
C685 H697 0.930 . S
C686 C682 1.524 . S
C686 H698 0.956 . S
C686 H699 0.961 . S
C686 H700 0.961 . S
C687 C684 1.539 . S
C687 H701 0.958 . S
C687 H702 0.961 . S
C687 H703 0.960 . S
H688 C672 0.931 . S
H689 C677 0.929 . S
H690 C678 0.960 . S
H691 C678 0.962 . S
H692 C678 0.960 . S
H693 C679 0.961 . S
H694 C679 0.961 . S
H695 C679 0.961 . S
H696 C680 0.931 . S
H697 C685 0.930 . S
H698 C686 0.956 . S
H699 C686 0.961 . S
H700 C686 0.961 . S
H701 C687 0.958 . S
H702 C687 0.961 . S
H703 C687 0.960 . S
C704 C705 1.391 . S
C704 C706 1.394 . S
C704 H720 0.931 . S
C705 C704 1.391 . S
C705 C709 1.376 . S
C706 C704 1.394 . S
C706 C707 1.369 . S
C706 C710 1.531 . S
C707 C706 1.369 . S
C707 C708 1.410 . S
C707 C715 1.503 . S
C708 C707 1.410 . S
C708 C709 1.392 . S
C708 C711 1.511 . S
C709 C705 1.376 . S
C709 C708 1.392 . S
C709 H721 0.929 . S
C710 C706 1.531 . S
C710 H722 0.960 . S
C710 H723 0.962 . S
C710 H724 0.960 . S
C711 C708 1.511 . S
C711 H725 0.961 . S
C711 H726 0.961 . S
C711 H727 0.961 . S
C712 C713 1.370 . S
C712 C714 1.363 . S
C712 H728 0.931 . S
C713 C712 1.370 . S
C713 C717 1.408 . S
C714 C712 1.363 . S
C714 C715 1.370 . S
C714 C718 1.524 . S
C715 C707 1.503 . S
C715 C714 1.370 . S
C715 C716 1.403 . S
C716 C715 1.403 . S
C716 C717 1.404 . S
C716 C719 1.539 . S
C717 C713 1.408 . S
C717 C716 1.404 . S
C717 H729 0.930 . S
C718 C714 1.524 . S
C718 H730 0.956 . S
C718 H731 0.961 . S
C718 H732 0.961 . S
C719 C716 1.539 . S
C719 H733 0.958 . S
C719 H734 0.961 . S
C719 H735 0.960 . S
H720 C704 0.931 . S
H721 C709 0.929 . S
H722 C710 0.960 . S
H723 C710 0.962 . S
H724 C710 0.960 . S
H725 C711 0.961 . S
H726 C711 0.961 . S
H727 C711 0.961 . S
H728 C712 0.931 . S
H729 C717 0.930 . S
H730 C718 0.956 . S
H731 C718 0.961 . S
H732 C718 0.961 . S
H733 C719 0.958 . S
H734 C719 0.961 . S
H735 C719 0.960 . S
C736 C737 1.391 . S
C736 C738 1.394 . S
C736 H752 0.931 . S
C737 C736 1.391 . S
C737 C741 1.376 . S
C738 C736 1.394 . S
C738 C739 1.369 . S
C738 C742 1.531 . S
C739 C738 1.369 . S
C739 C740 1.410 . S
C739 C747 1.503 . S
C740 C739 1.410 . S
C740 C741 1.392 . S
C740 C743 1.511 . S
C741 C737 1.376 . S
C741 C740 1.392 . S
C741 H753 0.929 . S
C742 C738 1.531 . S
C742 H754 0.960 . S
C742 H755 0.962 . S
C742 H756 0.960 . S
C743 C740 1.511 . S
C743 H757 0.961 . S
C743 H758 0.961 . S
C743 H759 0.961 . S
C744 C745 1.370 . S
C744 C746 1.363 . S
C744 H760 0.931 1_554 S
C745 C744 1.370 . S
C745 C749 1.408 . S
C746 C744 1.363 . S
C746 C747 1.370 . S
C746 C750 1.524 . S
C747 C739 1.503 . S
C747 C746 1.370 . S
C747 C748 1.403 . S
C748 C747 1.403 . S
C748 C749 1.404 . S
C748 C751 1.539 . S
C749 C745 1.408 . S
C749 C748 1.404 . S
C749 H761 0.930 . S
C750 C746 1.524 . S
C750 H762 0.956 . S
C750 H763 0.961 . S
C750 H764 0.961 1_554 S
C751 C748 1.539 . S
C751 H765 0.958 . S
C751 H766 0.961 . S
C751 H767 0.960 . S
H752 C736 0.931 . S
H753 C741 0.929 . S
H754 C742 0.960 . S
H755 C742 0.962 . S
H756 C742 0.960 . S
H757 C743 0.961 . S
H758 C743 0.961 . S
H759 C743 0.961 . S
H760 C744 0.931 1_556 S
H761 C749 0.930 . S
H762 C750 0.956 . S
H763 C750 0.961 . S
H764 C750 0.961 1_556 S
H765 C751 0.958 . S
H766 C751 0.961 . S
H767 C751 0.960 . S
C768 C769 1.391 . S
C768 C770 1.394 . S
C768 H784 0.931 . S
C769 C768 1.391 . S
C769 C773 1.376 . S
C770 C768 1.394 . S
C770 C771 1.369 . S
C770 C774 1.531 . S
C771 C770 1.369 . S
C771 C772 1.410 . S
C771 C779 1.503 . S
C772 C771 1.410 . S
C772 C773 1.392 . S
C772 C775 1.511 . S
C773 C769 1.376 . S
C773 C772 1.392 . S
C773 H785 0.929 . S
C774 C770 1.531 . S
C774 H786 0.960 . S
C774 H787 0.962 . S
C774 H788 0.960 . S
C775 C772 1.511 . S
C775 H789 0.961 . S
C775 H790 0.961 . S
C775 H791 0.961 . S
C776 C777 1.370 . S
C776 C778 1.363 . S
C776 H792 0.931 1_556 S
C777 C776 1.370 . S
C777 C781 1.408 . S
C778 C776 1.363 . S
C778 C779 1.370 . S
C778 C782 1.524 . S
C779 C771 1.503 . S
C779 C778 1.370 . S
C779 C780 1.403 . S
C780 C779 1.403 . S
C780 C781 1.404 . S
C780 C783 1.539 . S
C781 C777 1.408 . S
C781 C780 1.404 . S
C781 H793 0.930 . S
C782 C778 1.524 . S
C782 H794 0.956 . S
C782 H795 0.961 . S
C782 H796 0.961 1_556 S
C783 C780 1.539 . S
C783 H797 0.958 . S
C783 H798 0.961 . S
C783 H799 0.960 . S
H784 C768 0.931 . S
H785 C773 0.929 . S
H786 C774 0.960 . S
H787 C774 0.962 . S
H788 C774 0.960 . S
H789 C775 0.961 . S
H790 C775 0.961 . S
H791 C775 0.961 . S
H792 C776 0.931 1_554 S
H793 C781 0.930 . S
H794 C782 0.956 . S
H795 C782 0.961 . S
H796 C782 0.961 1_554 S
H797 C783 0.958 . S
H798 C783 0.961 . S
H799 C783 0.960 . S
C800 C801 1.391 . S
C800 C802 1.394 . S
C800 H816 0.931 . S
C801 C800 1.391 . S
C801 C805 1.383 . S
C802 C800 1.394 . S
C802 C803 1.369 . S
C802 C806 1.531 . S
C803 C802 1.369 . S
C803 C804 1.410 . S
C803 C811 1.503 . S
C804 C803 1.410 . S
C804 C805 1.399 . S
C804 C807 1.511 1_556 S
C805 C801 1.383 . S
C805 C804 1.399 . S
C805 H817 0.914 1_556 S
C806 C802 1.531 . S
C806 H818 0.960 . S
C806 H819 0.962 . S
C806 H820 0.960 . S
C807 C804 1.511 1_554 S
C807 H821 0.961 . S
C807 H822 0.961 1_554 S
C807 H823 0.961 . S
C808 C809 1.370 . S
C808 C810 1.363 . S
C808 H824 0.931 . S
C809 C808 1.370 . S
C809 C813 1.408 . S
C810 C808 1.363 . S
C810 C811 1.370 . S
C810 C814 1.524 . S
C811 C803 1.503 . S
C811 C810 1.370 . S
C811 C812 1.403 . S
C812 C811 1.403 . S
C812 C813 1.404 . S
C812 C815 1.539 . S
C813 C809 1.408 . S
C813 C812 1.404 . S
C813 H825 0.930 . S
C814 C810 1.524 . S
C814 H826 0.956 . S
C814 H827 0.961 . S
C814 H828 0.961 . S
C815 C812 1.539 . S
C815 H829 0.958 . S
C815 H830 0.961 . S
C815 H831 0.960 . S
H816 C800 0.931 . S
H817 C805 0.914 1_554 S
H818 C806 0.960 . S
H819 C806 0.962 . S
H820 C806 0.960 . S
H821 C807 0.961 . S
H822 C807 0.961 1_556 S
H823 C807 0.961 . S
H824 C808 0.931 . S
H825 C813 0.930 . S
H826 C814 0.956 . S
H827 C814 0.961 . S
H828 C814 0.961 . S
H829 C815 0.958 . S
H830 C815 0.961 . S
H831 C815 0.960 . S
C832 C833 1.391 . S
C832 C834 1.394 . S
C832 H848 0.931 . S
C833 C832 1.391 . S
C833 C837 1.376 . S
C834 C832 1.394 . S
C834 C835 1.369 . S
C834 C838 1.531 . S
C835 C834 1.369 . S
C835 C836 1.410 . S
C835 C843 1.503 . S
C836 C835 1.410 . S
C836 C837 1.392 . S
C836 C839 1.511 . S
C837 C833 1.376 . S
C837 C836 1.392 . S
C837 H849 0.929 . S
C838 C834 1.531 . S
C838 H850 0.960 . S
C838 H851 0.962 . S
C838 H852 0.960 . S
C839 C836 1.511 . S
C839 H853 0.961 . S
C839 H854 0.961 . S
C839 H855 0.961 . S
C840 C841 1.370 . S
C840 C842 1.363 . S
C840 H856 0.931 1_554 S
C841 C840 1.370 . S
C841 C845 1.408 . S
C842 C840 1.363 . S
C842 C843 1.370 . S
C842 C846 1.524 . S
C843 C835 1.503 . S
C843 C842 1.370 . S
C843 C844 1.403 . S
C844 C843 1.403 . S
C844 C845 1.404 . S
C844 C847 1.539 . S
C845 C841 1.408 . S
C845 C844 1.404 . S
C845 H857 0.930 . S
C846 C842 1.524 . S
C846 H858 0.956 . S
C846 H859 0.961 . S
C846 H860 0.961 . S
C847 C844 1.539 . S
C847 H861 0.958 . S
C847 H862 0.961 . S
C847 H863 0.960 . S
H848 C832 0.931 . S
H849 C837 0.929 . S
H850 C838 0.960 . S
H851 C838 0.962 . S
H852 C838 0.960 . S
H853 C839 0.961 . S
H854 C839 0.961 . S
H855 C839 0.961 . S
H856 C840 0.931 1_556 S
H857 C845 0.930 . S
H858 C846 0.956 . S
H859 C846 0.961 . S
H860 C846 0.961 . S
H861 C847 0.958 . S
H862 C847 0.961 . S
H863 C847 0.960 . S
C864 C865 1.391 . S
C864 C866 1.394 . S
C864 H880 0.931 . S
C865 C864 1.391 . S
C865 C869 1.376 . S
C866 C864 1.394 . S
C866 C867 1.369 . S
C866 C870 1.531 . S
C867 C866 1.369 . S
C867 C868 1.410 . S
C867 C875 1.503 . S
C868 C867 1.410 . S
C868 C869 1.392 . S
C868 C871 1.511 . S
C869 C865 1.376 . S
C869 C868 1.392 . S
C869 H881 0.929 . S
C870 C866 1.531 . S
C870 H882 0.960 . S
C870 H883 0.962 . S
C870 H884 0.960 . S
C871 C868 1.511 . S
C871 H885 0.961 . S
C871 H886 0.961 . S
C871 H887 0.961 . S
C872 C873 1.370 . S
C872 C874 1.363 . S
C872 H888 0.931 . S
C873 C872 1.370 . S
C873 C877 1.408 . S
C874 C872 1.363 . S
C874 C875 1.370 . S
C874 C878 1.524 . S
C875 C867 1.503 . S
C875 C874 1.370 . S
C875 C876 1.403 . S
C876 C875 1.403 . S
C876 C877 1.404 . S
C876 C879 1.539 . S
C877 C873 1.408 . S
C877 C876 1.404 . S
C877 H889 0.930 . S
C878 C874 1.524 . S
C878 H890 0.956 . S
C878 H891 0.961 . S
C878 H892 0.961 . S
C879 C876 1.539 . S
C879 H893 0.958 . S
C879 H894 0.961 . S
C879 H895 0.960 . S
H880 C864 0.931 . S
H881 C869 0.929 . S
H882 C870 0.960 . S
H883 C870 0.962 . S
H884 C870 0.960 . S
H885 C871 0.961 . S
H886 C871 0.961 . S
H887 C871 0.961 . S
H888 C872 0.931 . S
H889 C877 0.930 . S
H890 C878 0.956 . S
H891 C878 0.961 . S
H892 C878 0.961 . S
H893 C879 0.958 . S
H894 C879 0.961 . S
H895 C879 0.960 . S
C896 C897 1.391 . S
C896 C898 1.394 . S
C896 H912 0.931 . S
C897 C896 1.391 . S
C897 C901 1.376 . S
C898 C896 1.394 . S
C898 C899 1.369 . S
C898 C902 1.531 . S
C899 C898 1.369 . S
C899 C900 1.410 . S
C899 C907 1.503 . S
C900 C899 1.410 . S
C900 C901 1.392 . S
C900 C903 1.511 . S
C901 C897 1.376 . S
C901 C900 1.392 . S
C901 H913 0.929 . S
C902 C898 1.531 . S
C902 H914 0.960 . S
C902 H915 0.962 . S
C902 H916 0.960 . S
C903 C900 1.511 . S
C903 H917 0.961 . S
C903 H918 0.961 . S
C903 H919 0.961 . S
C904 C905 1.370 . S
C904 C906 1.363 . S
C904 H920 0.931 . S
C905 C904 1.370 . S
C905 C909 1.408 . S
C906 C904 1.363 . S
C906 C907 1.370 . S
C906 C910 1.524 . S
C907 C899 1.503 . S
C907 C906 1.370 . S
C907 C908 1.403 . S
C908 C907 1.403 . S
C908 C909 1.404 . S
C908 C911 1.539 . S
C909 C905 1.408 . S
C909 C908 1.404 . S
C909 H921 0.930 . S
C910 C906 1.524 . S
C910 H922 0.956 . S
C910 H923 0.961 . S
C910 H924 0.961 . S
C911 C908 1.539 . S
C911 H925 0.958 . S
C911 H926 0.961 . S
C911 H927 0.960 . S
H912 C896 0.931 . S
H913 C901 0.929 . S
H914 C902 0.960 . S
H915 C902 0.962 . S
H916 C902 0.960 . S
H917 C903 0.961 . S
H918 C903 0.961 . S
H919 C903 0.961 . S
H920 C904 0.931 . S
H921 C909 0.930 . S
H922 C910 0.956 . S
H923 C910 0.961 . S
H924 C910 0.961 . S
H925 C911 0.958 . S
H926 C911 0.961 . S
H927 C911 0.960 . S
C928 C929 1.391 . S
C928 C930 1.394 . S
C928 H944 0.931 . S
C929 C928 1.391 . S
C929 C933 1.376 . S
C930 C928 1.394 . S
C930 C931 1.369 . S
C930 C934 1.531 . S
C931 C930 1.369 . S
C931 C932 1.410 . S
C931 C939 1.503 . S
C932 C931 1.410 . S
C932 C933 1.392 . S
C932 C935 1.511 . S
C933 C929 1.376 . S
C933 C932 1.392 . S
C933 H945 0.929 1_554 S
C934 C930 1.531 . S
C934 H946 0.960 . S
C934 H947 0.962 . S
C934 H948 0.960 . S
C935 C932 1.511 . S
C935 H949 0.961 1_554 S
C935 H950 0.961 . S
C935 H951 0.961 . S
C936 C937 1.370 . S
C936 C938 1.363 . S
C936 H952 0.931 . S
C937 C936 1.370 . S
C937 C941 1.408 . S
C938 C936 1.363 . S
C938 C939 1.370 . S
C938 C942 1.524 . S
C939 C931 1.503 . S
C939 C938 1.370 . S
C939 C940 1.403 . S
C940 C939 1.403 . S
C940 C941 1.404 . S
C940 C943 1.539 . S
C941 C937 1.408 . S
C941 C940 1.404 . S
C941 H953 0.930 . S
C942 C938 1.524 . S
C942 H954 0.956 . S
C942 H955 0.961 . S
C942 H956 0.961 . S
C943 C940 1.539 . S
C943 H957 0.958 . S
C943 H958 0.961 . S
C943 H959 0.960 . S
H944 C928 0.931 . S
H945 C933 0.929 1_556 S
H946 C934 0.960 . S
H947 C934 0.962 . S
H948 C934 0.960 . S
H949 C935 0.961 1_556 S
H950 C935 0.961 . S
H951 C935 0.961 . S
H952 C936 0.931 . S
H953 C941 0.930 . S
H954 C942 0.956 . S
H955 C942 0.961 . S
H956 C942 0.961 . S
H957 C943 0.958 . S
H958 C943 0.961 . S
H959 C943 0.960 . S
C960 C961 1.391 . S
C960 C962 1.394 . S
C960 H976 0.931 1_556 S
C961 C960 1.391 . S
C961 C965 1.376 . S
C962 C960 1.394 . S
C962 C963 1.369 . S
C962 C966 1.531 . S
C963 C962 1.369 . S
C963 C964 1.410 . S
C963 C971 1.503 . S
C964 C963 1.410 . S
C964 C965 1.392 . S
C964 C967 1.511 . S
C965 C961 1.376 . S
C965 C964 1.392 . S
C965 H977 0.929 . S
C966 C962 1.531 . S
C966 H978 0.960 . S
C966 H979 0.962 . S
C966 H980 0.960 . S
C967 C964 1.511 . S
C967 H981 0.961 . S
C967 H982 0.961 . S
C967 H983 0.961 . S
C968 C969 1.370 . S
C968 C970 1.363 . S
C968 H984 0.931 . S
C969 C968 1.370 . S
C969 C973 1.408 . S
C970 C968 1.363 . S
C970 C971 1.370 . S
C970 C974 1.524 . S
C971 C963 1.503 . S
C971 C970 1.370 . S
C971 C972 1.403 . S
C972 C971 1.403 . S
C972 C973 1.404 . S
C972 C975 1.539 . S
C973 C969 1.408 . S
C973 C972 1.404 . S
C973 H985 0.930 . S
C974 C970 1.524 . S
C974 H986 0.956 . S
C974 H987 0.961 . S
C974 H988 0.961 . S
C975 C972 1.539 . S
C975 H989 0.958 . S
C975 H990 0.961 . S
C975 H991 0.960 . S
H976 C960 0.931 1_554 S
H977 C965 0.929 . S
H978 C966 0.960 . S
H979 C966 0.962 . S
H980 C966 0.960 . S
H981 C967 0.961 . S
H982 C967 0.961 . S
H983 C967 0.961 . S
H984 C968 0.931 . S
H985 C973 0.930 . S
H986 C974 0.956 . S
H987 C974 0.961 . S
H988 C974 0.961 . S
H989 C975 0.958 . S
H990 C975 0.961 . S
H991 C975 0.960 . S
C992 C993 1.391 . S
C992 C994 1.394 . S
C992 H1008 0.931 . S
C993 C992 1.391 . S
C993 C997 1.376 . S
C994 C992 1.394 . S
C994 C995 1.369 . S
C994 C998 1.531 . S
C995 C994 1.369 . S
C995 C996 1.410 . S
C995 C1003 1.503 . S
C996 C995 1.410 . S
C996 C997 1.392 . S
C996 C999 1.511 . S
C997 C993 1.376 . S
C997 C996 1.392 . S
C997 H1009 0.929 . S
C998 C994 1.531 . S
C998 H1010 0.960 . S
C998 H1011 0.962 . S
C998 H1012 0.960 . S
C999 C996 1.511 . S
C999 H1013 0.961 . S
C999 H1014 0.961 . S
C999 H1015 0.961 . S
C1000 C1001 1.370 . S
C1000 C1002 1.363 . S
C1000 H1016 0.931 . S
C1001 C1000 1.370 . S
C1001 C1005 1.408 . S
C1002 C1000 1.363 . S
C1002 C1003 1.370 . S
C1002 C1006 1.524 . S
C1003 C995 1.503 . S
C1003 C1002 1.370 . S
C1003 C1004 1.403 . S
C1004 C1003 1.403 . S
C1004 C1005 1.404 . S
C1004 C1007 1.539 . S
C1005 C1001 1.408 . S
C1005 C1004 1.404 . S
C1005 H1017 0.930 . S
C1006 C1002 1.524 . S
C1006 H1018 0.956 . S
C1006 H1019 0.961 . S
C1006 H1020 0.961 . S
C1007 C1004 1.539 . S
C1007 H1021 0.958 . S
C1007 H1022 0.961 . S
C1007 H1023 0.960 . S
H1008 C992 0.931 . S
H1009 C997 0.929 . S
H1010 C998 0.960 . S
H1011 C998 0.962 . S
H1012 C998 0.960 . S
H1013 C999 0.961 . S
H1014 C999 0.961 . S
H1015 C999 0.961 . S
H1016 C1000 0.931 . S
H1017 C1005 0.930 . S
H1018 C1006 0.956 . S
H1019 C1006 0.961 . S
H1020 C1006 0.961 . S
H1021 C1007 0.958 . S
H1022 C1007 0.961 . S
H1023 C1007 0.960 . S
C1024 C1025 1.391 . S
C1024 C1026 1.394 . S
C1024 H1040 0.931 . S
C1025 C1024 1.391 . S
C1025 C1029 1.376 . S
C1026 C1024 1.394 . S
C1026 C1027 1.369 . S
C1026 C1030 1.531 . S
C1027 C1026 1.369 . S
C1027 C1028 1.410 . S
C1027 C1035 1.503 . S
C1028 C1027 1.410 . S
C1028 C1029 1.392 . S
C1028 C1031 1.511 . S
C1029 C1025 1.376 . S
C1029 C1028 1.392 . S
C1029 H1041 0.929 . S
C1030 C1026 1.531 . S
C1030 H1042 0.960 . S
C1030 H1043 0.962 . S
C1030 H1044 0.960 . S
C1031 C1028 1.511 . S
C1031 H1045 0.961 . S
C1031 H1046 0.961 . S
C1031 H1047 0.961 . S
C1032 C1033 1.370 . S
C1032 C1034 1.363 . S
C1032 H1048 0.931 . S
C1033 C1032 1.370 . S
C1033 C1037 1.408 . S
C1034 C1032 1.363 . S
C1034 C1035 1.370 . S
C1034 C1038 1.524 . S
C1035 C1027 1.503 . S
C1035 C1034 1.370 . S
C1035 C1036 1.403 . S
C1036 C1035 1.403 . S
C1036 C1037 1.404 . S
C1036 C1039 1.539 . S
C1037 C1033 1.408 . S
C1037 C1036 1.404 . S
C1037 H1049 0.930 . S
C1038 C1034 1.524 . S
C1038 H1050 0.956 . S
C1038 H1051 0.961 . S
C1038 H1052 0.961 . S
C1039 C1036 1.539 . S
C1039 H1053 0.958 . S
C1039 H1054 0.961 . S
C1039 H1055 0.960 . S
H1040 C1024 0.931 . S
H1041 C1029 0.929 . S
H1042 C1030 0.960 . S
H1043 C1030 0.962 . S
H1044 C1030 0.960 . S
H1045 C1031 0.961 . S
H1046 C1031 0.961 . S
H1047 C1031 0.961 . S
H1048 C1032 0.931 . S
H1049 C1037 0.930 . S
H1050 C1038 0.956 . S
H1051 C1038 0.961 . S
H1052 C1038 0.961 . S
H1053 C1039 0.958 . S
H1054 C1039 0.961 . S
H1055 C1039 0.960 . S
C1056 C1057 1.391 . S
C1056 C1058 1.394 . S
C1056 H1072 0.931 . S
C1057 C1056 1.391 . S
C1057 C1061 1.376 . S
C1058 C1056 1.394 . S
C1058 C1059 1.369 . S
C1058 C1062 1.531 1_554 S
C1059 C1058 1.369 . S
C1059 C1060 1.410 . S
C1059 C1067 1.503 1_544 S
C1060 C1059 1.410 . S
C1060 C1061 1.392 . S
C1060 C1063 1.511 1_545 S
C1061 C1057 1.376 . S
C1061 C1060 1.392 . S
C1061 H1073 0.929 . S
C1062 C1058 1.531 1_556 S
C1062 H1074 0.960 . S
C1062 H1075 0.962 . S
C1062 H1076 0.960 . S
C1063 C1060 1.511 1_565 S
C1063 H1077 0.961 . S
C1063 H1078 0.961 . S
C1063 H1079 0.961 . S
C1064 C1065 1.370 . S
C1064 C1066 1.363 . S
C1064 H1080 0.931 . S
C1065 C1064 1.370 . S
C1065 C1069 1.408 . S
C1066 C1064 1.363 . S
C1066 C1067 1.370 . S
C1066 C1070 1.524 1_456 S
C1067 C1059 1.503 1_566 S
C1067 C1066 1.370 . S
C1067 C1068 1.403 . S
C1068 C1067 1.403 . S
C1068 C1069 1.404 . S
C1068 C1071 1.516 1_565 S
C1069 C1065 1.408 . S
C1069 C1068 1.404 . S
C1069 H1081 0.930 . S
C1070 C1066 1.524 1_654 S
C1070 H1082 0.956 . S
C1070 H1083 0.948 1_655 S
C1070 H1084 0.961 . S
C1071 C1068 1.516 1_545 S
C1071 H1085 0.996 . S
C1071 H1086 0.933 1_545 S
C1071 H1087 0.976 . S
H1072 C1056 0.931 . S
H1073 C1061 0.929 . S
H1074 C1062 0.960 . S
H1075 C1062 0.962 . S
H1076 C1062 0.960 . S
H1077 C1063 0.961 . S
H1078 C1063 0.961 . S
H1079 C1063 0.961 . S
H1080 C1064 0.931 . S
H1081 C1069 0.930 . S
H1082 C1070 0.956 . S
H1083 C1070 0.948 1_455 S
H1084 C1070 0.961 . S
H1085 C1071 0.996 . S
H1086 C1071 0.933 1_565 S
H1087 C1071 0.976 . S
C1088 C1089 1.391 . S
C1088 C1090 1.394 . S
C1088 H1104 0.931 . S
C1089 C1088 1.391 . S
C1089 C1093 1.376 . S
C1090 C1088 1.394 . S
C1090 C1091 1.369 . S
C1090 C1094 1.531 . S
C1091 C1090 1.369 . S
C1091 C1092 1.410 . S
C1091 C1099 1.503 . S
C1092 C1091 1.410 . S
C1092 C1093 1.392 . S
C1092 C1095 1.511 . S
C1093 C1089 1.376 . S
C1093 C1092 1.392 . S
C1093 H1105 0.929 . S
C1094 C1090 1.531 . S
C1094 H1106 0.960 . S
C1094 H1107 0.962 . S
C1094 H1108 0.960 . S
C1095 C1092 1.511 . S
C1095 H1109 0.961 . S
C1095 H1110 0.961 . S
C1095 H1111 0.961 . S
C1096 C1097 1.370 . S
C1096 C1098 1.363 . S
C1096 H1112 0.931 . S
C1097 C1096 1.370 . S
C1097 C1101 1.408 . S
C1098 C1096 1.363 . S
C1098 C1099 1.370 . S
C1098 C1102 1.524 . S
C1099 C1091 1.503 . S
C1099 C1098 1.370 . S
C1099 C1100 1.403 . S
C1100 C1099 1.403 . S
C1100 C1101 1.404 . S
C1100 C1103 1.539 . S
C1101 C1097 1.408 . S
C1101 C1100 1.404 . S
C1101 H1113 0.930 . S
C1102 C1098 1.524 . S
C1102 H1114 0.956 . S
C1102 H1115 0.961 . S
C1102 H1116 0.961 . S
C1103 C1100 1.539 . S
C1103 H1117 0.958 . S
C1103 H1118 0.961 . S
C1103 H1119 0.960 . S
H1104 C1088 0.931 . S
H1105 C1093 0.929 . S
H1106 C1094 0.960 . S
H1107 C1094 0.962 . S
H1108 C1094 0.960 . S
H1109 C1095 0.961 . S
H1110 C1095 0.961 . S
H1111 C1095 0.961 . S
H1112 C1096 0.931 . S
H1113 C1101 0.930 . S
H1114 C1102 0.956 . S
H1115 C1102 0.961 . S
H1116 C1102 0.961 . S
H1117 C1103 0.958 . S
H1118 C1103 0.961 . S
H1119 C1103 0.960 . S
C1120 C1121 1.391 . S
C1120 C1122 1.394 . S
C1120 H1136 0.931 . S
C1121 C1120 1.391 . S
C1121 C1125 1.376 . S
C1122 C1120 1.394 . S
C1122 C1123 1.369 . S
C1122 C1126 1.531 . S
C1123 C1122 1.369 . S
C1123 C1124 1.410 . S
C1123 C1131 1.503 1_545 S
C1124 C1123 1.410 . S
C1124 C1125 1.392 . S
C1124 C1127 1.511 . S
C1125 C1121 1.376 . S
C1125 C1124 1.392 . S
C1125 H1137 0.929 . S
C1126 C1122 1.531 . S
C1126 H1138 0.960 . S
C1126 H1139 0.962 . S
C1126 H1140 0.960 . S
C1127 C1124 1.511 . S
C1127 H1141 0.961 . S
C1127 H1142 0.961 1_545 S
C1127 H1143 0.961 . S
C1128 C1129 1.370 . S
C1128 C1130 1.363 . S
C1128 H1144 0.931 . S
C1129 C1128 1.370 . S
C1129 C1133 1.408 . S
C1130 C1128 1.363 . S
C1130 C1131 1.370 . S
C1130 C1134 1.524 . S
C1131 C1123 1.503 1_565 S
C1131 C1130 1.370 . S
C1131 C1132 1.403 . S
C1132 C1131 1.403 . S
C1132 C1133 1.404 . S
C1132 C1135 1.539 1_565 S
C1133 C1129 1.408 . S
C1133 C1132 1.404 . S
C1133 H1145 0.930 . S
C1134 C1130 1.524 . S
C1134 H1146 0.956 . S
C1134 H1147 0.961 . S
C1134 H1148 0.961 . S
C1135 C1132 1.539 1_545 S
C1135 H1149 0.958 . S
C1135 H1150 0.961 . S
C1135 H1151 0.960 . S
H1136 C1120 0.931 . S
H1137 C1125 0.929 . S
H1138 C1126 0.960 . S
H1139 C1126 0.962 . S
H1140 C1126 0.960 . S
H1141 C1127 0.961 . S
H1142 C1127 0.961 1_565 S
H1143 C1127 0.961 . S
H1144 C1128 0.931 . S
H1145 C1133 0.930 . S
H1146 C1134 0.956 . S
H1147 C1134 0.961 . S
H1148 C1134 0.961 . S
H1149 C1135 0.958 . S
H1150 C1135 0.961 . S
H1151 C1135 0.960 . S
C1152 C1153 1.391 . S
C1152 C1154 1.394 . S
C1152 H1168 0.931 . S
C1153 C1152 1.391 . S
C1153 C1157 1.376 . S
C1154 C1152 1.394 . S
C1154 C1155 1.369 . S
C1154 C1158 1.531 . S
C1155 C1154 1.369 . S
C1155 C1156 1.410 . S
C1155 C1163 1.503 . S
C1156 C1155 1.410 . S
C1156 C1157 1.392 . S
C1156 C1159 1.511 . S
C1157 C1153 1.376 . S
C1157 C1156 1.392 . S
C1157 H1169 0.929 . S
C1158 C1154 1.531 . S
C1158 H1170 0.960 . S
C1158 H1171 0.962 . S
C1158 H1172 0.960 . S
C1159 C1156 1.511 . S
C1159 H1173 0.961 . S
C1159 H1174 0.961 . S
C1159 H1175 0.961 . S
C1160 C1161 1.370 . S
C1160 C1162 1.363 . S
C1160 H1176 0.931 . S
C1161 C1160 1.370 . S
C1161 C1165 1.408 . S
C1162 C1160 1.363 . S
C1162 C1163 1.370 . S
C1162 C1166 1.524 . S
C1163 C1155 1.503 . S
C1163 C1162 1.370 . S
C1163 C1164 1.403 . S
C1164 C1163 1.403 . S
C1164 C1165 1.404 . S
C1164 C1167 1.539 . S
C1165 C1161 1.408 . S
C1165 C1164 1.404 . S
C1165 H1177 0.930 . S
C1166 C1162 1.524 . S
C1166 H1178 0.956 . S
C1166 H1179 0.961 . S
C1166 H1180 0.961 . S
C1167 C1164 1.539 . S
C1167 H1181 0.958 . S
C1167 H1182 0.961 . S
C1167 H1183 0.960 . S
H1168 C1152 0.931 . S
H1169 C1157 0.929 . S
H1170 C1158 0.960 . S
H1171 C1158 0.962 . S
H1172 C1158 0.960 . S
H1173 C1159 0.961 . S
H1174 C1159 0.961 . S
H1175 C1159 0.961 . S
H1176 C1160 0.931 . S
H1177 C1165 0.930 . S
H1178 C1166 0.956 . S
H1179 C1166 0.961 . S
H1180 C1166 0.961 . S
H1181 C1167 0.958 . S
H1182 C1167 0.961 . S
H1183 C1167 0.960 . S
C1184 C1185 1.391 . S
C1184 C1186 1.394 . S
C1184 H1200 0.931 . S
C1185 C1184 1.391 . S
C1185 C1189 1.376 . S
C1186 C1184 1.394 . S
C1186 C1187 1.369 . S
C1186 C1190 1.531 . S
C1187 C1186 1.369 . S
C1187 C1188 1.410 . S
C1187 C1195 1.503 . S
C1188 C1187 1.410 . S
C1188 C1189 1.392 . S
C1188 C1191 1.511 . S
C1189 C1185 1.376 . S
C1189 C1188 1.392 . S
C1189 H1201 0.929 . S
C1190 C1186 1.531 . S
C1190 H1202 0.960 . S
C1190 H1203 0.962 . S
C1190 H1204 0.960 . S
C1191 C1188 1.511 . S
C1191 H1205 0.961 . S
C1191 H1206 0.961 . S
C1191 H1207 0.961 . S
C1192 C1193 1.370 . S
C1192 C1194 1.363 . S
C1192 H1208 0.931 . S
C1193 C1192 1.370 . S
C1193 C1197 1.408 . S
C1194 C1192 1.363 . S
C1194 C1195 1.370 . S
C1194 C1198 1.524 . S
C1195 C1187 1.503 . S
C1195 C1194 1.370 . S
C1195 C1196 1.403 . S
C1196 C1195 1.403 . S
C1196 C1197 1.404 . S
C1196 C1199 1.539 . S
C1197 C1193 1.408 . S
C1197 C1196 1.404 . S
C1197 H1209 0.930 . S
C1198 C1194 1.524 . S
C1198 H1210 0.956 . S
C1198 H1211 0.961 . S
C1198 H1212 0.961 . S
C1199 C1196 1.539 . S
C1199 H1213 0.958 . S
C1199 H1214 0.961 . S
C1199 H1215 0.960 . S
H1200 C1184 0.931 . S
H1201 C1189 0.929 . S
H1202 C1190 0.960 . S
H1203 C1190 0.962 . S
H1204 C1190 0.960 . S
H1205 C1191 0.961 . S
H1206 C1191 0.961 . S
H1207 C1191 0.961 . S
H1208 C1192 0.931 . S
H1209 C1197 0.930 . S
H1210 C1198 0.956 . S
H1211 C1198 0.961 . S
H1212 C1198 0.961 . S
H1213 C1199 0.958 . S
H1214 C1199 0.961 . S
H1215 C1199 0.960 . S
C1216 C1217 1.391 . S
C1216 C1218 1.394 . S
C1216 H1232 0.931 . S
C1217 C1216 1.391 . S
C1217 C1221 1.376 . S
C1218 C1216 1.394 . S
C1218 C1219 1.369 . S
C1218 C1222 1.531 . S
C1219 C1218 1.369 . S
C1219 C1220 1.410 . S
C1219 C1227 1.503 . S
C1220 C1219 1.410 . S
C1220 C1221 1.392 . S
C1220 C1223 1.511 . S
C1221 C1217 1.376 . S
C1221 C1220 1.392 . S
C1221 H1233 0.929 . S
C1222 C1218 1.531 . S
C1222 H1234 0.960 . S
C1222 H1235 0.962 . S
C1222 H1236 0.960 . S
C1223 C1220 1.511 . S
C1223 H1237 0.961 . S
C1223 H1238 0.961 . S
C1223 H1239 0.961 . S
C1224 C1225 1.370 . S
C1224 C1226 1.363 . S
C1224 H1240 0.931 . S
C1225 C1224 1.370 . S
C1225 C1229 1.408 . S
C1226 C1224 1.363 . S
C1226 C1227 1.370 . S
C1226 C1230 1.524 . S
C1227 C1219 1.503 . S
C1227 C1226 1.370 . S
C1227 C1228 1.403 . S
C1228 C1227 1.403 . S
C1228 C1229 1.404 . S
C1228 C1231 1.539 . S
C1229 C1225 1.408 . S
C1229 C1228 1.404 . S
C1229 H1241 0.930 . S
C1230 C1226 1.524 . S
C1230 H1242 0.956 . S
C1230 H1243 0.961 . S
C1230 H1244 0.961 . S
C1231 C1228 1.539 . S
C1231 H1245 0.958 . S
C1231 H1246 0.961 . S
C1231 H1247 0.960 . S
H1232 C1216 0.931 . S
H1233 C1221 0.929 . S
H1234 C1222 0.960 . S
H1235 C1222 0.962 . S
H1236 C1222 0.960 . S
H1237 C1223 0.961 . S
H1238 C1223 0.961 . S
H1239 C1223 0.961 . S
H1240 C1224 0.931 . S
H1241 C1229 0.930 . S
H1242 C1230 0.956 . S
H1243 C1230 0.961 . S
H1244 C1230 0.961 . S
H1245 C1231 0.958 . S
H1246 C1231 0.961 . S
H1247 C1231 0.960 . S
C1248 C1249 1.391 . S
C1248 C1250 1.394 . S
C1248 H1264 0.931 . S
C1249 C1248 1.391 . S
C1249 C1253 1.376 . S
C1250 C1248 1.394 . S
C1250 C1251 1.369 . S
C1250 C1254 1.531 . S
C1251 C1250 1.369 . S
C1251 C1252 1.410 . S
C1251 C1259 1.503 . S
C1252 C1251 1.410 . S
C1252 C1253 1.392 . S
C1252 C1255 1.511 . S
C1253 C1249 1.376 . S
C1253 C1252 1.392 . S
C1253 H1265 0.929 . S
C1254 C1250 1.531 . S
C1254 H1266 0.960 . S
C1254 H1267 0.962 . S
C1254 H1268 0.960 . S
C1255 C1252 1.511 . S
C1255 H1269 0.961 . S
C1255 H1270 0.961 . S
C1255 H1271 0.961 . S
C1256 C1257 1.370 . S
C1256 C1258 1.363 . S
C1256 H1272 0.931 . S
C1257 C1256 1.370 . S
C1257 C1261 1.408 . S
C1258 C1256 1.363 . S
C1258 C1259 1.370 . S
C1258 C1262 1.524 . S
C1259 C1251 1.503 . S
C1259 C1258 1.370 . S
C1259 C1260 1.403 . S
C1260 C1259 1.403 . S
C1260 C1261 1.404 . S
C1260 C1263 1.539 . S
C1261 C1257 1.408 . S
C1261 C1260 1.404 . S
C1261 H1273 0.930 . S
C1262 C1258 1.524 . S
C1262 H1274 0.956 . S
C1262 H1275 0.961 . S
C1262 H1276 0.961 . S
C1263 C1260 1.539 . S
C1263 H1277 0.958 . S
C1263 H1278 0.961 . S
C1263 H1279 0.960 . S
H1264 C1248 0.931 . S
H1265 C1253 0.929 . S
H1266 C1254 0.960 . S
H1267 C1254 0.962 . S
H1268 C1254 0.960 . S
H1269 C1255 0.961 . S
H1270 C1255 0.961 . S
H1271 C1255 0.961 . S
H1272 C1256 0.931 . S
H1273 C1261 0.930 . S
H1274 C1262 0.956 . S
H1275 C1262 0.961 . S
H1276 C1262 0.961 . S
H1277 C1263 0.958 . S
H1278 C1263 0.961 . S
H1279 C1263 0.960 . S
C1280 C1281 1.391 . S
C1280 C1282 1.394 . S
C1280 H1296 0.931 . S
C1281 C1280 1.391 . S
C1281 C1285 1.376 1_455 S
C1282 C1280 1.394 . S
C1282 C1283 1.369 . S
C1282 C1286 1.531 . S
C1283 C1282 1.369 . S
C1283 C1284 1.410 1_455 S
C1283 C1291 1.503 1_556 S
C1284 C1283 1.410 1_655 S
C1284 C1285 1.392 . S
C1284 C1287 1.511 1_556 S
C1285 C1281 1.376 1_655 S
C1285 C1284 1.392 . S
C1285 H1297 0.929 . S
C1286 C1282 1.531 . S
C1286 H1298 0.960 . S
C1286 H1299 0.962 . S
C1286 H1300 0.960 . S
C1287 C1284 1.511 1_554 S
C1287 H1301 0.961 . S
C1287 H1302 0.961 . S
C1287 H1303 0.961 . S
C1288 C1289 1.370 1_655 S
C1288 C1290 1.363 . S
C1288 H1304 0.931 . S
C1289 C1288 1.370 1_455 S
C1289 C1293 1.408 . S
C1290 C1288 1.363 . S
C1290 C1291 1.370 1_655 S
C1290 C1294 1.524 1_554 S
C1291 C1283 1.503 1_554 S
C1291 C1290 1.370 1_455 S
C1291 C1292 1.403 . S
C1292 C1291 1.403 . S
C1292 C1293 1.404 . S
C1292 C1295 1.539 . S
C1293 C1289 1.408 . S
C1293 C1292 1.404 . S
C1293 H1305 0.930 . S
C1294 C1290 1.524 1_556 S
C1294 H1306 0.956 . S
C1294 H1307 0.961 . S
C1294 H1308 0.961 . S
C1295 C1292 1.539 . S
C1295 H1309 0.958 . S
C1295 H1310 0.961 . S
C1295 H1311 0.960 . S
H1296 C1280 0.931 . S
H1297 C1285 0.929 . S
H1298 C1286 0.960 . S
H1299 C1286 0.962 . S
H1300 C1286 0.960 . S
H1301 C1287 0.961 . S
H1302 C1287 0.961 . S
H1303 C1287 0.961 . S
H1304 C1288 0.931 . S
H1305 C1293 0.930 . S
H1306 C1294 0.956 . S
H1307 C1294 0.961 . S
H1308 C1294 0.961 . S
H1309 C1295 0.958 . S
H1310 C1295 0.961 . S
H1311 C1295 0.960 . S
C1312 C1313 1.391 . S
C1312 C1314 1.394 . S
C1312 H1328 0.931 . S
C1313 C1312 1.391 . S
C1313 C1317 1.370 1_455 S
C1314 C1312 1.394 . S
C1314 C1315 1.369 . S
C1314 C1318 1.531 . S
C1315 C1314 1.369 . S
C1315 C1316 1.410 1_455 S
C1315 C1323 1.503 . S
C1316 C1315 1.410 1_655 S
C1316 C1317 1.394 . S
C1316 C1319 1.511 . S
C1317 C1313 1.370 1_655 S
C1317 C1316 1.394 . S
C1317 H1329 0.936 . S
C1318 C1314 1.531 . S
C1318 H1330 0.953 1_455 S
C1318 H1331 0.962 . S
C1318 H1332 0.960 . S
C1319 C1316 1.511 . S
C1319 H1333 0.958 1_655 S
C1319 H1334 0.961 1_655 S
C1319 H1335 0.961 . S
C1320 C1321 1.370 . S
C1320 C1322 1.363 . S
C1320 H1336 0.931 . S
C1321 C1320 1.370 . S
C1321 C1325 1.408 1_455 S
C1322 C1320 1.363 . S
C1322 C1323 1.370 . S
C1322 C1326 1.524 . S
C1323 C1315 1.503 . S
C1323 C1322 1.370 . S
C1323 C1324 1.403 1_455 S
C1324 C1323 1.403 1_655 S
C1324 C1325 1.404 . S
C1324 C1327 1.539 . S
C1325 C1321 1.408 1_655 S
C1325 C1324 1.404 . S
C1325 H1337 0.930 . S
C1326 C1322 1.524 . S
C1326 H1338 0.956 . S
C1326 H1339 0.961 . S
C1326 H1340 0.961 . S
C1327 C1324 1.539 . S
C1327 H1341 0.958 . S
C1327 H1342 0.961 . S
C1327 H1343 0.960 . S
H1328 C1312 0.931 . S
H1329 C1317 0.936 . S
H1330 C1318 0.953 1_655 S
H1331 C1318 0.962 . S
H1332 C1318 0.960 . S
H1333 C1319 0.958 1_455 S
H1334 C1319 0.961 1_455 S
H1335 C1319 0.961 . S
H1336 C1320 0.931 . S
H1337 C1325 0.930 . S
H1338 C1326 0.956 . S
H1339 C1326 0.961 . S
H1340 C1326 0.961 . S
H1341 C1327 0.958 . S
H1342 C1327 0.961 . S
H1343 C1327 0.960 . S
C1344 C1345 1.391 . S
C1344 C1346 1.394 . S
C1344 H1360 0.931 . S
C1345 C1344 1.391 . S
C1345 C1349 1.376 . S
C1346 C1344 1.394 . S
C1346 C1347 1.369 1_554 S
C1346 C1350 1.531 . S
C1347 C1346 1.369 1_556 S
C1347 C1348 1.410 1_556 S
C1347 C1355 1.503 . S
C1348 C1347 1.410 1_554 S
C1348 C1349 1.392 . S
C1348 C1351 1.511 1_554 S
C1349 C1345 1.376 . S
C1349 C1348 1.392 . S
C1349 H1361 0.929 . S
C1350 C1346 1.531 . S
C1350 H1362 0.960 1_554 S
C1350 H1363 0.962 . S
C1350 H1364 0.960 . S
C1351 C1348 1.511 1_556 S
C1351 H1365 0.961 . S
C1351 H1366 0.961 . S
C1351 H1367 0.961 . S
C1352 C1353 1.370 . S
C1352 C1354 1.363 . S
C1352 H1368 0.931 . S
C1353 C1352 1.370 . S
C1353 C1357 1.408 . S
C1354 C1352 1.363 . S
C1354 C1355 1.370 . S
C1354 C1358 1.524 . S
C1355 C1347 1.503 . S
C1355 C1354 1.370 . S
C1355 C1356 1.403 . S
C1356 C1355 1.403 . S
C1356 C1357 1.404 . S
C1356 C1359 1.539 . S
C1357 C1353 1.408 . S
C1357 C1356 1.404 . S
C1357 H1369 0.930 . S
C1358 C1354 1.524 . S
C1358 H1370 0.956 . S
C1358 H1371 0.961 . S
C1358 H1372 0.961 . S
C1359 C1356 1.539 . S
C1359 H1373 0.958 . S
C1359 H1374 0.961 . S
C1359 H1375 0.960 . S
H1360 C1344 0.931 . S
H1361 C1349 0.929 . S
H1362 C1350 0.960 1_556 S
H1363 C1350 0.962 . S
H1364 C1350 0.960 . S
H1365 C1351 0.961 . S
H1366 C1351 0.961 . S
H1367 C1351 0.961 . S
H1368 C1352 0.931 . S
H1369 C1357 0.930 . S
H1370 C1358 0.956 . S
H1371 C1358 0.961 . S
H1372 C1358 0.961 . S
H1373 C1359 0.958 . S
H1374 C1359 0.961 . S
H1375 C1359 0.960 . S
C1376 C1377 1.391 . S
C1376 C1378 1.394 . S
C1376 H1392 0.931 . S
C1377 C1376 1.391 . S
C1377 C1381 1.376 . S
C1378 C1376 1.394 . S
C1378 C1379 1.369 . S
C1378 C1382 1.531 . S
C1379 C1378 1.369 . S
C1379 C1380 1.410 . S
C1379 C1387 1.503 . S
C1380 C1379 1.410 . S
C1380 C1381 1.392 . S
C1380 C1383 1.511 . S
C1381 C1377 1.376 . S
C1381 C1380 1.392 . S
C1381 H1393 0.929 . S
C1382 C1378 1.531 . S
C1382 H1394 0.960 . S
C1382 H1395 0.962 . S
C1382 H1396 0.960 . S
C1383 C1380 1.511 . S
C1383 H1397 0.961 . S
C1383 H1398 0.961 . S
C1383 H1399 0.961 . S
C1384 C1385 1.370 . S
C1384 C1386 1.363 . S
C1384 H1400 0.931 . S
C1385 C1384 1.370 . S
C1385 C1389 1.408 . S
C1386 C1384 1.363 . S
C1386 C1387 1.370 . S
C1386 C1390 1.524 . S
C1387 C1379 1.503 . S
C1387 C1386 1.370 . S
C1387 C1388 1.403 . S
C1388 C1387 1.403 . S
C1388 C1389 1.404 . S
C1388 C1391 1.539 . S
C1389 C1385 1.408 . S
C1389 C1388 1.404 . S
C1389 H1401 0.930 . S
C1390 C1386 1.524 . S
C1390 H1402 0.956 . S
C1390 H1403 0.961 . S
C1390 H1404 0.961 . S
C1391 C1388 1.539 . S
C1391 H1405 0.958 . S
C1391 H1406 0.961 . S
C1391 H1407 0.960 . S
H1392 C1376 0.931 . S
H1393 C1381 0.929 . S
H1394 C1382 0.960 . S
H1395 C1382 0.962 . S
H1396 C1382 0.960 . S
H1397 C1383 0.961 . S
H1398 C1383 0.961 . S
H1399 C1383 0.961 . S
H1400 C1384 0.931 . S
H1401 C1389 0.930 . S
H1402 C1390 0.956 . S
H1403 C1390 0.961 . S
H1404 C1390 0.961 . S
H1405 C1391 0.958 . S
H1406 C1391 0.961 . S
H1407 C1391 0.960 . S
C1408 C1409 1.391 . S
C1408 C1410 1.394 . S
C1408 H1424 0.931 . S
C1409 C1408 1.391 . S
C1409 C1413 1.376 . S
C1410 C1408 1.394 . S
C1410 C1411 1.369 . S
C1410 C1414 1.531 . S
C1411 C1410 1.369 . S
C1411 C1412 1.410 . S
C1411 C1419 1.503 . S
C1412 C1411 1.410 . S
C1412 C1413 1.392 . S
C1412 C1415 1.511 . S
C1413 C1409 1.376 . S
C1413 C1412 1.392 . S
C1413 H1425 0.929 . S
C1414 C1410 1.531 . S
C1414 H1426 0.960 . S
C1414 H1427 0.962 . S
C1414 H1428 0.960 . S
C1415 C1412 1.511 . S
C1415 H1429 0.961 . S
C1415 H1430 0.961 . S
C1415 H1431 0.961 . S
C1416 C1417 1.370 . S
C1416 C1418 1.363 . S
C1416 H1432 0.931 . S
C1417 C1416 1.370 . S
C1417 C1421 1.408 . S
C1418 C1416 1.363 . S
C1418 C1419 1.370 . S
C1418 C1422 1.524 . S
C1419 C1411 1.503 . S
C1419 C1418 1.370 . S
C1419 C1420 1.403 . S
C1420 C1419 1.403 . S
C1420 C1421 1.404 . S
C1420 C1423 1.539 . S
C1421 C1417 1.408 . S
C1421 C1420 1.404 . S
C1421 H1433 0.930 . S
C1422 C1418 1.524 . S
C1422 H1434 0.956 . S
C1422 H1435 0.961 . S
C1422 H1436 0.961 . S
C1423 C1420 1.539 . S
C1423 H1437 0.958 . S
C1423 H1438 0.961 . S
C1423 H1439 0.960 . S
H1424 C1408 0.931 . S
H1425 C1413 0.929 . S
H1426 C1414 0.960 . S
H1427 C1414 0.962 . S
H1428 C1414 0.960 . S
H1429 C1415 0.961 . S
H1430 C1415 0.961 . S
H1431 C1415 0.961 . S
H1432 C1416 0.931 . S
H1433 C1421 0.930 . S
H1434 C1422 0.956 . S
H1435 C1422 0.961 . S
H1436 C1422 0.961 . S
H1437 C1423 0.958 . S
H1438 C1423 0.961 . S
H1439 C1423 0.960 . S
C1440 C1441 1.391 1_655 S
C1440 C1442 1.394 . S
C1440 H1456 0.931 . S
C1441 C1440 1.391 1_455 S
C1441 C1445 1.376 . S
C1442 C1440 1.394 . S
C1442 C1443 1.369 1_655 S
C1442 C1446 1.531 . S
C1443 C1442 1.369 1_455 S
C1443 C1444 1.410 . S
C1443 C1451 1.503 . S
C1444 C1443 1.410 . S
C1444 C1445 1.392 . S
C1444 C1447 1.511 . S
C1445 C1441 1.376 . S
C1445 C1444 1.392 . S
C1445 H1457 0.929 . S
C1446 C1442 1.531 . S
C1446 H1458 0.960 . S
C1446 H1459 0.962 . S
C1446 H1460 0.960 . S
C1447 C1444 1.511 . S
C1447 H1461 0.961 . S
C1447 H1462 0.961 . S
C1447 H1463 0.961 . S
C1448 C1449 1.370 1_655 S
C1448 C1450 1.368 . S
C1448 H1464 0.931 . S
C1449 C1448 1.370 1_455 S
C1449 C1453 1.408 . S
C1450 C1448 1.368 . S
C1450 C1451 1.354 1_655 S
C1450 C1454 1.538 . S
C1451 C1443 1.503 . S
C1451 C1450 1.354 1_455 S
C1451 C1452 1.403 . S
C1452 C1451 1.403 . S
C1452 C1453 1.404 . S
C1452 C1455 1.539 . S
C1453 C1449 1.408 . S
C1453 C1452 1.404 . S
C1453 H1465 0.930 . S
C1454 C1450 1.538 . S
C1454 H1466 0.956 . S
C1454 H1467 0.961 1_655 S
C1454 H1468 0.961 . S
C1455 C1452 1.539 . S
C1455 H1469 0.958 . S
C1455 H1470 0.961 . S
C1455 H1471 0.960 . S
H1456 C1440 0.931 . S
H1457 C1445 0.929 . S
H1458 C1446 0.960 . S
H1459 C1446 0.962 . S
H1460 C1446 0.960 . S
H1461 C1447 0.961 . S
H1462 C1447 0.961 . S
H1463 C1447 0.961 . S
H1464 C1448 0.931 . S
H1465 C1453 0.930 . S
H1466 C1454 0.956 . S
H1467 C1454 0.961 1_455 S
H1468 C1454 0.961 . S
H1469 C1455 0.958 . S
H1470 C1455 0.961 . S
H1471 C1455 0.960 . S
C1472 C1473 1.391 . S
C1472 C1474 1.394 . S
C1472 H1488 0.931 . S
C1473 C1472 1.391 . S
C1473 C1477 1.376 . S
C1474 C1472 1.394 . S
C1474 C1475 1.369 . S
C1474 C1478 1.531 . S
C1475 C1474 1.369 . S
C1475 C1476 1.410 . S
C1475 C1483 1.503 . S
C1476 C1475 1.410 . S
C1476 C1477 1.392 . S
C1476 C1479 1.511 . S
C1477 C1473 1.376 . S
C1477 C1476 1.392 . S
C1477 H1489 0.929 . S
C1478 C1474 1.531 . S
C1478 H1490 0.960 . S
C1478 H1491 0.962 . S
C1478 H1492 0.960 . S
C1479 C1476 1.511 . S
C1479 H1493 0.961 . S
C1479 H1494 0.961 . S
C1479 H1495 0.961 . S
C1480 C1481 1.370 . S
C1480 C1482 1.363 . S
C1480 H1496 0.931 . S
C1481 C1480 1.370 . S
C1481 C1485 1.408 . S
C1482 C1480 1.363 . S
C1482 C1483 1.370 . S
C1482 C1486 1.524 . S
C1483 C1475 1.503 . S
C1483 C1482 1.370 . S
C1483 C1484 1.403 . S
C1484 C1483 1.403 . S
C1484 C1485 1.404 . S
C1484 C1487 1.539 . S
C1485 C1481 1.408 . S
C1485 C1484 1.404 . S
C1485 H1497 0.930 . S
C1486 C1482 1.524 . S
C1486 H1498 0.956 . S
C1486 H1499 0.961 . S
C1486 H1500 0.961 . S
C1487 C1484 1.539 . S
C1487 H1501 0.958 . S
C1487 H1502 0.961 . S
C1487 H1503 0.960 . S
H1488 C1472 0.931 . S
H1489 C1477 0.929 . S
H1490 C1478 0.960 . S
H1491 C1478 0.962 . S
H1492 C1478 0.960 . S
H1493 C1479 0.961 . S
H1494 C1479 0.961 . S
H1495 C1479 0.961 . S
H1496 C1480 0.931 . S
H1497 C1485 0.930 . S
H1498 C1486 0.956 . S
H1499 C1486 0.961 . S
H1500 C1486 0.961 . S
H1501 C1487 0.958 . S
H1502 C1487 0.961 . S
H1503 C1487 0.960 . S
C1504 C1505 1.391 . S
C1504 C1506 1.394 . S
C1504 H1520 0.931 . S
C1505 C1504 1.391 . S
C1505 C1509 1.376 . S
C1506 C1504 1.394 . S
C1506 C1507 1.369 . S
C1506 C1510 1.531 . S
C1507 C1506 1.369 . S
C1507 C1508 1.410 . S
C1507 C1515 1.503 . S
C1508 C1507 1.410 . S
C1508 C1509 1.392 . S
C1508 C1511 1.511 . S
C1509 C1505 1.376 . S
C1509 C1508 1.392 . S
C1509 H1521 0.929 . S
C1510 C1506 1.531 . S
C1510 H1522 0.960 . S
C1510 H1523 0.962 . S
C1510 H1524 0.960 . S
C1511 C1508 1.511 . S
C1511 H1525 0.961 . S
C1511 H1526 0.961 . S
C1511 H1527 0.961 . S
C1512 C1513 1.370 . S
C1512 C1514 1.363 . S
C1512 H1528 0.931 . S
C1513 C1512 1.370 . S
C1513 C1517 1.408 . S
C1514 C1512 1.363 . S
C1514 C1515 1.370 . S
C1514 C1518 1.524 . S
C1515 C1507 1.503 . S
C1515 C1514 1.370 . S
C1515 C1516 1.403 . S
C1516 C1515 1.403 . S
C1516 C1517 1.404 . S
C1516 C1519 1.539 . S
C1517 C1513 1.408 . S
C1517 C1516 1.404 . S
C1517 H1529 0.930 . S
C1518 C1514 1.524 . S
C1518 H1530 0.956 . S
C1518 H1531 0.961 . S
C1518 H1532 0.961 . S
C1519 C1516 1.539 . S
C1519 H1533 0.958 . S
C1519 H1534 0.961 . S
C1519 H1535 0.960 . S
H1520 C1504 0.931 . S
H1521 C1509 0.929 . S
H1522 C1510 0.960 . S
H1523 C1510 0.962 . S
H1524 C1510 0.960 . S
H1525 C1511 0.961 . S
H1526 C1511 0.961 . S
H1527 C1511 0.961 . S
H1528 C1512 0.931 . S
H1529 C1517 0.930 . S
H1530 C1518 0.956 . S
H1531 C1518 0.961 . S
H1532 C1518 0.961 . S
H1533 C1519 0.958 . S
H1534 C1519 0.961 . S
H1535 C1519 0.960 . S
C1536 C1537 1.391 . S
C1536 C1538 1.394 . S
C1536 H1552 0.931 . S
C1537 C1536 1.391 . S
C1537 C1541 1.376 . S
C1538 C1536 1.394 . S
C1538 C1539 1.369 1_556 S
C1538 C1542 1.531 1_556 S
C1539 C1538 1.369 1_554 S
C1539 C1540 1.410 1_554 S
C1539 C1547 1.503 . S
C1540 C1539 1.410 1_556 S
C1540 C1541 1.392 . S
C1540 C1543 1.511 . S
C1541 C1537 1.376 . S
C1541 C1540 1.392 . S
C1541 H1553 0.929 . S
C1542 C1538 1.531 1_554 S
C1542 H1554 0.960 . S
C1542 H1555 0.962 . S
C1542 H1556 0.960 . S
C1543 C1540 1.511 . S
C1543 H1557 0.961 . S
C1543 H1558 0.961 1_556 S
C1543 H1559 0.961 . S
C1544 C1545 1.370 . S
C1544 C1546 1.363 . S
C1544 H1560 0.931 . S
C1545 C1544 1.370 . S
C1545 C1549 1.408 . S
C1546 C1544 1.363 . S
C1546 C1547 1.370 . S
C1546 C1550 1.524 . S
C1547 C1539 1.503 . S
C1547 C1546 1.370 . S
C1547 C1548 1.403 . S
C1548 C1547 1.403 . S
C1548 C1549 1.404 . S
C1548 C1551 1.539 . S
C1549 C1545 1.408 . S
C1549 C1548 1.404 . S
C1549 H1561 0.930 . S
C1550 C1546 1.524 . S
C1550 H1562 0.956 . S
C1550 H1563 0.961 . S
C1550 H1564 0.961 . S
C1551 C1548 1.539 . S
C1551 H1565 0.958 . S
C1551 H1566 0.961 . S
C1551 H1567 0.960 . S
H1552 C1536 0.931 . S
H1553 C1541 0.929 . S
H1554 C1542 0.960 . S
H1555 C1542 0.962 . S
H1556 C1542 0.960 . S
H1557 C1543 0.961 . S
H1558 C1543 0.961 1_554 S
H1559 C1543 0.961 . S
H1560 C1544 0.931 . S
H1561 C1549 0.930 . S
H1562 C1550 0.956 . S
H1563 C1550 0.961 . S
H1564 C1550 0.961 . S
H1565 C1551 0.958 . S
H1566 C1551 0.961 . S
H1567 C1551 0.960 . S
C1568 C1569 1.391 . S
C1568 C1570 1.394 . S
C1568 H1584 0.931 . S
C1569 C1568 1.391 . S
C1569 C1573 1.376 . S
C1570 C1568 1.394 . S
C1570 C1571 1.369 . S
C1570 C1574 1.531 . S
C1571 C1570 1.369 . S
C1571 C1572 1.410 . S
C1571 C1579 1.503 . S
C1572 C1571 1.410 . S
C1572 C1573 1.392 . S
C1572 C1575 1.511 . S
C1573 C1569 1.376 . S
C1573 C1572 1.392 . S
C1573 H1585 0.929 . S
C1574 C1570 1.531 . S
C1574 H1586 0.960 1_554 S
C1574 H1587 0.962 . S
C1574 H1588 0.960 . S
C1575 C1572 1.511 . S
C1575 H1589 0.961 . S
C1575 H1590 0.961 . S
C1575 H1591 0.961 . S
C1576 C1577 1.370 . S
C1576 C1578 1.363 . S
C1576 H1592 0.931 . S
C1577 C1576 1.370 . S
C1577 C1581 1.408 . S
C1578 C1576 1.363 . S
C1578 C1579 1.370 1_556 S
C1578 C1582 1.524 1_556 S
C1579 C1571 1.503 . S
C1579 C1578 1.370 1_554 S
C1579 C1580 1.403 1_554 S
C1580 C1579 1.403 1_556 S
C1580 C1581 1.404 . S
C1580 C1583 1.539 . S
C1581 C1577 1.408 . S
C1581 C1580 1.404 . S
C1581 H1593 0.930 . S
C1582 C1578 1.524 1_554 S
C1582 H1594 0.956 . S
C1582 H1595 0.961 . S
C1582 H1596 0.964 . S
C1583 C1580 1.539 . S
C1583 H1597 0.958 . S
C1583 H1598 0.961 . S
C1583 H1599 0.960 1_556 S
H1584 C1568 0.931 . S
H1585 C1573 0.929 . S
H1586 C1574 0.960 1_556 S
H1587 C1574 0.962 . S
H1588 C1574 0.960 . S
H1589 C1575 0.961 . S
H1590 C1575 0.961 . S
H1591 C1575 0.961 . S
H1592 C1576 0.931 . S
H1593 C1581 0.930 . S
H1594 C1582 0.956 . S
H1595 C1582 0.961 . S
H1596 C1582 0.964 . S
H1597 C1583 0.958 . S
H1598 C1583 0.961 . S
H1599 C1583 0.960 1_554 S
C1600 C1601 1.391 . S
C1600 C1602 1.394 . S
C1600 H1616 0.931 . S
C1601 C1600 1.391 . S
C1601 C1605 1.376 . S
C1602 C1600 1.394 . S
C1602 C1603 1.369 . S
C1602 C1606 1.531 . S
C1603 C1602 1.369 . S
C1603 C1604 1.410 . S
C1603 C1611 1.503 . S
C1604 C1603 1.410 . S
C1604 C1605 1.392 . S
C1604 C1607 1.511 . S
C1605 C1601 1.376 . S
C1605 C1604 1.392 . S
C1605 H1617 0.929 . S
C1606 C1602 1.531 . S
C1606 H1618 0.960 . S
C1606 H1619 0.962 . S
C1606 H1620 0.960 . S
C1607 C1604 1.511 . S
C1607 H1621 0.961 . S
C1607 H1622 0.961 . S
C1607 H1623 0.961 . S
C1608 C1609 1.370 . S
C1608 C1610 1.363 . S
C1608 H1624 0.931 . S
C1609 C1608 1.370 . S
C1609 C1613 1.408 . S
C1610 C1608 1.363 . S
C1610 C1611 1.370 . S
C1610 C1614 1.524 . S
C1611 C1603 1.503 . S
C1611 C1610 1.370 . S
C1611 C1612 1.403 . S
C1612 C1611 1.403 . S
C1612 C1613 1.404 . S
C1612 C1615 1.539 . S
C1613 C1609 1.408 . S
C1613 C1612 1.404 . S
C1613 H1625 0.930 . S
C1614 C1610 1.524 . S
C1614 H1626 0.956 . S
C1614 H1627 0.961 . S
C1614 H1628 0.961 . S
C1615 C1612 1.539 . S
C1615 H1629 0.958 . S
C1615 H1630 0.961 . S
C1615 H1631 0.960 . S
H1616 C1600 0.931 . S
H1617 C1605 0.929 . S
H1618 C1606 0.960 . S
H1619 C1606 0.962 . S
H1620 C1606 0.960 . S
H1621 C1607 0.961 . S
H1622 C1607 0.961 . S
H1623 C1607 0.961 . S
H1624 C1608 0.931 . S
H1625 C1613 0.930 . S
H1626 C1614 0.956 . S
H1627 C1614 0.961 . S
H1628 C1614 0.961 . S
H1629 C1615 0.958 . S
H1630 C1615 0.961 . S
H1631 C1615 0.960 . S
C1632 C1633 1.391 . S
C1632 C1634 1.394 . S
C1632 H1648 0.931 . S
C1633 C1632 1.391 . S
C1633 C1637 1.376 . S
C1634 C1632 1.394 . S
C1634 C1635 1.369 . S
C1634 C1638 1.531 . S
C1635 C1634 1.369 . S
C1635 C1636 1.410 . S
C1635 C1643 1.503 . S
C1636 C1635 1.410 . S
C1636 C1637 1.392 . S
C1636 C1639 1.511 . S
C1637 C1633 1.376 . S
C1637 C1636 1.392 . S
C1637 H1649 0.929 . S
C1638 C1634 1.531 . S
C1638 H1650 0.960 . S
C1638 H1651 0.962 . S
C1638 H1652 0.960 . S
C1639 C1636 1.511 . S
C1639 H1653 0.961 . S
C1639 H1654 0.961 . S
C1639 H1655 0.961 . S
C1640 C1641 1.370 . S
C1640 C1642 1.363 . S
C1640 H1656 0.931 . S
C1641 C1640 1.370 . S
C1641 C1645 1.408 . S
C1642 C1640 1.363 . S
C1642 C1643 1.370 . S
C1642 C1646 1.524 . S
C1643 C1635 1.503 . S
C1643 C1642 1.370 . S
C1643 C1644 1.403 . S
C1644 C1643 1.403 . S
C1644 C1645 1.404 . S
C1644 C1647 1.539 . S
C1645 C1641 1.408 . S
C1645 C1644 1.404 . S
C1645 H1657 0.930 . S
C1646 C1642 1.524 . S
C1646 H1658 0.956 . S
C1646 H1659 0.961 . S
C1646 H1660 0.961 . S
C1647 C1644 1.539 . S
C1647 H1661 0.958 . S
C1647 H1662 0.961 . S
C1647 H1663 0.960 . S
H1648 C1632 0.931 . S
H1649 C1637 0.929 . S
H1650 C1638 0.960 . S
H1651 C1638 0.962 . S
H1652 C1638 0.960 . S
H1653 C1639 0.961 . S
H1654 C1639 0.961 . S
H1655 C1639 0.961 . S
H1656 C1640 0.931 . S
H1657 C1645 0.930 . S
H1658 C1646 0.956 . S
H1659 C1646 0.961 . S
H1660 C1646 0.961 . S
H1661 C1647 0.958 . S
H1662 C1647 0.961 . S
H1663 C1647 0.960 . S
C1664 C1665 1.391 . S
C1664 C1666 1.394 . S
C1664 H1680 0.931 . S
C1665 C1664 1.391 . S
C1665 C1669 1.376 . S
C1666 C1664 1.394 . S
C1666 C1667 1.369 1_554 S
C1666 C1670 1.531 . S
C1667 C1666 1.369 1_556 S
C1667 C1668 1.410 1_556 S
C1667 C1675 1.503 . S
C1668 C1667 1.410 1_554 S
C1668 C1669 1.392 . S
C1668 C1671 1.511 1_554 S
C1669 C1665 1.376 . S
C1669 C1668 1.392 . S
C1669 H1681 0.929 . S
C1670 C1666 1.531 . S
C1670 H1682 0.960 1_554 S
C1670 H1683 0.962 . S
C1670 H1684 0.960 . S
C1671 C1668 1.511 1_556 S
C1671 H1685 0.961 . S
C1671 H1686 0.961 . S
C1671 H1687 0.961 . S
C1672 C1673 1.370 . S
C1672 C1674 1.363 . S
C1672 H1688 0.931 . S
C1673 C1672 1.370 . S
C1673 C1677 1.408 . S
C1674 C1672 1.363 . S
C1674 C1675 1.370 . S
C1674 C1678 1.524 . S
C1675 C1667 1.503 . S
C1675 C1674 1.370 . S
C1675 C1676 1.403 . S
C1676 C1675 1.403 . S
C1676 C1677 1.404 . S
C1676 C1679 1.539 . S
C1677 C1673 1.408 . S
C1677 C1676 1.404 . S
C1677 H1689 0.930 . S
C1678 C1674 1.524 . S
C1678 H1690 0.956 . S
C1678 H1691 0.961 . S
C1678 H1692 0.961 . S
C1679 C1676 1.539 . S
C1679 H1693 0.958 . S
C1679 H1694 0.961 . S
C1679 H1695 0.960 . S
H1680 C1664 0.931 . S
H1681 C1669 0.929 . S
H1682 C1670 0.960 1_556 S
H1683 C1670 0.962 . S
H1684 C1670 0.960 . S
H1685 C1671 0.961 . S
H1686 C1671 0.961 . S
H1687 C1671 0.961 . S
H1688 C1672 0.931 . S
H1689 C1677 0.930 . S
H1690 C1678 0.956 . S
H1691 C1678 0.961 . S
H1692 C1678 0.961 . S
H1693 C1679 0.958 . S
H1694 C1679 0.961 . S
H1695 C1679 0.960 . S
C1696 C1697 1.391 . S
C1696 C1698 1.394 . S
C1696 H1712 0.931 . S
C1697 C1696 1.391 . S
C1697 C1701 1.376 . S
C1698 C1696 1.394 . S
C1698 C1699 1.369 . S
C1698 C1702 1.531 . S
C1699 C1698 1.369 . S
C1699 C1700 1.410 . S
C1699 C1707 1.503 . S
C1700 C1699 1.410 . S
C1700 C1701 1.392 . S
C1700 C1703 1.511 . S
C1701 C1697 1.376 . S
C1701 C1700 1.392 . S
C1701 H1713 0.929 . S
C1702 C1698 1.531 . S
C1702 H1714 0.960 . S
C1702 H1715 0.962 . S
C1702 H1716 0.960 . S
C1703 C1700 1.511 . S
C1703 H1717 0.961 . S
C1703 H1718 0.961 . S
C1703 H1719 0.961 . S
C1704 C1705 1.370 . S
C1704 C1706 1.363 . S
C1704 H1720 0.931 . S
C1705 C1704 1.370 . S
C1705 C1709 1.408 . S
C1706 C1704 1.363 . S
C1706 C1707 1.370 . S
C1706 C1710 1.524 . S
C1707 C1699 1.503 . S
C1707 C1706 1.370 . S
C1707 C1708 1.403 . S
C1708 C1707 1.403 . S
C1708 C1709 1.404 . S
C1708 C1711 1.539 . S
C1709 C1705 1.408 . S
C1709 C1708 1.404 . S
C1709 H1721 0.930 . S
C1710 C1706 1.524 . S
C1710 H1722 0.956 . S
C1710 H1723 0.961 . S
C1710 H1724 0.961 . S
C1711 C1708 1.539 . S
C1711 H1725 0.958 . S
C1711 H1726 0.961 . S
C1711 H1727 0.960 . S
H1712 C1696 0.931 . S
H1713 C1701 0.929 . S
H1714 C1702 0.960 . S
H1715 C1702 0.962 . S
H1716 C1702 0.960 . S
H1717 C1703 0.961 . S
H1718 C1703 0.961 . S
H1719 C1703 0.961 . S
H1720 C1704 0.931 . S
H1721 C1709 0.930 . S
H1722 C1710 0.956 . S
H1723 C1710 0.961 . S
H1724 C1710 0.961 . S
H1725 C1711 0.958 . S
H1726 C1711 0.961 . S
H1727 C1711 0.960 . S
C1728 C1729 1.391 . S
C1728 C1730 1.394 . S
C1728 H1744 0.931 . S
C1729 C1728 1.391 . S
C1729 C1733 1.376 . S
C1730 C1728 1.394 . S
C1730 C1731 1.369 . S
C1730 C1734 1.531 . S
C1731 C1730 1.369 . S
C1731 C1732 1.410 . S
C1731 C1739 1.503 . S
C1732 C1731 1.410 . S
C1732 C1733 1.392 . S
C1732 C1735 1.511 1_455 S
C1733 C1729 1.376 . S
C1733 C1732 1.392 . S
C1733 H1745 0.917 1_455 S
C1734 C1730 1.531 . S
C1734 H1746 0.960 . S
C1734 H1747 0.962 . S
C1734 H1748 0.960 . S
C1735 C1732 1.511 1_655 S
C1735 H1749 0.961 . S
C1735 H1750 0.961 . S
C1735 H1751 0.961 . S
C1736 C1737 1.370 . S
C1736 C1738 1.363 . S
C1736 H1752 0.931 . S
C1737 C1736 1.370 . S
C1737 C1741 1.408 . S
C1738 C1736 1.363 . S
C1738 C1739 1.370 . S
C1738 C1742 1.524 . S
C1739 C1731 1.503 . S
C1739 C1738 1.370 . S
C1739 C1740 1.403 . S
C1740 C1739 1.403 . S
C1740 C1741 1.404 . S
C1740 C1743 1.539 . S
C1741 C1737 1.408 . S
C1741 C1740 1.404 . S
C1741 H1753 0.930 . S
C1742 C1738 1.524 . S
C1742 H1754 0.956 . S
C1742 H1755 0.961 . S
C1742 H1756 0.961 . S
C1743 C1740 1.539 . S
C1743 H1757 0.958 . S
C1743 H1758 0.961 1_455 S
C1743 H1759 0.960 1_455 S
H1744 C1728 0.931 . S
H1745 C1733 0.917 1_655 S
H1746 C1734 0.960 . S
H1747 C1734 0.962 . S
H1748 C1734 0.960 . S
H1749 C1735 0.961 . S
H1750 C1735 0.961 . S
H1751 C1735 0.961 . S
H1752 C1736 0.931 . S
H1753 C1741 0.930 . S
H1754 C1742 0.956 . S
H1755 C1742 0.961 . S
H1756 C1742 0.961 . S
H1757 C1743 0.958 . S
H1758 C1743 0.961 1_655 S
H1759 C1743 0.960 1_655 S
C1760 C1761 1.391 . S
C1760 C1762 1.394 . S
C1760 H1776 0.931 . S
C1761 C1760 1.391 . S
C1761 C1765 1.376 . S
C1762 C1760 1.394 . S
C1762 C1763 1.369 . S
C1762 C1766 1.531 . S
C1763 C1762 1.369 . S
C1763 C1764 1.410 . S
C1763 C1771 1.503 . S
C1764 C1763 1.410 . S
C1764 C1765 1.392 . S
C1764 C1767 1.511 . S
C1765 C1761 1.376 . S
C1765 C1764 1.392 . S
C1765 H1777 0.929 . S
C1766 C1762 1.531 . S
C1766 H1778 0.960 . S
C1766 H1779 0.962 . S
C1766 H1780 0.960 . S
C1767 C1764 1.511 . S
C1767 H1781 0.961 . S
C1767 H1782 0.961 . S
C1767 H1783 0.961 . S
C1768 C1769 1.370 . S
C1768 C1770 1.363 . S
C1768 H1784 0.931 1_556 S
C1769 C1768 1.370 . S
C1769 C1773 1.408 . S
C1770 C1768 1.363 . S
C1770 C1771 1.370 . S
C1770 C1774 1.524 . S
C1771 C1763 1.503 . S
C1771 C1770 1.370 . S
C1771 C1772 1.403 . S
C1772 C1771 1.403 . S
C1772 C1773 1.404 . S
C1772 C1775 1.539 . S
C1773 C1769 1.408 . S
C1773 C1772 1.404 . S
C1773 H1785 0.930 . S
C1774 C1770 1.524 . S
C1774 H1786 0.956 . S
C1774 H1787 0.961 . S
C1774 H1788 0.961 . S
C1775 C1772 1.539 . S
C1775 H1789 0.958 . S
C1775 H1790 0.961 . S
C1775 H1791 0.960 . S
H1776 C1760 0.931 . S
H1777 C1765 0.929 . S
H1778 C1766 0.960 . S
H1779 C1766 0.962 . S
H1780 C1766 0.960 . S
H1781 C1767 0.961 . S
H1782 C1767 0.961 . S
H1783 C1767 0.961 . S
H1784 C1768 0.931 1_554 S
H1785 C1773 0.930 . S
H1786 C1774 0.956 . S
H1787 C1774 0.961 . S
H1788 C1774 0.961 . S
H1789 C1775 0.958 . S
H1790 C1775 0.961 . S
H1791 C1775 0.960 . S
C1792 C1793 1.391 . S
C1792 C1794 1.394 . S
C1792 H1808 0.931 1_455 S
C1793 C1792 1.391 . S
C1793 C1797 1.376 . S
C1794 C1792 1.394 . S
C1794 C1795 1.369 . S
C1794 C1798 1.531 1_455 S
C1795 C1794 1.369 . S
C1795 C1796 1.410 . S
C1795 C1803 1.503 . S
C1796 C1795 1.410 . S
C1796 C1797 1.392 . S
C1796 C1799 1.511 . S
C1797 C1793 1.376 . S
C1797 C1796 1.392 . S
C1797 H1809 0.929 . S
C1798 C1794 1.531 1_655 S
C1798 H1810 0.960 1_655 S
C1798 H1811 0.962 . S
C1798 H1812 0.960 . S
C1799 C1796 1.511 . S
C1799 H1813 0.961 . S
C1799 H1814 0.961 . S
C1799 H1815 0.961 . S
C1800 C1801 1.370 . S
C1800 C1802 1.363 . S
C1800 H1816 0.931 . S
C1801 C1800 1.370 . S
C1801 C1805 1.408 . S
C1802 C1800 1.363 . S
C1802 C1803 1.370 . S
C1802 C1806 1.524 . S
C1803 C1795 1.503 . S
C1803 C1802 1.370 . S
C1803 C1804 1.403 . S
C1804 C1803 1.403 . S
C1804 C1805 1.404 . S
C1804 C1807 1.539 . S
C1805 C1801 1.408 . S
C1805 C1804 1.404 . S
C1805 H1817 0.930 . S
C1806 C1802 1.524 . S
C1806 H1818 0.956 1_455 S
C1806 H1819 0.961 . S
C1806 H1820 0.970 . S
C1807 C1804 1.539 . S
C1807 H1821 0.958 . S
C1807 H1822 0.961 . S
C1807 H1823 0.960 . S
H1808 C1792 0.931 1_655 S
H1809 C1797 0.929 . S
H1810 C1798 0.960 1_455 S
H1811 C1798 0.962 . S
H1812 C1798 0.960 . S
H1813 C1799 0.961 . S
H1814 C1799 0.961 . S
H1815 C1799 0.961 . S
H1816 C1800 0.931 . S
H1817 C1805 0.930 . S
H1818 C1806 0.956 1_655 S
H1819 C1806 0.961 . S
H1820 C1806 0.970 . S
H1821 C1807 0.958 . S
H1822 C1807 0.961 . S
H1823 C1807 0.960 . S
C545 C271 1.213 . S
C553 C33 1.205 . S
C577 C67 1.230 . S
C585 C169 1.214 . S
C609 C101 1.223 . S
C617 C203 1.207 . S
C641 C237 1.229 . S
C649 C135 1.210 . S
C673 C376 1.669 . S
C681 C138 1.660 . S
C705 C274 1.648 . S
C713 C2 1.666 . S
C737 C206 1.671 . S
C745 C342 1.657 . S
C769 C70 1.674 . S
C777 C308 1.658 . S
C801 C339 1.220 . S
C809 C441 1.220 . S
C833 C509 1.207 . S
C841 C373 1.206 . S
C865 C475 1.226 . S
C873 C305 1.208 . S
C897 C407 1.198 . S
C905 C543 1.220 . S
C929 C104 1.650 . S
C937 C478 1.665 . S
C961 C172 1.645 . S
C969 C410 1.670 . S
C993 C36 1.666 . S
C1001 C512 1.662 . S
C1025 C240 1.662 . S
C1033 C444 1.661 . S
C1057 C20 1.671 . S
C1065 C156 1.679 . S
C1089 C190 1.661 . S
C1097 C54 1.668 . S
C1121 C224 1.650 . S
C1129 C88 1.684 . S
C1153 C122 1.684 . S
C1161 C258 1.675 . S
C1185 C360 1.663 . S
C1193 C292 1.667 . S
C1217 C326 1.666 . S
C1225 C394 1.682 . S
C1249 C428 1.661 . S
C1257 C496 1.682 . S
C1281 C530 1.642 . S
C1289 C462 1.679 . S
C1313 C9 0.900 . S
C1321 C5 0.839 . S
C1345 C43 0.907 . S
C1353 C39 0.833 . S
C1377 C73 0.791 1_554 S
C1385 C77 0.860 . S
C1409 C107 0.851 . S
C1417 C111 0.851 . S
C1441 C141 0.905 . S
C1449 C145 0.806 . S
C1473 C175 0.816 . S
C1481 C179 0.834 . S
C1505 C213 0.880 . S
C1513 C209 0.848 1_556 S
C1537 C247 0.753 . S
C1545 C243 0.868 . S
C1569 C277 0.871 . S
C1577 C281 0.806 . S
C1601 C311 0.900 . S
C1609 C315 0.816 . S
C1633 C349 0.754 . S
C1641 C345 0.870 . S
C1665 C383 0.907 . S
C1673 C379 0.827 . S
C1697 C417 0.822 . S
C1705 C413 0.866 1_554 S
C1729 C451 0.825 . S
C1737 C447 0.839 . S
C1761 C485 0.809 . S
C1769 C481 0.868 1_556 S
C1793 C515 0.792 . S
C1801 C519 0.863 . S
