# Generated by pormake.
# Topology snk, (6)-cn, num edge types: 1
# Building blocks:
#     Node 0, Type 0, BuildingBlock: HISSIN_clean_sbu_0, # of connection points: 6
#     Node 1, Type 0, BuildingBlock: HISSIN_clean_sbu_0, # of connection points: 6
#     Node 2, Type 0, BuildingBlock: HISSIN_clean_sbu_0, # of connection points: 6
#     Node 3, Type 0, BuildingBlock: HISSIN_clean_sbu_0, # of connection points: 6
#     Node 4, Type 0, BuildingBlock: HISSIN_clean_sbu_0, # of connection points: 6
#     Node 5, Type 0, BuildingBlock: HISSIN_clean_sbu_0, # of connection points: 6
#     Node 6, Type 0, BuildingBlock: HISSIN_clean_sbu_0, # of connection points: 6
#     Node 7, Type 0, BuildingBlock: HISSIN_clean_sbu_0, # of connection points: 6
#     Edge 8, Type (0, 0), BuildingBlock: AJUNOK_clean_linker_0, # of connection points: 2
#     Edge 9, Type (0, 0), BuildingBlock: AJUNOK_clean_linker_0, # of connection points: 2
#     Edge 10, Type (0, 0), BuildingBlock: AJUNOK_clean_linker_0, # of connection points: 2
#     Edge 11, Type (0, 0), BuildingBlock: AJUNOK_clean_linker_0, # of connection points: 2
#     Edge 12, Type (0, 0), BuildingBlock: AJUNOK_clean_linker_0, # of connection points: 2
#     Edge 13, Type (0, 0), BuildingBlock: AJUNOK_clean_linker_0, # of connection points: 2
#     Edge 14, Type (0, 0), BuildingBlock: AJUNOK_clean_linker_0, # of connection points: 2
#     Edge 15, Type (0, 0), BuildingBlock: AJUNOK_clean_linker_0, # of connection points: 2
#     Edge 16, Type (0, 0), BuildingBlock: AJUNOK_clean_linker_0, # of connection points: 2
#     Edge 17, Type (0, 0), BuildingBlock: AJUNOK_clean_linker_0, # of connection points: 2
#     Edge 18, Type (0, 0), BuildingBlock: AJUNOK_clean_linker_0, # of connection points: 2
#     Edge 19, Type (0, 0), BuildingBlock: AJUNOK_clean_linker_0, # of connection points: 2
#     Edge 20, Type (0, 0), BuildingBlock: AJUNOK_clean_linker_0, # of connection points: 2
#     Edge 21, Type (0, 0), BuildingBlock: AJUNOK_clean_linker_0, # of connection points: 2
#     Edge 22, Type (0, 0), BuildingBlock: AJUNOK_clean_linker_0, # of connection points: 2
#     Edge 23, Type (0, 0), BuildingBlock: AJUNOK_clean_linker_0, # of connection points: 2
#     Edge 24, Type (0, 0), BuildingBlock: AJUNOK_clean_linker_0, # of connection points: 2
#     Edge 25, Type (0, 0), BuildingBlock: AJUNOK_clean_linker_0, # of connection points: 2
#     Edge 26, Type (0, 0), BuildingBlock: AJUNOK_clean_linker_0, # of connection points: 2
#     Edge 27, Type (0, 0), BuildingBlock: AJUNOK_clean_linker_0, # of connection points: 2
#     Edge 28, Type (0, 0), BuildingBlock: AJUNOK_clean_linker_0, # of connection points: 2
#     Edge 29, Type (0, 0), BuildingBlock: AJUNOK_clean_linker_0, # of connection points: 2
#     Edge 30, Type (0, 0), BuildingBlock: AJUNOK_clean_linker_0, # of connection points: 2
#     Edge 31, Type (0, 0), BuildingBlock: AJUNOK_clean_linker_0, # of connection points: 2
# Relax obj value: 0.104
# Max RMSD: 0.188
# Mean RMSD: 0.151
data_MOF--net-snk--node1-HISSIN_clean_sbu_0--edge1-AJUNOK_clean_linker_0
_symmetry_space_group_name_H-M    P1
_symmetry_Int_Tables_number       1
_symmetry_cell_setting            triclinic
loop_
_symmetry_equiv_pos_as_xyz
'x, y, z'
_cell_length_a     27.493561
_cell_length_b     27.284683
_cell_length_c     21.581316
_cell_angle_alpha  95.793046
_cell_angle_beta   95.472317
_cell_angle_gamma 91.623199
loop_
_atom_site_label
_atom_site_type_symbol
_atom_site_fract_x
_atom_site_fract_y
_atom_site_fract_z
_atom_type_partial_charge
Eu0 Eu 0.98801 0.96717 0.44833 0.0
Eu1 Eu 0.00785 0.04009 0.58628 0.0
C2 C 0.92993 0.06554 0.4752 0.0
C3 C 0.98941 0.94874 0.26838 0.0
C4 C 0.9746 0.99561 0.25368 0.0
C5 C 0.01337 0.93257 0.1621 0.0
C6 C 0.97789 0.01012 0.19337 0.0
C7 C 0.00987 0.918 0.22222 0.0
C8 C 0.99613 0.97823 0.14625 0.0
C9 C 0.98191 0.93029 0.33004 0.0
O10 O 0.95354 0.97757 0.59586 0.0
O11 O 0.942 0.92217 0.50726 0.0
C12 C 0.93332 0.93649 0.56564 0.0
O13 O 0.0354 0.92465 0.51453 0.0
O14 O 0.977 0.08088 0.66576 0.0
O15 O 0.05209 0.05899 0.67583 0.0
O16 O 0.0713 0.99196 0.57469 0.0
C17 C 0.06817 0.94442 0.5593 0.0
O18 O 0.04084 0.03039 0.43828 0.0
O19 O 0.05208 0.08626 0.52624 0.0
O20 O 0.96178 0.08402 0.52158 0.0
O21 O 0.02055 0.92739 0.36948 0.0
O22 O 0.94464 0.94634 0.35837 0.0
O23 O 0.92616 0.01824 0.45708 0.0
C24 C 0.00769 0.05779 0.7661 0.0
C25 C 0.02443 0.01189 0.78216 0.0
C26 C 0.98163 0.07382 0.87108 0.0
C27 C 0.02059 0.99763 0.84245 0.0
C28 C 0.98539 0.08797 0.81096 0.0
C29 C -0.00034 0.02872 0.88799 0.0
C30 C 0.01557 0.07625 0.70468 0.0
C31 C 0.06032 0.07199 0.46763 0.0
H32 H 0.95955 0.02068 0.28843 0.0
H33 H 0.028 0.90723 0.12726 0.0
H34 H 0.96568 0.04616 0.18341 0.0
H35 H 0.02205 0.88196 0.23218 0.0
H36 H 0.04139 0.98742 0.74855 0.0
H37 H 0.96601 0.09914 0.90502 0.0
H38 H 0.03431 0.96241 0.85358 0.0
H39 H 0.9721 0.12341 0.80007 0.0
Eu40 Eu 0.28039 0.75002 0.69556 0.0
Eu41 Eu 0.22239 0.76722 0.83609 0.0
C42 C 0.18822 0.67856 0.73472 0.0
C43 C 0.28729 0.74265 0.5222 0.0
C44 C 0.23975 0.72986 0.49387 0.0
C45 C 0.30856 0.77415 0.42749 0.0
C46 C 0.22781 0.73676 0.4314 0.0
C47 C 0.32062 0.76707 0.48973 0.0
C48 C 0.26312 0.75653 0.39751 0.0
C49 C 0.30433 0.7279 0.58346 0.0
O50 O 0.2798 0.71255 0.85276 0.0
O51 O 0.32301 0.70529 0.7644 0.0
C52 C 0.31553 0.69525 0.82161 0.0
O53 O 0.33364 0.80921 0.74113 0.0
O54 O 0.17411 0.77241 0.91085 0.0
O55 O 0.24545 0.81192 0.92316 0.0
O56 O 0.26667 0.81328 0.78427 0.0
C57 C 0.31275 0.82508 0.7895 0.0
O58 O 0.21673 0.80053 0.6798 0.0
O59 O 0.17681 0.81215 0.77167 0.0
O60 O 0.17889 0.70108 0.78893 0.0
O61 O 0.32763 0.76193 0.62274 0.0
O62 O 0.27416 0.70075 0.6096 0.0
O63 O 0.2226 0.6932 0.70199 0.0
C64 C 0.22046 0.77483 1.00951 0.0
C65 C 0.26728 0.78349 0.04193 0.0
C66 C 0.19328 0.73644 0.09711 0.0
C67 C 0.27606 0.7712 0.10263 0.0
C68 C 0.18437 0.74876 0.03621 0.0
C69 C 0.23826 0.75023 0.13122 0.0
C70 C 0.20832 0.79587 0.95024 0.0
C71 C 0.18184 0.81884 0.71258 0.0
H72 H 0.2128 0.71222 0.51862 0.0
H73 H 0.33585 0.7902 0.40172 0.0
H74 H 0.19213 0.72427 0.40862 0.0
H75 H 0.357 0.77805 0.51141 0.0
H76 H 0.29629 0.80241 0.02207 0.0
H77 H 0.16398 0.71979 0.11905 0.0
H78 H 0.3112 0.78117 0.12877 0.0
H79 H 0.14838 0.74071 1.01162 0.0
Eu80 Eu 0.50226 0.96949 0.08582 0.0
Eu81 Eu 0.48253 0.03681 0.94119 0.0
C82 C 0.54998 0.07131 0.03978 0.0
C83 C 0.51722 0.97091 0.25849 0.0
C84 C 0.5345 0.01524 0.29326 0.0
C85 C 0.47291 0.94994 0.34408 0.0
C86 C 0.52376 0.02509 0.35464 0.0
C87 C 0.48448 0.93949 0.28325 0.0
C88 C 0.49528 0.99096 0.38128 0.0
C89 C 0.53479 0.95601 0.19794 0.0
O90 O 0.54249 0.98171 0.92968 0.0
O91 O 0.55177 0.93481 0.01624 0.0
C92 C 0.56215 0.94576 0.96005 0.0
O93 O 0.43916 0.91848 0.04349 0.0
O94 O 0.47725 0.08343 0.86573 0.0
O95 O 0.43485 0.01342 0.85694 0.0
O96 O 0.45228 0.97751 0.98926 0.0
C97 C 0.42585 0.93817 0.99277 0.0
O98 O 0.44746 0.02972 0.10106 0.0
O99 O 0.43564 0.07417 1.01143 0.0
O100 O 0.54244 0.09035 0.98732 0.0
O101 O 0.50684 0.92341 0.16119 0.0
O102 O 0.55282 0.99098 0.16854 0.0
O103 O 0.5224 0.03256 0.03952 0.0
C104 C 0.4723 0.03442 0.76898 0.0
C105 C 0.45814 0.98868 0.7356 0.0
C106 C 0.51857 0.0549 0.68472 0.0
C107 C 0.47148 0.97748 0.67569 0.0
C108 C 0.50432 0.06663 0.74428 0.0
C109 C 0.50026 0.01128 0.64894 0.0
C110 C 0.45208 0.04918 0.82806 0.0
C111 C 0.42857 0.06549 0.06957 0.0
H112 H 0.55874 0.04076 0.27458 0.0
H113 H 0.44905 0.92429 0.3632 0.0
H114 H 0.54088 0.05737 0.38247 0.0
H115 H 0.46952 0.90567 0.25681 0.0
H116 H 0.43416 0.96274 0.754 0.0
H117 H 0.54136 0.08129 0.66518 0.0
H118 H 0.45578 0.94418 0.64885 0.0
H119 H 0.51661 0.10177 0.76965 0.0
Eu120 Eu 0.28159 0.26381 0.33476 0.0
Eu121 Eu 0.21135 0.24363 0.19485 0.0
C122 C 0.18412 0.32222 0.30655 0.0
C123 C 0.30245 0.263 0.5141 0.0
C124 C 0.2567 0.27958 0.53002 0.0
C125 C 0.31806 0.23731 0.61935 0.0
C126 C 0.24261 0.27652 0.59059 0.0
C127 C 0.33241 0.24095 0.55915 0.0
C128 C 0.2736 0.25622 0.63626 0.0
C129 C 0.32016 0.26928 0.45178 0.0
O130 O 0.27141 0.30036 0.18422 0.0
O131 O 0.32746 0.30631 0.27203 0.0
C132 C 0.31358 0.31673 0.21423 0.0
O133 O 0.32611 0.21711 0.27071 0.0
O134 O 0.17043 0.27429 0.11575 0.0
O135 O 0.19267 0.19885 0.10511 0.0
O136 O 0.26235 0.18181 0.20337 0.0
C137 C 0.30873 0.185 0.22388 0.0
O138 O 0.21711 0.21247 0.3472 0.0
O139 O 0.16781 0.19577 0.25381 0.0
O140 O 0.16661 0.28929 0.26042 0.0
O141 O 0.32017 0.22972 0.41234 0.0
O142 O 0.30592 0.30755 0.42388 0.0
O143 O 0.23054 0.32608 0.3274 0.0
C144 C 0.1939 0.24363 1.01506 0.0
C145 C 0.23917 0.22603 0.99847 0.0
C146 C 0.17915 0.2713 0.91081 0.0
C147 C 0.25344 0.2297 0.93815 0.0
C148 C 0.16463 0.26715 0.97078 0.0
C149 C 0.22319 0.25169 0.89341 0.0
C150 C 0.17537 0.23552 0.0765 0.0
C151 C 0.17825 0.19056 0.31417 0.0
H152 H 0.23225 0.29582 0.49607 0.0
H153 H 0.34246 0.22111 0.6534 0.0
H154 H 0.20769 0.29046 0.60199 0.0
H155 H 0.36753 0.22733 0.54813 0.0
H156 H 0.26305 0.20836 0.0316 0.0
H157 H 0.15519 0.28858 0.87731 0.0
H158 H 0.28795 0.215 0.92625 0.0
H159 H 0.12979 0.2813 0.9821 0.0
Eu160 Eu 0.78939 0.24805 0.19629 0.0
Eu161 Eu 0.71794 0.25638 0.33168 0.0
C162 C 0.68846 0.17791 0.21808 0.0
C163 C 0.80061 0.24697 0.02434 0.0
C164 C 0.75132 0.23819 1.00079 0.0
C165 C 0.81982 0.27165 0.92556 0.0
C166 C 0.73686 0.24429 0.93842 0.0
C167 C 0.83395 0.266 0.98751 0.0
C168 C 0.77152 0.25969 0.90004 0.0
C169 C 0.81949 0.23577 0.08632 0.0
O170 O 0.77622 0.20073 0.3463 0.0
O171 O 0.82774 0.20063 0.26467 0.0
C172 C 0.81515 0.18679 0.3182 0.0
O173 O 0.84178 0.30412 0.25058 0.0
O174 O 0.6727 0.24263 0.40497 0.0
O175 O 0.72571 0.30547 0.41831 0.0
O176 O 0.78188 0.28272 0.29611 0.0
C177 C 0.81878 0.31268 0.29917 0.0
O178 O 0.72959 0.30349 0.18593 0.0
O179 O 0.67979 0.30709 0.26872 0.0
O180 O 0.6752 0.19623 0.27231 0.0
O181 O 0.83217 0.27404 0.12616 0.0
O182 O 0.7968 0.20087 0.11054 0.0
O183 O 0.72607 0.19495 0.19264 0.0
C184 C 0.7118 0.26274 0.50598 0.0
C185 C 0.76055 0.2694 0.53245 0.0
C186 C 0.68791 0.23811 0.60333 0.0
C187 C 0.77233 0.2627 0.59511 0.0
C188 C 0.6763 0.24432 0.54067 0.0
C189 C 0.73538 0.25005 0.63179 0.0
C190 C 0.69575 0.2773 0.44418 0.0
C191 C 0.69169 0.31993 0.21446 0.0
H192 H 0.72455 0.22558 0.02988 0.0
H193 H 0.84764 0.28271 0.89695 0.0
H194 H 0.69921 0.23583 0.91979 0.0
H195 H 0.87173 0.27409 1.00584 0.0
H196 H 0.78912 0.28164 0.50605 0.0
H197 H 0.65892 0.2273 0.63038 0.0
H198 H 0.80973 0.2697 0.61559 0.0
H199 H 0.63881 0.23764 0.52033 0.0
Eu200 Eu 0.78247 0.7604 0.83566 0.0
Eu201 Eu 0.71201 0.74311 0.69593 0.0
C202 C 0.68555 0.82291 0.80983 0.0
C203 C 0.80505 0.75818 1.01429 0.0
C204 C 0.7569 0.76874 0.02662 0.0
C205 C 0.82207 0.74058 0.12289 0.0
C206 C 0.7417 0.76593 0.08661 0.0
C207 C 0.83706 0.74303 0.06279 0.0
C208 C 0.77449 0.7531 0.1362 0.0
C209 C 0.82274 0.76407 0.95198 0.0
O210 O 0.77601 0.79418 0.68261 0.0
O211 O 0.8236 0.81156 0.77702 0.0
C212 C 0.81369 0.81716 0.71659 0.0
O213 O 0.82766 0.71748 0.76852 0.0
O214 O 0.67387 0.77723 0.6181 0.0
O215 O 0.68814 0.6995 0.60651 0.0
O216 O 0.76389 0.68086 0.70166 0.0
C217 C 0.81037 0.68457 0.72245 0.0
O218 O 0.7212 0.70314 0.84428 0.0
O219 O 0.6655 0.69911 0.75624 0.0
O220 O 0.66946 0.7942 0.75875 0.0
O221 O 0.82126 0.72476 0.91193 0.0
O222 O 0.80888 0.80273 0.92491 0.0
O223 O 0.72918 0.82047 0.83896 0.0
C224 C 0.69161 0.74401 0.51645 0.0
C225 C 0.73883 0.73118 0.50201 0.0
C226 C 0.67392 0.7652 0.40962 0.0
C227 C 0.75326 0.73513 0.44175 0.0
C228 C 0.65989 0.762 0.46989 0.0
C229 C 0.72083 0.75185 0.39433 0.0
C230 C 0.67391 0.73773 0.57866 0.0
C231 C 0.67892 0.68718 0.81344 0.0
H232 H 0.73123 0.77979 0.98994 0.0
H233 H 0.8484 0.73032 0.15948 0.0
H234 H 0.70424 0.77397 0.09405 0.0
H235 H 0.87421 0.73418 0.05457 0.0
H236 H 0.7644 0.71765 0.5371 0.0
H237 H 0.647 0.77651 0.37453 0.0
H238 H 0.78984 0.72493 0.43233 0.0
H239 H 0.62339 0.77226 0.47961 0.0
Eu240 Eu 0.49359 0.46203 0.94453 0.0
Eu241 Eu 0.50402 0.53449 0.08214 0.0
C242 C 0.43333 0.56276 0.96408 0.0
C243 C 0.49775 0.44116 0.76566 0.0
C244 C 0.49572 0.49157 0.75709 0.0
C245 C 0.50672 0.42355 0.65411 0.0
C246 C 0.49698 0.50752 0.69713 0.0
C247 C 0.50465 0.40763 0.71375 0.0
C248 C 0.50142 0.4735 0.64442 0.0
C249 C 0.4916 0.42268 0.82752 0.0
O250 O 0.44598 0.47419 0.08885 0.0
O251 O 0.44718 0.41617 1.00319 0.0
C252 C 0.43184 0.43106 0.05833 0.0
O253 O 0.53779 0.41891 1.01287 0.0
O254 O 0.46967 0.57254 0.16053 0.0
O255 O 0.54695 0.55936 0.17133 0.0
O256 O 0.56794 0.48485 0.08189 0.0
C257 C 0.56828 0.43835 0.06023 0.0
O258 O 0.55299 0.5208 0.93846 0.0
O259 O 0.54602 0.58135 0.01966 0.0
O260 O 0.45941 0.57968 0.01669 0.0
O261 O 0.5302 0.42462 0.86793 0.0
O262 O 0.45265 0.43559 0.85441 0.0
O263 O 0.43377 0.5165 0.94079 0.0
C264 C 0.50381 0.55643 0.26248 0.0
C265 C 0.51512 0.50848 0.27655 0.0
C266 C 0.48738 0.57646 0.37121 0.0
C267 C 0.51229 0.49469 0.33738 0.0
C268 C 0.48911 0.58975 0.31032 0.0
C269 C 0.49863 0.52861 0.38609 0.0
C270 C 0.50903 0.57349 0.19959 0.0
C271 C 0.56332 0.56565 0.96594 0.0
H272 H 0.49278 0.51856 0.79672 0.0
H273 H 0.5108 0.39627 0.61505 0.0
H274 H 0.49471 0.54652 0.69218 0.0
H275 H 0.5074 0.36873 0.71906 0.0
H276 H 0.52647 0.48177 0.24065 0.0
H277 H 0.47898 0.60478 0.40692 0.0
H278 H 0.5209 0.45736 0.34608 0.0
H279 H 0.48043 0.62696 0.30108 0.0
Eu280 Eu 0.00561 0.46808 0.58546 0.0
Eu281 Eu 0.99598 0.5437 0.44789 0.0
C282 C 0.0594 0.56861 0.55231 0.0
C283 C 0.01539 0.46408 0.75825 0.0
C284 C 0.01907 0.51239 0.78759 0.0
C285 C 0.98778 0.43498 0.851 0.0
C286 C 0.00756 0.52196 0.84863 0.0
C287 C 0.99669 0.42604 0.78887 0.0
C288 C 0.99506 0.48281 0.88223 0.0
C289 C 0.03407 0.45184 0.6979 0.0
O290 O 0.04603 0.47983 0.43387 0.0
O291 O 0.05567 0.43187 0.51898 0.0
C292 C 0.06484 0.44292 0.46272 0.0
O293 O 0.94471 0.42058 0.53573 0.0
O294 O 0.01956 0.58655 0.37678 0.0
O295 O 0.94821 0.54761 0.36179 0.0
O296 O 0.9556 0.47666 0.46986 0.0
C297 C 0.93184 0.43736 0.48254 0.0
O298 O 0.94677 0.52449 0.5966 0.0
O299 O 0.94713 0.57905 0.51727 0.0
O300 O 0.05472 0.59321 0.50458 0.0
O301 O 0.00691 0.42001 0.65895 0.0
O302 O 0.05257 0.4883 0.67135 0.0
O303 O 0.03072 0.53015 0.54336 0.0
C304 C 0.99409 0.5535 0.27512 0.0
C305 C 0.00128 0.50342 0.25735 0.0
C306 C 0.00484 0.57253 0.17092 0.0
C307 C 0.00537 0.48741 0.1945 0.0
C308 C -0.00097 0.58804 0.23274 0.0
C309 C 0.00523 0.522 0.15059 0.0
C310 C 0.98199 0.57185 0.33724 0.0
C311 C 0.93241 0.56429 0.56967 0.0
H312 H 0.03325 0.54224 0.76473 0.0
H313 H 0.97947 0.40343 0.87516 0.0
H314 H 0.01187 0.55948 0.87078 0.0
H315 H 0.99289 0.38856 0.76648 0.0
H316 H 0.0023 0.47685 0.29139 0.0
H317 H 0.00619 0.60009 0.1383 0.0
H318 H 0.00814 0.44845 0.18017 0.0
H319 H 0.9964 0.62705 0.24693 0.0
C320 C 0.10736 0.15157 0.44882 0.0
C321 C 0.09106 0.10246 0.42916 0.0
C322 C 0.13437 0.1795 0.41067 0.0
C323 C 0.14532 0.16065 0.35005 0.0
H324 H 0.09944 0.16863 0.49408 0.0
H325 H 0.14715 0.21643 0.42925 0.0
S326 S 0.11609 0.03228 0.2785 0.0
N327 N 0.09261 0.03497 0.34614 0.0
N328 N 0.14027 0.08791 0.27472 0.0
C329 C 0.12967 0.11155 0.33005 0.0
C330 C 0.10348 0.08263 0.3694 0.0
C331 C 0.08977 0.86161 0.59185 0.0
C332 C 0.09873 0.91301 0.59857 0.0
C333 C 0.11495 0.83149 0.63187 0.0
C334 C 0.14928 0.85169 0.6806 0.0
H335 H 0.06306 0.84436 0.55548 0.0
H336 H 0.10825 0.79191 0.62387 0.0
S337 S 0.18915 0.98296 0.71756 0.0
N338 N 0.14715 0.98233 0.65734 0.0
N339 N 0.19288 0.92508 0.7331 0.0
C340 C 0.15885 0.90268 0.6885 0.0
C341 C 0.13401 0.93351 0.64724 0.0
C342 C 0.31937 0.89168 0.87739 0.0
C343 C 0.33962 0.85131 0.8447 0.0
C344 C 0.3481 0.92144 0.9246 0.0
C345 C 0.39714 0.91082 0.93999 0.0
H346 H 0.2819 0.90114 0.86507 0.0
H347 H 0.33198 0.95247 0.94938 0.0
S348 S 0.46646 0.8104 0.8671 0.0
N349 N 0.41089 0.80248 0.83061 0.0
N350 N 0.46481 0.85877 0.91913 0.0
C351 C 0.41738 0.87067 0.90781 0.0
C352 C 0.38845 0.8406 0.86016 0.0
C353 C 0.34971 0.08411 0.10974 0.0
C354 C 0.39806 0.0989 0.10427 0.0
C355 C 0.32181 0.11132 0.15069 0.0
C356 C 0.34162 0.15386 0.18818 0.0
H357 H 0.33366 0.05086 0.08295 0.0
H358 H 0.28432 0.09883 0.15291 0.0
S359 S 0.46783 0.20676 0.19102 0.0
N360 N 0.46529 0.15813 0.13839 0.0
N361 N 0.41338 0.20872 0.21751 0.0
C362 C 0.39047 0.16858 0.18346 0.0
C363 C 0.41854 0.14131 0.14066 0.0
C364 C 0.88749 0.85634 0.58453 0.0
C365 C 0.90107 0.90635 0.60263 0.0
C366 C 0.85991 0.82846 0.62211 0.0
C367 C 0.84634 0.848 0.68121 0.0
H368 H 0.89807 0.83848 0.54099 0.0
H369 H 0.84879 0.7909 0.6043 0.0
S370 S 0.8636 0.97987 0.74426 0.0
N371 N 0.89097 0.97621 0.67933 0.0
N372 N 0.84299 0.92329 0.75075 0.0
C373 C 0.85812 0.89841 0.6987 0.0
C374 C 0.88451 0.92736 0.65944 0.0
C375 C 0.85934 0.07815 0.39768 0.0
C376 C 0.90044 0.09816 0.43722 0.0
C377 C 0.83331 0.10656 0.35643 0.0
C378 C 0.84797 0.15559 0.35254 0.0
H379 H 0.84688 0.04025 0.39879 0.0
H380 H 0.80095 0.09041 0.32829 0.0
S381 S 0.95309 0.22557 0.44415 0.0
N382 N 0.95455 0.1703 0.46906 0.0
N383 N 0.90589 0.2234 0.39029 0.0
C384 C 0.88926 0.17604 0.39063 0.0
C385 C 0.91536 0.14741 0.43352 0.0
C386 C 0.61291 0.12315 0.19567 0.0
C387 C 0.65764 0.14023 0.17762 0.0
C388 C 0.57845 0.09718 0.15143 0.0
C389 C 0.5881 0.08848 0.08861 0.0
H390 H 0.60319 0.13246 0.24278 0.0
H391 H 0.54295 0.08728 0.16532 0.0
S392 S 0.7015 0.11724 0.01921 0.0
N393 N 0.71203 0.13823 0.09367 0.0
N394 N 0.64549 0.09307 1.01141 0.0
C395 C 0.63353 0.10158 0.07121 0.0
C396 C 0.66902 0.12634 0.11577 0.0
C397 C 0.64187 0.90099 0.83244 0.0
C398 C 0.65147 0.85265 0.84483 0.0
C399 C 0.61473 0.9312 0.87179 0.0
C400 C 0.59619 0.91429 0.9251 0.0
H401 H 0.65601 0.91579 0.79273 0.0
H402 H 0.60802 0.96818 0.85982 0.0
S403 S 0.61813 0.79137 0.98078 0.0
N404 N 0.64518 0.79017 0.91567 0.0
N405 N 0.59404 0.84614 0.99018 0.0
C406 C 0.60775 0.86629 0.93915 0.0
C407 C 0.63525 0.83572 0.89872 0.0
C408 C 0.63827 0.58356 0.90939 0.0
C409 C 0.59355 0.599 0.93078 0.0
C410 C 0.66457 0.61135 0.87031 0.0
C411 C 0.64642 0.65474 0.84733 0.0
H412 H 0.65344 0.54973 0.92352 0.0
H413 H 0.69961 0.59855 0.85777 0.0
S414 S 0.52765 0.70733 0.88201 0.0
N415 N 0.53118 0.65936 0.92277 0.0
N416 N 0.57794 0.70907 0.84583 0.0
C417 C 0.60051 0.66917 0.86589 0.0
C418 C 0.57488 0.64206 0.90816 0.0
C419 C 0.67995 0.38257 0.13811 0.0
C420 C 0.65966 0.35299 0.17982 0.0
C421 C 0.65028 0.40936 0.0981 0.0
C422 C 0.59922 0.40669 0.0975 0.0
H423 H 0.71916 0.38478 0.13597 0.0
H424 H 0.66735 0.43213 0.06733 0.0
S425 S 0.52784 0.34061 0.20199 0.0
N426 N 0.58498 0.3266 0.22134 0.0
N427 N 0.52989 0.37717 0.14578 0.0
C428 C 0.57861 0.37916 0.14037 0.0
C429 C 0.60862 0.35233 0.18178 0.0
C430 C 0.86283 0.37612 0.45531 0.0
C431 C 0.89432 0.41227 0.43703 0.0
C432 C 0.83333 0.34547 0.41026 0.0
C433 C 0.83282 0.35253 0.34705 0.0
H434 H 0.86401 0.36873 0.50379 0.0
H435 H 0.81558 0.31317 0.4239 0.0
S436 S 0.90288 0.44399 0.27523 0.0
N437 N 0.92225 0.45239 0.35042 0.0
N438 N 0.85899 0.40132 0.26844 0.0
C439 C 0.85882 0.39225 0.32924 0.0
C440 C 0.89187 0.42054 0.37367 0.0
C441 C 0.83437 0.60314 0.67388 0.0
C442 C 0.84403 0.6541 0.6874 0.0
C443 C 0.86248 0.5745 0.63425 0.0
C444 C 0.89983 0.59618 0.60474 0.0
H445 H 0.80498 0.58529 0.69431 0.0
H446 H 0.85482 0.53506 0.62643 0.0
S447 S 0.93889 0.72851 0.6244 0.0
N448 N 0.89425 0.72493 0.67001 0.0
N449 N 0.9445 0.67199 0.59109 0.0
C450 C 0.90905 0.64738 0.61671 0.0
C451 C 0.88192 0.67607 0.65942 0.0
C452 C 0.38907 0.32977 0.15627 0.0
C453 C 0.34529 0.34751 0.17798 0.0
C454 C 0.41449 0.35421 0.113 0.0
C455 C 0.39875 0.3989 0.0914 0.0
H456 H 0.40297 0.29578 0.1711 0.0
H457 H 0.44712 0.3382 0.09695 0.0
S458 S 0.28225 0.4569 0.12553 0.0
N459 N 0.28392 0.40894 0.16658 0.0
N460 N 0.33324 0.45666 0.09066 0.0
C461 C 0.35423 0.41607 0.11131 0.0
C462 C 0.32736 0.39011 0.15307 0.0
C463 C 0.38741 0.64085 0.9556 0.0
C464 C 0.40385 0.59665 0.92698 0.0
C465 C 0.35993 0.67292 0.92049 0.0
C466 C 0.34884 0.6628 0.85516 0.0
H467 H 0.39502 0.65035 1.00561 0.0
H468 H 0.34703 0.70599 0.94488 0.0
S469 S 0.38385 0.55243 0.75719 0.0
N470 N 0.40657 0.54443 0.82888 0.0
N471 N 0.35702 0.60585 0.7631 0.0
C472 C 0.36608 0.6195 0.82559 0.0
C473 C 0.39287 0.58612 0.86151 0.0
C474 C 0.17394 0.61181 0.64834 0.0
C475 C 0.15649 0.63814 0.70113 0.0
C476 C 0.14206 0.58604 0.60178 0.0
C477 C 0.09211 0.58355 0.60788 0.0
H478 H 0.21214 0.61444 0.63999 0.0
H479 H 0.15623 0.57033 0.55923 0.0
S480 S 0.02788 0.64004 0.73828 0.0
N481 N 0.086 0.65654 0.7581 0.0
N482 N 0.02615 0.60466 0.67124 0.0
C483 C 0.0744 0.60492 0.66258 0.0
C484 C 0.10675 0.6328 0.70952 0.0
C485 C 0.12594 0.33149 0.38796 0.0
C486 C 0.15091 0.35238 0.34242 0.0
C487 C 0.09983 0.36092 0.42972 0.0
C488 C 0.09791 0.41212 0.42664 0.0
H489 H 0.12714 0.29231 0.39171 0.0
H490 H 0.08009 0.34338 0.46314 0.0
S491 S 0.16008 0.48471 0.31914 0.0
N492 N 0.1738 0.42714 0.29875 0.0
N493 N 0.12613 0.48252 0.37774 0.0
C494 C 0.12418 0.43325 0.38266 0.0
C495 C 0.15025 0.4034 0.34024 0.0
C496 C 0.03905 0.99673 0.98612 0.0
C497 C 0.99774 0.01502 0.95333 0.0
C498 C 0.03829 0.98525 0.04824 0.0
C499 C 0.99627 0.99169 0.08045 0.0
H500 H 0.07256 0.99197 0.96395 0.0
H501 H 0.07115 0.97176 0.07153 0.0
S502 S 0.87691 0.0339 1.0134 0.0
N503 N 0.91267 0.03576 0.95642 0.0
N504 N 0.91114 0.01472 0.07269 0.0
C505 C 0.95446 0.00919 0.04773 0.0
C506 C 0.95523 0.02067 0.98447 0.0
C507 C 0.25703 0.79767 0.30084 0.0
C508 C 0.25471 0.75412 0.32972 0.0
C509 C 0.25127 0.7959 0.23594 0.0
C510 C 0.24341 0.75055 0.19876 0.0
H511 H 0.26334 0.83307 0.32857 0.0
H512 H 0.25297 0.83012 0.21458 0.0
S513 S 0.23761 0.62634 0.25178 0.0
N514 N 0.24617 0.66434 0.31691 0.0
N515 N 0.23505 0.66162 0.19383 0.0
C516 C 0.24118 0.70686 0.22683 0.0
C517 C 0.24704 0.70849 0.29289 0.0
C518 C 0.49289 0.04582 0.54729 0.0
C519 C 0.50318 0.00531 0.58118 0.0
C520 C 0.48902 0.0406 0.48235 0.0
C521 C 0.49514 0.99471 0.44922 0.0
H522 H 0.48609 0.08156 0.5709 0.0
H523 H 0.48075 0.0726 0.45788 0.0
S524 S 0.5248 0.87757 0.51546 0.0
N525 N 0.52093 0.91804 0.5769 0.0
N526 N 0.51407 0.9084 0.45401 0.0
C527 C 0.50604 0.95393 0.48224 0.0
C528 C 0.51003 0.9592 0.5485 0.0
C529 C 0.24496 0.20979 0.7906 0.0
C530 C 0.23688 0.25346 0.82835 0.0
C531 C 0.25656 0.21092 0.72852 0.0
C532 C 0.26041 0.25574 0.70184 0.0
H533 H 0.24172 0.17446 0.80897 0.0
H534 H 0.2622 0.17646 0.70101 0.0
S535 S 0.24764 0.3805 0.78353 0.0
N536 N 0.23663 0.34267 0.83605 0.0
N537 N 0.25846 0.34508 0.71991 0.0
C538 C 0.25328 0.29966 0.73963 0.0
C539 C 0.2415 0.29842 0.80267 0.0
C540 C 0.73379 0.21884 0.79779 0.0
C541 C 0.75899 0.25977 0.83247 0.0
C542 C 0.72672 0.21579 0.73265 0.0
C543 C 0.74487 0.2534 0.7003 0.0
H544 H 0.72083 0.18827 0.82094 0.0
H545 H 0.70773 0.18337 0.70738 0.0
S546 S 0.80966 0.37018 0.77116 0.0
N547 N 0.79875 0.34008 0.83112 0.0
N548 N 0.78667 0.33433 0.7083 0.0
C549 C 0.76917 0.29512 0.73477 0.0
C550 C 0.77579 0.29832 0.80101 0.0
C551 C 0.76265 0.71616 0.3011 0.0
C552 C 0.73501 0.75369 0.32884 0.0
C553 C 0.77486 0.71615 0.2392 0.0
C554 C 0.7599 0.75353 0.20174 0.0
H555 H 0.77424 0.6858 0.32691 0.0
H556 H 0.79562 0.68599 0.22026 0.0
S557 S 0.69011 0.86265 0.2532 0.0
N558 N 0.69575 0.83113 0.31463 0.0
N559 N 0.71776 0.83068 0.19868 0.0
C560 C 0.73271 0.79165 0.22909 0.0
C561 C 0.7206 0.79184 0.2923 0.0
C562 C 0.53366 0.47016 0.53826 0.0
C563 C 0.50037 0.48928 0.57942 0.0
C564 C 0.53269 0.4828 0.4765 0.0
C565 C 0.49795 0.51485 0.45221 0.0
H566 H 0.56137 0.44558 0.55417 0.0
H567 H 0.56018 0.46781 0.44802 0.0
S568 S 0.39986 0.57241 0.53922 0.0
N569 N 0.43036 0.54089 0.59054 0.0
N570 N 0.4272 0.56307 0.47448 0.0
C571 C 0.46379 0.53361 0.49273 0.0
C572 C 0.46532 0.52131 0.55605 0.0
C573 C 0.03299 0.52346 0.98422 0.0
C574 C 0.99667 0.49105 0.95084 0.0
C575 C 0.03649 0.53146 0.04904 0.0
C576 C 0.00441 0.50685 0.0832 0.0
H577 H 0.05951 0.54257 0.96037 0.0
H578 H 0.06446 0.55744 0.07271 0.0
S579 S 0.90453 0.41609 0.01806 0.0
N580 N 0.92833 0.43378 0.95634 0.0
N581 N 0.93636 0.44683 0.07939 0.0
C582 C 0.96895 0.4729 0.05081 0.0
C583 C 0.96473 0.46556 0.98431 0.0
loop_
_geom_bond_atom_site_label_1
_geom_bond_atom_site_label_2
_geom_bond_distance
_geom_bond_site_symmetry_2
_ccdc_geom_bond_type
Eu0 C9 2.828 1_655 S
Eu0 O11 2.392 . S
Eu0 O13 2.418 1_655 S
Eu0 O18 2.373 1_665 S
Eu0 O21 2.488 1_655 S
Eu0 O22 2.471 . S
Eu0 O23 2.349 1_565 S
Eu1 O10 2.373 1_445 S
Eu1 O14 2.488 1_455 S
Eu1 O15 2.471 . S
Eu1 O16 2.349 1_545 S
Eu1 O19 2.392 . S
Eu1 O20 2.418 1_455 S
Eu1 C30 2.828 1_455 S
C2 O20 1.244 . S
C2 O23 1.265 . S
C3 C4 1.379 1_455 S
C3 C7 1.373 . S
C3 C9 1.505 . S
C4 C3 1.379 1_655 S
C4 C6 1.369 1_655 S
C4 H32 0.930 1_565 S
C5 C7 1.383 . S
C5 C8 1.382 . S
C5 H33 0.930 . S
C6 C4 1.369 1_455 S
C6 C8 1.392 . S
C6 H34 0.930 1_465 S
C7 C3 1.373 . S
C7 C5 1.383 . S
C7 H35 0.931 . S
C8 C5 1.382 . S
C8 C6 1.392 . S
C9 Eu0 2.828 1_455 S
C9 C3 1.505 . S
C9 O21 1.249 . S
C9 O22 1.244 1_455 S
O10 Eu1 2.373 1_665 S
O10 C12 1.258 . S
O11 Eu0 2.392 . S
O11 C12 1.242 . S
C12 O10 1.258 . S
C12 O11 1.242 . S
O13 Eu0 2.418 1_455 S
O13 C17 1.244 . S
O14 Eu1 2.488 1_655 S
O14 C30 1.249 . S
O15 Eu1 2.471 . S
O15 C30 1.244 1_455 S
O16 Eu1 2.349 1_565 S
O16 C17 1.265 . S
C17 O13 1.244 . S
C17 O16 1.265 . S
O18 Eu0 2.373 1_445 S
O18 C31 1.258 . S
O19 Eu1 2.392 . S
O19 C31 1.242 . S
O20 Eu1 2.418 1_655 S
O20 C2 1.244 . S
O21 Eu0 2.488 1_455 S
O21 C9 1.249 . S
O22 Eu0 2.471 . S
O22 C9 1.244 1_655 S
O23 Eu0 2.349 1_545 S
O23 C2 1.265 . S
C24 C25 1.379 1_655 S
C24 C28 1.373 . S
C24 C30 1.505 . S
C25 C24 1.379 1_455 S
C25 C27 1.369 1_455 S
C25 H36 0.930 1_545 S
C26 C28 1.383 . S
C26 C29 1.382 . S
C26 H37 0.930 . S
C27 C25 1.369 1_655 S
C27 C29 1.392 . S
C27 H38 0.930 1_645 S
C28 C24 1.373 . S
C28 C26 1.383 . S
C28 H39 0.931 . S
C29 C26 1.382 . S
C29 C27 1.392 . S
C30 Eu1 2.828 1_655 S
C30 O14 1.249 . S
C30 O15 1.244 1_655 S
C30 C24 1.505 . S
C31 O18 1.258 . S
C31 O19 1.242 . S
H32 C4 0.930 1_545 S
H33 C5 0.930 . S
H34 C6 0.930 1_645 S
H35 C7 0.931 . S
H36 C25 0.930 1_565 S
H37 C26 0.930 . S
H38 C27 0.930 1_465 S
H39 C28 0.931 . S
Eu40 C49 2.828 . S
Eu40 O51 2.392 . S
Eu40 O53 2.418 . S
Eu40 O58 2.373 . S
Eu40 O61 2.488 . S
Eu40 O62 2.471 . S
Eu40 O63 2.349 . S
Eu41 O50 2.373 . S
Eu41 O54 2.488 . S
Eu41 O55 2.471 . S
Eu41 O56 2.349 . S
Eu41 O59 2.392 . S
Eu41 O60 2.418 . S
Eu41 C70 2.828 . S
C42 O60 1.244 . S
C42 O63 1.265 . S
C43 C44 1.379 . S
C43 C47 1.373 . S
C43 C49 1.505 . S
C44 C43 1.379 . S
C44 C46 1.369 . S
C44 H72 0.930 . S
C45 C47 1.383 . S
C45 C48 1.382 . S
C45 H73 0.930 . S
C46 C44 1.369 . S
C46 C48 1.392 . S
C46 H74 0.930 . S
C47 C43 1.373 . S
C47 C45 1.383 . S
C47 H75 0.931 . S
C48 C45 1.382 . S
C48 C46 1.392 . S
C49 Eu40 2.828 . S
C49 C43 1.505 . S
C49 O61 1.249 . S
C49 O62 1.244 . S
O50 Eu41 2.373 . S
O50 C52 1.258 . S
O51 Eu40 2.392 . S
O51 C52 1.242 . S
C52 O50 1.258 . S
C52 O51 1.242 . S
O53 Eu40 2.418 . S
O53 C57 1.244 . S
O54 Eu41 2.488 . S
O54 C70 1.249 . S
O55 Eu41 2.471 . S
O55 C70 1.244 . S
O56 Eu41 2.349 . S
O56 C57 1.265 . S
C57 O53 1.244 . S
C57 O56 1.265 . S
O58 Eu40 2.373 . S
O58 C71 1.258 . S
O59 Eu41 2.392 . S
O59 C71 1.242 . S
O60 Eu41 2.418 . S
O60 C42 1.244 . S
O61 Eu40 2.488 . S
O61 C49 1.249 . S
O62 Eu40 2.471 . S
O62 C49 1.244 . S
O63 Eu40 2.349 . S
O63 C42 1.265 . S
C64 C65 1.379 . S
C64 C68 1.373 . S
C64 C70 1.505 1_554 S
C65 C64 1.379 . S
C65 C67 1.369 . S
C65 H76 0.930 . S
C66 C68 1.383 . S
C66 C69 1.382 . S
C66 H77 0.930 . S
C67 C65 1.369 . S
C67 C69 1.392 . S
C67 H78 0.930 . S
C68 C64 1.373 . S
C68 C66 1.383 . S
C68 H79 0.931 1_554 S
C69 C66 1.382 . S
C69 C67 1.392 . S
C70 Eu41 2.828 . S
C70 O54 1.249 . S
C70 O55 1.244 . S
C70 C64 1.505 1_556 S
C71 O58 1.258 . S
C71 O59 1.242 . S
H72 C44 0.930 . S
H73 C45 0.930 . S
H74 C46 0.930 . S
H75 C47 0.931 . S
H76 C65 0.930 . S
H77 C66 0.930 . S
H78 C67 0.930 . S
H79 C68 0.931 1_556 S
Eu80 C89 2.828 . S
Eu80 O91 2.392 1_554 S
Eu80 O93 2.418 . S
Eu80 O98 2.373 1_565 S
Eu80 O101 2.488 . S
Eu80 O102 2.471 . S
Eu80 O103 2.349 1_565 S
Eu81 O90 2.373 1_545 S
Eu81 O94 2.488 . S
Eu81 O95 2.471 . S
Eu81 O96 2.349 1_545 S
Eu81 O99 2.392 1_556 S
Eu81 O100 2.418 . S
Eu81 C110 2.828 . S
C82 O100 1.244 1_554 S
C82 O103 1.265 . S
C83 C84 1.379 1_565 S
C83 C87 1.373 . S
C83 C89 1.505 . S
C84 C83 1.379 1_545 S
C84 C86 1.369 . S
C84 H112 0.930 . S
C85 C87 1.383 . S
C85 C88 1.382 . S
C85 H113 0.930 . S
C86 C84 1.369 . S
C86 C88 1.392 1_545 S
C86 H114 0.930 . S
C87 C83 1.373 . S
C87 C85 1.383 . S
C87 H115 0.931 . S
C88 C85 1.382 . S
C88 C86 1.392 1_565 S
C89 Eu80 2.828 . S
C89 C83 1.505 . S
C89 O101 1.249 . S
C89 O102 1.244 . S
O90 Eu81 2.373 1_565 S
O90 C92 1.258 . S
O91 Eu80 2.392 1_556 S
O91 C92 1.242 . S
C92 O90 1.258 . S
C92 O91 1.242 . S
O93 Eu80 2.418 . S
O93 C97 1.244 1_554 S
O94 Eu81 2.488 . S
O94 C110 1.249 . S
O95 Eu81 2.471 . S
O95 C110 1.244 . S
O96 Eu81 2.349 1_565 S
O96 C97 1.265 . S
C97 O93 1.244 1_556 S
C97 O96 1.265 . S
O98 Eu80 2.373 1_545 S
O98 C111 1.258 . S
O99 Eu81 2.392 1_554 S
O99 C111 1.242 . S
O100 Eu81 2.418 . S
O100 C82 1.244 1_556 S
O101 Eu80 2.488 . S
O101 C89 1.249 . S
O102 Eu80 2.471 . S
O102 C89 1.244 . S
O103 Eu80 2.349 1_545 S
O103 C82 1.265 . S
C104 C105 1.379 1_545 S
C104 C108 1.373 . S
C104 C110 1.505 . S
C105 C104 1.379 1_565 S
C105 C107 1.369 . S
C105 H116 0.930 . S
C106 C108 1.383 . S
C106 C109 1.382 . S
C106 H117 0.930 . S
C107 C105 1.369 . S
C107 C109 1.392 1_565 S
C107 H118 0.930 . S
C108 C104 1.373 . S
C108 C106 1.383 . S
C108 H119 0.931 . S
C109 C106 1.382 . S
C109 C107 1.392 1_545 S
C110 Eu81 2.828 . S
C110 O94 1.249 . S
C110 O95 1.244 . S
C110 C104 1.505 . S
C111 O98 1.258 . S
C111 O99 1.242 . S
H112 C84 0.930 . S
H113 C85 0.930 . S
H114 C86 0.930 . S
H115 C87 0.931 . S
H116 C105 0.930 . S
H117 C106 0.930 . S
H118 C107 0.930 . S
H119 C108 0.931 . S
Eu120 C129 2.828 . S
Eu120 O131 2.392 . S
Eu120 O133 2.418 . S
Eu120 O138 2.373 . S
Eu120 O141 2.488 . S
Eu120 O142 2.471 . S
Eu120 O143 2.349 . S
Eu121 O130 2.373 . S
Eu121 O134 2.488 . S
Eu121 O135 2.471 . S
Eu121 O136 2.349 . S
Eu121 O139 2.392 . S
Eu121 O140 2.418 . S
Eu121 C150 2.828 . S
C122 O140 1.244 . S
C122 O143 1.265 . S
C123 C124 1.379 . S
C123 C127 1.373 . S
C123 C129 1.505 . S
C124 C123 1.379 . S
C124 C126 1.369 . S
C124 H152 0.930 . S
C125 C127 1.383 . S
C125 C128 1.382 . S
C125 H153 0.930 . S
C126 C124 1.369 . S
C126 C128 1.392 . S
C126 H154 0.930 . S
C127 C123 1.373 . S
C127 C125 1.383 . S
C127 H155 0.931 . S
C128 C125 1.382 . S
C128 C126 1.392 . S
C129 Eu120 2.828 . S
C129 C123 1.505 . S
C129 O141 1.249 . S
C129 O142 1.244 . S
O130 Eu121 2.373 . S
O130 C132 1.258 . S
O131 Eu120 2.392 . S
O131 C132 1.242 . S
C132 O130 1.258 . S
C132 O131 1.242 . S
O133 Eu120 2.418 . S
O133 C137 1.244 . S
O134 Eu121 2.488 . S
O134 C150 1.249 . S
O135 Eu121 2.471 . S
O135 C150 1.244 . S
O136 Eu121 2.349 . S
O136 C137 1.265 . S
C137 O133 1.244 . S
C137 O136 1.265 . S
O138 Eu120 2.373 . S
O138 C151 1.258 . S
O139 Eu121 2.392 . S
O139 C151 1.242 . S
O140 Eu121 2.418 . S
O140 C122 1.244 . S
O141 Eu120 2.488 . S
O141 C129 1.249 . S
O142 Eu120 2.471 . S
O142 C129 1.244 . S
O143 Eu120 2.349 . S
O143 C122 1.265 . S
C144 C145 1.379 . S
C144 C148 1.373 . S
C144 C150 1.505 1_556 S
C145 C144 1.379 . S
C145 C147 1.369 . S
C145 H156 0.930 . S
C146 C148 1.383 . S
C146 C149 1.382 . S
C146 H157 0.930 . S
C147 C145 1.369 . S
C147 C149 1.392 . S
C147 H158 0.930 . S
C148 C144 1.373 . S
C148 C146 1.383 . S
C148 H159 0.931 . S
C149 C146 1.382 . S
C149 C147 1.392 . S
C150 Eu121 2.828 . S
C150 O134 1.249 . S
C150 O135 1.244 . S
C150 C144 1.505 1_554 S
C151 O138 1.258 . S
C151 O139 1.242 . S
H152 C124 0.930 . S
H153 C125 0.930 . S
H154 C126 0.930 . S
H155 C127 0.931 . S
H156 C145 0.930 . S
H157 C146 0.930 . S
H158 C147 0.930 . S
H159 C148 0.931 . S
Eu160 C169 2.828 . S
Eu160 O171 2.392 . S
Eu160 O173 2.418 . S
Eu160 O178 2.373 . S
Eu160 O181 2.488 . S
Eu160 O182 2.471 . S
Eu160 O183 2.349 . S
Eu161 O170 2.373 . S
Eu161 O174 2.488 . S
Eu161 O175 2.471 . S
Eu161 O176 2.349 . S
Eu161 O179 2.392 . S
Eu161 O180 2.418 . S
Eu161 C190 2.828 . S
C162 O180 1.244 . S
C162 O183 1.265 . S
C163 C164 1.379 . S
C163 C167 1.373 . S
C163 C169 1.505 1_556 S
C164 C163 1.379 . S
C164 C166 1.369 . S
C164 H192 0.930 . S
C165 C167 1.383 . S
C165 C168 1.382 . S
C165 H193 0.930 . S
C166 C164 1.369 . S
C166 C168 1.392 . S
C166 H194 0.930 . S
C167 C163 1.373 . S
C167 C165 1.383 . S
C167 H195 0.931 1_556 S
C168 C165 1.382 . S
C168 C166 1.392 . S
C169 Eu160 2.828 . S
C169 C163 1.505 1_554 S
C169 O181 1.249 . S
C169 O182 1.244 . S
O170 Eu161 2.373 . S
O170 C172 1.258 . S
O171 Eu160 2.392 . S
O171 C172 1.242 . S
C172 O170 1.258 . S
C172 O171 1.242 . S
O173 Eu160 2.418 . S
O173 C177 1.244 . S
O174 Eu161 2.488 . S
O174 C190 1.249 . S
O175 Eu161 2.471 . S
O175 C190 1.244 . S
O176 Eu161 2.349 . S
O176 C177 1.265 . S
C177 O173 1.244 . S
C177 O176 1.265 . S
O178 Eu160 2.373 . S
O178 C191 1.258 . S
O179 Eu161 2.392 . S
O179 C191 1.242 . S
O180 Eu161 2.418 . S
O180 C162 1.244 . S
O181 Eu160 2.488 . S
O181 C169 1.249 . S
O182 Eu160 2.471 . S
O182 C169 1.244 . S
O183 Eu160 2.349 . S
O183 C162 1.265 . S
C184 C185 1.379 . S
C184 C188 1.373 . S
C184 C190 1.505 . S
C185 C184 1.379 . S
C185 C187 1.369 . S
C185 H196 0.930 . S
C186 C188 1.383 . S
C186 C189 1.382 . S
C186 H197 0.930 . S
C187 C185 1.369 . S
C187 C189 1.392 . S
C187 H198 0.930 . S
C188 C184 1.373 . S
C188 C186 1.383 . S
C188 H199 0.931 . S
C189 C186 1.382 . S
C189 C187 1.392 . S
C190 Eu161 2.828 . S
C190 O174 1.249 . S
C190 O175 1.244 . S
C190 C184 1.505 . S
C191 O178 1.258 . S
C191 O179 1.242 . S
H192 C164 0.930 . S
H193 C165 0.930 . S
H194 C166 0.930 . S
H195 C167 0.931 1_554 S
H196 C185 0.930 . S
H197 C186 0.930 . S
H198 C187 0.930 . S
H199 C188 0.931 . S
Eu200 C209 2.828 . S
Eu200 O211 2.392 . S
Eu200 O213 2.418 . S
Eu200 O218 2.373 . S
Eu200 O221 2.488 . S
Eu200 O222 2.471 . S
Eu200 O223 2.349 . S
Eu201 O210 2.373 . S
Eu201 O214 2.488 . S
Eu201 O215 2.471 . S
Eu201 O216 2.349 . S
Eu201 O219 2.392 . S
Eu201 O220 2.418 . S
Eu201 C230 2.828 . S
C202 O220 1.244 . S
C202 O223 1.265 . S
C203 C204 1.379 . S
C203 C207 1.373 . S
C203 C209 1.505 1_554 S
C204 C203 1.379 . S
C204 C206 1.369 . S
C204 H232 0.930 . S
C205 C207 1.383 . S
C205 C208 1.382 . S
C205 H233 0.930 . S
C206 C204 1.369 . S
C206 C208 1.392 . S
C206 H234 0.930 . S
C207 C203 1.373 . S
C207 C205 1.383 . S
C207 H235 0.931 . S
C208 C205 1.382 . S
C208 C206 1.392 . S
C209 Eu200 2.828 . S
C209 C203 1.505 1_556 S
C209 O221 1.249 . S
C209 O222 1.244 . S
O210 Eu201 2.373 . S
O210 C212 1.258 . S
O211 Eu200 2.392 . S
O211 C212 1.242 . S
C212 O210 1.258 . S
C212 O211 1.242 . S
O213 Eu200 2.418 . S
O213 C217 1.244 . S
O214 Eu201 2.488 . S
O214 C230 1.249 . S
O215 Eu201 2.471 . S
O215 C230 1.244 . S
O216 Eu201 2.349 . S
O216 C217 1.265 . S
C217 O213 1.244 . S
C217 O216 1.265 . S
O218 Eu200 2.373 . S
O218 C231 1.258 . S
O219 Eu201 2.392 . S
O219 C231 1.242 . S
O220 Eu201 2.418 . S
O220 C202 1.244 . S
O221 Eu200 2.488 . S
O221 C209 1.249 . S
O222 Eu200 2.471 . S
O222 C209 1.244 . S
O223 Eu200 2.349 . S
O223 C202 1.265 . S
C224 C225 1.379 . S
C224 C228 1.373 . S
C224 C230 1.505 . S
C225 C224 1.379 . S
C225 C227 1.369 . S
C225 H236 0.930 . S
C226 C228 1.383 . S
C226 C229 1.382 . S
C226 H237 0.930 . S
C227 C225 1.369 . S
C227 C229 1.392 . S
C227 H238 0.930 . S
C228 C224 1.373 . S
C228 C226 1.383 . S
C228 H239 0.931 . S
C229 C226 1.382 . S
C229 C227 1.392 . S
C230 Eu201 2.828 . S
C230 O214 1.249 . S
C230 O215 1.244 . S
C230 C224 1.505 . S
C231 O218 1.258 . S
C231 O219 1.242 . S
H232 C204 0.930 . S
H233 C205 0.930 . S
H234 C206 0.930 . S
H235 C207 0.931 . S
H236 C225 0.930 . S
H237 C226 0.930 . S
H238 C227 0.930 . S
H239 C228 0.931 . S
Eu240 C249 2.828 . S
Eu240 O251 2.392 . S
Eu240 O253 2.418 . S
Eu240 O258 2.373 . S
Eu240 O261 2.488 . S
Eu240 O262 2.471 . S
Eu240 O263 2.349 . S
Eu241 O250 2.373 . S
Eu241 O254 2.488 . S
Eu241 O255 2.471 . S
Eu241 O256 2.349 . S
Eu241 O259 2.392 . S
Eu241 O260 2.418 . S
Eu241 C270 2.828 . S
C242 O260 1.244 1_556 S
C242 O263 1.265 . S
C243 C244 1.379 . S
C243 C247 1.373 . S
C243 C249 1.505 . S
C244 C243 1.379 . S
C244 C246 1.369 . S
C244 H272 0.930 . S
C245 C247 1.383 . S
C245 C248 1.382 . S
C245 H273 0.930 . S
C246 C244 1.369 . S
C246 C248 1.392 . S
C246 H274 0.930 . S
C247 C243 1.373 . S
C247 C245 1.383 . S
C247 H275 0.931 . S
C248 C245 1.382 . S
C248 C246 1.392 . S
C249 Eu240 2.828 . S
C249 C243 1.505 . S
C249 O261 1.249 . S
C249 O262 1.244 . S
O250 Eu241 2.373 . S
O250 C252 1.258 . S
O251 Eu240 2.392 . S
O251 C252 1.242 1_556 S
C252 O250 1.258 . S
C252 O251 1.242 1_554 S
O253 Eu240 2.418 . S
O253 C257 1.244 1_556 S
O254 Eu241 2.488 . S
O254 C270 1.249 . S
O255 Eu241 2.471 . S
O255 C270 1.244 . S
O256 Eu241 2.349 . S
O256 C257 1.265 . S
C257 O253 1.244 1_554 S
C257 O256 1.265 . S
O258 Eu240 2.373 . S
O258 C271 1.258 . S
O259 Eu241 2.392 . S
O259 C271 1.242 1_554 S
O260 Eu241 2.418 . S
O260 C242 1.244 1_554 S
O261 Eu240 2.488 . S
O261 C249 1.249 . S
O262 Eu240 2.471 . S
O262 C249 1.244 . S
O263 Eu240 2.349 . S
O263 C242 1.265 . S
C264 C265 1.379 . S
C264 C268 1.373 . S
C264 C270 1.505 . S
C265 C264 1.379 . S
C265 C267 1.369 . S
C265 H276 0.930 . S
C266 C268 1.383 . S
C266 C269 1.382 . S
C266 H277 0.930 . S
C267 C265 1.369 . S
C267 C269 1.392 . S
C267 H278 0.930 . S
C268 C264 1.373 . S
C268 C266 1.383 . S
C268 H279 0.931 . S
C269 C266 1.382 . S
C269 C267 1.392 . S
C270 Eu241 2.828 . S
C270 O254 1.249 . S
C270 O255 1.244 . S
C270 C264 1.505 . S
C271 O258 1.258 . S
C271 O259 1.242 1_556 S
H272 C244 0.930 . S
H273 C245 0.930 . S
H274 C246 0.930 . S
H275 C247 0.931 . S
H276 C265 0.930 . S
H277 C266 0.930 . S
H278 C267 0.930 . S
H279 C268 0.931 . S
Eu280 C289 2.828 1_455 S
Eu280 O291 2.392 . S
Eu280 O293 2.418 1_455 S
Eu280 O298 2.373 1_455 S
Eu280 O301 2.488 1_455 S
Eu280 O302 2.471 . S
Eu280 O303 2.349 . S
Eu281 O290 2.373 1_655 S
Eu281 O294 2.488 1_655 S
Eu281 O295 2.471 . S
Eu281 O296 2.349 . S
Eu281 O299 2.392 . S
Eu281 O300 2.418 1_655 S
Eu281 C310 2.828 1_655 S
C282 O300 1.244 . S
C282 O303 1.265 . S
C283 C284 1.379 1_655 S
C283 C287 1.373 . S
C283 C289 1.505 . S
C284 C283 1.379 1_455 S
C284 C286 1.369 1_455 S
C284 H312 0.930 . S
C285 C287 1.383 . S
C285 C288 1.382 . S
C285 H313 0.930 . S
C286 C284 1.369 1_655 S
C286 C288 1.392 . S
C286 H314 0.930 1_655 S
C287 C283 1.373 . S
C287 C285 1.383 . S
C287 H315 0.931 . S
C288 C285 1.382 . S
C288 C286 1.392 . S
C289 Eu280 2.828 1_655 S
C289 C283 1.505 . S
C289 O301 1.249 . S
C289 O302 1.244 1_655 S
O290 Eu281 2.373 1_455 S
O290 C292 1.258 . S
O291 Eu280 2.392 . S
O291 C292 1.242 . S
C292 O290 1.258 . S
C292 O291 1.242 . S
O293 Eu280 2.418 1_655 S
O293 C297 1.244 . S
O294 Eu281 2.488 1_455 S
O294 C310 1.249 . S
O295 Eu281 2.471 . S
O295 C310 1.244 1_655 S
O296 Eu281 2.349 . S
O296 C297 1.265 . S
C297 O293 1.244 . S
C297 O296 1.265 . S
O298 Eu280 2.373 1_655 S
O298 C311 1.258 . S
O299 Eu281 2.392 . S
O299 C311 1.242 . S
O300 Eu281 2.418 1_455 S
O300 C282 1.244 . S
O301 Eu280 2.488 1_655 S
O301 C289 1.249 . S
O302 Eu280 2.471 . S
O302 C289 1.244 1_455 S
O303 Eu280 2.349 . S
O303 C282 1.265 . S
C304 C305 1.379 1_455 S
C304 C308 1.373 . S
C304 C310 1.505 . S
C305 C304 1.379 1_655 S
C305 C307 1.369 1_655 S
C305 H316 0.930 . S
C306 C308 1.383 . S
C306 C309 1.382 . S
C306 H317 0.930 . S
C307 C305 1.369 1_455 S
C307 C309 1.392 . S
C307 H318 0.930 1_455 S
C308 C304 1.373 . S
C308 C306 1.383 . S
C308 H319 0.931 . S
C309 C306 1.382 . S
C309 C307 1.392 . S
C310 Eu281 2.828 1_455 S
C310 O294 1.249 . S
C310 O295 1.244 1_455 S
C310 C304 1.505 . S
C311 O298 1.258 . S
C311 O299 1.242 . S
H312 C284 0.930 . S
H313 C285 0.930 . S
H314 C286 0.930 1_455 S
H315 C287 0.931 . S
H316 C305 0.930 . S
H317 C306 0.930 . S
H318 C307 0.930 1_655 S
H319 C308 0.931 . S
C320 C321 1.369 . S
C320 C322 1.419 . S
C320 H324 0.930 . S
C321 C320 1.369 . S
C321 C330 1.429 . S
C322 C320 1.419 . S
C322 C323 1.363 . S
C322 H325 0.929 . S
C323 C322 1.363 . S
C323 C329 1.428 . S
H324 C320 0.930 . S
H325 C322 0.929 . S
S326 N327 1.613 . S
S326 N328 1.610 . S
N327 S326 1.613 . S
N327 C330 1.350 . S
N328 S326 1.610 . S
N328 C329 1.351 . S
C329 C323 1.428 . S
C329 N328 1.351 . S
C329 C330 1.434 . S
C330 C321 1.429 . S
C330 N327 1.350 . S
C330 C329 1.434 . S
C331 C332 1.369 . S
C331 C333 1.419 . S
C331 H335 0.930 . S
C332 C331 1.369 . S
C332 C341 1.429 . S
C333 C331 1.419 . S
C333 C334 1.363 . S
C333 H336 0.929 . S
C334 C333 1.363 . S
C334 C340 1.428 . S
H335 C331 0.930 . S
H336 C333 0.929 . S
S337 N338 1.613 . S
S337 N339 1.610 . S
N338 S337 1.613 . S
N338 C341 1.350 . S
N339 S337 1.610 . S
N339 C340 1.351 . S
C340 C334 1.428 . S
C340 N339 1.351 . S
C340 C341 1.434 . S
C341 C332 1.429 . S
C341 N338 1.350 . S
C341 C340 1.434 . S
C342 C343 1.369 . S
C342 C344 1.419 . S
C342 H346 0.930 . S
C343 C342 1.369 . S
C343 C352 1.429 . S
C344 C342 1.419 . S
C344 C345 1.363 . S
C344 H347 0.929 . S
C345 C344 1.363 . S
C345 C351 1.428 . S
H346 C342 0.930 . S
H347 C344 0.929 . S
S348 N349 1.613 . S
S348 N350 1.610 . S
N349 S348 1.613 . S
N349 C352 1.350 . S
N350 S348 1.610 . S
N350 C351 1.351 . S
C351 C345 1.428 . S
C351 N350 1.351 . S
C351 C352 1.434 . S
C352 C343 1.429 . S
C352 N349 1.350 . S
C352 C351 1.434 . S
C353 C354 1.369 . S
C353 C355 1.419 . S
C353 H357 0.930 . S
C354 C353 1.369 . S
C354 C363 1.429 . S
C355 C353 1.419 . S
C355 C356 1.363 . S
C355 H358 0.929 . S
C356 C355 1.363 . S
C356 C362 1.428 . S
H357 C353 0.930 . S
H358 C355 0.929 . S
S359 N360 1.613 . S
S359 N361 1.610 . S
N360 S359 1.613 . S
N360 C363 1.350 . S
N361 S359 1.610 . S
N361 C362 1.351 . S
C362 C356 1.428 . S
C362 N361 1.351 . S
C362 C363 1.434 . S
C363 C354 1.429 . S
C363 N360 1.350 . S
C363 C362 1.434 . S
C364 C365 1.369 . S
C364 C366 1.419 . S
C364 H368 0.930 . S
C365 C364 1.369 . S
C365 C374 1.429 . S
C366 C364 1.419 . S
C366 C367 1.363 . S
C366 H369 0.929 . S
C367 C366 1.363 . S
C367 C373 1.428 . S
H368 C364 0.930 . S
H369 C366 0.929 . S
S370 N371 1.613 . S
S370 N372 1.610 . S
N371 S370 1.613 . S
N371 C374 1.350 . S
N372 S370 1.610 . S
N372 C373 1.351 . S
C373 C367 1.428 . S
C373 N372 1.351 . S
C373 C374 1.434 . S
C374 C365 1.429 . S
C374 N371 1.350 . S
C374 C373 1.434 . S
C375 C376 1.369 . S
C375 C377 1.419 . S
C375 H379 0.930 . S
C376 C375 1.369 . S
C376 C385 1.429 . S
C377 C375 1.419 . S
C377 C378 1.363 . S
C377 H380 0.929 . S
C378 C377 1.363 . S
C378 C384 1.428 . S
H379 C375 0.930 . S
H380 C377 0.929 . S
S381 N382 1.613 . S
S381 N383 1.610 . S
N382 S381 1.613 . S
N382 C385 1.350 . S
N383 S381 1.610 . S
N383 C384 1.351 . S
C384 C378 1.428 . S
C384 N383 1.351 . S
C384 C385 1.434 . S
C385 C376 1.429 . S
C385 N382 1.350 . S
C385 C384 1.434 . S
C386 C387 1.369 . S
C386 C388 1.419 . S
C386 H390 0.930 . S
C387 C386 1.369 . S
C387 C396 1.429 . S
C388 C386 1.419 . S
C388 C389 1.363 . S
C388 H391 0.929 . S
C389 C388 1.363 . S
C389 C395 1.428 . S
H390 C386 0.930 . S
H391 C388 0.929 . S
S392 N393 1.613 . S
S392 N394 1.610 . S
N393 S392 1.613 . S
N393 C396 1.350 . S
N394 S392 1.610 . S
N394 C395 1.351 . S
C395 C389 1.428 . S
C395 N394 1.351 . S
C395 C396 1.434 . S
C396 C387 1.429 . S
C396 N393 1.350 . S
C396 C395 1.434 . S
C397 C398 1.369 . S
C397 C399 1.419 . S
C397 H401 0.930 . S
C398 C397 1.369 . S
C398 C407 1.429 . S
C399 C397 1.419 . S
C399 C400 1.363 . S
C399 H402 0.929 . S
C400 C399 1.363 . S
C400 C406 1.428 . S
H401 C397 0.930 . S
H402 C399 0.929 . S
S403 N404 1.613 . S
S403 N405 1.610 . S
N404 S403 1.613 . S
N404 C407 1.350 . S
N405 S403 1.610 . S
N405 C406 1.351 . S
C406 C400 1.428 . S
C406 N405 1.351 . S
C406 C407 1.434 . S
C407 C398 1.429 . S
C407 N404 1.350 . S
C407 C406 1.434 . S
C408 C409 1.369 . S
C408 C410 1.419 . S
C408 H412 0.930 . S
C409 C408 1.369 . S
C409 C418 1.429 . S
C410 C408 1.419 . S
C410 C411 1.363 . S
C410 H413 0.929 . S
C411 C410 1.363 . S
C411 C417 1.428 . S
H412 C408 0.930 . S
H413 C410 0.929 . S
S414 N415 1.613 . S
S414 N416 1.610 . S
N415 S414 1.613 . S
N415 C418 1.350 . S
N416 S414 1.610 . S
N416 C417 1.351 . S
C417 C411 1.428 . S
C417 N416 1.351 . S
C417 C418 1.434 . S
C418 C409 1.429 . S
C418 N415 1.350 . S
C418 C417 1.434 . S
C419 C420 1.369 . S
C419 C421 1.419 . S
C419 H423 0.930 . S
C420 C419 1.369 . S
C420 C429 1.429 . S
C421 C419 1.419 . S
C421 C422 1.363 . S
C421 H424 0.929 . S
C422 C421 1.363 . S
C422 C428 1.428 . S
H423 C419 0.930 . S
H424 C421 0.929 . S
S425 N426 1.613 . S
S425 N427 1.610 . S
N426 S425 1.613 . S
N426 C429 1.350 . S
N427 S425 1.610 . S
N427 C428 1.351 . S
C428 C422 1.428 . S
C428 N427 1.351 . S
C428 C429 1.434 . S
C429 C420 1.429 . S
C429 N426 1.350 . S
C429 C428 1.434 . S
C430 C431 1.369 . S
C430 C432 1.419 . S
C430 H434 0.930 . S
C431 C430 1.369 . S
C431 C440 1.429 . S
C432 C430 1.419 . S
C432 C433 1.363 . S
C432 H435 0.929 . S
C433 C432 1.363 . S
C433 C439 1.428 . S
H434 C430 0.930 . S
H435 C432 0.929 . S
S436 N437 1.613 . S
S436 N438 1.610 . S
N437 S436 1.613 . S
N437 C440 1.350 . S
N438 S436 1.610 . S
N438 C439 1.351 . S
C439 C433 1.428 . S
C439 N438 1.351 . S
C439 C440 1.434 . S
C440 C431 1.429 . S
C440 N437 1.350 . S
C440 C439 1.434 . S
C441 C442 1.369 . S
C441 C443 1.419 . S
C441 H445 0.930 . S
C442 C441 1.369 . S
C442 C451 1.429 . S
C443 C441 1.419 . S
C443 C444 1.363 . S
C443 H446 0.929 . S
C444 C443 1.363 . S
C444 C450 1.428 . S
H445 C441 0.930 . S
H446 C443 0.929 . S
S447 N448 1.613 . S
S447 N449 1.610 . S
N448 S447 1.613 . S
N448 C451 1.350 . S
N449 S447 1.610 . S
N449 C450 1.351 . S
C450 C444 1.428 . S
C450 N449 1.351 . S
C450 C451 1.434 . S
C451 C442 1.429 . S
C451 N448 1.350 . S
C451 C450 1.434 . S
C452 C453 1.369 . S
C452 C454 1.419 . S
C452 H456 0.930 . S
C453 C452 1.369 . S
C453 C462 1.429 . S
C454 C452 1.419 . S
C454 C455 1.363 . S
C454 H457 0.929 . S
C455 C454 1.363 . S
C455 C461 1.428 . S
H456 C452 0.930 . S
H457 C454 0.929 . S
S458 N459 1.613 . S
S458 N460 1.610 . S
N459 S458 1.613 . S
N459 C462 1.350 . S
N460 S458 1.610 . S
N460 C461 1.351 . S
C461 C455 1.428 . S
C461 N460 1.351 . S
C461 C462 1.434 . S
C462 C453 1.429 . S
C462 N459 1.350 . S
C462 C461 1.434 . S
C463 C464 1.369 . S
C463 C465 1.419 . S
C463 H467 0.930 . S
C464 C463 1.369 . S
C464 C473 1.429 . S
C465 C463 1.419 . S
C465 C466 1.363 . S
C465 H468 0.929 . S
C466 C465 1.363 . S
C466 C472 1.428 . S
H467 C463 0.930 . S
H468 C465 0.929 . S
S469 N470 1.613 . S
S469 N471 1.610 . S
N470 S469 1.613 . S
N470 C473 1.350 . S
N471 S469 1.610 . S
N471 C472 1.351 . S
C472 C466 1.428 . S
C472 N471 1.351 . S
C472 C473 1.434 . S
C473 C464 1.429 . S
C473 N470 1.350 . S
C473 C472 1.434 . S
C474 C475 1.369 . S
C474 C476 1.419 . S
C474 H478 0.930 . S
C475 C474 1.369 . S
C475 C484 1.429 . S
C476 C474 1.419 . S
C476 C477 1.363 . S
C476 H479 0.929 . S
C477 C476 1.363 . S
C477 C483 1.428 . S
H478 C474 0.930 . S
H479 C476 0.929 . S
S480 N481 1.613 . S
S480 N482 1.610 . S
N481 S480 1.613 . S
N481 C484 1.350 . S
N482 S480 1.610 . S
N482 C483 1.351 . S
C483 C477 1.428 . S
C483 N482 1.351 . S
C483 C484 1.434 . S
C484 C475 1.429 . S
C484 N481 1.350 . S
C484 C483 1.434 . S
C485 C486 1.369 . S
C485 C487 1.419 . S
C485 H489 0.930 . S
C486 C485 1.369 . S
C486 C495 1.429 . S
C487 C485 1.419 . S
C487 C488 1.363 . S
C487 H490 0.929 . S
C488 C487 1.363 . S
C488 C494 1.428 . S
H489 C485 0.930 . S
H490 C487 0.929 . S
S491 N492 1.613 . S
S491 N493 1.610 . S
N492 S491 1.613 . S
N492 C495 1.350 . S
N493 S491 1.610 . S
N493 C494 1.351 . S
C494 C488 1.428 . S
C494 N493 1.351 . S
C494 C495 1.434 . S
C495 C486 1.429 . S
C495 N492 1.350 . S
C495 C494 1.434 . S
C496 C497 1.369 1_455 S
C496 C498 1.419 1_546 S
C496 H500 0.930 . S
C497 C496 1.369 1_655 S
C497 C506 1.429 . S
C498 C496 1.419 1_564 S
C498 C499 1.363 . S
C498 H501 0.929 . S
C499 C498 1.363 . S
C499 C505 1.428 1_455 S
H500 C496 0.930 . S
H501 C498 0.929 . S
S502 N503 1.613 1_554 S
S502 N504 1.610 1_545 S
N503 S502 1.613 1_556 S
N503 C506 1.350 . S
N504 S502 1.610 1_565 S
N504 C505 1.351 . S
C505 C499 1.428 1_655 S
C505 N504 1.351 . S
C505 C506 1.434 1_564 S
C506 C497 1.429 . S
C506 N503 1.350 . S
C506 C505 1.434 1_546 S
C507 C508 1.369 . S
C507 C509 1.419 . S
C507 H511 0.930 . S
C508 C507 1.369 . S
C508 C517 1.429 . S
C509 C507 1.419 . S
C509 C510 1.363 . S
C509 H512 0.929 . S
C510 C509 1.363 . S
C510 C516 1.428 . S
H511 C507 0.930 . S
H512 C509 0.929 . S
S513 N514 1.613 . S
S513 N515 1.610 . S
N514 S513 1.613 . S
N514 C517 1.350 . S
N515 S513 1.610 . S
N515 C516 1.351 . S
C516 C510 1.428 . S
C516 N515 1.351 . S
C516 C517 1.434 . S
C517 C508 1.429 . S
C517 N514 1.350 . S
C517 C516 1.434 . S
C518 C519 1.369 . S
C518 C520 1.419 . S
C518 H522 0.930 . S
C519 C518 1.369 . S
C519 C528 1.429 1_545 S
C520 C518 1.419 . S
C520 C521 1.363 1_545 S
C520 H523 0.929 . S
C521 C520 1.363 1_565 S
C521 C527 1.428 . S
H522 C518 0.930 . S
H523 C520 0.929 . S
S524 N525 1.613 . S
S524 N526 1.610 . S
N525 S524 1.613 . S
N525 C528 1.350 . S
N526 S524 1.610 . S
N526 C527 1.351 . S
C527 C521 1.428 . S
C527 N526 1.351 . S
C527 C528 1.434 . S
C528 C519 1.429 1_565 S
C528 N525 1.350 . S
C528 C527 1.434 . S
C529 C530 1.369 . S
C529 C531 1.419 . S
C529 H533 0.930 . S
C530 C529 1.369 . S
C530 C539 1.429 . S
C531 C529 1.419 . S
C531 C532 1.363 . S
C531 H534 0.929 . S
C532 C531 1.363 . S
C532 C538 1.428 . S
H533 C529 0.930 . S
H534 C531 0.929 . S
S535 N536 1.613 . S
S535 N537 1.610 . S
N536 S535 1.613 . S
N536 C539 1.350 . S
N537 S535 1.610 . S
N537 C538 1.351 . S
C538 C532 1.428 . S
C538 N537 1.351 . S
C538 C539 1.434 . S
C539 C530 1.429 . S
C539 N536 1.350 . S
C539 C538 1.434 . S
C540 C541 1.369 . S
C540 C542 1.419 . S
C540 H544 0.930 . S
C541 C540 1.369 . S
C541 C550 1.429 . S
C542 C540 1.419 . S
C542 C543 1.363 . S
C542 H545 0.929 . S
C543 C542 1.363 . S
C543 C549 1.428 . S
H544 C540 0.930 . S
H545 C542 0.929 . S
S546 N547 1.613 . S
S546 N548 1.610 . S
N547 S546 1.613 . S
N547 C550 1.350 . S
N548 S546 1.610 . S
N548 C549 1.351 . S
C549 C543 1.428 . S
C549 N548 1.351 . S
C549 C550 1.434 . S
C550 C541 1.429 . S
C550 N547 1.350 . S
C550 C549 1.434 . S
C551 C552 1.369 . S
C551 C553 1.419 . S
C551 H555 0.930 . S
C552 C551 1.369 . S
C552 C561 1.429 . S
C553 C551 1.419 . S
C553 C554 1.363 . S
C553 H556 0.929 . S
C554 C553 1.363 . S
C554 C560 1.428 . S
H555 C551 0.930 . S
H556 C553 0.929 . S
S557 N558 1.613 . S
S557 N559 1.610 . S
N558 S557 1.613 . S
N558 C561 1.350 . S
N559 S557 1.610 . S
N559 C560 1.351 . S
C560 C554 1.428 . S
C560 N559 1.351 . S
C560 C561 1.434 . S
C561 C552 1.429 . S
C561 N558 1.350 . S
C561 C560 1.434 . S
C562 C563 1.369 . S
C562 C564 1.419 . S
C562 H566 0.930 . S
C563 C562 1.369 . S
C563 C572 1.429 . S
C564 C562 1.419 . S
C564 C565 1.363 . S
C564 H567 0.929 . S
C565 C564 1.363 . S
C565 C571 1.428 . S
H566 C562 0.930 . S
H567 C564 0.929 . S
S568 N569 1.613 . S
S568 N570 1.610 . S
N569 S568 1.613 . S
N569 C572 1.350 . S
N570 S568 1.610 . S
N570 C571 1.351 . S
C571 C565 1.428 . S
C571 N570 1.351 . S
C571 C572 1.434 . S
C572 C563 1.429 . S
C572 N569 1.350 . S
C572 C571 1.434 . S
C573 C574 1.369 1_455 S
C573 C575 1.419 1_556 S
C573 H577 0.930 . S
C574 C573 1.369 1_655 S
C574 C583 1.429 . S
C575 C573 1.419 1_554 S
C575 C576 1.363 . S
C575 H578 0.929 . S
C576 C575 1.363 . S
C576 C582 1.428 1_455 S
H577 C573 0.930 . S
H578 C575 0.929 . S
S579 N580 1.613 1_554 S
S579 N581 1.610 . S
N580 S579 1.613 1_556 S
N580 C583 1.350 . S
N581 S579 1.610 . S
N581 C582 1.351 . S
C582 C576 1.428 1_655 S
C582 N581 1.351 . S
C582 C583 1.434 1_554 S
C583 C574 1.429 . S
C583 N580 1.350 . S
C583 C582 1.434 1_556 S
C321 C31 1.936 . S
C323 C151 1.934 . S
C332 C17 1.565 . S
C334 C71 1.581 . S
C343 C57 1.120 . S
C345 C97 1.123 . S
C354 C111 1.579 . S
C356 C137 1.558 . S
C365 C12 1.936 . S
C367 C212 1.940 . S
C376 C2 1.560 . S
C378 C172 1.579 . S
C387 C162 1.123 . S
C389 C82 1.121 . S
C398 C202 1.559 . S
C400 C92 1.582 . S
C409 C271 1.935 . S
C411 C231 1.937 . S
C420 C191 1.580 . S
C422 C257 1.559 . S
C431 C297 1.124 . S
C433 C177 1.124 . S
C442 C217 1.561 . S
C444 C311 1.582 . S
C453 C132 1.936 . S
C455 C252 1.936 . S
C464 C242 1.562 . S
C466 C52 1.582 . S
C475 C42 1.123 . S
C477 C282 1.122 . S
C486 C122 1.564 . S
C488 C292 1.578 . S
C497 C29 1.715 . S
C499 C8 1.706 . S
C508 C48 1.405 . S
C510 C69 1.414 . S
C519 C109 1.412 . S
C521 C88 1.408 . S
C530 C149 1.715 . S
C532 C128 1.706 . S
C541 C168 1.415 . S
C543 C189 1.406 . S
C552 C229 1.715 . S
C554 C208 1.706 . S
C563 C248 1.705 . S
C565 C269 1.714 . S
C574 C288 1.414 . S
C576 C309 1.407 . S
