# Generated by pormake.
# Topology ukh, (4)-cn, num edge types: 1
# Building blocks:
#     Node 0, Type 0, BuildingBlock: QUQFOY_clean_sbu_1, # of connection points: 4
#     Node 1, Type 0, BuildingBlock: QUQFOY_clean_sbu_1, # of connection points: 4
#     Node 2, Type 0, BuildingBlock: QUQFOY_clean_sbu_1, # of connection points: 4
#     Node 3, Type 0, BuildingBlock: QUQFOY_clean_sbu_1, # of connection points: 4
#     Node 4, Type 0, BuildingBlock: QUQFOY_clean_sbu_1, # of connection points: 4
#     Node 5, Type 0, BuildingBlock: QUQFOY_clean_sbu_1, # of connection points: 4
#     Node 6, Type 0, BuildingBlock: QUQFOY_clean_sbu_1, # of connection points: 4
#     Node 7, Type 0, BuildingBlock: QUQFOY_clean_sbu_1, # of connection points: 4
#     Node 8, Type 0, BuildingBlock: QUQFOY_clean_sbu_1, # of connection points: 4
#     Node 9, Type 0, BuildingBlock: QUQFOY_clean_sbu_1, # of connection points: 4
#     Node 10, Type 0, BuildingBlock: QUQFOY_clean_sbu_1, # of connection points: 4
#     Node 11, Type 0, BuildingBlock: QUQFOY_clean_sbu_1, # of connection points: 4
#     Edge 12, Type (0, 0), BuildingBlock: OJICUG_clean_linker_0, # of connection points: 2
#     Edge 13, Type (0, 0), BuildingBlock: OJICUG_clean_linker_0, # of connection points: 2
#     Edge 14, Type (0, 0), BuildingBlock: OJICUG_clean_linker_0, # of connection points: 2
#     Edge 15, Type (0, 0), BuildingBlock: OJICUG_clean_linker_0, # of connection points: 2
#     Edge 16, Type (0, 0), BuildingBlock: OJICUG_clean_linker_0, # of connection points: 2
#     Edge 17, Type (0, 0), BuildingBlock: OJICUG_clean_linker_0, # of connection points: 2
#     Edge 18, Type (0, 0), BuildingBlock: OJICUG_clean_linker_0, # of connection points: 2
#     Edge 19, Type (0, 0), BuildingBlock: OJICUG_clean_linker_0, # of connection points: 2
#     Edge 20, Type (0, 0), BuildingBlock: OJICUG_clean_linker_0, # of connection points: 2
#     Edge 21, Type (0, 0), BuildingBlock: OJICUG_clean_linker_0, # of connection points: 2
#     Edge 22, Type (0, 0), BuildingBlock: OJICUG_clean_linker_0, # of connection points: 2
#     Edge 23, Type (0, 0), BuildingBlock: OJICUG_clean_linker_0, # of connection points: 2
#     Edge 24, Type (0, 0), BuildingBlock: OJICUG_clean_linker_0, # of connection points: 2
#     Edge 25, Type (0, 0), BuildingBlock: OJICUG_clean_linker_0, # of connection points: 2
#     Edge 26, Type (0, 0), BuildingBlock: OJICUG_clean_linker_0, # of connection points: 2
#     Edge 27, Type (0, 0), BuildingBlock: OJICUG_clean_linker_0, # of connection points: 2
#     Edge 28, Type (0, 0), BuildingBlock: OJICUG_clean_linker_0, # of connection points: 2
#     Edge 29, Type (0, 0), BuildingBlock: OJICUG_clean_linker_0, # of connection points: 2
#     Edge 30, Type (0, 0), BuildingBlock: OJICUG_clean_linker_0, # of connection points: 2
#     Edge 31, Type (0, 0), BuildingBlock: OJICUG_clean_linker_0, # of connection points: 2
#     Edge 32, Type (0, 0), BuildingBlock: OJICUG_clean_linker_0, # of connection points: 2
#     Edge 33, Type (0, 0), BuildingBlock: OJICUG_clean_linker_0, # of connection points: 2
#     Edge 34, Type (0, 0), BuildingBlock: OJICUG_clean_linker_0, # of connection points: 2
#     Edge 35, Type (0, 0), BuildingBlock: OJICUG_clean_linker_0, # of connection points: 2
# Relax obj value: 0.065
# Max RMSD: 0.077
# Mean RMSD: 0.077
data_MOF--net-ukh--node1-QUQFOY_clean_sbu_1--edge1-OJICUG_clean_linker_0
_symmetry_space_group_name_H-M    P1
_symmetry_Int_Tables_number       1
_symmetry_cell_setting            triclinic
loop_
_symmetry_equiv_pos_as_xyz
'x, y, z'
_cell_length_a     24.109171
_cell_length_b     24.107207
_cell_length_c     49.648434
_cell_angle_alpha  90.001992
_cell_angle_beta   90.001101
_cell_angle_gamma 119.99615
loop_
_atom_site_label
_atom_site_type_symbol
_atom_site_fract_x
_atom_site_fract_y
_atom_site_fract_z
_atom_type_partial_charge
O0 O 0.33188 0.13853 0.04917 0.0
Cd1 Cd 0.32051 0.20667 0.06957 0.0
Cd2 Cd 0.3901 0.27378 0.02625 0.0
O3 O 0.40496 0.19741 0.01896 0.0
O4 O 0.27329 0.15768 0.1022 0.0
O5 O 0.37079 0.24149 0.10419 0.0
C6 C 0.32264 0.19513 0.1164 0.0
C7 C 0.46481 0.38306 0.02927 0.0
C8 C 0.36955 0.14347 0.03023 0.0
C9 C 0.25621 0.24657 0.02864 0.0
O10 O 0.30302 0.25847 0.01338 0.0
O11 O 0.25713 0.23249 0.05328 0.0
O12 O 0.45238 0.35278 0.00662 0.0
O13 O 0.43923 0.34977 0.05082 0.0
O14 O 0.21558 0.32094 0.38262 0.0
Cd15 Cd 0.13615 0.30954 0.40309 0.0
Cd16 Cd 0.13854 0.37924 0.35979 0.0
O17 O 0.22975 0.39409 0.35246 0.0
O18 O 0.13803 0.26228 0.43569 0.0
O19 O 0.15174 0.3598 0.43772 0.0
C20 C 0.15 0.31164 0.4499 0.0
C21 C 0.10398 0.45397 0.36273 0.0
C22 C 0.24829 0.35865 0.36369 0.0
C23 C 1.03188 0.24531 0.36219 0.0
O24 O 0.06677 0.29214 0.34693 0.0
O25 O 0.04691 0.24618 0.38682 0.0
O26 O 0.12181 0.44145 0.34009 0.0
O27 O 0.11171 0.42849 0.38431 0.0
O28 O 0.91739 0.20455 0.71586 0.0
Cd29 Cd 0.84921 0.12506 0.73624 0.0
Cd30 Cd 0.78219 0.12756 0.6929 0.0
O31 O 0.85857 0.2188 0.68563 0.0
O32 O 0.89814 0.1268 0.76889 0.0
O33 O 0.81436 0.14055 0.77084 0.0
C34 C 0.86069 0.13874 0.78307 0.0
C35 C 0.67292 0.09298 0.69591 0.0
C36 C 0.91249 0.23731 0.69692 0.0
C37 C 0.80937 1.02087 0.69531 0.0
O38 O 0.79754 0.05581 0.68003 0.0
O39 O 0.8234 0.03585 0.71995 0.0
O40 O 0.7032 0.11085 0.67326 0.0
O41 O 0.70619 0.10068 0.71747 0.0
O42 O 0.73486 0.90604 0.04926 0.0
Cd43 Cd 0.74627 0.83799 0.06971 0.0
Cd44 Cd 0.67658 0.7707 0.02641 0.0
O45 O 0.66173 0.84706 0.01908 0.0
O46 O 0.7935 0.88708 0.10233 0.0
O47 O 0.696 0.80327 0.10434 0.0
C48 C 0.74414 0.84968 0.11653 0.0
C49 C 0.60185 0.66141 0.02935 0.0
C50 C 0.69715 0.90104 0.03033 0.0
C51 C 0.81051 0.79796 0.02881 0.0
O52 O 0.76367 0.78601 0.01355 0.0
O53 O 0.80964 0.81213 0.05344 0.0
O54 O 0.61436 0.69175 0.00672 0.0
O55 O 0.62735 0.69463 0.05093 0.0
O56 O 0.85105 0.72391 0.38253 0.0
Cd57 Cd 0.93056 0.73524 0.40292 0.0
Cd58 Cd 0.92804 0.66567 0.3596 0.0
O59 O 0.8368 0.6508 0.35232 0.0
O60 O 0.92884 0.78243 0.43557 0.0
O61 O 0.91511 0.6849 0.43751 0.0
C62 C 0.91693 0.73304 0.44974 0.0
C63 C 0.96262 0.59097 0.36263 0.0
C64 C 0.81829 0.68622 0.3636 0.0
C65 C 0.03472 0.79954 0.36197 0.0
O66 O 0.99978 0.75274 0.34671 0.0
O67 O 1.01974 0.79862 0.38662 0.0
O68 O 0.94474 0.60335 0.33997 0.0
O69 O 0.95493 0.61658 0.38418 0.0
O70 O 0.15 0.83995 0.7159 0.0
Cd71 Cd 0.21805 0.91941 0.73635 0.0
Cd72 Cd 0.2853 0.917 0.69302 0.0
O73 O 0.20893 0.82578 0.6857 0.0
O74 O 0.16892 0.91756 0.76894 0.0
O75 O 0.25271 0.90384 0.77099 0.0
C76 C 0.20629 0.9056 0.78316 0.0
C77 C 0.39458 0.95157 0.69597 0.0
C78 C 0.15497 0.80724 0.69695 0.0
C79 C 0.25805 0.02368 0.69544 0.0
O80 O 0.26997 0.98878 0.68018 0.0
O81 O 0.24392 1.00864 0.72008 0.0
O82 O 0.36425 0.93374 0.67333 0.0
O83 O 0.36136 0.94384 0.71755 0.0
O84 O 0.91745 0.72373 0.63012 0.0
Cd85 Cd 0.84929 0.73507 0.60973 0.0
Cd86 Cd 0.78222 0.66551 0.65307 0.0
O87 O 0.8586 0.65066 0.66034 0.0
O88 O 0.89825 0.7823 0.5771 0.0
O89 O 0.81446 0.68478 0.57511 0.0
C90 C 0.8608 0.73294 0.5629 0.0
C91 C 0.67294 0.59078 0.65011 0.0
C92 C 0.91253 0.68606 0.64906 0.0
C93 C 0.80941 0.7994 0.65066 0.0
O94 O 0.79755 0.75261 0.66593 0.0
O95 O 0.82346 0.79845 0.62602 0.0
O96 O 0.70328 0.60325 0.67275 0.0
O97 O 0.70616 0.61631 0.62854 0.0
O98 O 0.21546 0.90588 0.96348 0.0
Cd99 Cd 0.13595 0.83769 0.9431 0.0
Cd100 Cd 0.13853 0.77066 0.98641 0.0
O101 O 0.22978 0.84702 0.99367 0.0
O102 O 0.13766 0.88659 0.91045 0.0
O103 O 0.15144 0.80283 0.9085 0.0
C104 C 0.14962 0.84915 0.89627 0.0
C105 C 0.10394 0.66137 0.98341 0.0
C106 C 0.24826 0.90096 0.9824 0.0
C107 C 1.03184 0.79786 0.98406 0.0
O108 O 0.06682 0.78603 0.99932 0.0
O109 O 0.04677 0.81186 0.95941 0.0
O110 O 0.12185 0.69167 1.00606 0.0
O111 O 0.1116 0.69464 0.96186 0.0
O112 O 0.33174 0.2047 0.29678 0.0
Cd113 Cd 0.3204 0.12521 0.27637 0.0
Cd114 Cd 0.39001 0.12767 0.31968 0.0
O115 O 0.40486 0.2189 0.32698 0.0
O116 O 0.27321 0.12697 0.24373 0.0
O117 O 0.37073 0.1407 0.24176 0.0
C118 C 0.32258 0.1389 0.22954 0.0
C119 C 0.46475 0.09314 0.31673 0.0
C120 C 0.36943 0.23743 0.31572 0.0
C121 C 0.25612 1.02099 0.31729 0.0
O122 O 0.30293 0.0559 0.33255 0.0
O123 O 0.25703 0.036 0.29265 0.0
O124 O 0.45227 0.11099 0.33936 0.0
O125 O 0.43922 0.10083 0.29515 0.0
O126 O 0.15012 0.32083 0.63021 0.0
Cd127 Cd 0.21828 0.30948 0.60981 0.0
Cd128 Cd 0.28533 0.37907 0.65315 0.0
O129 O 0.20896 0.39394 0.66042 0.0
O130 O 0.16929 0.26223 0.57719 0.0
O131 O 0.25305 0.35977 0.5752 0.0
C132 C 0.2067 0.3116 0.56299 0.0
C133 C 0.39461 0.45376 0.65016 0.0
C134 C 0.15503 0.35852 0.64914 0.0
C135 C 0.25814 0.24518 0.65077 0.0
O136 O 0.26998 0.29197 0.66603 0.0
O137 O 0.24412 0.24612 0.62612 0.0
O138 O 0.36432 0.44135 0.6728 0.0
O139 O 0.36134 0.42818 0.6286 0.0
O140 O 0.85107 0.13847 0.96345 0.0
Cd141 Cd 0.93055 0.20661 0.94303 0.0
Cd142 Cd 0.92807 0.27374 0.98635 0.0
O143 O 0.83685 0.19737 0.99364 0.0
O144 O 0.92879 0.15761 0.91041 0.0
O145 O 0.91505 0.2414 0.90842 0.0
C146 C 0.91686 0.19504 0.89621 0.0
C147 C 0.96262 0.38302 0.98338 0.0
C148 C 0.81833 0.14342 0.98238 0.0
C149 C 0.03475 0.24653 0.98396 0.0
O150 O 0.99983 0.25841 0.99923 0.0
O151 O 1.01976 0.23246 0.95932 0.0
O152 O 0.94477 0.3527 1.00602 0.0
O153 O 0.95493 0.34978 0.96182 0.0
O154 O 0.73481 0.84032 0.29685 0.0
Cd155 Cd 0.74619 0.91985 0.27647 0.0
Cd156 Cd 0.67656 0.9173 0.31978 0.0
O157 O 0.66167 0.82605 0.32705 0.0
O158 O 0.79345 0.91814 0.24384 0.0
O159 O 0.69593 0.90439 0.24184 0.0
C160 C 0.7441 0.90621 0.22964 0.0
C161 C 0.60185 0.95188 0.31678 0.0
C162 C 0.6971 0.80754 0.31577 0.0
C163 C 0.81044 0.02398 0.31744 0.0
O164 O 0.76363 0.98903 0.33269 0.0
O165 O 0.80953 1.00903 0.29279 0.0
O166 O 0.61425 0.93399 0.33942 0.0
O167 O 0.62746 0.94421 0.29522 0.0
C168 C 0.54895 0.55583 0.05429 0.0
C169 C 0.56461 0.59018 0.02989 0.0
H170 H 0.50543 0.46343 0.07335 0.0
C171 C 0.54863 0.5557 1.00557 0.0
H172 H 0.56105 0.58089 0.07339 0.0
C173 C 0.51813 0.48885 1.00555 0.0
C174 C 0.50205 0.45429 0.02985 0.0
H175 H 0.56045 0.58038 0.98639 0.0
H176 H 0.50638 0.46423 0.98635 0.0
C177 C 0.51761 0.48855 0.05427 0.0
C178 C 0.05146 0.50715 0.33894 0.0
C179 C 0.06998 0.49121 0.36326 0.0
H180 H 1.00221 0.54936 0.31972 0.0
C181 C 0.0513 0.50688 0.38765 0.0
H182 H 0.06431 0.49532 0.31976 0.0
C183 C 1.01535 0.53822 0.38763 0.0
C184 C 0.99663 0.55374 0.36322 0.0
H185 H 0.06427 0.4948 0.40675 0.0
H186 H 1.00241 0.55041 0.40671 0.0
C187 C 1.01509 0.53764 0.33892 0.0
C188 C 0.5003 1.0041 0.6722 0.0
C189 C 0.46581 0.98559 0.69651 0.0
H190 H 0.59176 0.05337 0.65298 0.0
C191 C 0.50015 1.00428 0.72091 0.0
H192 H 0.47562 0.99124 0.65301 0.0
C193 C 0.56742 0.04023 0.72089 0.0
C194 C 0.60169 0.05896 0.69649 0.0
H195 H 0.47509 0.9913 0.74001 0.0
H196 H 0.59253 0.05318 0.73998 0.0
C197 C 0.56714 0.04048 0.67218 0.0
C198 C 0.56739 0.53791 0.62517 0.0
C199 C 0.60171 0.55354 0.64956 0.0
H200 H 0.47501 0.49441 0.60609 0.0
C201 C 0.56722 0.53754 0.67388 0.0
H202 H 0.59245 0.55002 0.60607 0.0
C203 C 0.50038 0.50704 0.67389 0.0
C204 C 0.46584 0.49099 0.64958 0.0
H205 H 0.59189 0.54934 0.69307 0.0
H206 H 0.47575 0.49528 0.69309 0.0
C207 C 0.50011 0.50657 0.62518 0.0
C208 C 1.01529 0.48857 0.95843 0.0
C209 C 0.99662 0.45426 0.98283 0.0
H210 H 0.06415 0.58095 0.93935 0.0
C211 C 1.01513 0.48876 0.00714 0.0
H212 H 1.00232 0.46349 0.93934 0.0
C213 C 0.05148 0.55561 0.00715 0.0
C214 C 0.06994 0.59014 0.98284 0.0
H215 H 1.00228 0.4641 0.02633 0.0
H216 H 0.06436 0.58025 0.02635 0.0
C217 C 0.05122 0.55585 0.95844 0.0
C218 C 0.51801 0.04067 0.34049 0.0
C219 C 0.50201 0.05916 0.31618 0.0
H220 H 0.56028 0.99145 0.3597 0.0
C221 C 0.51767 0.04049 0.29178 0.0
H222 H 0.50618 0.05351 0.35968 0.0
C223 C 0.54904 1.00457 0.29179 0.0
C224 C 0.56461 0.98587 0.3162 0.0
H225 H 0.50556 0.05345 0.27268 0.0
H226 H 0.56121 0.99164 0.27271 0.0
C227 C 0.54852 1.00433 0.3405 0.0
C228 C 0.26591 0.13135 0.18656 0.0
C229 C 0.32379 0.15228 0.20043 0.0
H230 H 0.2204 0.12845 0.14922 0.0
C231 C 0.38189 0.18878 0.18658 0.0
H232 H 0.22037 0.10328 0.19669 0.0
C233 C 0.3819 0.20455 0.15938 0.0
C234 C 0.32382 0.18292 0.14551 0.0
H235 H 0.42721 0.20605 0.19686 0.0
H236 H 0.42724 0.23263 0.1491 0.0
C237 C 0.26593 0.14594 0.15937 0.0
C238 C 0.14274 0.25493 0.49285 0.0
C239 C 0.16353 0.31282 0.479 0.0
H240 H 0.14005 0.20938 0.53015 0.0
C241 C 0.20003 0.37091 0.49286 0.0
H242 H 0.11468 0.20939 0.4827 0.0
C243 C 0.21593 0.3709 0.52004 0.0
C244 C 0.19442 0.3128 0.53388 0.0
H245 H 0.21721 0.41625 0.4826 0.0
H246 H 0.24399 0.41623 0.53033 0.0
C247 C 0.15745 0.25492 0.52002 0.0
C248 C 0.85124 0.18863 0.82603 0.0
C249 C 0.87287 0.15214 0.81218 0.0
H250 H 0.84973 0.2325 0.8635 0.0
C251 C 0.90983 0.13123 0.82606 0.0
H252 H 0.82318 0.20589 0.81574 0.0
C253 C 0.92441 0.14584 0.85324 0.0
C254 C 0.90348 0.18282 0.8671 0.0
H255 H 0.92732 0.10317 0.81592 0.0
H256 H 0.95247 0.12837 0.8634 0.0
C257 C 0.86701 0.20443 0.85323 0.0
C258 C 0.80082 0.89905 0.15949 0.0
C259 C 0.74294 0.86198 0.14564 0.0
H260 H 0.84634 0.94184 0.19681 0.0
C261 C 0.68485 0.84036 0.15949 0.0
H262 H 0.84636 0.91654 0.14935 0.0
C263 C 0.68483 0.85621 0.18668 0.0
C264 C 0.74292 0.89278 0.20053 0.0
H265 H 0.63952 0.81222 0.14922 0.0
H266 H 0.6395 0.83893 0.19696 0.0
C267 C 0.80081 0.91372 0.18667 0.0
C268 C 0.90992 0.78968 0.51993 0.0
C269 C 0.87297 0.73178 0.53378 0.0
H270 H 0.95253 0.83525 0.4826 0.0
C271 C 0.85135 0.67369 0.51991 0.0
H272 H 0.92741 0.8352 0.53008 0.0
C273 C 0.8671 0.67371 0.49271 0.0
C274 C 0.90356 0.73182 0.47886 0.0
H275 H 0.8233 0.62835 0.53019 0.0
H276 H 0.84983 0.62839 0.48242 0.0
C277 C 0.92449 0.7897 0.49274 0.0
C278 C 0.19966 0.83982 0.85334 0.0
C279 C 0.16307 0.86136 0.86716 0.0
H280 H 0.24371 0.83847 0.8159 0.0
C281 C 0.14214 0.89829 0.85327 0.0
H282 H 0.21694 0.81179 0.86364 0.0
C283 C 0.15684 0.91294 0.8261 0.0
C284 C 0.19394 0.89212 0.81227 0.0
H285 H 0.114 0.9157 0.86339 0.0
H286 H 0.13936 0.94097 0.81594 0.0
C287 C 0.21555 0.85566 0.82615 0.0
C288 C 0.33107 1.0166 0.9783 0.0
C289 C 0.29991 0.96102 0.99428 0.0
H290 H 0.38021 0.11917 0.97739 0.0
C291 C 0.30699 0.96709 0.02237 0.0
H292 H 0.32663 1.01328 0.95656 0.0
C293 C 0.33681 0.02784 0.0343 0.0
C294 C 0.36114 0.08341 0.01833 0.0
H295 H 0.28342 0.92525 0.03521 0.0
H296 H 0.33577 0.03115 0.05605 0.0
C297 C 0.36203 0.07735 0.99024 0.0
C298 C 0.30679 0.35117 0.32366 0.0
C299 C 0.2999 0.35024 0.35176 0.0
H300 H 0.33539 0.31584 0.28995 0.0
C301 C 0.33118 0.3259 0.3677 0.0
H302 H 0.28312 0.36939 0.31084 0.0
C303 C 0.36209 0.2961 0.35572 0.0
C304 C 0.36102 0.28906 0.32763 0.0
H305 H 0.32688 0.32483 0.38944 0.0
H306 H 0.38038 0.27252 0.36855 0.0
C307 C 0.33657 0.32024 0.31169 0.0
C308 C 1.02812 0.32014 0.70102 0.0
C309 C 0.97256 0.28895 0.68504 0.0
H310 H 0.13068 0.36929 0.70196 0.0
C311 C 0.97866 0.29596 0.65694 0.0
H312 H 1.02478 0.31576 0.72276 0.0
C313 C 0.03942 0.32576 0.64502 0.0
C314 C 0.09497 0.35012 0.66101 0.0
H315 H 0.93684 0.27236 0.64409 0.0
H316 H 0.04275 0.32467 0.62329 0.0
C317 C 0.08888 0.35108 0.6891 0.0
C318 C 0.72988 1.01667 0.03435 0.0
C319 C 0.70555 0.96106 0.0184 0.0
H320 H 0.78325 0.11925 0.03521 0.0
C321 C 0.70461 0.96704 0.9903 0.0
H322 H 0.73095 1.01342 0.05609 0.0
C323 C 0.73553 0.02776 0.97834 0.0
C324 C 0.76671 0.08338 0.99429 0.0
H325 H 0.6864 0.92517 0.97748 0.0
H326 H 0.73993 0.031 0.9566 0.0
C327 C 0.75967 0.07739 0.02238 0.0
C328 C 0.70452 0.74884 0.35575 0.0
C329 C 0.7055 0.75588 0.32766 0.0
H330 H 0.73982 0.72009 0.38942 0.0
C331 C 0.72987 0.72467 0.31168 0.0
H332 H 0.68629 0.77245 0.36859 0.0
C333 C 0.75966 0.69371 0.32362 0.0
C334 C 0.76665 0.69465 0.35171 0.0
H335 H 0.73097 0.72908 0.28994 0.0
H336 H 0.78327 0.67549 0.31077 0.0
C337 C 0.73544 0.71901 0.36768 0.0
C338 C 0.03936 0.72435 0.70099 0.0
C339 C 0.09494 0.75562 0.68503 0.0
H340 H 0.93679 0.67516 0.70189 0.0
C341 C 0.08892 0.7487 0.65694 0.0
H342 H 0.04264 0.72867 0.72274 0.0
C343 C 1.02818 0.71892 0.64499 0.0
C344 C 0.97259 0.69448 0.66096 0.0
H345 H 0.13076 0.77236 0.64411 0.0
H346 H 1.02491 0.72007 0.62325 0.0
C347 C 0.97863 0.69343 0.68905 0.0
C348 C 0.13866 0.24777 0.97833 0.0
C349 C 0.09209 0.24777 0.99529 0.0
H350 H 0.2273 0.24806 0.97558 0.0
C351 C 0.10028 0.24815 0.02338 0.0
H352 H 0.13381 0.24762 0.95664 0.0
C353 C 0.1535 0.24773 0.03427 0.0
C354 C 0.2001 0.24779 0.01731 0.0
H355 H 0.06511 0.24794 0.03702 0.0
H356 H 0.15818 0.24754 0.05596 0.0
C357 C 0.19232 0.24822 0.98923 0.0
C358 C 0.87435 0.0894 0.35688 0.0
C359 C 0.86654 0.08128 0.32879 0.0
H360 H 0.93287 0.14721 0.38949 0.0
C361 C 0.91311 0.12789 0.31185 0.0
H362 H 0.83939 0.0542 0.37051 0.0
C363 C 0.96632 0.18151 0.32276 0.0
C364 C 0.97454 0.18922 0.35085 0.0
H365 H 0.90841 0.1231 0.29015 0.0
H366 H 1.00147 0.21652 0.30913 0.0
C367 C 0.928 0.14258 0.36779 0.0
C368 C 0.80776 0.86332 0.69007 0.0
C369 C 0.80817 0.85551 0.66198 0.0
H370 H 0.80834 0.92184 0.72265 0.0
C371 C 0.80821 0.90209 0.64502 0.0
H372 H 0.80793 0.82835 0.70371 0.0
C373 C 0.80777 0.95531 0.6559 0.0
C374 C 0.80816 0.96352 0.68399 0.0
H375 H 0.80838 0.89739 0.62333 0.0
H376 H 0.80795 0.99046 0.64226 0.0
C377 C 0.80818 0.91697 0.70095 0.0
C378 C 0.8743 0.79618 0.98938 0.0
C379 C 0.8666 0.79671 0.01746 0.0
H380 H 0.93269 0.79666 0.95677 0.0
C381 C 0.91326 0.79685 0.03441 0.0
H382 H 0.83927 0.79628 0.97575 0.0
C383 C 0.96644 0.79638 0.0235 0.0
C384 C 0.97454 0.79666 0.99541 0.0
H385 H 0.90864 0.79711 0.0561 0.0
H386 H 1.00166 0.79665 0.03713 0.0
C387 C 0.92791 0.79659 0.97847 0.0
C388 C 0.13861 0.90223 0.3676 0.0
C389 C 0.09204 0.85565 0.35064 0.0
H390 H 0.22722 0.9906 0.37034 0.0
C391 C 0.10022 0.86345 0.32255 0.0
H392 H 0.13376 0.89754 0.38929 0.0
C393 C 0.15342 0.9171 0.31166 0.0
C394 C 0.20002 0.96365 0.32862 0.0
H395 H 0.06506 0.82848 0.30891 0.0
H396 H 0.1581 0.92196 0.28996 0.0
C397 C 0.19224 0.95545 0.3567 0.0
C398 C 0.25921 0.12756 0.70108 0.0
C399 C 0.2593 0.08103 0.68412 0.0
H400 H 0.25944 0.21618 0.70382 0.0
C401 C 0.25979 0.08927 0.65603 0.0
H402 H 0.25898 0.12267 0.72277 0.0
C403 C 0.25938 0.1425 0.64514 0.0
C404 C 0.25935 0.18906 0.6621 0.0
H405 H 0.25965 0.05414 0.64239 0.0
H406 H 0.25928 0.14722 0.62345 0.0
C407 C 0.25967 0.18122 0.69018 0.0
loop_
_geom_bond_atom_site_label_1
_geom_bond_atom_site_label_2
_geom_bond_distance
_geom_bond_site_symmetry_2
_ccdc_geom_bond_type
O0 Cd1 2.223 . S
O0 C8 1.315 . S
Cd1 O0 2.223 . S
Cd1 O4 2.297 . S
Cd1 O5 2.439 . S
Cd1 O11 2.240 . S
Cd2 O3 2.240 . S
Cd2 O10 2.223 1_554 S
Cd2 O12 2.297 . S
Cd2 O13 2.439 . S
O3 Cd2 2.240 . S
O3 C8 1.279 . S
O4 Cd1 2.297 . S
O4 C6 1.247 . S
O5 Cd1 2.439 . S
O5 C6 1.208 . S
C6 O4 1.247 . S
C6 O5 1.208 . S
C7 O12 1.247 . S
C7 O13 1.208 . S
C8 O0 1.315 . S
C8 O3 1.279 . S
C9 O10 1.315 1_554 S
C9 O11 1.279 . S
O10 Cd2 2.223 1_556 S
O10 C9 1.315 1_556 S
O11 Cd1 2.240 . S
O11 C9 1.279 . S
O12 Cd2 2.297 . S
O12 C7 1.247 . S
O13 Cd2 2.439 . S
O13 C7 1.208 . S
O14 Cd15 2.223 . S
O14 C22 1.315 . S
Cd15 O14 2.223 . S
Cd15 O18 2.297 . S
Cd15 O19 2.439 . S
Cd15 O25 2.240 1_455 S
Cd16 O17 2.240 . S
Cd16 O24 2.223 . S
Cd16 O26 2.297 . S
Cd16 O27 2.439 . S
O17 Cd16 2.240 . S
O17 C22 1.279 . S
O18 Cd15 2.297 . S
O18 C20 1.247 . S
O19 Cd15 2.439 . S
O19 C20 1.208 . S
C20 O18 1.247 . S
C20 O19 1.208 . S
C21 O26 1.247 . S
C21 O27 1.208 . S
C22 O14 1.315 . S
C22 O17 1.279 . S
C23 O24 1.315 1_655 S
C23 O25 1.279 . S
O24 Cd16 2.223 . S
O24 C23 1.315 1_455 S
O25 Cd15 2.240 1_655 S
O25 C23 1.279 . S
O26 Cd16 2.297 . S
O26 C21 1.247 . S
O27 Cd16 2.439 . S
O27 C21 1.208 . S
O28 Cd29 2.223 . S
O28 C36 1.315 . S
Cd29 O28 2.223 . S
Cd29 O32 2.297 . S
Cd29 O33 2.439 . S
Cd29 O39 2.240 1_545 S
Cd30 O31 2.240 . S
Cd30 O38 2.223 . S
Cd30 O40 2.297 . S
Cd30 O41 2.439 . S
O31 Cd30 2.240 . S
O31 C36 1.279 . S
O32 Cd29 2.297 . S
O32 C34 1.247 . S
O33 Cd29 2.439 . S
O33 C34 1.208 . S
C34 O32 1.247 . S
C34 O33 1.208 . S
C35 O40 1.247 . S
C35 O41 1.208 . S
C36 O28 1.315 . S
C36 O31 1.279 . S
C37 O38 1.315 1_565 S
C37 O39 1.279 . S
O38 Cd30 2.223 . S
O38 C37 1.315 1_545 S
O39 Cd29 2.240 1_565 S
O39 C37 1.279 . S
O40 Cd30 2.297 . S
O40 C35 1.247 . S
O41 Cd30 2.439 . S
O41 C35 1.208 . S
O42 Cd43 2.223 . S
O42 C50 1.315 . S
Cd43 O42 2.223 . S
Cd43 O46 2.297 . S
Cd43 O47 2.439 . S
Cd43 O53 2.240 . S
Cd44 O45 2.240 . S
Cd44 O52 2.223 1_554 S
Cd44 O54 2.297 . S
Cd44 O55 2.439 . S
O45 Cd44 2.240 . S
O45 C50 1.279 . S
O46 Cd43 2.297 . S
O46 C48 1.247 . S
O47 Cd43 2.439 . S
O47 C48 1.208 . S
C48 O46 1.247 . S
C48 O47 1.208 . S
C49 O54 1.247 . S
C49 O55 1.208 . S
C50 O42 1.315 . S
C50 O45 1.279 . S
C51 O52 1.315 1_554 S
C51 O53 1.279 . S
O52 Cd44 2.223 1_556 S
O52 C51 1.315 1_556 S
O53 Cd43 2.240 . S
O53 C51 1.279 . S
O54 Cd44 2.297 . S
O54 C49 1.247 . S
O55 Cd44 2.439 . S
O55 C49 1.208 . S
O56 Cd57 2.223 . S
O56 C64 1.315 . S
Cd57 O56 2.223 . S
Cd57 O60 2.297 . S
Cd57 O61 2.439 . S
Cd57 O67 2.240 1_655 S
Cd58 O59 2.240 . S
Cd58 O66 2.223 . S
Cd58 O68 2.297 . S
Cd58 O69 2.439 . S
O59 Cd58 2.240 . S
O59 C64 1.279 . S
O60 Cd57 2.297 . S
O60 C62 1.247 . S
O61 Cd57 2.439 . S
O61 C62 1.208 . S
C62 O60 1.247 . S
C62 O61 1.208 . S
C63 O68 1.247 . S
C63 O69 1.208 . S
C64 O56 1.315 . S
C64 O59 1.279 . S
C65 O66 1.315 1_455 S
C65 O67 1.279 . S
O66 Cd58 2.223 . S
O66 C65 1.315 1_655 S
O67 Cd57 2.240 1_455 S
O67 C65 1.279 . S
O68 Cd58 2.297 . S
O68 C63 1.247 . S
O69 Cd58 2.439 . S
O69 C63 1.208 . S
O70 Cd71 2.223 . S
O70 C78 1.315 . S
Cd71 O70 2.223 . S
Cd71 O74 2.297 . S
Cd71 O75 2.439 . S
Cd71 O81 2.240 1_565 S
Cd72 O73 2.240 . S
Cd72 O80 2.223 . S
Cd72 O82 2.297 . S
Cd72 O83 2.439 . S
O73 Cd72 2.240 . S
O73 C78 1.279 . S
O74 Cd71 2.297 . S
O74 C76 1.247 . S
O75 Cd71 2.439 . S
O75 C76 1.208 . S
C76 O74 1.247 . S
C76 O75 1.208 . S
C77 O82 1.247 . S
C77 O83 1.208 . S
C78 O70 1.315 . S
C78 O73 1.279 . S
C79 O80 1.315 1_545 S
C79 O81 1.279 . S
O80 Cd72 2.223 . S
O80 C79 1.315 1_565 S
O81 Cd71 2.240 1_545 S
O81 C79 1.279 . S
O82 Cd72 2.297 . S
O82 C77 1.247 . S
O83 Cd72 2.439 . S
O83 C77 1.208 . S
O84 Cd85 2.223 . S
O84 C92 1.315 . S
Cd85 O84 2.223 . S
Cd85 O88 2.297 . S
Cd85 O89 2.439 . S
Cd85 O95 2.240 . S
Cd86 O87 2.240 . S
Cd86 O94 2.223 . S
Cd86 O96 2.297 . S
Cd86 O97 2.439 . S
O87 Cd86 2.240 . S
O87 C92 1.279 . S
O88 Cd85 2.297 . S
O88 C90 1.247 . S
O89 Cd85 2.439 . S
O89 C90 1.208 . S
C90 O88 1.247 . S
C90 O89 1.208 . S
C91 O96 1.247 . S
C91 O97 1.208 . S
C92 O84 1.315 . S
C92 O87 1.279 . S
C93 O94 1.315 . S
C93 O95 1.279 . S
O94 Cd86 2.223 . S
O94 C93 1.315 . S
O95 Cd85 2.240 . S
O95 C93 1.279 . S
O96 Cd86 2.297 . S
O96 C91 1.247 . S
O97 Cd86 2.439 . S
O97 C91 1.208 . S
O98 Cd99 2.223 . S
O98 C106 1.315 . S
Cd99 O98 2.223 . S
Cd99 O102 2.297 . S
Cd99 O103 2.439 . S
Cd99 O109 2.240 1_455 S
Cd100 O101 2.240 . S
Cd100 O108 2.223 1_556 S
Cd100 O110 2.297 . S
Cd100 O111 2.439 . S
O101 Cd100 2.240 . S
O101 C106 1.279 . S
O102 Cd99 2.297 . S
O102 C104 1.247 . S
O103 Cd99 2.439 . S
O103 C104 1.208 . S
C104 O102 1.247 . S
C104 O103 1.208 . S
C105 O110 1.247 . S
C105 O111 1.208 . S
C106 O98 1.315 . S
C106 O101 1.279 . S
C107 O108 1.315 1_656 S
C107 O109 1.279 . S
O108 Cd100 2.223 1_554 S
O108 C107 1.315 1_454 S
O109 Cd99 2.240 1_655 S
O109 C107 1.279 . S
O110 Cd100 2.297 . S
O110 C105 1.247 . S
O111 Cd100 2.439 . S
O111 C105 1.208 . S
O112 Cd113 2.223 . S
O112 C120 1.315 . S
Cd113 O112 2.223 . S
Cd113 O116 2.297 . S
Cd113 O117 2.439 . S
Cd113 O123 2.240 1_545 S
Cd114 O115 2.240 . S
Cd114 O122 2.223 . S
Cd114 O124 2.297 . S
Cd114 O125 2.439 . S
O115 Cd114 2.240 . S
O115 C120 1.279 . S
O116 Cd113 2.297 . S
O116 C118 1.247 . S
O117 Cd113 2.439 . S
O117 C118 1.208 . S
C118 O116 1.247 . S
C118 O117 1.208 . S
C119 O124 1.247 . S
C119 O125 1.208 . S
C120 O112 1.315 . S
C120 O115 1.279 . S
C121 O122 1.315 1_565 S
C121 O123 1.279 . S
O122 Cd114 2.223 . S
O122 C121 1.315 1_545 S
O123 Cd113 2.240 1_565 S
O123 C121 1.279 . S
O124 Cd114 2.297 . S
O124 C119 1.247 . S
O125 Cd114 2.439 . S
O125 C119 1.208 . S
O126 Cd127 2.223 . S
O126 C134 1.315 . S
Cd127 O126 2.223 . S
Cd127 O130 2.297 . S
Cd127 O131 2.439 . S
Cd127 O137 2.240 . S
Cd128 O129 2.240 . S
Cd128 O136 2.223 . S
Cd128 O138 2.297 . S
Cd128 O139 2.439 . S
O129 Cd128 2.240 . S
O129 C134 1.279 . S
O130 Cd127 2.297 . S
O130 C132 1.247 . S
O131 Cd127 2.439 . S
O131 C132 1.208 . S
C132 O130 1.247 . S
C132 O131 1.208 . S
C133 O138 1.247 . S
C133 O139 1.208 . S
C134 O126 1.315 . S
C134 O129 1.279 . S
C135 O136 1.315 . S
C135 O137 1.279 . S
O136 Cd128 2.223 . S
O136 C135 1.315 . S
O137 Cd127 2.240 . S
O137 C135 1.279 . S
O138 Cd128 2.297 . S
O138 C133 1.247 . S
O139 Cd128 2.439 . S
O139 C133 1.208 . S
O140 Cd141 2.223 . S
O140 C148 1.315 . S
Cd141 O140 2.223 . S
Cd141 O144 2.297 . S
Cd141 O145 2.439 . S
Cd141 O151 2.240 1_655 S
Cd142 O143 2.240 . S
Cd142 O150 2.223 1_556 S
Cd142 O152 2.297 . S
Cd142 O153 2.439 . S
O143 Cd142 2.240 . S
O143 C148 1.279 . S
O144 Cd141 2.297 . S
O144 C146 1.247 . S
O145 Cd141 2.439 . S
O145 C146 1.208 . S
C146 O144 1.247 . S
C146 O145 1.208 . S
C147 O152 1.247 . S
C147 O153 1.208 . S
C148 O140 1.315 . S
C148 O143 1.279 . S
C149 O150 1.315 1_456 S
C149 O151 1.279 . S
O150 Cd142 2.223 1_554 S
O150 C149 1.315 1_654 S
O151 Cd141 2.240 1_455 S
O151 C149 1.279 . S
O152 Cd142 2.297 . S
O152 C147 1.247 . S
O153 Cd142 2.439 . S
O153 C147 1.208 . S
O154 Cd155 2.223 . S
O154 C162 1.315 . S
Cd155 O154 2.223 . S
Cd155 O158 2.297 . S
Cd155 O159 2.439 . S
Cd155 O165 2.240 1_565 S
Cd156 O157 2.240 . S
Cd156 O164 2.223 . S
Cd156 O166 2.297 . S
Cd156 O167 2.439 . S
O157 Cd156 2.240 . S
O157 C162 1.279 . S
O158 Cd155 2.297 . S
O158 C160 1.247 . S
O159 Cd155 2.439 . S
O159 C160 1.208 . S
C160 O158 1.247 . S
C160 O159 1.208 . S
C161 O166 1.247 . S
C161 O167 1.208 . S
C162 O154 1.315 . S
C162 O157 1.279 . S
C163 O164 1.315 1_545 S
C163 O165 1.279 . S
O164 Cd156 2.223 . S
O164 C163 1.315 1_565 S
O165 Cd155 2.240 1_545 S
O165 C163 1.279 . S
O166 Cd156 2.297 . S
O166 C161 1.247 . S
O167 Cd156 2.439 . S
O167 C161 1.208 . S
C168 C169 1.387 . S
C168 H172 0.950 . S
C168 C177 1.390 . S
C169 C168 1.387 . S
C169 C171 1.387 . S
H170 C177 0.950 . S
C171 C169 1.387 . S
C171 C173 1.390 . S
C171 H175 0.950 1_554 S
H172 C168 0.950 . S
C173 C171 1.390 . S
C173 C174 1.387 . S
C173 H176 0.950 1_554 S
C174 C173 1.387 . S
C174 C177 1.387 . S
H175 C171 0.950 1_556 S
H176 C173 0.950 1_556 S
C177 C168 1.390 . S
C177 H170 0.950 . S
C177 C174 1.387 . S
C178 C179 1.387 . S
C178 H182 0.950 . S
C178 C187 1.390 1_455 S
C179 C178 1.387 . S
C179 C181 1.387 . S
H180 C187 0.950 . S
C181 C179 1.387 . S
C181 C183 1.390 1_455 S
C181 H185 0.950 . S
H182 C178 0.950 . S
C183 C181 1.390 1_655 S
C183 C184 1.387 . S
C183 H186 0.950 . S
C184 C183 1.387 . S
C184 C187 1.387 . S
H185 C181 0.950 . S
H186 C183 0.950 . S
C187 C178 1.390 1_655 S
C187 H180 0.950 . S
C187 C184 1.387 . S
C188 C189 1.387 . S
C188 H192 0.950 . S
C188 C197 1.390 1_565 S
C189 C188 1.387 . S
C189 C191 1.387 . S
H190 C197 0.950 . S
C191 C189 1.387 . S
C191 C193 1.390 1_565 S
C191 H195 0.950 . S
H192 C188 0.950 . S
C193 C191 1.390 1_545 S
C193 C194 1.387 . S
C193 H196 0.950 . S
C194 C193 1.387 . S
C194 C197 1.387 . S
H195 C191 0.950 . S
H196 C193 0.950 . S
C197 C188 1.390 1_545 S
C197 H190 0.950 . S
C197 C194 1.387 . S
C198 C199 1.387 . S
C198 H202 0.950 . S
C198 C207 1.390 . S
C199 C198 1.387 . S
C199 C201 1.387 . S
H200 C207 0.950 . S
C201 C199 1.387 . S
C201 C203 1.390 . S
C201 H205 0.950 . S
H202 C198 0.950 . S
C203 C201 1.390 . S
C203 C204 1.387 . S
C203 H206 0.950 . S
C204 C203 1.387 . S
C204 C207 1.387 . S
H205 C201 0.950 . S
H206 C203 0.950 . S
C207 C198 1.390 . S
C207 H200 0.950 . S
C207 C204 1.387 . S
C208 C209 1.387 . S
C208 H212 0.950 . S
C208 C217 1.390 1_655 S
C209 C208 1.387 . S
C209 C211 1.387 . S
H210 C217 0.950 . S
C211 C209 1.387 . S
C211 C213 1.390 1_655 S
C211 H215 0.950 1_556 S
H212 C208 0.950 . S
C213 C211 1.390 1_455 S
C213 C214 1.387 . S
C213 H216 0.950 1_556 S
C214 C213 1.387 . S
C214 C217 1.387 . S
H215 C211 0.950 1_554 S
H216 C213 0.950 1_554 S
C217 C208 1.390 1_455 S
C217 H210 0.950 . S
C217 C214 1.387 . S
C218 C219 1.387 . S
C218 H222 0.950 . S
C218 C227 1.390 1_545 S
C219 C218 1.387 . S
C219 C221 1.387 . S
H220 C227 0.950 . S
C221 C219 1.387 . S
C221 C223 1.390 1_545 S
C221 H225 0.950 . S
H222 C218 0.950 . S
C223 C221 1.390 1_565 S
C223 C224 1.387 . S
C223 H226 0.950 . S
C224 C223 1.387 . S
C224 C227 1.387 . S
H225 C221 0.950 . S
H226 C223 0.950 . S
C227 C218 1.390 1_565 S
C227 H220 0.950 . S
C227 C224 1.387 . S
C228 C229 1.387 . S
C228 H232 0.950 . S
C228 C237 1.390 . S
C229 C228 1.387 . S
C229 C231 1.387 . S
H230 C237 0.950 . S
C231 C229 1.387 . S
C231 C233 1.390 . S
C231 H235 0.950 . S
H232 C228 0.950 . S
C233 C231 1.390 . S
C233 C234 1.387 . S
C233 H236 0.950 . S
C234 C233 1.387 . S
C234 C237 1.387 . S
H235 C231 0.950 . S
H236 C233 0.950 . S
C237 C228 1.390 . S
C237 H230 0.950 . S
C237 C234 1.387 . S
C238 C239 1.387 . S
C238 H242 0.950 . S
C238 C247 1.390 . S
C239 C238 1.387 . S
C239 C241 1.387 . S
H240 C247 0.950 . S
C241 C239 1.387 . S
C241 C243 1.390 . S
C241 H245 0.950 . S
H242 C238 0.950 . S
C243 C241 1.390 . S
C243 C244 1.387 . S
C243 H246 0.950 . S
C244 C243 1.387 . S
C244 C247 1.387 . S
H245 C241 0.950 . S
H246 C243 0.950 . S
C247 C238 1.390 . S
C247 H240 0.950 . S
C247 C244 1.387 . S
C248 C249 1.387 . S
C248 H252 0.950 . S
C248 C257 1.390 . S
C249 C248 1.387 . S
C249 C251 1.387 . S
H250 C257 0.950 . S
C251 C249 1.387 . S
C251 C253 1.390 . S
C251 H255 0.950 . S
H252 C248 0.950 . S
C253 C251 1.390 . S
C253 C254 1.387 . S
C253 H256 0.950 . S
C254 C253 1.387 . S
C254 C257 1.387 . S
H255 C251 0.950 . S
H256 C253 0.950 . S
C257 C248 1.390 . S
C257 H250 0.950 . S
C257 C254 1.387 . S
C258 C259 1.387 . S
C258 H262 0.950 . S
C258 C267 1.390 . S
C259 C258 1.387 . S
C259 C261 1.387 . S
H260 C267 0.950 . S
C261 C259 1.387 . S
C261 C263 1.390 . S
C261 H265 0.950 . S
H262 C258 0.950 . S
C263 C261 1.390 . S
C263 C264 1.387 . S
C263 H266 0.950 . S
C264 C263 1.387 . S
C264 C267 1.387 . S
H265 C261 0.950 . S
H266 C263 0.950 . S
C267 C258 1.390 . S
C267 H260 0.950 . S
C267 C264 1.387 . S
C268 C269 1.387 . S
C268 H272 0.950 . S
C268 C277 1.390 . S
C269 C268 1.387 . S
C269 C271 1.387 . S
H270 C277 0.950 . S
C271 C269 1.387 . S
C271 C273 1.390 . S
C271 H275 0.950 . S
H272 C268 0.950 . S
C273 C271 1.390 . S
C273 C274 1.387 . S
C273 H276 0.950 . S
C274 C273 1.387 . S
C274 C277 1.387 . S
H275 C271 0.950 . S
H276 C273 0.950 . S
C277 C268 1.390 . S
C277 H270 0.950 . S
C277 C274 1.387 . S
C278 C279 1.387 . S
C278 H282 0.950 . S
C278 C287 1.390 . S
C279 C278 1.387 . S
C279 C281 1.387 . S
H280 C287 0.950 . S
C281 C279 1.387 . S
C281 C283 1.390 . S
C281 H285 0.950 . S
H282 C278 0.950 . S
C283 C281 1.390 . S
C283 C284 1.387 . S
C283 H286 0.950 . S
C284 C283 1.387 . S
C284 C287 1.387 . S
H285 C281 0.950 . S
H286 C283 0.950 . S
C287 C278 1.390 . S
C287 H280 0.950 . S
C287 C284 1.387 . S
C288 C289 1.387 . S
C288 H292 0.950 . S
C288 C297 1.390 1_566 S
C289 C288 1.387 . S
C289 C291 1.387 . S
H290 C297 0.950 . S
C291 C289 1.387 . S
C291 C293 1.390 1_566 S
C291 H295 0.950 . S
H292 C288 0.950 . S
C293 C291 1.390 1_544 S
C293 C294 1.387 . S
C293 H296 0.950 . S
C294 C293 1.387 . S
C294 C297 1.387 . S
H295 C291 0.950 . S
H296 C293 0.950 . S
C297 C288 1.390 1_544 S
C297 H290 0.950 . S
C297 C294 1.387 . S
C298 C299 1.387 . S
C298 H302 0.950 . S
C298 C307 1.390 . S
C299 C298 1.387 . S
C299 C301 1.387 . S
H300 C307 0.950 . S
C301 C299 1.387 . S
C301 C303 1.390 . S
C301 H305 0.950 . S
H302 C298 0.950 . S
C303 C301 1.390 . S
C303 C304 1.387 . S
C303 H306 0.950 . S
C304 C303 1.387 . S
C304 C307 1.387 . S
H305 C301 0.950 . S
H306 C303 0.950 . S
C307 C298 1.390 . S
C307 H300 0.950 . S
C307 C304 1.387 . S
C308 C309 1.387 . S
C308 H312 0.950 . S
C308 C317 1.390 1_655 S
C309 C308 1.387 . S
C309 C311 1.387 . S
H310 C317 0.950 . S
C311 C309 1.387 . S
C311 C313 1.390 1_655 S
C311 H315 0.950 . S
H312 C308 0.950 . S
C313 C311 1.390 1_455 S
C313 C314 1.387 . S
C313 H316 0.950 . S
C314 C313 1.387 . S
C314 C317 1.387 . S
H315 C311 0.950 . S
H316 C313 0.950 . S
C317 C308 1.390 1_455 S
C317 H310 0.950 . S
C317 C314 1.387 . S
C318 C319 1.387 . S
C318 H322 0.950 . S
C318 C327 1.390 1_564 S
C319 C318 1.387 . S
C319 C321 1.387 . S
H320 C327 0.950 . S
C321 C319 1.387 . S
C321 C323 1.390 1_564 S
C321 H325 0.950 . S
H322 C318 0.950 . S
C323 C321 1.390 1_546 S
C323 C324 1.387 . S
C323 H326 0.950 . S
C324 C323 1.387 . S
C324 C327 1.387 . S
H325 C321 0.950 . S
H326 C323 0.950 . S
C327 C318 1.390 1_546 S
C327 H320 0.950 . S
C327 C324 1.387 . S
C328 C329 1.387 . S
C328 H332 0.950 . S
C328 C337 1.390 . S
C329 C328 1.387 . S
C329 C331 1.387 . S
H330 C337 0.950 . S
C331 C329 1.387 . S
C331 C333 1.390 . S
C331 H335 0.950 . S
H332 C328 0.950 . S
C333 C331 1.390 . S
C333 C334 1.387 . S
C333 H336 0.950 . S
C334 C333 1.387 . S
C334 C337 1.387 . S
H335 C331 0.950 . S
H336 C333 0.950 . S
C337 C328 1.390 . S
C337 H330 0.950 . S
C337 C334 1.387 . S
C338 C339 1.387 . S
C338 H342 0.950 . S
C338 C347 1.390 1_455 S
C339 C338 1.387 . S
C339 C341 1.387 . S
H340 C347 0.950 . S
C341 C339 1.387 . S
C341 C343 1.390 1_455 S
C341 H345 0.950 . S
H342 C338 0.950 . S
C343 C341 1.390 1_655 S
C343 C344 1.387 . S
C343 H346 0.950 . S
C344 C343 1.387 . S
C344 C347 1.387 . S
H345 C341 0.950 . S
H346 C343 0.950 . S
C347 C338 1.390 1_655 S
C347 H340 0.950 . S
C347 C344 1.387 . S
C348 C349 1.387 . S
C348 H352 0.950 . S
C348 C357 1.390 1_556 S
C349 C348 1.387 . S
C349 C351 1.387 . S
H350 C357 0.950 . S
C351 C349 1.387 . S
C351 C353 1.390 1_556 S
C351 H355 0.950 . S
H352 C348 0.950 . S
C353 C351 1.390 1_554 S
C353 C354 1.387 . S
C353 H356 0.950 . S
C354 C353 1.387 . S
C354 C357 1.387 . S
H355 C351 0.950 . S
H356 C353 0.950 . S
C357 C348 1.390 1_554 S
C357 H350 0.950 . S
C357 C354 1.387 . S
C358 C359 1.387 . S
C358 H362 0.950 . S
C358 C367 1.390 . S
C359 C358 1.387 . S
C359 C361 1.387 . S
H360 C367 0.950 . S
C361 C359 1.387 . S
C361 C363 1.390 . S
C361 H365 0.950 . S
H362 C358 0.950 . S
C363 C361 1.390 . S
C363 C364 1.387 . S
C363 H366 0.950 . S
C364 C363 1.387 . S
C364 C367 1.387 . S
H365 C361 0.950 . S
H366 C363 0.950 . S
C367 C358 1.390 . S
C367 H360 0.950 . S
C367 C364 1.387 . S
C368 C369 1.387 . S
C368 H372 0.950 . S
C368 C377 1.390 . S
C369 C368 1.387 . S
C369 C371 1.387 . S
H370 C377 0.950 . S
C371 C369 1.387 . S
C371 C373 1.390 . S
C371 H375 0.950 . S
H372 C368 0.950 . S
C373 C371 1.390 . S
C373 C374 1.387 . S
C373 H376 0.950 . S
C374 C373 1.387 . S
C374 C377 1.387 . S
H375 C371 0.950 . S
H376 C373 0.950 . S
C377 C368 1.390 . S
C377 H370 0.950 . S
C377 C374 1.387 . S
C378 C379 1.387 . S
C378 H382 0.950 . S
C378 C387 1.390 1_554 S
C379 C378 1.387 . S
C379 C381 1.387 . S
H380 C387 0.950 . S
C381 C379 1.387 . S
C381 C383 1.390 1_554 S
C381 H385 0.950 . S
H382 C378 0.950 . S
C383 C381 1.390 1_556 S
C383 C384 1.387 . S
C383 H386 0.950 . S
C384 C383 1.387 . S
C384 C387 1.387 . S
H385 C381 0.950 . S
H386 C383 0.950 . S
C387 C378 1.390 1_556 S
C387 H380 0.950 . S
C387 C384 1.387 . S
C388 C389 1.387 . S
C388 H392 0.950 . S
C388 C397 1.390 . S
C389 C388 1.387 . S
C389 C391 1.387 . S
H390 C397 0.950 . S
C391 C389 1.387 . S
C391 C393 1.390 . S
C391 H395 0.950 . S
H392 C388 0.950 . S
C393 C391 1.390 . S
C393 C394 1.387 . S
C393 H396 0.950 . S
C394 C393 1.387 . S
C394 C397 1.387 . S
H395 C391 0.950 . S
H396 C393 0.950 . S
C397 C388 1.390 . S
C397 H390 0.950 . S
C397 C394 1.387 . S
C398 C399 1.387 . S
C398 H402 0.950 . S
C398 C407 1.390 . S
C399 C398 1.387 . S
C399 C401 1.387 . S
H400 C407 0.950 . S
C401 C399 1.387 . S
C401 C403 1.390 . S
C401 H405 0.950 . S
H402 C398 0.950 . S
C403 C401 1.390 . S
C403 C404 1.387 . S
C403 H406 0.950 . S
C404 C403 1.387 . S
C404 C407 1.387 . S
H405 C401 0.950 . S
H406 C403 0.950 . S
C407 C398 1.390 . S
C407 H400 0.950 . S
C407 C404 1.387 . S
C169 C49 1.377 . S
C174 C7 1.377 . S
C179 C21 1.377 . S
C184 C63 1.377 . S
C189 C77 1.377 . S
C194 C35 1.377 . S
C199 C91 1.377 . S
C204 C133 1.377 . S
C209 C147 1.377 . S
C214 C105 1.377 . S
C219 C119 1.377 . S
C224 C161 1.377 . S
C229 C118 1.580 . S
C234 C6 1.578 . S
C239 C20 1.579 . S
C244 C132 1.579 . S
C249 C34 1.580 . S
C254 C146 1.581 . S
C259 C48 1.578 . S
C264 C160 1.580 . S
C269 C90 1.579 . S
C274 C62 1.579 . S
C279 C104 1.581 . S
C284 C76 1.580 . S
C289 C106 1.595 . S
C294 C8 1.595 . S
C299 C22 1.596 . S
C304 C120 1.597 . S
C309 C36 1.597 . S
C314 C134 1.595 . S
C319 C50 1.597 . S
C324 C148 1.597 . S
C329 C162 1.595 . S
C334 C64 1.596 . S
C339 C78 1.597 . S
C344 C92 1.596 . S
C349 C149 1.508 . S
C354 C9 1.508 . S
C359 C163 1.508 . S
C364 C23 1.508 . S
C369 C93 1.508 . S
C374 C37 1.508 . S
C379 C51 1.508 . S
C384 C107 1.508 . S
C389 C65 1.508 . S
C394 C121 1.508 . S
C399 C79 1.508 . S
C404 C135 1.508 . S
