# Generated by pormake.
# Topology sth, (5)-cn, num edge types: 1
# Building blocks:
#     Node 0, Type 0, BuildingBlock: BEQFEK_clean_sbu_0, # of connection points: 5
#     Node 1, Type 0, BuildingBlock: BEQFEK_clean_sbu_0, # of connection points: 5
#     Node 2, Type 0, BuildingBlock: BEQFEK_clean_sbu_0, # of connection points: 5
#     Node 3, Type 0, BuildingBlock: BEQFEK_clean_sbu_0, # of connection points: 5
#     Node 4, Type 0, BuildingBlock: BEQFEK_clean_sbu_0, # of connection points: 5
#     Node 5, Type 0, BuildingBlock: BEQFEK_clean_sbu_0, # of connection points: 5
#     Node 6, Type 0, BuildingBlock: BEQFEK_clean_sbu_0, # of connection points: 5
#     Node 7, Type 0, BuildingBlock: BEQFEK_clean_sbu_0, # of connection points: 5
#     Node 8, Type 0, BuildingBlock: BEQFEK_clean_sbu_0, # of connection points: 5
#     Node 9, Type 0, BuildingBlock: BEQFEK_clean_sbu_0, # of connection points: 5
#     Node 10, Type 0, BuildingBlock: BEQFEK_clean_sbu_0, # of connection points: 5
#     Node 11, Type 0, BuildingBlock: BEQFEK_clean_sbu_0, # of connection points: 5
#     Node 12, Type 0, BuildingBlock: BEQFEK_clean_sbu_0, # of connection points: 5
#     Node 13, Type 0, BuildingBlock: BEQFEK_clean_sbu_0, # of connection points: 5
#     Node 14, Type 0, BuildingBlock: BEQFEK_clean_sbu_0, # of connection points: 5
#     Node 15, Type 0, BuildingBlock: BEQFEK_clean_sbu_0, # of connection points: 5
#     Node 16, Type 0, BuildingBlock: BEQFEK_clean_sbu_0, # of connection points: 5
#     Node 17, Type 0, BuildingBlock: BEQFEK_clean_sbu_0, # of connection points: 5
#     Edge 18, Type (0, 0), BuildingBlock: ZUJKAS_clean_linker_0, # of connection points: 2
#     Edge 19, Type (0, 0), BuildingBlock: ZUJKAS_clean_linker_0, # of connection points: 2
#     Edge 20, Type (0, 0), BuildingBlock: ZUJKAS_clean_linker_0, # of connection points: 2
#     Edge 21, Type (0, 0), BuildingBlock: ZUJKAS_clean_linker_0, # of connection points: 2
#     Edge 22, Type (0, 0), BuildingBlock: ZUJKAS_clean_linker_0, # of connection points: 2
#     Edge 23, Type (0, 0), BuildingBlock: ZUJKAS_clean_linker_0, # of connection points: 2
#     Edge 24, Type (0, 0), BuildingBlock: ZUJKAS_clean_linker_0, # of connection points: 2
#     Edge 25, Type (0, 0), BuildingBlock: ZUJKAS_clean_linker_0, # of connection points: 2
#     Edge 26, Type (0, 0), BuildingBlock: ZUJKAS_clean_linker_0, # of connection points: 2
#     Edge 27, Type (0, 0), BuildingBlock: ZUJKAS_clean_linker_0, # of connection points: 2
#     Edge 28, Type (0, 0), BuildingBlock: ZUJKAS_clean_linker_0, # of connection points: 2
#     Edge 29, Type (0, 0), BuildingBlock: ZUJKAS_clean_linker_0, # of connection points: 2
#     Edge 30, Type (0, 0), BuildingBlock: ZUJKAS_clean_linker_0, # of connection points: 2
#     Edge 31, Type (0, 0), BuildingBlock: ZUJKAS_clean_linker_0, # of connection points: 2
#     Edge 32, Type (0, 0), BuildingBlock: ZUJKAS_clean_linker_0, # of connection points: 2
#     Edge 33, Type (0, 0), BuildingBlock: ZUJKAS_clean_linker_0, # of connection points: 2
#     Edge 34, Type (0, 0), BuildingBlock: ZUJKAS_clean_linker_0, # of connection points: 2
#     Edge 35, Type (0, 0), BuildingBlock: ZUJKAS_clean_linker_0, # of connection points: 2
#     Edge 36, Type (0, 0), BuildingBlock: ZUJKAS_clean_linker_0, # of connection points: 2
#     Edge 37, Type (0, 0), BuildingBlock: ZUJKAS_clean_linker_0, # of connection points: 2
#     Edge 38, Type (0, 0), BuildingBlock: ZUJKAS_clean_linker_0, # of connection points: 2
#     Edge 39, Type (0, 0), BuildingBlock: ZUJKAS_clean_linker_0, # of connection points: 2
#     Edge 40, Type (0, 0), BuildingBlock: ZUJKAS_clean_linker_0, # of connection points: 2
#     Edge 41, Type (0, 0), BuildingBlock: ZUJKAS_clean_linker_0, # of connection points: 2
#     Edge 42, Type (0, 0), BuildingBlock: ZUJKAS_clean_linker_0, # of connection points: 2
#     Edge 43, Type (0, 0), BuildingBlock: ZUJKAS_clean_linker_0, # of connection points: 2
#     Edge 44, Type (0, 0), BuildingBlock: ZUJKAS_clean_linker_0, # of connection points: 2
#     Edge 45, Type (0, 0), BuildingBlock: ZUJKAS_clean_linker_0, # of connection points: 2
#     Edge 46, Type (0, 0), BuildingBlock: ZUJKAS_clean_linker_0, # of connection points: 2
#     Edge 47, Type (0, 0), BuildingBlock: ZUJKAS_clean_linker_0, # of connection points: 2
#     Edge 48, Type (0, 0), BuildingBlock: ZUJKAS_clean_linker_0, # of connection points: 2
#     Edge 49, Type (0, 0), BuildingBlock: ZUJKAS_clean_linker_0, # of connection points: 2
#     Edge 50, Type (0, 0), BuildingBlock: ZUJKAS_clean_linker_0, # of connection points: 2
#     Edge 51, Type (0, 0), BuildingBlock: ZUJKAS_clean_linker_0, # of connection points: 2
#     Edge 52, Type (0, 0), BuildingBlock: ZUJKAS_clean_linker_0, # of connection points: 2
#     Edge 53, Type (0, 0), BuildingBlock: ZUJKAS_clean_linker_0, # of connection points: 2
#     Edge 54, Type (0, 0), BuildingBlock: ZUJKAS_clean_linker_0, # of connection points: 2
#     Edge 55, Type (0, 0), BuildingBlock: ZUJKAS_clean_linker_0, # of connection points: 2
#     Edge 56, Type (0, 0), BuildingBlock: ZUJKAS_clean_linker_0, # of connection points: 2
#     Edge 57, Type (0, 0), BuildingBlock: ZUJKAS_clean_linker_0, # of connection points: 2
#     Edge 58, Type (0, 0), BuildingBlock: ZUJKAS_clean_linker_0, # of connection points: 2
#     Edge 59, Type (0, 0), BuildingBlock: ZUJKAS_clean_linker_0, # of connection points: 2
#     Edge 60, Type (0, 0), BuildingBlock: ZUJKAS_clean_linker_0, # of connection points: 2
#     Edge 61, Type (0, 0), BuildingBlock: ZUJKAS_clean_linker_0, # of connection points: 2
#     Edge 62, Type (0, 0), BuildingBlock: ZUJKAS_clean_linker_0, # of connection points: 2
# Relax obj value: 0.246
# Max RMSD: 0.164
# Mean RMSD: 0.164
data_MOF--net-sth--node1-BEQFEK_clean_sbu_0--edge1-ZUJKAS_clean_linker_0
_symmetry_space_group_name_H-M    P1
_symmetry_Int_Tables_number       1
_symmetry_cell_setting            triclinic
loop_
_symmetry_equiv_pos_as_xyz
'x, y, z'
_cell_length_a     55.969081
_cell_length_b     55.977241
_cell_length_c     85.285509
_cell_angle_alpha  90.012102
_cell_angle_beta   89.995803
_cell_angle_gamma 119.9949
loop_
_atom_site_label
_atom_site_type_symbol
_atom_site_fract_x
_atom_site_fract_y
_atom_site_fract_z
_atom_type_partial_charge
Co0 Co 0.07262 0.24058 0.2311 0.0
Co1 Co 0.13334 0.28819 0.22449 0.0
C2 C 0.08564 0.28695 0.20823 0.0
O3 O 0.069 0.26506 0.21561 0.0
O4 O 0.11166 0.29823 0.21013 0.0
C5 C 0.01996 0.1965 0.22133 0.0
O6 O 0.02699 0.2102 0.20804 0.0
C7 C 0.18689 0.32162 0.20844 0.0
C8 C 0.21505 0.3384 0.22874 0.0
C9 C 0.21459 0.33776 0.2125 0.0
N10 N 0.1719 0.31306 0.2217 0.0
N11 N 0.18885 0.32347 0.23376 0.0
C12 C 0.17488 0.31235 0.19242 0.0
H13 H 0.1543 0.29343 0.1932 0.0
H14 H 0.18884 0.3084 0.185 0.0
H15 H 0.17232 0.32882 0.18683 0.0
C16 C 0.09825 0.2066 0.22414 0.0
N17 N 0.09948 0.23124 0.22479 0.0
N18 N 0.12496 0.25092 0.22201 0.0
C19 C 0.14081 0.23932 0.2196 0.0
C20 C 0.12437 0.21086 0.22086 0.0
C21 C 0.07254 0.17955 0.22695 0.0
H22 H 0.06432 0.17957 0.23879 0.0
H23 H 0.05677 0.17687 0.21819 0.0
H24 H 0.07615 0.16187 0.22589 0.0
O25 O 0.08297 0.25956 0.25181 0.0
O26 O 0.12512 0.29371 0.24629 0.0
H27 H 0.18047 0.27088 0.22753 0.0
H28 H 0.18067 0.24162 0.21888 0.0
C29 C 0.17157 0.25521 0.2181 0.0
H30 H 0.17722 0.26596 0.20664 0.0
H31 H 0.18261 0.31972 0.24547 0.0
O32 O 0.03623 0.20614 0.233 0.0
C33 C 0.10512 0.28129 0.25583 0.0
Co34 Co 0.7692 0.83281 0.23037 0.0
Co35 Co 0.72228 0.84718 0.22433 0.0
C36 C 0.72218 0.80009 0.20783 0.0
O37 O 0.74426 0.80505 0.21489 0.0
O38 O 0.71125 0.81506 0.21007 0.0
C39 C 0.81259 0.82334 0.2203 0.0
O40 O 0.79863 0.8167 0.2071 0.0
C41 C 0.68909 0.86775 0.20848 0.0
C42 C 0.67338 0.88016 0.22886 0.0
C43 C 0.67345 0.87983 0.21261 0.0
N44 N 0.6979 0.8615 0.22171 0.0
N45 N 0.68815 0.86868 0.23382 0.0
C46 C 0.69769 0.86436 0.19242 0.0
H47 H 0.71647 0.86243 0.19304 0.0
H48 H 0.70162 0.88211 0.18486 0.0
H49 H 0.68087 0.84526 0.18707 0.0
C50 C 0.8039 0.89239 0.22351 0.0
N51 N 0.77905 0.86922 0.22418 0.0
N52 N 0.75965 0.87548 0.22151 0.0
C53 C 0.77164 0.90296 0.21915 0.0
C54 C 0.80007 0.91455 0.22033 0.0
C55 C 0.83074 0.89327 0.22631 0.0
H56 H 0.83052 0.88482 0.23811 0.0
H57 H 0.83322 0.88014 0.2175 0.0
H58 H 0.84862 0.91446 0.22534 0.0
O59 O 0.75042 0.82414 0.25115 0.0
O60 O 0.71738 0.83411 0.24625 0.0
H61 H 0.741 0.91206 0.22751 0.0
H62 H 0.7701 0.94094 0.21833 0.0
C63 C 0.75616 0.91828 0.21783 0.0
H64 H 0.7448 0.91295 0.20656 0.0
H65 H 0.69223 0.86645 0.2455 0.0
O66 O 0.80336 0.83027 0.23203 0.0
C67 C 0.7295 0.82578 0.25554 0.0
Co68 Co 0.17632 0.93786 0.23102 0.0
Co69 Co 0.16247 0.87676 0.22482 0.0
C70 C 0.20962 0.92412 0.20859 0.0
O71 O 0.20439 0.94101 0.21568 0.0
O72 O 0.19477 0.89816 0.2107 0.0
C73 C 0.18598 0.9908 0.22104 0.0
O74 O 0.19319 0.98372 0.20795 0.0
C75 C 0.14227 0.82313 0.20882 0.0
C76 C 0.12995 0.79491 0.22913 0.0
C77 C 0.13031 0.7954 0.21289 0.0
N78 N 0.1484 0.83811 0.22207 0.0
N79 N 0.14128 0.82112 0.23415 0.0
C80 C 0.14566 0.8352 0.19277 0.0
H81 H 0.1475 0.85586 0.19344 0.0
H82 H 0.12796 0.82137 0.18519 0.0
H83 H 0.16481 0.83758 0.18743 0.0
C84 C 0.11687 0.91278 0.22367 0.0
N85 N 0.14008 0.91122 0.22459 0.0
N86 N 0.13402 0.88562 0.2219 0.0
C87 C 0.10661 0.87004 0.21931 0.0
C88 C 0.09486 0.88677 0.22033 0.0
C89 C 0.11584 0.93872 0.22624 0.0
H90 H 0.12373 0.94691 0.23813 0.0
H91 H 0.12939 0.95438 0.21755 0.0
H92 H 0.0947 0.93541 0.22488 0.0
O93 O 0.18477 0.92761 0.25183 0.0
O94 O 0.17523 0.88478 0.2468 0.0
H95 H 0.09784 0.8303 0.22748 0.0
H96 H 0.06878 0.8304 0.21849 0.0
C97 C 0.09145 0.83926 0.21789 0.0
H98 H 0.09673 0.83341 0.20654 0.0
H99 H 0.14344 0.82735 0.24584 0.0
O100 O 0.17862 0.97446 0.2327 0.0
C101 C 0.18327 0.90509 0.25616 0.0
Co102 Co 0.24204 0.06996 0.76962 0.0
Co103 Co 0.289 0.1309 0.77644 0.0
C104 C 0.28876 0.08368 0.79252 0.0
O105 O 0.26698 0.06699 0.78506 0.0
O106 O 0.29972 0.10971 0.79079 0.0
C107 C 0.19673 0.02032 0.78085 0.0
O108 O 0.20869 0.03111 0.79431 0.0
C109 C 0.32424 0.18495 0.79192 0.0
C110 C 0.3354 0.21293 0.77156 0.0
C111 C 0.33849 0.21271 0.78767 0.0
N112 N 0.31314 0.16975 0.77891 0.0
N113 N 0.32021 0.18662 0.76678 0.0
C114 C 0.3189 0.17302 0.80809 0.0
H115 H 0.30036 0.15211 0.80817 0.0
H116 H 0.31605 0.18659 0.81645 0.0
H117 H 0.33687 0.17123 0.81197 0.0
C118 C 0.20742 0.09515 0.77618 0.0
N119 N 0.23215 0.09651 0.77575 0.0
N120 N 0.2516 0.12182 0.77913 0.0
C121 C 0.23974 0.13729 0.78197 0.0
C122 C 0.21136 0.1209 0.78021 0.0
C123 C 0.18097 0.07065 0.77092 0.0
H124 H 0.18482 0.06071 0.76075 0.0
H125 H 0.17242 0.0555 0.78065 0.0
H126 H 0.16544 0.0765 0.76753 0.0
O127 O 0.26096 0.08007 0.749 0.0
O128 O 0.29428 0.1227 0.75447 0.0
H129 H 0.26776 0.17921 0.77572 0.0
H130 H 0.24133 0.17509 0.78945 0.0
C131 C 0.25532 0.16733 0.78598 0.0
H132 H 0.2695 0.17073 0.79585 0.0
H133 H 0.314 0.18019 0.75527 0.0
O134 O 0.20799 0.03322 0.76825 0.0
C135 C 0.28226 0.10256 0.74495 0.0
Co136 Co 0.93875 0.17429 0.76949 0.0
Co137 Co 0.87791 0.16046 0.77642 0.0
C138 C 0.92527 0.20665 0.7929 0.0
O139 O 0.94205 0.20187 0.78531 0.0
O140 O 0.89928 0.19172 0.79103 0.0
C141 C 0.99039 0.18136 0.77969 0.0
O142 O 0.98171 0.18531 0.79323 0.0
C143 C 0.82431 0.14 0.79246 0.0
C144 C 0.79617 0.12869 0.77215 0.0
C145 C 0.79661 0.12849 0.78839 0.0
N146 N 0.8393 0.14643 0.7792 0.0
N147 N 0.82236 0.1399 0.76713 0.0
C148 C 0.83635 0.14279 0.80846 0.0
H149 H 0.85694 0.14447 0.80768 0.0
H150 H 0.82243 0.1249 0.8159 0.0
H151 H 0.83893 0.16185 0.81405 0.0
C152 C 0.91351 0.11447 0.77577 0.0
N153 N 0.91211 0.1378 0.77548 0.0
N154 N 0.88663 0.13177 0.77854 0.0
C155 C 0.87102 0.10429 0.78089 0.0
C156 C 0.88757 0.09247 0.77922 0.0
C157 C 0.93916 0.11328 0.77241 0.0
H158 H 0.94785 0.12322 0.76095 0.0
H159 H 0.95465 0.12487 0.78162 0.0
H160 H 0.93533 0.09184 0.77231 0.0
O161 O 0.92836 0.18336 0.74894 0.0
O162 O 0.88614 0.17488 0.75475 0.0
H163 H 0.8309 0.09545 0.77343 0.0
H164 H 0.83145 0.06652 0.78234 0.0
C165 C 0.84033 0.08921 0.78282 0.0
H166 H 0.83508 0.09472 0.79428 0.0
H167 H 0.82863 0.14245 0.75543 0.0
O168 O 0.9754 0.17681 0.76759 0.0
C169 C 0.90609 0.18287 0.74513 0.0
Co170 Co 0.83466 0.76701 0.7691 0.0
Co171 Co 0.84888 0.72025 0.77638 0.0
C172 C 0.80052 0.71984 0.79134 0.0
O173 O 0.80584 0.74183 0.78405 0.0
O174 O 0.81583 0.70913 0.78981 0.0
C175 C 0.82774 0.81146 0.77948 0.0
O176 O 0.82413 0.79888 0.793 0.0
C177 C 0.86663 0.68427 0.79242 0.0
C178 C 0.88443 0.67355 0.77234 0.0
C179 C 0.88001 0.66981 0.78835 0.0
N180 N 0.8638 0.6963 0.77941 0.0
N181 N 0.87433 0.68959 0.76747 0.0
C182 C 0.85601 0.68605 0.80823 0.0
H183 H 0.83837 0.68965 0.80709 0.0
H184 H 0.87257 0.70363 0.81481 0.0
H185 H 0.84953 0.66684 0.81501 0.0
C186 C 0.89396 0.80186 0.77688 0.0
N187 N 0.87076 0.77703 0.77604 0.0
N188 N 0.87667 0.75767 0.77956 0.0
C189 C 0.90382 0.76965 0.7829 0.0
C190 C 0.9157 0.79805 0.78131 0.0
C191 C 0.89585 0.82828 0.77161 0.0
H192 H 0.88317 0.8246 0.76093 0.0
H193 H 0.88775 0.836 0.781 0.0
H194 H 0.91742 0.84432 0.76899 0.0
O195 O 0.8273 0.74838 0.74844 0.0
O196 O 0.83702 0.7154 0.7541 0.0
H197 H 0.91897 0.74258 0.77683 0.0
H198 H 0.93955 0.76814 0.79141 0.0
C199 C 0.91825 0.75416 0.7872 0.0
H200 H 0.9066 0.73918 0.7966 0.0
H201 H 0.87493 0.69628 0.75598 0.0
O202 O 0.83188 0.80094 0.76728 0.0
C203 C 0.82917 0.72744 0.74442 0.0
Co204 Co 0.73845 0.57347 0.56417 0.0
Co205 Co 0.7994 0.62027 0.5571 0.0
C206 C 0.75218 0.62018 0.54121 0.0
O207 O 0.73544 0.5983 0.54858 0.0
O208 O 0.77819 0.63127 0.54306 0.0
C209 C 0.68779 0.52868 0.55326 0.0
O210 O 0.69737 0.5413 0.5398 0.0
C211 C 0.8534 0.65599 0.54163 0.0
C212 C 0.88149 0.66602 0.56187 0.0
C213 C 0.8812 0.66997 0.54585 0.0
N214 N 0.83826 0.64426 0.55459 0.0
N215 N 0.8552 0.65064 0.56664 0.0
C216 C 0.84134 0.65152 0.52552 0.0
H217 H 0.82034 0.63311 0.52531 0.0
H218 H 0.85473 0.64889 0.51692 0.0
H219 H 0.83971 0.66976 0.52207 0.0
C220 C 0.76357 0.53881 0.55776 0.0
N221 N 0.76489 0.56352 0.55799 0.0
N222 N 0.79001 0.58286 0.5542 0.0
C223 C 0.80533 0.57095 0.55109 0.0
C224 C 0.78914 0.54262 0.55332 0.0
C225 C 0.73939 0.5127 0.56367 0.0
H226 H 0.72989 0.51722 0.57381 0.0
H227 H 0.72376 0.50346 0.55421 0.0
H228 H 0.74548 0.4975 0.56736 0.0
O229 O 0.74884 0.59241 0.58479 0.0
O230 O 0.79158 0.62531 0.57917 0.0
H231 H 0.8479 0.5982 0.55635 0.0
H232 H 0.84204 0.57245 0.54169 0.0
C233 C 0.83496 0.58645 0.54619 0.0
H234 H 0.83765 0.60123 0.53681 0.0
H235 H 0.84882 0.64387 0.57809 0.0
O236 O 0.70175 0.53933 0.56566 0.0
C237 C 0.77158 0.61347 0.58879 0.0
Co238 Co 0.43557 0.1663 0.56468 0.0
Co239 Co 0.38834 0.18005 0.55822 0.0
C240 C 0.38869 0.13298 0.54208 0.0
O241 O 0.41057 0.13809 0.54942 0.0
O242 O 0.37778 0.14807 0.54391 0.0
C243 C 0.4794 0.15819 0.55421 0.0
O244 O 0.46582 0.15292 0.54092 0.0
C245 C 0.35459 0.19986 0.5422 0.0
C246 C 0.33827 0.21174 0.56251 0.0
C247 C 0.33837 0.21136 0.54626 0.0
N248 N 0.36364 0.19398 0.55546 0.0
N249 N 0.35356 0.20088 0.56754 0.0
C250 C 0.36336 0.19652 0.52617 0.0
H251 H 0.3824 0.19505 0.52685 0.0
H252 H 0.36695 0.21407 0.51854 0.0
H253 H 0.3468 0.17718 0.52088 0.0
C254 C 0.46992 0.22591 0.55765 0.0
N255 N 0.44518 0.2026 0.55834 0.0
N256 N 0.42564 0.20858 0.55548 0.0
C257 C 0.43742 0.236 0.55291 0.0
C258 C 0.46586 0.24784 0.55418 0.0
C259 C 0.49687 0.22713 0.56063 0.0
H260 H 0.50002 0.21472 0.55161 0.0
H261 H 0.51456 0.24849 0.5601 0.0
H262 H 0.49633 0.21805 0.57228 0.0
O263 O 0.41683 0.15777 0.58541 0.0
O264 O 0.38329 0.16687 0.58019 0.0
H265 H 0.43551 0.27372 0.55154 0.0
H266 H 0.41053 0.24532 0.53987 0.0
C267 C 0.42173 0.25103 0.55119 0.0
H268 H 0.4064 0.24492 0.56078 0.0
H269 H 0.35767 0.19877 0.57923 0.0
O270 O 0.4698 0.16388 0.56627 0.0
C271 C 0.39558 0.15894 0.58962 0.0
Co272 Co 0.84116 0.26908 0.56415 0.0
Co273 Co 0.82882 0.20859 0.55713 0.0
C274 C 0.87582 0.25718 0.54167 0.0
O275 O 0.87004 0.27358 0.54889 0.0
O276 O 0.86126 0.23114 0.54348 0.0
C277 C 0.85513 0.32524 0.55713 0.0
O278 O 0.87068 0.32367 0.54612 0.0
C279 C 0.81168 0.15531 0.54089 0.0
C280 C 0.79686 0.12676 0.56108 0.0
C281 C 0.79973 0.12756 0.54492 0.0
N282 N 0.81519 0.17 0.55406 0.0
N283 N 0.80647 0.15277 0.56606 0.0
C284 C 0.82043 0.16785 0.52493 0.0
H285 H 0.8376 0.1894 0.5258 0.0
H286 H 0.80287 0.1681 0.51906 0.0
H287 H 0.82693 0.15568 0.51763 0.0
C288 C 0.78196 0.24324 0.5563 0.0
N289 N 0.80542 0.24215 0.55731 0.0
N290 N 0.80001 0.21688 0.55425 0.0
C291 C 0.77278 0.20104 0.55124 0.0
C292 C 0.76046 0.21723 0.5524 0.0
C293 C 0.77979 0.26792 0.56086 0.0
H294 H 0.78955 0.27546 0.5725 0.0
H295 H 0.79115 0.28463 0.55219 0.0
H296 H 0.75809 0.26324 0.56147 0.0
O297 O 0.84926 0.25825 0.58483 0.0
O298 O 0.84151 0.21622 0.57916 0.0
H299 H 0.76025 0.15972 0.55819 0.0
H300 H 0.73664 0.16235 0.54475 0.0
C301 C 0.75868 0.17079 0.54781 0.0
H302 H 0.76911 0.16713 0.53785 0.0
H303 H 0.80674 0.15875 0.57768 0.0
O304 O 0.84184 0.30487 0.5663 0.0
C305 C 0.84874 0.23603 0.58881 0.0
Co306 Co 0.9095 0.40283 0.10311 0.0
Co307 Co 0.95677 0.46376 0.11003 0.0
C308 C 0.95561 0.41576 0.12606 0.0
O309 O 0.93378 0.39899 0.11868 0.0
O310 O 0.96668 0.44175 0.12417 0.0
C311 C 0.86552 0.34957 0.11231 0.0
O312 O 0.8793 0.35594 0.12556 0.0
C313 C 0.9901 0.51729 0.12649 0.0
C314 C 0.00891 0.5453 0.10629 0.0
C315 C 0.0075 0.54487 0.12252 0.0
N316 N 0.98149 0.50239 0.11318 0.0
N317 N 0.99295 0.51929 0.10119 0.0
C318 C 0.9827 0.50497 0.14256 0.0
H319 H 0.97634 0.48279 0.14221 0.0
H320 H 0.9651 0.50675 0.1471 0.0
H321 H 1.00041 0.51605 0.15068 0.0
C322 C 0.87514 0.42808 0.10998 0.0
N323 N 0.89988 0.42949 0.10949 0.0
N324 N 0.91939 0.45504 0.11229 0.0
C325 C 0.9076 0.47077 0.11447 0.0
C326 C 0.87917 0.45417 0.11311 0.0
C327 C 0.84822 0.40225 0.10711 0.0
H328 H 0.84821 0.39436 0.09517 0.0
H329 H 0.84582 0.38635 0.1157 0.0
H330 H 0.83039 0.40559 0.10838 0.0
O331 O 0.929 0.41369 0.08253 0.0
O332 O 0.96274 0.45597 0.08826 0.0
H333 H 0.93914 0.51027 0.10634 0.0
H334 H 0.90968 0.51054 0.11468 0.0
C335 C 0.92335 0.50156 0.11572 0.0
H336 H 0.93401 0.50756 0.1272 0.0
H337 H 0.98969 0.51308 0.08947 0.0
O338 O 0.87509 0.3664 0.10088 0.0
C339 C 0.95068 0.43601 0.07864 0.0
Co340 Co 0.6071 0.50821 0.10324 0.0
Co341 Co 0.54583 0.49417 0.10933 0.0
C342 C 0.59353 0.54151 0.12556 0.0
O343 O 0.6106 0.53629 0.11868 0.0
O344 O 0.56764 0.52668 0.12323 0.0
C345 C 0.66063 0.51816 0.11257 0.0
O346 O 0.65443 0.52608 0.1257 0.0
C347 C 0.49232 0.47406 0.12572 0.0
C348 C 0.46423 0.46454 0.10553 0.0
C349 C 0.46471 0.46376 0.12176 0.0
N350 N 0.50718 0.48021 0.11241 0.0
N351 N 0.49023 0.47457 0.10042 0.0
C352 C 0.50471 0.47918 0.14178 0.0
H353 H 0.52689 0.495 0.14139 0.0
H354 H 0.50297 0.45986 0.1464 0.0
H355 H 0.49366 0.48589 0.14987 0.0
C356 C 0.58193 0.44866 0.11039 0.0
N357 N 0.58041 0.47191 0.10963 0.0
N358 N 0.55474 0.46576 0.11212 0.0
C359 C 0.53904 0.43826 0.11433 0.0
C360 C 0.55579 0.42653 0.11335 0.0
C361 C 0.60793 0.4477 0.10795 0.0
H362 H 0.62368 0.46168 0.11647 0.0
H363 H 0.60474 0.42666 0.10963 0.0
H364 H 0.61592 0.45508 0.09596 0.0
O365 O 0.59664 0.51682 0.08252 0.0
O366 O 0.55358 0.5068 0.08734 0.0
H367 H 0.49932 0.40049 0.11399 0.0
H368 H 0.50168 0.42748 0.12655 0.0
C369 C 0.50819 0.4231 0.11515 0.0
H370 H 0.49983 0.43032 0.10566 0.0
H371 H 0.49639 0.47737 0.0887 0.0
O372 O 0.6436 0.51034 0.10122 0.0
C373 C 0.57407 0.51511 0.07808 0.0
Co374 Co 0.50148 0.10031 0.10314 0.0
Co375 Co 0.51504 0.05292 0.10986 0.0
C376 C 0.46801 0.05382 0.12585 0.0
O377 O 0.47312 0.07574 0.11855 0.0
O378 O 0.48299 0.04283 0.12393 0.0
C379 C 0.49172 0.14388 0.11253 0.0
O380 O 0.48357 0.12946 0.12555 0.0
C381 C 0.53519 0.0196 0.12629 0.0
C382 C 0.54397 1.00039 0.10613 0.0
C383 C 0.54519 1.00204 0.12234 0.0
N384 N 0.5288 0.02809 0.11298 0.0
N385 N 0.53399 0.0164 0.101 0.0
C386 C 0.53052 0.02726 0.14235 0.0
H387 H 0.51476 0.03371 0.14203 0.0
H388 H 0.55 0.04488 0.14679 0.0
H389 H 0.52394 0.00966 0.15055 0.0
C390 C 0.56104 0.13451 0.11017 0.0
N391 N 0.53769 0.1098 0.10961 0.0
N392 N 0.54371 0.09023 0.11228 0.0
C393 C 0.57123 0.10195 0.11442 0.0
C394 C 0.5831 0.13041 0.11319 0.0
C395 C 0.56216 0.16148 0.10746 0.0
H396 H 0.55463 0.16177 0.09546 0.0
H397 H 0.54839 0.16364 0.11596 0.0
H398 H 0.58328 0.17928 0.10896 0.0
O399 O 0.4931 0.08114 0.08243 0.0
O400 O 0.50152 0.04728 0.08805 0.0
H401 H 0.57886 0.07029 0.10607 0.0
H402 H 0.60888 0.09977 0.11415 0.0
C403 C 0.58627 0.08616 0.11542 0.0
H404 H 0.58196 0.07559 0.12691 0.0
H405 H 0.53091 0.01951 0.08929 0.0
O406 O 0.49957 0.13482 0.10112 0.0
C407 C 0.49378 0.05951 0.07846 0.0
Co408 Co 0.40403 0.90666 0.89805 0.0
Co409 Co 0.46467 0.95384 0.89048 0.0
C410 C 0.41652 0.95339 0.87542 0.0
O411 O 0.40009 0.93168 0.88301 0.0
O412 O 0.44259 0.96415 0.87671 0.0
C413 C 0.35275 0.86213 0.88763 0.0
O414 O 0.36158 0.87515 0.8742 0.0
C415 C 0.51839 0.98937 0.87439 0.0
C416 C 0.54664 1.00275 0.89472 0.0
C417 C 0.54611 0.00489 0.87856 0.0
N418 N 0.50344 0.97827 0.88749 0.0
N419 N 0.52051 0.98657 0.89958 0.0
C420 C 0.50616 0.98583 0.85836 0.0
H421 H 0.48462 0.98152 0.8591 0.0
H422 H 0.50596 0.96808 0.85245 0.0
H423 H 0.51857 0.00458 0.85115 0.0
C424 C 0.42911 0.87226 0.89071 0.0
N425 N 0.4304 0.89696 0.89123 0.0
N426 N 0.45566 0.91647 0.88781 0.0
C427 C 0.47121 0.90471 0.88494 0.0
C428 C 0.4549 0.87631 0.88665 0.0
C429 C 0.40464 0.8458 0.89598 0.0
H430 H 0.39573 0.84944 0.90671 0.0
H431 H 0.38872 0.83815 0.88664 0.0
H432 H 0.41017 0.82973 0.8985 0.0
O433 O 0.41526 0.92548 0.91872 0.0
O434 O 0.45721 0.95937 0.91252 0.0
H435 H 0.51292 0.93296 0.89147 0.0
H436 H 0.50932 0.90656 0.87784 0.0
C437 C 0.50134 0.92045 0.88116 0.0
H438 H 0.50486 0.9346 0.87126 0.0
H439 H 0.51433 0.9809 0.91117 0.0
O440 O 0.36745 0.8724 0.89984 0.0
C441 C 0.4377 0.94719 0.92241 0.0
Co442 Co 0.10237 0.49938 0.89773 0.0
Co443 Co 0.05478 0.51252 0.89081 0.0
C444 C 0.05591 0.46533 0.87518 0.0
O445 O 0.07796 0.4708 0.88245 0.0
O446 O 0.04468 0.48012 0.877 0.0
C447 C 0.14623 0.49001 0.88855 0.0
O448 O 0.13232 0.48241 0.87534 0.0
C449 C 0.0209 0.53189 0.8742 0.0
C450 C 1.00258 0.54185 0.89434 0.0
C451 C 1.00356 0.54218 0.8781 0.0
N452 N 0.0299 0.52617 0.88756 0.0
N453 N 0.01872 0.53206 0.89952 0.0
C454 C 0.02795 0.52636 0.85818 0.0
H455 H 0.0344 0.51062 0.85869 0.0
H456 H 0.0454 0.54559 0.85338 0.0
H457 H 0.01003 0.51935 0.85017 0.0
C458 C 0.1364 0.55877 0.89029 0.0
N459 N 0.11173 0.5354 0.89104 0.0
N460 N 0.09207 0.54123 0.88821 0.0
C461 C 0.10371 0.56865 0.88574 0.0
C462 C 0.13218 0.58065 0.88695 0.0
C463 C 0.16344 0.56008 0.89309 0.0
H464 H 0.16575 0.54637 0.88462 0.0
H465 H 0.18118 0.58124 0.89161 0.0
H466 H 0.16371 0.55257 0.9051 0.0
O467 O 0.08325 0.49126 0.9184 0.0
O468 O 0.0493 0.49953 0.91276 0.0
H469 H 0.10141 0.60622 0.88508 0.0
H470 H 0.07687 0.57836 0.87293 0.0
C471 C 0.08781 0.58353 0.88433 0.0
H472 H 0.07223 0.57676 0.89382 0.0
H473 H 0.02231 0.52961 0.91125 0.0
O474 O 0.13681 0.49749 0.89995 0.0
C475 C 0.06165 0.49199 0.92238 0.0
Co476 Co 0.50994 0.60458 0.89768 0.0
Co477 Co 0.49642 0.54355 0.89119 0.0
C478 C 0.54362 0.59159 0.87524 0.0
O479 O 0.53834 0.60837 0.88243 0.0
O480 O 0.52869 0.56561 0.87718 0.0
C481 C 0.51765 0.65675 0.88773 0.0
O482 O 0.52307 0.64896 0.8743 0.0
C483 C 0.4766 0.49004 0.87475 0.0
C484 C 0.46782 0.46211 0.89494 0.0
C485 C 0.46677 0.46252 0.87872 0.0
N486 N 0.48278 0.50494 0.88806 0.0
N487 N 0.47756 0.48807 0.90005 0.0
C488 C 0.48133 0.50231 0.85868 0.0
H489 H 0.4969 0.52458 0.85901 0.0
H490 H 0.4618 0.50019 0.85413 0.0
H491 H 0.48819 0.49142 0.85056 0.0
C492 C 0.4503 0.57896 0.89068 0.0
N493 N 0.47372 0.57772 0.89123 0.0
N494 N 0.4678 0.55216 0.88856 0.0
C495 C 0.44029 0.53627 0.88641 0.0
C496 C 0.42833 0.55277 0.88764 0.0
C497 C 0.44899 0.60469 0.89348 0.0
H498 H 0.46181 0.6203 0.88459 0.0
H499 H 0.42767 0.60106 0.89259 0.0
H500 H 0.45754 0.61311 0.90524 0.0
O501 O 0.51851 0.59408 0.91835 0.0
O502 O 0.5093 0.55137 0.91319 0.0
H503 H 0.40272 0.49639 0.88654 0.0
H504 H 0.42993 0.49918 0.87402 0.0
C505 C 0.42536 0.50545 0.88544 0.0
H506 H 0.43263 0.49706 0.8949 0.0
H507 H 0.48048 0.49427 0.91176 0.0
O508 O 0.51202 0.64108 0.89961 0.0
C509 C 0.51727 0.57163 0.9226 0.0
Co510 Co 0.57554 0.73505 0.43573 0.0
Co511 Co 0.62257 0.79602 0.44257 0.0
C512 C 0.62218 0.74823 0.45833 0.0
O513 O 0.60004 0.73143 0.45122 0.0
O514 O 0.63333 0.77418 0.45627 0.0
C515 C 0.53033 0.68525 0.44664 0.0
O516 O 0.54231 0.69582 0.46013 0.0
C517 C 0.65856 0.84957 0.45865 0.0
C518 C 0.67047 0.87817 0.43854 0.0
C519 C 0.67356 0.87737 0.45461 0.0
N520 N 0.64683 0.83481 0.44557 0.0
N521 N 0.65424 0.85208 0.43361 0.0
C522 C 0.65605 0.83711 0.47453 0.0
H523 H 0.65253 0.81589 0.4735 0.0
H524 H 0.63814 0.83603 0.48076 0.0
H525 H 0.67492 0.84981 0.48158 0.0
C526 C 0.54097 0.76019 0.4428 0.0
N527 N 0.56569 0.76155 0.44213 0.0
N528 N 0.5852 0.78682 0.44552 0.0
C529 C 0.57341 0.80228 0.44861 0.0
C530 C 0.54499 0.78591 0.447 0.0
C531 C 0.51441 0.73572 0.43764 0.0
H532 H 0.51804 0.72589 0.42733 0.0
H533 H 0.5061 0.72048 0.44732 0.0
H534 H 0.4988 0.74159 0.43448 0.0
O535 O 0.59466 0.74565 0.41512 0.0
O536 O 0.62756 0.78854 0.42046 0.0
H537 H 0.60103 0.84427 0.44234 0.0
H538 H 0.57525 0.83993 0.45662 0.0
C539 C 0.58912 0.83227 0.45271 0.0
H540 H 0.60381 0.83561 0.46228 0.0
H541 H 0.64793 0.84607 0.42207 0.0
O542 O 0.5415 0.69841 0.4341 0.0
C543 C 0.61562 0.76835 0.41097 0.0
Co544 Co 0.27348 0.84138 0.43639 0.0
Co545 Co 0.21253 0.82761 0.44336 0.0
C546 C 0.26048 0.87529 0.45884 0.0
O547 O 0.27715 0.86994 0.45157 0.0
O548 O 0.23447 0.8602 0.45712 0.0
C549 C 0.32352 0.846 0.44724 0.0
O550 O 0.31333 0.84788 0.46077 0.0
C551 C 0.15873 0.80942 0.45939 0.0
C552 C 0.13062 0.79534 0.43899 0.0
C553 C 0.13109 0.79772 0.45516 0.0
N554 N 0.17372 0.81334 0.44629 0.0
N555 N 0.15673 0.805 0.43417 0.0
C556 C 0.17083 0.81765 0.47548 0.0
H557 H 0.19264 0.83434 0.47485 0.0
H558 H 0.1702 0.79969 0.48138 0.0
H559 H 0.15881 0.82453 0.48263 0.0
C560 C 0.24824 0.78174 0.44355 0.0
N561 N 0.24693 0.80513 0.44296 0.0
N562 N 0.22159 0.79933 0.44623 0.0
C563 C 0.20603 0.77202 0.44907 0.0
C564 C 0.22242 0.75998 0.44751 0.0
C565 C 0.27274 0.77967 0.4384 0.0
H566 H 0.28241 0.79292 0.428 0.0
H567 H 0.28809 0.7869 0.44804 0.0
H568 H 0.26698 0.75817 0.4354 0.0
O569 O 0.2628 0.84955 0.41573 0.0
O570 O 0.22013 0.84014 0.42122 0.0
H571 H 0.16446 0.75874 0.4423 0.0
H572 H 0.16775 0.73566 0.45584 0.0
C573 C 0.17583 0.75758 0.45265 0.0
H574 H 0.17212 0.76804 0.46258 0.0
H575 H 0.16295 0.80567 0.42257 0.0
O576 O 0.31011 0.84382 0.43477 0.0
C577 C 0.24018 0.84807 0.41165 0.0
Co578 Co 0.16841 0.43342 0.43633 0.0
Co579 Co 0.18145 0.38585 0.44379 0.0
C580 C 0.13472 0.38737 0.45941 0.0
O581 O 0.14015 0.4092 0.4519 0.0
O582 O 0.1494 0.37599 0.45774 0.0
C583 C 0.1638 0.47912 0.44682 0.0
O584 O 0.16152 0.46715 0.46042 0.0
C585 C 0.19933 0.34981 0.45966 0.0
C586 C 0.21468 0.33713 0.43925 0.0
C587 C 0.2117 0.3345 0.45537 0.0
N588 N 0.19568 0.36127 0.44665 0.0
N589 N 0.20474 0.35339 0.43451 0.0
C590 C 0.19027 0.35279 0.47571 0.0
H591 H 0.17285 0.35682 0.47496 0.0
H592 H 0.20759 0.37053 0.48176 0.0
H593 H 0.18404 0.33392 0.48276 0.0
C594 C 0.22807 0.46741 0.4433 0.0
N595 N 0.20455 0.44283 0.44276 0.0
N596 N 0.21005 0.42318 0.44628 0.0
C597 C 0.23729 0.43474 0.4493 0.0
C598 C 0.24959 0.46315 0.44753 0.0
C599 C 0.23041 0.494 0.43799 0.0
H600 H 0.21718 0.49038 0.42757 0.0
H601 H 0.22328 0.50238 0.44755 0.0
H602 H 0.25197 0.50954 0.43496 0.0
O603 O 0.15981 0.41404 0.4158 0.0
O604 O 0.16793 0.38014 0.42188 0.0
H605 H 0.25089 0.4064 0.44327 0.0
H606 H 0.27303 0.43261 0.45716 0.0
C607 C 0.25134 0.41885 0.4535 0.0
H608 H 0.24013 0.40462 0.46327 0.0
H609 H 0.20445 0.35941 0.42297 0.0
O610 O 0.16631 0.46779 0.43447 0.0
C611 C 0.16032 0.39222 0.4121 0.0
H612 H 0.41825 0.46622 0.11617 0.0
H613 H 0.37573 0.44597 0.13161 0.0
H614 H 0.41192 0.41598 0.1653 0.0
H615 H 0.45422 0.43556 0.14979 0.0
H616 H 0.34263 0.38871 0.13969 0.0
H617 H 0.38094 0.45638 0.19222 0.0
H618 H 0.39883 0.46587 0.17364 0.0
H619 H 0.40137 0.44144 0.18615 0.0
C620 C 0.41728 0.45555 0.12695 0.0
C621 C 0.43996 0.45316 0.13193 0.0
C622 C 0.39297 0.444 0.13574 0.0
C623 C 0.39086 0.42987 0.1497 0.0
C624 C 0.4134 0.42741 0.15474 0.0
H625 H 0.26409 0.34225 0.21889 0.0
H626 H 0.30603 0.36405 0.20304 0.0
C627 C 0.43772 0.43888 0.14592 0.0
C628 C 0.36461 0.41662 0.15859 0.0
H629 H 0.33599 0.41753 0.19376 0.0
C630 C 0.34107 0.39506 0.15148 0.0
C631 C 0.36275 0.42496 0.17397 0.0
C632 C 0.38722 0.44857 0.18195 0.0
C633 C 0.3158 0.38112 0.15949 0.0
C634 C 0.31392 0.38944 0.1749 0.0
C635 C 0.33746 0.41118 0.18195 0.0
C636 C 0.28797 0.37547 0.18411 0.0
C637 C 0.29162 0.35709 0.15157 0.0
C638 C 0.26385 0.37474 0.17879 0.0
C639 C 0.23972 0.36209 0.18781 0.0
C640 C 0.2394 0.35016 0.20236 0.0
C641 C 0.26366 0.35119 0.2077 0.0
C642 C 0.28765 0.36364 0.19866 0.0
H643 H 0.29831 0.34886 0.1417 0.0
H644 H 0.2797 0.34013 0.16002 0.0
H645 H 0.27766 0.36402 0.14676 0.0
H646 H 0.26382 0.38442 0.1678 0.0
H647 H 0.22167 0.36245 0.18361 0.0
H648 H 0.64778 0.86169 0.18398 0.0
H649 H 0.62617 0.88227 0.16811 0.0
H650 H 0.64784 0.94547 0.20308 0.0
H651 H 0.66985 0.9254 0.21883 0.0
H652 H 0.58193 0.89166 0.17825 0.0
H653 H 0.67654 0.98859 0.16125 0.0
H654 H 0.67741 0.95855 0.16819 0.0
H655 H 0.67337 0.98074 0.18183 0.0
C656 C 0.64851 0.88032 0.18811 0.0
C657 C 0.661 0.89224 0.20252 0.0
C658 C 0.63591 0.89188 0.17911 0.0
C659 C 0.6358 0.91561 0.18433 0.0
C660 C 0.64813 0.92744 0.19872 0.0
H661 H 0.57449 0.02054 0.14996 0.0
H662 H 0.59436 0.99811 0.16546 0.0
C663 C 0.66054 0.91584 0.20774 0.0
C664 C 0.62195 0.92759 0.17508 0.0
H665 H 0.63372 0.98593 0.15582 0.0
C666 C 0.59322 0.91218 0.17323 0.0
C667 C 0.63677 0.95443 0.16868 0.0
C668 C 0.66776 0.97153 0.16994 0.0
C669 C 0.57878 0.92318 0.16542 0.0
C670 C 0.59359 0.95007 0.15901 0.0
C671 C 0.62237 0.96538 0.16079 0.0
C672 C 0.57977 0.96262 0.1502 0.0
C673 C 0.54773 0.90619 0.16448 0.0
C674 C 0.56497 0.95017 0.13646 0.0
C675 C 0.55316 0.96273 0.12773 0.0
C676 C 0.55597 0.98806 0.13251 0.0
C677 C 0.57091 1.00056 0.14625 0.0
C678 C 0.58266 0.98793 0.15501 0.0
H679 H 0.53916 0.8899 0.17364 0.0
H680 H 0.53819 0.91935 0.16579 0.0
H681 H 0.54174 0.89589 0.15288 0.0
H682 H 0.56306 0.93102 0.13229 0.0
H683 H 0.54207 0.95274 0.11709 0.0
H684 H 0.05654 0.59124 0.11701 0.0
H685 H 0.07866 0.63384 0.13238 0.0
H686 H 0.01206 0.59794 0.16582 0.0
H687 H 0.98951 0.55555 0.15038 0.0
H688 H 0.05468 0.6671 0.14006 0.0
H689 H 0.08287 0.62901 0.19312 0.0
H690 H 0.07462 0.61091 0.17461 0.0
H691 H 0.04755 0.60864 0.18694 0.0
C692 C 0.04672 0.59229 0.12773 0.0
C693 C 0.02157 0.56966 0.13266 0.0
C694 C 0.05939 0.61665 0.13648 0.0
C695 C 0.04722 0.61887 0.15035 0.0
C696 C 0.02214 0.59638 0.15534 0.0
H697 H 0.08495 0.74604 0.21902 0.0
H698 H 0.06514 0.70406 0.20322 0.0
C699 C 0.00938 0.572 0.14656 0.0
C700 C 0.06012 0.64518 0.15919 0.0
H701 H 0.08891 0.67397 0.19446 0.0
C702 C 0.06232 0.66871 0.15193 0.0
C703 C 0.06997 0.64711 0.17465 0.0
C704 C 0.0689 0.62267 0.1828 0.0
C705 C 0.07355 0.69403 0.15988 0.0
C706 C 0.08338 0.69597 0.17538 0.0
C707 C 0.08136 0.67245 0.18257 0.0
C708 C 0.09517 0.72196 0.18455 0.0
C709 C 0.07398 0.71821 0.15179 0.0
C710 C 0.11876 0.74601 0.17935 0.0
C711 C 0.13007 0.77017 0.18835 0.0
C712 C 0.11807 0.77058 0.20275 0.0
C713 C 0.09462 0.7464 0.20796 0.0
C714 C 0.08326 0.72238 0.19894 0.0
H715 H 0.05933 0.71152 0.14177 0.0
H716 H 0.06871 0.73017 0.16009 0.0
H717 H 0.095 0.73213 0.14715 0.0
H718 H 0.12875 0.74596 0.16849 0.0
H719 H 0.14864 0.78815 0.18425 0.0
H720 H 0.43738 0.45124 0.8511 0.0
H721 H 0.41767 0.40869 0.83576 0.0
H722 H 0.45098 0.37434 0.86856 0.0
H723 H 0.47114 0.417 0.88385 0.0
H724 H 0.44378 0.38089 0.8217 0.0
H725 H 0.36765 0.3174 0.86748 0.0
H726 H 0.3858 0.35463 0.86776 0.0
H727 H 0.40289 0.33631 0.87397 0.0
C728 C 0.44121 0.43502 0.85485 0.0
C729 C 0.45629 0.43776 0.86857 0.0
C730 C 0.42962 0.41053 0.84615 0.0
C731 C 0.4326 0.38827 0.85113 0.0
C732 C 0.44806 0.39112 0.86465 0.0
H733 H 0.3683 0.22101 0.81494 0.0
H734 H 0.39178 0.26344 0.8305 0.0
C735 C 0.45965 0.41555 0.87333 0.0
C736 C 0.4193 0.36195 0.84228 0.0
H737 H 0.37024 0.29381 0.84511 0.0
C738 C 0.42768 0.36185 0.8268 0.0
C739 C 0.39838 0.33713 0.849 0.0
C740 C 0.38791 0.33626 0.86542 0.0
C741 C 0.41585 0.33751 0.81787 0.0
C742 C 0.39468 0.31275 0.82451 0.0
C743 C 0.3865 0.3128 0.84006 0.0
C744 C 0.38007 0.28685 0.81532 0.0
C745 C 0.42639 0.33846 0.80146 0.0
C746 C 0.36528 0.28579 0.80182 0.0
C747 C 0.3517 0.26159 0.79301 0.0
C748 C 0.35228 0.23776 0.79762 0.0
C749 C 0.36682 0.23872 0.81127 0.0
C750 C 0.38048 0.26304 0.8201 0.0
H751 H 0.44741 0.35646 0.7998 0.0
H752 H 0.42691 0.31933 0.7987 0.0
H753 H 0.41244 0.34036 0.79295 0.0
H754 H 0.36416 0.30371 0.79811 0.0
H755 H 0.34056 0.2615 0.78261 0.0
H756 H 0.78978 0.14547 0.8176 0.0
H757 H 0.74772 0.12489 0.83355 0.0
H758 H 0.70467 0.06444 0.79743 0.0
H759 H 0.74667 0.08435 0.78165 0.0
H760 H 0.69542 0.11818 0.82495 0.0
H761 H 0.68848 0.01759 0.83742 0.0
H762 H 0.7198 0.04727 0.83058 0.0
H763 H 0.69254 0.02676 0.81702 0.0
C764 C 0.77159 0.1274 0.81323 0.0
C765 C 0.77174 0.11617 0.7985 0.0
C766 C 0.74748 0.11585 0.82228 0.0
C767 C 0.72324 0.09286 0.81678 0.0
C768 C 0.7233 0.08182 0.80204 0.0
H769 H 0.5556 0.99024 0.84939 0.0
H770 H 0.59817 0.01333 0.8341 0.0
C771 C 0.74728 0.09336 0.79299 0.0
C772 C 0.6975 0.08085 0.82613 0.0
H773 H 0.649 0.02124 0.84354 0.0
C774 C 0.68534 0.09706 0.82914 0.0
C775 C 0.68439 0.05326 0.83149 0.0
C776 C 0.69705 0.03523 0.8291 0.0
C777 C 0.66 0.08617 0.83705 0.0
C778 C 0.64678 0.0585 0.84231 0.0
C779 C 0.65909 0.04239 0.83941 0.0
C780 C 0.62033 0.04587 0.85104 0.0
C781 C 0.64726 0.10415 0.83934 0.0
C782 C 0.61863 0.0565 0.86563 0.0
C783 C 0.59417 0.04355 0.87429 0.0
C784 C 0.57092 0.01971 0.86854 0.0
C785 C 0.57267 0.00912 0.8539 0.0
C786 C 0.59715 0.0221 0.84524 0.0
H787 H 0.656 0.12188 0.83109 0.0
H788 H 0.62454 0.09212 0.8377 0.0
H789 H 0.65149 0.1125 0.85145 0.0
H790 H 0.63643 0.07441 0.87051 0.0
H791 H 0.59357 0.05199 0.88562 0.0
H792 H 0.02032 0.56911 0.84962 0.0
H793 H 0.99727 0.58827 0.8341 0.0
H794 H 0.93264 0.56046 0.86872 0.0
H795 H 0.95485 0.53999 0.88393 0.0
H796 H 0.9121 0.55136 0.83902 0.0
H797 H 0.99811 0.65903 0.84526 0.0
H798 H 0.00832 0.63628 0.8366 0.0
H799 H 0.99627 0.63091 0.85655 0.0
C800 C 1.00081 0.56626 0.85373 0.0
C801 C 0.98919 0.5525 0.86791 0.0
C802 C 0.98792 0.57776 0.84497 0.0
C803 C 0.96346 0.57618 0.85037 0.0
C804 C 0.95155 0.56201 0.86434 0.0
H805 H 0.89954 0.68105 0.81871 0.0
H806 H 0.91736 0.65673 0.83423 0.0
C807 C 0.96432 0.55039 0.87305 0.0
C808 C 0.95039 0.5896 0.84163 0.0
H809 H 0.96192 0.65179 0.82791 0.0
C810 C 0.92296 0.57333 0.83661 0.0
C811 C 0.96442 0.61835 0.83876 0.0
C812 C 0.9933 0.63724 0.8447 0.0
C813 C 0.90931 0.58495 0.82858 0.0
C814 C 0.92369 0.61352 0.8252 0.0
C815 C 0.95098 0.62985 0.83042 0.0
C816 C 0.91095 0.62695 0.81615 0.0
C817 C 0.87947 0.56658 0.82408 0.0
C818 C 0.90143 0.61834 0.80083 0.0
C819 C 0.8907 0.63188 0.79204 0.0
C820 C 0.88937 0.6544 0.79836 0.0
C821 C 0.89911 0.66311 0.81368 0.0
C822 C 0.90972 0.64946 0.8225 0.0
H823 H 0.86938 0.54769 0.83145 0.0
H824 H 0.86769 0.57761 0.82519 0.0
H825 H 0.87834 0.56001 0.8117 0.0
H826 H 0.90285 0.60153 0.79551 0.0
H827 H 0.88373 0.62491 0.78019 0.0
H828 H 0.78243 0.67357 0.80971 0.0
H829 H 0.73845 0.64867 0.82383 0.0
H830 H 0.71673 0.70873 0.80853 0.0
H831 H 0.76044 0.73381 0.79451 0.0
H832 H 0.71583 0.67074 0.84792 0.0
H833 H 0.65154 0.63112 0.79418 0.0
H834 H 0.68809 0.64299 0.79432 0.0
H835 H 0.67623 0.66745 0.79422 0.0
C836 C 0.76838 0.68159 0.80942 0.0
C837 C 0.77496 0.70565 0.80089 0.0
C838 C 0.74327 0.66731 0.81748 0.0
C839 C 0.72423 0.67666 0.81699 0.0
C840 C 0.731 0.70097 0.80884 0.0
H841 H 0.58291 0.64568 0.87113 0.0
H842 H 0.62642 0.66416 0.85691 0.0
C843 C 0.7561 0.71535 0.80089 0.0
C844 C 0.69723 0.6612 0.82501 0.0
H845 H 0.62777 0.62588 0.81819 0.0
C846 C 0.69658 0.66071 0.84144 0.0
C847 C 0.67219 0.64795 0.8165 0.0
C848 C 0.67188 0.64712 0.79882 0.0
C849 C 0.67141 0.64813 0.84961 0.0
C850 C 0.64637 0.63588 0.8411 0.0
C851 C 0.64703 0.63547 0.82467 0.0
C852 C 0.61936 0.62441 0.8491 0.0
C853 C 0.67173 0.64824 0.8673 0.0
C854 C 0.60062 0.59594 0.84901 0.0
C855 C 0.57561 0.58519 0.85718 0.0
C856 C 0.56886 0.60281 0.86542 0.0
C857 C 0.58739 0.63144 0.86497 0.0
C858 C 0.61238 0.64209 0.85692 0.0
H859 H 0.69214 0.65298 0.87202 0.0
H860 H 0.66714 0.66422 0.87163 0.0
H861 H 0.65568 0.62799 0.87198 0.0
H862 H 0.60561 0.58201 0.84293 0.0
H863 H 0.56182 0.56307 0.85724 0.0
H864 H 0.44428 0.99909 0.85661 0.0
H865 H 0.42508 0.02408 0.84273 0.0
H866 H 0.34365 0.96481 0.85894 0.0
H867 H 0.36243 0.93965 0.87276 0.0
H868 H 0.38021 1.0027 0.81918 0.0
H869 H 0.35679 0.04245 0.8733 0.0
H870 H 0.38105 0.03006 0.87295 0.0
H871 H 0.34462 0.00601 0.87313 0.0
C872 C 0.42225 0.99125 0.85715 0.0
C873 C 0.40494 0.96741 0.86589 0.0
C874 C 0.41135 0.00558 0.84923 0.0
C875 C 0.38304 0.99652 0.85005 0.0
C876 C 0.36563 0.97238 0.85839 0.0
H877 H 0.27331 0.02945 0.79669 0.0
H878 H 0.29797 0.01049 0.81078 0.0
C879 C 0.37642 0.95794 0.8662 0.0
C880 C 0.37151 0.01215 0.8422 0.0
H881 H 0.33816 0.04814 0.84944 0.0
C882 C 0.37123 0.01284 0.82577 0.0
C883 C 0.36006 0.02558 0.85087 0.0
C884 C 0.36077 0.02627 0.86855 0.0
C885 C 0.35885 0.02578 0.81776 0.0
C886 C 0.34641 0.03823 0.82642 0.0
C887 C 0.34758 0.03842 0.84285 0.0
C888 C 0.33104 0.05004 0.81857 0.0
C889 C 0.35893 0.02587 0.80007 0.0
C890 C 0.34108 0.07858 0.81869 0.0
C891 C 0.32703 0.08962 0.81059 0.0
C892 C 0.30255 0.07222 0.80236 0.0
C893 C 0.29212 0.04354 0.80281 0.0
C894 C 0.30625 0.0326 0.81081 0.0
H895 H 0.37441 0.02095 0.79523 0.0
H896 H 0.33826 0.01011 0.79576 0.0
H897 H 0.36334 0.04624 0.79549 0.0
H898 H 0.36011 0.09233 0.82474 0.0
H899 H 0.3356 0.11178 0.81053 0.0
H900 H 1.00359 0.44018 0.86287 0.0
H901 H 0.9793 0.3955 0.84953 0.0
H902 H 0.05261 0.38866 0.85194 0.0
H903 H 0.07682 0.43285 0.86557 0.0
H904 H 0.98878 0.37592 0.8222 0.0
H905 H 0.99609 0.31758 0.87266 0.0
H906 H 1.00417 0.35299 0.87428 0.0
H907 H 0.02911 0.34489 0.86637 0.0
C908 C 0.01462 0.42927 0.86047 0.0
C909 C 0.04207 0.43997 0.86547 0.0
C910 C 1.00067 0.40369 0.85287 0.0
C911 C 0.01391 0.3884 0.85012 0.0
C912 C 0.04171 0.39969 0.85438 0.0
H913 H 0.97861 0.23911 0.8026 0.0
H914 H 0.99814 0.2825 0.81712 0.0
C915 C 0.05559 0.4251 0.86207 0.0
C916 C 0.99871 0.36057 0.84288 0.0
H917 H 0.98156 0.29335 0.84834 0.0
C918 C 0.98694 0.35782 0.82797 0.0
C919 C 0.99617 0.33691 0.85048 0.0
C920 C 0.00681 0.33812 0.8669 0.0
C921 C 0.97358 0.33222 0.82025 0.0
C922 C 0.97178 0.3088 0.82768 0.0
C923 C 0.98308 0.31141 0.84267 0.0
C924 C 0.9593 0.28165 0.81975 0.0
C925 C 0.9622 0.3305 0.80399 0.0
C926 C 0.93084 0.26646 0.81681 0.0
C927 C 0.91951 0.24148 0.8086 0.0
C928 C 0.93652 0.23139 0.80312 0.0
C929 C 0.96491 0.24631 0.80657 0.0
C930 C 0.97614 0.27113 0.81486 0.0
H931 H 0.969 0.35121 0.79893 0.0
H932 H 0.96873 0.31911 0.79603 0.0
H933 H 0.93932 0.31898 0.80448 0.0
H934 H 0.91748 0.27413 0.82068 0.0
H935 H 0.89758 0.23053 0.80616 0.0
H936 H 0.74276 0.76789 0.19728 0.0
H937 H 0.71831 0.72424 0.18317 0.0
H938 H 0.64493 0.7311 0.18218 0.0
H939 H 0.66948 0.77526 0.19603 0.0
H940 H 0.67331 0.67759 0.19353 0.0
H941 H 0.64909 0.71045 0.13715 0.0
H942 H 0.67381 0.73471 0.15092 0.0
H943 H 0.63746 0.7205 0.15421 0.0
C944 C 0.72154 0.76038 0.19387 0.0
C945 C 0.7081 0.77513 0.1978 0.0
C946 C 0.70756 0.73535 0.18583 0.0
C947 C 0.67983 0.72444 0.18151 0.0
C948 C 0.66647 0.73935 0.18511 0.0
H949 H 0.56535 0.56575 0.13776 0.0
H950 H 0.58456 0.60925 0.15234 0.0
C951 C 0.68052 0.76457 0.19308 0.0
C952 C 0.6647 0.69673 0.1741 0.0
H953 H 0.62931 0.66234 0.14121 0.0
C954 C 0.6637 0.67429 0.18209 0.0
C955 C 0.65202 0.69238 0.1592 0.0
C956 C 0.65329 0.7158 0.14978 0.0
C957 C 0.65057 0.64771 0.17556 0.0
C958 C 0.63828 0.64346 0.16059 0.0
C959 C 0.6387 0.6657 0.15272 0.0
C960 C 0.62628 0.61643 0.15252 0.0
C961 C 0.64992 0.62434 0.18472 0.0
C962 C 0.64338 0.60607 0.14786 0.0
C963 C 0.63256 0.58135 0.1395 0.0
C964 C 0.60435 0.56643 0.13562 0.0
C965 C 0.58713 0.57661 0.1406 0.0
C966 C 0.59806 0.60151 0.14888 0.0
H967 H 0.65403 0.6294 0.19739 0.0
H968 H 0.62963 0.60519 0.18345 0.0
H969 H 0.66605 0.6202 0.18013 0.0
H970 H 0.66528 0.61745 0.15038 0.0
H971 H 0.64645 0.5742 0.13585 0.0
H972 H 0.23533 0.89693 0.19699 0.0
H973 H 0.27985 0.91725 0.1834 0.0
H974 H 0.28501 0.99672 0.18404 0.0
H975 H 0.24106 0.97686 0.19787 0.0
H976 H 0.29883 0.94513 0.15547 0.0
H977 H 0.35671 0.01372 0.20507 0.0
H978 H 0.32157 0.98592 0.20697 0.0
H979 H 0.32883 0.01837 0.19856 0.0
C980 C 0.24585 0.91869 0.19413 0.0
C981 C 0.23477 0.93533 0.1987 0.0
C982 C 0.27132 0.93028 0.18639 0.0
C983 C 0.28611 0.95865 0.18309 0.0
C984 C 0.27439 0.97496 0.1869 0.0
H985 H 0.43434 0.07365 0.13502 0.0
H986 H 0.39086 0.04922 0.14942 0.0
C987 C 0.24911 0.96349 0.19471 0.0
C988 C 0.31391 0.9714 0.17578 0.0
H989 H 0.38068 0.02297 0.18067 0.0
C990 C 0.31679 0.96194 0.16104 0.0
C991 C 0.33739 0.99325 0.18312 0.0
C992 C 0.33609 1.00324 0.19937 0.0
C993 C 0.3423 0.97443 0.1532 0.0
C994 C 0.36551 0.99679 0.16035 0.0
C995 C 0.36279 0.00589 0.1752 0.0
C996 C 0.39256 0.01172 0.15231 0.0
C997 C 0.34411 0.96426 0.13711 0.0
C998 C 0.40824 0.99893 0.14952 0.0
C999 C 0.43327 0.01291 0.14138 0.0
C1000 C 0.44296 0.0399 0.13582 0.0
C1001 C 0.42748 0.05287 0.13906 0.0
C1002 C 0.40261 0.03895 0.14728 0.0
H1003 H 0.32342 0.94986 0.13216 0.0
H1004 H 0.35518 0.98189 0.12892 0.0
H1005 H 0.35596 0.95327 0.13783 0.0
H1006 H 0.40098 0.97804 0.15351 0.0
H1007 H 0.44464 1.0023 0.13911 0.0
H1008 H 0.11258 0.33932 0.19597 0.0
H1009 H 0.09194 0.36326 0.18247 0.0
H1010 H 0.01225 0.28932 0.18439 0.0
H1011 H 0.03246 0.26547 0.19816 0.0
H1012 H 0.06306 0.35368 0.15495 0.0
H1013 H 0.99661 0.34505 0.20529 0.0
H1014 H 0.02427 0.33745 0.20694 0.0
H1015 H 0.99144 0.31225 0.19894 0.0
C1016 C 0.0907 0.32808 0.19341 0.0
C1017 C 0.07412 0.30056 0.19833 0.0
C1018 C 0.07893 0.34182 0.18572 0.0
C1019 C 0.05043 0.3283 0.18281 0.0
C1020 C 0.03414 0.30042 0.18695 0.0
H1021 H 0.93531 0.36233 0.13547 0.0
H1022 H 0.95958 0.34303 0.14979 0.0
C1023 C 0.0458 0.28675 0.19472 0.0
C1024 C 0.03757 0.34329 0.17557 0.0
H1025 H 0.98682 0.35951 0.18098 0.0
C1026 C 0.04659 0.35521 0.1607 0.0
C1027 C 0.01619 0.34543 0.18314 0.0
C1028 C 0.00674 0.33462 0.19953 0.0
C1029 C 0.03411 0.36834 0.15297 0.0
C1030 C 0.01223 0.36973 0.16038 0.0
C1031 C 1.00354 0.35829 0.17534 0.0
C1032 C 0.99735 0.38203 0.15248 0.0
C1033 C 0.04379 0.3799 0.13676 0.0
C1034 C 0.01037 0.41049 0.14962 0.0
C1035 C 0.99649 0.42169 0.14152 0.0
C1036 C 0.96939 0.40455 0.13608 0.0
C1037 C 0.95619 0.37614 0.13941 0.0
C1038 C 0.97001 0.36503 0.1476 0.0
H1039 H 0.05789 0.37334 0.13169 0.0
H1040 H 0.0259 0.37329 0.12877 0.0
H1041 H 0.05497 0.40277 0.13731 0.0
H1042 H 0.03138 0.42398 0.15349 0.0
H1043 H 0.00728 0.44365 0.13917 0.0
H1044 H 0.12059 0.77223 0.48395 0.0
H1045 H 0.07782 0.75307 0.49907 0.0
H1046 H 0.04208 0.78074 0.46371 0.0
H1047 H 0.08486 0.80004 0.44854 0.0
H1048 H 0.04875 0.77758 0.51145 0.0
H1049 H 0.98656 0.69828 0.46682 0.0
H1050 H 0.02377 0.71764 0.46631 0.0
H1051 H 1.00412 0.73304 0.45955 0.0
C1052 C 0.10394 0.77489 0.47957 0.0
C1053 C 0.10628 0.78805 0.46515 0.0
C1054 C 0.07937 0.76365 0.48815 0.0
C1055 C 0.05664 0.76514 0.4824 0.0
C1056 C 0.05916 0.77887 0.46821 0.0
H1057 H 0.88922 0.70036 0.5188 0.0
H1058 H 0.93151 0.72424 0.50317 0.0
C1059 C 0.08366 0.79002 0.45961 0.0
C1060 C 0.03021 0.752 0.49117 0.0
H1061 H 0.96239 0.70184 0.48864 0.0
C1062 C 0.02987 0.76102 0.50647 0.0
C1063 C 1.00558 0.73042 0.48462 0.0
C1064 C 1.00494 0.71905 0.46848 0.0
C1065 C 1.00552 0.74913 0.5154 0.0
C1066 C 0.98099 0.72739 0.50891 0.0
C1067 C 0.98122 0.7186 0.49354 0.0
C1068 C 0.95521 0.71264 0.51817 0.0
C1069 C 0.0062 0.76009 0.53166 0.0
C1070 C 0.95441 0.69782 0.53159 0.0
C1071 C 0.93025 0.68391 0.5404 0.0
C1072 C 0.90624 0.68425 0.53591 0.0
C1073 C 0.90702 0.69897 0.52237 0.0
C1074 C 0.93127 0.7129 0.51351 0.0
H1075 H 0.02415 0.78117 0.53325 0.0
H1076 H 0.987 0.76061 0.53415 0.0
H1077 H 0.00794 0.74634 0.54039 0.0
H1078 H 0.97249 0.69692 0.53522 0.0
H1079 H 0.93035 0.67268 0.55073 0.0
H1080 H 0.23516 0.34824 0.48477 0.0
H1081 H 0.25463 0.32488 0.49983 0.0
H1082 H 0.23212 0.26457 0.46301 0.0
H1083 H 0.21222 0.2876 0.44795 0.0
H1084 H 0.22985 0.26887 0.51043 0.0
H1085 H 0.31584 0.29598 0.46858 0.0
H1086 H 0.29538 0.3127 0.46834 0.0
H1087 H 0.28193 0.27885 0.46007 0.0
C1088 C 0.23361 0.32959 0.48004 0.0
C1089 C 0.22164 0.31948 0.46527 0.0
C1090 C 0.24507 0.31644 0.4886 0.0
C1091 C 0.2451 0.2932 0.48245 0.0
C1092 C 0.23271 0.28274 0.46785 0.0
H1093 H 0.31422 0.19354 0.51716 0.0
H1094 H 0.29109 0.21261 0.50141 0.0
C1095 C 0.22124 0.29585 0.45931 0.0
C1096 C 0.25841 0.28011 0.49122 0.0
H1097 H 0.31158 0.26668 0.48968 0.0
C1098 C 0.24772 0.26839 0.50591 0.0
C1099 C 0.28167 0.27945 0.48524 0.0
C1100 C 0.29459 0.2926 0.46976 0.0
C1101 C 0.25957 0.25584 0.51478 0.0
C1102 C 0.28305 0.2555 0.50891 0.0
C1103 C 0.29355 0.26693 0.49412 0.0
C1104 C 0.29762 0.24429 0.51821 0.0
C1105 C 0.24663 0.24275 0.53027 0.0
C1106 C 0.30944 0.25614 0.53269 0.0
C1107 C 0.32286 0.24548 0.54162 0.0
C1108 C 0.32509 0.22296 0.53616 0.0
C1109 C 0.31356 0.21133 0.52153 0.0
C1110 C 0.30007 0.22203 0.51259 0.0
H1111 H 0.22482 0.23787 0.53098 0.0
H1112 H 0.24734 0.2235 0.53221 0.0
H1113 H 0.25822 0.25734 0.5399 0.0
H1114 H 0.30832 0.27371 0.5371 0.0
H1115 H 0.33163 0.25501 0.5528 0.0
H1116 H 0.71984 0.92533 0.44714 0.0
H1117 H 0.74326 0.96761 0.46268 0.0
H1118 H 0.68495 0.92782 0.50023 0.0
H1119 H 0.66072 0.88592 0.48449 0.0
H1120 H 0.69194 0.97819 0.49318 0.0
H1121 H 0.79404 0.98593 0.50023 0.0
H1122 H 0.78323 0.98282 0.48016 0.0
H1123 H 0.76395 0.95483 0.49356 0.0
C1124 C 0.7122 0.92548 0.45879 0.0
C1125 C 0.68885 0.90198 0.46473 0.0
C1126 C 0.72574 0.9496 0.4677 0.0
C1127 C 0.71624 0.95069 0.48276 0.0
C1128 C 0.69289 0.92729 0.48873 0.0
H1129 H 0.79928 0.08007 0.55195 0.0
H1130 H 0.77933 0.03742 0.53666 0.0
C1131 C 0.67927 0.90317 0.47979 0.0
C1132 C 0.72962 0.97673 0.49189 0.0
H1133 H 0.79119 0.02564 0.5073 0.0
C1134 C 0.71362 0.9885 0.49633 0.0
C1135 C 0.75783 0.99002 0.49612 0.0
C1136 C 0.77573 0.97764 0.49241 0.0
C1137 C 0.72512 0.01338 0.50472 0.0
C1138 C 0.75356 0.02719 0.50845 0.0
C1139 C 0.76948 0.01521 0.50423 0.0
C1140 C 0.76693 0.05361 0.51722 0.0
C1141 C 0.70655 0.02435 0.50976 0.0
C1142 C 0.76706 0.07703 0.51123 0.0
C1143 C 0.7783 0.1014 0.52 0.0
C1144 C 0.79005 0.10291 0.5348 0.0
C1145 C 0.79048 0.07959 0.54056 0.0
C1146 C 0.77916 0.05523 0.53183 0.0
H1147 H 0.68447 0.00797 0.50968 0.0
H1148 H 0.71196 0.03337 0.52172 0.0
H1149 H 0.70905 0.04077 0.50151 0.0
H1150 H 0.75804 0.07633 0.49989 0.0
H1151 H 0.77676 0.11856 0.51539 0.0
H1152 H 0.40383 0.09398 0.53788 0.0
H1153 H 0.37923 0.05063 0.52351 0.0
H1154 H 0.31739 0.07082 0.50963 0.0
H1155 H 0.34184 0.11449 0.52411 0.0
H1156 H 0.32037 0.0082 0.52925 0.0
H1157 H 0.34393 0.04868 0.46814 0.0
H1158 H 0.365 0.06808 0.48463 0.0
H1159 H 0.33183 0.06495 0.48172 0.0
C1160 C 0.38514 0.08945 0.53168 0.0
C1161 C 0.37482 0.1078 0.53219 0.0
C1162 C 0.37107 0.06457 0.52351 0.0
C1163 C 0.34656 0.05757 0.51552 0.0
C1164 C 0.3364 0.07598 0.51567 0.0
H1165 H 0.2322 0.89373 0.47687 0.0
H1166 H 0.25132 0.93756 0.49114 0.0
C1167 C 0.3504 0.1009 0.52395 0.0
C1168 C 0.33141 0.03057 0.50745 0.0
H1169 H 0.31669 1.00053 0.47124 0.0
C1170 C 0.3193 0.00646 0.51657 0.0
C1171 C 0.3303 0.02849 0.49093 0.0
C1172 C 0.34354 0.05384 0.48069 0.0
C1173 C 0.30633 0.98023 0.50956 0.0
C1174 C 0.30544 0.97815 0.49303 0.0
C1175 C 0.31731 1.00226 0.48392 0.0
C1176 C 0.2937 0.95114 0.48498 0.0
C1177 C 0.29439 0.95491 0.51982 0.0
C1178 C 0.31123 0.94428 0.47688 0.0
C1179 C 0.30046 0.91928 0.46882 0.0
C1180 C 0.27184 0.90069 0.46854 0.0
C1181 C 0.25433 0.9075 0.47686 0.0
C1182 C 0.26519 0.93252 0.48502 0.0
H1183 H 0.30016 0.9601 0.53234 0.0
H1184 H 0.27156 0.94381 0.51892 0.0
H1185 H 0.30153 0.94064 0.5158 0.0
H1186 H 0.3333 0.95839 0.47673 0.0
H1187 H 0.31461 0.91483 0.46253 0.0
H1188 H 0.10942 0.33533 0.47204 0.0
H1189 H 0.06494 0.31161 0.48561 0.0
H1190 H 0.05878 0.38528 0.48289 0.0
H1191 H 0.10277 0.40891 0.46901 0.0
H1192 H 0.04593 0.32158 0.51288 0.0
H1193 H 0.9872 0.32896 0.46263 0.0
H1194 H 0.02253 0.33682 0.46087 0.0
H1195 H 0.01473 0.36195 0.46881 0.0
C1196 C 0.09869 0.34656 0.47442 0.0
C1197 C 0.10952 0.37393 0.46926 0.0
C1198 C 0.07324 0.33294 0.48215 0.0
C1199 C 0.05818 0.34644 0.48489 0.0
C1200 C 0.06962 0.37418 0.48047 0.0
H1201 H 0.90879 0.31091 0.5327 0.0
H1202 H 0.95244 0.33084 0.51845 0.0
C1203 C 0.0949 0.38773 0.47264 0.0
C1204 C 0.03045 0.33152 0.49226 0.0
H1205 H 0.96322 0.31452 0.487 0.0
C1206 C 0.0278 0.31981 0.50717 0.0
C1207 C 0.00675 0.32906 0.48473 0.0
C1208 C 0.00782 0.33961 0.46831 0.0
C1209 C 1.00227 0.3065 0.51496 0.0
C1210 C 0.97881 0.30474 0.5076 0.0
C1211 C 0.98132 0.31604 0.49261 0.0
C1212 C 0.95167 0.2921 0.51553 0.0
C1213 C 1.00063 0.29508 0.53119 0.0
C1214 C 0.93648 0.26359 0.51826 0.0
C1215 C 0.91135 0.25203 0.52631 0.0
C1216 C 0.90106 0.26885 0.53185 0.0
C1217 C 0.91608 0.29734 0.52868 0.0
C1218 C 0.94106 0.3088 0.52054 0.0
H1219 H 0.02137 0.30183 0.5362 0.0
H1220 H 0.98931 0.30162 0.5392 0.0
H1221 H 0.98907 0.27221 0.53069 0.0
H1222 H 0.94422 0.25033 0.5143 0.0
H1223 H 0.90034 0.23003 0.52853 0.0
H1224 H 0.69894 0.59915 0.53136 0.0
H1225 H 0.67919 0.62294 0.51707 0.0
H1226 H 0.75936 0.69625 0.51476 0.0
H1227 H 0.77949 0.67236 0.52874 0.0
H1228 H 0.6776 0.66819 0.52664 0.0
H1229 H 0.73342 0.69006 0.46995 0.0
H1230 H 0.73347 0.6661 0.48409 0.0
H1231 H 0.75565 0.70263 0.48675 0.0
C1232 C 0.7125 0.62022 0.52763 0.0
C1233 C 0.74083 0.63383 0.5312 0.0
C1234 C 0.70114 0.63381 0.51948 0.0
C1235 C 0.71779 0.66132 0.51472 0.0
C1236 C 0.74618 0.67486 0.51801 0.0
H1237 H 0.67438 0.7759 0.47076 0.0
H1238 H 0.69821 0.75625 0.48539 0.0
C1239 C 0.75765 0.66118 0.52607 0.0
C1240 C 0.70501 0.67609 0.50712 0.0
H1241 H 0.70574 0.71066 0.47393 0.0
C1242 C 0.68374 0.67743 0.51511 0.0
C1243 C 0.71312 0.68827 0.49209 0.0
C1244 C 0.73499 0.68653 0.48264 0.0
C1245 C 0.67033 0.6905 0.50847 0.0
C1246 C 0.67826 0.70243 0.49341 0.0
C1247 C 0.69982 0.70157 0.48552 0.0
C1248 C 0.66348 0.71465 0.48533 0.0
C1249 C 0.6478 0.69156 0.51761 0.0
C1250 C 0.63606 0.69774 0.48053 0.0
C1251 C 0.62243 0.70882 0.47213 0.0
C1252 C 0.63597 0.73708 0.46838 0.0
C1253 C 0.6633 0.75409 0.47351 0.0
C1254 C 0.677 0.74291 0.48181 0.0
H1255 H 0.6485 0.68724 0.53027 0.0
H1256 H 0.64939 0.71206 0.51639 0.0
H1257 H 0.62744 0.67579 0.51292 0.0
H1258 H 0.62538 0.67582 0.48299 0.0
H1259 H 0.60141 0.69511 0.46837 0.0
H1260 H 0.14664 0.33022 0.26695 0.0
H1261 H 0.1531 0.34823 0.29356 0.0
H1262 H 0.07766 0.27612 0.30795 0.0
H1263 H 0.07063 0.25796 0.28113 0.0
H1264 H 0.08375 0.32555 0.31998 0.0
H1265 H 0.17797 0.31856 0.32993 0.0
H1266 H 0.17998 0.33808 0.31279 0.0
H1267 H 0.15501 0.30186 0.31363 0.0
C1268 C 0.13133 0.3181 0.27573 0.0
C1269 C 0.10822 0.29246 0.27192 0.0
C1270 C 0.13515 0.32844 0.29096 0.0
C1271 C 0.11616 0.31327 0.30278 0.0
C1272 C 0.09264 0.28805 0.29899 0.0
H1273 H 0.15256 0.34275 0.40172 0.0
H1274 H 0.13974 0.32319 0.3755 0.0
C1275 C 0.08869 0.2777 0.28368 0.0
C1276 C 0.12123 0.3237 0.31911 0.0
H1277 H 0.16821 0.34375 0.34881 0.0
C1278 C 0.10212 0.3294 0.32635 0.0
C1279 C 0.14505 0.32837 0.32743 0.0
C1280 C 0.16555 0.32115 0.32062 0.0
C1281 C 0.10648 0.3402 0.34163 0.0
C1282 C 0.13085 0.34586 0.34971 0.0
C1283 C 0.14968 0.33968 0.34254 0.0
C1284 C 0.13705 0.35748 0.3658 0.0
C1285 C 0.08478 0.34501 0.34906 0.0
C1286 C 0.13984 0.38334 0.36909 0.0
C1287 C 0.14705 0.39461 0.38417 0.0
C1288 C 0.15193 0.38033 0.39617 0.0
C1289 C 0.14905 0.3544 0.39279 0.0
C1290 C 0.14169 0.34313 0.37778 0.0
H1291 H 0.06448 0.33287 0.34316 0.0
H1292 H 0.08227 0.3395 0.3617 0.0
H1293 H 0.09117 0.36717 0.34804 0.0
H1294 H 0.13698 0.39507 0.35992 0.0
H1295 H 0.14924 0.41467 0.38635 0.0
H1296 H 0.69318 0.83699 0.27044 0.0
H1297 H 0.67477 0.82399 0.29687 0.0
H1298 H 0.72189 0.78298 0.30365 0.0
H1299 H 0.74118 0.7967 0.27721 0.0
H1300 H 0.64372 0.77395 0.30951 0.0
H1301 H 0.74236 0.83092 0.34226 0.0
H1302 H 0.73972 0.83623 0.32163 0.0
H1303 H 0.74159 0.80668 0.3282 0.0
C1304 C 0.69979 0.82531 0.27754 0.0
C1305 C 0.71876 0.81797 0.27172 0.0
C1306 C 0.68918 0.81784 0.29266 0.0
C1307 C 0.69715 0.80276 0.30232 0.0
C1308 C 0.7159 0.79513 0.29653 0.0
H1309 H 0.60442 0.72801 0.38914 0.0
H1310 H 0.62413 0.73397 0.36281 0.0
C1311 C 0.72681 0.80288 0.2814 0.0
C1312 C 0.68535 0.79491 0.31832 0.0
H1313 H 0.70229 0.80323 0.35717 0.0
C1314 C 0.65651 0.78025 0.31995 0.0
C1315 C 0.70209 0.80338 0.33191 0.0
C1316 C 0.73314 0.82039 0.33099 0.0
C1317 C 0.64392 0.77433 0.33476 0.0
C1318 C 0.66066 0.78259 0.34836 0.0
C1319 C 0.6895 0.79675 0.34673 0.0
C1320 C 0.64881 0.77847 0.36435 0.0
C1321 C 0.61287 0.76034 0.33567 0.0
C1322 C 0.65665 0.80138 0.37412 0.0
C1323 C 0.64578 0.79801 0.3892 0.0
C1324 C 0.62669 0.77162 0.39485 0.0
C1325 C 0.61885 0.74863 0.38507 0.0
C1326 C 0.63001 0.75202 0.37 0.0
H1327 H 0.6037 0.76182 0.32442 0.0
H1328 H 0.60437 0.73815 0.33835 0.0
H1329 H 0.60629 0.76952 0.34509 0.0
H1330 H 0.6711 0.82199 0.37002 0.0
H1331 H 0.65226 0.81618 0.3964 0.0
H1332 H 0.17195 0.85746 0.27096 0.0
H1333 H 0.18475 0.85185 0.29741 0.0
H1334 H 0.22565 0.9399 0.30443 0.0
H1335 H 0.21212 0.94568 0.27798 0.0
H1336 H 0.23458 0.87063 0.31017 0.0
H1337 H 0.17759 0.91224 0.34294 0.0
H1338 H 0.17241 0.90449 0.32228 0.0
H1339 H 0.20195 0.93581 0.32897 0.0
C1340 C 0.18356 0.87569 0.27812 0.0
C1341 C 0.19092 0.90204 0.27236 0.0
C1342 C 0.19091 0.87243 0.29325 0.0
C1343 C 0.2059 0.8954 0.30298 0.0
C1344 C 0.21355 0.92181 0.29726 0.0
H1345 H 0.28044 0.87693 0.38975 0.0
H1346 H 0.27445 0.89066 0.36342 0.0
C1347 C 0.20591 0.92509 0.28212 0.0
C1348 C 0.21366 0.89133 0.31899 0.0
H1349 H 0.20525 0.89981 0.35785 0.0
C1350 C 0.22826 0.87709 0.32061 0.0
C1351 C 0.20516 0.89955 0.33259 0.0
C1352 C 0.1882 0.91364 0.33168 0.0
C1353 C 0.23411 0.87033 0.33542 0.0
C1354 C 0.22585 0.87879 0.34902 0.0
C1355 C 0.21173 0.89351 0.34741 0.0
C1356 C 0.22997 0.87104 0.36502 0.0
C1357 C 0.24804 0.85321 0.3363 0.0
C1358 C 0.20708 0.8561 0.37482 0.0
C1359 C 0.21047 0.84863 0.38991 0.0
C1360 C 0.23686 0.85582 0.39553 0.0
C1361 C 0.25982 0.87082 0.38571 0.0
C1362 C 0.25642 0.87858 0.37064 0.0
H1363 H 0.24646 0.84251 0.32505 0.0
H1364 H 0.27025 0.86686 0.33894 0.0
H1365 H 0.23888 0.83748 0.34573 0.0
H1366 H 0.18648 0.85004 0.37075 0.0
H1367 H 0.19233 0.83705 0.39714 0.0
H1368 H 0.40829 0.13102 0.61151 0.0
H1369 H 0.3885 0.11653 0.63779 0.0
H1370 H 0.33903 0.1549 0.63054 0.0
H1371 H 0.35797 0.16868 0.60426 0.0
H1372 H 0.38999 0.14581 0.66287 0.0
H1373 H 0.28127 0.07965 0.64502 0.0
H1374 H 0.30937 0.09236 0.63117 0.0
H1375 H 0.29539 0.11377 0.63716 0.0
C1376 C 0.39311 0.13626 0.61551 0.0
C1377 C 0.38453 0.15078 0.60572 0.0
C1378 C 0.3818 0.12794 0.63051 0.0
C1379 C 0.36177 0.13403 0.63599 0.0
C1380 C 0.35375 0.14915 0.62639 0.0
H1381 H 0.31975 0.15009 0.7304 0.0
H1382 H 0.33914 0.15539 0.70421 0.0
C1383 C 0.3648 0.15721 0.61138 0.0
C1384 C 0.34992 0.1256 0.65195 0.0
H1385 H 0.28889 0.09451 0.67194 0.0
C1386 C 0.36789 0.13428 0.66485 0.0
C1387 C 0.32109 0.11005 0.65455 0.0
C1388 C 0.30071 0.09816 0.64122 0.0
C1389 C 0.3578 0.12894 0.68028 0.0
C1390 C 0.32895 0.11522 0.68287 0.0
C1391 C 0.311 0.10542 0.66997 0.0
C1392 C 0.31699 0.11175 0.69881 0.0
C1393 C 0.37822 0.13802 0.69362 0.0
C1394 C 0.29716 0.08555 0.70428 0.0
C1395 C 0.28557 0.08248 0.71921 0.0
C1396 C 0.29369 0.10558 0.72894 0.0
C1397 C 0.31328 0.13181 0.72331 0.0
C1398 C 0.32459 0.13487 0.70836 0.0
H1399 H 0.39784 0.13927 0.68988 0.0
H1400 H 0.38314 0.1589 0.69753 0.0
H1401 H 0.36977 0.12371 0.70375 0.0
H1402 H 0.29078 0.06745 0.69705 0.0
H1403 H 0.27053 0.06201 0.72319 0.0
H1404 H 0.93948 0.19342 0.71936 0.0
H1405 H 0.932 0.20527 0.69284 0.0
H1406 H 0.85806 0.20391 0.70853 0.0
H1407 H 0.86494 0.19152 0.73482 0.0
H1408 H 0.84938 0.17426 0.68217 0.0
H1409 H 0.94256 0.27746 0.67528 0.0
H1410 H 0.94992 0.2507 0.68045 0.0
H1411 H 0.93166 0.26038 0.69403 0.0
C1412 C 0.92177 0.19589 0.71718 0.0
C1413 C 0.90279 0.19145 0.72921 0.0
C1414 C 0.91762 0.20284 0.70205 0.0
C1415 C 0.89465 0.20582 0.69876 0.0
C1416 C 0.87595 0.20177 0.71081 0.0
H1417 H 0.86031 0.27071 0.61405 0.0
H1418 H 0.87178 0.2639 0.64081 0.0
C1419 C 0.87994 0.19466 0.72585 0.0
C1420 C 0.88897 0.21151 0.68262 0.0
H1421 H 0.91518 0.25769 0.65244 0.0
C1422 C 0.86374 0.19256 0.6757 0.0
C1423 C 0.90757 0.23557 0.67427 0.0
C1424 C 0.93434 0.25735 0.68142 0.0
C1425 C 0.8567 0.19681 0.6606 0.0
C1426 C 0.87569 0.22034 0.65203 0.0
C1427 C 0.90077 0.23955 0.659 0.0
C1428 C 0.86988 0.22511 0.63574 0.0
C1429 C 0.82876 0.17623 0.65408 0.0
C1430 C 0.86555 0.20583 0.62399 0.0
C1431 C 0.85882 0.20952 0.60878 0.0
C1432 C 0.85659 0.23279 0.60493 0.0
C1433 C 0.86174 0.25252 0.61663 0.0
C1434 C 0.86835 0.2487 0.63191 0.0
H1435 H 0.81399 0.16409 0.66354 0.0
H1436 H 0.81988 0.18668 0.64711 0.0
H1437 H 0.83096 0.16157 0.64629 0.0
H1438 H 0.86723 0.1878 0.62662 0.0
H1439 H 0.85531 0.19404 0.60006 0.0
H1440 H 0.84116 0.69116 0.73004 0.0
H1441 H 0.82894 0.67253 0.70355 0.0
H1442 H 0.7876 0.7191 0.69588 0.0
H1443 H 0.80054 0.73861 0.72228 0.0
H1444 H 0.77951 0.64119 0.6904 0.0
H1445 H 0.83634 0.73983 0.65775 0.0
H1446 H 0.84113 0.73731 0.67847 0.0
H1447 H 0.81172 0.73909 0.67151 0.0
C1448 C 0.82959 0.69761 0.72271 0.0
C1449 C 0.82196 0.71651 0.72825 0.0
C1450 C 0.82258 0.68687 0.70757 0.0
C1451 C 0.80766 0.69467 0.69764 0.0
C1452 C 0.79969 0.71329 0.70318 0.0
H1453 H 0.73183 0.60214 0.61105 0.0
H1454 H 0.73855 0.62166 0.63748 0.0
C1455 C 0.80699 0.72432 0.7183 0.0
C1456 C 0.80022 0.68284 0.68162 0.0
H1457 H 0.80802 0.69988 0.6428 0.0
C1458 C 0.78571 0.65401 0.67998 0.0
C1459 C 0.80856 0.69961 0.66804 0.0
C1460 C 0.82552 0.73066 0.66897 0.0
C1461 C 0.77962 0.64146 0.66514 0.0
C1462 C 0.78756 0.65823 0.65157 0.0
C1463 C 0.80174 0.68705 0.65322 0.0
C1464 C 0.78299 0.64644 0.63553 0.0
C1465 C 0.76569 0.61042 0.66419 0.0
C1466 C 0.80561 0.65443 0.62551 0.0
C1467 C 0.80181 0.6437 0.61037 0.0
C1468 C 0.77526 0.62459 0.60492 0.0
C1469 C 0.75256 0.61661 0.61495 0.0
C1470 C 0.75638 0.62764 0.63009 0.0
H1471 H 0.76758 0.60127 0.67536 0.0
H1472 H 0.74341 0.60186 0.66176 0.0
H1473 H 0.77461 0.6039 0.65461 0.0
H1474 H 0.82633 0.6689 0.62944 0.0
H1475 H 0.81977 0.65027 0.60298 0.0
H1476 H 0.92772 0.40249 0.05292 0.0
H1477 H 0.94706 0.40971 0.02641 0.0
H1478 H 0.01963 0.48378 0.04194 0.0
H1479 H 1.00035 0.47717 0.06821 0.0
H1480 H 0.99897 0.49223 0.01547 0.0
H1481 H 0.00856 0.39872 0.00914 0.0
H1482 H 0.97444 0.39153 0.01417 0.0
H1483 H 1.00231 0.40985 0.02779 0.0
C1484 C 0.94788 0.42019 0.05071 0.0
C1485 C 0.96243 0.43927 0.06269 0.0
C1486 C 0.95899 0.42418 0.03558 0.0
C1487 C 0.98496 0.44709 0.03225 0.0
C1488 C 0.9996 0.46593 0.04424 0.0
H1489 H 0.08455 0.48033 0.9477 0.0
H1490 H 0.06615 0.46903 0.97445 0.0
C1491 C 0.98848 0.4621 0.05928 0.0
C1492 C 0.99641 0.45255 0.01612 0.0
H1493 H 0.01638 0.42586 0.98617 0.0
C1494 C 1.00285 0.47774 0.00909 0.0
C1495 C 1.00181 0.43379 0.0079 0.0
C1496 C 0.99669 0.40706 0.01517 0.0
C1497 C 0.01424 0.48458 0.99401 0.0
C1498 C 0.01872 0.46542 0.98555 0.0
C1499 C 0.01269 0.44039 0.99264 0.0
C1500 C 0.02933 0.47102 0.96927 0.0
C1501 C 0.02179 0.51249 0.98738 0.0
C1502 C 0.01446 0.4753 0.95747 0.0
C1503 C 0.02494 0.48193 0.94227 0.0
C1504 C 0.05044 0.4841 0.93848 0.0
C1505 C 0.06493 0.47894 0.95023 0.0
C1506 C 0.05444 0.47244 0.9655 0.0
H1507 H 0.02446 0.52739 0.99677 0.0
H1508 H 0.04114 0.5212 0.98043 0.0
H1509 H 1.00499 0.51032 0.97954 0.0
H1510 H 0.99475 0.47369 0.96004 0.0
H1511 H 0.01302 0.48543 0.9335 0.0
H1512 H 0.52657 0.5034 0.06297 0.0
H1513 H 0.52134 0.5166 0.03655 0.0
H1514 H 0.6096 0.55872 0.03021 0.0
H1515 H 0.61501 0.5448 0.05662 0.0
H1516 H 0.53986 0.5667 0.0241 0.0
H1517 H 0.58336 0.51136 0.99137 0.0
H1518 H 0.57513 0.50568 0.01196 0.0
H1519 H 0.60638 0.53562 0.00557 0.0
C1520 C 0.54493 0.51536 0.05596 0.0
C1521 C 0.57123 0.52295 0.06189 0.0
C1522 C 0.54188 0.52295 0.04085 0.0
C1523 C 0.56503 0.53841 0.03132 0.0
C1524 C 0.59139 0.54628 0.03722 0.0
H1525 H 0.54589 0.61234 0.94435 0.0
H1526 H 0.55995 0.60691 0.97071 0.0
C1527 C 0.59446 0.5384 0.05234 0.0
C1528 C 0.56118 0.54636 0.01532 0.0
H1529 H 0.57047 0.53864 0.97648 0.0
C1530 C 0.54665 0.56067 0.01368 0.0
C1531 C 0.56986 0.53827 0.00174 0.0
C1532 C 0.58433 0.52167 0.00267 0.0
C1533 C 0.53998 0.56655 0.99885 0.0
C1534 C 0.54879 0.55861 0.98527 0.0
C1535 C 0.56388 0.54487 0.98691 0.0
C1536 C 0.54088 0.56246 0.96926 0.0
C1537 C 0.52251 0.58011 0.99791 0.0
C1538 C 0.52612 0.53941 0.95954 0.0
C1539 C 0.51846 0.54249 0.94445 0.0
C1540 C 0.52526 0.56871 0.93873 0.0
C1541 C 0.54008 0.59184 0.94847 0.0
C1542 C 0.54803 0.58875 0.96356 0.0
H1543 H 0.5118 0.57851 0.00916 0.0
H1544 H 0.53593 0.60233 0.99519 0.0
H1545 H 0.50678 0.57069 0.9885 0.0
H1546 H 0.52035 0.51893 0.96369 0.0
H1547 H 0.50702 0.52421 0.9373 0.0
H1548 H 0.48353 0.08279 0.05277 0.0
H1549 H 0.47173 0.06377 0.02617 0.0
H1550 H 0.47314 0.99106 0.0415 0.0
H1551 H 0.48548 0.01002 0.06785 0.0
H1552 H 0.50246 0.01203 0.01506 0.0
H1553 H 0.39925 1.0023 0.00879 0.0
H1554 H 0.42621 0.03636 0.0139 0.0
H1555 H 0.41658 0.0084 0.02745 0.0
C1556 C 0.48112 0.06267 0.05049 0.0
C1557 C 0.48551 0.04798 0.06245 0.0
C1558 C 0.4742 0.05175 0.03531 0.0
C1559 C 0.4712 0.02583 0.0319 0.0
C1560 C 0.47529 0.01107 0.04386 0.0
H1561 H 0.40381 0.92505 0.94803 0.0
H1562 H 0.41158 0.94416 0.97463 0.0
C1563 C 0.48238 0.02199 0.05894 0.0
C1564 C 0.46527 0.01447 0.01575 0.0
H1565 H 0.41838 0.99408 0.98591 0.0
C1566 C 0.48404 0.00806 0.0087 0.0
C1567 C 0.44105 0.00896 0.00756 0.0
C1568 C 0.41946 0.0141 0.01484 0.0
C1569 C 0.4794 0.99649 0.99366 0.0
C1570 C 0.45565 0.99181 0.98525 0.0
C1571 C 0.43668 0.99791 0.99234 0.0
C1572 C 0.45034 0.98073 0.96906 0.0
C1573 C 0.49976 0.98891 0.98704 0.0
C1574 C 0.4693 0.9952 0.95709 0.0
C1575 C 0.46506 0.9843 0.94198 0.0
C1576 C 0.44156 0.95879 0.93844 0.0
C1577 C 0.42216 0.94467 0.95037 0.0
C1578 C 0.42653 0.95558 0.96555 0.0
H1579 H 0.51215 0.98649 0.99643 0.0
H1580 H 0.48908 0.96942 0.98022 0.0
H1581 H 0.51422 0.00556 0.97907 0.0
H1582 H 0.48749 0.01493 0.95946 0.0
H1583 H 0.4803 0.99592 0.93307 0.0
H1584 H 0.16575 0.00837 0.24493 0.0
H1585 H 0.15812 0.04779 0.24476 0.0
H1586 H 0.19275 0.0694 0.19828 0.0
H1587 H 0.20021 0.02994 0.19825 0.0
H1588 H 0.19525 0.10491 0.24049 0.0
H1589 H 0.11627 0.06191 0.19334 0.0
H1590 H 0.12762 0.04131 0.20376 0.0
H1591 H 0.14859 0.06427 0.18844 0.0
C1592 C 0.17193 0.02161 0.23471 0.0
C1593 C 0.18342 0.01588 0.22156 0.0
C1594 C 0.16753 0.04411 0.23463 0.0
C1595 C 0.17443 0.06121 0.2214 0.0
C1596 C 0.18677 0.05612 0.20848 0.0
H1597 H 0.1512 0.19998 0.19777 0.0
H1598 H 0.16535 0.16484 0.19797 0.0
C1599 C 0.19114 0.03363 0.20853 0.0
C1600 C 0.16831 0.0841 0.22101 0.0
H1601 H 0.13034 0.10732 0.20176 0.0
C1602 C 0.18105 0.10545 0.23204 0.0
C1603 C 0.14976 0.08472 0.20997 0.0
C1604 C 0.13455 0.06173 0.19828 0.0
C1605 C 0.17595 0.12761 0.23221 0.0
C1606 C 0.1573 0.12815 0.22121 0.0
C1607 C 0.14472 0.1069 0.21012 0.0
C1608 C 0.14983 0.1501 0.22132 0.0
C1609 C 0.19083 0.15044 0.24402 0.0
C1610 C 0.13631 0.15329 0.23433 0.0
C1611 C 0.12826 0.17322 0.2342 0.0
C1612 C 0.1334 0.19014 0.22103 0.0
C1613 C 0.14706 0.18711 0.20805 0.0
C1614 C 0.15508 0.1671 0.20815 0.0
H1615 H 0.20955 0.1508 0.24867 0.0
H1616 H 0.19697 0.17087 0.23877 0.0
H1617 H 0.17685 0.14715 0.25404 0.0
H1618 H 0.13163 0.14008 0.24449 0.0
H1619 H 0.11793 0.17539 0.24439 0.0
H1620 H 0.83504 0.9427 0.2442 0.0
H1621 H 0.87054 0.99163 0.24484 0.0
H1622 H 0.84788 1.00185 0.19801 0.0
H1623 H 0.81211 0.95286 0.19744 0.0
H1624 H 0.91529 0.01879 0.22531 0.0
H1625 H 0.84823 0.06543 0.22146 0.0
H1626 H 0.83489 0.02946 0.22601 0.0
H1627 H 0.84274 0.04131 0.20608 0.0
C1628 C 0.83769 0.95548 0.23407 0.0
C1629 C 0.82109 0.94418 0.22073 0.0
C1630 C 0.85786 0.98337 0.23446 0.0
C1631 C 0.86164 1.00048 0.22155 0.0
C1632 C 0.84495 0.98919 0.20822 0.0
H1633 H 0.98176 0.16952 0.19831 0.0
H1634 H 0.94297 0.1222 0.19885 0.0
C1635 C 0.82468 0.96125 0.20785 0.0
C1636 C 0.88389 0.0298 0.22186 0.0
H1637 H 0.89652 0.096 0.21897 0.0
C1638 C 0.91117 0.03569 0.22402 0.0
C1639 C 0.87847 0.05179 0.22013 0.0
C1640 C 0.84948 0.04678 0.21843 0.0
C1641 C 0.93325 0.06294 0.22423 0.0
C1642 C 0.92784 0.08493 0.2225 0.0
C1643 C 0.90057 0.07908 0.22033 0.0
C1644 C 0.95034 0.11411 0.22263 0.0
C1645 C 0.96224 0.06794 0.22594 0.0
C1646 C 0.96691 0.12546 0.23598 0.0
C1647 C 0.98913 0.1525 0.23572 0.0
C1648 C 0.99509 0.16873 0.22212 0.0
C1649 C 0.97783 0.15757 0.20896 0.0
C1650 C 0.95562 0.13054 0.20924 0.0
H1651 H 0.9634 0.04909 0.22335 0.0
H1652 H 0.97667 0.08474 0.21803 0.0
H1653 H 0.9693 0.07423 0.23819 0.0
H1654 H 0.96286 0.11328 0.24654 0.0
H1655 H 1.00194 0.16047 0.24608 0.0
H1656 H 0.8382 0.81029 0.19733 0.0
H1657 H 0.88507 0.81758 0.19759 0.0
H1658 H 0.89671 0.85006 0.24456 0.0
H1659 H 0.84975 0.84255 0.2445 0.0
H1660 H 0.93314 0.86777 0.20117 0.0
H1661 H 0.92422 0.79506 0.24805 0.0
H1662 H 0.89448 0.79343 0.23872 0.0
H1663 H 0.91271 0.8185 0.25381 0.0
C1664 C 0.85058 0.81865 0.20781 0.0
C1665 C 0.84018 0.82576 0.22092 0.0
C1666 C 0.87738 0.82284 0.20791 0.0
C1667 C 0.89427 0.83405 0.22115 0.0
C1668 C 0.88385 0.84084 0.23434 0.0
H1669 H 0.06558 0.89398 0.24341 0.0
H1670 H 0.01659 0.88047 0.24312 0.0
C1671 C 0.85702 0.83663 0.23426 0.0
C1672 C 0.9233 0.8402 0.22079 0.0
H1673 H 0.96967 0.82725 0.23942 0.0
C1674 C 0.94109 0.85873 0.20944 0.0
C1675 C 0.93362 0.82844 0.23162 0.0
C1676 C 0.91523 0.80755 0.24366 0.0
C1677 C 0.96908 0.86634 0.20887 0.0
C1678 C 0.97944 0.85476 0.21979 0.0
C1679 C 0.96164 0.83608 0.23106 0.0
C1680 C 0.0089 0.86237 0.21994 0.0
C1681 C 0.98752 0.88734 0.19689 0.0
C1682 C 0.02068 0.85632 0.20709 0.0
C1683 C 0.04866 0.86414 0.20723 0.0
C1684 C 0.0652 0.87809 0.22021 0.0
C1685 C 0.05327 0.88362 0.23317 0.0
C1686 C 0.02533 0.87579 0.23305 0.0
H1687 H 0.9779 0.89881 0.19182 0.0
H1688 H 0.00765 0.9024 0.20217 0.0
H1689 H 0.99156 0.87664 0.18718 0.0
H1690 H 0.00824 0.84555 0.19698 0.0
H1691 H 0.05746 0.85952 0.19716 0.0
H1692 H 0.02496 0.18668 0.80374 0.0
H1693 H 0.06436 0.17923 0.80295 0.0
H1694 H 0.05241 0.16322 0.75328 0.0
H1695 H 0.01256 0.17014 0.75399 0.0
H1696 H 0.05829 0.12391 0.76896 0.0
H1697 H 0.14183 0.228 0.78608 0.0
H1698 H 0.11355 0.21368 0.79966 0.0
H1699 H 0.1082 0.22137 0.77993 0.0
C1700 C 0.03087 0.18189 0.79259 0.0
C1701 C 0.01563 0.17907 0.77892 0.0
C1702 C 0.05353 0.1778 0.79215 0.0
C1703 C 0.06159 0.17107 0.77802 0.0
C1704 C 0.04664 0.16856 0.7643 0.0
H1705 H 0.21194 0.16324 0.76409 0.0
H1706 H 0.17573 0.17573 0.76331 0.0
C1707 C 0.02391 0.17259 0.76473 0.0
C1708 C 0.08457 0.16503 0.77775 0.0
H1709 H 0.15265 0.19178 0.78694 0.0
C1710 C 0.07897 0.13882 0.77279 0.0
C1711 C 0.11162 0.1846 0.78258 0.0
C1712 C 0.11929 0.21358 0.78722 0.0
C1713 C 0.0995 0.1314 0.77288 0.0
C1714 C 0.12623 0.15054 0.77836 0.0
C1715 C 0.13204 0.177 0.78294 0.0
C1716 C 0.14849 0.14354 0.7793 0.0
C1717 C 0.09245 0.10322 0.76692 0.0
C1718 C 0.14542 0.12168 0.78879 0.0
C1719 C 0.16609 0.1146 0.78927 0.0
C1720 C 0.19027 0.12947 0.7804 0.0
C1721 C 0.19361 0.15171 0.77118 0.0
C1722 C 0.17292 0.15876 0.77068 0.0
H1723 H 0.07388 0.09418 0.75929 0.0
H1724 H 0.1099 0.10414 0.76022 0.0
H1725 H 0.08803 0.08916 0.77704 0.0
H1726 H 0.127 0.11002 0.79578 0.0
H1727 H 0.16317 0.09745 0.79651 0.0
H1728 H 0.86365 0.05498 0.80274 0.0
H1729 H 0.8511 0.00611 0.80243 0.0
H1730 H 0.87845 0.01463 0.75441 0.0
H1731 H 0.89133 0.06342 0.75482 0.0
H1732 H 0.81493 0.96243 0.78348 0.0
H1733 H 0.92225 0.98369 0.77571 0.0
H1734 H 0.91437 0.01016 0.78113 0.0
H1735 H 0.9116 0.99938 0.76102 0.0
C1736 C 0.86691 0.04627 0.79217 0.0
C1737 C 0.87882 0.06283 0.77889 0.0
C1738 C 0.85976 0.01846 0.79198 0.0
C1739 C 0.8644 0.0069 0.7785 0.0
C1740 C 0.87538 0.0233 0.76506 0.0
H1741 H 0.84214 0.84637 0.75432 0.0
H1742 H 0.84895 0.8931 0.75384 0.0
C1743 C 0.88263 0.05106 0.76527 0.0
C1744 C 0.85789 0.97776 0.77849 0.0
H1745 H 0.88667 0.93705 0.77315 0.0
C1746 C 0.83061 0.95685 0.78129 0.0
C1747 C 0.87842 0.97056 0.77565 0.0
C1748 C 0.90835 0.99212 0.77336 0.0
C1749 C 0.82321 0.92888 0.78104 0.0
C1750 C 0.84371 0.92172 0.77808 0.0
C1751 C 0.87097 0.94262 0.77531 0.0
C1752 C 0.83755 0.89271 0.77812 0.0
C1753 C 0.79345 0.9072 0.78365 0.0
C1754 C 0.82885 0.87701 0.79192 0.0
C1755 C 0.82496 0.85033 0.79225 0.0
C1756 C 0.8298 0.83887 0.77877 0.0
C1757 C 0.83809 0.85451 0.76488 0.0
C1758 C 0.84205 0.88123 0.76459 0.0
H1759 H 0.77936 0.91558 0.78188 0.0
H1760 H 0.7872 0.88942 0.77562 0.0
H1761 H 0.79087 0.8995 0.79587 0.0
H1762 H 0.82575 0.88567 0.80257 0.0
H1763 H 0.81868 0.8389 0.80315 0.0
H1764 H 0.16386 0.99515 0.75532 0.0
H1765 H 0.11681 0.95574 0.75524 0.0
H1766 H 0.11975 0.94964 0.80553 0.0
H1767 H 0.16687 0.98874 0.80572 0.0
H1768 H 0.09628 0.89846 0.79023 0.0
H1769 H 0.04964 0.96059 0.77035 0.0
H1770 H 0.07644 0.96262 0.75785 0.0
H1771 H 0.08463 0.97611 0.77746 0.0
C1772 C 0.15459 0.9853 0.76635 0.0
C1773 C 0.16908 0.99521 0.78054 0.0
C1774 C 0.12763 0.96289 0.76629 0.0
C1775 C 0.11464 0.95008 0.78041 0.0
C1776 C 0.12936 0.95933 0.79451 0.0
H1777 H 0.93925 0.8462 0.79768 0.0
H1778 H 0.98799 0.8825 0.79782 0.0
C1779 C 0.15629 0.98171 0.79459 0.0
C1780 C 0.08553 0.92738 0.78057 0.0
H1781 H 0.01974 0.91236 0.77233 0.0
C1782 C 0.07952 0.90145 0.78631 0.0
C1783 C 0.0637 0.93149 0.77567 0.0
C1784 C 0.06878 0.95925 0.77011 0.0
C1785 C 0.05224 0.87941 0.78712 0.0
C1786 C 0.03048 0.88335 0.78186 0.0
C1787 C 0.03649 0.90935 0.77626 0.0
C1788 C 1.00126 0.86088 0.78221 0.0
C1789 C 0.04691 0.85227 0.79389 0.0
C1790 C 0.99257 0.83679 0.77334 0.0
C1791 C 0.96481 0.81612 0.77327 0.0
C1792 C 0.94529 0.81926 0.78202 0.0
C1793 C 0.95398 0.84334 0.79088 0.0
C1794 C 0.98174 0.86401 0.79096 0.0
H1795 H 0.06464 0.85469 0.80098 0.0
H1796 H 0.02816 0.84295 0.80137 0.0
H1797 H 0.04357 0.83773 0.78418 0.0
H1798 H 0.00715 0.83422 0.76622 0.0
H1799 H 0.95848 0.79797 0.76608 0.0
H1800 H 0.83477 0.54589 0.56697 0.0
H1801 H 0.84881 0.51093 0.56706 0.0
H1802 H 0.77591 0.45611 0.54063 0.0
H1803 H 0.76275 0.49176 0.5397 0.0
H1804 H 0.82441 0.46137 0.57956 0.0
H1805 H 0.8334 0.45059 0.51565 0.0
H1806 H 0.82975 0.47825 0.52393 0.0
H1807 H 0.79991 0.44467 0.52103 0.0
C1808 C 0.82214 0.52664 0.56084 0.0
C1809 C 0.79792 0.52166 0.5531 0.0
C1810 C 0.83002 0.50657 0.56103 0.0
C1811 C 0.8137 0.48104 0.55361 0.0
C1812 C 0.78926 0.4759 0.54606 0.0
H1813 H 0.81609 0.3304 0.5737 0.0
H1814 H 0.80726 0.36892 0.57324 0.0
C1815 C 0.78159 0.49614 0.54568 0.0
C1816 C 0.82172 0.45944 0.55435 0.0
H1817 H 0.83286 0.41551 0.53184 0.0
C1818 C 0.82647 0.45149 0.56911 0.0
C1819 C 0.82484 0.44684 0.54071 0.0
C1820 C 0.822 0.45573 0.52444 0.0
C1821 C 0.83373 0.43095 0.57064 0.0
C1822 C 0.83546 0.41737 0.55706 0.0
C1823 C 0.83125 0.4257 0.54227 0.0
C1824 C 0.84147 0.39437 0.55785 0.0
C1825 C 0.83992 0.42441 0.58679 0.0
C1826 C 0.86325 0.39551 0.54908 0.0
C1827 C 0.86804 0.37328 0.5491 0.0
C1828 C 0.85119 0.34948 0.55794 0.0
C1829 C 0.82963 0.34853 0.56689 0.0
C1830 C 0.82465 0.37064 0.56672 0.0
H1831 H 0.84638 0.4421 0.59493 0.0
H1832 H 0.82101 0.40664 0.59168 0.0
H1833 H 0.85645 0.41895 0.58641 0.0
H1834 H 0.87644 0.41356 0.54211 0.0
H1835 H 0.8848 0.37466 0.54207 0.0
H1836 H 0.66716 0.49275 0.57799 0.0
H1837 H 0.62754 0.44581 0.57789 0.0
H1838 H 0.61154 0.45552 0.52953 0.0
H1839 H 0.65134 0.50222 0.52943 0.0
H1840 H 0.57191 0.42541 0.57172 0.0
H1841 H 0.61771 0.3861 0.52821 0.0
H1842 H 0.63761 0.41898 0.53785 0.0
H1843 H 0.61562 0.41544 0.52159 0.0
C1844 C 0.65512 0.48496 0.56736 0.0
C1845 C 0.66254 0.50115 0.55368 0.0
C1846 C 0.6325 0.45812 0.56732 0.0
C1847 C 0.61693 0.44698 0.55362 0.0
C1848 C 0.62367 0.46346 0.54013 0.0
H1849 H 0.47782 0.28482 0.53055 0.0
H1850 H 0.51336 0.33397 0.53042 0.0
C1851 C 0.64634 0.49022 0.54012 0.0
C1852 C 0.59387 0.41801 0.55338 0.0
H1853 H 0.5713 0.35571 0.53551 0.0
C1854 C 0.57178 0.41015 0.56383 0.0
C1855 C 0.59377 0.39812 0.54308 0.0
C1856 C 0.61755 0.40494 0.53214 0.0
C1857 C 0.54945 0.38299 0.56413 0.0
C1858 C 0.54939 0.36315 0.55383 0.0
C1859 C 0.57136 0.37103 0.54332 0.0
C1860 C 0.52719 0.33385 0.55411 0.0
C1861 C 0.52593 0.37579 0.57532 0.0
C1862 C 0.52335 0.31758 0.56742 0.0
C1863 C 0.50322 0.28965 0.56746 0.0
C1864 C 0.48673 0.27753 0.55418 0.0
C1865 C 0.49037 0.29382 0.54091 0.0
C1866 C 0.5106 0.32177 0.54083 0.0
H1867 H 0.52572 0.39447 0.57953 0.0
H1868 H 0.50579 0.36172 0.56969 0.0
H1869 H 0.52818 0.36506 0.58567 0.0
H1870 H 0.5362 0.32639 0.57769 0.0
H1871 H 0.50059 0.27745 0.57786 0.0
H1872 H 0.71894 0.17677 0.56958 0.0
H1873 H 0.67016 0.16408 0.56982 0.0
H1874 H 0.68663 0.22549 0.53442 0.0
H1875 H 0.73547 0.23829 0.53427 0.0
H1876 H 0.65692 0.22833 0.55933 0.0
H1877 H 0.60988 0.12072 0.53759 0.0
H1878 H 0.63206 0.12793 0.55426 0.0
H1879 H 0.64632 0.1451 0.53595 0.0
C1880 C 0.71196 0.18717 0.56167 0.0
C1881 C 0.73075 0.2083 0.5518 0.0
C1882 C 0.68415 0.17991 0.5618 0.0
C1883 C 0.67468 0.19357 0.55198 0.0
C1884 C 0.69347 0.2146 0.54204 0.0
H1885 H 0.50684 0.15026 0.53009 0.0
H1886 H 0.55393 0.15823 0.53014 0.0
C1887 C 0.72128 0.22187 0.54194 0.0
C1888 C 0.64548 0.18689 0.55258 0.0
H1889 H 0.57909 0.13484 0.54736 0.0
C1890 C 0.6399 0.2079 0.55669 0.0
C1891 C 0.62333 0.16029 0.549 0.0
C1892 C 0.62811 0.13725 0.5438 0.0
C1893 C 0.61276 0.20301 0.5574 0.0
C1894 C 0.59055 0.17623 0.55422 0.0
C1895 C 0.59613 0.15527 0.54998 0.0
C1896 C 0.56146 0.1699 0.5546 0.0
C1897 C 0.60815 0.22674 0.56121 0.0
C1898 C 0.54981 0.17317 0.56844 0.0
C1899 C 0.52288 0.16872 0.56845 0.0
C1900 C 0.50705 0.16071 0.55463 0.0
C1901 C 0.51847 0.1565 0.54093 0.0
C1902 C 0.54539 0.16102 0.54093 0.0
H1903 H 0.62718 0.24701 0.55949 0.0
H1904 H 0.59149 0.22608 0.55382 0.0
H1905 H 0.60188 0.22531 0.57367 0.0
H1906 H 0.56166 0.17947 0.57921 0.0
H1907 H 0.51468 0.17202 0.57922 0.0
H1908 H 0.86796 0.48167 0.13566 0.0
H1909 H 0.83206 0.49479 0.13508 0.0
H1910 H 0.80829 0.46017 0.08867 0.0
H1911 H 0.84394 0.44696 0.0893 0.0
H1912 H 0.8235 0.52848 0.11391 0.0
H1913 H 0.7357 0.42093 0.11312 0.0
H1914 H 0.77039 0.42926 0.11802 0.0
H1915 H 0.7606 0.42846 0.09787 0.0
C1916 C 0.85502 0.47695 0.12537 0.0
C1917 C 0.85828 0.46296 0.11263 0.0
C1918 C 0.8346 0.48442 0.12503 0.0
C1919 C 0.81717 0.47796 0.11196 0.0
C1920 C 0.82105 0.46474 0.09903 0.0
H1921 H 0.67665 0.49699 0.08844 0.0
H1922 H 0.716 0.48929 0.08788 0.0
C1923 C 0.84139 0.45725 0.09938 0.0
C1924 C 0.79486 0.48494 0.1118 0.0
H1925 H 0.72498 0.4564 0.10892 0.0
C1926 C 0.80194 0.51274 0.11289 0.0
C1927 C 0.76677 0.46435 0.11045 0.0
C1928 C 0.7578 0.43406 0.10994 0.0
C1929 C 0.78167 0.52055 0.11237 0.0
C1930 C 0.75359 0.49995 0.11096 0.0
C1931 C 0.74654 0.47216 0.1099 0.0
C1932 C 0.73104 0.50659 0.11089 0.0
C1933 C 0.79051 0.55079 0.11301 0.0
C1934 C 0.72647 0.51893 0.124 0.0
C1935 C 0.70403 0.52339 0.12435 0.0
C1936 C 0.68561 0.51545 0.11163 0.0
C1937 C 0.69049 0.50347 0.09841 0.0
C1938 C 0.71294 0.49899 0.09807 0.0
H1939 H 0.81262 0.56401 0.10987 0.0
H1940 H 0.77788 0.55561 0.10497 0.0
H1941 H 0.78762 0.55618 0.12511 0.0
H1942 H 0.73984 0.52444 0.13414 0.0
H1943 H 0.70082 0.53254 0.13475 0.0
H1944 H 0.51458 0.18229 0.08905 0.0
H1945 H 0.52301 0.22964 0.08916 0.0
H1946 H 0.48418 0.21584 0.13449 0.0
H1947 H 0.47594 0.16865 0.13459 0.0
H1948 H 0.48648 0.25055 0.09198 0.0
H1949 H 0.56049 0.28379 0.14164 0.0
H1950 H 0.54963 0.25204 0.13109 0.0
H1951 H 0.52748 0.25407 0.14564 0.0
C1952 C 0.50765 0.18925 0.099 0.0
C1953 C 0.49475 0.17173 0.11187 0.0
C1954 C 0.51251 0.21632 0.09904 0.0
C1955 C 0.50467 0.22639 0.11196 0.0
C1956 C 0.49092 0.20866 0.12456 0.0
H1957 H 0.52714 0.38795 0.13574 0.0
H1958 H 0.51301 0.33869 0.13523 0.0
C1959 C 0.4861 0.18163 0.12455 0.0
C1960 C 0.51125 0.25555 0.11236 0.0
H1961 H 0.54776 0.31587 0.13265 0.0
C1962 C 0.49991 0.26487 0.10084 0.0
C1963 C 0.52878 0.27417 0.12395 0.0
C1964 C 0.54253 0.26567 0.13621 0.0
C1965 C 0.50537 0.29225 0.10073 0.0
C1966 C 0.52297 0.31087 0.11229 0.0
C1967 C 0.53418 0.30151 0.12385 0.0
C1968 C 0.53065 0.34036 0.11238 0.0
C1969 C 0.49191 0.3009 0.08838 0.0
C1970 C 0.54538 0.35758 0.09978 0.0
C1971 C 0.55341 0.38557 0.10008 0.0
C1972 C 0.54704 0.39684 0.11304 0.0
C1973 C 0.53224 0.37964 0.12563 0.0
C1974 C 0.52423 0.35161 0.12534 0.0
H1975 H 0.47358 0.28286 0.08316 0.0
H1976 H 0.48547 0.31516 0.09333 0.0
H1977 H 0.50693 0.31184 0.07882 0.0
H1978 H 0.55097 0.34945 0.08979 0.0
H1979 H 0.5646 0.39843 0.09018 0.0
H1980 H 0.61091 0.16625 0.08956 0.0
H1981 H 0.65988 0.2016 0.08881 0.0
H1982 H 0.67108 0.17673 0.13484 0.0
H1983 H 0.62201 0.14117 0.13553 0.0
H1984 H 0.68762 0.24546 0.10912 0.0
H1985 H 0.734 0.17798 0.10994 0.0
H1986 H 0.69797 0.16504 0.10571 0.0
H1987 H 0.71013 0.17166 0.12562 0.0
C1988 C 0.6239 0.16839 0.0995 0.0
C1989 C 0.61282 0.15123 0.11265 0.0
C1990 C 0.65182 0.18847 0.09905 0.0
C1991 C 0.66921 0.19161 0.11169 0.0
C1992 C 0.65817 0.17432 0.12482 0.0
H1993 H 0.83896 0.30993 0.13468 0.0
H1994 H 0.79159 0.27127 0.134 0.0
C1995 C 0.6302 0.15416 0.12526 0.0
C1996 C 0.69856 0.21381 0.11136 0.0
H1997 H 0.76477 0.22609 0.11309 0.0
C1998 C 0.7045 0.24122 0.10989 0.0
C1999 C 0.72054 0.20822 0.11241 0.0
C2000 C 0.71544 0.17913 0.11337 0.0
C2001 C 0.73179 0.26325 0.10971 0.0
C2002 C 0.75376 0.25767 0.11077 0.0
C2003 C 0.74787 0.23028 0.11225 0.0
C2004 C 0.78299 0.28013 0.11067 0.0
C2005 C 0.73685 0.29235 0.10879 0.0
C2006 C 0.79409 0.29753 0.0976 0.0
C2007 C 0.82117 0.31968 0.09794 0.0
C2008 C 0.83769 0.32476 0.11134 0.0
C2009 C 0.82679 0.30669 0.12419 0.0
C2010 C 0.79972 0.28455 0.12383 0.0
H2011 H 0.7181 0.29341 0.11185 0.0
H2012 H 0.75386 0.30626 0.11675 0.0
H2013 H 0.74287 0.30013 0.09663 0.0
H2014 H 0.78167 0.29416 0.08721 0.0
H2015 H 0.82894 0.33313 0.08783 0.0
H2016 H 0.43234 0.82847 0.87002 0.0
H2017 H 0.44523 0.79252 0.87084 0.0
H2018 H 0.50952 0.84082 0.90418 0.0
H2019 H 0.49676 0.87684 0.90327 0.0
H2020 H 0.52688 0.81855 0.88099 0.0
H2021 H 0.4281 0.73845 0.90682 0.0
H2022 H 0.42381 0.75289 0.88898 0.0
H2023 H 0.43774 0.77438 0.90605 0.0
C2024 C 0.44926 0.83135 0.87747 0.0
C2025 C 0.46364 0.85535 0.88654 0.0
C2026 C 0.4565 0.8108 0.87801 0.0
C2027 C 0.47805 0.81379 0.88777 0.0
C2028 C 0.49279 0.83805 0.8966 0.0
H2029 H 0.50416 0.67753 0.9132 0.0
H2030 H 0.49675 0.71708 0.91387 0.0
C2031 C 0.48559 0.85863 0.89603 0.0
C2032 C 0.48522 0.79163 0.88878 0.0
H2033 H 0.45854 0.72344 0.89755 0.0
C2034 C 0.512 0.79778 0.88468 0.0
C2035 C 0.46592 0.76467 0.89387 0.0
C2036 C 0.43737 0.7572 0.89933 0.0
C2037 C 0.51979 0.77751 0.88515 0.0
C2038 C 0.50011 0.75024 0.88956 0.0
C2039 C 0.47355 0.74428 0.89404 0.0
C2040 C 0.5064 0.72741 0.88936 0.0
C2041 C 0.54911 0.78558 0.88108 0.0
C2042 C 0.5143 0.72007 0.87537 0.0
C2043 C 0.5187 0.6976 0.87496 0.0
C2044 C 0.515 0.68179 0.88852 0.0
C2045 C 0.50731 0.68932 0.90256 0.0
C2046 C 0.503 0.71188 0.90296 0.0
H2047 H 0.56331 0.80809 0.8826 0.0
H2048 H 0.55658 0.77428 0.88844 0.0
H2049 H 0.55006 0.78044 0.86861 0.0
H2050 H 0.51643 0.73132 0.86464 0.0
H2051 H 0.52441 0.69227 0.86392 0.0
H2052 H 0.31544 0.83609 0.86413 0.0
H2053 H 0.27548 0.78949 0.86432 0.0
H2054 H 0.29341 0.77887 0.91215 0.0
H2055 H 0.33317 0.82565 0.91216 0.0
H2056 H 0.27607 0.74143 0.86869 0.0
H2057 H 0.21134 0.75205 0.91429 0.0
H2058 H 0.24033 0.78146 0.90531 0.0
H2059 H 0.24578 0.76277 0.92073 0.0
C2060 C 0.3107 0.82399 0.87477 0.0
C2061 C 0.32745 0.83465 0.88815 0.0
C2062 C 0.28786 0.79733 0.87484 0.0
C2063 C 0.28122 0.7808 0.8883 0.0
C2064 C 0.29774 0.79146 0.90174 0.0
H2065 H 0.16806 0.60979 0.91032 0.0
H2066 H 0.20367 0.65873 0.91021 0.0
C2067 C 0.32055 0.81819 0.9017 0.0
C2068 C 0.25807 0.75187 0.88793 0.0
H2069 H 0.19785 0.70628 0.90611 0.0
C2070 C 0.25884 0.7338 0.87678 0.0
C2071 C 0.23563 0.74194 0.89852 0.0
C2072 C 0.233 0.76061 0.9103 0.0
C2073 C 0.23814 0.70594 0.87616 0.0
C2074 C 0.21587 0.69596 0.88684 0.0
C2075 C 0.21497 0.71402 0.89793 0.0
C2076 C 0.19374 0.66662 0.88696 0.0
C2077 C 0.24067 0.6872 0.86437 0.0
C2078 C 0.17609 0.65498 0.87402 0.0
C2079 C 0.15583 0.62703 0.87406 0.0
C2080 C 0.15299 0.61038 0.88702 0.0
C2081 C 0.1702 0.62219 0.90009 0.0
C2082 C 0.19038 0.6501 0.90007 0.0
H2083 H 0.26182 0.69656 0.85941 0.0
H2084 H 0.23532 0.6671 0.8698 0.0
H2085 H 0.2261 0.68315 0.85457 0.0
H2086 H 0.17805 0.6675 0.86389 0.0
H2087 H 0.14262 0.61833 0.8639 0.0
H2088 H 0.40035 0.56 0.91148 0.0
H2089 H 0.35135 0.54631 0.91224 0.0
H2090 H 0.34047 0.51142 0.86589 0.0
H2091 H 0.38958 0.52505 0.86517 0.0
H2092 H 0.32396 0.56314 0.89187 0.0
H2093 H 0.27731 0.44925 0.89061 0.0
H2094 H 0.31327 0.47221 0.89506 0.0
H2095 H 0.30146 0.46705 0.87509 0.0
C2096 C 0.38742 0.5494 0.90148 0.0
C2097 C 0.3986 0.54373 0.88821 0.0
C2098 C 0.35949 0.54151 0.90194 0.0
C2099 C 0.3422 0.5276 0.8892 0.0
C2100 C 0.35332 0.52167 0.87597 0.0
H2101 H 0.17267 0.47683 0.86615 0.0
H2102 H 0.21997 0.48532 0.86682 0.0
C2103 C 0.38131 0.52956 0.87552 0.0
C2104 C 0.31289 0.52053 0.88951 0.0
H2105 H 0.24665 0.46676 0.88765 0.0
C2106 C 0.30704 0.54206 0.89104 0.0
C2107 C 0.29089 0.49302 0.88838 0.0
C2108 C 0.29594 0.46899 0.88733 0.0
C2109 C 0.27979 0.53688 0.8912 0.0
C2110 C 0.25777 0.50937 0.89008 0.0
C2111 C 0.26359 0.48782 0.88854 0.0
C2112 C 0.22859 0.50269 0.89018 0.0
C2113 C 0.27481 0.56097 0.89217 0.0
C2114 C 0.21753 0.50901 0.90326 0.0
C2115 C 0.19051 0.50423 0.90292 0.0
C2116 C 0.17399 0.4929 0.8895 0.0
C2117 C 0.18485 0.48569 0.87664 0.0
C2118 C 0.21187 0.49048 0.877 0.0
H2119 H 0.29359 0.58075 0.88912 0.0
H2120 H 0.25781 0.55795 0.88422 0.0
H2121 H 0.26882 0.56272 0.90433 0.0
H2122 H 0.22994 0.51798 0.91366 0.0
H2123 H 0.18277 0.50992 0.91304 0.0
H2124 H 0.54512 0.82865 0.43157 0.0
H2125 H 0.509 0.84126 0.43169 0.0
H2126 H 0.46085 0.7744 0.46364 0.0
H2127 H 0.49699 0.76174 0.46349 0.0
H2128 H 0.43067 0.776 0.43839 0.0
H2129 H 0.48936 0.87918 0.46624 0.0
H2130 H 0.50587 0.87465 0.44935 0.0
H2131 H 0.501 0.85437 0.46665 0.0
C2132 C 0.52703 0.81699 0.43882 0.0
C2133 C 0.52388 0.79444 0.44767 0.0
C2134 C 0.50643 0.8242 0.43889 0.0
C2135 C 0.48242 0.80903 0.44786 0.0
C2136 C 0.47928 0.78647 0.45669 0.0
H2137 H 0.3559 0.84843 0.47187 0.0
H2138 H 0.39482 0.84015 0.47146 0.0
C2139 C 0.49986 0.77926 0.45662 0.0
C2140 C 0.46004 0.81593 0.44755 0.0
H2141 H 0.44541 0.86701 0.45573 0.0
C2142 C 0.43386 0.79589 0.4422 0.0
C2143 C 0.46422 0.8418 0.45265 0.0
C2144 C 0.49155 0.86368 0.45919 0.0
C2145 C 0.41178 0.80105 0.4417 0.0
C2146 C 0.41612 0.82715 0.44645 0.0
C2147 C 0.44223 0.84713 0.45193 0.0
C2148 C 0.39348 0.83367 0.44639 0.0
C2149 C 0.38383 0.7783 0.43644 0.0
C2150 C 0.38021 0.83342 0.43237 0.0
C2151 C 0.35788 0.83811 0.43256 0.0
C2152 C 0.34853 0.84329 0.44677 0.0
C2153 C 0.36249 0.84443 0.46072 0.0
C2154 C 0.38478 0.83973 0.46051 0.0
H2155 H 0.38239 0.75778 0.43684 0.0
H2156 H 0.36719 0.77759 0.44387 0.0
H2157 H 0.38017 0.78222 0.42417 0.0
H2158 H 0.38694 0.82931 0.4213 0.0
H2159 H 0.34767 0.83718 0.4216 0.0
H2160 H 0.15872 0.50834 0.47097 0.0
H2161 H 0.16582 0.55507 0.47024 0.0
H2162 H 0.1815 0.55925 0.42054 0.0
H2163 H 0.17476 0.51253 0.42117 0.0
H2164 H 0.22111 0.60476 0.43682 0.0
H2165 H 0.11608 0.58294 0.45288 0.0
H2166 H 0.13027 0.56864 0.46633 0.0
H2167 H 0.12317 0.55636 0.44644 0.0
C2168 C 0.16339 0.51905 0.45983 0.0
C2169 C 0.1661 0.50665 0.44611 0.0
C2170 C 0.16728 0.54573 0.45943 0.0
C2171 C 0.17382 0.56051 0.4453 0.0
C2172 C 0.1763 0.54813 0.43155 0.0
H2173 H 0.18079 0.71821 0.43097 0.0
H2174 H 0.16862 0.66958 0.43023 0.0
C2175 C 0.17237 0.5214 0.43193 0.0
C2176 C 0.17959 0.58943 0.44507 0.0
H2177 H 0.15185 0.63007 0.45381 0.0
C2178 C 0.20591 0.61029 0.44044 0.0
C2179 C 0.15966 0.59657 0.44963 0.0
C2180 C 0.13062 0.57495 0.45396 0.0
C2181 C 0.21306 0.63817 0.44059 0.0
C2182 C 0.19349 0.64541 0.44578 0.0
C2183 C 0.16694 0.6245 0.45003 0.0
C2184 C 0.20017 0.67458 0.44674 0.0
C2185 C 0.24141 0.65958 0.43503 0.0
C2186 C 0.22153 0.69336 0.45652 0.0
C2187 C 0.22841 0.72105 0.45697 0.0
C2188 C 0.21386 0.73033 0.4478 0.0
C2189 C 0.19207 0.71143 0.4383 0.0
C2190 C 0.18521 0.68374 0.43783 0.0
H2191 H 0.25097 0.65033 0.42758 0.0
H2192 H 0.24059 0.6761 0.42826 0.0
H2193 H 0.25498 0.66918 0.44535 0.0
H2194 H 0.23297 0.68662 0.46374 0.0
H2195 H 0.24523 0.73528 0.46442 0.0
H2196 H 0.49762 0.66019 0.42105 0.0
H2197 H 0.45071 0.62052 0.42088 0.0
H2198 H 0.45362 0.61399 0.47114 0.0
H2199 H 0.50059 0.65331 0.47142 0.0
H2200 H 0.43042 0.56296 0.45566 0.0
H2201 H 0.3834 0.62496 0.43614 0.0
H2202 H 0.41024 0.62717 0.42361 0.0
H2203 H 0.4184 0.64053 0.44324 0.0
C2204 C 0.48837 0.65018 0.43206 0.0
C2205 C 0.5028 0.66003 0.44627 0.0
C2206 C 0.46151 0.62763 0.43194 0.0
C2207 C 0.44855 0.61463 0.44603 0.0
C2208 C 0.46322 0.62382 0.46015 0.0
H2209 H 0.27373 0.51115 0.46397 0.0
H2210 H 0.32254 0.54718 0.46389 0.0
C2211 C 0.49006 0.64633 0.46028 0.0
C2212 C 0.4195 0.59185 0.44615 0.0
H2213 H 0.35362 0.57675 0.43816 0.0
C2214 C 0.4136 0.56591 0.45182 0.0
C2215 C 0.39761 0.59593 0.44135 0.0
C2216 C 0.40258 0.62369 0.43587 0.0
C2217 C 0.38635 0.54384 0.45269 0.0
C2218 C 0.36452 0.54778 0.44756 0.0
C2219 C 0.37043 0.57376 0.44199 0.0
C2220 C 0.33531 0.52537 0.4481 0.0
C2221 C 0.38111 0.5167 0.4594 0.0
C2222 C 0.32633 0.50124 0.43922 0.0
C2223 C 0.29851 0.4807 0.43928 0.0
C2224 C 0.27926 0.48405 0.44817 0.0
C2225 C 0.28826 0.50814 0.45707 0.0
C2226 C 0.31606 0.52866 0.45702 0.0
H2227 H 0.39899 0.51908 0.46633 0.0
H2228 H 0.36254 0.50744 0.46702 0.0
H2229 H 0.37749 0.50212 0.44966 0.0
H2230 H 0.34071 0.49856 0.43198 0.0
H2231 H 0.29192 0.46253 0.43208 0.0
loop_
_geom_bond_atom_site_label_1
_geom_bond_atom_site_label_2
_geom_bond_distance
_geom_bond_site_symmetry_2
_ccdc_geom_bond_type
Co0 O3 1.970 . S
Co0 N17 1.989 . S
Co0 O25 1.967 . S
Co0 O32 1.920 . S
Co1 O4 1.966 . S
Co1 N10 2.022 . S
Co1 N18 1.993 . S
Co1 O26 1.941 . S
C2 O3 1.258 . S
C2 O4 1.263 . S
O3 Co0 1.970 . S
O3 C2 1.258 . S
O4 Co1 1.966 . S
O4 C2 1.263 . S
C5 O6 1.235 . S
C5 O32 1.289 . S
O6 C5 1.235 . S
C7 C9 1.400 . S
C7 N10 1.351 . S
C7 C12 1.501 . S
C8 C9 1.387 . S
C8 N11 1.341 . S
C9 C7 1.400 . S
C9 C8 1.387 . S
N10 Co1 2.022 . S
N10 C7 1.351 . S
N10 N11 1.365 . S
N11 C8 1.341 . S
N11 N10 1.365 . S
N11 H31 0.862 . S
C12 C7 1.501 . S
C12 H13 0.961 . S
C12 H14 0.961 . S
C12 H15 0.960 . S
H13 C12 0.961 . S
H14 C12 0.961 . S
H15 C12 0.960 . S
C16 N17 1.342 . S
C16 C20 1.401 . S
C16 C21 1.499 . S
N17 Co0 1.989 . S
N17 C16 1.342 . S
N17 N18 1.388 . S
N18 Co1 1.993 . S
N18 N17 1.388 . S
N18 C19 1.346 . S
C19 N18 1.346 . S
C19 C20 1.396 . S
C19 C29 1.510 . S
C20 C16 1.401 . S
C20 C19 1.396 . S
C21 C16 1.499 . S
C21 H22 0.959 . S
C21 H23 0.960 . S
C21 H24 0.961 . S
H22 C21 0.959 . S
H23 C21 0.960 . S
H24 C21 0.961 . S
O25 Co0 1.967 . S
O25 C33 1.258 . S
O26 Co1 1.941 . S
O26 C33 1.266 . S
H27 C29 0.959 . S
H28 C29 0.961 . S
C29 C19 1.510 . S
C29 H27 0.959 . S
C29 H28 0.961 . S
C29 H30 0.960 . S
H30 C29 0.960 . S
H31 N11 0.862 . S
O32 Co0 1.920 . S
O32 C5 1.289 . S
C33 O25 1.258 . S
C33 O26 1.266 . S
Co34 O37 1.970 . S
Co34 N51 1.989 . S
Co34 O59 1.967 . S
Co34 O66 1.920 . S
Co35 O38 1.966 . S
Co35 N44 2.022 . S
Co35 N52 1.993 . S
Co35 O60 1.941 . S
C36 O37 1.258 . S
C36 O38 1.263 . S
O37 Co34 1.970 . S
O37 C36 1.258 . S
O38 Co35 1.966 . S
O38 C36 1.263 . S
C39 O40 1.235 . S
C39 O66 1.289 . S
O40 C39 1.235 . S
C41 C43 1.400 . S
C41 N44 1.351 . S
C41 C46 1.501 . S
C42 C43 1.387 . S
C42 N45 1.341 . S
C43 C41 1.400 . S
C43 C42 1.387 . S
N44 Co35 2.022 . S
N44 C41 1.351 . S
N44 N45 1.365 . S
N45 C42 1.341 . S
N45 N44 1.365 . S
N45 H65 0.862 . S
C46 C41 1.501 . S
C46 H47 0.961 . S
C46 H48 0.961 . S
C46 H49 0.960 . S
H47 C46 0.961 . S
H48 C46 0.961 . S
H49 C46 0.960 . S
C50 N51 1.342 . S
C50 C54 1.401 . S
C50 C55 1.499 . S
N51 Co34 1.989 . S
N51 C50 1.342 . S
N51 N52 1.388 . S
N52 Co35 1.993 . S
N52 N51 1.388 . S
N52 C53 1.346 . S
C53 N52 1.346 . S
C53 C54 1.396 . S
C53 C63 1.510 . S
C54 C50 1.401 . S
C54 C53 1.396 . S
C55 C50 1.499 . S
C55 H56 0.959 . S
C55 H57 0.960 . S
C55 H58 0.961 . S
H56 C55 0.959 . S
H57 C55 0.960 . S
H58 C55 0.961 . S
O59 Co34 1.967 . S
O59 C67 1.258 . S
O60 Co35 1.941 . S
O60 C67 1.266 . S
H61 C63 0.959 . S
H62 C63 0.961 . S
C63 C53 1.510 . S
C63 H61 0.959 . S
C63 H62 0.961 . S
C63 H64 0.960 . S
H64 C63 0.960 . S
H65 N45 0.862 . S
O66 Co34 1.920 . S
O66 C39 1.289 . S
C67 O59 1.258 . S
C67 O60 1.266 . S
Co68 O71 1.970 . S
Co68 N85 1.989 . S
Co68 O93 1.967 . S
Co68 O100 1.920 . S
Co69 O72 1.966 . S
Co69 N78 2.022 . S
Co69 N86 1.993 . S
Co69 O94 1.941 . S
C70 O71 1.258 . S
C70 O72 1.263 . S
O71 Co68 1.970 . S
O71 C70 1.258 . S
O72 Co69 1.966 . S
O72 C70 1.263 . S
C73 O74 1.235 . S
C73 O100 1.289 . S
O74 C73 1.235 . S
C75 C77 1.400 . S
C75 N78 1.351 . S
C75 C80 1.501 . S
C76 C77 1.387 . S
C76 N79 1.341 . S
C77 C75 1.400 . S
C77 C76 1.387 . S
N78 Co69 2.022 . S
N78 C75 1.351 . S
N78 N79 1.365 . S
N79 C76 1.341 . S
N79 N78 1.365 . S
N79 H99 0.862 . S
C80 C75 1.501 . S
C80 H81 0.961 . S
C80 H82 0.961 . S
C80 H83 0.960 . S
H81 C80 0.961 . S
H82 C80 0.961 . S
H83 C80 0.960 . S
C84 N85 1.342 . S
C84 C88 1.401 . S
C84 C89 1.499 . S
N85 Co68 1.989 . S
N85 C84 1.342 . S
N85 N86 1.388 . S
N86 Co69 1.993 . S
N86 N85 1.388 . S
N86 C87 1.346 . S
C87 N86 1.346 . S
C87 C88 1.396 . S
C87 C97 1.510 . S
C88 C84 1.401 . S
C88 C87 1.396 . S
C89 C84 1.499 . S
C89 H90 0.959 . S
C89 H91 0.960 . S
C89 H92 0.961 . S
H90 C89 0.959 . S
H91 C89 0.960 . S
H92 C89 0.961 . S
O93 Co68 1.967 . S
O93 C101 1.258 . S
O94 Co69 1.941 . S
O94 C101 1.266 . S
H95 C97 0.959 . S
H96 C97 0.961 . S
C97 C87 1.510 . S
C97 H95 0.959 . S
C97 H96 0.961 . S
C97 H98 0.960 . S
H98 C97 0.960 . S
H99 N79 0.862 . S
O100 Co68 1.920 . S
O100 C73 1.289 . S
C101 O93 1.258 . S
C101 O94 1.266 . S
Co102 O105 1.970 . S
Co102 N119 1.989 . S
Co102 O127 1.967 . S
Co102 O134 1.920 . S
Co103 O106 1.966 . S
Co103 N112 2.022 . S
Co103 N120 1.993 . S
Co103 O128 1.941 . S
C104 O105 1.258 . S
C104 O106 1.263 . S
O105 Co102 1.970 . S
O105 C104 1.258 . S
O106 Co103 1.966 . S
O106 C104 1.263 . S
C107 O108 1.235 . S
C107 O134 1.289 . S
O108 C107 1.235 . S
C109 C111 1.400 . S
C109 N112 1.351 . S
C109 C114 1.501 . S
C110 C111 1.387 . S
C110 N113 1.341 . S
C111 C109 1.400 . S
C111 C110 1.387 . S
N112 Co103 2.022 . S
N112 C109 1.351 . S
N112 N113 1.365 . S
N113 C110 1.341 . S
N113 N112 1.365 . S
N113 H133 0.862 . S
C114 C109 1.501 . S
C114 H115 0.961 . S
C114 H116 0.961 . S
C114 H117 0.960 . S
H115 C114 0.961 . S
H116 C114 0.961 . S
H117 C114 0.960 . S
C118 N119 1.342 . S
C118 C122 1.401 . S
C118 C123 1.499 . S
N119 Co102 1.989 . S
N119 C118 1.342 . S
N119 N120 1.388 . S
N120 Co103 1.993 . S
N120 N119 1.388 . S
N120 C121 1.346 . S
C121 N120 1.346 . S
C121 C122 1.396 . S
C121 C131 1.510 . S
C122 C118 1.401 . S
C122 C121 1.396 . S
C123 C118 1.499 . S
C123 H124 0.959 . S
C123 H125 0.960 . S
C123 H126 0.961 . S
H124 C123 0.959 . S
H125 C123 0.960 . S
H126 C123 0.961 . S
O127 Co102 1.967 . S
O127 C135 1.258 . S
O128 Co103 1.941 . S
O128 C135 1.266 . S
H129 C131 0.959 . S
H130 C131 0.961 . S
C131 C121 1.510 . S
C131 H129 0.959 . S
C131 H130 0.961 . S
C131 H132 0.960 . S
H132 C131 0.960 . S
H133 N113 0.862 . S
O134 Co102 1.920 . S
O134 C107 1.289 . S
C135 O127 1.258 . S
C135 O128 1.266 . S
Co136 O139 1.970 . S
Co136 N153 1.989 . S
Co136 O161 1.967 . S
Co136 O168 1.920 . S
Co137 O140 1.966 . S
Co137 N146 2.022 . S
Co137 N154 1.993 . S
Co137 O162 1.941 . S
C138 O139 1.258 . S
C138 O140 1.263 . S
O139 Co136 1.970 . S
O139 C138 1.258 . S
O140 Co137 1.966 . S
O140 C138 1.263 . S
C141 O142 1.235 . S
C141 O168 1.289 . S
O142 C141 1.235 . S
C143 C145 1.400 . S
C143 N146 1.351 . S
C143 C148 1.501 . S
C144 C145 1.387 . S
C144 N147 1.341 . S
C145 C143 1.400 . S
C145 C144 1.387 . S
N146 Co137 2.022 . S
N146 C143 1.351 . S
N146 N147 1.365 . S
N147 C144 1.341 . S
N147 N146 1.365 . S
N147 H167 0.862 . S
C148 C143 1.501 . S
C148 H149 0.961 . S
C148 H150 0.961 . S
C148 H151 0.960 . S
H149 C148 0.961 . S
H150 C148 0.961 . S
H151 C148 0.960 . S
C152 N153 1.342 . S
C152 C156 1.401 . S
C152 C157 1.499 . S
N153 Co136 1.989 . S
N153 C152 1.342 . S
N153 N154 1.388 . S
N154 Co137 1.993 . S
N154 N153 1.388 . S
N154 C155 1.346 . S
C155 N154 1.346 . S
C155 C156 1.396 . S
C155 C165 1.510 . S
C156 C152 1.401 . S
C156 C155 1.396 . S
C157 C152 1.499 . S
C157 H158 0.959 . S
C157 H159 0.960 . S
C157 H160 0.961 . S
H158 C157 0.959 . S
H159 C157 0.960 . S
H160 C157 0.961 . S
O161 Co136 1.967 . S
O161 C169 1.258 . S
O162 Co137 1.941 . S
O162 C169 1.266 . S
H163 C165 0.959 . S
H164 C165 0.961 . S
C165 C155 1.510 . S
C165 H163 0.959 . S
C165 H164 0.961 . S
C165 H166 0.960 . S
H166 C165 0.960 . S
H167 N147 0.862 . S
O168 Co136 1.920 . S
O168 C141 1.289 . S
C169 O161 1.258 . S
C169 O162 1.266 . S
Co170 O173 1.970 . S
Co170 N187 1.989 . S
Co170 O195 1.967 . S
Co170 O202 1.920 . S
Co171 O174 1.966 . S
Co171 N180 2.022 . S
Co171 N188 1.993 . S
Co171 O196 1.941 . S
C172 O173 1.258 . S
C172 O174 1.263 . S
O173 Co170 1.970 . S
O173 C172 1.258 . S
O174 Co171 1.966 . S
O174 C172 1.263 . S
C175 O176 1.235 . S
C175 O202 1.289 . S
O176 C175 1.235 . S
C177 C179 1.400 . S
C177 N180 1.351 . S
C177 C182 1.501 . S
C178 C179 1.387 . S
C178 N181 1.341 . S
C179 C177 1.400 . S
C179 C178 1.387 . S
N180 Co171 2.022 . S
N180 C177 1.351 . S
N180 N181 1.365 . S
N181 C178 1.341 . S
N181 N180 1.365 . S
N181 H201 0.862 . S
C182 C177 1.501 . S
C182 H183 0.961 . S
C182 H184 0.961 . S
C182 H185 0.960 . S
H183 C182 0.961 . S
H184 C182 0.961 . S
H185 C182 0.960 . S
C186 N187 1.342 . S
C186 C190 1.401 . S
C186 C191 1.499 . S
N187 Co170 1.989 . S
N187 C186 1.342 . S
N187 N188 1.388 . S
N188 Co171 1.993 . S
N188 N187 1.388 . S
N188 C189 1.346 . S
C189 N188 1.346 . S
C189 C190 1.396 . S
C189 C199 1.510 . S
C190 C186 1.401 . S
C190 C189 1.396 . S
C191 C186 1.499 . S
C191 H192 0.959 . S
C191 H193 0.960 . S
C191 H194 0.961 . S
H192 C191 0.959 . S
H193 C191 0.960 . S
H194 C191 0.961 . S
O195 Co170 1.967 . S
O195 C203 1.258 . S
O196 Co171 1.941 . S
O196 C203 1.266 . S
H197 C199 0.959 . S
H198 C199 0.961 . S
C199 C189 1.510 . S
C199 H197 0.959 . S
C199 H198 0.961 . S
C199 H200 0.960 . S
H200 C199 0.960 . S
H201 N181 0.862 . S
O202 Co170 1.920 . S
O202 C175 1.289 . S
C203 O195 1.258 . S
C203 O196 1.266 . S
Co204 O207 1.970 . S
Co204 N221 1.989 . S
Co204 O229 1.967 . S
Co204 O236 1.920 . S
Co205 O208 1.966 . S
Co205 N214 2.022 . S
Co205 N222 1.993 . S
Co205 O230 1.941 . S
C206 O207 1.258 . S
C206 O208 1.263 . S
O207 Co204 1.970 . S
O207 C206 1.258 . S
O208 Co205 1.966 . S
O208 C206 1.263 . S
C209 O210 1.235 . S
C209 O236 1.289 . S
O210 C209 1.235 . S
C211 C213 1.400 . S
C211 N214 1.351 . S
C211 C216 1.501 . S
C212 C213 1.387 . S
C212 N215 1.341 . S
C213 C211 1.400 . S
C213 C212 1.387 . S
N214 Co205 2.022 . S
N214 C211 1.351 . S
N214 N215 1.365 . S
N215 C212 1.341 . S
N215 N214 1.365 . S
N215 H235 0.862 . S
C216 C211 1.501 . S
C216 H217 0.961 . S
C216 H218 0.961 . S
C216 H219 0.960 . S
H217 C216 0.961 . S
H218 C216 0.961 . S
H219 C216 0.960 . S
C220 N221 1.342 . S
C220 C224 1.401 . S
C220 C225 1.499 . S
N221 Co204 1.989 . S
N221 C220 1.342 . S
N221 N222 1.388 . S
N222 Co205 1.993 . S
N222 N221 1.388 . S
N222 C223 1.346 . S
C223 N222 1.346 . S
C223 C224 1.396 . S
C223 C233 1.510 . S
C224 C220 1.401 . S
C224 C223 1.396 . S
C225 C220 1.499 . S
C225 H226 0.959 . S
C225 H227 0.960 . S
C225 H228 0.961 . S
H226 C225 0.959 . S
H227 C225 0.960 . S
H228 C225 0.961 . S
O229 Co204 1.967 . S
O229 C237 1.258 . S
O230 Co205 1.941 . S
O230 C237 1.266 . S
H231 C233 0.959 . S
H232 C233 0.961 . S
C233 C223 1.510 . S
C233 H231 0.959 . S
C233 H232 0.961 . S
C233 H234 0.960 . S
H234 C233 0.960 . S
H235 N215 0.862 . S
O236 Co204 1.920 . S
O236 C209 1.289 . S
C237 O229 1.258 . S
C237 O230 1.266 . S
Co238 O241 1.970 . S
Co238 N255 1.989 . S
Co238 O263 1.967 . S
Co238 O270 1.920 . S
Co239 O242 1.966 . S
Co239 N248 2.022 . S
Co239 N256 1.993 . S
Co239 O264 1.941 . S
C240 O241 1.258 . S
C240 O242 1.263 . S
O241 Co238 1.970 . S
O241 C240 1.258 . S
O242 Co239 1.966 . S
O242 C240 1.263 . S
C243 O244 1.235 . S
C243 O270 1.289 . S
O244 C243 1.235 . S
C245 C247 1.400 . S
C245 N248 1.351 . S
C245 C250 1.501 . S
C246 C247 1.387 . S
C246 N249 1.341 . S
C247 C245 1.400 . S
C247 C246 1.387 . S
N248 Co239 2.022 . S
N248 C245 1.351 . S
N248 N249 1.365 . S
N249 C246 1.341 . S
N249 N248 1.365 . S
N249 H269 0.862 . S
C250 C245 1.501 . S
C250 H251 0.961 . S
C250 H252 0.961 . S
C250 H253 0.960 . S
H251 C250 0.961 . S
H252 C250 0.961 . S
H253 C250 0.960 . S
C254 N255 1.342 . S
C254 C258 1.401 . S
C254 C259 1.499 . S
N255 Co238 1.989 . S
N255 C254 1.342 . S
N255 N256 1.388 . S
N256 Co239 1.993 . S
N256 N255 1.388 . S
N256 C257 1.346 . S
C257 N256 1.346 . S
C257 C258 1.396 . S
C257 C267 1.510 . S
C258 C254 1.401 . S
C258 C257 1.396 . S
C259 C254 1.499 . S
C259 H260 0.959 . S
C259 H261 0.960 . S
C259 H262 0.961 . S
H260 C259 0.959 . S
H261 C259 0.960 . S
H262 C259 0.961 . S
O263 Co238 1.967 . S
O263 C271 1.258 . S
O264 Co239 1.941 . S
O264 C271 1.266 . S
H265 C267 0.959 . S
H266 C267 0.961 . S
C267 C257 1.510 . S
C267 H265 0.959 . S
C267 H266 0.961 . S
C267 H268 0.960 . S
H268 C267 0.960 . S
H269 N249 0.862 . S
O270 Co238 1.920 . S
O270 C243 1.289 . S
C271 O263 1.258 . S
C271 O264 1.266 . S
Co272 O275 1.970 . S
Co272 N289 1.989 . S
Co272 O297 1.967 . S
Co272 O304 1.920 . S
Co273 O276 1.966 . S
Co273 N282 2.022 . S
Co273 N290 1.993 . S
Co273 O298 1.941 . S
C274 O275 1.258 . S
C274 O276 1.263 . S
O275 Co272 1.970 . S
O275 C274 1.258 . S
O276 Co273 1.966 . S
O276 C274 1.263 . S
C277 O278 1.235 . S
C277 O304 1.289 . S
O278 C277 1.235 . S
C279 C281 1.400 . S
C279 N282 1.351 . S
C279 C284 1.501 . S
C280 C281 1.387 . S
C280 N283 1.341 . S
C281 C279 1.400 . S
C281 C280 1.387 . S
N282 Co273 2.022 . S
N282 C279 1.351 . S
N282 N283 1.365 . S
N283 C280 1.341 . S
N283 N282 1.365 . S
N283 H303 0.862 . S
C284 C279 1.501 . S
C284 H285 0.961 . S
C284 H286 0.961 . S
C284 H287 0.960 . S
H285 C284 0.961 . S
H286 C284 0.961 . S
H287 C284 0.960 . S
C288 N289 1.342 . S
C288 C292 1.401 . S
C288 C293 1.499 . S
N289 Co272 1.989 . S
N289 C288 1.342 . S
N289 N290 1.388 . S
N290 Co273 1.993 . S
N290 N289 1.388 . S
N290 C291 1.346 . S
C291 N290 1.346 . S
C291 C292 1.396 . S
C291 C301 1.510 . S
C292 C288 1.401 . S
C292 C291 1.396 . S
C293 C288 1.499 . S
C293 H294 0.959 . S
C293 H295 0.960 . S
C293 H296 0.961 . S
H294 C293 0.959 . S
H295 C293 0.960 . S
H296 C293 0.961 . S
O297 Co272 1.967 . S
O297 C305 1.258 . S
O298 Co273 1.941 . S
O298 C305 1.266 . S
H299 C301 0.959 . S
H300 C301 0.961 . S
C301 C291 1.510 . S
C301 H299 0.959 . S
C301 H300 0.961 . S
C301 H302 0.960 . S
H302 C301 0.960 . S
H303 N283 0.862 . S
O304 Co272 1.920 . S
O304 C277 1.289 . S
C305 O297 1.258 . S
C305 O298 1.266 . S
Co306 O309 1.970 . S
Co306 N323 1.989 . S
Co306 O331 1.967 . S
Co306 O338 1.920 . S
Co307 O310 1.966 . S
Co307 N316 2.022 . S
Co307 N324 1.993 . S
Co307 O332 1.941 . S
C308 O309 1.258 . S
C308 O310 1.263 . S
O309 Co306 1.970 . S
O309 C308 1.258 . S
O310 Co307 1.966 . S
O310 C308 1.263 . S
C311 O312 1.235 . S
C311 O338 1.289 . S
O312 C311 1.235 . S
C313 C315 1.400 . S
C313 N316 1.351 . S
C313 C318 1.501 . S
C314 C315 1.387 . S
C314 N317 1.341 . S
C315 C313 1.400 . S
C315 C314 1.387 . S
N316 Co307 2.022 . S
N316 C313 1.351 . S
N316 N317 1.365 . S
N317 C314 1.341 . S
N317 N316 1.365 . S
N317 H337 0.862 . S
C318 C313 1.501 . S
C318 H319 0.961 . S
C318 H320 0.961 . S
C318 H321 0.960 1_655 S
H319 C318 0.961 . S
H320 C318 0.961 . S
H321 C318 0.960 1_455 S
C322 N323 1.342 . S
C322 C326 1.401 . S
C322 C327 1.499 . S
N323 Co306 1.989 . S
N323 C322 1.342 . S
N323 N324 1.388 . S
N324 Co307 1.993 . S
N324 N323 1.388 . S
N324 C325 1.346 . S
C325 N324 1.346 . S
C325 C326 1.396 . S
C325 C335 1.510 . S
C326 C322 1.401 . S
C326 C325 1.396 . S
C327 C322 1.499 . S
C327 H328 0.959 . S
C327 H329 0.960 . S
C327 H330 0.961 . S
H328 C327 0.959 . S
H329 C327 0.960 . S
H330 C327 0.961 . S
O331 Co306 1.967 . S
O331 C339 1.258 . S
O332 Co307 1.941 . S
O332 C339 1.266 . S
H333 C335 0.959 . S
H334 C335 0.961 . S
C335 C325 1.510 . S
C335 H333 0.959 . S
C335 H334 0.961 . S
C335 H336 0.960 . S
H336 C335 0.960 . S
H337 N317 0.862 . S
O338 Co306 1.920 . S
O338 C311 1.289 . S
C339 O331 1.258 . S
C339 O332 1.266 . S
Co340 O343 1.970 . S
Co340 N357 1.989 . S
Co340 O365 1.967 . S
Co340 O372 1.920 . S
Co341 O344 1.966 . S
Co341 N350 2.022 . S
Co341 N358 1.993 . S
Co341 O366 1.941 . S
C342 O343 1.258 . S
C342 O344 1.263 . S
O343 Co340 1.970 . S
O343 C342 1.258 . S
O344 Co341 1.966 . S
O344 C342 1.263 . S
C345 O346 1.235 . S
C345 O372 1.289 . S
O346 C345 1.235 . S
C347 C349 1.400 . S
C347 N350 1.351 . S
C347 C352 1.501 . S
C348 C349 1.387 . S
C348 N351 1.341 . S
C349 C347 1.400 . S
C349 C348 1.387 . S
N350 Co341 2.022 . S
N350 C347 1.351 . S
N350 N351 1.365 . S
N351 C348 1.341 . S
N351 N350 1.365 . S
N351 H371 0.862 . S
C352 C347 1.501 . S
C352 H353 0.961 . S
C352 H354 0.961 . S
C352 H355 0.960 . S
H353 C352 0.961 . S
H354 C352 0.961 . S
H355 C352 0.960 . S
C356 N357 1.342 . S
C356 C360 1.401 . S
C356 C361 1.499 . S
N357 Co340 1.989 . S
N357 C356 1.342 . S
N357 N358 1.388 . S
N358 Co341 1.993 . S
N358 N357 1.388 . S
N358 C359 1.346 . S
C359 N358 1.346 . S
C359 C360 1.396 . S
C359 C369 1.510 . S
C360 C356 1.401 . S
C360 C359 1.396 . S
C361 C356 1.499 . S
C361 H362 0.959 . S
C361 H363 0.960 . S
C361 H364 0.961 . S
H362 C361 0.959 . S
H363 C361 0.960 . S
H364 C361 0.961 . S
O365 Co340 1.967 . S
O365 C373 1.258 . S
O366 Co341 1.941 . S
O366 C373 1.266 . S
H367 C369 0.959 . S
H368 C369 0.961 . S
C369 C359 1.510 . S
C369 H367 0.959 . S
C369 H368 0.961 . S
C369 H370 0.960 . S
H370 C369 0.960 . S
H371 N351 0.862 . S
O372 Co340 1.920 . S
O372 C345 1.289 . S
C373 O365 1.258 . S
C373 O366 1.266 . S
Co374 O377 1.970 . S
Co374 N391 1.989 . S
Co374 O399 1.967 . S
Co374 O406 1.920 . S
Co375 O378 1.966 . S
Co375 N384 2.022 . S
Co375 N392 1.993 . S
Co375 O400 1.941 . S
C376 O377 1.258 . S
C376 O378 1.263 . S
O377 Co374 1.970 . S
O377 C376 1.258 . S
O378 Co375 1.966 . S
O378 C376 1.263 . S
C379 O380 1.235 . S
C379 O406 1.289 . S
O380 C379 1.235 . S
C381 C383 1.400 . S
C381 N384 1.351 . S
C381 C386 1.501 . S
C382 C383 1.387 . S
C382 N385 1.341 . S
C383 C381 1.400 . S
C383 C382 1.387 . S
N384 Co375 2.022 . S
N384 C381 1.351 . S
N384 N385 1.365 . S
N385 C382 1.341 . S
N385 N384 1.365 . S
N385 H405 0.862 . S
C386 C381 1.501 . S
C386 H387 0.961 . S
C386 H388 0.961 . S
C386 H389 0.960 1_545 S
H387 C386 0.961 . S
H388 C386 0.961 . S
H389 C386 0.960 1_565 S
C390 N391 1.342 . S
C390 C394 1.401 . S
C390 C395 1.499 . S
N391 Co374 1.989 . S
N391 C390 1.342 . S
N391 N392 1.388 . S
N392 Co375 1.993 . S
N392 N391 1.388 . S
N392 C393 1.346 . S
C393 N392 1.346 . S
C393 C394 1.396 . S
C393 C403 1.510 . S
C394 C390 1.401 . S
C394 C393 1.396 . S
C395 C390 1.499 . S
C395 H396 0.959 . S
C395 H397 0.960 . S
C395 H398 0.961 . S
H396 C395 0.959 . S
H397 C395 0.960 . S
H398 C395 0.961 . S
O399 Co374 1.967 . S
O399 C407 1.258 . S
O400 Co375 1.941 . S
O400 C407 1.266 . S
H401 C403 0.959 . S
H402 C403 0.961 . S
C403 C393 1.510 . S
C403 H401 0.959 . S
C403 H402 0.961 . S
C403 H404 0.960 . S
H404 C403 0.960 . S
H405 N385 0.862 . S
O406 Co374 1.920 . S
O406 C379 1.289 . S
C407 O399 1.258 . S
C407 O400 1.266 . S
Co408 O411 1.970 . S
Co408 N425 1.989 . S
Co408 O433 1.967 . S
Co408 O440 1.920 . S
Co409 O412 1.966 . S
Co409 N418 2.022 . S
Co409 N426 1.993 . S
Co409 O434 1.941 . S
C410 O411 1.258 . S
C410 O412 1.263 . S
O411 Co408 1.970 . S
O411 C410 1.258 . S
O412 Co409 1.966 . S
O412 C410 1.263 . S
C413 O414 1.235 . S
C413 O440 1.289 . S
O414 C413 1.235 . S
C415 C417 1.400 . S
C415 N418 1.351 . S
C415 C420 1.501 . S
C416 C417 1.387 . S
C416 N419 1.341 . S
C417 C415 1.400 . S
C417 C416 1.387 . S
N418 Co409 2.022 . S
N418 C415 1.351 . S
N418 N419 1.365 . S
N419 C416 1.341 . S
N419 N418 1.365 . S
N419 H439 0.862 . S
C420 C415 1.501 . S
C420 H421 0.961 . S
C420 H422 0.961 . S
C420 H423 0.960 1_565 S
H421 C420 0.961 . S
H422 C420 0.961 . S
H423 C420 0.960 1_545 S
C424 N425 1.342 . S
C424 C428 1.401 . S
C424 C429 1.499 . S
N425 Co408 1.989 . S
N425 C424 1.342 . S
N425 N426 1.388 . S
N426 Co409 1.993 . S
N426 N425 1.388 . S
N426 C427 1.346 . S
C427 N426 1.346 . S
C427 C428 1.396 . S
C427 C437 1.510 . S
C428 C424 1.401 . S
C428 C427 1.396 . S
C429 C424 1.499 . S
C429 H430 0.959 . S
C429 H431 0.960 . S
C429 H432 0.961 . S
H430 C429 0.959 . S
H431 C429 0.960 . S
H432 C429 0.961 . S
O433 Co408 1.967 . S
O433 C441 1.258 . S
O434 Co409 1.941 . S
O434 C441 1.266 . S
H435 C437 0.959 . S
H436 C437 0.961 . S
C437 C427 1.510 . S
C437 H435 0.959 . S
C437 H436 0.961 . S
C437 H438 0.960 . S
H438 C437 0.960 . S
H439 N419 0.862 . S
O440 Co408 1.920 . S
O440 C413 1.289 . S
C441 O433 1.258 . S
C441 O434 1.266 . S
Co442 O445 1.970 . S
Co442 N459 1.989 . S
Co442 O467 1.967 . S
Co442 O474 1.920 . S
Co443 O446 1.966 . S
Co443 N452 2.022 . S
Co443 N460 1.993 . S
Co443 O468 1.941 . S
C444 O445 1.258 . S
C444 O446 1.263 . S
O445 Co442 1.970 . S
O445 C444 1.258 . S
O446 Co443 1.966 . S
O446 C444 1.263 . S
C447 O448 1.235 . S
C447 O474 1.289 . S
O448 C447 1.235 . S
C449 C451 1.400 . S
C449 N452 1.351 . S
C449 C454 1.501 . S
C450 C451 1.387 . S
C450 N453 1.341 . S
C451 C449 1.400 . S
C451 C450 1.387 . S
N452 Co443 2.022 . S
N452 C449 1.351 . S
N452 N453 1.365 . S
N453 C450 1.341 . S
N453 N452 1.365 . S
N453 H473 0.862 . S
C454 C449 1.501 . S
C454 H455 0.961 . S
C454 H456 0.961 . S
C454 H457 0.960 1_455 S
H455 C454 0.961 . S
H456 C454 0.961 . S
H457 C454 0.960 1_655 S
C458 N459 1.342 . S
C458 C462 1.401 . S
C458 C463 1.499 . S
N459 Co442 1.989 . S
N459 C458 1.342 . S
N459 N460 1.388 . S
N460 Co443 1.993 . S
N460 N459 1.388 . S
N460 C461 1.346 . S
C461 N460 1.346 . S
C461 C462 1.396 . S
C461 C471 1.510 . S
C462 C458 1.401 . S
C462 C461 1.396 . S
C463 C458 1.499 . S
C463 H464 0.959 . S
C463 H465 0.960 . S
C463 H466 0.961 . S
H464 C463 0.959 . S
H465 C463 0.960 . S
H466 C463 0.961 . S
O467 Co442 1.967 . S
O467 C475 1.258 . S
O468 Co443 1.941 . S
O468 C475 1.266 . S
H469 C471 0.959 . S
H470 C471 0.961 . S
C471 C461 1.510 . S
C471 H469 0.959 . S
C471 H470 0.961 . S
C471 H472 0.960 . S
H472 C471 0.960 . S
H473 N453 0.862 . S
O474 Co442 1.920 . S
O474 C447 1.289 . S
C475 O467 1.258 . S
C475 O468 1.266 . S
Co476 O479 1.970 . S
Co476 N493 1.989 . S
Co476 O501 1.967 . S
Co476 O508 1.920 . S
Co477 O480 1.966 . S
Co477 N486 2.022 . S
Co477 N494 1.993 . S
Co477 O502 1.941 . S
C478 O479 1.258 . S
C478 O480 1.263 . S
O479 Co476 1.970 . S
O479 C478 1.258 . S
O480 Co477 1.966 . S
O480 C478 1.263 . S
C481 O482 1.235 . S
C481 O508 1.289 . S
O482 C481 1.235 . S
C483 C485 1.400 . S
C483 N486 1.351 . S
C483 C488 1.501 . S
C484 C485 1.387 . S
C484 N487 1.341 . S
C485 C483 1.400 . S
C485 C484 1.387 . S
N486 Co477 2.022 . S
N486 C483 1.351 . S
N486 N487 1.365 . S
N487 C484 1.341 . S
N487 N486 1.365 . S
N487 H507 0.862 . S
C488 C483 1.501 . S
C488 H489 0.961 . S
C488 H490 0.961 . S
C488 H491 0.960 . S
H489 C488 0.961 . S
H490 C488 0.961 . S
H491 C488 0.960 . S
C492 N493 1.342 . S
C492 C496 1.401 . S
C492 C497 1.499 . S
N493 Co476 1.989 . S
N493 C492 1.342 . S
N493 N494 1.388 . S
N494 Co477 1.993 . S
N494 N493 1.388 . S
N494 C495 1.346 . S
C495 N494 1.346 . S
C495 C496 1.396 . S
C495 C505 1.510 . S
C496 C492 1.401 . S
C496 C495 1.396 . S
C497 C492 1.499 . S
C497 H498 0.959 . S
C497 H499 0.960 . S
C497 H500 0.961 . S
H498 C497 0.959 . S
H499 C497 0.960 . S
H500 C497 0.961 . S
O501 Co476 1.967 . S
O501 C509 1.258 . S
O502 Co477 1.941 . S
O502 C509 1.266 . S
H503 C505 0.959 . S
H504 C505 0.961 . S
C505 C495 1.510 . S
C505 H503 0.959 . S
C505 H504 0.961 . S
C505 H506 0.960 . S
H506 C505 0.960 . S
H507 N487 0.862 . S
O508 Co476 1.920 . S
O508 C481 1.289 . S
C509 O501 1.258 . S
C509 O502 1.266 . S
Co510 O513 1.970 . S
Co510 N527 1.989 . S
Co510 O535 1.967 . S
Co510 O542 1.920 . S
Co511 O514 1.966 . S
Co511 N520 2.022 . S
Co511 N528 1.993 . S
Co511 O536 1.941 . S
C512 O513 1.258 . S
C512 O514 1.263 . S
O513 Co510 1.970 . S
O513 C512 1.258 . S
O514 Co511 1.966 . S
O514 C512 1.263 . S
C515 O516 1.235 . S
C515 O542 1.289 . S
O516 C515 1.235 . S
C517 C519 1.400 . S
C517 N520 1.351 . S
C517 C522 1.501 . S
C518 C519 1.387 . S
C518 N521 1.341 . S
C519 C517 1.400 . S
C519 C518 1.387 . S
N520 Co511 2.022 . S
N520 C517 1.351 . S
N520 N521 1.365 . S
N521 C518 1.341 . S
N521 N520 1.365 . S
N521 H541 0.862 . S
C522 C517 1.501 . S
C522 H523 0.961 . S
C522 H524 0.961 . S
C522 H525 0.960 . S
H523 C522 0.961 . S
H524 C522 0.961 . S
H525 C522 0.960 . S
C526 N527 1.342 . S
C526 C530 1.401 . S
C526 C531 1.499 . S
N527 Co510 1.989 . S
N527 C526 1.342 . S
N527 N528 1.388 . S
N528 Co511 1.993 . S
N528 N527 1.388 . S
N528 C529 1.346 . S
C529 N528 1.346 . S
C529 C530 1.396 . S
C529 C539 1.510 . S
C530 C526 1.401 . S
C530 C529 1.396 . S
C531 C526 1.499 . S
C531 H532 0.959 . S
C531 H533 0.960 . S
C531 H534 0.961 . S
H532 C531 0.959 . S
H533 C531 0.960 . S
H534 C531 0.961 . S
O535 Co510 1.967 . S
O535 C543 1.258 . S
O536 Co511 1.941 . S
O536 C543 1.266 . S
H537 C539 0.959 . S
H538 C539 0.961 . S
C539 C529 1.510 . S
C539 H537 0.959 . S
C539 H538 0.961 . S
C539 H540 0.960 . S
H540 C539 0.960 . S
H541 N521 0.862 . S
O542 Co510 1.920 . S
O542 C515 1.289 . S
C543 O535 1.258 . S
C543 O536 1.266 . S
Co544 O547 1.970 . S
Co544 N561 1.989 . S
Co544 O569 1.967 . S
Co544 O576 1.920 . S
Co545 O548 1.966 . S
Co545 N554 2.022 . S
Co545 N562 1.993 . S
Co545 O570 1.941 . S
C546 O547 1.258 . S
C546 O548 1.263 . S
O547 Co544 1.970 . S
O547 C546 1.258 . S
O548 Co545 1.966 . S
O548 C546 1.263 . S
C549 O550 1.235 . S
C549 O576 1.289 . S
O550 C549 1.235 . S
C551 C553 1.400 . S
C551 N554 1.351 . S
C551 C556 1.501 . S
C552 C553 1.387 . S
C552 N555 1.341 . S
C553 C551 1.400 . S
C553 C552 1.387 . S
N554 Co545 2.022 . S
N554 C551 1.351 . S
N554 N555 1.365 . S
N555 C552 1.341 . S
N555 N554 1.365 . S
N555 H575 0.862 . S
C556 C551 1.501 . S
C556 H557 0.961 . S
C556 H558 0.961 . S
C556 H559 0.960 . S
H557 C556 0.961 . S
H558 C556 0.961 . S
H559 C556 0.960 . S
C560 N561 1.342 . S
C560 C564 1.401 . S
C560 C565 1.499 . S
N561 Co544 1.989 . S
N561 C560 1.342 . S
N561 N562 1.388 . S
N562 Co545 1.993 . S
N562 N561 1.388 . S
N562 C563 1.346 . S
C563 N562 1.346 . S
C563 C564 1.396 . S
C563 C573 1.510 . S
C564 C560 1.401 . S
C564 C563 1.396 . S
C565 C560 1.499 . S
C565 H566 0.959 . S
C565 H567 0.960 . S
C565 H568 0.961 . S
H566 C565 0.959 . S
H567 C565 0.960 . S
H568 C565 0.961 . S
O569 Co544 1.967 . S
O569 C577 1.258 . S
O570 Co545 1.941 . S
O570 C577 1.266 . S
H571 C573 0.959 . S
H572 C573 0.961 . S
C573 C563 1.510 . S
C573 H571 0.959 . S
C573 H572 0.961 . S
C573 H574 0.960 . S
H574 C573 0.960 . S
H575 N555 0.862 . S
O576 Co544 1.920 . S
O576 C549 1.289 . S
C577 O569 1.258 . S
C577 O570 1.266 . S
Co578 O581 1.970 . S
Co578 N595 1.989 . S
Co578 O603 1.967 . S
Co578 O610 1.920 . S
Co579 O582 1.966 . S
Co579 N588 2.022 . S
Co579 N596 1.993 . S
Co579 O604 1.941 . S
C580 O581 1.258 . S
C580 O582 1.263 . S
O581 Co578 1.970 . S
O581 C580 1.258 . S
O582 Co579 1.966 . S
O582 C580 1.263 . S
C583 O584 1.235 . S
C583 O610 1.289 . S
O584 C583 1.235 . S
C585 C587 1.400 . S
C585 N588 1.351 . S
C585 C590 1.501 . S
C586 C587 1.387 . S
C586 N589 1.341 . S
C587 C585 1.400 . S
C587 C586 1.387 . S
N588 Co579 2.022 . S
N588 C585 1.351 . S
N588 N589 1.365 . S
N589 C586 1.341 . S
N589 N588 1.365 . S
N589 H609 0.862 . S
C590 C585 1.501 . S
C590 H591 0.961 . S
C590 H592 0.961 . S
C590 H593 0.960 . S
H591 C590 0.961 . S
H592 C590 0.961 . S
H593 C590 0.960 . S
C594 N595 1.342 . S
C594 C598 1.401 . S
C594 C599 1.499 . S
N595 Co578 1.989 . S
N595 C594 1.342 . S
N595 N596 1.388 . S
N596 Co579 1.993 . S
N596 N595 1.388 . S
N596 C597 1.346 . S
C597 N596 1.346 . S
C597 C598 1.396 . S
C597 C607 1.510 . S
C598 C594 1.401 . S
C598 C597 1.396 . S
C599 C594 1.499 . S
C599 H600 0.959 . S
C599 H601 0.960 . S
C599 H602 0.961 . S
H600 C599 0.959 . S
H601 C599 0.960 . S
H602 C599 0.961 . S
O603 Co578 1.967 . S
O603 C611 1.258 . S
O604 Co579 1.941 . S
O604 C611 1.266 . S
H605 C607 0.959 . S
H606 C607 0.961 . S
C607 C597 1.510 . S
C607 H605 0.959 . S
C607 H606 0.961 . S
C607 H608 0.960 . S
H608 C607 0.960 . S
H609 N589 0.862 . S
O610 Co578 1.920 . S
O610 C583 1.289 . S
C611 O603 1.258 . S
C611 O604 1.266 . S
H612 C620 0.929 . S
H613 C622 0.930 . S
H614 C624 0.930 . S
H615 C627 0.929 . S
H616 C630 0.930 . S
H617 C632 0.960 . S
H618 C632 0.960 . S
H619 C632 0.960 . S
C620 H612 0.929 . S
C620 C621 1.377 . S
C620 C622 1.384 . S
C621 C620 1.377 . S
C621 C627 1.390 . S
C622 H613 0.930 . S
C622 C620 1.384 . S
C622 C623 1.372 . S
C623 C622 1.372 . S
C623 C624 1.400 . S
C623 C628 1.490 . S
C624 H614 0.930 . S
C624 C623 1.400 . S
C624 C627 1.386 . S
H625 C641 0.930 . S
H626 C642 0.931 . S
C627 H615 0.929 . S
C627 C621 1.390 . S
C627 C624 1.386 . S
C628 C623 1.490 . S
C628 C630 1.395 . S
C628 C631 1.403 . S
H629 C635 0.930 . S
C630 H616 0.930 . S
C630 C628 1.395 . S
C630 C633 1.403 . S
C631 C628 1.403 . S
C631 C632 1.524 . S
C631 C635 1.400 . S
C632 H617 0.960 . S
C632 H618 0.960 . S
C632 H619 0.960 . S
C632 C631 1.524 . S
C633 C630 1.403 . S
C633 C634 1.392 . S
C633 C637 1.495 . S
C634 C633 1.392 . S
C634 C635 1.385 . S
C634 C636 1.478 . S
C635 H629 0.930 . S
C635 C631 1.400 . S
C635 C634 1.385 . S
C636 C634 1.478 . S
C636 C638 1.381 . S
C636 C642 1.383 . S
C637 C633 1.495 . S
C637 H643 0.959 . S
C637 H644 0.961 . S
C637 H645 0.960 . S
C638 C636 1.381 . S
C638 C639 1.394 . S
C638 H646 0.930 . S
C639 C638 1.394 . S
C639 C640 1.383 . S
C639 H647 0.929 . S
C640 C639 1.383 . S
C640 C641 1.377 . S
C641 H625 0.930 . S
C641 C640 1.377 . S
C641 C642 1.379 . S
C642 H626 0.931 . S
C642 C636 1.383 . S
C642 C641 1.379 . S
H643 C637 0.959 . S
H644 C637 0.961 . S
H645 C637 0.960 . S
H646 C638 0.930 . S
H647 C639 0.929 . S
H648 C656 0.929 . S
H649 C658 0.930 . S
H650 C660 0.930 . S
H651 C663 0.929 . S
H652 C666 0.930 . S
H653 C668 0.960 . S
H654 C668 0.960 . S
H655 C668 0.960 . S
C656 H648 0.929 . S
C656 C657 1.377 . S
C656 C658 1.384 . S
C657 C656 1.377 . S
C657 C663 1.390 . S
C658 H649 0.930 . S
C658 C656 1.384 . S
C658 C659 1.372 . S
C659 C658 1.372 . S
C659 C660 1.400 . S
C659 C664 1.490 . S
C660 H650 0.930 . S
C660 C659 1.400 . S
C660 C663 1.386 . S
H661 C677 0.930 . S
H662 C678 0.931 1_545 S
C663 H651 0.929 . S
C663 C657 1.390 . S
C663 C660 1.386 . S
C664 C659 1.490 . S
C664 C666 1.395 . S
C664 C667 1.403 . S
H665 C671 0.930 . S
C666 H652 0.930 . S
C666 C664 1.395 . S
C666 C669 1.403 . S
C667 C664 1.403 . S
C667 C668 1.524 . S
C667 C671 1.400 . S
C668 H653 0.960 . S
C668 H654 0.960 . S
C668 H655 0.960 . S
C668 C667 1.524 . S
C669 C666 1.403 . S
C669 C670 1.392 . S
C669 C673 1.495 . S
C670 C669 1.392 . S
C670 C671 1.385 . S
C670 C672 1.478 . S
C671 H665 0.930 . S
C671 C667 1.400 . S
C671 C670 1.385 . S
C672 C670 1.478 . S
C672 C674 1.381 . S
C672 C678 1.383 . S
C673 C669 1.495 . S
C673 H679 0.959 . S
C673 H680 0.961 . S
C673 H681 0.960 . S
C674 C672 1.381 . S
C674 C675 1.394 . S
C674 H682 0.930 . S
C675 C674 1.394 . S
C675 C676 1.383 . S
C675 H683 0.929 . S
C676 C675 1.383 . S
C676 C677 1.377 1_565 S
C677 H661 0.930 . S
C677 C676 1.377 1_545 S
C677 C678 1.379 1_545 S
C678 H662 0.931 1_565 S
C678 C672 1.383 . S
C678 C677 1.379 1_565 S
H679 C673 0.959 . S
H680 C673 0.961 . S
H681 C673 0.960 . S
H682 C674 0.930 . S
H683 C675 0.929 . S
H684 C692 0.929 . S
H685 C694 0.930 . S
H686 C696 0.930 . S
H687 C699 0.929 . S
H688 C702 0.930 . S
H689 C704 0.960 . S
H690 C704 0.960 . S
H691 C704 0.960 . S
C692 H684 0.929 . S
C692 C693 1.377 . S
C692 C694 1.384 . S
C693 C692 1.377 . S
C693 C699 1.390 1_455 S
C694 H685 0.930 . S
C694 C692 1.384 . S
C694 C695 1.372 . S
C695 C694 1.372 . S
C695 C696 1.400 . S
C695 C700 1.490 . S
C696 H686 0.930 . S
C696 C695 1.400 . S
C696 C699 1.386 1_455 S
H697 C713 0.930 . S
H698 C714 0.931 . S
C699 H687 0.929 . S
C699 C693 1.390 1_655 S
C699 C696 1.386 1_655 S
C700 C695 1.490 . S
C700 C702 1.395 . S
C700 C703 1.403 . S
H701 C707 0.930 . S
C702 H688 0.930 . S
C702 C700 1.395 . S
C702 C705 1.403 . S
C703 C700 1.403 . S
C703 C704 1.524 . S
C703 C707 1.400 . S
C704 H689 0.960 . S
C704 H690 0.960 . S
C704 H691 0.960 . S
C704 C703 1.524 . S
C705 C702 1.403 . S
C705 C706 1.392 . S
C705 C709 1.495 . S
C706 C705 1.392 . S
C706 C707 1.385 . S
C706 C708 1.478 . S
C707 H701 0.930 . S
C707 C703 1.400 . S
C707 C706 1.385 . S
C708 C706 1.478 . S
C708 C710 1.381 . S
C708 C714 1.383 . S
C709 C705 1.495 . S
C709 H715 0.959 . S
C709 H716 0.961 . S
C709 H717 0.960 . S
C710 C708 1.381 . S
C710 C711 1.394 . S
C710 H718 0.930 . S
C711 C710 1.394 . S
C711 C712 1.383 . S
C711 H719 0.929 . S
C712 C711 1.383 . S
C712 C713 1.377 . S
C713 H697 0.930 . S
C713 C712 1.377 . S
C713 C714 1.379 . S
C714 H698 0.931 . S
C714 C708 1.383 . S
C714 C713 1.379 . S
H715 C709 0.959 . S
H716 C709 0.961 . S
H717 C709 0.960 . S
H718 C710 0.930 . S
H719 C711 0.929 . S
H720 C728 0.929 . S
H721 C730 0.930 . S
H722 C732 0.930 . S
H723 C735 0.929 . S
H724 C738 0.930 . S
H725 C740 0.960 . S
H726 C740 0.960 . S
H727 C740 0.960 . S
C728 H720 0.929 . S
C728 C729 1.377 . S
C728 C730 1.384 . S
C729 C728 1.377 . S
C729 C735 1.390 . S
C730 H721 0.930 . S
C730 C728 1.384 . S
C730 C731 1.372 . S
C731 C730 1.372 . S
C731 C732 1.400 . S
C731 C736 1.490 . S
C732 H722 0.930 . S
C732 C731 1.400 . S
C732 C735 1.386 . S
H733 C749 0.930 . S
H734 C750 0.931 . S
C735 H723 0.929 . S
C735 C729 1.390 . S
C735 C732 1.386 . S
C736 C731 1.490 . S
C736 C738 1.395 . S
C736 C739 1.403 . S
H737 C743 0.930 . S
C738 H724 0.930 . S
C738 C736 1.395 . S
C738 C741 1.403 . S
C739 C736 1.403 . S
C739 C740 1.524 . S
C739 C743 1.400 . S
C740 H725 0.960 . S
C740 H726 0.960 . S
C740 H727 0.960 . S
C740 C739 1.524 . S
C741 C738 1.403 . S
C741 C742 1.392 . S
C741 C745 1.495 . S
C742 C741 1.392 . S
C742 C743 1.385 . S
C742 C744 1.478 . S
C743 H737 0.930 . S
C743 C739 1.400 . S
C743 C742 1.385 . S
C744 C742 1.478 . S
C744 C746 1.381 . S
C744 C750 1.383 . S
C745 C741 1.495 . S
C745 H751 0.959 . S
C745 H752 0.961 . S
C745 H753 0.960 . S
C746 C744 1.381 . S
C746 C747 1.394 . S
C746 H754 0.930 . S
C747 C746 1.394 . S
C747 C748 1.383 . S
C747 H755 0.929 . S
C748 C747 1.383 . S
C748 C749 1.377 . S
C749 H733 0.930 . S
C749 C748 1.377 . S
C749 C750 1.379 . S
C750 H734 0.931 . S
C750 C744 1.383 . S
C750 C749 1.379 . S
H751 C745 0.959 . S
H752 C745 0.961 . S
H753 C745 0.960 . S
H754 C746 0.930 . S
H755 C747 0.929 . S
H756 C764 0.929 . S
H757 C766 0.930 . S
H758 C768 0.930 . S
H759 C771 0.929 . S
H760 C774 0.930 . S
H761 C776 0.960 . S
H762 C776 0.960 . S
H763 C776 0.960 . S
C764 H756 0.929 . S
C764 C765 1.377 . S
C764 C766 1.384 . S
C765 C764 1.377 . S
C765 C771 1.390 . S
C766 H757 0.930 . S
C766 C764 1.384 . S
C766 C767 1.372 . S
C767 C766 1.372 . S
C767 C768 1.400 . S
C767 C772 1.490 . S
C768 H758 0.930 . S
C768 C767 1.400 . S
C768 C771 1.386 . S
H769 C785 0.930 . S
H770 C786 0.931 1_565 S
C771 H759 0.929 . S
C771 C765 1.390 . S
C771 C768 1.386 . S
C772 C767 1.490 . S
C772 C774 1.395 . S
C772 C775 1.403 . S
H773 C779 0.930 . S
C774 H760 0.930 . S
C774 C772 1.395 . S
C774 C777 1.403 . S
C775 C772 1.403 . S
C775 C776 1.524 . S
C775 C779 1.400 . S
C776 H761 0.960 . S
C776 H762 0.960 . S
C776 H763 0.960 . S
C776 C775 1.524 . S
C777 C774 1.403 . S
C777 C778 1.392 . S
C777 C781 1.495 . S
C778 C777 1.392 . S
C778 C779 1.385 . S
C778 C780 1.478 . S
C779 H773 0.930 . S
C779 C775 1.400 . S
C779 C778 1.385 . S
C780 C778 1.478 . S
C780 C782 1.381 . S
C780 C786 1.383 . S
C781 C777 1.495 . S
C781 H787 0.959 . S
C781 H788 0.961 . S
C781 H789 0.960 . S
C782 C780 1.381 . S
C782 C783 1.394 . S
C782 H790 0.930 . S
C783 C782 1.394 . S
C783 C784 1.383 . S
C783 H791 0.929 . S
C784 C783 1.383 . S
C784 C785 1.377 1_545 S
C785 H769 0.930 . S
C785 C784 1.377 1_565 S
C785 C786 1.379 1_565 S
C786 H770 0.931 1_545 S
C786 C780 1.383 . S
C786 C785 1.379 1_545 S
H787 C781 0.959 . S
H788 C781 0.961 . S
H789 C781 0.960 . S
H790 C782 0.930 . S
H791 C783 0.929 . S
H792 C800 0.929 . S
H793 C802 0.930 . S
H794 C804 0.930 . S
H795 C807 0.929 . S
H796 C810 0.930 . S
H797 C812 0.960 . S
H798 C812 0.960 1_455 S
H799 C812 0.960 . S
C800 H792 0.929 . S
C800 C801 1.377 . S
C800 C802 1.384 . S
C801 C800 1.377 . S
C801 C807 1.390 . S
C802 H793 0.930 . S
C802 C800 1.384 . S
C802 C803 1.372 . S
C803 C802 1.372 . S
C803 C804 1.400 . S
C803 C808 1.490 . S
C804 H794 0.930 . S
C804 C803 1.400 . S
C804 C807 1.386 . S
H805 C821 0.930 . S
H806 C822 0.931 . S
C807 H795 0.929 . S
C807 C801 1.390 . S
C807 C804 1.386 . S
C808 C803 1.490 . S
C808 C810 1.395 . S
C808 C811 1.403 . S
H809 C815 0.930 . S
C810 H796 0.930 . S
C810 C808 1.395 . S
C810 C813 1.403 . S
C811 C808 1.403 . S
C811 C812 1.524 . S
C811 C815 1.400 . S
C812 H797 0.960 . S
C812 H798 0.960 1_655 S
C812 H799 0.960 . S
C812 C811 1.524 . S
C813 C810 1.403 . S
C813 C814 1.392 . S
C813 C817 1.495 . S
C814 C813 1.392 . S
C814 C815 1.385 . S
C814 C816 1.478 . S
C815 H809 0.930 . S
C815 C811 1.400 . S
C815 C814 1.385 . S
C816 C814 1.478 . S
C816 C818 1.381 . S
C816 C822 1.383 . S
C817 C813 1.495 . S
C817 H823 0.959 . S
C817 H824 0.961 . S
C817 H825 0.960 . S
C818 C816 1.381 . S
C818 C819 1.394 . S
C818 H826 0.930 . S
C819 C818 1.394 . S
C819 C820 1.383 . S
C819 H827 0.929 . S
C820 C819 1.383 . S
C820 C821 1.377 . S
C821 H805 0.930 . S
C821 C820 1.377 . S
C821 C822 1.379 . S
C822 H806 0.931 . S
C822 C816 1.383 . S
C822 C821 1.379 . S
H823 C817 0.959 . S
H824 C817 0.961 . S
H825 C817 0.960 . S
H826 C818 0.930 . S
H827 C819 0.929 . S
H828 C836 0.929 . S
H829 C838 0.930 . S
H830 C840 0.930 . S
H831 C843 0.929 . S
H832 C846 0.930 . S
H833 C848 0.960 . S
H834 C848 0.960 . S
H835 C848 0.960 . S
C836 H828 0.929 . S
C836 C837 1.377 . S
C836 C838 1.384 . S
C837 C836 1.377 . S
C837 C843 1.390 . S
C838 H829 0.930 . S
C838 C836 1.384 . S
C838 C839 1.372 . S
C839 C838 1.372 . S
C839 C840 1.400 . S
C839 C844 1.490 . S
C840 H830 0.930 . S
C840 C839 1.400 . S
C840 C843 1.386 . S
H841 C857 0.930 . S
H842 C858 0.931 . S
C843 H831 0.929 . S
C843 C837 1.390 . S
C843 C840 1.386 . S
C844 C839 1.490 . S
C844 C846 1.395 . S
C844 C847 1.403 . S
H845 C851 0.930 . S
C846 H832 0.930 . S
C846 C844 1.395 . S
C846 C849 1.403 . S
C847 C844 1.403 . S
C847 C848 1.524 . S
C847 C851 1.400 . S
C848 H833 0.960 . S
C848 H834 0.960 . S
C848 H835 0.960 . S
C848 C847 1.524 . S
C849 C846 1.403 . S
C849 C850 1.392 . S
C849 C853 1.495 . S
C850 C849 1.392 . S
C850 C851 1.385 . S
C850 C852 1.478 . S
C851 H845 0.930 . S
C851 C847 1.400 . S
C851 C850 1.385 . S
C852 C850 1.478 . S
C852 C854 1.381 . S
C852 C858 1.383 . S
C853 C849 1.495 . S
C853 H859 0.959 . S
C853 H860 0.961 . S
C853 H861 0.960 . S
C854 C852 1.381 . S
C854 C855 1.394 . S
C854 H862 0.930 . S
C855 C854 1.394 . S
C855 C856 1.383 . S
C855 H863 0.929 . S
C856 C855 1.383 . S
C856 C857 1.377 . S
C857 H841 0.930 . S
C857 C856 1.377 . S
C857 C858 1.379 . S
C858 H842 0.931 . S
C858 C852 1.383 . S
C858 C857 1.379 . S
H859 C853 0.959 . S
H860 C853 0.961 . S
H861 C853 0.960 . S
H862 C854 0.930 . S
H863 C855 0.929 . S
H864 C872 0.929 . S
H865 C874 0.930 1_545 S
H866 C876 0.930 . S
H867 C879 0.929 . S
H868 C882 0.930 . S
H869 C884 0.960 . S
H870 C884 0.960 . S
H871 C884 0.960 . S
C872 H864 0.929 . S
C872 C873 1.377 . S
C872 C874 1.384 . S
C873 C872 1.377 . S
C873 C879 1.390 . S
C874 H865 0.930 1_565 S
C874 C872 1.384 . S
C874 C875 1.372 . S
C875 C874 1.372 . S
C875 C876 1.400 . S
C875 C880 1.490 1_565 S
C876 H866 0.930 . S
C876 C875 1.400 . S
C876 C879 1.386 . S
H877 C893 0.930 . S
H878 C894 0.931 . S
C879 H867 0.929 . S
C879 C873 1.390 . S
C879 C876 1.386 . S
C880 C875 1.490 1_545 S
C880 C882 1.395 1_545 S
C880 C883 1.403 . S
H881 C887 0.930 . S
C882 H868 0.930 . S
C882 C880 1.395 1_565 S
C882 C885 1.403 1_565 S
C883 C880 1.403 . S
C883 C884 1.524 . S
C883 C887 1.400 . S
C884 H869 0.960 . S
C884 H870 0.960 . S
C884 H871 0.960 . S
C884 C883 1.524 . S
C885 C882 1.403 1_545 S
C885 C886 1.392 . S
C885 C889 1.494 1_545 S
C886 C885 1.392 . S
C886 C887 1.385 . S
C886 C888 1.478 . S
C887 H881 0.930 . S
C887 C883 1.400 . S
C887 C886 1.385 . S
C888 C886 1.478 . S
C888 C890 1.381 . S
C888 C894 1.383 . S
C889 C885 1.494 1_565 S
C889 H895 0.963 . S
C889 H896 0.961 . S
C889 H897 0.957 1_565 S
C890 C888 1.381 . S
C890 C891 1.394 . S
C890 H898 0.930 . S
C891 C890 1.394 . S
C891 C892 1.383 . S
C891 H899 0.929 . S
C892 C891 1.383 . S
C892 C893 1.377 . S
C893 H877 0.930 . S
C893 C892 1.377 . S
C893 C894 1.379 . S
C894 H878 0.931 . S
C894 C888 1.383 . S
C894 C893 1.379 . S
H895 C889 0.963 . S
H896 C889 0.961 . S
H897 C889 0.957 1_545 S
H898 C890 0.930 . S
H899 C891 0.929 . S
H900 C908 0.929 1_655 S
H901 C910 0.930 . S
H902 C912 0.930 . S
H903 C915 0.929 . S
H904 C918 0.930 . S
H905 C920 0.960 . S
H906 C920 0.960 . S
H907 C920 0.960 1_455 S
C908 H900 0.929 1_455 S
C908 C909 1.377 . S
C908 C910 1.384 1_455 S
C909 C908 1.377 . S
C909 C915 1.390 . S
C910 H901 0.930 . S
C910 C908 1.384 1_655 S
C910 C911 1.372 1_655 S
C911 C910 1.372 1_455 S
C911 C912 1.400 . S
C911 C916 1.490 1_455 S
C912 H902 0.930 . S
C912 C911 1.400 . S
C912 C915 1.386 . S
H913 C929 0.930 . S
H914 C930 0.931 . S
C915 H903 0.929 . S
C915 C909 1.390 . S
C915 C912 1.386 . S
C916 C911 1.490 1_655 S
C916 C918 1.395 . S
C916 C919 1.403 . S
H917 C923 0.930 . S
C918 H904 0.930 . S
C918 C916 1.395 . S
C918 C921 1.403 . S
C919 C916 1.403 . S
C919 C920 1.524 . S
C919 C923 1.400 . S
C920 H905 0.960 . S
C920 H906 0.960 . S
C920 H907 0.960 1_655 S
C920 C919 1.524 . S
C921 C918 1.403 . S
C921 C922 1.392 . S
C921 C925 1.495 . S
C922 C921 1.392 . S
C922 C923 1.385 . S
C922 C924 1.478 . S
C923 H917 0.930 . S
C923 C919 1.400 . S
C923 C922 1.385 . S
C924 C922 1.478 . S
C924 C926 1.381 . S
C924 C930 1.383 . S
C925 C921 1.495 . S
C925 H931 0.959 . S
C925 H932 0.961 . S
C925 H933 0.960 . S
C926 C924 1.381 . S
C926 C927 1.394 . S
C926 H934 0.930 . S
C927 C926 1.394 . S
C927 C928 1.383 . S
C927 H935 0.929 . S
C928 C927 1.383 . S
C928 C929 1.377 . S
C929 H913 0.930 . S
C929 C928 1.377 . S
C929 C930 1.379 . S
C930 H914 0.931 . S
C930 C924 1.383 . S
C930 C929 1.379 . S
H931 C925 0.959 . S
H932 C925 0.961 . S
H933 C925 0.960 . S
H934 C926 0.930 . S
H935 C927 0.929 . S
H936 C944 0.929 . S
H937 C946 0.930 . S
H938 C948 0.930 . S
H939 C951 0.929 . S
H940 C954 0.930 . S
H941 C956 0.960 . S
H942 C956 0.960 . S
H943 C956 0.960 . S
C944 H936 0.929 . S
C944 C945 1.377 . S
C944 C946 1.384 . S
C945 C944 1.377 . S
C945 C951 1.390 . S
C946 H937 0.930 . S
C946 C944 1.384 . S
C946 C947 1.372 . S
C947 C946 1.372 . S
C947 C948 1.400 . S
C947 C952 1.490 . S
C948 H938 0.930 . S
C948 C947 1.400 . S
C948 C951 1.386 . S
H949 C965 0.930 . S
H950 C966 0.931 . S
C951 H939 0.929 . S
C951 C945 1.390 . S
C951 C948 1.386 . S
C952 C947 1.490 . S
C952 C954 1.395 . S
C952 C955 1.403 . S
H953 C959 0.930 . S
C954 H940 0.930 . S
C954 C952 1.395 . S
C954 C957 1.403 . S
C955 C952 1.403 . S
C955 C956 1.524 . S
C955 C959 1.400 . S
C956 H941 0.960 . S
C956 H942 0.960 . S
C956 H943 0.960 . S
C956 C955 1.524 . S
C957 C954 1.403 . S
C957 C958 1.392 . S
C957 C961 1.495 . S
C958 C957 1.392 . S
C958 C959 1.385 . S
C958 C960 1.478 . S
C959 H953 0.930 . S
C959 C955 1.400 . S
C959 C958 1.385 . S
C960 C958 1.478 . S
C960 C962 1.381 . S
C960 C966 1.383 . S
C961 C957 1.495 . S
C961 H967 0.959 . S
C961 H968 0.961 . S
C961 H969 0.960 . S
C962 C960 1.381 . S
C962 C963 1.394 . S
C962 H970 0.930 . S
C963 C962 1.394 . S
C963 C964 1.383 . S
C963 H971 0.929 . S
C964 C963 1.383 . S
C964 C965 1.377 . S
C965 H949 0.930 . S
C965 C964 1.377 . S
C965 C966 1.379 . S
C966 H950 0.931 . S
C966 C960 1.383 . S
C966 C965 1.379 . S
H967 C961 0.959 . S
H968 C961 0.961 . S
H969 C961 0.960 . S
H970 C962 0.930 . S
H971 C963 0.929 . S
H972 C980 0.929 . S
H973 C982 0.930 . S
H974 C984 0.930 . S
H975 C987 0.929 . S
H976 C990 0.930 . S
H977 C992 0.960 . S
H978 C992 0.960 . S
H979 C992 0.960 . S
C980 H972 0.929 . S
C980 C981 1.377 . S
C980 C982 1.384 . S
C981 C980 1.377 . S
C981 C987 1.390 . S
C982 H973 0.930 . S
C982 C980 1.384 . S
C982 C983 1.372 . S
C983 C982 1.372 . S
C983 C984 1.400 . S
C983 C988 1.490 . S
C984 H974 0.930 . S
C984 C983 1.400 . S
C984 C987 1.386 . S
H985 C1001 0.930 . S
H986 C1002 0.931 . S
C987 H975 0.929 . S
C987 C981 1.390 . S
C987 C984 1.386 . S
C988 C983 1.490 . S
C988 C990 1.395 . S
C988 C991 1.403 . S
H989 C995 0.930 . S
C990 H976 0.930 . S
C990 C988 1.395 . S
C990 C993 1.403 . S
C991 C988 1.403 . S
C991 C992 1.524 1_565 S
C991 C995 1.400 1_565 S
C992 H977 0.960 . S
C992 H978 0.960 . S
C992 H979 0.960 . S
C992 C991 1.524 1_545 S
C993 C990 1.403 . S
C993 C994 1.392 . S
C993 C997 1.495 . S
C994 C993 1.392 . S
C994 C995 1.385 1_565 S
C994 C996 1.478 1_565 S
C995 H989 0.930 . S
C995 C991 1.400 1_545 S
C995 C994 1.385 1_545 S
C996 C994 1.478 1_545 S
C996 C998 1.381 . S
C996 C1002 1.383 . S
C997 C993 1.495 . S
C997 H1003 0.959 . S
C997 H1004 0.961 . S
C997 H1005 0.960 . S
C998 C996 1.381 . S
C998 C999 1.394 . S
C998 H1006 0.930 1_545 S
C999 C998 1.394 . S
C999 C1000 1.383 . S
C999 H1007 0.929 . S
C1000 C999 1.383 . S
C1000 C1001 1.377 . S
C1001 H985 0.930 . S
C1001 C1000 1.377 . S
C1001 C1002 1.379 . S
C1002 H986 0.931 . S
C1002 C996 1.383 . S
C1002 C1001 1.379 . S
H1003 C997 0.959 . S
H1004 C997 0.961 . S
H1005 C997 0.960 . S
H1006 C998 0.930 1_565 S
H1007 C999 0.929 . S
H1008 C1016 0.929 . S
H1009 C1018 0.930 . S
H1010 C1020 0.930 . S
H1011 C1023 0.929 . S
H1012 C1026 0.930 . S
H1013 C1028 0.960 1_655 S
H1014 C1028 0.960 . S
H1015 C1028 0.960 1_655 S
C1016 H1008 0.929 . S
C1016 C1017 1.377 . S
C1016 C1018 1.384 . S
C1017 C1016 1.377 . S
C1017 C1023 1.390 . S
C1018 H1009 0.930 . S
C1018 C1016 1.384 . S
C1018 C1019 1.372 . S
C1019 C1018 1.372 . S
C1019 C1020 1.400 . S
C1019 C1024 1.490 . S
C1020 H1010 0.930 . S
C1020 C1019 1.400 . S
C1020 C1023 1.386 . S
H1021 C1037 0.930 . S
H1022 C1038 0.931 . S
C1023 H1011 0.929 . S
C1023 C1017 1.390 . S
C1023 C1020 1.386 . S
C1024 C1019 1.490 . S
C1024 C1026 1.395 . S
C1024 C1027 1.403 . S
H1025 C1031 0.909 1_655 S
C1026 H1012 0.930 . S
C1026 C1024 1.395 . S
C1026 C1029 1.403 . S
C1027 C1024 1.403 . S
C1027 C1028 1.524 . S
C1027 C1031 1.416 . S
C1028 H1013 0.960 1_455 S
C1028 H1014 0.960 . S
C1028 H1015 0.960 1_455 S
C1028 C1027 1.524 . S
C1029 C1026 1.403 . S
C1029 C1030 1.392 . S
C1029 C1033 1.495 . S
C1030 C1029 1.392 . S
C1030 C1031 1.390 . S
C1030 C1032 1.478 1_455 S
C1031 H1025 0.909 1_455 S
C1031 C1027 1.416 . S
C1031 C1030 1.390 . S
C1032 C1030 1.478 1_655 S
C1032 C1034 1.381 1_655 S
C1032 C1038 1.383 . S
C1033 C1029 1.495 . S
C1033 H1039 0.959 . S
C1033 H1040 0.961 . S
C1033 H1041 0.960 . S
C1034 C1032 1.381 1_455 S
C1034 C1035 1.394 1_455 S
C1034 H1042 0.930 . S
C1035 C1034 1.394 1_655 S
C1035 C1036 1.383 . S
C1035 H1043 0.929 1_655 S
C1036 C1035 1.383 . S
C1036 C1037 1.377 . S
C1037 H1021 0.930 . S
C1037 C1036 1.377 . S
C1037 C1038 1.379 . S
C1038 H1022 0.931 . S
C1038 C1032 1.383 . S
C1038 C1037 1.379 . S
H1039 C1033 0.959 . S
H1040 C1033 0.961 . S
H1041 C1033 0.960 . S
H1042 C1034 0.930 . S
H1043 C1035 0.929 1_455 S
H1044 C1052 0.929 . S
H1045 C1054 0.930 . S
H1046 C1056 0.930 . S
H1047 C1059 0.929 . S
H1048 C1062 0.930 . S
H1049 C1064 0.935 1_655 S
H1050 C1064 0.984 . S
H1051 C1064 0.962 . S
C1052 H1044 0.929 . S
C1052 C1053 1.377 . S
C1052 C1054 1.384 . S
C1053 C1052 1.377 . S
C1053 C1059 1.390 . S
C1054 H1045 0.930 . S
C1054 C1052 1.384 . S
C1054 C1055 1.372 . S
C1055 C1054 1.372 . S
C1055 C1056 1.400 . S
C1055 C1060 1.490 . S
C1056 H1046 0.930 . S
C1056 C1055 1.400 . S
C1056 C1059 1.386 . S
H1057 C1073 0.930 . S
H1058 C1074 0.931 . S
C1059 H1047 0.929 . S
C1059 C1053 1.390 . S
C1059 C1056 1.386 . S
C1060 C1055 1.490 . S
C1060 C1062 1.395 . S
C1060 C1063 1.403 . S
H1061 C1067 0.930 . S
C1062 H1048 0.930 . S
C1062 C1060 1.395 . S
C1062 C1065 1.398 1_455 S
C1063 C1060 1.403 . S
C1063 C1064 1.524 . S
C1063 C1067 1.400 1_455 S
C1064 H1049 0.935 1_455 S
C1064 H1050 0.984 . S
C1064 H1051 0.962 . S
C1064 C1063 1.524 . S
C1065 C1062 1.398 1_655 S
C1065 C1066 1.398 . S
C1065 C1069 1.495 . S
C1066 C1065 1.398 . S
C1066 C1067 1.385 . S
C1066 C1068 1.478 . S
C1067 H1061 0.930 . S
C1067 C1063 1.400 1_655 S
C1067 C1066 1.385 . S
C1068 C1066 1.478 . S
C1068 C1070 1.381 . S
C1068 C1074 1.383 . S
C1069 C1065 1.495 . S
C1069 H1075 0.963 1_655 S
C1069 H1076 0.957 . S
C1069 H1077 0.959 . S
C1070 C1068 1.381 . S
C1070 C1071 1.394 . S
C1070 H1078 0.930 . S
C1071 C1070 1.394 . S
C1071 C1072 1.383 . S
C1071 H1079 0.929 . S
C1072 C1071 1.383 . S
C1072 C1073 1.377 . S
C1073 H1057 0.930 . S
C1073 C1072 1.377 . S
C1073 C1074 1.379 . S
C1074 H1058 0.931 . S
C1074 C1068 1.383 . S
C1074 C1073 1.379 . S
H1075 C1069 0.963 1_455 S
H1076 C1069 0.957 . S
H1077 C1069 0.959 . S
H1078 C1070 0.930 . S
H1079 C1071 0.929 . S
H1080 C1088 0.929 . S
H1081 C1090 0.930 . S
H1082 C1092 0.930 . S
H1083 C1095 0.929 . S
H1084 C1098 0.930 . S
H1085 C1100 0.960 . S
H1086 C1100 0.960 . S
H1087 C1100 0.960 . S
C1088 H1080 0.929 . S
C1088 C1089 1.377 . S
C1088 C1090 1.384 . S
C1089 C1088 1.377 . S
C1089 C1095 1.390 . S
C1090 H1081 0.930 . S
C1090 C1088 1.384 . S
C1090 C1091 1.372 . S
C1091 C1090 1.372 . S
C1091 C1092 1.400 . S
C1091 C1096 1.490 . S
C1092 H1082 0.930 . S
C1092 C1091 1.400 . S
C1092 C1095 1.386 . S
H1093 C1109 0.930 . S
H1094 C1110 0.931 . S
C1095 H1083 0.929 . S
C1095 C1089 1.390 . S
C1095 C1092 1.386 . S
C1096 C1091 1.490 . S
C1096 C1098 1.395 . S
C1096 C1099 1.403 . S
H1097 C1103 0.930 . S
C1098 H1084 0.930 . S
C1098 C1096 1.395 . S
C1098 C1101 1.403 . S
C1099 C1096 1.403 . S
C1099 C1100 1.524 . S
C1099 C1103 1.400 . S
C1100 H1085 0.960 . S
C1100 H1086 0.960 . S
C1100 H1087 0.960 . S
C1100 C1099 1.524 . S
C1101 C1098 1.403 . S
C1101 C1102 1.392 . S
C1101 C1105 1.495 . S
C1102 C1101 1.392 . S
C1102 C1103 1.385 . S
C1102 C1104 1.478 . S
C1103 H1097 0.930 . S
C1103 C1099 1.400 . S
C1103 C1102 1.385 . S
C1104 C1102 1.478 . S
C1104 C1106 1.381 . S
C1104 C1110 1.383 . S
C1105 C1101 1.495 . S
C1105 H1111 0.959 . S
C1105 H1112 0.961 . S
C1105 H1113 0.960 . S
C1106 C1104 1.381 . S
C1106 C1107 1.394 . S
C1106 H1114 0.930 . S
C1107 C1106 1.394 . S
C1107 C1108 1.383 . S
C1107 H1115 0.929 . S
C1108 C1107 1.383 . S
C1108 C1109 1.377 . S
C1109 H1093 0.930 . S
C1109 C1108 1.377 . S
C1109 C1110 1.379 . S
C1110 H1094 0.931 . S
C1110 C1104 1.383 . S
C1110 C1109 1.379 . S
H1111 C1105 0.959 . S
H1112 C1105 0.961 . S
H1113 C1105 0.960 . S
H1114 C1106 0.930 . S
H1115 C1107 0.929 . S
H1116 C1124 0.929 . S
H1117 C1126 0.930 . S
H1118 C1128 0.930 . S
H1119 C1131 0.929 . S
H1120 C1134 0.930 . S
H1121 C1136 0.960 . S
H1122 C1136 0.960 . S
H1123 C1136 0.960 . S
C1124 H1116 0.929 . S
C1124 C1125 1.377 . S
C1124 C1126 1.384 . S
C1125 C1124 1.377 . S
C1125 C1131 1.390 . S
C1126 H1117 0.930 . S
C1126 C1124 1.384 . S
C1126 C1127 1.372 . S
C1127 C1126 1.372 . S
C1127 C1128 1.400 . S
C1127 C1132 1.490 . S
C1128 H1118 0.930 . S
C1128 C1127 1.400 . S
C1128 C1131 1.386 . S
H1129 C1145 0.930 . S
H1130 C1146 0.931 . S
C1131 H1119 0.929 . S
C1131 C1125 1.390 . S
C1131 C1128 1.386 . S
C1132 C1127 1.490 . S
C1132 C1134 1.395 . S
C1132 C1135 1.403 . S
H1133 C1139 0.930 . S
C1134 H1120 0.930 . S
C1134 C1132 1.395 . S
C1134 C1137 1.403 1_565 S
C1135 C1132 1.403 . S
C1135 C1136 1.524 . S
C1135 C1139 1.400 1_565 S
C1136 H1121 0.960 . S
C1136 H1122 0.960 . S
C1136 H1123 0.960 . S
C1136 C1135 1.524 . S
C1137 C1134 1.403 1_545 S
C1137 C1138 1.392 . S
C1137 C1141 1.495 . S
C1138 C1137 1.392 . S
C1138 C1139 1.385 . S
C1138 C1140 1.478 . S
C1139 H1133 0.930 . S
C1139 C1135 1.400 1_545 S
C1139 C1138 1.385 . S
C1140 C1138 1.478 . S
C1140 C1142 1.381 . S
C1140 C1146 1.383 . S
C1141 C1137 1.495 . S
C1141 H1147 0.959 . S
C1141 H1148 0.961 . S
C1141 H1149 0.960 . S
C1142 C1140 1.381 . S
C1142 C1143 1.394 . S
C1142 H1150 0.930 . S
C1143 C1142 1.394 . S
C1143 C1144 1.383 . S
C1143 H1151 0.929 . S
C1144 C1143 1.383 . S
C1144 C1145 1.377 . S
C1145 H1129 0.930 . S
C1145 C1144 1.377 . S
C1145 C1146 1.379 . S
C1146 H1130 0.931 . S
C1146 C1140 1.383 . S
C1146 C1145 1.379 . S
H1147 C1141 0.959 . S
H1148 C1141 0.961 . S
H1149 C1141 0.960 . S
H1150 C1142 0.930 . S
H1151 C1143 0.929 . S
H1152 C1160 0.929 . S
H1153 C1162 0.930 . S
H1154 C1164 0.930 . S
H1155 C1167 0.929 . S
H1156 C1170 0.932 . S
H1157 C1172 0.960 . S
H1158 C1172 0.960 . S
H1159 C1172 0.960 . S
C1160 H1152 0.929 . S
C1160 C1161 1.377 . S
C1160 C1162 1.384 . S
C1161 C1160 1.377 . S
C1161 C1167 1.390 . S
C1162 H1153 0.930 . S
C1162 C1160 1.384 . S
C1162 C1163 1.372 . S
C1163 C1162 1.372 . S
C1163 C1164 1.400 . S
C1163 C1168 1.490 . S
C1164 H1154 0.930 . S
C1164 C1163 1.400 . S
C1164 C1167 1.386 . S
H1165 C1181 0.930 . S
H1166 C1182 0.931 . S
C1167 H1155 0.929 . S
C1167 C1161 1.390 . S
C1167 C1164 1.386 . S
C1168 C1163 1.490 . S
C1168 C1170 1.395 1_545 S
C1168 C1171 1.403 . S
H1169 C1175 0.930 . S
C1170 H1156 0.932 . S
C1170 C1168 1.395 1_565 S
C1170 C1173 1.403 . S
C1171 C1168 1.403 . S
C1171 C1172 1.524 . S
C1171 C1175 1.400 1_545 S
C1172 H1157 0.960 . S
C1172 H1158 0.960 . S
C1172 H1159 0.960 . S
C1172 C1171 1.524 . S
C1173 C1170 1.403 . S
C1173 C1174 1.392 . S
C1173 C1177 1.495 . S
C1174 C1173 1.392 . S
C1174 C1175 1.385 . S
C1174 C1176 1.478 . S
C1175 H1169 0.930 . S
C1175 C1171 1.400 1_565 S
C1175 C1174 1.385 . S
C1176 C1174 1.478 . S
C1176 C1178 1.381 . S
C1176 C1182 1.383 . S
C1177 C1173 1.495 . S
C1177 H1183 0.959 . S
C1177 H1184 0.961 . S
C1177 H1185 0.960 . S
C1178 C1176 1.381 . S
C1178 C1179 1.394 . S
C1178 H1186 0.930 . S
C1179 C1178 1.394 . S
C1179 C1180 1.383 . S
C1179 H1187 0.929 . S
C1180 C1179 1.383 . S
C1180 C1181 1.377 . S
C1181 H1165 0.930 . S
C1181 C1180 1.377 . S
C1181 C1182 1.379 . S
C1182 H1166 0.931 . S
C1182 C1176 1.383 . S
C1182 C1181 1.379 . S
H1183 C1177 0.959 . S
H1184 C1177 0.961 . S
H1185 C1177 0.960 . S
H1186 C1178 0.930 . S
H1187 C1179 0.929 . S
H1188 C1196 0.929 . S
H1189 C1198 0.930 . S
H1190 C1200 0.930 . S
H1191 C1203 0.929 . S
H1192 C1206 0.930 . S
H1193 C1208 0.960 1_655 S
H1194 C1208 0.960 . S
H1195 C1208 0.960 . S
C1196 H1188 0.929 . S
C1196 C1197 1.377 . S
C1196 C1198 1.384 . S
C1197 C1196 1.377 . S
C1197 C1203 1.390 . S
C1198 H1189 0.930 . S
C1198 C1196 1.384 . S
C1198 C1199 1.372 . S
C1199 C1198 1.372 . S
C1199 C1200 1.400 . S
C1199 C1204 1.490 . S
C1200 H1190 0.930 . S
C1200 C1199 1.400 . S
C1200 C1203 1.386 . S
H1201 C1217 0.930 . S
H1202 C1218 0.931 . S
C1203 H1191 0.929 . S
C1203 C1197 1.390 . S
C1203 C1200 1.386 . S
C1204 C1199 1.490 . S
C1204 C1206 1.395 . S
C1204 C1207 1.403 . S
H1205 C1211 0.930 . S
C1206 H1192 0.930 . S
C1206 C1204 1.395 . S
C1206 C1209 1.403 1_455 S
C1207 C1204 1.403 . S
C1207 C1208 1.524 . S
C1207 C1211 1.400 1_455 S
C1208 H1193 0.960 1_455 S
C1208 H1194 0.960 . S
C1208 H1195 0.960 . S
C1208 C1207 1.524 . S
C1209 C1206 1.403 1_655 S
C1209 C1210 1.392 . S
C1209 C1213 1.495 . S
C1210 C1209 1.392 . S
C1210 C1211 1.385 . S
C1210 C1212 1.478 . S
C1211 H1205 0.930 . S
C1211 C1207 1.400 1_655 S
C1211 C1210 1.385 . S
C1212 C1210 1.478 . S
C1212 C1214 1.381 . S
C1212 C1218 1.383 . S
C1213 C1209 1.495 . S
C1213 H1219 0.959 1_655 S
C1213 H1220 0.961 . S
C1213 H1221 0.960 . S
C1214 C1212 1.381 . S
C1214 C1215 1.394 . S
C1214 H1222 0.930 . S
C1215 C1214 1.394 . S
C1215 C1216 1.383 . S
C1215 H1223 0.929 . S
C1216 C1215 1.383 . S
C1216 C1217 1.377 . S
C1217 H1201 0.930 . S
C1217 C1216 1.377 . S
C1217 C1218 1.379 . S
C1218 H1202 0.931 . S
C1218 C1212 1.383 . S
C1218 C1217 1.379 . S
H1219 C1213 0.959 1_455 S
H1220 C1213 0.961 . S
H1221 C1213 0.960 . S
H1222 C1214 0.930 . S
H1223 C1215 0.929 . S
H1224 C1232 0.929 . S
H1225 C1234 0.930 . S
H1226 C1236 0.930 . S
H1227 C1239 0.929 . S
H1228 C1242 0.930 . S
H1229 C1244 0.960 . S
H1230 C1244 0.960 . S
H1231 C1244 0.960 . S
C1232 H1224 0.929 . S
C1232 C1233 1.377 . S
C1232 C1234 1.384 . S
C1233 C1232 1.377 . S
C1233 C1239 1.390 . S
C1234 H1225 0.930 . S
C1234 C1232 1.384 . S
C1234 C1235 1.372 . S
C1235 C1234 1.372 . S
C1235 C1236 1.400 . S
C1235 C1240 1.490 . S
C1236 H1226 0.930 . S
C1236 C1235 1.400 . S
C1236 C1239 1.386 . S
H1237 C1253 0.930 . S
H1238 C1254 0.931 . S
C1239 H1227 0.929 . S
C1239 C1233 1.390 . S
C1239 C1236 1.386 . S
C1240 C1235 1.490 . S
C1240 C1242 1.395 . S
C1240 C1243 1.403 . S
H1241 C1247 0.930 . S
C1242 H1228 0.930 . S
C1242 C1240 1.395 . S
C1242 C1245 1.403 . S
C1243 C1240 1.403 . S
C1243 C1244 1.524 . S
C1243 C1247 1.400 . S
C1244 H1229 0.960 . S
C1244 H1230 0.960 . S
C1244 H1231 0.960 . S
C1244 C1243 1.524 . S
C1245 C1242 1.403 . S
C1245 C1246 1.392 . S
C1245 C1249 1.495 . S
C1246 C1245 1.392 . S
C1246 C1247 1.385 . S
C1246 C1248 1.478 . S
C1247 H1241 0.930 . S
C1247 C1243 1.400 . S
C1247 C1246 1.385 . S
C1248 C1246 1.478 . S
C1248 C1250 1.381 . S
C1248 C1254 1.383 . S
C1249 C1245 1.495 . S
C1249 H1255 0.959 . S
C1249 H1256 0.961 . S
C1249 H1257 0.960 . S
C1250 C1248 1.381 . S
C1250 C1251 1.394 . S
C1250 H1258 0.930 . S
C1251 C1250 1.394 . S
C1251 C1252 1.383 . S
C1251 H1259 0.929 . S
C1252 C1251 1.383 . S
C1252 C1253 1.377 . S
C1253 H1237 0.930 . S
C1253 C1252 1.377 . S
C1253 C1254 1.379 . S
C1254 H1238 0.931 . S
C1254 C1248 1.383 . S
C1254 C1253 1.379 . S
H1255 C1249 0.959 . S
H1256 C1249 0.961 . S
H1257 C1249 0.960 . S
H1258 C1250 0.930 . S
H1259 C1251 0.929 . S
H1260 C1268 0.929 . S
H1261 C1270 0.930 . S
H1262 C1272 0.930 . S
H1263 C1275 0.929 . S
H1264 C1278 0.930 . S
H1265 C1280 0.960 . S
H1266 C1280 0.960 . S
H1267 C1280 0.960 . S
C1268 H1260 0.929 . S
C1268 C1269 1.377 . S
C1268 C1270 1.384 . S
C1269 C1268 1.377 . S
C1269 C1275 1.390 . S
C1270 H1261 0.930 . S
C1270 C1268 1.384 . S
C1270 C1271 1.372 . S
C1271 C1270 1.372 . S
C1271 C1272 1.400 . S
C1271 C1276 1.490 . S
C1272 H1262 0.930 . S
C1272 C1271 1.400 . S
C1272 C1275 1.386 . S
H1273 C1289 0.930 . S
H1274 C1290 0.931 . S
C1275 H1263 0.929 . S
C1275 C1269 1.390 . S
C1275 C1272 1.386 . S
C1276 C1271 1.490 . S
C1276 C1278 1.395 . S
C1276 C1279 1.403 . S
H1277 C1283 0.930 . S
C1278 H1264 0.930 . S
C1278 C1276 1.395 . S
C1278 C1281 1.403 . S
C1279 C1276 1.403 . S
C1279 C1280 1.524 . S
C1279 C1283 1.400 . S
C1280 H1265 0.960 . S
C1280 H1266 0.960 . S
C1280 H1267 0.960 . S
C1280 C1279 1.524 . S
C1281 C1278 1.403 . S
C1281 C1282 1.392 . S
C1281 C1285 1.495 . S
C1282 C1281 1.392 . S
C1282 C1283 1.385 . S
C1282 C1284 1.478 . S
C1283 H1277 0.930 . S
C1283 C1279 1.400 . S
C1283 C1282 1.385 . S
C1284 C1282 1.478 . S
C1284 C1286 1.381 . S
C1284 C1290 1.383 . S
C1285 C1281 1.495 . S
C1285 H1291 0.959 . S
C1285 H1292 0.961 . S
C1285 H1293 0.960 . S
C1286 C1284 1.381 . S
C1286 C1287 1.394 . S
C1286 H1294 0.930 . S
C1287 C1286 1.394 . S
C1287 C1288 1.383 . S
C1287 H1295 0.929 . S
C1288 C1287 1.383 . S
C1288 C1289 1.377 . S
C1289 H1273 0.930 . S
C1289 C1288 1.377 . S
C1289 C1290 1.379 . S
C1290 H1274 0.931 . S
C1290 C1284 1.383 . S
C1290 C1289 1.379 . S
H1291 C1285 0.959 . S
H1292 C1285 0.961 . S
H1293 C1285 0.960 . S
H1294 C1286 0.930 . S
H1295 C1287 0.929 . S
H1296 C1304 0.929 . S
H1297 C1306 0.930 . S
H1298 C1308 0.930 . S
H1299 C1311 0.929 . S
H1300 C1314 0.930 . S
H1301 C1316 0.960 . S
H1302 C1316 0.960 . S
H1303 C1316 0.960 . S
C1304 H1296 0.929 . S
C1304 C1305 1.377 . S
C1304 C1306 1.384 . S
C1305 C1304 1.377 . S
C1305 C1311 1.390 . S
C1306 H1297 0.930 . S
C1306 C1304 1.384 . S
C1306 C1307 1.372 . S
C1307 C1306 1.372 . S
C1307 C1308 1.400 . S
C1307 C1312 1.490 . S
C1308 H1298 0.930 . S
C1308 C1307 1.400 . S
C1308 C1311 1.386 . S
H1309 C1325 0.930 . S
H1310 C1326 0.931 . S
C1311 H1299 0.929 . S
C1311 C1305 1.390 . S
C1311 C1308 1.386 . S
C1312 C1307 1.490 . S
C1312 C1314 1.395 . S
C1312 C1315 1.403 . S
H1313 C1319 0.930 . S
C1314 H1300 0.930 . S
C1314 C1312 1.395 . S
C1314 C1317 1.403 . S
C1315 C1312 1.403 . S
C1315 C1316 1.524 . S
C1315 C1319 1.400 . S
C1316 H1301 0.960 . S
C1316 H1302 0.960 . S
C1316 H1303 0.960 . S
C1316 C1315 1.524 . S
C1317 C1314 1.403 . S
C1317 C1318 1.392 . S
C1317 C1321 1.495 . S
C1318 C1317 1.392 . S
C1318 C1319 1.385 . S
C1318 C1320 1.478 . S
C1319 H1313 0.930 . S
C1319 C1315 1.400 . S
C1319 C1318 1.385 . S
C1320 C1318 1.478 . S
C1320 C1322 1.381 . S
C1320 C1326 1.383 . S
C1321 C1317 1.495 . S
C1321 H1327 0.959 . S
C1321 H1328 0.961 . S
C1321 H1329 0.960 . S
C1322 C1320 1.381 . S
C1322 C1323 1.394 . S
C1322 H1330 0.930 . S
C1323 C1322 1.394 . S
C1323 C1324 1.383 . S
C1323 H1331 0.929 . S
C1324 C1323 1.383 . S
C1324 C1325 1.377 . S
C1325 H1309 0.930 . S
C1325 C1324 1.377 . S
C1325 C1326 1.379 . S
C1326 H1310 0.931 . S
C1326 C1320 1.383 . S
C1326 C1325 1.379 . S
H1327 C1321 0.959 . S
H1328 C1321 0.961 . S
H1329 C1321 0.960 . S
H1330 C1322 0.930 . S
H1331 C1323 0.929 . S
H1332 C1340 0.929 . S
H1333 C1342 0.930 . S
H1334 C1344 0.930 . S
H1335 C1347 0.929 . S
H1336 C1350 0.930 . S
H1337 C1352 0.960 . S
H1338 C1352 0.960 . S
H1339 C1352 0.960 . S
C1340 H1332 0.929 . S
C1340 C1341 1.377 . S
C1340 C1342 1.384 . S
C1341 C1340 1.377 . S
C1341 C1347 1.390 . S
C1342 H1333 0.930 . S
C1342 C1340 1.384 . S
C1342 C1343 1.372 . S
C1343 C1342 1.372 . S
C1343 C1344 1.400 . S
C1343 C1348 1.490 . S
C1344 H1334 0.930 . S
C1344 C1343 1.400 . S
C1344 C1347 1.386 . S
H1345 C1361 0.930 . S
H1346 C1362 0.931 . S
C1347 H1335 0.929 . S
C1347 C1341 1.390 . S
C1347 C1344 1.386 . S
C1348 C1343 1.490 . S
C1348 C1350 1.395 . S
C1348 C1351 1.403 . S
H1349 C1355 0.930 . S
C1350 H1336 0.930 . S
C1350 C1348 1.395 . S
C1350 C1353 1.403 . S
C1351 C1348 1.403 . S
C1351 C1352 1.524 . S
C1351 C1355 1.400 . S
C1352 H1337 0.960 . S
C1352 H1338 0.960 . S
C1352 H1339 0.960 . S
C1352 C1351 1.524 . S
C1353 C1350 1.403 . S
C1353 C1354 1.392 . S
C1353 C1357 1.495 . S
C1354 C1353 1.392 . S
C1354 C1355 1.385 . S
C1354 C1356 1.478 . S
C1355 H1349 0.930 . S
C1355 C1351 1.400 . S
C1355 C1354 1.385 . S
C1356 C1354 1.478 . S
C1356 C1358 1.381 . S
C1356 C1362 1.383 . S
C1357 C1353 1.495 . S
C1357 H1363 0.959 . S
C1357 H1364 0.961 . S
C1357 H1365 0.960 . S
C1358 C1356 1.381 . S
C1358 C1359 1.394 . S
C1358 H1366 0.930 . S
C1359 C1358 1.394 . S
C1359 C1360 1.383 . S
C1359 H1367 0.929 . S
C1360 C1359 1.383 . S
C1360 C1361 1.377 . S
C1361 H1345 0.930 . S
C1361 C1360 1.377 . S
C1361 C1362 1.379 . S
C1362 H1346 0.931 . S
C1362 C1356 1.383 . S
C1362 C1361 1.379 . S
H1363 C1357 0.959 . S
H1364 C1357 0.961 . S
H1365 C1357 0.960 . S
H1366 C1358 0.930 . S
H1367 C1359 0.929 . S
H1368 C1376 0.929 . S
H1369 C1378 0.930 . S
H1370 C1380 0.930 . S
H1371 C1383 0.929 . S
H1372 C1386 0.930 . S
H1373 C1388 0.960 . S
H1374 C1388 0.960 . S
H1375 C1388 0.960 . S
C1376 H1368 0.929 . S
C1376 C1377 1.377 . S
C1376 C1378 1.384 . S
C1377 C1376 1.377 . S
C1377 C1383 1.390 . S
C1378 H1369 0.930 . S
C1378 C1376 1.384 . S
C1378 C1379 1.372 . S
C1379 C1378 1.372 . S
C1379 C1380 1.400 . S
C1379 C1384 1.490 . S
C1380 H1370 0.930 . S
C1380 C1379 1.400 . S
C1380 C1383 1.386 . S
H1381 C1397 0.930 . S
H1382 C1398 0.931 . S
C1383 H1371 0.929 . S
C1383 C1377 1.390 . S
C1383 C1380 1.386 . S
C1384 C1379 1.490 . S
C1384 C1386 1.395 . S
C1384 C1387 1.403 . S
H1385 C1391 0.930 . S
C1386 H1372 0.930 . S
C1386 C1384 1.395 . S
C1386 C1389 1.403 . S
C1387 C1384 1.403 . S
C1387 C1388 1.524 . S
C1387 C1391 1.400 . S
C1388 H1373 0.960 . S
C1388 H1374 0.960 . S
C1388 H1375 0.960 . S
C1388 C1387 1.524 . S
C1389 C1386 1.403 . S
C1389 C1390 1.392 . S
C1389 C1393 1.495 . S
C1390 C1389 1.392 . S
C1390 C1391 1.385 . S
C1390 C1392 1.478 . S
C1391 H1385 0.930 . S
C1391 C1387 1.400 . S
C1391 C1390 1.385 . S
C1392 C1390 1.478 . S
C1392 C1394 1.381 . S
C1392 C1398 1.383 . S
C1393 C1389 1.495 . S
C1393 H1399 0.959 . S
C1393 H1400 0.961 . S
C1393 H1401 0.960 . S
C1394 C1392 1.381 . S
C1394 C1395 1.394 . S
C1394 H1402 0.930 . S
C1395 C1394 1.394 . S
C1395 C1396 1.383 . S
C1395 H1403 0.929 . S
C1396 C1395 1.383 . S
C1396 C1397 1.377 . S
C1397 H1381 0.930 . S
C1397 C1396 1.377 . S
C1397 C1398 1.379 . S
C1398 H1382 0.931 . S
C1398 C1392 1.383 . S
C1398 C1397 1.379 . S
H1399 C1393 0.959 . S
H1400 C1393 0.961 . S
H1401 C1393 0.960 . S
H1402 C1394 0.930 . S
H1403 C1395 0.929 . S
H1404 C1412 0.929 . S
H1405 C1414 0.930 . S
H1406 C1416 0.930 . S
H1407 C1419 0.929 . S
H1408 C1422 0.930 . S
H1409 C1424 0.960 . S
H1410 C1424 0.960 . S
H1411 C1424 0.960 . S
C1412 H1404 0.929 . S
C1412 C1413 1.377 . S
C1412 C1414 1.384 . S
C1413 C1412 1.377 . S
C1413 C1419 1.390 . S
C1414 H1405 0.930 . S
C1414 C1412 1.384 . S
C1414 C1415 1.372 . S
C1415 C1414 1.372 . S
C1415 C1416 1.400 . S
C1415 C1420 1.490 . S
C1416 H1406 0.930 . S
C1416 C1415 1.400 . S
C1416 C1419 1.386 . S
H1417 C1433 0.930 . S
H1418 C1434 0.931 . S
C1419 H1407 0.929 . S
C1419 C1413 1.390 . S
C1419 C1416 1.386 . S
C1420 C1415 1.490 . S
C1420 C1422 1.395 . S
C1420 C1423 1.403 . S
H1421 C1427 0.930 . S
C1422 H1408 0.930 . S
C1422 C1420 1.395 . S
C1422 C1425 1.403 . S
C1423 C1420 1.403 . S
C1423 C1424 1.524 . S
C1423 C1427 1.400 . S
C1424 H1409 0.960 . S
C1424 H1410 0.960 . S
C1424 H1411 0.960 . S
C1424 C1423 1.524 . S
C1425 C1422 1.403 . S
C1425 C1426 1.392 . S
C1425 C1429 1.495 . S
C1426 C1425 1.392 . S
C1426 C1427 1.385 . S
C1426 C1428 1.478 . S
C1427 H1421 0.930 . S
C1427 C1423 1.400 . S
C1427 C1426 1.385 . S
C1428 C1426 1.478 . S
C1428 C1430 1.381 . S
C1428 C1434 1.383 . S
C1429 C1425 1.495 . S
C1429 H1435 0.959 . S
C1429 H1436 0.961 . S
C1429 H1437 0.960 . S
C1430 C1428 1.381 . S
C1430 C1431 1.394 . S
C1430 H1438 0.930 . S
C1431 C1430 1.394 . S
C1431 C1432 1.383 . S
C1431 H1439 0.929 . S
C1432 C1431 1.383 . S
C1432 C1433 1.377 . S
C1433 H1417 0.930 . S
C1433 C1432 1.377 . S
C1433 C1434 1.379 . S
C1434 H1418 0.931 . S
C1434 C1428 1.383 . S
C1434 C1433 1.379 . S
H1435 C1429 0.959 . S
H1436 C1429 0.961 . S
H1437 C1429 0.960 . S
H1438 C1430 0.930 . S
H1439 C1431 0.929 . S
H1440 C1448 0.929 . S
H1441 C1450 0.930 . S
H1442 C1452 0.930 . S
H1443 C1455 0.929 . S
H1444 C1458 0.930 . S
H1445 C1460 0.960 . S
H1446 C1460 0.960 . S
H1447 C1460 0.960 . S
C1448 H1440 0.929 . S
C1448 C1449 1.377 . S
C1448 C1450 1.384 . S
C1449 C1448 1.377 . S
C1449 C1455 1.390 . S
C1450 H1441 0.930 . S
C1450 C1448 1.384 . S
C1450 C1451 1.372 . S
C1451 C1450 1.372 . S
C1451 C1452 1.400 . S
C1451 C1456 1.490 . S
C1452 H1442 0.930 . S
C1452 C1451 1.400 . S
C1452 C1455 1.386 . S
H1453 C1469 0.930 . S
H1454 C1470 0.931 . S
C1455 H1443 0.929 . S
C1455 C1449 1.390 . S
C1455 C1452 1.386 . S
C1456 C1451 1.490 . S
C1456 C1458 1.395 . S
C1456 C1459 1.403 . S
H1457 C1463 0.930 . S
C1458 H1444 0.930 . S
C1458 C1456 1.395 . S
C1458 C1461 1.403 . S
C1459 C1456 1.403 . S
C1459 C1460 1.524 . S
C1459 C1463 1.400 . S
C1460 H1445 0.960 . S
C1460 H1446 0.960 . S
C1460 H1447 0.960 . S
C1460 C1459 1.524 . S
C1461 C1458 1.403 . S
C1461 C1462 1.392 . S
C1461 C1465 1.495 . S
C1462 C1461 1.392 . S
C1462 C1463 1.385 . S
C1462 C1464 1.478 . S
C1463 H1457 0.930 . S
C1463 C1459 1.400 . S
C1463 C1462 1.385 . S
C1464 C1462 1.478 . S
C1464 C1466 1.381 . S
C1464 C1470 1.383 . S
C1465 C1461 1.495 . S
C1465 H1471 0.959 . S
C1465 H1472 0.961 . S
C1465 H1473 0.960 . S
C1466 C1464 1.381 . S
C1466 C1467 1.394 . S
C1466 H1474 0.930 . S
C1467 C1466 1.394 . S
C1467 C1468 1.383 . S
C1467 H1475 0.929 . S
C1468 C1467 1.383 . S
C1468 C1469 1.377 . S
C1469 H1453 0.930 . S
C1469 C1468 1.377 . S
C1469 C1470 1.379 . S
C1470 H1454 0.931 . S
C1470 C1464 1.383 . S
C1470 C1469 1.379 . S
H1471 C1465 0.959 . S
H1472 C1465 0.961 . S
H1473 C1465 0.960 . S
H1474 C1466 0.930 . S
H1475 C1467 0.929 . S
H1476 C1484 0.929 . S
H1477 C1486 0.930 . S
H1478 C1488 0.930 1_455 S
H1479 C1491 0.929 . S
H1480 C1494 0.930 . S
H1481 C1496 0.960 . S
H1482 C1496 0.960 . S
H1483 C1496 0.960 . S
C1484 H1476 0.929 . S
C1484 C1485 1.377 . S
C1484 C1486 1.384 . S
C1485 C1484 1.377 . S
C1485 C1491 1.390 . S
C1486 H1477 0.930 . S
C1486 C1484 1.384 . S
C1486 C1487 1.372 . S
C1487 C1486 1.372 . S
C1487 C1488 1.400 . S
C1487 C1492 1.490 . S
C1488 H1478 0.930 1_655 S
C1488 C1487 1.400 . S
C1488 C1491 1.386 . S
H1489 C1505 0.930 . S
H1490 C1506 0.931 . S
C1491 H1479 0.929 . S
C1491 C1485 1.390 . S
C1491 C1488 1.386 . S
C1492 C1487 1.490 . S
C1492 C1494 1.395 . S
C1492 C1495 1.403 . S
H1493 C1499 0.933 . S
C1494 H1480 0.930 . S
C1494 C1492 1.395 . S
C1494 C1497 1.403 1_654 S
C1495 C1492 1.403 . S
C1495 C1496 1.524 . S
C1495 C1499 1.398 1_654 S
C1496 H1481 0.960 . S
C1496 H1482 0.960 . S
C1496 H1483 0.960 . S
C1496 C1495 1.524 . S
C1497 C1494 1.403 1_456 S
C1497 C1498 1.392 . S
C1497 C1501 1.495 . S
C1498 C1497 1.392 . S
C1498 C1499 1.384 . S
C1498 C1500 1.478 . S
C1499 H1493 0.933 . S
C1499 C1495 1.398 1_456 S
C1499 C1498 1.384 . S
C1500 C1498 1.478 . S
C1500 C1502 1.381 . S
C1500 C1506 1.383 . S
C1501 C1497 1.495 . S
C1501 H1507 0.959 . S
C1501 H1508 0.961 . S
C1501 H1509 0.960 . S
C1502 C1500 1.381 . S
C1502 C1503 1.394 . S
C1502 H1510 0.930 1_455 S
C1503 C1502 1.394 . S
C1503 C1504 1.383 . S
C1503 H1511 0.929 . S
C1504 C1503 1.383 . S
C1504 C1505 1.377 . S
C1505 H1489 0.930 . S
C1505 C1504 1.377 . S
C1505 C1506 1.379 . S
C1506 H1490 0.931 . S
C1506 C1500 1.383 . S
C1506 C1505 1.379 . S
H1507 C1501 0.959 . S
H1508 C1501 0.961 . S
H1509 C1501 0.960 . S
H1510 C1502 0.930 1_655 S
H1511 C1503 0.929 . S
H1512 C1520 0.929 . S
H1513 C1522 0.930 . S
H1514 C1524 0.930 . S
H1515 C1527 0.929 . S
H1516 C1530 0.930 . S
H1517 C1532 0.960 1_556 S
H1518 C1532 0.960 . S
H1519 C1532 0.960 . S
C1520 H1512 0.929 . S
C1520 C1521 1.377 . S
C1520 C1522 1.384 . S
C1521 C1520 1.377 . S
C1521 C1527 1.390 . S
C1522 H1513 0.930 . S
C1522 C1520 1.384 . S
C1522 C1523 1.372 . S
C1523 C1522 1.372 . S
C1523 C1524 1.400 . S
C1523 C1528 1.490 . S
C1524 H1514 0.930 . S
C1524 C1523 1.400 . S
C1524 C1527 1.386 . S
H1525 C1541 0.930 . S
H1526 C1542 0.931 . S
C1527 H1515 0.929 . S
C1527 C1521 1.390 . S
C1527 C1524 1.386 . S
C1528 C1523 1.490 . S
C1528 C1530 1.395 . S
C1528 C1531 1.403 . S
H1529 C1535 0.930 . S
C1530 H1516 0.930 . S
C1530 C1528 1.395 . S
C1530 C1533 1.403 1_554 S
C1531 C1528 1.403 . S
C1531 C1532 1.524 . S
C1531 C1535 1.400 1_554 S
C1532 H1517 0.960 1_554 S
C1532 H1518 0.960 . S
C1532 H1519 0.960 . S
C1532 C1531 1.524 . S
C1533 C1530 1.403 1_556 S
C1533 C1534 1.392 . S
C1533 C1537 1.495 . S
C1534 C1533 1.392 . S
C1534 C1535 1.385 . S
C1534 C1536 1.478 . S
C1535 H1529 0.930 . S
C1535 C1531 1.400 1_556 S
C1535 C1534 1.385 . S
C1536 C1534 1.478 . S
C1536 C1538 1.381 . S
C1536 C1542 1.383 . S
C1537 C1533 1.495 . S
C1537 H1543 0.959 1_556 S
C1537 H1544 0.961 . S
C1537 H1545 0.960 . S
C1538 C1536 1.381 . S
C1538 C1539 1.394 . S
C1538 H1546 0.930 . S
C1539 C1538 1.394 . S
C1539 C1540 1.383 . S
C1539 H1547 0.929 . S
C1540 C1539 1.383 . S
C1540 C1541 1.377 . S
C1541 H1525 0.930 . S
C1541 C1540 1.377 . S
C1541 C1542 1.379 . S
C1542 H1526 0.931 . S
C1542 C1536 1.383 . S
C1542 C1541 1.379 . S
H1543 C1537 0.959 1_554 S
H1544 C1537 0.961 . S
H1545 C1537 0.960 . S
H1546 C1538 0.930 . S
H1547 C1539 0.929 . S
H1548 C1556 0.929 . S
H1549 C1558 0.930 . S
H1550 C1560 0.930 1_565 S
H1551 C1563 0.929 . S
H1552 C1566 0.950 . S
H1553 C1568 0.960 . S
H1554 C1568 0.960 . S
H1555 C1568 0.960 . S
C1556 H1548 0.929 . S
C1556 C1557 1.377 . S
C1556 C1558 1.384 . S
C1557 C1556 1.377 . S
C1557 C1563 1.390 . S
C1558 H1549 0.930 . S
C1558 C1556 1.384 . S
C1558 C1559 1.372 . S
C1559 C1558 1.372 . S
C1559 C1560 1.400 . S
C1559 C1564 1.490 . S
C1560 H1550 0.930 1_545 S
C1560 C1559 1.400 . S
C1560 C1563 1.386 . S
H1561 C1577 0.930 . S
H1562 C1578 0.931 . S
C1563 H1551 0.929 . S
C1563 C1557 1.390 . S
C1563 C1560 1.386 . S
C1564 C1559 1.490 . S
C1564 C1566 1.358 1_545 S
C1564 C1567 1.403 . S
H1565 C1571 0.932 1_545 S
C1566 H1552 0.950 . S
C1566 C1564 1.358 1_565 S
C1566 C1569 1.422 1_554 S
C1567 C1564 1.403 . S
C1567 C1568 1.524 . S
C1567 C1571 1.400 1_544 S
C1568 H1553 0.960 . S
C1568 H1554 0.960 . S
C1568 H1555 0.960 . S
C1568 C1567 1.524 . S
C1569 C1566 1.422 1_556 S
C1569 C1570 1.392 . S
C1569 C1573 1.495 . S
C1570 C1569 1.392 . S
C1570 C1571 1.384 . S
C1570 C1572 1.478 . S
C1571 H1565 0.932 1_565 S
C1571 C1567 1.400 1_566 S
C1571 C1570 1.384 . S
C1572 C1570 1.478 . S
C1572 C1574 1.381 . S
C1572 C1578 1.383 . S
C1573 C1569 1.495 . S
C1573 H1579 0.959 . S
C1573 H1580 0.961 . S
C1573 H1581 0.960 . S
C1574 C1572 1.381 . S
C1574 C1575 1.394 . S
C1574 H1582 0.930 1_565 S
C1575 C1574 1.394 . S
C1575 C1576 1.383 . S
C1575 H1583 0.929 . S
C1576 C1575 1.383 . S
C1576 C1577 1.377 . S
C1577 H1561 0.930 . S
C1577 C1576 1.377 . S
C1577 C1578 1.379 . S
C1578 H1562 0.931 . S
C1578 C1572 1.383 . S
C1578 C1577 1.379 . S
H1579 C1573 0.959 . S
H1580 C1573 0.961 . S
H1581 C1573 0.960 . S
H1582 C1574 0.930 1_545 S
H1583 C1575 0.929 . S
H1584 C1592 0.929 . S
H1585 C1594 0.930 . S
H1586 C1596 0.930 . S
H1587 C1599 0.929 . S
H1588 C1602 0.930 . S
H1589 C1604 0.960 . S
H1590 C1604 0.960 . S
H1591 C1604 0.960 . S
C1592 H1584 0.929 . S
C1592 C1593 1.377 . S
C1592 C1594 1.384 . S
C1593 C1592 1.377 . S
C1593 C1599 1.390 . S
C1594 H1585 0.930 . S
C1594 C1592 1.384 . S
C1594 C1595 1.372 . S
C1595 C1594 1.372 . S
C1595 C1596 1.400 . S
C1595 C1600 1.490 . S
C1596 H1586 0.930 . S
C1596 C1595 1.400 . S
C1596 C1599 1.386 . S
H1597 C1613 0.930 . S
H1598 C1614 0.931 . S
C1599 H1587 0.929 . S
C1599 C1593 1.390 . S
C1599 C1596 1.386 . S
C1600 C1595 1.490 . S
C1600 C1602 1.395 . S
C1600 C1603 1.403 . S
H1601 C1607 0.930 . S
C1602 H1588 0.930 . S
C1602 C1600 1.395 . S
C1602 C1605 1.403 . S
C1603 C1600 1.403 . S
C1603 C1604 1.524 . S
C1603 C1607 1.400 . S
C1604 H1589 0.960 . S
C1604 H1590 0.960 . S
C1604 H1591 0.960 . S
C1604 C1603 1.524 . S
C1605 C1602 1.403 . S
C1605 C1606 1.392 . S
C1605 C1609 1.495 . S
C1606 C1605 1.392 . S
C1606 C1607 1.385 . S
C1606 C1608 1.478 . S
C1607 H1601 0.930 . S
C1607 C1603 1.400 . S
C1607 C1606 1.385 . S
C1608 C1606 1.478 . S
C1608 C1610 1.381 . S
C1608 C1614 1.383 . S
C1609 C1605 1.495 . S
C1609 H1615 0.959 . S
C1609 H1616 0.961 . S
C1609 H1617 0.960 . S
C1610 C1608 1.381 . S
C1610 C1611 1.394 . S
C1610 H1618 0.930 . S
C1611 C1610 1.394 . S
C1611 C1612 1.383 . S
C1611 H1619 0.929 . S
C1612 C1611 1.383 . S
C1612 C1613 1.377 . S
C1613 H1597 0.930 . S
C1613 C1612 1.377 . S
C1613 C1614 1.379 . S
C1614 H1598 0.931 . S
C1614 C1608 1.383 . S
C1614 C1613 1.379 . S
H1615 C1609 0.959 . S
H1616 C1609 0.961 . S
H1617 C1609 0.960 . S
H1618 C1610 0.930 . S
H1619 C1611 0.929 . S
H1620 C1628 0.929 . S
H1621 C1630 0.930 . S
H1622 C1632 0.930 . S
H1623 C1635 0.929 . S
H1624 C1638 0.930 . S
H1625 C1640 0.960 . S
H1626 C1640 0.960 . S
H1627 C1640 0.960 . S
C1628 H1620 0.929 . S
C1628 C1629 1.377 . S
C1628 C1630 1.384 . S
C1629 C1628 1.377 . S
C1629 C1635 1.390 . S
C1630 H1621 0.930 . S
C1630 C1628 1.384 . S
C1630 C1631 1.372 1_565 S
C1631 C1630 1.372 1_545 S
C1631 C1632 1.400 1_545 S
C1631 C1636 1.490 . S
C1632 H1622 0.930 . S
C1632 C1631 1.400 1_565 S
C1632 C1635 1.386 . S
H1633 C1649 0.930 1_455 S
H1634 C1650 0.931 . S
C1635 H1623 0.929 . S
C1635 C1629 1.390 . S
C1635 C1632 1.386 . S
C1636 C1631 1.490 . S
C1636 C1638 1.395 . S
C1636 C1639 1.403 . S
H1637 C1643 0.930 . S
C1638 H1624 0.930 . S
C1638 C1636 1.395 . S
C1638 C1641 1.403 . S
C1639 C1636 1.403 . S
C1639 C1640 1.524 . S
C1639 C1643 1.400 . S
C1640 H1625 0.960 . S
C1640 H1626 0.960 . S
C1640 H1627 0.960 . S
C1640 C1639 1.524 . S
C1641 C1638 1.403 . S
C1641 C1642 1.392 . S
C1641 C1645 1.495 . S
C1642 C1641 1.392 . S
C1642 C1643 1.385 . S
C1642 C1644 1.478 . S
C1643 H1637 0.930 . S
C1643 C1639 1.400 . S
C1643 C1642 1.385 . S
C1644 C1642 1.478 . S
C1644 C1646 1.381 . S
C1644 C1650 1.383 . S
C1645 C1641 1.495 . S
C1645 H1651 0.959 . S
C1645 H1652 0.961 . S
C1645 H1653 0.960 . S
C1646 C1644 1.381 . S
C1646 C1647 1.394 . S
C1646 H1654 0.930 . S
C1647 C1646 1.394 . S
C1647 C1648 1.383 . S
C1647 H1655 0.929 . S
C1648 C1647 1.383 . S
C1648 C1649 1.377 . S
C1649 H1633 0.930 1_655 S
C1649 C1648 1.377 . S
C1649 C1650 1.379 . S
C1650 H1634 0.931 . S
C1650 C1644 1.383 . S
C1650 C1649 1.379 . S
H1651 C1645 0.959 . S
H1652 C1645 0.961 . S
H1653 C1645 0.960 . S
H1654 C1646 0.930 . S
H1655 C1647 0.929 . S
H1656 C1664 0.929 . S
H1657 C1666 0.930 . S
H1658 C1668 0.930 . S
H1659 C1671 0.929 . S
H1660 C1674 0.930 . S
H1661 C1676 0.960 . S
H1662 C1676 0.960 . S
H1663 C1676 0.960 . S
C1664 H1656 0.929 . S
C1664 C1665 1.377 . S
C1664 C1666 1.384 . S
C1665 C1664 1.377 . S
C1665 C1671 1.390 . S
C1666 H1657 0.930 . S
C1666 C1664 1.384 . S
C1666 C1667 1.372 . S
C1667 C1666 1.372 . S
C1667 C1668 1.400 . S
C1667 C1672 1.490 . S
C1668 H1658 0.930 . S
C1668 C1667 1.400 . S
C1668 C1671 1.386 . S
H1669 C1685 0.930 . S
H1670 C1686 0.931 . S
C1671 H1659 0.929 . S
C1671 C1665 1.390 . S
C1671 C1668 1.386 . S
C1672 C1667 1.490 . S
C1672 C1674 1.395 . S
C1672 C1675 1.403 . S
H1673 C1679 0.930 . S
C1674 H1660 0.930 . S
C1674 C1672 1.395 . S
C1674 C1677 1.403 . S
C1675 C1672 1.403 . S
C1675 C1676 1.524 . S
C1675 C1679 1.400 . S
C1676 H1661 0.960 . S
C1676 H1662 0.960 . S
C1676 H1663 0.960 . S
C1676 C1675 1.524 . S
C1677 C1674 1.403 . S
C1677 C1678 1.392 . S
C1677 C1681 1.495 . S
C1678 C1677 1.392 . S
C1678 C1679 1.385 . S
C1678 C1680 1.490 . S
C1679 H1673 0.930 . S
C1679 C1675 1.400 . S
C1679 C1678 1.385 . S
C1680 C1678 1.490 . S
C1680 C1682 1.375 1_655 S
C1680 C1686 1.375 1_655 S
C1681 C1677 1.495 . S
C1681 H1687 0.959 . S
C1681 H1688 0.961 . S
C1681 H1689 0.960 . S
C1682 C1680 1.375 1_455 S
C1682 C1683 1.394 . S
C1682 H1690 0.930 . S
C1683 C1682 1.394 . S
C1683 C1684 1.383 . S
C1683 H1691 0.929 . S
C1684 C1683 1.383 . S
C1684 C1685 1.377 . S
C1685 H1669 0.930 . S
C1685 C1684 1.377 . S
C1685 C1686 1.379 . S
C1686 H1670 0.931 . S
C1686 C1680 1.375 1_455 S
C1686 C1685 1.379 . S
H1687 C1681 0.959 . S
H1688 C1681 0.961 . S
H1689 C1681 0.960 . S
H1690 C1682 0.930 . S
H1691 C1683 0.929 . S
H1692 C1700 0.929 1_655 S
H1693 C1702 0.930 . S
H1694 C1704 0.930 . S
H1695 C1707 0.929 . S
H1696 C1710 0.930 . S
H1697 C1712 0.960 . S
H1698 C1712 0.960 . S
H1699 C1712 0.960 . S
C1700 H1692 0.929 1_455 S
C1700 C1701 1.377 . S
C1700 C1702 1.384 . S
C1701 C1700 1.377 . S
C1701 C1707 1.390 . S
C1702 H1693 0.930 . S
C1702 C1700 1.384 . S
C1702 C1703 1.372 . S
C1703 C1702 1.372 . S
C1703 C1704 1.400 . S
C1703 C1708 1.490 . S
C1704 H1694 0.930 . S
C1704 C1703 1.400 . S
C1704 C1707 1.386 . S
H1705 C1721 0.930 . S
H1706 C1722 0.931 . S
C1707 H1695 0.929 . S
C1707 C1701 1.390 . S
C1707 C1704 1.386 . S
C1708 C1703 1.490 . S
C1708 C1710 1.395 . S
C1708 C1711 1.403 . S
H1709 C1715 0.930 . S
C1710 H1696 0.930 . S
C1710 C1708 1.395 . S
C1710 C1713 1.403 . S
C1711 C1708 1.403 . S
C1711 C1712 1.524 . S
C1711 C1715 1.400 . S
C1712 H1697 0.960 . S
C1712 H1698 0.960 . S
C1712 H1699 0.960 . S
C1712 C1711 1.524 . S
C1713 C1710 1.403 . S
C1713 C1714 1.392 . S
C1713 C1717 1.495 . S
C1714 C1713 1.392 . S
C1714 C1715 1.385 . S
C1714 C1716 1.478 . S
C1715 H1709 0.930 . S
C1715 C1711 1.400 . S
C1715 C1714 1.385 . S
C1716 C1714 1.478 . S
C1716 C1718 1.381 . S
C1716 C1722 1.383 . S
C1717 C1713 1.495 . S
C1717 H1723 0.959 . S
C1717 H1724 0.961 . S
C1717 H1725 0.960 . S
C1718 C1716 1.381 . S
C1718 C1719 1.394 . S
C1718 H1726 0.930 . S
C1719 C1718 1.394 . S
C1719 C1720 1.383 . S
C1719 H1727 0.929 . S
C1720 C1719 1.383 . S
C1720 C1721 1.377 . S
C1721 H1705 0.930 . S
C1721 C1720 1.377 . S
C1721 C1722 1.379 . S
C1722 H1706 0.931 . S
C1722 C1716 1.383 . S
C1722 C1721 1.379 . S
H1723 C1717 0.959 . S
H1724 C1717 0.961 . S
H1725 C1717 0.960 . S
H1726 C1718 0.930 . S
H1727 C1719 0.929 . S
H1728 C1736 0.929 . S
H1729 C1738 0.930 . S
H1730 C1740 0.930 . S
H1731 C1743 0.929 . S
H1732 C1746 0.930 . S
H1733 C1748 0.960 . S
H1734 C1748 0.960 . S
H1735 C1748 0.960 . S
C1736 H1728 0.929 . S
C1736 C1737 1.377 . S
C1736 C1738 1.384 . S
C1737 C1736 1.377 . S
C1737 C1743 1.390 . S
C1738 H1729 0.930 . S
C1738 C1736 1.384 . S
C1738 C1739 1.372 1_545 S
C1739 C1738 1.372 1_565 S
C1739 C1740 1.400 1_565 S
C1739 C1744 1.490 . S
C1740 H1730 0.930 . S
C1740 C1739 1.400 1_545 S
C1740 C1743 1.386 . S
H1741 C1757 0.930 . S
H1742 C1758 0.931 . S
C1743 H1731 0.929 . S
C1743 C1737 1.390 . S
C1743 C1740 1.386 . S
C1744 C1739 1.490 . S
C1744 C1746 1.395 . S
C1744 C1747 1.403 . S
H1745 C1751 0.930 . S
C1746 H1732 0.930 . S
C1746 C1744 1.395 . S
C1746 C1749 1.403 . S
C1747 C1744 1.403 . S
C1747 C1748 1.524 . S
C1747 C1751 1.400 . S
C1748 H1733 0.960 . S
C1748 H1734 0.960 . S
C1748 H1735 0.960 . S
C1748 C1747 1.524 . S
C1749 C1746 1.403 . S
C1749 C1750 1.392 . S
C1749 C1753 1.495 . S
C1750 C1749 1.392 . S
C1750 C1751 1.385 . S
C1750 C1752 1.478 . S
C1751 H1745 0.930 . S
C1751 C1747 1.400 . S
C1751 C1750 1.385 . S
C1752 C1750 1.478 . S
C1752 C1754 1.381 . S
C1752 C1758 1.383 . S
C1753 C1749 1.495 . S
C1753 H1759 0.959 . S
C1753 H1760 0.961 . S
C1753 H1761 0.960 . S
C1754 C1752 1.381 . S
C1754 C1755 1.394 . S
C1754 H1762 0.930 . S
C1755 C1754 1.394 . S
C1755 C1756 1.383 . S
C1755 H1763 0.929 . S
C1756 C1755 1.383 . S
C1756 C1757 1.377 . S
C1757 H1741 0.930 . S
C1757 C1756 1.377 . S
C1757 C1758 1.379 . S
C1758 H1742 0.931 . S
C1758 C1752 1.383 . S
C1758 C1757 1.379 . S
H1759 C1753 0.959 . S
H1760 C1753 0.961 . S
H1761 C1753 0.960 . S
H1762 C1754 0.930 . S
H1763 C1755 0.929 . S
H1764 C1772 0.929 . S
H1765 C1774 0.930 . S
H1766 C1776 0.930 . S
H1767 C1779 0.929 1_545 S
H1768 C1782 0.930 . S
H1769 C1784 0.960 . S
H1770 C1784 0.960 . S
H1771 C1784 0.960 . S
C1772 H1764 0.929 . S
C1772 C1773 1.377 . S
C1772 C1774 1.384 . S
C1773 C1772 1.377 . S
C1773 C1779 1.390 . S
C1774 H1765 0.930 . S
C1774 C1772 1.384 . S
C1774 C1775 1.372 . S
C1775 C1774 1.372 . S
C1775 C1776 1.400 . S
C1775 C1780 1.490 . S
C1776 H1766 0.930 . S
C1776 C1775 1.400 . S
C1776 C1779 1.386 . S
H1777 C1793 0.930 . S
H1778 C1794 0.931 . S
C1779 H1767 0.929 1_565 S
C1779 C1773 1.390 . S
C1779 C1776 1.386 . S
C1780 C1775 1.490 . S
C1780 C1782 1.395 . S
C1780 C1783 1.403 . S
H1781 C1787 0.930 . S
C1782 H1768 0.930 . S
C1782 C1780 1.395 . S
C1782 C1785 1.403 . S
C1783 C1780 1.403 . S
C1783 C1784 1.524 . S
C1783 C1787 1.400 . S
C1784 H1769 0.960 . S
C1784 H1770 0.960 . S
C1784 H1771 0.960 . S
C1784 C1783 1.524 . S
C1785 C1782 1.403 . S
C1785 C1786 1.392 . S
C1785 C1789 1.495 . S
C1786 C1785 1.392 . S
C1786 C1787 1.385 . S
C1786 C1788 1.478 . S
C1787 H1781 0.930 . S
C1787 C1783 1.400 . S
C1787 C1786 1.385 . S
C1788 C1786 1.478 . S
C1788 C1790 1.381 1_455 S
C1788 C1794 1.383 1_455 S
C1789 C1785 1.495 . S
C1789 H1795 0.959 . S
C1789 H1796 0.961 . S
C1789 H1797 0.960 . S
C1790 C1788 1.381 1_655 S
C1790 C1791 1.394 . S
C1790 H1798 0.930 . S
C1791 C1790 1.394 . S
C1791 C1792 1.383 . S
C1791 H1799 0.929 . S
C1792 C1791 1.383 . S
C1792 C1793 1.377 . S
C1793 H1777 0.930 . S
C1793 C1792 1.377 . S
C1793 C1794 1.379 . S
C1794 H1778 0.931 . S
C1794 C1788 1.383 1_655 S
C1794 C1793 1.379 . S
H1795 C1789 0.959 . S
H1796 C1789 0.961 . S
H1797 C1789 0.960 . S
H1798 C1790 0.930 . S
H1799 C1791 0.929 . S
H1800 C1808 0.929 . S
H1801 C1810 0.930 . S
H1802 C1812 0.930 . S
H1803 C1815 0.929 . S
H1804 C1818 0.930 . S
H1805 C1820 0.960 . S
H1806 C1820 0.960 . S
H1807 C1820 0.960 . S
C1808 H1800 0.929 . S
C1808 C1809 1.377 . S
C1808 C1810 1.384 . S
C1809 C1808 1.377 . S
C1809 C1815 1.390 . S
C1810 H1801 0.930 . S
C1810 C1808 1.384 . S
C1810 C1811 1.372 . S
C1811 C1810 1.372 . S
C1811 C1812 1.400 . S
C1811 C1816 1.490 . S
C1812 H1802 0.930 . S
C1812 C1811 1.400 . S
C1812 C1815 1.386 . S
H1813 C1829 0.930 . S
H1814 C1830 0.931 . S
C1815 H1803 0.929 . S
C1815 C1809 1.390 . S
C1815 C1812 1.386 . S
C1816 C1811 1.490 . S
C1816 C1818 1.395 . S
C1816 C1819 1.403 . S
H1817 C1823 0.930 . S
C1818 H1804 0.930 . S
C1818 C1816 1.395 . S
C1818 C1821 1.403 . S
C1819 C1816 1.403 . S
C1819 C1820 1.524 . S
C1819 C1823 1.400 . S
C1820 H1805 0.960 . S
C1820 H1806 0.960 . S
C1820 H1807 0.960 . S
C1820 C1819 1.524 . S
C1821 C1818 1.403 . S
C1821 C1822 1.392 . S
C1821 C1825 1.495 . S
C1822 C1821 1.392 . S
C1822 C1823 1.385 . S
C1822 C1824 1.478 . S
C1823 H1817 0.930 . S
C1823 C1819 1.400 . S
C1823 C1822 1.385 . S
C1824 C1822 1.478 . S
C1824 C1826 1.381 . S
C1824 C1830 1.383 . S
C1825 C1821 1.495 . S
C1825 H1831 0.959 . S
C1825 H1832 0.961 . S
C1825 H1833 0.960 . S
C1826 C1824 1.381 . S
C1826 C1827 1.394 . S
C1826 H1834 0.930 . S
C1827 C1826 1.394 . S
C1827 C1828 1.383 . S
C1827 H1835 0.929 . S
C1828 C1827 1.383 . S
C1828 C1829 1.377 . S
C1829 H1813 0.930 . S
C1829 C1828 1.377 . S
C1829 C1830 1.379 . S
C1830 H1814 0.931 . S
C1830 C1824 1.383 . S
C1830 C1829 1.379 . S
H1831 C1825 0.959 . S
H1832 C1825 0.961 . S
H1833 C1825 0.960 . S
H1834 C1826 0.930 . S
H1835 C1827 0.929 . S
H1836 C1844 0.929 . S
H1837 C1846 0.930 . S
H1838 C1848 0.930 . S
H1839 C1851 0.929 . S
H1840 C1854 0.930 . S
H1841 C1856 0.960 . S
H1842 C1856 0.960 . S
H1843 C1856 0.960 . S
C1844 H1836 0.929 . S
C1844 C1845 1.377 . S
C1844 C1846 1.384 . S
C1845 C1844 1.377 . S
C1845 C1851 1.390 . S
C1846 H1837 0.930 . S
C1846 C1844 1.384 . S
C1846 C1847 1.372 . S
C1847 C1846 1.372 . S
C1847 C1848 1.400 . S
C1847 C1852 1.490 . S
C1848 H1838 0.930 . S
C1848 C1847 1.400 . S
C1848 C1851 1.386 . S
H1849 C1865 0.930 . S
H1850 C1866 0.931 . S
C1851 H1839 0.929 . S
C1851 C1845 1.390 . S
C1851 C1848 1.386 . S
C1852 C1847 1.490 . S
C1852 C1854 1.395 . S
C1852 C1855 1.403 . S
H1853 C1859 0.930 . S
C1854 H1840 0.930 . S
C1854 C1852 1.395 . S
C1854 C1857 1.403 . S
C1855 C1852 1.403 . S
C1855 C1856 1.524 . S
C1855 C1859 1.400 . S
C1856 H1841 0.960 . S
C1856 H1842 0.960 . S
C1856 H1843 0.960 . S
C1856 C1855 1.524 . S
C1857 C1854 1.403 . S
C1857 C1858 1.392 . S
C1857 C1861 1.495 . S
C1858 C1857 1.392 . S
C1858 C1859 1.385 . S
C1858 C1860 1.478 . S
C1859 H1853 0.930 . S
C1859 C1855 1.400 . S
C1859 C1858 1.385 . S
C1860 C1858 1.478 . S
C1860 C1862 1.381 . S
C1860 C1866 1.383 . S
C1861 C1857 1.495 . S
C1861 H1867 0.959 . S
C1861 H1868 0.961 . S
C1861 H1869 0.960 . S
C1862 C1860 1.381 . S
C1862 C1863 1.394 . S
C1862 H1870 0.930 . S
C1863 C1862 1.394 . S
C1863 C1864 1.383 . S
C1863 H1871 0.929 . S
C1864 C1863 1.383 . S
C1864 C1865 1.377 . S
C1865 H1849 0.930 . S
C1865 C1864 1.377 . S
C1865 C1866 1.379 . S
C1866 H1850 0.931 . S
C1866 C1860 1.383 . S
C1866 C1865 1.379 . S
H1867 C1861 0.959 . S
H1868 C1861 0.961 . S
H1869 C1861 0.960 . S
H1870 C1862 0.930 . S
H1871 C1863 0.929 . S
H1872 C1880 0.929 . S
H1873 C1882 0.930 . S
H1874 C1884 0.930 . S
H1875 C1887 0.929 . S
H1876 C1890 0.930 . S
H1877 C1892 0.960 . S
H1878 C1892 0.960 . S
H1879 C1892 0.960 . S
C1880 H1872 0.929 . S
C1880 C1881 1.377 . S
C1880 C1882 1.384 . S
C1881 C1880 1.377 . S
C1881 C1887 1.390 . S
C1882 H1873 0.930 . S
C1882 C1880 1.384 . S
C1882 C1883 1.372 . S
C1883 C1882 1.372 . S
C1883 C1884 1.400 . S
C1883 C1888 1.490 . S
C1884 H1874 0.930 . S
C1884 C1883 1.400 . S
C1884 C1887 1.386 . S
H1885 C1901 0.930 . S
H1886 C1902 0.931 . S
C1887 H1875 0.929 . S
C1887 C1881 1.390 . S
C1887 C1884 1.386 . S
C1888 C1883 1.490 . S
C1888 C1890 1.395 . S
C1888 C1891 1.403 . S
H1889 C1895 0.930 . S
C1890 H1876 0.930 . S
C1890 C1888 1.395 . S
C1890 C1893 1.403 . S
C1891 C1888 1.403 . S
C1891 C1892 1.524 . S
C1891 C1895 1.400 . S
C1892 H1877 0.960 . S
C1892 H1878 0.960 . S
C1892 H1879 0.960 . S
C1892 C1891 1.524 . S
C1893 C1890 1.403 . S
C1893 C1894 1.392 . S
C1893 C1897 1.495 . S
C1894 C1893 1.392 . S
C1894 C1895 1.385 . S
C1894 C1896 1.478 . S
C1895 H1889 0.930 . S
C1895 C1891 1.400 . S
C1895 C1894 1.385 . S
C1896 C1894 1.478 . S
C1896 C1898 1.381 . S
C1896 C1902 1.383 . S
C1897 C1893 1.495 . S
C1897 H1903 0.959 . S
C1897 H1904 0.961 . S
C1897 H1905 0.960 . S
C1898 C1896 1.381 . S
C1898 C1899 1.394 . S
C1898 H1906 0.930 . S
C1899 C1898 1.394 . S
C1899 C1900 1.383 . S
C1899 H1907 0.929 . S
C1900 C1899 1.383 . S
C1900 C1901 1.377 . S
C1901 H1885 0.930 . S
C1901 C1900 1.377 . S
C1901 C1902 1.379 . S
C1902 H1886 0.931 . S
C1902 C1896 1.383 . S
C1902 C1901 1.379 . S
H1903 C1897 0.959 . S
H1904 C1897 0.961 . S
H1905 C1897 0.960 . S
H1906 C1898 0.930 . S
H1907 C1899 0.929 . S
H1908 C1916 0.929 . S
H1909 C1918 0.930 . S
H1910 C1920 0.930 . S
H1911 C1923 0.929 . S
H1912 C1926 0.930 . S
H1913 C1928 0.960 . S
H1914 C1928 0.960 . S
H1915 C1928 0.960 . S
C1916 H1908 0.929 . S
C1916 C1917 1.377 . S
C1916 C1918 1.384 . S
C1917 C1916 1.377 . S
C1917 C1923 1.390 . S
C1918 H1909 0.930 . S
C1918 C1916 1.384 . S
C1918 C1919 1.372 . S
C1919 C1918 1.372 . S
C1919 C1920 1.400 . S
C1919 C1924 1.490 . S
C1920 H1910 0.930 . S
C1920 C1919 1.400 . S
C1920 C1923 1.386 . S
H1921 C1937 0.930 . S
H1922 C1938 0.931 . S
C1923 H1911 0.929 . S
C1923 C1917 1.390 . S
C1923 C1920 1.386 . S
C1924 C1919 1.490 . S
C1924 C1926 1.395 . S
C1924 C1927 1.403 . S
H1925 C1931 0.930 . S
C1926 H1912 0.930 . S
C1926 C1924 1.395 . S
C1926 C1929 1.403 . S
C1927 C1924 1.403 . S
C1927 C1928 1.524 . S
C1927 C1931 1.400 . S
C1928 H1913 0.960 . S
C1928 H1914 0.960 . S
C1928 H1915 0.960 . S
C1928 C1927 1.524 . S
C1929 C1926 1.403 . S
C1929 C1930 1.392 . S
C1929 C1933 1.495 . S
C1930 C1929 1.392 . S
C1930 C1931 1.385 . S
C1930 C1932 1.478 . S
C1931 H1925 0.930 . S
C1931 C1927 1.400 . S
C1931 C1930 1.385 . S
C1932 C1930 1.478 . S
C1932 C1934 1.381 . S
C1932 C1938 1.383 . S
C1933 C1929 1.495 . S
C1933 H1939 0.959 . S
C1933 H1940 0.961 . S
C1933 H1941 0.960 . S
C1934 C1932 1.381 . S
C1934 C1935 1.394 . S
C1934 H1942 0.930 . S
C1935 C1934 1.394 . S
C1935 C1936 1.383 . S
C1935 H1943 0.929 . S
C1936 C1935 1.383 . S
C1936 C1937 1.377 . S
C1937 H1921 0.930 . S
C1937 C1936 1.377 . S
C1937 C1938 1.379 . S
C1938 H1922 0.931 . S
C1938 C1932 1.383 . S
C1938 C1937 1.379 . S
H1939 C1933 0.959 . S
H1940 C1933 0.961 . S
H1941 C1933 0.960 . S
H1942 C1934 0.930 . S
H1943 C1935 0.929 . S
H1944 C1952 0.929 . S
H1945 C1954 0.930 . S
H1946 C1956 0.930 . S
H1947 C1959 0.929 . S
H1948 C1962 0.930 . S
H1949 C1964 0.960 . S
H1950 C1964 0.960 . S
H1951 C1964 0.960 . S
C1952 H1944 0.929 . S
C1952 C1953 1.377 . S
C1952 C1954 1.384 . S
C1953 C1952 1.377 . S
C1953 C1959 1.390 . S
C1954 H1945 0.930 . S
C1954 C1952 1.384 . S
C1954 C1955 1.372 . S
C1955 C1954 1.372 . S
C1955 C1956 1.400 . S
C1955 C1960 1.490 . S
C1956 H1946 0.930 . S
C1956 C1955 1.400 . S
C1956 C1959 1.386 . S
H1957 C1973 0.930 . S
H1958 C1974 0.931 . S
C1959 H1947 0.929 . S
C1959 C1953 1.390 . S
C1959 C1956 1.386 . S
C1960 C1955 1.490 . S
C1960 C1962 1.395 . S
C1960 C1963 1.403 . S
H1961 C1967 0.930 . S
C1962 H1948 0.930 . S
C1962 C1960 1.395 . S
C1962 C1965 1.403 . S
C1963 C1960 1.403 . S
C1963 C1964 1.524 . S
C1963 C1967 1.400 . S
C1964 H1949 0.960 . S
C1964 H1950 0.960 . S
C1964 H1951 0.960 . S
C1964 C1963 1.524 . S
C1965 C1962 1.403 . S
C1965 C1966 1.392 . S
C1965 C1969 1.495 . S
C1966 C1965 1.392 . S
C1966 C1967 1.385 . S
C1966 C1968 1.478 . S
C1967 H1961 0.930 . S
C1967 C1963 1.400 . S
C1967 C1966 1.385 . S
C1968 C1966 1.478 . S
C1968 C1970 1.381 . S
C1968 C1974 1.383 . S
C1969 C1965 1.495 . S
C1969 H1975 0.959 . S
C1969 H1976 0.961 . S
C1969 H1977 0.960 . S
C1970 C1968 1.381 . S
C1970 C1971 1.394 . S
C1970 H1978 0.930 . S
C1971 C1970 1.394 . S
C1971 C1972 1.383 . S
C1971 H1979 0.929 . S
C1972 C1971 1.383 . S
C1972 C1973 1.377 . S
C1973 H1957 0.930 . S
C1973 C1972 1.377 . S
C1973 C1974 1.379 . S
C1974 H1958 0.931 . S
C1974 C1968 1.383 . S
C1974 C1973 1.379 . S
H1975 C1969 0.959 . S
H1976 C1969 0.961 . S
H1977 C1969 0.960 . S
H1978 C1970 0.930 . S
H1979 C1971 0.929 . S
H1980 C1988 0.929 . S
H1981 C1990 0.930 . S
H1982 C1992 0.930 . S
H1983 C1995 0.929 . S
H1984 C1998 0.930 . S
H1985 C2000 0.960 . S
H1986 C2000 0.960 . S
H1987 C2000 0.960 . S
C1988 H1980 0.929 . S
C1988 C1989 1.377 . S
C1988 C1990 1.384 . S
C1989 C1988 1.377 . S
C1989 C1995 1.390 . S
C1990 H1981 0.930 . S
C1990 C1988 1.384 . S
C1990 C1991 1.372 . S
C1991 C1990 1.372 . S
C1991 C1992 1.400 . S
C1991 C1996 1.490 . S
C1992 H1982 0.930 . S
C1992 C1991 1.400 . S
C1992 C1995 1.386 . S
H1993 C2009 0.930 . S
H1994 C2010 0.931 . S
C1995 H1983 0.929 . S
C1995 C1989 1.390 . S
C1995 C1992 1.386 . S
C1996 C1991 1.490 . S
C1996 C1998 1.395 . S
C1996 C1999 1.403 . S
H1997 C2003 0.930 . S
C1998 H1984 0.930 . S
C1998 C1996 1.395 . S
C1998 C2001 1.403 . S
C1999 C1996 1.403 . S
C1999 C2000 1.524 . S
C1999 C2003 1.400 . S
C2000 H1985 0.960 . S
C2000 H1986 0.960 . S
C2000 H1987 0.960 . S
C2000 C1999 1.524 . S
C2001 C1998 1.403 . S
C2001 C2002 1.392 . S
C2001 C2005 1.495 . S
C2002 C2001 1.392 . S
C2002 C2003 1.385 . S
C2002 C2004 1.478 . S
C2003 H1997 0.930 . S
C2003 C1999 1.400 . S
C2003 C2002 1.385 . S
C2004 C2002 1.478 . S
C2004 C2006 1.381 . S
C2004 C2010 1.383 . S
C2005 C2001 1.495 . S
C2005 H2011 0.959 . S
C2005 H2012 0.961 . S
C2005 H2013 0.960 . S
C2006 C2004 1.381 . S
C2006 C2007 1.394 . S
C2006 H2014 0.930 . S
C2007 C2006 1.394 . S
C2007 C2008 1.383 . S
C2007 H2015 0.929 . S
C2008 C2007 1.383 . S
C2008 C2009 1.377 . S
C2009 H1993 0.930 . S
C2009 C2008 1.377 . S
C2009 C2010 1.379 . S
C2010 H1994 0.931 . S
C2010 C2004 1.383 . S
C2010 C2009 1.379 . S
H2011 C2005 0.959 . S
H2012 C2005 0.961 . S
H2013 C2005 0.960 . S
H2014 C2006 0.930 . S
H2015 C2007 0.929 . S
H2016 C2024 0.929 . S
H2017 C2026 0.930 . S
H2018 C2028 0.930 . S
H2019 C2031 0.929 . S
H2020 C2034 0.930 . S
H2021 C2036 0.960 . S
H2022 C2036 0.960 . S
H2023 C2036 0.960 . S
C2024 H2016 0.929 . S
C2024 C2025 1.377 . S
C2024 C2026 1.384 . S
C2025 C2024 1.377 . S
C2025 C2031 1.390 . S
C2026 H2017 0.930 . S
C2026 C2024 1.384 . S
C2026 C2027 1.372 . S
C2027 C2026 1.372 . S
C2027 C2028 1.400 . S
C2027 C2032 1.490 . S
C2028 H2018 0.930 . S
C2028 C2027 1.400 . S
C2028 C2031 1.386 . S
H2029 C2045 0.930 . S
H2030 C2046 0.931 . S
C2031 H2019 0.929 . S
C2031 C2025 1.390 . S
C2031 C2028 1.386 . S
C2032 C2027 1.490 . S
C2032 C2034 1.395 . S
C2032 C2035 1.403 . S
H2033 C2039 0.930 . S
C2034 H2020 0.930 . S
C2034 C2032 1.395 . S
C2034 C2037 1.403 . S
C2035 C2032 1.403 . S
C2035 C2036 1.524 . S
C2035 C2039 1.400 . S
C2036 H2021 0.960 . S
C2036 H2022 0.960 . S
C2036 H2023 0.960 . S
C2036 C2035 1.524 . S
C2037 C2034 1.403 . S
C2037 C2038 1.392 . S
C2037 C2041 1.495 . S
C2038 C2037 1.392 . S
C2038 C2039 1.385 . S
C2038 C2040 1.478 . S
C2039 H2033 0.930 . S
C2039 C2035 1.400 . S
C2039 C2038 1.385 . S
C2040 C2038 1.478 . S
C2040 C2042 1.381 . S
C2040 C2046 1.383 . S
C2041 C2037 1.495 . S
C2041 H2047 0.959 . S
C2041 H2048 0.961 . S
C2041 H2049 0.960 . S
C2042 C2040 1.381 . S
C2042 C2043 1.394 . S
C2042 H2050 0.930 . S
C2043 C2042 1.394 . S
C2043 C2044 1.383 . S
C2043 H2051 0.929 . S
C2044 C2043 1.383 . S
C2044 C2045 1.377 . S
C2045 H2029 0.930 . S
C2045 C2044 1.377 . S
C2045 C2046 1.379 . S
C2046 H2030 0.931 . S
C2046 C2040 1.383 . S
C2046 C2045 1.379 . S
H2047 C2041 0.959 . S
H2048 C2041 0.961 . S
H2049 C2041 0.960 . S
H2050 C2042 0.930 . S
H2051 C2043 0.929 . S
H2052 C2060 0.929 . S
H2053 C2062 0.930 . S
H2054 C2064 0.930 . S
H2055 C2067 0.929 . S
H2056 C2070 0.930 . S
H2057 C2072 0.960 . S
H2058 C2072 0.960 . S
H2059 C2072 0.960 . S
C2060 H2052 0.929 . S
C2060 C2061 1.377 . S
C2060 C2062 1.384 . S
C2061 C2060 1.377 . S
C2061 C2067 1.390 . S
C2062 H2053 0.930 . S
C2062 C2060 1.384 . S
C2062 C2063 1.372 . S
C2063 C2062 1.372 . S
C2063 C2064 1.400 . S
C2063 C2068 1.490 . S
C2064 H2054 0.930 . S
C2064 C2063 1.400 . S
C2064 C2067 1.386 . S
H2065 C2081 0.930 . S
H2066 C2082 0.931 . S
C2067 H2055 0.929 . S
C2067 C2061 1.390 . S
C2067 C2064 1.386 . S
C2068 C2063 1.490 . S
C2068 C2070 1.395 . S
C2068 C2071 1.403 . S
H2069 C2075 0.930 . S
C2070 H2056 0.930 . S
C2070 C2068 1.395 . S
C2070 C2073 1.403 . S
C2071 C2068 1.403 . S
C2071 C2072 1.524 . S
C2071 C2075 1.400 . S
C2072 H2057 0.960 . S
C2072 H2058 0.960 . S
C2072 H2059 0.960 . S
C2072 C2071 1.524 . S
C2073 C2070 1.403 . S
C2073 C2074 1.392 . S
C2073 C2077 1.495 . S
C2074 C2073 1.392 . S
C2074 C2075 1.385 . S
C2074 C2076 1.478 . S
C2075 H2069 0.930 . S
C2075 C2071 1.400 . S
C2075 C2074 1.385 . S
C2076 C2074 1.478 . S
C2076 C2078 1.381 . S
C2076 C2082 1.383 . S
C2077 C2073 1.495 . S
C2077 H2083 0.959 . S
C2077 H2084 0.961 . S
C2077 H2085 0.960 . S
C2078 C2076 1.381 . S
C2078 C2079 1.394 . S
C2078 H2086 0.930 . S
C2079 C2078 1.394 . S
C2079 C2080 1.383 . S
C2079 H2087 0.929 . S
C2080 C2079 1.383 . S
C2080 C2081 1.377 . S
C2081 H2065 0.930 . S
C2081 C2080 1.377 . S
C2081 C2082 1.379 . S
C2082 H2066 0.931 . S
C2082 C2076 1.383 . S
C2082 C2081 1.379 . S
H2083 C2077 0.959 . S
H2084 C2077 0.961 . S
H2085 C2077 0.960 . S
H2086 C2078 0.930 . S
H2087 C2079 0.929 . S
H2088 C2096 0.929 . S
H2089 C2098 0.930 . S
H2090 C2100 0.930 . S
H2091 C2103 0.929 . S
H2092 C2106 0.930 . S
H2093 C2108 0.960 . S
H2094 C2108 0.960 . S
H2095 C2108 0.960 . S
C2096 H2088 0.929 . S
C2096 C2097 1.377 . S
C2096 C2098 1.384 . S
C2097 C2096 1.377 . S
C2097 C2103 1.390 . S
C2098 H2089 0.930 . S
C2098 C2096 1.384 . S
C2098 C2099 1.372 . S
C2099 C2098 1.372 . S
C2099 C2100 1.400 . S
C2099 C2104 1.490 . S
C2100 H2090 0.930 . S
C2100 C2099 1.400 . S
C2100 C2103 1.386 . S
H2101 C2117 0.930 . S
H2102 C2118 0.931 . S
C2103 H2091 0.929 . S
C2103 C2097 1.390 . S
C2103 C2100 1.386 . S
C2104 C2099 1.490 . S
C2104 C2106 1.395 . S
C2104 C2107 1.403 . S
H2105 C2111 0.930 . S
C2106 H2092 0.930 . S
C2106 C2104 1.395 . S
C2106 C2109 1.403 . S
C2107 C2104 1.403 . S
C2107 C2108 1.524 . S
C2107 C2111 1.400 . S
C2108 H2093 0.960 . S
C2108 H2094 0.960 . S
C2108 H2095 0.960 . S
C2108 C2107 1.524 . S
C2109 C2106 1.403 . S
C2109 C2110 1.392 . S
C2109 C2113 1.495 . S
C2110 C2109 1.392 . S
C2110 C2111 1.385 . S
C2110 C2112 1.478 . S
C2111 H2105 0.930 . S
C2111 C2107 1.400 . S
C2111 C2110 1.385 . S
C2112 C2110 1.478 . S
C2112 C2114 1.381 . S
C2112 C2118 1.383 . S
C2113 C2109 1.495 . S
C2113 H2119 0.959 . S
C2113 H2120 0.961 . S
C2113 H2121 0.960 . S
C2114 C2112 1.381 . S
C2114 C2115 1.394 . S
C2114 H2122 0.930 . S
C2115 C2114 1.394 . S
C2115 C2116 1.383 . S
C2115 H2123 0.929 . S
C2116 C2115 1.383 . S
C2116 C2117 1.377 . S
C2117 H2101 0.930 . S
C2117 C2116 1.377 . S
C2117 C2118 1.379 . S
C2118 H2102 0.931 . S
C2118 C2112 1.383 . S
C2118 C2117 1.379 . S
H2119 C2113 0.959 . S
H2120 C2113 0.961 . S
H2121 C2113 0.960 . S
H2122 C2114 0.930 . S
H2123 C2115 0.929 . S
H2124 C2132 0.929 . S
H2125 C2134 0.930 . S
H2126 C2136 0.930 . S
H2127 C2139 0.929 . S
H2128 C2142 0.930 . S
H2129 C2144 0.960 . S
H2130 C2144 0.960 . S
H2131 C2144 0.960 . S
C2132 H2124 0.929 . S
C2132 C2133 1.377 . S
C2132 C2134 1.384 . S
C2133 C2132 1.377 . S
C2133 C2139 1.390 . S
C2134 H2125 0.930 . S
C2134 C2132 1.384 . S
C2134 C2135 1.372 . S
C2135 C2134 1.372 . S
C2135 C2136 1.400 . S
C2135 C2140 1.490 . S
C2136 H2126 0.930 . S
C2136 C2135 1.400 . S
C2136 C2139 1.386 . S
H2137 C2153 0.930 . S
H2138 C2154 0.931 . S
C2139 H2127 0.929 . S
C2139 C2133 1.390 . S
C2139 C2136 1.386 . S
C2140 C2135 1.490 . S
C2140 C2142 1.395 . S
C2140 C2143 1.403 . S
H2141 C2147 0.930 . S
C2142 H2128 0.930 . S
C2142 C2140 1.395 . S
C2142 C2145 1.403 . S
C2143 C2140 1.403 . S
C2143 C2144 1.524 . S
C2143 C2147 1.400 . S
C2144 H2129 0.960 . S
C2144 H2130 0.960 . S
C2144 H2131 0.960 . S
C2144 C2143 1.524 . S
C2145 C2142 1.403 . S
C2145 C2146 1.392 . S
C2145 C2149 1.495 . S
C2146 C2145 1.392 . S
C2146 C2147 1.385 . S
C2146 C2148 1.478 . S
C2147 H2141 0.930 . S
C2147 C2143 1.400 . S
C2147 C2146 1.385 . S
C2148 C2146 1.478 . S
C2148 C2150 1.381 . S
C2148 C2154 1.383 . S
C2149 C2145 1.495 . S
C2149 H2155 0.959 . S
C2149 H2156 0.961 . S
C2149 H2157 0.960 . S
C2150 C2148 1.381 . S
C2150 C2151 1.394 . S
C2150 H2158 0.930 . S
C2151 C2150 1.394 . S
C2151 C2152 1.383 . S
C2151 H2159 0.929 . S
C2152 C2151 1.383 . S
C2152 C2153 1.377 . S
C2153 H2137 0.930 . S
C2153 C2152 1.377 . S
C2153 C2154 1.379 . S
C2154 H2138 0.931 . S
C2154 C2148 1.383 . S
C2154 C2153 1.379 . S
H2155 C2149 0.959 . S
H2156 C2149 0.961 . S
H2157 C2149 0.960 . S
H2158 C2150 0.930 . S
H2159 C2151 0.929 . S
H2160 C2168 0.929 . S
H2161 C2170 0.930 . S
H2162 C2172 0.930 . S
H2163 C2175 0.929 . S
H2164 C2178 0.930 . S
H2165 C2180 0.960 . S
H2166 C2180 0.960 . S
H2167 C2180 0.960 . S
C2168 H2160 0.929 . S
C2168 C2169 1.377 . S
C2168 C2170 1.384 . S
C2169 C2168 1.377 . S
C2169 C2175 1.390 . S
C2170 H2161 0.930 . S
C2170 C2168 1.384 . S
C2170 C2171 1.372 . S
C2171 C2170 1.372 . S
C2171 C2172 1.400 . S
C2171 C2176 1.490 . S
C2172 H2162 0.930 . S
C2172 C2171 1.400 . S
C2172 C2175 1.386 . S
H2173 C2189 0.930 . S
H2174 C2190 0.931 . S
C2175 H2163 0.929 . S
C2175 C2169 1.390 . S
C2175 C2172 1.386 . S
C2176 C2171 1.490 . S
C2176 C2178 1.395 . S
C2176 C2179 1.403 . S
H2177 C2183 0.930 . S
C2178 H2164 0.930 . S
C2178 C2176 1.395 . S
C2178 C2181 1.403 . S
C2179 C2176 1.403 . S
C2179 C2180 1.524 . S
C2179 C2183 1.400 . S
C2180 H2165 0.960 . S
C2180 H2166 0.960 . S
C2180 H2167 0.960 . S
C2180 C2179 1.524 . S
C2181 C2178 1.403 . S
C2181 C2182 1.392 . S
C2181 C2185 1.495 . S
C2182 C2181 1.392 . S
C2182 C2183 1.385 . S
C2182 C2184 1.478 . S
C2183 H2177 0.930 . S
C2183 C2179 1.400 . S
C2183 C2182 1.385 . S
C2184 C2182 1.478 . S
C2184 C2186 1.381 . S
C2184 C2190 1.383 . S
C2185 C2181 1.495 . S
C2185 H2191 0.959 . S
C2185 H2192 0.961 . S
C2185 H2193 0.960 . S
C2186 C2184 1.381 . S
C2186 C2187 1.394 . S
C2186 H2194 0.930 . S
C2187 C2186 1.394 . S
C2187 C2188 1.383 . S
C2187 H2195 0.929 . S
C2188 C2187 1.383 . S
C2188 C2189 1.377 . S
C2189 H2173 0.930 . S
C2189 C2188 1.377 . S
C2189 C2190 1.379 . S
C2190 H2174 0.931 . S
C2190 C2184 1.383 . S
C2190 C2189 1.379 . S
H2191 C2185 0.959 . S
H2192 C2185 0.961 . S
H2193 C2185 0.960 . S
H2194 C2186 0.930 . S
H2195 C2187 0.929 . S
H2196 C2204 0.929 . S
H2197 C2206 0.930 . S
H2198 C2208 0.930 . S
H2199 C2211 0.929 . S
H2200 C2214 0.930 . S
H2201 C2216 0.960 . S
H2202 C2216 0.960 . S
H2203 C2216 0.960 . S
C2204 H2196 0.929 . S
C2204 C2205 1.377 . S
C2204 C2206 1.384 . S
C2205 C2204 1.377 . S
C2205 C2211 1.390 . S
C2206 H2197 0.930 . S
C2206 C2204 1.384 . S
C2206 C2207 1.372 . S
C2207 C2206 1.372 . S
C2207 C2208 1.400 . S
C2207 C2212 1.490 . S
C2208 H2198 0.930 . S
C2208 C2207 1.400 . S
C2208 C2211 1.386 . S
H2209 C2225 0.930 . S
H2210 C2226 0.931 . S
C2211 H2199 0.929 . S
C2211 C2205 1.390 . S
C2211 C2208 1.386 . S
C2212 C2207 1.490 . S
C2212 C2214 1.395 . S
C2212 C2215 1.403 . S
H2213 C2219 0.930 . S
C2214 H2200 0.930 . S
C2214 C2212 1.395 . S
C2214 C2217 1.403 . S
C2215 C2212 1.403 . S
C2215 C2216 1.524 . S
C2215 C2219 1.400 . S
C2216 H2201 0.960 . S
C2216 H2202 0.960 . S
C2216 H2203 0.960 . S
C2216 C2215 1.524 . S
C2217 C2214 1.403 . S
C2217 C2218 1.392 . S
C2217 C2221 1.495 . S
C2218 C2217 1.392 . S
C2218 C2219 1.385 . S
C2218 C2220 1.478 . S
C2219 H2213 0.930 . S
C2219 C2215 1.400 . S
C2219 C2218 1.385 . S
C2220 C2218 1.478 . S
C2220 C2222 1.381 . S
C2220 C2226 1.383 . S
C2221 C2217 1.495 . S
C2221 H2227 0.959 . S
C2221 H2228 0.961 . S
C2221 H2229 0.960 . S
C2222 C2220 1.381 . S
C2222 C2223 1.394 . S
C2222 H2230 0.930 . S
C2223 C2222 1.394 . S
C2223 C2224 1.383 . S
C2223 H2231 0.929 . S
C2224 C2223 1.383 . S
C2224 C2225 1.377 . S
C2225 H2209 0.930 . S
C2225 C2224 1.377 . S
C2225 C2226 1.379 . S
C2226 H2210 0.931 . S
C2226 C2220 1.383 . S
C2226 C2225 1.379 . S
H2227 C2221 0.959 . S
H2228 C2221 0.961 . S
H2229 C2221 0.960 . S
H2230 C2222 0.930 . S
H2231 C2223 0.929 . S
C621 C349 1.291 . S
C640 C9 1.306 . S
C657 C43 1.297 . S
C676 C383 1.314 1_565 S
C693 C315 1.293 1_455 S
C712 C77 1.311 . S
C729 C485 1.290 . S
C748 C111 1.267 . S
C765 C145 1.297 . S
C784 C417 1.314 1_545 S
C801 C451 1.294 1_655 S
C820 C179 1.290 . S
C837 C172 2.063 . S
C856 C478 2.057 . S
C873 C410 2.064 . S
C892 C104 2.056 . S
C909 C444 2.063 . S
C928 C138 2.060 . S
C945 C36 2.063 . S
C964 C342 2.053 . S
C981 C70 2.062 . S
C1000 C376 2.064 . S
C1017 C2 2.063 . S
C1036 C308 2.060 . S
C1053 C553 1.287 . S
C1072 C213 1.259 . S
C1089 C587 1.289 . S
C1108 C247 1.265 . S
C1125 C519 1.287 . S
C1144 C281 1.285 . S
C1161 C240 2.061 . S
C1180 C546 2.060 . S
C1197 C580 2.063 . S
C1216 C274 2.062 . S
C1233 C206 2.062 . S
C1252 C512 2.057 . S
C1269 C33 1.323 . S
C1288 C611 1.331 . S
C1305 C67 1.322 . S
C1324 C543 1.323 . S
C1341 C101 1.322 . S
C1360 C577 1.325 . S
C1377 C271 1.326 . S
C1396 C135 1.317 . S
C1413 C169 1.325 . S
C1432 C305 1.311 . S
C1449 C203 1.323 . S
C1468 C237 1.316 . S
C1485 C339 1.325 . S
C1504 C475 1.312 . S
C1521 C373 1.323 . S
C1540 C509 1.316 . S
C1557 C407 1.324 . S
C1576 C441 1.312 . S
C1593 C73 1.445 1_545 S
C1612 C20 1.531 . S
C1629 C54 1.533 . S
C1648 C5 1.442 1_655 S
C1665 C39 1.444 . S
C1684 C88 1.526 . S
C1701 C141 1.438 1_455 S
C1720 C122 1.522 . S
C1737 C156 1.532 . S
C1756 C175 1.446 . S
C1773 C107 1.448 1_565 S
C1792 C190 1.534 . S
C1809 C224 1.533 . S
C1828 C277 1.475 . S
C1845 C209 1.439 . S
C1864 C258 1.525 . S
C1881 C292 1.533 . S
C1900 C243 1.446 . S
C1917 C326 1.532 . S
C1936 C345 1.448 . S
C1953 C379 1.440 . S
C1972 C360 1.526 . S
C1989 C394 1.532 . S
C2008 C311 1.428 . S
C2025 C428 1.531 . S
C2044 C481 1.433 . S
C2061 C413 1.449 . S
C2080 C462 1.531 . S
C2097 C496 1.531 . S
C2116 C447 1.412 . S
C2133 C530 1.533 . S
C2152 C549 1.445 . S
C2169 C583 1.443 . S
C2188 C564 1.524 . S
C2205 C515 1.449 . S
C2224 C598 1.535 . S
