# Generated by pormake.
# Topology lcy-e, (6)-cn, num edge types: 1
# Building blocks:
#     Node 0, Type 0, BuildingBlock: KUMBOL_clean_sbu_0, # of connection points: 6
#     Node 1, Type 0, BuildingBlock: KUMBOL_clean_sbu_0, # of connection points: 6
#     Node 2, Type 0, BuildingBlock: KUMBOL_clean_sbu_0, # of connection points: 6
#     Node 3, Type 0, BuildingBlock: KUMBOL_clean_sbu_0, # of connection points: 6
#     Node 4, Type 0, BuildingBlock: KUMBOL_clean_sbu_0, # of connection points: 6
#     Node 5, Type 0, BuildingBlock: KUMBOL_clean_sbu_0, # of connection points: 6
#     Node 6, Type 0, BuildingBlock: KUMBOL_clean_sbu_0, # of connection points: 6
#     Node 7, Type 0, BuildingBlock: KUMBOL_clean_sbu_0, # of connection points: 6
#     Node 8, Type 0, BuildingBlock: KUMBOL_clean_sbu_0, # of connection points: 6
#     Node 9, Type 0, BuildingBlock: KUMBOL_clean_sbu_0, # of connection points: 6
#     Node 10, Type 0, BuildingBlock: KUMBOL_clean_sbu_0, # of connection points: 6
#     Node 11, Type 0, BuildingBlock: KUMBOL_clean_sbu_0, # of connection points: 6
#     Edge 12, Type (0, 0), BuildingBlock: XUDNAN_clean_linker_2, # of connection points: 2
#     Edge 13, Type (0, 0), BuildingBlock: XUDNAN_clean_linker_2, # of connection points: 2
#     Edge 14, Type (0, 0), BuildingBlock: XUDNAN_clean_linker_2, # of connection points: 2
#     Edge 15, Type (0, 0), BuildingBlock: XUDNAN_clean_linker_2, # of connection points: 2
#     Edge 16, Type (0, 0), BuildingBlock: XUDNAN_clean_linker_2, # of connection points: 2
#     Edge 17, Type (0, 0), BuildingBlock: XUDNAN_clean_linker_2, # of connection points: 2
#     Edge 18, Type (0, 0), BuildingBlock: XUDNAN_clean_linker_2, # of connection points: 2
#     Edge 19, Type (0, 0), BuildingBlock: XUDNAN_clean_linker_2, # of connection points: 2
#     Edge 20, Type (0, 0), BuildingBlock: XUDNAN_clean_linker_2, # of connection points: 2
#     Edge 21, Type (0, 0), BuildingBlock: XUDNAN_clean_linker_2, # of connection points: 2
#     Edge 22, Type (0, 0), BuildingBlock: XUDNAN_clean_linker_2, # of connection points: 2
#     Edge 23, Type (0, 0), BuildingBlock: XUDNAN_clean_linker_2, # of connection points: 2
#     Edge 24, Type (0, 0), BuildingBlock: XUDNAN_clean_linker_2, # of connection points: 2
#     Edge 25, Type (0, 0), BuildingBlock: XUDNAN_clean_linker_2, # of connection points: 2
#     Edge 26, Type (0, 0), BuildingBlock: XUDNAN_clean_linker_2, # of connection points: 2
#     Edge 27, Type (0, 0), BuildingBlock: XUDNAN_clean_linker_2, # of connection points: 2
#     Edge 28, Type (0, 0), BuildingBlock: XUDNAN_clean_linker_2, # of connection points: 2
#     Edge 29, Type (0, 0), BuildingBlock: XUDNAN_clean_linker_2, # of connection points: 2
#     Edge 30, Type (0, 0), BuildingBlock: XUDNAN_clean_linker_2, # of connection points: 2
#     Edge 31, Type (0, 0), BuildingBlock: XUDNAN_clean_linker_2, # of connection points: 2
#     Edge 32, Type (0, 0), BuildingBlock: XUDNAN_clean_linker_2, # of connection points: 2
#     Edge 33, Type (0, 0), BuildingBlock: XUDNAN_clean_linker_2, # of connection points: 2
#     Edge 34, Type (0, 0), BuildingBlock: XUDNAN_clean_linker_2, # of connection points: 2
#     Edge 35, Type (0, 0), BuildingBlock: XUDNAN_clean_linker_2, # of connection points: 2
#     Edge 36, Type (0, 0), BuildingBlock: XUDNAN_clean_linker_2, # of connection points: 2
#     Edge 37, Type (0, 0), BuildingBlock: XUDNAN_clean_linker_2, # of connection points: 2
#     Edge 38, Type (0, 0), BuildingBlock: XUDNAN_clean_linker_2, # of connection points: 2
#     Edge 39, Type (0, 0), BuildingBlock: XUDNAN_clean_linker_2, # of connection points: 2
#     Edge 40, Type (0, 0), BuildingBlock: XUDNAN_clean_linker_2, # of connection points: 2
#     Edge 41, Type (0, 0), BuildingBlock: XUDNAN_clean_linker_2, # of connection points: 2
#     Edge 42, Type (0, 0), BuildingBlock: XUDNAN_clean_linker_2, # of connection points: 2
#     Edge 43, Type (0, 0), BuildingBlock: XUDNAN_clean_linker_2, # of connection points: 2
#     Edge 44, Type (0, 0), BuildingBlock: XUDNAN_clean_linker_2, # of connection points: 2
#     Edge 45, Type (0, 0), BuildingBlock: XUDNAN_clean_linker_2, # of connection points: 2
#     Edge 46, Type (0, 0), BuildingBlock: XUDNAN_clean_linker_2, # of connection points: 2
#     Edge 47, Type (0, 0), BuildingBlock: XUDNAN_clean_linker_2, # of connection points: 2
# Relax obj value: 0.109
# Max RMSD: 0.285
# Mean RMSD: 0.284
data_MOF--net-lcy-e--node1-KUMBOL_clean_sbu_0--edge1-XUDNAN_clean_linker_2
_symmetry_space_group_name_H-M    P1
_symmetry_Int_Tables_number       1
_symmetry_cell_setting            triclinic
loop_
_symmetry_equiv_pos_as_xyz
'x, y, z'
_cell_length_a     43.355645
_cell_length_b     43.336181
_cell_length_c     43.439278
_cell_angle_alpha  89.739816
_cell_angle_beta   90.241054
_cell_angle_gamma 90.54135
loop_
_atom_site_label
_atom_site_type_symbol
_atom_site_fract_x
_atom_site_fract_y
_atom_site_fract_z
_atom_type_partial_charge
Gd0 Gd 0.13073 0.27027 0.47605 0.0
Gd1 Gd 0.15206 0.21688 0.53709 0.0
C2 C 0.23239 0.26086 0.59019 0.0
C3 C 0.27612 0.2315 0.57227 0.0
C4 C 0.22425 0.21904 0.55416 0.0
C5 C 0.21251 0.24278 0.57159 0.0
C6 C 0.25605 0.2123 0.55544 0.0
C7 C 0.2643 0.25579 0.58958 0.0
C8 C 0.21955 0.28291 0.60955 0.0
C9 C 0.1876 0.28556 0.61108 0.0
N10 N 0.18149 0.24693 0.57197 0.0
C11 C 0.16879 0.26709 0.59233 0.0
H12 H 0.14424 0.26925 0.59435 0.0
C13 C 0.21395 0.17263 0.52776 0.0
N14 N 0.20423 0.20064 0.53849 0.0
C15 C 0.2452 0.1651 0.52817 0.0
C16 C 0.26651 0.18546 0.54129 0.0
H17 H 0.19769 0.15648 0.51768 0.0
H18 H 0.27991 0.26978 0.60333 0.0
H19 H 0.15775 0.2258 0.4171 0.0
H20 H 0.23401 0.29728 0.62412 0.0
H21 H 0.17752 0.30183 0.62676 0.0
H22 H 0.30065 0.22696 0.57308 0.0
H23 H 0.06764 0.3105 0.5017 0.0
H24 H 0.08188 0.19619 0.36253 0.0
H25 H 0.13768 0.19699 0.37372 0.0
H26 H 0.99497 0.24321 0.40917 0.0
H27 H 0.25277 0.14347 0.51859 0.0
H28 H 0.29071 0.17945 0.54182 0.0
H29 H 0.02903 0.2133 0.37598 0.0
H30 H 1.01239 0.31153 0.49326 0.0
N31 N 0.11364 0.23982 0.4339 0.0
C32 C 0.0905 0.20867 0.38239 0.0
C33 C 0.12194 0.20888 0.38877 0.0
C34 C 0.07062 0.22501 0.40138 0.0
C35 C 0.08296 0.24083 0.42716 0.0
C36 C 0.1332 0.22497 0.41429 0.0
N37 N 0.07617 0.27367 0.46995 0.0
C38 C 0.06367 0.2576 0.44603 0.0
C39 C 0.02638 0.2957 0.48026 0.0
C40 C 0.01306 0.27785 0.45722 0.0
C41 C 0.05806 0.29407 0.48569 0.0
C42 C 0.03172 0.25905 0.43931 0.0
H43 H 0.98856 0.2797 0.45264 0.0
O44 O 0.11906 0.3184 0.46639 0.0
O45 O 0.15526 0.26715 0.52209 0.0
O46 O 0.11343 0.24448 0.55603 0.0
O47 O 0.1091 0.28578 0.52165 0.0
O48 O 0.17787 0.2887 0.48602 0.0
O49 O 0.15042 0.29407 0.43685 0.0
O50 O 0.14631 0.1671 0.5442 0.0
O51 O 0.12586 0.22152 0.49207 0.0
O52 O 0.1748 0.24747 0.46223 0.0
O53 O 0.17597 0.20335 0.49269 0.0
O54 O 0.10321 0.20184 0.52962 0.0
O55 O 0.14129 0.19858 0.58233 0.0
C56 C 0.17973 0.28204 0.51478 0.0
C57 C 0.01943 0.24256 0.41435 0.0
C58 C 0.03883 0.22566 0.39539 0.0
C59 C 0.13548 0.31949 0.44127 0.0
C60 C 0.12191 0.3331 0.41317 0.0
C61 C 0.09156 0.32613 0.4041 0.0
C62 C 0.1408 0.35091 0.39348 0.0
C63 C 0.12978 0.36091 0.36459 0.0
C64 C 0.0805 0.33606 0.37551 0.0
C65 C 0.09954 0.35308 0.35571 0.0
C66 C 0.10077 0.27044 0.54694 0.0
C67 C 0.1007 0.20937 0.50118 0.0
C68 C 0.14036 0.16988 0.57344 0.0
C69 C 0.15273 0.14654 0.59506 0.0
C70 C 0.18033 0.15215 0.61112 0.0
C71 C 0.13565 0.11923 0.60133 0.0
C72 C 0.14599 0.098 0.62379 0.0
C73 C 0.19061 0.13114 0.63331 0.0
C74 C 0.17357 0.10432 0.63967 0.0
C75 C 0.18723 0.2211 0.47056 0.0
H76 H 0.07654 0.31276 0.41884 0.0
H77 H 0.16435 0.35627 0.40026 0.0
H78 H 0.05713 0.33037 0.36859 0.0
H79 H 0.09048 0.3606 0.33367 0.0
H80 H 0.19372 0.17295 0.60677 0.0
H81 H 0.11436 0.1146 0.58894 0.0
H82 H 0.21188 0.13568 0.64568 0.0
H83 H 0.18214 0.08823 0.65677 0.0
Gd84 Gd 0.06989 0.90345 0.78519 0.0
Gd85 Gd 1.00629 0.87328 0.73757 0.0
C86 C 0.93905 0.79194 0.74914 0.0
C87 C 0.95907 0.75466 0.71293 0.0
C88 C 0.9844 0.80461 0.7192 0.0
C89 C 0.96319 0.81257 0.74129 0.0
C90 C 0.98222 0.7758 0.70428 0.0
C91 C 0.93751 0.76271 0.73535 0.0
C92 C 0.91654 0.80166 0.7698 0.0
C93 C 0.91786 0.83164 0.78126 0.0
N94 N 0.9651 0.84116 0.75382 0.0
C95 C 0.94217 0.85127 0.77271 0.0
H96 H 0.94248 0.87436 0.78158 0.0
C97 C 0.02597 0.81979 0.68741 0.0
N98 N 1.00631 0.82565 0.71124 0.0
C99 C 0.02481 0.79153 0.67206 0.0
C100 C 1.00287 0.7694 0.68056 0.0
H101 H 0.0432 0.83654 0.6806 0.0
H102 H 0.91929 0.74649 0.74128 0.0
H103 H 0.12259 0.89737 0.72856 0.0
H104 H 0.89763 0.78653 0.7764 0.0
H105 H 0.90017 0.83963 0.79673 0.0
H106 H 0.95721 0.73232 0.70193 0.0
H107 H 0.04671 0.94355 0.84738 0.0
H108 H 0.1719 0.98276 0.72239 0.0
H109 H 0.16262 0.92948 0.7044 0.0
H110 H 0.13123 0.04203 0.80504 0.0
H111 H 0.04082 0.78686 0.65365 0.0
H112 H 1.00187 0.74759 0.66848 0.0
H113 H 0.16091 0.02394 0.76077 0.0
H114 H 0.05583 0.99456 0.87033 0.0
N115 N 0.10674 0.93291 0.7582 0.0
C116 C 0.15366 0.96898 0.7327 0.0
C117 C 0.14854 0.93891 0.72253 0.0
C118 C 0.13613 0.98044 0.75697 0.0
C119 C 0.11228 0.96178 0.76932 0.0
C120 C 0.12552 0.9208 0.73624 0.0
N121 N 0.07543 0.95213 0.80843 0.0
C122 C 0.09599 0.97175 0.79492 0.0
C123 C 0.06713 0.98853 0.84905 0.0
C124 C 0.08743 1.00932 0.83501 0.0
C125 C 0.06198 0.95961 0.83585 0.0
C126 C 0.10277 1.00078 0.80813 0.0
H127 H 0.09192 0.03147 0.8457 0.0
O128 O 0.11252 0.90684 0.8118 0.0
O129 O 0.02934 0.87174 0.78448 0.0
O130 O 0.98765 0.90499 0.77322 0.0
O131 O 0.02873 0.9369 0.7885 0.0
O132 O 0.04163 0.89211 0.82615 0.0
O133 O 0.0898 0.8628 0.80717 0.0
O134 O 0.99318 0.88754 0.69129 0.0
O135 O 0.04402 0.90909 0.7416 0.0
O136 O 0.08388 0.86595 0.75092 0.0
O137 O 0.03991 0.83527 0.74773 0.0
O138 O 0.03923 0.88824 0.6997 0.0
O139 O 0.96449 0.89957 0.73003 0.0
C140 C 0.02274 0.87289 0.81328 0.0
C141 C 0.12571 0.01973 0.79515 0.0
C142 C 0.14265 1.00939 0.76997 0.0
C143 C 0.11268 0.87788 0.81954 0.0
C144 C 0.12053 0.87067 0.85186 0.0
C145 C 0.09865 0.87327 0.87537 0.0
C146 C 0.1507 0.86137 0.85932 0.0
C147 C 0.15914 0.85474 0.89007 0.0
C148 C 0.1067 0.86657 0.90579 0.0
C149 C 0.13666 0.85743 0.91317 0.0
C150 C 0.99864 0.93051 0.78576 0.0
C151 C 0.0541 0.90927 0.71444 0.0
C152 C 0.96761 0.90016 0.70018 0.0
C153 C 0.94001 0.89336 0.68144 0.0
C154 C 0.91871 0.8705 0.69038 0.0
C155 C 0.93502 0.91 0.65401 0.0
C156 C 0.90884 0.90399 0.63556 0.0
C157 C 0.89266 0.86453 0.67239 0.0
C158 C 0.88764 0.88114 0.64526 0.0
C159 C 0.07021 0.83871 0.74636 0.0
H160 H 0.07543 0.8806 0.87042 0.0
H161 H 0.16751 0.85917 0.84107 0.0
H162 H 0.0897 0.86874 0.92382 0.0
H163 H 0.14233 0.8531 0.93709 0.0
H164 H 0.92206 0.85733 0.71125 0.0
H165 H 0.95176 0.92733 0.6469 0.0
H166 H 0.8762 0.84701 0.67956 0.0
H167 H 0.86692 0.8763 0.63206 0.0
Gd168 Gd 0.38617 0.80982 0.03336 0.0
Gd169 Gd 0.4065 0.74514 0.98323 0.0
C170 C 0.42462 0.64392 1.00592 0.0
C171 C 0.47825 0.64526 0.02236 0.0
C172 C 0.45277 0.69251 1.00627 0.0
C173 C 0.42573 0.67613 1.00122 0.0
C174 C 0.47935 0.67724 0.01701 0.0
C175 C 0.45095 0.62862 0.01675 0.0
C176 C 0.39719 0.62801 0.99918 0.0
C177 C 0.37205 0.64412 0.98731 0.0
N178 N 0.40056 0.6917 0.99142 0.0
C179 C 0.37429 0.67606 0.98308 0.0
H180 H 0.35486 0.68841 0.97363 0.0
C181 C 0.47918 0.74041 1.00598 0.0
N182 N 0.45286 0.72348 1.00136 0.0
C183 C 0.50609 0.72634 0.01669 0.0
C184 C 0.50618 0.69462 0.02231 0.0
H185 H 0.47957 0.76488 1.00202 0.0
H186 H 0.4505 0.60391 0.02067 0.0
H187 H 0.40638 0.85552 0.97406 0.0
H188 H 0.3954 0.60326 1.00245 0.0
H189 H 0.35105 0.6319 0.9812 0.0
H190 H 0.4984 0.63316 0.0307 0.0
H191 H 0.33269 0.79581 0.08792 0.0
H192 H 0.32839 0.90803 0.94609 0.0
H193 H 0.38334 0.89458 0.9404 0.0
H194 H 0.24978 0.8762 0.01657 0.0
H195 H 0.52673 0.74001 0.02067 0.0
H196 H 0.52703 0.6838 0.0307 0.0
H197 H 0.27852 0.90047 0.97414 0.0
H198 H 0.27818 0.80736 0.09806 0.0
N199 N 0.36483 0.84535 0.99815 0.0
C200 C 0.33837 0.89053 0.96087 0.0
C201 C 0.36936 0.88296 0.95755 0.0
C202 C 0.32075 0.87571 0.98351 0.0
C203 C 0.33485 0.85304 1.00216 0.0
C204 C 0.38232 0.86044 0.97664 0.0
N205 N 0.33354 0.81891 0.04444 0.0
C206 C 0.31849 0.83884 0.02558 0.0
C207 C 0.28906 0.81601 0.07732 0.0
C208 C 0.27274 0.83488 0.05707 0.0
C209 C 0.31983 0.80909 0.07117 0.0
C210 C 0.2877 0.84739 0.03139 0.0
H211 H 0.24908 0.84075 0.06222 0.0
O212 O 0.38661 0.83086 0.07884 0.0
O213 O 0.41935 0.77106 0.02643 0.0
O214 O 0.37819 0.72491 0.02119 0.0
O215 O 0.35616 0.76727 0.04637 0.0
O216 O 0.40424 0.78009 0.07126 0.0
O217 O 0.41163 0.85268 0.04201 0.0
O218 O 0.43437 0.73581 0.94267 0.0
O219 O 0.37912 0.78884 0.98716 0.0
O220 O 0.43207 0.8203 1.01053 0.0
O221 O 0.43627 0.78618 0.96941 0.0
O222 O 0.35571 0.74853 0.97442 0.0
O223 O 0.38503 0.73583 0.93855 0.0
C224 C 0.4215 0.76271 0.05474 0.0
C225 C 0.27336 0.86933 1.0124 0.0
C226 C 0.28978 0.8833 0.98837 0.0
C227 C 0.40273 0.85493 0.07046 0.0
C228 C 0.39122 0.88548 0.08033 0.0
C229 C 0.36037 0.89332 0.075 0.0
C230 C 0.41084 0.90695 0.09539 0.0
C231 C 0.39956 0.93604 0.10485 0.0
C232 C 0.34913 0.92183 0.08412 0.0
C233 C 0.36843 0.94298 0.09894 0.0
C234 C 0.35842 0.73717 0.04057 0.0
C235 C 0.35312 0.77767 0.97907 0.0
C236 C 0.41072 0.72903 0.92519 0.0
C237 C 0.41105 0.69905 0.90848 0.0
C238 C 0.43024 0.67524 0.91895 0.0
C239 C 0.39153 0.69353 0.88266 0.0
C240 C 0.39155 0.66455 0.86748 0.0
C241 C 0.42985 0.64659 0.90462 0.0
C242 C 0.41074 0.64122 0.87929 0.0
C243 C 0.44518 0.81103 0.98474 0.0
H244 H 0.34478 0.87733 0.0641 0.0
H245 H 0.43473 0.90106 0.09957 0.0
H246 H 0.32518 0.92744 0.07997 0.0
H247 H 0.35866 0.96459 0.1064 0.0
H248 H 0.44547 0.67861 0.93847 0.0
H249 H 0.37674 0.71178 0.87429 0.0
H250 H 0.44445 0.62833 0.91325 0.0
H251 H 0.41084 0.61847 0.86908 0.0
Gd252 Gd 0.48092 0.12326 0.28199 0.0
Gd253 Gd 0.53139 0.16221 0.22547 0.0
C254 C 0.58078 0.2543 0.23979 0.0
C255 C 0.556 0.28696 0.20155 0.0
C256 C 0.53999 0.23336 0.20756 0.0
C257 C 0.56148 0.2295 0.23087 0.0
C258 C 0.53747 0.26193 0.19218 0.0
C259 C 0.5775 0.2832 0.22542 0.0
C260 C 0.60345 0.24904 0.26219 0.0
C261 C 0.60729 0.21933 0.27409 0.0
N262 N 0.56468 0.20107 0.24365 0.0
C263 C 0.58795 0.19537 0.26403 0.0
H264 H 0.59171 0.17231 0.27257 0.0
C265 C 0.50253 0.21077 0.17466 0.0
N266 N 0.52239 0.20872 0.19907 0.0
C267 C 0.49925 0.23864 0.15869 0.0
C268 C 0.51685 0.2643 0.16742 0.0
H269 H 0.48902 0.191 0.16757 0.0
H270 H 0.59201 0.30256 0.23207 0.0
H271 H 0.42063 0.1242 0.23284 0.0
H272 H 0.61869 0.26749 0.26974 0.0
H273 H 0.62535 0.21479 0.29072 0.0
H274 H 0.55418 0.30919 0.1902 0.0
H275 H 0.51511 0.08396 0.33873 0.0
H276 H 0.38681 0.03202 0.22171 0.0
H277 H 0.38414 0.08766 0.2091 0.0
H278 H 0.44766 0.97396 0.2934 0.0
H279 H 0.4833 0.24025 0.13953 0.0
H280 H 0.51448 0.28578 0.15481 0.0
H281 H 0.41102 0.98962 0.25291 0.0
H282 H 0.51835 0.03036 0.35794 0.0
N283 N 0.44446 0.08984 0.2586 0.0
C284 C 0.40289 0.04804 0.23238 0.0
C285 C 0.40129 0.07941 0.22524 0.0
C286 C 0.42472 0.03785 0.25382 0.0
C287 C 0.44519 0.05967 0.26694 0.0
C288 C 0.42213 0.10013 0.23886 0.0
N289 N 0.48394 0.07287 0.30239 0.0
C290 C 0.46578 0.05085 0.28946 0.0
C291 C 0.5036 0.03574 0.33852 0.0
C292 C 0.48621 1.01249 0.32434 0.0
C293 C 0.50176 0.06605 0.32754 0.0
C294 C 0.46657 0.01998 0.29983 0.0
H295 H 0.48751 0.98905 0.33299 0.0
O296 O 0.47086 0.13244 0.32999 0.0
O297 O 0.51401 0.16263 0.27464 0.0
O298 O 0.55877 0.12917 0.25436 0.0
O299 O 0.52378 0.09365 0.276 0.0
O300 O 0.51717 0.13797 0.31555 0.0
O301 O 0.43572 0.14006 0.29542 0.0
O302 O 0.54006 0.14571 0.17921 0.0
O303 O 0.501 0.12226 0.2358 0.0
O304 O 0.45648 0.16111 0.25338 0.0
O305 O 0.49461 0.19562 0.23714 0.0
O306 O 0.49586 0.1406 0.19282 0.0
O307 O 0.57843 0.15336 0.21033 0.0
C308 C 0.5286 0.1608 0.30021 0.0
C309 C 0.44718 0.99786 0.28599 0.0
C310 C 0.4263 1.00678 0.26298 0.0
C311 C 0.44215 0.13937 0.32471 0.0
C312 C 0.41887 0.12503 0.34511 0.0
C313 C 0.4218 0.0944 0.35514 0.0
C314 C 0.39389 0.14259 0.3555 0.0
C315 C 0.3724 0.13019 0.37678 0.0
C316 C 0.40059 0.08175 0.3758 0.0
C317 C 0.37632 0.09949 0.38681 0.0
C318 C 0.55199 0.10231 0.26732 0.0
C319 C 0.48724 0.11832 0.21062 0.0
C320 C 0.56989 0.1454 0.18256 0.0
C321 C 0.5878 0.15768 0.15627 0.0
C322 C 0.59281 0.18947 0.15275 0.0
C323 C 0.5986 0.13737 0.13347 0.0
C324 C 0.61434 0.1487 0.1072 0.0
C325 C 0.60826 0.2009 0.12691 0.0
C326 C 0.61893 0.18079 0.10432 0.0
C327 C 0.46564 0.18878 0.2433 0.0
H328 H 0.44066 0.08034 0.34738 0.0
H329 H 0.39143 0.16595 0.34693 0.0
H330 H 0.40327 0.05821 0.38372 0.0
H331 H 0.36107 0.08917 0.4037 0.0
H332 H 0.58465 0.20546 0.16986 0.0
H333 H 0.59427 0.11283 0.13602 0.0
H334 H 0.61205 0.2255 0.12439 0.0
H335 H 0.63132 0.19041 0.08487 0.0
Gd336 Gd 0.6674 0.30562 0.4949 0.0
Gd337 Gd 0.63764 0.24627 0.54849 0.0
C338 C 0.55008 0.18955 0.52978 0.0
C339 C 0.51763 0.20362 0.5729 0.0
C340 C 0.56917 0.22561 0.56787 0.0
C341 C 0.57348 0.20944 0.54098 0.0
C342 C 0.54159 0.22218 0.58468 0.0
C343 C 0.52183 0.18741 0.54542 0.0
C344 C 0.55622 0.17153 0.50393 0.0
C345 C 0.58558 0.17247 0.49093 0.0
N346 N 0.60136 0.21145 0.52702 0.0
C347 C 0.60816 0.19214 0.50328 0.0
H348 H 0.63082 0.19202 0.49325 0.0
C349 C 0.59119 0.25663 0.60695 0.0
N350 N 0.59275 0.24338 0.57852 0.0
C351 C 0.56462 0.25332 0.62481 0.0
C352 C 0.53943 0.23656 0.61336 0.0
H353 H 0.61041 0.26994 0.61581 0.0
H354 H 0.50348 0.17247 0.53702 0.0
H355 H 0.6559 0.36198 0.54705 0.0
H356 H 0.53886 0.15603 0.49455 0.0
H357 H 0.59094 0.15792 0.47152 0.0
H358 H 0.49612 0.20098 0.58529 0.0
H359 H 0.71313 0.28166 0.43836 0.0
H360 H 0.74102 0.40996 0.56186 0.0
H361 H 0.68542 0.40294 0.57274 0.0
H362 H 0.81036 0.3615 0.49216 0.0
H363 H 0.56348 0.26394 0.64727 0.0
H364 H 0.51875 0.23428 0.62713 0.0
H365 H 0.7878 0.3934 0.53287 0.0
H366 H 0.76728 0.28781 0.42153 0.0
N367 N 0.69425 0.34493 0.52184 0.0
C368 C 0.72813 0.39168 0.55057 0.0
C369 C 0.69676 0.38787 0.55663 0.0
C370 C 0.74236 0.37239 0.52935 0.0
C371 C 0.72447 0.34925 0.51485 0.0
C372 C 0.68005 0.36442 0.54188 0.0
N373 N 0.71846 0.31124 0.47701 0.0
C374 C 0.73712 0.33142 0.49203 0.0
C375 C 0.75918 0.30006 0.44154 0.0
C376 C 0.77916 0.31952 0.45783 0.0
C377 C 0.72859 0.29666 0.45112 0.0
C378 C 0.76805 0.33605 0.48299 0.0
H379 H 0.80278 0.3224 0.45019 0.0
O380 O 0.66338 0.3215 0.44727 0.0
O381 O 0.6314 0.2685 0.50101 0.0
O382 O 0.66976 0.22459 0.51486 0.0
O383 O 0.70107 0.26441 0.49592 0.0
O384 O 0.65471 0.27117 0.45914 0.0
O385 O 0.64019 0.34608 0.48317 0.0
O386 O 0.65521 0.23306 0.59399 0.0
O387 O 0.67357 0.2821 0.53935 0.0
O388 O 0.62614 0.32303 0.52347 0.0
O389 O 0.6005 0.28177 0.54745 0.0
O390 O 0.65725 0.28086 0.58326 0.0
O391 O 0.65805 0.20126 0.55603 0.0
C392 C 0.6332 0.25688 0.47397 0.0
C393 C 0.78646 0.35786 0.49852 0.0
C394 C 0.7736 0.37606 0.52163 0.0
C395 C 0.6473 0.34579 0.45409 0.0
C396 C 0.65769 0.37575 0.44073 0.0
C397 C 0.6884 0.38535 0.44465 0.0
C398 C 0.63698 0.3954 0.42483 0.0
C399 C 0.64705 0.42458 0.41352 0.0
C400 C 0.69846 0.41388 0.43348 0.0
C401 C 0.67805 0.43335 0.41815 0.0
C402 C 0.69516 0.23463 0.50148 0.0
C403 C 0.67711 0.29401 0.5655 0.0
C404 C 0.66279 0.20546 0.58542 0.0
C405 C 0.65584 0.17931 0.60674 0.0
C406 C 0.63797 0.15406 0.59664 0.0
C407 C 0.66894 0.17835 0.63673 0.0
C408 C 0.66494 0.15202 0.65579 0.0
C409 C 0.63391 0.12817 0.61548 0.0
C410 C 0.64747 0.12701 0.64466 0.0
C411 C 0.60235 0.31107 0.53909 0.0
H412 H 0.70471 0.3708 0.45638 0.0
H413 H 0.61316 0.38826 0.42173 0.0
H414 H 0.72227 0.42092 0.43669 0.0
H415 H 0.68673 0.4552 0.40942 0.0
H416 H 0.62745 0.1541 0.57397 0.0
H417 H 0.68264 0.19769 0.64497 0.0
H418 H 0.62024 0.1088 0.60735 0.0
H419 H 0.64383 0.10669 0.65888 0.0
Gd420 Gd 0.02665 0.38387 0.8056 0.0
Gd421 Gd 0.97544 0.41309 0.74532 0.0
C422 C 0.0303 0.48446 0.68945 0.0
C423 C 0.01563 0.53241 0.71379 0.0
C424 C 0.99226 0.48373 0.73001 0.0
C425 C 1.01039 0.46801 0.70941 0.0
C426 C 0.99361 0.51627 0.73134 0.0
C427 C 0.03396 0.5165 0.69281 0.0
C428 C 0.04439 0.4686 0.66547 0.0
C429 C 0.03724 0.43753 0.66091 0.0
N430 N 1.00592 0.43709 0.7065 0.0
C431 C 0.01771 0.4221 0.68153 0.0
H432 H 1.01199 0.39833 0.67678 0.0
C433 C 0.9468 0.48273 0.75953 0.0
N434 N 0.9706 0.46752 0.74581 0.0
C435 C 0.9474 0.51488 0.76203 0.0
C436 C 0.97147 0.5317 0.74865 0.0
H437 H 0.92774 0.47006 0.76964 0.0
H438 H 0.04966 0.52939 0.67814 0.0
H439 H 0.97455 0.40879 0.85643 0.0
H440 H 0.05949 0.48046 0.64941 0.0
H441 H 0.04669 0.42547 0.64142 0.0
H442 H 0.01744 0.55733 0.71498 0.0
H443 H 0.0756 0.32654 0.78937 0.0
H444 H 0.94154 0.33233 0.9093 0.0
H445 H 0.94111 0.3881 0.89705 0.0
H446 H 1.00118 0.24796 0.87244 0.0
H447 H 0.92924 0.52665 0.77415 0.0
H448 H 0.97172 0.55664 0.7503 0.0
H449 H 0.96349 0.28001 0.89938 0.0
H450 H 0.08172 0.27103 0.80055 0.0
N451 N 0.99258 0.36522 0.84376 0.0
C452 C 0.95605 0.3413 0.89103 0.0
C453 C 0.95567 0.37274 0.88411 0.0
C454 C 0.97569 0.32193 0.87473 0.0
C455 C 0.99415 0.3348 0.85114 0.0
C456 C 0.97441 0.38439 0.86056 0.0
N457 N 0.03409 0.33056 0.81509 0.0
C458 C 0.01508 0.31675 0.83579 0.0
C459 C 0.06262 0.28349 0.81034 0.0
C460 C 0.04194 0.26849 0.82998 0.0
C461 C 0.05889 0.31486 0.80387 0.0
C462 C 0.01838 0.28532 0.84374 0.0
H463 H 0.04514 0.2443 0.83537 0.0
O464 O 0.07371 0.381 0.82329 0.0
O465 O 0.02301 0.41881 0.76723 0.0
O466 O 1.00354 0.37563 0.72433 0.0
O467 O 0.02947 0.35064 0.76472 0.0
O468 O 0.06258 0.39186 0.76991 0.0
O469 O 0.04071 0.40887 0.84684 0.0
O470 O 0.92535 0.41477 0.74494 0.0
O471 O 0.97842 0.38378 0.78817 0.0
O472 O 1.0112 0.43295 0.81488 0.0
O473 O 0.96332 0.43257 0.79175 0.0
O474 O 0.95865 0.36406 0.74891 0.0
O475 O 0.94954 0.40626 0.70235 0.0
C476 C 0.04948 0.41418 0.75521 0.0
C477 C 0.99912 0.27209 0.8662 0.0
C478 C 0.97777 0.29036 0.88164 0.0
C479 C 0.06836 0.39765 0.8475 0.0
C480 C 0.07888 0.38535 0.87758 0.0
C481 C 0.07257 0.35461 0.88577 0.0
C482 C 0.09459 0.40457 0.89875 0.0
C483 C 0.10341 0.39315 0.92802 0.0
C484 C 0.08115 0.34323 0.91459 0.0
C485 C 0.09635 0.36231 0.93561 0.0
C486 C 0.02054 0.35312 0.73554 0.0
C487 C 0.96514 0.3599 0.7775 0.0
C488 C 0.92283 0.40772 0.7159 0.0
C489 C 0.89546 0.41863 0.6986 0.0
C490 C 0.88664 0.44961 0.69983 0.0
C491 C 0.87643 0.39717 0.68268 0.0
C492 C 0.84834 0.40647 0.66887 0.0
C493 C 0.85914 0.45902 0.68592 0.0
C494 C 0.84004 0.43768 0.67082 0.0
C495 C 0.98347 0.44469 0.8111 0.0
H496 H 0.06109 0.33928 0.86995 0.0
H497 H 0.09956 0.42837 0.89262 0.0
H498 H 0.07611 0.31945 0.9206 0.0
H499 H 0.10317 0.35271 0.95765 0.0
H500 H 0.90076 0.4664 0.71189 0.0
H501 H 0.88301 0.37311 0.68188 0.0
H502 H 0.85245 0.48298 0.68706 0.0
H503 H 0.81889 0.4457 0.66025 0.0
Gd504 Gd 0.86597 0.73326 0.9936 0.0
Gd505 Gd 0.88633 0.78645 0.05318 0.0
C506 C 0.96372 0.85554 0.03458 0.0
C507 C 1.00259 0.84014 0.07186 0.0
C508 C 0.95454 0.811 0.06733 0.0
C509 C 0.94506 0.83026 0.04359 0.0
C510 C 0.98286 0.81659 0.08253 0.0
C511 C 0.993 0.85964 0.04797 0.0
C512 C 0.95169 0.87701 1.01373 0.0
C513 C 0.92178 0.87298 1.00228 0.0
N514 N 0.91623 0.82637 0.03175 0.0
C515 C 0.90427 0.84739 1.01164 0.0
H516 H 0.88101 0.84477 1.0033 0.0
C517 C 0.93974 0.77469 0.10554 0.0
N518 N 0.9343 0.78951 0.07821 0.0
C519 C 0.96749 0.77942 0.12132 0.0
C520 C 0.98942 0.80002 0.10945 0.0
H521 H 0.92265 0.75906 0.11499 0.0
H522 H 1.00781 0.87867 0.04097 0.0
H523 H 0.87157 0.66956 0.03959 0.0
H524 H 0.96504 0.89714 1.00692 0.0
H525 H 0.91216 0.88966 0.98642 0.0
H526 H 0.02461 0.8445 0.083 0.0
H527 H 0.82281 0.76772 0.93698 0.0
H528 H 0.78506 0.62287 0.03989 0.0
H529 H 0.83921 0.62697 0.05705 0.0
H530 H 0.72374 0.68048 0.96933 0.0
H531 H 0.97191 0.76729 0.14269 0.0
H532 H 1.01078 0.8039 0.12195 0.0
H533 H 0.74294 0.6421 1.00614 0.0
H534 H 0.77021 0.76559 0.91692 0.0
N535 N 0.83578 0.69248 1.01448 0.0
C536 C 0.79904 0.6424 0.03256 0.0
C537 C 0.82957 0.64459 0.04224 0.0
C538 C 0.78728 0.66468 1.01252 0.0
C539 C 0.80627 0.69001 1.00393 0.0
C540 C 0.8479 0.66933 0.03229 0.0
N541 N 0.81518 0.73394 0.9725 0.0
C542 C 0.79557 0.71151 0.98273 0.0
C543 C 0.77679 0.75059 0.93578 0.0
C544 C 0.75606 0.72872 0.94706 0.0
C545 C 0.80656 0.75221 0.94801 0.0
C546 C 0.7656 0.70816 0.96997 0.0
H547 H 0.73326 0.7269 0.93688 0.0
O548 O 0.86433 0.72368 0.94467 0.0
O549 O 0.88946 0.7791 1.00154 0.0
O550 O 0.84145 0.80041 0.03138 0.0
O551 O 0.84761 0.78217 0.98235 0.0
O552 O 0.91449 0.74643 0.98031 0.0
O553 O 0.8896 0.69332 0.97494 0.0
O554 O 0.86965 0.79317 0.09988 0.0
O555 O 0.85254 0.74912 0.04036 0.0
O556 O 0.90097 0.71149 0.02618 0.0
O557 O 0.92591 0.75316 0.04884 0.0
O558 O 0.87408 0.74538 0.08289 0.0
O559 O 0.87094 0.83164 0.06841 0.0
C560 C 0.914 0.77548 0.98604 0.0
C561 C 0.74665 0.6834 0.97903 0.0
C562 C 0.75761 0.66152 0.99992 0.0
C563 C 0.87988 0.69825 0.94696 0.0
C564 C 0.86829 0.6712 0.92962 0.0
C565 C 0.83734 0.6691 0.92024 0.0
C566 C 0.88893 0.64785 0.92101 0.0
C567 C 0.87913 0.62294 0.9023 0.0
C568 C 0.82732 0.64453 0.90207 0.0
C569 C 0.84797 0.62188 0.89285 0.0
C570 C 0.83471 0.80167 1.00192 0.0
C571 C 0.85313 0.73364 0.06517 0.0
C572 C 0.86574 0.82269 0.09658 0.0
C573 C 0.87821 0.84228 0.1216 0.0
C574 C 0.90909 0.85222 0.12127 0.0
C575 C 0.85939 0.85056 0.14656 0.0
C576 C 0.87182 0.86765 0.1713 0.0
C577 C 0.92158 0.86859 0.14598 0.0
C578 C 0.90314 0.87607 0.17102 0.0
C579 C 0.9247 0.72371 0.04126 0.0
H580 H 0.82097 0.68666 0.92643 0.0
H581 H 0.91262 0.64936 0.9289 0.0
H582 H 0.80349 0.64334 0.89458 0.0
H583 H 0.83943 0.60394 0.87773 0.0
H584 H 0.92355 0.84758 0.10189 0.0
H585 H 0.83526 0.84378 0.14677 0.0
H586 H 0.94554 0.87583 0.14552 0.0
H587 H 0.91306 0.88939 0.18972 0.0
Gd588 Gd 0.55684 0.62439 0.24237 0.0
Gd589 Gd 0.49926 0.64065 0.30144 0.0
C590 C 0.44619 0.72857 0.27965 0.0
C591 C 0.46316 0.76291 0.3206 0.0
C592 C 0.48243 0.71051 0.31808 0.0
C593 C 0.46527 0.70528 0.29176 0.0
C594 C 0.48044 0.73887 0.33366 0.0
C595 C 0.44616 0.7578 0.29352 0.0
C596 C 0.42651 0.72123 0.25506 0.0
C597 C 0.42486 0.69083 0.24453 0.0
N598 N 0.46482 0.6764 0.27991 0.0
C599 C 0.44383 0.66843 0.25781 0.0
H600 H 0.44216 0.64487 0.24997 0.0
C601 C 0.50973 0.68815 0.35967 0.0
N602 N 0.49847 0.68659 0.33023 0.0
C603 C 0.50803 0.71567 0.37621 0.0
C604 C 0.49418 0.74146 0.36278 0.0
H605 H 0.52054 0.66822 0.36999 0.0
H606 H 0.43193 0.77613 0.28436 0.0
H607 H 0.61562 0.63516 0.2955 0.0
H608 H 0.41154 0.73847 0.24501 0.0
H609 H 0.40892 0.68462 0.22629 0.0
H610 H 0.4617 0.78505 0.33196 0.0
H611 H 0.53347 0.57948 0.18253 0.0
H612 H 0.6619 0.54996 0.3069 0.0
H613 H 0.6555 0.60481 0.32011 0.0
H614 H 0.61296 0.4828 0.23475 0.0
H615 H 0.51717 0.71688 0.39938 0.0
H616 H 0.49286 0.76273 0.37569 0.0
H617 H 0.64511 0.50449 0.27611 0.0
H618 H 0.53943 0.52617 0.16503 0.0
N619 N 0.59757 0.5981 0.26796 0.0
C620 C 0.64388 0.56321 0.29584 0.0
C621 C 0.6404 0.59416 0.30324 0.0
C622 C 0.62456 0.54984 0.27374 0.0
C623 C 0.60159 0.56814 0.25963 0.0
C624 C 0.61729 0.61139 0.28895 0.0
N625 N 0.56222 0.57405 0.22228 0.0
C626 C 0.58322 0.55574 0.23647 0.0
C627 C 0.55152 0.53397 0.18546 0.0
C628 C 0.57099 0.51406 0.20138 0.0
C629 C 0.54797 0.56418 0.1958 0.0
C630 C 0.58773 0.52502 0.2267 0.0
H631 H 0.57386 0.49068 0.1932 0.0
O632 O 0.55926 0.63205 0.19289 0.0
O633 O 0.51124 0.64673 0.25099 0.0
O634 O 0.47895 0.60332 0.27138 0.0
O635 O 0.51135 0.5998 0.22874 0.0
O636 O 0.54502 0.67387 0.23222 0.0
O637 O 0.59955 0.64091 0.22158 0.0
O638 O 0.48927 0.61665 0.34464 0.0
O639 O 0.53536 0.60789 0.286 0.0
O640 O 0.57626 0.66165 0.27361 0.0
O641 O 0.53652 0.67729 0.30603 0.0
O642 O 0.53675 0.62079 0.33168 0.0
O643 O 0.45218 0.62755 0.31387 0.0
C644 C 0.51587 0.67233 0.23713 0.0
C645 C 0.60954 0.50651 0.2417 0.0
C646 C 0.62791 0.51889 0.26516 0.0
C647 C 0.58811 0.64111 0.19376 0.0
C648 C 0.60883 0.63362 0.1677 0.0
C649 C 0.59822 0.61537 0.14312 0.0
C650 C 0.63836 0.6478 0.16557 0.0
C651 C 0.65653 0.64433 0.13891 0.0
C652 C 0.61631 0.61167 0.11689 0.0
C653 C 0.64511 0.62621 0.11465 0.0
C654 C 0.48572 0.59207 0.24404 0.0
C655 C 0.54872 0.60287 0.31145 0.0
C656 C 0.45956 0.61686 0.34093 0.0
C657 C 0.44149 0.62822 0.36744 0.0
C658 C 0.43613 0.6599 0.37015 0.0
C659 C 0.43048 0.60792 0.3907 0.0
C660 C 0.41511 0.61955 0.417 0.0
C661 C 0.42233 0.67166 0.39633 0.0
C662 C 0.41251 0.65191 0.41974 0.0
C663 C 0.56468 0.68002 0.29484 0.0
H664 H 0.57566 0.60445 0.14382 0.0
H665 H 0.64682 0.66219 0.18419 0.0
H666 H 0.60782 0.59769 0.09803 0.0
H667 H 0.6587 0.62303 0.09405 0.0
H668 H 0.44291 0.67572 0.35216 0.0
H669 H 0.43365 0.58334 0.38799 0.0
H670 H 0.41934 0.69633 0.39858 0.0
H671 H 0.40288 0.66237 0.44005 0.0
Gd672 Gd 0.27119 0.47048 0.13024 0.0
Gd673 Gd 0.21905 0.53399 0.1472 0.0
C674 C 0.24677 0.59319 0.22944 0.0
C675 C 0.20691 0.58024 0.26667 0.0
C676 C 0.20607 0.55705 0.21584 0.0
C677 C 0.23286 0.5728 0.20822 0.0
C678 C 0.1923 0.5612 0.24484 0.0
C679 C 0.23413 0.59618 0.259 0.0
C680 C 0.27221 0.61086 0.21987 0.0
C681 C 0.28209 0.60906 0.18937 0.0
N682 N 0.24396 0.56996 0.17924 0.0
C683 C 0.26716 0.58881 0.16908 0.0
H684 H 0.27445 0.588 0.14539 0.0
C685 C 0.16369 0.52673 0.1988 0.0
N686 N 0.19258 0.53887 0.19417 0.0
C687 C 0.14922 0.52996 0.2273 0.0
C688 C 0.16381 0.54686 0.25061 0.0
H689 H 0.1525 0.51357 0.18078 0.0
H690 H 0.24466 0.6115 0.27574 0.0
H691 H 0.20705 0.42666 0.15355 0.0
H692 H 0.28362 0.62675 0.23548 0.0
H693 H 0.30107 0.62336 0.18141 0.0
H694 H 0.19689 0.58347 0.28923 0.0
H695 H 0.32079 0.48507 0.0714 0.0
H696 H 0.18547 0.36303 0.0831 0.0
H697 H 0.17693 0.38358 0.13507 0.0
H698 H 0.25114 0.39249 1.00021 0.0
H699 H 0.12683 0.51947 0.23127 0.0
H700 H 0.15249 0.54944 0.27262 0.0
H701 H 0.21181 0.36774 0.03261 0.0
H702 H 0.32805 0.46996 0.01793 0.0
N703 N 0.23644 0.43029 0.11404 0.0
C704 C 0.19973 0.38192 0.09139 0.0
C705 C 0.19502 0.39328 0.12079 0.0
C706 C 0.22211 0.39562 0.0727 0.0
C707 C 0.24063 0.41983 0.08481 0.0
C708 C 0.2132 0.4177 0.1316 0.0
N709 N 0.28021 0.45726 0.07819 0.0
C710 C 0.26272 0.43395 0.06635 0.0
C711 C 0.30923 0.46 0.03106 0.0
C712 C 0.2901 0.43771 0.01793 0.0
C713 C 0.30444 0.46899 0.06146 0.0
C714 C 0.26694 0.42393 0.03569 0.0
H715 H 0.29397 0.43066 0.99437 0.0
O716 O 0.32117 0.46838 0.12799 0.0
O717 O 0.26809 0.51746 0.15118 0.0
O718 O 0.24915 0.55054 0.10827 0.0
O719 O 0.28667 0.51283 0.1019 0.0
O720 O 0.2879 0.48385 0.17767 0.0
O721 O 0.29448 0.42758 0.14258 0.0
O722 O 0.17391 0.54588 0.12858 0.0
O723 O 0.23025 0.49638 0.11487 0.0
O724 O 0.24489 0.45638 0.17339 0.0
O725 O 0.21717 0.50038 0.18705 0.0
O726 O 0.18485 0.49889 0.1283 0.0
O727 O 0.21042 0.58004 0.12929 0.0
C728 C 0.28346 0.51317 0.17589 0.0
C729 C 0.24831 0.40022 0.02371 0.0
C730 C 0.22603 0.38605 0.04219 0.0
C731 C 0.3216 0.43969 0.13721 0.0
C732 C 0.35073 0.42242 0.14096 0.0
C733 C 0.37819 0.4352 0.1293 0.0
C734 C 0.35166 0.39365 0.15647 0.0
C735 C 0.37996 0.37821 0.16068 0.0
C736 C 0.40604 0.41982 0.13295 0.0
C737 C 0.40699 0.39164 0.14848 0.0
C738 C 0.27407 0.53988 0.09469 0.0
C739 C 0.20374 0.4854 0.11003 0.0
C740 C 0.18132 0.57462 0.12371 0.0
C741 C 0.15912 0.59776 0.13455 0.0
C742 C 0.16397 0.61299 0.16261 0.0
C743 C 0.1328 0.60478 0.11671 0.0
C744 C 0.11175 0.6273 0.12661 0.0
C745 C 0.14311 0.63503 0.17266 0.0
C746 C 0.11728 0.64223 0.15484 0.0
C747 C 0.2265 0.47187 0.19206 0.0
H748 H 0.37819 0.45714 0.11724 0.0
H749 H 0.33066 0.3837 0.16583 0.0
H750 H 0.42704 0.42982 0.12371 0.0
H751 H 0.42898 0.38015 0.15064 0.0
H752 H 0.18394 0.60796 0.17673 0.0
H753 H 0.12903 0.59312 0.09497 0.0
H754 H 0.147 0.64662 0.19438 0.0
H755 H 0.10136 0.65927 0.16338 0.0
Gd756 Gd 0.72857 1.00724 0.87084 0.0
Gd757 Gd 0.78292 0.06486 0.89812 0.0
C758 C 0.84041 0.02596 0.97721 0.0
C759 C 0.82287 0.05618 0.02065 0.0
C760 C 0.80233 0.06585 0.96935 0.0
C761 C 0.8203 0.04246 0.95768 0.0
C762 C 0.80418 0.07364 1.0008 0.0
C763 C 0.84093 0.03234 1.00888 0.0
C764 C 0.86019 1.00434 0.96414 0.0
C765 C 0.86045 1.00056 0.93225 0.0
N766 N 0.81954 0.03713 0.92693 0.0
C767 C 0.84003 0.01743 0.91388 0.0
H768 H 0.84058 0.01448 0.88938 0.0
C769 C 0.77117 0.10922 0.95894 0.0
N770 N 0.78465 0.08238 0.94953 0.0
C771 C 0.772 0.11767 0.98996 0.0
C772 C 0.78812 0.09948 1.0111 0.0
H773 H 0.75842 0.12314 0.94263 0.0
H774 H 0.85595 0.01967 0.02429 0.0
H775 H 0.66822 0.0582 0.87606 0.0
H776 H 0.87598 0.99119 0.97833 0.0
H777 H 0.87629 0.9846 0.92179 0.0
H778 H 0.82429 0.06155 0.04495 0.0
H779 H 0.76311 0.95333 0.8258 0.0
H780 H 0.62383 0.06287 0.78907 0.0
H781 H 0.62791 0.0786 0.84339 0.0
H782 H 0.67866 0.99171 0.72711 0.0
H783 H 0.76024 0.13819 0.99753 0.0
H784 H 0.78891 0.10619 0.03509 0.0
H785 H 0.64205 0.02965 0.74655 0.0
H786 H 0.76135 0.93569 0.7726 0.0
N787 N 0.68978 0.03153 0.84071 0.0
C788 C 0.64232 0.05392 0.80329 0.0
C789 C 0.6445 0.06277 0.83391 0.0
C790 C 0.66344 0.03294 0.79159 0.0
C791 C 0.68748 0.0222 0.8109 0.0
C792 C 0.66793 0.05087 0.85251 0.0
N793 N 0.72998 0.98926 0.8193 0.0
C794 C 0.7082 1.00071 0.79989 0.0
C795 C 0.7466 0.95432 0.77976 0.0
C796 C 0.72524 0.9667 0.75932 0.0
C797 C 0.74803 0.96518 0.80992 0.0
C798 C 0.70513 0.98946 0.76946 0.0
H799 H 0.72365 0.95768 0.73614 0.0
O800 O 0.72327 0.95716 0.87081 0.0
O801 O 0.77173 0.01396 0.8994 0.0
O802 O 0.79947 0.04518 0.85354 0.0
O803 O 0.77794 0.99639 0.85421 0.0
O804 O 0.73453 0.99208 0.91963 0.0
O805 O 0.68591 0.98611 0.88659 0.0
O806 O 0.82875 0.08016 0.88414 0.0
O807 O 0.74861 0.05387 0.86095 0.0
O808 O 0.70466 0.03717 0.90665 0.0
O809 O 0.74468 0.06193 0.93275 0.0
O810 O 0.74506 0.09651 0.88182 0.0
O811 O 0.79333 0.11369 0.89222 0.0
C812 C 0.76291 0.99961 0.92343 0.0
C813 C 0.68135 1.00021 0.7504 0.0
C814 C 0.66047 0.02176 0.76149 0.0
C815 C 0.69509 0.95809 0.88132 0.0
C816 C 0.67174 0.93617 0.86918 0.0
C817 C 0.67409 0.92349 0.8397 0.0
C818 C 0.64718 0.92689 0.88838 0.0
C819 C 0.62554 0.9041 0.87898 0.0
C820 C 0.65265 0.90136 0.82986 0.0
C821 C 0.62886 0.89147 0.84931 0.0
C822 C 0.79933 0.01631 0.84442 0.0
C823 C 0.7345 0.07929 0.85993 0.0
C824 C 0.8212 0.10914 0.88248 0.0
C825 C 0.8299 0.12581 0.85413 0.0
C826 C 0.81943 0.11551 0.82532 0.0
C827 C 0.84816 0.15276 0.85588 0.0
C828 C 0.85659 0.16892 0.8289 0.0
C829 C 0.82824 0.13104 0.79851 0.0
C830 C 0.84681 0.15748 0.80021 0.0
C831 C 0.71553 0.0538 0.92987 0.0
H832 H 0.6926 0.93034 0.82443 0.0
H833 H 0.64521 0.93757 0.91076 0.0
H834 H 0.6548 0.8914 0.80717 0.0
H835 H 0.61356 0.87341 0.84113 0.0
H836 H 0.80432 0.09561 0.8235 0.0
H837 H 0.85571 0.16118 0.87817 0.0
H838 H 0.82033 0.12279 0.77635 0.0
H839 H 0.8527 0.16955 0.77911 0.0
Gd840 Gd 0.81409 0.02255 0.37563 0.0
Gd841 Gd 0.75607 0.97034 0.41032 0.0
C842 C 0.71451 0.98742 0.50514 0.0
C843 C 0.73161 0.94257 0.53411 0.0
C844 C 0.7458 0.94893 0.48035 0.0
C845 C 0.73035 0.97657 0.47909 0.0
C846 C 0.74579 0.93109 0.50756 0.0
C847 C 0.71606 0.97077 0.53293 0.0
C848 C 0.69635 0.01378 0.50203 0.0
C849 C 0.6929 0.02743 0.47307 0.0
N850 N 0.72846 0.99139 0.45161 0.0
C851 C 0.7086 0.01532 0.44785 0.0
H852 H 0.70482 0.02517 0.42536 0.0
C853 C 0.77057 0.90928 0.453 0.0
N854 N 0.75901 0.93848 0.45422 0.0
C855 C 0.77073 0.89053 0.47926 0.0
C856 C 0.7588 0.90168 0.50683 0.0
H857 H 0.77992 0.90052 0.4318 0.0
H858 H 0.70429 0.97887 0.55327 0.0
H859 H 0.86204 0.96565 0.40048 0.0
H860 H 0.68383 0.0229 0.52145 0.0
H861 H 0.67785 0.04701 0.47004 0.0
H862 H 0.73165 0.92936 0.55535 0.0
H863 H 0.79238 0.06732 0.31628 0.0
H864 H 0.91658 0.93667 0.325 0.0
H865 H 0.90285 0.93346 0.37998 0.0
H866 H 0.87753 0.99516 0.23991 0.0
H867 H 0.78018 0.86753 0.47825 0.0
H868 H 0.75903 0.88711 0.52717 0.0
H869 H 0.90613 0.95884 0.27263 0.0
H870 H 0.80181 0.07208 0.26053 0.0
N871 N 0.85172 0.98768 0.35766 0.0
C872 C 0.89826 0.95092 0.33381 0.0
C873 C 0.89066 0.94913 0.36487 0.0
C874 C 0.8821 0.97099 0.31447 0.0
C875 C 0.85893 0.98961 0.32729 0.0
C876 C 0.8673 0.96772 0.37647 0.0
N877 N 0.82158 0.02841 0.32211 0.0
C878 C 0.84309 1.01028 0.30892 0.0
C879 C 0.81335 0.05436 0.27377 0.0
C880 C 0.83415 0.03471 0.25954 0.0
C881 C 0.80784 0.05134 0.30531 0.0
C882 C 0.84977 1.01273 0.2772 0.0
H883 H 0.83858 0.03724 0.23513 0.0
O884 O 0.82874 0.0698 0.36728 0.0
O885 O 0.77992 0.01767 0.41396 0.0
O886 O 0.73252 1.00507 0.38014 0.0
O887 O 0.77006 0.02418 0.3464 0.0
O888 O 0.78153 0.0592 0.38917 0.0
O889 O 0.85753 0.03966 0.39478 0.0
O890 O 0.7386 0.92749 0.39034 0.0
O891 O 0.78753 0.97963 0.37152 0.0
O892 O 0.83101 1.00435 0.42242 0.0
O893 O 0.79682 0.96671 0.4417 0.0
O894 O 0.78487 0.93461 0.38511 0.0
O895 O 0.70725 0.96466 0.39983 0.0
C896 C 0.76881 0.04492 0.41202 0.0
C897 C 0.87222 0.9937 0.26423 0.0
C898 C 0.88851 0.97303 0.28287 0.0
C899 C 0.85365 0.06749 0.38402 0.0
C900 C 0.86134 0.09352 0.40466 0.0
C901 C 0.8382 0.1125 0.41639 0.0
C902 C 0.89251 0.10059 0.41109 0.0
C903 C 0.90085 0.12711 0.42826 0.0
C904 C 0.84602 0.13842 0.43371 0.0
C905 C 0.87694 0.14596 0.43925 0.0
C906 C 0.74084 0.01905 0.35437 0.0
C907 C 0.79673 0.9531 0.36507 0.0
C908 C 0.71002 0.93624 0.39052 0.0
C909 C 0.68687 0.91327 0.4012 0.0
C910 C 0.67146 0.91719 0.42919 0.0
C911 C 0.67944 0.88754 0.38263 0.0
C912 C 0.65602 0.86619 0.39133 0.0
C913 C 0.64843 0.89637 0.43808 0.0
C914 C 0.6405 0.87139 0.4193 0.0
C915 C 0.82274 0.98285 0.44287 0.0
H916 H 0.8141 0.1077 0.41169 0.0
H917 H 0.9101 0.08539 0.40242 0.0
H918 H 0.82801 0.15315 0.44236 0.0
H919 H 0.88187 0.16703 0.45164 0.0
H920 H 0.67694 0.93655 0.444 0.0
H921 H 0.69208 0.88434 0.36146 0.0
H922 H 0.6363 0.89983 0.4595 0.0
H923 H 0.62171 0.85657 0.42667 0.0
Gd924 Gd 0.24844 0.54932 0.62573 0.0
Gd925 Gd 0.30697 0.49674 0.65312 0.0
C926 C 0.29477 0.44789 0.7459 0.0
C927 C 0.33941 0.46636 0.77462 0.0
C928 C 0.33081 0.48341 0.7219 0.0
C929 C 0.304 0.46607 0.72046 0.0
C930 C 0.34948 0.48279 0.74854 0.0
C931 C 0.31199 0.44903 0.77334 0.0
C932 C 0.26956 0.42781 0.74242 0.0
C933 C 0.25561 0.42476 0.71358 0.0
N934 N 0.28875 0.46451 0.69317 0.0
C935 C 0.26617 0.44275 0.68889 0.0
H936 H 0.25568 0.43949 0.66659 0.0
C937 C 0.3688 0.51173 0.69466 0.0
N938 N 0.33997 0.49876 0.69621 0.0
C939 C 0.38834 0.51135 0.72032 0.0
C940 C 0.37841 0.49733 0.74759 0.0
H941 H 0.3765 0.52283 0.6737 0.0
H942 H 0.30507 0.4355 0.79323 0.0
H943 H 0.30748 0.59915 0.64185 0.0
H944 H 0.26167 0.41351 0.7614 0.0
H945 H 0.23692 0.40836 0.71024 0.0
H946 H 0.35323 0.46595 0.79546 0.0
H947 H 0.19912 0.52278 0.57187 0.0
H948 H 0.29914 0.67489 0.57942 0.0
H949 H 0.32341 0.65093 0.62511 0.0
H950 H 0.2242 0.63953 0.50605 0.0
H951 H 0.41096 0.52204 0.71911 0.0
H952 H 0.39359 0.49712 0.76747 0.0
H953 H 0.26219 0.67042 0.53508 0.0
H954 H 0.17738 0.54027 0.52243 0.0
N955 N 0.27423 0.59306 0.606 0.0
C956 C 0.29199 0.65196 0.58663 0.0
C957 C 0.30579 0.63849 0.61239 0.0
C958 C 0.26973 0.63537 0.56999 0.0
C959 C 0.26121 0.60556 0.58036 0.0
C960 C 0.29653 0.60897 0.62189 0.0
N961 N 0.23124 0.5602 0.57543 0.0
C962 C 0.23977 0.58823 0.5641 0.0
C963 C 0.19523 0.5538 0.53366 0.0
C964 C 0.20436 0.58221 0.52134 0.0
C965 C 0.20826 0.54356 0.56133 0.0
C966 C 0.22632 0.60016 0.53693 0.0
H967 H 0.19364 0.59047 0.50032 0.0
O968 O 0.19898 0.55732 0.62928 0.0
O969 O 0.25871 0.51519 0.66311 0.0
O970 O 0.27356 0.47023 0.62352 0.0
O971 O 0.24786 0.5068 0.59348 0.0
O972 O 0.21635 0.51222 0.63941 0.0
O973 O 0.23153 0.59199 0.64522 0.0
O974 O 0.35108 0.48553 0.63238 0.0
O975 O 0.29317 0.5279 0.61397 0.0
O976 O 0.27119 0.56814 0.67018 0.0
O977 O 0.31114 0.53607 0.68625 0.0
O978 O 0.33715 0.53251 0.62928 0.0
O979 O 0.31757 0.44949 0.63991 0.0
C980 C 0.23257 0.50102 0.66168 0.0
C981 C 0.23447 0.62992 0.52671 0.0
C982 C 0.25599 0.64757 0.54332 0.0
C983 C 0.20259 0.58431 0.64213 0.0
C984 C 0.18191 0.59301 0.66762 0.0
C985 C 0.16766 0.57059 0.6862 0.0
C986 C 0.17593 0.62451 0.67299 0.0
C987 C 0.15609 0.63376 0.69696 0.0
C988 C 0.14838 0.57941 0.71019 0.0
C989 C 0.1427 0.61063 0.71565 0.0
C990 C 0.25616 0.47779 0.59977 0.0
C991 C 0.31848 0.54141 0.60794 0.0
C992 C 0.3455 0.45613 0.63087 0.0
C993 C 0.3707 0.43572 0.64139 0.0
C994 C 0.3708 0.42412 0.67157 0.0
C995 C 0.39514 0.42807 0.62134 0.0
C996 C 0.41922 0.4085 0.63133 0.0
C997 C 0.39462 0.40516 0.68168 0.0
C998 C 0.41854 0.39737 0.66184 0.0
C999 C 0.29459 0.56126 0.68892 0.0
H1000 H 0.17131 0.54632 0.68206 0.0
H1001 H 0.18633 0.64171 0.65801 0.0
H1002 H 0.1377 0.56194 0.72463 0.0
H1003 H 0.12797 0.61657 0.73474 0.0
H1004 H 0.35247 0.42973 0.68736 0.0
H1005 H 0.39513 0.43697 0.59798 0.0
H1006 H 0.39456 0.39646 0.70508 0.0
H1007 H 0.43683 0.38286 0.6706 0.0
H1008 H 0.15535 0.32956 0.54889 0.0
H1009 H 0.24118 0.28999 0.51837 0.0
H1010 H 0.26912 0.33747 0.53381 0.0
H1011 H 0.16897 0.40501 0.52339 0.0
H1012 H 0.15235 0.4243 0.55596 0.0
H1013 H 0.13912 0.3862 0.54558 0.0
H1014 H 0.15202 0.36545 0.59966 0.0
H1015 H 0.16379 0.40369 0.61084 0.0
H1016 H 0.18977 0.37187 0.61602 0.0
H1017 H 0.2869 0.3911 0.54728 0.0
H1018 H 0.29547 0.44373 0.56718 0.0
H1019 H 0.1988 0.44963 0.59106 0.0
C1020 C 0.18021 0.33039 0.5469 0.0
C1021 C 0.19632 0.30548 0.53358 0.0
C1022 C 0.22861 0.30826 0.52957 0.0
C1023 C 0.24458 0.33537 0.53785 0.0
C1024 C 0.22794 0.3599 0.54986 0.0
C1025 C 0.19661 0.35747 0.55509 0.0
C1026 C 0.18439 0.38747 0.56823 0.0
C1027 C 0.15974 0.40156 0.54701 0.0
C1028 C 0.17178 0.38181 0.6007 0.0
C1029 C 0.21353 0.40742 0.56896 0.0
C1030 C 0.23829 0.39096 0.5579 0.0
C1031 C 0.26767 0.40411 0.55604 0.0
C1032 C 0.27224 0.43426 0.56697 0.0
C1033 C 0.2477 0.45129 0.57971 0.0
C1034 C 0.21777 0.43774 0.58033 0.0
H1035 H 0.82742 0.95865 0.84384 0.0
H1036 H 0.8369 0.05237 0.8094 0.0
H1037 H 0.89036 0.04225 0.79435 0.0
H1038 H 0.8991 0.95004 0.87526 0.0
H1039 H 0.90751 0.91155 0.86221 0.0
H1040 H 0.86812 0.9231 0.86694 0.0
H1041 H 0.85336 0.91037 0.81166 0.0
H1042 H 0.89182 0.89606 0.8064 0.0
H1043 H 0.87684 0.92496 0.78057 0.0
H1044 H 0.94513 0.02334 0.78679 0.0
H1045 H 0.99318 0.9935 0.77889 0.0
H1046 H 0.94855 0.91288 0.81857 0.0
C1047 C 0.84039 0.97667 0.83218 0.0
C1048 C 0.82783 1.00646 0.82814 0.0
C1049 C 0.84593 0.02948 0.81314 0.0
C1050 C 0.87651 0.02402 0.80455 0.0
C1051 C 0.88884 0.9951 0.81045 0.0
C1052 C 0.87108 0.97147 0.82296 0.0
C1053 C 0.89001 0.94236 0.82621 0.0
C1054 C 0.89133 0.93116 0.85971 0.0
C1055 C 0.87725 0.91695 0.80493 0.0
C1056 C 0.9213 0.95387 0.8153 0.0
C1057 C 0.9202 0.98427 0.80594 0.0
C1058 C 0.94624 0.99945 0.79401 0.0
C1059 C 0.97362 0.98257 0.79008 0.0
C1060 C 0.97461 0.95099 0.7982 0.0
C1061 C 0.94842 0.93702 0.81205 0.0
H1062 H 0.3008 0.71071 0.03035 0.0
H1063 H 0.37825 0.7107 0.09327 0.0
H1064 H 0.37124 0.65456 0.10183 0.0
H1065 H 0.25685 0.65938 0.0888 0.0
H1066 H 0.23346 0.64264 0.05869 0.0
H1067 H 0.2469 0.68196 0.0553 0.0
H1068 H 0.27095 0.6683 1.00255 0.0
H1069 H 0.25874 0.62864 1.00671 0.0
H1070 H 0.29883 0.63781 1.00053 0.0
H1071 H 0.36339 0.5965 0.08922 0.0
H1072 H 0.33712 0.54573 0.0916 0.0
H1073 H 0.25283 0.58772 0.05833 0.0
C1074 C 0.3153 0.69925 0.04715 0.0
C1075 C 0.34179 0.71417 0.05933 0.0
C1076 C 0.35952 0.69875 0.08184 0.0
C1077 C 0.35573 0.66699 0.08674 0.0
C1078 C 0.33167 0.65198 0.07151 0.0
C1079 C 0.30973 0.66819 0.05511 0.0
C1080 C 0.28245 0.64741 0.04713 0.0
C1081 C 0.25318 0.65849 0.06347 0.0
C1082 C 0.27747 0.64545 1.01214 0.0
C1083 C 0.29346 0.61682 0.06027 0.0
C1084 C 0.3228 0.61977 0.07233 0.0
C1085 C 0.3396 0.59418 0.08189 0.0
C1086 C 0.32455 0.5654 0.08281 0.0
C1087 C 0.29237 0.56338 0.07754 0.0
C1088 C 0.27721 0.58887 0.06379 0.0
H1089 H 0.56969 0.07539 0.32169 0.0
H1090 H 0.59542 0.08723 0.2261 0.0
H1091 H 0.64654 0.065 0.2371 0.0
H1092 H 0.64011 0.09823 0.35231 0.0
H1093 H 0.64019 0.07127 0.38398 0.0
H1094 H 0.60414 0.08386 0.36779 0.0
H1095 H 0.58803 0.02688 0.35767 0.0
H1096 H 0.62401 0.0143 0.37421 0.0
H1097 H 0.61324 1.00244 0.3359 0.0
H1098 H 0.69717 0.04795 0.25988 0.0
H1099 H 0.74163 0.03203 0.2922 0.0
H1100 H 0.68242 0.03172 0.37255 0.0
C1101 C 0.58558 0.0719 0.30291 0.0
C1102 C 0.57854 0.08226 0.27295 0.0
C1103 C 0.60041 0.07886 0.24911 0.0
C1104 C 0.6295 0.06642 0.25516 0.0
C1105 C 0.63635 0.05754 0.28521 0.0
C1106 C 0.61487 0.05967 0.30863 0.0
C1107 C 0.62884 0.05061 0.33929 0.0
C1108 C 0.62826 0.0776 0.36218 0.0
C1109 C 0.61256 0.02184 0.35254 0.0
C1110 C 0.66147 0.0436 0.32948 0.0
C1111 C 0.66547 0.04774 0.29825 0.0
C1112 C 0.69422 0.04418 0.28434 0.0
C1113 C 0.7194 0.03548 0.30285 0.0
C1114 C 0.71547 0.03049 0.33479 0.0
C1115 C 0.68614 0.0349 0.34811 0.0
H1116 H 0.67911 0.19313 0.45878 0.0
H1117 H 0.75376 0.21755 0.52015 0.0
H1118 H 0.77866 0.16711 0.50913 0.0
H1119 H 0.67433 0.11335 0.47837 0.0
H1120 H 0.66414 0.10259 0.43958 0.0
H1121 H 0.65453 0.14028 0.45388 0.0
H1122 H 0.68501 0.16488 0.40688 0.0
H1123 H 0.69304 0.12645 0.39395 0.0
H1124 H 0.72427 0.15344 0.40063 0.0
H1125 H 0.79286 0.11041 0.49239 0.0
H1126 H 0.80014 0.06108 0.46448 0.0
H1127 H 0.71673 0.07788 0.41244 0.0
C1128 C 0.70128 0.18854 0.46884 0.0
C1129 C 0.71497 0.20979 0.48932 0.0
C1130 C 0.74338 0.20209 0.50346 0.0
C1131 C 0.75732 0.17323 0.49773 0.0
C1132 C 0.74242 0.15237 0.47792 0.0
C1133 C 0.71529 0.16025 0.46321 0.0
C1134 C 0.70346 0.13457 0.44274 0.0
C1135 C 0.67227 0.12197 0.4543 0.0
C1136 C 0.70135 0.14546 0.40904 0.0
C1137 C 0.72855 0.11104 0.4473 0.0
C1138 C 0.75042 0.12101 0.4684 0.0
C1139 C 0.77566 0.10254 0.47603 0.0
C1140 C 0.77932 0.07418 0.46053 0.0
C1141 C 0.75822 0.06488 0.43728 0.0
C1142 C 0.73238 0.08351 0.43115 0.0
H1143 H 0.0823 0.40956 0.70294 0.0
H1144 H 0.06852 0.469 0.78108 0.0
H1145 H 0.11828 0.49579 0.7698 0.0
H1146 H 0.16021 0.39798 0.70942 0.0
H1147 H 0.16791 0.39963 0.66872 0.0
H1148 H 0.13038 0.38823 0.68232 0.0
H1149 H 0.10631 0.43184 0.6481 0.0
H1150 H 0.14378 0.44497 0.63583 0.0
H1151 H 0.11824 0.47112 0.6545 0.0
H1152 H 0.17479 0.51235 0.75089 0.0
H1153 H 0.22261 0.5232 0.72084 0.0
H1154 H 0.19679 0.45144 0.65672 0.0
C1155 C 0.08898 0.42914 0.71683 0.0
C1156 C 0.07092 0.43777 0.74224 0.0
C1157 C 0.08129 0.46277 0.76068 0.0
C1158 C 0.10989 0.4777 0.75476 0.0
C1159 C 0.12785 0.4675 0.73015 0.0
C1160 C 0.117 0.44443 0.71093 0.0
C1161 C 0.13979 0.43764 0.6857 0.0
C1162 C 0.15019 0.40386 0.68655 0.0
C1163 C 0.12623 0.44682 0.65419 0.0
C1164 C 0.16601 0.45894 0.69445 0.0
C1165 C 0.15909 0.47638 0.71999 0.0
C1166 C 0.18019 0.49852 0.73098 0.0
C1167 C 0.20777 0.50408 0.71424 0.0
C1168 C 0.21396 0.48742 0.68698 0.0
C1169 C 0.19326 0.46381 0.67804 0.0
H1170 H 0.80621 0.95717 0.90401 0.0
H1171 H 0.7579 0.99032 0.98422 0.0
H1172 H 0.76913 0.94184 1.01157 0.0
H1173 H 0.78744 0.8824 0.90384 0.0
H1174 H 0.82469 0.8658 0.89668 0.0
H1175 H 0.81686 0.90472 0.88449 0.0
H1176 H 0.86368 0.9272 0.91884 0.0
H1177 H 0.8723 0.88686 0.92483 0.0
H1178 H 0.86763 0.91243 0.95707 0.0
H1179 H 0.77641 0.88698 0.02614 0.0
H1180 H 0.79289 0.83348 0.03445 0.0
H1181 H 0.8422 0.83573 0.94768 0.0
C1182 C 0.79954 0.95487 0.92791 0.0
C1183 C 0.78125 0.97771 0.94212 0.0
C1184 C 0.77205 0.97335 0.97303 0.0
C1185 C 0.77812 0.94572 0.98866 0.0
C1186 C 0.7944 0.92289 0.97342 0.0
C1187 C 0.80657 0.92771 0.94447 0.0
C1188 C 0.82429 0.89937 0.93417 0.0
C1189 C 0.81262 0.88738 0.90293 0.0
C1190 C 0.85904 0.90679 0.93359 0.0
C1191 C 0.81706 0.87683 0.96016 0.0
C1192 C 0.80011 0.89126 0.98271 0.0
C1193 C 0.79029 0.87566 1.00898 0.0
C1194 C 0.79952 0.84509 1.01331 0.0
C1195 C 0.81875 0.83022 0.99173 0.0
C1196 C 0.82695 0.84612 0.96429 0.0
H1197 H 0.43753 0.55902 0.26969 0.0
H1198 H 0.47446 0.58928 0.18174 0.0
H1199 H 0.42457 0.57698 0.15697 0.0
H1200 H 0.39354 0.49262 0.23552 0.0
H1201 H 0.36279 0.49588 0.26308 0.0
H1202 H 0.40159 0.50678 0.27371 0.0
H1203 H 0.38186 0.56068 0.28947 0.0
H1204 H 0.34318 0.55026 0.27797 0.0
H1205 H 0.36161 0.58395 0.26159 0.0
H1206 H 0.36829 0.57047 0.14414 0.0
H1207 H 0.31471 0.55219 0.13886 0.0
H1208 H 0.31597 0.51621 0.2313 0.0
C1209 C 0.43539 0.56235 0.24505 0.0
C1210 C 0.45976 0.57609 0.22784 0.0
C1211 C 0.45614 0.5794 0.19559 0.0
C1212 C 0.42773 0.57271 0.18134 0.0
C1213 C 0.40361 0.5612 0.19935 0.0
C1214 C 0.40759 0.55444 0.23015 0.0
C1215 C 0.37838 0.54001 0.24361 0.0
C1216 C 0.38444 0.50685 0.25463 0.0
C1217 C 0.36551 0.55992 0.26971 0.0
C1218 C 0.35711 0.54045 0.21569 0.0
C1219 C 0.37204 0.55372 0.1908 0.0
C1220 C 0.35681 0.55902 0.16315 0.0
C1221 C 0.3263 0.54866 0.16019 0.0
C1222 C 0.31117 0.5323 0.18392 0.0
C1223 C 0.32672 0.52875 0.21252 0.0
H1224 H 0.58464 0.16123 0.32691 0.0
H1225 H 0.50052 0.21354 0.32027 0.0
H1226 H 0.51514 0.24203 0.36785 0.0
H1227 H 0.58744 0.15139 0.40462 0.0
H1228 H 0.62852 0.15642 0.40861 0.0
H1229 H 0.61256 0.1429 0.37287 0.0
H1230 H 0.63961 0.18705 0.34359 0.0
H1231 H 0.656 0.20186 0.37874 0.0
H1232 H 0.63298 0.22649 0.35463 0.0
H1233 H 0.53819 0.25999 0.42217 0.0
H1234 H 0.57156 0.27326 0.46727 0.0
H1235 H 0.64092 0.21146 0.43315 0.0
C1236 C 0.57016 0.18 0.33433 0.0
C1237 C 0.54214 0.18613 0.31892 0.0
C1238 C 0.52285 0.20949 0.33074 0.0
C1239 C 0.53072 0.22531 0.3582 0.0
C1240 C 0.55818 0.21777 0.37346 0.0
C1241 C 0.57805 0.19641 0.361 0.0
C1242 C 0.6063 0.19222 0.38098 0.0
C1243 C 0.60883 0.15873 0.39245 0.0
C1244 C 0.63544 0.2025 0.36347 0.0
C1245 C 0.59917 0.21383 0.4072 0.0
C1246 C 0.57117 0.2282 0.40308 0.0
C1247 C 0.5602 0.24881 0.42527 0.0
C1248 C 0.57901 0.25582 0.45122 0.0
C1249 C 0.60853 0.24241 0.45466 0.0
C1250 C 0.61812 0.22098 0.43232 0.0
H1251 H 0.11269 0.31894 0.5846 0.0
H1252 H 0.04413 0.24931 0.56216 0.0
H1253 H 0.01655 0.26029 0.61069 0.0
H1254 H 0.12002 0.29947 0.65848 0.0
H1255 H 0.1228 0.33618 0.67724 0.0
H1256 H 0.1357 0.33233 0.63822 0.0
H1257 H 0.10059 0.37279 0.61538 0.0
H1258 H 0.08658 0.38225 0.65314 0.0
H1259 H 0.05992 0.3717 0.62332 0.0
H1260 H 0.99831 0.27768 0.66377 0.0
H1261 H 0.9888 0.30336 0.7137 0.0
H1262 H 0.0729 0.35657 0.70311 0.0
C1263 C 0.09108 0.30713 0.58924 0.0
C1264 C 0.07983 0.28406 0.56936 0.0
C1265 C 0.05239 0.2678 0.57684 0.0
C1266 C 0.03688 0.27358 0.6045 0.0
C1267 C 0.04948 0.29537 0.62453 0.0
C1268 C 0.07571 0.31215 0.61699 0.0
C1269 C 0.08554 0.33296 0.64307 0.0
C1270 C 0.11793 0.32479 0.65491 0.0
C1271 C 0.08314 0.36693 0.63312 0.0
C1272 C 0.06138 0.32493 0.66671 0.0
C1273 C 0.04046 0.30345 0.6556 0.0
C1274 C 0.01486 0.29417 0.67281 0.0
C1275 C 1.00992 0.3084 0.70138 0.0
C1276 C 0.03088 0.33093 0.71261 0.0
C1277 C 0.05727 0.33857 0.69545 0.0
H1278 H 1.01201 0.88435 0.87291 0.0
H1279 H 0.98823 0.81883 0.80191 0.0
H1280 H 0.94924 0.79497 0.83687 0.0
H1281 H 0.01776 0.82291 0.92763 0.0
H1282 H 1.00781 0.84714 0.95967 0.0
H1283 H 0.02674 0.8636 0.92657 0.0
H1284 H 0.98197 0.90296 0.91932 0.0
H1285 H 0.96433 0.88696 0.95308 0.0
H1286 H 0.94276 0.88875 0.91768 0.0
H1287 H 0.90725 0.78589 0.88015 0.0
H1288 H 0.88596 0.77084 0.93021 0.0
H1289 H 0.95739 0.82319 0.97678 0.0
C1290 C 0.99805 0.8655 0.86408 0.0
C1291 C 0.99991 0.85615 0.83285 0.0
C1292 C 0.98369 0.82929 0.82387 0.0
C1293 C 0.96224 0.81515 0.84404 0.0
C1294 C 0.95975 0.82644 0.8741 0.0
C1295 C 0.97914 0.84938 0.88458 0.0
C1296 C 0.9778 0.85251 0.91933 0.0
C1297 C 1.0094 0.84614 0.93417 0.0
C1298 C 0.96597 0.88467 0.92784 0.0
C1299 C 0.95438 0.82751 0.92716 0.0
C1300 C 0.94273 0.81447 0.90044 0.0
C1301 C 0.91761 0.79448 0.90119 0.0
C1302 C 0.90578 0.7858 0.92995 0.0
C1303 C 0.9206 0.79448 0.95787 0.0
C1304 C 0.94509 0.81622 0.95629 0.0
H1305 H 0.51711 0.72819 0.2061 0.0
H1306 H 0.47301 0.63843 0.20501 0.0
H1307 H 0.45188 0.64874 0.15356 0.0
H1308 H 0.45267 0.7676 0.16817 0.0
H1309 H 0.47756 0.79389 0.14742 0.0
H1310 H 0.48967 0.77847 0.18403 0.0
H1311 H 0.53947 0.75848 0.15835 0.0
H1312 H 0.5269 0.77292 0.12142 0.0
H1313 H 0.53644 0.73275 0.12595 0.0
H1314 H 0.43692 0.66813 0.1009 0.0
H1315 H 0.41807 0.69963 0.05781 0.0
H1316 H 0.46917 0.77835 0.09218 0.0
C1317 C 0.50247 0.71097 0.19527 0.0
C1318 C 0.49687 0.68212 0.20992 0.0
C1319 C 0.47787 0.66032 0.19457 0.0
C1320 C 0.46591 0.66602 0.16504 0.0
C1321 C 0.47289 0.69403 0.15079 0.0
C1322 C 0.48986 0.71661 0.16576 0.0
C1323 C 0.49206 0.74559 0.14595 0.0
C1324 C 0.47709 0.77301 0.16236 0.0
C1325 C 0.52573 0.75286 0.13743 0.0
C1326 C 0.47353 0.73576 0.11771 0.0
C1327 C 0.46341 0.70562 0.12072 0.0
C1328 C 0.44499 0.6917 0.09824 0.0
C1329 C 0.43488 0.70965 0.07319 0.0
C1330 C 0.44296 0.74119 0.07054 0.0
C1331 C 0.46353 0.75395 0.0927 0.0
H1332 H 0.14531 0.34932 0.30451 0.0
H1333 H 0.15791 0.41575 0.37788 0.0
H1334 H 0.18684 0.45012 0.34233 0.0
H1335 H 0.2224 0.36191 0.26988 0.0
H1336 H 0.20819 0.35674 0.23117 0.0
H1337 H 0.18977 0.33681 0.26274 0.0
H1338 H 0.13733 0.36048 0.24698 0.0
H1339 H 0.15561 0.38051 0.21548 0.0
H1340 H 0.13407 0.4018 0.24357 0.0
H1341 H 0.20909 0.47952 0.29743 0.0
H1342 H 0.22759 0.49995 0.24761 0.0
H1343 H 0.20477 0.41272 0.20418 0.0
C1344 C 0.15452 0.37097 0.31309 0.0
C1345 C 0.14941 0.38002 0.34388 0.0
C1346 C 0.1618 0.4084 0.35442 0.0
C1347 C 0.17816 0.42804 0.33439 0.0
C1348 C 0.18248 0.41866 0.30404 0.0
C1349 C 0.17153 0.39054 0.29355 0.0
C1350 C 0.17927 0.38608 0.25981 0.0
C1351 C 0.20121 0.35876 0.25567 0.0
C1352 C 0.14981 0.38199 0.24032 0.0
C1353 C 0.19538 0.4165 0.25269 0.0
C1354 C 0.19686 0.43499 0.27853 0.0
C1355 C 0.20856 0.46501 0.27722 0.0
C1356 C 0.21886 0.47648 0.24878 0.0
C1357 C 0.21773 0.45795 0.22202 0.0
C1358 C 0.20634 0.42735 0.22421 0.0
H1359 H 0.88628 0.8814 0.58105 0.0
H1360 H 0.91833 0.96603 0.62406 0.0
H1361 H 0.90514 0.99506 0.57669 0.0
H1362 H 0.91013 0.90107 0.50186 0.0
H1363 H 0.87639 0.88293 0.48534 0.0
H1364 H 0.89238 0.86842 0.52088 0.0
H1365 H 0.83957 0.87561 0.54888 0.0
H1366 H 0.82449 0.88756 0.51235 0.0
H1367 H 0.82042 0.91226 0.54541 0.0
H1368 H 0.88462 0.01532 0.52517 0.0
H1369 H 0.85605 0.025 0.47648 0.0
H1370 H 0.83464 0.92737 0.46979 0.0
C1371 C 0.89069 0.90603 0.58055 0.0
C1372 C 0.9033 0.92138 0.60639 0.0
C1373 C 0.90907 0.95361 0.60447 0.0
C1374 C 0.90157 0.97032 0.57766 0.0
C1375 C 0.88847 0.95447 0.55288 0.0
C1376 C 0.88318 0.923 0.55418 0.0
C1377 C 0.86689 0.91154 0.52555 0.0
C1378 C 0.8877 0.8897 0.50734 0.0
C1379 C 0.83597 0.89589 0.5336 0.0
C1380 C 0.86235 0.94168 0.50848 0.0
C1381 C 0.87575 0.96613 0.52409 0.0
C1382 C 0.87419 0.99629 0.51273 0.0
C1383 C 0.85804 1.00159 0.48506 0.0
C1384 C 0.84309 0.97695 0.46957 0.0
C1385 C 0.84571 0.94665 0.4813 0.0
H1386 H 0.35151 0.56991 0.71542 0.0
H1387 H 0.25733 0.60196 0.72029 0.0
H1388 H 0.27181 0.63525 0.76462 0.0
H1389 H 0.36624 0.56493 0.79412 0.0
H1390 H 0.40541 0.57935 0.79317 0.0
H1391 H 0.38958 0.56004 0.76029 0.0
H1392 H 0.40071 0.60557 0.72439 0.0
H1393 H 0.41869 0.62551 0.75615 0.0
H1394 H 0.38801 0.64361 0.73477 0.0
H1395 H 0.29741 0.66252 0.81235 0.0
H1396 H 0.33062 0.68043 0.85561 0.0
H1397 H 0.40791 0.63207 0.8161 0.0
C1398 C 0.33381 0.5838 0.72577 0.0
C1399 C 0.30312 0.58289 0.71447 0.0
C1400 C 0.28098 0.60217 0.72843 0.0
C1401 C 0.28903 0.62114 0.7537 0.0
C1402 C 0.31951 0.62111 0.7645 0.0
C1403 C 0.34156 0.60309 0.75057 0.0
C1404 C 0.37269 0.60685 0.76621 0.0
C1405 C 0.38409 0.57595 0.77928 0.0
C1406 C 0.39642 0.62125 0.74406 0.0
C1407 C 0.36474 0.62894 0.79179 0.0
C1408 C 0.33405 0.63718 0.79059 0.0
C1409 C 0.32152 0.65633 0.81312 0.0
C1410 C 0.34063 0.6666 0.8376 0.0
C1411 C 0.37198 0.65762 0.83958 0.0
C1412 C 0.38404 0.63917 0.81571 0.0
H1413 H 0.61598 0.15678 0.04384 0.0
H1414 H 0.64184 0.09247 0.11619 0.0
H1415 H 0.66557 0.0588 0.07745 0.0
H1416 H 0.60037 0.09818 0.98405 0.0
H1417 H 0.61606 0.12191 0.95364 0.0
H1418 H 0.59833 0.13962 0.98653 0.0
H1419 H 0.64827 0.1714 0.99666 0.0
H1420 H 0.66599 0.15392 0.96376 0.0
H1421 H 0.68446 0.15162 1.00095 0.0
H1422 H 0.69011 0.03399 0.03163 0.0
H1423 H 0.7145 0.02056 0.98222 0.0
H1424 H 0.67448 0.10109 0.93921 0.0
C1425 C 0.62647 0.13554 0.05159 0.0
C1426 C 0.6268 0.12733 0.08328 0.0
C1427 C 0.64066 0.09914 0.09217 0.0
C1428 C 0.65437 0.07987 0.07027 0.0
C1429 C 0.65393 0.08886 0.03939 0.0
C1430 C 0.64027 0.11598 0.02999 0.0
C1431 C 0.64429 0.12096 0.99554 0.0
C1432 C 0.61289 0.12012 0.97896 0.0
C1433 C 0.6618 0.15127 0.98885 0.0
C1434 C 0.6634 0.09303 0.98724 0.0
C1435 C 0.6682 0.07456 1.01285 0.0
C1436 C 0.68611 0.04807 1.01139 0.0
C1437 C 0.69985 0.04055 0.98325 0.0
C1438 C 0.69584 0.05938 0.95692 0.0
C1439 C 0.67715 0.08584 0.95885 0.0
H1440 H 0.71012 0.11396 0.67887 0.0
H1441 H 0.64562 0.18462 0.7054 0.0
H1442 H 0.6575 0.17444 0.76035 0.0
H1443 H 0.69469 0.06245 0.73056 0.0
H1444 H 0.73185 0.04882 0.74373 0.0
H1445 H 0.72736 0.06447 0.70553 0.0
H1446 H 0.76662 0.10749 0.71148 0.0
H1447 H 0.77676 0.09072 0.74817 0.0
H1448 H 0.76684 0.13097 0.74561 0.0
H1449 H 0.67309 0.15352 0.81239 0.0
H1450 H 0.69318 0.12556 0.85785 0.0
H1451 H 0.7473 0.06736 0.79831 0.0
C1452 C 0.69939 0.12801 0.6963 0.0
C1453 C 0.6772 0.15041 0.68792 0.0
C1454 C 0.66304 0.16782 0.71131 0.0
C1455 C 0.66958 0.16205 0.74258 0.0
C1456 C 0.69085 0.13919 0.75015 0.0
C1457 C 0.7063 0.12309 0.72767 0.0
C1458 C 0.72739 0.09907 0.74212 0.0
C1459 C 0.7199 0.06671 0.72985 0.0
C1460 C 0.76142 0.10758 0.73651 0.0
C1461 C 0.71942 0.10235 0.77606 0.0
C1462 C 0.69903 0.12633 0.78016 0.0
C1463 C 0.68906 0.13474 0.8094 0.0
C1464 C 0.70052 0.11866 0.83511 0.0
C1465 C 0.72119 0.09383 0.83167 0.0
C1466 C 0.73081 0.08564 0.80163 0.0
H1467 H 0.15244 0.45035 0.09655 0.0
H1468 H 0.23085 0.49644 0.05442 0.0
H1469 H 0.21287 0.47963 1.00308 0.0
H1470 H 0.14967 0.38383 0.04459 0.0
H1471 H 0.10822 0.38246 0.04558 0.0
H1472 H 0.12941 0.39748 0.07805 0.0
H1473 H 0.09657 0.44764 0.07282 0.0
H1474 H 0.07739 0.43257 0.03914 0.0
H1475 H 0.09757 0.46907 0.03715 0.0
H1476 H 0.18585 0.45801 0.95593 0.0
H1477 H 0.15366 0.43062 0.91732 0.0
H1478 H 0.09275 0.39883 0.99003 0.0
C1479 C 0.16582 0.45672 0.07646 0.0
C1480 C 0.19336 0.47414 0.07947 0.0
C1481 C 0.21005 0.48252 0.05269 0.0
C1482 C 0.1999 0.47324 0.0234 0.0
C1483 C 0.17279 0.45585 0.02118 0.0
C1484 C 0.15606 0.44751 0.04701 0.0
C1485 C 0.12771 0.42871 0.03825 0.0
C1486 C 0.12885 0.39621 0.05251 0.0
C1487 C 0.09806 0.44551 0.04738 0.0
C1488 C 0.13126 0.42753 1.00356 0.0
C1489 C 0.15726 0.44353 0.99411 0.0
C1490 C 0.16542 0.44542 0.9631 0.0
C1491 C 0.1469 0.42998 0.94129 0.0
C1492 C 0.12071 0.41258 0.95061 0.0
C1493 C 0.1127 0.41182 0.98217 0.0
H1494 H 0.83179 0.90387 0.34674 0.0
H1495 H 0.77494 0.978 0.31168 0.0
H1496 H 0.78478 0.96138 0.25867 0.0
H1497 H 0.89017 0.90461 0.28642 0.0
H1498 H 0.89288 0.86333 0.2872 0.0
H1499 H 0.88124 0.88351 0.3213 0.0
H1500 H 0.8324 0.84713 0.32109 0.0
H1501 H 0.844 0.83008 0.28522 0.0
H1502 H 0.80676 0.84789 0.28831 0.0
H1503 H 0.80138 0.93778 0.20932 0.0
H1504 H 0.82723 0.91075 0.16662 0.0
H1505 H 0.87399 0.85199 0.23248 0.0
C1506 C 0.82155 0.91654 0.32781 0.0
C1507 C 0.80336 0.94283 0.33331 0.0
C1508 C 0.78977 0.9585 0.30807 0.0
C1509 C 0.79494 0.94897 0.2778 0.0
C1510 C 0.81335 0.92333 0.27304 0.0
C1511 C 0.82659 0.90731 0.29725 0.0
C1512 C 0.84559 0.88059 0.28547 0.0
C1513 C 0.87946 0.88323 0.29578 0.0
C1514 C 0.83133 0.84959 0.29563 0.0
C1515 C 0.84228 0.88525 0.25096 0.0
C1516 C 0.82285 0.90951 0.24435 0.0
C1517 C 0.8165 0.91861 0.21417 0.0
C1518 C 0.83109 0.90308 0.19008 0.0
C1519 C 0.85218 0.8792 0.19639 0.0
C1520 C 0.85754 0.86992 0.22717 0.0
H1521 H 0.31586 0.5908 0.56658 0.0
H1522 H 0.35383 0.49959 0.57663 0.0
H1523 H 0.38235 0.50725 0.52803 0.0
H1524 H 0.30424 0.58302 0.47987 0.0
H1525 H 0.30916 0.62431 0.47693 0.0
H1526 H 0.29232 0.60723 0.51088 0.0
H1527 H 0.33486 0.63812 0.54201 0.0
H1528 H 0.35281 0.65138 0.50721 0.0
H1529 H 0.37478 0.62968 0.53504 0.0
H1530 H 0.41211 0.52975 0.47977 0.0
H1531 H 0.4334 0.5607 0.43659 0.0
H1532 H 0.36521 0.63118 0.45437 0.0
C1533 C 0.32814 0.57151 0.55824 0.0
C1534 C 0.3313 0.5443 0.57586 0.0
C1535 C 0.35061 0.52083 0.564 0.0
C1536 C 0.36694 0.52492 0.53615 0.0
C1537 C 0.36307 0.5523 0.51957 0.0
C1538 C 0.34317 0.57464 0.52987 0.0
C1539 C 0.34213 0.60181 0.50793 0.0
C1540 C 0.31008 0.60429 0.49297 0.0
C1541 C 0.35172 0.63201 0.52402 0.0
C1542 C 0.36581 0.59228 0.48455 0.0
C1543 C 0.37796 0.56375 0.49143 0.0
C1544 C 0.40207 0.5518 0.47394 0.0
C1545 C 0.41396 0.56958 0.44919 0.0
C1546 C 0.40155 0.59897 0.44176 0.0
C1547 C 0.37639 0.60955 0.45945 0.0
H1548 H 0.2075 0.16292 0.4543 0.0
H1549 H 0.23261 0.26006 0.45255 0.0
H1550 H 0.28224 0.24751 0.42845 0.0
H1551 H 0.28359 0.13301 0.46997 0.0
H1552 H 0.27891 0.10025 0.44495 0.0
H1553 H 0.24568 0.11695 0.46297 0.0
H1554 H 0.22041 0.12404 0.40911 0.0
H1555 H 0.25386 0.10771 0.39118 0.0
H1556 H 0.24082 0.14546 0.37978 0.0
H1557 H 0.33016 0.22457 0.40724 0.0
H1558 H 0.37198 0.19313 0.38657 0.0
H1559 H 0.31421 0.11103 0.39642 0.0
C1560 C 0.22351 0.18144 0.44878 0.0
C1561 C 0.21624 0.21246 0.45521 0.0
C1562 C 0.23761 0.23616 0.44751 0.0
C1563 C 0.26594 0.22927 0.43398 0.0
C1564 C 0.27247 0.19855 0.42783 0.0
C1565 C 0.2518 0.175 0.43459 0.0
C1566 C 0.26436 0.14409 0.42454 0.0
C1567 C 0.26836 0.12229 0.45227 0.0
C1568 C 0.24363 0.12947 0.39967 0.0
C1569 C 0.29537 0.15399 0.41146 0.0
C1570 C 0.29964 0.18546 0.4139 0.0
C1571 C 0.3269 0.19992 0.40469 0.0
C1572 C 0.35051 0.18176 0.3926 0.0
C1573 C 0.34668 0.14936 0.38922 0.0
C1574 C 0.31843 0.13554 0.39877 0.0
H1575 H 0.102 0.08409 0.66777 0.0
H1576 H 0.15554 0.04413 0.59434 0.0
H1577 H 0.13654 0.9921 0.60899 0.0
H1578 H 0.1155 0.03259 0.72053 0.0
H1579 H 0.07878 0.02535 0.73908 0.0
H1580 H 0.08684 0.06206 0.72105 0.0
H1581 H 0.04298 0.06066 0.68279 0.0
H1582 H 0.02907 0.02659 0.70247 0.0
H1583 H 0.03484 0.02598 0.6614 0.0
H1584 H 0.11453 0.94445 0.63313 0.0
H1585 H 0.09031 0.90358 0.6648 0.0
H1586 H 0.05215 0.97291 0.72497 0.0
C1587 C 0.10878 0.06441 0.6542 0.0
C1588 C 0.12984 0.06806 0.62954 0.0
C1589 C 0.13904 0.04179 0.61289 0.0
C1590 C 0.1284 1.01218 0.62112 0.0
C1591 C 0.10826 1.00915 0.64596 0.0
C1592 C 0.09791 0.03456 0.66187 0.0
C1593 C 0.0775 0.02449 0.68867 0.0
C1594 C 0.09036 0.03677 0.71925 0.0
C1595 C 0.04412 0.03506 0.68352 0.0
C1596 C 0.07967 0.98946 0.68651 0.0
C1597 C 0.09681 0.98131 0.66107 0.0
C1598 C 0.10114 0.95056 0.65313 0.0
C1599 C 0.08736 0.92748 0.67131 0.0
C1600 C 0.07002 0.93494 0.69774 0.0
C1601 C 0.06605 0.96647 0.70541 0.0
H1602 H 0.1783 0.81189 0.93323 0.0
H1603 H 0.21325 0.87794 0.86614 0.0
H1604 H 0.26653 0.86518 0.8814 0.0
H1605 H 0.22958 0.82859 0.99129 0.0
H1606 H 0.23736 0.79014 1.00513 0.0
H1607 H 0.20075 0.7989 0.98752 0.0
H1608 H 0.20543 0.7581 0.94591 0.0
H1609 H 0.24058 0.74549 0.96411 0.0
H1610 H 0.24037 0.7555 0.92378 0.0
H1611 H 0.31622 0.84401 0.90292 0.0
H1612 H 0.35845 0.81881 0.93191 0.0
H1613 H 0.2914 0.7705 0.98826 0.0
C1614 C 0.1971 0.82375 0.92172 0.0
C1615 C 0.19139 0.84592 0.89834 0.0
C1616 C 0.21685 0.86052 0.8837 0.0
C1617 C 0.24726 0.85355 0.89235 0.0
C1618 C 0.25197 0.8319 0.91568 0.0
C1619 C 0.2276 0.81713 0.93011 0.0
C1620 C 0.23895 0.79519 0.95493 0.0
C1621 C 0.22596 0.80371 0.98661 0.0
C1622 C 0.23085 0.76158 0.94668 0.0
C1623 C 0.27346 0.80091 0.95306 0.0
C1624 C 0.28052 0.82153 0.92968 0.0
C1625 C 0.31095 0.82851 0.92181 0.0
C1626 C 0.33478 0.81446 0.93861 0.0
C1627 C 0.32805 0.79448 0.96354 0.0
C1628 C 0.29702 0.78702 0.9703 0.0
H1629 H 0.44895 0.10547 0.1617 0.0
H1630 H 0.50719 0.06152 0.22996 0.0
H1631 H 0.49297 1.01043 0.20936 0.0
H1632 H 0.38783 0.04824 0.16192 0.0
H1633 H 0.38124 0.05132 0.12109 0.0
H1634 H 0.3963 0.08394 0.14207 0.0
H1635 H 0.44262 0.08618 0.10412 0.0
H1636 H 0.42777 0.05289 0.08403 0.0
H1637 H 0.46637 0.05258 0.09959 0.0
H1638 H 0.47105 0.96345 0.18182 0.0
H1639 H 0.44279 0.92503 0.15024 0.0
H1640 H 0.4004 0.99946 0.09851 0.0
C1641 C 0.45867 0.08505 0.17225 0.0
C1642 C 0.47852 0.08752 0.19804 0.0
C1643 C 0.49126 0.06029 0.21083 0.0
C1644 C 0.48348 0.03108 0.19908 0.0
C1645 C 0.46331 0.02935 0.17409 0.0
C1646 C 0.45115 0.05563 0.16073 0.0
C1647 C 0.42991 0.04737 0.13412 0.0
C1648 C 0.39687 0.05839 0.14018 0.0
C1649 C 0.44242 0.06054 0.10366 0.0
C1650 C 0.43171 1.01241 0.13485 0.0
C1651 C 0.45119 1.00243 0.15797 0.0
C1652 C 0.45591 0.97105 0.16349 0.0
C1653 C 0.43991 0.94934 0.14525 0.0
C1654 C 0.41927 0.95901 0.12179 0.0
C1655 C 0.41571 0.9911 0.11638 0.0
H1656 H 0.78555 0.39773 0.67548 0.0
H1657 H 0.86405 0.36536 0.62375 0.0
H1658 H 0.82917 0.33233 0.59243 0.0
H1659 H 0.74408 0.32213 0.6753 0.0
H1660 H 0.70682 0.34011 0.67292 0.0
H1661 H 0.73835 0.35958 0.69209 0.0
H1662 H 0.72951 0.40641 0.65736 0.0
H1663 H 0.69945 0.38737 0.63568 0.0
H1664 H 0.7329 0.40294 0.61635 0.0
H1665 H 0.78492 0.30441 0.565 0.0
H1666 H 0.7357 0.2831 0.54499 0.0
H1667 H 0.68574 0.33285 0.6149 0.0
C1668 C 0.79543 0.38345 0.65774 0.0
C1669 C 0.82764 0.38421 0.65206 0.0
C1670 C 0.83959 0.36502 0.62874 0.0
C1671 C 0.81989 0.34627 0.61073 0.0
C1672 C 0.78822 0.34642 0.61663 0.0
C1673 C 0.77614 0.36415 0.63995 0.0
C1674 C 0.7413 0.36 0.64175 0.0
C1675 C 0.7321 0.34453 0.67233 0.0
C1676 C 0.7248 0.39099 0.63749 0.0
C1677 C 0.73543 0.33839 0.61482 0.0
C1678 C 0.76287 0.33047 0.60092 0.0
C1679 C 0.76337 0.31054 0.57577 0.0
C1680 C 0.73524 0.29865 0.56439 0.0
C1681 C 0.70676 0.307 0.57775 0.0
C1682 C 0.70708 0.32654 0.60381 0.0
H1683 H 0.92669 0.45895 0.83378 0.0
H1684 H 0.02055 0.49344 0.82672 0.0
H1685 H 1.00486 0.54244 0.85107 0.0
H1686 H 0.88866 0.52892 0.8171 0.0
H1687 H 0.85799 0.52244 0.84429 0.0
H1688 H 0.87726 0.49011 0.82731 0.0
H1689 H 0.8902 0.4692 0.88195 0.0
H1690 H 0.87106 0.50166 0.8989 0.0
H1691 H 0.91062 0.49367 0.90878 0.0
H1692 H 0.97733 0.58948 0.87182 0.0
H1693 H 0.94176 0.62897 0.89073 0.0
H1694 H 0.86692 0.56143 0.889 0.0
C1695 C 0.94398 0.47671 0.83775 0.0
C1696 C 0.97482 0.47253 0.82848 0.0
C1697 C 0.99686 0.49617 0.83399 0.0
C1698 C 0.98811 0.52409 0.84762 0.0
C1699 C 0.95735 0.52771 0.85612 0.0
C1700 C 0.93575 0.50444 0.85182 0.0
C1701 C 0.90422 0.51406 0.86291 0.0
C1702 C 0.88065 0.51386 0.83632 0.0
C1703 C 0.89339 0.49342 0.88973 0.0
C1704 C 0.91125 0.54662 0.8736 0.0
C1705 C 0.94195 0.55416 0.86934 0.0
C1706 C 0.95336 0.58359 0.87584 0.0
C1707 C 0.93287 0.60589 0.88689 0.0
C1708 C 0.90122 0.59868 0.8918 0.0
C1709 C 0.89067 0.56829 0.8853 0.0
H1710 H 0.79032 0.74129 0.05407 0.0
H1711 H 0.8556 0.68966 0.10929 0.0
H1712 H 0.81251 0.66407 0.13672 0.0
H1713 H 0.73735 0.75311 0.11797 0.0
H1714 H 0.70291 0.75073 0.09472 0.0
H1715 H 0.73845 0.76468 0.07806 0.0
H1716 H 0.73707 0.7212 0.03529 0.0
H1717 H 0.69957 0.71248 0.05092 0.0
H1718 H 0.72744 0.6824 0.04803 0.0
H1719 H 0.76243 0.64327 0.15787 0.0
H1720 H 0.70869 0.62683 0.16896 0.0
H1721 H 0.67516 0.6921 0.10118 0.0
C1722 C 0.79541 0.7242 0.07159 0.0
C1723 C 0.82638 0.71692 0.07914 0.0
C1724 C 0.83212 0.69526 0.10292 0.0
C1725 C 0.80778 0.68069 0.11869 0.0
C1726 C 0.77758 0.68845 0.11099 0.0
C1727 C 0.77121 0.70968 0.08799 0.0
C1728 C 0.73657 0.71465 0.0853 0.0
C1729 C 0.72834 0.74776 0.09457 0.0
C1730 C 0.72455 0.70729 0.05287 0.0
C1731 C 0.72453 0.69135 0.10875 0.0
C1732 C 0.74863 0.6771 0.12389 0.0
C1733 C 0.74339 0.65436 0.1462 0.0
C1734 C 0.71283 0.64522 0.15248 0.0
C1735 C 0.68788 0.65837 0.13617 0.0
C1736 C 0.69385 0.682 0.11429 0.0
H1737 H 0.64125 0.48718 0.42133 0.0
H1738 H 0.60644 0.41117 0.36629 0.0
H1739 H 0.57742 0.4482 0.33375 0.0
H1740 H 0.57088 0.53353 0.41809 0.0
H1741 H 0.59224 0.56939 0.41655 0.0
H1742 H 0.60829 0.53649 0.43615 0.0
H1743 H 0.65679 0.54168 0.40262 0.0
H1744 H 0.64088 0.57347 0.38114 0.0
H1745 H 0.6535 0.53936 0.3614 0.0
H1746 H 0.55407 0.4949 0.30545 0.0
H1747 H 0.53631 0.54582 0.28652 0.0
H1748 H 0.58705 0.59085 0.36002 0.0
C1749 C 0.62728 0.47823 0.4026 0.0
C1750 C 0.6262 0.44614 0.39638 0.0
C1751 C 0.60743 0.43551 0.37176 0.0
C1752 C 0.59105 0.45646 0.35301 0.0
C1753 C 0.59336 0.48801 0.35932 0.0
C1754 C 0.61069 0.49874 0.38387 0.0
C1755 C 0.60967 0.53367 0.38582 0.0
C1756 C 0.59435 0.54386 0.41594 0.0
C1757 C 0.64213 0.5479 0.38254 0.0
C1758 C 0.58955 0.54113 0.35819 0.0
C1759 C 0.58025 0.51452 0.34317 0.0
C1760 C 0.56132 0.51578 0.3171 0.0
C1761 C 0.55151 0.54482 0.30634 0.0
C1762 C 0.56097 0.57235 0.3213 0.0
C1763 C 0.57994 0.57025 0.34777 0.0
H1764 H 0.42341 0.36117 0.20308 0.0
H1765 H 0.34209 0.32688 0.1555 0.0
H1766 H 0.351 0.27485 0.17766 0.0
H1767 H 0.46865 0.30131 0.18746 0.0
H1768 H 0.48945 0.2994 0.22358 0.0
H1769 H 0.47355 0.33533 0.21062 0.0
H1770 H 0.4419 0.34117 0.26008 0.0
H1771 H 0.45854 0.30603 0.27469 0.0
H1772 H 0.41722 0.30999 0.27285 0.0
H1773 H 0.37304 0.22468 0.20082 0.0
H1774 H 0.40653 0.18254 0.22018 0.0
H1775 H 0.47435 0.25048 0.24944 0.0
C1776 C 0.40707 0.34288 0.19777 0.0
C1777 C 0.38207 0.34813 0.17748 0.0
C1778 C 0.36122 0.32354 0.17124 0.0
C1779 C 0.36616 0.29387 0.18371 0.0
C1780 C 0.39182 0.28926 0.20272 0.0
C1781 C 0.41169 0.31334 0.20995 0.0
C1782 C 0.43924 0.3022 0.22822 0.0
C1783 C 0.46954 0.30998 0.21147 0.0
C1784 C 0.4392 0.31564 0.2609 0.0
C1785 C 0.43276 0.26783 0.22882 0.0
C1786 C 0.40489 0.26073 0.21488 0.0
C1787 C 0.39471 0.23012 0.21207 0.0
C1788 C 0.41378 0.20631 0.22324 0.0
C1789 C 0.44294 0.21327 0.23638 0.0
C1790 C 0.4521 0.24447 0.2396 0.0
H1791 H 0.9725 0.29883 0.76698 0.0
H1792 H 0.92294 0.36352 0.82335 0.0
H1793 H 0.89414 0.32023 0.84763 0.0
H1794 H 0.90734 0.25452 0.75 0.0
H1795 H 0.92676 0.21796 0.74874 0.0
H1796 H 0.94766 0.253 0.74016 0.0
H1797 H 0.98802 0.24099 0.78334 0.0
H1798 H 0.96758 0.20514 0.78991 0.0
H1799 H 0.97435 0.2312 0.82133 0.0
H1800 H 0.86906 0.2701 0.86375 0.0
H1801 H 0.8445 0.21838 0.86554 0.0
H1802 H 0.90707 0.18688 0.79495 0.0
C1803 C 0.95631 0.30362 0.78519 0.0
C1804 C 0.9512 0.33417 0.79484 0.0
C1805 C 0.92843 0.34003 0.81718 0.0
C1806 C 0.91185 0.31561 0.83084 0.0
C1807 C 0.91785 0.28557 0.8213 0.0
C1808 C 0.93927 0.27953 0.79866 0.0
C1809 C 0.93815 0.24589 0.78925 0.0
C1810 C 0.92945 0.24267 0.75501 0.0
C1811 C 0.96887 0.2299 0.79639 0.0
C1812 C 0.9126 0.23397 0.80998 0.0
C1813 C 0.90167 0.25707 0.82875 0.0
C1814 C 0.87755 0.25179 0.84931 0.0
C1815 C 0.86384 0.22232 0.85028 0.0
C1816 C 0.87392 0.19864 0.83045 0.0
C1817 C 0.89891 0.20455 0.81038 0.0
H1818 H 0.08998 0.68502 0.11361 0.0
H1819 H 0.0702 0.58808 0.09825 0.0
H1820 H 0.02114 0.60199 0.07236 0.0
H1821 H 0.0141 0.70681 0.13236 0.0
H1822 H 0.01866 0.74394 0.11409 0.0
H1823 H 0.05178 0.72451 0.12892 0.0
H1824 H 0.07608 0.73043 0.07421 0.0
H1825 H 0.04148 0.74831 0.05992 0.0
H1826 H 0.05607 0.71429 0.04147 0.0
H1827 H 0.97204 0.62713 0.05137 0.0
H1828 H 0.92867 0.66055 0.03613 0.0
H1829 H 0.98112 0.74098 0.0658 0.0
C1830 C 0.07548 0.6667 0.10453 0.0
C1831 C 0.0839 0.63544 0.10806 0.0
C1832 C 0.06438 0.61219 0.0956 0.0
C1833 C 0.03641 0.61991 0.08097 0.0
C1834 C 0.02843 0.651 0.07865 0.0
C1835 C 0.04769 0.67398 0.08977 0.0
C1836 C 0.03345 0.70551 0.08577 0.0
C1837 C 0.02921 0.72104 0.11718 0.0
C1838 C 0.05294 0.72582 0.06405 0.0
C1839 C 1.00276 0.69682 0.07119 0.0
C1840 C 1.00035 0.66528 0.06703 0.0
C1841 C 0.97382 0.65186 0.05441 0.0
C1842 C 0.94922 0.6711 0.04585 0.0
C1843 C 0.95108 0.70352 0.05005 0.0
C1844 C 0.97849 0.71635 0.06269 0.0
H1845 H 0.63143 0.80918 0.40891 0.0
H1846 H 0.65938 0.8612 0.32767 0.0
H1847 H 0.64308 0.81767 0.2951 0.0
H1848 H 0.65029 0.73286 0.38168 0.0
H1849 H 0.61665 0.71504 0.39862 0.0
H1850 H 0.63372 0.74881 0.41605 0.0
H1851 H 0.58144 0.77813 0.41211 0.0
H1852 H 0.56504 0.74322 0.39686 0.0
H1853 H 0.5614 0.77888 0.37563 0.0
H1854 H 0.62278 0.76805 0.27086 0.0
H1855 H 0.59573 0.71945 0.25703 0.0
H1856 H 0.57517 0.70281 0.35325 0.0
C1857 C 0.63402 0.81188 0.38429 0.0
C1858 C 0.64709 0.83915 0.37128 0.0
C1859 C 0.65033 0.84066 0.33875 0.0
C1860 C 0.64085 0.81599 0.31986 0.0
C1861 C 0.6277 0.78986 0.33356 0.0
C1862 C 0.624 0.78782 0.36503 0.0
C1863 C 0.60734 0.75815 0.37395 0.0
C1864 C 0.62826 0.7375 0.39375 0.0
C1865 C 0.57698 0.76506 0.39057 0.0
C1866 C 0.60158 0.74403 0.3425 0.0
C1867 C 0.61424 0.76233 0.31955 0.0
C1868 C 0.61267 0.75369 0.28867 0.0
C1869 C 0.59739 0.72598 0.28103 0.0
C1870 C 0.5832 0.70751 0.30401 0.0
C1871 C 0.58549 0.71667 0.33517 0.0
H1872 H 0.55113 0.29579 0.57352 0.0
H1873 H 0.59321 0.37278 0.52467 0.0
H1874 H 0.54938 0.40573 0.5397 0.0
H1875 H 0.47244 0.31161 0.5567 0.0
H1876 H 0.45892 0.30068 0.59443 0.0
H1877 H 0.49306 0.28326 0.57901 0.0
H1878 H 0.52402 0.30075 0.62709 0.0
H1879 H 0.4901 0.31803 0.6427 0.0
H1880 H 0.52477 0.34081 0.63768 0.0
H1881 H 0.49993 0.4308 0.56212 0.0
H1882 H 0.45308 0.44519 0.59124 0.0
H1883 H 0.44512 0.3513 0.62529 0.0
C1884 C 0.55149 0.31957 0.56602 0.0
C1885 C 0.57604 0.33148 0.5479 0.0
C1886 C 0.5749 0.36288 0.53853 0.0
C1887 C 0.54997 0.38182 0.54695 0.0
C1888 C 0.5263 0.36922 0.56497 0.0
C1889 C 0.52714 0.33879 0.57456 0.0
C1890 C 0.49974 0.33083 0.59479 0.0
C1891 C 0.47987 0.30507 0.58036 0.0
C1892 C 0.5103 0.32211 0.6275 0.0
C1893 C 0.48301 0.36132 0.5949 0.0
C1894 C 0.49853 0.38333 0.57764 0.0
C1895 C 0.48769 0.41358 0.57557 0.0
C1896 C 0.46091 0.42154 0.59208 0.0
C1897 C 0.44533 0.39947 0.61073 0.0
C1898 C 0.45647 0.36887 0.61149 0.0
H1899 H 0.10131 0.65952 0.71626 0.0
H1900 H 0.19505 0.68431 0.69057 0.0
H1901 H 0.1835 0.73914 0.70001 0.0
H1902 H 0.06268 0.72558 0.68441 0.0
H1903 H 0.03613 0.72701 0.71628 0.0
H1904 H 0.0528 0.69089 0.7054 0.0
H1905 H 0.07157 0.68513 0.76228 0.0
H1906 H 0.05608 0.72233 0.77167 0.0
H1907 H 0.09628 0.71455 0.77858 0.0
H1908 H 0.16157 0.79198 0.71344 0.0
H1909 H 0.131 0.83746 0.72825 0.0
H1910 H 0.05205 0.77767 0.74571 0.0
C1911 C 0.11963 0.67631 0.71284 0.0
C1912 C 0.14917 0.66721 0.70251 0.0
C1913 C 0.17209 0.6904 0.69794 0.0
C1914 C 0.16581 0.72171 0.7035 0.0
C1915 C 0.13652 0.72971 0.71378 0.0
C1916 C 0.11384 0.7076 0.71845 0.0
C1917 C 0.08435 0.72205 0.73 0.0
C1918 C 0.05743 0.71604 0.70763 0.0
C1919 C 0.07663 0.71031 0.76256 0.0
C1920 C 0.09367 0.75588 0.73042 0.0
C1921 C 0.12396 0.75985 0.72132 0.0
C1922 C 0.13781 0.78907 0.7205 0.0
C1923 C 0.12025 0.81482 0.72903 0.0
C1924 C 0.08903 0.81134 0.73805 0.0
C1925 C 0.07577 0.78132 0.73875 0.0
H1926 H 0.46436 0.82228 0.9252 0.0
H1927 H 0.48947 0.83748 0.02072 0.0
H1928 H 0.53778 0.86323 1.00427 0.0
H1929 H 0.53958 0.80773 0.89609 0.0
H1930 H 0.53415 0.8287 0.86058 0.0
H1931 H 0.5015 0.81137 0.87972 0.0
H1932 H 0.47437 0.86435 0.88096 0.0
H1933 H 0.50688 0.88183 0.86166 0.0
H1934 H 0.49399 0.897 0.89792 0.0
H1935 H 0.58521 0.88363 0.97749 0.0
H1936 H 0.62601 0.90183 0.94278 0.0
H1937 H 0.56757 0.87956 0.86409 0.0
C1938 C 0.48004 0.83114 0.94258 0.0
C1939 C 0.47325 0.82779 0.97426 0.0
C1940 C 0.49413 0.83995 0.99635 0.0
C1941 C 0.5217 0.8545 0.98722 0.0
C1942 C 0.52782 0.85734 0.95585 0.0
C1943 C 0.50736 0.84651 0.93383 0.0
C1944 C 0.51916 0.85346 0.90165 0.0
C1945 C 0.52388 0.82353 0.88344 0.0
C1946 C 0.4973 0.87547 0.88454 0.0
C1947 C 0.54976 0.86918 0.90903 0.0
C1948 C 0.55437 0.87095 0.94043 0.0
C1949 C 0.58156 0.883 0.95284 0.0
C1950 C 0.60461 0.89366 0.93271 0.0
C1951 C 0.60038 0.89289 0.90024 0.0
C1952 C 0.57221 0.88048 0.88855 0.0
H1953 H 0.9259 0.15979 0.47738 0.0
H1954 H 0.95214 0.11481 0.39222 0.0
H1955 H 1.00622 0.12989 0.40164 0.0
H1956 H 0.9727 0.22486 0.46527 0.0
H1957 H 0.98386 0.23078 0.50491 0.0
H1958 H 0.94717 0.21318 0.49575 0.0
H1959 H 0.95864 0.16457 0.52734 0.0
H1960 H 0.99463 0.18188 0.53931 0.0
H1961 H 0.99429 0.14435 0.52156 0.0
H1962 H 0.05897 0.14793 0.42265 0.0
H1963 H 0.10324 0.1732 0.44939 0.0
H1964 H 0.04041 0.21311 0.51492 0.0
C1965 C 0.94266 0.15322 0.46031 0.0
C1966 C 0.93411 0.13569 0.43407 0.0
C1967 C 0.95762 0.1274 0.413 0.0
C1968 C 0.98859 0.13613 0.41798 0.0
C1969 C 0.9959 0.15365 0.44387 0.0
C1970 C 0.97345 0.1624 0.46445 0.0
C1971 C 0.98676 0.18283 0.48947 0.0
C1972 C 0.97177 0.21484 0.48882 0.0
C1973 C 0.98338 0.16748 0.5213 0.0
C1974 C 0.02022 0.1844 0.47971 0.0
C1975 C 0.02532 0.16679 0.45382 0.0
C1976 C 0.05504 0.16255 0.44234 0.0
C1977 C 0.08 0.1772 0.45739 0.0
C1978 C 0.07487 0.19673 0.48282 0.0
C1979 C 0.04468 0.19967 0.49443 0.0
loop_
_geom_bond_atom_site_label_1
_geom_bond_atom_site_label_2
_geom_bond_distance
_geom_bond_site_symmetry_2
_ccdc_geom_bond_type
Gd0 N31 2.661 . S
Gd0 N37 2.601 . S
Gd0 O44 2.545 . S
Gd0 O45 2.606 . S
Gd0 O47 2.429 . S
Gd0 O48 2.545 . S
Gd0 O49 2.412 . S
Gd0 O51 2.362 . S
Gd0 O52 2.324 . S
Gd0 C59 2.828 . S
Gd1 N10 2.661 . S
Gd1 N14 2.601 . S
Gd1 O45 2.362 . S
Gd1 O46 2.324 . S
Gd1 O50 2.545 . S
Gd1 O51 2.606 . S
Gd1 O53 2.429 . S
Gd1 O54 2.545 . S
Gd1 O55 2.412 . S
Gd1 C68 2.828 . S
C2 C5 1.417 . S
C2 C7 1.431 . S
C2 C8 1.412 . S
C3 C6 1.437 . S
C3 C7 1.317 . S
C3 H22 0.929 . S
C4 C5 1.426 . S
C4 C6 1.413 . S
C4 N14 1.359 . S
C5 C2 1.417 . S
C5 C4 1.426 . S
C5 N10 1.350 . S
C6 C3 1.437 . S
C6 C4 1.413 . S
C6 C16 1.391 . S
C7 C2 1.431 . S
C7 C3 1.317 . S
C7 H18 0.930 . S
C8 C2 1.412 . S
C8 C9 1.355 . S
C8 H20 0.930 . S
C9 C8 1.355 . S
C9 C11 1.402 . S
C9 H21 0.930 . S
N10 Gd1 2.661 . S
N10 C5 1.350 . S
N10 C11 1.307 . S
C11 C9 1.402 . S
C11 N10 1.307 . S
C11 H12 0.930 . S
H12 C11 0.930 . S
C13 N14 1.334 . S
C13 C15 1.394 . S
C13 H17 0.930 . S
N14 Gd1 2.601 . S
N14 C4 1.359 . S
N14 C13 1.334 . S
C15 C13 1.394 . S
C15 C16 1.359 . S
C15 H27 0.930 . S
C16 C6 1.391 . S
C16 C15 1.359 . S
C16 H28 0.929 . S
H17 C13 0.930 . S
H18 C7 0.930 . S
H19 C36 0.930 . S
H20 C8 0.930 . S
H21 C9 0.930 . S
H22 C3 0.929 . S
H23 C41 0.930 . S
H24 C32 0.930 . S
H25 C33 0.930 . S
H26 C57 0.929 . S
H27 C15 0.930 . S
H28 C16 0.929 . S
H29 C58 0.930 . S
H30 C39 0.930 . S
N31 Gd0 2.661 . S
N31 C35 1.350 . S
N31 C36 1.307 . S
C32 H24 0.930 . S
C32 C33 1.355 . S
C32 C34 1.412 . S
C33 H25 0.930 . S
C33 C32 1.355 . S
C33 C36 1.402 . S
C34 C32 1.412 . S
C34 C35 1.417 . S
C34 C58 1.431 . S
C35 N31 1.350 . S
C35 C34 1.417 . S
C35 C38 1.426 . S
C36 H19 0.930 . S
C36 N31 1.307 . S
C36 C33 1.402 . S
N37 Gd0 2.601 . S
N37 C38 1.359 . S
N37 C41 1.334 . S
C38 C35 1.426 . S
C38 N37 1.359 . S
C38 C42 1.413 . S
C39 H30 0.930 . S
C39 C40 1.359 1_455 S
C39 C41 1.394 . S
C40 C39 1.359 1_655 S
C40 C42 1.391 1_655 S
C40 H43 0.929 . S
C41 H23 0.930 . S
C41 N37 1.334 . S
C41 C39 1.394 . S
C42 C38 1.413 . S
C42 C40 1.391 1_455 S
C42 C57 1.437 1_455 S
H43 C40 0.929 . S
O44 Gd0 2.545 . S
O44 C59 1.258 . S
O45 Gd0 2.606 . S
O45 Gd1 2.362 . S
O45 C56 1.284 . S
O46 Gd1 2.324 . S
O46 C66 1.254 . S
O47 Gd0 2.429 . S
O47 C66 1.268 . S
O48 Gd0 2.545 . S
O48 C56 1.250 . S
O49 Gd0 2.412 . S
O49 C59 1.252 . S
O50 Gd1 2.545 . S
O50 C68 1.258 . S
O51 Gd0 2.362 . S
O51 Gd1 2.606 . S
O51 C67 1.284 . S
O52 Gd0 2.324 . S
O52 C75 1.254 . S
O53 Gd1 2.429 . S
O53 C75 1.268 . S
O54 Gd1 2.545 . S
O54 C67 1.250 . S
O55 Gd1 2.412 . S
O55 C68 1.252 . S
C56 O45 1.284 . S
C56 O48 1.250 . S
C57 H26 0.929 . S
C57 C42 1.437 1_655 S
C57 C58 1.317 1_655 S
C58 H29 0.930 . S
C58 C34 1.431 . S
C58 C57 1.317 1_455 S
C59 Gd0 2.828 . S
C59 O44 1.258 . S
C59 O49 1.252 . S
C59 C60 1.497 . S
C60 C59 1.497 . S
C60 C61 1.395 . S
C60 C62 1.380 . S
C61 C60 1.395 . S
C61 C64 1.398 . S
C61 H76 0.930 . S
C62 C60 1.380 . S
C62 C63 1.391 . S
C62 H77 0.930 . S
C63 C62 1.391 . S
C63 C65 1.387 . S
C64 C61 1.398 . S
C64 C65 1.380 . S
C64 H78 0.930 . S
C65 C63 1.387 . S
C65 C64 1.380 . S
C65 H79 0.930 . S
C66 O46 1.254 . S
C66 O47 1.268 . S
C67 O51 1.284 . S
C67 O54 1.250 . S
C68 Gd1 2.828 . S
C68 O50 1.258 . S
C68 O55 1.252 . S
C68 C69 1.497 . S
C69 C68 1.497 . S
C69 C70 1.395 . S
C69 C71 1.380 . S
C70 C69 1.395 . S
C70 C73 1.398 . S
C70 H80 0.930 . S
C71 C69 1.380 . S
C71 C72 1.391 . S
C71 H81 0.930 . S
C72 C71 1.391 . S
C72 C74 1.387 . S
C73 C70 1.398 . S
C73 C74 1.380 . S
C73 H82 0.930 . S
C74 C72 1.387 . S
C74 C73 1.380 . S
C74 H83 0.930 . S
C75 O52 1.254 . S
C75 O53 1.268 . S
H76 C61 0.930 . S
H77 C62 0.930 . S
H78 C64 0.930 . S
H79 C65 0.930 . S
H80 C70 0.930 . S
H81 C71 0.930 . S
H82 C73 0.930 . S
H83 C74 0.930 . S
Gd84 N115 2.661 . S
Gd84 N121 2.601 . S
Gd84 O128 2.545 . S
Gd84 O129 2.606 . S
Gd84 O131 2.429 1_455 S
Gd84 O132 2.545 . S
Gd84 O133 2.412 . S
Gd84 O135 2.362 . S
Gd84 O136 2.324 . S
Gd84 C143 2.828 . S
Gd85 N94 2.661 . S
Gd85 N98 2.601 . S
Gd85 O129 2.362 1_655 S
Gd85 O130 2.324 . S
Gd85 O134 2.545 . S
Gd85 O135 2.606 1_655 S
Gd85 O137 2.429 1_655 S
Gd85 O138 2.545 1_655 S
Gd85 O139 2.412 . S
Gd85 C152 2.828 . S
C86 C89 1.417 . S
C86 C91 1.431 . S
C86 C92 1.412 . S
C87 C90 1.437 . S
C87 C91 1.317 . S
C87 H106 0.929 . S
C88 C89 1.426 . S
C88 C90 1.413 . S
C88 N98 1.359 . S
C89 C86 1.417 . S
C89 C88 1.426 . S
C89 N94 1.350 . S
C90 C87 1.437 . S
C90 C88 1.413 . S
C90 C100 1.391 . S
C91 C86 1.431 . S
C91 C87 1.317 . S
C91 H102 0.930 . S
C92 C86 1.412 . S
C92 C93 1.355 . S
C92 H104 0.930 . S
C93 C92 1.355 . S
C93 C95 1.402 . S
C93 H105 0.930 . S
N94 Gd85 2.661 . S
N94 C89 1.350 . S
N94 C95 1.307 . S
C95 C93 1.402 . S
C95 N94 1.307 . S
C95 H96 0.930 . S
H96 C95 0.930 . S
C97 N98 1.334 . S
C97 C99 1.394 . S
C97 H101 0.930 1_655 S
N98 Gd85 2.601 . S
N98 C88 1.359 . S
N98 C97 1.334 . S
C99 C97 1.394 . S
C99 C100 1.359 . S
C99 H111 0.930 . S
C100 C90 1.391 . S
C100 C99 1.359 . S
C100 H112 0.929 . S
H101 C97 0.930 1_455 S
H102 C91 0.930 . S
H103 C120 0.930 . S
H104 C92 0.930 . S
H105 C93 0.930 . S
H106 C87 0.929 . S
H107 C125 0.930 . S
H108 C116 0.930 . S
H109 C117 0.930 . S
H110 C141 0.934 . S
H111 C99 0.930 . S
H112 C100 0.929 . S
H113 C142 0.930 . S
H114 C123 0.930 . S
N115 Gd84 2.661 . S
N115 C119 1.350 . S
N115 C120 1.307 . S
C116 H108 0.930 . S
C116 C117 1.355 . S
C116 C118 1.412 . S
C117 H109 0.930 . S
C117 C116 1.355 . S
C117 C120 1.402 . S
C118 C116 1.412 . S
C118 C119 1.417 . S
C118 C142 1.431 . S
C119 N115 1.350 . S
C119 C118 1.417 . S
C119 C122 1.426 . S
C120 H103 0.930 . S
C120 N115 1.307 . S
C120 C117 1.402 . S
N121 Gd84 2.601 . S
N121 C122 1.359 . S
N121 C125 1.334 . S
C122 C119 1.426 . S
C122 N121 1.359 . S
C122 C126 1.413 . S
C123 H114 0.930 . S
C123 C124 1.353 1_565 S
C123 C125 1.394 . S
C124 C123 1.353 1_545 S
C124 C126 1.386 1_545 S
C124 H127 0.941 . S
C125 H107 0.930 . S
C125 N121 1.334 . S
C125 C123 1.394 . S
C126 C122 1.413 . S
C126 C124 1.386 1_565 S
C126 C141 1.434 1_565 S
H127 C124 0.941 . S
O128 Gd84 2.545 . S
O128 C143 1.258 . S
O129 Gd84 2.606 . S
O129 Gd85 2.362 1_455 S
O129 C140 1.284 . S
O130 Gd85 2.324 . S
O130 C150 1.254 . S
O131 Gd84 2.429 1_655 S
O131 C150 1.268 . S
O132 Gd84 2.545 . S
O132 C140 1.250 . S
O133 Gd84 2.412 . S
O133 C143 1.252 . S
O134 Gd85 2.545 . S
O134 C152 1.258 . S
O135 Gd84 2.362 . S
O135 Gd85 2.606 1_455 S
O135 C151 1.284 . S
O136 Gd84 2.324 . S
O136 C159 1.254 . S
O137 Gd85 2.429 1_455 S
O137 C159 1.268 . S
O138 Gd85 2.545 1_455 S
O138 C151 1.250 . S
O139 Gd85 2.412 . S
O139 C152 1.252 . S
C140 O129 1.284 . S
C140 O132 1.250 . S
C141 H110 0.934 . S
C141 C126 1.434 1_545 S
C141 C142 1.314 1_545 S
C142 H113 0.930 . S
C142 C118 1.431 . S
C142 C141 1.314 1_565 S
C143 Gd84 2.828 . S
C143 O128 1.258 . S
C143 O133 1.252 . S
C143 C144 1.497 . S
C144 C143 1.497 . S
C144 C145 1.395 . S
C144 C146 1.380 . S
C145 C144 1.395 . S
C145 C148 1.398 . S
C145 H160 0.930 . S
C146 C144 1.380 . S
C146 C147 1.391 . S
C146 H161 0.930 . S
C147 C146 1.391 . S
C147 C149 1.387 . S
C148 C145 1.398 . S
C148 C149 1.380 . S
C148 H162 0.930 . S
C149 C147 1.387 . S
C149 C148 1.380 . S
C149 H163 0.930 . S
C150 O130 1.254 . S
C150 O131 1.268 . S
C151 O135 1.284 . S
C151 O138 1.250 . S
C152 Gd85 2.828 . S
C152 O134 1.258 . S
C152 O139 1.252 . S
C152 C153 1.497 . S
C153 C152 1.497 . S
C153 C154 1.395 . S
C153 C155 1.380 . S
C154 C153 1.395 . S
C154 C157 1.398 . S
C154 H164 0.930 . S
C155 C153 1.380 . S
C155 C156 1.391 . S
C155 H165 0.930 . S
C156 C155 1.391 . S
C156 C158 1.387 . S
C157 C154 1.398 . S
C157 C158 1.380 . S
C157 H166 0.930 . S
C158 C156 1.387 . S
C158 C157 1.380 . S
C158 H167 0.930 . S
C159 O136 1.254 . S
C159 O137 1.268 . S
H160 C145 0.930 . S
H161 C146 0.930 . S
H162 C148 0.930 . S
H163 C149 0.930 . S
H164 C154 0.930 . S
H165 C155 0.930 . S
H166 C157 0.930 . S
H167 C158 0.930 . S
Gd168 N199 2.661 1_554 S
Gd168 N205 2.601 . S
Gd168 O212 2.545 . S
Gd168 O213 2.606 . S
Gd168 O215 2.429 . S
Gd168 O216 2.545 . S
Gd168 O217 2.412 . S
Gd168 O219 2.362 1_554 S
Gd168 O220 2.324 1_554 S
Gd168 C227 2.828 . S
Gd169 N178 2.661 . S
Gd169 N182 2.601 . S
Gd169 O213 2.362 1_556 S
Gd169 O214 2.324 . S
Gd169 O218 2.545 . S
Gd169 O219 2.606 . S
Gd169 O221 2.429 . S
Gd169 O222 2.545 . S
Gd169 O223 2.412 . S
Gd169 C236 2.828 . S
C170 C173 1.417 1_554 S
C170 C175 1.431 1_554 S
C170 C176 1.412 . S
C171 C174 1.437 . S
C171 C175 1.317 . S
C171 H190 0.929 . S
C172 C173 1.426 . S
C172 C174 1.413 . S
C172 N182 1.359 . S
C173 C170 1.417 1_556 S
C173 C172 1.426 . S
C173 N178 1.350 . S
C174 C171 1.437 . S
C174 C172 1.413 . S
C174 C184 1.391 . S
C175 C170 1.431 1_556 S
C175 C171 1.317 . S
C175 H186 0.930 1_556 S
C176 C170 1.412 . S
C176 C177 1.355 . S
C176 H188 0.930 . S
C177 C176 1.355 . S
C177 C179 1.402 . S
C177 H189 0.930 . S
N178 Gd169 2.661 . S
N178 C173 1.350 . S
N178 C179 1.307 1_556 S
C179 C177 1.402 . S
C179 N178 1.307 1_554 S
C179 H180 0.930 . S
H180 C179 0.930 . S
C181 N182 1.334 . S
C181 C183 1.394 . S
C181 H185 0.930 . S
N182 Gd169 2.601 . S
N182 C172 1.359 . S
N182 C181 1.334 . S
C183 C181 1.394 . S
C183 C184 1.359 . S
C183 H195 0.930 . S
C184 C174 1.391 . S
C184 C183 1.359 . S
C184 H196 0.929 . S
H185 C181 0.930 . S
H186 C175 0.930 1_554 S
H187 C204 0.930 . S
H188 C176 0.930 . S
H189 C177 0.930 . S
H190 C171 0.929 . S
H191 C209 0.930 . S
H192 C200 0.930 . S
H193 C201 0.930 . S
H194 C225 0.929 . S
H195 C183 0.930 . S
H196 C184 0.929 . S
H197 C226 0.930 . S
H198 C207 0.930 . S
N199 Gd168 2.661 1_556 S
N199 C203 1.350 . S
N199 C204 1.307 . S
C200 H192 0.930 . S
C200 C201 1.355 . S
C200 C202 1.412 . S
C201 H193 0.930 . S
C201 C200 1.355 . S
C201 C204 1.402 . S
C202 C200 1.412 . S
C202 C203 1.417 . S
C202 C226 1.431 . S
C203 N199 1.350 . S
C203 C202 1.417 . S
C203 C206 1.426 1_556 S
C204 H187 0.930 . S
C204 N199 1.307 . S
C204 C201 1.402 . S
N205 Gd168 2.601 . S
N205 C206 1.359 . S
N205 C209 1.334 . S
C206 C203 1.426 1_554 S
C206 N205 1.359 . S
C206 C210 1.413 . S
C207 H198 0.930 . S
C207 C208 1.359 . S
C207 C209 1.394 . S
C208 C207 1.359 . S
C208 C210 1.391 . S
C208 H211 0.929 . S
C209 H191 0.930 . S
C209 N205 1.334 . S
C209 C207 1.394 . S
C210 C206 1.413 . S
C210 C208 1.391 . S
C210 C225 1.437 . S
H211 C208 0.929 . S
O212 Gd168 2.545 . S
O212 C227 1.258 . S
O213 Gd168 2.606 . S
O213 Gd169 2.362 1_554 S
O213 C224 1.284 . S
O214 Gd169 2.324 . S
O214 C234 1.254 1_556 S
O215 Gd168 2.429 . S
O215 C234 1.268 . S
O216 Gd168 2.545 . S
O216 C224 1.250 . S
O217 Gd168 2.412 . S
O217 C227 1.252 . S
O218 Gd169 2.545 . S
O218 C236 1.258 . S
O219 Gd168 2.362 1_556 S
O219 Gd169 2.606 . S
O219 C235 1.284 . S
O220 Gd168 2.324 1_556 S
O220 C243 1.254 . S
O221 Gd169 2.429 . S
O221 C243 1.268 . S
O222 Gd169 2.545 . S
O222 C235 1.250 . S
O223 Gd169 2.412 . S
O223 C236 1.252 . S
C224 O213 1.284 . S
C224 O216 1.250 . S
C225 H194 0.929 . S
C225 C210 1.437 . S
C225 C226 1.317 1_554 S
C226 H197 0.930 . S
C226 C202 1.431 . S
C226 C225 1.317 1_556 S
C227 Gd168 2.828 . S
C227 O212 1.258 . S
C227 O217 1.252 . S
C227 C228 1.497 . S
C228 C227 1.497 . S
C228 C229 1.395 . S
C228 C230 1.380 . S
C229 C228 1.395 . S
C229 C232 1.398 . S
C229 H244 0.930 . S
C230 C228 1.380 . S
C230 C231 1.391 . S
C230 H245 0.930 . S
C231 C230 1.391 . S
C231 C233 1.387 . S
C232 C229 1.398 . S
C232 C233 1.380 . S
C232 H246 0.930 . S
C233 C231 1.387 . S
C233 C232 1.380 . S
C233 H247 0.930 . S
C234 O214 1.254 1_554 S
C234 O215 1.268 . S
C235 O219 1.284 . S
C235 O222 1.250 . S
C236 Gd169 2.828 . S
C236 O218 1.258 . S
C236 O223 1.252 . S
C236 C237 1.497 . S
C237 C236 1.497 . S
C237 C238 1.395 . S
C237 C239 1.380 . S
C238 C237 1.395 . S
C238 C241 1.398 . S
C238 H248 0.930 . S
C239 C237 1.380 . S
C239 C240 1.391 . S
C239 H249 0.930 . S
C240 C239 1.391 . S
C240 C242 1.387 . S
C241 C238 1.398 . S
C241 C242 1.380 . S
C241 H250 0.930 . S
C242 C240 1.387 . S
C242 C241 1.380 . S
C242 H251 0.930 . S
C243 O220 1.254 . S
C243 O221 1.268 . S
H244 C229 0.930 . S
H245 C230 0.930 . S
H246 C232 0.930 . S
H247 C233 0.930 . S
H248 C238 0.930 . S
H249 C239 0.930 . S
H250 C241 0.930 . S
H251 C242 0.930 . S
Gd252 N283 2.661 . S
Gd252 N289 2.601 . S
Gd252 O296 2.545 . S
Gd252 O297 2.606 . S
Gd252 O299 2.429 . S
Gd252 O300 2.545 . S
Gd252 O301 2.412 . S
Gd252 O303 2.362 . S
Gd252 O304 2.324 . S
Gd252 C311 2.828 . S
Gd253 N262 2.661 . S
Gd253 N266 2.601 . S
Gd253 O297 2.362 . S
Gd253 O298 2.324 . S
Gd253 O302 2.545 . S
Gd253 O303 2.606 . S
Gd253 O305 2.429 . S
Gd253 O306 2.545 . S
Gd253 O307 2.412 . S
Gd253 C320 2.828 . S
C254 C257 1.417 . S
C254 C259 1.431 . S
C254 C260 1.412 . S
C255 C258 1.437 . S
C255 C259 1.317 . S
C255 H274 0.929 . S
C256 C257 1.426 . S
C256 C258 1.413 . S
C256 N266 1.359 . S
C257 C254 1.417 . S
C257 C256 1.426 . S
C257 N262 1.350 . S
C258 C255 1.437 . S
C258 C256 1.413 . S
C258 C268 1.391 . S
C259 C254 1.431 . S
C259 C255 1.317 . S
C259 H270 0.930 . S
C260 C254 1.412 . S
C260 C261 1.355 . S
C260 H272 0.930 . S
C261 C260 1.355 . S
C261 C263 1.402 . S
C261 H273 0.930 . S
N262 Gd253 2.661 . S
N262 C257 1.350 . S
N262 C263 1.307 . S
C263 C261 1.402 . S
C263 N262 1.307 . S
C263 H264 0.930 . S
H264 C263 0.930 . S
C265 N266 1.334 . S
C265 C267 1.394 . S
C265 H269 0.930 . S
N266 Gd253 2.601 . S
N266 C256 1.359 . S
N266 C265 1.334 . S
C267 C265 1.394 . S
C267 C268 1.359 . S
C267 H279 0.930 . S
C268 C258 1.391 . S
C268 C267 1.359 . S
C268 H280 0.929 . S
H269 C265 0.930 . S
H270 C259 0.930 . S
H271 C288 0.930 . S
H272 C260 0.930 . S
H273 C261 0.930 . S
H274 C255 0.929 . S
H275 C293 0.930 . S
H276 C284 0.930 . S
H277 C285 0.930 . S
H278 C309 0.929 . S
H279 C267 0.930 . S
H280 C268 0.929 . S
H281 C310 0.930 . S
H282 C291 0.930 . S
N283 Gd252 2.661 . S
N283 C287 1.350 . S
N283 C288 1.307 . S
C284 H276 0.930 . S
C284 C285 1.355 . S
C284 C286 1.412 . S
C285 H277 0.930 . S
C285 C284 1.355 . S
C285 C288 1.402 . S
C286 C284 1.412 . S
C286 C287 1.417 . S
C286 C310 1.431 . S
C287 N283 1.350 . S
C287 C286 1.417 . S
C287 C290 1.426 . S
C288 H271 0.930 . S
C288 N283 1.307 . S
C288 C285 1.402 . S
N289 Gd252 2.601 . S
N289 C290 1.359 . S
N289 C293 1.334 . S
C290 C287 1.426 . S
C290 N289 1.359 . S
C290 C294 1.413 . S
C291 H282 0.930 . S
C291 C292 1.359 1_545 S
C291 C293 1.394 . S
C292 C291 1.359 1_565 S
C292 C294 1.391 1_565 S
C292 H295 0.929 . S
C293 H275 0.930 . S
C293 N289 1.334 . S
C293 C291 1.394 . S
C294 C290 1.413 . S
C294 C292 1.391 1_545 S
C294 C309 1.437 1_545 S
H295 C292 0.929 . S
O296 Gd252 2.545 . S
O296 C311 1.258 . S
O297 Gd252 2.606 . S
O297 Gd253 2.362 . S
O297 C308 1.284 . S
O298 Gd253 2.324 . S
O298 C318 1.254 . S
O299 Gd252 2.429 . S
O299 C318 1.268 . S
O300 Gd252 2.545 . S
O300 C308 1.250 . S
O301 Gd252 2.412 . S
O301 C311 1.252 . S
O302 Gd253 2.545 . S
O302 C320 1.258 . S
O303 Gd252 2.362 . S
O303 Gd253 2.606 . S
O303 C319 1.284 . S
O304 Gd252 2.324 . S
O304 C327 1.254 . S
O305 Gd253 2.429 . S
O305 C327 1.268 . S
O306 Gd253 2.545 . S
O306 C319 1.250 . S
O307 Gd253 2.412 . S
O307 C320 1.252 . S
C308 O297 1.284 . S
C308 O300 1.250 . S
C309 H278 0.929 . S
C309 C294 1.437 1_565 S
C309 C310 1.317 1_565 S
C310 H281 0.930 . S
C310 C286 1.431 . S
C310 C309 1.317 1_545 S
C311 Gd252 2.828 . S
C311 O296 1.258 . S
C311 O301 1.252 . S
C311 C312 1.497 . S
C312 C311 1.497 . S
C312 C313 1.395 . S
C312 C314 1.380 . S
C313 C312 1.395 . S
C313 C316 1.398 . S
C313 H328 0.930 . S
C314 C312 1.380 . S
C314 C315 1.391 . S
C314 H329 0.930 . S
C315 C314 1.391 . S
C315 C317 1.387 . S
C316 C313 1.398 . S
C316 C317 1.380 . S
C316 H330 0.930 . S
C317 C315 1.387 . S
C317 C316 1.380 . S
C317 H331 0.930 . S
C318 O298 1.254 . S
C318 O299 1.268 . S
C319 O303 1.284 . S
C319 O306 1.250 . S
C320 Gd253 2.828 . S
C320 O302 1.258 . S
C320 O307 1.252 . S
C320 C321 1.497 . S
C321 C320 1.497 . S
C321 C322 1.395 . S
C321 C323 1.380 . S
C322 C321 1.395 . S
C322 C325 1.398 . S
C322 H332 0.930 . S
C323 C321 1.380 . S
C323 C324 1.391 . S
C323 H333 0.930 . S
C324 C323 1.391 . S
C324 C326 1.387 . S
C325 C322 1.398 . S
C325 C326 1.380 . S
C325 H334 0.930 . S
C326 C324 1.387 . S
C326 C325 1.380 . S
C326 H335 0.930 . S
C327 O304 1.254 . S
C327 O305 1.268 . S
H328 C313 0.930 . S
H329 C314 0.930 . S
H330 C316 0.930 . S
H331 C317 0.930 . S
H332 C322 0.930 . S
H333 C323 0.930 . S
H334 C325 0.930 . S
H335 C326 0.930 . S
Gd336 N367 2.661 . S
Gd336 N373 2.601 . S
Gd336 O380 2.545 . S
Gd336 O381 2.606 . S
Gd336 O383 2.429 . S
Gd336 O384 2.545 . S
Gd336 O385 2.412 . S
Gd336 O387 2.362 . S
Gd336 O388 2.324 . S
Gd336 C395 2.828 . S
Gd337 N346 2.661 . S
Gd337 N350 2.601 . S
Gd337 O381 2.362 . S
Gd337 O382 2.324 . S
Gd337 O386 2.545 . S
Gd337 O387 2.606 . S
Gd337 O389 2.429 . S
Gd337 O390 2.545 . S
Gd337 O391 2.412 . S
Gd337 C404 2.828 . S
C338 C341 1.417 . S
C338 C343 1.431 . S
C338 C344 1.412 . S
C339 C342 1.437 . S
C339 C343 1.317 . S
C339 H358 0.929 . S
C340 C341 1.426 . S
C340 C342 1.413 . S
C340 N350 1.359 . S
C341 C338 1.417 . S
C341 C340 1.426 . S
C341 N346 1.350 . S
C342 C339 1.437 . S
C342 C340 1.413 . S
C342 C352 1.391 . S
C343 C338 1.431 . S
C343 C339 1.317 . S
C343 H354 0.930 . S
C344 C338 1.412 . S
C344 C345 1.355 . S
C344 H356 0.930 . S
C345 C344 1.355 . S
C345 C347 1.402 . S
C345 H357 0.930 . S
N346 Gd337 2.661 . S
N346 C341 1.350 . S
N346 C347 1.307 . S
C347 C345 1.402 . S
C347 N346 1.307 . S
C347 H348 0.930 . S
H348 C347 0.930 . S
C349 N350 1.334 . S
C349 C351 1.394 . S
C349 H353 0.930 . S
N350 Gd337 2.601 . S
N350 C340 1.359 . S
N350 C349 1.334 . S
C351 C349 1.394 . S
C351 C352 1.359 . S
C351 H363 0.930 . S
C352 C342 1.391 . S
C352 C351 1.359 . S
C352 H364 0.929 . S
H353 C349 0.930 . S
H354 C343 0.930 . S
H355 C372 0.930 . S
H356 C344 0.930 . S
H357 C345 0.930 . S
H358 C339 0.929 . S
H359 C377 0.930 . S
H360 C368 0.930 . S
H361 C369 0.930 . S
H362 C393 0.929 . S
H363 C351 0.930 . S
H364 C352 0.929 . S
H365 C394 0.930 . S
H366 C375 0.930 . S
N367 Gd336 2.661 . S
N367 C371 1.350 . S
N367 C372 1.307 . S
C368 H360 0.930 . S
C368 C369 1.355 . S
C368 C370 1.412 . S
C369 H361 0.930 . S
C369 C368 1.355 . S
C369 C372 1.402 . S
C370 C368 1.412 . S
C370 C371 1.417 . S
C370 C394 1.431 . S
C371 N367 1.350 . S
C371 C370 1.417 . S
C371 C374 1.426 . S
C372 H355 0.930 . S
C372 N367 1.307 . S
C372 C369 1.402 . S
N373 Gd336 2.601 . S
N373 C374 1.359 . S
N373 C377 1.334 . S
C374 C371 1.426 . S
C374 N373 1.359 . S
C374 C378 1.413 . S
C375 H366 0.930 . S
C375 C376 1.359 . S
C375 C377 1.394 . S
C376 C375 1.359 . S
C376 C378 1.391 . S
C376 H379 0.929 . S
C377 H359 0.930 . S
C377 N373 1.334 . S
C377 C375 1.394 . S
C378 C374 1.413 . S
C378 C376 1.391 . S
C378 C393 1.437 . S
H379 C376 0.929 . S
O380 Gd336 2.545 . S
O380 C395 1.258 . S
O381 Gd336 2.606 . S
O381 Gd337 2.362 . S
O381 C392 1.284 . S
O382 Gd337 2.324 . S
O382 C402 1.254 . S
O383 Gd336 2.429 . S
O383 C402 1.268 . S
O384 Gd336 2.545 . S
O384 C392 1.250 . S
O385 Gd336 2.412 . S
O385 C395 1.252 . S
O386 Gd337 2.545 . S
O386 C404 1.258 . S
O387 Gd336 2.362 . S
O387 Gd337 2.606 . S
O387 C403 1.284 . S
O388 Gd336 2.324 . S
O388 C411 1.254 . S
O389 Gd337 2.429 . S
O389 C411 1.268 . S
O390 Gd337 2.545 . S
O390 C403 1.250 . S
O391 Gd337 2.412 . S
O391 C404 1.252 . S
C392 O381 1.284 . S
C392 O384 1.250 . S
C393 H362 0.929 . S
C393 C378 1.437 . S
C393 C394 1.317 . S
C394 H365 0.930 . S
C394 C370 1.431 . S
C394 C393 1.317 . S
C395 Gd336 2.828 . S
C395 O380 1.258 . S
C395 O385 1.252 . S
C395 C396 1.497 . S
C396 C395 1.497 . S
C396 C397 1.395 . S
C396 C398 1.380 . S
C397 C396 1.395 . S
C397 C400 1.398 . S
C397 H412 0.930 . S
C398 C396 1.380 . S
C398 C399 1.391 . S
C398 H413 0.930 . S
C399 C398 1.391 . S
C399 C401 1.387 . S
C400 C397 1.398 . S
C400 C401 1.380 . S
C400 H414 0.930 . S
C401 C399 1.387 . S
C401 C400 1.380 . S
C401 H415 0.930 . S
C402 O382 1.254 . S
C402 O383 1.268 . S
C403 O387 1.284 . S
C403 O390 1.250 . S
C404 Gd337 2.828 . S
C404 O386 1.258 . S
C404 O391 1.252 . S
C404 C405 1.497 . S
C405 C404 1.497 . S
C405 C406 1.395 . S
C405 C407 1.380 . S
C406 C405 1.395 . S
C406 C409 1.398 . S
C406 H416 0.930 . S
C407 C405 1.380 . S
C407 C408 1.391 . S
C407 H417 0.930 . S
C408 C407 1.391 . S
C408 C410 1.387 . S
C409 C406 1.398 . S
C409 C410 1.380 . S
C409 H418 0.930 . S
C410 C408 1.387 . S
C410 C409 1.380 . S
C410 H419 0.930 . S
C411 O388 1.254 . S
C411 O389 1.268 . S
H412 C397 0.930 . S
H413 C398 0.930 . S
H414 C400 0.930 . S
H415 C401 0.930 . S
H416 C406 0.930 . S
H417 C407 0.930 . S
H418 C409 0.930 . S
H419 C410 0.930 . S
Gd420 N451 2.661 1_455 S
Gd420 N457 2.601 . S
Gd420 O464 2.545 . S
Gd420 O465 2.606 . S
Gd420 O467 2.429 . S
Gd420 O468 2.545 . S
Gd420 O469 2.412 . S
Gd420 O471 2.362 1_455 S
Gd420 O472 2.324 1_455 S
Gd420 C479 2.828 . S
Gd421 N430 2.661 . S
Gd421 N434 2.601 . S
Gd421 O465 2.362 1_655 S
Gd421 O466 2.324 . S
Gd421 O470 2.545 . S
Gd421 O471 2.606 . S
Gd421 O473 2.429 . S
Gd421 O474 2.545 . S
Gd421 O475 2.412 . S
Gd421 C488 2.828 . S
C422 C425 1.417 1_455 S
C422 C427 1.431 1_455 S
C422 C428 1.412 . S
C423 C426 1.437 . S
C423 C427 1.317 . S
C423 H442 0.929 . S
C424 C425 1.426 . S
C424 C426 1.413 . S
C424 N434 1.359 . S
C425 C422 1.417 1_655 S
C425 C424 1.426 . S
C425 N430 1.350 . S
C426 C423 1.437 . S
C426 C424 1.413 . S
C426 C436 1.391 . S
C427 C422 1.431 1_655 S
C427 C423 1.317 . S
C427 H438 0.930 1_655 S
C428 C422 1.412 . S
C428 C429 1.355 . S
C428 H440 0.930 . S
C429 C428 1.355 . S
C429 C431 1.402 . S
C429 H441 0.930 . S
N430 Gd421 2.661 . S
N430 C425 1.350 . S
N430 C431 1.307 1_655 S
C431 C429 1.402 . S
C431 N430 1.307 1_455 S
C431 H432 0.930 . S
H432 C431 0.930 . S
C433 N434 1.334 . S
C433 C435 1.394 . S
C433 H437 0.930 . S
N434 Gd421 2.601 . S
N434 C424 1.359 . S
N434 C433 1.334 . S
C435 C433 1.394 . S
C435 C436 1.359 . S
C435 H447 0.930 . S
C436 C426 1.391 . S
C436 C435 1.359 . S
C436 H448 0.929 . S
H437 C433 0.930 . S
H438 C427 0.930 1_455 S
H439 C456 0.930 . S
H440 C428 0.930 . S
H441 C429 0.930 . S
H442 C423 0.929 . S
H443 C461 0.930 . S
H444 C452 0.930 . S
H445 C453 0.930 . S
H446 C477 0.929 . S
H447 C435 0.930 . S
H448 C436 0.929 . S
H449 C478 0.930 . S
H450 C459 0.930 . S
N451 Gd420 2.661 1_655 S
N451 C455 1.350 . S
N451 C456 1.307 . S
C452 H444 0.930 . S
C452 C453 1.355 . S
C452 C454 1.412 . S
C453 H445 0.930 . S
C453 C452 1.355 . S
C453 C456 1.402 . S
C454 C452 1.412 . S
C454 C455 1.417 . S
C454 C478 1.431 . S
C455 N451 1.350 . S
C455 C454 1.417 . S
C455 C458 1.426 1_655 S
C456 H439 0.930 . S
C456 N451 1.307 . S
C456 C453 1.402 . S
N457 Gd420 2.601 . S
N457 C458 1.359 . S
N457 C461 1.334 . S
C458 C455 1.426 1_455 S
C458 N457 1.359 . S
C458 C462 1.413 . S
C459 H450 0.930 . S
C459 C460 1.359 . S
C459 C461 1.394 . S
C460 C459 1.359 . S
C460 C462 1.391 . S
C460 H463 0.929 . S
C461 H443 0.930 . S
C461 N457 1.334 . S
C461 C459 1.394 . S
C462 C458 1.413 . S
C462 C460 1.391 . S
C462 C477 1.437 . S
H463 C460 0.929 . S
O464 Gd420 2.545 . S
O464 C479 1.258 . S
O465 Gd420 2.606 . S
O465 Gd421 2.362 1_455 S
O465 C476 1.284 . S
O466 Gd421 2.324 . S
O466 C486 1.254 1_655 S
O467 Gd420 2.429 . S
O467 C486 1.268 . S
O468 Gd420 2.545 . S
O468 C476 1.250 . S
O469 Gd420 2.412 . S
O469 C479 1.252 . S
O470 Gd421 2.545 . S
O470 C488 1.258 . S
O471 Gd420 2.362 1_655 S
O471 Gd421 2.606 . S
O471 C487 1.284 . S
O472 Gd420 2.324 1_655 S
O472 C495 1.254 . S
O473 Gd421 2.429 . S
O473 C495 1.268 . S
O474 Gd421 2.545 . S
O474 C487 1.250 . S
O475 Gd421 2.412 . S
O475 C488 1.252 . S
C476 O465 1.284 . S
C476 O468 1.250 . S
C477 H446 0.929 . S
C477 C462 1.437 . S
C477 C478 1.317 1_455 S
C478 H449 0.930 . S
C478 C454 1.431 . S
C478 C477 1.317 1_655 S
C479 Gd420 2.828 . S
C479 O464 1.258 . S
C479 O469 1.252 . S
C479 C480 1.497 . S
C480 C479 1.497 . S
C480 C481 1.395 . S
C480 C482 1.380 . S
C481 C480 1.395 . S
C481 C484 1.398 . S
C481 H496 0.930 . S
C482 C480 1.380 . S
C482 C483 1.391 . S
C482 H497 0.930 . S
C483 C482 1.391 . S
C483 C485 1.387 . S
C484 C481 1.398 . S
C484 C485 1.380 . S
C484 H498 0.930 . S
C485 C483 1.387 . S
C485 C484 1.380 . S
C485 H499 0.930 . S
C486 O466 1.254 1_455 S
C486 O467 1.268 . S
C487 O471 1.284 . S
C487 O474 1.250 . S
C488 Gd421 2.828 . S
C488 O470 1.258 . S
C488 O475 1.252 . S
C488 C489 1.497 . S
C489 C488 1.497 . S
C489 C490 1.395 . S
C489 C491 1.380 . S
C490 C489 1.395 . S
C490 C493 1.398 . S
C490 H500 0.930 . S
C491 C489 1.380 . S
C491 C492 1.391 . S
C491 H501 0.930 . S
C492 C491 1.391 . S
C492 C494 1.387 . S
C493 C490 1.398 . S
C493 C494 1.380 . S
C493 H502 0.930 . S
C494 C492 1.387 . S
C494 C493 1.380 . S
C494 H503 0.930 . S
C495 O472 1.254 . S
C495 O473 1.268 . S
H496 C481 0.930 . S
H497 C482 0.930 . S
H498 C484 0.930 . S
H499 C485 0.930 . S
H500 C490 0.930 . S
H501 C491 0.930 . S
H502 C493 0.930 . S
H503 C494 0.930 . S
Gd504 N535 2.661 1_556 S
Gd504 N541 2.601 . S
Gd504 O548 2.545 . S
Gd504 O549 2.606 . S
Gd504 O551 2.429 . S
Gd504 O552 2.545 . S
Gd504 O553 2.412 . S
Gd504 O555 2.362 1_556 S
Gd504 O556 2.324 1_556 S
Gd504 C563 2.828 . S
Gd505 N514 2.661 . S
Gd505 N518 2.601 . S
Gd505 O549 2.362 1_554 S
Gd505 O550 2.324 . S
Gd505 O554 2.545 . S
Gd505 O555 2.606 . S
Gd505 O557 2.429 . S
Gd505 O558 2.545 . S
Gd505 O559 2.412 . S
Gd505 C572 2.828 . S
C506 C509 1.415 . S
C506 C511 1.430 . S
C506 C512 1.414 1_554 S
C507 C510 1.437 1_455 S
C507 C511 1.317 1_455 S
C507 H526 0.929 . S
C508 C509 1.426 . S
C508 C510 1.413 . S
C508 N518 1.359 . S
C509 C506 1.415 . S
C509 C508 1.426 . S
C509 N514 1.350 . S
C510 C507 1.437 1_655 S
C510 C508 1.413 . S
C510 C520 1.391 1_655 S
C511 C506 1.430 . S
C511 C507 1.317 1_655 S
C511 H522 0.930 1_554 S
C512 C506 1.414 1_556 S
C512 C513 1.355 . S
C512 H524 0.930 . S
C513 C512 1.355 . S
C513 C515 1.402 . S
C513 H525 0.930 . S
N514 Gd505 2.661 . S
N514 C509 1.350 . S
N514 C515 1.307 1_554 S
C515 C513 1.402 . S
C515 N514 1.307 1_556 S
C515 H516 0.930 . S
H516 C515 0.930 . S
C517 N518 1.334 . S
C517 C519 1.394 . S
C517 H521 0.930 . S
N518 Gd505 2.601 . S
N518 C508 1.359 . S
N518 C517 1.334 . S
C519 C517 1.394 . S
C519 C520 1.359 1_655 S
C519 H531 0.930 . S
C520 C510 1.391 1_455 S
C520 C519 1.359 1_455 S
C520 H532 0.929 . S
H521 C517 0.930 . S
H522 C511 0.930 1_556 S
H523 C540 0.930 . S
H524 C512 0.930 . S
H525 C513 0.930 . S
H526 C507 0.929 . S
H527 C545 0.930 . S
H528 C536 0.930 . S
H529 C537 0.930 . S
H530 C561 0.929 . S
H531 C519 0.930 . S
H532 C520 0.929 . S
H533 C562 0.930 . S
H534 C543 0.930 . S
N535 Gd504 2.661 1_554 S
N535 C539 1.350 . S
N535 C540 1.307 . S
C536 H528 0.930 . S
C536 C537 1.355 . S
C536 C538 1.412 . S
C537 H529 0.930 . S
C537 C536 1.355 . S
C537 C540 1.402 . S
C538 C536 1.412 . S
C538 C539 1.417 . S
C538 C562 1.431 . S
C539 N535 1.350 . S
C539 C538 1.417 . S
C539 C542 1.426 1_554 S
C540 H523 0.930 . S
C540 N535 1.307 . S
C540 C537 1.402 . S
N541 Gd504 2.601 . S
N541 C542 1.359 . S
N541 C545 1.334 . S
C542 C539 1.426 1_556 S
C542 N541 1.359 . S
C542 C546 1.413 . S
C543 H534 0.930 . S
C543 C544 1.359 . S
C543 C545 1.394 . S
C544 C543 1.359 . S
C544 C546 1.391 . S
C544 H547 0.929 . S
C545 H527 0.930 . S
C545 N541 1.334 . S
C545 C543 1.394 . S
C546 C542 1.413 . S
C546 C544 1.391 . S
C546 C561 1.437 . S
H547 C544 0.929 . S
O548 Gd504 2.545 . S
O548 C563 1.258 . S
O549 Gd504 2.606 . S
O549 Gd505 2.362 1_556 S
O549 C560 1.284 . S
O550 Gd505 2.324 . S
O550 C570 1.254 1_554 S
O551 Gd504 2.429 . S
O551 C570 1.268 . S
O552 Gd504 2.545 . S
O552 C560 1.250 . S
O553 Gd504 2.412 . S
O553 C563 1.252 . S
O554 Gd505 2.545 . S
O554 C572 1.258 . S
O555 Gd504 2.362 1_554 S
O555 Gd505 2.606 . S
O555 C571 1.284 . S
O556 Gd504 2.324 1_554 S
O556 C579 1.254 . S
O557 Gd505 2.429 . S
O557 C579 1.268 . S
O558 Gd505 2.545 . S
O558 C571 1.250 . S
O559 Gd505 2.412 . S
O559 C572 1.252 . S
C560 O549 1.284 . S
C560 O552 1.250 . S
C561 H530 0.929 . S
C561 C546 1.437 . S
C561 C562 1.317 1_556 S
C562 H533 0.930 . S
C562 C538 1.431 . S
C562 C561 1.317 1_554 S
C563 Gd504 2.828 . S
C563 O548 1.258 . S
C563 O553 1.252 . S
C563 C564 1.497 . S
C564 C563 1.497 . S
C564 C565 1.395 . S
C564 C566 1.380 . S
C565 C564 1.395 . S
C565 C568 1.398 . S
C565 H580 0.930 . S
C566 C564 1.380 . S
C566 C567 1.391 . S
C566 H581 0.930 . S
C567 C566 1.391 . S
C567 C569 1.387 . S
C568 C565 1.398 . S
C568 C569 1.380 . S
C568 H582 0.930 . S
C569 C567 1.387 . S
C569 C568 1.380 . S
C569 H583 0.930 . S
C570 O550 1.254 1_556 S
C570 O551 1.268 . S
C571 O555 1.284 . S
C571 O558 1.250 . S
C572 Gd505 2.828 . S
C572 O554 1.258 . S
C572 O559 1.252 . S
C572 C573 1.497 . S
C573 C572 1.497 . S
C573 C574 1.395 . S
C573 C575 1.380 . S
C574 C573 1.395 . S
C574 C577 1.398 . S
C574 H584 0.930 . S
C575 C573 1.380 . S
C575 C576 1.391 . S
C575 H585 0.930 . S
C576 C575 1.391 . S
C576 C578 1.387 . S
C577 C574 1.398 . S
C577 C578 1.380 . S
C577 H586 0.930 . S
C578 C576 1.387 . S
C578 C577 1.380 . S
C578 H587 0.930 . S
C579 O556 1.254 . S
C579 O557 1.268 . S
H580 C565 0.930 . S
H581 C566 0.930 . S
H582 C568 0.930 . S
H583 C569 0.930 . S
H584 C574 0.930 . S
H585 C575 0.930 . S
H586 C577 0.930 . S
H587 C578 0.930 . S
Gd588 N619 2.661 . S
Gd588 N625 2.601 . S
Gd588 O632 2.545 . S
Gd588 O633 2.606 . S
Gd588 O635 2.429 . S
Gd588 O636 2.545 . S
Gd588 O637 2.412 . S
Gd588 O639 2.362 . S
Gd588 O640 2.324 . S
Gd588 C647 2.828 . S
Gd589 N598 2.661 . S
Gd589 N602 2.601 . S
Gd589 O633 2.362 . S
Gd589 O634 2.324 . S
Gd589 O638 2.545 . S
Gd589 O639 2.606 . S
Gd589 O641 2.429 . S
Gd589 O642 2.545 . S
Gd589 O643 2.412 . S
Gd589 C656 2.828 . S
C590 C593 1.417 . S
C590 C595 1.431 . S
C590 C596 1.412 . S
C591 C594 1.437 . S
C591 C595 1.317 . S
C591 H610 0.929 . S
C592 C593 1.426 . S
C592 C594 1.413 . S
C592 N602 1.359 . S
C593 C590 1.417 . S
C593 C592 1.426 . S
C593 N598 1.350 . S
C594 C591 1.437 . S
C594 C592 1.413 . S
C594 C604 1.391 . S
C595 C590 1.431 . S
C595 C591 1.317 . S
C595 H606 0.930 . S
C596 C590 1.412 . S
C596 C597 1.355 . S
C596 H608 0.930 . S
C597 C596 1.355 . S
C597 C599 1.402 . S
C597 H609 0.930 . S
N598 Gd589 2.661 . S
N598 C593 1.350 . S
N598 C599 1.307 . S
C599 C597 1.402 . S
C599 N598 1.307 . S
C599 H600 0.930 . S
H600 C599 0.930 . S
C601 N602 1.334 . S
C601 C603 1.394 . S
C601 H605 0.930 . S
N602 Gd589 2.601 . S
N602 C592 1.359 . S
N602 C601 1.334 . S
C603 C601 1.394 . S
C603 C604 1.359 . S
C603 H615 0.930 . S
C604 C594 1.391 . S
C604 C603 1.359 . S
C604 H616 0.929 . S
H605 C601 0.930 . S
H606 C595 0.930 . S
H607 C624 0.930 . S
H608 C596 0.930 . S
H609 C597 0.930 . S
H610 C591 0.929 . S
H611 C629 0.930 . S
H612 C620 0.930 . S
H613 C621 0.930 . S
H614 C645 0.929 . S
H615 C603 0.930 . S
H616 C604 0.929 . S
H617 C646 0.930 . S
H618 C627 0.930 . S
N619 Gd588 2.661 . S
N619 C623 1.350 . S
N619 C624 1.307 . S
C620 H612 0.930 . S
C620 C621 1.355 . S
C620 C622 1.412 . S
C621 H613 0.930 . S
C621 C620 1.355 . S
C621 C624 1.402 . S
C622 C620 1.412 . S
C622 C623 1.417 . S
C622 C646 1.431 . S
C623 N619 1.350 . S
C623 C622 1.417 . S
C623 C626 1.426 . S
C624 H607 0.930 . S
C624 N619 1.307 . S
C624 C621 1.402 . S
N625 Gd588 2.601 . S
N625 C626 1.359 . S
N625 C629 1.334 . S
C626 C623 1.426 . S
C626 N625 1.359 . S
C626 C630 1.413 . S
C627 H618 0.930 . S
C627 C628 1.359 . S
C627 C629 1.394 . S
C628 C627 1.359 . S
C628 C630 1.391 . S
C628 H631 0.929 . S
C629 H611 0.930 . S
C629 N625 1.334 . S
C629 C627 1.394 . S
C630 C626 1.413 . S
C630 C628 1.391 . S
C630 C645 1.437 . S
H631 C628 0.929 . S
O632 Gd588 2.545 . S
O632 C647 1.258 . S
O633 Gd588 2.606 . S
O633 Gd589 2.362 . S
O633 C644 1.284 . S
O634 Gd589 2.324 . S
O634 C654 1.254 . S
O635 Gd588 2.429 . S
O635 C654 1.268 . S
O636 Gd588 2.545 . S
O636 C644 1.250 . S
O637 Gd588 2.412 . S
O637 C647 1.252 . S
O638 Gd589 2.545 . S
O638 C656 1.258 . S
O639 Gd588 2.362 . S
O639 Gd589 2.606 . S
O639 C655 1.284 . S
O640 Gd588 2.324 . S
O640 C663 1.254 . S
O641 Gd589 2.429 . S
O641 C663 1.268 . S
O642 Gd589 2.545 . S
O642 C655 1.250 . S
O643 Gd589 2.412 . S
O643 C656 1.252 . S
C644 O633 1.284 . S
C644 O636 1.250 . S
C645 H614 0.929 . S
C645 C630 1.437 . S
C645 C646 1.317 . S
C646 H617 0.930 . S
C646 C622 1.431 . S
C646 C645 1.317 . S
C647 Gd588 2.828 . S
C647 O632 1.258 . S
C647 O637 1.252 . S
C647 C648 1.497 . S
C648 C647 1.497 . S
C648 C649 1.395 . S
C648 C650 1.380 . S
C649 C648 1.395 . S
C649 C652 1.398 . S
C649 H664 0.930 . S
C650 C648 1.380 . S
C650 C651 1.391 . S
C650 H665 0.930 . S
C651 C650 1.391 . S
C651 C653 1.387 . S
C652 C649 1.398 . S
C652 C653 1.380 . S
C652 H666 0.930 . S
C653 C651 1.387 . S
C653 C652 1.380 . S
C653 H667 0.930 . S
C654 O634 1.254 . S
C654 O635 1.268 . S
C655 O639 1.284 . S
C655 O642 1.250 . S
C656 Gd589 2.828 . S
C656 O638 1.258 . S
C656 O643 1.252 . S
C656 C657 1.497 . S
C657 C656 1.497 . S
C657 C658 1.395 . S
C657 C659 1.380 . S
C658 C657 1.395 . S
C658 C661 1.398 . S
C658 H668 0.930 . S
C659 C657 1.380 . S
C659 C660 1.391 . S
C659 H669 0.930 . S
C660 C659 1.391 . S
C660 C662 1.387 . S
C661 C658 1.398 . S
C661 C662 1.380 . S
C661 H670 0.930 . S
C662 C660 1.387 . S
C662 C661 1.380 . S
C662 H671 0.930 . S
C663 O640 1.254 . S
C663 O641 1.268 . S
H664 C649 0.930 . S
H665 C650 0.930 . S
H666 C652 0.930 . S
H667 C653 0.930 . S
H668 C658 0.930 . S
H669 C659 0.930 . S
H670 C661 0.930 . S
H671 C662 0.930 . S
Gd672 N703 2.661 . S
Gd672 N709 2.601 . S
Gd672 O716 2.545 . S
Gd672 O717 2.606 . S
Gd672 O719 2.429 . S
Gd672 O720 2.545 . S
Gd672 O721 2.412 . S
Gd672 O723 2.362 . S
Gd672 O724 2.324 . S
Gd672 C731 2.828 . S
Gd673 N682 2.661 . S
Gd673 N686 2.601 . S
Gd673 O717 2.362 . S
Gd673 O718 2.324 . S
Gd673 O722 2.545 . S
Gd673 O723 2.606 . S
Gd673 O725 2.429 . S
Gd673 O726 2.545 . S
Gd673 O727 2.412 . S
Gd673 C740 2.828 . S
C674 C677 1.417 . S
C674 C679 1.431 . S
C674 C680 1.412 . S
C675 C678 1.437 . S
C675 C679 1.317 . S
C675 H694 0.929 . S
C676 C677 1.426 . S
C676 C678 1.413 . S
C676 N686 1.359 . S
C677 C674 1.417 . S
C677 C676 1.426 . S
C677 N682 1.350 . S
C678 C675 1.437 . S
C678 C676 1.413 . S
C678 C688 1.391 . S
C679 C674 1.431 . S
C679 C675 1.317 . S
C679 H690 0.930 . S
C680 C674 1.412 . S
C680 C681 1.355 . S
C680 H692 0.930 . S
C681 C680 1.355 . S
C681 C683 1.402 . S
C681 H693 0.930 . S
N682 Gd673 2.661 . S
N682 C677 1.350 . S
N682 C683 1.307 . S
C683 C681 1.402 . S
C683 N682 1.307 . S
C683 H684 0.930 . S
H684 C683 0.930 . S
C685 N686 1.334 . S
C685 C687 1.394 . S
C685 H689 0.930 . S
N686 Gd673 2.601 . S
N686 C676 1.359 . S
N686 C685 1.334 . S
C687 C685 1.394 . S
C687 C688 1.359 . S
C687 H699 0.930 . S
C688 C678 1.391 . S
C688 C687 1.359 . S
C688 H700 0.929 . S
H689 C685 0.930 . S
H690 C679 0.930 . S
H691 C708 0.930 . S
H692 C680 0.930 . S
H693 C681 0.930 . S
H694 C675 0.929 . S
H695 C713 0.930 . S
H696 C704 0.930 . S
H697 C705 0.930 . S
H698 C729 0.929 . S
H699 C687 0.930 . S
H700 C688 0.929 . S
H701 C730 0.930 . S
H702 C711 0.930 . S
N703 Gd672 2.661 . S
N703 C707 1.350 . S
N703 C708 1.307 . S
C704 H696 0.930 . S
C704 C705 1.355 . S
C704 C706 1.412 . S
C705 H697 0.930 . S
C705 C704 1.355 . S
C705 C708 1.402 . S
C706 C704 1.412 . S
C706 C707 1.417 . S
C706 C730 1.431 . S
C707 N703 1.350 . S
C707 C706 1.417 . S
C707 C710 1.426 . S
C708 H691 0.930 . S
C708 N703 1.307 . S
C708 C705 1.402 . S
N709 Gd672 2.601 . S
N709 C710 1.359 . S
N709 C713 1.334 . S
C710 C707 1.426 . S
C710 N709 1.359 . S
C710 C714 1.413 . S
C711 H702 0.930 . S
C711 C712 1.359 1_554 S
C711 C713 1.394 . S
C712 C711 1.359 1_556 S
C712 C714 1.391 1_556 S
C712 H715 0.929 . S
C713 H695 0.930 . S
C713 N709 1.334 . S
C713 C711 1.394 . S
C714 C710 1.413 . S
C714 C712 1.391 1_554 S
C714 C729 1.437 1_554 S
H715 C712 0.929 . S
O716 Gd672 2.545 . S
O716 C731 1.258 . S
O717 Gd672 2.606 . S
O717 Gd673 2.362 . S
O717 C728 1.284 . S
O718 Gd673 2.324 . S
O718 C738 1.254 . S
O719 Gd672 2.429 . S
O719 C738 1.268 . S
O720 Gd672 2.545 . S
O720 C728 1.250 . S
O721 Gd672 2.412 . S
O721 C731 1.252 . S
O722 Gd673 2.545 . S
O722 C740 1.258 . S
O723 Gd672 2.362 . S
O723 Gd673 2.606 . S
O723 C739 1.284 . S
O724 Gd672 2.324 . S
O724 C747 1.254 . S
O725 Gd673 2.429 . S
O725 C747 1.268 . S
O726 Gd673 2.545 . S
O726 C739 1.250 . S
O727 Gd673 2.412 . S
O727 C740 1.252 . S
C728 O717 1.284 . S
C728 O720 1.250 . S
C729 H698 0.929 . S
C729 C714 1.437 1_556 S
C729 C730 1.317 1_556 S
C730 H701 0.930 . S
C730 C706 1.431 . S
C730 C729 1.317 1_554 S
C731 Gd672 2.828 . S
C731 O716 1.258 . S
C731 O721 1.252 . S
C731 C732 1.497 . S
C732 C731 1.497 . S
C732 C733 1.395 . S
C732 C734 1.380 . S
C733 C732 1.395 . S
C733 C736 1.398 . S
C733 H748 0.930 . S
C734 C732 1.380 . S
C734 C735 1.391 . S
C734 H749 0.930 . S
C735 C734 1.391 . S
C735 C737 1.387 . S
C736 C733 1.398 . S
C736 C737 1.380 . S
C736 H750 0.930 . S
C737 C735 1.387 . S
C737 C736 1.380 . S
C737 H751 0.930 . S
C738 O718 1.254 . S
C738 O719 1.268 . S
C739 O723 1.284 . S
C739 O726 1.250 . S
C740 Gd673 2.828 . S
C740 O722 1.258 . S
C740 O727 1.252 . S
C740 C741 1.497 . S
C741 C740 1.497 . S
C741 C742 1.395 . S
C741 C743 1.380 . S
C742 C741 1.395 . S
C742 C745 1.398 . S
C742 H752 0.930 . S
C743 C741 1.380 . S
C743 C744 1.391 . S
C743 H753 0.930 . S
C744 C743 1.391 . S
C744 C746 1.387 . S
C745 C742 1.398 . S
C745 C746 1.380 . S
C745 H754 0.930 . S
C746 C744 1.387 . S
C746 C745 1.380 . S
C746 H755 0.930 . S
C747 O724 1.254 . S
C747 O725 1.268 . S
H748 C733 0.930 . S
H749 C734 0.930 . S
H750 C736 0.930 . S
H751 C737 0.930 . S
H752 C742 0.930 . S
H753 C743 0.930 . S
H754 C745 0.930 . S
H755 C746 0.930 . S
Gd756 N787 2.661 1_565 S
Gd756 N793 2.601 . S
Gd756 O800 2.545 . S
Gd756 O801 2.606 . S
Gd756 O803 2.429 . S
Gd756 O804 2.545 . S
Gd756 O805 2.412 . S
Gd756 O807 2.362 1_565 S
Gd756 O808 2.324 1_565 S
Gd756 C815 2.828 . S
Gd757 N766 2.661 . S
Gd757 N770 2.601 . S
Gd757 O801 2.362 1_545 S
Gd757 O802 2.324 . S
Gd757 O806 2.545 . S
Gd757 O807 2.606 . S
Gd757 O809 2.429 . S
Gd757 O810 2.545 . S
Gd757 O811 2.412 . S
Gd757 C824 2.828 . S
C758 C761 1.417 . S
C758 C763 1.431 . S
C758 C764 1.412 1_545 S
C759 C762 1.437 1_554 S
C759 C763 1.317 1_554 S
C759 H778 0.929 . S
C760 C761 1.426 . S
C760 C762 1.413 . S
C760 N770 1.359 . S
C761 C758 1.417 . S
C761 C760 1.426 . S
C761 N766 1.350 . S
C762 C759 1.437 1_556 S
C762 C760 1.413 . S
C762 C772 1.391 1_556 S
C763 C758 1.431 . S
C763 C759 1.317 1_556 S
C763 H774 0.935 . S
C764 C758 1.412 1_565 S
C764 C765 1.355 . S
C764 H776 0.930 . S
C765 C764 1.355 . S
C765 C767 1.402 . S
C765 H777 0.930 . S
N766 Gd757 2.661 . S
N766 C761 1.350 . S
N766 C767 1.307 1_545 S
C767 C765 1.402 . S
C767 N766 1.307 1_565 S
C767 H768 0.930 . S
H768 C767 0.930 . S
C769 N770 1.334 . S
C769 C771 1.394 . S
C769 H773 0.930 . S
N770 Gd757 2.601 . S
N770 C760 1.359 . S
N770 C769 1.334 . S
C771 C769 1.394 . S
C771 C772 1.359 1_556 S
C771 H783 0.930 . S
C772 C762 1.391 1_554 S
C772 C771 1.359 1_554 S
C772 H784 0.929 . S
H773 C769 0.930 . S
H774 C763 0.935 . S
H775 C792 0.930 . S
H776 C764 0.930 . S
H777 C765 0.930 . S
H778 C759 0.929 . S
H779 C797 0.930 . S
H780 C788 0.930 . S
H781 C789 0.930 . S
H782 C813 0.929 . S
H783 C771 0.930 . S
H784 C772 0.929 . S
H785 C814 0.930 . S
H786 C795 0.930 . S
N787 Gd756 2.661 1_545 S
N787 C791 1.350 . S
N787 C792 1.307 . S
C788 H780 0.930 . S
C788 C789 1.355 . S
C788 C790 1.412 . S
C789 H781 0.930 . S
C789 C788 1.355 . S
C789 C792 1.402 . S
C790 C788 1.412 . S
C790 C791 1.417 . S
C790 C814 1.431 . S
C791 N787 1.350 . S
C791 C790 1.417 . S
C791 C794 1.426 1_545 S
C792 H775 0.930 . S
C792 N787 1.307 . S
C792 C789 1.402 . S
N793 Gd756 2.601 . S
N793 C794 1.359 . S
N793 C797 1.334 . S
C794 C791 1.426 1_565 S
C794 N793 1.359 . S
C794 C798 1.413 . S
C795 H786 0.930 . S
C795 C796 1.359 . S
C795 C797 1.394 . S
C796 C795 1.359 . S
C796 C798 1.391 . S
C796 H799 0.929 . S
C797 H779 0.930 . S
C797 N793 1.334 . S
C797 C795 1.394 . S
C798 C794 1.413 . S
C798 C796 1.391 . S
C798 C813 1.437 . S
H799 C796 0.929 . S
O800 Gd756 2.545 . S
O800 C815 1.258 . S
O801 Gd756 2.606 . S
O801 Gd757 2.362 1_565 S
O801 C812 1.284 . S
O802 Gd757 2.324 . S
O802 C822 1.254 1_545 S
O803 Gd756 2.429 . S
O803 C822 1.268 . S
O804 Gd756 2.545 . S
O804 C812 1.250 . S
O805 Gd756 2.412 . S
O805 C815 1.252 . S
O806 Gd757 2.545 . S
O806 C824 1.258 . S
O807 Gd756 2.362 1_545 S
O807 Gd757 2.606 . S
O807 C823 1.284 . S
O808 Gd756 2.324 1_545 S
O808 C831 1.254 . S
O809 Gd757 2.429 . S
O809 C831 1.268 . S
O810 Gd757 2.545 . S
O810 C823 1.250 . S
O811 Gd757 2.412 . S
O811 C824 1.252 . S
C812 O801 1.284 . S
C812 O804 1.250 . S
C813 H782 0.929 . S
C813 C798 1.437 . S
C813 C814 1.317 1_565 S
C814 H785 0.930 . S
C814 C790 1.431 . S
C814 C813 1.317 1_545 S
C815 Gd756 2.828 . S
C815 O800 1.258 . S
C815 O805 1.252 . S
C815 C816 1.497 . S
C816 C815 1.497 . S
C816 C817 1.395 . S
C816 C818 1.380 . S
C817 C816 1.395 . S
C817 C820 1.398 . S
C817 H832 0.930 . S
C818 C816 1.380 . S
C818 C819 1.391 . S
C818 H833 0.930 . S
C819 C818 1.391 . S
C819 C821 1.387 . S
C820 C817 1.398 . S
C820 C821 1.380 . S
C820 H834 0.930 . S
C821 C819 1.387 . S
C821 C820 1.380 . S
C821 H835 0.930 . S
C822 O802 1.254 1_565 S
C822 O803 1.268 . S
C823 O807 1.284 . S
C823 O810 1.250 . S
C824 Gd757 2.828 . S
C824 O806 1.258 . S
C824 O811 1.252 . S
C824 C825 1.497 . S
C825 C824 1.497 . S
C825 C826 1.395 . S
C825 C827 1.380 . S
C826 C825 1.395 . S
C826 C829 1.398 . S
C826 H836 0.930 . S
C827 C825 1.380 . S
C827 C828 1.391 . S
C827 H837 0.930 . S
C828 C827 1.391 . S
C828 C830 1.387 . S
C829 C826 1.398 . S
C829 C830 1.380 . S
C829 H838 0.930 . S
C830 C828 1.387 . S
C830 C829 1.380 . S
C830 H839 0.930 . S
C831 O808 1.254 . S
C831 O809 1.268 . S
H832 C817 0.930 . S
H833 C818 0.930 . S
H834 C820 0.930 . S
H835 C821 0.930 . S
H836 C826 0.930 . S
H837 C827 0.930 . S
H838 C829 0.930 . S
H839 C830 0.930 . S
Gd840 N871 2.661 1_545 S
Gd840 N877 2.601 . S
Gd840 O884 2.545 . S
Gd840 O885 2.606 . S
Gd840 O887 2.429 . S
Gd840 O888 2.545 . S
Gd840 O889 2.412 . S
Gd840 O891 2.362 1_545 S
Gd840 O892 2.324 1_545 S
Gd840 C899 2.828 . S
Gd841 N850 2.661 . S
Gd841 N854 2.601 . S
Gd841 O885 2.362 1_565 S
Gd841 O886 2.324 . S
Gd841 O890 2.545 . S
Gd841 O891 2.606 . S
Gd841 O893 2.429 . S
Gd841 O894 2.545 . S
Gd841 O895 2.412 . S
Gd841 C908 2.828 . S
C842 C845 1.437 . S
C842 C847 1.442 . S
C842 C848 1.383 1_565 S
C843 C846 1.437 . S
C843 C847 1.317 . S
C843 H862 0.929 . S
C844 C845 1.426 . S
C844 C846 1.413 . S
C844 N854 1.359 . S
C845 C842 1.437 . S
C845 C844 1.426 . S
C845 N850 1.350 . S
C846 C843 1.437 . S
C846 C844 1.413 . S
C846 C856 1.391 . S
C847 C842 1.442 . S
C847 C843 1.317 . S
C847 H858 0.914 1_565 S
C848 C842 1.383 1_545 S
C848 C849 1.355 . S
C848 H860 0.930 . S
C849 C848 1.355 . S
C849 C851 1.402 . S
C849 H861 0.930 . S
N850 Gd841 2.661 . S
N850 C845 1.350 . S
N850 C851 1.307 1_565 S
C851 C849 1.402 . S
C851 N850 1.307 1_545 S
C851 H852 0.930 . S
H852 C851 0.930 . S
C853 N854 1.334 . S
C853 C855 1.394 . S
C853 H857 0.930 . S
N854 Gd841 2.601 . S
N854 C844 1.359 . S
N854 C853 1.334 . S
C855 C853 1.394 . S
C855 C856 1.359 . S
C855 H867 0.930 . S
C856 C846 1.391 . S
C856 C855 1.359 . S
C856 H868 0.929 . S
H857 C853 0.930 . S
H858 C847 0.914 1_545 S
H859 C876 0.930 . S
H860 C848 0.930 . S
H861 C849 0.930 . S
H862 C843 0.929 . S
H863 C881 0.930 . S
H864 C872 0.930 . S
H865 C873 0.930 . S
H866 C897 0.929 . S
H867 C855 0.930 . S
H868 C856 0.929 . S
H869 C898 0.930 . S
H870 C879 0.930 . S
N871 Gd840 2.661 1_565 S
N871 C875 1.350 . S
N871 C876 1.307 . S
C872 H864 0.930 . S
C872 C873 1.355 . S
C872 C874 1.412 . S
C873 H865 0.930 . S
C873 C872 1.355 . S
C873 C876 1.402 . S
C874 C872 1.412 . S
C874 C875 1.417 . S
C874 C898 1.431 . S
C875 N871 1.350 . S
C875 C874 1.417 . S
C875 C878 1.426 1_565 S
C876 H859 0.930 . S
C876 N871 1.307 . S
C876 C873 1.402 . S
N877 Gd840 2.601 . S
N877 C878 1.359 . S
N877 C881 1.334 . S
C878 C875 1.426 1_545 S
C878 N877 1.359 . S
C878 C882 1.413 . S
C879 H870 0.930 . S
C879 C880 1.359 . S
C879 C881 1.394 . S
C880 C879 1.359 . S
C880 C882 1.391 . S
C880 H883 0.929 . S
C881 H863 0.930 . S
C881 N877 1.334 . S
C881 C879 1.394 . S
C882 C878 1.413 . S
C882 C880 1.391 . S
C882 C897 1.437 . S
H883 C880 0.929 . S
O884 Gd840 2.545 . S
O884 C899 1.258 . S
O885 Gd840 2.606 . S
O885 Gd841 2.362 1_545 S
O885 C896 1.284 . S
O886 Gd841 2.324 . S
O886 C906 1.254 1_565 S
O887 Gd840 2.429 . S
O887 C906 1.268 . S
O888 Gd840 2.545 . S
O888 C896 1.250 . S
O889 Gd840 2.412 . S
O889 C899 1.252 . S
O890 Gd841 2.545 . S
O890 C908 1.258 . S
O891 Gd840 2.362 1_565 S
O891 Gd841 2.606 . S
O891 C907 1.284 . S
O892 Gd840 2.324 1_565 S
O892 C915 1.254 . S
O893 Gd841 2.429 . S
O893 C915 1.268 . S
O894 Gd841 2.545 . S
O894 C907 1.250 . S
O895 Gd841 2.412 . S
O895 C908 1.252 . S
C896 O885 1.284 . S
C896 O888 1.250 . S
C897 H866 0.929 . S
C897 C882 1.437 . S
C897 C898 1.317 1_545 S
C898 H869 0.930 . S
C898 C874 1.431 . S
C898 C897 1.317 1_565 S
C899 Gd840 2.828 . S
C899 O884 1.258 . S
C899 O889 1.252 . S
C899 C900 1.497 . S
C900 C899 1.497 . S
C900 C901 1.395 . S
C900 C902 1.380 . S
C901 C900 1.395 . S
C901 C904 1.398 . S
C901 H916 0.930 . S
C902 C900 1.380 . S
C902 C903 1.391 . S
C902 H917 0.930 . S
C903 C902 1.391 . S
C903 C905 1.387 . S
C904 C901 1.398 . S
C904 C905 1.380 . S
C904 H918 0.930 . S
C905 C903 1.387 . S
C905 C904 1.380 . S
C905 H919 0.930 . S
C906 O886 1.254 1_545 S
C906 O887 1.268 . S
C907 O891 1.284 . S
C907 O894 1.250 . S
C908 Gd841 2.828 . S
C908 O890 1.258 . S
C908 O895 1.252 . S
C908 C909 1.497 . S
C909 C908 1.497 . S
C909 C910 1.395 . S
C909 C911 1.380 . S
C910 C909 1.395 . S
C910 C913 1.398 . S
C910 H920 0.930 . S
C911 C909 1.380 . S
C911 C912 1.391 . S
C911 H921 0.930 . S
C912 C911 1.391 . S
C912 C914 1.387 . S
C913 C910 1.398 . S
C913 C914 1.380 . S
C913 H922 0.930 . S
C914 C912 1.387 . S
C914 C913 1.380 . S
C914 H923 0.930 . S
C915 O892 1.254 . S
C915 O893 1.268 . S
H916 C901 0.930 . S
H917 C902 0.930 . S
H918 C904 0.930 . S
H919 C905 0.930 . S
H920 C910 0.930 . S
H921 C911 0.930 . S
H922 C913 0.930 . S
H923 C914 0.930 . S
Gd924 N955 2.661 . S
Gd924 N961 2.601 . S
Gd924 O968 2.545 . S
Gd924 O969 2.606 . S
Gd924 O971 2.429 . S
Gd924 O972 2.545 . S
Gd924 O973 2.412 . S
Gd924 O975 2.362 . S
Gd924 O976 2.324 . S
Gd924 C983 2.828 . S
Gd925 N934 2.661 . S
Gd925 N938 2.601 . S
Gd925 O969 2.362 . S
Gd925 O970 2.324 . S
Gd925 O974 2.545 . S
Gd925 O975 2.606 . S
Gd925 O977 2.429 . S
Gd925 O978 2.545 . S
Gd925 O979 2.412 . S
Gd925 C992 2.828 . S
C926 C929 1.417 . S
C926 C931 1.431 . S
C926 C932 1.412 . S
C927 C930 1.437 . S
C927 C931 1.317 . S
C927 H946 0.929 . S
C928 C929 1.426 . S
C928 C930 1.413 . S
C928 N938 1.359 . S
C929 C926 1.417 . S
C929 C928 1.426 . S
C929 N934 1.350 . S
C930 C927 1.437 . S
C930 C928 1.413 . S
C930 C940 1.391 . S
C931 C926 1.431 . S
C931 C927 1.317 . S
C931 H942 0.930 . S
C932 C926 1.412 . S
C932 C933 1.355 . S
C932 H944 0.930 . S
C933 C932 1.355 . S
C933 C935 1.402 . S
C933 H945 0.930 . S
N934 Gd925 2.661 . S
N934 C929 1.350 . S
N934 C935 1.307 . S
C935 C933 1.402 . S
C935 N934 1.307 . S
C935 H936 0.930 . S
H936 C935 0.930 . S
C937 N938 1.334 . S
C937 C939 1.394 . S
C937 H941 0.930 . S
N938 Gd925 2.601 . S
N938 C928 1.359 . S
N938 C937 1.334 . S
C939 C937 1.394 . S
C939 C940 1.359 . S
C939 H951 0.930 . S
C940 C930 1.391 . S
C940 C939 1.359 . S
C940 H952 0.929 . S
H941 C937 0.930 . S
H942 C931 0.930 . S
H943 C960 0.930 . S
H944 C932 0.930 . S
H945 C933 0.930 . S
H946 C927 0.929 . S
H947 C965 0.930 . S
H948 C956 0.930 . S
H949 C957 0.930 . S
H950 C981 0.929 . S
H951 C939 0.930 . S
H952 C940 0.929 . S
H953 C982 0.930 . S
H954 C963 0.930 . S
N955 Gd924 2.661 . S
N955 C959 1.350 . S
N955 C960 1.307 . S
C956 H948 0.930 . S
C956 C957 1.355 . S
C956 C958 1.412 . S
C957 H949 0.930 . S
C957 C956 1.355 . S
C957 C960 1.402 . S
C958 C956 1.412 . S
C958 C959 1.417 . S
C958 C982 1.431 . S
C959 N955 1.350 . S
C959 C958 1.417 . S
C959 C962 1.426 . S
C960 H943 0.930 . S
C960 N955 1.307 . S
C960 C957 1.402 . S
N961 Gd924 2.601 . S
N961 C962 1.359 . S
N961 C965 1.334 . S
C962 C959 1.426 . S
C962 N961 1.359 . S
C962 C966 1.413 . S
C963 H954 0.930 . S
C963 C964 1.359 . S
C963 C965 1.394 . S
C964 C963 1.359 . S
C964 C966 1.391 . S
C964 H967 0.929 . S
C965 H947 0.930 . S
C965 N961 1.334 . S
C965 C963 1.394 . S
C966 C962 1.413 . S
C966 C964 1.391 . S
C966 C981 1.437 . S
H967 C964 0.929 . S
O968 Gd924 2.545 . S
O968 C983 1.258 . S
O969 Gd924 2.606 . S
O969 Gd925 2.362 . S
O969 C980 1.284 . S
O970 Gd925 2.324 . S
O970 C990 1.254 . S
O971 Gd924 2.429 . S
O971 C990 1.268 . S
O972 Gd924 2.545 . S
O972 C980 1.250 . S
O973 Gd924 2.412 . S
O973 C983 1.252 . S
O974 Gd925 2.545 . S
O974 C992 1.258 . S
O975 Gd924 2.362 . S
O975 Gd925 2.606 . S
O975 C991 1.284 . S
O976 Gd924 2.324 . S
O976 C999 1.254 . S
O977 Gd925 2.429 . S
O977 C999 1.268 . S
O978 Gd925 2.545 . S
O978 C991 1.250 . S
O979 Gd925 2.412 . S
O979 C992 1.252 . S
C980 O969 1.284 . S
C980 O972 1.250 . S
C981 H950 0.929 . S
C981 C966 1.437 . S
C981 C982 1.317 . S
C982 H953 0.930 . S
C982 C958 1.431 . S
C982 C981 1.317 . S
C983 Gd924 2.828 . S
C983 O968 1.258 . S
C983 O973 1.252 . S
C983 C984 1.497 . S
C984 C983 1.497 . S
C984 C985 1.395 . S
C984 C986 1.380 . S
C985 C984 1.395 . S
C985 C988 1.398 . S
C985 H1000 0.930 . S
C986 C984 1.380 . S
C986 C987 1.391 . S
C986 H1001 0.930 . S
C987 C986 1.391 . S
C987 C989 1.387 . S
C988 C985 1.398 . S
C988 C989 1.380 . S
C988 H1002 0.930 . S
C989 C987 1.387 . S
C989 C988 1.380 . S
C989 H1003 0.930 . S
C990 O970 1.254 . S
C990 O971 1.268 . S
C991 O975 1.284 . S
C991 O978 1.250 . S
C992 Gd925 2.828 . S
C992 O974 1.258 . S
C992 O979 1.252 . S
C992 C993 1.497 . S
C993 C992 1.497 . S
C993 C994 1.395 . S
C993 C995 1.380 . S
C994 C993 1.395 . S
C994 C997 1.398 . S
C994 H1004 0.930 . S
C995 C993 1.380 . S
C995 C996 1.391 . S
C995 H1005 0.930 . S
C996 C995 1.391 . S
C996 C998 1.387 . S
C997 C994 1.398 . S
C997 C998 1.380 . S
C997 H1006 0.930 . S
C998 C996 1.387 . S
C998 C997 1.380 . S
C998 H1007 0.930 . S
C999 O976 1.254 . S
C999 O977 1.268 . S
H1000 C985 0.930 . S
H1001 C986 0.930 . S
H1002 C988 0.930 . S
H1003 C989 0.930 . S
H1004 C994 0.930 . S
H1005 C995 0.930 . S
H1006 C997 0.930 . S
H1007 C998 0.930 . S
H1008 C1020 0.930 . S
H1009 C1022 0.930 . S
H1010 C1023 0.930 . S
H1011 C1027 0.959 . S
H1012 C1027 0.959 . S
H1013 C1027 0.961 . S
H1014 C1028 0.960 . S
H1015 C1028 0.961 . S
H1016 C1028 0.959 . S
H1017 C1031 0.929 . S
H1018 C1032 0.931 . S
H1019 C1034 0.930 . S
C1020 H1008 0.930 . S
C1020 C1021 1.399 . S
C1020 C1025 1.399 . S
C1021 C1020 1.399 . S
C1021 C1022 1.376 . S
C1022 H1009 0.930 . S
C1022 C1021 1.376 . S
C1022 C1023 1.388 . S
C1023 H1010 0.930 . S
C1023 C1022 1.388 . S
C1023 C1024 1.390 . S
C1024 C1023 1.390 . S
C1024 C1025 1.394 . S
C1024 C1030 1.465 . S
C1025 C1020 1.399 . S
C1025 C1024 1.394 . S
C1025 C1026 1.516 . S
C1026 C1025 1.516 . S
C1026 C1027 1.502 . S
C1026 C1028 1.561 . S
C1026 C1029 1.526 . S
C1027 H1011 0.959 . S
C1027 H1012 0.959 . S
C1027 H1013 0.961 . S
C1027 C1026 1.502 . S
C1028 H1014 0.960 . S
C1028 H1015 0.961 . S
C1028 H1016 0.959 . S
C1028 C1026 1.561 . S
C1029 C1026 1.526 . S
C1029 C1030 1.396 . S
C1029 C1034 1.390 . S
C1030 C1024 1.465 . S
C1030 C1029 1.396 . S
C1030 C1031 1.399 . S
C1031 H1017 0.929 . S
C1031 C1030 1.399 . S
C1031 C1032 1.385 . S
C1032 H1018 0.931 . S
C1032 C1031 1.385 . S
C1032 C1033 1.389 . S
C1033 C1032 1.389 . S
C1033 C1034 1.387 . S
C1034 H1019 0.930 . S
C1034 C1029 1.390 . S
C1034 C1033 1.387 . S
H1035 C1047 0.930 . S
H1036 C1049 0.930 . S
H1037 C1050 0.930 1_545 S
H1038 C1054 0.959 . S
H1039 C1054 0.959 . S
H1040 C1054 0.961 . S
H1041 C1055 0.960 . S
H1042 C1055 0.961 . S
H1043 C1055 0.959 . S
H1044 C1058 0.929 . S
H1045 C1059 0.931 . S
H1046 C1061 0.930 . S
C1047 H1035 0.930 . S
C1047 C1048 1.399 . S
C1047 C1052 1.399 . S
C1048 C1047 1.399 . S
C1048 C1049 1.376 1_565 S
C1049 H1036 0.930 . S
C1049 C1048 1.376 1_545 S
C1049 C1050 1.388 1_545 S
C1050 H1037 0.930 1_565 S
C1050 C1049 1.388 1_565 S
C1050 C1051 1.390 . S
C1051 C1050 1.390 . S
C1051 C1052 1.394 . S
C1051 C1057 1.465 . S
C1052 C1047 1.399 . S
C1052 C1051 1.394 . S
C1052 C1053 1.516 . S
C1053 C1052 1.516 . S
C1053 C1054 1.502 . S
C1053 C1055 1.561 . S
C1053 C1056 1.526 . S
C1054 H1038 0.959 . S
C1054 H1039 0.959 . S
C1054 H1040 0.961 . S
C1054 C1053 1.502 . S
C1055 H1041 0.960 . S
C1055 H1042 0.961 . S
C1055 H1043 0.959 . S
C1055 C1053 1.561 . S
C1056 C1053 1.526 . S
C1056 C1057 1.396 . S
C1056 C1061 1.390 . S
C1057 C1051 1.465 . S
C1057 C1056 1.396 . S
C1057 C1058 1.399 . S
C1058 H1044 0.929 . S
C1058 C1057 1.399 . S
C1058 C1059 1.385 . S
C1059 H1045 0.931 . S
C1059 C1058 1.385 . S
C1059 C1060 1.389 . S
C1060 C1059 1.389 . S
C1060 C1061 1.387 . S
C1061 H1046 0.930 . S
C1061 C1056 1.390 . S
C1061 C1060 1.387 . S
H1062 C1074 0.930 1_556 S
H1063 C1076 0.930 . S
H1064 C1077 0.930 . S
H1065 C1081 0.959 . S
H1066 C1081 0.959 . S
H1067 C1081 0.961 . S
H1068 C1082 0.960 . S
H1069 C1082 0.961 . S
H1070 C1082 0.959 . S
H1071 C1085 0.929 . S
H1072 C1086 0.931 . S
H1073 C1088 0.930 . S
C1074 H1062 0.930 1_554 S
C1074 C1075 1.399 . S
C1074 C1079 1.399 . S
C1075 C1074 1.399 . S
C1075 C1076 1.376 . S
C1076 H1063 0.930 . S
C1076 C1075 1.376 . S
C1076 C1077 1.388 . S
C1077 H1064 0.930 . S
C1077 C1076 1.388 . S
C1077 C1078 1.390 . S
C1078 C1077 1.390 . S
C1078 C1079 1.394 . S
C1078 C1084 1.465 . S
C1079 C1074 1.399 . S
C1079 C1078 1.394 . S
C1079 C1080 1.516 . S
C1080 C1079 1.516 . S
C1080 C1081 1.502 . S
C1080 C1082 1.561 1_554 S
C1080 C1083 1.526 . S
C1081 H1065 0.959 . S
C1081 H1066 0.959 . S
C1081 H1067 0.961 . S
C1081 C1080 1.502 . S
C1082 H1068 0.960 . S
C1082 H1069 0.961 . S
C1082 H1070 0.959 . S
C1082 C1080 1.561 1_556 S
C1083 C1080 1.526 . S
C1083 C1084 1.396 . S
C1083 C1088 1.390 . S
C1084 C1078 1.465 . S
C1084 C1083 1.396 . S
C1084 C1085 1.399 . S
C1085 H1071 0.929 . S
C1085 C1084 1.399 . S
C1085 C1086 1.385 . S
C1086 H1072 0.931 . S
C1086 C1085 1.385 . S
C1086 C1087 1.389 . S
C1087 C1086 1.389 . S
C1087 C1088 1.387 . S
C1088 H1073 0.930 . S
C1088 C1083 1.390 . S
C1088 C1087 1.387 . S
H1089 C1101 0.930 . S
H1090 C1103 0.930 . S
H1091 C1104 0.930 . S
H1092 C1108 0.959 . S
H1093 C1108 0.959 . S
H1094 C1108 0.961 . S
H1095 C1109 0.960 . S
H1096 C1109 0.961 1_565 S
H1097 C1109 0.959 1_565 S
H1098 C1112 0.929 . S
H1099 C1113 0.931 . S
H1100 C1115 0.930 . S
C1101 H1089 0.930 . S
C1101 C1102 1.399 . S
C1101 C1106 1.399 . S
C1102 C1101 1.399 . S
C1102 C1103 1.376 . S
C1103 H1090 0.930 . S
C1103 C1102 1.376 . S
C1103 C1104 1.388 . S
C1104 H1091 0.930 . S
C1104 C1103 1.388 . S
C1104 C1105 1.390 . S
C1105 C1104 1.390 . S
C1105 C1106 1.394 . S
C1105 C1111 1.465 . S
C1106 C1101 1.399 . S
C1106 C1105 1.394 . S
C1106 C1107 1.516 . S
C1107 C1106 1.516 . S
C1107 C1108 1.502 . S
C1107 C1109 1.561 . S
C1107 C1110 1.526 . S
C1108 H1092 0.959 . S
C1108 H1093 0.959 . S
C1108 H1094 0.961 . S
C1108 C1107 1.502 . S
C1109 H1095 0.960 . S
C1109 H1096 0.961 1_545 S
C1109 H1097 0.959 1_545 S
C1109 C1107 1.561 . S
C1110 C1107 1.526 . S
C1110 C1111 1.396 . S
C1110 C1115 1.390 . S
C1111 C1105 1.465 . S
C1111 C1110 1.396 . S
C1111 C1112 1.399 . S
C1112 H1098 0.929 . S
C1112 C1111 1.399 . S
C1112 C1113 1.385 . S
C1113 H1099 0.931 . S
C1113 C1112 1.385 . S
C1113 C1114 1.389 . S
C1114 C1113 1.389 . S
C1114 C1115 1.387 . S
C1115 H1100 0.930 . S
C1115 C1110 1.390 . S
C1115 C1114 1.387 . S
H1116 C1128 0.930 . S
H1117 C1130 0.930 . S
H1118 C1131 0.930 . S
H1119 C1135 0.959 . S
H1120 C1135 0.959 . S
H1121 C1135 0.961 . S
H1122 C1136 0.960 . S
H1123 C1136 0.961 . S
H1124 C1136 0.959 . S
H1125 C1139 0.929 . S
H1126 C1140 0.931 . S
H1127 C1142 0.930 . S
C1128 H1116 0.930 . S
C1128 C1129 1.399 . S
C1128 C1133 1.399 . S
C1129 C1128 1.399 . S
C1129 C1130 1.376 . S
C1130 H1117 0.930 . S
C1130 C1129 1.376 . S
C1130 C1131 1.388 . S
C1131 H1118 0.930 . S
C1131 C1130 1.388 . S
C1131 C1132 1.390 . S
C1132 C1131 1.390 . S
C1132 C1133 1.394 . S
C1132 C1138 1.465 . S
C1133 C1128 1.399 . S
C1133 C1132 1.394 . S
C1133 C1134 1.516 . S
C1134 C1133 1.516 . S
C1134 C1135 1.502 . S
C1134 C1136 1.561 . S
C1134 C1137 1.526 . S
C1135 H1119 0.959 . S
C1135 H1120 0.959 . S
C1135 H1121 0.961 . S
C1135 C1134 1.502 . S
C1136 H1122 0.960 . S
C1136 H1123 0.961 . S
C1136 H1124 0.959 . S
C1136 C1134 1.561 . S
C1137 C1134 1.526 . S
C1137 C1138 1.396 . S
C1137 C1142 1.390 . S
C1138 C1132 1.465 . S
C1138 C1137 1.396 . S
C1138 C1139 1.399 . S
C1139 H1125 0.929 . S
C1139 C1138 1.399 . S
C1139 C1140 1.385 . S
C1140 H1126 0.931 . S
C1140 C1139 1.385 . S
C1140 C1141 1.389 . S
C1141 C1140 1.389 . S
C1141 C1142 1.387 . S
C1142 H1127 0.930 . S
C1142 C1137 1.390 . S
C1142 C1141 1.387 . S
H1143 C1155 0.930 . S
H1144 C1157 0.930 . S
H1145 C1158 0.930 . S
H1146 C1162 0.959 . S
H1147 C1162 0.959 . S
H1148 C1162 0.961 . S
H1149 C1163 0.960 . S
H1150 C1163 0.961 . S
H1151 C1163 0.959 . S
H1152 C1166 0.929 . S
H1153 C1167 0.931 . S
H1154 C1169 0.930 . S
C1155 H1143 0.930 . S
C1155 C1156 1.399 . S
C1155 C1160 1.399 . S
C1156 C1155 1.399 . S
C1156 C1157 1.376 . S
C1157 H1144 0.930 . S
C1157 C1156 1.376 . S
C1157 C1158 1.388 . S
C1158 H1145 0.930 . S
C1158 C1157 1.388 . S
C1158 C1159 1.390 . S
C1159 C1158 1.390 . S
C1159 C1160 1.394 . S
C1159 C1165 1.465 . S
C1160 C1155 1.399 . S
C1160 C1159 1.394 . S
C1160 C1161 1.516 . S
C1161 C1160 1.516 . S
C1161 C1162 1.502 . S
C1161 C1163 1.561 . S
C1161 C1164 1.526 . S
C1162 H1146 0.959 . S
C1162 H1147 0.959 . S
C1162 H1148 0.961 . S
C1162 C1161 1.502 . S
C1163 H1149 0.960 . S
C1163 H1150 0.961 . S
C1163 H1151 0.959 . S
C1163 C1161 1.561 . S
C1164 C1161 1.526 . S
C1164 C1165 1.396 . S
C1164 C1169 1.390 . S
C1165 C1159 1.465 . S
C1165 C1164 1.396 . S
C1165 C1166 1.399 . S
C1166 H1152 0.929 . S
C1166 C1165 1.399 . S
C1166 C1167 1.385 . S
C1167 H1153 0.931 . S
C1167 C1166 1.385 . S
C1167 C1168 1.389 . S
C1168 C1167 1.389 . S
C1168 C1169 1.387 . S
C1169 H1154 0.930 . S
C1169 C1164 1.390 . S
C1169 C1168 1.387 . S
H1170 C1182 0.930 . S
H1171 C1184 0.930 . S
H1172 C1185 0.930 . S
H1173 C1189 0.959 . S
H1174 C1189 0.959 . S
H1175 C1189 0.961 . S
H1176 C1190 0.960 . S
H1177 C1190 0.961 . S
H1178 C1190 0.959 . S
H1179 C1193 0.929 1_554 S
H1180 C1194 0.931 . S
H1181 C1196 0.930 . S
C1182 H1170 0.930 . S
C1182 C1183 1.399 . S
C1182 C1187 1.399 . S
C1183 C1182 1.399 . S
C1183 C1184 1.376 . S
C1184 H1171 0.930 . S
C1184 C1183 1.376 . S
C1184 C1185 1.388 . S
C1185 H1172 0.930 . S
C1185 C1184 1.388 . S
C1185 C1186 1.390 . S
C1186 C1185 1.390 . S
C1186 C1187 1.394 . S
C1186 C1192 1.465 . S
C1187 C1182 1.399 . S
C1187 C1186 1.394 . S
C1187 C1188 1.516 . S
C1188 C1187 1.516 . S
C1188 C1189 1.502 . S
C1188 C1190 1.561 . S
C1188 C1191 1.526 . S
C1189 H1173 0.959 . S
C1189 H1174 0.959 . S
C1189 H1175 0.961 . S
C1189 C1188 1.502 . S
C1190 H1176 0.960 . S
C1190 H1177 0.961 . S
C1190 H1178 0.959 . S
C1190 C1188 1.561 . S
C1191 C1188 1.526 . S
C1191 C1192 1.396 . S
C1191 C1196 1.390 . S
C1192 C1186 1.465 . S
C1192 C1191 1.396 . S
C1192 C1193 1.399 . S
C1193 H1179 0.929 1_556 S
C1193 C1192 1.399 . S
C1193 C1194 1.385 1_556 S
C1194 H1180 0.931 . S
C1194 C1193 1.385 1_554 S
C1194 C1195 1.389 1_554 S
C1195 C1194 1.389 1_556 S
C1195 C1196 1.387 . S
C1196 H1181 0.930 . S
C1196 C1191 1.390 . S
C1196 C1195 1.387 . S
H1197 C1209 0.930 . S
H1198 C1211 0.930 . S
H1199 C1212 0.930 . S
H1200 C1216 0.959 . S
H1201 C1216 0.959 . S
H1202 C1216 0.961 . S
H1203 C1217 0.960 . S
H1204 C1217 0.961 . S
H1205 C1217 0.959 . S
H1206 C1220 0.929 . S
H1207 C1221 0.931 . S
H1208 C1223 0.930 . S
C1209 H1197 0.930 . S
C1209 C1210 1.399 . S
C1209 C1214 1.399 . S
C1210 C1209 1.399 . S
C1210 C1211 1.376 . S
C1211 H1198 0.930 . S
C1211 C1210 1.376 . S
C1211 C1212 1.388 . S
C1212 H1199 0.930 . S
C1212 C1211 1.388 . S
C1212 C1213 1.390 . S
C1213 C1212 1.390 . S
C1213 C1214 1.394 . S
C1213 C1219 1.465 . S
C1214 C1209 1.399 . S
C1214 C1213 1.394 . S
C1214 C1215 1.516 . S
C1215 C1214 1.516 . S
C1215 C1216 1.502 . S
C1215 C1217 1.561 . S
C1215 C1218 1.526 . S
C1216 H1200 0.959 . S
C1216 H1201 0.959 . S
C1216 H1202 0.961 . S
C1216 C1215 1.502 . S
C1217 H1203 0.960 . S
C1217 H1204 0.961 . S
C1217 H1205 0.959 . S
C1217 C1215 1.561 . S
C1218 C1215 1.526 . S
C1218 C1219 1.396 . S
C1218 C1223 1.390 . S
C1219 C1213 1.465 . S
C1219 C1218 1.396 . S
C1219 C1220 1.399 . S
C1220 H1206 0.929 . S
C1220 C1219 1.399 . S
C1220 C1221 1.385 . S
C1221 H1207 0.931 . S
C1221 C1220 1.385 . S
C1221 C1222 1.389 . S
C1222 C1221 1.389 . S
C1222 C1223 1.387 . S
C1223 H1208 0.930 . S
C1223 C1218 1.390 . S
C1223 C1222 1.387 . S
H1224 C1236 0.930 . S
H1225 C1238 0.930 . S
H1226 C1239 0.930 . S
H1227 C1243 0.959 . S
H1228 C1243 0.959 . S
H1229 C1243 0.961 . S
H1230 C1244 0.960 . S
H1231 C1244 0.961 . S
H1232 C1244 0.959 . S
H1233 C1247 0.929 . S
H1234 C1248 0.931 . S
H1235 C1250 0.930 . S
C1236 H1224 0.930 . S
C1236 C1237 1.399 . S
C1236 C1241 1.399 . S
C1237 C1236 1.399 . S
C1237 C1238 1.376 . S
C1238 H1225 0.930 . S
C1238 C1237 1.376 . S
C1238 C1239 1.388 . S
C1239 H1226 0.930 . S
C1239 C1238 1.388 . S
C1239 C1240 1.390 . S
C1240 C1239 1.390 . S
C1240 C1241 1.394 . S
C1240 C1246 1.465 . S
C1241 C1236 1.399 . S
C1241 C1240 1.394 . S
C1241 C1242 1.516 . S
C1242 C1241 1.516 . S
C1242 C1243 1.502 . S
C1242 C1244 1.561 . S
C1242 C1245 1.526 . S
C1243 H1227 0.959 . S
C1243 H1228 0.959 . S
C1243 H1229 0.961 . S
C1243 C1242 1.502 . S
C1244 H1230 0.960 . S
C1244 H1231 0.961 . S
C1244 H1232 0.959 . S
C1244 C1242 1.561 . S
C1245 C1242 1.526 . S
C1245 C1246 1.396 . S
C1245 C1250 1.390 . S
C1246 C1240 1.465 . S
C1246 C1245 1.396 . S
C1246 C1247 1.399 . S
C1247 H1233 0.929 . S
C1247 C1246 1.399 . S
C1247 C1248 1.385 . S
C1248 H1234 0.931 . S
C1248 C1247 1.385 . S
C1248 C1249 1.389 . S
C1249 C1248 1.389 . S
C1249 C1250 1.387 . S
C1250 H1235 0.930 . S
C1250 C1245 1.390 . S
C1250 C1249 1.387 . S
H1251 C1263 0.930 . S
H1252 C1265 0.930 . S
H1253 C1266 0.923 1_655 S
H1254 C1270 0.959 . S
H1255 C1270 0.959 . S
H1256 C1270 0.961 . S
H1257 C1271 0.960 . S
H1258 C1271 0.961 . S
H1259 C1271 0.959 . S
H1260 C1274 0.929 . S
H1261 C1275 0.931 . S
H1262 C1277 0.930 . S
C1263 H1251 0.930 . S
C1263 C1264 1.399 . S
C1263 C1268 1.399 . S
C1264 C1263 1.399 . S
C1264 C1265 1.376 . S
C1265 H1252 0.930 . S
C1265 C1264 1.376 . S
C1265 C1266 1.388 . S
C1266 H1253 0.923 1_455 S
C1266 C1265 1.388 . S
C1266 C1267 1.390 . S
C1267 C1266 1.390 . S
C1267 C1268 1.394 . S
C1267 C1273 1.465 . S
C1268 C1263 1.399 . S
C1268 C1267 1.394 . S
C1268 C1269 1.516 . S
C1269 C1268 1.516 . S
C1269 C1270 1.502 . S
C1269 C1271 1.561 . S
C1269 C1272 1.526 . S
C1270 H1254 0.959 . S
C1270 H1255 0.959 . S
C1270 H1256 0.961 . S
C1270 C1269 1.502 . S
C1271 H1257 0.960 . S
C1271 H1258 0.961 . S
C1271 H1259 0.959 . S
C1271 C1269 1.561 . S
C1272 C1269 1.526 . S
C1272 C1273 1.396 . S
C1272 C1277 1.390 . S
C1273 C1267 1.465 . S
C1273 C1272 1.396 . S
C1273 C1274 1.399 1_455 S
C1274 H1260 0.929 . S
C1274 C1273 1.399 1_655 S
C1274 C1275 1.385 . S
C1275 H1261 0.931 . S
C1275 C1274 1.385 . S
C1275 C1276 1.389 1_655 S
C1276 C1275 1.389 1_455 S
C1276 C1277 1.387 . S
C1277 H1262 0.930 . S
C1277 C1272 1.390 . S
C1277 C1276 1.387 . S
H1278 C1290 0.952 . S
H1279 C1292 0.930 . S
H1280 C1293 0.930 . S
H1281 C1297 0.959 . S
H1282 C1297 0.959 . S
H1283 C1297 0.961 . S
H1284 C1298 0.960 1_455 S
H1285 C1298 0.961 1_455 S
H1286 C1298 0.959 . S
H1287 C1301 0.929 . S
H1288 C1302 0.931 . S
H1289 C1304 0.930 . S
C1290 H1278 0.952 . S
C1290 C1291 1.389 1_455 S
C1290 C1295 1.387 1_455 S
C1291 C1290 1.389 1_655 S
C1291 C1292 1.376 . S
C1292 H1279 0.930 . S
C1292 C1291 1.376 . S
C1292 C1293 1.388 . S
C1293 H1280 0.930 . S
C1293 C1292 1.388 . S
C1293 C1294 1.390 . S
C1294 C1293 1.390 . S
C1294 C1295 1.394 . S
C1294 C1300 1.465 . S
C1295 C1290 1.387 1_655 S
C1295 C1294 1.394 . S
C1295 C1296 1.516 . S
C1296 C1295 1.516 . S
C1296 C1297 1.502 1_655 S
C1296 C1298 1.561 . S
C1296 C1299 1.526 . S
C1297 H1281 0.959 . S
C1297 H1282 0.959 . S
C1297 H1283 0.961 . S
C1297 C1296 1.502 1_455 S
C1298 H1284 0.960 1_655 S
C1298 H1285 0.961 1_655 S
C1298 H1286 0.959 . S
C1298 C1296 1.561 . S
C1299 C1296 1.526 . S
C1299 C1300 1.396 . S
C1299 C1304 1.390 . S
C1300 C1294 1.465 . S
C1300 C1299 1.396 . S
C1300 C1301 1.399 . S
C1301 H1287 0.929 . S
C1301 C1300 1.399 . S
C1301 C1302 1.385 . S
C1302 H1288 0.931 . S
C1302 C1301 1.385 . S
C1302 C1303 1.389 . S
C1303 C1302 1.389 . S
C1303 C1304 1.387 . S
C1304 H1289 0.930 . S
C1304 C1299 1.390 . S
C1304 C1303 1.387 . S
H1305 C1317 0.930 . S
H1306 C1319 0.930 . S
H1307 C1320 0.930 . S
H1308 C1324 0.959 . S
H1309 C1324 0.959 . S
H1310 C1324 0.961 . S
H1311 C1325 0.960 . S
H1312 C1325 0.961 . S
H1313 C1325 0.959 . S
H1314 C1328 0.929 . S
H1315 C1329 0.931 . S
H1316 C1331 0.930 . S
C1317 H1305 0.930 . S
C1317 C1318 1.399 . S
C1317 C1322 1.399 . S
C1318 C1317 1.399 . S
C1318 C1319 1.376 . S
C1319 H1306 0.930 . S
C1319 C1318 1.376 . S
C1319 C1320 1.388 . S
C1320 H1307 0.930 . S
C1320 C1319 1.388 . S
C1320 C1321 1.390 . S
C1321 C1320 1.390 . S
C1321 C1322 1.394 . S
C1321 C1327 1.465 . S
C1322 C1317 1.399 . S
C1322 C1321 1.394 . S
C1322 C1323 1.516 . S
C1323 C1322 1.516 . S
C1323 C1324 1.502 . S
C1323 C1325 1.561 . S
C1323 C1326 1.526 . S
C1324 H1308 0.959 . S
C1324 H1309 0.959 . S
C1324 H1310 0.961 . S
C1324 C1323 1.502 . S
C1325 H1311 0.960 . S
C1325 H1312 0.961 . S
C1325 H1313 0.959 . S
C1325 C1323 1.561 . S
C1326 C1323 1.526 . S
C1326 C1327 1.396 . S
C1326 C1331 1.390 . S
C1327 C1321 1.465 . S
C1327 C1326 1.396 . S
C1327 C1328 1.399 . S
C1328 H1314 0.929 . S
C1328 C1327 1.399 . S
C1328 C1329 1.385 . S
C1329 H1315 0.931 . S
C1329 C1328 1.385 . S
C1329 C1330 1.389 . S
C1330 C1329 1.389 . S
C1330 C1331 1.387 . S
C1331 H1316 0.930 . S
C1331 C1326 1.390 . S
C1331 C1330 1.387 . S
H1332 C1344 0.930 . S
H1333 C1346 0.930 . S
H1334 C1347 0.930 . S
H1335 C1351 0.959 . S
H1336 C1351 0.959 . S
H1337 C1351 0.961 . S
H1338 C1352 0.960 . S
H1339 C1352 0.961 . S
H1340 C1352 0.959 . S
H1341 C1355 0.929 . S
H1342 C1356 0.931 . S
H1343 C1358 0.930 . S
C1344 H1332 0.930 . S
C1344 C1345 1.399 . S
C1344 C1349 1.399 . S
C1345 C1344 1.399 . S
C1345 C1346 1.376 . S
C1346 H1333 0.930 . S
C1346 C1345 1.376 . S
C1346 C1347 1.388 . S
C1347 H1334 0.930 . S
C1347 C1346 1.388 . S
C1347 C1348 1.390 . S
C1348 C1347 1.390 . S
C1348 C1349 1.394 . S
C1348 C1354 1.465 . S
C1349 C1344 1.399 . S
C1349 C1348 1.394 . S
C1349 C1350 1.516 . S
C1350 C1349 1.516 . S
C1350 C1351 1.502 . S
C1350 C1352 1.561 . S
C1350 C1353 1.526 . S
C1351 H1335 0.959 . S
C1351 H1336 0.959 . S
C1351 H1337 0.961 . S
C1351 C1350 1.502 . S
C1352 H1338 0.960 . S
C1352 H1339 0.961 . S
C1352 H1340 0.959 . S
C1352 C1350 1.561 . S
C1353 C1350 1.526 . S
C1353 C1354 1.396 . S
C1353 C1358 1.390 . S
C1354 C1348 1.465 . S
C1354 C1353 1.396 . S
C1354 C1355 1.399 . S
C1355 H1341 0.929 . S
C1355 C1354 1.399 . S
C1355 C1356 1.385 . S
C1356 H1342 0.931 . S
C1356 C1355 1.385 . S
C1356 C1357 1.389 . S
C1357 C1356 1.389 . S
C1357 C1358 1.387 . S
C1358 H1343 0.930 . S
C1358 C1353 1.390 . S
C1358 C1357 1.387 . S
H1359 C1371 0.930 . S
H1360 C1373 0.930 . S
H1361 C1374 0.930 . S
H1362 C1378 0.959 . S
H1363 C1378 0.959 . S
H1364 C1378 0.961 . S
H1365 C1379 0.960 . S
H1366 C1379 0.961 . S
H1367 C1379 0.959 . S
H1368 C1382 0.929 1_545 S
H1369 C1383 0.931 1_545 S
H1370 C1385 0.930 . S
C1371 H1359 0.930 . S
C1371 C1372 1.399 . S
C1371 C1376 1.399 . S
C1372 C1371 1.399 . S
C1372 C1373 1.376 . S
C1373 H1360 0.930 . S
C1373 C1372 1.376 . S
C1373 C1374 1.388 . S
C1374 H1361 0.930 . S
C1374 C1373 1.388 . S
C1374 C1375 1.390 . S
C1375 C1374 1.390 . S
C1375 C1376 1.394 . S
C1375 C1381 1.465 . S
C1376 C1371 1.399 . S
C1376 C1375 1.394 . S
C1376 C1377 1.516 . S
C1377 C1376 1.516 . S
C1377 C1378 1.502 . S
C1377 C1379 1.561 . S
C1377 C1380 1.526 . S
C1378 H1362 0.959 . S
C1378 H1363 0.959 . S
C1378 H1364 0.961 . S
C1378 C1377 1.502 . S
C1379 H1365 0.960 . S
C1379 H1366 0.961 . S
C1379 H1367 0.959 . S
C1379 C1377 1.561 . S
C1380 C1377 1.526 . S
C1380 C1381 1.396 . S
C1380 C1385 1.390 . S
C1381 C1375 1.465 . S
C1381 C1380 1.396 . S
C1381 C1382 1.399 . S
C1382 H1368 0.929 1_565 S
C1382 C1381 1.399 . S
C1382 C1383 1.385 . S
C1383 H1369 0.931 1_565 S
C1383 C1382 1.385 . S
C1383 C1384 1.389 . S
C1384 C1383 1.389 . S
C1384 C1385 1.387 . S
C1385 H1370 0.930 . S
C1385 C1380 1.390 . S
C1385 C1384 1.387 . S
H1386 C1398 0.930 . S
H1387 C1400 0.930 . S
H1388 C1401 0.930 . S
H1389 C1405 0.959 . S
H1390 C1405 0.959 . S
H1391 C1405 0.961 . S
H1392 C1406 0.960 . S
H1393 C1406 0.961 . S
H1394 C1406 0.959 . S
H1395 C1409 0.929 . S
H1396 C1410 0.931 . S
H1397 C1412 0.930 . S
C1398 H1386 0.930 . S
C1398 C1399 1.399 . S
C1398 C1403 1.399 . S
C1399 C1398 1.399 . S
C1399 C1400 1.376 . S
C1400 H1387 0.930 . S
C1400 C1399 1.376 . S
C1400 C1401 1.388 . S
C1401 H1388 0.930 . S
C1401 C1400 1.388 . S
C1401 C1402 1.390 . S
C1402 C1401 1.390 . S
C1402 C1403 1.394 . S
C1402 C1408 1.465 . S
C1403 C1398 1.399 . S
C1403 C1402 1.394 . S
C1403 C1404 1.516 . S
C1404 C1403 1.516 . S
C1404 C1405 1.502 . S
C1404 C1406 1.561 . S
C1404 C1407 1.526 . S
C1405 H1389 0.959 . S
C1405 H1390 0.959 . S
C1405 H1391 0.961 . S
C1405 C1404 1.502 . S
C1406 H1392 0.960 . S
C1406 H1393 0.961 . S
C1406 H1394 0.959 . S
C1406 C1404 1.561 . S
C1407 C1404 1.526 . S
C1407 C1408 1.396 . S
C1407 C1412 1.390 . S
C1408 C1402 1.465 . S
C1408 C1407 1.396 . S
C1408 C1409 1.399 . S
C1409 H1395 0.929 . S
C1409 C1408 1.399 . S
C1409 C1410 1.385 . S
C1410 H1396 0.931 . S
C1410 C1409 1.385 . S
C1410 C1411 1.389 . S
C1411 C1410 1.389 . S
C1411 C1412 1.387 . S
C1412 H1397 0.930 . S
C1412 C1407 1.390 . S
C1412 C1411 1.387 . S
H1413 C1425 0.930 . S
H1414 C1427 0.930 . S
H1415 C1428 0.930 . S
H1416 C1432 0.959 . S
H1417 C1432 0.959 . S
H1418 C1432 0.961 . S
H1419 C1433 0.960 . S
H1420 C1433 0.961 1_556 S
H1421 C1433 0.959 1_556 S
H1422 C1436 0.929 . S
H1423 C1437 0.931 . S
H1424 C1439 0.930 . S
C1425 H1413 0.930 . S
C1425 C1426 1.399 . S
C1425 C1430 1.399 . S
C1426 C1425 1.399 . S
C1426 C1427 1.376 . S
C1427 H1414 0.930 . S
C1427 C1426 1.376 . S
C1427 C1428 1.388 . S
C1428 H1415 0.930 . S
C1428 C1427 1.388 . S
C1428 C1429 1.390 . S
C1429 C1428 1.390 . S
C1429 C1430 1.394 . S
C1429 C1435 1.465 . S
C1430 C1425 1.399 . S
C1430 C1429 1.394 . S
C1430 C1431 1.516 . S
C1431 C1430 1.516 . S
C1431 C1432 1.502 1_545 S
C1431 C1433 1.561 . S
C1431 C1434 1.526 1_554 S
C1432 H1416 0.959 . S
C1432 H1417 0.959 . S
C1432 H1418 0.961 . S
C1432 C1431 1.502 1_565 S
C1433 H1419 0.960 . S
C1433 H1420 0.961 1_554 S
C1433 H1421 0.959 1_554 S
C1433 C1431 1.561 . S
C1434 C1431 1.526 1_556 S
C1434 C1435 1.396 1_556 S
C1434 C1439 1.390 . S
C1435 C1429 1.465 . S
C1435 C1434 1.396 1_554 S
C1435 C1436 1.399 1_554 S
C1436 H1422 0.929 . S
C1436 C1435 1.399 1_556 S
C1436 C1437 1.385 . S
C1437 H1423 0.931 . S
C1437 C1436 1.385 . S
C1437 C1438 1.389 . S
C1438 C1437 1.389 . S
C1438 C1439 1.387 . S
C1439 H1424 0.930 . S
C1439 C1434 1.390 . S
C1439 C1438 1.387 . S
H1440 C1452 0.930 . S
H1441 C1454 0.930 . S
H1442 C1455 0.930 . S
H1443 C1459 0.959 . S
H1444 C1459 0.959 . S
H1445 C1459 0.961 . S
H1446 C1460 0.960 . S
H1447 C1460 0.961 . S
H1448 C1460 0.959 . S
H1449 C1463 0.929 . S
H1450 C1464 0.931 . S
H1451 C1466 0.930 . S
C1452 H1440 0.930 . S
C1452 C1453 1.399 . S
C1452 C1457 1.399 . S
C1453 C1452 1.399 . S
C1453 C1454 1.376 . S
C1454 H1441 0.930 . S
C1454 C1453 1.376 . S
C1454 C1455 1.388 . S
C1455 H1442 0.930 . S
C1455 C1454 1.388 . S
C1455 C1456 1.390 . S
C1456 C1455 1.390 . S
C1456 C1457 1.394 . S
C1456 C1462 1.465 . S
C1457 C1452 1.399 . S
C1457 C1456 1.394 . S
C1457 C1458 1.516 . S
C1458 C1457 1.516 . S
C1458 C1459 1.502 . S
C1458 C1460 1.561 . S
C1458 C1461 1.526 . S
C1459 H1443 0.959 . S
C1459 H1444 0.959 . S
C1459 H1445 0.961 . S
C1459 C1458 1.502 . S
C1460 H1446 0.960 . S
C1460 H1447 0.961 . S
C1460 H1448 0.959 . S
C1460 C1458 1.561 . S
C1461 C1458 1.526 . S
C1461 C1462 1.396 . S
C1461 C1466 1.390 . S
C1462 C1456 1.465 . S
C1462 C1461 1.396 . S
C1462 C1463 1.399 . S
C1463 H1449 0.929 . S
C1463 C1462 1.399 . S
C1463 C1464 1.385 . S
C1464 H1450 0.931 . S
C1464 C1463 1.385 . S
C1464 C1465 1.389 . S
C1465 C1464 1.389 . S
C1465 C1466 1.387 . S
C1466 H1451 0.930 . S
C1466 C1461 1.390 . S
C1466 C1465 1.387 . S
H1467 C1479 0.930 . S
H1468 C1481 0.930 . S
H1469 C1482 0.930 . S
H1470 C1486 0.959 . S
H1471 C1486 0.959 . S
H1472 C1486 0.961 1_554 S
H1473 C1487 0.960 . S
H1474 C1487 0.961 . S
H1475 C1487 0.959 . S
H1476 C1490 0.929 . S
H1477 C1491 0.931 . S
H1478 C1493 0.930 . S
C1479 H1467 0.930 . S
C1479 C1480 1.399 . S
C1479 C1484 1.399 . S
C1480 C1479 1.399 . S
C1480 C1481 1.376 . S
C1481 H1468 0.930 . S
C1481 C1480 1.376 . S
C1481 C1482 1.388 . S
C1482 H1469 0.930 . S
C1482 C1481 1.388 . S
C1482 C1483 1.390 1_554 S
C1483 C1482 1.390 1_556 S
C1483 C1484 1.394 1_556 S
C1483 C1489 1.465 . S
C1484 C1479 1.399 . S
C1484 C1483 1.394 1_554 S
C1484 C1485 1.516 1_554 S
C1485 C1484 1.516 1_556 S
C1485 C1486 1.502 . S
C1485 C1487 1.561 . S
C1485 C1488 1.526 . S
C1486 H1470 0.959 . S
C1486 H1471 0.959 . S
C1486 H1472 0.961 1_556 S
C1486 C1485 1.502 . S
C1487 H1473 0.960 . S
C1487 H1474 0.961 . S
C1487 H1475 0.959 . S
C1487 C1485 1.561 . S
C1488 C1485 1.526 . S
C1488 C1489 1.396 . S
C1488 C1493 1.390 . S
C1489 C1483 1.465 . S
C1489 C1488 1.396 . S
C1489 C1490 1.399 . S
C1490 H1476 0.929 . S
C1490 C1489 1.399 . S
C1490 C1491 1.385 . S
C1491 H1477 0.931 . S
C1491 C1490 1.385 . S
C1491 C1492 1.389 . S
C1492 C1491 1.389 . S
C1492 C1493 1.387 . S
C1493 H1478 0.930 . S
C1493 C1488 1.390 . S
C1493 C1492 1.387 . S
H1494 C1506 0.930 . S
H1495 C1508 0.930 . S
H1496 C1509 0.930 . S
H1497 C1513 0.959 . S
H1498 C1513 0.959 . S
H1499 C1513 0.961 . S
H1500 C1514 0.960 . S
H1501 C1514 0.961 . S
H1502 C1514 0.959 . S
H1503 C1517 0.929 . S
H1504 C1518 0.931 . S
H1505 C1520 0.930 . S
C1506 H1494 0.930 . S
C1506 C1507 1.399 . S
C1506 C1511 1.399 . S
C1507 C1506 1.399 . S
C1507 C1508 1.376 . S
C1508 H1495 0.930 . S
C1508 C1507 1.376 . S
C1508 C1509 1.388 . S
C1509 H1496 0.930 . S
C1509 C1508 1.388 . S
C1509 C1510 1.390 . S
C1510 C1509 1.390 . S
C1510 C1511 1.394 . S
C1510 C1516 1.465 . S
C1511 C1506 1.399 . S
C1511 C1510 1.394 . S
C1511 C1512 1.516 . S
C1512 C1511 1.516 . S
C1512 C1513 1.502 . S
C1512 C1514 1.561 . S
C1512 C1515 1.526 . S
C1513 H1497 0.959 . S
C1513 H1498 0.959 . S
C1513 H1499 0.961 . S
C1513 C1512 1.502 . S
C1514 H1500 0.960 . S
C1514 H1501 0.961 . S
C1514 H1502 0.959 . S
C1514 C1512 1.561 . S
C1515 C1512 1.526 . S
C1515 C1516 1.396 . S
C1515 C1520 1.390 . S
C1516 C1510 1.465 . S
C1516 C1515 1.396 . S
C1516 C1517 1.399 . S
C1517 H1503 0.929 . S
C1517 C1516 1.399 . S
C1517 C1518 1.385 . S
C1518 H1504 0.931 . S
C1518 C1517 1.385 . S
C1518 C1519 1.389 . S
C1519 C1518 1.389 . S
C1519 C1520 1.387 . S
C1520 H1505 0.930 . S
C1520 C1515 1.390 . S
C1520 C1519 1.387 . S
H1521 C1533 0.930 . S
H1522 C1535 0.930 . S
H1523 C1536 0.930 . S
H1524 C1540 0.959 . S
H1525 C1540 0.959 . S
H1526 C1540 0.961 . S
H1527 C1541 0.960 . S
H1528 C1541 0.961 . S
H1529 C1541 0.959 . S
H1530 C1544 0.929 . S
H1531 C1545 0.931 . S
H1532 C1547 0.930 . S
C1533 H1521 0.930 . S
C1533 C1534 1.399 . S
C1533 C1538 1.399 . S
C1534 C1533 1.399 . S
C1534 C1535 1.376 . S
C1535 H1522 0.930 . S
C1535 C1534 1.376 . S
C1535 C1536 1.388 . S
C1536 H1523 0.930 . S
C1536 C1535 1.388 . S
C1536 C1537 1.390 . S
C1537 C1536 1.390 . S
C1537 C1538 1.394 . S
C1537 C1543 1.465 . S
C1538 C1533 1.399 . S
C1538 C1537 1.394 . S
C1538 C1539 1.516 . S
C1539 C1538 1.516 . S
C1539 C1540 1.502 . S
C1539 C1541 1.561 . S
C1539 C1542 1.526 . S
C1540 H1524 0.959 . S
C1540 H1525 0.959 . S
C1540 H1526 0.961 . S
C1540 C1539 1.502 . S
C1541 H1527 0.960 . S
C1541 H1528 0.961 . S
C1541 H1529 0.959 . S
C1541 C1539 1.561 . S
C1542 C1539 1.526 . S
C1542 C1543 1.396 . S
C1542 C1547 1.390 . S
C1543 C1537 1.465 . S
C1543 C1542 1.396 . S
C1543 C1544 1.399 . S
C1544 H1530 0.929 . S
C1544 C1543 1.399 . S
C1544 C1545 1.385 . S
C1545 H1531 0.931 . S
C1545 C1544 1.385 . S
C1545 C1546 1.389 . S
C1546 C1545 1.389 . S
C1546 C1547 1.387 . S
C1547 H1532 0.930 . S
C1547 C1542 1.390 . S
C1547 C1546 1.387 . S
H1548 C1560 0.930 . S
H1549 C1562 0.930 . S
H1550 C1563 0.930 . S
H1551 C1567 0.959 . S
H1552 C1567 0.959 . S
H1553 C1567 0.961 . S
H1554 C1568 0.960 . S
H1555 C1568 0.961 . S
H1556 C1568 0.959 . S
H1557 C1571 0.929 . S
H1558 C1572 0.931 . S
H1559 C1574 0.930 . S
C1560 H1548 0.930 . S
C1560 C1561 1.399 . S
C1560 C1565 1.399 . S
C1561 C1560 1.399 . S
C1561 C1562 1.376 . S
C1562 H1549 0.930 . S
C1562 C1561 1.376 . S
C1562 C1563 1.388 . S
C1563 H1550 0.930 . S
C1563 C1562 1.388 . S
C1563 C1564 1.390 . S
C1564 C1563 1.390 . S
C1564 C1565 1.394 . S
C1564 C1570 1.465 . S
C1565 C1560 1.399 . S
C1565 C1564 1.394 . S
C1565 C1566 1.516 . S
C1566 C1565 1.516 . S
C1566 C1567 1.502 . S
C1566 C1568 1.561 . S
C1566 C1569 1.526 . S
C1567 H1551 0.959 . S
C1567 H1552 0.959 . S
C1567 H1553 0.961 . S
C1567 C1566 1.502 . S
C1568 H1554 0.960 . S
C1568 H1555 0.961 . S
C1568 H1556 0.959 . S
C1568 C1566 1.561 . S
C1569 C1566 1.526 . S
C1569 C1570 1.396 . S
C1569 C1574 1.390 . S
C1570 C1564 1.465 . S
C1570 C1569 1.396 . S
C1570 C1571 1.399 . S
C1571 H1557 0.929 . S
C1571 C1570 1.399 . S
C1571 C1572 1.385 . S
C1572 H1558 0.931 . S
C1572 C1571 1.385 . S
C1572 C1573 1.389 . S
C1573 C1572 1.389 . S
C1573 C1574 1.387 . S
C1574 H1559 0.930 . S
C1574 C1569 1.390 . S
C1574 C1573 1.387 . S
H1575 C1587 0.930 . S
H1576 C1589 0.930 . S
H1577 C1590 0.930 . S
H1578 C1594 0.959 . S
H1579 C1594 0.959 . S
H1580 C1594 0.961 . S
H1581 C1595 0.960 . S
H1582 C1595 0.961 . S
H1583 C1595 0.959 . S
H1584 C1598 0.929 . S
H1585 C1599 0.931 . S
H1586 C1601 0.930 . S
C1587 H1575 0.930 . S
C1587 C1588 1.399 . S
C1587 C1592 1.399 . S
C1588 C1587 1.399 . S
C1588 C1589 1.376 . S
C1589 H1576 0.930 . S
C1589 C1588 1.376 . S
C1589 C1590 1.388 . S
C1590 H1577 0.930 . S
C1590 C1589 1.388 . S
C1590 C1591 1.390 . S
C1591 C1590 1.390 . S
C1591 C1592 1.394 . S
C1591 C1597 1.465 1_545 S
C1592 C1587 1.399 . S
C1592 C1591 1.394 . S
C1592 C1593 1.516 . S
C1593 C1592 1.516 . S
C1593 C1594 1.502 . S
C1593 C1595 1.561 . S
C1593 C1596 1.526 1_545 S
C1594 H1578 0.959 . S
C1594 H1579 0.959 . S
C1594 H1580 0.961 . S
C1594 C1593 1.502 . S
C1595 H1581 0.960 . S
C1595 H1582 0.961 . S
C1595 H1583 0.959 . S
C1595 C1593 1.561 . S
C1596 C1593 1.526 1_565 S
C1596 C1597 1.396 . S
C1596 C1601 1.390 . S
C1597 C1591 1.465 1_565 S
C1597 C1596 1.396 . S
C1597 C1598 1.399 . S
C1598 H1584 0.929 . S
C1598 C1597 1.399 . S
C1598 C1599 1.385 . S
C1599 H1585 0.931 . S
C1599 C1598 1.385 . S
C1599 C1600 1.389 . S
C1600 C1599 1.389 . S
C1600 C1601 1.387 . S
C1601 H1586 0.930 . S
C1601 C1596 1.390 . S
C1601 C1600 1.387 . S
H1602 C1614 0.930 . S
H1603 C1616 0.930 . S
H1604 C1617 0.930 . S
H1605 C1621 0.959 . S
H1606 C1621 0.959 . S
H1607 C1621 0.961 . S
H1608 C1622 0.960 . S
H1609 C1622 0.961 . S
H1610 C1622 0.959 . S
H1611 C1625 0.929 . S
H1612 C1626 0.931 . S
H1613 C1628 0.930 . S
C1614 H1602 0.930 . S
C1614 C1615 1.399 . S
C1614 C1619 1.399 . S
C1615 C1614 1.399 . S
C1615 C1616 1.376 . S
C1616 H1603 0.930 . S
C1616 C1615 1.376 . S
C1616 C1617 1.388 . S
C1617 H1604 0.930 . S
C1617 C1616 1.388 . S
C1617 C1618 1.390 . S
C1618 C1617 1.390 . S
C1618 C1619 1.394 . S
C1618 C1624 1.465 . S
C1619 C1614 1.399 . S
C1619 C1618 1.394 . S
C1619 C1620 1.516 . S
C1620 C1619 1.516 . S
C1620 C1621 1.502 . S
C1620 C1622 1.561 . S
C1620 C1623 1.526 . S
C1621 H1605 0.959 . S
C1621 H1606 0.959 . S
C1621 H1607 0.961 . S
C1621 C1620 1.502 . S
C1622 H1608 0.960 . S
C1622 H1609 0.961 . S
C1622 H1610 0.959 . S
C1622 C1620 1.561 . S
C1623 C1620 1.526 . S
C1623 C1624 1.396 . S
C1623 C1628 1.390 . S
C1624 C1618 1.465 . S
C1624 C1623 1.396 . S
C1624 C1625 1.399 . S
C1625 H1611 0.929 . S
C1625 C1624 1.399 . S
C1625 C1626 1.385 . S
C1626 H1612 0.931 . S
C1626 C1625 1.385 . S
C1626 C1627 1.389 . S
C1627 C1626 1.389 . S
C1627 C1628 1.387 . S
C1628 H1613 0.930 . S
C1628 C1623 1.390 . S
C1628 C1627 1.387 . S
H1629 C1641 0.930 . S
H1630 C1643 0.930 . S
H1631 C1644 0.930 . S
H1632 C1648 0.959 . S
H1633 C1648 0.959 1_565 S
H1634 C1648 0.961 . S
H1635 C1649 0.960 1_545 S
H1636 C1649 0.961 . S
H1637 C1649 0.959 . S
H1638 C1652 0.929 . S
H1639 C1653 0.931 . S
H1640 C1655 0.930 . S
C1641 H1629 0.930 . S
C1641 C1642 1.399 . S
C1641 C1646 1.399 . S
C1642 C1641 1.399 . S
C1642 C1643 1.376 . S
C1643 H1630 0.930 . S
C1643 C1642 1.376 . S
C1643 C1644 1.388 1_545 S
C1644 H1631 0.930 . S
C1644 C1643 1.388 1_565 S
C1644 C1645 1.390 . S
C1645 C1644 1.390 . S
C1645 C1646 1.394 1_565 S
C1645 C1651 1.465 . S
C1646 C1641 1.399 . S
C1646 C1645 1.394 1_545 S
C1646 C1647 1.516 1_545 S
C1647 C1646 1.516 1_565 S
C1647 C1648 1.502 1_565 S
C1647 C1649 1.561 . S
C1647 C1650 1.526 . S
C1648 H1632 0.959 . S
C1648 H1633 0.959 1_545 S
C1648 H1634 0.961 . S
C1648 C1647 1.502 1_545 S
C1649 H1635 0.960 1_565 S
C1649 H1636 0.961 . S
C1649 H1637 0.959 . S
C1649 C1647 1.561 . S
C1650 C1647 1.526 . S
C1650 C1651 1.396 . S
C1650 C1655 1.390 . S
C1651 C1645 1.465 . S
C1651 C1650 1.396 . S
C1651 C1652 1.399 . S
C1652 H1638 0.929 . S
C1652 C1651 1.399 . S
C1652 C1653 1.385 . S
C1653 H1639 0.931 . S
C1653 C1652 1.385 . S
C1653 C1654 1.389 . S
C1654 C1653 1.389 . S
C1654 C1655 1.387 . S
C1655 H1640 0.930 . S
C1655 C1650 1.390 . S
C1655 C1654 1.387 . S
H1656 C1668 0.930 . S
H1657 C1670 0.930 . S
H1658 C1671 0.930 . S
H1659 C1675 0.959 . S
H1660 C1675 0.959 . S
H1661 C1675 0.961 . S
H1662 C1676 0.960 . S
H1663 C1676 0.961 . S
H1664 C1676 0.959 . S
H1665 C1679 0.929 . S
H1666 C1680 0.931 . S
H1667 C1682 0.930 . S
C1668 H1656 0.930 . S
C1668 C1669 1.399 . S
C1668 C1673 1.399 . S
C1669 C1668 1.399 . S
C1669 C1670 1.376 . S
C1670 H1657 0.930 . S
C1670 C1669 1.376 . S
C1670 C1671 1.388 . S
C1671 H1658 0.930 . S
C1671 C1670 1.388 . S
C1671 C1672 1.390 . S
C1672 C1671 1.390 . S
C1672 C1673 1.394 . S
C1672 C1678 1.465 . S
C1673 C1668 1.399 . S
C1673 C1672 1.394 . S
C1673 C1674 1.516 . S
C1674 C1673 1.516 . S
C1674 C1675 1.502 . S
C1674 C1676 1.561 . S
C1674 C1677 1.526 . S
C1675 H1659 0.959 . S
C1675 H1660 0.959 . S
C1675 H1661 0.961 . S
C1675 C1674 1.502 . S
C1676 H1662 0.960 . S
C1676 H1663 0.961 . S
C1676 H1664 0.959 . S
C1676 C1674 1.561 . S
C1677 C1674 1.526 . S
C1677 C1678 1.396 . S
C1677 C1682 1.390 . S
C1678 C1672 1.465 . S
C1678 C1677 1.396 . S
C1678 C1679 1.399 . S
C1679 H1665 0.929 . S
C1679 C1678 1.399 . S
C1679 C1680 1.385 . S
C1680 H1666 0.931 . S
C1680 C1679 1.385 . S
C1680 C1681 1.389 . S
C1681 C1680 1.389 . S
C1681 C1682 1.387 . S
C1682 H1667 0.930 . S
C1682 C1677 1.390 . S
C1682 C1681 1.387 . S
H1683 C1695 0.930 . S
H1684 C1697 0.930 . S
H1685 C1698 0.930 . S
H1686 C1702 0.959 . S
H1687 C1702 0.959 . S
H1688 C1702 0.961 . S
H1689 C1703 0.960 . S
H1690 C1703 0.961 . S
H1691 C1703 0.959 . S
H1692 C1706 0.929 . S
H1693 C1707 0.931 . S
H1694 C1709 0.930 . S
C1695 H1683 0.930 . S
C1695 C1696 1.399 . S
C1695 C1700 1.399 . S
C1696 C1695 1.399 . S
C1696 C1697 1.376 . S
C1697 H1684 0.930 . S
C1697 C1696 1.376 . S
C1697 C1698 1.388 . S
C1698 H1685 0.930 . S
C1698 C1697 1.388 . S
C1698 C1699 1.390 . S
C1699 C1698 1.390 . S
C1699 C1700 1.394 . S
C1699 C1705 1.465 . S
C1700 C1695 1.399 . S
C1700 C1699 1.394 . S
C1700 C1701 1.516 . S
C1701 C1700 1.516 . S
C1701 C1702 1.502 . S
C1701 C1703 1.561 . S
C1701 C1704 1.526 . S
C1702 H1686 0.959 . S
C1702 H1687 0.959 . S
C1702 H1688 0.961 . S
C1702 C1701 1.502 . S
C1703 H1689 0.960 . S
C1703 H1690 0.961 . S
C1703 H1691 0.959 . S
C1703 C1701 1.561 . S
C1704 C1701 1.526 . S
C1704 C1705 1.396 . S
C1704 C1709 1.390 . S
C1705 C1699 1.465 . S
C1705 C1704 1.396 . S
C1705 C1706 1.399 . S
C1706 H1692 0.929 . S
C1706 C1705 1.399 . S
C1706 C1707 1.385 . S
C1707 H1693 0.931 . S
C1707 C1706 1.385 . S
C1707 C1708 1.389 . S
C1708 C1707 1.389 . S
C1708 C1709 1.387 . S
C1709 H1694 0.930 . S
C1709 C1704 1.390 . S
C1709 C1708 1.387 . S
H1710 C1722 0.930 . S
H1711 C1724 0.930 . S
H1712 C1725 0.930 . S
H1713 C1729 0.959 . S
H1714 C1729 0.959 . S
H1715 C1729 0.961 . S
H1716 C1730 0.960 . S
H1717 C1730 0.961 . S
H1718 C1730 0.959 . S
H1719 C1733 0.929 . S
H1720 C1734 0.931 . S
H1721 C1736 0.930 . S
C1722 H1710 0.930 . S
C1722 C1723 1.399 . S
C1722 C1727 1.399 . S
C1723 C1722 1.399 . S
C1723 C1724 1.376 . S
C1724 H1711 0.930 . S
C1724 C1723 1.376 . S
C1724 C1725 1.388 . S
C1725 H1712 0.930 . S
C1725 C1724 1.388 . S
C1725 C1726 1.390 . S
C1726 C1725 1.390 . S
C1726 C1727 1.394 . S
C1726 C1732 1.465 . S
C1727 C1722 1.399 . S
C1727 C1726 1.394 . S
C1727 C1728 1.516 . S
C1728 C1727 1.516 . S
C1728 C1729 1.502 . S
C1728 C1730 1.561 . S
C1728 C1731 1.526 . S
C1729 H1713 0.959 . S
C1729 H1714 0.959 . S
C1729 H1715 0.961 . S
C1729 C1728 1.502 . S
C1730 H1716 0.960 . S
C1730 H1717 0.961 . S
C1730 H1718 0.959 . S
C1730 C1728 1.561 . S
C1731 C1728 1.526 . S
C1731 C1732 1.396 . S
C1731 C1736 1.390 . S
C1732 C1726 1.465 . S
C1732 C1731 1.396 . S
C1732 C1733 1.399 . S
C1733 H1719 0.929 . S
C1733 C1732 1.399 . S
C1733 C1734 1.385 . S
C1734 H1720 0.931 . S
C1734 C1733 1.385 . S
C1734 C1735 1.389 . S
C1735 C1734 1.389 . S
C1735 C1736 1.387 . S
C1736 H1721 0.930 . S
C1736 C1731 1.390 . S
C1736 C1735 1.387 . S
H1737 C1749 0.930 . S
H1738 C1751 0.930 . S
H1739 C1752 0.930 . S
H1740 C1756 0.959 . S
H1741 C1756 0.959 . S
H1742 C1756 0.961 . S
H1743 C1757 0.960 . S
H1744 C1757 0.961 . S
H1745 C1757 0.959 . S
H1746 C1760 0.929 . S
H1747 C1761 0.931 . S
H1748 C1763 0.930 . S
C1749 H1737 0.930 . S
C1749 C1750 1.399 . S
C1749 C1754 1.399 . S
C1750 C1749 1.399 . S
C1750 C1751 1.376 . S
C1751 H1738 0.930 . S
C1751 C1750 1.376 . S
C1751 C1752 1.388 . S
C1752 H1739 0.930 . S
C1752 C1751 1.388 . S
C1752 C1753 1.390 . S
C1753 C1752 1.390 . S
C1753 C1754 1.394 . S
C1753 C1759 1.465 . S
C1754 C1749 1.399 . S
C1754 C1753 1.394 . S
C1754 C1755 1.516 . S
C1755 C1754 1.516 . S
C1755 C1756 1.502 . S
C1755 C1757 1.561 . S
C1755 C1758 1.526 . S
C1756 H1740 0.959 . S
C1756 H1741 0.959 . S
C1756 H1742 0.961 . S
C1756 C1755 1.502 . S
C1757 H1743 0.960 . S
C1757 H1744 0.961 . S
C1757 H1745 0.959 . S
C1757 C1755 1.561 . S
C1758 C1755 1.526 . S
C1758 C1759 1.396 . S
C1758 C1763 1.390 . S
C1759 C1753 1.465 . S
C1759 C1758 1.396 . S
C1759 C1760 1.399 . S
C1760 H1746 0.929 . S
C1760 C1759 1.399 . S
C1760 C1761 1.385 . S
C1761 H1747 0.931 . S
C1761 C1760 1.385 . S
C1761 C1762 1.389 . S
C1762 C1761 1.389 . S
C1762 C1763 1.387 . S
C1763 H1748 0.930 . S
C1763 C1758 1.390 . S
C1763 C1762 1.387 . S
H1764 C1776 0.930 . S
H1765 C1778 0.930 . S
H1766 C1779 0.930 . S
H1767 C1783 0.959 . S
H1768 C1783 0.959 . S
H1769 C1783 0.961 . S
H1770 C1784 0.960 . S
H1771 C1784 0.961 . S
H1772 C1784 0.959 . S
H1773 C1787 0.929 . S
H1774 C1788 0.931 . S
H1775 C1790 0.930 . S
C1776 H1764 0.930 . S
C1776 C1777 1.399 . S
C1776 C1781 1.399 . S
C1777 C1776 1.399 . S
C1777 C1778 1.376 . S
C1778 H1765 0.930 . S
C1778 C1777 1.376 . S
C1778 C1779 1.388 . S
C1779 H1766 0.930 . S
C1779 C1778 1.388 . S
C1779 C1780 1.390 . S
C1780 C1779 1.390 . S
C1780 C1781 1.394 . S
C1780 C1786 1.465 . S
C1781 C1776 1.399 . S
C1781 C1780 1.394 . S
C1781 C1782 1.516 . S
C1782 C1781 1.516 . S
C1782 C1783 1.502 . S
C1782 C1784 1.561 . S
C1782 C1785 1.526 . S
C1783 H1767 0.959 . S
C1783 H1768 0.959 . S
C1783 H1769 0.961 . S
C1783 C1782 1.502 . S
C1784 H1770 0.960 . S
C1784 H1771 0.961 . S
C1784 H1772 0.959 . S
C1784 C1782 1.561 . S
C1785 C1782 1.526 . S
C1785 C1786 1.396 . S
C1785 C1790 1.390 . S
C1786 C1780 1.465 . S
C1786 C1785 1.396 . S
C1786 C1787 1.399 . S
C1787 H1773 0.929 . S
C1787 C1786 1.399 . S
C1787 C1788 1.385 . S
C1788 H1774 0.931 . S
C1788 C1787 1.385 . S
C1788 C1789 1.389 . S
C1789 C1788 1.389 . S
C1789 C1790 1.387 . S
C1790 H1775 0.930 . S
C1790 C1785 1.390 . S
C1790 C1789 1.387 . S
H1791 C1803 0.930 . S
H1792 C1805 0.930 . S
H1793 C1806 0.930 . S
H1794 C1810 0.959 . S
H1795 C1810 0.959 . S
H1796 C1810 0.961 . S
H1797 C1811 0.960 . S
H1798 C1811 0.961 . S
H1799 C1811 0.959 . S
H1800 C1814 0.929 . S
H1801 C1815 0.931 . S
H1802 C1817 0.930 . S
C1803 H1791 0.930 . S
C1803 C1804 1.399 . S
C1803 C1808 1.399 . S
C1804 C1803 1.399 . S
C1804 C1805 1.376 . S
C1805 H1792 0.930 . S
C1805 C1804 1.376 . S
C1805 C1806 1.388 . S
C1806 H1793 0.930 . S
C1806 C1805 1.388 . S
C1806 C1807 1.390 . S
C1807 C1806 1.390 . S
C1807 C1808 1.394 . S
C1807 C1813 1.465 . S
C1808 C1803 1.399 . S
C1808 C1807 1.394 . S
C1808 C1809 1.516 . S
C1809 C1808 1.516 . S
C1809 C1810 1.502 . S
C1809 C1811 1.561 . S
C1809 C1812 1.526 . S
C1810 H1794 0.959 . S
C1810 H1795 0.959 . S
C1810 H1796 0.961 . S
C1810 C1809 1.502 . S
C1811 H1797 0.960 . S
C1811 H1798 0.961 . S
C1811 H1799 0.959 . S
C1811 C1809 1.561 . S
C1812 C1809 1.526 . S
C1812 C1813 1.396 . S
C1812 C1817 1.390 . S
C1813 C1807 1.465 . S
C1813 C1812 1.396 . S
C1813 C1814 1.399 . S
C1814 H1800 0.929 . S
C1814 C1813 1.399 . S
C1814 C1815 1.385 . S
C1815 H1801 0.931 . S
C1815 C1814 1.385 . S
C1815 C1816 1.389 . S
C1816 C1815 1.389 . S
C1816 C1817 1.387 . S
C1817 H1802 0.930 . S
C1817 C1812 1.390 . S
C1817 C1816 1.387 . S
H1818 C1830 0.930 . S
H1819 C1832 0.930 . S
H1820 C1833 0.930 . S
H1821 C1837 0.959 . S
H1822 C1837 0.959 1_556 S
H1823 C1837 0.961 1_556 S
H1824 C1838 0.960 . S
H1825 C1838 0.961 . S
H1826 C1838 0.959 1_554 S
H1827 C1841 0.929 . S
H1828 C1842 0.931 . S
H1829 C1844 0.897 1_556 S
C1830 H1818 0.930 . S
C1830 C1831 1.399 . S
C1830 C1835 1.399 . S
C1831 C1830 1.399 . S
C1831 C1832 1.376 . S
C1832 H1819 0.930 . S
C1832 C1831 1.376 . S
C1832 C1833 1.388 . S
C1833 H1820 0.930 . S
C1833 C1832 1.388 . S
C1833 C1834 1.390 . S
C1834 C1833 1.390 . S
C1834 C1835 1.394 . S
C1834 C1840 1.439 1_455 S
C1835 C1830 1.399 . S
C1835 C1834 1.394 . S
C1835 C1836 1.516 . S
C1836 C1835 1.516 . S
C1836 C1837 1.502 . S
C1836 C1838 1.561 1_554 S
C1836 C1839 1.522 1_455 S
C1837 H1821 0.959 . S
C1837 H1822 0.959 1_554 S
C1837 H1823 0.961 1_554 S
C1837 C1836 1.502 . S
C1838 H1824 0.960 . S
C1838 H1825 0.961 . S
C1838 H1826 0.959 1_556 S
C1838 C1836 1.561 1_556 S
C1839 C1836 1.522 1_655 S
C1839 C1840 1.396 . S
C1839 C1844 1.393 . S
C1840 C1834 1.439 1_655 S
C1840 C1839 1.396 . S
C1840 C1841 1.423 . S
C1841 H1827 0.929 . S
C1841 C1840 1.423 . S
C1841 C1842 1.385 . S
C1842 H1828 0.931 . S
C1842 C1841 1.385 . S
C1842 C1843 1.389 . S
C1843 C1842 1.389 . S
C1843 C1844 1.387 . S
C1844 H1829 0.897 1_554 S
C1844 C1839 1.393 . S
C1844 C1843 1.387 . S
H1845 C1857 0.930 . S
H1846 C1859 0.930 . S
H1847 C1860 0.930 . S
H1848 C1864 0.959 . S
H1849 C1864 0.959 . S
H1850 C1864 0.961 . S
H1851 C1865 0.960 . S
H1852 C1865 0.961 . S
H1853 C1865 0.959 . S
H1854 C1868 0.929 . S
H1855 C1869 0.931 . S
H1856 C1871 0.930 . S
C1857 H1845 0.930 . S
C1857 C1858 1.399 . S
C1857 C1862 1.399 . S
C1858 C1857 1.399 . S
C1858 C1859 1.376 . S
C1859 H1846 0.930 . S
C1859 C1858 1.376 . S
C1859 C1860 1.388 . S
C1860 H1847 0.930 . S
C1860 C1859 1.388 . S
C1860 C1861 1.390 . S
C1861 C1860 1.390 . S
C1861 C1862 1.394 . S
C1861 C1867 1.465 . S
C1862 C1857 1.399 . S
C1862 C1861 1.394 . S
C1862 C1863 1.516 . S
C1863 C1862 1.516 . S
C1863 C1864 1.502 . S
C1863 C1865 1.561 . S
C1863 C1866 1.526 . S
C1864 H1848 0.959 . S
C1864 H1849 0.959 . S
C1864 H1850 0.961 . S
C1864 C1863 1.502 . S
C1865 H1851 0.960 . S
C1865 H1852 0.961 . S
C1865 H1853 0.959 . S
C1865 C1863 1.561 . S
C1866 C1863 1.526 . S
C1866 C1867 1.396 . S
C1866 C1871 1.390 . S
C1867 C1861 1.465 . S
C1867 C1866 1.396 . S
C1867 C1868 1.399 . S
C1868 H1854 0.929 . S
C1868 C1867 1.399 . S
C1868 C1869 1.385 . S
C1869 H1855 0.931 . S
C1869 C1868 1.385 . S
C1869 C1870 1.389 . S
C1870 C1869 1.389 . S
C1870 C1871 1.387 . S
C1871 H1856 0.930 . S
C1871 C1866 1.390 . S
C1871 C1870 1.387 . S
H1872 C1884 0.930 . S
H1873 C1886 0.930 . S
H1874 C1887 0.930 . S
H1875 C1891 0.959 . S
H1876 C1891 0.959 . S
H1877 C1891 0.961 . S
H1878 C1892 0.960 . S
H1879 C1892 0.961 . S
H1880 C1892 0.959 . S
H1881 C1895 0.929 . S
H1882 C1896 0.931 . S
H1883 C1898 0.930 . S
C1884 H1872 0.930 . S
C1884 C1885 1.399 . S
C1884 C1889 1.399 . S
C1885 C1884 1.399 . S
C1885 C1886 1.376 . S
C1886 H1873 0.930 . S
C1886 C1885 1.376 . S
C1886 C1887 1.388 . S
C1887 H1874 0.930 . S
C1887 C1886 1.388 . S
C1887 C1888 1.390 . S
C1888 C1887 1.390 . S
C1888 C1889 1.394 . S
C1888 C1894 1.465 . S
C1889 C1884 1.399 . S
C1889 C1888 1.394 . S
C1889 C1890 1.516 . S
C1890 C1889 1.516 . S
C1890 C1891 1.502 . S
C1890 C1892 1.561 . S
C1890 C1893 1.526 . S
C1891 H1875 0.959 . S
C1891 H1876 0.959 . S
C1891 H1877 0.961 . S
C1891 C1890 1.502 . S
C1892 H1878 0.960 . S
C1892 H1879 0.961 . S
C1892 H1880 0.959 . S
C1892 C1890 1.561 . S
C1893 C1890 1.526 . S
C1893 C1894 1.396 . S
C1893 C1898 1.390 . S
C1894 C1888 1.465 . S
C1894 C1893 1.396 . S
C1894 C1895 1.399 . S
C1895 H1881 0.929 . S
C1895 C1894 1.399 . S
C1895 C1896 1.385 . S
C1896 H1882 0.931 . S
C1896 C1895 1.385 . S
C1896 C1897 1.389 . S
C1897 C1896 1.389 . S
C1897 C1898 1.387 . S
C1898 H1883 0.930 . S
C1898 C1893 1.390 . S
C1898 C1897 1.387 . S
H1899 C1911 0.930 . S
H1900 C1913 0.930 . S
H1901 C1914 0.930 . S
H1902 C1918 0.959 . S
H1903 C1918 0.959 . S
H1904 C1918 0.961 . S
H1905 C1919 0.960 . S
H1906 C1919 0.961 . S
H1907 C1919 0.959 . S
H1908 C1922 0.929 . S
H1909 C1923 0.931 . S
H1910 C1925 0.930 . S
C1911 H1899 0.930 . S
C1911 C1912 1.399 . S
C1911 C1916 1.399 . S
C1912 C1911 1.399 . S
C1912 C1913 1.376 . S
C1913 H1900 0.930 . S
C1913 C1912 1.376 . S
C1913 C1914 1.388 . S
C1914 H1901 0.930 . S
C1914 C1913 1.388 . S
C1914 C1915 1.390 . S
C1915 C1914 1.390 . S
C1915 C1916 1.394 . S
C1915 C1921 1.465 . S
C1916 C1911 1.399 . S
C1916 C1915 1.394 . S
C1916 C1917 1.516 . S
C1917 C1916 1.516 . S
C1917 C1918 1.502 . S
C1917 C1919 1.561 . S
C1917 C1920 1.526 . S
C1918 H1902 0.959 . S
C1918 H1903 0.959 . S
C1918 H1904 0.961 . S
C1918 C1917 1.502 . S
C1919 H1905 0.960 . S
C1919 H1906 0.961 . S
C1919 H1907 0.959 . S
C1919 C1917 1.561 . S
C1920 C1917 1.526 . S
C1920 C1921 1.396 . S
C1920 C1925 1.390 . S
C1921 C1915 1.465 . S
C1921 C1920 1.396 . S
C1921 C1922 1.399 . S
C1922 H1908 0.929 . S
C1922 C1921 1.399 . S
C1922 C1923 1.385 . S
C1923 H1909 0.931 . S
C1923 C1922 1.385 . S
C1923 C1924 1.389 . S
C1924 C1923 1.389 . S
C1924 C1925 1.387 . S
C1925 H1910 0.930 . S
C1925 C1920 1.390 . S
C1925 C1924 1.387 . S
H1926 C1938 0.930 . S
H1927 C1940 0.930 . S
H1928 C1941 0.930 . S
H1929 C1945 0.959 . S
H1930 C1945 0.959 . S
H1931 C1945 0.961 . S
H1932 C1946 0.940 1_554 S
H1933 C1946 0.957 1_554 S
H1934 C1946 0.947 1_554 S
H1935 C1949 0.929 . S
H1936 C1950 0.931 . S
H1937 C1952 0.930 . S
C1938 H1926 0.930 . S
C1938 C1939 1.399 . S
C1938 C1943 1.399 . S
C1939 C1938 1.399 . S
C1939 C1940 1.376 . S
C1940 H1927 0.930 . S
C1940 C1939 1.376 . S
C1940 C1941 1.388 . S
C1941 H1928 0.930 . S
C1941 C1940 1.388 . S
C1941 C1942 1.390 . S
C1942 C1941 1.390 . S
C1942 C1943 1.394 . S
C1942 C1948 1.465 . S
C1943 C1938 1.399 . S
C1943 C1942 1.394 . S
C1943 C1944 1.516 . S
C1944 C1943 1.516 . S
C1944 C1945 1.502 . S
C1944 C1946 1.599 . S
C1944 C1947 1.526 . S
C1945 H1929 0.959 . S
C1945 H1930 0.959 . S
C1945 H1931 0.961 . S
C1945 C1944 1.502 . S
C1946 H1932 0.940 1_556 S
C1946 H1933 0.957 1_556 S
C1946 H1934 0.947 1_556 S
C1946 C1944 1.599 . S
C1947 C1944 1.526 . S
C1947 C1948 1.396 . S
C1947 C1952 1.390 . S
C1948 C1942 1.465 . S
C1948 C1947 1.396 . S
C1948 C1949 1.399 . S
C1949 H1935 0.929 . S
C1949 C1948 1.399 . S
C1949 C1950 1.385 . S
C1950 H1936 0.931 . S
C1950 C1949 1.385 . S
C1950 C1951 1.389 . S
C1951 C1950 1.389 . S
C1951 C1952 1.387 . S
C1952 H1937 0.930 . S
C1952 C1947 1.390 . S
C1952 C1951 1.387 . S
H1953 C1965 0.930 . S
H1954 C1967 0.930 . S
H1955 C1968 0.930 . S
H1956 C1972 0.959 . S
H1957 C1972 0.959 . S
H1958 C1972 0.961 . S
H1959 C1973 0.960 . S
H1960 C1973 0.961 1_455 S
H1961 C1973 0.976 . S
H1962 C1976 0.929 . S
H1963 C1977 0.931 . S
H1964 C1979 0.930 . S
C1965 H1953 0.930 . S
C1965 C1966 1.399 . S
C1965 C1970 1.399 . S
C1966 C1965 1.399 . S
C1966 C1967 1.376 . S
C1967 H1954 0.930 . S
C1967 C1966 1.376 . S
C1967 C1968 1.388 . S
C1968 H1955 0.930 . S
C1968 C1967 1.388 . S
C1968 C1969 1.390 . S
C1969 C1968 1.390 . S
C1969 C1970 1.394 . S
C1969 C1975 1.450 1_655 S
C1970 C1965 1.399 . S
C1970 C1969 1.394 . S
C1970 C1971 1.516 . S
C1971 C1970 1.516 . S
C1971 C1972 1.502 . S
C1971 C1973 1.561 . S
C1971 C1974 1.526 1_655 S
C1972 H1956 0.959 . S
C1972 H1957 0.959 . S
C1972 H1958 0.961 . S
C1972 C1971 1.502 . S
C1973 H1959 0.960 . S
C1973 H1960 0.961 1_655 S
C1973 H1961 0.976 . S
C1973 C1971 1.561 . S
C1974 C1971 1.526 1_455 S
C1974 C1975 1.399 . S
C1974 C1979 1.390 . S
C1975 C1969 1.450 1_455 S
C1975 C1974 1.399 . S
C1975 C1976 1.411 . S
C1976 H1962 0.929 . S
C1976 C1975 1.411 . S
C1976 C1977 1.385 . S
C1977 H1963 0.931 . S
C1977 C1976 1.385 . S
C1977 C1978 1.389 . S
C1978 C1977 1.389 . S
C1978 C1979 1.387 . S
C1979 H1964 0.930 . S
C1979 C1974 1.390 . S
C1979 C1978 1.387 . S
C1021 C56 1.601 . S
C1033 C990 1.596 . S
C1048 C822 1.546 . S
C1060 C150 1.582 . S
C1075 C234 1.440 . S
C1087 C738 1.446 . S
C1102 C318 1.563 . S
C1114 C906 1.573 . S
C1129 C402 1.685 . S
C1141 C896 1.563 . S
C1156 C476 1.621 . S
C1168 C980 1.696 . S
C1183 C812 1.611 . S
C1195 C570 1.598 . S
C1210 C654 1.532 . S
C1222 C728 1.525 . S
C1237 C308 1.692 . S
C1249 C392 1.601 . S
C1264 C66 1.596 . S
C1276 C486 1.593 . S
C1291 C140 1.649 1_655 S
C1303 C560 1.593 . S
C1318 C644 1.591 . S
C1330 C224 1.682 . S
C1345 C63 1.593 . S
C1357 C747 1.742 . S
C1372 C156 1.481 . S
C1384 C915 1.637 . S
C1399 C999 1.687 . S
C1411 C240 1.510 . S
C1426 C324 1.438 . S
C1438 C831 1.690 . S
C1453 C408 1.468 . S
C1465 C823 1.684 . S
C1480 C739 1.861 . S
C1492 C483 1.661 . S
C1507 C907 1.787 . S
C1519 C576 1.610 . S
C1534 C991 1.735 . S
C1546 C660 1.563 . S
C1561 C75 1.791 . S
C1573 C315 1.689 . S
C1588 C72 1.581 . S
C1600 C151 1.786 . S
C1615 C147 1.677 . S
C1627 C235 1.891 . S
C1642 C319 1.845 . S
C1654 C231 1.716 . S
C1669 C492 1.540 . S
C1681 C403 1.678 . S
C1696 C495 1.661 . S
C1708 C567 1.558 . S
C1723 C571 1.712 . S
C1735 C651 1.635 . S
C1750 C399 1.573 . S
C1762 C655 1.775 . S
C1777 C735 1.565 . S
C1789 C327 1.694 . S
C1804 C487 1.758 . S
C1816 C828 1.464 . S
C1831 C744 1.411 . S
C1843 C579 1.676 . S
C1858 C912 1.487 . S
C1870 C663 1.648 . S
C1885 C411 1.644 . S
C1897 C996 1.468 . S
C1912 C987 1.459 . S
C1924 C159 1.601 . S
C1939 C243 1.627 . S
C1951 C819 1.498 . S
C1966 C903 1.564 . S
C1978 C67 1.764 . S
