# Generated by pormake.
# Topology why, (6)-cn, num edge types: 1
# Building blocks:
#     Node 0, Type 0, BuildingBlock: VOLQOD_clean_sbu_1, # of connection points: 6
#     Node 1, Type 0, BuildingBlock: VOLQOD_clean_sbu_1, # of connection points: 6
#     Node 2, Type 0, BuildingBlock: VOLQOD_clean_sbu_1, # of connection points: 6
#     Node 3, Type 0, BuildingBlock: VOLQOD_clean_sbu_1, # of connection points: 6
#     Node 4, Type 0, BuildingBlock: VOLQOD_clean_sbu_1, # of connection points: 6
#     Node 5, Type 0, BuildingBlock: VOLQOD_clean_sbu_1, # of connection points: 6
#     Node 6, Type 0, BuildingBlock: VOLQOD_clean_sbu_1, # of connection points: 6
#     Node 7, Type 0, BuildingBlock: VOLQOD_clean_sbu_1, # of connection points: 6
#     Node 8, Type 0, BuildingBlock: VOLQOD_clean_sbu_1, # of connection points: 6
#     Node 9, Type 0, BuildingBlock: VOLQOD_clean_sbu_1, # of connection points: 6
#     Node 10, Type 0, BuildingBlock: VOLQOD_clean_sbu_1, # of connection points: 6
#     Node 11, Type 0, BuildingBlock: VOLQOD_clean_sbu_1, # of connection points: 6
#     Node 12, Type 0, BuildingBlock: VOLQOD_clean_sbu_1, # of connection points: 6
#     Node 13, Type 0, BuildingBlock: VOLQOD_clean_sbu_1, # of connection points: 6
#     Node 14, Type 0, BuildingBlock: VOLQOD_clean_sbu_1, # of connection points: 6
#     Node 15, Type 0, BuildingBlock: VOLQOD_clean_sbu_1, # of connection points: 6
#     Edge 16, Type (0, 0), BuildingBlock: XIVTED_clean_linker_0, # of connection points: 2
#     Edge 17, Type (0, 0), BuildingBlock: XIVTED_clean_linker_0, # of connection points: 2
#     Edge 18, Type (0, 0), BuildingBlock: XIVTED_clean_linker_0, # of connection points: 2
#     Edge 19, Type (0, 0), BuildingBlock: XIVTED_clean_linker_0, # of connection points: 2
#     Edge 20, Type (0, 0), BuildingBlock: XIVTED_clean_linker_0, # of connection points: 2
#     Edge 21, Type (0, 0), BuildingBlock: XIVTED_clean_linker_0, # of connection points: 2
#     Edge 22, Type (0, 0), BuildingBlock: XIVTED_clean_linker_0, # of connection points: 2
#     Edge 23, Type (0, 0), BuildingBlock: XIVTED_clean_linker_0, # of connection points: 2
#     Edge 24, Type (0, 0), BuildingBlock: XIVTED_clean_linker_0, # of connection points: 2
#     Edge 25, Type (0, 0), BuildingBlock: XIVTED_clean_linker_0, # of connection points: 2
#     Edge 26, Type (0, 0), BuildingBlock: XIVTED_clean_linker_0, # of connection points: 2
#     Edge 27, Type (0, 0), BuildingBlock: XIVTED_clean_linker_0, # of connection points: 2
#     Edge 28, Type (0, 0), BuildingBlock: XIVTED_clean_linker_0, # of connection points: 2
#     Edge 29, Type (0, 0), BuildingBlock: XIVTED_clean_linker_0, # of connection points: 2
#     Edge 30, Type (0, 0), BuildingBlock: XIVTED_clean_linker_0, # of connection points: 2
#     Edge 31, Type (0, 0), BuildingBlock: XIVTED_clean_linker_0, # of connection points: 2
#     Edge 32, Type (0, 0), BuildingBlock: XIVTED_clean_linker_0, # of connection points: 2
#     Edge 33, Type (0, 0), BuildingBlock: XIVTED_clean_linker_0, # of connection points: 2
#     Edge 34, Type (0, 0), BuildingBlock: XIVTED_clean_linker_0, # of connection points: 2
#     Edge 35, Type (0, 0), BuildingBlock: XIVTED_clean_linker_0, # of connection points: 2
#     Edge 36, Type (0, 0), BuildingBlock: XIVTED_clean_linker_0, # of connection points: 2
#     Edge 37, Type (0, 0), BuildingBlock: XIVTED_clean_linker_0, # of connection points: 2
#     Edge 38, Type (0, 0), BuildingBlock: XIVTED_clean_linker_0, # of connection points: 2
#     Edge 39, Type (0, 0), BuildingBlock: XIVTED_clean_linker_0, # of connection points: 2
#     Edge 40, Type (0, 0), BuildingBlock: XIVTED_clean_linker_0, # of connection points: 2
#     Edge 41, Type (0, 0), BuildingBlock: XIVTED_clean_linker_0, # of connection points: 2
#     Edge 42, Type (0, 0), BuildingBlock: XIVTED_clean_linker_0, # of connection points: 2
#     Edge 43, Type (0, 0), BuildingBlock: XIVTED_clean_linker_0, # of connection points: 2
#     Edge 44, Type (0, 0), BuildingBlock: XIVTED_clean_linker_0, # of connection points: 2
#     Edge 45, Type (0, 0), BuildingBlock: XIVTED_clean_linker_0, # of connection points: 2
#     Edge 46, Type (0, 0), BuildingBlock: XIVTED_clean_linker_0, # of connection points: 2
#     Edge 47, Type (0, 0), BuildingBlock: XIVTED_clean_linker_0, # of connection points: 2
#     Edge 48, Type (0, 0), BuildingBlock: XIVTED_clean_linker_0, # of connection points: 2
#     Edge 49, Type (0, 0), BuildingBlock: XIVTED_clean_linker_0, # of connection points: 2
#     Edge 50, Type (0, 0), BuildingBlock: XIVTED_clean_linker_0, # of connection points: 2
#     Edge 51, Type (0, 0), BuildingBlock: XIVTED_clean_linker_0, # of connection points: 2
#     Edge 52, Type (0, 0), BuildingBlock: XIVTED_clean_linker_0, # of connection points: 2
#     Edge 53, Type (0, 0), BuildingBlock: XIVTED_clean_linker_0, # of connection points: 2
#     Edge 54, Type (0, 0), BuildingBlock: XIVTED_clean_linker_0, # of connection points: 2
#     Edge 55, Type (0, 0), BuildingBlock: XIVTED_clean_linker_0, # of connection points: 2
#     Edge 56, Type (0, 0), BuildingBlock: XIVTED_clean_linker_0, # of connection points: 2
#     Edge 57, Type (0, 0), BuildingBlock: XIVTED_clean_linker_0, # of connection points: 2
#     Edge 58, Type (0, 0), BuildingBlock: XIVTED_clean_linker_0, # of connection points: 2
#     Edge 59, Type (0, 0), BuildingBlock: XIVTED_clean_linker_0, # of connection points: 2
#     Edge 60, Type (0, 0), BuildingBlock: XIVTED_clean_linker_0, # of connection points: 2
#     Edge 61, Type (0, 0), BuildingBlock: XIVTED_clean_linker_0, # of connection points: 2
#     Edge 62, Type (0, 0), BuildingBlock: XIVTED_clean_linker_0, # of connection points: 2
#     Edge 63, Type (0, 0), BuildingBlock: XIVTED_clean_linker_0, # of connection points: 2
# Relax obj value: 0.320
# Max RMSD: 0.187
# Mean RMSD: 0.187
data_MOF--net-why--node1-VOLQOD_clean_sbu_1--edge1-XIVTED_clean_linker_0
_symmetry_space_group_name_H-M    P1
_symmetry_Int_Tables_number       1
_symmetry_cell_setting            triclinic
loop_
_symmetry_equiv_pos_as_xyz
'x, y, z'
_cell_length_a     49.225684
_cell_length_b     49.20984
_cell_length_c     32.179788
_cell_angle_alpha  89.991417
_cell_angle_beta   89.949059
_cell_angle_gamma 89.989475
loop_
_atom_site_label
_atom_site_type_symbol
_atom_site_fract_x
_atom_site_fract_y
_atom_site_fract_z
_atom_type_partial_charge
O0 O 0.34317 0.21412 0.98537 0.0
Zn1 Zn 0.34192 0.17732 0.0096 0.0
O2 O 0.34353 0.17783 0.06924 0.0
Zn3 Zn 0.37654 0.15965 0.08638 0.0
Zn4 Zn 0.34352 0.21573 0.088 0.0
Zn5 Zn 0.31285 0.15723 0.09087 0.0
O6 O 0.36937 0.13229 0.13059 0.0
O7 O 0.32516 0.12461 0.12343 0.0
O8 O 0.36984 0.15329 0.98494 0.0
O9 O 0.39314 0.13815 0.03907 0.0
O10 O 0.40317 0.18667 0.10763 0.0
O11 O 0.37983 0.22518 0.11421 0.0
O12 O 0.31155 0.22169 0.12688 0.0
O13 O 0.30756 0.16182 0.98996 0.0
O14 O 0.29096 0.18136 0.12777 0.0
O15 O 0.28775 0.14424 0.04555 0.0
C16 C 0.34093 0.23786 0.00042 0.0
C17 C 0.34817 0.1186 0.13895 0.0
C18 C 0.40174 0.21157 0.11813 0.0
C19 C 0.38805 0.13802 0.00029 0.0
C20 C 0.29234 0.20612 0.13906 0.0
C21 C 0.28834 0.1486 0.0066 0.0
O22 O 0.3399 0.24202 0.03945 0.0
O23 O 0.51672 0.5607 0.20843 0.0
Zn24 Zn 0.55165 0.56508 0.23742 0.0
O25 O 0.54747 0.56436 0.29672 0.0
Zn26 Zn 0.56044 0.5984 0.31879 0.0
Zn27 Zn 0.5089 0.55959 0.31035 0.0
Zn28 Zn 0.57042 0.53549 0.31875 0.0
O29 O 0.58587 0.59278 0.36562 0.0
O30 O 0.59878 0.54989 0.35769 0.0
O31 O 0.57103 0.59783 0.21799 0.0
O32 O 0.58159 0.61963 0.27597 0.0
O33 O 0.52981 0.62061 0.33938 0.0
O34 O 0.49352 0.59371 0.3379 0.0
O35 O 0.50497 0.52598 0.34623 0.0
O36 O 0.57465 0.53514 0.21763 0.0
O37 O 0.54708 0.50941 0.34942 0.0
O38 O 0.59002 0.51465 0.27407 0.0
C39 C 0.49264 0.5554 0.22 0.0
C40 C 0.60105 0.57291 0.37527 0.0
C41 C 0.50472 0.61646 0.34624 0.0
C42 C 0.5833 0.6169 0.23674 0.0
C43 C 0.5219 0.50789 0.35811 0.0
C44 C 0.58919 0.51711 0.23477 0.0
O45 O 0.48629 0.55384 0.2583 0.0
O46 O 0.15231 0.79888 0.48741 0.0
Zn47 Zn 0.1484 0.83072 0.52486 0.0
O48 O 0.14194 0.81971 0.58148 0.0
Zn49 Zn 0.10689 0.83374 0.59854 0.0
Zn50 Zn 0.14241 0.77997 0.58562 0.0
Zn51 Zn 0.17003 0.8358 0.61607 0.0
O52 O 0.1101 0.85508 0.65073 0.0
O53 O 0.15448 0.86228 0.65653 0.0
O54 O 0.11995 0.85527 0.50371 0.0
O55 O 0.09067 0.85925 0.55567 0.0
O56 O 0.08104 0.80348 0.6085 0.0
O57 O 0.10519 0.76552 0.60215 0.0
O58 O 0.17152 0.76777 0.62607 0.0
O59 O 0.18242 0.85138 0.5194 0.0
O60 O 0.18882 0.80706 0.64749 0.0
O61 O 0.19938 0.85424 0.58299 0.0
C62 C 0.15408 0.77344 0.49368 0.0
C63 C 0.1302 0.86631 0.66856 0.0
C64 C 0.08281 0.7777 0.60949 0.0
C65 C 0.09862 0.86558 0.51926 0.0
C66 C 0.18826 0.78127 0.6482 0.0
C67 C 0.20074 0.85918 0.54432 0.0
O68 O 0.15124 0.76333 0.52987 0.0
O69 O 0.97377 0.42363 0.72701 0.0
Zn70 Zn 0.93864 0.41904 0.75535 0.0
O71 O 0.94203 0.4161 0.81446 0.0
Zn72 Zn 0.92921 0.38059 0.83084 0.0
Zn73 Zn 0.98051 0.42017 0.82859 0.0
Zn74 Zn 0.91894 0.44379 0.84049 0.0
O75 O 0.90197 0.38343 0.87557 0.0
O76 O 0.89051 0.42705 0.87771 0.0
O77 O 0.91941 0.38781 0.73091 0.0
O78 O 0.91001 0.36086 0.78405 0.0
O79 O 0.9594 0.35867 0.85366 0.0
O80 O -0.00532 0.38678 0.85832 0.0
O81 O 0.98456 0.45345 0.86421 0.0
O82 O 0.9158 0.44977 0.73985 0.0
O83 O 0.94241 0.46896 0.8734 0.0
O84 O 0.8988 0.46642 0.79824 0.0
C85 C -0.00178 0.4255 0.73905 0.0
C86 C 0.88745 0.4026 0.88971 0.0
C87 C 0.98371 0.36368 0.86455 0.0
C88 C 0.90814 0.36674 0.74563 0.0
C89 C 0.96792 0.47068 0.87945 0.0
C90 C 0.90033 0.46617 0.7588 0.0
O91 O 0.00443 0.4243 0.77741 0.0
O92 O 0.6869 0.76064 0.06025 0.0
Zn93 Zn 0.6843 0.79602 0.03011 0.0
O94 O 0.67739 0.78933 0.97132 0.0
Zn95 Zn 0.64364 0.80688 0.95615 0.0
Zn96 Zn 0.67532 0.75043 0.95857 0.0
Zn97 Zn 0.7067 0.80518 0.9395 0.0
O98 O 0.64932 0.83301 0.91013 0.0
O99 O 0.69398 0.83356 0.9002 0.0
O100 O 0.65357 0.81638 0.05688 0.0
O101 O 0.62606 0.82597 0.0044 0.0
O102 O 0.61707 0.78012 0.93489 0.0
O103 O 0.63827 0.74036 0.93556 0.0
O104 O 0.70332 0.73919 0.91551 0.0
O105 O 0.71813 0.81822 0.03914 0.0
O106 O 0.72549 0.77786 0.90552 0.0
O107 O 0.73396 0.82253 0.97489 0.0
C108 C 0.68454 0.73591 0.04919 0.0
C109 C 0.67026 0.84168 0.8913 0.0
C110 C 0.61733 0.75474 0.92789 0.0
C111 C 0.63208 0.82737 0.04279 0.0
C112 C 0.72211 0.75281 0.89792 0.0
C113 C 0.73586 0.82688 0.01356 0.0
O114 O 0.68039 0.72931 0.01139 0.0
O115 O 0.4667 0.36367 0.71917 0.0
Zn116 Zn 0.42831 0.36979 0.70365 0.0
O117 O 0.41999 0.35235 0.65142 0.0
Zn118 Zn 0.39245 0.32479 0.66057 0.0
Zn119 Zn 0.45323 0.3362 0.62801 0.0
Zn120 Zn 0.40503 0.3795 0.61412 0.0
O121 O 0.36071 0.32984 0.62261 0.0
O122 O 0.36895 0.36924 0.59177 0.0
O123 O 0.40496 0.35601 0.75034 0.0
O124 O 0.37899 0.32524 0.71942 0.0
O125 O 0.40729 0.2879 0.64811 0.0
O126 O 0.44732 0.29611 0.61858 0.0
O127 O 0.46341 0.35427 0.57341 0.0
O128 O 0.42323 0.40967 0.70002 0.0
O129 O 0.42871 0.38268 0.56511 0.0
O130 O 0.40251 0.41659 0.63973 0.0
C131 C 0.48697 0.35173 0.70292 0.0
C132 C 0.35407 0.34849 0.5972 0.0
C133 C 0.42865 0.27967 0.62972 0.0
C134 C 0.38599 0.33849 0.75166 0.0
C135 C 0.45073 0.37215 0.55233 0.0
C136 C 0.41214 0.42542 0.67377 0.0
O137 O 0.48514 0.33977 0.6679 0.0
O138 O 0.79015 0.23564 0.56697 0.0
Zn139 Zn 0.79074 0.19896 0.54086 0.0
O140 O 0.80007 0.20223 0.48216 0.0
Zn141 Zn 0.83457 0.18432 0.47253 0.0
Zn142 Zn 0.80238 0.24037 0.46472 0.0
Zn143 Zn 0.77229 0.18414 0.45009 0.0
O144 O 0.83081 0.15527 0.43035 0.0
O145 O 0.78671 0.15354 0.41615 0.0
O146 O 0.81914 0.17819 0.57229 0.0
O147 O 0.84998 0.16783 0.52459 0.0
O148 O 0.86153 0.20977 0.44829 0.0
O149 O 0.83904 0.24834 0.43859 0.0
O150 O 0.77389 0.2497 0.42114 0.0
O151 O 0.75553 0.17913 0.55001 0.0
O152 O 0.7547 0.20941 0.4113 0.0
O153 O 0.74352 0.16907 0.48535 0.0
C154 C 0.79499 0.25955 0.55381 0.0
C155 C 0.81081 0.14511 0.41096 0.0
C156 C 0.86052 0.23407 0.43503 0.0
C157 C 0.84145 0.16709 0.56193 0.0
C158 C 0.75672 0.23448 0.4027 0.0
C159 C 0.73926 0.1683 0.52416 0.0
O160 O 0.79968 0.26426 0.51546 0.0
O161 O 0.03918 0.63143 0.24599 0.0
Zn162 Zn 0.07635 0.62563 0.22386 0.0
O163 O 0.07826 0.63511 0.16587 0.0
Zn164 Zn 0.1047 0.66425 0.15729 0.0
Zn165 Zn 0.04222 0.64627 0.14614 0.0
Zn166 Zn 0.09049 0.60311 0.13673 0.0
O167 O 0.13146 0.65436 0.11179 0.0
O168 O 0.12481 0.60984 0.10697 0.0
O169 O 0.10306 0.64678 0.25669 0.0
O170 O 0.12512 0.67211 0.21049 0.0
O171 O 0.08556 0.69898 0.14214 0.0
O172 O 0.04274 0.68618 0.1321 0.0
O173 O 0.03075 0.6245 0.09567 0.0
O174 O 0.08415 0.58654 0.23419 0.0
O175 O 0.06435 0.59439 0.09245 0.0
O176 O 0.09509 0.57001 0.17249 0.0
C177 C 0.01613 0.6362 0.22974 0.0
C178 C 0.13773 0.63117 0.09696 0.0
C179 C 0.06104 0.70452 0.13276 0.0
C180 C 0.12153 0.66384 0.24763 0.0
C181 C 0.04227 0.60417 0.07862 0.0
C182 C 0.09141 0.56685 0.21126 0.0
O183 O 0.01374 0.64129 0.19108 0.0
O184 O 0.81865 0.72396 0.45498 0.0
Zn185 Zn 0.82039 0.68452 0.4696 0.0
O186 O 0.8329 0.68064 0.52691 0.0
Zn187 Zn 0.86498 0.65764 0.52743 0.0
Zn188 Zn 0.84088 0.71583 0.55236 0.0
Zn189 Zn 0.80461 0.66344 0.55912 0.0
O190 O 0.85855 0.62353 0.55912 0.0
O191 O 0.81668 0.62852 0.5835 0.0
O192 O 0.84667 0.66783 0.4287 0.0
O193 O 0.87616 0.64721 0.47017 0.0
O194 O 0.89672 0.67682 0.55334 0.0
O195 O 0.8802 0.71749 0.56925 0.0
O196 O 0.81903 0.72234 0.60501 0.0
O197 O 0.78381 0.66675 0.46101 0.0
O198 O 0.79323 0.6855 0.60677 0.0
O199 O 0.77226 0.65543 0.52547 0.0
C200 C 0.82541 0.74584 0.47343 0.0
C201 C 0.83849 0.61499 0.58028 0.0
C202 C 0.89976 0.70056 0.56829 0.0
C203 C 0.86756 0.65302 0.43402 0.0
C204 C 0.80073 0.70793 0.6223 0.0
C205 C 0.76699 0.6568 0.48698 0.0
O206 O 0.8343 0.74571 0.51065 0.0
O207 O 0.00382 0.09778 0.73988 0.0
Zn208 Zn 0.04371 0.09579 0.74957 0.0
O209 O 0.05237 0.11134 0.80342 0.0
Zn210 Zn 0.07883 0.14034 0.79539 0.0
Zn211 Zn 0.01948 0.12445 0.83135 0.0
Zn212 Zn 0.06839 0.08362 0.83793 0.0
O213 O 0.11476 0.13119 0.8211 0.0
O214 O 0.10641 0.09209 0.85273 0.0
O215 O 0.0609 0.11656 0.70244 0.0
O216 O 0.08517 0.14802 0.73489 0.0
O217 O 0.06587 0.17443 0.82294 0.0
O218 O 0.02494 0.16352 0.84712 0.0
O219 O 0.01213 0.10475 0.88589 0.0
O220 O 0.05604 0.05705 0.74564 0.0
O221 O 0.04909 0.07932 0.89086 0.0
O222 O 0.06891 0.04786 0.81029 0.0
C223 C 0.9839 0.10915 0.75817 0.0
C224 C 0.12239 0.1114 0.84366 0.0
C225 C 0.04424 0.18052 0.84255 0.0
C226 C 0.07685 0.13688 0.70155 0.0
C227 C 0.02704 0.08818 0.90601 0.0
C228 C 0.0646 0.04055 0.7731 0.0
O229 O 0.98683 0.12118 0.79303 0.0
O230 O 0.66355 0.24706 0.95406 0.0
Zn231 Zn 0.66512 0.28688 0.9661 0.0
O232 O 0.65184 0.29352 0.02242 0.0
Zn233 Zn 0.6205 0.31764 0.01987 0.0
Zn234 Zn 0.64242 0.25951 0.05074 0.0
Zn235 Zn 0.6802 0.31111 0.05375 0.0
O236 O 0.62828 0.3534 0.04665 0.0
O237 O 0.66955 0.3479 0.0728 0.0
O238 O 0.64093 0.30422 0.9231 0.0
O239 O 0.60975 0.32528 0.96113 0.0
O240 O 0.58846 0.30143 0.04962 0.0
O241 O 0.60362 0.2611 0.07013 0.0
O242 O 0.66474 0.25341 0.10327 0.0
O243 O 0.70304 0.30173 0.95742 0.0
O244 O 0.68952 0.29096 0.10428 0.0
O245 O 0.71362 0.31565 0.021 0.0
C246 C 0.65454 0.2263 0.97332 0.0
C247 C 0.64851 0.36227 0.06706 0.0
C248 C 0.58483 0.27885 0.06813 0.0
C249 C 0.6197 0.31883 0.92599 0.0
C250 C 0.68229 0.2687 0.12064 0.0
C251 C 0.71978 0.31201 0.98315 0.0
O252 O 0.64566 0.228 0.01052 0.0
O253 O 0.45859 0.87906 0.21628 0.0
Zn254 Zn 0.41947 0.88076 0.23306 0.0
O255 O 0.4159 0.86902 0.29053 0.0
Zn256 Zn 0.39023 0.83881 0.29416 0.0
Zn257 Zn 0.45111 0.85859 0.31434 0.0
Zn258 Zn 0.40181 0.89948 0.32135 0.0
O259 O 0.35912 0.8478 0.33251 0.0
O260 O 0.36535 0.89187 0.34389 0.0
O261 O 0.39869 0.85615 0.19501 0.0
O262 O 0.37615 0.82857 0.23741 0.0
O263 O 0.40839 0.8055 0.31694 0.0
O264 O 0.45058 0.81893 0.33017 0.0
O265 O 0.45952 0.87949 0.36737 0.0
O266 O 0.40604 0.91911 0.22378 0.0
O267 O 0.42412 0.9072 0.37067 0.0
O268 O 0.39899 0.9332 0.28832 0.0
C269 C 0.48066 0.87227 0.23415 0.0
C270 C 0.35159 0.87029 0.34832 0.0
C271 C 0.4323 0.80059 0.3299 0.0
C272 C 0.38202 0.83675 0.2009 0.0
C273 C 0.44605 0.89804 0.38582 0.0
C274 C 0.39985 0.93772 0.24956 0.0
O275 O 0.481 0.86419 0.27184 0.0
O276 O 0.11877 0.27701 0.47721 0.0
Zn277 Zn 0.1248 0.31428 0.45708 0.0
O278 O 0.11245 0.31909 0.40096 0.0
Zn279 Zn 0.082 0.344 0.40192 0.0
Zn280 Zn 0.10186 0.28336 0.37862 0.0
Zn281 Zn 0.14177 0.33565 0.3689 0.0
O282 O 0.08782 0.37501 0.36301 0.0
O283 O 0.13085 0.37123 0.34324 0.0
O284 O 0.10793 0.34029 0.49686 0.0
O285 O 0.07692 0.36098 0.45836 0.0
O286 O 0.04807 0.32455 0.38554 0.0
O287 O 0.06209 0.28423 0.36261 0.0
O288 O 0.12622 0.27341 0.32954 0.0
O289 O 0.16403 0.31971 0.46054 0.0
O290 O 0.15152 0.31068 0.32311 0.0
O291 O 0.17635 0.34043 0.40234 0.0
C292 C 0.11164 0.25473 0.46069 0.0
C293 C 0.10828 0.38382 0.34298 0.0
C294 C 0.04318 0.30145 0.36933 0.0
C295 C 0.08911 0.35774 0.49287 0.0
C296 C 0.1448 0.287 0.31113 0.0
C297 C 0.18197 0.33091 0.43808 0.0
O298 O 0.10479 0.25337 0.42255 0.0
O299 O 0.95922 0.94857 0.31663 0.0
Zn300 Zn 0.92605 0.9434 0.28236 0.0
O301 O 0.93587 0.93807 0.22445 0.0
Zn302 Zn 0.92404 0.90227 0.20776 0.0
Zn303 Zn 0.97533 0.9414 0.21613 0.0
Zn304 Zn 0.91663 0.96497 0.19151 0.0
O305 O 0.8989 0.90442 0.16012 0.0
O306 O 0.89124 0.94841 0.15044 0.0
O307 O 0.9062 0.91153 0.30565 0.0
O308 O 0.90427 0.88239 0.25328 0.0
O309 O 0.95493 0.88008 0.18819 0.0
O310 O -0.00868 0.90669 0.19097 0.0
O311 O 0.98384 0.97298 0.17737 0.0
O312 O 0.90111 0.97492 0.29029 0.0
O313 O 0.94263 0.98788 0.16082 0.0
O314 O 0.89438 0.9897 0.22604 0.0
C315 C 0.98453 0.94945 0.30877 0.0
C316 C 0.88725 0.9237 0.141 0.0
C317 C 0.98011 0.88406 0.18204 0.0
C318 C 0.89868 0.8889 0.29058 0.0
C319 C 0.96831 0.98938 0.15788 0.0
C320 C 0.88993 0.99113 0.26478 0.0
O321 O -0.00644 0.94716 0.27175 0.0
O322 O 0.34929 0.68561 0.97716 0.0
Zn323 Zn 0.34956 0.64971 0.94846 0.0
O324 O 0.36534 0.65218 0.89359 0.0
Zn325 Zn 0.39802 0.63033 0.89251 0.0
Zn326 Zn 0.37394 0.69025 0.88103 0.0
Zn327 Zn 0.33979 0.63746 0.85317 0.0
O328 O 0.3977 0.6049 0.84449 0.0
O329 O 0.35579 0.6072 0.81948 0.0
O330 O 0.36904 0.62335 0.98461 0.0
O331 O 0.40242 0.60818 0.94464 0.0
O332 O 0.43067 0.65382 0.88576 0.0
O333 O 0.4142 0.69462 0.8702 0.0
O334 O 0.35176 0.70369 0.83213 0.0
O335 O 0.3117 0.63687 0.94527 0.0
O336 O 0.32978 0.66621 0.8135 0.0
O337 O 0.30438 0.62586 0.87921 0.0
C338 C 0.35588 0.70957 0.96631 0.0
C339 C 0.37967 0.59735 0.81872 0.0
C340 C 0.43422 0.67851 0.87541 0.0
C341 C 0.38935 0.60791 0.97879 0.0
C342 C 0.33522 0.6912 0.80839 0.0
C343 C 0.29653 0.62763 0.91674 0.0
O344 O 0.36541 0.71445 0.93025 0.0
O345 O 0.5137 0.02916 0.80474 0.0
Zn346 Zn 0.54714 0.03458 0.77065 0.0
O347 O 0.53755 0.04233 0.71324 0.0
Zn348 Zn 0.54833 0.07918 0.70119 0.0
Zn349 Zn 0.49835 0.0382 0.70421 0.0
Zn350 Zn 0.55738 0.01787 0.6768 0.0
O351 O 0.57459 0.08017 0.65511 0.0
O352 O 0.58264 0.03722 0.6381 0.0
O353 O 0.56696 0.06556 0.79737 0.0
O354 O 0.56635 0.09784 0.74942 0.0
O355 O 0.51735 0.10064 0.68091 0.0
O356 O 0.48214 0.07241 0.67864 0.0
O357 O 0.49053 0.00693 0.66468 0.0
O358 O 0.5723 0.00289 0.77476 0.0
O359 O 0.53201 -0.00441 0.64359 0.0
O360 O 0.58018 -0.00767 0.70872 0.0
C361 C 0.4884 0.03003 0.79665 0.0
C362 C 0.58653 0.06249 0.63304 0.0
C363 C 0.49274 0.09561 0.67199 0.0
C364 C 0.57289 0.08944 0.78544 0.0
C365 C 0.5064 -0.00741 0.64221 0.0
C366 C 0.58424 0.9887 0.74722 0.0
O367 O 0.47978 0.03314 0.75957 0.0
H368 H 0.44742 0.18926 0.15148 0.0
H369 H 0.5386 0.3101 0.0668 0.0
H370 H 0.41456 0.26529 0.10749 0.0
H371 H 0.57007 0.23388 0.11277 0.0
H372 H 0.49369 0.29765 0.09301 0.0
H373 H 0.4927 0.20921 0.15104 0.0
C374 C 0.44969 0.21038 0.1426 0.0
C375 C 0.42731 0.22551 0.12878 0.0
C376 C 0.51051 0.28381 0.09778 0.0
C377 C 0.47918 0.24829 0.12713 0.0
C378 C 0.53615 0.29085 0.0827 0.0
C379 C 0.55807 0.27277 0.08687 0.0
C380 C 0.50673 0.25848 0.11706 0.0
C381 C 0.55372 0.24828 0.1082 0.0
C382 C 0.47558 0.22175 0.14219 0.0
C383 C 0.43132 0.25286 0.11811 0.0
N384 N 0.52852 0.24175 0.12206 0.0
N385 N 0.4569 0.26324 0.11662 0.0
H386 H 0.45118 0.62755 0.3291 0.0
H387 H 0.47721 0.78408 0.37297 0.0
H388 H 0.52153 0.65937 0.3924 0.0
H389 H 0.40314 0.75369 0.31825 0.0
H390 H 0.4903 0.73767 0.38988 0.0
H391 H 0.4293 0.67215 0.33559 0.0
C392 C 0.46167 0.64367 0.34545 0.0
C393 C 0.48836 0.64 0.35957 0.0
C394 C 0.47103 0.7411 0.37455 0.0
C395 C 0.46383 0.69095 0.36642 0.0
C396 C 0.46361 0.76764 0.36471 0.0
C397 C 0.43926 0.77276 0.34356 0.0
C398 C 0.4542 0.71939 0.36265 0.0
C399 C 0.42224 0.75066 0.33424 0.0
C400 C 0.44929 0.66918 0.34886 0.0
C401 C 0.5011 0.66154 0.38039 0.0
N402 N 0.43022 0.72488 0.34329 0.0
N403 N 0.4889 0.68618 0.3826 0.0
H404 H 0.07254 0.72437 0.5892 0.0
H405 H 0.91278 0.74666 0.61128 0.0
H406 H 0.03519 0.79569 0.64256 0.0
H407 H 0.94836 0.67369 0.56024 0.0
H408 H 0.9579 0.76206 0.6313 0.0
H409 H 0.02789 0.70235 0.58749 0.0
C410 C 0.05508 0.73518 0.60132 0.0
C411 C 0.05749 0.76206 0.61538 0.0
C412 C 0.95587 0.74256 0.61603 0.0
C413 C 0.00649 0.7372 0.61313 0.0
C414 C 0.93007 0.73379 0.60446 0.0
C415 C 0.92679 0.70901 0.58353 0.0
C416 C 0.97868 0.72661 0.60627 0.0
C417 C 0.94995 0.69304 0.57603 0.0
C418 C 0.02959 0.72267 0.60014 0.0
C419 C 0.03421 0.77511 0.63075 0.0
N420 N 0.97497 0.70227 0.58696 0.0
N421 N 0.00968 0.76269 0.62876 0.0
H422 H 0.03736 0.35252 0.85029 0.0
H423 H 0.00684 0.19803 0.89918 0.0
H424 H 0.96623 0.32278 0.91402 0.0
H425 H 0.07511 0.22564 0.82616 0.0
H426 H -0.00108 0.24457 0.92172 0.0
H427 H 0.05875 0.30791 0.85928 0.0
C428 C 0.02666 0.33687 0.86744 0.0
C429 C -0.00017 0.34092 0.88059 0.0
C430 C 0.01585 0.24046 0.90115 0.0
C431 C 0.02375 0.29012 0.89036 0.0
C432 C 0.02027 0.21388 0.88805 0.0
C433 C 0.04118 0.20809 0.85983 0.0
C434 C 0.03217 0.26148 0.88538 0.0
C435 C 0.05841 0.22931 0.84734 0.0
C436 C 0.03875 0.31139 0.87228 0.0
C437 C 0.98677 0.32014 0.90263 0.0
N438 N 0.05321 0.25521 0.85959 0.0
N439 N -0.00132 0.29545 0.90618 0.0
H440 H 0.60513 0.70035 0.92066 0.0
H441 H 0.45087 0.73058 0.85871 0.0
H442 H 0.57255 0.78043 0.89743 0.0
H443 H 0.48164 0.65033 0.88607 0.0
H444 H 0.49707 0.74828 0.86308 0.0
H445 H 0.56168 0.68073 0.89889 0.0
C446 C 0.58897 0.71377 0.91064 0.0
C447 C 0.59235 0.74207 0.91148 0.0
C448 C 0.49374 0.72674 0.86776 0.0
C449 C 0.54273 0.71986 0.8866 0.0
C450 C 0.46735 0.71662 0.86519 0.0
C451 C 0.46229 0.689 0.87265 0.0
C452 C 0.51521 0.70915 0.87804 0.0
C453 C 0.48451 0.67184 0.88059 0.0
C454 C 0.56418 0.70259 0.89825 0.0
C455 C 0.57077 0.75851 0.89793 0.0
N456 N 0.50997 0.68225 0.88353 0.0
N457 N 0.54686 0.74717 0.88638 0.0
H458 H 0.46743 0.25436 0.58276 0.0
H459 H 0.43968 0.11025 0.68656 0.0
H460 H 0.39883 0.23783 0.66262 0.0
H461 H 0.51058 0.13117 0.61457 0.0
H462 H 0.41839 0.1532 0.66476 0.0
H463 H 0.47739 0.20592 0.58069 0.0
C464 C 0.45431 0.24052 0.59958 0.0
C465 C 0.43265 0.25022 0.62366 0.0
C466 C 0.43838 0.14807 0.65309 0.0
C467 C 0.44408 0.19469 0.62179 0.0
C468 C 0.4504 0.12357 0.66534 0.0
C469 C 0.47702 0.11764 0.65291 0.0
C470 C 0.45318 0.16636 0.62818 0.0
C471 C 0.49018 0.13539 0.62547 0.0
C472 C 0.45995 0.21282 0.59832 0.0
C473 C 0.416 0.23126 0.64414 0.0
N474 N 0.47827 0.15908 0.61442 0.0
N475 N 0.42235 0.2044 0.64334 0.0
H476 H 0.8725 0.28766 0.41883 0.0
H477 H 0.02346 0.25157 0.34621 0.0
H478 H 0.9041 0.2063 0.4049 0.0
H479 H -0.00254 0.33243 0.38021 0.0
H480 H 0.97651 0.23617 0.35156 0.0
H481 H 0.91511 0.30555 0.39028 0.0
C482 C 0.88826 0.27358 0.40943 0.0
C483 C 0.88496 0.24549 0.41496 0.0
C484 C 0.98104 0.25737 0.3573 0.0
C485 C 0.93346 0.26572 0.38208 0.0
C486 C 0.00785 0.26622 0.35405 0.0
C487 C 0.01454 0.29321 0.36368 0.0
C488 C 0.96079 0.27561 0.37036 0.0
C489 C -0.00666 0.31131 0.37325 0.0
C490 C 0.91253 0.28378 0.39313 0.0
C491 C 0.90595 0.22813 0.40196 0.0
N492 N 0.96746 0.30209 0.37698 0.0
N493 N 0.92933 0.23854 0.38642 0.0
H494 H 0.01425 0.72395 0.09826 0.0
H495 H 0.0349 0.87313 0.18983 0.0
H496 H 0.0891 0.75044 0.15511 0.0
H497 H 0.96115 0.84337 0.13351 0.0
H498 H 0.0582 0.83139 0.16735 0.0
H499 H -0.00227 0.77055 0.10011 0.0
C500 C 0.02736 0.73964 0.11067 0.0
C501 C 0.05291 0.7332 0.12714 0.0
C502 C 0.03701 0.83425 0.15946 0.0
C503 C 0.03393 0.7867 0.13008 0.0
C504 C 0.02377 0.85805 0.17219 0.0
C505 C -0.00404 0.86141 0.1642 0.0
C506 C 0.02227 0.81394 0.13849 0.0
C507 C 0.98247 0.84135 0.14113 0.0
C508 C 0.01792 0.76631 0.11177 0.0
C509 C 0.06917 0.75447 0.14234 0.0
N510 N -0.00433 0.81845 0.12946 0.0
N511 N 0.05922 0.78024 0.14411 0.0
H512 H 0.14118 0.07955 0.90689 0.0
H513 H 0.28155 0.15891 0.92413 0.0
H514 H 0.1652 0.14446 0.8242 0.0
H515 H 0.24494 0.11619 0.02735 0.0
H516 H 0.2437 0.14536 0.88041 0.0
H517 H 0.18412 0.08453 0.94396 0.0
C518 C 0.15563 0.0946 0.89615 0.0
C519 C 0.14951 0.1119 0.86273 0.0
C520 C 0.24404 0.13884 0.91256 0.0
C521 C 0.19845 0.11756 0.90497 0.0
C522 C 0.26563 0.14653 0.93762 0.0
C523 C 0.26621 0.13894 0.97969 0.0
C524 C 0.22292 0.12336 0.92954 0.0
C525 C 0.24512 0.12273 -0.00477 0.0
C526 C 0.18003 0.09747 0.91747 0.0
C527 C 0.16898 0.13095 0.85011 0.0
N528 N 0.22416 0.11555 0.97012 0.0
N529 N 0.19258 0.13338 0.87145 0.0
H530 H 0.67659 0.38012 0.13482 0.0
H531 H 0.59035 0.51648 0.15018 0.0
H532 H 0.61601 0.40476 0.04541 0.0
H533 H 0.62292 0.47522 0.25779 0.0
H534 H 0.61143 0.48259 0.10568 0.0
H535 H 0.66827 0.42206 0.17376 0.0
C536 C 0.66192 0.39459 0.12299 0.0
C537 C 0.64661 0.38891 0.08726 0.0
C538 C 0.61416 0.48115 0.13901 0.0
C539 C 0.6373 0.43658 0.13125 0.0
C540 C 0.60213 0.50043 0.16452 0.0
C541 C 0.60439 0.49831 0.20789 0.0
C542 C 0.62862 0.45965 0.15691 0.0
C543 C 0.6203 0.47733 0.22455 0.0
C544 C 0.65716 0.41837 0.14528 0.0
C545 C 0.6279 0.40824 0.0732 0.0
N546 N 0.63165 0.45855 0.19895 0.0
N547 N 0.62364 0.43122 0.09543 0.0
H548 H 0.31686 0.91238 0.36166 0.0
H549 H 0.25242 0.84467 0.5631 0.0
H550 H 0.33539 0.83079 0.4019 0.0
H551 H 0.20515 0.8961 0.4822 0.0
H552 H 0.29156 0.85044 0.51668 0.0
H553 H 0.28248 0.91562 0.41674 0.0
C554 C 0.31346 0.8951 0.38188 0.0
C555 C 0.32856 0.87114 0.3771 0.0
C556 C 0.27277 0.861 0.50984 0.0
C557 C 0.29056 0.8752 0.44065 0.0
C558 C 0.25067 0.85807 0.53651 0.0
C559 C 0.22571 0.86983 0.52602 0.0
C560 C 0.26974 0.87612 0.47318 0.0
C561 C 0.22418 0.88666 0.49097 0.0
C562 C 0.29413 0.89707 0.41332 0.0
C563 C 0.32375 0.84941 0.40422 0.0
N564 N 0.24592 0.88913 0.4654 0.0
N565 N 0.30524 0.85203 0.43519 0.0
H566 H 0.86925 0.57127 0.55992 0.0
H567 H 0.87104 0.5109 0.78428 0.0
H568 H 0.8144 0.60168 0.65377 0.0
H569 H 0.89258 0.46402 0.67553 0.0
H570 H 0.84929 0.54452 0.73875 0.0
H571 H 0.87801 0.53154 0.60306 0.0
C572 C 0.85887 0.56936 0.58948 0.0
C573 C 0.84131 0.58968 0.60364 0.0
C574 C 0.85843 0.52658 0.72516 0.0
C575 C 0.85143 0.54475 0.65327 0.0
C576 C 0.8709 0.50753 0.75102 0.0
C577 C 0.88423 0.48509 0.73354 0.0
C578 C 0.85964 0.52304 0.68188 0.0
C579 C 0.88319 0.48142 0.69032 0.0
C580 C 0.86372 0.54669 0.61398 0.0
C581 C 0.82812 0.5863 0.64195 0.0
N582 N 0.87148 0.50042 0.66595 0.0
N583 N 0.83385 0.56439 0.66599 0.0
H584 H 0.78547 0.83167 0.9777 0.0
H585 H 0.837 0.94584 0.13347 0.0
H586 H 0.7374 0.86045 0.08105 0.0
H587 H 0.89002 0.88461 0.08216 0.0
H588 H 0.79871 0.92531 0.09597 0.0
H589 H 0.82269 0.86117 -0.00013 0.0
C590 C 0.78279 0.84424 0.00505 0.0
C591 C 0.75859 0.84348 0.02803 0.0
C592 C 0.8189 0.91687 0.09228 0.0
C593 C 0.8005 0.87754 0.0525 0.0
C594 C 0.84067 0.92867 0.11316 0.0
C595 C 0.86637 0.91659 0.11087 0.0
C596 C 0.8233 0.89335 0.06864 0.0
C597 C 0.87029 0.89423 0.08473 0.0
C598 C 0.8039 0.86107 0.01743 0.0
C599 C 0.75598 0.86019 0.06302 0.0
N600 N 0.84884 0.88312 0.0647 0.0
N601 N 0.77678 0.87669 0.07425 0.0
H602 H 0.42936 0.57467 0.80472 0.0
H603 H 0.37328 0.46186 0.64893 0.0
H604 H 0.34609 0.57224 0.76246 0.0
H605 H 0.44628 0.45452 0.72229 0.0
H606 H 0.36735 0.50834 0.67533 0.0
H607 H 0.43992 0.53679 0.759 0.0
C608 C 0.4133 0.56628 0.78566 0.0
C609 C 0.38664 0.57622 0.78812 0.0
C610 C 0.38484 0.4966 0.68508 0.0
C611 C 0.39867 0.53284 0.73572 0.0
C612 C 0.38826 0.47022 0.66998 0.0
C613 C 0.41001 0.45435 0.68416 0.0
C614 C 0.40354 0.50701 0.71391 0.0
C615 C 0.42894 0.46599 0.71128 0.0
C616 C 0.41938 0.54469 0.75949 0.0
C617 C 0.36681 0.56489 0.76201 0.0
N618 N 0.42516 0.49158 0.7255 0.0
N619 N 0.37316 0.54349 0.73718 0.0
H620 H 0.58234 0.10253 0.57604 0.0
H621 H 0.73557 0.13828 0.59507 0.0
H622 H 0.63872 0.04543 0.62974 0.0
H623 H 0.69094 0.16157 0.48526 0.0
H624 H 0.69832 0.10757 0.61411 0.0
H625 H 0.62051 0.12697 0.54462 0.0
C626 C 0.60278 0.09475 0.58002 0.0
C627 C 0.60769 0.07206 0.6051 0.0
C628 C 0.69684 0.11941 0.58582 0.0
C629 C 0.651 0.10029 0.57136 0.0
C630 C 0.71776 0.13717 0.57538 0.0
C631 C 0.71605 0.15246 0.53879 0.0
C632 C 0.67403 0.11753 0.55987 0.0
C633 C 0.69286 0.15007 0.5138 0.0
C634 C 0.62444 0.1087 0.56242 0.0
C635 C 0.63434 0.06277 0.61012 0.0
N636 N 0.67254 0.13304 0.525 0.0
N637 N 0.65524 0.07738 0.59415 0.0
H638 H 0.14201 0.40463 0.28285 0.0
H639 H 0.07185 0.54972 0.28588 0.0
H640 H 0.06935 0.42255 0.35306 0.0
H641 H 0.11798 0.52234 0.17958 0.0
H642 H 0.07608 0.50466 0.31645 0.0
H643 H 0.13829 0.44924 0.24915 0.0
C644 C 0.12528 0.41788 0.29107 0.0
C645 C 0.10597 0.40992 0.32081 0.0
C646 C 0.08524 0.5085 0.2864 0.0
C647 C 0.10188 0.46073 0.28298 0.0
C648 C 0.08299 0.53425 0.26902 0.0
C649 C 0.09456 0.53975 0.23009 0.0
C650 C 0.09948 0.48817 0.26502 0.0
C651 C 0.10866 0.51887 0.20959 0.0
C652 C 0.12315 0.44321 0.27178 0.0
C653 C 0.08464 0.4278 0.33023 0.0
N654 N 0.11087 0.49392 0.22745 0.0
N655 N 0.08331 0.45246 0.31163 0.0
H656 H 0.65177 0.55152 0.36834 0.0
H657 H 0.7192 0.65386 0.52881 0.0
H658 H 0.60408 0.60841 0.4398 0.0
H659 H 0.75773 0.63067 0.4136 0.0
H660 H 0.67847 0.62881 0.50797 0.0
H661 H 0.69314 0.57065 0.39891 0.0
C662 C 0.64999 0.56741 0.39149 0.0
C663 C 0.62465 0.57864 0.40148 0.0
C664 C 0.69586 0.62929 0.48733 0.0
C665 C 0.67147 0.60053 0.43583 0.0
C666 C 0.71896 0.64362 0.49901 0.0
C667 C 0.74162 0.64445 0.47259 0.0
C668 C 0.69577 0.61525 0.4495 0.0
C669 C 0.74046 0.63079 0.43447 0.0
C670 C 0.67353 0.57851 0.40838 0.0
C671 C 0.62335 0.59941 0.4312 0.0
N672 N 0.71788 0.61649 0.42411 0.0
N673 N 0.64655 0.60988 0.44723 0.0
H674 H 0.0882 0.02551 0.70069 0.0
H675 H 0.08686 0.87109 0.72099 0.0
H676 H 0.061 -0.00586 0.8189 0.0
H677 H 0.16003 0.91187 0.68106 0.0
H678 H 0.07153 0.91353 0.75357 0.0
H679 H 0.10793 0.98103 0.68471 0.0
C680 C 0.086 0.00909 0.72288 0.0
C681 C 0.07297 0.0132 0.76099 0.0
C682 C 0.09124 0.9128 0.73859 0.0
C683 C 0.0954 0.96293 0.74317 0.0
C684 C 0.09999 0.88875 0.72015 0.0
C685 C 0.12454 0.88825 0.69799 0.0
C686 C 0.10684 0.93633 0.73349 0.0
C687 C 0.14092 0.91152 0.69776 0.0
C688 C 0.09756 0.98401 0.71408 0.0
C689 C 0.07095 -0.00848 0.78915 0.0
N690 N 0.13139 0.93498 0.7142 0.0
N691 N 0.08188 0.967 0.77948 0.0
H692 H 0.73073 0.33622 0.90881 0.0
H693 H 0.88506 0.36543 0.9518 0.0
H694 H 0.76708 0.3144 0.02616 0.0
H695 H 0.83576 0.42043 0.87975 0.0
H696 H 0.84372 0.34297 0.97665 0.0
H697 H 0.77179 0.36213 0.89136 0.0
C698 C 0.74759 0.33643 0.93042 0.0
C699 C 0.74573 0.32318 0.96883 0.0
C700 C 0.84197 0.36033 0.95612 0.0
C701 C 0.79211 0.35284 0.94955 0.0
C702 C 0.86544 0.37325 0.9423 0.0
C703 C 0.86359 0.39481 0.91402 0.0
C704 C 0.81674 0.3686 0.94042 0.0
C705 C 0.83787 0.40405 0.90199 0.0
C706 C 0.77071 0.35153 0.92082 0.0
C707 C 0.76786 0.3244 -0.0038 0.0
N708 N 0.81532 0.39046 0.91458 0.0
N709 N 0.79027 0.33894 0.98596 0.0
H710 H 0.40607 0.98567 0.29029 0.0
H711 H 0.31917 0.07184 0.12989 0.0
H712 H 0.37572 0.95132 0.17598 0.0
H713 H 0.38544 0.10722 0.19899 0.0
H714 H 0.33086 0.02723 0.15874 0.0
H715 H 0.39063 0.03055 0.26752 0.0
C716 C 0.3962 0.98763 0.26035 0.0
C717 C 0.39226 0.96491 0.23476 0.0
C718 C 0.34255 0.04489 0.16788 0.0
C719 C 0.37406 0.01577 0.2093 0.0
C720 C 0.33574 0.07031 0.15191 0.0
C721 C 0.35147 0.0931 0.16208 0.0
C722 C 0.36485 0.04251 0.19471 0.0
C723 C 0.37293 0.09004 0.19031 0.0
C724 C 0.38742 0.01315 0.2475 0.0
C725 C 0.37937 0.96845 0.19633 0.0
N726 N 0.37904 0.06512 0.20569 0.0
N727 N 0.37048 -0.00653 0.18483 0.0
H728 H 0.2224 0.36795 0.42076 0.0
H729 H 0.31795 0.30646 0.59849 0.0
H730 H 0.20421 0.29661 0.49378 0.0
H731 H 0.33444 0.38294 0.53742 0.0
H732 H 0.27823 0.30066 0.55467 0.0
H733 H 0.26631 0.37159 0.45684 0.0
C734 C 0.22781 0.35294 0.44394 0.0
C735 C 0.20963 0.33223 0.45487 0.0
C736 C 0.29051 0.31875 0.5508 0.0
C737 C 0.25921 0.33621 0.49591 0.0
C738 C 0.31316 0.3221 0.57597 0.0
C739 C 0.32942 0.3453 0.57183 0.0
C740 C 0.28398 0.33874 0.52129 0.0
C741 C 0.32233 0.36481 0.54184 0.0
C742 C 0.25269 0.35508 0.46462 0.0
C743 C 0.21747 0.31321 0.48498 0.0
N744 N 0.30004 0.36112 0.5177 0.0
N745 N 0.24158 0.31575 0.50457 0.0
H746 H 0.84878 0.14499 0.35071 0.0
H747 H 0.86025 0.99081 0.33634 0.0
H748 H 0.78511 0.09634 0.40497 0.0
H749 H 0.87864 0.03973 0.22849 0.0
H750 H 0.83359 0.02857 0.36465 0.0
H751 H 0.86167 0.10652 0.30681 0.0
C752 C 0.83735 0.12621 0.35283 0.0
C753 C 0.8161 0.12342 0.38134 0.0
C754 C 0.84306 0.03073 0.33443 0.0
C755 C 0.8309 0.07964 0.33242 0.0
C756 C 0.85846 0.00942 0.31855 0.0
C757 C 0.87193 0.01248 0.28046 0.0
C758 C 0.84187 0.05529 0.31248 0.0
C759 C 0.86871 0.03673 0.25817 0.0
C760 C 0.84453 0.10445 0.32772 0.0
C761 C 0.80167 0.09896 0.38316 0.0
N762 N 0.85443 0.05754 0.27499 0.0
N763 N 0.80979 0.07757 0.35959 0.0
H764 H 0.16493 0.58522 0.07534 0.0
H765 H 0.25194 0.65699 0.89755 0.0
H766 H 0.15897 0.67073 0.04639 0.0
H767 H 0.27897 0.58633 0.96487 0.0
H768 H 0.20909 0.65597 0.93673 0.0
H769 H 0.19919 0.58019 0.02113 0.0
C770 C 0.17085 0.60296 0.05757 0.0
C771 C 0.15936 0.62853 0.06565 0.0
C772 C 0.22411 0.64026 0.94199 0.0
C773 C 0.19808 0.62269 0.00317 0.0
C774 C 0.24825 0.64059 0.9193 0.0
C775 C 0.26857 0.62154 0.92804 0.0
C776 C 0.22055 0.62066 0.9732 0.0
C777 C 0.26346 0.60112 0.95719 0.0
C778 C 0.19028 0.60001 0.02657 0.0
C779 C 0.16766 0.65076 0.04154 0.0
N780 N 0.23994 0.60132 0.97911 0.0
N781 N 0.1866 0.64733 0.01126 0.0
H782 H 0.59661 0.9418 0.70671 0.0
H783 H 0.69644 0.88997 0.88396 0.0
H784 H 0.61624 0.98874 0.81599 0.0
H785 H 0.63552 0.8394 0.8267 0.0
H786 H 0.68273 0.92765 0.83825 0.0
H787 H 0.62671 0.90556 0.73149 0.0
C788 C 0.60757 0.94459 0.73558 0.0
C789 C 0.60359 0.96782 0.76002 0.0
C790 C 0.67303 0.908 0.83503 0.0
C791 C 0.6383 0.92729 0.78736 0.0
C792 C 0.6808 0.88667 0.86085 0.0
C793 C 0.66663 0.86207 0.85911 0.0
C794 C 0.6515 0.90413 0.80714 0.0
C795 C 0.64649 0.85842 0.82904 0.0
C796 C 0.62475 0.92409 0.74943 0.0
C797 C 0.61835 0.97074 0.79691 0.0
N798 N 0.63931 0.87942 0.80425 0.0
N799 N 0.63504 0.95052 0.8097 0.0
H800 H 0.374 0.12534 0.92086 0.0
H801 H 0.49952 0.02907 0.88022 0.0
H802 H 0.43123 0.10411 0.01726 0.0
H803 H 0.43393 0.0412 0.79305 0.0
H804 H 0.47222 0.05074 0.9341 0.0
H805 H 0.39397 0.09108 0.8762 0.0
C806 C 0.39093 0.11357 0.93264 0.0
C807 C 0.40121 0.11792 0.97276 0.0
C808 C 0.46359 0.04812 0.90342 0.0
C809 C 0.42412 0.07821 0.9215 0.0
C810 C 0.47909 0.03558 0.87261 0.0
C811 C 0.46933 0.03405 0.83163 0.0
C812 C 0.43827 0.05928 0.89303 0.0
C813 C 0.44257 0.04244 0.82391 0.0
C814 C 0.40215 0.09373 0.90716 0.0
C815 C 0.42286 0.10164 0.98639 0.0
N816 N 0.42821 0.05526 0.8541 0.0
N817 N 0.43381 0.08264 0.9606 0.0
H818 H 0.61181 0.66204 0.26245 0.0
H819 H 0.67962 0.68094 0.03901 0.0
H820 H 0.59871 0.60988 0.1563 0.0
H821 H 0.68051 0.74337 0.13339 0.0
H822 H 0.66014 0.64953 0.0893 0.0
H823 H 0.64486 0.68808 0.22146 0.0
C824 C 0.61579 0.65612 0.2306 0.0
C825 C 0.60219 0.634 0.21261 0.0
C826 C 0.66498 0.67 0.09919 0.0
C827 C 0.64027 0.6631 0.16621 0.0
C828 C 0.6763 0.6879 0.07055 0.0
C829 C 0.68093 0.71505 0.08164 0.0
C830 C 0.65809 0.6794 0.13903 0.0
C831 C 0.67673 0.72275 0.12322 0.0
C832 C 0.63477 0.67083 0.2074 0.0
C833 C 0.60837 0.627 0.17138 0.0
N834 N 0.66495 0.70515 0.15026 0.0
N835 N 0.6269 0.64152 0.14965 0.0
H836 H 0.04022 0.94872 0.30631 0.0
H837 H 0.04781 0.88701 0.53386 0.0
H838 H 0.97251 0.94799 0.39181 0.0
H839 H 0.11499 0.88984 0.44752 0.0
H840 H 0.02206 0.91698 0.48756 0.0
H841 H 0.07028 0.93609 0.36324 0.0
C842 C 0.03174 0.94643 0.33719 0.0
C843 C 0.0037 0.94867 0.34402 0.0
C844 C 0.04258 0.91127 0.47907 0.0
C845 C 0.03788 0.93369 0.40917 0.0
C846 C 0.05722 0.8941 0.50542 0.0
C847 C 0.08331 0.8854 0.49406 0.0
C848 C 0.05419 0.91969 0.44125 0.0
C849 C 0.09468 0.89549 0.45712 0.0
C850 C 0.0489 0.93912 0.36972 0.0
C851 C -0.00607 0.94591 0.38487 0.0
N852 N 0.07995 0.91184 0.43188 0.0
N853 N 0.01092 0.93799 0.41576 0.0
H854 H 0.7916 0.2561 0.63873 0.0
H855 H 0.90053 0.374 0.66258 0.0
H856 H 0.81502 0.31067 0.53981 0.0
H857 H 0.87326 0.325 0.76596 0.0
H858 H 0.86682 0.35253 0.61867 0.0
H859 H 0.81667 0.28422 0.68786 0.0
C860 C 0.80139 0.27438 0.62744 0.0
C861 C 0.8018 0.28062 0.5848 0.0
C862 C 0.86811 0.34643 0.65095 0.0
C863 C 0.83093 0.31251 0.64082 0.0
C864 C 0.88758 0.35852 0.67607 0.0
C865 C 0.88985 0.35122 0.7181 0.0
C866 C 0.85076 0.32667 0.6677 0.0
C867 C 0.87238 0.3311 0.73367 0.0
C868 C 0.81591 0.29029 0.65554 0.0
C869 C 0.81453 0.30475 0.57221 0.0
N870 N 0.85356 0.31945 0.70839 0.0
N871 N 0.82904 0.31952 0.59998 0.0
H872 H 0.58641 0.85676 0.02429 0.0
H873 H 0.53129 0.85403 0.25717 0.0
H874 H 0.63347 0.827 0.12798 0.0
H875 H 0.48765 0.88929 0.15398 0.0
H876 H 0.5709 0.84828 0.2121 0.0
H877 H 0.55204 0.87308 0.07281 0.0
C878 C 0.58966 0.85387 0.05729 0.0
C879 C 0.61273 0.84018 0.07202 0.0
C880 C 0.55274 0.85756 0.1995 0.0
C881 C 0.57327 0.85866 0.12783 0.0
C882 C 0.53011 0.86088 0.22524 0.0
C883 C 0.50594 0.87181 0.20923 0.0
C884 C 0.55112 0.86513 0.15746 0.0
C885 C 0.50569 0.88044 0.16762 0.0
C886 C 0.57001 0.86323 0.08503 0.0
C887 C 0.61593 0.83728 0.11518 0.0
N888 N 0.52781 0.87665 0.14312 0.0
N889 N 0.59625 0.84614 0.14154 0.0
H890 H 0.40216 0.35376 0.82995 0.0
H891 H 0.30961 0.2405 0.93205 0.0
H892 H 0.34047 0.30804 0.76512 0.0
H893 H 0.36923 0.28586 0.00124 0.0
H894 H 0.31399 0.27253 0.87481 0.0
H895 H 0.38453 0.33643 0.89595 0.0
C896 C 0.38464 0.34044 0.8296 0.0
C897 C 0.37314 0.33182 0.79189 0.0
C898 C 0.32585 0.2759 0.90266 0.0
C899 C 0.35295 0.312 0.86718 0.0
C900 C 0.32327 0.25764 0.93535 0.0
C901 C 0.33934 0.26051 0.97093 0.0
C902 C 0.34523 0.29677 0.9051 0.0
C903 C 0.35658 0.28305 0.97407 0.0
C904 C 0.37459 0.33058 0.86731 0.0
C905 C 0.35035 0.31478 0.79334 0.0
N906 N 0.35956 0.30008 0.94103 0.0
N907 N 0.34124 0.30518 0.8303 0.0
H908 H 0.96929 0.08188 0.68786 0.0
H909 H 0.83763 0.17263 0.6465 0.0
H910 H 0.93936 0.14099 0.77594 0.0
H911 H 0.88364 0.13171 0.55085 0.0
H912 H 0.86818 0.15343 0.69889 0.0
H913 H 0.93072 0.09158 0.64302 0.0
C914 C 0.9544 0.09664 0.69812 0.0
C915 C 0.95788 0.11105 0.73541 0.0
C916 C 0.87137 0.1485 0.66645 0.0
C917 C 0.9137 0.12233 0.68386 0.0
C918 C 0.85396 0.15937 0.63654 0.0
C919 C 0.8583 0.15398 0.59418 0.0
C920 C 0.89303 0.13188 0.6539 0.0
C921 C 0.87974 0.13667 0.58308 0.0
C922 C 0.93241 0.10221 0.67237 0.0
C923 C 0.93763 0.1296 0.74729 0.0
N924 N 0.89635 0.12632 0.61275 0.0
N925 N 0.91654 0.135 0.72127 0.0
H926 H 0.1675 0.78796 0.41431 0.0
H927 H 0.12897 0.64332 0.32542 0.0
H928 H 0.1509 0.71783 0.49096 0.0
H929 H 0.14899 0.71228 0.24833 0.0
H930 H 0.1459 0.66777 0.38584 0.0
H931 H 0.16925 0.75859 0.35349 0.0
C932 C 0.16445 0.76633 0.41843 0.0
C933 C 0.15843 0.75539 0.45768 0.0
C934 C 0.14704 0.67743 0.35566 0.0
C935 C 0.16038 0.72167 0.38806 0.0
C936 C 0.13736 0.66348 0.32112 0.0
C937 C 0.13701 0.67607 0.282 0.0
C938 C 0.15605 0.70432 0.35113 0.0
C939 C 0.14859 0.70196 0.27804 0.0
C940 C 0.16558 0.74955 0.38366 0.0
C941 C 0.1552 0.72718 0.46123 0.0
N942 N 0.15716 0.71549 0.3124 0.0
N943 N 0.1558 0.71133 0.42672 0.0
H944 H 0.90022 0.60866 0.42869 0.0
H945 H 0.01337 0.6164 0.30842 0.0
H946 H 0.87229 0.67769 0.3579 0.0
H947 H 0.96374 0.65291 0.21287 0.0
H948 H 0.97445 0.61535 0.35416 0.0
H949 H 0.93361 0.59908 0.37479 0.0
C950 C 0.90109 0.62174 0.40162 0.0
C951 C 0.88397 0.64436 0.39812 0.0
C952 C 0.9717 0.62292 0.32288 0.0
C953 C 0.92305 0.63439 0.33736 0.0
C954 C -0.00586 0.62395 0.29683 0.0
C955 C -0.00813 0.63483 0.2567 0.0
C956 C 0.94657 0.63282 0.30891 0.0
C957 C 0.96636 0.64431 0.24357 0.0
C958 C 0.92038 0.61647 0.37109 0.0
C959 C 0.88541 0.66022 0.36194 0.0
N960 N 0.94469 0.64338 0.26987 0.0
N961 N 0.90503 0.65521 0.33314 0.0
H962 H 0.05371 0.12897 0.62472 0.0
H963 H 0.14748 0.24267 0.52121 0.0
H964 H 0.11905 0.17133 0.68636 0.0
H965 H 0.07491 0.21246 0.4622 0.0
H966 H 0.14257 0.20855 0.57532 0.0
H967 H 0.06576 0.15211 0.55968 0.0
C968 C 0.07078 0.14286 0.62448 0.0
C969 C 0.0852 0.14852 0.66115 0.0
C970 C 0.12782 0.20906 0.55038 0.0
C971 C 0.09911 0.17478 0.58704 0.0
C972 C 0.13068 0.22849 0.5194 0.0
C973 C 0.11134 0.23056 0.48764 0.0
C974 C 0.10517 0.19176 0.55014 0.0
C975 C 0.09018 0.2115 0.48634 0.0
C976 C 0.07759 0.15606 0.58739 0.0
C977 C 0.10712 0.16663 0.65904 0.0
N978 N 0.08733 0.19311 0.51773 0.0
N979 N 0.11328 0.17917 0.62273 0.0
H980 H 0.52899 0.31482 0.6979 0.0
H981 H 0.58518 0.36163 0.91779 0.0
H982 H 0.50259 0.38663 0.76353 0.0
H983 H 0.62178 0.29627 0.84798 0.0
H984 H 0.55803 0.37348 0.8574 0.0
H985 H 0.56658 0.31007 0.74758 0.0
C986 C 0.53142 0.32985 0.72221 0.0
C987 C 0.51238 0.35084 0.72715 0.0
C988 C 0.57216 0.35669 0.85496 0.0
C989 C 0.55495 0.34548 0.7839 0.0
C990 C 0.58762 0.34987 0.88957 0.0
C991 C 0.60548 0.32773 0.88803 0.0
C992 C 0.57417 0.34098 0.81863 0.0
C993 C 0.60811 0.31343 0.85047 0.0
C994 C 0.55278 0.32709 0.75059 0.0
C995 C 0.51646 0.36979 0.75908 0.0
N996 N 0.59227 0.32004 0.81734 0.0
N997 N 0.53706 0.36648 0.78644 0.0
H998 H 0.37404 0.76222 0.95981 0.0
H999 H 0.34786 0.79271 0.20022 0.0
H1000 H 0.33307 0.70726 0.04371 0.0
H1001 H 0.39208 0.84652 0.11845 0.0
H1002 H 0.33601 0.76461 0.1405 0.0
H1003 H 0.37477 0.79653 0.01477 0.0
C1004 C 0.36493 0.75745 0.98959 0.0
C1005 C 0.35384 0.73166 -0.00268 0.0
C1006 C 0.34806 0.78273 0.13555 0.0
C1007 C 0.35468 0.77078 0.06033 0.0
C1008 C 0.35481 0.79883 0.16967 0.0
C1009 C 0.37136 0.82181 0.1645 0.0
C1010 C 0.35803 0.78954 0.09597 0.0
C1011 C 0.37955 0.82882 0.12405 0.0
C1012 C 0.36538 0.77704 0.02097 0.0
C1013 C 0.34219 0.72672 0.03645 0.0
N1014 N 0.37307 0.81257 0.09142 0.0
N1015 N 0.34314 0.74598 0.06656 0.0
H1016 H 0.05363 0.40055 0.49519 0.0
H1017 H 0.04918 0.40309 0.74193 0.0
H1018 H 0.10688 0.35298 0.5732 0.0
H1019 H -0.00525 0.44788 0.66233 0.0
H1020 H 0.07765 0.39286 0.68136 0.0
H1021 H 0.03838 0.4254 0.5564 0.0
C1022 C 0.06221 0.3954 0.52516 0.0
C1023 C 0.08114 0.37427 0.52918 0.0
C1024 C 0.0598 0.40545 0.67734 0.0
C1025 C 0.06376 0.40266 0.59948 0.0
C1026 C 0.04372 0.41148 0.71195 0.0
C1027 C 0.01938 0.42585 0.70678 0.0
C1028 C 0.05132 0.41391 0.63765 0.0
C1029 C 0.01313 0.43625 0.66737 0.0
C1030 C 0.0536 0.4097 0.56012 0.0
C1031 C 0.09193 0.36885 0.56873 0.0
N1032 N 0.02875 0.42969 0.63419 0.0
N1033 N 0.08281 0.3827 0.60245 0.0
H1034 H 0.8728 0.84203 0.26734 0.0
H1035 H 0.84213 0.79637 0.49896 0.0
H1036 H 0.88841 0.89303 0.37392 0.0
H1037 H 0.81355 0.75271 0.39104 0.0
H1038 H 0.855 0.8342 0.45404 0.0
H1039 H 0.84803 0.8106 0.31215 0.0
C1040 C 0.87098 0.84665 0.30014 0.0
C1041 C 0.88298 0.87003 0.31698 0.0
C1042 C 0.8455 0.81651 0.44029 0.0
C1043 C 0.85459 0.83419 0.36843 0.0
C1044 C 0.83804 0.79492 0.46596 0.0
C1045 C 0.82725 0.77107 0.44868 0.0
C1046 C 0.84238 0.81408 0.39706 0.0
C1047 C 0.8222 0.7705 0.40573 0.0
C1048 C 0.85668 0.82879 0.32567 0.0
C1049 C 0.87968 0.87515 0.35963 0.0
N1050 N 0.83026 0.79147 0.38131 0.0
N1051 N 0.86602 0.85722 0.38396 0.0
H1052 H 0.43036 0.5703 0.978 0.0
H1053 H 0.43816 0.56713 0.22427 0.0
H1054 H 0.3701 0.60635 0.05861 0.0
H1055 H 0.50026 0.53683 0.14168 0.0
H1056 H 0.40719 0.57098 0.16484 0.0
H1057 H 0.45019 0.54752 0.03798 0.0
C1058 C 0.42111 0.5732 0.00823 0.0
C1059 C 0.399 0.59082 0.01345 0.0
C1060 C 0.42743 0.56297 0.15993 0.0
C1061 C 0.42171 0.565 0.08232 0.0
C1062 C 0.44502 0.56068 0.19383 0.0
C1063 C 0.47191 0.55233 0.18749 0.0
C1064 C 0.43698 0.55679 0.1198 0.0
C1065 C 0.47984 0.54405 0.1476 0.0
C1066 C 0.4324 0.56013 0.0425 0.0
C1067 C 0.3875 0.59336 0.05325 0.0
N1068 N 0.46258 0.54686 0.11517 0.0
N1069 N 0.3993 0.58098 0.08632 0.0
H1070 H 0.62918 0.17921 -0.00164 0.0
H1071 H 0.60013 0.13608 0.76567 0.0
H1072 H 0.6686 0.21625 0.89257 0.0
H1073 H 0.58095 0.08369 0.86928 0.0
H1074 H 0.62536 0.16567 0.8126 0.0
H1075 H 0.61263 0.14295 0.95296 0.0
C1076 C 0.63487 0.17945 0.96585 0.0
C1077 C 0.64993 0.20111 0.94918 0.0
C1078 C 0.6158 0.1476 0.82506 0.0
C1079 C 0.63061 0.16003 0.89706 0.0
C1080 C 0.6012 0.13081 0.79832 0.0
C1081 C 0.58825 0.10748 0.81362 0.0
C1082 C 0.61718 0.14126 0.86757 0.0
C1083 C 0.59057 0.10152 0.85618 0.0
C1084 C 0.6253 0.15879 0.93991 0.0
C1085 C 0.65673 0.20023 0.90679 0.0
N1086 N 0.60454 0.11846 0.88178 0.0
N1087 N 0.64663 0.18032 0.8821 0.0
H1088 H 0.25131 0.17818 0.17752 0.0
H1089 H 0.17608 0.31295 0.25395 0.0
H1090 H 0.28157 0.2595 0.15708 0.0
H1091 H 0.1525 0.23269 0.2944 0.0
H1092 H 0.21088 0.29288 0.20994 0.0
H1093 H 0.21229 0.19717 0.21432 0.0
C1094 C 0.24985 0.20003 0.18093 0.0
C1095 C 0.26984 0.21729 0.16424 0.0
C1096 C 0.19798 0.27959 0.22813 0.0
C1097 C 0.22498 0.23907 0.20586 0.0
C1098 C 0.17797 0.29102 0.25311 0.0
C1099 C 0.16158 0.27446 0.27831 0.0
C1100 C 0.20178 0.25136 0.22832 0.0
C1101 C 0.16473 0.24619 0.27554 0.0
C1102 C 0.2275 0.21082 0.20183 0.0
C1103 C 0.2668 0.2454 0.16961 0.0
N1104 N 0.18474 0.2355 0.25133 0.0
N1105 N 0.24474 0.2554 0.18985 0.0
H1106 H 0.55261 0.46898 0.39652 0.0
H1107 H 0.42306 0.392 0.48639 0.0
H1108 H 0.4694 0.49194 0.37219 0.0
H1109 H 0.50442 0.37833 0.53156 0.0
H1110 H 0.44123 0.42094 0.4317 0.0
H1111 H 0.5364 0.42954 0.43522 0.0
C1112 C 0.53091 0.46572 0.39921 0.0
C1113 C 0.51228 0.484 0.38151 0.0
C1114 C 0.4552 0.41133 0.45313 0.0
C1115 C 0.49374 0.43873 0.42531 0.0
C1116 C 0.44487 0.3947 0.4842 0.0
C1117 C 0.4623 0.38327 0.51387 0.0
C1118 C 0.48313 0.41678 0.45202 0.0
C1119 C 0.49035 0.38698 0.50936 0.0
C1120 C 0.52173 0.44313 0.42118 0.0
C1121 C 0.48447 0.47861 0.38576 0.0
N1122 N 0.49994 0.40394 0.47938 0.0
N1123 N 0.47605 0.4565 0.40738 0.0
H1124 H 0.2024 0.72732 0.64568 0.0
H1125 H 0.32628 0.74614 0.80381 0.0
H1126 H 0.22334 0.80356 0.70405 0.0
H1127 H 0.30617 0.67016 0.74413 0.0
H1128 H 0.29108 0.76855 0.76264 0.0
H1129 H 0.24148 0.70623 0.67966 0.0
C1130 C 0.21501 0.73954 0.66597 0.0
C1131 C 0.20959 0.76722 0.67203 0.0
C1132 C 0.2946 0.74702 0.75825 0.0
C1133 C 0.25451 0.74343 0.71033 0.0
C1134 C 0.31488 0.7343 0.78143 0.0
C1135 C 0.31884 0.70621 0.7778 0.0
C1136 C 0.27827 0.73146 0.73145 0.0
C1137 C 0.30347 0.69182 0.74838 0.0
C1138 C 0.23746 0.72758 0.68502 0.0
C1139 C 0.22676 0.78215 0.69837 0.0
N1140 N 0.28363 0.70454 0.72669 0.0
N1141 N 0.24846 0.77008 0.71648 0.0
H1142 H 0.98834 0.60095 0.05675 0.0
H1143 H 0.02085 0.48578 0.88936 0.0
H1144 H 0.0688 0.57662 0.01844 0.0
H1145 H 0.93916 0.50802 0.92496 0.0
H1146 H 0.0382 0.52305 0.93108 0.0
H1147 H 0.9692 0.57163 0.00231 0.0
C1148 C 0.00192 0.58984 0.03641 0.0
C1149 C 0.0301 0.59072 0.04243 0.0
C1150 C 0.01645 0.5199 0.9297 0.0
C1151 C 0.00861 0.55732 0.98083 0.0
C1152 C 0.00654 0.49849 0.906 0.0
C1153 C 0.97854 0.49356 0.90409 0.0
C1154 C -0.00171 0.5364 0.95202 0.0
C1155 C 0.96094 0.51098 0.92584 0.0
C1156 C 0.99105 0.57305 0.00558 0.0
C1157 C 0.0469 0.57605 0.01534 0.0
N1158 N 0.97113 0.53153 0.94926 0.0
N1159 N 0.03589 0.55978 0.98601 0.0
H1160 H 0.71069 0.70736 0.85184 0.0
H1161 H 0.8184 0.74769 0.67587 0.0
H1162 H 0.76915 0.77223 0.86479 0.0
H1163 H 0.75827 0.68432 0.66273 0.0
H1164 H 0.80249 0.75544 0.74698 0.0
H1165 H 0.73143 0.69526 0.78533 0.0
C1166 C 0.72825 0.71865 0.84117 0.0
C1167 C 0.73795 0.74107 0.86349 0.0
C1168 C 0.7928 0.73986 0.72843 0.0
C1169 C 0.76133 0.72784 0.78723 0.0
C1170 C 0.8017 0.73564 0.68774 0.0
C1171 C 0.78965 0.71537 0.66332 0.0
C1172 C 0.77173 0.72371 0.74464 0.0
C1173 C 0.76823 0.70015 0.68043 0.0
C1174 C 0.73991 0.71195 0.803 0.0
C1175 C 0.76075 0.75504 0.84819 0.0
N1176 N 0.76001 0.7046 0.72001 0.0
N1177 N 0.77145 0.74842 0.81074 0.0
H1178 H 0.66438 0.2301 0.17626 0.0
H1179 H 0.76718 0.27906 0.35404 0.0
H1180 H 0.72373 0.29401 0.16093 0.0
H1181 H 0.71157 0.21186 0.36843 0.0
H1182 H 0.7475 0.28827 0.28573 0.0
H1183 H 0.67919 0.22475 0.24848 0.0
C1184 C 0.68069 0.24276 0.18788 0.0
C1185 C 0.69281 0.2625 0.16251 0.0
C1186 C 0.7394 0.27169 0.30407 0.0
C1187 C 0.70945 0.25692 0.24503 0.0
C1188 C 0.75044 0.26665 0.34325 0.0
C1189 C 0.74126 0.24445 0.36661 0.0
C1190 C 0.71911 0.25439 0.28834 0.0
C1191 C 0.71954 0.22895 0.35109 0.0
C1192 C 0.68896 0.23991 0.22918 0.0
C1193 C 0.7137 0.27856 0.17933 0.0
N1194 N 0.70942 0.23401 0.31271 0.0
N1195 N 0.72128 0.27545 0.21949 0.0
H1196 H 0.97875 0.09591 0.94779 0.0
H1197 H 0.02085 -0.00615 0.1297 0.0
H1198 H 0.05802 0.05906 0.95997 0.0
H1199 H 0.94145 0.0306 0.11894 0.0
H1200 H 0.0368 0.02289 0.0731 0.0
H1201 H 0.9663 0.07691 0.01558 0.0
C1202 C -0.00645 0.08401 0.96477 0.0
C1203 C 0.01925 0.07868 0.94786 0.0
C1204 C 0.01595 0.02479 0.08347 0.0
C1205 C 0.0053 0.05703 0.02518 0.0
C1206 C 0.00689 0.00827 0.11587 0.0
C1207 C 0.97967 0.00941 0.12851 0.0
C1208 C -0.00239 0.04244 0.06358 0.0
C1209 C 0.9625 0.02863 0.10967 0.0
C1210 C 0.98649 0.07321 0.00346 0.0
C1211 C 0.03777 0.06333 0.97139 0.0
N1212 N 0.97167 0.04414 0.07781 0.0
N1213 N 0.03035 0.05289 0.00862 0.0
H1214 H 0.45379 0.98808 0.61476 0.0
H1215 H 0.49386 0.88826 0.42787 0.0
H1216 H 0.53392 0.9539 0.59843 0.0
H1217 H 0.41776 0.93163 0.43722 0.0
H1218 H 0.50708 0.90692 0.49558 0.0
H1219 H 0.43799 0.96128 0.55559 0.0
C1220 C 0.46795 0.97466 0.59916 0.0
C1221 C 0.49529 0.97357 0.61111 0.0
C1222 C 0.48745 0.9122 0.48274 0.0
C1223 C 0.4775 0.94313 0.54323 0.0
C1224 C 0.47996 0.90163 0.4441 0.0
C1225 C 0.45484 0.90864 0.42658 0.0
C1226 C 0.46961 0.92973 0.50394 0.0
C1227 C 0.4375 0.92589 0.44916 0.0
C1228 C 0.45898 0.95948 0.56524 0.0
C1229 C 0.51274 0.95572 0.58984 0.0
N1230 N 0.44524 0.93587 0.48652 0.0
N1231 N 0.50362 0.94141 0.55667 0.0
loop_
_geom_bond_atom_site_label_1
_geom_bond_atom_site_label_2
_geom_bond_distance
_geom_bond_site_symmetry_2
_ccdc_geom_bond_type
O0 Zn1 1.953 . S
O0 C16 1.225 . S
Zn1 O0 1.953 . S
Zn1 O2 1.949 1_556 S
Zn1 O8 1.919 . S
Zn1 O13 1.924 . S
O2 Zn1 1.949 1_554 S
O2 Zn3 1.923 . S
O2 Zn4 1.950 . S
O2 Zn5 1.945 . S
Zn3 O2 1.923 . S
Zn3 O6 1.933 . S
Zn3 O9 1.941 . S
Zn3 O10 1.965 . S
Zn4 O2 1.950 . S
Zn4 O11 1.938 . S
Zn4 O12 1.906 . S
Zn4 O22 1.953 . S
Zn5 O2 1.945 . S
Zn5 O7 1.932 . S
Zn5 O14 1.977 . S
Zn5 O15 1.910 . S
O6 Zn3 1.933 . S
O6 C17 1.226 . S
O7 Zn5 1.932 . S
O7 C17 1.307 . S
O8 Zn1 1.919 . S
O8 C19 1.253 . S
O9 Zn3 1.941 . S
O9 C19 1.283 1_554 S
O10 Zn3 1.965 . S
O10 C18 1.303 . S
O11 Zn4 1.938 . S
O11 C18 1.247 . S
O12 Zn4 1.906 . S
O12 C20 1.304 . S
O13 Zn1 1.924 . S
O13 C21 1.311 . S
O14 Zn5 1.977 . S
O14 C20 1.272 . S
O15 Zn5 1.910 . S
O15 C21 1.231 1_554 S
C16 O0 1.225 . S
C16 O22 1.298 1_556 S
C17 O6 1.226 . S
C17 O7 1.307 . S
C18 O10 1.303 . S
C18 O11 1.247 . S
C19 O8 1.253 . S
C19 O9 1.283 1_556 S
C20 O12 1.304 . S
C20 O14 1.272 . S
C21 O13 1.311 . S
C21 O15 1.231 1_556 S
O22 Zn4 1.953 . S
O22 C16 1.298 1_554 S
O23 Zn24 1.953 . S
O23 C39 1.225 . S
Zn24 O23 1.953 . S
Zn24 O25 1.949 . S
Zn24 O31 1.919 . S
Zn24 O36 1.924 . S
O25 Zn24 1.949 . S
O25 Zn26 1.923 . S
O25 Zn27 1.950 . S
O25 Zn28 1.945 . S
Zn26 O25 1.923 . S
Zn26 O29 1.933 . S
Zn26 O32 1.941 . S
Zn26 O33 1.965 . S
Zn27 O25 1.950 . S
Zn27 O34 1.938 . S
Zn27 O35 1.906 . S
Zn27 O45 1.953 . S
Zn28 O25 1.945 . S
Zn28 O30 1.932 . S
Zn28 O37 1.977 . S
Zn28 O38 1.910 . S
O29 Zn26 1.933 . S
O29 C40 1.226 . S
O30 Zn28 1.932 . S
O30 C40 1.307 . S
O31 Zn24 1.919 . S
O31 C42 1.253 . S
O32 Zn26 1.941 . S
O32 C42 1.283 . S
O33 Zn26 1.965 . S
O33 C41 1.303 . S
O34 Zn27 1.938 . S
O34 C41 1.247 . S
O35 Zn27 1.906 . S
O35 C43 1.304 . S
O36 Zn24 1.924 . S
O36 C44 1.311 . S
O37 Zn28 1.977 . S
O37 C43 1.272 . S
O38 Zn28 1.910 . S
O38 C44 1.231 . S
C39 O23 1.225 . S
C39 O45 1.298 . S
C40 O29 1.226 . S
C40 O30 1.307 . S
C41 O33 1.303 . S
C41 O34 1.247 . S
C42 O31 1.253 . S
C42 O32 1.283 . S
C43 O35 1.304 . S
C43 O37 1.272 . S
C44 O36 1.311 . S
C44 O38 1.231 . S
O45 Zn27 1.953 . S
O45 C39 1.298 . S
O46 Zn47 1.953 . S
O46 C62 1.225 . S
Zn47 O46 1.953 . S
Zn47 O48 1.949 . S
Zn47 O54 1.919 . S
Zn47 O59 1.924 . S
O48 Zn47 1.949 . S
O48 Zn49 1.923 . S
O48 Zn50 1.950 . S
O48 Zn51 1.945 . S
Zn49 O48 1.923 . S
Zn49 O52 1.933 . S
Zn49 O55 1.941 . S
Zn49 O56 1.965 . S
Zn50 O48 1.950 . S
Zn50 O57 1.938 . S
Zn50 O58 1.906 . S
Zn50 O68 1.953 . S
Zn51 O48 1.945 . S
Zn51 O53 1.932 . S
Zn51 O60 1.977 . S
Zn51 O61 1.910 . S
O52 Zn49 1.933 . S
O52 C63 1.226 . S
O53 Zn51 1.932 . S
O53 C63 1.307 . S
O54 Zn47 1.919 . S
O54 C65 1.253 . S
O55 Zn49 1.941 . S
O55 C65 1.283 . S
O56 Zn49 1.965 . S
O56 C64 1.303 . S
O57 Zn50 1.938 . S
O57 C64 1.247 . S
O58 Zn50 1.906 . S
O58 C66 1.304 . S
O59 Zn47 1.924 . S
O59 C67 1.311 . S
O60 Zn51 1.977 . S
O60 C66 1.272 . S
O61 Zn51 1.910 . S
O61 C67 1.231 . S
C62 O46 1.225 . S
C62 O68 1.298 . S
C63 O52 1.226 . S
C63 O53 1.307 . S
C64 O56 1.303 . S
C64 O57 1.247 . S
C65 O54 1.253 . S
C65 O55 1.283 . S
C66 O58 1.304 . S
C66 O60 1.272 . S
C67 O59 1.311 . S
C67 O61 1.231 . S
O68 Zn50 1.953 . S
O68 C62 1.298 . S
O69 Zn70 1.953 . S
O69 C85 1.225 . S
Zn70 O69 1.953 . S
Zn70 O71 1.949 . S
Zn70 O77 1.919 . S
Zn70 O82 1.924 . S
O71 Zn70 1.949 . S
O71 Zn72 1.923 . S
O71 Zn73 1.950 . S
O71 Zn74 1.945 . S
Zn72 O71 1.923 . S
Zn72 O75 1.933 . S
Zn72 O78 1.941 . S
Zn72 O79 1.965 . S
Zn73 O71 1.950 . S
Zn73 O80 1.938 . S
Zn73 O81 1.906 . S
Zn73 O91 1.953 . S
Zn74 O71 1.945 . S
Zn74 O76 1.932 . S
Zn74 O83 1.977 . S
Zn74 O84 1.910 . S
O75 Zn72 1.933 . S
O75 C86 1.226 . S
O76 Zn74 1.932 . S
O76 C86 1.307 . S
O77 Zn70 1.919 . S
O77 C88 1.253 . S
O78 Zn72 1.941 . S
O78 C88 1.283 . S
O79 Zn72 1.965 . S
O79 C87 1.303 . S
O80 Zn73 1.938 . S
O80 C87 1.247 . S
O81 Zn73 1.906 . S
O81 C89 1.304 . S
O82 Zn70 1.924 . S
O82 C90 1.311 . S
O83 Zn74 1.977 . S
O83 C89 1.272 . S
O84 Zn74 1.910 . S
O84 C90 1.231 . S
C85 O69 1.225 . S
C85 O91 1.298 . S
C86 O75 1.226 . S
C86 O76 1.307 . S
C87 O79 1.303 . S
C87 O80 1.247 . S
C88 O77 1.253 . S
C88 O78 1.283 . S
C89 O81 1.304 . S
C89 O83 1.272 . S
C90 O82 1.311 . S
C90 O84 1.231 . S
O91 Zn73 1.953 . S
O91 C85 1.298 . S
O92 Zn93 1.953 . S
O92 C108 1.225 . S
Zn93 O92 1.953 . S
Zn93 O94 1.949 1_554 S
Zn93 O100 1.919 . S
Zn93 O105 1.924 . S
O94 Zn93 1.949 1_556 S
O94 Zn95 1.923 . S
O94 Zn96 1.950 . S
O94 Zn97 1.945 . S
Zn95 O94 1.923 . S
Zn95 O98 1.933 . S
Zn95 O101 1.941 . S
Zn95 O102 1.965 . S
Zn96 O94 1.950 . S
Zn96 O103 1.938 . S
Zn96 O104 1.906 . S
Zn96 O114 1.953 . S
Zn97 O94 1.945 . S
Zn97 O99 1.932 . S
Zn97 O106 1.977 . S
Zn97 O107 1.910 . S
O98 Zn95 1.933 . S
O98 C109 1.226 . S
O99 Zn97 1.932 . S
O99 C109 1.307 . S
O100 Zn93 1.919 . S
O100 C111 1.253 . S
O101 Zn95 1.941 . S
O101 C111 1.283 1_556 S
O102 Zn95 1.965 . S
O102 C110 1.303 . S
O103 Zn96 1.938 . S
O103 C110 1.247 . S
O104 Zn96 1.906 . S
O104 C112 1.304 . S
O105 Zn93 1.924 . S
O105 C113 1.311 . S
O106 Zn97 1.977 . S
O106 C112 1.272 . S
O107 Zn97 1.910 . S
O107 C113 1.231 1_556 S
C108 O92 1.225 . S
C108 O114 1.298 1_554 S
C109 O98 1.226 . S
C109 O99 1.307 . S
C110 O102 1.303 . S
C110 O103 1.247 . S
C111 O100 1.253 . S
C111 O101 1.283 1_554 S
C112 O104 1.304 . S
C112 O106 1.272 . S
C113 O105 1.311 . S
C113 O107 1.231 1_554 S
O114 Zn96 1.953 . S
O114 C108 1.298 1_556 S
O115 Zn116 1.953 . S
O115 C131 1.225 . S
Zn116 O115 1.953 . S
Zn116 O117 1.949 . S
Zn116 O123 1.919 . S
Zn116 O128 1.924 . S
O117 Zn116 1.949 . S
O117 Zn118 1.923 . S
O117 Zn119 1.950 . S
O117 Zn120 1.945 . S
Zn118 O117 1.923 . S
Zn118 O121 1.933 . S
Zn118 O124 1.941 . S
Zn118 O125 1.965 . S
Zn119 O117 1.950 . S
Zn119 O126 1.938 . S
Zn119 O127 1.906 . S
Zn119 O137 1.953 . S
Zn120 O117 1.945 . S
Zn120 O122 1.932 . S
Zn120 O129 1.977 . S
Zn120 O130 1.910 . S
O121 Zn118 1.933 . S
O121 C132 1.226 . S
O122 Zn120 1.932 . S
O122 C132 1.307 . S
O123 Zn116 1.919 . S
O123 C134 1.253 . S
O124 Zn118 1.941 . S
O124 C134 1.283 . S
O125 Zn118 1.965 . S
O125 C133 1.303 . S
O126 Zn119 1.938 . S
O126 C133 1.247 . S
O127 Zn119 1.906 . S
O127 C135 1.304 . S
O128 Zn116 1.924 . S
O128 C136 1.311 . S
O129 Zn120 1.977 . S
O129 C135 1.272 . S
O130 Zn120 1.910 . S
O130 C136 1.231 . S
C131 O115 1.225 . S
C131 O137 1.298 . S
C132 O121 1.226 . S
C132 O122 1.307 . S
C133 O125 1.303 . S
C133 O126 1.247 . S
C134 O123 1.253 . S
C134 O124 1.283 . S
C135 O127 1.304 . S
C135 O129 1.272 . S
C136 O128 1.311 . S
C136 O130 1.231 . S
O137 Zn119 1.953 . S
O137 C131 1.298 . S
O138 Zn139 1.953 . S
O138 C154 1.225 . S
Zn139 O138 1.953 . S
Zn139 O140 1.949 . S
Zn139 O146 1.919 . S
Zn139 O151 1.924 . S
O140 Zn139 1.949 . S
O140 Zn141 1.923 . S
O140 Zn142 1.950 . S
O140 Zn143 1.945 . S
Zn141 O140 1.923 . S
Zn141 O144 1.933 . S
Zn141 O147 1.941 . S
Zn141 O148 1.965 . S
Zn142 O140 1.950 . S
Zn142 O149 1.938 . S
Zn142 O150 1.906 . S
Zn142 O160 1.953 . S
Zn143 O140 1.945 . S
Zn143 O145 1.932 . S
Zn143 O152 1.977 . S
Zn143 O153 1.910 . S
O144 Zn141 1.933 . S
O144 C155 1.226 . S
O145 Zn143 1.932 . S
O145 C155 1.307 . S
O146 Zn139 1.919 . S
O146 C157 1.253 . S
O147 Zn141 1.941 . S
O147 C157 1.283 . S
O148 Zn141 1.965 . S
O148 C156 1.303 . S
O149 Zn142 1.938 . S
O149 C156 1.247 . S
O150 Zn142 1.906 . S
O150 C158 1.304 . S
O151 Zn139 1.924 . S
O151 C159 1.311 . S
O152 Zn143 1.977 . S
O152 C158 1.272 . S
O153 Zn143 1.910 . S
O153 C159 1.231 . S
C154 O138 1.225 . S
C154 O160 1.298 . S
C155 O144 1.226 . S
C155 O145 1.307 . S
C156 O148 1.303 . S
C156 O149 1.247 . S
C157 O146 1.253 . S
C157 O147 1.283 . S
C158 O150 1.304 . S
C158 O152 1.272 . S
C159 O151 1.311 . S
C159 O153 1.231 . S
O160 Zn142 1.953 . S
O160 C154 1.298 . S
O161 Zn162 1.953 . S
O161 C177 1.225 . S
Zn162 O161 1.953 . S
Zn162 O163 1.949 . S
Zn162 O169 1.919 . S
Zn162 O174 1.924 . S
O163 Zn162 1.949 . S
O163 Zn164 1.923 . S
O163 Zn165 1.950 . S
O163 Zn166 1.945 . S
Zn164 O163 1.923 . S
Zn164 O167 1.933 . S
Zn164 O170 1.941 . S
Zn164 O171 1.965 . S
Zn165 O163 1.950 . S
Zn165 O172 1.938 . S
Zn165 O173 1.906 . S
Zn165 O183 1.953 . S
Zn166 O163 1.945 . S
Zn166 O168 1.932 . S
Zn166 O175 1.977 . S
Zn166 O176 1.910 . S
O167 Zn164 1.933 . S
O167 C178 1.226 . S
O168 Zn166 1.932 . S
O168 C178 1.307 . S
O169 Zn162 1.919 . S
O169 C180 1.253 . S
O170 Zn164 1.941 . S
O170 C180 1.283 . S
O171 Zn164 1.965 . S
O171 C179 1.303 . S
O172 Zn165 1.938 . S
O172 C179 1.247 . S
O173 Zn165 1.906 . S
O173 C181 1.304 . S
O174 Zn162 1.924 . S
O174 C182 1.311 . S
O175 Zn166 1.977 . S
O175 C181 1.272 . S
O176 Zn166 1.910 . S
O176 C182 1.231 . S
C177 O161 1.225 . S
C177 O183 1.298 . S
C178 O167 1.226 . S
C178 O168 1.307 . S
C179 O171 1.303 . S
C179 O172 1.247 . S
C180 O169 1.253 . S
C180 O170 1.283 . S
C181 O173 1.304 . S
C181 O175 1.272 . S
C182 O174 1.311 . S
C182 O176 1.231 . S
O183 Zn165 1.953 . S
O183 C177 1.298 . S
O184 Zn185 1.953 . S
O184 C200 1.225 . S
Zn185 O184 1.953 . S
Zn185 O186 1.949 . S
Zn185 O192 1.919 . S
Zn185 O197 1.924 . S
O186 Zn185 1.949 . S
O186 Zn187 1.923 . S
O186 Zn188 1.950 . S
O186 Zn189 1.945 . S
Zn187 O186 1.923 . S
Zn187 O190 1.933 . S
Zn187 O193 1.941 . S
Zn187 O194 1.965 . S
Zn188 O186 1.950 . S
Zn188 O195 1.938 . S
Zn188 O196 1.906 . S
Zn188 O206 1.953 . S
Zn189 O186 1.945 . S
Zn189 O191 1.932 . S
Zn189 O198 1.977 . S
Zn189 O199 1.910 . S
O190 Zn187 1.933 . S
O190 C201 1.226 . S
O191 Zn189 1.932 . S
O191 C201 1.307 . S
O192 Zn185 1.919 . S
O192 C203 1.253 . S
O193 Zn187 1.941 . S
O193 C203 1.283 . S
O194 Zn187 1.965 . S
O194 C202 1.303 . S
O195 Zn188 1.938 . S
O195 C202 1.247 . S
O196 Zn188 1.906 . S
O196 C204 1.304 . S
O197 Zn185 1.924 . S
O197 C205 1.311 . S
O198 Zn189 1.977 . S
O198 C204 1.272 . S
O199 Zn189 1.910 . S
O199 C205 1.231 . S
C200 O184 1.225 . S
C200 O206 1.298 . S
C201 O190 1.226 . S
C201 O191 1.307 . S
C202 O194 1.303 . S
C202 O195 1.247 . S
C203 O192 1.253 . S
C203 O193 1.283 . S
C204 O196 1.304 . S
C204 O198 1.272 . S
C205 O197 1.311 . S
C205 O199 1.231 . S
O206 Zn188 1.953 . S
O206 C200 1.298 . S
O207 Zn208 1.953 . S
O207 C223 1.225 . S
Zn208 O207 1.953 . S
Zn208 O209 1.949 . S
Zn208 O215 1.919 . S
Zn208 O220 1.924 . S
O209 Zn208 1.949 . S
O209 Zn210 1.923 . S
O209 Zn211 1.950 . S
O209 Zn212 1.945 . S
Zn210 O209 1.923 . S
Zn210 O213 1.933 . S
Zn210 O216 1.941 . S
Zn210 O217 1.965 . S
Zn211 O209 1.950 . S
Zn211 O218 1.938 . S
Zn211 O219 1.906 . S
Zn211 O229 1.953 . S
Zn212 O209 1.945 . S
Zn212 O214 1.932 . S
Zn212 O221 1.977 . S
Zn212 O222 1.910 . S
O213 Zn210 1.933 . S
O213 C224 1.226 . S
O214 Zn212 1.932 . S
O214 C224 1.307 . S
O215 Zn208 1.919 . S
O215 C226 1.253 . S
O216 Zn210 1.941 . S
O216 C226 1.283 . S
O217 Zn210 1.965 . S
O217 C225 1.303 . S
O218 Zn211 1.938 . S
O218 C225 1.247 . S
O219 Zn211 1.906 . S
O219 C227 1.304 . S
O220 Zn208 1.924 . S
O220 C228 1.311 . S
O221 Zn212 1.977 . S
O221 C227 1.272 . S
O222 Zn212 1.910 . S
O222 C228 1.231 . S
C223 O207 1.225 . S
C223 O229 1.298 . S
C224 O213 1.226 . S
C224 O214 1.307 . S
C225 O217 1.303 . S
C225 O218 1.247 . S
C226 O215 1.253 . S
C226 O216 1.283 . S
C227 O219 1.304 . S
C227 O221 1.272 . S
C228 O220 1.311 . S
C228 O222 1.231 . S
O229 Zn211 1.953 . S
O229 C223 1.298 . S
O230 Zn231 1.953 . S
O230 C246 1.225 . S
Zn231 O230 1.953 . S
Zn231 O232 1.949 1_556 S
Zn231 O238 1.919 . S
Zn231 O243 1.924 . S
O232 Zn231 1.949 1_554 S
O232 Zn233 1.923 . S
O232 Zn234 1.950 . S
O232 Zn235 1.945 . S
Zn233 O232 1.923 . S
Zn233 O236 1.933 . S
Zn233 O239 1.941 . S
Zn233 O240 1.965 . S
Zn234 O232 1.950 . S
Zn234 O241 1.938 . S
Zn234 O242 1.906 . S
Zn234 O252 1.953 . S
Zn235 O232 1.945 . S
Zn235 O237 1.932 . S
Zn235 O244 1.977 . S
Zn235 O245 1.910 . S
O236 Zn233 1.933 . S
O236 C247 1.226 . S
O237 Zn235 1.932 . S
O237 C247 1.307 . S
O238 Zn231 1.919 . S
O238 C249 1.253 . S
O239 Zn233 1.941 . S
O239 C249 1.283 1_554 S
O240 Zn233 1.965 . S
O240 C248 1.303 . S
O241 Zn234 1.938 . S
O241 C248 1.247 . S
O242 Zn234 1.906 . S
O242 C250 1.304 . S
O243 Zn231 1.924 . S
O243 C251 1.311 . S
O244 Zn235 1.977 . S
O244 C250 1.272 . S
O245 Zn235 1.910 . S
O245 C251 1.231 1_554 S
C246 O230 1.225 . S
C246 O252 1.298 1_556 S
C247 O236 1.226 . S
C247 O237 1.307 . S
C248 O240 1.303 . S
C248 O241 1.247 . S
C249 O238 1.253 . S
C249 O239 1.283 1_556 S
C250 O242 1.304 . S
C250 O244 1.272 . S
C251 O243 1.311 . S
C251 O245 1.231 1_556 S
O252 Zn234 1.953 . S
O252 C246 1.298 1_554 S
O253 Zn254 1.953 . S
O253 C269 1.225 . S
Zn254 O253 1.953 . S
Zn254 O255 1.949 . S
Zn254 O261 1.919 . S
Zn254 O266 1.924 . S
O255 Zn254 1.949 . S
O255 Zn256 1.923 . S
O255 Zn257 1.950 . S
O255 Zn258 1.945 . S
Zn256 O255 1.923 . S
Zn256 O259 1.933 . S
Zn256 O262 1.941 . S
Zn256 O263 1.965 . S
Zn257 O255 1.950 . S
Zn257 O264 1.938 . S
Zn257 O265 1.906 . S
Zn257 O275 1.953 . S
Zn258 O255 1.945 . S
Zn258 O260 1.932 . S
Zn258 O267 1.977 . S
Zn258 O268 1.910 . S
O259 Zn256 1.933 . S
O259 C270 1.226 . S
O260 Zn258 1.932 . S
O260 C270 1.307 . S
O261 Zn254 1.919 . S
O261 C272 1.253 . S
O262 Zn256 1.941 . S
O262 C272 1.283 . S
O263 Zn256 1.965 . S
O263 C271 1.303 . S
O264 Zn257 1.938 . S
O264 C271 1.247 . S
O265 Zn257 1.906 . S
O265 C273 1.304 . S
O266 Zn254 1.924 . S
O266 C274 1.311 . S
O267 Zn258 1.977 . S
O267 C273 1.272 . S
O268 Zn258 1.910 . S
O268 C274 1.231 . S
C269 O253 1.225 . S
C269 O275 1.298 . S
C270 O259 1.226 . S
C270 O260 1.307 . S
C271 O263 1.303 . S
C271 O264 1.247 . S
C272 O261 1.253 . S
C272 O262 1.283 . S
C273 O265 1.304 . S
C273 O267 1.272 . S
C274 O266 1.311 . S
C274 O268 1.231 . S
O275 Zn257 1.953 . S
O275 C269 1.298 . S
O276 Zn277 1.953 . S
O276 C292 1.225 . S
Zn277 O276 1.953 . S
Zn277 O278 1.949 . S
Zn277 O284 1.919 . S
Zn277 O289 1.924 . S
O278 Zn277 1.949 . S
O278 Zn279 1.923 . S
O278 Zn280 1.950 . S
O278 Zn281 1.945 . S
Zn279 O278 1.923 . S
Zn279 O282 1.933 . S
Zn279 O285 1.941 . S
Zn279 O286 1.965 . S
Zn280 O278 1.950 . S
Zn280 O287 1.938 . S
Zn280 O288 1.906 . S
Zn280 O298 1.953 . S
Zn281 O278 1.945 . S
Zn281 O283 1.932 . S
Zn281 O290 1.977 . S
Zn281 O291 1.910 . S
O282 Zn279 1.933 . S
O282 C293 1.226 . S
O283 Zn281 1.932 . S
O283 C293 1.307 . S
O284 Zn277 1.919 . S
O284 C295 1.253 . S
O285 Zn279 1.941 . S
O285 C295 1.283 . S
O286 Zn279 1.965 . S
O286 C294 1.303 . S
O287 Zn280 1.938 . S
O287 C294 1.247 . S
O288 Zn280 1.906 . S
O288 C296 1.304 . S
O289 Zn277 1.924 . S
O289 C297 1.311 . S
O290 Zn281 1.977 . S
O290 C296 1.272 . S
O291 Zn281 1.910 . S
O291 C297 1.231 . S
C292 O276 1.225 . S
C292 O298 1.298 . S
C293 O282 1.226 . S
C293 O283 1.307 . S
C294 O286 1.303 . S
C294 O287 1.247 . S
C295 O284 1.253 . S
C295 O285 1.283 . S
C296 O288 1.304 . S
C296 O290 1.272 . S
C297 O289 1.311 . S
C297 O291 1.231 . S
O298 Zn280 1.953 . S
O298 C292 1.298 . S
O299 Zn300 1.953 . S
O299 C315 1.225 . S
Zn300 O299 1.953 . S
Zn300 O301 1.949 . S
Zn300 O307 1.919 . S
Zn300 O312 1.924 . S
O301 Zn300 1.949 . S
O301 Zn302 1.923 . S
O301 Zn303 1.950 . S
O301 Zn304 1.945 . S
Zn302 O301 1.923 . S
Zn302 O305 1.933 . S
Zn302 O308 1.941 . S
Zn302 O309 1.965 . S
Zn303 O301 1.950 . S
Zn303 O310 1.938 . S
Zn303 O311 1.906 . S
Zn303 O321 1.953 . S
Zn304 O301 1.945 . S
Zn304 O306 1.932 . S
Zn304 O313 1.977 . S
Zn304 O314 1.910 . S
O305 Zn302 1.933 . S
O305 C316 1.226 . S
O306 Zn304 1.932 . S
O306 C316 1.307 . S
O307 Zn300 1.919 . S
O307 C318 1.253 . S
O308 Zn302 1.941 . S
O308 C318 1.283 . S
O309 Zn302 1.965 . S
O309 C317 1.303 . S
O310 Zn303 1.938 . S
O310 C317 1.247 . S
O311 Zn303 1.906 . S
O311 C319 1.304 . S
O312 Zn300 1.924 . S
O312 C320 1.311 . S
O313 Zn304 1.977 . S
O313 C319 1.272 . S
O314 Zn304 1.910 . S
O314 C320 1.231 . S
C315 O299 1.225 . S
C315 O321 1.298 . S
C316 O305 1.226 . S
C316 O306 1.307 . S
C317 O309 1.303 . S
C317 O310 1.247 . S
C318 O307 1.253 . S
C318 O308 1.283 . S
C319 O311 1.304 . S
C319 O313 1.272 . S
C320 O312 1.311 . S
C320 O314 1.231 . S
O321 Zn303 1.953 . S
O321 C315 1.298 . S
O322 Zn323 1.953 . S
O322 C338 1.225 . S
Zn323 O322 1.953 . S
Zn323 O324 1.949 1_554 S
Zn323 O330 1.919 . S
Zn323 O335 1.924 . S
O324 Zn323 1.949 1_556 S
O324 Zn325 1.923 . S
O324 Zn326 1.950 . S
O324 Zn327 1.945 . S
Zn325 O324 1.923 . S
Zn325 O328 1.933 . S
Zn325 O331 1.941 . S
Zn325 O332 1.965 . S
Zn326 O324 1.950 . S
Zn326 O333 1.938 . S
Zn326 O334 1.906 . S
Zn326 O344 1.953 . S
Zn327 O324 1.945 . S
Zn327 O329 1.932 . S
Zn327 O336 1.977 . S
Zn327 O337 1.910 . S
O328 Zn325 1.933 . S
O328 C339 1.226 . S
O329 Zn327 1.932 . S
O329 C339 1.307 . S
O330 Zn323 1.919 . S
O330 C341 1.253 . S
O331 Zn325 1.941 . S
O331 C341 1.283 1_556 S
O332 Zn325 1.965 . S
O332 C340 1.303 . S
O333 Zn326 1.938 . S
O333 C340 1.247 . S
O334 Zn326 1.906 . S
O334 C342 1.304 . S
O335 Zn323 1.924 . S
O335 C343 1.311 . S
O336 Zn327 1.977 . S
O336 C342 1.272 . S
O337 Zn327 1.910 . S
O337 C343 1.231 1_556 S
C338 O322 1.225 . S
C338 O344 1.298 1_554 S
C339 O328 1.226 . S
C339 O329 1.307 . S
C340 O332 1.303 . S
C340 O333 1.247 . S
C341 O330 1.253 . S
C341 O331 1.283 1_554 S
C342 O334 1.304 . S
C342 O336 1.272 . S
C343 O335 1.311 . S
C343 O337 1.231 1_554 S
O344 Zn326 1.953 . S
O344 C338 1.298 1_556 S
O345 Zn346 1.953 . S
O345 C361 1.225 . S
Zn346 O345 1.953 . S
Zn346 O347 1.949 . S
Zn346 O353 1.919 . S
Zn346 O358 1.924 . S
O347 Zn346 1.949 . S
O347 Zn348 1.923 . S
O347 Zn349 1.950 . S
O347 Zn350 1.945 . S
Zn348 O347 1.923 . S
Zn348 O351 1.933 . S
Zn348 O354 1.941 . S
Zn348 O355 1.965 . S
Zn349 O347 1.950 . S
Zn349 O356 1.938 . S
Zn349 O357 1.906 . S
Zn349 O367 1.953 . S
Zn350 O347 1.945 . S
Zn350 O352 1.932 . S
Zn350 O359 1.977 . S
Zn350 O360 1.910 . S
O351 Zn348 1.933 . S
O351 C362 1.226 . S
O352 Zn350 1.932 . S
O352 C362 1.307 . S
O353 Zn346 1.919 . S
O353 C364 1.253 . S
O354 Zn348 1.941 . S
O354 C364 1.283 . S
O355 Zn348 1.965 . S
O355 C363 1.303 . S
O356 Zn349 1.938 . S
O356 C363 1.247 . S
O357 Zn349 1.906 . S
O357 C365 1.304 . S
O358 Zn346 1.924 . S
O358 C366 1.311 . S
O359 Zn350 1.977 . S
O359 C365 1.272 . S
O360 Zn350 1.910 . S
O360 C366 1.231 . S
C361 O345 1.225 . S
C361 O367 1.298 . S
C362 O351 1.226 . S
C362 O352 1.307 . S
C363 O355 1.303 . S
C363 O356 1.247 . S
C364 O353 1.253 . S
C364 O354 1.283 . S
C365 O357 1.304 . S
C365 O359 1.272 . S
C366 O358 1.311 . S
C366 O360 1.231 . S
O367 Zn349 1.953 . S
O367 C361 1.298 . S
H368 C374 0.930 . S
H369 C378 0.930 . S
H370 C383 0.929 . S
H371 C381 0.929 . S
H372 C376 0.929 . S
H373 C382 0.929 . S
C374 H368 0.930 . S
C374 C375 1.367 . S
C374 C382 1.378 . S
C375 C374 1.367 . S
C375 C383 1.433 . S
C376 H372 0.929 . S
C376 C378 1.378 . S
C376 C380 1.350 . S
C377 C380 1.463 . S
C377 C382 1.350 . S
C377 N385 1.427 . S
C378 H369 0.930 . S
C378 C376 1.378 . S
C378 C379 1.367 . S
C379 C378 1.367 . S
C379 C381 1.433 . S
C380 C376 1.350 . S
C380 C377 1.463 . S
C380 N384 1.427 . S
C381 H371 0.929 . S
C381 C379 1.433 . S
C381 N384 1.384 . S
C382 H373 0.929 . S
C382 C374 1.378 . S
C382 C377 1.350 . S
C383 H370 0.929 . S
C383 C375 1.433 . S
C383 N385 1.384 . S
N384 C380 1.427 . S
N384 C381 1.384 . S
N385 C377 1.427 . S
N385 C383 1.384 . S
H386 C392 0.930 . S
H387 C396 0.930 . S
H388 C401 0.929 . S
H389 C399 0.929 . S
H390 C394 0.929 . S
H391 C400 0.929 . S
C392 H386 0.930 . S
C392 C393 1.367 . S
C392 C400 1.378 . S
C393 C392 1.367 . S
C393 C401 1.433 . S
C394 H390 0.929 . S
C394 C396 1.378 . S
C394 C398 1.350 . S
C395 C398 1.463 . S
C395 C400 1.350 . S
C395 N403 1.427 . S
C396 H387 0.930 . S
C396 C394 1.378 . S
C396 C397 1.367 . S
C397 C396 1.367 . S
C397 C399 1.433 . S
C398 C394 1.350 . S
C398 C395 1.463 . S
C398 N402 1.427 . S
C399 H389 0.929 . S
C399 C397 1.433 . S
C399 N402 1.384 . S
C400 H391 0.929 . S
C400 C392 1.378 . S
C400 C395 1.350 . S
C401 H388 0.929 . S
C401 C393 1.433 . S
C401 N403 1.384 . S
N402 C398 1.427 . S
N402 C399 1.384 . S
N403 C395 1.427 . S
N403 C401 1.384 . S
H404 C410 0.930 . S
H405 C414 0.930 . S
H406 C419 0.929 . S
H407 C417 0.929 . S
H408 C412 0.929 . S
H409 C418 0.929 . S
C410 H404 0.930 . S
C410 C411 1.367 . S
C410 C418 1.378 . S
C411 C410 1.367 . S
C411 C419 1.433 . S
C412 H408 0.929 . S
C412 C414 1.378 . S
C412 C416 1.350 . S
C413 C416 1.463 1_455 S
C413 C418 1.350 . S
C413 N421 1.427 . S
C414 H405 0.930 . S
C414 C412 1.378 . S
C414 C415 1.367 . S
C415 C414 1.367 . S
C415 C417 1.433 . S
C416 C412 1.350 . S
C416 C413 1.463 1_655 S
C416 N420 1.427 . S
C417 H407 0.929 . S
C417 C415 1.433 . S
C417 N420 1.384 . S
C418 H409 0.929 . S
C418 C410 1.378 . S
C418 C413 1.350 . S
C419 H406 0.929 . S
C419 C411 1.433 . S
C419 N421 1.384 . S
N420 C416 1.427 . S
N420 C417 1.384 . S
N421 C413 1.427 . S
N421 C419 1.384 . S
H422 C428 0.930 . S
H423 C432 0.930 . S
H424 C437 0.929 . S
H425 C435 0.929 . S
H426 C430 0.929 . S
H427 C436 0.929 . S
C428 H422 0.930 . S
C428 C429 1.367 1_455 S
C428 C436 1.378 . S
C429 C428 1.367 1_655 S
C429 C437 1.433 . S
C430 H426 0.929 . S
C430 C432 1.378 . S
C430 C434 1.350 1_655 S
C431 C434 1.463 1_655 S
C431 C436 1.350 1_655 S
C431 N439 1.427 . S
C432 H423 0.930 . S
C432 C430 1.378 . S
C432 C433 1.367 1_655 S
C433 C432 1.367 1_455 S
C433 C435 1.433 . S
C434 C430 1.350 1_455 S
C434 C431 1.463 1_455 S
C434 N438 1.427 . S
C435 H425 0.929 . S
C435 C433 1.433 . S
C435 N438 1.384 . S
C436 H427 0.929 . S
C436 C428 1.378 . S
C436 C431 1.350 1_455 S
C437 H424 0.929 . S
C437 C429 1.433 . S
C437 N439 1.384 . S
N438 C434 1.427 . S
N438 C435 1.384 . S
N439 C431 1.427 . S
N439 C437 1.384 . S
H440 C446 0.930 . S
H441 C450 0.930 . S
H442 C455 0.929 . S
H443 C453 0.929 . S
H444 C448 0.929 . S
H445 C454 0.929 . S
C446 H440 0.930 . S
C446 C447 1.367 . S
C446 C454 1.378 . S
C447 C446 1.367 . S
C447 C455 1.433 . S
C448 H444 0.929 . S
C448 C450 1.378 . S
C448 C452 1.350 . S
C449 C452 1.463 . S
C449 C454 1.350 . S
C449 N457 1.427 . S
C450 H441 0.930 . S
C450 C448 1.378 . S
C450 C451 1.367 . S
C451 C450 1.367 . S
C451 C453 1.433 . S
C452 C448 1.350 . S
C452 C449 1.463 . S
C452 N456 1.427 . S
C453 H443 0.929 . S
C453 C451 1.433 . S
C453 N456 1.384 . S
C454 H445 0.929 . S
C454 C446 1.378 . S
C454 C449 1.350 . S
C455 H442 0.929 . S
C455 C447 1.433 . S
C455 N457 1.384 . S
N456 C452 1.427 . S
N456 C453 1.384 . S
N457 C449 1.427 . S
N457 C455 1.384 . S
H458 C464 0.930 . S
H459 C468 0.930 . S
H460 C473 0.929 . S
H461 C471 0.929 . S
H462 C466 0.929 . S
H463 C472 0.929 . S
C464 H458 0.930 . S
C464 C465 1.367 . S
C464 C472 1.378 . S
C465 C464 1.367 . S
C465 C473 1.433 . S
C466 H462 0.929 . S
C466 C468 1.378 . S
C466 C470 1.350 . S
C467 C470 1.463 . S
C467 C472 1.350 . S
C467 N475 1.427 . S
C468 H459 0.930 . S
C468 C466 1.378 . S
C468 C469 1.367 . S
C469 C468 1.367 . S
C469 C471 1.433 . S
C470 C466 1.350 . S
C470 C467 1.463 . S
C470 N474 1.427 . S
C471 H461 0.929 . S
C471 C469 1.433 . S
C471 N474 1.384 . S
C472 H463 0.929 . S
C472 C464 1.378 . S
C472 C467 1.350 . S
C473 H460 0.929 . S
C473 C465 1.433 . S
C473 N475 1.384 . S
N474 C470 1.427 . S
N474 C471 1.384 . S
N475 C467 1.427 . S
N475 C473 1.384 . S
H476 C482 0.930 . S
H477 C486 0.930 . S
H478 C491 0.929 . S
H479 C489 0.929 . S
H480 C484 0.929 . S
H481 C490 0.929 . S
C482 H476 0.930 . S
C482 C483 1.367 . S
C482 C490 1.378 . S
C483 C482 1.367 . S
C483 C491 1.433 . S
C484 H480 0.929 . S
C484 C486 1.378 . S
C484 C488 1.350 . S
C485 C488 1.463 1_655 S
C485 C490 1.350 . S
C485 N493 1.427 . S
C486 H477 0.930 . S
C486 C484 1.378 . S
C486 C487 1.367 . S
C487 C486 1.367 . S
C487 C489 1.433 . S
C488 C484 1.350 . S
C488 C485 1.463 1_455 S
C488 N492 1.427 . S
C489 H479 0.929 . S
C489 C487 1.433 . S
C489 N492 1.384 . S
C490 H481 0.929 . S
C490 C482 1.378 . S
C490 C485 1.350 . S
C491 H478 0.929 . S
C491 C483 1.433 . S
C491 N493 1.384 . S
N492 C488 1.427 . S
N492 C489 1.384 . S
N493 C485 1.427 . S
N493 C491 1.384 . S
H494 C500 0.930 . S
H495 C504 0.930 . S
H496 C509 0.929 . S
H497 C507 0.929 . S
H498 C502 0.952 . S
H499 C508 0.952 . S
C500 H494 0.930 . S
C500 C501 1.367 . S
C500 C508 1.364 1_455 S
C501 C500 1.367 . S
C501 C509 1.433 . S
C502 H498 0.952 . S
C502 C504 1.364 1_455 S
C502 C506 1.342 1_455 S
C503 C506 1.463 1_455 S
C503 C508 1.342 1_455 S
C503 N511 1.427 . S
C504 H495 0.930 . S
C504 C502 1.364 1_655 S
C504 C505 1.367 . S
C505 C504 1.367 . S
C505 C507 1.433 . S
C506 C502 1.342 1_655 S
C506 C503 1.463 1_655 S
C506 N510 1.427 . S
C507 H497 0.929 . S
C507 C505 1.433 . S
C507 N510 1.384 . S
C508 H499 0.952 . S
C508 C500 1.364 1_655 S
C508 C503 1.342 1_655 S
C509 H496 0.929 . S
C509 C501 1.433 . S
C509 N511 1.384 . S
N510 C506 1.427 . S
N510 C507 1.384 . S
N511 C503 1.427 . S
N511 C509 1.384 . S
H512 C518 0.930 . S
H513 C522 0.930 . S
H514 C527 0.929 . S
H515 C525 0.929 . S
H516 C520 0.929 . S
H517 C526 0.929 . S
C518 H512 0.930 . S
C518 C519 1.367 . S
C518 C526 1.378 . S
C519 C518 1.367 . S
C519 C527 1.433 . S
C520 H516 0.929 . S
C520 C522 1.378 . S
C520 C524 1.350 . S
C521 C524 1.463 . S
C521 C526 1.350 . S
C521 N529 1.427 . S
C522 H513 0.930 . S
C522 C520 1.378 . S
C522 C523 1.367 . S
C523 C522 1.367 . S
C523 C525 1.433 . S
C524 C520 1.350 . S
C524 C521 1.463 . S
C524 N528 1.427 . S
C525 H515 0.929 . S
C525 C523 1.433 . S
C525 N528 1.384 . S
C526 H517 0.929 . S
C526 C518 1.378 . S
C526 C521 1.350 . S
C527 H514 0.929 . S
C527 C519 1.433 . S
C527 N529 1.384 . S
N528 C524 1.427 . S
N528 C525 1.384 . S
N529 C521 1.427 . S
N529 C527 1.384 . S
H530 C536 0.930 . S
H531 C540 0.930 . S
H532 C545 0.929 . S
H533 C543 0.929 . S
H534 C538 0.929 . S
H535 C544 0.929 . S
C536 H530 0.930 . S
C536 C537 1.367 . S
C536 C544 1.378 . S
C537 C536 1.367 . S
C537 C545 1.433 . S
C538 H534 0.929 . S
C538 C540 1.378 . S
C538 C542 1.350 . S
C539 C542 1.463 . S
C539 C544 1.350 . S
C539 N547 1.427 . S
C540 H531 0.930 . S
C540 C538 1.378 . S
C540 C541 1.367 . S
C541 C540 1.367 . S
C541 C543 1.433 . S
C542 C538 1.350 . S
C542 C539 1.463 . S
C542 N546 1.427 . S
C543 H533 0.929 . S
C543 C541 1.433 . S
C543 N546 1.384 . S
C544 H535 0.929 . S
C544 C536 1.378 . S
C544 C539 1.350 . S
C545 H532 0.929 . S
C545 C537 1.433 . S
C545 N547 1.384 . S
N546 C542 1.427 . S
N546 C543 1.384 . S
N547 C539 1.427 . S
N547 C545 1.384 . S
H548 C554 0.930 . S
H549 C558 0.930 . S
H550 C563 0.929 . S
H551 C561 0.929 . S
H552 C556 0.929 . S
H553 C562 0.929 . S
C554 H548 0.930 . S
C554 C555 1.367 . S
C554 C562 1.378 . S
C555 C554 1.367 . S
C555 C563 1.433 . S
C556 H552 0.929 . S
C556 C558 1.378 . S
C556 C560 1.350 . S
C557 C560 1.463 . S
C557 C562 1.350 . S
C557 N565 1.427 . S
C558 H549 0.930 . S
C558 C556 1.378 . S
C558 C559 1.367 . S
C559 C558 1.367 . S
C559 C561 1.433 . S
C560 C556 1.350 . S
C560 C557 1.463 . S
C560 N564 1.427 . S
C561 H551 0.929 . S
C561 C559 1.433 . S
C561 N564 1.384 . S
C562 H553 0.929 . S
C562 C554 1.378 . S
C562 C557 1.350 . S
C563 H550 0.929 . S
C563 C555 1.433 . S
C563 N565 1.384 . S
N564 C560 1.427 . S
N564 C561 1.384 . S
N565 C557 1.427 . S
N565 C563 1.384 . S
H566 C572 0.930 . S
H567 C576 0.930 . S
H568 C581 0.929 . S
H569 C579 0.929 . S
H570 C574 0.929 . S
H571 C580 0.929 . S
C572 H566 0.930 . S
C572 C573 1.367 . S
C572 C580 1.378 . S
C573 C572 1.367 . S
C573 C581 1.433 . S
C574 H570 0.929 . S
C574 C576 1.378 . S
C574 C578 1.350 . S
C575 C578 1.463 . S
C575 C580 1.350 . S
C575 N583 1.427 . S
C576 H567 0.930 . S
C576 C574 1.378 . S
C576 C577 1.367 . S
C577 C576 1.367 . S
C577 C579 1.433 . S
C578 C574 1.350 . S
C578 C575 1.463 . S
C578 N582 1.427 . S
C579 H569 0.929 . S
C579 C577 1.433 . S
C579 N582 1.384 . S
C580 H571 0.929 . S
C580 C572 1.378 . S
C580 C575 1.350 . S
C581 H568 0.929 . S
C581 C573 1.433 . S
C581 N583 1.384 . S
N582 C578 1.427 . S
N582 C579 1.384 . S
N583 C575 1.427 . S
N583 C581 1.384 . S
H584 C590 0.930 . S
H585 C594 0.930 . S
H586 C599 0.929 . S
H587 C597 0.929 . S
H588 C592 0.929 . S
H589 C598 0.929 . S
C590 H584 0.930 . S
C590 C591 1.367 . S
C590 C598 1.378 . S
C591 C590 1.367 . S
C591 C599 1.433 . S
C592 H588 0.929 . S
C592 C594 1.378 . S
C592 C596 1.350 . S
C593 C596 1.463 . S
C593 C598 1.350 . S
C593 N601 1.427 . S
C594 H585 0.930 . S
C594 C592 1.378 . S
C594 C595 1.367 . S
C595 C594 1.367 . S
C595 C597 1.433 . S
C596 C592 1.350 . S
C596 C593 1.463 . S
C596 N600 1.427 . S
C597 H587 0.929 . S
C597 C595 1.433 . S
C597 N600 1.384 . S
C598 H589 0.929 . S
C598 C590 1.378 . S
C598 C593 1.350 . S
C599 H586 0.929 . S
C599 C591 1.433 . S
C599 N601 1.384 . S
N600 C596 1.427 . S
N600 C597 1.384 . S
N601 C593 1.427 . S
N601 C599 1.384 . S
H602 C608 0.930 . S
H603 C612 0.930 . S
H604 C617 0.929 . S
H605 C615 0.929 . S
H606 C610 0.929 . S
H607 C616 0.929 . S
C608 H602 0.930 . S
C608 C609 1.367 . S
C608 C616 1.378 . S
C609 C608 1.367 . S
C609 C617 1.433 . S
C610 H606 0.929 . S
C610 C612 1.378 . S
C610 C614 1.350 . S
C611 C614 1.463 . S
C611 C616 1.350 . S
C611 N619 1.427 . S
C612 H603 0.930 . S
C612 C610 1.378 . S
C612 C613 1.367 . S
C613 C612 1.367 . S
C613 C615 1.433 . S
C614 C610 1.350 . S
C614 C611 1.463 . S
C614 N618 1.427 . S
C615 H605 0.929 . S
C615 C613 1.433 . S
C615 N618 1.384 . S
C616 H607 0.929 . S
C616 C608 1.378 . S
C616 C611 1.350 . S
C617 H604 0.929 . S
C617 C609 1.433 . S
C617 N619 1.384 . S
N618 C614 1.427 . S
N618 C615 1.384 . S
N619 C611 1.427 . S
N619 C617 1.384 . S
H620 C626 0.930 . S
H621 C630 0.930 . S
H622 C635 0.929 . S
H623 C633 0.929 . S
H624 C628 0.929 . S
H625 C634 0.929 . S
C626 H620 0.930 . S
C626 C627 1.367 . S
C626 C634 1.378 . S
C627 C626 1.367 . S
C627 C635 1.433 . S
C628 H624 0.929 . S
C628 C630 1.378 . S
C628 C632 1.350 . S
C629 C632 1.463 . S
C629 C634 1.350 . S
C629 N637 1.427 . S
C630 H621 0.930 . S
C630 C628 1.378 . S
C630 C631 1.367 . S
C631 C630 1.367 . S
C631 C633 1.433 . S
C632 C628 1.350 . S
C632 C629 1.463 . S
C632 N636 1.427 . S
C633 H623 0.929 . S
C633 C631 1.433 . S
C633 N636 1.384 . S
C634 H625 0.929 . S
C634 C626 1.378 . S
C634 C629 1.350 . S
C635 H622 0.929 . S
C635 C627 1.433 . S
C635 N637 1.384 . S
N636 C632 1.427 . S
N636 C633 1.384 . S
N637 C629 1.427 . S
N637 C635 1.384 . S
H638 C644 0.930 . S
H639 C648 0.930 . S
H640 C653 0.929 . S
H641 C651 0.929 . S
H642 C646 0.929 . S
H643 C652 0.929 . S
C644 H638 0.930 . S
C644 C645 1.367 . S
C644 C652 1.378 . S
C645 C644 1.367 . S
C645 C653 1.433 . S
C646 H642 0.929 . S
C646 C648 1.378 . S
C646 C650 1.350 . S
C647 C650 1.463 . S
C647 C652 1.350 . S
C647 N655 1.427 . S
C648 H639 0.930 . S
C648 C646 1.378 . S
C648 C649 1.367 . S
C649 C648 1.367 . S
C649 C651 1.433 . S
C650 C646 1.350 . S
C650 C647 1.463 . S
C650 N654 1.427 . S
C651 H641 0.929 . S
C651 C649 1.433 . S
C651 N654 1.384 . S
C652 H643 0.929 . S
C652 C644 1.378 . S
C652 C647 1.350 . S
C653 H640 0.929 . S
C653 C645 1.433 . S
C653 N655 1.384 . S
N654 C650 1.427 . S
N654 C651 1.384 . S
N655 C647 1.427 . S
N655 C653 1.384 . S
H656 C662 0.930 . S
H657 C666 0.930 . S
H658 C671 0.929 . S
H659 C669 0.929 . S
H660 C664 0.929 . S
H661 C670 0.929 . S
C662 H656 0.930 . S
C662 C663 1.367 . S
C662 C670 1.378 . S
C663 C662 1.367 . S
C663 C671 1.433 . S
C664 H660 0.929 . S
C664 C666 1.378 . S
C664 C668 1.350 . S
C665 C668 1.463 . S
C665 C670 1.350 . S
C665 N673 1.427 . S
C666 H657 0.930 . S
C666 C664 1.378 . S
C666 C667 1.367 . S
C667 C666 1.367 . S
C667 C669 1.433 . S
C668 C664 1.350 . S
C668 C665 1.463 . S
C668 N672 1.427 . S
C669 H659 0.929 . S
C669 C667 1.433 . S
C669 N672 1.384 . S
C670 H661 0.929 . S
C670 C662 1.378 . S
C670 C665 1.350 . S
C671 H658 0.929 . S
C671 C663 1.433 . S
C671 N673 1.384 . S
N672 C668 1.427 . S
N672 C669 1.384 . S
N673 C665 1.427 . S
N673 C671 1.384 . S
H674 C680 0.930 . S
H675 C684 0.930 . S
H676 C689 0.929 . S
H677 C687 0.929 . S
H678 C682 0.929 . S
H679 C688 0.927 1_545 S
C680 H674 0.930 . S
C680 C681 1.367 . S
C680 C688 1.345 1_545 S
C681 C680 1.367 . S
C681 C689 1.433 1_545 S
C682 H678 0.929 . S
C682 C684 1.378 . S
C682 C686 1.350 . S
C683 C686 1.463 . S
C683 C688 1.385 . S
C683 N691 1.427 . S
C684 H675 0.930 . S
C684 C682 1.378 . S
C684 C685 1.367 . S
C685 C684 1.367 . S
C685 C687 1.433 . S
C686 C682 1.350 . S
C686 C683 1.463 . S
C686 N690 1.427 . S
C687 H677 0.929 . S
C687 C685 1.433 . S
C687 N690 1.384 . S
C688 H679 0.927 1_565 S
C688 C680 1.345 1_565 S
C688 C683 1.385 . S
C689 H676 0.929 . S
C689 C681 1.433 1_565 S
C689 N691 1.384 . S
N690 C686 1.427 . S
N690 C687 1.384 . S
N691 C683 1.427 . S
N691 C689 1.384 . S
H692 C698 0.930 . S
H693 C702 0.930 . S
H694 C707 0.929 1_554 S
H695 C705 0.929 . S
H696 C700 0.929 . S
H697 C706 0.929 . S
C698 H692 0.930 . S
C698 C699 1.367 . S
C698 C706 1.378 . S
C699 C698 1.367 . S
C699 C707 1.433 . S
C700 H696 0.929 . S
C700 C702 1.378 . S
C700 C704 1.350 . S
C701 C704 1.463 . S
C701 C706 1.350 . S
C701 N709 1.427 . S
C702 H693 0.930 . S
C702 C700 1.378 . S
C702 C703 1.367 . S
C703 C702 1.367 . S
C703 C705 1.433 . S
C704 C700 1.350 . S
C704 C701 1.463 . S
C704 N708 1.427 . S
C705 H695 0.929 . S
C705 C703 1.433 . S
C705 N708 1.384 . S
C706 H697 0.929 . S
C706 C698 1.378 . S
C706 C701 1.350 . S
C707 H694 0.929 1_556 S
C707 C699 1.433 . S
C707 N709 1.384 . S
N708 C704 1.427 . S
N708 C705 1.384 . S
N709 C701 1.427 . S
N709 C707 1.384 . S
H710 C716 0.930 . S
H711 C720 0.930 . S
H712 C725 0.929 . S
H713 C723 0.929 . S
H714 C718 0.929 . S
H715 C724 0.929 . S
C716 H710 0.930 . S
C716 C717 1.367 1_545 S
C716 C724 1.378 . S
C717 C716 1.367 1_565 S
C717 C725 1.433 . S
C718 H714 0.929 . S
C718 C720 1.378 . S
C718 C722 1.350 . S
C719 C722 1.463 . S
C719 C724 1.350 . S
C719 N727 1.458 . S
C720 H711 0.930 . S
C720 C718 1.378 . S
C720 C721 1.367 . S
C721 C720 1.367 . S
C721 C723 1.433 . S
C722 C718 1.350 . S
C722 C719 1.463 . S
C722 N726 1.427 . S
C723 H713 0.929 . S
C723 C721 1.433 . S
C723 N726 1.384 . S
C724 H715 0.929 . S
C724 C716 1.378 . S
C724 C719 1.350 . S
C725 H712 0.929 . S
C725 C717 1.433 . S
C725 N727 1.354 1_565 S
N726 C722 1.427 . S
N726 C723 1.384 . S
N727 C719 1.458 . S
N727 C725 1.354 1_545 S
H728 C734 0.930 . S
H729 C738 0.930 . S
H730 C743 0.929 . S
H731 C741 0.929 . S
H732 C736 0.929 . S
H733 C742 0.929 . S
C734 H728 0.930 . S
C734 C735 1.367 . S
C734 C742 1.378 . S
C735 C734 1.367 . S
C735 C743 1.433 . S
C736 H732 0.929 . S
C736 C738 1.378 . S
C736 C740 1.350 . S
C737 C740 1.463 . S
C737 C742 1.350 . S
C737 N745 1.427 . S
C738 H729 0.930 . S
C738 C736 1.378 . S
C738 C739 1.367 . S
C739 C738 1.367 . S
C739 C741 1.433 . S
C740 C736 1.350 . S
C740 C737 1.463 . S
C740 N744 1.427 . S
C741 H731 0.929 . S
C741 C739 1.433 . S
C741 N744 1.384 . S
C742 H733 0.929 . S
C742 C734 1.378 . S
C742 C737 1.350 . S
C743 H730 0.929 . S
C743 C735 1.433 . S
C743 N745 1.384 . S
N744 C740 1.427 . S
N744 C741 1.384 . S
N745 C737 1.427 . S
N745 C743 1.384 . S
H746 C752 0.930 . S
H747 C756 0.930 . S
H748 C761 0.929 . S
H749 C759 0.929 . S
H750 C754 0.927 1_565 S
H751 C760 0.929 . S
C752 H746 0.930 . S
C752 C753 1.367 . S
C752 C760 1.378 . S
C753 C752 1.367 . S
C753 C761 1.433 . S
C754 H750 0.927 1_545 S
C754 C756 1.345 1_545 S
C754 C758 1.386 . S
C755 C758 1.463 . S
C755 C760 1.350 . S
C755 N763 1.427 . S
C756 H747 0.930 . S
C756 C754 1.345 1_565 S
C756 C757 1.367 . S
C757 C756 1.367 . S
C757 C759 1.433 1_565 S
C758 C754 1.386 . S
C758 C755 1.463 . S
C758 N762 1.427 . S
C759 H749 0.929 . S
C759 C757 1.433 1_545 S
C759 N762 1.384 . S
C760 H751 0.929 . S
C760 C752 1.378 . S
C760 C755 1.350 . S
C761 H748 0.929 . S
C761 C753 1.433 . S
C761 N763 1.384 . S
N762 C758 1.427 . S
N762 C759 1.384 . S
N763 C755 1.427 . S
N763 C761 1.384 . S
H764 C770 0.930 . S
H765 C774 0.930 1_556 S
H766 C779 0.929 . S
H767 C777 0.929 . S
H768 C772 0.929 . S
H769 C778 0.929 . S
C770 H764 0.930 . S
C770 C771 1.367 . S
C770 C778 1.378 . S
C771 C770 1.367 . S
C771 C779 1.433 . S
C772 H768 0.929 . S
C772 C774 1.378 . S
C772 C776 1.350 . S
C773 C776 1.463 . S
C773 C778 1.350 . S
C773 N781 1.427 . S
C774 H765 0.930 1_554 S
C774 C772 1.378 . S
C774 C775 1.367 . S
C775 C774 1.367 . S
C775 C777 1.433 . S
C776 C772 1.350 . S
C776 C773 1.463 . S
C776 N780 1.427 . S
C777 H767 0.929 . S
C777 C775 1.433 . S
C777 N780 1.384 . S
C778 H769 0.929 . S
C778 C770 1.378 . S
C778 C773 1.350 . S
C779 H766 0.929 . S
C779 C771 1.433 . S
C779 N781 1.384 . S
N780 C776 1.427 . S
N780 C777 1.384 . S
N781 C773 1.427 . S
N781 C779 1.384 . S
H782 C788 0.928 1_545 S
H783 C792 0.930 . S
H784 C797 0.929 . S
H785 C795 0.929 . S
H786 C790 0.929 . S
H787 C796 0.929 . S
C788 H782 0.928 1_565 S
C788 C789 1.345 1_565 S
C788 C796 1.402 . S
C789 C788 1.345 1_545 S
C789 C797 1.433 . S
C790 H786 0.929 . S
C790 C792 1.378 . S
C790 C794 1.350 . S
C791 C794 1.463 . S
C791 C796 1.350 . S
C791 N799 1.427 . S
C792 H783 0.930 . S
C792 C790 1.378 . S
C792 C793 1.367 . S
C793 C792 1.367 . S
C793 C795 1.433 . S
C794 C790 1.350 . S
C794 C791 1.463 . S
C794 N798 1.427 . S
C795 H785 0.929 . S
C795 C793 1.433 . S
C795 N798 1.384 . S
C796 H787 0.929 . S
C796 C788 1.402 . S
C796 C791 1.350 . S
C797 H784 0.929 . S
C797 C789 1.433 . S
C797 N799 1.384 1_545 S
N798 C794 1.427 . S
N798 C795 1.384 . S
N799 C791 1.427 . S
N799 C797 1.384 1_565 S
H800 C806 0.930 . S
H801 C810 0.930 . S
H802 C815 0.929 . S
H803 C813 0.929 . S
H804 C808 0.929 . S
H805 C814 0.929 . S
C806 H800 0.930 . S
C806 C807 1.367 . S
C806 C814 1.378 . S
C807 C806 1.367 . S
C807 C815 1.433 . S
C808 H804 0.929 . S
C808 C810 1.378 . S
C808 C812 1.350 . S
C809 C812 1.463 . S
C809 C814 1.350 . S
C809 N817 1.427 . S
C810 H801 0.930 . S
C810 C808 1.378 . S
C810 C811 1.367 . S
C811 C810 1.367 . S
C811 C813 1.433 . S
C812 C808 1.350 . S
C812 C809 1.463 . S
C812 N816 1.427 . S
C813 H803 0.929 . S
C813 C811 1.433 . S
C813 N816 1.384 . S
C814 H805 0.929 . S
C814 C806 1.378 . S
C814 C809 1.350 . S
C815 H802 0.929 . S
C815 C807 1.433 . S
C815 N817 1.384 . S
N816 C812 1.427 . S
N816 C813 1.384 . S
N817 C809 1.427 . S
N817 C815 1.384 . S
H818 C824 0.930 . S
H819 C828 0.930 . S
H820 C833 0.929 . S
H821 C831 0.929 . S
H822 C826 0.929 . S
H823 C832 0.929 . S
C824 H818 0.930 . S
C824 C825 1.367 . S
C824 C832 1.378 . S
C825 C824 1.367 . S
C825 C833 1.433 . S
C826 H822 0.929 . S
C826 C828 1.378 . S
C826 C830 1.350 . S
C827 C830 1.463 . S
C827 C832 1.350 . S
C827 N835 1.427 . S
C828 H819 0.930 . S
C828 C826 1.378 . S
C828 C829 1.367 . S
C829 C828 1.367 . S
C829 C831 1.433 . S
C830 C826 1.350 . S
C830 C827 1.463 . S
C830 N834 1.427 . S
C831 H821 0.929 . S
C831 C829 1.433 . S
C831 N834 1.384 . S
C832 H823 0.929 . S
C832 C824 1.378 . S
C832 C827 1.350 . S
C833 H820 0.929 . S
C833 C825 1.433 . S
C833 N835 1.384 . S
N834 C830 1.427 . S
N834 C831 1.384 . S
N835 C827 1.427 . S
N835 C833 1.384 . S
H836 C842 0.930 . S
H837 C846 0.930 . S
H838 C851 0.929 . S
H839 C849 0.929 . S
H840 C844 0.929 . S
H841 C850 0.929 . S
C842 H836 0.930 . S
C842 C843 1.367 . S
C842 C850 1.378 . S
C843 C842 1.367 . S
C843 C851 1.433 1_455 S
C844 H840 0.929 . S
C844 C846 1.378 . S
C844 C848 1.350 . S
C845 C848 1.463 . S
C845 C850 1.350 . S
C845 N853 1.427 . S
C846 H837 0.930 . S
C846 C844 1.378 . S
C846 C847 1.367 . S
C847 C846 1.367 . S
C847 C849 1.433 . S
C848 C844 1.350 . S
C848 C845 1.463 . S
C848 N852 1.427 . S
C849 H839 0.929 . S
C849 C847 1.433 . S
C849 N852 1.384 . S
C850 H841 0.929 . S
C850 C842 1.378 . S
C850 C845 1.350 . S
C851 H838 0.929 . S
C851 C843 1.433 1_655 S
C851 N853 1.384 1_655 S
N852 C848 1.427 . S
N852 C849 1.384 . S
N853 C845 1.427 . S
N853 C851 1.384 1_455 S
H854 C860 0.930 . S
H855 C864 0.930 . S
H856 C869 0.929 . S
H857 C867 0.929 . S
H858 C862 0.929 . S
H859 C868 0.929 . S
C860 H854 0.930 . S
C860 C861 1.367 . S
C860 C868 1.378 . S
C861 C860 1.367 . S
C861 C869 1.433 . S
C862 H858 0.929 . S
C862 C864 1.378 . S
C862 C866 1.350 . S
C863 C866 1.463 . S
C863 C868 1.350 . S
C863 N871 1.427 . S
C864 H855 0.930 . S
C864 C862 1.378 . S
C864 C865 1.367 . S
C865 C864 1.367 . S
C865 C867 1.433 . S
C866 C862 1.350 . S
C866 C863 1.463 . S
C866 N870 1.427 . S
C867 H857 0.929 . S
C867 C865 1.433 . S
C867 N870 1.384 . S
C868 H859 0.929 . S
C868 C860 1.378 . S
C868 C863 1.350 . S
C869 H856 0.929 . S
C869 C861 1.433 . S
C869 N871 1.384 . S
N870 C866 1.427 . S
N870 C867 1.384 . S
N871 C863 1.427 . S
N871 C869 1.384 . S
H872 C878 0.930 . S
H873 C882 0.930 . S
H874 C887 0.929 . S
H875 C885 0.929 . S
H876 C880 0.929 . S
H877 C886 0.929 . S
C878 H872 0.930 . S
C878 C879 1.367 . S
C878 C886 1.378 . S
C879 C878 1.367 . S
C879 C887 1.433 . S
C880 H876 0.929 . S
C880 C882 1.378 . S
C880 C884 1.350 . S
C881 C884 1.463 . S
C881 C886 1.350 . S
C881 N889 1.427 . S
C882 H873 0.930 . S
C882 C880 1.378 . S
C882 C883 1.367 . S
C883 C882 1.367 . S
C883 C885 1.433 . S
C884 C880 1.350 . S
C884 C881 1.463 . S
C884 N888 1.427 . S
C885 H875 0.929 . S
C885 C883 1.433 . S
C885 N888 1.384 . S
C886 H877 0.929 . S
C886 C878 1.378 . S
C886 C881 1.350 . S
C887 H874 0.929 . S
C887 C879 1.433 . S
C887 N889 1.384 . S
N888 C884 1.427 . S
N888 C885 1.384 . S
N889 C881 1.427 . S
N889 C887 1.384 . S
H890 C896 0.930 . S
H891 C900 0.930 . S
H892 C905 0.929 . S
H893 C903 0.929 . S
H894 C898 0.929 . S
H895 C904 0.929 . S
C896 H890 0.930 . S
C896 C897 1.367 . S
C896 C904 1.378 . S
C897 C896 1.367 . S
C897 C905 1.433 . S
C898 H894 0.929 . S
C898 C900 1.378 . S
C898 C902 1.350 . S
C899 C902 1.463 . S
C899 C904 1.350 . S
C899 N907 1.427 . S
C900 H891 0.930 . S
C900 C898 1.378 . S
C900 C901 1.367 . S
C901 C900 1.367 . S
C901 C903 1.433 . S
C902 C898 1.350 . S
C902 C899 1.463 . S
C902 N906 1.427 . S
C903 H893 0.929 . S
C903 C901 1.433 . S
C903 N906 1.384 . S
C904 H895 0.929 . S
C904 C896 1.378 . S
C904 C899 1.350 . S
C905 H892 0.929 . S
C905 C897 1.433 . S
C905 N907 1.384 . S
N906 C902 1.427 . S
N906 C903 1.384 . S
N907 C899 1.427 . S
N907 C905 1.384 . S
H908 C914 0.930 1_455 S
H909 C918 0.930 . S
H910 C923 0.929 . S
H911 C921 0.929 . S
H912 C916 0.929 . S
H913 C922 0.929 . S
C914 H908 0.930 1_655 S
C914 C915 1.367 . S
C914 C922 1.378 . S
C915 C914 1.367 . S
C915 C923 1.433 . S
C916 H912 0.929 . S
C916 C918 1.378 . S
C916 C920 1.350 . S
C917 C920 1.463 . S
C917 C922 1.350 . S
C917 N925 1.427 . S
C918 H909 0.930 . S
C918 C916 1.378 . S
C918 C919 1.367 . S
C919 C918 1.367 . S
C919 C921 1.433 . S
C920 C916 1.350 . S
C920 C917 1.463 . S
C920 N924 1.427 . S
C921 H911 0.929 . S
C921 C919 1.433 . S
C921 N924 1.384 . S
C922 H913 0.929 . S
C922 C914 1.378 . S
C922 C917 1.350 . S
C923 H910 0.929 . S
C923 C915 1.433 . S
C923 N925 1.384 . S
N924 C920 1.427 . S
N924 C921 1.384 . S
N925 C917 1.427 . S
N925 C923 1.384 . S
H926 C932 0.930 . S
H927 C936 0.930 . S
H928 C941 0.929 . S
H929 C939 0.929 . S
H930 C934 0.929 . S
H931 C940 0.929 . S
C932 H926 0.930 . S
C932 C933 1.367 . S
C932 C940 1.378 . S
C933 C932 1.367 . S
C933 C941 1.433 . S
C934 H930 0.929 . S
C934 C936 1.378 . S
C934 C938 1.350 . S
C935 C938 1.463 . S
C935 C940 1.350 . S
C935 N943 1.427 . S
C936 H927 0.930 . S
C936 C934 1.378 . S
C936 C937 1.367 . S
C937 C936 1.367 . S
C937 C939 1.433 . S
C938 C934 1.350 . S
C938 C935 1.463 . S
C938 N942 1.427 . S
C939 H929 0.929 . S
C939 C937 1.433 . S
C939 N942 1.384 . S
C940 H931 0.929 . S
C940 C932 1.378 . S
C940 C935 1.350 . S
C941 H928 0.929 . S
C941 C933 1.433 . S
C941 N943 1.384 . S
N942 C938 1.427 . S
N942 C939 1.384 . S
N943 C935 1.427 . S
N943 C941 1.384 . S
H944 C950 0.930 . S
H945 C954 0.930 . S
H946 C959 0.929 . S
H947 C957 0.929 1_455 S
H948 C952 0.929 . S
H949 C958 0.929 . S
C950 H944 0.930 . S
C950 C951 1.367 . S
C950 C958 1.378 . S
C951 C950 1.367 . S
C951 C959 1.433 . S
C952 H948 0.929 . S
C952 C954 1.378 . S
C952 C956 1.350 . S
C953 C956 1.463 . S
C953 C958 1.350 . S
C953 N961 1.427 . S
C954 H945 0.930 . S
C954 C952 1.378 . S
C954 C955 1.367 . S
C955 C954 1.367 . S
C955 C957 1.433 . S
C956 C952 1.350 . S
C956 C953 1.463 . S
C956 N960 1.427 . S
C957 H947 0.929 1_655 S
C957 C955 1.433 . S
C957 N960 1.384 . S
C958 H949 0.929 . S
C958 C950 1.378 . S
C958 C953 1.350 . S
C959 H946 0.929 . S
C959 C951 1.433 . S
C959 N961 1.384 . S
N960 C956 1.427 . S
N960 C957 1.384 . S
N961 C953 1.427 . S
N961 C959 1.384 . S
H962 C968 0.930 . S
H963 C972 0.930 . S
H964 C977 0.929 . S
H965 C975 0.929 . S
H966 C970 0.929 . S
H967 C976 0.929 . S
C968 H962 0.930 . S
C968 C969 1.367 . S
C968 C976 1.378 . S
C969 C968 1.367 . S
C969 C977 1.433 . S
C970 H966 0.929 . S
C970 C972 1.378 . S
C970 C974 1.350 . S
C971 C974 1.463 . S
C971 C976 1.350 . S
C971 N979 1.427 . S
C972 H963 0.930 . S
C972 C970 1.378 . S
C972 C973 1.367 . S
C973 C972 1.367 . S
C973 C975 1.433 . S
C974 C970 1.350 . S
C974 C971 1.463 . S
C974 N978 1.427 . S
C975 H965 0.929 . S
C975 C973 1.433 . S
C975 N978 1.384 . S
C976 H967 0.929 . S
C976 C968 1.378 . S
C976 C971 1.350 . S
C977 H964 0.929 . S
C977 C969 1.433 . S
C977 N979 1.384 . S
N978 C974 1.427 . S
N978 C975 1.384 . S
N979 C971 1.427 . S
N979 C977 1.384 . S
H980 C986 0.930 . S
H981 C990 0.930 . S
H982 C995 0.929 . S
H983 C993 0.929 . S
H984 C988 0.929 . S
H985 C994 0.929 . S
C986 H980 0.930 . S
C986 C987 1.367 . S
C986 C994 1.378 . S
C987 C986 1.367 . S
C987 C995 1.433 . S
C988 H984 0.929 . S
C988 C990 1.378 . S
C988 C992 1.350 . S
C989 C992 1.463 . S
C989 C994 1.350 . S
C989 N997 1.427 . S
C990 H981 0.930 . S
C990 C988 1.378 . S
C990 C991 1.367 . S
C991 C990 1.367 . S
C991 C993 1.433 . S
C992 C988 1.350 . S
C992 C989 1.463 . S
C992 N996 1.427 . S
C993 H983 0.929 . S
C993 C991 1.433 . S
C993 N996 1.384 . S
C994 H985 0.929 . S
C994 C986 1.378 . S
C994 C989 1.350 . S
C995 H982 0.929 . S
C995 C987 1.433 . S
C995 N997 1.384 . S
N996 C992 1.427 . S
N996 C993 1.384 . S
N997 C989 1.427 . S
N997 C995 1.384 . S
H998 C1004 0.930 . S
H999 C1008 0.930 . S
H1000 C1013 0.929 . S
H1001 C1011 0.929 . S
H1002 C1006 0.929 . S
H1003 C1012 0.929 . S
C1004 H998 0.930 . S
C1004 C1005 1.367 . S
C1004 C1012 1.378 . S
C1005 C1004 1.367 . S
C1005 C1013 1.433 . S
C1006 H1002 0.929 . S
C1006 C1008 1.378 . S
C1006 C1010 1.350 . S
C1007 C1010 1.463 . S
C1007 C1012 1.350 . S
C1007 N1015 1.427 . S
C1008 H999 0.930 . S
C1008 C1006 1.378 . S
C1008 C1009 1.367 . S
C1009 C1008 1.367 . S
C1009 C1011 1.433 . S
C1010 C1006 1.350 . S
C1010 C1007 1.463 . S
C1010 N1014 1.427 . S
C1011 H1001 0.929 . S
C1011 C1009 1.433 . S
C1011 N1014 1.384 . S
C1012 H1003 0.929 . S
C1012 C1004 1.378 . S
C1012 C1007 1.350 . S
C1013 H1000 0.929 . S
C1013 C1005 1.433 . S
C1013 N1015 1.384 . S
N1014 C1010 1.427 . S
N1014 C1011 1.384 . S
N1015 C1007 1.427 . S
N1015 C1013 1.384 . S
H1016 C1022 0.930 . S
H1017 C1026 0.930 . S
H1018 C1031 0.929 . S
H1019 C1029 0.929 1_655 S
H1020 C1024 0.929 . S
H1021 C1030 0.929 . S
C1022 H1016 0.930 . S
C1022 C1023 1.367 . S
C1022 C1030 1.378 . S
C1023 C1022 1.367 . S
C1023 C1031 1.433 . S
C1024 H1020 0.929 . S
C1024 C1026 1.378 . S
C1024 C1028 1.350 . S
C1025 C1028 1.463 . S
C1025 C1030 1.350 . S
C1025 N1033 1.427 . S
C1026 H1017 0.930 . S
C1026 C1024 1.378 . S
C1026 C1027 1.367 . S
C1027 C1026 1.367 . S
C1027 C1029 1.433 . S
C1028 C1024 1.350 . S
C1028 C1025 1.463 . S
C1028 N1032 1.427 . S
C1029 H1019 0.929 1_455 S
C1029 C1027 1.433 . S
C1029 N1032 1.384 . S
C1030 H1021 0.929 . S
C1030 C1022 1.378 . S
C1030 C1025 1.350 . S
C1031 H1018 0.929 . S
C1031 C1023 1.433 . S
C1031 N1033 1.384 . S
N1032 C1028 1.427 . S
N1032 C1029 1.384 . S
N1033 C1025 1.427 . S
N1033 C1031 1.384 . S
H1034 C1040 0.930 . S
H1035 C1044 0.930 . S
H1036 C1049 0.929 . S
H1037 C1047 0.929 . S
H1038 C1042 0.929 . S
H1039 C1048 0.929 . S
C1040 H1034 0.930 . S
C1040 C1041 1.367 . S
C1040 C1048 1.378 . S
C1041 C1040 1.367 . S
C1041 C1049 1.433 . S
C1042 H1038 0.929 . S
C1042 C1044 1.378 . S
C1042 C1046 1.350 . S
C1043 C1046 1.463 . S
C1043 C1048 1.350 . S
C1043 N1051 1.427 . S
C1044 H1035 0.930 . S
C1044 C1042 1.378 . S
C1044 C1045 1.367 . S
C1045 C1044 1.367 . S
C1045 C1047 1.433 . S
C1046 C1042 1.350 . S
C1046 C1043 1.463 . S
C1046 N1050 1.427 . S
C1047 H1037 0.929 . S
C1047 C1045 1.433 . S
C1047 N1050 1.384 . S
C1048 H1039 0.929 . S
C1048 C1040 1.378 . S
C1048 C1043 1.350 . S
C1049 H1036 0.929 . S
C1049 C1041 1.433 . S
C1049 N1051 1.384 . S
N1050 C1046 1.427 . S
N1050 C1047 1.384 . S
N1051 C1043 1.427 . S
N1051 C1049 1.384 . S
H1052 C1058 0.930 . S
H1053 C1062 0.930 . S
H1054 C1067 0.929 . S
H1055 C1065 0.929 . S
H1056 C1060 0.929 . S
H1057 C1066 0.929 . S
C1058 H1052 0.930 . S
C1058 C1059 1.367 . S
C1058 C1066 1.378 . S
C1059 C1058 1.367 . S
C1059 C1067 1.433 . S
C1060 H1056 0.929 . S
C1060 C1062 1.378 . S
C1060 C1064 1.350 . S
C1061 C1064 1.463 . S
C1061 C1066 1.350 . S
C1061 N1069 1.427 . S
C1062 H1053 0.930 . S
C1062 C1060 1.378 . S
C1062 C1063 1.367 . S
C1063 C1062 1.367 . S
C1063 C1065 1.433 . S
C1064 C1060 1.350 . S
C1064 C1061 1.463 . S
C1064 N1068 1.427 . S
C1065 H1055 0.929 . S
C1065 C1063 1.433 . S
C1065 N1068 1.384 . S
C1066 H1057 0.929 . S
C1066 C1058 1.378 . S
C1066 C1061 1.350 . S
C1067 H1054 0.929 . S
C1067 C1059 1.433 . S
C1067 N1069 1.384 . S
N1068 C1064 1.427 . S
N1068 C1065 1.384 . S
N1069 C1061 1.427 . S
N1069 C1067 1.384 . S
H1070 C1076 0.930 . S
H1071 C1080 0.930 . S
H1072 C1085 0.929 . S
H1073 C1083 0.929 . S
H1074 C1078 0.929 . S
H1075 C1084 0.929 . S
C1076 H1070 0.930 . S
C1076 C1077 1.367 . S
C1076 C1084 1.378 . S
C1077 C1076 1.367 . S
C1077 C1085 1.433 . S
C1078 H1074 0.929 . S
C1078 C1080 1.378 . S
C1078 C1082 1.350 . S
C1079 C1082 1.463 . S
C1079 C1084 1.350 . S
C1079 N1087 1.427 . S
C1080 H1071 0.930 . S
C1080 C1078 1.378 . S
C1080 C1081 1.367 . S
C1081 C1080 1.367 . S
C1081 C1083 1.433 . S
C1082 C1078 1.350 . S
C1082 C1079 1.463 . S
C1082 N1086 1.427 . S
C1083 H1073 0.929 . S
C1083 C1081 1.433 . S
C1083 N1086 1.384 . S
C1084 H1075 0.929 . S
C1084 C1076 1.378 . S
C1084 C1079 1.350 . S
C1085 H1072 0.929 . S
C1085 C1077 1.433 . S
C1085 N1087 1.384 . S
N1086 C1082 1.427 . S
N1086 C1083 1.384 . S
N1087 C1079 1.427 . S
N1087 C1085 1.384 . S
H1088 C1094 0.930 . S
H1089 C1098 0.930 . S
H1090 C1103 0.929 . S
H1091 C1101 0.929 . S
H1092 C1096 0.929 . S
H1093 C1102 0.929 . S
C1094 H1088 0.930 . S
C1094 C1095 1.367 . S
C1094 C1102 1.378 . S
C1095 C1094 1.367 . S
C1095 C1103 1.433 . S
C1096 H1092 0.929 . S
C1096 C1098 1.378 . S
C1096 C1100 1.350 . S
C1097 C1100 1.463 . S
C1097 C1102 1.350 . S
C1097 N1105 1.427 . S
C1098 H1089 0.930 . S
C1098 C1096 1.378 . S
C1098 C1099 1.367 . S
C1099 C1098 1.367 . S
C1099 C1101 1.433 . S
C1100 C1096 1.350 . S
C1100 C1097 1.463 . S
C1100 N1104 1.427 . S
C1101 H1091 0.929 . S
C1101 C1099 1.433 . S
C1101 N1104 1.384 . S
C1102 H1093 0.929 . S
C1102 C1094 1.378 . S
C1102 C1097 1.350 . S
C1103 H1090 0.929 . S
C1103 C1095 1.433 . S
C1103 N1105 1.384 . S
N1104 C1100 1.427 . S
N1104 C1101 1.384 . S
N1105 C1097 1.427 . S
N1105 C1103 1.384 . S
H1106 C1112 0.930 . S
H1107 C1116 0.930 . S
H1108 C1121 0.929 . S
H1109 C1119 0.929 . S
H1110 C1114 0.929 . S
H1111 C1120 0.929 . S
C1112 H1106 0.930 . S
C1112 C1113 1.367 . S
C1112 C1120 1.378 . S
C1113 C1112 1.367 . S
C1113 C1121 1.433 . S
C1114 H1110 0.929 . S
C1114 C1116 1.378 . S
C1114 C1118 1.350 . S
C1115 C1118 1.463 . S
C1115 C1120 1.350 . S
C1115 N1123 1.427 . S
C1116 H1107 0.930 . S
C1116 C1114 1.378 . S
C1116 C1117 1.367 . S
C1117 C1116 1.367 . S
C1117 C1119 1.433 . S
C1118 C1114 1.350 . S
C1118 C1115 1.463 . S
C1118 N1122 1.427 . S
C1119 H1109 0.929 . S
C1119 C1117 1.433 . S
C1119 N1122 1.384 . S
C1120 H1111 0.929 . S
C1120 C1112 1.378 . S
C1120 C1115 1.350 . S
C1121 H1108 0.929 . S
C1121 C1113 1.433 . S
C1121 N1123 1.384 . S
N1122 C1118 1.427 . S
N1122 C1119 1.384 . S
N1123 C1115 1.427 . S
N1123 C1121 1.384 . S
H1124 C1130 0.930 . S
H1125 C1134 0.930 . S
H1126 C1139 0.929 . S
H1127 C1137 0.929 . S
H1128 C1132 0.929 . S
H1129 C1138 0.929 . S
C1130 H1124 0.930 . S
C1130 C1131 1.367 . S
C1130 C1138 1.378 . S
C1131 C1130 1.367 . S
C1131 C1139 1.433 . S
C1132 H1128 0.929 . S
C1132 C1134 1.378 . S
C1132 C1136 1.350 . S
C1133 C1136 1.463 . S
C1133 C1138 1.350 . S
C1133 N1141 1.427 . S
C1134 H1125 0.930 . S
C1134 C1132 1.378 . S
C1134 C1135 1.367 . S
C1135 C1134 1.367 . S
C1135 C1137 1.433 . S
C1136 C1132 1.350 . S
C1136 C1133 1.463 . S
C1136 N1140 1.427 . S
C1137 H1127 0.929 . S
C1137 C1135 1.433 . S
C1137 N1140 1.384 . S
C1138 H1129 0.929 . S
C1138 C1130 1.378 . S
C1138 C1133 1.350 . S
C1139 H1126 0.929 . S
C1139 C1131 1.433 . S
C1139 N1141 1.384 . S
N1140 C1136 1.427 . S
N1140 C1137 1.384 . S
N1141 C1133 1.427 . S
N1141 C1139 1.384 . S
H1142 C1148 0.930 . S
H1143 C1152 0.930 . S
H1144 C1157 0.929 . S
H1145 C1155 0.929 . S
H1146 C1150 0.929 1_554 S
H1147 C1156 0.929 1_556 S
C1148 H1142 0.930 . S
C1148 C1149 1.367 . S
C1148 C1156 1.378 . S
C1149 C1148 1.367 . S
C1149 C1157 1.433 . S
C1150 H1146 0.929 1_556 S
C1150 C1152 1.378 . S
C1150 C1154 1.350 . S
C1151 C1154 1.463 1_454 S
C1151 C1156 1.350 . S
C1151 N1159 1.427 . S
C1152 H1143 0.930 . S
C1152 C1150 1.378 . S
C1152 C1153 1.367 . S
C1153 C1152 1.367 . S
C1153 C1155 1.433 . S
C1154 C1150 1.350 . S
C1154 C1151 1.463 1_656 S
C1154 N1158 1.427 . S
C1155 H1145 0.929 . S
C1155 C1153 1.433 . S
C1155 N1158 1.384 . S
C1156 H1147 0.929 1_554 S
C1156 C1148 1.378 . S
C1156 C1151 1.350 . S
C1157 H1144 0.929 . S
C1157 C1149 1.433 . S
C1157 N1159 1.384 . S
N1158 C1154 1.427 . S
N1158 C1155 1.384 . S
N1159 C1151 1.427 . S
N1159 C1157 1.384 . S
H1160 C1166 0.930 . S
H1161 C1170 0.930 . S
H1162 C1175 0.929 . S
H1163 C1173 0.929 . S
H1164 C1168 0.929 . S
H1165 C1174 0.929 . S
C1166 H1160 0.930 . S
C1166 C1167 1.367 . S
C1166 C1174 1.378 . S
C1167 C1166 1.367 . S
C1167 C1175 1.433 . S
C1168 H1164 0.929 . S
C1168 C1170 1.378 . S
C1168 C1172 1.350 . S
C1169 C1172 1.463 . S
C1169 C1174 1.350 . S
C1169 N1177 1.427 . S
C1170 H1161 0.930 . S
C1170 C1168 1.378 . S
C1170 C1171 1.367 . S
C1171 C1170 1.367 . S
C1171 C1173 1.433 . S
C1172 C1168 1.350 . S
C1172 C1169 1.463 . S
C1172 N1176 1.427 . S
C1173 H1163 0.929 . S
C1173 C1171 1.433 . S
C1173 N1176 1.384 . S
C1174 H1165 0.929 . S
C1174 C1166 1.378 . S
C1174 C1169 1.350 . S
C1175 H1162 0.929 . S
C1175 C1167 1.433 . S
C1175 N1177 1.384 . S
N1176 C1172 1.427 . S
N1176 C1173 1.384 . S
N1177 C1169 1.427 . S
N1177 C1175 1.384 . S
H1178 C1184 0.930 . S
H1179 C1188 0.930 . S
H1180 C1193 0.929 . S
H1181 C1191 0.929 . S
H1182 C1186 0.929 . S
H1183 C1192 0.929 . S
C1184 H1178 0.930 . S
C1184 C1185 1.367 . S
C1184 C1192 1.378 . S
C1185 C1184 1.367 . S
C1185 C1193 1.433 . S
C1186 H1182 0.929 . S
C1186 C1188 1.378 . S
C1186 C1190 1.350 . S
C1187 C1190 1.463 . S
C1187 C1192 1.350 . S
C1187 N1195 1.427 . S
C1188 H1179 0.930 . S
C1188 C1186 1.378 . S
C1188 C1189 1.367 . S
C1189 C1188 1.367 . S
C1189 C1191 1.433 . S
C1190 C1186 1.350 . S
C1190 C1187 1.463 . S
C1190 N1194 1.427 . S
C1191 H1181 0.929 . S
C1191 C1189 1.433 . S
C1191 N1194 1.384 . S
C1192 H1183 0.929 . S
C1192 C1184 1.378 . S
C1192 C1187 1.350 . S
C1193 H1180 0.929 . S
C1193 C1185 1.433 . S
C1193 N1195 1.384 . S
N1194 C1190 1.427 . S
N1194 C1191 1.384 . S
N1195 C1187 1.427 . S
N1195 C1193 1.384 . S
H1196 C1202 0.930 . S
H1197 C1206 0.930 . S
H1198 C1211 0.929 . S
H1199 C1209 0.929 . S
H1200 C1204 0.929 1_456 S
H1201 C1210 0.929 1_654 S
C1202 H1196 0.930 . S
C1202 C1203 1.367 . S
C1202 C1210 1.378 . S
C1203 C1202 1.367 . S
C1203 C1211 1.433 . S
C1204 H1200 0.929 1_654 S
C1204 C1206 1.378 . S
C1204 C1208 1.350 . S
C1205 C1208 1.463 1_446 S
C1205 C1210 1.350 . S
C1205 N1213 1.427 1_545 S
C1206 H1197 0.930 . S
C1206 C1204 1.378 . S
C1206 C1207 1.367 . S
C1207 C1206 1.367 . S
C1207 C1209 1.433 . S
C1208 C1204 1.350 . S
C1208 C1205 1.463 1_664 S
C1208 N1212 1.427 1_565 S
C1209 H1199 0.929 . S
C1209 C1207 1.433 . S
C1209 N1212 1.384 1_565 S
C1210 H1201 0.929 1_456 S
C1210 C1202 1.378 . S
C1210 C1205 1.350 . S
C1211 H1198 0.929 . S
C1211 C1203 1.433 . S
C1211 N1213 1.384 1_545 S
N1212 C1208 1.427 1_545 S
N1212 C1209 1.384 1_545 S
N1213 C1205 1.427 1_565 S
N1213 C1211 1.384 1_565 S
H1214 C1220 0.930 . S
H1215 C1224 0.930 . S
H1216 C1229 0.929 . S
H1217 C1227 0.929 . S
H1218 C1222 0.926 . S
H1219 C1228 0.926 . S
C1220 H1214 0.930 . S
C1220 C1221 1.367 . S
C1220 C1228 1.378 . S
C1221 C1220 1.367 . S
C1221 C1229 1.433 . S
C1222 H1218 0.926 . S
C1222 C1224 1.378 . S
C1222 C1226 1.350 . S
C1223 C1226 1.463 1_545 S
C1223 C1228 1.350 . S
C1223 N1231 1.427 . S
C1224 H1215 0.930 . S
C1224 C1222 1.378 . S
C1224 C1225 1.367 . S
C1225 C1224 1.367 . S
C1225 C1227 1.433 . S
C1226 C1222 1.350 . S
C1226 C1223 1.463 1_565 S
C1226 N1230 1.427 . S
C1227 H1217 0.929 . S
C1227 C1225 1.433 . S
C1227 N1230 1.384 . S
C1228 H1219 0.926 . S
C1228 C1220 1.378 . S
C1228 C1223 1.350 . S
C1229 H1216 0.929 . S
C1229 C1221 1.433 . S
C1229 N1231 1.384 . S
N1230 C1226 1.427 . S
N1230 C1227 1.384 . S
N1231 C1223 1.427 . S
N1231 C1229 1.384 . S
C375 C18 1.319 . S
C379 C248 1.322 . S
C393 C41 1.324 . S
C397 C271 1.323 . S
C411 C64 1.320 . S
C415 C202 1.323 . S
C429 C87 1.324 . S
C433 C225 1.324 . S
C447 C110 1.321 . S
C451 C340 1.324 . S
C465 C133 1.324 . S
C469 C363 1.323 . S
C483 C156 1.321 . S
C487 C294 1.324 . S
C501 C179 1.321 . S
C505 C317 1.324 . S
C519 C224 1.079 . S
C523 C21 1.072 . S
C537 C247 1.077 . S
C541 C44 1.069 . S
C555 C270 1.075 . S
C559 C67 1.068 . S
C573 C201 1.069 . S
C577 C90 1.059 . S
C591 C113 1.072 . S
C595 C316 1.078 . S
C609 C339 1.074 . S
C613 C136 1.064 . S
C627 C362 1.074 . S
C631 C159 1.064 . S
C645 C293 1.079 . S
C649 C182 1.072 . S
C663 C40 1.073 . S
C667 C205 1.066 . S
C681 C228 1.061 . S
C685 C63 1.072 . S
C699 C251 1.061 . S
C703 C86 1.071 . S
C717 C274 1.069 . S
C721 C17 1.075 . S
C735 C297 1.058 . S
C739 C132 1.069 . S
C753 C155 1.072 . S
C757 C320 1.061 . S
C771 C178 1.076 . S
C775 C343 1.069 . S
C789 C366 1.063 . S
C793 C109 1.071 . S
C807 C19 0.973 . S
C811 C361 1.027 . S
C825 C42 0.998 . S
C829 C108 1.020 . S
C843 C315 1.023 1_455 S
C847 C65 0.994 . S
C861 C154 1.019 . S
C865 C88 0.983 . S
C879 C111 0.993 . S
C883 C269 1.023 . S
C897 C134 0.977 . S
C901 C16 1.023 . S
C915 C223 1.025 1_655 S
C919 C157 0.975 . S
C933 C62 1.026 . S
C937 C180 0.974 . S
C951 C203 0.972 . S
C955 C177 1.029 1_655 S
C969 C226 0.995 . S
C973 C292 1.015 . S
C987 C131 1.030 . S
C991 C249 0.973 . S
C1005 C338 1.030 . S
C1009 C272 0.976 . S
C1023 C295 0.999 . S
C1027 C85 1.019 1_455 S
C1041 C318 0.977 . S
C1045 C200 1.030 . S
C1059 C341 0.972 . S
C1063 C39 1.029 . S
C1077 C246 1.020 . S
C1081 C364 0.998 . S
C1095 C20 2.038 . S
C1099 C296 2.038 . S
C1113 C43 2.032 . S
C1117 C135 2.032 . S
C1131 C66 2.039 . S
C1135 C342 2.039 . S
C1149 C181 2.039 . S
C1153 C89 2.039 . S
C1167 C112 2.034 . S
C1171 C204 2.034 . S
C1185 C250 2.037 . S
C1189 C158 2.037 . S
C1203 C227 2.037 . S
C1207 C319 2.037 . S
C1221 C365 2.030 . S
C1225 C273 2.030 . S
