# Generated by pormake.
# Topology vcj, (7)-cn, num edge types: 1
# Building blocks:
#     Node 0, Type 0, BuildingBlock: HICVOG_clean_sbu_0, # of connection points: 7
#     Node 1, Type 0, BuildingBlock: HICVOG_clean_sbu_0, # of connection points: 7
#     Node 2, Type 0, BuildingBlock: HICVOG_clean_sbu_0, # of connection points: 7
#     Node 3, Type 0, BuildingBlock: HICVOG_clean_sbu_0, # of connection points: 7
#     Node 4, Type 0, BuildingBlock: HICVOG_clean_sbu_0, # of connection points: 7
#     Node 5, Type 0, BuildingBlock: HICVOG_clean_sbu_0, # of connection points: 7
#     Node 6, Type 0, BuildingBlock: HICVOG_clean_sbu_0, # of connection points: 7
#     Node 7, Type 0, BuildingBlock: HICVOG_clean_sbu_0, # of connection points: 7
#     Edge 8, Type (0, 0), BuildingBlock: XIVTED_clean_linker_0, # of connection points: 2
#     Edge 9, Type (0, 0), BuildingBlock: XIVTED_clean_linker_0, # of connection points: 2
#     Edge 10, Type (0, 0), BuildingBlock: XIVTED_clean_linker_0, # of connection points: 2
#     Edge 11, Type (0, 0), BuildingBlock: XIVTED_clean_linker_0, # of connection points: 2
#     Edge 12, Type (0, 0), BuildingBlock: XIVTED_clean_linker_0, # of connection points: 2
#     Edge 13, Type (0, 0), BuildingBlock: XIVTED_clean_linker_0, # of connection points: 2
#     Edge 14, Type (0, 0), BuildingBlock: XIVTED_clean_linker_0, # of connection points: 2
#     Edge 15, Type (0, 0), BuildingBlock: XIVTED_clean_linker_0, # of connection points: 2
#     Edge 16, Type (0, 0), BuildingBlock: XIVTED_clean_linker_0, # of connection points: 2
#     Edge 17, Type (0, 0), BuildingBlock: XIVTED_clean_linker_0, # of connection points: 2
#     Edge 18, Type (0, 0), BuildingBlock: XIVTED_clean_linker_0, # of connection points: 2
#     Edge 19, Type (0, 0), BuildingBlock: XIVTED_clean_linker_0, # of connection points: 2
#     Edge 20, Type (0, 0), BuildingBlock: XIVTED_clean_linker_0, # of connection points: 2
#     Edge 21, Type (0, 0), BuildingBlock: XIVTED_clean_linker_0, # of connection points: 2
#     Edge 22, Type (0, 0), BuildingBlock: XIVTED_clean_linker_0, # of connection points: 2
#     Edge 23, Type (0, 0), BuildingBlock: XIVTED_clean_linker_0, # of connection points: 2
#     Edge 24, Type (0, 0), BuildingBlock: XIVTED_clean_linker_0, # of connection points: 2
#     Edge 25, Type (0, 0), BuildingBlock: XIVTED_clean_linker_0, # of connection points: 2
#     Edge 26, Type (0, 0), BuildingBlock: XIVTED_clean_linker_0, # of connection points: 2
#     Edge 27, Type (0, 0), BuildingBlock: XIVTED_clean_linker_0, # of connection points: 2
#     Edge 28, Type (0, 0), BuildingBlock: XIVTED_clean_linker_0, # of connection points: 2
#     Edge 29, Type (0, 0), BuildingBlock: XIVTED_clean_linker_0, # of connection points: 2
#     Edge 30, Type (0, 0), BuildingBlock: XIVTED_clean_linker_0, # of connection points: 2
#     Edge 31, Type (0, 0), BuildingBlock: XIVTED_clean_linker_0, # of connection points: 2
#     Edge 32, Type (0, 0), BuildingBlock: XIVTED_clean_linker_0, # of connection points: 2
#     Edge 33, Type (0, 0), BuildingBlock: XIVTED_clean_linker_0, # of connection points: 2
#     Edge 34, Type (0, 0), BuildingBlock: XIVTED_clean_linker_0, # of connection points: 2
#     Edge 35, Type (0, 0), BuildingBlock: XIVTED_clean_linker_0, # of connection points: 2
# Relax obj value: 0.121
# Max RMSD: 0.193
# Mean RMSD: 0.193
data_MOF--net-vcj--node1-HICVOG_clean_sbu_0--edge1-XIVTED_clean_linker_0
_symmetry_space_group_name_H-M    P1
_symmetry_Int_Tables_number       1
_symmetry_cell_setting            triclinic
loop_
_symmetry_equiv_pos_as_xyz
'x, y, z'
_cell_length_a     35.650536
_cell_length_b     45.511991
_cell_length_c     22.096905
_cell_angle_alpha  89.974696
_cell_angle_beta   90.002688
_cell_angle_gamma 90.028418
loop_
_atom_site_label
_atom_site_type_symbol
_atom_site_fract_x
_atom_site_fract_y
_atom_site_fract_z
_atom_type_partial_charge
Zn0 Zn 0.33684 0.42762 0.25481 0.0
C1 C 0.39728 0.46521 0.1271 0.0
N2 N 0.36927 0.48485 0.12882 0.0
C3 C 0.34305 0.47116 0.16191 0.0
N4 N 0.35441 0.44421 0.1795 0.0
N5 N 0.38831 0.43997 0.15638 0.0
C6 C 0.48076 0.40656 0.20968 0.0
O7 O 0.45684 0.40392 0.25456 0.0
O8 O 0.28034 0.43004 0.263 0.0
Zn9 Zn 0.41217 0.40125 0.14584 0.0
N10 N 0.35846 0.45125 0.31913 0.0
C11 C 0.4103 0.4785 0.35734 0.0
C12 C 0.39458 0.46037 0.31326 0.0
C13 C 0.3375 0.45922 0.36794 0.0
N14 N 0.38928 0.4868 0.40565 0.0
C15 C 0.35323 0.47753 0.41268 0.0
O16 O 0.3971 0.3696 0.20788 0.0
C17 C 0.37469 0.36573 0.25223 0.0
O18 O 0.35239 0.38581 0.26974 0.0
H19 H 0.4109 0.45387 0.27429 0.0
H20 H 0.30864 0.45201 0.37083 0.0
C21 C 0.40715 0.35871 0.04375 0.0
C22 C 0.39851 0.35101 0.98322 0.0
C23 C 0.37592 0.39934 0.96633 0.0
C24 C 0.38402 0.40672 0.02589 0.0
N25 N 0.40027 0.38674 0.06349 0.0
N26 N 0.38342 0.37186 0.94646 0.0
H27 H 0.41954 0.34285 0.07428 0.0
C28 C 0.25909 0.41018 0.24154 0.0
O29 O 0.27408 0.38854 0.21052 0.0
O30 O 0.46837 0.40643 0.15565 0.0
H31 H 0.37707 0.42835 0.04167 0.0
H32 H 0.43892 0.48611 0.35299 0.0
H33 H 0.36346 0.4153 0.93611 0.0
Zn34 Zn 0.16188 0.60058 0.75363 0.0
C35 C 0.10357 0.56167 0.6246 0.0
N36 N 0.13166 0.54218 0.62803 0.0
C37 C 0.15727 0.5562 0.66179 0.0
N38 N 0.14539 0.58319 0.67829 0.0
N39 N 0.11181 0.58707 0.65373 0.0
C40 C 0.0165 0.61678 0.68874 0.0
O41 O 0.03704 0.61423 0.73781 0.0
O42 O 0.21868 0.60058 0.75922 0.0
Zn43 Zn 0.08925 0.62569 0.63861 0.0
N44 N 0.14167 0.57568 0.81743 0.0
C45 C 0.08954 0.54847 0.85485 0.0
C46 C 0.10539 0.56699 0.81158 0.0
C47 C 0.16277 0.5667 0.86537 0.0
N48 N 0.11058 0.53941 0.90254 0.0
C49 C 0.14684 0.54815 0.90953 0.0
O50 O 0.10086 0.65714 0.70237 0.0
C51 C 0.12054 0.66132 0.74986 0.0
O52 O 0.14287 0.64174 0.76981 0.0
H53 H 0.08901 0.57417 0.7732 0.0
H54 H 0.19181 0.5733 0.86825 0.0
C55 C 0.09882 0.66688 0.53612 0.0
C56 C 0.11032 0.67414 0.47669 0.0
C57 C 0.13633 0.62645 0.46593 0.0
C58 C 0.12519 0.61944 0.52443 0.0
N59 N 0.10606 0.63939 0.55838 0.0
N60 N 0.12853 0.65343 0.44345 0.0
H61 H 0.08378 0.68259 0.56372 0.0
C62 C 0.23488 0.61452 0.80173 0.0
O63 O 0.2143 0.62917 0.84073 0.0
O64 O 0.03275 0.62146 0.63839 0.0
H65 H 0.13183 0.59807 0.54221 0.0
H66 H 0.06075 0.54124 0.85046 0.0
H67 H 0.15115 0.61057 0.43849 0.0
Zn68 Zn 0.91192 0.12576 0.892 0.0
C69 C 0.84493 0.05593 0.86662 0.0
N70 N 0.87134 0.04169 0.89836 0.0
C71 C 0.89912 0.06147 0.90198 0.0
N72 N 0.8899 0.0872 0.87507 0.0
N73 N 0.85606 0.08334 0.8515 0.0
C74 C 0.76566 0.11546 0.73036 0.0
O75 O 0.78594 0.13035 0.69128 0.0
O76 O 0.96847 0.12162 0.89397 0.0
Zn77 Zn 0.83908 0.10107 0.77665 0.0
N78 N 0.89377 0.13886 0.97202 0.0
C79 C 0.86233 0.1247 0.06273 0.0
C80 C 0.87453 0.11837 1.00447 0.0
C81 C 0.90008 0.16625 0.99557 0.0
N82 N 0.86916 0.15158 0.08647 0.0
C83 C 0.88745 0.17283 0.05478 0.0
O84 O 0.85864 0.14223 0.76048 0.0
C85 C 0.8813 0.16158 0.78054 0.0
O86 O 0.90088 0.15716 0.82807 0.0
H87 H 0.86864 0.09707 0.98564 0.0
H88 H 0.91522 0.1824 0.96916 0.0
C89 C 0.83695 0.06753 0.66437 0.0
C90 C 0.85227 0.04885 0.61991 0.0
C91 C 0.90981 0.04834 0.67391 0.0
C92 C 0.89458 0.067 0.71746 0.0
N93 N 0.85845 0.07615 0.71214 0.0
N94 N 0.88836 0.03964 0.62643 0.0
H95 H 0.80804 0.07452 0.66183 0.0
C96 C 0.98503 0.11578 0.84439 0.0
O97 O 0.96474 0.11214 0.79533 0.0
O98 O 0.7822 0.1013 0.77226 0.0
H99 H 0.91131 0.07392 0.75564 0.0
H100 H 0.84742 0.10837 0.08896 0.0
H101 H 0.93845 0.04074 0.67791 0.0
Zn102 Zn 0.66278 0.92528 0.2771 0.0
C103 C 0.60312 0.96508 0.40337 0.0
N104 N 0.63137 0.98446 0.40001 0.0
C105 C 0.65725 0.9701 0.3675 0.0
N106 N 0.64541 0.943 0.35167 0.0
N107 N 0.61158 0.93938 0.3756 0.0
C108 C 0.51754 0.90647 0.32773 0.0
O109 O 0.54071 0.90329 0.28198 0.0
O110 O 0.7197 0.92543 0.27301 0.0
Zn111 Zn 0.58723 0.90121 0.38925 0.0
N112 N 0.6432 0.94982 0.21211 0.0
C113 C 0.59099 0.97608 0.17229 0.0
C114 C 0.60654 0.95773 0.21613 0.0
C115 C 0.66495 0.95937 0.16535 0.0
N116 N 0.61266 0.9857 0.12581 0.0
C117 C 0.64932 0.97772 0.12056 0.0
O118 O 0.60098 0.86927 0.3279 0.0
C119 C 0.62149 0.86461 0.28156 0.0
O120 O 0.64408 0.884 0.26158 0.0
H121 H 0.58962 0.95004 0.25352 0.0
H122 H 0.69424 0.95333 0.16386 0.0
C123 C 0.59318 0.85939 0.49248 0.0
C124 C 0.60243 0.85208 0.55301 0.0
C125 C 0.62545 0.90049 0.56767 0.0
C126 C 0.61675 0.90746 0.50809 0.0
N127 N 0.60003 0.88725 0.47163 0.0
N128 N 0.61802 0.87317 0.58865 0.0
H129 H 0.58036 0.84336 0.4628 0.0
C130 C 0.7365 0.91155 0.23102 0.0
O131 O 0.71646 0.89682 0.19138 0.0
O132 O 0.53083 0.90678 0.38122 0.0
H133 H 0.62359 0.92896 0.49132 0.0
H134 H 0.56191 0.9827 0.17525 0.0
H135 H 0.6383 0.91663 0.59702 0.0
Zn136 Zn 0.58788 0.6249 0.89241 0.0
C137 C 0.66055 0.55866 0.87086 0.0
N138 N 0.63544 0.54303 0.90261 0.0
C139 C 0.60553 0.56091 0.90461 0.0
N140 N 0.61233 0.58698 0.87695 0.0
N141 N 0.64669 0.58504 0.85452 0.0
C142 C 0.73591 0.61685 0.73248 0.0
O143 O 0.71567 0.63123 0.69255 0.0
O144 O 0.53155 0.61934 0.8919 0.0
Zn145 Zn 0.66256 0.60236 0.77907 0.0
N146 N 0.6039 0.63882 0.97306 0.0
C147 C 0.63232 0.6256 0.0669 0.0
C148 C 0.62164 0.61857 1.00822 0.0
C149 C 0.59757 0.66663 0.99442 0.0
N150 N 0.62544 0.6529 0.08844 0.0
C151 C 0.60859 0.6739 0.05411 0.0
O152 O 0.64224 0.64305 0.76246 0.0
C153 C 0.6186 0.66178 0.78193 0.0
O154 O 0.59857 0.65676 0.82875 0.0
H155 H 0.62755 0.59694 0.99126 0.0
H156 H 0.58362 0.68258 0.96591 0.0
C157 C 0.66482 0.56808 0.66766 0.0
C158 C 0.64956 0.54902 0.62381 0.0
C159 C 0.59221 0.54837 0.67836 0.0
C160 C 0.60738 0.56739 0.7213 0.0
N161 N 0.64338 0.57681 0.71542 0.0
N162 N 0.6136 0.53957 0.6309 0.0
H163 H 0.69362 0.5753 0.66466 0.0
C164 C 0.5157 0.61456 0.84126 0.0
O165 O 0.53657 0.6126 0.79244 0.0
O166 O 0.71935 0.60304 0.77483 0.0
H167 H 0.5907 0.5744 0.75944 0.0
H168 H 0.64607 0.60948 0.09522 0.0
H169 H 0.56368 0.54057 0.68281 0.0
Zn170 Zn 0.91217 0.40085 0.38864 0.0
C171 C 0.84268 0.47016 0.3656 0.0
N172 N 0.86885 0.48465 0.39727 0.0
C173 C 0.89699 0.46521 0.40106 0.0
N174 N 0.88816 0.43927 0.37436 0.0
N175 N 0.8543 0.4429 0.35053 0.0
C176 C 0.75763 0.40895 0.29316 0.0
O177 O 0.77133 0.38819 0.32809 0.0
O178 O 0.96868 0.40586 0.378 0.0
Zn179 Zn 0.83637 0.42419 0.2773 0.0
N180 N 0.90055 0.38778 0.47201 0.0
C181 C 0.87735 0.40177 0.569 0.0
C182 C 0.88537 0.40846 0.50904 0.0
C183 C 0.90644 0.35976 0.49267 0.0
N184 N 0.88383 0.37426 0.58977 0.0
C185 C 0.89784 0.35273 0.55357 0.0
O186 O 0.85181 0.38195 0.26608 0.0
C187 C 0.87435 0.36261 0.28623 0.0
O188 O 0.89634 0.36795 0.33044 0.0
H189 H 0.87915 0.43008 0.49237 0.0
H190 H 0.91797 0.34337 0.46248 0.0
C191 C 0.83752 0.46122 0.17051 0.0
C192 C 0.85446 0.47338 0.1187 0.0
C193 C 0.9128 0.45314 0.14902 0.0
C194 C 0.89585 0.44097 0.2001 0.0
N195 N 0.85855 0.44493 0.20951 0.0
N196 N 0.89171 0.46877 0.10923 0.0
H197 H 0.80776 0.46379 0.1786 0.0
C198 C 0.98238 0.4003 0.32602 0.0
O199 O 0.95977 0.39169 0.28263 0.0
O200 O 0.77996 0.42712 0.26844 0.0
H201 H 0.91205 0.42799 0.23157 0.0
H202 H 0.86572 0.41827 0.59881 0.0
H203 H 0.9424 0.44987 0.14064 0.0
Zn204 Zn 0.16245 0.92696 0.25695 0.0
C205 C 0.10417 0.96481 0.12696 0.0
N206 N 0.13202 0.98454 0.1301 0.0
C207 C 0.15784 0.97076 0.16386 0.0
N208 N 0.14633 0.94369 0.18057 0.0
N209 N 0.11278 0.93951 0.15608 0.0
C210 C 0.01741 0.91119 0.18984 0.0
O211 O 0.03782 0.91524 0.23863 0.0
O212 O 0.21907 0.92773 0.26607 0.0
Zn213 Zn 0.09039 0.9008 0.14128 0.0
N214 N 0.14199 0.95206 0.31995 0.0
C215 C 0.09161 0.98159 0.3558 0.0
C216 C 0.10656 0.96248 0.31284 0.0
C217 C 0.16304 0.95976 0.36888 0.0
N218 N 0.11271 0.98958 0.40424 0.0
C219 C 0.14811 0.97909 0.41249 0.0
O220 O 0.10197 0.86999 0.20605 0.0
C221 C 0.12154 0.86609 0.25375 0.0
O222 O 0.14373 0.8858 0.2736 0.0
H223 H 0.09022 0.95626 0.27369 0.0
H224 H 0.19141 0.95154 0.37268 0.0
C225 C 0.10039 0.85905 0.03926 0.0
C226 C 0.11252 0.85158 0.98021 0.0
C227 C 0.1393 0.89908 0.96998 0.0
C228 C 0.12752 0.90629 0.02805 0.0
N229 N 0.10773 0.88654 0.06155 0.0
N230 N 0.13143 0.87212 0.94747 0.0
H231 H 0.08479 0.8435 0.0665 0.0
C232 C 0.24067 0.90914 0.24104 0.0
O233 O 0.22617 0.889 0.20545 0.0
O234 O 0.03382 0.90499 0.14032 0.0
H235 H 0.13419 0.92766 0.04588 0.0
H236 H 0.06353 0.99022 0.35046 0.0
H237 H 0.15468 0.91482 0.9429 0.0
Zn238 Zn 0.41185 0.12602 0.64123 0.0
C239 C 0.34429 0.05651 0.66463 0.0
N240 N 0.3701 0.04252 0.63123 0.0
C241 C 0.39818 0.06206 0.62821 0.0
N242 N 0.38978 0.0874 0.65724 0.0
N243 N 0.35606 0.08353 0.6813 0.0
C244 C 0.26593 0.11483 0.80386 0.0
O245 O 0.28608 0.12937 0.84364 0.0
O246 O 0.46839 0.12199 0.63666 0.0
Zn247 Zn 0.33945 0.10082 0.75673 0.0
N248 N 0.39121 0.14045 0.56383 0.0
C249 C 0.35072 0.12973 0.48077 0.0
C250 C 0.36869 0.12119 0.53373 0.0
C251 C 0.39668 0.16828 0.54194 0.0
N252 N 0.35548 0.15742 0.45981 0.0
C253 C 0.37798 0.17712 0.48851 0.0
O254 O 0.35921 0.14174 0.77409 0.0
C255 C 0.38238 0.16089 0.75479 0.0
O256 O 0.40192 0.15658 0.70721 0.0
H257 H 0.36395 0.09938 0.55094 0.0
H258 H 0.41417 0.18354 0.56672 0.0
C259 C 0.33809 0.06659 0.86817 0.0
C260 C 0.35391 0.04787 0.91211 0.0
C261 C 0.41117 0.04805 0.85732 0.0
C262 C 0.39545 0.06674 0.81429 0.0
N263 N 0.35923 0.07557 0.82026 0.0
N264 N 0.39009 0.03899 0.90495 0.0
H265 H 0.30912 0.07336 0.87119 0.0
C266 C 0.48501 0.11598 0.68613 0.0
O267 O 0.46473 0.11215 0.73514 0.0
O268 O 0.28258 0.10104 0.7616 0.0
H269 H 0.41189 0.07399 0.77602 0.0
H270 H 0.33262 0.11457 0.45689 0.0
H271 H 0.43989 0.04072 0.85283 0.0
H272 H 0.31727 0.5264 0.17919 0.0
H273 H 0.14175 0.49462 0.96488 0.0
H274 H 0.28163 0.43928 0.1295 0.0
H275 H 0.20118 0.57711 0.97508 0.0
H276 H 0.18067 0.47568 0.04765 0.0
H277 H 0.26117 0.5465 0.13085 0.0
C278 C 0.29663 0.51141 0.16066 0.0
C279 C 0.30386 0.48115 0.15871 0.0
C280 C 0.18489 0.498 0.03206 0.0
C281 C 0.24053 0.50398 0.10113 0.0
C282 C 0.16276 0.50883 0.98483 0.0
C283 C 0.16882 0.53726 0.962 0.0
C284 C 0.21289 0.51589 0.05732 0.0
C285 C 0.19622 0.55478 0.98993 0.0
C286 C 0.26493 0.5229 0.13225 0.0
C287 C 0.27666 0.46267 0.13311 0.0
N288 N 0.21734 0.54375 0.03584 0.0
N289 N 0.24649 0.47442 0.10415 0.0
H290 H 0.21968 0.58854 0.63532 0.0
H291 H 0.30031 0.44719 0.47836 0.0
H292 H 0.1828 0.50081 0.67791 0.0
H293 H 0.35654 0.53102 0.4686 0.0
H294 H 0.26158 0.46595 0.56072 0.0
H295 H 0.27605 0.56808 0.58819 0.0
C296 C 0.22441 0.56506 0.63763 0.0
C297 C 0.19659 0.54629 0.66046 0.0
C298 C 0.28263 0.48022 0.54109 0.0
C299 C 0.25982 0.52265 0.60382 0.0
C300 C 0.30448 0.46958 0.49348 0.0
C301 C 0.33112 0.48778 0.46556 0.0
C302 C 0.28697 0.50945 0.56054 0.0
C303 C 0.33605 0.51633 0.48846 0.0
C304 C 0.25629 0.55331 0.60967 0.0
C305 C 0.20363 0.51599 0.66066 0.0
N306 N 0.31375 0.52647 0.53388 0.0
N307 N 0.23406 0.50505 0.63139 0.0
H308 H 0.81955 1.00051 0.85043 0.0
H309 H 0.64373 0.03122 0.065 0.0
H310 H 0.78272 0.08771 0.89734 0.0
H311 H 0.70533 0.94971 0.05708 0.0
H312 H 0.68268 0.05051 0.98247 0.0
H313 H 0.76413 0.98023 0.90031 0.0
C314 C 0.79883 0.01546 0.86883 0.0
C315 C 0.80573 0.04579 0.86992 0.0
C316 C 0.6874 0.02834 0.99856 0.0
C317 C 0.74308 0.02274 0.92924 0.0
C318 C 0.66527 0.01731 0.04567 0.0
C319 C 0.67181 0.98903 0.06896 0.0
C320 C 0.71586 1.01077 0.9738 0.0
C321 C 0.69991 0.97191 0.04183 0.0
C322 C 0.76753 1.00386 0.89818 0.0
C323 C 0.77827 0.0642 0.89503 0.0
N324 N 0.72093 0.98309 0.99594 0.0
N325 N 0.74847 0.05235 0.92498 0.0
H326 H 0.71908 0.93759 0.39638 0.0
H327 H 0.79875 0.07885 0.55482 0.0
H328 H 0.68341 0.02533 0.3514 0.0
H329 H 0.85561 0.9953 0.56431 0.0
H330 H 0.76027 0.05997 0.47225 0.0
H331 H 0.77501 0.95799 0.44502 0.0
C332 C 0.72401 0.96105 0.3939 0.0
C333 C 0.69662 0.97985 0.36992 0.0
C334 C 0.78139 0.04579 0.4919 0.0
C335 C 0.75929 1.00343 0.42831 0.0
C336 C 0.80308 0.05648 0.53966 0.0
C337 C 0.82988 0.0384 0.5675 0.0
C338 C 0.78606 0.01664 0.47219 0.0
C339 C 0.83501 1.00989 0.54452 0.0
C340 C 0.75563 0.97277 0.42272 0.0
C341 C 0.7039 1.01013 0.36953 0.0
N342 N 0.81288 0.99971 0.49891 0.0
N343 N 0.73403 0.02104 0.39967 0.0
H344 H 0.69764 0.50851 0.84133 0.0
H345 H 0.80586 0.51889 0.13814 0.0
H346 H 0.71234 0.59313 0.92518 0.0
H347 H 0.85349 0.46555 0.99649 0.0
H348 H 0.7682 0.54486 0.06196 0.0
H349 H 0.75387 0.4908 0.89403 0.0
C350 C 0.71381 0.52373 0.86855 0.0
C351 C 0.7007 0.55234 0.87858 0.0
C352 C 0.78728 0.52771 0.04755 0.0
C353 C 0.7632 0.53182 0.94165 0.0
C354 C 0.80837 0.51273 0.09096 0.0
C355 C 0.83245 0.48994 0.07341 0.0
C356 C 0.7895 0.51926 0.98652 0.0
C357 C 0.8351 0.48298 1.01165 0.0
C358 C 0.74557 0.51355 0.89911 0.0
C359 C 0.72193 0.57103 0.91565 0.0
N360 N 0.81326 0.49717 0.97042 0.0
N361 N 0.75148 0.56017 0.94752 0.0
H362 H 0.783 0.43745 0.40246 0.0
H363 H 0.70285 0.57883 0.55757 0.0
H364 H 0.81484 0.52487 0.34841 0.0
H365 H 0.64622 0.4952 0.56947 0.0
H366 H 0.74089 0.55964 0.47469 0.0
H367 H 0.72757 0.45756 0.45252 0.0
C368 C 0.77714 0.46069 0.39802 0.0
C369 C 0.80324 0.47949 0.37053 0.0
C370 C 0.7199 0.54553 0.49496 0.0
C371 C 0.74144 0.50295 0.43149 0.0
C372 C 0.69848 0.55639 0.5429 0.0
C373 C 0.67185 0.53839 0.57144 0.0
C374 C 0.71512 0.5163 0.47583 0.0
C375 C 0.66668 0.50976 0.54911 0.0
C376 C 0.74589 0.4723 0.42787 0.0
C377 C 0.79522 0.50964 0.36885 0.0
N378 N 0.68852 0.49944 0.50332 0.0
N379 N 0.76555 0.52053 0.40023 0.0
H380 H 0.35893 0.99427 0.96707 0.0
H381 H 0.18411 0.02577 0.18286 0.0
H382 H 0.2997 0.07678 0.97804 0.0
H383 H 0.21888 0.93883 0.13063 0.0
H384 H 0.24028 0.04592 0.13467 0.0
H385 H 0.32018 0.97526 0.04997 0.0
C386 C 0.33799 1.00847 0.98721 0.0
C387 C 0.33194 0.03693 0.96455 0.0
C388 C 0.23633 0.02232 0.13557 0.0
C389 C 0.28808 0.01547 0.06004 0.0
C390 C 0.2046 1.0108 0.16392 0.0
C391 C 0.19712 0.98059 0.16124 0.0
C392 C 0.2605 1.00347 0.10386 0.0
C393 C 0.2241 0.96215 0.13502 0.0
C394 C 0.31597 0.9976 0.03452 0.0
C395 C 0.30464 0.05443 0.99274 0.0
N396 N 0.2543 0.97393 0.10619 0.0
N397 N 0.28361 0.04336 0.03873 0.0
H398 H 0.28225 0.08913 0.63748 0.0
H399 H 0.19987 0.94812 0.4796 0.0
H400 H 0.31834 1.00109 0.67898 0.0
H401 H 0.14629 0.0329 0.46724 0.0
H402 H 0.23872 0.96661 0.5621 0.0
H403 H 0.226 0.06904 0.58922 0.0
C404 C 0.27737 0.06564 0.63927 0.0
C405 C 0.30493 0.04669 0.66221 0.0
C406 C 0.21823 0.98115 0.54182 0.0
C407 C 0.24184 0.02349 0.60426 0.0
C408 C 0.19632 0.97066 0.49411 0.0
C409 C 0.17037 0.98919 0.46541 0.0
C410 C 0.21464 1.01054 0.56066 0.0
C411 C 0.16621 0.01794 0.48767 0.0
C412 C 0.24556 0.05411 0.61065 0.0
C413 C 0.29771 0.01641 0.66171 0.0
N414 N 0.18853 0.02788 0.53325 0.0
N415 N 0.26735 1.0057 0.63185 0.0
H416 H 0.39829 0.4784 1.00838 0.0
H417 H 0.60536 0.54572 0.02258 0.0
H418 H 0.47047 0.46948 0.16353 0.0
H419 H 0.53294 0.554 0.86764 0.0
H420 H 0.55615 0.51861 0.07568 0.0
H421 H 0.44831 0.50403 0.95458 0.0
C422 C 0.42533 0.48085 0.03022 0.0
C423 C 0.4307 0.47106 0.08982 0.0
C424 C 0.55061 0.52682 0.03055 0.0
C425 C 0.48753 0.50194 0.02972 0.0
C426 C 0.57845 0.54272 1.00061 0.0
C427 C 0.57264 0.55295 0.94144 0.0
C428 C 0.5168 0.52058 1.00069 0.0
C429 C 0.53791 0.54752 0.91407 0.0
C430 C 0.45366 0.49597 0.99988 0.0
C431 C 0.46568 0.47581 0.11693 0.0
N432 N 0.51134 0.53154 0.9438 0.0
N433 N 0.49272 0.49118 0.08685 0.0
H434 H 0.89629 0.48116 0.51818 0.0
H435 H 0.10313 0.5488 0.50551 0.0
H436 H 0.97086 0.4686 0.3671 0.0
H437 H 0.03091 0.55565 0.66094 0.0
H438 H 0.05397 0.52185 0.45183 0.0
H439 H 0.9455 0.50781 0.57152 0.0
C440 C 0.92367 0.48305 0.49723 0.0
C441 C 0.92993 0.47191 0.43889 0.0
C442 C 0.04845 0.52977 0.49716 0.0
C443 C 0.9859 0.50403 0.49832 0.0
C444 C 0.07622 0.54565 0.52738 0.0
C445 C 0.07051 0.5553 0.58698 0.0
C446 C 0.01483 0.52306 0.52713 0.0
C447 C 0.03582 0.54963 0.61423 0.0
C448 C 0.95155 0.49876 0.52727 0.0
C449 C 0.96534 0.47603 0.41278 0.0
N450 N 0.00935 0.53369 0.58424 0.0
N451 N 0.99196 0.49203 0.44248 0.0
H452 H 0.10233 0.97432 1.00653 0.0
H453 H 0.90106 0.05171 0.0223 0.0
H454 H 0.03255 0.97359 0.16547 0.0
H455 H 0.97065 0.05242 0.86313 0.0
H456 H 0.94975 0.02465 0.07657 0.0
H457 H 0.0536 1.00129 0.95203 0.0
C458 C 0.07596 0.97878 0.02911 0.0
C459 C 0.07083 0.97087 0.08989 0.0
C460 C 0.95488 0.03126 0.03022 0.0
C461 C 0.01578 1.0033 0.02906 0.0
C462 C 0.9274 0.04725 0.99962 0.0
C463 C 0.93249 0.05521 0.93886 0.0
C464 C 0.98749 0.02261 0.99944 0.0
C465 C 0.9663 0.04766 0.91062 0.0
C466 C 0.04845 0.99469 0.99838 0.0
C467 C 0.03693 0.97831 0.11797 0.0
N468 N 0.99245 0.03158 0.94101 0.0
N469 N 0.01077 0.99433 0.08748 0.0
H470 H 0.39954 0.05187 0.50803 0.0
H471 H 0.60316 0.97855 0.52189 0.0
H472 H 0.46996 0.05375 0.66618 0.0
H473 H 0.53002 0.97081 0.36764 0.0
H474 H 0.55441 1.00544 0.57582 0.0
H475 H 0.44824 0.02466 0.45372 0.0
C476 C 0.42603 0.04758 0.53043 0.0
C477 C 0.43137 0.05586 0.59095 0.0
C478 C 0.54854 0.99737 0.53071 0.0
C479 C 0.48639 0.02335 0.53038 0.0
C480 C 0.57612 0.9815 0.50032 0.0
C481 C 0.57011 0.97165 0.44096 0.0
C482 C 0.51482 1.00409 0.50108 0.0
C483 C 0.53524 0.97719 0.41408 0.0
C484 C 0.45349 0.03155 0.49984 0.0
C485 C 0.46542 0.04876 0.61885 0.0
N486 N 0.50896 0.99331 0.44416 0.0
N487 N 0.49157 0.03272 0.58847 0.0
H488 H 0.42267 0.21017 0.72344 0.0
H489 H 0.38275 0.29678 0.03393 0.0
H490 H 0.35521 0.17438 0.86804 0.0
H491 H 0.42519 0.33764 0.87173 0.0
H492 H 0.38159 0.24928 0.98057 0.0
H493 H 0.43184 0.25481 0.78319 0.0
C494 C 0.40976 0.21164 0.76771 0.0
C495 C 0.38787 0.18842 0.79033 0.0
C496 C 0.39161 0.26861 0.95701 0.0
C497 C 0.39868 0.23962 0.85959 0.0
C498 C 0.3927 0.29563 0.98769 0.0
C499 C 0.40418 0.3212 0.95727 0.0
C500 C 0.4024 0.26717 0.89575 0.0
C501 C 0.41606 0.31851 0.89689 0.0
C502 C 0.41506 0.23718 0.8019 0.0
C503 C 0.37204 0.19172 0.84834 0.0
N504 N 0.41477 0.29212 0.86819 0.0
N505 N 0.37776 0.21676 0.88088 0.0
H506 H 0.14674 0.85403 0.36858 0.0
H507 H 0.0887 0.68513 0.36126 0.0
H508 H 0.08617 0.81488 0.21986 0.0
H509 H 0.11946 0.7294 0.5264 0.0
H510 H 0.08824 0.73231 0.30863 0.0
H511 H 0.13886 0.80857 0.42625 0.0
C512 C 0.13185 0.83588 0.34787 0.0
C513 C 0.11728 0.83835 0.28892 0.0
C514 C 0.09461 0.73186 0.35654 0.0
C515 C 0.10812 0.78608 0.35517 0.0
C516 C 0.09481 0.70491 0.38668 0.0
C517 C 0.10398 0.70332 0.44839 0.0
C518 C 0.10444 0.75755 0.38787 0.0
C519 C 0.1118 0.72965 0.479 0.0
C520 C 0.12715 0.80997 0.38113 0.0
C521 C 0.09797 0.81407 0.26497 0.0
N522 N 0.11235 0.75566 0.44823 0.0
N523 N 0.09421 0.78896 0.29796 0.0
H524 H 0.87937 0.22835 1.00571 0.0
H525 H 0.90962 0.31165 0.3223 0.0
H526 H 0.90528 0.18333 0.17228 0.0
H527 H 0.84762 0.34909 0.17326 0.0
H528 H 0.91727 0.26629 0.26368 0.0
H529 H 0.87803 0.27508 0.06163 0.0
C530 C 0.8856 0.22837 0.05368 0.0
C531 C 0.89253 0.20191 0.08436 0.0
C532 C 0.90194 0.28445 0.24393 0.0
C533 C 0.89064 0.25512 0.14864 0.0
C534 C 0.89749 0.31034 0.27743 0.0
C535 C 0.87765 0.33423 0.25305 0.0
C536 C 0.88701 0.28252 0.18514 0.0
C537 C 0.86278 0.33121 0.19434 0.0
C538 C 0.8844 0.25497 0.08571 0.0
C539 C 0.89971 0.2032 0.14686 0.0
N540 N 0.8679 0.30596 0.1624 0.0
N541 N 0.89857 0.22927 0.17686 0.0
H542 H 0.57903 0.71126 0.81477 0.0
H543 H 0.61597 0.79745 0.50254 0.0
H544 H 0.64504 0.67551 0.66855 0.0
H545 H 0.5782 0.83939 0.66649 0.0
H546 H 0.61709 0.75011 0.55648 0.0
H547 H 0.56993 0.75619 0.75548 0.0
C548 C 0.59162 0.7128 0.77026 0.0
C549 C 0.6131 0.68952 0.74702 0.0
C550 C 0.60812 0.76966 0.58035 0.0
C551 C 0.60232 0.74094 0.67833 0.0
C552 C 0.60705 0.7966 0.54936 0.0
C553 C 0.5969 0.82242 0.58001 0.0
C554 C 0.59859 0.76851 0.64219 0.0
C555 C 0.58632 0.82006 0.64112 0.0
C556 C 0.58637 0.73848 0.73636 0.0
C557 C 0.62855 0.69289 0.68875 0.0
N558 N 0.58751 0.79372 0.6701 0.0
N559 N 0.62283 0.71802 0.6565 0.0
H560 H 0.61959 0.72876 1.00312 0.0
H561 H 0.58462 0.81421 0.31618 0.0
H562 H 0.58703 0.68595 0.16914 0.0
H563 H 0.64798 0.85121 0.16808 0.0
H564 H 0.57666 0.76899 0.25763 0.0
H565 H 0.62037 0.77608 0.05706 0.0
C566 C 0.61178 0.7294 0.05047 0.0
C567 C 0.60317 0.70338 0.08168 0.0
C568 C 0.59231 0.78702 0.23796 0.0
C569 C 0.60443 0.75723 0.14372 0.0
C570 C 0.59691 0.81286 0.27144 0.0
C571 C 0.61726 0.83658 0.24739 0.0
C572 C 0.60774 0.78486 0.17955 0.0
C573 C 0.63237 0.83347 0.18886 0.0
C574 C 0.61265 0.75633 0.0814 0.0
C575 C 0.59396 0.70545 0.14336 0.0
N576 N 0.62723 0.80817 0.15697 0.0
N577 N 0.59487 0.7318 0.17227 0.0
H578 H 0.88262 0.29834 0.50283 0.0
H579 H 0.91972 0.21144 0.81407 0.0
H580 H 0.92181 0.33944 0.66689 0.0
H581 H 0.85475 0.17527 0.66699 0.0
H582 H 0.92832 0.25652 0.75538 0.0
H583 H 0.8809 0.25086 0.55624 0.0
C584 C 0.89166 0.29728 0.54957 0.0
C585 C 0.90244 0.32292 0.58039 0.0
C586 C 0.91219 0.23872 0.73591 0.0
C587 C 0.90007 0.26884 0.64194 0.0
C588 C 0.90723 0.21292 0.76949 0.0
C589 C 0.88624 0.18945 0.74582 0.0
C590 C 0.89641 0.24115 0.67777 0.0
C591 C 0.8709 0.19279 0.68748 0.0
C592 C 0.89027 0.27026 0.58025 0.0
C593 C 0.91318 0.32028 0.64137 0.0
N594 N 0.87632 0.21807 0.65552 0.0
N595 N 0.91166 0.29387 0.67002 0.0
H596 H 0.08602 0.71269 0.71471 0.0
H597 H 0.11883 0.79616 0.03086 0.0
H598 H 0.14475 0.67348 0.86526 0.0
H599 H 0.09342 0.84062 0.86348 0.0
H600 H 0.11798 0.74901 0.97627 0.0
H601 H 0.07908 0.75795 0.77362 0.0
C602 C 0.09743 0.71353 0.76011 0.0
C603 C 0.11626 0.68919 0.7847 0.0
C604 C 0.11217 0.7691 0.95174 0.0
C605 C 0.10792 0.74099 0.8529 0.0
C606 C 0.11224 0.79596 0.98302 0.0
C607 C 0.10611 0.82238 0.95171 0.0
C608 C 0.10548 0.76866 0.88892 0.0
C609 C 0.09841 0.82081 0.88939 0.0
C610 C 0.09344 0.73941 0.79377 0.0
C611 C 0.13032 0.6917 0.84405 0.0
N612 N 0.09835 0.79452 0.86016 0.0
N613 N 0.12581 0.71703 0.87606 0.0
H614 H 0.31971 0.34314 0.32445 0.0
H615 H 0.44062 0.20975 0.45813 0.0
H616 H 0.43195 0.32511 0.26159 0.0
H617 H 0.31979 0.21205 0.45809 0.0
H618 H 0.44115 0.25634 0.40065 0.0
H619 H 0.32224 0.29903 0.38706 0.0
C620 C 0.3449 0.32985 0.32363 0.0
C621 C 0.37558 0.33782 0.28728 0.0
C622 C 0.4146 0.24672 0.41386 0.0
C623 C 0.37887 0.28726 0.36008 0.0
C624 C 0.41431 0.2204 0.4472 0.0
C625 C 0.38009 0.20724 0.46316 0.0
C626 C 0.38044 0.26002 0.39742 0.0
C627 C 0.34676 0.22156 0.44682 0.0
C628 C 0.34632 0.30463 0.3595 0.0
C629 C 0.40749 0.31964 0.28836 0.0
N630 N 0.34776 0.24711 0.4151 0.0
N631 N 0.40842 0.29529 0.32445 0.0
H632 H 0.72121 0.43961 0.20384 0.0
H633 H 0.51624 0.39415 0.31585 0.0
H634 H 0.70096 0.38225 0.35597 0.0
H635 H 0.53796 0.42349 0.13341 0.0
H636 H 0.58334 0.39623 0.33707 0.0
H637 H 0.6536 0.44037 0.18326 0.0
C638 C 0.70255 0.42731 0.23312 0.0
C639 C 0.71677 0.41072 0.28159 0.0
C640 C 0.57347 0.40221 0.29238 0.0
C641 C 0.63952 0.41168 0.25845 0.0
C642 C 0.53512 0.40114 0.28023 0.0
C643 C 0.52145 0.40851 0.22261 0.0
C644 C 0.59849 0.41108 0.24689 0.0
C645 C 0.54733 0.4174 0.1783 0.0
C646 C 0.66403 0.42766 0.22113 0.0
C647 C 0.69129 0.39518 0.31792 0.0
N648 N 0.58465 0.41852 0.19141 0.0
N649 N 0.65394 0.39611 0.30572 0.0
H650 H 0.96449 0.62772 0.59983 0.0
H651 H 0.7872 0.59349 0.81177 0.0
H652 H 0.97402 0.60164 0.78703 0.0
H653 H 0.77895 0.63739 0.63904 0.0
H654 H 0.85547 0.59189 0.80002 0.0
H655 H 0.8961 0.62665 0.60965 0.0
C656 C 0.95224 0.62165 0.64291 0.0
C657 C 0.97507 0.61495 0.69279 0.0
C658 C 0.8387 0.60189 0.76474 0.0
C659 C 0.89679 0.61363 0.70431 0.0
C660 C 0.79971 0.60281 0.7714 0.0
C661 C 0.77729 0.61575 0.72647 0.0
C662 C 0.8554 0.61377 0.71254 0.0
C663 C 0.79509 0.62737 0.67503 0.0
C664 C 0.91318 0.62113 0.64854 0.0
C665 C 0.95757 0.60716 0.74747 0.0
N666 N 0.83304 0.62606 0.66944 0.0
N667 N 0.91953 0.60673 0.75177 0.0
H668 H 0.21473 0.09107 0.72484 0.0
H669 H 0.03667 0.12821 0.93312 0.0
H670 H 0.22265 0.13588 0.89652 0.0
H671 H 0.02796 0.09881 0.74796 0.0
H672 H 0.10512 0.12684 0.92428 0.0
H673 H 0.14645 0.08969 0.736 0.0
C674 C 0.20215 0.10061 0.76488 0.0
C675 C 0.2245 0.11374 0.80967 0.0
C676 C 0.08821 0.12065 0.88562 0.0
C677 C 0.1463 0.11207 0.82292 0.0
C678 C 0.04912 0.12136 0.8907 0.0
C679 C 0.02649 0.11381 0.84109 0.0
C680 C 0.10485 0.11214 0.83067 0.0
C681 C 0.04424 0.10502 0.78729 0.0
C682 C 0.16314 0.09983 0.77122 0.0
C683 C 0.20657 0.12568 0.86066 0.0
N684 N 0.0823 0.10445 0.78351 0.0
N685 N 0.16859 0.12453 0.86591 0.0
H686 H 0.4615 0.92407 0.40565 0.0
H687 H 0.29624 0.88158 0.17742 0.0
H688 H 0.48036 0.89324 0.2235 0.0
H689 H 0.27841 0.93833 0.33116 0.0
H690 H 0.36353 0.88197 0.19864 0.0
H691 H 0.39384 0.92598 0.38437 0.0
C692 C 0.45144 0.91769 0.3613 0.0
C693 C 0.47663 0.90841 0.31634 0.0
C694 C 0.34493 0.89442 0.22765 0.0
C695 C 0.39947 0.91033 0.29192 0.0
C696 C 0.30647 0.89414 0.21565 0.0
C697 C 0.28163 0.90992 0.25257 0.0
C698 C 0.35873 0.91027 0.27749 0.0
C699 C 0.29657 0.92591 0.30139 0.0
C700 C 0.41289 0.91889 0.34912 0.0
C701 C 0.46206 0.90057 0.25954 0.0
N702 N 0.33412 0.92551 0.31271 0.0
N703 N 0.42452 0.90152 0.24913 0.0
H704 H 0.47426 0.59828 0.74264 0.0
H705 H 0.27686 0.63506 0.89629 0.0
H706 H 0.46281 0.62548 0.92883 0.0
H707 H 0.28715 0.59147 0.72364 0.0
H708 H 0.34497 0.63333 0.90755 0.0
H709 H 0.40599 0.5969 0.73364 0.0
C710 C 0.4574 0.60389 0.78174 0.0
C711 C 0.47434 0.61217 0.83652 0.0
C712 C 0.33235 0.62407 0.86726 0.0
C713 C 0.39599 0.61078 0.82633 0.0
C714 C 0.29343 0.62515 0.86065 0.0
C715 C 0.27621 0.61349 0.8088 0.0
C716 C 0.3544 0.61146 0.82148 0.0
C717 C 0.29918 0.60076 0.76433 0.0
C718 C 0.41838 0.60304 0.77655 0.0
C719 C 0.451 0.61903 0.8857 0.0
N720 N 0.33708 0.60022 0.77156 0.0
N721 N 0.41304 0.61838 0.87931 0.0
H722 H 0.22026 0.44446 0.32248 0.0
H723 H 0.02022 0.3797 0.2279 0.0
H724 H 0.20465 0.37703 0.1875 0.0
H725 H 0.03738 0.42664 0.39536 0.0
H726 H 0.08703 0.38345 0.2066 0.0
H727 H 0.15272 0.44309 0.34379 0.0
C728 C 0.20264 0.4295 0.29708 0.0
C729 C 0.21817 0.41076 0.2532 0.0
C730 C 0.07629 0.39291 0.24809 0.0
C731 C 0.141 0.40919 0.27729 0.0
C732 C 0.03805 0.39086 0.26028 0.0
C733 C 0.02313 0.40277 0.3137 0.0
C734 C 0.10004 0.40724 0.28922 0.0
C735 C 0.04774 0.41696 0.35385 0.0
C736 C 0.16415 0.42865 0.30951 0.0
C737 C 0.194 0.39177 0.22187 0.0
N738 N 0.08503 0.41889 0.34071 0.0
N739 N 0.15669 0.39153 0.23443 0.0
H740 H 0.78761 0.93574 0.30972 0.0
H741 H 0.96566 0.89823 0.10165 0.0
H742 H 0.77988 0.89031 0.13873 0.0
H743 H 0.97456 0.92848 0.2862 0.0
H744 H 0.89723 0.89947 0.11074 0.0
H745 H 0.85591 0.93726 0.2985 0.0
C746 C 0.80023 0.9261 0.26982 0.0
C747 C 0.77792 0.91275 0.22524 0.0
C748 C 0.91417 0.90587 0.14922 0.0
C749 C 0.85613 0.91458 0.21193 0.0
C750 C 0.95326 0.90524 0.14399 0.0
C751 C 0.97594 0.91308 0.19335 0.0
C752 C 0.89757 0.91458 0.20406 0.0
C753 C 0.95824 0.92206 0.24706 0.0
C754 C 0.83925 0.92695 0.26346 0.0
C755 C 0.7959 0.90068 0.17443 0.0
N756 N 0.92017 0.92254 0.25099 0.0
N757 N 0.83387 0.90191 0.16915 0.0
H758 H 0.53695 0.12931 0.59827 0.0
H759 H 0.71416 0.09066 0.80755 0.0
H760 H 0.5276 0.09804 0.78209 0.0
H761 H 0.7228 0.13731 0.63797 0.0
H762 H 0.64596 0.08909 0.79517 0.0
H763 H 0.60542 0.12801 0.60786 0.0
C764 C 0.54926 0.12205 0.64052 0.0
C765 C 0.52646 0.11397 0.68956 0.0
C766 C 0.66279 0.09968 0.76069 0.0
C767 C 0.60478 0.11238 0.70085 0.0
C768 C 0.70175 0.10058 0.76772 0.0
C769 C 0.72428 0.11428 0.72389 0.0
C770 C 0.64618 0.11239 0.70923 0.0
C771 C 0.70658 0.12667 0.67311 0.0
C772 C 0.58835 0.12139 0.64604 0.0
C773 C 0.54401 0.10467 0.74319 0.0
N774 N 0.66865 0.1254 0.66716 0.0
N775 N 0.58205 0.10416 0.7474 0.0
loop_
_geom_bond_atom_site_label_1
_geom_bond_atom_site_label_2
_geom_bond_distance
_geom_bond_site_symmetry_2
_ccdc_geom_bond_type
Zn0 N4 2.020 . S
Zn0 O8 2.019 . S
Zn0 N10 2.119 . S
Zn0 O18 1.975 . S
C1 N2 1.334 . S
C1 N5 1.336 . S
N2 C1 1.334 . S
N2 C3 1.334 . S
C3 N2 1.334 . S
C3 N4 1.336 . S
N4 Zn0 2.020 . S
N4 C3 1.336 . S
N4 N5 1.354 . S
N5 C1 1.336 . S
N5 N4 1.354 . S
N5 Zn9 2.020 . S
C6 O7 1.244 . S
C6 O30 1.257 . S
O7 C6 1.244 . S
O8 Zn0 2.019 . S
O8 C28 1.257 . S
Zn9 N5 2.020 . S
Zn9 O16 1.975 . S
Zn9 N25 2.119 . S
Zn9 O30 2.019 . S
N10 Zn0 2.119 . S
N10 C12 1.334 . S
N10 C13 1.328 . S
C11 C12 1.391 . S
C11 N14 1.329 . S
C11 H32 0.930 . S
C12 N10 1.334 . S
C12 C11 1.391 . S
C12 H19 0.930 . S
C13 N10 1.328 . S
C13 C15 1.392 . S
C13 H20 0.930 . S
N14 C11 1.329 . S
N14 C15 1.331 . S
C15 C13 1.392 . S
C15 N14 1.331 . S
O16 Zn9 1.975 . S
O16 C17 1.252 . S
C17 O16 1.252 . S
C17 O18 1.252 . S
O18 Zn0 1.975 . S
O18 C17 1.252 . S
H19 C12 0.930 . S
H20 C13 0.930 . S
C21 C22 1.392 . S
C21 N25 1.328 . S
C21 H27 0.930 . S
C22 C21 1.392 . S
C22 N26 1.331 . S
C23 C24 1.391 . S
C23 N26 1.329 . S
C23 H33 0.930 . S
C24 C23 1.391 . S
C24 N25 1.334 . S
C24 H31 0.930 . S
N25 Zn9 2.119 . S
N25 C21 1.328 . S
N25 C24 1.334 . S
N26 C22 1.331 . S
N26 C23 1.329 . S
H27 C21 0.930 . S
C28 O8 1.257 . S
C28 O29 1.244 . S
O29 C28 1.244 . S
O30 C6 1.257 . S
O30 Zn9 2.019 . S
H31 C24 0.930 . S
H32 C11 0.930 . S
H33 C23 0.930 . S
Zn34 N38 2.020 . S
Zn34 O42 2.019 . S
Zn34 N44 2.119 . S
Zn34 O52 1.975 . S
C35 N36 1.334 . S
C35 N39 1.336 . S
N36 C35 1.334 . S
N36 C37 1.334 . S
C37 N36 1.334 . S
C37 N38 1.336 . S
N38 Zn34 2.020 . S
N38 C37 1.336 . S
N38 N39 1.354 . S
N39 C35 1.336 . S
N39 N38 1.354 . S
N39 Zn43 2.020 . S
C40 O41 1.244 1_655 S
C40 O64 1.257 1_655 S
O41 C40 1.244 1_455 S
O42 Zn34 2.019 . S
O42 C62 1.257 . S
Zn43 N39 2.020 . S
Zn43 O50 1.975 . S
Zn43 N59 2.119 . S
Zn43 O64 2.019 . S
N44 Zn34 2.119 . S
N44 C46 1.334 . S
N44 C47 1.328 . S
C45 C46 1.391 . S
C45 N48 1.329 . S
C45 H66 0.930 . S
C46 N44 1.334 . S
C46 C45 1.391 . S
C46 H53 0.930 . S
C47 N44 1.328 . S
C47 C49 1.392 . S
C47 H54 0.930 . S
N48 C45 1.329 . S
N48 C49 1.331 . S
C49 C47 1.392 . S
C49 N48 1.331 . S
O50 Zn43 1.975 . S
O50 C51 1.252 . S
C51 O50 1.252 . S
C51 O52 1.252 . S
O52 Zn34 1.975 . S
O52 C51 1.252 . S
H53 C46 0.930 . S
H54 C47 0.930 . S
C55 C56 1.392 . S
C55 N59 1.328 . S
C55 H61 0.930 . S
C56 C55 1.392 . S
C56 N60 1.331 . S
C57 C58 1.391 . S
C57 N60 1.329 . S
C57 H67 0.930 . S
C58 C57 1.391 . S
C58 N59 1.334 . S
C58 H65 0.930 . S
N59 Zn43 2.119 . S
N59 C55 1.328 . S
N59 C58 1.334 . S
N60 C56 1.331 . S
N60 C57 1.329 . S
H61 C55 0.930 . S
C62 O42 1.257 . S
C62 O63 1.244 . S
O63 C62 1.244 . S
O64 C40 1.257 1_455 S
O64 Zn43 2.019 . S
H65 C58 0.930 . S
H66 C45 0.930 . S
H67 C57 0.930 . S
Zn68 N72 2.020 . S
Zn68 O76 2.019 . S
Zn68 N78 2.119 . S
Zn68 O86 1.975 . S
C69 N70 1.334 . S
C69 N73 1.336 . S
N70 C69 1.334 . S
N70 C71 1.334 . S
C71 N70 1.334 . S
C71 N72 1.336 . S
N72 Zn68 2.020 . S
N72 C71 1.336 . S
N72 N73 1.354 . S
N73 C69 1.336 . S
N73 N72 1.354 . S
N73 Zn77 2.020 . S
C74 O75 1.244 . S
C74 O98 1.257 . S
O75 C74 1.244 . S
O76 Zn68 2.019 . S
O76 C96 1.257 1_655 S
Zn77 N73 2.020 . S
Zn77 O84 1.975 . S
Zn77 N93 2.119 . S
Zn77 O98 2.019 . S
N78 Zn68 2.119 . S
N78 C80 1.334 . S
N78 C81 1.328 . S
C79 C80 1.391 . S
C79 N82 1.329 . S
C79 H100 0.930 . S
C80 N78 1.334 . S
C80 C79 1.391 . S
C80 H87 0.930 . S
C81 N78 1.328 . S
C81 C83 1.392 . S
C81 H88 0.930 . S
N82 C79 1.329 . S
N82 C83 1.331 . S
C83 C81 1.392 . S
C83 N82 1.331 . S
O84 Zn77 1.975 . S
O84 C85 1.252 . S
C85 O84 1.252 . S
C85 O86 1.252 . S
O86 Zn68 1.975 . S
O86 C85 1.252 . S
H87 C80 0.930 . S
H88 C81 0.930 . S
C89 C90 1.392 . S
C89 N93 1.328 . S
C89 H95 0.930 . S
C90 C89 1.392 . S
C90 N94 1.331 . S
C91 C92 1.391 . S
C91 N94 1.329 . S
C91 H101 0.930 . S
C92 C91 1.391 . S
C92 N93 1.334 . S
C92 H99 0.930 . S
N93 Zn77 2.119 . S
N93 C89 1.328 . S
N93 C92 1.334 . S
N94 C90 1.331 . S
N94 C91 1.329 . S
H95 C89 0.930 . S
C96 O76 1.257 1_455 S
C96 O97 1.244 1_455 S
O97 C96 1.244 1_655 S
O98 C74 1.257 . S
O98 Zn77 2.019 . S
H99 C92 0.930 . S
H100 C79 0.930 . S
H101 C91 0.930 . S
Zn102 N106 2.020 . S
Zn102 O110 2.019 . S
Zn102 N112 2.119 . S
Zn102 O120 1.975 . S
C103 N104 1.334 . S
C103 N107 1.336 . S
N104 C103 1.334 . S
N104 C105 1.334 . S
C105 N104 1.334 . S
C105 N106 1.336 . S
N106 Zn102 2.020 . S
N106 C105 1.336 . S
N106 N107 1.354 . S
N107 C103 1.336 . S
N107 N106 1.354 . S
N107 Zn111 2.020 . S
C108 O109 1.244 . S
C108 O132 1.257 . S
O109 C108 1.244 . S
O110 Zn102 2.019 . S
O110 C130 1.257 . S
Zn111 N107 2.020 . S
Zn111 O118 1.975 . S
Zn111 N127 2.119 . S
Zn111 O132 2.019 . S
N112 Zn102 2.119 . S
N112 C114 1.334 . S
N112 C115 1.328 . S
C113 C114 1.391 . S
C113 N116 1.329 . S
C113 H134 0.930 . S
C114 N112 1.334 . S
C114 C113 1.391 . S
C114 H121 0.930 . S
C115 N112 1.328 . S
C115 C117 1.392 . S
C115 H122 0.930 . S
N116 C113 1.329 . S
N116 C117 1.331 . S
C117 C115 1.392 . S
C117 N116 1.331 . S
O118 Zn111 1.975 . S
O118 C119 1.252 . S
C119 O118 1.252 . S
C119 O120 1.252 . S
O120 Zn102 1.975 . S
O120 C119 1.252 . S
H121 C114 0.930 . S
H122 C115 0.930 . S
C123 C124 1.392 . S
C123 N127 1.328 . S
C123 H129 0.930 . S
C124 C123 1.392 . S
C124 N128 1.331 . S
C125 C126 1.391 . S
C125 N128 1.329 . S
C125 H135 0.930 . S
C126 C125 1.391 . S
C126 N127 1.334 . S
C126 H133 0.930 . S
N127 Zn111 2.119 . S
N127 C123 1.328 . S
N127 C126 1.334 . S
N128 C124 1.331 . S
N128 C125 1.329 . S
H129 C123 0.930 . S
C130 O110 1.257 . S
C130 O131 1.244 . S
O131 C130 1.244 . S
O132 C108 1.257 . S
O132 Zn111 2.019 . S
H133 C126 0.930 . S
H134 C113 0.930 . S
H135 C125 0.930 . S
Zn136 N140 2.020 . S
Zn136 O144 2.019 . S
Zn136 N146 2.119 . S
Zn136 O154 1.975 . S
C137 N138 1.334 . S
C137 N141 1.336 . S
N138 C137 1.334 . S
N138 C139 1.334 . S
C139 N138 1.334 . S
C139 N140 1.336 . S
N140 Zn136 2.020 . S
N140 C139 1.336 . S
N140 N141 1.354 . S
N141 C137 1.336 . S
N141 N140 1.354 . S
N141 Zn145 2.020 . S
C142 O143 1.244 . S
C142 O166 1.257 . S
O143 C142 1.244 . S
O144 Zn136 2.019 . S
O144 C164 1.257 . S
Zn145 N141 2.020 . S
Zn145 O152 1.975 . S
Zn145 N161 2.119 . S
Zn145 O166 2.019 . S
N146 Zn136 2.119 . S
N146 C148 1.334 . S
N146 C149 1.328 . S
C147 C148 1.391 . S
C147 N150 1.329 . S
C147 H168 0.930 . S
C148 N146 1.334 . S
C148 C147 1.391 . S
C148 H155 0.930 . S
C149 N146 1.328 . S
C149 C151 1.392 . S
C149 H156 0.930 . S
N150 C147 1.329 . S
N150 C151 1.331 . S
C151 C149 1.392 . S
C151 N150 1.331 . S
O152 Zn145 1.975 . S
O152 C153 1.252 . S
C153 O152 1.252 . S
C153 O154 1.252 . S
O154 Zn136 1.975 . S
O154 C153 1.252 . S
H155 C148 0.930 . S
H156 C149 0.930 . S
C157 C158 1.392 . S
C157 N161 1.328 . S
C157 H163 0.930 . S
C158 C157 1.392 . S
C158 N162 1.331 . S
C159 C160 1.391 . S
C159 N162 1.329 . S
C159 H169 0.930 . S
C160 C159 1.391 . S
C160 N161 1.334 . S
C160 H167 0.930 . S
N161 Zn145 2.119 . S
N161 C157 1.328 . S
N161 C160 1.334 . S
N162 C158 1.331 . S
N162 C159 1.329 . S
H163 C157 0.930 . S
C164 O144 1.257 . S
C164 O165 1.244 . S
O165 C164 1.244 . S
O166 C142 1.257 . S
O166 Zn145 2.019 . S
H167 C160 0.930 . S
H168 C147 0.930 . S
H169 C159 0.930 . S
Zn170 N174 2.020 . S
Zn170 O178 2.019 . S
Zn170 N180 2.119 . S
Zn170 O188 1.975 . S
C171 N172 1.334 . S
C171 N175 1.336 . S
N172 C171 1.334 . S
N172 C173 1.334 . S
C173 N172 1.334 . S
C173 N174 1.336 . S
N174 Zn170 2.020 . S
N174 C173 1.336 . S
N174 N175 1.354 . S
N175 C171 1.336 . S
N175 N174 1.354 . S
N175 Zn179 2.020 . S
C176 O177 1.244 . S
C176 O200 1.257 . S
O177 C176 1.244 . S
O178 Zn170 2.019 . S
O178 C198 1.257 1_655 S
Zn179 N175 2.020 . S
Zn179 O186 1.975 . S
Zn179 N195 2.119 . S
Zn179 O200 2.019 . S
N180 Zn170 2.119 . S
N180 C182 1.334 . S
N180 C183 1.328 . S
C181 C182 1.391 . S
C181 N184 1.329 . S
C181 H202 0.930 . S
C182 N180 1.334 . S
C182 C181 1.391 . S
C182 H189 0.930 . S
C183 N180 1.328 . S
C183 C185 1.392 . S
C183 H190 0.930 . S
N184 C181 1.329 . S
N184 C185 1.331 . S
C185 C183 1.392 . S
C185 N184 1.331 . S
O186 Zn179 1.975 . S
O186 C187 1.252 . S
C187 O186 1.252 . S
C187 O188 1.252 . S
O188 Zn170 1.975 . S
O188 C187 1.252 . S
H189 C182 0.930 . S
H190 C183 0.930 . S
C191 C192 1.392 . S
C191 N195 1.328 . S
C191 H197 0.930 . S
C192 C191 1.392 . S
C192 N196 1.331 . S
C193 C194 1.391 . S
C193 N196 1.329 . S
C193 H203 0.930 . S
C194 C193 1.391 . S
C194 N195 1.334 . S
C194 H201 0.930 . S
N195 Zn179 2.119 . S
N195 C191 1.328 . S
N195 C194 1.334 . S
N196 C192 1.331 . S
N196 C193 1.329 . S
H197 C191 0.930 . S
C198 O178 1.257 1_455 S
C198 O199 1.244 1_455 S
O199 C198 1.244 1_655 S
O200 C176 1.257 . S
O200 Zn179 2.019 . S
H201 C194 0.930 . S
H202 C181 0.930 . S
H203 C193 0.930 . S
Zn204 N208 2.020 . S
Zn204 O212 2.019 . S
Zn204 N214 2.119 . S
Zn204 O222 1.975 . S
C205 N206 1.334 . S
C205 N209 1.336 . S
N206 C205 1.334 . S
N206 C207 1.334 . S
C207 N206 1.334 . S
C207 N208 1.336 . S
N208 Zn204 2.020 . S
N208 C207 1.336 . S
N208 N209 1.354 . S
N209 C205 1.336 . S
N209 N208 1.354 . S
N209 Zn213 2.020 . S
C210 O211 1.244 1_655 S
C210 O234 1.257 1_655 S
O211 C210 1.244 1_455 S
O212 Zn204 2.019 . S
O212 C232 1.257 . S
Zn213 N209 2.020 . S
Zn213 O220 1.975 . S
Zn213 N229 2.119 . S
Zn213 O234 2.019 . S
N214 Zn204 2.119 . S
N214 C216 1.334 . S
N214 C217 1.328 . S
C215 C216 1.391 . S
C215 N218 1.329 . S
C215 H236 0.930 . S
C216 N214 1.334 . S
C216 C215 1.391 . S
C216 H223 0.930 . S
C217 N214 1.328 . S
C217 C219 1.392 . S
C217 H224 0.930 . S
N218 C215 1.329 . S
N218 C219 1.331 . S
C219 C217 1.392 . S
C219 N218 1.331 . S
O220 Zn213 1.975 . S
O220 C221 1.252 . S
C221 O220 1.252 . S
C221 O222 1.252 . S
O222 Zn204 1.975 . S
O222 C221 1.252 . S
H223 C216 0.930 . S
H224 C217 0.930 . S
C225 C226 1.392 . S
C225 N229 1.328 . S
C225 H231 0.930 . S
C226 C225 1.392 . S
C226 N230 1.331 . S
C227 C228 1.391 . S
C227 N230 1.329 . S
C227 H237 0.930 . S
C228 C227 1.391 . S
C228 N229 1.334 . S
C228 H235 0.930 . S
N229 Zn213 2.119 . S
N229 C225 1.328 . S
N229 C228 1.334 . S
N230 C226 1.331 . S
N230 C227 1.329 . S
H231 C225 0.930 . S
C232 O212 1.257 . S
C232 O233 1.244 . S
O233 C232 1.244 . S
O234 C210 1.257 1_455 S
O234 Zn213 2.019 . S
H235 C228 0.930 . S
H236 C215 0.930 . S
H237 C227 0.930 . S
Zn238 N242 2.020 . S
Zn238 O246 2.019 . S
Zn238 N248 2.119 . S
Zn238 O256 1.975 . S
C239 N240 1.334 . S
C239 N243 1.336 . S
N240 C239 1.334 . S
N240 C241 1.334 . S
C241 N240 1.334 . S
C241 N242 1.336 . S
N242 Zn238 2.020 . S
N242 C241 1.336 . S
N242 N243 1.354 . S
N243 C239 1.336 . S
N243 N242 1.354 . S
N243 Zn247 2.020 . S
C244 O245 1.244 . S
C244 O268 1.257 . S
O245 C244 1.244 . S
O246 Zn238 2.019 . S
O246 C266 1.257 . S
Zn247 N243 2.020 . S
Zn247 O254 1.975 . S
Zn247 N263 2.119 . S
Zn247 O268 2.019 . S
N248 Zn238 2.119 . S
N248 C250 1.334 . S
N248 C251 1.328 . S
C249 C250 1.391 . S
C249 N252 1.329 . S
C249 H270 0.930 . S
C250 N248 1.334 . S
C250 C249 1.391 . S
C250 H257 0.930 . S
C251 N248 1.328 . S
C251 C253 1.392 . S
C251 H258 0.930 . S
N252 C249 1.329 . S
N252 C253 1.331 . S
C253 C251 1.392 . S
C253 N252 1.331 . S
O254 Zn247 1.975 . S
O254 C255 1.252 . S
C255 O254 1.252 . S
C255 O256 1.252 . S
O256 Zn238 1.975 . S
O256 C255 1.252 . S
H257 C250 0.930 . S
H258 C251 0.930 . S
C259 C260 1.392 . S
C259 N263 1.328 . S
C259 H265 0.930 . S
C260 C259 1.392 . S
C260 N264 1.331 . S
C261 C262 1.391 . S
C261 N264 1.329 . S
C261 H271 0.930 . S
C262 C261 1.391 . S
C262 N263 1.334 . S
C262 H269 0.930 . S
N263 Zn247 2.119 . S
N263 C259 1.328 . S
N263 C262 1.334 . S
N264 C260 1.331 . S
N264 C261 1.329 . S
H265 C259 0.930 . S
C266 O246 1.257 . S
C266 O267 1.244 . S
O267 C266 1.244 . S
O268 C244 1.257 . S
O268 Zn247 2.019 . S
H269 C262 0.930 . S
H270 C249 0.930 . S
H271 C261 0.930 . S
H272 C278 0.930 . S
H273 C282 0.930 . S
H274 C287 0.929 . S
H275 C285 0.929 . S
H276 C280 0.929 . S
H277 C286 0.929 . S
C278 H272 0.930 . S
C278 C279 1.367 . S
C278 C286 1.378 . S
C279 C278 1.367 . S
C279 C287 1.433 . S
C280 H276 0.929 . S
C280 C282 1.378 . S
C280 C284 1.350 1_556 S
C281 C284 1.463 . S
C281 C286 1.350 . S
C281 N289 1.427 . S
C282 H273 0.930 . S
C282 C280 1.378 . S
C282 C283 1.367 . S
C283 C282 1.367 . S
C283 C285 1.433 . S
C284 C280 1.350 1_554 S
C284 C281 1.463 . S
C284 N288 1.427 . S
C285 H275 0.929 . S
C285 C283 1.433 . S
C285 N288 1.384 1_556 S
C286 H277 0.929 . S
C286 C278 1.378 . S
C286 C281 1.350 . S
C287 H274 0.929 . S
C287 C279 1.433 . S
C287 N289 1.384 . S
N288 C284 1.427 . S
N288 C285 1.384 1_554 S
N289 C281 1.427 . S
N289 C287 1.384 . S
H290 C296 0.930 . S
H291 C300 0.930 . S
H292 C305 0.929 . S
H293 C303 0.929 . S
H294 C298 0.929 . S
H295 C304 0.929 . S
C296 H290 0.930 . S
C296 C297 1.367 . S
C296 C304 1.378 . S
C297 C296 1.367 . S
C297 C305 1.433 . S
C298 H294 0.929 . S
C298 C300 1.378 . S
C298 C302 1.350 . S
C299 C302 1.463 . S
C299 C304 1.350 . S
C299 N307 1.427 . S
C300 H291 0.930 . S
C300 C298 1.378 . S
C300 C301 1.367 . S
C301 C300 1.367 . S
C301 C303 1.433 . S
C302 C298 1.350 . S
C302 C299 1.463 . S
C302 N306 1.427 . S
C303 H293 0.929 . S
C303 C301 1.433 . S
C303 N306 1.384 . S
C304 H295 0.929 . S
C304 C296 1.378 . S
C304 C299 1.350 . S
C305 H292 0.929 . S
C305 C297 1.433 . S
C305 N307 1.384 . S
N306 C302 1.427 . S
N306 C303 1.384 . S
N307 C299 1.427 . S
N307 C305 1.384 . S
H308 C314 0.930 . S
H309 C318 0.930 . S
H310 C323 0.929 . S
H311 C321 0.929 . S
H312 C316 0.929 . S
H313 C322 0.929 1_565 S
C314 H308 0.930 . S
C314 C315 1.367 . S
C314 C322 1.378 . S
C315 C314 1.367 . S
C315 C323 1.433 . S
C316 H312 0.929 . S
C316 C318 1.378 . S
C316 C320 1.350 1_554 S
C317 C320 1.463 . S
C317 C322 1.350 . S
C317 N325 1.427 . S
C318 H309 0.930 . S
C318 C316 1.378 . S
C318 C319 1.367 1_545 S
C319 C318 1.367 1_565 S
C319 C321 1.433 . S
C320 C316 1.350 1_556 S
C320 C317 1.463 . S
C320 N324 1.427 1_545 S
C321 H311 0.929 . S
C321 C319 1.433 . S
C321 N324 1.384 1_554 S
C322 H313 0.929 1_545 S
C322 C314 1.378 . S
C322 C317 1.350 . S
C323 H310 0.929 . S
C323 C315 1.433 . S
C323 N325 1.384 . S
N324 C320 1.427 1_565 S
N324 C321 1.384 1_556 S
N325 C317 1.427 . S
N325 C323 1.384 . S
H326 C332 0.930 . S
H327 C336 0.930 . S
H328 C341 0.929 . S
H329 C339 0.929 1_565 S
H330 C334 0.929 . S
H331 C340 0.929 . S
C332 H326 0.930 . S
C332 C333 1.367 . S
C332 C340 1.378 . S
C333 C332 1.367 . S
C333 C341 1.433 . S
C334 H330 0.929 . S
C334 C336 1.378 . S
C334 C338 1.350 1_545 S
C335 C338 1.463 . S
C335 C340 1.350 . S
C335 N343 1.427 . S
C336 H327 0.930 . S
C336 C334 1.378 . S
C336 C337 1.367 . S
C337 C336 1.367 . S
C337 C339 1.433 . S
C338 C334 1.350 1_565 S
C338 C335 1.463 . S
C338 N342 1.427 . S
C339 H329 0.929 1_545 S
C339 C337 1.433 . S
C339 N342 1.384 1_545 S
C340 H331 0.929 . S
C340 C332 1.378 . S
C340 C335 1.350 . S
C341 H328 0.929 . S
C341 C333 1.433 . S
C341 N343 1.384 . S
N342 C338 1.427 . S
N342 C339 1.384 1_565 S
N343 C335 1.427 . S
N343 C341 1.384 . S
H344 C350 0.930 . S
H345 C354 0.930 . S
H346 C359 0.929 . S
H347 C357 0.929 1_556 S
H348 C352 0.929 . S
H349 C358 0.929 . S
C350 H344 0.930 . S
C350 C351 1.367 . S
C350 C358 1.378 . S
C351 C350 1.367 . S
C351 C359 1.433 . S
C352 H348 0.929 . S
C352 C354 1.378 . S
C352 C356 1.350 1_554 S
C353 C356 1.463 . S
C353 C358 1.350 . S
C353 N361 1.427 . S
C354 H345 0.930 . S
C354 C352 1.378 . S
C354 C355 1.367 . S
C355 C354 1.367 . S
C355 C357 1.434 . S
C356 C352 1.350 1_556 S
C356 C353 1.463 . S
C356 N360 1.427 . S
C357 H347 0.929 1_554 S
C357 C355 1.434 . S
C357 N360 1.383 1_554 S
C358 H349 0.929 . S
C358 C350 1.378 . S
C358 C353 1.350 . S
C359 H346 0.929 . S
C359 C351 1.433 . S
C359 N361 1.384 . S
N360 C356 1.427 . S
N360 C357 1.383 1_556 S
N361 C353 1.427 . S
N361 C359 1.384 . S
H362 C368 0.930 . S
H363 C372 0.930 . S
H364 C377 0.929 . S
H365 C375 0.929 . S
H366 C370 0.929 . S
H367 C376 0.929 . S
C368 H362 0.930 . S
C368 C369 1.367 . S
C368 C376 1.378 . S
C369 C368 1.367 . S
C369 C377 1.433 . S
C370 H366 0.929 . S
C370 C372 1.378 . S
C370 C374 1.350 . S
C371 C374 1.463 . S
C371 C376 1.350 . S
C371 N379 1.427 . S
C372 H363 0.930 . S
C372 C370 1.378 . S
C372 C373 1.367 . S
C373 C372 1.367 . S
C373 C375 1.433 . S
C374 C370 1.350 . S
C374 C371 1.463 . S
C374 N378 1.427 . S
C375 H365 0.929 . S
C375 C373 1.433 . S
C375 N378 1.384 . S
C376 H367 0.929 . S
C376 C368 1.378 . S
C376 C371 1.350 . S
C377 H364 0.929 . S
C377 C369 1.433 . S
C377 N379 1.384 . S
N378 C374 1.427 . S
N378 C375 1.384 . S
N379 C371 1.427 . S
N379 C377 1.384 . S
H380 C386 0.930 . S
H381 C390 0.930 . S
H382 C395 0.929 . S
H383 C393 0.929 . S
H384 C388 0.894 1_545 S
H385 C394 0.929 1_554 S
C386 H380 0.930 . S
C386 C387 1.367 1_565 S
C386 C394 1.378 . S
C387 C386 1.367 1_545 S
C387 C395 1.433 . S
C388 H384 0.894 1_565 S
C388 C390 1.394 . S
C388 C392 1.369 . S
C389 C392 1.463 . S
C389 C394 1.350 1_554 S
C389 N397 1.423 1_564 S
C390 H381 0.930 . S
C390 C388 1.394 . S
C390 C391 1.367 . S
C391 C390 1.367 . S
C391 C393 1.433 . S
C392 C388 1.369 . S
C392 C389 1.463 . S
C392 N396 1.427 . S
C393 H383 0.929 . S
C393 C391 1.433 . S
C393 N396 1.384 . S
C394 H385 0.929 1_556 S
C394 C386 1.378 . S
C394 C389 1.350 1_556 S
C395 H382 0.929 . S
C395 C387 1.433 . S
C395 N397 1.396 . S
N396 C392 1.427 . S
N396 C393 1.384 . S
N397 C389 1.423 1_546 S
N397 C395 1.396 . S
H398 C404 0.930 . S
H399 C408 0.930 . S
H400 C413 0.929 . S
H401 C411 0.929 . S
H402 C406 0.929 . S
H403 C412 0.929 . S
C404 H398 0.930 . S
C404 C405 1.367 . S
C404 C412 1.378 . S
C405 C404 1.367 . S
C405 C413 1.433 . S
C406 H402 0.929 . S
C406 C408 1.378 . S
C406 C410 1.350 1_565 S
C407 C410 1.463 . S
C407 C412 1.350 . S
C407 N415 1.427 . S
C408 H399 0.930 . S
C408 C406 1.378 . S
C408 C409 1.367 . S
C409 C408 1.367 . S
C409 C411 1.433 1_565 S
C410 C406 1.350 1_545 S
C410 C407 1.463 . S
C410 N414 1.427 . S
C411 H401 0.929 . S
C411 C409 1.433 1_545 S
C411 N414 1.384 . S
C412 H403 0.929 . S
C412 C404 1.378 . S
C412 C407 1.350 . S
C413 H400 0.929 . S
C413 C405 1.433 . S
C413 N415 1.384 . S
N414 C410 1.427 . S
N414 C411 1.384 . S
N415 C407 1.427 . S
N415 C413 1.384 . S
H416 C422 0.930 1_556 S
H417 C426 0.930 1_554 S
H418 C431 0.929 . S
H419 C429 0.929 . S
H420 C424 0.929 . S
H421 C430 0.929 . S
C422 H416 0.930 1_554 S
C422 C423 1.367 . S
C422 C430 1.378 1_554 S
C423 C422 1.367 . S
C423 C431 1.433 . S
C424 H420 0.929 . S
C424 C426 1.378 1_554 S
C424 C428 1.350 1_554 S
C425 C428 1.463 1_554 S
C425 C430 1.350 1_554 S
C425 N433 1.427 . S
C426 H417 0.930 1_556 S
C426 C424 1.378 1_556 S
C426 C427 1.367 . S
C427 C426 1.367 . S
C427 C429 1.433 . S
C428 C424 1.350 1_556 S
C428 C425 1.463 1_556 S
C428 N432 1.427 . S
C429 H419 0.929 . S
C429 C427 1.433 . S
C429 N432 1.384 . S
C430 H421 0.929 . S
C430 C422 1.378 1_556 S
C430 C425 1.350 1_556 S
C431 H418 0.929 . S
C431 C423 1.433 . S
C431 N433 1.384 . S
N432 C428 1.427 . S
N432 C429 1.384 . S
N433 C425 1.427 . S
N433 C431 1.384 . S
H434 C440 0.930 . S
H435 C444 0.930 . S
H436 C449 0.929 . S
H437 C447 0.929 . S
H438 C442 0.929 . S
H439 C448 0.929 . S
C440 H434 0.930 . S
C440 C441 1.367 . S
C440 C448 1.378 1_655 S
C441 C440 1.367 . S
C441 C449 1.433 . S
C442 H438 0.929 . S
C442 C444 1.378 1_655 S
C442 C446 1.350 1_655 S
C443 C446 1.463 1_655 S
C443 C448 1.350 1_655 S
C443 N451 1.427 . S
C444 H435 0.930 . S
C444 C442 1.378 1_455 S
C444 C445 1.367 . S
C445 C444 1.367 . S
C445 C447 1.433 . S
C446 C442 1.350 1_455 S
C446 C443 1.463 1_455 S
C446 N450 1.427 . S
C447 H437 0.929 . S
C447 C445 1.433 . S
C447 N450 1.384 . S
C448 H439 0.929 . S
C448 C440 1.378 1_455 S
C448 C443 1.350 1_455 S
C449 H436 0.929 . S
C449 C441 1.433 . S
C449 N451 1.384 . S
N450 C446 1.427 . S
N450 C447 1.384 . S
N451 C443 1.427 . S
N451 C449 1.384 . S
H452 C458 0.930 . S
H453 C462 0.930 . S
H454 C467 0.929 . S
H455 C465 0.929 . S
H456 C460 0.929 1_454 S
H457 C466 0.929 1_656 S
C458 H452 0.930 . S
C458 C459 1.367 . S
C458 C466 1.378 . S
C459 C458 1.367 . S
C459 C467 1.433 . S
C460 H456 0.929 1_656 S
C460 C462 1.378 . S
C460 C464 1.350 . S
C461 C464 1.463 1_464 S
C461 C466 1.350 . S
C461 N469 1.427 . S
C462 H453 0.930 . S
C462 C460 1.378 . S
C462 C463 1.367 . S
C463 C462 1.367 . S
C463 C465 1.433 . S
C464 C460 1.350 . S
C464 C461 1.463 1_646 S
C464 N468 1.427 . S
C465 H455 0.929 . S
C465 C463 1.433 . S
C465 N468 1.384 . S
C466 H457 0.929 1_454 S
C466 C458 1.378 . S
C466 C461 1.350 . S
C467 H454 0.929 . S
C467 C459 1.433 . S
C467 N469 1.384 . S
N468 C464 1.427 . S
N468 C465 1.384 . S
N469 C461 1.427 . S
N469 C467 1.384 . S
H470 C476 0.930 . S
H471 C480 0.930 . S
H472 C485 0.929 . S
H473 C483 0.929 . S
H474 C478 0.929 . S
H475 C484 0.929 . S
C476 H470 0.930 . S
C476 C477 1.367 . S
C476 C484 1.378 . S
C477 C476 1.367 . S
C477 C485 1.433 . S
C478 H474 0.929 . S
C478 C480 1.378 . S
C478 C482 1.350 . S
C479 C482 1.463 1_545 S
C479 C484 1.350 . S
C479 N487 1.427 . S
C480 H471 0.930 . S
C480 C478 1.378 . S
C480 C481 1.367 . S
C481 C480 1.367 . S
C481 C483 1.433 . S
C482 C478 1.350 . S
C482 C479 1.463 1_565 S
C482 N486 1.427 . S
C483 H473 0.929 . S
C483 C481 1.433 . S
C483 N486 1.384 . S
C484 H475 0.929 . S
C484 C476 1.378 . S
C484 C479 1.350 . S
C485 H472 0.929 . S
C485 C477 1.433 . S
C485 N487 1.384 . S
N486 C482 1.427 . S
N486 C483 1.384 . S
N487 C479 1.427 . S
N487 C485 1.384 . S
H488 C494 0.930 . S
H489 C498 0.930 . S
H490 C503 0.929 . S
H491 C501 0.929 . S
H492 C496 0.929 . S
H493 C502 0.929 . S
C494 H488 0.930 . S
C494 C495 1.367 . S
C494 C502 1.378 . S
C495 C494 1.367 . S
C495 C503 1.433 . S
C496 H492 0.929 . S
C496 C498 1.378 . S
C496 C500 1.350 1_554 S
C497 C500 1.463 . S
C497 C502 1.350 . S
C497 N505 1.427 . S
C498 H489 0.930 . S
C498 C496 1.378 . S
C498 C499 1.367 . S
C499 C498 1.367 . S
C499 C501 1.433 1_554 S
C500 C496 1.350 1_556 S
C500 C497 1.463 . S
C500 N504 1.427 . S
C501 H491 0.929 . S
C501 C499 1.433 1_556 S
C501 N504 1.384 . S
C502 H493 0.929 . S
C502 C494 1.378 . S
C502 C497 1.350 . S
C503 H490 0.929 . S
C503 C495 1.433 . S
C503 N505 1.384 . S
N504 C500 1.427 . S
N504 C501 1.384 . S
N505 C497 1.427 . S
N505 C503 1.384 . S
H506 C512 0.930 . S
H507 C516 0.930 . S
H508 C521 0.929 . S
H509 C519 0.929 . S
H510 C514 0.929 . S
H511 C520 0.929 . S
C512 H506 0.930 . S
C512 C513 1.367 . S
C512 C520 1.378 . S
C513 C512 1.367 . S
C513 C521 1.433 . S
C514 H510 0.929 . S
C514 C516 1.378 . S
C514 C518 1.350 . S
C515 C518 1.463 . S
C515 C520 1.350 . S
C515 N523 1.427 . S
C516 H507 0.930 . S
C516 C514 1.378 . S
C516 C517 1.367 . S
C517 C516 1.367 . S
C517 C519 1.433 . S
C518 C514 1.350 . S
C518 C515 1.463 . S
C518 N522 1.427 . S
C519 H509 0.929 . S
C519 C517 1.433 . S
C519 N522 1.384 . S
C520 H511 0.929 . S
C520 C512 1.378 . S
C520 C515 1.350 . S
C521 H508 0.929 . S
C521 C513 1.433 . S
C521 N523 1.384 . S
N522 C518 1.427 . S
N522 C519 1.384 . S
N523 C515 1.427 . S
N523 C521 1.384 . S
H524 C530 0.930 . S
H525 C534 0.930 . S
H526 C539 0.929 . S
H527 C537 0.929 . S
H528 C532 0.929 . S
H529 C538 0.929 . S
C530 H524 0.930 . S
C530 C531 1.367 . S
C530 C538 1.378 . S
C531 C530 1.367 . S
C531 C539 1.433 1_556 S
C532 H528 0.929 . S
C532 C534 1.378 . S
C532 C536 1.350 . S
C533 C536 1.463 . S
C533 C538 1.350 1_554 S
C533 N541 1.427 . S
C534 H525 0.930 . S
C534 C532 1.378 . S
C534 C535 1.367 . S
C535 C534 1.367 . S
C535 C537 1.433 . S
C536 C532 1.350 . S
C536 C533 1.463 . S
C536 N540 1.427 . S
C537 H527 0.929 . S
C537 C535 1.433 . S
C537 N540 1.384 . S
C538 H529 0.929 . S
C538 C530 1.378 . S
C538 C533 1.350 1_556 S
C539 H526 0.929 . S
C539 C531 1.433 1_554 S
C539 N541 1.384 . S
N540 C536 1.427 . S
N540 C537 1.384 . S
N541 C533 1.427 . S
N541 C539 1.384 . S
H542 C548 0.930 . S
H543 C552 0.930 . S
H544 C557 0.929 . S
H545 C555 0.929 . S
H546 C550 0.929 . S
H547 C556 0.929 . S
C548 H542 0.930 . S
C548 C549 1.367 . S
C548 C556 1.378 . S
C549 C548 1.367 . S
C549 C557 1.433 . S
C550 H546 0.929 . S
C550 C552 1.378 . S
C550 C554 1.350 . S
C551 C554 1.463 . S
C551 C556 1.350 . S
C551 N559 1.427 . S
C552 H543 0.930 . S
C552 C550 1.378 . S
C552 C553 1.367 . S
C553 C552 1.367 . S
C553 C555 1.433 . S
C554 C550 1.350 . S
C554 C551 1.463 . S
C554 N558 1.427 . S
C555 H545 0.929 . S
C555 C553 1.433 . S
C555 N558 1.384 . S
C556 H547 0.929 . S
C556 C548 1.378 . S
C556 C551 1.350 . S
C557 H544 0.929 . S
C557 C549 1.433 . S
C557 N559 1.384 . S
N558 C554 1.427 . S
N558 C555 1.384 . S
N559 C551 1.427 . S
N559 C557 1.384 . S
H560 C566 0.930 . S
H561 C570 0.930 . S
H562 C575 0.929 . S
H563 C573 0.929 . S
H564 C568 0.929 . S
H565 C574 0.929 . S
C566 H560 0.930 . S
C566 C567 1.367 . S
C566 C574 1.378 1_556 S
C567 C566 1.367 . S
C567 C575 1.433 . S
C568 H564 0.929 . S
C568 C570 1.378 . S
C568 C572 1.350 . S
C569 C572 1.463 . S
C569 C574 1.350 . S
C569 N577 1.427 . S
C570 H561 0.930 . S
C570 C568 1.378 . S
C570 C571 1.367 . S
C571 C570 1.367 . S
C571 C573 1.433 . S
C572 C568 1.350 . S
C572 C569 1.463 . S
C572 N576 1.427 . S
C573 H563 0.929 . S
C573 C571 1.433 . S
C573 N576 1.384 . S
C574 H565 0.929 . S
C574 C566 1.378 1_554 S
C574 C569 1.350 . S
C575 H562 0.929 . S
C575 C567 1.433 . S
C575 N577 1.384 1_556 S
N576 C572 1.427 . S
N576 C573 1.384 . S
N577 C569 1.427 . S
N577 C575 1.384 1_554 S
H578 C584 0.930 . S
H579 C588 0.930 . S
H580 C593 0.929 . S
H581 C591 0.929 . S
H582 C586 0.929 . S
H583 C592 0.929 . S
C584 H578 0.930 . S
C584 C585 1.367 . S
C584 C592 1.378 . S
C585 C584 1.367 . S
C585 C593 1.433 . S
C586 H582 0.929 . S
C586 C588 1.378 . S
C586 C590 1.350 . S
C587 C590 1.463 . S
C587 C592 1.350 . S
C587 N595 1.427 . S
C588 H579 0.930 . S
C588 C586 1.378 . S
C588 C589 1.367 . S
C589 C588 1.367 . S
C589 C591 1.433 . S
C590 C586 1.350 . S
C590 C587 1.463 . S
C590 N594 1.427 . S
C591 H581 0.929 . S
C591 C589 1.433 . S
C591 N594 1.384 . S
C592 H583 0.929 . S
C592 C584 1.378 . S
C592 C587 1.350 . S
C593 H580 0.929 . S
C593 C585 1.433 . S
C593 N595 1.384 . S
N594 C590 1.427 . S
N594 C591 1.384 . S
N595 C587 1.427 . S
N595 C593 1.384 . S
H596 C602 0.930 . S
H597 C606 0.930 . S
H598 C611 0.929 . S
H599 C609 0.929 . S
H600 C604 0.929 . S
H601 C610 0.929 . S
C602 H596 0.930 . S
C602 C603 1.367 . S
C602 C610 1.378 . S
C603 C602 1.367 . S
C603 C611 1.433 . S
C604 H600 0.929 . S
C604 C606 1.378 1_556 S
C604 C608 1.350 . S
C605 C608 1.463 . S
C605 C610 1.350 . S
C605 N613 1.427 . S
C606 H597 0.930 . S
C606 C604 1.378 1_554 S
C606 C607 1.367 . S
C607 C606 1.367 . S
C607 C609 1.433 . S
C608 C604 1.350 . S
C608 C605 1.463 . S
C608 N612 1.427 . S
C609 H599 0.929 . S
C609 C607 1.433 . S
C609 N612 1.384 1_554 S
C610 H601 0.929 . S
C610 C602 1.378 . S
C610 C605 1.350 . S
C611 H598 0.929 . S
C611 C603 1.433 . S
C611 N613 1.384 . S
N612 C608 1.427 . S
N612 C609 1.384 1_556 S
N613 C605 1.427 . S
N613 C611 1.384 . S
H614 C620 0.930 . S
H615 C624 0.930 . S
H616 C629 0.929 . S
H617 C627 0.929 . S
H618 C622 0.929 . S
H619 C628 0.929 . S
C620 H614 0.930 . S
C620 C621 1.367 . S
C620 C628 1.378 . S
C621 C620 1.367 . S
C621 C629 1.433 . S
C622 H618 0.929 . S
C622 C624 1.378 . S
C622 C626 1.350 . S
C623 C626 1.463 . S
C623 C628 1.350 . S
C623 N631 1.427 . S
C624 H615 0.930 . S
C624 C622 1.378 . S
C624 C625 1.367 . S
C625 C624 1.367 . S
C625 C627 1.433 . S
C626 C622 1.350 . S
C626 C623 1.463 . S
C626 N630 1.427 . S
C627 H617 0.929 . S
C627 C625 1.433 . S
C627 N630 1.384 . S
C628 H619 0.929 . S
C628 C620 1.378 . S
C628 C623 1.350 . S
C629 H616 0.929 . S
C629 C621 1.433 . S
C629 N631 1.384 . S
N630 C626 1.427 . S
N630 C627 1.384 . S
N631 C623 1.427 . S
N631 C629 1.384 . S
H632 C638 0.930 . S
H633 C642 0.930 . S
H634 C647 0.929 . S
H635 C645 0.929 . S
H636 C640 0.929 . S
H637 C646 0.929 . S
C638 H632 0.930 . S
C638 C639 1.367 . S
C638 C646 1.378 . S
C639 C638 1.367 . S
C639 C647 1.433 . S
C640 H636 0.929 . S
C640 C642 1.378 . S
C640 C644 1.350 . S
C641 C644 1.463 . S
C641 C646 1.350 . S
C641 N649 1.427 . S
C642 H633 0.930 . S
C642 C640 1.378 . S
C642 C643 1.367 . S
C643 C642 1.367 . S
C643 C645 1.433 . S
C644 C640 1.350 . S
C644 C641 1.463 . S
C644 N648 1.427 . S
C645 H635 0.929 . S
C645 C643 1.433 . S
C645 N648 1.384 . S
C646 H637 0.929 . S
C646 C638 1.378 . S
C646 C641 1.350 . S
C647 H634 0.929 . S
C647 C639 1.433 . S
C647 N649 1.384 . S
N648 C644 1.427 . S
N648 C645 1.384 . S
N649 C641 1.427 . S
N649 C647 1.384 . S
H650 C656 0.930 . S
H651 C660 0.930 . S
H652 C665 0.929 . S
H653 C663 0.929 . S
H654 C658 0.929 . S
H655 C664 0.929 . S
C656 H650 0.930 . S
C656 C657 1.367 . S
C656 C664 1.378 . S
C657 C656 1.367 . S
C657 C665 1.433 . S
C658 H654 0.929 . S
C658 C660 1.378 . S
C658 C662 1.350 . S
C659 C662 1.463 . S
C659 C664 1.350 . S
C659 N667 1.427 . S
C660 H651 0.930 . S
C660 C658 1.378 . S
C660 C661 1.367 . S
C661 C660 1.367 . S
C661 C663 1.433 . S
C662 C658 1.350 . S
C662 C659 1.463 . S
C662 N666 1.427 . S
C663 H653 0.929 . S
C663 C661 1.433 . S
C663 N666 1.384 . S
C664 H655 0.929 . S
C664 C656 1.378 . S
C664 C659 1.350 . S
C665 H652 0.929 . S
C665 C657 1.433 . S
C665 N667 1.384 . S
N666 C662 1.427 . S
N666 C663 1.384 . S
N667 C659 1.427 . S
N667 C665 1.384 . S
H668 C674 0.930 . S
H669 C678 0.930 . S
H670 C683 0.929 . S
H671 C681 0.929 . S
H672 C676 0.929 . S
H673 C682 0.929 . S
C674 H668 0.930 . S
C674 C675 1.367 . S
C674 C682 1.378 . S
C675 C674 1.367 . S
C675 C683 1.433 . S
C676 H672 0.929 . S
C676 C678 1.378 . S
C676 C680 1.350 . S
C677 C680 1.463 . S
C677 C682 1.350 . S
C677 N685 1.427 . S
C678 H669 0.930 . S
C678 C676 1.378 . S
C678 C679 1.367 . S
C679 C678 1.367 . S
C679 C681 1.433 . S
C680 C676 1.350 . S
C680 C677 1.463 . S
C680 N684 1.427 . S
C681 H671 0.929 . S
C681 C679 1.433 . S
C681 N684 1.384 . S
C682 H673 0.929 . S
C682 C674 1.378 . S
C682 C677 1.350 . S
C683 H670 0.929 . S
C683 C675 1.433 . S
C683 N685 1.384 . S
N684 C680 1.427 . S
N684 C681 1.384 . S
N685 C677 1.427 . S
N685 C683 1.384 . S
H686 C692 0.930 . S
H687 C696 0.930 . S
H688 C701 0.929 . S
H689 C699 0.929 . S
H690 C694 0.929 . S
H691 C700 0.929 . S
C692 H686 0.930 . S
C692 C693 1.367 . S
C692 C700 1.378 . S
C693 C692 1.367 . S
C693 C701 1.433 . S
C694 H690 0.929 . S
C694 C696 1.378 . S
C694 C698 1.350 . S
C695 C698 1.463 . S
C695 C700 1.350 . S
C695 N703 1.427 . S
C696 H687 0.930 . S
C696 C694 1.378 . S
C696 C697 1.367 . S
C697 C696 1.367 . S
C697 C699 1.433 . S
C698 C694 1.350 . S
C698 C695 1.463 . S
C698 N702 1.427 . S
C699 H689 0.929 . S
C699 C697 1.433 . S
C699 N702 1.384 . S
C700 H691 0.929 . S
C700 C692 1.378 . S
C700 C695 1.350 . S
C701 H688 0.929 . S
C701 C693 1.433 . S
C701 N703 1.384 . S
N702 C698 1.427 . S
N702 C699 1.384 . S
N703 C695 1.427 . S
N703 C701 1.384 . S
H704 C710 0.930 . S
H705 C714 0.930 . S
H706 C719 0.929 . S
H707 C717 0.929 . S
H708 C712 0.929 . S
H709 C718 0.929 . S
C710 H704 0.930 . S
C710 C711 1.367 . S
C710 C718 1.378 . S
C711 C710 1.367 . S
C711 C719 1.433 . S
C712 H708 0.929 . S
C712 C714 1.378 . S
C712 C716 1.350 . S
C713 C716 1.463 . S
C713 C718 1.350 . S
C713 N721 1.427 . S
C714 H705 0.930 . S
C714 C712 1.378 . S
C714 C715 1.367 . S
C715 C714 1.367 . S
C715 C717 1.433 . S
C716 C712 1.350 . S
C716 C713 1.463 . S
C716 N720 1.427 . S
C717 H707 0.929 . S
C717 C715 1.433 . S
C717 N720 1.384 . S
C718 H709 0.929 . S
C718 C710 1.378 . S
C718 C713 1.350 . S
C719 H706 0.929 . S
C719 C711 1.433 . S
C719 N721 1.384 . S
N720 C716 1.427 . S
N720 C717 1.384 . S
N721 C713 1.427 . S
N721 C719 1.384 . S
H722 C728 0.930 . S
H723 C732 0.930 . S
H724 C737 0.929 . S
H725 C735 0.929 . S
H726 C730 0.929 . S
H727 C736 0.929 . S
C728 H722 0.930 . S
C728 C729 1.367 . S
C728 C736 1.378 . S
C729 C728 1.367 . S
C729 C737 1.433 . S
C730 H726 0.929 . S
C730 C732 1.378 . S
C730 C734 1.350 . S
C731 C734 1.463 . S
C731 C736 1.350 . S
C731 N739 1.427 . S
C732 H723 0.930 . S
C732 C730 1.378 . S
C732 C733 1.367 . S
C733 C732 1.367 . S
C733 C735 1.433 . S
C734 C730 1.350 . S
C734 C731 1.463 . S
C734 N738 1.427 . S
C735 H725 0.929 . S
C735 C733 1.433 . S
C735 N738 1.384 . S
C736 H727 0.929 . S
C736 C728 1.378 . S
C736 C731 1.350 . S
C737 H724 0.929 . S
C737 C729 1.433 . S
C737 N739 1.384 . S
N738 C734 1.427 . S
N738 C735 1.384 . S
N739 C731 1.427 . S
N739 C737 1.384 . S
H740 C746 0.930 . S
H741 C750 0.930 . S
H742 C755 0.929 . S
H743 C753 0.929 . S
H744 C748 0.929 . S
H745 C754 0.929 . S
C746 H740 0.930 . S
C746 C747 1.367 . S
C746 C754 1.378 . S
C747 C746 1.367 . S
C747 C755 1.433 . S
C748 H744 0.929 . S
C748 C750 1.378 . S
C748 C752 1.350 . S
C749 C752 1.463 . S
C749 C754 1.350 . S
C749 N757 1.427 . S
C750 H741 0.930 . S
C750 C748 1.378 . S
C750 C751 1.367 . S
C751 C750 1.367 . S
C751 C753 1.433 . S
C752 C748 1.350 . S
C752 C749 1.463 . S
C752 N756 1.427 . S
C753 H743 0.929 . S
C753 C751 1.433 . S
C753 N756 1.384 . S
C754 H745 0.929 . S
C754 C746 1.378 . S
C754 C749 1.350 . S
C755 H742 0.929 . S
C755 C747 1.433 . S
C755 N757 1.384 . S
N756 C752 1.427 . S
N756 C753 1.384 . S
N757 C749 1.427 . S
N757 C755 1.384 . S
H758 C764 0.930 . S
H759 C768 0.930 . S
H760 C773 0.929 . S
H761 C771 0.929 . S
H762 C766 0.929 . S
H763 C772 0.929 . S
C764 H758 0.930 . S
C764 C765 1.367 . S
C764 C772 1.378 . S
C765 C764 1.367 . S
C765 C773 1.433 . S
C766 H762 0.929 . S
C766 C768 1.378 . S
C766 C770 1.350 . S
C767 C770 1.463 . S
C767 C772 1.350 . S
C767 N775 1.427 . S
C768 H759 0.930 . S
C768 C766 1.378 . S
C768 C769 1.367 . S
C769 C768 1.367 . S
C769 C771 1.433 . S
C770 C766 1.350 . S
C770 C767 1.463 . S
C770 N774 1.427 . S
C771 H761 0.929 . S
C771 C769 1.433 . S
C771 N774 1.384 . S
C772 H763 0.929 . S
C772 C764 1.378 . S
C772 C767 1.350 . S
C773 H760 0.929 . S
C773 C765 1.433 . S
C773 N775 1.384 . S
N774 C770 1.427 . S
N774 C771 1.384 . S
N775 C767 1.427 . S
N775 C773 1.384 . S
C279 C3 1.494 . S
C283 C49 1.594 . S
C297 C37 1.489 . S
C301 C15 1.594 . S
C315 C69 1.497 . S
C319 C117 1.595 . S
C333 C105 1.497 . S
C337 C90 1.595 . S
C351 C137 1.501 . S
C355 C192 1.596 . S
C369 C171 1.484 . S
C373 C158 1.592 . S
C387 C260 1.594 . S
C391 C207 1.491 . S
C405 C239 1.486 . S
C409 C219 1.593 . S
C423 C1 1.991 . S
C427 C139 1.991 . S
C441 C173 1.996 . S
C445 C35 1.996 . S
C459 C205 1.996 . S
C463 C71 1.996 . S
C477 C241 1.995 . S
C481 C103 1.995 . S
C495 C255 1.927 . S
C499 C22 1.664 . S
C513 C221 1.929 . S
C517 C56 1.670 . S
C531 C83 1.666 . S
C535 C187 1.927 . S
C549 C153 1.928 . S
C553 C124 1.666 . S
C567 C151 1.664 . S
C571 C119 1.927 . S
C585 C185 1.665 . S
C589 C85 1.927 . S
C603 C51 1.927 . S
C607 C226 1.663 . S
C621 C17 1.933 . S
C625 C253 1.684 . S
C639 C176 1.247 . S
C643 C6 1.252 . S
C657 C40 1.252 . S
C661 C142 1.247 . S
C675 C244 1.248 . S
C679 C96 1.251 . S
C693 C108 1.249 . S
C697 C232 1.252 . S
C711 C164 1.250 . S
C715 C62 1.252 . S
C729 C28 1.247 . S
C733 C198 1.252 . S
C747 C130 1.247 . S
C751 C210 1.252 . S
C765 C266 1.252 . S
C769 C74 1.247 . S
