# Generated by pormake.
# Topology uns, (4)-cn, num edge types: 1
# Building blocks:
#     Node 0, Type 0, BuildingBlock: NAWXER_clean_sbu_0, # of connection points: 4
#     Node 1, Type 0, BuildingBlock: NAWXER_clean_sbu_0, # of connection points: 4
#     Node 2, Type 0, BuildingBlock: NAWXER_clean_sbu_0, # of connection points: 4
#     Node 3, Type 0, BuildingBlock: NAWXER_clean_sbu_0, # of connection points: 4
#     Node 4, Type 0, BuildingBlock: NAWXER_clean_sbu_0, # of connection points: 4
#     Node 5, Type 0, BuildingBlock: NAWXER_clean_sbu_0, # of connection points: 4
#     Node 6, Type 0, BuildingBlock: NAWXER_clean_sbu_0, # of connection points: 4
#     Node 7, Type 0, BuildingBlock: NAWXER_clean_sbu_0, # of connection points: 4
#     Node 8, Type 0, BuildingBlock: NAWXER_clean_sbu_0, # of connection points: 4
#     Node 9, Type 0, BuildingBlock: NAWXER_clean_sbu_0, # of connection points: 4
#     Node 10, Type 0, BuildingBlock: NAWXER_clean_sbu_0, # of connection points: 4
#     Node 11, Type 0, BuildingBlock: NAWXER_clean_sbu_0, # of connection points: 4
#     Node 12, Type 0, BuildingBlock: NAWXER_clean_sbu_0, # of connection points: 4
#     Node 13, Type 0, BuildingBlock: NAWXER_clean_sbu_0, # of connection points: 4
#     Node 14, Type 0, BuildingBlock: NAWXER_clean_sbu_0, # of connection points: 4
#     Node 15, Type 0, BuildingBlock: NAWXER_clean_sbu_0, # of connection points: 4
#     Node 16, Type 0, BuildingBlock: NAWXER_clean_sbu_0, # of connection points: 4
#     Node 17, Type 0, BuildingBlock: NAWXER_clean_sbu_0, # of connection points: 4
#     Node 18, Type 0, BuildingBlock: NAWXER_clean_sbu_0, # of connection points: 4
#     Node 19, Type 0, BuildingBlock: NAWXER_clean_sbu_0, # of connection points: 4
#     Node 20, Type 0, BuildingBlock: NAWXER_clean_sbu_0, # of connection points: 4
#     Node 21, Type 0, BuildingBlock: NAWXER_clean_sbu_0, # of connection points: 4
#     Node 22, Type 0, BuildingBlock: NAWXER_clean_sbu_0, # of connection points: 4
#     Node 23, Type 0, BuildingBlock: NAWXER_clean_sbu_0, # of connection points: 4
#     Node 24, Type 0, BuildingBlock: NAWXER_clean_sbu_0, # of connection points: 4
#     Node 25, Type 0, BuildingBlock: NAWXER_clean_sbu_0, # of connection points: 4
#     Node 26, Type 0, BuildingBlock: NAWXER_clean_sbu_0, # of connection points: 4
#     Node 27, Type 0, BuildingBlock: NAWXER_clean_sbu_0, # of connection points: 4
#     Node 28, Type 0, BuildingBlock: NAWXER_clean_sbu_0, # of connection points: 4
#     Node 29, Type 0, BuildingBlock: NAWXER_clean_sbu_0, # of connection points: 4
#     Node 30, Type 0, BuildingBlock: NAWXER_clean_sbu_0, # of connection points: 4
#     Node 31, Type 0, BuildingBlock: NAWXER_clean_sbu_0, # of connection points: 4
#     Node 32, Type 0, BuildingBlock: NAWXER_clean_sbu_0, # of connection points: 4
#     Node 33, Type 0, BuildingBlock: NAWXER_clean_sbu_0, # of connection points: 4
#     Node 34, Type 0, BuildingBlock: NAWXER_clean_sbu_0, # of connection points: 4
#     Node 35, Type 0, BuildingBlock: NAWXER_clean_sbu_0, # of connection points: 4
#     Edge 36, Type (0, 0), BuildingBlock: TEMPAE_clean_linker_10, # of connection points: 2
#     Edge 37, Type (0, 0), BuildingBlock: TEMPAE_clean_linker_10, # of connection points: 2
#     Edge 38, Type (0, 0), BuildingBlock: TEMPAE_clean_linker_10, # of connection points: 2
#     Edge 39, Type (0, 0), BuildingBlock: TEMPAE_clean_linker_10, # of connection points: 2
#     Edge 40, Type (0, 0), BuildingBlock: TEMPAE_clean_linker_10, # of connection points: 2
#     Edge 41, Type (0, 0), BuildingBlock: TEMPAE_clean_linker_10, # of connection points: 2
#     Edge 42, Type (0, 0), BuildingBlock: TEMPAE_clean_linker_10, # of connection points: 2
#     Edge 43, Type (0, 0), BuildingBlock: TEMPAE_clean_linker_10, # of connection points: 2
#     Edge 44, Type (0, 0), BuildingBlock: TEMPAE_clean_linker_10, # of connection points: 2
#     Edge 45, Type (0, 0), BuildingBlock: TEMPAE_clean_linker_10, # of connection points: 2
#     Edge 46, Type (0, 0), BuildingBlock: TEMPAE_clean_linker_10, # of connection points: 2
#     Edge 47, Type (0, 0), BuildingBlock: TEMPAE_clean_linker_10, # of connection points: 2
#     Edge 48, Type (0, 0), BuildingBlock: TEMPAE_clean_linker_10, # of connection points: 2
#     Edge 49, Type (0, 0), BuildingBlock: TEMPAE_clean_linker_10, # of connection points: 2
#     Edge 50, Type (0, 0), BuildingBlock: TEMPAE_clean_linker_10, # of connection points: 2
#     Edge 51, Type (0, 0), BuildingBlock: TEMPAE_clean_linker_10, # of connection points: 2
#     Edge 52, Type (0, 0), BuildingBlock: TEMPAE_clean_linker_10, # of connection points: 2
#     Edge 53, Type (0, 0), BuildingBlock: TEMPAE_clean_linker_10, # of connection points: 2
#     Edge 54, Type (0, 0), BuildingBlock: TEMPAE_clean_linker_10, # of connection points: 2
#     Edge 55, Type (0, 0), BuildingBlock: TEMPAE_clean_linker_10, # of connection points: 2
#     Edge 56, Type (0, 0), BuildingBlock: TEMPAE_clean_linker_10, # of connection points: 2
#     Edge 57, Type (0, 0), BuildingBlock: TEMPAE_clean_linker_10, # of connection points: 2
#     Edge 58, Type (0, 0), BuildingBlock: TEMPAE_clean_linker_10, # of connection points: 2
#     Edge 59, Type (0, 0), BuildingBlock: TEMPAE_clean_linker_10, # of connection points: 2
#     Edge 60, Type (0, 0), BuildingBlock: TEMPAE_clean_linker_10, # of connection points: 2
#     Edge 61, Type (0, 0), BuildingBlock: TEMPAE_clean_linker_10, # of connection points: 2
#     Edge 62, Type (0, 0), BuildingBlock: TEMPAE_clean_linker_10, # of connection points: 2
#     Edge 63, Type (0, 0), BuildingBlock: TEMPAE_clean_linker_10, # of connection points: 2
#     Edge 64, Type (0, 0), BuildingBlock: TEMPAE_clean_linker_10, # of connection points: 2
#     Edge 65, Type (0, 0), BuildingBlock: TEMPAE_clean_linker_10, # of connection points: 2
#     Edge 66, Type (0, 0), BuildingBlock: TEMPAE_clean_linker_10, # of connection points: 2
#     Edge 67, Type (0, 0), BuildingBlock: TEMPAE_clean_linker_10, # of connection points: 2
#     Edge 68, Type (0, 0), BuildingBlock: TEMPAE_clean_linker_10, # of connection points: 2
#     Edge 69, Type (0, 0), BuildingBlock: TEMPAE_clean_linker_10, # of connection points: 2
#     Edge 70, Type (0, 0), BuildingBlock: TEMPAE_clean_linker_10, # of connection points: 2
#     Edge 71, Type (0, 0), BuildingBlock: TEMPAE_clean_linker_10, # of connection points: 2
#     Edge 72, Type (0, 0), BuildingBlock: TEMPAE_clean_linker_10, # of connection points: 2
#     Edge 73, Type (0, 0), BuildingBlock: TEMPAE_clean_linker_10, # of connection points: 2
#     Edge 74, Type (0, 0), BuildingBlock: TEMPAE_clean_linker_10, # of connection points: 2
#     Edge 75, Type (0, 0), BuildingBlock: TEMPAE_clean_linker_10, # of connection points: 2
#     Edge 76, Type (0, 0), BuildingBlock: TEMPAE_clean_linker_10, # of connection points: 2
#     Edge 77, Type (0, 0), BuildingBlock: TEMPAE_clean_linker_10, # of connection points: 2
#     Edge 78, Type (0, 0), BuildingBlock: TEMPAE_clean_linker_10, # of connection points: 2
#     Edge 79, Type (0, 0), BuildingBlock: TEMPAE_clean_linker_10, # of connection points: 2
#     Edge 80, Type (0, 0), BuildingBlock: TEMPAE_clean_linker_10, # of connection points: 2
#     Edge 81, Type (0, 0), BuildingBlock: TEMPAE_clean_linker_10, # of connection points: 2
#     Edge 82, Type (0, 0), BuildingBlock: TEMPAE_clean_linker_10, # of connection points: 2
#     Edge 83, Type (0, 0), BuildingBlock: TEMPAE_clean_linker_10, # of connection points: 2
#     Edge 84, Type (0, 0), BuildingBlock: TEMPAE_clean_linker_10, # of connection points: 2
#     Edge 85, Type (0, 0), BuildingBlock: TEMPAE_clean_linker_10, # of connection points: 2
#     Edge 86, Type (0, 0), BuildingBlock: TEMPAE_clean_linker_10, # of connection points: 2
#     Edge 87, Type (0, 0), BuildingBlock: TEMPAE_clean_linker_10, # of connection points: 2
#     Edge 88, Type (0, 0), BuildingBlock: TEMPAE_clean_linker_10, # of connection points: 2
#     Edge 89, Type (0, 0), BuildingBlock: TEMPAE_clean_linker_10, # of connection points: 2
#     Edge 90, Type (0, 0), BuildingBlock: TEMPAE_clean_linker_10, # of connection points: 2
#     Edge 91, Type (0, 0), BuildingBlock: TEMPAE_clean_linker_10, # of connection points: 2
#     Edge 92, Type (0, 0), BuildingBlock: TEMPAE_clean_linker_10, # of connection points: 2
#     Edge 93, Type (0, 0), BuildingBlock: TEMPAE_clean_linker_10, # of connection points: 2
#     Edge 94, Type (0, 0), BuildingBlock: TEMPAE_clean_linker_10, # of connection points: 2
#     Edge 95, Type (0, 0), BuildingBlock: TEMPAE_clean_linker_10, # of connection points: 2
#     Edge 96, Type (0, 0), BuildingBlock: TEMPAE_clean_linker_10, # of connection points: 2
#     Edge 97, Type (0, 0), BuildingBlock: TEMPAE_clean_linker_10, # of connection points: 2
#     Edge 98, Type (0, 0), BuildingBlock: TEMPAE_clean_linker_10, # of connection points: 2
#     Edge 99, Type (0, 0), BuildingBlock: TEMPAE_clean_linker_10, # of connection points: 2
#     Edge 100, Type (0, 0), BuildingBlock: TEMPAE_clean_linker_10, # of connection points: 2
#     Edge 101, Type (0, 0), BuildingBlock: TEMPAE_clean_linker_10, # of connection points: 2
#     Edge 102, Type (0, 0), BuildingBlock: TEMPAE_clean_linker_10, # of connection points: 2
#     Edge 103, Type (0, 0), BuildingBlock: TEMPAE_clean_linker_10, # of connection points: 2
#     Edge 104, Type (0, 0), BuildingBlock: TEMPAE_clean_linker_10, # of connection points: 2
#     Edge 105, Type (0, 0), BuildingBlock: TEMPAE_clean_linker_10, # of connection points: 2
#     Edge 106, Type (0, 0), BuildingBlock: TEMPAE_clean_linker_10, # of connection points: 2
#     Edge 107, Type (0, 0), BuildingBlock: TEMPAE_clean_linker_10, # of connection points: 2
# Relax obj value: 0.008
# Max RMSD: 0.156
# Mean RMSD: 0.156
data_MOF--net-uns--node1-NAWXER_clean_sbu_0--edge1-TEMPAE_clean_linker_10
_symmetry_space_group_name_H-M    P1
_symmetry_Int_Tables_number       1
_symmetry_cell_setting            triclinic
loop_
_symmetry_equiv_pos_as_xyz
'x, y, z'
_cell_length_a     61.363915
_cell_length_b     61.362431
_cell_length_c     46.198446
_cell_angle_alpha  90.003165
_cell_angle_beta   89.997313
_cell_angle_gamma 119.99842
loop_
_atom_site_label
_atom_site_type_symbol
_atom_site_fract_x
_atom_site_fract_y
_atom_site_fract_z
_atom_type_partial_charge
C0 C 0.27459 0.17996 0.10186 0.0
C1 C 0.21271 0.19331 0.05096 0.0
O2 O 0.25276 0.17448 0.11042 0.0
Zn3 Zn 0.24283 0.185 0.07585 0.0
O4 O 0.28186 0.18873 0.0763 0.0
Zn5 Zn 0.26663 0.19784 0.03933 0.0
O6 O 0.29147 0.23254 0.03395 0.0
O7 O 0.26936 0.22518 0.07417 0.0
O8 O 0.23219 0.19907 0.0354 0.0
O9 O 0.2109 0.1839 0.07595 0.0
O10 O 0.23691 0.15605 0.04564 0.0
O11 O 0.26408 0.17413 0.01017 0.0
C12 C 0.28674 0.24066 0.05705 0.0
C13 C 0.24636 0.15438 0.02156 0.0
C14 C 0.80698 0.01848 0.05448 0.0
C15 C 0.82096 0.09424 0.10453 0.0
O16 O 0.81655 0.02627 0.07936 0.0
Zn17 Zn 0.81563 0.05719 0.07891 0.0
O18 O 0.80127 0.03216 0.03877 0.0
Zn19 Zn 0.80267 0.06792 0.04233 0.0
O20 O 0.82619 0.08878 0.01293 0.0
O21 O 0.84447 0.07995 0.04841 0.0
O22 O 0.81205 0.09256 0.07902 0.0
O23 O 0.8264 0.07791 0.11325 0.0
O24 O 0.77546 0.04366 0.07741 0.0
O25 O 0.76802 0.05817 0.03704 0.0
C26 C 0.84599 0.09088 0.02423 0.0
C27 C 0.75996 0.04549 0.06026 0.0
C28 C 0.91177 0.75707 0.02556 0.0
C29 C 0.95473 0.71391 0.06168 0.0
O30 O 0.91379 0.73946 0.01379 0.0
Zn31 Zn 0.93354 0.73564 0.04347 0.0
O32 O 0.92247 0.76594 0.05004 0.0
Zn33 Zn 0.94513 0.75901 0.08037 0.0
O34 O 0.97657 0.79037 0.08079 0.0
O35 O 0.9699 0.76932 0.03996 0.0
O36 O 0.95737 0.73167 0.07856 0.0
O37 O 0.94184 0.70944 0.03866 0.0
O38 O 0.90782 0.72175 0.07945 0.0
O39 O 0.92516 0.74897 0.11524 0.0
C40 C 0.98406 0.78848 0.05577 0.0
C41 C 0.90709 0.72854 0.10552 0.0
C42 C 0.15486 0.24499 0.47413 0.0
C43 C 0.2415 0.28818 0.43969 0.0
O44 O 0.17434 0.26252 0.48624 0.0
Zn45 Zn 0.19831 0.26633 0.4571 0.0
O46 O 0.15703 0.23615 0.44979 0.0
Zn47 Zn 0.18708 0.24311 0.42013 0.0
O48 O 0.18704 0.21174 0.41991 0.0
O49 O 0.20084 0.23257 0.46096 0.0
O50 O 0.22664 0.27046 0.42259 0.0
O51 O 0.23273 0.29252 0.4625 0.0
O52 O 0.18697 0.28029 0.42074 0.0
O53 O 0.17766 0.25316 0.38496 0.0
C54 C 0.196 0.21346 0.44514 0.0
C55 C 0.17983 0.27354 0.39457 0.0
C56 C 0.78712 0.98246 0.44425 0.0
C57 C 0.72659 0.90587 0.39447 0.0
O58 O 0.78876 0.97506 0.41909 0.0
Zn59 Zn 0.75726 0.94383 0.41957 0.0
O60 O 0.76797 0.9684 0.46012 0.0
Zn61 Zn 0.73402 0.93227 0.45658 0.0
O62 O 0.73778 0.91233 0.48611 0.0
O63 O 0.76419 0.92111 0.44976 0.0
O64 O 0.71991 0.90661 0.42058 0.0
O65 O 0.74702 0.9239 0.3847 0.0
O66 O 0.73021 0.95642 0.42169 0.0
O67 O 0.70806 0.94091 0.46163 0.0
C68 C 0.75538 0.91036 0.47423 0.0
C69 C 0.71256 0.9539 0.43869 0.0
C70 C 0.01867 0.80675 0.44692 0.0
C71 C 0.09489 0.82138 0.39753 0.0
O72 O 0.02659 0.81645 0.42211 0.0
Zn73 Zn 0.05761 0.81576 0.42283 0.0
O74 O 0.03233 0.8011 0.46275 0.0
Zn75 Zn 0.06825 0.8028 0.45954 0.0
O76 O 0.08883 0.82639 0.48911 0.0
O77 O 0.08005 0.84456 0.45347 0.0
O78 O 0.09313 0.81246 0.42306 0.0
O79 O 0.0785 0.82668 0.38865 0.0
O80 O 0.04429 0.77566 0.42421 0.0
O81 O 0.05869 0.76812 0.46461 0.0
C82 C 0.09086 0.84615 0.47775 0.0
C83 C 0.04614 0.76013 0.44129 0.0
C84 C 0.75596 0.8457 0.97772 0.0
C85 C 0.7151 0.75994 0.94044 0.0
O86 O 0.76548 0.84425 0.9536 0.0
Zn87 Zn 0.75954 0.81567 0.92281 0.0
O88 O 0.73805 0.82588 0.98878 0.0
Zn89 Zn 0.7355 0.80251 0.95915 0.0
O90 O 0.76979 0.80106 0.96312 0.0
O91 O 0.79136 0.8165 0.92279 0.0
O92 O 0.7104 0.76779 0.96378 0.0
O93 O 0.73268 0.77558 0.92364 0.0
O94 O 0.75001 0.82689 0.88848 0.0
O95 O 0.72077 0.81248 0.92245 0.0
C96 C 0.78936 0.80689 0.9477 0.0
C97 C 0.72823 0.82158 0.89704 0.0
C98 C 0.19599 0.98111 0.94679 0.0
C99 C 0.18128 0.90476 0.89759 0.0
O100 O 0.2018 0.96756 0.9626 0.0
Zn101 Zn 0.20026 0.93171 0.95941 0.0
O102 O 0.18623 0.97311 0.92203 0.0
Zn103 Zn 0.18701 0.94213 0.92278 0.0
O104 O 0.15842 0.91979 0.95372 0.0
O105 O 0.17685 0.91115 0.9892 0.0
O106 O 0.17585 0.92107 0.88875 0.0
O107 O 0.1904 0.90666 0.92303 0.0
O108 O 0.23503 0.94144 0.96415 0.0
O109 O 0.22713 0.95546 0.92371 0.0
C110 C 0.15701 0.90907 0.97802 0.0
C111 C 0.24282 0.95377 0.94066 0.0
C112 C 0.09083 0.24517 0.97649 0.0
C113 C 0.04683 0.28815 0.94297 0.0
O114 O 0.07987 0.23655 0.95207 0.0
Zn115 Zn 0.05683 0.24368 0.92259 0.0
O116 O 0.0889 0.26263 0.98882 0.0
Zn117 Zn 0.06869 0.26662 0.95984 0.0
O118 O 0.03256 0.23263 0.96338 0.0
O119 O 0.02566 0.21219 0.92205 0.0
O120 O 0.06008 0.29254 0.96568 0.0
O121 O 0.04419 0.27065 0.92564 0.0
O122 O 0.07636 0.2542 0.88749 0.0
O123 O 0.09403 0.28103 0.92356 0.0
C124 C 0.0184 0.21363 0.94736 0.0
C125 C 0.09449 0.27454 0.89728 0.0
C126 C 0.8454 0.75533 0.52234 0.0
C127 C 0.75941 0.71506 0.55878 0.0
O128 O 0.84386 0.76488 0.54639 0.0
Zn129 Zn 0.8152 0.75909 0.57692 0.0
O130 O 0.82562 0.73746 0.51117 0.0
Zn131 Zn 0.80209 0.73503 0.54055 0.0
O132 O 0.80089 0.76944 0.53646 0.0
O133 O 0.81624 0.79102 0.57681 0.0
O134 O 0.76732 0.71016 0.53562 0.0
O135 O 0.77505 0.73254 0.57568 0.0
O136 O 0.82608 0.74935 0.61138 0.0
O137 O 0.81157 0.72008 0.57744 0.0
C138 C 0.80672 0.78903 0.55184 0.0
C139 C 0.82057 0.7275 0.60289 0.0
C140 C 0.27508 0.09517 0.60309 0.0
C141 C 0.2132 0.01924 0.55333 0.0
O142 O 0.28226 0.09343 0.57756 0.0
Zn143 Zn 0.26697 0.06861 0.54099 0.0
O144 O 0.25336 0.07879 0.61189 0.0
Zn145 Zn 0.24333 0.058 0.57762 0.0
O146 O 0.26991 0.0444 0.57619 0.0
O147 O 0.29188 0.0588 0.53582 0.0
O148 O 0.21147 0.02712 0.57818 0.0
O149 O 0.23258 0.03284 0.53757 0.0
O150 O 0.26427 0.08939 0.51148 0.0
O151 O 0.23725 0.08071 0.54703 0.0
C152 C 0.28723 0.04615 0.55908 0.0
C153 C 0.2466 0.09156 0.5228 0.0
C154 C 0.90604 0.18024 0.60032 0.0
C155 C 0.98192 0.19512 0.54972 0.0
O156 O 0.90669 0.18762 0.57421 0.0
Zn157 Zn 0.932 0.19866 0.53789 0.0
O158 O 0.92394 0.1775 0.60985 0.0
Zn159 Zn 0.94359 0.18688 0.57478 0.0
O160 O 0.95652 0.22659 0.57256 0.0
O161 O 0.94097 0.23332 0.5327 0.0
O162 O 0.97461 0.1862 0.57495 0.0
O163 O 0.96792 0.20038 0.53398 0.0
O164 O 0.9116 0.17495 0.50861 0.0
O165 O 0.92039 0.15723 0.54486 0.0
C166 C 0.95408 0.24177 0.55557 0.0
C167 C 0.90948 0.15533 0.52052 0.0
C168 C 0.94271 0.51432 0.43466 0.0
C169 C 0.88045 0.52846 0.38604 0.0
O170 O 0.92105 0.5089 0.44378 0.0
Zn171 Zn 0.9107 0.51968 0.40979 0.0
O172 O 0.94964 0.52323 0.40909 0.0
Zn173 Zn 0.93401 0.53269 0.37283 0.0
O174 O 0.95888 0.56744 0.36756 0.0
O175 O 0.93732 0.5598 0.40825 0.0
O176 O 0.89966 0.53414 0.37002 0.0
O177 O 0.8789 0.51885 0.41085 0.0
O178 O 0.90427 0.49088 0.37912 0.0
O179 O 0.93092 0.50908 0.34322 0.0
C180 C 0.95447 0.5754 0.39101 0.0
C181 C 0.91334 0.4893 0.35473 0.0
C182 C 0.47282 0.35383 0.38749 0.0
C183 C 0.48887 0.43012 0.43811 0.0
O184 O 0.48176 0.361 0.41274 0.0
Zn185 Zn 0.48161 0.39231 0.41261 0.0
O186 O 0.46787 0.36808 0.37178 0.0
Zn187 Zn 0.47015 0.40425 0.37571 0.0
O188 O 0.49399 0.42436 0.3464 0.0
O189 O 0.5114 0.41515 0.38263 0.0
O190 O 0.48159 0.42962 0.41199 0.0
O191 O 0.49118 0.41198 0.4477 0.0
O192 O 0.44201 0.37983 0.41031 0.0
O193 O 0.4356 0.39572 0.37054 0.0
C194 C 0.51347 0.42611 0.35827 0.0
C195 C 0.42699 0.38253 0.39332 0.0
C196 C 0.57638 0.08999 0.35778 0.0
C197 C 0.62057 0.04738 0.39182 0.0
O198 O 0.57834 0.07248 0.34563 0.0
Zn199 Zn 0.59877 0.06888 0.37461 0.0
O200 O 0.58748 0.09889 0.38206 0.0
Zn201 Zn 0.6108 0.09214 0.41157 0.0
O202 O 0.64202 0.12366 0.4116 0.0
O203 O 0.63485 0.10286 0.37052 0.0
O204 O 0.62333 0.06506 0.40893 0.0
O205 O 0.60732 0.04289 0.3691 0.0
O206 O 0.57361 0.05479 0.41109 0.0
O207 O 0.59142 0.08194 0.44685 0.0
C208 C 0.6491 0.12203 0.38626 0.0
C209 C 0.57325 0.0615 0.43729 0.0
C210 C 0.82267 0.57956 0.80816 0.0
C211 C 0.90901 0.6227 0.77254 0.0
O212 O 0.84223 0.59715 0.82005 0.0
Zn213 Zn 0.86597 0.60103 0.79052 0.0
O214 O 0.82463 0.57075 0.78369 0.0
Zn215 Zn 0.85432 0.57779 0.75349 0.0
O216 O 0.85435 0.5464 0.753 0.0
O217 O 0.86847 0.56725 0.79398 0.0
O218 O 0.8939 0.60503 0.75554 0.0
O219 O 0.90053 0.62712 0.79554 0.0
O220 O 0.85432 0.61508 0.75454 0.0
O221 O 0.84453 0.58799 0.71863 0.0
C222 C 0.86353 0.54814 0.7781 0.0
C223 C 0.84688 0.6084 0.72844 0.0
C224 C 0.38023 0.28745 0.77563 0.0
C225 C 0.42245 0.24282 0.80927 0.0
O226 O 0.37557 0.27399 0.79819 0.0
Zn227 Zn 0.40138 0.26523 0.7925 0.0
O228 O 0.39782 0.29013 0.75844 0.0
Zn229 Zn 0.42461 0.27726 0.75551 0.0
O230 O 0.41425 0.25793 0.72021 0.0
O231 O 0.38718 0.24009 0.75603 0.0
O232 O 0.43134 0.25392 0.78498 0.0
O233 O 0.40494 0.24477 0.82143 0.0
O234 O 0.43549 0.30123 0.79656 0.0
O235 O 0.45624 0.30832 0.75543 0.0
C236 C 0.39384 0.23976 0.7298 0.0
C237 C 0.45466 0.31541 0.78079 0.0
C238 C 0.7606 0.18132 0.80962 0.0
C239 C 0.71547 0.09527 0.7731 0.0
O240 O 0.75891 0.16159 0.82067 0.0
Zn241 Zn 0.73773 0.13795 0.79142 0.0
O242 O 0.74932 0.17969 0.78568 0.0
Zn243 Zn 0.72642 0.15088 0.75527 0.0
O244 O 0.69534 0.15152 0.75564 0.0
O245 O 0.70191 0.13628 0.79586 0.0
O246 O 0.7133 0.11078 0.75631 0.0
O247 O 0.72827 0.10329 0.79626 0.0
O248 O 0.76189 0.14751 0.75424 0.0
O249 O 0.74676 0.16194 0.72062 0.0
C250 C 0.68795 0.14194 0.7806 0.0
C251 C 0.76321 0.1565 0.72883 0.0
C252 C 0.42181 0.18109 0.3101 0.0
C253 C 0.37966 0.09461 0.27504 0.0
O254 O 0.43091 0.17913 0.28585 0.0
Zn255 Zn 0.42444 0.14937 0.25602 0.0
O256 O 0.40419 0.16151 0.32194 0.0
Zn257 Zn 0.40087 0.13775 0.29273 0.0
O258 O 0.43487 0.13571 0.297 0.0
O259 O 0.45602 0.14981 0.25619 0.0
O260 O 0.37495 0.10314 0.29781 0.0
O261 O 0.39744 0.10971 0.25816 0.0
O262 O 0.41447 0.1588 0.22076 0.0
O263 O 0.38698 0.14902 0.25622 0.0
C264 C 0.45419 0.14084 0.28143 0.0
C265 C 0.39389 0.15632 0.23013 0.0
C266 C 0.86235 0.31613 0.27916 0.0
C267 C 0.84667 0.23952 0.22979 0.0
O268 O 0.86746 0.30217 0.29518 0.0
Zn269 Zn 0.86533 0.26602 0.2919 0.0
O270 O 0.85323 0.30856 0.25406 0.0
Zn271 Zn 0.85365 0.27742 0.25478 0.0
O272 O 0.82392 0.25461 0.28486 0.0
O273 O 0.84157 0.24599 0.32133 0.0
O274 O 0.84419 0.25748 0.21993 0.0
O275 O 0.85403 0.24033 0.25594 0.0
O276 O 0.89996 0.27481 0.29716 0.0
O277 O 0.89334 0.29024 0.25714 0.0
C278 C 0.82198 0.24387 0.30934 0.0
C279 C 0.90847 0.28785 0.27426 0.0
C280 C 0.75882 0.58052 0.31169 0.0
C281 C 0.71325 0.62103 0.27541 0.0
O282 O 0.74781 0.5711 0.28757 0.0
Zn283 Zn 0.72513 0.57713 0.257 0.0
O284 O 0.75697 0.59841 0.32291 0.0
Zn285 Zn 0.73598 0.60102 0.29353 0.0
O286 O 0.70035 0.56659 0.29734 0.0
O287 O 0.69422 0.54524 0.25682 0.0
O288 O 0.726 0.62584 0.29862 0.0
O289 O 0.71151 0.60365 0.25841 0.0
O290 O 0.74587 0.58708 0.22263 0.0
O291 O 0.76049 0.61618 0.25676 0.0
C292 C 0.68662 0.54709 0.28179 0.0
C293 C 0.76217 0.6089 0.23126 0.0
C294 C 0.48939 0.06101 0.93712 0.0
C295 C 0.47402 0.12132 0.88577 0.0
O296 O 0.48233 0.0542 0.91094 0.0
Zn297 Zn 0.4712 0.06812 0.87438 0.0
O298 O 0.49161 0.08145 0.94657 0.0
Zn299 Zn 0.48243 0.09154 0.91122 0.0
O300 O 0.4428 0.06458 0.90855 0.0
O301 O 0.43662 0.04214 0.86894 0.0
O302 O 0.48277 0.12306 0.91112 0.0
O303 O 0.46909 0.10209 0.87013 0.0
O304 O 0.49523 0.07172 0.84539 0.0
O305 O 0.51245 0.09831 0.88167 0.0
C306 C 0.42787 0.04685 0.89151 0.0
C307 C 0.51467 0.08937 0.85742 0.0
C308 C 0.94247 0.43042 0.93706 0.0
C309 C 0.88154 0.35445 0.88658 0.0
O310 O 0.95002 0.42872 0.91173 0.0
Zn311 Zn 0.93527 0.40408 0.87498 0.0
O312 O 0.92059 0.4141 0.9455 0.0
Zn313 Zn 0.91112 0.3933 0.91121 0.0
O314 O 0.938 0.38006 0.9106 0.0
O315 O 0.9604 0.39445 0.87052 0.0
O316 O 0.87941 0.36222 0.91133 0.0
O317 O 0.90108 0.36821 0.87113 0.0
O318 O 0.93278 0.42491 0.84529 0.0
O319 O 0.90521 0.41588 0.88029 0.0
C320 C 0.95561 0.38193 0.8939 0.0
C321 C 0.91484 0.42684 0.8562 0.0
C322 C 0.57413 0.51344 0.93652 0.0
C323 C 0.64995 0.52845 0.88556 0.0
O324 O 0.5746 0.52058 0.91034 0.0
Zn325 Zn 0.59983 0.53168 0.87395 0.0
O326 O 0.59225 0.5111 0.94613 0.0
Zn327 Zn 0.61174 0.52024 0.91089 0.0
O328 O 0.62467 0.55992 0.90824 0.0
O329 O 0.60866 0.56631 0.86856 0.0
O330 O 0.64282 0.51964 0.91087 0.0
O331 O 0.63579 0.53353 0.86988 0.0
O332 O 0.5794 0.50779 0.84487 0.0
O333 O 0.58838 0.49034 0.88125 0.0
C334 C 0.62207 0.57496 0.89118 0.0
C335 C 0.57734 0.48826 0.85695 0.0
C336 C 0.57988 0.82296 0.69214 0.0
C337 C 0.62309 0.90991 0.72572 0.0
O338 O 0.59733 0.84234 0.67979 0.0
Zn339 Zn 0.60153 0.86651 0.70889 0.0
O340 O 0.57139 0.82529 0.71665 0.0
Zn341 Zn 0.57875 0.85546 0.74627 0.0
O342 O 0.54729 0.85526 0.74708 0.0
O343 O 0.56757 0.86875 0.70566 0.0
O344 O 0.60568 0.89505 0.74314 0.0
O345 O 0.62742 0.90105 0.70299 0.0
O346 O 0.61608 0.8555 0.74496 0.0
O347 O 0.58946 0.84642 0.78124 0.0
C348 C 0.54866 0.86399 0.7218 0.0
C349 C 0.60972 0.84856 0.77126 0.0
C350 C 0.09427 0.71401 0.72493 0.0
C351 C 0.1809 0.7578 0.69039 0.0
O352 O 0.10301 0.72735 0.70226 0.0
Zn353 Zn 0.13748 0.73562 0.70745 0.0
O354 O 0.10916 0.71102 0.74182 0.0
Zn355 Zn 0.14872 0.72329 0.74416 0.0
O356 O 0.15815 0.7425 0.77956 0.0
O357 O 0.14885 0.76061 0.7441 0.0
O358 O 0.1787 0.74657 0.71458 0.0
O359 O 0.16146 0.75608 0.67845 0.0
O360 O 0.13519 0.69949 0.70295 0.0
O361 O 0.14888 0.69202 0.74382 0.0
C362 C 0.15599 0.76079 0.77022 0.0
C363 C 0.1401 0.68512 0.71847 0.0
C364 C 0.2878 0.38022 0.72765 0.0
C365 C 0.24331 0.42141 0.69012 0.0
O366 O 0.2754 0.37567 0.70421 0.0
Zn367 Zn 0.2659 0.40084 0.70889 0.0
O368 O 0.28965 0.39771 0.74454 0.0
Zn369 Zn 0.27647 0.42466 0.74534 0.0
O370 O 0.25554 0.41502 0.77946 0.0
O371 O 0.24093 0.38589 0.74537 0.0
O372 O 0.25408 0.43084 0.71437 0.0
O373 O 0.24536 0.40358 0.67908 0.0
O374 O 0.30183 0.43502 0.70548 0.0
O375 O 0.30751 0.45634 0.74592 0.0
C376 C 0.23915 0.39326 0.77077 0.0
C377 C 0.31547 0.45443 0.72119 0.0
C378 C 0.48883 0.91317 0.14465 0.0
C379 C 0.57489 0.95356 0.10871 0.0
O380 O 0.50867 0.93077 0.15602 0.0
Zn381 Zn 0.53216 0.93343 0.12657 0.0
O382 O 0.49031 0.90382 0.12041 0.0
Zn383 Zn 0.51914 0.90988 0.08989 0.0
O384 O 0.51804 0.87797 0.08921 0.0
O385 O 0.5334 0.89895 0.1299 0.0
O386 O 0.55935 0.93633 0.0915 0.0
O387 O 0.56685 0.95819 0.13195 0.0
O388 O 0.52288 0.94892 0.08999 0.0
O389 O 0.50854 0.92007 0.05561 0.0
C390 C 0.5276 0.8796 0.11407 0.0
C391 C 0.51402 0.94182 0.06443 0.0
C392 C 0.12206 0.65004 0.11547 0.0
C393 C 0.06154 0.57406 0.06463 0.0
O394 O 0.12376 0.64289 0.09019 0.0
Zn395 Zn 0.09222 0.61168 0.09025 0.0
O396 O 0.10286 0.63584 0.13119 0.0
Zn397 Zn 0.0689 0.59976 0.1272 0.0
O398 O 0.07251 0.57942 0.15631 0.0
O399 O 0.09896 0.58852 0.11993 0.0
O400 O 0.05481 0.57455 0.09079 0.0
O401 O 0.08205 0.59214 0.05508 0.0
O402 O 0.06513 0.62419 0.09269 0.0
O403 O 0.04294 0.60834 0.13255 0.0
C404 C 0.09006 0.5775 0.14425 0.0
C405 C 0.04745 0.62149 0.10975 0.0
C406 C 0.3796 0.42572 0.10595 0.0
C407 C 0.42435 0.51176 0.14234 0.0
O408 O 0.39215 0.43374 0.12927 0.0
Zn409 Zn 0.40185 0.46844 0.12407 0.0
O410 O 0.37786 0.44125 0.08878 0.0
Zn411 Zn 0.39127 0.48138 0.08729 0.0
O412 O 0.41231 0.4923 0.05319 0.0
O413 O 0.42685 0.47808 0.08767 0.0
O414 O 0.4136 0.51017 0.11802 0.0
O415 O 0.42237 0.49201 0.15369 0.0
O416 O 0.36598 0.46684 0.12721 0.0
O417 O 0.36023 0.4821 0.0865 0.0
C418 C 0.42869 0.48702 0.06214 0.0
C419 C 0.35232 0.47248 0.11135 0.0
C420 C 0.06252 0.48898 0.55983 0.0
C421 C 0.12227 0.47243 0.61066 0.0
O422 O 0.05558 0.48156 0.58589 0.0
Zn423 Zn 0.06922 0.46984 0.62218 0.0
O424 O 0.08298 0.49127 0.55032 0.0
Zn425 Zn 0.0928 0.48151 0.58546 0.0
O426 O 0.06553 0.44192 0.58733 0.0
O427 O 0.04305 0.43534 0.627 0.0
O428 O 0.12422 0.4816 0.58552 0.0
O429 O 0.103 0.46741 0.62626 0.0
O430 O 0.0727 0.49347 0.65158 0.0
O431 O 0.09941 0.5112 0.61551 0.0
C432 C 0.04767 0.42684 0.60414 0.0
C433 C 0.09032 0.51308 0.63981 0.0
C434 C 0.52742 0.64939 0.61654 0.0
C435 C 0.51384 0.57416 0.56533 0.0
O436 O 0.53325 0.63564 0.63193 0.0
Zn437 Zn 0.53205 0.60001 0.62781 0.0
O438 O 0.5179 0.64184 0.59158 0.0
Zn439 Zn 0.519 0.61099 0.59143 0.0
O440 O 0.49024 0.58795 0.62179 0.0
O441 O 0.50846 0.57882 0.65707 0.0
O442 O 0.50831 0.5905 0.55687 0.0
O443 O 0.52275 0.57569 0.59082 0.0
O444 O 0.56682 0.60994 0.63287 0.0
O445 O 0.55917 0.62464 0.5928 0.0
C446 C 0.48867 0.57682 0.64582 0.0
C447 C 0.57478 0.62279 0.60975 0.0
C448 C 0.42647 0.91452 0.64517 0.0
C449 C 0.38033 0.95438 0.6089 0.0
O450 O 0.41545 0.90494 0.62109 0.0
Zn451 Zn 0.39251 0.91067 0.59055 0.0
O452 O 0.42439 0.93229 0.65634 0.0
Zn453 Zn 0.40325 0.93458 0.62697 0.0
O454 O 0.36773 0.89998 0.63091 0.0
O455 O 0.36179 0.87866 0.59041 0.0
O456 O 0.39314 0.95926 0.63206 0.0
O457 O 0.37862 0.93701 0.5919 0.0
O458 O 0.41312 0.92058 0.55612 0.0
O459 O 0.42774 0.94976 0.59014 0.0
C460 C 0.35413 0.88044 0.61538 0.0
C461 C 0.42939 0.94244 0.56466 0.0
C462 C 0.15474 0.39275 0.26796 0.0
C463 C 0.14056 0.45453 0.21828 0.0
O464 O 0.14569 0.38551 0.2425 0.0
Zn465 Zn 0.136 0.40069 0.20598 0.0
O466 O 0.16022 0.41452 0.27672 0.0
Zn467 Zn 0.1492 0.42441 0.24257 0.0
O468 O 0.10905 0.39774 0.24151 0.0
O469 O 0.10123 0.37573 0.20114 0.0
O470 O 0.15016 0.45626 0.24313 0.0
O471 O 0.13469 0.4351 0.20255 0.0
O472 O 0.15944 0.4034 0.17632 0.0
O473 O 0.17781 0.43053 0.21176 0.0
C474 C 0.09339 0.38034 0.22455 0.0
C475 C 0.17927 0.42118 0.18752 0.0
C476 C 0.6071 0.76072 0.26901 0.0
C477 C 0.54556 0.68479 0.21899 0.0
O478 O 0.61434 0.75905 0.2435 0.0
Zn479 Zn 0.59918 0.73439 0.20682 0.0
O480 O 0.58535 0.74434 0.27776 0.0
Zn481 Zn 0.57545 0.72357 0.24344 0.0
O482 O 0.60224 0.71025 0.24201 0.0
O483 O 0.62425 0.72477 0.20168 0.0
O484 O 0.5437 0.69255 0.24386 0.0
O485 O 0.56495 0.69853 0.2033 0.0
O486 O 0.59631 0.75519 0.17741 0.0
O487 O 0.56921 0.74618 0.21294 0.0
C488 C 0.61964 0.71214 0.22494 0.0
C489 C 0.57852 0.75713 0.18876 0.0
C490 C 0.24009 0.84741 0.27201 0.0
C491 C 0.31647 0.86344 0.22192 0.0
O492 O 0.24066 0.85469 0.24587 0.0
Zn493 Zn 0.26617 0.86617 0.20972 0.0
O494 O 0.25821 0.84515 0.28174 0.0
Zn495 Zn 0.2779 0.85468 0.24672 0.0
O496 O 0.29038 0.89429 0.24445 0.0
O497 O 0.27464 0.9007 0.20455 0.0
O498 O 0.30913 0.85445 0.24711 0.0
O499 O 0.30234 0.86844 0.20605 0.0
O500 O 0.2461 0.84237 0.18038 0.0
O501 O 0.25496 0.82484 0.21678 0.0
C502 C 0.28771 0.90931 0.22741 0.0
C503 C 0.24409 0.82282 0.19237 0.0
C504 C 0.31767 0.19479 0.12083 0.0
C505 C 0.29196 0.1769 0.12122 0.0
C506 C 0.33466 0.1923 0.13892 0.0
C507 C 0.32582 0.17089 0.15699 0.0
C508 C 0.29986 0.1526 0.15718 0.0
C509 C 0.28313 0.15608 0.13966 0.0
C510 C 0.36201 0.21266 0.13883 0.0
C511 C 0.28984 0.12914 0.17548 0.0
C512 C 0.37415 0.15345 0.18206 0.0
C513 C 0.37744 0.16105 0.21107 0.0
C514 C 0.35709 0.15618 0.1643 0.0
C515 C 0.34377 0.16763 0.17561 0.0
C516 C 0.34765 0.17601 0.20471 0.0
C517 C 0.36409 0.17216 0.22226 0.0
C518 C 0.35289 0.14631 0.13367 0.0
C519 C 0.33453 0.18912 0.21727 0.0
H520 H 0.32443 0.21102 0.10672 0.0
H521 H 0.26325 0.14217 0.13973 0.0
H522 H 0.36811 0.21984 0.16114 0.0
H523 H 0.37388 0.20484 0.13136 0.0
H524 H 0.36558 0.2287 0.1246 0.0
H525 H 0.26931 0.11636 0.17245 0.0
H526 H 0.29978 0.11876 0.16993 0.0
H527 H 0.29348 0.13427 0.1987 0.0
H528 H 0.38428 0.14458 0.17355 0.0
H529 H 0.36677 0.17813 0.2447 0.0
H530 H 0.35795 0.16189 0.11812 0.0
H531 H 0.33267 0.13242 0.13034 0.0
H532 H 0.36413 0.13718 0.12849 0.0
H533 H 0.33838 0.2056 0.20371 0.0
H534 H 0.34062 0.19565 0.23981 0.0
H535 H 0.31388 0.1762 0.21722 0.0
C536 C 0.80621 0.12247 0.12371 0.0
C537 C 0.82429 0.1149 0.12364 0.0
C538 C 0.80903 0.14227 0.14145 0.0
C539 C 0.83094 0.1554 0.15864 0.0
C540 C 0.8494 0.14796 0.15837 0.0
C541 C 0.84561 0.12743 0.14125 0.0
C542 C 0.7885 0.14902 0.14191 0.0
C543 C 0.87337 0.162 0.17571 0.0
C544 C 0.84852 0.22161 0.182 0.0
C545 C 0.84175 0.21797 0.21128 0.0
C546 C 0.84548 0.20146 0.16469 0.0
C547 C 0.83456 0.177 0.17678 0.0
C548 C 0.82704 0.17316 0.20618 0.0
C549 C 0.83117 0.19381 0.22323 0.0
C550 C 0.85442 0.20643 0.13367 0.0
C551 C 0.81452 0.14725 0.21959 0.0
H552 H 0.78962 0.11258 0.11021 0.0
H553 H 0.85966 0.12164 0.14094 0.0
H554 H 0.782 0.14846 0.16446 0.0
H555 H 0.7959 0.16848 0.13383 0.0
H556 H 0.77207 0.13608 0.12844 0.0
H557 H 0.88617 0.15429 0.17245 0.0
H558 H 0.88345 0.18216 0.16946 0.0
H559 H 0.86892 0.16108 0.1991 0.0
H560 H 0.85697 0.24038 0.17288 0.0
H561 H 0.82581 0.19102 0.24588 0.0
H562 H 0.8384 0.19546 0.11881 0.0
H563 H 0.86831 0.20015 0.13001 0.0
H564 H 0.86326 0.22666 0.12787 0.0
H565 H 0.79767 0.1342 0.2068 0.0
H566 H 0.80868 0.14732 0.24234 0.0
H567 H 0.82756 0.13967 0.21922 0.0
C568 C 0.7952 0.61754 0.19425 0.0
C569 C 0.78275 0.62628 0.21208 0.0
C570 C 0.81567 0.63433 0.17707 0.0
C571 C 0.82313 0.66024 0.17698 0.0
C572 C 0.81008 0.66897 0.19438 0.0
C573 C 0.79035 0.65194 0.21216 0.0
C574 C 0.82962 0.62444 0.15949 0.0
C575 C 0.81685 0.69626 0.19412 0.0
C576 C 0.8893 0.70887 0.15339 0.0
C577 C 0.88556 0.71207 0.12416 0.0
C578 C 0.86919 0.69175 0.17075 0.0
C579 C 0.84467 0.67827 0.15879 0.0
C580 C 0.84074 0.68206 0.12945 0.0
C581 C 0.86134 0.69858 0.11233 0.0
C582 C 0.87427 0.68768 0.20169 0.0
C583 C 0.81477 0.66875 0.11617 0.0
H584 H 0.78941 0.5977 0.19444 0.0
H585 H 0.78052 0.65862 0.22581 0.0
H586 H 0.8286 0.62805 0.13615 0.0
H587 H 0.84981 0.63448 0.16564 0.0
H588 H 0.82191 0.60392 0.16263 0.0
H589 H 0.80397 0.69972 0.20775 0.0
H590 H 0.83634 0.70827 0.20213 0.0
H591 H 0.81621 0.70229 0.17163 0.0
H592 H 0.90811 0.71911 0.1624 0.0
H593 H 0.85848 0.70118 0.08972 0.0
H594 H 0.86803 0.6675 0.20521 0.0
H595 H 0.86333 0.69265 0.21671 0.0
H596 H 0.89452 0.69907 0.20741 0.0
H597 H 0.80719 0.64812 0.11637 0.0
H598 H 0.81475 0.67477 0.0935 0.0
H599 H 0.80178 0.6725 0.12916 0.0
C600 C 0.18261 0.29355 0.34672 0.0
C601 C 0.17493 0.28996 0.3757 0.0
C602 C 0.17969 0.3106 0.32917 0.0
C603 C 0.16797 0.32359 0.34066 0.0
C604 C 0.15951 0.31941 0.36972 0.0
C605 C 0.16354 0.30299 0.38707 0.0
C606 C 0.18964 0.31513 0.29855 0.0
C607 C 0.14612 0.3322 0.38246 0.0
C608 C 0.1789 0.38426 0.30543 0.0
C609 C 0.15806 0.37537 0.287 0.0
C610 C 0.1826 0.36755 0.32271 0.0
C611 C 0.16451 0.34153 0.32226 0.0
C612 C 0.1431 0.33261 0.30418 0.0
C613 C 0.14039 0.3496 0.28636 0.0
C614 C 0.20604 0.37765 0.34104 0.0
C615 C 0.12297 0.30517 0.30384 0.0
H616 H 0.19169 0.28367 0.33808 0.0
H617 H 0.1575 0.30007 0.4095 0.0
H618 H 0.17406 0.31004 0.28299 0.0
H619 H 0.20339 0.33541 0.29543 0.0
H620 H 0.19897 0.3041 0.29322 0.0
H621 H 0.13958 0.3259 0.40495 0.0
H622 H 0.15886 0.35288 0.3826 0.0
H623 H 0.12962 0.32826 0.3689 0.0
H624 H 0.19264 0.40419 0.3057 0.0
H625 H 0.12414 0.34279 0.27226 0.0
H626 H 0.21661 0.36793 0.33535 0.0
H627 H 0.20088 0.37381 0.36424 0.0
H628 H 0.21866 0.39823 0.3382 0.0
H629 H 0.13101 0.29353 0.29624 0.0
H630 H 0.10692 0.30152 0.28957 0.0
H631 H 0.11575 0.29885 0.32609 0.0
C632 C 0.6157 0.79402 0.30559 0.0
C633 C 0.62444 0.78137 0.28811 0.0
C634 C 0.63247 0.81455 0.3227 0.0
C635 C 0.65834 0.82186 0.3231 0.0
C636 C 0.66706 0.8086 0.30604 0.0
C637 C 0.65006 0.78882 0.2883 0.0
C638 C 0.6226 0.82872 0.3399 0.0
C639 C 0.69429 0.8152 0.30665 0.0
C640 C 0.7071 0.88799 0.34655 0.0
C641 C 0.71007 0.88433 0.37588 0.0
C642 C 0.69002 0.86787 0.32919 0.0
C643 C 0.67633 0.84342 0.34127 0.0
C644 C 0.67986 0.83956 0.37072 0.0
C645 C 0.69636 0.86018 0.38782 0.0
C646 C 0.68623 0.87286 0.29812 0.0
C647 C 0.6663 0.81365 0.38413 0.0
H648 H 0.59589 0.78834 0.30519 0.0
H649 H 0.65672 0.77883 0.2749 0.0
H650 H 0.62601 0.82779 0.36331 0.0
H651 H 0.63282 0.84888 0.33362 0.0
H652 H 0.60213 0.82114 0.33651 0.0
H653 H 0.69774 0.80219 0.29324 0.0
H654 H 0.70646 0.83465 0.29857 0.0
H655 H 0.70014 0.81462 0.32923 0.0
H656 H 0.71751 0.90676 0.33745 0.0
H657 H 0.69879 0.85737 0.4105 0.0
H658 H 0.66611 0.86673 0.29434 0.0
H659 H 0.69121 0.86179 0.28334 0.0
H660 H 0.69776 0.89308 0.2923 0.0
H661 H 0.64569 0.80618 0.38367 0.0
H662 H 0.67211 0.81368 0.40692 0.0
H663 H 0.67004 0.80053 0.37141 0.0
C664 C 0.12398 0.80729 0.37941 0.0
C665 C 0.11568 0.8248 0.37857 0.0
C666 C 0.14381 0.81014 0.36173 0.0
C667 C 0.15622 0.83152 0.3436 0.0
C668 C 0.14806 0.84943 0.34294 0.0
C669 C 0.12752 0.8456 0.36008 0.0
C670 C 0.15135 0.79019 0.3623 0.0
C671 C 0.1613 0.87285 0.32454 0.0
C672 C 0.22254 0.85013 0.31965 0.0
C673 C 0.21863 0.84239 0.29069 0.0
C674 C 0.20243 0.84708 0.33703 0.0
C675 C 0.17776 0.83515 0.32538 0.0
C676 C 0.17368 0.82662 0.29634 0.0
C677 C 0.19427 0.83081 0.27916 0.0
C678 C 0.20763 0.8571 0.36761 0.0
C679 C 0.14757 0.81301 0.28345 0.0
H680 H 0.11461 0.79108 0.39357 0.0
H681 H 0.12118 0.85922 0.35966 0.0
H682 H 0.15064 0.78296 0.34009 0.0
H683 H 0.17101 0.7984 0.37004 0.0
H684 H 0.13898 0.77411 0.37655 0.0
H685 H 0.15314 0.88531 0.3272 0.0
H686 H 0.18155 0.88359 0.33036 0.0
H687 H 0.16014 0.86765 0.30138 0.0
H688 H 0.24147 0.85937 0.32841 0.0
H689 H 0.1913 0.82472 0.25676 0.0
H690 H 0.1972 0.84153 0.3832 0.0
H691 H 0.20089 0.8707 0.37057 0.0
H692 H 0.22798 0.86661 0.37307 0.0
H693 H 0.13505 0.79649 0.29701 0.0
H694 H 0.1475 0.80646 0.26102 0.0
H695 H 0.13945 0.8256 0.28315 0.0
C696 C 0.63049 0.85171 0.81867 0.0
C697 C 0.62635 0.8437 0.78981 0.0
C698 C 0.64756 0.8486 0.83598 0.0
C699 C 0.65999 0.83634 0.82437 0.0
C700 C 0.65531 0.82764 0.7954 0.0
C701 C 0.6389 0.83188 0.77828 0.0
C702 C 0.65263 0.85882 0.86647 0.0
C703 C 0.66747 0.81368 0.78257 0.0
C704 C 0.72034 0.84594 0.85923 0.0
C705 C 0.7111 0.82521 0.87787 0.0
C706 C 0.70387 0.85002 0.84195 0.0
C707 C 0.67771 0.83242 0.84263 0.0
C708 C 0.66844 0.8111 0.8609 0.0
C709 C 0.68522 0.808 0.87869 0.0
C710 C 0.71437 0.87337 0.8234 0.0
C711 C 0.64083 0.79147 0.86153 0.0
H712 H 0.62097 0.86112 0.82742 0.0
H713 H 0.63556 0.82559 0.75595 0.0
H714 H 0.64721 0.84329 0.88219 0.0
H715 H 0.67306 0.87211 0.86935 0.0
H716 H 0.64218 0.86875 0.87182 0.0
H717 H 0.66098 0.80719 0.76012 0.0
H718 H 0.68821 0.826 0.78232 0.0
H719 H 0.66317 0.79708 0.79614 0.0
H720 H 0.74036 0.85934 0.8588 0.0
H721 H 0.67812 0.79183 0.89295 0.0
H722 H 0.70522 0.88446 0.82919 0.0
H723 H 0.71017 0.86809 0.80027 0.0
H724 H 0.73505 0.88553 0.82595 0.0
H725 H 0.62966 0.79999 0.86927 0.0
H726 H 0.63689 0.77535 0.87583 0.0
H727 H 0.63421 0.78424 0.83935 0.0
C728 C 0.19538 0.87569 0.87942 0.0
C729 C 0.17785 0.88397 0.87863 0.0
C730 C 0.19263 0.85597 0.86159 0.0
C731 C 0.17133 0.84366 0.84333 0.0
C732 C 0.15336 0.85175 0.84276 0.0
C733 C 0.15711 0.87217 0.86006 0.0
C734 C 0.21263 0.8485 0.86208 0.0
C735 C 0.13003 0.83861 0.82422 0.0
C736 C 0.17254 0.8065 0.77823 0.0
C737 C 0.16094 0.78199 0.78933 0.0
C738 C 0.17658 0.82685 0.79578 0.0
C739 C 0.1679 0.82237 0.82476 0.0
C740 C 0.15598 0.79756 0.83598 0.0
C741 C 0.15306 0.77769 0.81823 0.0
C742 C 0.19018 0.85312 0.78333 0.0
C743 C 0.1458 0.79193 0.86649 0.0
H744 H 0.21157 0.88501 0.89363 0.0
H745 H 0.14347 0.87849 0.85966 0.0
H746 H 0.20441 0.82873 0.86943 0.0
H747 H 0.22007 0.84958 0.83991 0.0
H748 H 0.22857 0.86069 0.8766 0.0
H749 H 0.11744 0.8466 0.82709 0.0
H750 H 0.13533 0.84011 0.80106 0.0
H751 H 0.11938 0.81828 0.82968 0.0
H752 H 0.17873 0.80978 0.75586 0.0
H753 H 0.14381 0.75865 0.82665 0.0
H754 H 0.20658 0.86553 0.79711 0.0
H755 H 0.17752 0.86115 0.78313 0.0
H756 H 0.19691 0.85352 0.76091 0.0
H757 H 0.16126 0.80227 0.88223 0.0
H758 H 0.13639 0.77153 0.87163 0.0
H759 H 0.13206 0.79849 0.86956 0.0
C760 C 0.1118 0.29481 0.84957 0.0
C761 C 0.11584 0.29114 0.87854 0.0
C762 C 0.13181 0.31186 0.83206 0.0
C763 C 0.15651 0.32476 0.84359 0.0
C764 C 0.16072 0.32054 0.87267 0.0
C765 C 0.14022 0.30413 0.88997 0.0
C766 C 0.12646 0.31643 0.80144 0.0
C767 C 0.18687 0.33323 0.88545 0.0
C768 C 0.21009 0.35024 0.78931 0.0
C769 C 0.21838 0.37605 0.78984 0.0
C770 C 0.19032 0.33341 0.80717 0.0
C771 C 0.17797 0.34253 0.82517 0.0
C772 C 0.1861 0.3686 0.82551 0.0
C773 C 0.20657 0.38515 0.80819 0.0
C774 C 0.1828 0.30591 0.80694 0.0
C775 C 0.17291 0.37892 0.84375 0.0
H776 H 0.09285 0.28495 0.84088 0.0
H777 H 0.1433 0.30114 0.91239 0.0
H778 H 0.13322 0.33675 0.79825 0.0
H779 H 0.13679 0.31113 0.7859 0.0
H780 H 0.10608 0.30558 0.79613 0.0
H781 H 0.18705 0.32703 0.908 0.0
H782 H 0.19936 0.3291 0.87201 0.0
H783 H 0.19496 0.35394 0.88542 0.0
H784 H 0.21942 0.34328 0.77527 0.0
H785 H 0.2129 0.40511 0.80838 0.0
H786 H 0.16311 0.29438 0.79933 0.0
H787 H 0.18363 0.29961 0.82923 0.0
H788 H 0.19513 0.3021 0.79274 0.0
H789 H 0.15263 0.36934 0.83803 0.0
H790 H 0.18104 0.39952 0.84084 0.0
H791 H 0.17416 0.37509 0.86697 0.0
C792 C 0.80579 0.68464 0.6225 0.0
C793 C 0.82393 0.71026 0.62214 0.0
C794 C 0.80867 0.66772 0.64028 0.0
C795 C 0.83072 0.67652 0.65723 0.0
C796 C 0.84924 0.70241 0.6567 0.0
C797 C 0.84538 0.71909 0.63954 0.0
C798 C 0.78808 0.64047 0.64103 0.0
C799 C 0.87335 0.71236 0.67377 0.0
C800 C 0.83135 0.63861 0.72191 0.0
C801 C 0.84178 0.6249 0.70989 0.0
C802 C 0.82714 0.65508 0.70486 0.0
C803 C 0.83442 0.65859 0.67538 0.0
C804 C 0.84517 0.64491 0.66321 0.0
C805 C 0.8483 0.62786 0.68053 0.0
C806 C 0.81482 0.66863 0.71837 0.0
C807 C 0.85383 0.64868 0.6321 0.0
H808 H 0.78909 0.67789 0.60917 0.0
H809 H 0.85949 0.7389 0.63901 0.0
H810 H 0.79534 0.62832 0.63287 0.0
H811 H 0.78178 0.63466 0.66366 0.0
H812 H 0.77153 0.63697 0.62775 0.0
H813 H 0.88616 0.73284 0.67035 0.0
H814 H 0.86909 0.70896 0.69721 0.0
H815 H 0.88333 0.70221 0.66741 0.0
H816 H 0.82619 0.63619 0.74462 0.0
H817 H 0.85663 0.61745 0.67135 0.0
H818 H 0.79788 0.66482 0.70576 0.0
H819 H 0.82792 0.68924 0.71783 0.0
H820 H 0.80916 0.66286 0.74119 0.0
H821 H 0.8377 0.64361 0.61741 0.0
H822 H 0.86255 0.63718 0.62622 0.0
H823 H 0.86775 0.66881 0.62825 0.0
C824 C 0.36511 0.19394 0.72196 0.0
C825 C 0.37738 0.21847 0.71091 0.0
C826 C 0.34879 0.17347 0.70456 0.0
C827 C 0.34389 0.17784 0.67582 0.0
C828 C 0.35607 0.20269 0.66469 0.0
C829 C 0.37308 0.22269 0.68225 0.0
C830 C 0.33691 0.14719 0.71687 0.0
C831 C 0.35073 0.2082 0.63449 0.0
C832 C 0.31832 0.12483 0.62073 0.0
C833 C 0.29241 0.11596 0.62212 0.0
C834 C 0.33524 0.14462 0.63852 0.0
C835 C 0.32607 0.1564 0.65738 0.0
C836 C 0.2999 0.14768 0.65859 0.0
C837 C 0.2833 0.12722 0.64129 0.0
C838 C 0.36288 0.15278 0.63731 0.0
C839 C 0.28949 0.16024 0.67779 0.0
H840 H 0.36859 0.19074 0.74414 0.0
H841 H 0.38238 0.24176 0.67388 0.0
H842 H 0.31616 0.13865 0.71752 0.0
H843 H 0.34113 0.13514 0.70273 0.0
H844 H 0.34369 0.14692 0.73909 0.0
H845 H 0.36112 0.22864 0.62946 0.0
H846 H 0.35602 0.19829 0.61834 0.0
H847 H 0.33027 0.20107 0.63194 0.0
H848 H 0.32533 0.11594 0.60606 0.0
H849 H 0.26326 0.12045 0.64216 0.0
H850 H 0.36974 0.15187 0.65925 0.0
H851 H 0.37388 0.1726 0.62996 0.0
H852 H 0.36677 0.1409 0.62245 0.0
H853 H 0.29384 0.15882 0.70077 0.0
H854 H 0.26879 0.15173 0.67547 0.0
H855 H 0.29857 0.18056 0.67243 0.0
C856 C 0.88869 0.18157 0.64873 0.0
C857 C 0.88479 0.17567 0.61921 0.0
C858 C 0.86889 0.17885 0.66648 0.0
C859 C 0.8445 0.1692 0.65456 0.0
C860 C 0.84038 0.1626 0.62488 0.0
C861 C 0.86069 0.16635 0.60745 0.0
C862 C 0.87418 0.18676 0.69782 0.0
C863 C 0.8145 0.15144 0.61159 0.0
C864 C 0.79009 0.14089 0.70777 0.0
C865 C 0.78348 0.15965 0.70919 0.0
C866 C 0.8095 0.14348 0.68951 0.0
C867 C 0.82326 0.16583 0.67319 0.0
C868 C 0.81678 0.18498 0.67482 0.0
C869 C 0.79658 0.18142 0.69242 0.0
C870 C 0.81519 0.12225 0.68757 0.0
C871 C 0.83152 0.2094 0.65846 0.0
H872 H 0.9074 0.18905 0.65774 0.0
H873 H 0.85767 0.16166 0.58462 0.0
H874 H 0.86863 0.20106 0.70251 0.0
H875 H 0.8628 0.1704 0.7121 0.0
H876 H 0.89436 0.19474 0.70347 0.0
H877 H 0.81428 0.14629 0.5885 0.0
H878 H 0.80101 0.13436 0.62375 0.0
H879 H 0.80766 0.16506 0.61306 0.0
H880 H 0.77974 0.12395 0.72063 0.0
H881 H 0.79152 0.19598 0.69378 0.0
H882 H 0.83453 0.12868 0.69546 0.0
H883 H 0.81435 0.11642 0.66467 0.0
H884 H 0.80182 0.10559 0.70045 0.0
H885 H 0.85167 0.21863 0.66467 0.0
H886 H 0.82452 0.22266 0.66272 0.0
H887 H 0.83042 0.20568 0.63487 0.0
C888 C 0.95157 0.49025 0.47188 0.0
C889 C 0.96028 0.51102 0.45339 0.0
C890 C 0.96845 0.48656 0.48885 0.0
C891 C 0.99447 0.5046 0.48802 0.0
C892 C 0.00323 0.52594 0.46986 0.0
C893 C 0.98606 0.52864 0.45235 0.0
C894 C 0.95851 0.46318 0.50728 0.0
C895 C 0.03067 0.54603 0.46913 0.0
C896 C 0.03339 0.50565 0.55247 0.0
C897 C 0.04623 0.4941 0.54101 0.0
C898 C 0.01696 0.50976 0.53524 0.0
C899 C 0.01256 0.5012 0.50622 0.0
C900 C 0.0254 0.48936 0.49462 0.0
C901 C 0.04248 0.48637 0.51205 0.0
C902 C 0.00435 0.52328 0.54809 0.0
C903 C 0.02064 0.47931 0.46405 0.0
H904 H 0.93163 0.47654 0.47245 0.0
H905 H 0.99273 0.54483 0.43819 0.0
H906 H 0.9682 0.45261 0.50149 0.0
H907 H 0.96252 0.46843 0.53043 0.0
H908 H 0.93791 0.45054 0.50463 0.0
H909 H 0.03421 0.56199 0.45476 0.0
H910 H 0.03722 0.5534 0.49128 0.0
H911 H 0.04221 0.5379 0.46143 0.0
H912 H 0.03643 0.51172 0.57489 0.0
H913 H 0.05222 0.47717 0.50335 0.0
H914 H 0.98367 0.51056 0.54856 0.0
H915 H 0.00814 0.53968 0.53441 0.0
H916 H 0.01091 0.53 0.57046 0.0
H917 H 1.00034 0.4655 0.46116 0.0
H918 H 0.03167 0.47001 0.45857 0.0
H919 H 0.02554 0.49481 0.44844 0.0
C920 C 0.50473 0.47583 0.44544 0.0
C921 C 0.49379 0.45149 0.45696 0.0
C922 C 0.50878 0.49631 0.46277 0.0
C923 C 0.50078 0.49212 0.49201 0.0
C924 C 0.48951 0.46748 0.50367 0.0
C925 C 0.48657 0.4475 0.4861 0.0
C926 C 0.52169 0.5224 0.44984 0.0
C927 C 0.48006 0.46214 0.53448 0.0
C928 C 0.52859 0.54592 0.54609 0.0
C929 C 0.51065 0.55368 0.54596 0.0
C930 C 0.52591 0.52631 0.52812 0.0
C931 C 0.50427 0.51353 0.51044 0.0
C932 C 0.48594 0.52117 0.51048 0.0
C933 C 0.48961 0.54152 0.52787 0.0
C934 C 0.5463 0.51936 0.52794 0.0
C935 C 0.46226 0.50752 0.4926 0.0
H936 H 0.51043 0.47889 0.4229 0.0
H937 H 0.47783 0.4286 0.49488 0.0
H938 H 0.50876 0.53012 0.45004 0.0
H939 H 0.53835 0.53518 0.46305 0.0
H940 H 0.52789 0.5226 0.4272 0.0
H941 H 0.47101 0.44182 0.53994 0.0
H942 H 0.49585 0.47283 0.54972 0.0
H943 H 0.4662 0.46849 0.53797 0.0
H944 H 0.54499 0.55553 0.55995 0.0
H945 H 0.47566 0.54743 0.52801 0.0
H946 H 0.55315 0.52017 0.50551 0.0
H947 H 0.53863 0.49977 0.5357 0.0
H948 H 0.56255 0.53202 0.54182 0.0
H949 H 0.46708 0.50873 0.4693 0.0
H950 H 0.44952 0.51532 0.49572 0.0
H951 H 0.45194 0.48727 0.49847 0.0
C952 C 0.55612 0.04157 0.48523 0.0
C953 C 0.55198 0.04502 0.45621 0.0
C954 C 0.53619 0.02453 0.50286 0.0
C955 C 0.51147 0.01139 0.4914 0.0
C956 C 0.50715 0.01541 0.46229 0.0
C957 C 0.52756 0.03182 0.44488 0.0
C958 C 0.54167 0.02019 0.53352 0.0
C959 C 0.48097 0.00246 0.44958 0.0
C960 C 0.46191 0.95083 0.52705 0.0
C961 C 0.44995 0.95976 0.5454 0.0
C962 C 0.48226 0.9675 0.50966 0.0
C963 C 0.49012 0.9935 0.5099 0.0
C964 C 0.47758 0.00244 0.52788 0.0
C965 C 0.45794 0.98551 0.54583 0.0
C966 C 0.49565 0.95737 0.49145 0.0
C967 C 0.48478 0.02985 0.52801 0.0
H968 H 0.57508 0.05158 0.49385 0.0
H969 H 0.52439 0.03462 0.42243 0.0
H970 H 0.53119 0.02534 0.54901 0.0
H971 H 0.53518 0.99993 0.5368 0.0
H972 H 0.56204 0.03129 0.53881 0.0
H973 H 0.48068 0.0086 0.42703 0.0
H974 H 0.4731 0.98179 0.44962 0.0
H975 H 0.46837 0.00642 0.46304 0.0
H976 H 0.45581 0.93092 0.52695 0.0
H977 H 0.4485 0.99234 0.55987 0.0
H978 H 0.51594 0.96715 0.49714 0.0
H979 H 0.49432 0.9611 0.46822 0.0
H980 H 0.48773 0.9368 0.49442 0.0
H981 H 0.50445 0.04159 0.5356 0.0
H982 H 0.47233 0.03351 0.54217 0.0
H983 H 0.48386 0.03604 0.50569 0.0
C984 C 0.48596 0.0407 0.98493 0.0
C985 C 0.49422 0.04463 0.95616 0.0
C986 C 0.48883 0.02368 0.00261 0.0
C987 C 0.5011 0.0111 0.99149 0.0
C988 C 0.51015 0.01566 0.96266 0.0
C989 C 0.50614 0.032 0.94514 0.0
C990 C 0.47823 0.01874 0.03293 0.0
C991 C 0.52414 0.00334 0.95034 0.0
C992 C 0.52816 0.98511 0.04655 0.0
C993 C 0.51078 0.95927 0.04538 0.0
C994 C 0.52551 0.00213 0.02869 0.0
C995 C 0.50447 0.99317 0.01001 0.0
C996 C 0.48668 0.96708 0.00904 0.0
C997 C 0.49031 0.95035 0.02639 0.0
C998 C 0.54535 0.02966 0.02963 0.0
C999 C 0.46361 0.9569 0.99005 0.0
H1000 H 0.47646 0.05028 0.99328 0.0
H1001 H 0.51262 0.03519 0.92288 0.0
H1002 H 0.46462 0.99837 0.03569 0.0
H1003 H 0.49351 0.02386 0.04893 0.0
H1004 H 0.46856 0.02949 0.03799 0.0
H1005 H 0.53113 0.00994 0.92806 0.0
H1006 H 0.5404 0.00735 0.96439 0.0
H1007 H 0.51164 0.98262 0.94983 0.0
H1008 H 0.54413 0.99196 0.06109 0.0
H1009 H 0.47678 0.93037 0.02569 0.0
H1010 H 0.53688 0.041 0.03696 0.0
H1011 H 0.55304 0.03629 0.0076 0.0
H1012 H 0.56114 0.03338 0.04439 0.0
H1013 H 0.45271 0.96634 0.99541 0.0
H1014 H 0.45114 0.93625 0.99257 0.0
H1015 H 0.46925 0.961 0.967 0.0
C1016 C 0.98519 0.458 0.95722 0.0
C1017 C 0.95968 0.45094 0.95638 0.0
C1018 C 0.00207 0.47759 0.97525 0.0
C1019 C 0.99337 0.49105 0.99195 0.0
C1020 C 0.96761 0.48415 0.99089 0.0
C1021 C 0.95094 0.46379 0.9735 0.0
C1022 C 0.02916 0.48374 0.97657 0.0
C1023 C 0.95779 0.49855 0.0077 0.0
C1024 C 0.03068 0.52858 0.05743 0.0
C1025 C 0.04498 0.55277 0.04574 0.0
C1026 C 0.01417 0.50821 0.04004 0.0
C1027 C 0.01125 0.51236 0.0105 0.0
C1028 C 0.02552 0.53684 0.99865 0.0
C1029 C 0.04257 0.55671 0.01633 0.0
C1030 C 0.99996 0.48225 0.05323 0.0
C1031 C 0.02241 0.54214 0.96747 0.0
H1032 H 0.99185 0.44784 0.94411 0.0
H1033 H 0.93121 0.4584 0.9726 0.0
H1034 H 0.04172 0.5032 0.96874 0.0
H1035 H 0.03451 0.48289 0.99931 0.0
H1036 H 0.03259 0.47065 0.96331 0.0
H1037 H 0.93744 0.4913 0.00377 0.0
H1038 H 0.9607 0.49741 0.03121 0.0
H1039 H 0.96841 0.51874 0.00159 0.0
H1040 H 0.03267 0.52554 0.08017 0.0
H1041 H 0.05344 0.5755 0.00739 0.0
H1042 H 0.00366 0.46899 0.04073 0.0
H1043 H 0.97943 0.47512 0.05219 0.0
H1044 H 0.00525 0.48204 0.07619 0.0
H1045 H 0.02741 0.53097 0.95287 0.0
H1046 H 0.03431 0.56237 0.96186 0.0
H1047 H 0.00244 0.53635 0.96319 0.0
C1048 C 0.55667 0.5162 0.98426 0.0
C1049 C 0.55272 0.50848 0.95529 0.0
C1050 C 0.53657 0.51311 0.00171 0.0
C1051 C 0.51187 0.50118 0.99014 0.0
C1052 C 0.50776 0.49269 0.96108 0.0
C1053 C 0.52833 0.4969 0.94383 0.0
C1054 C 0.54182 0.52311 0.03231 0.0
C1055 C 0.48163 0.47908 0.94824 0.0
C1056 C 0.458 0.47313 0.04413 0.0
C1057 C 0.4496 0.49056 0.04328 0.0
C1058 C 0.47792 0.47609 0.0265 0.0
C1059 C 0.49032 0.49751 0.00843 0.0
C1060 C 0.48209 0.51536 0.0078 0.0
C1061 C 0.46147 0.51142 0.02487 0.0
C1062 C 0.48552 0.45617 0.02704 0.0
C1063 C 0.49533 0.53883 0.98948 0.0
H1064 H 0.57561 0.52542 0.99297 0.0
H1065 H 0.52531 0.49082 0.92142 0.0
H1066 H 0.53507 0.5367 0.03534 0.0
H1067 H 0.53142 0.50752 0.04788 0.0
H1068 H 0.56218 0.53263 0.03771 0.0
H1069 H 0.48152 0.47255 0.92579 0.0
H1070 H 0.46914 0.46254 0.9618 0.0
H1071 H 0.4735 0.49165 0.948 0.0
H1072 H 0.44863 0.45687 0.05823 0.0
H1073 H 0.45508 0.52499 0.02444 0.0
H1074 H 0.5052 0.46443 0.03472 0.0
H1075 H 0.48477 0.44894 0.00483 0.0
H1076 H 0.47319 0.4401 0.04132 0.0
H1077 H 0.51559 0.54955 0.99525 0.0
H1078 H 0.48718 0.5513 0.99224 0.0
H1079 H 0.49413 0.53368 0.96629 0.0
C1080 C 0.21711 0.0171 0.98136 0.0
C1081 C 0.20179 0.00637 0.95696 0.0
C1082 C 0.22375 0.04138 0.99072 0.0
C1083 C 0.21462 0.05523 0.97554 0.0
C1084 C 0.19888 0.04443 0.95111 0.0
C1085 C 0.19276 0.02016 0.94201 0.0
C1086 C 0.24075 0.05231 0.01673 0.0
C1087 C 0.18856 0.05852 0.93461 0.0
C1088 C 0.2151 0.10841 0.01804 0.0
C1089 C 0.23724 0.1294 0.00802 0.0
C1090 C 0.20704 0.08428 0.0069 0.0
C1091 C 0.2216 0.081 0.98543 0.0
C1092 C 0.24363 0.10219 0.97469 0.0
C1093 C 0.25111 0.12617 0.98599 0.0
C1094 C 0.18328 0.06221 0.01867 0.0
C1095 C 0.25977 0.09941 0.95198 0.0
H1096 H 0.22431 0.00666 0.99296 0.0
H1097 H 0.18087 0.01199 0.92318 0.0
H1098 H 0.25797 0.07005 0.01062 0.0
H1099 H 0.23108 0.05702 0.03383 0.0
H1100 H 0.24643 0.03918 0.02597 0.0
H1101 H 0.17623 0.04732 0.91637 0.0
H1102 H 0.17759 0.06368 0.94937 0.0
H1103 H 0.20425 0.07629 0.92586 0.0
H1104 H 0.20416 0.11076 0.0349 0.0
H1105 H 0.26825 0.14229 0.97817 0.0
H1106 H 0.18798 0.04931 0.03039 0.0
H1107 H 0.17045 0.05135 0.00067 0.0
H1108 H 0.17312 0.06816 0.03373 0.0
H1109 H 0.26766 0.08797 0.96075 0.0
H1110 H 0.27559 0.11786 0.94483 0.0
H1111 H 0.24824 0.08932 0.93281 0.0
C1112 C 0.97935 0.17136 0.94312 0.0
C1113 C 0.99334 0.1942 0.95798 0.0
C1114 C 0.95524 0.15321 0.95265 0.0
C1115 C 0.94478 0.15818 0.97737 0.0
C1116 C 0.95884 0.18117 0.99246 0.0
C1117 C 0.98298 0.19881 0.98271 0.0
C1118 C 0.94094 0.12875 0.93624 0.0
C1119 C 0.94825 0.18728 0.01876 0.0
C1120 C 0.87396 0.12382 0.98858 0.0
C1121 C 0.87087 0.1067 0.01051 0.0
C1122 C 0.89786 0.14033 0.9771 0.0
C1123 C 0.91911 0.13946 0.98756 0.0
C1124 C 0.91597 0.12159 0.00892 0.0
C1125 C 0.89192 0.10554 0.02027 0.0
C1126 C 0.90049 0.1593 0.95453 0.0
C1127 C 0.93812 0.11986 0.02035 0.0
H1128 H 0.98725 0.16763 0.92405 0.0
H1129 H 0.99359 0.21646 0.99422 0.0
H1130 H 0.93587 0.11265 0.95102 0.0
H1131 H 0.92311 0.12671 0.92774 0.0
H1132 H 0.95194 0.12755 0.91784 0.0
H1133 H 0.96153 0.20609 0.02792 0.0
H1134 H 0.93048 0.18684 0.01299 0.0
H1135 H 0.94369 0.1729 0.03581 0.0
H1136 H 0.8578 0.12487 0.98097 0.0
H1137 H 0.88967 0.09223 0.03706 0.0
H1138 H 0.91033 0.15779 0.93516 0.0
H1139 H 0.91212 0.17862 0.96327 0.0
H1140 H 0.882 0.15676 0.94771 0.0
H1141 H 0.9488 0.11785 0.00217 0.0
H1142 H 0.93226 0.10374 0.03539 0.0
H1143 H 0.95114 0.13744 0.032 0.0
C1144 C 0.89672 0.78816 0.02264 0.0
C1145 C 0.89617 0.76648 0.01196 0.0
C1146 C 0.88082 0.79634 0.01124 0.0
C1147 C 0.86373 0.78235 0.98888 0.0
C1148 C 0.8635 0.76079 0.97754 0.0
C1149 C 0.87982 0.7532 0.98909 0.0
C1150 C 0.88185 0.8196 0.02366 0.0
C1151 C 0.84538 0.74522 0.95388 0.0
C1152 C 0.80379 0.78569 0.98269 0.0
C1153 C 0.80885 0.80142 0.95858 0.0
C1154 C 0.82151 0.7794 0.99273 0.0
C1155 C 0.84504 0.78932 0.97858 0.0
C1156 C 0.85046 0.80554 0.95452 0.0
C1157 C 0.83223 0.81127 0.94467 0.0
C1158 C 0.81489 0.76182 0.01827 0.0
C1159 C 0.87548 0.81674 0.93913 0.0
H1160 H 0.90941 0.79863 0.04017 0.0
H1161 H 0.87923 0.7364 0.98075 0.0
H1162 H 0.8842 0.83291 0.00606 0.0
H1163 H 0.86386 0.81437 0.03478 0.0
H1164 H 0.89747 0.82944 0.03941 0.0
H1165 H 0.84839 0.7297 0.94647 0.0
H1166 H 0.82576 0.73696 0.96186 0.0
H1167 H 0.84735 0.75727 0.93503 0.0
H1168 H 0.78573 0.77787 0.99347 0.0
H1169 H 0.83631 0.82351 0.92609 0.0
H1170 H 0.82873 0.77117 0.03595 0.0
H1171 H 0.8158 0.74486 0.01186 0.0
H1172 H 0.79576 0.75571 0.02684 0.0
H1173 H 0.89102 0.82732 0.95472 0.0
H1174 H 0.87705 0.82962 0.92132 0.0
H1175 H 0.87812 0.80151 0.92996 0.0
C1176 C 0.02057 0.1911 0.5533 0.0
C1177 C 0.00685 0.20048 0.53887 0.0
C1178 C 0.04458 0.19685 0.54364 0.0
C1179 C 0.05525 0.21263 0.51922 0.0
C1180 C 0.04143 0.22203 0.50448 0.0
C1181 C 0.01736 0.21571 0.51436 0.0
C1182 C 0.05861 0.1862 0.55965 0.0
C1183 C 0.05225 0.23915 0.47855 0.0
C1184 C 0.12622 0.24921 0.50943 0.0
C1185 C 0.12967 0.23565 0.48719 0.0
C1186 C 0.10215 0.24163 0.52046 0.0
C1187 C 0.08105 0.21979 0.50926 0.0
C1188 C 0.08451 0.20554 0.48751 0.0
C1189 C 0.10875 0.21374 0.47659 0.0
C1190 C 0.0992 0.25748 0.54344 0.0
C1191 C 0.06253 0.18196 0.4753 0.0
H1192 H 0.01253 0.17924 0.57219 0.0
H1193 H 0.00696 0.22316 0.50316 0.0
H1194 H 0.06391 0.17559 0.54448 0.0
H1195 H 0.07631 0.20173 0.56878 0.0
H1196 H 0.04732 0.17347 0.57757 0.0
H1197 H 0.03904 0.24479 0.46946 0.0
H1198 H 0.06994 0.2564 0.48474 0.0
H1199 H 0.05703 0.22964 0.46133 0.0
H1200 H 0.14226 0.2662 0.51767 0.0
H1201 H 0.11127 0.20306 0.45954 0.0
H1202 H 0.08921 0.24574 0.56252 0.0
H1203 H 0.08759 0.26526 0.5349 0.0
H1204 H 0.11758 0.27336 0.55066 0.0
H1205 H 0.05161 0.16885 0.49307 0.0
H1206 H 0.06859 0.17206 0.45997 0.0
H1207 H 0.04966 0.1868 0.46376 0.0
C1208 C 0.81068 0.83172 0.555 0.0
C1209 C 0.80119 0.80847 0.54091 0.0
C1210 C 0.80473 0.84982 0.5452 0.0
C1211 C 0.78865 0.84437 0.52099 0.0
C1212 C 0.77913 0.82098 0.50662 0.0
C1213 C 0.78564 0.80341 0.51663 0.0
C1214 C 0.8155 0.8747 0.56082 0.0
C1215 C 0.76172 0.81433 0.48091 0.0
C1216 C 0.75171 0.87831 0.51045 0.0
C1217 C 0.76498 0.89489 0.48777 0.0
C1218 C 0.75956 0.86218 0.52196 0.0
C1219 C 0.78138 0.86286 0.51077 0.0
C1220 C 0.79536 0.88019 0.4886 0.0
C1221 C 0.7869 0.89588 0.47724 0.0
C1222 C 0.74399 0.84378 0.5454 0.0
C1223 C 0.81889 0.8817 0.47635 0.0
H1224 H 0.82277 0.83581 0.57372 0.0
H1225 H 0.77809 0.78544 0.50569 0.0
H1226 H 0.82598 0.89041 0.54539 0.0
H1227 H 0.80004 0.87698 0.56997 0.0
H1228 H 0.82837 0.87636 0.57868 0.0
H1229 H 0.75597 0.79534 0.47215 0.0
H1230 H 0.74455 0.81488 0.4872 0.0
H1231 H 0.77106 0.82836 0.4634 0.0
H1232 H 0.73472 0.87739 0.51868 0.0
H1233 H 0.79738 0.90877 0.45985 0.0
H1234 H 0.75597 0.84581 0.56435 0.0
H1235 H 0.73607 0.82425 0.53726 0.0
H1236 H 0.72823 0.84645 0.55272 0.0
H1237 H 0.83213 0.88413 0.49407 0.0
H1238 H 0.82866 0.89748 0.46078 0.0
H1239 H 0.81401 0.86387 0.46508 0.0
C1240 C 0.19847 0.98326 0.51879 0.0
C1241 C 0.19373 0.99404 0.54304 0.0
C1242 C 0.18084 0.95899 0.50937 0.0
C1243 C 0.15774 0.94521 0.52432 0.0
C1244 C 0.15265 0.95608 0.54857 0.0
C1245 C 0.17078 0.98032 0.55776 0.0
C1246 C 0.18708 0.948 0.48355 0.0
C1247 C 0.12808 0.94206 0.56482 0.0
C1248 C 0.10543 0.89209 0.48134 0.0
C1249 C 0.10647 0.87108 0.49151 0.0
C1250 C 0.12136 0.9162 0.49261 0.0
C1251 C 0.13898 0.91945 0.51436 0.0
C1252 C 0.13968 0.89824 0.52528 0.0
C1253 C 0.1233 0.87427 0.51384 0.0
C1254 C 0.11983 0.9383 0.48063 0.0
C1255 C 0.15835 0.90098 0.5483 0.0
H1256 H 0.2162 0.99364 0.50738 0.0
H1257 H 0.16696 0.98853 0.57648 0.0
H1258 H 0.18646 0.93024 0.48983 0.0
H1259 H 0.17286 0.94331 0.46627 0.0
H1260 H 0.20599 0.96108 0.47449 0.0
H1261 H 0.12683 0.95331 0.58291 0.0
H1262 H 0.1121 0.93692 0.54983 0.0
H1263 H 0.12587 0.92428 0.57372 0.0
H1264 H 0.09234 0.88978 0.46424 0.0
H1265 H 0.12425 0.85815 0.52178 0.0
H1266 H 0.13752 0.95114 0.46903 0.0
H1267 H 0.11777 0.94921 0.49851 0.0
H1268 H 0.10383 0.93236 0.4654 0.0
H1269 H 0.17777 0.91234 0.53974 0.0
H1270 H 0.15557 0.88251 0.5556 0.0
H1271 H 0.15678 0.91114 0.56733 0.0
C1272 C 0.75137 0.87367 0.0138 0.0
C1273 C 0.76524 0.87053 0.9917 0.0
C1274 C 0.759 0.89757 0.02546 0.0
C1275 C 0.78116 0.91877 0.01498 0.0
C1276 C 0.79574 0.91556 0.99347 0.0
C1277 C 0.78753 0.89152 0.98198 0.0
C1278 C 0.74285 0.90028 0.04822 0.0
C1279 C 0.81963 0.93764 0.98197 0.0
C1280 C 0.78596 0.98278 0.01956 0.0
C1281 C 0.8012 0.9933 0.04407 0.0
C1282 C 0.77926 0.95853 0.01001 0.0
C1283 C 0.78822 0.9445 0.0251 0.0
C1284 C 0.80388 0.95509 0.04963 0.0
C1285 C 0.81007 0.97933 0.05894 0.0
C1286 C 0.76236 0.94782 0.98388 0.0
C1287 C 0.81403 0.9408 0.06605 0.0
H1288 H 0.73412 0.85756 0.0214 0.0
H1289 H 0.79847 0.88924 0.96507 0.0
H1290 H 0.75435 0.91023 0.06746 0.0
H1291 H 0.73504 0.91182 0.03955 0.0
H1292 H 0.72697 0.8818 0.05522 0.0
H1293 H 0.82981 0.93171 0.96691 0.0
H1294 H 0.81509 0.95068 0.97031 0.0
H1295 H 0.83238 0.94832 0.00011 0.0
H1296 H 0.77888 0.99334 0.00803 0.0
H1297 H 0.82188 0.98734 0.07786 0.0
H1298 H 0.74506 0.93009 0.98983 0.0
H1299 H 0.77204 0.94317 0.96676 0.0
H1300 H 0.75679 0.96108 0.97474 0.0
H1301 H 0.79825 0.92301 0.07465 0.0
H1302 H 0.82632 0.95185 0.08438 0.0
H1303 H 0.82499 0.93565 0.05126 0.0
C1304 C 0.11118 0.89487 0.98234 0.0
C1305 C 0.13217 0.89356 0.99205 0.0
C1306 C 0.08716 0.87911 0.99393 0.0
C1307 C 0.08395 0.86138 0.01552 0.0
C1308 C 0.10514 0.86038 0.02594 0.0
C1309 C 0.12904 0.8766 0.0142 0.0
C1310 C 0.06509 0.88099 0.9825 0.0
C1311 C 0.10245 0.84158 0.04876 0.0
C1312 C 0.02362 0.83041 0.05997 0.0
C1313 C 0.00936 0.80754 0.04525 0.0
C1314 C 0.04788 0.84823 0.05047 0.0
C1315 C 0.05823 0.8429 0.0259 0.0
C1316 C 0.04393 0.81984 0.011 0.0
C1317 C 0.01965 0.80254 0.02074 0.0
C1318 C 0.06244 0.87275 0.06668 0.0
C1319 C 0.05436 0.81333 0.98487 0.0
H1320 H 0.11346 0.90806 0.96538 0.0
H1321 H 0.14514 0.87544 0.02178 0.0
H1322 H 0.0519 0.86334 0.97105 0.0
H1323 H 0.05458 0.88328 0.00066 0.0
H1324 H 0.07101 0.89699 0.96727 0.0
H1325 H 0.12091 0.84405 0.05559 0.0
H1326 H 0.0927 0.84333 0.06807 0.0
H1327 H 0.09071 0.8222 0.04023 0.0
H1328 H 0.0158 0.83445 0.07889 0.0
H1329 H 0.00886 0.78486 0.00933 0.0
H1330 H 0.06755 0.88879 0.05179 0.0
H1331 H 0.08026 0.87469 0.07509 0.0
H1332 H 0.05161 0.87418 0.08512 0.0
H1333 H 0.05897 0.82756 0.96761 0.0
H1334 H 0.04095 0.79447 0.97595 0.0
H1335 H 0.07208 0.8137 0.99071 0.0
C1336 C 0.10542 0.2137 0.97846 0.0
C1337 C 0.10649 0.23555 0.98941 0.0
C1338 C 0.12124 0.2052 0.98928 0.0
C1339 C 0.1388 0.21906 0.0113 0.0
C1340 C 0.13962 0.24083 0.02288 0.0
C1341 C 0.12334 0.24872 0.01192 0.0
C1342 C 0.11958 0.18172 0.97664 0.0
C1343 C 0.15826 0.25626 0.04617 0.0
C1344 C 0.17006 0.18939 0.0546 0.0
C1345 C 0.19322 0.19887 0.04028 0.0
C1346 C 0.15196 0.19544 0.04515 0.0
C1347 C 0.1573 0.21164 0.02108 0.0
C1348 C 0.18058 0.22114 0.00647 0.0
C1349 C 0.19817 0.21452 0.01612 0.0
C1350 C 0.1272 0.18468 0.06103 0.0
C1351 C 0.18711 0.23868 0.9809 0.0
H1352 H 0.09233 0.20331 0.9612 0.0
H1353 H 0.12434 0.26565 0.02046 0.0
H1354 H 0.13734 0.18662 0.96517 0.0
H1355 H 0.11721 0.16834 0.99416 0.0
H1356 H 0.10372 0.1721 0.96114 0.0
H1357 H 0.15577 0.27207 0.05374 0.0
H1358 H 0.15633 0.24421 0.065 0.0
H1359 H 0.17771 0.26411 0.03778 0.0
H1360 H 0.16607 0.17722 0.07323 0.0
H1361 H 0.21606 0.22207 0.00501 0.0
H1362 H 0.11137 0.17436 0.0457 0.0
H1363 H 0.12508 0.20013 0.07049 0.0
H1364 H 0.12559 0.17166 0.07868 0.0
H1365 H 0.17292 0.22949 0.96351 0.0
H1366 H 0.206 0.24437 0.97188 0.0
H1367 H 0.18672 0.25588 0.98747 0.0
C1368 C 0.89126 0.78681 0.51842 0.0
C1369 C 0.8703 0.76455 0.50856 0.0
C1370 C 0.91535 0.79499 0.5071 0.0
C1371 C 0.91863 0.78043 0.48563 0.0
C1372 C 0.89748 0.75831 0.47503 0.0
C1373 C 0.87352 0.7507 0.48652 0.0
C1374 C 0.93739 0.81884 0.51874 0.0
C1375 C 0.90027 0.74218 0.45231 0.0
C1376 C 0.97942 0.80961 0.44211 0.0
C1377 C 0.99337 0.80077 0.45709 0.0
C1378 C 0.9551 0.80328 0.45121 0.0
C1379 C 0.9444 0.78752 0.47564 0.0
C1380 C 0.9584 0.77857 0.49083 0.0
C1381 C 0.98273 0.78541 0.48147 0.0
C1382 C 0.94084 0.81342 0.4347 0.0
C1383 C 0.94759 0.76157 0.51686 0.0
H1384 H 0.88892 0.79774 0.53529 0.0
H1385 H 0.85743 0.73347 0.47882 0.0
H1386 H 0.95039 0.81427 0.53043 0.0
H1387 H 0.94814 0.83165 0.50067 0.0
H1388 H 0.93142 0.82898 0.53381 0.0
H1389 H 0.88183 0.72632 0.44522 0.0
H1390 H 0.9103 0.75371 0.43311 0.0
H1391 H 0.91179 0.73436 0.46105 0.0
H1392 H 0.98752 0.82151 0.42327 0.0
H1393 H 0.99328 0.77835 0.49308 0.0
H1394 H 0.93566 0.82438 0.44945 0.0
H1395 H 0.92307 0.79763 0.42607 0.0
H1396 H 0.95193 0.8257 0.41639 0.0
H1397 H 0.94286 0.7712 0.53399 0.0
H1398 H 0.9608 0.75597 0.52604 0.0
H1399 H 0.92988 0.74429 0.51079 0.0
C1400 C 0.21698 0.19909 0.48053 0.0
C1401 C 0.20188 0.19423 0.45588 0.0
C1402 C 0.22368 0.18162 0.49041 0.0
C1403 C 0.21481 0.15854 0.47551 0.0
C1404 C 0.19927 0.15333 0.45085 0.0
C1405 C 0.19312 0.17132 0.4412 0.0
C1406 C 0.24049 0.18799 0.51663 0.0
C1407 C 0.18918 0.12878 0.43465 0.0
C1408 C 0.25147 0.12438 0.48699 0.0
C1409 C 0.2375 0.10734 0.50902 0.0
C1410 C 0.24401 0.14081 0.47542 0.0
C1411 C 0.22189 0.13995 0.48588 0.0
C1412 C 0.20725 0.12218 0.50738 0.0
C1413 C 0.21531 0.1062 0.51881 0.0
C1414 C 0.26025 0.15967 0.45271 0.0
C1415 C 0.18338 0.12045 0.51882 0.0
H1416 H 0.22398 0.2168 0.4919 0.0
H1417 H 0.18139 0.16739 0.42219 0.0
H1418 H 0.23077 0.17372 0.53382 0.0
H1419 H 0.25783 0.18757 0.51087 0.0
H1420 H 0.24598 0.20684 0.52561 0.0
H1421 H 0.17691 0.12741 0.41623 0.0
H1422 H 0.205 0.12676 0.42621 0.0
H1423 H 0.17822 0.11277 0.44955 0.0
H1424 H 0.26866 0.12541 0.47936 0.0
H1425 H 0.2043 0.09296 0.53568 0.0
H1426 H 0.26789 0.17903 0.46128 0.0
H1427 H 0.24884 0.15799 0.43333 0.0
H1428 H 0.27624 0.15717 0.44595 0.0
H1429 H 0.18792 0.13812 0.53028 0.0
H1430 H 0.17322 0.10445 0.53404 0.0
H1431 H 0.1706 0.11824 0.50066 0.0
C1432 C 0.8295 0.02145 0.44031 0.0
C1433 C 0.80652 0.00753 0.45492 0.0
C1434 C 0.84763 0.04554 0.44991 0.0
C1435 C 0.84249 0.05607 0.47445 0.0
C1436 C 0.81936 0.04208 0.48931 0.0
C1437 C 0.80175 0.01794 0.47948 0.0
C1438 C 0.87222 0.05977 0.43376 0.0
C1439 C 0.81306 0.05274 0.51539 0.0
C1440 C 0.89479 0.10931 0.51739 0.0
C1441 C 0.89367 0.13026 0.50718 0.0
C1442 C 0.87884 0.08516 0.50621 0.0
C1443 C 0.8611 0.08182 0.48457 0.0
C1444 C 0.86023 0.10296 0.47373 0.0
C1445 C 0.87664 0.12695 0.48503 0.0
C1446 C 0.88056 0.06313 0.51804 0.0
C1447 C 0.84139 0.10013 0.45087 0.0
H1448 H 0.83335 0.0135 0.42137 0.0
H1449 H 0.78399 0.0074 0.49081 0.0
H1450 H 0.87429 0.07753 0.42495 0.0
H1451 H 0.8882 0.06498 0.44877 0.0
H1452 H 0.87362 0.04866 0.4156 0.0
H1453 H 0.79422 0.03946 0.52445 0.0
H1454 H 0.82735 0.05743 0.53257 0.0
H1455 H 0.81348 0.07046 0.50939 0.0
H1456 H 0.90802 0.11173 0.53436 0.0
H1457 H 0.87561 0.14303 0.47707 0.0
H1458 H 0.88277 0.05238 0.50007 0.0
H1459 H 0.8629 0.05012 0.52957 0.0
H1460 H 0.89656 0.06912 0.53329 0.0
H1461 H 0.84312 0.09026 0.43166 0.0
H1462 H 0.84386 0.11855 0.44385 0.0
H1463 H 0.82202 0.08845 0.45944 0.0
C1464 C 0.88209 0.44332 0.35135 0.0
C1465 C 0.90405 0.46435 0.34103 0.0
C1466 C 0.87394 0.4192 0.34013 0.0
C1467 C 0.88825 0.41597 0.31828 0.0
C1468 C 0.91007 0.4372 0.30723 0.0
C1469 C 0.91763 0.46117 0.31862 0.0
C1470 C 0.8504 0.39708 0.35223 0.0
C1471 C 0.92593 0.43447 0.2841 0.0
C1472 C 0.88383 0.35211 0.31366 0.0
C1473 C 0.86823 0.34137 0.28948 0.0
C1474 C 0.89057 0.3764 0.3231 0.0
C1475 C 0.88121 0.39021 0.30826 0.0
C1476 C 0.86517 0.37937 0.28408 0.0
C1477 C 0.859 0.35513 0.27484 0.0
C1478 C 0.90793 0.38739 0.34882 0.0
C1479 C 0.85455 0.39339 0.26798 0.0
H1480 H 0.87137 0.44563 0.36852 0.0
H1481 H 0.93464 0.47731 0.31057 0.0
H1482 H 0.83734 0.38616 0.33442 0.0
H1483 H 0.85533 0.38426 0.36372 0.0
H1484 H 0.8404 0.403 0.36758 0.0
H1485 H 0.9416 0.45294 0.27677 0.0
H1486 H 0.934 0.42309 0.29256 0.0
H1487 H 0.91414 0.42433 0.2651 0.0
H1488 H 0.8912 0.3417 0.32498 0.0
H1489 H 0.84688 0.34692 0.25618 0.0
H1490 H 0.89846 0.39205 0.36621 0.0
H1491 H 0.92502 0.40516 0.34248 0.0
H1492 H 0.91381 0.37431 0.35775 0.0
H1493 H 0.84374 0.3985 0.28306 0.0
H1494 H 0.842 0.38216 0.24991 0.0
H1495 H 0.87008 0.41119 0.25906 0.0
C1496 C 0.55932 0.44003 0.35507 0.0
C1497 C 0.53857 0.44152 0.34485 0.0
C1498 C 0.58352 0.45564 0.34382 0.0
C1499 C 0.58713 0.47341 0.32209 0.0
C1500 C 0.56618 0.47461 0.31121 0.0
C1501 C 0.54213 0.45854 0.32259 0.0
C1502 C 0.60534 0.45357 0.35571 0.0
C1503 C 0.5693 0.49349 0.28827 0.0
C1504 C 0.65121 0.53247 0.31712 0.0
C1505 C 0.66159 0.52765 0.29255 0.0
C1506 C 0.62706 0.51494 0.32695 0.0
C1507 C 0.61298 0.49183 0.31208 0.0
C1508 C 0.62349 0.4866 0.28759 0.0
C1509 C 0.64762 0.50465 0.27799 0.0
C1510 C 0.61644 0.52133 0.353 0.0
C1511 C 0.60915 0.46202 0.27142 0.0
H1512 H 0.5567 0.4268 0.37212 0.0
H1513 H 0.52621 0.45985 0.31461 0.0
H1514 H 0.61605 0.45127 0.33778 0.0
H1515 H 0.61844 0.47113 0.36734 0.0
H1516 H 0.59911 0.43749 0.37089 0.0
H1517 H 0.55098 0.4912 0.28111 0.0
H1518 H 0.58108 0.51285 0.29683 0.0
H1519 H 0.57917 0.49163 0.26914 0.0
H1520 H 0.66178 0.55023 0.32844 0.0
H1521 H 0.65553 0.50075 0.25905 0.0
H1522 H 0.61154 0.50696 0.37014 0.0
H1523 H 0.59886 0.52116 0.34693 0.0
H1524 H 0.62984 0.5401 0.36216 0.0
H1525 H 0.60368 0.44601 0.28647 0.0
H1526 H 0.62029 0.46049 0.2534 0.0
H1527 H 0.59154 0.46016 0.26241 0.0
C1528 C 0.54357 0.08586 0.32244 0.0
C1529 C 0.56049 0.09932 0.34478 0.0
C1530 C 0.52715 0.09352 0.31135 0.0
C1531 C 0.52789 0.11535 0.32261 0.0
C1532 C 0.54547 0.12946 0.34451 0.0
C1533 C 0.56144 0.12119 0.35547 0.0
C1534 C 0.50848 0.07781 0.2882 0.0
C1535 C 0.54705 0.15301 0.3568 0.0
C1536 C 0.49676 0.14457 0.27828 0.0
C1537 C 0.47356 0.13526 0.29247 0.0
C1538 C 0.51483 0.13861 0.28812 0.0
C1539 C 0.50942 0.12268 0.31246 0.0
C1540 C 0.48609 0.11334 0.32694 0.0
C1541 C 0.46854 0.11987 0.3169 0.0
C1542 C 0.53964 0.14922 0.27238 0.0
C1543 C 0.47948 0.09607 0.35277 0.0
H1544 H 0.54265 0.06891 0.31412 0.0
H1545 H 0.57457 0.13179 0.37261 0.0
H1546 H 0.48904 0.07013 0.29654 0.0
H1547 H 0.51046 0.08964 0.26912 0.0
H1548 H 0.51092 0.06188 0.28103 0.0
H1549 H 0.56285 0.16275 0.37237 0.0
H1550 H 0.54951 0.16627 0.3391 0.0
H1551 H 0.52924 0.14818 0.36809 0.0
H1552 H 0.50081 0.15654 0.25947 0.0
H1553 H 0.45061 0.11247 0.3279 0.0
H1554 H 0.54178 0.13366 0.26327 0.0
H1555 H 0.55542 0.15969 0.28772 0.0
H1556 H 0.5413 0.16205 0.25448 0.0
H1557 H 0.47987 0.0788 0.34656 0.0
H1558 H 0.46058 0.09049 0.36166 0.0
H1559 H 0.49363 0.10543 0.37016 0.0
C1560 C 0.6852 0.5492 0.85 0.0
C1561 C 0.6749 0.53398 0.87456 0.0
C1562 C 0.70928 0.55571 0.83996 0.0
C1563 C 0.72333 0.54653 0.85458 0.0
C1564 C 0.71289 0.53077 0.87907 0.0
C1565 C 0.68886 0.52483 0.8889 0.0
C1566 C 0.71985 0.57279 0.81396 0.0
C1567 C 0.72717 0.52033 0.89496 0.0
C1568 C 0.77669 0.54799 0.81127 0.0
C1569 C 0.79759 0.57005 0.82161 0.0
C1570 C 0.75252 0.53962 0.82253 0.0
C1571 C 0.74911 0.55383 0.84437 0.0
C1572 C 0.77021 0.57581 0.85533 0.0
C1573 C 0.79422 0.58356 0.84396 0.0
C1574 C 0.73055 0.51589 0.81056 0.0
C1575 C 0.76731 0.59162 0.87839 0.0
H1576 H 0.67463 0.55648 0.83887 0.0
H1577 H 0.68099 0.51299 0.90783 0.0
H1578 H 0.73752 0.59012 0.82001 0.0
H1579 H 0.72458 0.56331 0.79667 0.0
H1580 H 0.70649 0.57831 0.80501 0.0
H1581 H 0.71607 0.50764 0.91299 0.0
H1582 H 0.73246 0.50975 0.87975 0.0
H1583 H 0.74488 0.53597 0.90392 0.0
H1584 H 0.77916 0.53734 0.79414 0.0
H1585 H 0.81025 0.60066 0.85201 0.0
H1586 H 0.7175 0.52056 0.79914 0.0
H1587 H 0.71982 0.50282 0.82845 0.0
H1588 H 0.7366 0.50602 0.79519 0.0
H1589 H 0.75555 0.59929 0.87 0.0
H1590 H 0.7857 0.60758 0.88547 0.0
H1591 H 0.75749 0.57989 0.89754 0.0
C1592 C 0.41818 0.20976 0.84426 0.0
C1593 C 0.43185 0.22702 0.82229 0.0
C1594 C 0.42595 0.19344 0.85537 0.0
C1595 C 0.44812 0.19466 0.84453 0.0
C1596 C 0.46244 0.21259 0.82301 0.0
C1597 C 0.45404 0.22843 0.812 0.0
C1598 C 0.41002 0.17437 0.87807 0.0
C1599 C 0.48636 0.21469 0.8112 0.0
C1600 C 0.47723 0.16363 0.8892 0.0
C1601 C 0.46841 0.14064 0.87469 0.0
C1602 C 0.47115 0.18162 0.87936 0.0
C1603 C 0.45562 0.17632 0.85467 0.0
C1604 C 0.4468 0.15322 0.83985 0.0
C1605 C 0.45343 0.13575 0.84992 0.0
C1606 C 0.48119 0.20619 0.89548 0.0
C1607 C 0.42997 0.14675 0.81362 0.0
H1608 H 0.40097 0.20849 0.85225 0.0
H1609 H 0.4648 0.24184 0.79516 0.0
H1610 H 0.40273 0.15507 0.86944 0.0
H1611 H 0.42157 0.17628 0.89739 0.0
H1612 H 0.3938 0.17644 0.88494 0.0
H1613 H 0.49619 0.23071 0.79594 0.0
H1614 H 0.49937 0.21711 0.82918 0.0
H1615 H 0.48198 0.19709 0.7997 0.0
H1616 H 0.48888 0.16759 0.90829 0.0
H1617 H 0.44641 0.11799 0.83865 0.0
H1618 H 0.46533 0.20795 0.90433 0.0
H1619 H 0.49174 0.22221 0.88045 0.0
H1620 H 0.4938 0.20782 0.91362 0.0
H1621 H 0.41245 0.14678 0.81949 0.0
H1622 H 0.42481 0.12803 0.80448 0.0
H1623 H 0.43949 0.16117 0.79654 0.0
C1624 C 0.86718 0.31893 0.85139 0.0
C1625 C 0.86233 0.32921 0.87603 0.0
C1626 C 0.84983 0.29466 0.8417 0.0
C1627 C 0.82689 0.28034 0.8568 0.0
C1628 C 0.82168 0.29068 0.88147 0.0
C1629 C 0.83953 0.31496 0.89089 0.0
C1630 C 0.85617 0.28425 0.81542 0.0
C1631 C 0.7973 0.27608 0.89792 0.0
C1632 C 0.77468 0.22712 0.81379 0.0
C1633 C 0.77621 0.20623 0.82342 0.0
C1634 C 0.79046 0.2512 0.82523 0.0
C1635 C 0.80842 0.25456 0.84658 0.0
C1636 C 0.80966 0.23348 0.8569 0.0
C1637 C 0.79344 0.20953 0.84531 0.0
C1638 C 0.78834 0.27316 0.81389 0.0
C1639 C 0.82871 0.23634 0.87948 0.0
H1640 H 0.88479 0.32972 0.83985 0.0
H1641 H 0.83562 0.32277 0.90991 0.0
H1642 H 0.85601 0.26662 0.8212 0.0
H1643 H 0.84174 0.27948 0.79837 0.0
H1644 H 0.8749 0.29772 0.80625 0.0
H1645 H 0.79593 0.28695 0.91636 0.0
H1646 H 0.78113 0.2708 0.88319 0.0
H1647 H 0.79555 0.25835 0.90637 0.0
H1648 H 0.7613 0.22472 0.79704 0.0
H1649 H 0.79477 0.1935 0.85283 0.0
H1650 H 0.80587 0.2864 0.80228 0.0
H1651 H 0.78611 0.28366 0.83211 0.0
H1652 H 0.77221 0.26712 0.79883 0.0
H1653 H 0.848 0.24816 0.87075 0.0
H1654 H 0.82642 0.21794 0.88627 0.0
H1655 H 0.82705 0.24608 0.89886 0.0
C1656 C 0.41737 0.20951 0.34556 0.0
C1657 C 0.4311 0.20618 0.32344 0.0
C1658 C 0.42501 0.2335 0.35693 0.0
C1659 C 0.44711 0.25461 0.3462 0.0
C1660 C 0.4615 0.25125 0.32456 0.0
C1661 C 0.45323 0.2271 0.3133 0.0
C1662 C 0.40901 0.23635 0.37977 0.0
C1663 C 0.48533 0.27324 0.31284 0.0
C1664 C 0.45201 0.31864 0.35186 0.0
C1665 C 0.4671 0.32881 0.37654 0.0
C1666 C 0.44542 0.29455 0.34179 0.0
C1667 C 0.45439 0.28036 0.35651 0.0
C1668 C 0.46999 0.29065 0.38114 0.0
C1669 C 0.47602 0.3147 0.391 0.0
C1670 C 0.42853 0.28414 0.31562 0.0
C1671 C 0.48018 0.27621 0.39716 0.0
H1672 H 0.40021 0.19346 0.35345 0.0
H1673 H 0.46404 0.22466 0.29635 0.0
H1674 H 0.42057 0.24604 0.39908 0.0
H1675 H 0.4015 0.24822 0.37128 0.0
H1676 H 0.39294 0.21796 0.38663 0.0
H1677 H 0.49528 0.26723 0.29751 0.0
H1678 H 0.4808 0.2864 0.30143 0.0
H1679 H 0.49829 0.28383 0.33086 0.0
H1680 H 0.44491 0.32933 0.34064 0.0
H1681 H 0.48775 0.32247 0.41002 0.0
H1682 H 0.41113 0.26646 0.32147 0.0
H1683 H 0.43812 0.27945 0.29841 0.0
H1684 H 0.42314 0.29758 0.30664 0.0
H1685 H 0.46441 0.25846 0.40587 0.0
H1686 H 0.49269 0.28717 0.41538 0.0
H1687 H 0.49089 0.27097 0.38209 0.0
C1688 C 0.68846 0.16413 0.3903 0.0
C1689 C 0.67407 0.14145 0.37528 0.0
C1690 C 0.71252 0.18219 0.38053 0.0
C1691 C 0.72255 0.17729 0.35536 0.0
C1692 C 0.70806 0.15451 0.34003 0.0
C1693 C 0.68396 0.13695 0.35006 0.0
C1694 C 0.72729 0.20641 0.39723 0.0
C1695 C 0.71817 0.14846 0.31326 0.0
C1696 C 0.77614 0.22992 0.31308 0.0
C1697 C 0.79689 0.22814 0.32268 0.0
C1698 C 0.75196 0.21407 0.32427 0.0
C1699 C 0.74837 0.19572 0.34521 0.0
C1700 C 0.76931 0.19415 0.35538 0.0
C1701 C 0.79335 0.21051 0.34416 0.0
C1702 C 0.73017 0.21659 0.31322 0.0
C1703 C 0.76621 0.17462 0.37742 0.0
H1704 H 0.68092 0.16779 0.40974 0.0
H1705 H 0.67306 0.11944 0.33838 0.0
H1706 H 0.7449 0.20787 0.40565 0.0
H1707 H 0.73278 0.22275 0.38271 0.0
H1708 H 0.71647 0.20776 0.41574 0.0
H1709 H 0.70448 0.12995 0.30377 0.0
H1710 H 0.72302 0.16322 0.29661 0.0
H1711 H 0.7357 0.14828 0.31861 0.0
H1712 H 0.77876 0.24362 0.29663 0.0
H1713 H 0.80927 0.20895 0.3516 0.0
H1714 H 0.71974 0.2187 0.33161 0.0
H1715 H 0.71681 0.19928 0.30134 0.0
H1716 H 0.73638 0.23296 0.29849 0.0
H1717 H 0.7567 0.1762 0.39707 0.0
H1718 H 0.7845 0.17647 0.38389 0.0
H1719 H 0.75409 0.15551 0.36837 0.0
C1720 C 0.8385 0.52588 0.39151 0.0
C1721 C 0.86103 0.53439 0.37609 0.0
C1722 C 0.82047 0.53225 0.38264 0.0
C1723 C 0.82525 0.54771 0.35798 0.0
C1724 C 0.84792 0.5563 0.34233 0.0
C1725 C 0.86544 0.54943 0.35147 0.0
C1726 C 0.79636 0.52249 0.39965 0.0
C1727 C 0.8538 0.57297 0.31604 0.0
C1728 C 0.77261 0.5486 0.31589 0.0
C1729 C 0.77434 0.57112 0.32547 0.0
C1730 C 0.78839 0.54024 0.32715 0.0
C1731 C 0.80658 0.5549 0.34826 0.0
C1732 C 0.80798 0.5773 0.35862 0.0
C1733 C 0.79172 0.58506 0.34722 0.0
C1734 C 0.7861 0.5161 0.3158 0.0
C1735 C 0.82728 0.59356 0.38094 0.0
H1736 H 0.83493 0.51422 0.41053 0.0
H1737 H 0.88285 0.55623 0.33951 0.0
H1738 H 0.79471 0.53848 0.40824 0.0
H1739 H 0.77996 0.5115 0.38526 0.0
H1740 H 0.79534 0.51036 0.41804 0.0
H1741 H 0.87242 0.57828 0.30647 0.0
H1742 H 0.83913 0.5632 0.29926 0.0
H1743 H 0.85365 0.59041 0.32196 0.0
H1744 H 0.75907 0.53758 0.29927 0.0
H1745 H 0.7932 0.6025 0.3547 0.0
H1746 H 0.78424 0.50351 0.33403 0.0
H1747 H 0.8034 0.52032 0.30372 0.0
H1748 H 0.76968 0.50587 0.30115 0.0
H1749 H 0.82596 0.58219 0.40022 0.0
H1750 H 0.82496 0.60959 0.38797 0.0
H1751 H 0.84646 0.60114 0.37183 0.0
C1752 C 0.54346 0.08556 0.82195 0.0
C1753 C 0.53987 0.09894 0.84429 0.0
C1754 C 0.56755 0.0935 0.8107 0.0
C1755 C 0.58851 0.11552 0.8218 0.0
C1756 C 0.5849 0.12956 0.84368 0.0
C1757 C 0.56066 0.12101 0.8548 0.0
C1758 C 0.57067 0.07787 0.78758 0.0
C1759 C 0.60673 0.1533 0.85582 0.0
C1760 C 0.65269 0.12077 0.81608 0.0
C1761 C 0.66293 0.13616 0.79164 0.0
C1762 C 0.62855 0.11401 0.82612 0.0
C1763 C 0.61436 0.12309 0.81161 0.0
C1764 C 0.62474 0.13902 0.78724 0.0
C1765 C 0.64886 0.14524 0.77742 0.0
C1766 C 0.61806 0.09679 0.85202 0.0
C1767 C 0.6103 0.14933 0.77144 0.0
H1768 H 0.52753 0.06845 0.81376 0.0
H1769 H 0.55803 0.13156 0.87192 0.0
H1770 H 0.58041 0.08971 0.76847 0.0
H1771 H 0.58258 0.07037 0.79592 0.0
H1772 H 0.55237 0.06181 0.78045 0.0
H1773 H 0.60054 0.16296 0.87133 0.0
H1774 H 0.61989 0.14873 0.86712 0.0
H1775 H 0.61737 0.16653 0.83803 0.0
H1776 H 0.66335 0.11355 0.82712 0.0
H1777 H 0.65667 0.15721 0.75858 0.0
H1778 H 0.6005 0.07939 0.84587 0.0
H1779 H 0.61315 0.10608 0.86937 0.0
H1780 H 0.63154 0.09143 0.86094 0.0
H1781 H 0.59268 0.13362 0.7624 0.0
H1782 H 0.62135 0.16216 0.75349 0.0
H1783 H 0.60484 0.15972 0.78673 0.0
C1784 C 0.88322 0.44101 0.85141 0.0
C1785 C 0.90568 0.44247 0.84211 0.0
C1786 C 0.87509 0.45686 0.83976 0.0
C1787 C 0.88993 0.47485 0.81855 0.0
C1788 C 0.91231 0.47602 0.80854 0.0
C1789 C 0.91984 0.4597 0.82031 0.0
C1790 C 0.85094 0.45481 0.85074 0.0
C1791 C 0.92877 0.4951 0.78614 0.0
C1792 C 0.86124 0.50625 0.77369 0.0
C1793 C 0.8696 0.52897 0.78867 0.0
C1794 C 0.86754 0.48834 0.78324 0.0
C1795 C 0.88281 0.49342 0.80813 0.0
C1796 C 0.8913 0.51631 0.82331 0.0
C1797 C 0.88448 0.53371 0.8135 0.0
C1798 C 0.85788 0.464 0.76672 0.0
C1799 C 0.9078 0.52254 0.84981 0.0
H1800 H 0.87206 0.42762 0.86808 0.0
H1801 H 0.93725 0.46099 0.81306 0.0
H1802 H 0.85517 0.47231 0.86237 0.0
H1803 H 0.83842 0.4527 0.83233 0.0
H1804 H 0.84065 0.43863 0.86568 0.0
H1805 H 0.94489 0.49275 0.77959 0.0
H1806 H 0.91758 0.49355 0.7666 0.0
H1807 H 0.93623 0.51438 0.79491 0.0
H1808 H 0.84969 0.50241 0.75452 0.0
H1809 H 0.89117 0.55127 0.82512 0.0
H1810 H 0.84675 0.4478 0.78132 0.0
H1811 H 0.87391 0.4622 0.75858 0.0
H1812 H 0.84589 0.46275 0.74806 0.0
H1813 H 0.89792 0.50811 0.86679 0.0
H1814 H 0.91306 0.54129 0.85894 0.0
H1815 H 0.92527 0.52229 0.8443 0.0
C1816 C 0.56241 0.44215 0.85441 0.0
C1817 C 0.56143 0.46309 0.84387 0.0
C1818 C 0.54638 0.41794 0.84342 0.0
C1819 C 0.52872 0.41453 0.82165 0.0
C1820 C 0.52796 0.43565 0.81052 0.0
C1821 C 0.54444 0.4597 0.82164 0.0
C1822 C 0.54798 0.39593 0.85555 0.0
C1823 C 0.50921 0.43275 0.78752 0.0
C1824 C 0.49724 0.35418 0.77737 0.0
C1825 C 0.47413 0.34034 0.79174 0.0
C1826 C 0.5154 0.3782 0.78712 0.0
C1827 C 0.51015 0.38875 0.81155 0.0
C1828 C 0.48692 0.37482 0.82621 0.0
C1829 C 0.46928 0.35073 0.81626 0.0
C1830 C 0.54012 0.39236 0.77119 0.0
C1831 C 0.48049 0.38552 0.85216 0.0
H1832 H 0.57559 0.44463 0.87146 0.0
H1833 H 0.54351 0.47576 0.81344 0.0
H1834 H 0.53023 0.38298 0.86697 0.0
H1835 H 0.55029 0.38511 0.83775 0.0
H1836 H 0.56387 0.40195 0.87097 0.0
H1837 H 0.51167 0.45114 0.7804 0.0
H1838 H 0.51105 0.42287 0.76839 0.0
H1839 H 0.4898 0.42105 0.79598 0.0
H1840 H 0.50116 0.34623 0.75847 0.0
H1841 H 0.45142 0.34025 0.8274 0.0
H1842 H 0.55598 0.39763 0.78639 0.0
H1843 H 0.54225 0.41007 0.76215 0.0
H1844 H 0.54164 0.38117 0.75321 0.0
H1845 H 0.49472 0.39027 0.86943 0.0
H1846 H 0.46162 0.37224 0.86115 0.0
H1847 H 0.4809 0.40321 0.84602 0.0
C1848 C 0.54881 0.68505 0.65146 0.0
C1849 C 0.53302 0.6744 0.62739 0.0
C1850 C 0.55548 0.70922 0.66128 0.0
C1851 C 0.54586 0.72303 0.64695 0.0
C1852 C 0.52951 0.71223 0.62299 0.0
C1853 C 0.52342 0.6881 0.61336 0.0
C1854 C 0.57318 0.72017 0.68671 0.0
C1855 C 0.51862 0.72625 0.60742 0.0
C1856 C 0.54832 0.77691 0.69013 0.0
C1857 C 0.57012 0.79769 0.67909 0.0
C1858 C 0.5397 0.75261 0.67916 0.0
C1859 C 0.55337 0.74893 0.65688 0.0
C1860 C 0.57507 0.76989 0.64521 0.0
C1861 C 0.58309 0.79404 0.65632 0.0
C1862 C 0.51629 0.73078 0.69192 0.0
C1863 C 0.59031 0.76671 0.62164 0.0
H1864 H 0.55645 0.67469 0.66234 0.0
H1865 H 0.51114 0.67997 0.59481 0.0
H1866 H 0.59034 0.73776 0.68008 0.0
H1867 H 0.56411 0.72513 0.70428 0.0
H1868 H 0.57893 0.70695 0.69553 0.0
H1869 H 0.50546 0.71487 0.58985 0.0
H1870 H 0.50842 0.73173 0.62297 0.0
H1871 H 0.534 0.74383 0.5979 0.0
H1872 H 0.53808 0.77959 0.70758 0.0
H1873 H 0.59997 0.80997 0.64771 0.0
H1874 H 0.52126 0.71789 0.7032 0.0
H1875 H 0.50279 0.71981 0.67448 0.0
H1876 H 0.50679 0.73701 0.7076 0.0
H1877 H 0.59821 0.75509 0.62978 0.0
H1878 H 0.60606 0.78502 0.61402 0.0
H1879 H 0.5781 0.75664 0.60289 0.0
C1880 C 0.20967 0.79072 0.65523 0.0
C1881 C 0.20609 0.77355 0.67731 0.0
C1882 C 0.23377 0.80709 0.64418 0.0
C1883 C 0.25476 0.80604 0.65522 0.0
C1884 C 0.25115 0.78816 0.67679 0.0
C1885 C 0.22689 0.77224 0.68772 0.0
C1886 C 0.23688 0.82608 0.62139 0.0
C1887 C 0.27302 0.78625 0.68884 0.0
C1888 C 0.3154 0.83783 0.61144 0.0
C1889 C 0.32916 0.86081 0.6261 0.0
C1890 C 0.2913 0.81961 0.62093 0.0
C1891 C 0.28062 0.82464 0.64541 0.0
C1892 C 0.2945 0.84771 0.66039 0.0
C1893 C 0.31863 0.86543 0.65066 0.0
C1894 C 0.27717 0.79508 0.60463 0.0
C1895 C 0.2837 0.85389 0.68643 0.0
H1896 H 0.19372 0.7919 0.64713 0.0
H1897 H 0.22427 0.75891 0.70464 0.0
H1898 H 0.24856 0.8454 0.63011 0.0
H1899 H 0.24688 0.8244 0.60228 0.0
H1900 H 0.21856 0.82373 0.61418 0.0
H1901 H 0.26683 0.77015 0.70398 0.0
H1902 H 0.28389 0.7841 0.67098 0.0
H1903 H 0.28597 0.80382 0.70056 0.0
H1904 H 0.32343 0.83408 0.5925 0.0
H1905 H 0.32906 0.88317 0.66205 0.0
H1906 H 0.25956 0.79314 0.59551 0.0
H1907 H 0.27171 0.77903 0.61961 0.0
H1908 H 0.28845 0.79369 0.58667 0.0
H1909 H 0.26609 0.85365 0.68028 0.0
H1910 H 0.29698 0.87263 0.69574 0.0
H1911 H 0.27877 0.83944 0.70348 0.0
C1912 C 0.21079 0.41662 0.65392 0.0
C1913 C 0.22775 0.43061 0.676 0.0
C1914 C 0.19452 0.42416 0.64205 0.0
C1915 C 0.19547 0.44639 0.65225 0.0
C1916 C 0.21318 0.46106 0.67379 0.0
C1917 C 0.22899 0.45292 0.68553 0.0
C1918 C 0.17573 0.40789 0.6193 0.0
C1919 C 0.21499 0.48504 0.68498 0.0
C1920 C 0.16438 0.47515 0.60703 0.0
C1921 C 0.14143 0.4665 0.62159 0.0
C1922 C 0.18229 0.46897 0.61688 0.0
C1923 C 0.17697 0.45351 0.64165 0.0
C1924 C 0.15386 0.44476 0.65642 0.0
C1925 C 0.13646 0.45148 0.64633 0.0
C1926 C 0.20687 0.47892 0.60079 0.0
C1927 C 0.14737 0.42805 0.68277 0.0
H1928 H 0.20967 0.39933 0.64649 0.0
H1929 H 0.24217 0.46394 0.70244 0.0
H1930 H 0.15634 0.40032 0.62776 0.0
H1931 H 0.1775 0.41925 0.59984 0.0
H1932 H 0.17819 0.39185 0.6127 0.0
H1933 H 0.23097 0.49523 0.70021 0.0
H1934 H 0.21729 0.49774 0.6667 0.0
H1935 H 0.19733 0.48063 0.69635 0.0
H1936 H 0.16839 0.48682 0.58794 0.0
H1937 H 0.11873 0.44457 0.65762 0.0
H1938 H 0.20885 0.46303 0.59252 0.0
H1939 H 0.22286 0.48991 0.61572 0.0
H1940 H 0.20833 0.49112 0.58226 0.0
H1941 H 0.14775 0.41066 0.67718 0.0
H1942 H 0.12851 0.42266 0.69163 0.0
H1943 H 0.1616 0.43782 0.69998 0.0
C1944 C 0.35185 0.88413 0.18652 0.0
C1945 C 0.34156 0.86916 0.21125 0.0
C1946 C 0.37599 0.89067 0.17669 0.0
C1947 C 0.3901 0.88177 0.19173 0.0
C1948 C 0.37972 0.86636 0.21648 0.0
C1949 C 0.35561 0.86036 0.22606 0.0
C1950 C 0.3865 0.90734 0.15036 0.0
C1951 C 0.39409 0.85626 0.23283 0.0
C1952 C 0.44288 0.88194 0.14868 0.0
C1953 C 0.46396 0.90415 0.1584 0.0
C1954 C 0.41886 0.87397 0.16008 0.0
C1955 C 0.41576 0.88873 0.18145 0.0
C1956 C 0.43703 0.91086 0.19183 0.0
C1957 C 0.46091 0.91822 0.18032 0.0
C1958 C 0.39669 0.85007 0.14872 0.0
C1959 C 0.43445 0.92723 0.21441 0.0
H1960 H 0.3412 0.89115 0.17504 0.0
H1961 H 0.34776 0.84873 0.24514 0.0
H1962 H 0.40428 0.92468 0.15607 0.0
H1963 H 0.39102 0.8975 0.1333 0.0
H1964 H 0.37318 0.91284 0.14126 0.0
H1965 H 0.38315 0.84408 0.25128 0.0
H1966 H 0.39912 0.84521 0.21805 0.0
H1967 H 0.41194 0.87207 0.24126 0.0
H1968 H 0.4451 0.87085 0.13189 0.0
H1969 H 0.47709 0.93544 0.18788 0.0
H1970 H 0.38362 0.85461 0.13713 0.0
H1971 H 0.38607 0.8374 0.16693 0.0
H1972 H 0.40251 0.83981 0.13364 0.0
H1973 H 0.42278 0.93489 0.20571 0.0
H1974 H 0.45295 0.94321 0.22114 0.0
H1975 H 0.42467 0.91591 0.23382 0.0
C1976 C 0.11964 0.46948 0.18356 0.0
C1977 C 0.13506 0.47412 0.20788 0.0
C1978 C 0.11319 0.48724 0.17407 0.0
C1979 C 0.12263 0.51036 0.18902 0.0
C1980 C 0.13855 0.51537 0.21328 0.0
C1981 C 0.14445 0.49711 0.22255 0.0
C1982 C 0.09596 0.48107 0.14826 0.0
C1983 C 0.14921 0.53995 0.22953 0.0
C1984 C 0.12143 0.56281 0.14673 0.0
C1985 C 0.09947 0.56171 0.15733 0.0
C1986 C 0.12969 0.54682 0.15759 0.0
C1987 C 0.11549 0.52907 0.17931 0.0
C1988 C 0.09363 0.52825 0.19057 0.0
C1989 C 0.08597 0.5447 0.17958 0.0
C1990 C 0.15328 0.54847 0.14529 0.0
C1991 C 0.07784 0.50942 0.21354 0.0
H1992 H 0.11217 0.45172 0.17218 0.0
H1993 H 0.15644 0.50086 0.24129 0.0
H1994 H 0.07877 0.48154 0.15464 0.0
H1995 H 0.10543 0.49541 0.13109 0.0
H1996 H 0.09024 0.46224 0.13903 0.0
H1997 H 0.16192 0.54125 0.2474 0.0
H1998 H 0.15984 0.55594 0.21449 0.0
H1999 H 0.13369 0.54208 0.23875 0.0
H2000 H 0.13207 0.57603 0.12968 0.0
H2001 H 0.06895 0.54369 0.18784 0.0
H2002 H 0.14843 0.53083 0.1336 0.0
H2003 H 0.16639 0.55055 0.16302 0.0
H2004 H 0.16318 0.56451 0.13008 0.0
H2005 H 0.06993 0.49005 0.20488 0.0
H2006 H 0.06205 0.51199 0.22097 0.0
H2007 H 0.08964 0.51104 0.2325 0.0
C2008 C 0.53123 0.64892 0.18437 0.0
C2009 C 0.52625 0.65957 0.20856 0.0
C2010 C 0.51375 0.62466 0.17479 0.0
C2011 C 0.49055 0.61075 0.18952 0.0
C2012 C 0.48522 0.62148 0.21372 0.0
C2013 C 0.50321 0.64573 0.22308 0.0
C2014 C 0.52025 0.61381 0.14905 0.0
C2015 C 0.46054 0.60734 0.22972 0.0
C2016 C 0.43873 0.55766 0.14601 0.0
C2017 C 0.4398 0.53667 0.1562 0.0
C2018 C 0.45448 0.58174 0.15745 0.0
C2019 C 0.47195 0.585 0.17939 0.0
C2020 C 0.47268 0.56381 0.19032 0.0
C2021 C 0.45649 0.53986 0.17871 0.0
C2022 C 0.45292 0.60382 0.14545 0.0
C2023 C 0.49121 0.56656 0.21354 0.0
H2024 H 0.54903 0.6594 0.17312 0.0
H2025 H 0.49921 0.65384 0.24175 0.0
H2026 H 0.51966 0.59607 0.15533 0.0
H2027 H 0.50615 0.60913 0.13162 0.0
H2028 H 0.53921 0.62697 0.14017 0.0
H2029 H 0.4591 0.61849 0.2478 0.0
H2030 H 0.44466 0.60219 0.21458 0.0
H2031 H 0.45834 0.58955 0.23861 0.0
H2032 H 0.42575 0.55534 0.12878 0.0
H2033 H 0.45747 0.52376 0.18667 0.0
H2034 H 0.47066 0.61676 0.13402 0.0
H2035 H 0.45066 0.61462 0.1633 0.0
H2036 H 0.43702 0.59787 0.13006 0.0
H2037 H 0.51069 0.57803 0.20519 0.0
H2038 H 0.48847 0.54809 0.22082 0.0
H2039 H 0.48943 0.5766 0.23254 0.0
C2040 C 0.14379 0.64626 0.72132 0.0
C2041 C 0.1346 0.66027 0.70718 0.0
C2042 C 0.13799 0.62236 0.71117 0.0
C2043 C 0.12235 0.61211 0.68657 0.0
C2044 C 0.11312 0.62622 0.67215 0.0
C2045 C 0.11949 0.65017 0.6825 0.0
C2046 C 0.14846 0.60802 0.72686 0.0
C2047 C 0.09616 0.61584 0.64603 0.0
C2048 C 0.12148 0.55918 0.64297 0.0
C2049 C 0.09952 0.53813 0.65322 0.0
C2050 C 0.12959 0.58328 0.65427 0.0
C2051 C 0.1152 0.58645 0.67607 0.0
C2052 C 0.09327 0.56522 0.6869 0.0
C2053 C 0.08579 0.54129 0.67548 0.0
C2054 C 0.15325 0.60542 0.64245 0.0
C2055 C 0.07728 0.56787 0.70992 0.0
H2056 H 0.15556 0.65398 0.74032 0.0
H2057 H 0.11219 0.6608 0.67154 0.0
H2058 H 0.13284 0.59019 0.7356 0.0
H2059 H 0.15916 0.60294 0.71157 0.0
H2060 H 0.16106 0.61898 0.74502 0.0
H2061 H 0.09063 0.62923 0.63724 0.0
H2062 H 0.10575 0.61129 0.62868 0.0
H2063 H 0.07884 0.59808 0.65187 0.0
H2064 H 0.13228 0.55687 0.62589 0.0
H2065 H 0.06875 0.52514 0.68346 0.0
H2066 H 0.16629 0.61604 0.6604 0.0
H2067 H 0.14851 0.6185 0.63124 0.0
H2068 H 0.1632 0.59957 0.62693 0.0
H2069 H 0.08888 0.57752 0.72922 0.0
H2070 H 0.06129 0.54941 0.71675 0.0
H2071 H 0.06964 0.57968 0.70163 0.0
C2072 C 0.35464 0.49661 0.72583 0.0
C2073 C 0.34075 0.47377 0.71096 0.0
C2074 C 0.37893 0.51465 0.71667 0.0
C2075 C 0.38965 0.50957 0.69227 0.0
C2076 C 0.37571 0.48656 0.67718 0.0
C2077 C 0.3514 0.46902 0.6866 0.0
C2078 C 0.39313 0.53911 0.73308 0.0
C2079 C 0.38654 0.48036 0.65118 0.0
C2080 C 0.44272 0.56211 0.6495 0.0
C2081 C 0.46374 0.56098 0.65947 0.0
C2082 C 0.41862 0.54609 0.66074 0.0
C2083 C 0.41539 0.52829 0.68224 0.0
C2084 C 0.43661 0.52747 0.69293 0.0
C2085 C 0.46056 0.54393 0.68152 0.0
C2086 C 0.39652 0.54775 0.64902 0.0
C2087 C 0.43388 0.5086 0.71569 0.0
H2088 H 0.34653 0.50044 0.74464 0.0
H2089 H 0.34089 0.45137 0.67506 0.0
H2090 H 0.41093 0.54118 0.74174 0.0
H2091 H 0.39825 0.55519 0.71827 0.0
H2092 H 0.38202 0.54031 0.75137 0.0
H2093 H 0.37336 0.46151 0.64206 0.0
H2094 H 0.39122 0.49466 0.63401 0.0
H2095 H 0.40428 0.48086 0.65727 0.0
H2096 H 0.44502 0.57537 0.63262 0.0
H2097 H 0.47669 0.54291 0.6893 0.0
H2098 H 0.38575 0.54983 0.66704 0.0
H2099 H 0.38357 0.53011 0.63741 0.0
H2100 H 0.40244 0.5638 0.63386 0.0
H2101 H 0.42385 0.51012 0.73488 0.0
H2102 H 0.45234 0.51124 0.72277 0.0
H2103 H 0.42239 0.48925 0.70699 0.0
C2104 C 0.50674 0.86151 0.72662 0.0
C2105 C 0.52931 0.86981 0.71135 0.0
C2106 C 0.4887 0.86768 0.71725 0.0
C2107 C 0.49351 0.88276 0.69224 0.0
C2108 C 0.51623 0.89115 0.67674 0.0
C2109 C 0.53376 0.88446 0.68637 0.0
C2110 C 0.46453 0.85811 0.73409 0.0
C2111 C 0.52215 0.90745 0.65011 0.0
C2112 C 0.44068 0.88294 0.64971 0.0
C2113 C 0.44226 0.90546 0.659 0.0
C2114 C 0.45664 0.87486 0.66113 0.0
C2115 C 0.47485 0.88982 0.68208 0.0
C2116 C 0.47615 0.91227 0.69207 0.0
C2117 C 0.45972 0.91974 0.68053 0.0
C2118 C 0.45444 0.85064 0.65022 0.0
C2119 C 0.4955 0.92886 0.71418 0.0
H2120 H 0.50314 0.85014 0.7459 0.0
H2121 H 0.5512 0.8911 0.67453 0.0
H2122 H 0.46284 0.8742 0.74229 0.0
H2123 H 0.44817 0.84694 0.71971 0.0
H2124 H 0.46345 0.84619 0.75276 0.0
H2125 H 0.54079 0.91262 0.64069 0.0
H2126 H 0.50752 0.89746 0.63336 0.0
H2127 H 0.52199 0.92498 0.65558 0.0
H2128 H 0.4271 0.87169 0.63323 0.0
H2129 H 0.46109 0.93719 0.68777 0.0
H2130 H 0.45252 0.83823 0.66867 0.0
H2131 H 0.4718 0.85477 0.63833 0.0
H2132 H 0.43809 0.84025 0.63552 0.0
H2133 H 0.49413 0.91779 0.73376 0.0
H2134 H 0.49325 0.94505 0.72072 0.0
H2135 H 0.51467 0.93622 0.70513 0.0
C2136 C 0.20729 0.41666 0.15145 0.0
C2137 C 0.20412 0.43049 0.17357 0.0
C2138 C 0.23121 0.4243 0.13984 0.0
C2139 C 0.2524 0.44645 0.15036 0.0
C2140 C 0.24915 0.46099 0.17188 0.0
C2141 C 0.22509 0.45277 0.18334 0.0
C2142 C 0.23395 0.40816 0.11708 0.0
C2143 C 0.27121 0.48488 0.18343 0.0
C2144 C 0.31644 0.4513 0.14602 0.0
C2145 C 0.32705 0.46658 0.12157 0.0
C2146 C 0.29215 0.44454 0.15547 0.0
C2147 C 0.27815 0.45351 0.14031 0.0
C2148 C 0.28882 0.4692 0.11582 0.0
C2149 C 0.3131 0.47543 0.10662 0.0
C2150 C 0.28138 0.4276 0.18155 0.0
C2151 C 0.27457 0.47936 0.09934 0.0
H2152 H 0.19119 0.39941 0.14382 0.0
H2153 H 0.22278 0.46368 0.20026 0.0
H2154 H 0.24396 0.41969 0.09787 0.0
H2155 H 0.24547 0.40033 0.12578 0.0
H2156 H 0.21549 0.39231 0.11002 0.0
H2157 H 0.26525 0.49505 0.19846 0.0
H2158 H 0.28422 0.48033 0.19514 0.0
H2159 H 0.28193 0.49764 0.16532 0.0
H2160 H 0.32699 0.44422 0.15762 0.0
H2161 H 0.32117 0.48728 0.08774 0.0
H2162 H 0.26365 0.41033 0.17555 0.0
H2163 H 0.27671 0.43729 0.19867 0.0
H2164 H 0.2946 0.422 0.19072 0.0
H2165 H 0.25678 0.46358 0.09072 0.0
H2166 H 0.28565 0.49164 0.08102 0.0
H2167 H 0.26941 0.49034 0.1141 0.0
C2168 C 0.52434 0.83731 0.10924 0.0
C2169 C 0.53333 0.8601 0.12426 0.0
C2170 C 0.53051 0.81918 0.11829 0.0
C2171 C 0.54626 0.82411 0.1427 0.0
C2172 C 0.55533 0.84704 0.15795 0.0
C2173 C 0.54864 0.86467 0.14866 0.0
C2174 C 0.52024 0.7948 0.10171 0.0
C2175 C 0.57234 0.8531 0.18395 0.0
C2176 C 0.54701 0.77152 0.18512 0.0
C2177 C 0.56921 0.77279 0.1751 0.0
C2178 C 0.53882 0.78747 0.17397 0.0
C2179 C 0.55332 0.80535 0.15251 0.0
C2180 C 0.5754 0.8063 0.14174 0.0
C2181 C 0.583 0.7899 0.15305 0.0
C2182 C 0.51501 0.78567 0.18576 0.0
C2183 C 0.59148 0.82527 0.11904 0.0
H2184 H 0.51247 0.83362 0.0904 0.0
H2185 H 0.55581 0.88228 0.1603 0.0
H2186 H 0.53596 0.79281 0.09288 0.0
H2187 H 0.50935 0.77864 0.11645 0.0
H2188 H 0.50786 0.79366 0.08353 0.0
H2189 H 0.57796 0.87188 0.19326 0.0
H2190 H 0.56271 0.83868 0.20101 0.0
H2191 H 0.58959 0.85267 0.17779 0.0
H2192 H 0.53613 0.75822 0.202 0.0
H2193 H 0.6002 0.79103 0.14524 0.0
H2194 H 0.50218 0.78371 0.16777 0.0
H2195 H 0.51965 0.8032 0.19758 0.0
H2196 H 0.50488 0.76949 0.20075 0.0
H2197 H 0.5799 0.82383 0.09992 0.0
H2198 H 0.60731 0.82268 0.11182 0.0
H2199 H 0.59934 0.84458 0.12786 0.0
C2200 C 0.22946 0.77678 0.18947 0.0
C2201 C 0.22836 0.7977 0.17909 0.0
C2202 C 0.21356 0.7526 0.17833 0.0
C2203 C 0.19589 0.74919 0.15655 0.0
C2204 C 0.19504 0.7703 0.14556 0.0
C2205 C 0.2114 0.79432 0.15682 0.0
C2206 C 0.21527 0.73061 0.19032 0.0
C2207 C 0.17628 0.7674 0.12257 0.0
C2208 C 0.16455 0.68894 0.11205 0.0
C2209 C 0.14146 0.67501 0.12643 0.0
C2210 C 0.18266 0.71297 0.12187 0.0
C2211 C 0.17738 0.72342 0.14637 0.0
C2212 C 0.15415 0.70939 0.16102 0.0
C2213 C 0.13657 0.68531 0.151 0.0
C2214 C 0.20737 0.72723 0.10594 0.0
C2215 C 0.14769 0.71998 0.18704 0.0
H2216 H 0.24263 0.77926 0.20654 0.0
H2217 H 0.21038 0.81036 0.14874 0.0
H2218 H 0.19755 0.71759 0.20175 0.0
H2219 H 0.2176 0.71987 0.17244 0.0
H2220 H 0.23119 0.73665 0.20569 0.0
H2221 H 0.1787 0.78579 0.11551 0.0
H2222 H 0.17816 0.75758 0.1034 0.0
H2223 H 0.15687 0.75565 0.13102 0.0
H2224 H 0.16851 0.68107 0.09312 0.0
H2225 H 0.11872 0.67475 0.16215 0.0
H2226 H 0.22325 0.73249 0.12112 0.0
H2227 H 0.20945 0.74495 0.097 0.0
H2228 H 0.20892 0.71612 0.08789 0.0
H2229 H 0.16193 0.7247 0.20431 0.0
H2230 H 0.12883 0.70664 0.19602 0.0
H2231 H 0.14805 0.73766 0.18101 0.0
C2232 C 0.29234 0.27745 0.08613 0.0
C2233 C 0.301 0.26778 0.06429 0.0
C2234 C 0.30541 0.30315 0.09308 0.0
C2235 C 0.32786 0.31951 0.07808 0.0
C2236 C 0.33688 0.30984 0.05625 0.0
C2237 C 0.32325 0.2841 0.04947 0.0
C2238 C 0.29503 0.31282 0.11625 0.0
C2239 C 0.3609 0.3267 0.04002 0.0
C2240 C 0.34866 0.38907 0.07651 0.0
C2241 C 0.36674 0.39861 0.09864 0.0
C2242 C 0.33592 0.36338 0.06958 0.0
C2243 C 0.3416 0.34686 0.08489 0.0
C2244 C 0.36004 0.3564 0.107 0.0
C2245 C 0.37229 0.38215 0.11375 0.0
C2246 C 0.31614 0.35386 0.04609 0.0
C2247 C 0.36679 0.33938 0.12357 0.0
H2248 H 0.27511 0.26499 0.09759 0.0
H2249 H 0.33013 0.27673 0.03269 0.0
H2250 H 0.30911 0.32203 0.13374 0.0
H2251 H 0.29119 0.32724 0.10698 0.0
H2252 H 0.27737 0.2976 0.12593 0.0
H2253 H 0.36574 0.31611 0.02425 0.0
H2254 H 0.35905 0.34142 0.02818 0.0
H2255 H 0.37673 0.33647 0.05548 0.0
H2256 H 0.34417 0.40164 0.06482 0.0
H2257 H 0.38632 0.38941 0.13077 0.0
H2258 H 0.29771 0.33957 0.05514 0.0
H2259 H 0.32108 0.34452 0.02882 0.0
H2260 H 0.314 0.36918 0.03619 0.0
H2261 H 0.35001 0.32478 0.13524 0.0
H2262 H 0.38207 0.34986 0.13954 0.0
H2263 H 0.37287 0.32946 0.10835 0.0
C2264 C 0.61843 0.98978 0.11652 0.0
C2265 C 0.60201 0.96769 0.10153 0.0
C2266 C 0.6442 0.00324 0.10986 0.0
C2267 C 0.65378 0.99418 0.08797 0.0
C2268 C 0.63731 0.97188 0.0728 0.0
C2269 C 0.6116 0.95899 0.07963 0.0
C2270 C 0.66117 0.02712 0.12627 0.0
C2271 C 0.64689 0.96147 0.04956 0.0
C2272 C 0.71652 0.03846 0.05251 0.0
C2273 C 0.73286 0.03268 0.06753 0.0
C2274 C 0.69077 0.02633 0.05923 0.0
C2275 C 0.68112 0.00778 0.08121 0.0
C2276 C 0.69751 0.00187 0.09643 0.0
C2277 C 0.72321 0.0145 0.08953 0.0
C2278 C 0.67389 0.03332 0.04276 0.0
C2279 C 0.68785 0.98197 0.11978 0.0
H2280 H 0.61112 0.99668 0.13336 0.0
H2281 H 0.59905 0.94186 0.06804 0.0
H2282 H 0.67579 0.02505 0.13806 0.0
H2283 H 0.67107 0.04303 0.11093 0.0
H2284 H 0.65066 0.03199 0.14212 0.0
H2285 H 0.6316 0.94391 0.03978 0.0
H2286 H 0.65621 0.97561 0.03215 0.0
H2287 H 0.66121 0.95745 0.05879 0.0
H2288 H 0.72387 0.05259 0.03559 0.0
H2289 H 0.73569 0.00986 0.10115 0.0
H2290 H 0.66406 0.03944 0.05806 0.0
H2291 H 0.65922 0.01664 0.03101 0.0
H2292 H 0.68446 0.04865 0.02687 0.0
H2293 H 0.67858 0.98692 0.13713 0.0
H2294 H 0.70309 0.97965 0.12962 0.0
H2295 H 0.67348 0.96363 0.11063 0.0
C2296 C 0.98513 0.70742 0.09112 0.0
C2297 C 0.96703 0.69913 0.06903 0.0
C2298 C 0.99747 0.69409 0.0981 0.0
C2299 C 0.99138 0.67176 0.08284 0.0
C2300 C 0.97283 0.66303 0.06084 0.0
C2301 C 0.96097 0.67692 0.05406 0.0
C2302 C 0.01738 0.70419 0.12144 0.0
C2303 C 0.96568 0.63915 0.04432 0.0
C2304 C 0.04093 0.6521 0.08075 0.0
C2305 C 0.03271 0.6339 0.10273 0.0
C2306 C 0.02753 0.66438 0.07392 0.0
C2307 C 0.00518 0.65815 0.08922 0.0
C2308 C 0.99655 0.63955 0.11116 0.0
C2309 C 0.01051 0.62774 0.11779 0.0
C2310 C 0.03752 0.68434 0.05063 0.0
C2311 C 0.97266 0.63226 0.12774 0.0
H2312 H 0.99 0.72461 0.10274 0.0
H2313 H 0.9469 0.67033 0.03708 0.0
H2314 H 0.01257 0.6898 0.13855 0.0
H2315 H 0.03576 0.70841 0.11215 0.0
H2316 H 0.01957 0.72158 0.13162 0.0
H2317 H 0.9501 0.63432 0.02877 0.0
H2318 H 0.98221 0.64123 0.03217 0.0
H2319 H 0.95986 0.62323 0.05959 0.0
H2320 H 0.05811 0.65704 0.06906 0.0
H2321 H 0.00397 0.6136 0.13468 0.0
H2322 H 0.04152 0.70264 0.05994 0.0
H2323 H 0.02315 0.67941 0.03347 0.0
H2324 H 0.05501 0.68674 0.04051 0.0
H2325 H 0.9746 0.64876 0.13982 0.0
H2326 H 0.96799 0.61676 0.14335 0.0
H2327 H 0.95669 0.62626 0.11249 0.0
C2328 C 0.27886 0.29507 0.41089 0.0
C2329 C 0.26865 0.30315 0.43275 0.0
C2330 C 0.30458 0.30867 0.40422 0.0
C2331 C 0.32047 0.33108 0.41955 0.0
C2332 C 0.31026 0.33958 0.44134 0.0
C2333 C 0.28447 0.32542 0.44782 0.0
C2334 C 0.31482 0.29882 0.38109 0.0
C2335 C 0.32661 0.36353 0.45794 0.0
C2336 C 0.38993 0.35176 0.4223 0.0
C2337 C 0.39981 0.36994 0.40029 0.0
C2338 C 0.3642 0.33916 0.42894 0.0
C2339 C 0.34794 0.34506 0.41341 0.0
C2340 C 0.35781 0.36366 0.39147 0.0
C2341 C 0.38363 0.37579 0.38504 0.0
C2342 C 0.35434 0.31923 0.45225 0.0
C2343 C 0.34105 0.3706 0.37466 0.0
H2344 H 0.2668 0.27784 0.3992 0.0
H2345 H 0.27669 0.33185 0.46462 0.0
H2346 H 0.32432 0.31321 0.36398 0.0
H2347 H 0.32913 0.29491 0.39059 0.0
H2348 H 0.29988 0.28129 0.37088 0.0
H2349 H 0.31559 0.36811 0.47337 0.0
H2350 H 0.34115 0.36173 0.47023 0.0
H2351 H 0.33659 0.3795 0.4427 0.0
H2352 H 0.40227 0.34704 0.43413 0.0
H2353 H 0.39115 0.3899 0.36811 0.0
H2354 H 0.34034 0.30082 0.44287 0.0
H2355 H 0.34458 0.32393 0.46924 0.0
H2356 H 0.36954 0.31714 0.4626 0.0
H2357 H 0.32677 0.354 0.36246 0.0
H2358 H 0.35181 0.38618 0.35912 0.0
H2359 H 0.33075 0.37633 0.38975 0.0
C2360 C 0.62675 0.01041 0.38357 0.0
C2361 C 0.63302 0.03263 0.39865 0.0
C2362 C 0.63856 0.99642 0.39004 0.0
C2363 C 0.65728 0.00504 0.41183 0.0
C2364 C 0.66366 0.02742 0.42713 0.0
C2365 C 0.65136 0.04086 0.42047 0.0
C2366 C 0.63111 0.97249 0.37346 0.0
C2367 C 0.68375 0.0374 0.45026 0.0
C2368 C 0.67587 0.96056 0.44671 0.0
C2369 C 0.69795 0.96643 0.43156 0.0
C2370 C 0.66211 0.97259 0.44011 0.0
C2371 C 0.67083 0.99113 0.41811 0.0
C2372 C 0.69304 0.99706 0.40269 0.0
C2373 C 0.70624 0.98455 0.40948 0.0
C2374 C 0.63835 0.96561 0.45682 0.0
C2375 C 0.70312 0.01695 0.37932 0.0
H2376 H 0.6125 0.00387 0.3668 0.0
H2377 H 0.6564 0.05806 0.43217 0.0
H2378 H 0.64754 0.97434 0.3613 0.0
H2379 H 0.6251 0.95653 0.38872 0.0
H2380 H 0.61557 0.96787 0.35793 0.0
H2381 H 0.6863 0.05496 0.46036 0.0
H2382 H 0.67886 0.02308 0.46746 0.0
H2383 H 0.70197 0.0413 0.44081 0.0
H2384 H 0.66927 0.94649 0.46369 0.0
H2385 H 0.72333 0.98928 0.39772 0.0
H2386 H 0.62235 0.95981 0.44167 0.0
H2387 H 0.64059 0.98222 0.46894 0.0
H2388 H 0.63354 0.95007 0.47242 0.0
H2389 H 0.68869 0.01218 0.36228 0.0
H2390 H 0.72044 0.01905 0.36905 0.0
H2391 H 0.70747 0.03536 0.38862 0.0
C2392 C 0.01473 0.72335 0.41243 0.0
C2393 C 0.03349 0.73308 0.43378 0.0
C2394 C 0.00223 0.69771 0.40528 0.0
C2395 C 0.00892 0.68147 0.41951 0.0
C2396 C 0.02808 0.69122 0.4408 0.0
C2397 C 0.04002 0.7169 0.44785 0.0
C2398 C 0.98164 0.68794 0.38275 0.0
C2399 C 0.03592 0.67451 0.45617 0.0
C2400 C 0.96064 0.6118 0.42127 0.0
C2401 C 0.96874 0.60248 0.39846 0.0
C2402 C 0.97361 0.63744 0.4284 0.0
C2403 C 0.99538 0.65415 0.41256 0.0
C2404 C 0.00387 0.64485 0.38975 0.0
C2405 C 0.99035 0.61912 0.38285 0.0
C2406 C 0.96381 0.64671 0.45266 0.0
C2407 C 0.02717 0.66209 0.37258 0.0
H2408 H 0.0095 0.73572 0.40157 0.0
H2409 H 0.05462 0.72434 0.46423 0.0
H2410 H 0.98621 0.67889 0.3648 0.0
H2411 H 0.96366 0.67336 0.39245 0.0
H2412 H 0.97879 0.70307 0.3736 0.0
H2413 H 0.05172 0.68517 0.47148 0.0
H2414 H 0.01974 0.65964 0.46839 0.0
H2415 H 0.04172 0.66492 0.44013 0.0
H2416 H 0.9439 0.59908 0.43337 0.0
H2417 H 0.99679 0.61204 0.36529 0.0
H2418 H 0.95927 0.66091 0.44425 0.0
H2419 H 0.97849 0.65607 0.46951 0.0
H2420 H 0.94668 0.63124 0.46295 0.0
H2421 H 0.02454 0.67661 0.36141 0.0
H2422 H 0.03172 0.65176 0.35613 0.0
H2423 H 0.0435 0.67208 0.38735 0.0
C2424 C 0.65377 0.61215 0.91922 0.0
C2425 C 0.63497 0.60218 0.89791 0.0
C2426 C 0.66642 0.63788 0.92588 0.0
C2427 C 0.65993 0.65404 0.91112 0.0
C2428 C 0.64083 0.64411 0.88975 0.0
C2429 C 0.62867 0.6183 0.88325 0.0
C2430 C 0.6869 0.64781 0.94856 0.0
C2431 C 0.63325 0.66076 0.87379 0.0
C2432 C 0.6786 0.71643 0.9477 0.0
C2433 C 0.70057 0.73295 0.93257 0.0
C2434 C 0.66485 0.69078 0.94052 0.0
C2435 C 0.67345 0.6814 0.9179 0.0
C2436 C 0.69552 0.69801 0.90243 0.0
C2437 C 0.70873 0.7236 0.90985 0.0
C2438 C 0.64126 0.67366 0.95731 0.0
C2439 C 0.70544 0.68866 0.8784 0.0
H2440 H 0.65885 0.59986 0.93055 0.0
H2441 H 0.61409 0.6107 0.86685 0.0
H2442 H 0.70493 0.66237 0.93894 0.0
H2443 H 0.68218 0.65691 0.96632 0.0
H2444 H 0.68974 0.63275 0.95796 0.0
H2445 H 0.61768 0.65003 0.85822 0.0
H2446 H 0.6272 0.6704 0.88945 0.0
H2447 H 0.64961 0.67559 0.86177 0.0
H2448 H 0.67209 0.72354 0.96516 0.0
H2449 H 0.72572 0.73623 0.89808 0.0
H2450 H 0.64369 0.65918 0.9689 0.0
H2451 H 0.62515 0.66361 0.94226 0.0
H2452 H 0.63648 0.68409 0.97338 0.0
H2453 H 0.71003 0.67457 0.88706 0.0
H2454 H 0.72258 0.70411 0.86809 0.0
H2455 H 0.69082 0.67914 0.86151 0.0
C2456 C 0.27911 0.98381 0.91007 0.0
C2457 C 0.26983 0.96633 0.93282 0.0
C2458 C 0.30471 0.99634 0.9027 0.0
C2459 C 0.32142 0.99106 0.91823 0.0
C2460 C 0.31212 0.97312 0.94089 0.0
C2461 C 0.28645 0.96107 0.94804 0.0
C2462 C 0.31397 0.01558 0.87863 0.0
C2463 C 0.32934 0.96683 0.95775 0.0
C2464 C 0.38466 0.00986 0.88363 0.0
C2465 C 0.40064 0.03233 0.89825 0.0
C2466 C 0.35886 0.99602 0.89015 0.0
C2467 C 0.34879 0.00507 0.91149 0.0
C2468 C 0.36481 0.02779 0.92621 0.0
C2469 C 0.39054 0.04105 0.91954 0.0
C2470 C 0.34236 0.97172 0.87422 0.0
C2471 C 0.35474 0.03823 0.94885 0.0
H2472 H 0.26641 0.98805 0.89825 0.0
H2473 H 0.2794 0.94748 0.96552 0.0
H2474 H 0.32795 0.03431 0.88729 0.0
H2475 H 0.32359 0.01057 0.86179 0.0
H2476 H 0.29846 0.01713 0.86828 0.0
H2477 H 0.31897 0.95162 0.97383 0.0
H2478 H 0.3395 0.96086 0.94276 0.0
H2479 H 0.34371 0.9838 0.96934 0.0
H2480 H 0.39236 0.00295 0.86725 0.0
H2481 H 0.40272 0.05847 0.93084 0.0
H2482 H 0.32748 0.9731 0.86215 0.0
H2483 H 0.3328 0.95604 0.88992 0.0
H2484 H 0.3532 0.96697 0.85871 0.0
H2485 H 0.34009 0.04155 0.9392 0.0
H2486 H 0.3697 0.05619 0.95825 0.0
H2487 H 0.3457 0.02441 0.96662 0.0
C2488 C 0.01558 0.29433 0.91491 0.0
C2489 C 0.03422 0.30278 0.93639 0.0
C2490 C 0.00323 0.30772 0.90832 0.0
C2491 C 0.00988 0.33031 0.92333 0.0
C2492 C 0.02881 0.33908 0.94489 0.0
C2493 C 0.04066 0.32511 0.95131 0.0
C2494 C 0.98292 0.29758 0.88545 0.0
C2495 C 0.03655 0.36323 0.96112 0.0
C2496 C 0.99203 0.37473 0.88695 0.0
C2497 C 0.96999 0.36934 0.90188 0.0
C2498 C 0.00557 0.36261 0.89418 0.0
C2499 C 0.99667 0.34447 0.91663 0.0
C2500 C 0.97455 0.33909 0.93191 0.0
C2501 C 0.96156 0.35169 0.92447 0.0
C2502 C 0.02923 0.36901 0.87759 0.0
C2503 C 0.9643 0.31965 0.95575 0.0
H2504 H 0.01039 0.27702 0.90338 0.0
H2505 H 0.05512 0.3318 0.96783 0.0
H2506 H 0.9649 0.29426 0.89495 0.0
H2507 H 0.98792 0.31158 0.86784 0.0
H2508 H 0.97992 0.27968 0.87587 0.0
H2509 H 0.05195 0.36774 0.97681 0.0
H2510 H 0.04288 0.37908 0.94564 0.0
H2511 H 0.02019 0.3618 0.97304 0.0
H2512 H 0.99875 0.38846 0.8696 0.0
H2513 H 0.94451 0.34737 0.93608 0.0
H2514 H 0.0267 0.35215 0.86578 0.0
H2515 H 0.04519 0.37474 0.89278 0.0
H2516 H 0.0343 0.38442 0.86172 0.0
H2517 H 0.95953 0.30097 0.94691 0.0
H2518 H 0.9472 0.3181 0.966 0.0
H2519 H 0.9788 0.32444 0.97272 0.0
C2520 C 0.71582 0.67867 0.55164 0.0
C2521 C 0.73236 0.7009 0.56634 0.0
C2522 C 0.69014 0.66516 0.55873 0.0
C2523 C 0.68075 0.67429 0.58077 0.0
C2524 C 0.69734 0.69672 0.59564 0.0
C2525 C 0.72296 0.70967 0.58837 0.0
C2526 C 0.67304 0.64115 0.54261 0.0
C2527 C 0.68797 0.70721 0.61903 0.0
C2528 C 0.61127 0.6538 0.58016 0.0
C2529 C 0.60185 0.6357 0.60226 0.0
C2530 C 0.63689 0.66645 0.57292 0.0
C2531 C 0.65347 0.66067 0.58792 0.0
C2532 C 0.64407 0.64224 0.61005 0.0
C2533 C 0.61838 0.63008 0.61709 0.0
C2534 C 0.64627 0.68621 0.54943 0.0
C2535 C 0.66117 0.63541 0.62631 0.0
H2536 H 0.72298 0.67171 0.53471 0.0
H2537 H 0.73559 0.7269 0.59975 0.0
H2538 H 0.66336 0.62534 0.55812 0.0
H2539 H 0.65826 0.64308 0.53102 0.0
H2540 H 0.68342 0.63622 0.52663 0.0
H2541 H 0.70334 0.72484 0.62859 0.0
H2542 H 0.67353 0.71114 0.61001 0.0
H2543 H 0.67887 0.69316 0.63657 0.0
H2544 H 0.59864 0.65834 0.56867 0.0
H2545 H 0.61122 0.61602 0.63409 0.0
H2546 H 0.65536 0.68118 0.53195 0.0
H2547 H 0.66073 0.70462 0.55836 0.0
H2548 H 0.63092 0.68846 0.5398 0.0
H2549 H 0.67084 0.62919 0.61089 0.0
H2550 H 0.65079 0.62019 0.64238 0.0
H2551 H 0.67595 0.65217 0.63781 0.0
C2552 C 0.32366 0.03909 0.55159 0.0
C2553 C 0.30148 0.03331 0.56645 0.0
C2554 C 0.33726 0.02696 0.55846 0.0
C2555 C 0.32826 0.00839 0.58043 0.0
C2556 C 0.30586 0.00244 0.59546 0.0
C2557 C 0.29283 0.01509 0.58841 0.0
C2558 C 0.36123 0.03398 0.54219 0.0
C2559 C 0.2955 0.98253 0.61878 0.0
C2560 C 0.34914 0.95969 0.57944 0.0
C2561 C 0.36729 0.96843 0.6015 0.0
C2562 C 0.33633 0.97254 0.57235 0.0
C2563 C 0.34202 0.99485 0.58743 0.0
C2564 C 0.36051 0.00394 0.60949 0.0
C2565 C 0.37282 0.99053 0.61639 0.0
C2566 C 0.31651 0.96209 0.54893 0.0
C2567 C 0.36725 0.02781 0.62583 0.0
H2568 H 0.33053 0.05324 0.5347 0.0
H2569 H 0.27563 0.01042 0.5999 0.0
H2570 H 0.37711 0.04017 0.55762 0.0
H2571 H 0.35934 0.01731 0.53055 0.0
H2572 H 0.36603 0.04928 0.52625 0.0
H2573 H 0.27784 0.98014 0.62841 0.0
H2574 H 0.29166 0.96421 0.60967 0.0
H2575 H 0.30959 0.9875 0.63628 0.0
H2576 H 0.34468 0.94257 0.56791 0.0
H2577 H 0.38692 0.99747 0.63335 0.0
H2578 H 0.32142 0.97622 0.53149 0.0
H2579 H 0.2981 0.95803 0.55795 0.0
H2580 H 0.31436 0.94455 0.53923 0.0
H2581 H 0.37334 0.04371 0.61045 0.0
H2582 H 0.38254 0.03272 0.64182 0.0
H2583 H 0.35048 0.02571 0.63743 0.0
C2584 C 0.01045 0.38373 0.61151 0.0
C2585 C 0.03287 0.39976 0.59683 0.0
C2586 C 0.99645 0.358 0.60468 0.0
C2587 C 0.00529 0.34807 0.58293 0.0
C2588 C 0.02786 0.36417 0.568 0.0
C2589 C 0.04129 0.38982 0.57501 0.0
C2590 C 0.97232 0.34142 0.62085 0.0
C2591 C 0.03806 0.35422 0.54492 0.0
C2592 C 0.98469 0.27861 0.58495 0.0
C2593 C 0.96673 0.26891 0.56271 0.0
C2594 C 0.9972 0.30429 0.59188 0.0
C2595 C 0.99145 0.32067 0.5764 0.0
C2596 C 0.97311 0.31099 0.55418 0.0
C2597 C 0.96105 0.28522 0.54747 0.0
C2598 C 0.01687 0.31394 0.6155 0.0
C2599 C 0.96634 0.32789 0.53739 0.0
H2600 H 0.00376 0.3913 0.62828 0.0
H2601 H 0.05864 0.40205 0.56362 0.0
H2602 H 0.95654 0.33157 0.60534 0.0
H2603 H 0.97403 0.32677 0.63304 0.0
H2604 H 0.96751 0.35224 0.63632 0.0
H2605 H 0.05569 0.36931 0.53505 0.0
H2606 H 0.04189 0.33985 0.55437 0.0
H2607 H 0.02389 0.34488 0.52755 0.0
H2608 H 0.98926 0.26616 0.59679 0.0
H2609 H 0.94711 0.27785 0.53036 0.0
H2610 H 0.01191 0.32346 0.63253 0.0
H2611 H 0.03536 0.3281 0.60646 0.0
H2612 H 0.0189 0.29867 0.62572 0.0
H2613 H 0.96034 0.33797 0.55247 0.0
H2614 H 0.951 0.31728 0.52153 0.0
H2615 H 0.98309 0.34236 0.52557 0.0
C2616 C 0.94584 0.62938 0.74281 0.0
C2617 C 0.93614 0.63737 0.76533 0.0
C2618 C 0.97153 0.64256 0.73596 0.0
C2619 C 0.98794 0.66445 0.75181 0.0
C2620 C 0.97824 0.67289 0.77426 0.0
C2621 C 0.95245 0.65916 0.78088 0.0
C2622 C 0.98119 0.63279 0.71209 0.0
C2623 C 0.99516 0.6963 0.79145 0.0
C2624 C 0.05693 0.68315 0.75345 0.0
C2625 C 0.06713 0.70178 0.73197 0.0
C2626 C 0.03124 0.67103 0.76028 0.0
C2627 C 0.01538 0.67791 0.74551 0.0
C2628 C 0.02559 0.69696 0.72409 0.0
C2629 C 0.05134 0.70857 0.71743 0.0
C2630 C 0.021 0.65057 0.78298 0.0
C2631 C 0.00927 0.70495 0.70811 0.0
H2632 H 0.9334 0.61252 0.73073 0.0
H2633 H 0.94508 0.66552 0.79821 0.0
H2634 H 0.99095 0.64752 0.69538 0.0
H2635 H 0.99516 0.62812 0.721 0.0
H2636 H 0.96589 0.61573 0.7015 0.0
H2637 H 0.98452 0.70096 0.80734 0.0
H2638 H 0.00942 0.6937 0.80329 0.0
H2639 H 0.00548 0.71254 0.77664 0.0
H2640 H 0.06898 0.67771 0.76472 0.0
H2641 H 0.05913 0.72306 0.70093 0.0
H2642 H 0.00657 0.63255 0.77321 0.0
H2643 H 0.01166 0.65528 0.80046 0.0
H2644 H 0.03593 0.64771 0.79277 0.0
H2645 H 0.99459 0.68884 0.69563 0.0
H2646 H 0.02029 0.72076 0.69293 0.0
H2647 H 0.99944 0.71079 0.72375 0.0
C2648 C 0.29464 0.34362 0.72041 0.0
C2649 C 0.30025 0.36568 0.73545 0.0
C2650 C 0.3066 0.3299 0.72745 0.0
C2651 C 0.32482 0.33864 0.74981 0.0
C2652 C 0.33044 0.36079 0.76519 0.0
C2653 C 0.31798 0.37396 0.75794 0.0
C2654 C 0.29995 0.30621 0.71077 0.0
C2655 C 0.34997 0.37086 0.78893 0.0
C2656 C 0.34357 0.29408 0.78413 0.0
C2657 C 0.36581 0.3003 0.76912 0.0
C2658 C 0.32984 0.3062 0.77786 0.0
C2659 C 0.33876 0.32518 0.75636 0.0
C2660 C 0.36124 0.3316 0.74125 0.0
C2661 C 0.3744 0.31899 0.74769 0.0
C2662 C 0.3058 0.2987 0.79421 0.0
C2663 C 0.37151 0.35195 0.71842 0.0
H2664 H 0.28084 0.33702 0.70314 0.0
H2665 H 0.32247 0.39103 0.76962 0.0
H2666 H 0.31671 0.30859 0.6989 0.0
H2667 H 0.29409 0.2902 0.72591 0.0
H2668 H 0.28454 0.30132 0.69495 0.0
H2669 H 0.35175 0.38804 0.79923 0.0
H2670 H 0.3451 0.35633 0.80588 0.0
H2671 H 0.36857 0.37544 0.77998 0.0
H2672 H 0.33677 0.27958 0.80062 0.0
H2673 H 0.39164 0.32401 0.73609 0.0
H2674 H 0.28992 0.29255 0.77879 0.0
H2675 H 0.30746 0.31512 0.8062 0.0
H2676 H 0.30115 0.28322 0.80985 0.0
H2677 H 0.35749 0.34711 0.70087 0.0
H2678 H 0.38931 0.35476 0.70874 0.0
H2679 H 0.37506 0.37002 0.72798 0.0
C2680 C 0.62919 0.94731 0.75382 0.0
C2681 C 0.63757 0.9372 0.73217 0.0
C2682 C 0.64236 0.9731 0.76017 0.0
C2683 C 0.66463 0.98918 0.74474 0.0
C2684 C 0.67335 0.9791 0.72302 0.0
C2685 C 0.65961 0.95322 0.71685 0.0
C2686 C 0.63228 0.98318 0.78324 0.0
C2687 C 0.69718 0.99566 0.70632 0.0
C2688 C 0.68503 0.05865 0.7432 0.0
C2689 C 0.70301 0.06824 0.76543 0.0
C2690 C 0.67262 0.03301 0.73601 0.0
C2691 C 0.67854 0.0166 0.75118 0.0
C2692 C 0.697 0.02622 0.77327 0.0
C2693 C 0.70891 0.05192 0.78026 0.0
C2694 C 0.65283 0.0234 0.71255 0.0
C2695 C 0.70397 0.00932 0.78973 0.0
H2696 H 0.6121 0.9351 0.76566 0.0
H2697 H 0.66625 0.94552 0.70018 0.0
H2698 H 0.6465 0.99248 0.80057 0.0
H2699 H 0.62852 0.99761 0.77381 0.0
H2700 H 0.61463 0.96817 0.79317 0.0
H2701 H 0.70171 0.98482 0.69057 0.0
H2702 H 0.69529 0.01032 0.69441 0.0
H2703 H 0.71322 0.00551 0.7215 0.0
H2704 H 0.68031 0.07112 0.73167 0.0
H2705 H 0.7229 0.05922 0.79733 0.0
H2706 H 0.63436 0.00934 0.72175 0.0
H2707 H 0.65758 0.01375 0.69548 0.0
H2708 H 0.65085 0.03871 0.70236 0.0
H2709 H 0.68738 0.99491 0.80183 0.0
H2710 H 0.71955 0.01995 0.80532 0.0
H2711 H 0.70973 0.99919 0.77442 0.0
C2712 C 0.29369 0.95242 0.2197 0.0
C2713 C 0.3001 0.93645 0.23448 0.0
C2714 C 0.30549 0.9782 0.22634 0.0
C2715 C 0.32435 0.98823 0.24799 0.0
C2716 C 0.33085 0.97219 0.26299 0.0
C2717 C 0.31855 0.94649 0.25617 0.0
C2718 C 0.29789 0.99471 0.21011 0.0
C2719 C 0.3511 0.98223 0.28594 0.0
C2720 C 0.37324 0.05769 0.24566 0.0
C2721 C 0.36507 0.06746 0.26792 0.0
C2722 C 0.36003 0.03199 0.2388 0.0
C2723 C 0.33793 0.01566 0.25438 0.0
C2724 C 0.32935 0.02542 0.2766 0.0
C2725 C 0.34311 0.0512 0.28323 0.0
C2726 C 0.36995 0.02226 0.21517 0.0
C2727 C 0.30573 0.00858 0.2935 0.0
H2728 H 0.27935 0.94477 0.20303 0.0
H2729 H 0.3237 0.9343 0.26762 0.0
H2730 H 0.292 0.00462 0.22558 0.0
H2731 H 0.31422 0.00933 0.19784 0.0
H2732 H 0.28223 0.98383 0.1947 0.0
H2733 H 0.35371 0.96719 0.29584 0.0
H2734 H 0.36926 0.99658 0.27637 0.0
H2735 H 0.34634 0.99163 0.30331 0.0
H2736 H 0.39024 0.07009 0.23376 0.0
H2737 H 0.33661 0.05863 0.30036 0.0
H2738 H 0.3554 0.01266 0.19823 0.0
H2739 H 0.37434 0.00815 0.22424 0.0
H2740 H 0.3872 0.0375 0.20482 0.0
H2741 H 0.28961 0.99843 0.27849 0.0
H2742 H 0.30104 0.01926 0.30932 0.0
H2743 H 0.30806 0.99418 0.3054 0.0
C2744 C 0.94548 0.31892 0.24545 0.0
C2745 C 0.93565 0.30058 0.26729 0.0
C2746 C 0.97118 0.33148 0.23864 0.0
C2747 C 0.98746 0.32537 0.25378 0.0
C2748 C 0.97766 0.30671 0.27566 0.0
C2749 C 0.95187 0.29464 0.2823 0.0
C2750 C 0.98096 0.35149 0.21541 0.0
C2751 C 0.99443 0.29953 0.29205 0.0
C2752 C 0.04991 0.34369 0.21757 0.0
C2753 C 0.06638 0.36591 0.23234 0.0
C2754 C 0.02426 0.32998 0.22476 0.0
C2755 C 0.01481 0.33889 0.24697 0.0
C2756 C 0.03135 0.36125 0.26201 0.0
C2757 C 0.05696 0.3744 0.25464 0.0
C2758 C 0.00722 0.30607 0.20844 0.0
C2759 C 0.02193 0.37154 0.28556 0.0
H2760 H 0.93311 0.32373 0.23384 0.0
H2761 H 0.94439 0.28041 0.2991 0.0
H2762 H 0.99546 0.36975 0.22464 0.0
H2763 H 0.99011 0.34651 0.19796 0.0
H2764 H 0.96582 0.35402 0.20568 0.0
H2765 H 0.98378 0.28419 0.3079 0.0
H2766 H 0.00416 0.29333 0.27669 0.0
H2767 H 0.00918 0.31613 0.30382 0.0
H2768 H 0.05709 0.33692 0.20044 0.0
H2769 H 0.06954 0.39159 0.26609 0.0
H2770 H 0.99265 0.30818 0.19661 0.0
H2771 H 0.99728 0.29021 0.22383 0.0
H2772 H 0.01769 0.30111 0.19264 0.0
H2773 H 0.00772 0.37581 0.27655 0.0
H2774 H 0.03731 0.38894 0.2955 0.0
H2775 H 0.01252 0.35725 0.3028 0.0
C2776 C 0.68238 0.62655 0.24561 0.0
C2777 C 0.70026 0.63512 0.26794 0.0
C2778 C 0.66959 0.63939 0.23843 0.0
C2779 C 0.675 0.66152 0.25374 0.0
C2780 C 0.69324 0.67046 0.27608 0.0
C2781 C 0.70555 0.65706 0.28305 0.0
C2782 C 0.65005 0.62911 0.21469 0.0
C2783 C 0.69967 0.69413 0.29267 0.0
C2784 C 0.65648 0.70563 0.21789 0.0
C2785 C 0.63405 0.69949 0.23242 0.0
C2786 C 0.67024 0.69371 0.22492 0.0
C2787 C 0.66116 0.67497 0.24671 0.0
C2788 C 0.63852 0.66867 0.26141 0.0
C2789 C 0.62534 0.68112 0.25422 0.0
C2790 C 0.69446 0.70111 0.20901 0.0
C2791 C 0.62806 0.64855 0.2845 0.0
H2792 H 0.6781 0.60955 0.2339 0.0
H2793 H 0.71944 0.66386 0.30023 0.0
H2794 H 0.63149 0.62481 0.22348 0.0
H2795 H 0.65507 0.64342 0.19745 0.0
H2796 H 0.64813 0.61173 0.2048 0.0
H2797 H 0.71482 0.69898 0.30884 0.0
H2798 H 0.7058 0.71016 0.27749 0.0
H2799 H 0.68274 0.6918 0.30411 0.0
H2800 H 0.6634 0.71992 0.20114 0.0
H2801 H 0.60796 0.67618 0.26546 0.0
H2802 H 0.69285 0.68464 0.19718 0.0
H2803 H 0.71015 0.70723 0.22468 0.0
H2804 H 0.69934 0.71657 0.19328 0.0
H2805 H 0.62443 0.63035 0.27523 0.0
H2806 H 0.61027 0.64595 0.29396 0.0
H2807 H 0.64201 0.65346 0.30216 0.0
loop_
_geom_bond_atom_site_label_1
_geom_bond_atom_site_label_2
_geom_bond_distance
_geom_bond_site_symmetry_2
_ccdc_geom_bond_type
C0 O2 1.247 . S
C0 O4 1.258 . S
C1 O8 1.247 . S
C1 O9 1.258 . S
O2 C0 1.247 . S
O2 Zn3 2.028 . S
Zn3 O2 2.028 . S
Zn3 O7 2.035 . S
Zn3 O9 2.035 . S
Zn3 O10 2.028 . S
O4 C0 1.258 . S
O4 Zn5 2.035 . S
Zn5 O4 2.035 . S
Zn5 O6 2.028 . S
Zn5 O8 2.028 . S
Zn5 O11 2.035 . S
O6 Zn5 2.028 . S
O6 C12 1.247 . S
O7 Zn3 2.035 . S
O7 C12 1.258 . S
O8 C1 1.247 . S
O8 Zn5 2.028 . S
O9 C1 1.258 . S
O9 Zn3 2.035 . S
O10 Zn3 2.028 . S
O10 C13 1.247 . S
O11 Zn5 2.035 . S
O11 C13 1.258 . S
C12 O6 1.247 . S
C12 O7 1.258 . S
C13 O10 1.247 . S
C13 O11 1.258 . S
C14 O16 1.247 . S
C14 O18 1.258 . S
C15 O22 1.247 . S
C15 O23 1.258 . S
O16 C14 1.247 . S
O16 Zn17 2.028 . S
Zn17 O16 2.028 . S
Zn17 O21 2.035 . S
Zn17 O23 2.035 . S
Zn17 O24 2.028 . S
O18 C14 1.258 . S
O18 Zn19 2.035 . S
Zn19 O18 2.035 . S
Zn19 O20 2.028 . S
Zn19 O22 2.028 . S
Zn19 O25 2.035 . S
O20 Zn19 2.028 . S
O20 C26 1.247 . S
O21 Zn17 2.035 . S
O21 C26 1.258 . S
O22 C15 1.247 . S
O22 Zn19 2.028 . S
O23 C15 1.258 . S
O23 Zn17 2.035 . S
O24 Zn17 2.028 . S
O24 C27 1.247 . S
O25 Zn19 2.035 . S
O25 C27 1.258 . S
C26 O20 1.247 . S
C26 O21 1.258 . S
C27 O24 1.247 . S
C27 O25 1.258 . S
C28 O30 1.247 . S
C28 O32 1.258 . S
C29 O36 1.247 . S
C29 O37 1.258 . S
O30 C28 1.247 . S
O30 Zn31 2.028 . S
Zn31 O30 2.028 . S
Zn31 O35 2.035 . S
Zn31 O37 2.035 . S
Zn31 O38 2.028 . S
O32 C28 1.258 . S
O32 Zn33 2.035 . S
Zn33 O32 2.035 . S
Zn33 O34 2.028 . S
Zn33 O36 2.028 . S
Zn33 O39 2.035 . S
O34 Zn33 2.028 . S
O34 C40 1.247 . S
O35 Zn31 2.035 . S
O35 C40 1.258 . S
O36 C29 1.247 . S
O36 Zn33 2.028 . S
O37 C29 1.258 . S
O37 Zn31 2.035 . S
O38 Zn31 2.028 . S
O38 C41 1.247 . S
O39 Zn33 2.035 . S
O39 C41 1.258 . S
C40 O34 1.247 . S
C40 O35 1.258 . S
C41 O38 1.247 . S
C41 O39 1.258 . S
C42 O44 1.247 . S
C42 O46 1.258 . S
C43 O50 1.247 . S
C43 O51 1.258 . S
O44 C42 1.247 . S
O44 Zn45 2.028 . S
Zn45 O44 2.028 . S
Zn45 O49 2.035 . S
Zn45 O51 2.035 . S
Zn45 O52 2.028 . S
O46 C42 1.258 . S
O46 Zn47 2.035 . S
Zn47 O46 2.035 . S
Zn47 O48 2.028 . S
Zn47 O50 2.028 . S
Zn47 O53 2.035 . S
O48 Zn47 2.028 . S
O48 C54 1.247 . S
O49 Zn45 2.035 . S
O49 C54 1.258 . S
O50 C43 1.247 . S
O50 Zn47 2.028 . S
O51 C43 1.258 . S
O51 Zn45 2.035 . S
O52 Zn45 2.028 . S
O52 C55 1.247 . S
O53 Zn47 2.035 . S
O53 C55 1.258 . S
C54 O48 1.247 . S
C54 O49 1.258 . S
C55 O52 1.247 . S
C55 O53 1.258 . S
C56 O58 1.247 . S
C56 O60 1.258 . S
C57 O64 1.247 . S
C57 O65 1.258 . S
O58 C56 1.247 . S
O58 Zn59 2.028 . S
Zn59 O58 2.028 . S
Zn59 O63 2.035 . S
Zn59 O65 2.035 . S
Zn59 O66 2.028 . S
O60 C56 1.258 . S
O60 Zn61 2.035 . S
Zn61 O60 2.035 . S
Zn61 O62 2.028 . S
Zn61 O64 2.028 . S
Zn61 O67 2.035 . S
O62 Zn61 2.028 . S
O62 C68 1.247 . S
O63 Zn59 2.035 . S
O63 C68 1.258 . S
O64 C57 1.247 . S
O64 Zn61 2.028 . S
O65 C57 1.258 . S
O65 Zn59 2.035 . S
O66 Zn59 2.028 . S
O66 C69 1.247 . S
O67 Zn61 2.035 . S
O67 C69 1.258 . S
C68 O62 1.247 . S
C68 O63 1.258 . S
C69 O66 1.247 . S
C69 O67 1.258 . S
C70 O72 1.247 . S
C70 O74 1.258 . S
C71 O78 1.247 . S
C71 O79 1.258 . S
O72 C70 1.247 . S
O72 Zn73 2.028 . S
Zn73 O72 2.028 . S
Zn73 O77 2.035 . S
Zn73 O79 2.035 . S
Zn73 O80 2.028 . S
O74 C70 1.258 . S
O74 Zn75 2.035 . S
Zn75 O74 2.035 . S
Zn75 O76 2.028 . S
Zn75 O78 2.028 . S
Zn75 O81 2.035 . S
O76 Zn75 2.028 . S
O76 C82 1.247 . S
O77 Zn73 2.035 . S
O77 C82 1.258 . S
O78 C71 1.247 . S
O78 Zn75 2.028 . S
O79 C71 1.258 . S
O79 Zn73 2.035 . S
O80 Zn73 2.028 . S
O80 C83 1.247 . S
O81 Zn75 2.035 . S
O81 C83 1.258 . S
C82 O76 1.247 . S
C82 O77 1.258 . S
C83 O80 1.247 . S
C83 O81 1.258 . S
C84 O86 1.247 . S
C84 O88 1.258 . S
C85 O92 1.247 . S
C85 O93 1.258 . S
O86 C84 1.247 . S
O86 Zn87 2.028 . S
Zn87 O86 2.028 . S
Zn87 O91 2.035 . S
Zn87 O93 2.035 . S
Zn87 O94 2.028 . S
O88 C84 1.258 . S
O88 Zn89 2.035 . S
Zn89 O88 2.035 . S
Zn89 O90 2.028 . S
Zn89 O92 2.028 . S
Zn89 O95 2.035 . S
O90 Zn89 2.028 . S
O90 C96 1.247 . S
O91 Zn87 2.035 . S
O91 C96 1.258 . S
O92 C85 1.247 . S
O92 Zn89 2.028 . S
O93 C85 1.258 . S
O93 Zn87 2.035 . S
O94 Zn87 2.028 . S
O94 C97 1.247 . S
O95 Zn89 2.035 . S
O95 C97 1.258 . S
C96 O90 1.247 . S
C96 O91 1.258 . S
C97 O94 1.247 . S
C97 O95 1.258 . S
C98 O100 1.247 . S
C98 O102 1.258 . S
C99 O106 1.247 . S
C99 O107 1.258 . S
O100 C98 1.247 . S
O100 Zn101 2.028 . S
Zn101 O100 2.028 . S
Zn101 O105 2.035 . S
Zn101 O107 2.035 . S
Zn101 O108 2.028 . S
O102 C98 1.258 . S
O102 Zn103 2.035 . S
Zn103 O102 2.035 . S
Zn103 O104 2.028 . S
Zn103 O106 2.028 . S
Zn103 O109 2.035 . S
O104 Zn103 2.028 . S
O104 C110 1.247 . S
O105 Zn101 2.035 . S
O105 C110 1.258 . S
O106 C99 1.247 . S
O106 Zn103 2.028 . S
O107 C99 1.258 . S
O107 Zn101 2.035 . S
O108 Zn101 2.028 . S
O108 C111 1.247 . S
O109 Zn103 2.035 . S
O109 C111 1.258 . S
C110 O104 1.247 . S
C110 O105 1.258 . S
C111 O108 1.247 . S
C111 O109 1.258 . S
C112 O114 1.247 . S
C112 O116 1.258 . S
C113 O120 1.247 . S
C113 O121 1.258 . S
O114 C112 1.247 . S
O114 Zn115 2.028 . S
Zn115 O114 2.028 . S
Zn115 O119 2.035 . S
Zn115 O121 2.035 . S
Zn115 O122 2.028 . S
O116 C112 1.258 . S
O116 Zn117 2.035 . S
Zn117 O116 2.035 . S
Zn117 O118 2.028 . S
Zn117 O120 2.028 . S
Zn117 O123 2.035 . S
O118 Zn117 2.028 . S
O118 C124 1.247 . S
O119 Zn115 2.035 . S
O119 C124 1.258 . S
O120 C113 1.247 . S
O120 Zn117 2.028 . S
O121 C113 1.258 . S
O121 Zn115 2.035 . S
O122 Zn115 2.028 . S
O122 C125 1.247 . S
O123 Zn117 2.035 . S
O123 C125 1.258 . S
C124 O118 1.247 . S
C124 O119 1.258 . S
C125 O122 1.247 . S
C125 O123 1.258 . S
C126 O128 1.247 . S
C126 O130 1.258 . S
C127 O134 1.247 . S
C127 O135 1.258 . S
O128 C126 1.247 . S
O128 Zn129 2.028 . S
Zn129 O128 2.028 . S
Zn129 O133 2.035 . S
Zn129 O135 2.035 . S
Zn129 O136 2.028 . S
O130 C126 1.258 . S
O130 Zn131 2.035 . S
Zn131 O130 2.035 . S
Zn131 O132 2.028 . S
Zn131 O134 2.028 . S
Zn131 O137 2.035 . S
O132 Zn131 2.028 . S
O132 C138 1.247 . S
O133 Zn129 2.035 . S
O133 C138 1.258 . S
O134 C127 1.247 . S
O134 Zn131 2.028 . S
O135 C127 1.258 . S
O135 Zn129 2.035 . S
O136 Zn129 2.028 . S
O136 C139 1.247 . S
O137 Zn131 2.035 . S
O137 C139 1.258 . S
C138 O132 1.247 . S
C138 O133 1.258 . S
C139 O136 1.247 . S
C139 O137 1.258 . S
C140 O142 1.247 . S
C140 O144 1.258 . S
C141 O148 1.247 . S
C141 O149 1.258 . S
O142 C140 1.247 . S
O142 Zn143 2.028 . S
Zn143 O142 2.028 . S
Zn143 O147 2.035 . S
Zn143 O149 2.035 . S
Zn143 O150 2.028 . S
O144 C140 1.258 . S
O144 Zn145 2.035 . S
Zn145 O144 2.035 . S
Zn145 O146 2.028 . S
Zn145 O148 2.028 . S
Zn145 O151 2.035 . S
O146 Zn145 2.028 . S
O146 C152 1.247 . S
O147 Zn143 2.035 . S
O147 C152 1.258 . S
O148 C141 1.247 . S
O148 Zn145 2.028 . S
O149 C141 1.258 . S
O149 Zn143 2.035 . S
O150 Zn143 2.028 . S
O150 C153 1.247 . S
O151 Zn145 2.035 . S
O151 C153 1.258 . S
C152 O146 1.247 . S
C152 O147 1.258 . S
C153 O150 1.247 . S
C153 O151 1.258 . S
C154 O156 1.247 . S
C154 O158 1.258 . S
C155 O162 1.247 . S
C155 O163 1.258 . S
O156 C154 1.247 . S
O156 Zn157 2.028 . S
Zn157 O156 2.028 . S
Zn157 O161 2.035 . S
Zn157 O163 2.035 . S
Zn157 O164 2.028 . S
O158 C154 1.258 . S
O158 Zn159 2.035 . S
Zn159 O158 2.035 . S
Zn159 O160 2.028 . S
Zn159 O162 2.028 . S
Zn159 O165 2.035 . S
O160 Zn159 2.028 . S
O160 C166 1.247 . S
O161 Zn157 2.035 . S
O161 C166 1.258 . S
O162 C155 1.247 . S
O162 Zn159 2.028 . S
O163 C155 1.258 . S
O163 Zn157 2.035 . S
O164 Zn157 2.028 . S
O164 C167 1.247 . S
O165 Zn159 2.035 . S
O165 C167 1.258 . S
C166 O160 1.247 . S
C166 O161 1.258 . S
C167 O164 1.247 . S
C167 O165 1.258 . S
C168 O170 1.247 . S
C168 O172 1.258 . S
C169 O176 1.247 . S
C169 O177 1.258 . S
O170 C168 1.247 . S
O170 Zn171 2.028 . S
Zn171 O170 2.028 . S
Zn171 O175 2.035 . S
Zn171 O177 2.035 . S
Zn171 O178 2.028 . S
O172 C168 1.258 . S
O172 Zn173 2.035 . S
Zn173 O172 2.035 . S
Zn173 O174 2.028 . S
Zn173 O176 2.028 . S
Zn173 O179 2.035 . S
O174 Zn173 2.028 . S
O174 C180 1.247 . S
O175 Zn171 2.035 . S
O175 C180 1.258 . S
O176 C169 1.247 . S
O176 Zn173 2.028 . S
O177 C169 1.258 . S
O177 Zn171 2.035 . S
O178 Zn171 2.028 . S
O178 C181 1.247 . S
O179 Zn173 2.035 . S
O179 C181 1.258 . S
C180 O174 1.247 . S
C180 O175 1.258 . S
C181 O178 1.247 . S
C181 O179 1.258 . S
C182 O184 1.247 . S
C182 O186 1.258 . S
C183 O190 1.247 . S
C183 O191 1.258 . S
O184 C182 1.247 . S
O184 Zn185 2.028 . S
Zn185 O184 2.028 . S
Zn185 O189 2.035 . S
Zn185 O191 2.035 . S
Zn185 O192 2.028 . S
O186 C182 1.258 . S
O186 Zn187 2.035 . S
Zn187 O186 2.035 . S
Zn187 O188 2.028 . S
Zn187 O190 2.028 . S
Zn187 O193 2.035 . S
O188 Zn187 2.028 . S
O188 C194 1.247 . S
O189 Zn185 2.035 . S
O189 C194 1.258 . S
O190 C183 1.247 . S
O190 Zn187 2.028 . S
O191 C183 1.258 . S
O191 Zn185 2.035 . S
O192 Zn185 2.028 . S
O192 C195 1.247 . S
O193 Zn187 2.035 . S
O193 C195 1.258 . S
C194 O188 1.247 . S
C194 O189 1.258 . S
C195 O192 1.247 . S
C195 O193 1.258 . S
C196 O198 1.247 . S
C196 O200 1.258 . S
C197 O204 1.247 . S
C197 O205 1.258 . S
O198 C196 1.247 . S
O198 Zn199 2.028 . S
Zn199 O198 2.028 . S
Zn199 O203 2.035 . S
Zn199 O205 2.035 . S
Zn199 O206 2.028 . S
O200 C196 1.258 . S
O200 Zn201 2.035 . S
Zn201 O200 2.035 . S
Zn201 O202 2.028 . S
Zn201 O204 2.028 . S
Zn201 O207 2.035 . S
O202 Zn201 2.028 . S
O202 C208 1.247 . S
O203 Zn199 2.035 . S
O203 C208 1.258 . S
O204 C197 1.247 . S
O204 Zn201 2.028 . S
O205 C197 1.258 . S
O205 Zn199 2.035 . S
O206 Zn199 2.028 . S
O206 C209 1.247 . S
O207 Zn201 2.035 . S
O207 C209 1.258 . S
C208 O202 1.247 . S
C208 O203 1.258 . S
C209 O206 1.247 . S
C209 O207 1.258 . S
C210 O212 1.247 . S
C210 O214 1.258 . S
C211 O218 1.247 . S
C211 O219 1.258 . S
O212 C210 1.247 . S
O212 Zn213 2.028 . S
Zn213 O212 2.028 . S
Zn213 O217 2.035 . S
Zn213 O219 2.035 . S
Zn213 O220 2.028 . S
O214 C210 1.258 . S
O214 Zn215 2.035 . S
Zn215 O214 2.035 . S
Zn215 O216 2.028 . S
Zn215 O218 2.028 . S
Zn215 O221 2.035 . S
O216 Zn215 2.028 . S
O216 C222 1.247 . S
O217 Zn213 2.035 . S
O217 C222 1.258 . S
O218 C211 1.247 . S
O218 Zn215 2.028 . S
O219 C211 1.258 . S
O219 Zn213 2.035 . S
O220 Zn213 2.028 . S
O220 C223 1.247 . S
O221 Zn215 2.035 . S
O221 C223 1.258 . S
C222 O216 1.247 . S
C222 O217 1.258 . S
C223 O220 1.247 . S
C223 O221 1.258 . S
C224 O226 1.247 . S
C224 O228 1.258 . S
C225 O232 1.247 . S
C225 O233 1.258 . S
O226 C224 1.247 . S
O226 Zn227 2.028 . S
Zn227 O226 2.028 . S
Zn227 O231 2.035 . S
Zn227 O233 2.035 . S
Zn227 O234 2.028 . S
O228 C224 1.258 . S
O228 Zn229 2.035 . S
Zn229 O228 2.035 . S
Zn229 O230 2.028 . S
Zn229 O232 2.028 . S
Zn229 O235 2.035 . S
O230 Zn229 2.028 . S
O230 C236 1.247 . S
O231 Zn227 2.035 . S
O231 C236 1.258 . S
O232 C225 1.247 . S
O232 Zn229 2.028 . S
O233 C225 1.258 . S
O233 Zn227 2.035 . S
O234 Zn227 2.028 . S
O234 C237 1.247 . S
O235 Zn229 2.035 . S
O235 C237 1.258 . S
C236 O230 1.247 . S
C236 O231 1.258 . S
C237 O234 1.247 . S
C237 O235 1.258 . S
C238 O240 1.247 . S
C238 O242 1.258 . S
C239 O246 1.247 . S
C239 O247 1.258 . S
O240 C238 1.247 . S
O240 Zn241 2.028 . S
Zn241 O240 2.028 . S
Zn241 O245 2.035 . S
Zn241 O247 2.035 . S
Zn241 O248 2.028 . S
O242 C238 1.258 . S
O242 Zn243 2.035 . S
Zn243 O242 2.035 . S
Zn243 O244 2.028 . S
Zn243 O246 2.028 . S
Zn243 O249 2.035 . S
O244 Zn243 2.028 . S
O244 C250 1.247 . S
O245 Zn241 2.035 . S
O245 C250 1.258 . S
O246 C239 1.247 . S
O246 Zn243 2.028 . S
O247 C239 1.258 . S
O247 Zn241 2.035 . S
O248 Zn241 2.028 . S
O248 C251 1.247 . S
O249 Zn243 2.035 . S
O249 C251 1.258 . S
C250 O244 1.247 . S
C250 O245 1.258 . S
C251 O248 1.247 . S
C251 O249 1.258 . S
C252 O254 1.247 . S
C252 O256 1.258 . S
C253 O260 1.247 . S
C253 O261 1.258 . S
O254 C252 1.247 . S
O254 Zn255 2.028 . S
Zn255 O254 2.028 . S
Zn255 O259 2.035 . S
Zn255 O261 2.035 . S
Zn255 O262 2.028 . S
O256 C252 1.258 . S
O256 Zn257 2.035 . S
Zn257 O256 2.035 . S
Zn257 O258 2.028 . S
Zn257 O260 2.028 . S
Zn257 O263 2.035 . S
O258 Zn257 2.028 . S
O258 C264 1.247 . S
O259 Zn255 2.035 . S
O259 C264 1.258 . S
O260 C253 1.247 . S
O260 Zn257 2.028 . S
O261 C253 1.258 . S
O261 Zn255 2.035 . S
O262 Zn255 2.028 . S
O262 C265 1.247 . S
O263 Zn257 2.035 . S
O263 C265 1.258 . S
C264 O258 1.247 . S
C264 O259 1.258 . S
C265 O262 1.247 . S
C265 O263 1.258 . S
C266 O268 1.247 . S
C266 O270 1.258 . S
C267 O274 1.247 . S
C267 O275 1.258 . S
O268 C266 1.247 . S
O268 Zn269 2.028 . S
Zn269 O268 2.028 . S
Zn269 O273 2.035 . S
Zn269 O275 2.035 . S
Zn269 O276 2.028 . S
O270 C266 1.258 . S
O270 Zn271 2.035 . S
Zn271 O270 2.035 . S
Zn271 O272 2.028 . S
Zn271 O274 2.028 . S
Zn271 O277 2.035 . S
O272 Zn271 2.028 . S
O272 C278 1.247 . S
O273 Zn269 2.035 . S
O273 C278 1.258 . S
O274 C267 1.247 . S
O274 Zn271 2.028 . S
O275 C267 1.258 . S
O275 Zn269 2.035 . S
O276 Zn269 2.028 . S
O276 C279 1.247 . S
O277 Zn271 2.035 . S
O277 C279 1.258 . S
C278 O272 1.247 . S
C278 O273 1.258 . S
C279 O276 1.247 . S
C279 O277 1.258 . S
C280 O282 1.247 . S
C280 O284 1.258 . S
C281 O288 1.247 . S
C281 O289 1.258 . S
O282 C280 1.247 . S
O282 Zn283 2.028 . S
Zn283 O282 2.028 . S
Zn283 O287 2.035 . S
Zn283 O289 2.035 . S
Zn283 O290 2.028 . S
O284 C280 1.258 . S
O284 Zn285 2.035 . S
Zn285 O284 2.035 . S
Zn285 O286 2.028 . S
Zn285 O288 2.028 . S
Zn285 O291 2.035 . S
O286 Zn285 2.028 . S
O286 C292 1.247 . S
O287 Zn283 2.035 . S
O287 C292 1.258 . S
O288 C281 1.247 . S
O288 Zn285 2.028 . S
O289 C281 1.258 . S
O289 Zn283 2.035 . S
O290 Zn283 2.028 . S
O290 C293 1.247 . S
O291 Zn285 2.035 . S
O291 C293 1.258 . S
C292 O286 1.247 . S
C292 O287 1.258 . S
C293 O290 1.247 . S
C293 O291 1.258 . S
C294 O296 1.247 . S
C294 O298 1.258 . S
C295 O302 1.247 . S
C295 O303 1.258 . S
O296 C294 1.247 . S
O296 Zn297 2.028 . S
Zn297 O296 2.028 . S
Zn297 O301 2.035 . S
Zn297 O303 2.035 . S
Zn297 O304 2.028 . S
O298 C294 1.258 . S
O298 Zn299 2.035 . S
Zn299 O298 2.035 . S
Zn299 O300 2.028 . S
Zn299 O302 2.028 . S
Zn299 O305 2.035 . S
O300 Zn299 2.028 . S
O300 C306 1.247 . S
O301 Zn297 2.035 . S
O301 C306 1.258 . S
O302 C295 1.247 . S
O302 Zn299 2.028 . S
O303 C295 1.258 . S
O303 Zn297 2.035 . S
O304 Zn297 2.028 . S
O304 C307 1.247 . S
O305 Zn299 2.035 . S
O305 C307 1.258 . S
C306 O300 1.247 . S
C306 O301 1.258 . S
C307 O304 1.247 . S
C307 O305 1.258 . S
C308 O310 1.247 . S
C308 O312 1.258 . S
C309 O316 1.247 . S
C309 O317 1.258 . S
O310 C308 1.247 . S
O310 Zn311 2.028 . S
Zn311 O310 2.028 . S
Zn311 O315 2.035 . S
Zn311 O317 2.035 . S
Zn311 O318 2.028 . S
O312 C308 1.258 . S
O312 Zn313 2.035 . S
Zn313 O312 2.035 . S
Zn313 O314 2.028 . S
Zn313 O316 2.028 . S
Zn313 O319 2.035 . S
O314 Zn313 2.028 . S
O314 C320 1.247 . S
O315 Zn311 2.035 . S
O315 C320 1.258 . S
O316 C309 1.247 . S
O316 Zn313 2.028 . S
O317 C309 1.258 . S
O317 Zn311 2.035 . S
O318 Zn311 2.028 . S
O318 C321 1.247 . S
O319 Zn313 2.035 . S
O319 C321 1.258 . S
C320 O314 1.247 . S
C320 O315 1.258 . S
C321 O318 1.247 . S
C321 O319 1.258 . S
C322 O324 1.247 . S
C322 O326 1.258 . S
C323 O330 1.247 . S
C323 O331 1.258 . S
O324 C322 1.247 . S
O324 Zn325 2.028 . S
Zn325 O324 2.028 . S
Zn325 O329 2.035 . S
Zn325 O331 2.035 . S
Zn325 O332 2.028 . S
O326 C322 1.258 . S
O326 Zn327 2.035 . S
Zn327 O326 2.035 . S
Zn327 O328 2.028 . S
Zn327 O330 2.028 . S
Zn327 O333 2.035 . S
O328 Zn327 2.028 . S
O328 C334 1.247 . S
O329 Zn325 2.035 . S
O329 C334 1.258 . S
O330 C323 1.247 . S
O330 Zn327 2.028 . S
O331 C323 1.258 . S
O331 Zn325 2.035 . S
O332 Zn325 2.028 . S
O332 C335 1.247 . S
O333 Zn327 2.035 . S
O333 C335 1.258 . S
C334 O328 1.247 . S
C334 O329 1.258 . S
C335 O332 1.247 . S
C335 O333 1.258 . S
C336 O338 1.247 . S
C336 O340 1.258 . S
C337 O344 1.247 . S
C337 O345 1.258 . S
O338 C336 1.247 . S
O338 Zn339 2.028 . S
Zn339 O338 2.028 . S
Zn339 O343 2.035 . S
Zn339 O345 2.035 . S
Zn339 O346 2.028 . S
O340 C336 1.258 . S
O340 Zn341 2.035 . S
Zn341 O340 2.035 . S
Zn341 O342 2.028 . S
Zn341 O344 2.028 . S
Zn341 O347 2.035 . S
O342 Zn341 2.028 . S
O342 C348 1.247 . S
O343 Zn339 2.035 . S
O343 C348 1.258 . S
O344 C337 1.247 . S
O344 Zn341 2.028 . S
O345 C337 1.258 . S
O345 Zn339 2.035 . S
O346 Zn339 2.028 . S
O346 C349 1.247 . S
O347 Zn341 2.035 . S
O347 C349 1.258 . S
C348 O342 1.247 . S
C348 O343 1.258 . S
C349 O346 1.247 . S
C349 O347 1.258 . S
C350 O352 1.247 . S
C350 O354 1.258 . S
C351 O358 1.247 . S
C351 O359 1.258 . S
O352 C350 1.247 . S
O352 Zn353 2.028 . S
Zn353 O352 2.028 . S
Zn353 O357 2.035 . S
Zn353 O359 2.035 . S
Zn353 O360 2.028 . S
O354 C350 1.258 . S
O354 Zn355 2.035 . S
Zn355 O354 2.035 . S
Zn355 O356 2.028 . S
Zn355 O358 2.028 . S
Zn355 O361 2.035 . S
O356 Zn355 2.028 . S
O356 C362 1.247 . S
O357 Zn353 2.035 . S
O357 C362 1.258 . S
O358 C351 1.247 . S
O358 Zn355 2.028 . S
O359 C351 1.258 . S
O359 Zn353 2.035 . S
O360 Zn353 2.028 . S
O360 C363 1.247 . S
O361 Zn355 2.035 . S
O361 C363 1.258 . S
C362 O356 1.247 . S
C362 O357 1.258 . S
C363 O360 1.247 . S
C363 O361 1.258 . S
C364 O366 1.247 . S
C364 O368 1.258 . S
C365 O372 1.247 . S
C365 O373 1.258 . S
O366 C364 1.247 . S
O366 Zn367 2.028 . S
Zn367 O366 2.028 . S
Zn367 O371 2.035 . S
Zn367 O373 2.035 . S
Zn367 O374 2.028 . S
O368 C364 1.258 . S
O368 Zn369 2.035 . S
Zn369 O368 2.035 . S
Zn369 O370 2.028 . S
Zn369 O372 2.028 . S
Zn369 O375 2.035 . S
O370 Zn369 2.028 . S
O370 C376 1.247 . S
O371 Zn367 2.035 . S
O371 C376 1.258 . S
O372 C365 1.247 . S
O372 Zn369 2.028 . S
O373 C365 1.258 . S
O373 Zn367 2.035 . S
O374 Zn367 2.028 . S
O374 C377 1.247 . S
O375 Zn369 2.035 . S
O375 C377 1.258 . S
C376 O370 1.247 . S
C376 O371 1.258 . S
C377 O374 1.247 . S
C377 O375 1.258 . S
C378 O380 1.247 . S
C378 O382 1.258 . S
C379 O386 1.247 . S
C379 O387 1.258 . S
O380 C378 1.247 . S
O380 Zn381 2.028 . S
Zn381 O380 2.028 . S
Zn381 O385 2.035 . S
Zn381 O387 2.035 . S
Zn381 O388 2.028 . S
O382 C378 1.258 . S
O382 Zn383 2.035 . S
Zn383 O382 2.035 . S
Zn383 O384 2.028 . S
Zn383 O386 2.028 . S
Zn383 O389 2.035 . S
O384 Zn383 2.028 . S
O384 C390 1.247 . S
O385 Zn381 2.035 . S
O385 C390 1.258 . S
O386 C379 1.247 . S
O386 Zn383 2.028 . S
O387 C379 1.258 . S
O387 Zn381 2.035 . S
O388 Zn381 2.028 . S
O388 C391 1.247 . S
O389 Zn383 2.035 . S
O389 C391 1.258 . S
C390 O384 1.247 . S
C390 O385 1.258 . S
C391 O388 1.247 . S
C391 O389 1.258 . S
C392 O394 1.247 . S
C392 O396 1.258 . S
C393 O400 1.247 . S
C393 O401 1.258 . S
O394 C392 1.247 . S
O394 Zn395 2.028 . S
Zn395 O394 2.028 . S
Zn395 O399 2.035 . S
Zn395 O401 2.035 . S
Zn395 O402 2.028 . S
O396 C392 1.258 . S
O396 Zn397 2.035 . S
Zn397 O396 2.035 . S
Zn397 O398 2.028 . S
Zn397 O400 2.028 . S
Zn397 O403 2.035 . S
O398 Zn397 2.028 . S
O398 C404 1.247 . S
O399 Zn395 2.035 . S
O399 C404 1.258 . S
O400 C393 1.247 . S
O400 Zn397 2.028 . S
O401 C393 1.258 . S
O401 Zn395 2.035 . S
O402 Zn395 2.028 . S
O402 C405 1.247 . S
O403 Zn397 2.035 . S
O403 C405 1.258 . S
C404 O398 1.247 . S
C404 O399 1.258 . S
C405 O402 1.247 . S
C405 O403 1.258 . S
C406 O408 1.247 . S
C406 O410 1.258 . S
C407 O414 1.247 . S
C407 O415 1.258 . S
O408 C406 1.247 . S
O408 Zn409 2.028 . S
Zn409 O408 2.028 . S
Zn409 O413 2.035 . S
Zn409 O415 2.035 . S
Zn409 O416 2.028 . S
O410 C406 1.258 . S
O410 Zn411 2.035 . S
Zn411 O410 2.035 . S
Zn411 O412 2.028 . S
Zn411 O414 2.028 . S
Zn411 O417 2.035 . S
O412 Zn411 2.028 . S
O412 C418 1.247 . S
O413 Zn409 2.035 . S
O413 C418 1.258 . S
O414 C407 1.247 . S
O414 Zn411 2.028 . S
O415 C407 1.258 . S
O415 Zn409 2.035 . S
O416 Zn409 2.028 . S
O416 C419 1.247 . S
O417 Zn411 2.035 . S
O417 C419 1.258 . S
C418 O412 1.247 . S
C418 O413 1.258 . S
C419 O416 1.247 . S
C419 O417 1.258 . S
C420 O422 1.247 . S
C420 O424 1.258 . S
C421 O428 1.247 . S
C421 O429 1.258 . S
O422 C420 1.247 . S
O422 Zn423 2.028 . S
Zn423 O422 2.028 . S
Zn423 O427 2.035 . S
Zn423 O429 2.035 . S
Zn423 O430 2.028 . S
O424 C420 1.258 . S
O424 Zn425 2.035 . S
Zn425 O424 2.035 . S
Zn425 O426 2.028 . S
Zn425 O428 2.028 . S
Zn425 O431 2.035 . S
O426 Zn425 2.028 . S
O426 C432 1.247 . S
O427 Zn423 2.035 . S
O427 C432 1.258 . S
O428 C421 1.247 . S
O428 Zn425 2.028 . S
O429 C421 1.258 . S
O429 Zn423 2.035 . S
O430 Zn423 2.028 . S
O430 C433 1.247 . S
O431 Zn425 2.035 . S
O431 C433 1.258 . S
C432 O426 1.247 . S
C432 O427 1.258 . S
C433 O430 1.247 . S
C433 O431 1.258 . S
C434 O436 1.247 . S
C434 O438 1.258 . S
C435 O442 1.247 . S
C435 O443 1.258 . S
O436 C434 1.247 . S
O436 Zn437 2.028 . S
Zn437 O436 2.028 . S
Zn437 O441 2.035 . S
Zn437 O443 2.035 . S
Zn437 O444 2.028 . S
O438 C434 1.258 . S
O438 Zn439 2.035 . S
Zn439 O438 2.035 . S
Zn439 O440 2.028 . S
Zn439 O442 2.028 . S
Zn439 O445 2.035 . S
O440 Zn439 2.028 . S
O440 C446 1.247 . S
O441 Zn437 2.035 . S
O441 C446 1.258 . S
O442 C435 1.247 . S
O442 Zn439 2.028 . S
O443 C435 1.258 . S
O443 Zn437 2.035 . S
O444 Zn437 2.028 . S
O444 C447 1.247 . S
O445 Zn439 2.035 . S
O445 C447 1.258 . S
C446 O440 1.247 . S
C446 O441 1.258 . S
C447 O444 1.247 . S
C447 O445 1.258 . S
C448 O450 1.247 . S
C448 O452 1.258 . S
C449 O456 1.247 . S
C449 O457 1.258 . S
O450 C448 1.247 . S
O450 Zn451 2.028 . S
Zn451 O450 2.028 . S
Zn451 O455 2.035 . S
Zn451 O457 2.035 . S
Zn451 O458 2.028 . S
O452 C448 1.258 . S
O452 Zn453 2.035 . S
Zn453 O452 2.035 . S
Zn453 O454 2.028 . S
Zn453 O456 2.028 . S
Zn453 O459 2.035 . S
O454 Zn453 2.028 . S
O454 C460 1.247 . S
O455 Zn451 2.035 . S
O455 C460 1.258 . S
O456 C449 1.247 . S
O456 Zn453 2.028 . S
O457 C449 1.258 . S
O457 Zn451 2.035 . S
O458 Zn451 2.028 . S
O458 C461 1.247 . S
O459 Zn453 2.035 . S
O459 C461 1.258 . S
C460 O454 1.247 . S
C460 O455 1.258 . S
C461 O458 1.247 . S
C461 O459 1.258 . S
C462 O464 1.247 . S
C462 O466 1.258 . S
C463 O470 1.247 . S
C463 O471 1.258 . S
O464 C462 1.247 . S
O464 Zn465 2.028 . S
Zn465 O464 2.028 . S
Zn465 O469 2.035 . S
Zn465 O471 2.035 . S
Zn465 O472 2.028 . S
O466 C462 1.258 . S
O466 Zn467 2.035 . S
Zn467 O466 2.035 . S
Zn467 O468 2.028 . S
Zn467 O470 2.028 . S
Zn467 O473 2.035 . S
O468 Zn467 2.028 . S
O468 C474 1.247 . S
O469 Zn465 2.035 . S
O469 C474 1.258 . S
O470 C463 1.247 . S
O470 Zn467 2.028 . S
O471 C463 1.258 . S
O471 Zn465 2.035 . S
O472 Zn465 2.028 . S
O472 C475 1.247 . S
O473 Zn467 2.035 . S
O473 C475 1.258 . S
C474 O468 1.247 . S
C474 O469 1.258 . S
C475 O472 1.247 . S
C475 O473 1.258 . S
C476 O478 1.247 . S
C476 O480 1.258 . S
C477 O484 1.247 . S
C477 O485 1.258 . S
O478 C476 1.247 . S
O478 Zn479 2.028 . S
Zn479 O478 2.028 . S
Zn479 O483 2.035 . S
Zn479 O485 2.035 . S
Zn479 O486 2.028 . S
O480 C476 1.258 . S
O480 Zn481 2.035 . S
Zn481 O480 2.035 . S
Zn481 O482 2.028 . S
Zn481 O484 2.028 . S
Zn481 O487 2.035 . S
O482 Zn481 2.028 . S
O482 C488 1.247 . S
O483 Zn479 2.035 . S
O483 C488 1.258 . S
O484 C477 1.247 . S
O484 Zn481 2.028 . S
O485 C477 1.258 . S
O485 Zn479 2.035 . S
O486 Zn479 2.028 . S
O486 C489 1.247 . S
O487 Zn481 2.035 . S
O487 C489 1.258 . S
C488 O482 1.247 . S
C488 O483 1.258 . S
C489 O486 1.247 . S
C489 O487 1.258 . S
C490 O492 1.247 . S
C490 O494 1.258 . S
C491 O498 1.247 . S
C491 O499 1.258 . S
O492 C490 1.247 . S
O492 Zn493 2.028 . S
Zn493 O492 2.028 . S
Zn493 O497 2.035 . S
Zn493 O499 2.035 . S
Zn493 O500 2.028 . S
O494 C490 1.258 . S
O494 Zn495 2.035 . S
Zn495 O494 2.035 . S
Zn495 O496 2.028 . S
Zn495 O498 2.028 . S
Zn495 O501 2.035 . S
O496 Zn495 2.028 . S
O496 C502 1.247 . S
O497 Zn493 2.035 . S
O497 C502 1.258 . S
O498 C491 1.247 . S
O498 Zn495 2.028 . S
O499 C491 1.258 . S
O499 Zn493 2.035 . S
O500 Zn493 2.028 . S
O500 C503 1.247 . S
O501 Zn495 2.035 . S
O501 C503 1.258 . S
C502 O496 1.247 . S
C502 O497 1.258 . S
C503 O500 1.247 . S
C503 O501 1.258 . S
C504 C505 1.391 . S
C504 C506 1.394 . S
C504 H520 0.931 . S
C505 C504 1.391 . S
C505 C509 1.376 . S
C506 C504 1.394 . S
C506 C507 1.369 . S
C506 C510 1.531 . S
C507 C506 1.369 . S
C507 C508 1.410 . S
C507 C515 1.503 . S
C508 C507 1.410 . S
C508 C509 1.392 . S
C508 C511 1.511 . S
C509 C505 1.376 . S
C509 C508 1.392 . S
C509 H521 0.929 . S
C510 C506 1.531 . S
C510 H522 0.960 . S
C510 H523 0.962 . S
C510 H524 0.960 . S
C511 C508 1.511 . S
C511 H525 0.961 . S
C511 H526 0.961 . S
C511 H527 0.961 . S
C512 C513 1.370 . S
C512 C514 1.363 . S
C512 H528 0.931 . S
C513 C512 1.370 . S
C513 C517 1.408 . S
C514 C512 1.363 . S
C514 C515 1.370 . S
C514 C518 1.524 . S
C515 C507 1.503 . S
C515 C514 1.370 . S
C515 C516 1.403 . S
C516 C515 1.403 . S
C516 C517 1.404 . S
C516 C519 1.539 . S
C517 C513 1.408 . S
C517 C516 1.404 . S
C517 H529 0.930 . S
C518 C514 1.524 . S
C518 H530 0.956 . S
C518 H531 0.961 . S
C518 H532 0.961 . S
C519 C516 1.539 . S
C519 H533 0.958 . S
C519 H534 0.961 . S
C519 H535 0.960 . S
H520 C504 0.931 . S
H521 C509 0.929 . S
H522 C510 0.960 . S
H523 C510 0.962 . S
H524 C510 0.960 . S
H525 C511 0.961 . S
H526 C511 0.961 . S
H527 C511 0.961 . S
H528 C512 0.931 . S
H529 C517 0.930 . S
H530 C518 0.956 . S
H531 C518 0.961 . S
H532 C518 0.961 . S
H533 C519 0.958 . S
H534 C519 0.961 . S
H535 C519 0.960 . S
C536 C537 1.391 . S
C536 C538 1.394 . S
C536 H552 0.931 . S
C537 C536 1.391 . S
C537 C541 1.376 . S
C538 C536 1.394 . S
C538 C539 1.369 . S
C538 C542 1.531 . S
C539 C538 1.369 . S
C539 C540 1.410 . S
C539 C547 1.503 . S
C540 C539 1.410 . S
C540 C541 1.392 . S
C540 C543 1.511 . S
C541 C537 1.376 . S
C541 C540 1.392 . S
C541 H553 0.929 . S
C542 C538 1.531 . S
C542 H554 0.960 . S
C542 H555 0.962 . S
C542 H556 0.960 . S
C543 C540 1.511 . S
C543 H557 0.961 . S
C543 H558 0.961 . S
C543 H559 0.961 . S
C544 C545 1.370 . S
C544 C546 1.363 . S
C544 H560 0.931 . S
C545 C544 1.370 . S
C545 C549 1.408 . S
C546 C544 1.363 . S
C546 C547 1.370 . S
C546 C550 1.524 . S
C547 C539 1.503 . S
C547 C546 1.370 . S
C547 C548 1.403 . S
C548 C547 1.403 . S
C548 C549 1.404 . S
C548 C551 1.539 . S
C549 C545 1.408 . S
C549 C548 1.404 . S
C549 H561 0.930 . S
C550 C546 1.524 . S
C550 H562 0.956 . S
C550 H563 0.961 . S
C550 H564 0.961 . S
C551 C548 1.539 . S
C551 H565 0.958 . S
C551 H566 0.961 . S
C551 H567 0.960 . S
H552 C536 0.931 . S
H553 C541 0.929 . S
H554 C542 0.960 . S
H555 C542 0.962 . S
H556 C542 0.960 . S
H557 C543 0.961 . S
H558 C543 0.961 . S
H559 C543 0.961 . S
H560 C544 0.931 . S
H561 C549 0.930 . S
H562 C550 0.956 . S
H563 C550 0.961 . S
H564 C550 0.961 . S
H565 C551 0.958 . S
H566 C551 0.961 . S
H567 C551 0.960 . S
C568 C569 1.391 . S
C568 C570 1.394 . S
C568 H584 0.931 . S
C569 C568 1.391 . S
C569 C573 1.376 . S
C570 C568 1.394 . S
C570 C571 1.369 . S
C570 C574 1.531 . S
C571 C570 1.369 . S
C571 C572 1.410 . S
C571 C579 1.503 . S
C572 C571 1.410 . S
C572 C573 1.392 . S
C572 C575 1.511 . S
C573 C569 1.376 . S
C573 C572 1.392 . S
C573 H585 0.929 . S
C574 C570 1.531 . S
C574 H586 0.960 . S
C574 H587 0.962 . S
C574 H588 0.960 . S
C575 C572 1.511 . S
C575 H589 0.961 . S
C575 H590 0.961 . S
C575 H591 0.961 . S
C576 C577 1.370 . S
C576 C578 1.363 . S
C576 H592 0.931 . S
C577 C576 1.370 . S
C577 C581 1.408 . S
C578 C576 1.363 . S
C578 C579 1.370 . S
C578 C582 1.524 . S
C579 C571 1.503 . S
C579 C578 1.370 . S
C579 C580 1.403 . S
C580 C579 1.403 . S
C580 C581 1.404 . S
C580 C583 1.539 . S
C581 C577 1.408 . S
C581 C580 1.404 . S
C581 H593 0.930 . S
C582 C578 1.524 . S
C582 H594 0.956 . S
C582 H595 0.961 . S
C582 H596 0.961 . S
C583 C580 1.539 . S
C583 H597 0.958 . S
C583 H598 0.961 . S
C583 H599 0.960 . S
H584 C568 0.931 . S
H585 C573 0.929 . S
H586 C574 0.960 . S
H587 C574 0.962 . S
H588 C574 0.960 . S
H589 C575 0.961 . S
H590 C575 0.961 . S
H591 C575 0.961 . S
H592 C576 0.931 . S
H593 C581 0.930 . S
H594 C582 0.956 . S
H595 C582 0.961 . S
H596 C582 0.961 . S
H597 C583 0.958 . S
H598 C583 0.961 . S
H599 C583 0.960 . S
C600 C601 1.391 . S
C600 C602 1.394 . S
C600 H616 0.931 . S
C601 C600 1.391 . S
C601 C605 1.376 . S
C602 C600 1.394 . S
C602 C603 1.369 . S
C602 C606 1.531 . S
C603 C602 1.369 . S
C603 C604 1.410 . S
C603 C611 1.503 . S
C604 C603 1.410 . S
C604 C605 1.392 . S
C604 C607 1.511 . S
C605 C601 1.376 . S
C605 C604 1.392 . S
C605 H617 0.929 . S
C606 C602 1.531 . S
C606 H618 0.960 . S
C606 H619 0.962 . S
C606 H620 0.960 . S
C607 C604 1.511 . S
C607 H621 0.961 . S
C607 H622 0.961 . S
C607 H623 0.961 . S
C608 C609 1.370 . S
C608 C610 1.363 . S
C608 H624 0.931 . S
C609 C608 1.370 . S
C609 C613 1.408 . S
C610 C608 1.363 . S
C610 C611 1.370 . S
C610 C614 1.524 . S
C611 C603 1.503 . S
C611 C610 1.370 . S
C611 C612 1.403 . S
C612 C611 1.403 . S
C612 C613 1.404 . S
C612 C615 1.539 . S
C613 C609 1.408 . S
C613 C612 1.404 . S
C613 H625 0.930 . S
C614 C610 1.524 . S
C614 H626 0.956 . S
C614 H627 0.961 . S
C614 H628 0.961 . S
C615 C612 1.539 . S
C615 H629 0.958 . S
C615 H630 0.961 . S
C615 H631 0.960 . S
H616 C600 0.931 . S
H617 C605 0.929 . S
H618 C606 0.960 . S
H619 C606 0.962 . S
H620 C606 0.960 . S
H621 C607 0.961 . S
H622 C607 0.961 . S
H623 C607 0.961 . S
H624 C608 0.931 . S
H625 C613 0.930 . S
H626 C614 0.956 . S
H627 C614 0.961 . S
H628 C614 0.961 . S
H629 C615 0.958 . S
H630 C615 0.961 . S
H631 C615 0.960 . S
C632 C633 1.391 . S
C632 C634 1.394 . S
C632 H648 0.931 . S
C633 C632 1.391 . S
C633 C637 1.376 . S
C634 C632 1.394 . S
C634 C635 1.369 . S
C634 C638 1.531 . S
C635 C634 1.369 . S
C635 C636 1.410 . S
C635 C643 1.503 . S
C636 C635 1.410 . S
C636 C637 1.392 . S
C636 C639 1.511 . S
C637 C633 1.376 . S
C637 C636 1.392 . S
C637 H649 0.929 . S
C638 C634 1.531 . S
C638 H650 0.960 . S
C638 H651 0.962 . S
C638 H652 0.960 . S
C639 C636 1.511 . S
C639 H653 0.961 . S
C639 H654 0.961 . S
C639 H655 0.961 . S
C640 C641 1.370 . S
C640 C642 1.363 . S
C640 H656 0.931 . S
C641 C640 1.370 . S
C641 C645 1.408 . S
C642 C640 1.363 . S
C642 C643 1.370 . S
C642 C646 1.524 . S
C643 C635 1.503 . S
C643 C642 1.370 . S
C643 C644 1.403 . S
C644 C643 1.403 . S
C644 C645 1.404 . S
C644 C647 1.539 . S
C645 C641 1.408 . S
C645 C644 1.404 . S
C645 H657 0.930 . S
C646 C642 1.524 . S
C646 H658 0.956 . S
C646 H659 0.961 . S
C646 H660 0.961 . S
C647 C644 1.539 . S
C647 H661 0.958 . S
C647 H662 0.961 . S
C647 H663 0.960 . S
H648 C632 0.931 . S
H649 C637 0.929 . S
H650 C638 0.960 . S
H651 C638 0.962 . S
H652 C638 0.960 . S
H653 C639 0.961 . S
H654 C639 0.961 . S
H655 C639 0.961 . S
H656 C640 0.931 . S
H657 C645 0.930 . S
H658 C646 0.956 . S
H659 C646 0.961 . S
H660 C646 0.961 . S
H661 C647 0.958 . S
H662 C647 0.961 . S
H663 C647 0.960 . S
C664 C665 1.391 . S
C664 C666 1.394 . S
C664 H680 0.931 . S
C665 C664 1.391 . S
C665 C669 1.376 . S
C666 C664 1.394 . S
C666 C667 1.369 . S
C666 C670 1.531 . S
C667 C666 1.369 . S
C667 C668 1.410 . S
C667 C675 1.503 . S
C668 C667 1.410 . S
C668 C669 1.392 . S
C668 C671 1.511 . S
C669 C665 1.376 . S
C669 C668 1.392 . S
C669 H681 0.929 . S
C670 C666 1.531 . S
C670 H682 0.960 . S
C670 H683 0.962 . S
C670 H684 0.960 . S
C671 C668 1.511 . S
C671 H685 0.961 . S
C671 H686 0.961 . S
C671 H687 0.961 . S
C672 C673 1.370 . S
C672 C674 1.363 . S
C672 H688 0.931 . S
C673 C672 1.370 . S
C673 C677 1.408 . S
C674 C672 1.363 . S
C674 C675 1.370 . S
C674 C678 1.524 . S
C675 C667 1.503 . S
C675 C674 1.370 . S
C675 C676 1.403 . S
C676 C675 1.403 . S
C676 C677 1.404 . S
C676 C679 1.539 . S
C677 C673 1.408 . S
C677 C676 1.404 . S
C677 H689 0.930 . S
C678 C674 1.524 . S
C678 H690 0.956 . S
C678 H691 0.961 . S
C678 H692 0.961 . S
C679 C676 1.539 . S
C679 H693 0.958 . S
C679 H694 0.961 . S
C679 H695 0.960 . S
H680 C664 0.931 . S
H681 C669 0.929 . S
H682 C670 0.960 . S
H683 C670 0.962 . S
H684 C670 0.960 . S
H685 C671 0.961 . S
H686 C671 0.961 . S
H687 C671 0.961 . S
H688 C672 0.931 . S
H689 C677 0.930 . S
H690 C678 0.956 . S
H691 C678 0.961 . S
H692 C678 0.961 . S
H693 C679 0.958 . S
H694 C679 0.961 . S
H695 C679 0.960 . S
C696 C697 1.391 . S
C696 C698 1.394 . S
C696 H712 0.931 . S
C697 C696 1.391 . S
C697 C701 1.376 . S
C698 C696 1.394 . S
C698 C699 1.369 . S
C698 C702 1.531 . S
C699 C698 1.369 . S
C699 C700 1.410 . S
C699 C707 1.503 . S
C700 C699 1.410 . S
C700 C701 1.392 . S
C700 C703 1.511 . S
C701 C697 1.376 . S
C701 C700 1.392 . S
C701 H713 0.929 . S
C702 C698 1.531 . S
C702 H714 0.960 . S
C702 H715 0.962 . S
C702 H716 0.960 . S
C703 C700 1.511 . S
C703 H717 0.961 . S
C703 H718 0.961 . S
C703 H719 0.961 . S
C704 C705 1.370 . S
C704 C706 1.363 . S
C704 H720 0.931 . S
C705 C704 1.370 . S
C705 C709 1.408 . S
C706 C704 1.363 . S
C706 C707 1.370 . S
C706 C710 1.524 . S
C707 C699 1.503 . S
C707 C706 1.370 . S
C707 C708 1.403 . S
C708 C707 1.403 . S
C708 C709 1.404 . S
C708 C711 1.539 . S
C709 C705 1.408 . S
C709 C708 1.404 . S
C709 H721 0.930 . S
C710 C706 1.524 . S
C710 H722 0.956 . S
C710 H723 0.961 . S
C710 H724 0.961 . S
C711 C708 1.539 . S
C711 H725 0.958 . S
C711 H726 0.961 . S
C711 H727 0.960 . S
H712 C696 0.931 . S
H713 C701 0.929 . S
H714 C702 0.960 . S
H715 C702 0.962 . S
H716 C702 0.960 . S
H717 C703 0.961 . S
H718 C703 0.961 . S
H719 C703 0.961 . S
H720 C704 0.931 . S
H721 C709 0.930 . S
H722 C710 0.956 . S
H723 C710 0.961 . S
H724 C710 0.961 . S
H725 C711 0.958 . S
H726 C711 0.961 . S
H727 C711 0.960 . S
C728 C729 1.391 . S
C728 C730 1.394 . S
C728 H744 0.931 . S
C729 C728 1.391 . S
C729 C733 1.376 . S
C730 C728 1.394 . S
C730 C731 1.369 . S
C730 C734 1.531 . S
C731 C730 1.369 . S
C731 C732 1.410 . S
C731 C739 1.503 . S
C732 C731 1.410 . S
C732 C733 1.392 . S
C732 C735 1.511 . S
C733 C729 1.376 . S
C733 C732 1.392 . S
C733 H745 0.929 . S
C734 C730 1.531 . S
C734 H746 0.960 . S
C734 H747 0.962 . S
C734 H748 0.960 . S
C735 C732 1.511 . S
C735 H749 0.961 . S
C735 H750 0.961 . S
C735 H751 0.961 . S
C736 C737 1.370 . S
C736 C738 1.363 . S
C736 H752 0.931 . S
C737 C736 1.370 . S
C737 C741 1.408 . S
C738 C736 1.363 . S
C738 C739 1.370 . S
C738 C742 1.524 . S
C739 C731 1.503 . S
C739 C738 1.370 . S
C739 C740 1.403 . S
C740 C739 1.403 . S
C740 C741 1.404 . S
C740 C743 1.539 . S
C741 C737 1.408 . S
C741 C740 1.404 . S
C741 H753 0.930 . S
C742 C738 1.524 . S
C742 H754 0.956 . S
C742 H755 0.961 . S
C742 H756 0.961 . S
C743 C740 1.539 . S
C743 H757 0.958 . S
C743 H758 0.961 . S
C743 H759 0.960 . S
H744 C728 0.931 . S
H745 C733 0.929 . S
H746 C734 0.960 . S
H747 C734 0.962 . S
H748 C734 0.960 . S
H749 C735 0.961 . S
H750 C735 0.961 . S
H751 C735 0.961 . S
H752 C736 0.931 . S
H753 C741 0.930 . S
H754 C742 0.956 . S
H755 C742 0.961 . S
H756 C742 0.961 . S
H757 C743 0.958 . S
H758 C743 0.961 . S
H759 C743 0.960 . S
C760 C761 1.391 . S
C760 C762 1.394 . S
C760 H776 0.931 . S
C761 C760 1.391 . S
C761 C765 1.376 . S
C762 C760 1.394 . S
C762 C763 1.369 . S
C762 C766 1.531 . S
C763 C762 1.369 . S
C763 C764 1.410 . S
C763 C771 1.503 . S
C764 C763 1.410 . S
C764 C765 1.392 . S
C764 C767 1.511 . S
C765 C761 1.376 . S
C765 C764 1.392 . S
C765 H777 0.929 . S
C766 C762 1.531 . S
C766 H778 0.960 . S
C766 H779 0.962 . S
C766 H780 0.960 . S
C767 C764 1.511 . S
C767 H781 0.961 . S
C767 H782 0.961 . S
C767 H783 0.961 . S
C768 C769 1.370 . S
C768 C770 1.363 . S
C768 H784 0.931 . S
C769 C768 1.370 . S
C769 C773 1.408 . S
C770 C768 1.363 . S
C770 C771 1.370 . S
C770 C774 1.524 . S
C771 C763 1.503 . S
C771 C770 1.370 . S
C771 C772 1.403 . S
C772 C771 1.403 . S
C772 C773 1.404 . S
C772 C775 1.539 . S
C773 C769 1.408 . S
C773 C772 1.404 . S
C773 H785 0.930 . S
C774 C770 1.524 . S
C774 H786 0.956 . S
C774 H787 0.961 . S
C774 H788 0.961 . S
C775 C772 1.539 . S
C775 H789 0.958 . S
C775 H790 0.961 . S
C775 H791 0.960 . S
H776 C760 0.931 . S
H777 C765 0.929 . S
H778 C766 0.960 . S
H779 C766 0.962 . S
H780 C766 0.960 . S
H781 C767 0.961 . S
H782 C767 0.961 . S
H783 C767 0.961 . S
H784 C768 0.931 . S
H785 C773 0.930 . S
H786 C774 0.956 . S
H787 C774 0.961 . S
H788 C774 0.961 . S
H789 C775 0.958 . S
H790 C775 0.961 . S
H791 C775 0.960 . S
C792 C793 1.391 . S
C792 C794 1.394 . S
C792 H808 0.931 . S
C793 C792 1.391 . S
C793 C797 1.376 . S
C794 C792 1.394 . S
C794 C795 1.369 . S
C794 C798 1.531 . S
C795 C794 1.369 . S
C795 C796 1.410 . S
C795 C803 1.503 . S
C796 C795 1.410 . S
C796 C797 1.392 . S
C796 C799 1.511 . S
C797 C793 1.376 . S
C797 C796 1.392 . S
C797 H809 0.929 . S
C798 C794 1.531 . S
C798 H810 0.960 . S
C798 H811 0.962 . S
C798 H812 0.960 . S
C799 C796 1.511 . S
C799 H813 0.961 . S
C799 H814 0.961 . S
C799 H815 0.961 . S
C800 C801 1.370 . S
C800 C802 1.363 . S
C800 H816 0.931 . S
C801 C800 1.370 . S
C801 C805 1.408 . S
C802 C800 1.363 . S
C802 C803 1.370 . S
C802 C806 1.524 . S
C803 C795 1.503 . S
C803 C802 1.370 . S
C803 C804 1.403 . S
C804 C803 1.403 . S
C804 C805 1.404 . S
C804 C807 1.539 . S
C805 C801 1.408 . S
C805 C804 1.404 . S
C805 H817 0.930 . S
C806 C802 1.524 . S
C806 H818 0.956 . S
C806 H819 0.961 . S
C806 H820 0.961 . S
C807 C804 1.539 . S
C807 H821 0.958 . S
C807 H822 0.961 . S
C807 H823 0.960 . S
H808 C792 0.931 . S
H809 C797 0.929 . S
H810 C798 0.960 . S
H811 C798 0.962 . S
H812 C798 0.960 . S
H813 C799 0.961 . S
H814 C799 0.961 . S
H815 C799 0.961 . S
H816 C800 0.931 . S
H817 C805 0.930 . S
H818 C806 0.956 . S
H819 C806 0.961 . S
H820 C806 0.961 . S
H821 C807 0.958 . S
H822 C807 0.961 . S
H823 C807 0.960 . S
C824 C825 1.391 . S
C824 C826 1.394 . S
C824 H840 0.931 . S
C825 C824 1.391 . S
C825 C829 1.376 . S
C826 C824 1.394 . S
C826 C827 1.369 . S
C826 C830 1.531 . S
C827 C826 1.369 . S
C827 C828 1.410 . S
C827 C835 1.503 . S
C828 C827 1.410 . S
C828 C829 1.392 . S
C828 C831 1.511 . S
C829 C825 1.376 . S
C829 C828 1.392 . S
C829 H841 0.929 . S
C830 C826 1.531 . S
C830 H842 0.960 . S
C830 H843 0.962 . S
C830 H844 0.960 . S
C831 C828 1.511 . S
C831 H845 0.961 . S
C831 H846 0.961 . S
C831 H847 0.961 . S
C832 C833 1.370 . S
C832 C834 1.363 . S
C832 H848 0.931 . S
C833 C832 1.370 . S
C833 C837 1.408 . S
C834 C832 1.363 . S
C834 C835 1.370 . S
C834 C838 1.524 . S
C835 C827 1.503 . S
C835 C834 1.370 . S
C835 C836 1.403 . S
C836 C835 1.403 . S
C836 C837 1.404 . S
C836 C839 1.539 . S
C837 C833 1.408 . S
C837 C836 1.404 . S
C837 H849 0.930 . S
C838 C834 1.524 . S
C838 H850 0.956 . S
C838 H851 0.961 . S
C838 H852 0.961 . S
C839 C836 1.539 . S
C839 H853 0.958 . S
C839 H854 0.961 . S
C839 H855 0.960 . S
H840 C824 0.931 . S
H841 C829 0.929 . S
H842 C830 0.960 . S
H843 C830 0.962 . S
H844 C830 0.960 . S
H845 C831 0.961 . S
H846 C831 0.961 . S
H847 C831 0.961 . S
H848 C832 0.931 . S
H849 C837 0.930 . S
H850 C838 0.956 . S
H851 C838 0.961 . S
H852 C838 0.961 . S
H853 C839 0.958 . S
H854 C839 0.961 . S
H855 C839 0.960 . S
C856 C857 1.391 . S
C856 C858 1.394 . S
C856 H872 0.931 . S
C857 C856 1.391 . S
C857 C861 1.376 . S
C858 C856 1.394 . S
C858 C859 1.369 . S
C858 C862 1.531 . S
C859 C858 1.369 . S
C859 C860 1.410 . S
C859 C867 1.503 . S
C860 C859 1.410 . S
C860 C861 1.392 . S
C860 C863 1.511 . S
C861 C857 1.376 . S
C861 C860 1.392 . S
C861 H873 0.929 . S
C862 C858 1.531 . S
C862 H874 0.960 . S
C862 H875 0.962 . S
C862 H876 0.960 . S
C863 C860 1.511 . S
C863 H877 0.961 . S
C863 H878 0.961 . S
C863 H879 0.961 . S
C864 C865 1.370 . S
C864 C866 1.363 . S
C864 H880 0.931 . S
C865 C864 1.370 . S
C865 C869 1.408 . S
C866 C864 1.363 . S
C866 C867 1.370 . S
C866 C870 1.524 . S
C867 C859 1.503 . S
C867 C866 1.370 . S
C867 C868 1.403 . S
C868 C867 1.403 . S
C868 C869 1.404 . S
C868 C871 1.539 . S
C869 C865 1.408 . S
C869 C868 1.404 . S
C869 H881 0.930 . S
C870 C866 1.524 . S
C870 H882 0.956 . S
C870 H883 0.961 . S
C870 H884 0.961 . S
C871 C868 1.539 . S
C871 H885 0.958 . S
C871 H886 0.961 . S
C871 H887 0.960 . S
H872 C856 0.931 . S
H873 C861 0.929 . S
H874 C862 0.960 . S
H875 C862 0.962 . S
H876 C862 0.960 . S
H877 C863 0.961 . S
H878 C863 0.961 . S
H879 C863 0.961 . S
H880 C864 0.931 . S
H881 C869 0.930 . S
H882 C870 0.956 . S
H883 C870 0.961 . S
H884 C870 0.961 . S
H885 C871 0.958 . S
H886 C871 0.961 . S
H887 C871 0.960 . S
C888 C889 1.391 . S
C888 C890 1.394 . S
C888 H904 0.931 . S
C889 C888 1.391 . S
C889 C893 1.376 . S
C890 C888 1.394 . S
C890 C891 1.369 . S
C890 C894 1.531 . S
C891 C890 1.369 . S
C891 C892 1.410 1_655 S
C891 C899 1.503 1_655 S
C892 C891 1.410 1_455 S
C892 C893 1.392 1_455 S
C892 C895 1.511 . S
C893 C889 1.376 . S
C893 C892 1.392 1_655 S
C893 H905 0.929 . S
C894 C890 1.531 . S
C894 H906 0.960 . S
C894 H907 0.962 . S
C894 H908 0.960 . S
C895 C892 1.511 . S
C895 H909 0.961 . S
C895 H910 0.961 . S
C895 H911 0.961 . S
C896 C897 1.370 . S
C896 C898 1.363 . S
C896 H912 0.931 . S
C897 C896 1.370 . S
C897 C901 1.408 . S
C898 C896 1.363 . S
C898 C899 1.370 . S
C898 C902 1.524 . S
C899 C891 1.503 1_455 S
C899 C898 1.370 . S
C899 C900 1.403 . S
C900 C899 1.403 . S
C900 C901 1.404 . S
C900 C903 1.539 . S
C901 C897 1.408 . S
C901 C900 1.404 . S
C901 H913 0.930 . S
C902 C898 1.524 . S
C902 H914 0.956 1_455 S
C902 H915 0.961 . S
C902 H916 0.961 . S
C903 C900 1.539 . S
C903 H917 0.958 1_455 S
C903 H918 0.961 . S
C903 H919 0.960 . S
H904 C888 0.931 . S
H905 C893 0.929 . S
H906 C894 0.960 . S
H907 C894 0.962 . S
H908 C894 0.960 . S
H909 C895 0.961 . S
H910 C895 0.961 . S
H911 C895 0.961 . S
H912 C896 0.931 . S
H913 C901 0.930 . S
H914 C902 0.956 1_655 S
H915 C902 0.961 . S
H916 C902 0.961 . S
H917 C903 0.958 1_655 S
H918 C903 0.961 . S
H919 C903 0.960 . S
C920 C921 1.391 . S
C920 C922 1.394 . S
C920 H936 0.931 . S
C921 C920 1.391 . S
C921 C925 1.376 . S
C922 C920 1.394 . S
C922 C923 1.369 . S
C922 C926 1.531 . S
C923 C922 1.369 . S
C923 C924 1.410 . S
C923 C931 1.503 . S
C924 C923 1.410 . S
C924 C925 1.392 . S
C924 C927 1.511 . S
C925 C921 1.376 . S
C925 C924 1.392 . S
C925 H937 0.929 . S
C926 C922 1.531 . S
C926 H938 0.960 . S
C926 H939 0.962 . S
C926 H940 0.960 . S
C927 C924 1.511 . S
C927 H941 0.961 . S
C927 H942 0.961 . S
C927 H943 0.961 . S
C928 C929 1.370 . S
C928 C930 1.363 . S
C928 H944 0.931 . S
C929 C928 1.370 . S
C929 C933 1.408 . S
C930 C928 1.363 . S
C930 C931 1.370 . S
C930 C934 1.524 . S
C931 C923 1.503 . S
C931 C930 1.370 . S
C931 C932 1.403 . S
C932 C931 1.403 . S
C932 C933 1.404 . S
C932 C935 1.539 . S
C933 C929 1.408 . S
C933 C932 1.404 . S
C933 H945 0.930 . S
C934 C930 1.524 . S
C934 H946 0.956 . S
C934 H947 0.961 . S
C934 H948 0.961 . S
C935 C932 1.539 . S
C935 H949 0.958 . S
C935 H950 0.961 . S
C935 H951 0.960 . S
H936 C920 0.931 . S
H937 C925 0.929 . S
H938 C926 0.960 . S
H939 C926 0.962 . S
H940 C926 0.960 . S
H941 C927 0.961 . S
H942 C927 0.961 . S
H943 C927 0.961 . S
H944 C928 0.931 . S
H945 C933 0.930 . S
H946 C934 0.956 . S
H947 C934 0.961 . S
H948 C934 0.961 . S
H949 C935 0.958 . S
H950 C935 0.961 . S
H951 C935 0.960 . S
C952 C953 1.391 . S
C952 C954 1.394 . S
C952 H968 0.931 . S
C953 C952 1.391 . S
C953 C957 1.376 . S
C954 C952 1.394 . S
C954 C955 1.369 . S
C954 C958 1.531 . S
C955 C954 1.369 . S
C955 C956 1.410 . S
C955 C963 1.503 1_545 S
C956 C955 1.410 . S
C956 C957 1.392 . S
C956 C959 1.511 . S
C957 C953 1.376 . S
C957 C956 1.392 . S
C957 H969 0.929 . S
C958 C954 1.531 . S
C958 H970 0.960 . S
C958 H971 0.962 1_545 S
C958 H972 0.960 . S
C959 C956 1.511 . S
C959 H973 0.961 . S
C959 H974 0.961 1_545 S
C959 H975 0.961 . S
C960 C961 1.370 . S
C960 C962 1.363 . S
C960 H976 0.931 . S
C961 C960 1.370 . S
C961 C965 1.408 . S
C962 C960 1.363 . S
C962 C963 1.370 . S
C962 C966 1.524 . S
C963 C955 1.503 1_565 S
C963 C962 1.370 . S
C963 C964 1.403 1_565 S
C964 C963 1.403 1_545 S
C964 C965 1.404 1_545 S
C964 C967 1.539 . S
C965 C961 1.408 . S
C965 C964 1.404 1_565 S
C965 H977 0.930 . S
C966 C962 1.524 . S
C966 H978 0.956 . S
C966 H979 0.961 . S
C966 H980 0.961 . S
C967 C964 1.539 . S
C967 H981 0.958 . S
C967 H982 0.961 . S
C967 H983 0.960 . S
H968 C952 0.931 . S
H969 C957 0.929 . S
H970 C958 0.960 . S
H971 C958 0.962 1_565 S
H972 C958 0.960 . S
H973 C959 0.961 . S
H974 C959 0.961 1_565 S
H975 C959 0.961 . S
H976 C960 0.931 . S
H977 C965 0.930 . S
H978 C966 0.956 . S
H979 C966 0.961 . S
H980 C966 0.961 . S
H981 C967 0.958 . S
H982 C967 0.961 . S
H983 C967 0.960 . S
C984 C985 1.391 . S
C984 C986 1.394 . S
C984 H1000 0.931 . S
C985 C984 1.391 . S
C985 C989 1.376 . S
C986 C984 1.394 . S
C986 C987 1.369 . S
C986 C990 1.531 1_546 S
C987 C986 1.369 . S
C987 C988 1.410 . S
C987 C995 1.503 1_546 S
C988 C987 1.410 . S
C988 C989 1.392 . S
C988 C991 1.511 . S
C989 C985 1.376 . S
C989 C988 1.392 . S
C989 H1001 0.929 . S
C990 C986 1.531 1_564 S
C990 H1002 0.960 . S
C990 H1003 0.962 . S
C990 H1004 0.947 1_554 S
C991 C988 1.511 . S
C991 H1005 0.961 . S
C991 H1006 0.961 . S
C991 H1007 0.961 . S
C992 C993 1.370 . S
C992 C994 1.363 . S
C992 H1008 0.931 . S
C993 C992 1.370 . S
C993 C997 1.408 . S
C994 C992 1.363 . S
C994 C995 1.370 . S
C994 C998 1.524 1_565 S
C995 C987 1.503 1_564 S
C995 C994 1.370 . S
C995 C996 1.403 1_554 S
C996 C995 1.403 1_556 S
C996 C997 1.404 1_556 S
C996 C999 1.539 . S
C997 C993 1.408 . S
C997 C996 1.404 1_554 S
C997 H1009 0.930 . S
C998 C994 1.524 1_545 S
C998 H1010 0.956 . S
C998 H1011 0.961 . S
C998 H1012 0.961 . S
C999 C996 1.539 . S
C999 H1013 0.958 . S
C999 H1014 0.961 . S
C999 H1015 0.960 . S
H1000 C984 0.931 . S
H1001 C989 0.929 . S
H1002 C990 0.960 . S
H1003 C990 0.962 . S
H1004 C990 0.947 1_556 S
H1005 C991 0.961 . S
H1006 C991 0.961 . S
H1007 C991 0.961 . S
H1008 C992 0.931 . S
H1009 C997 0.930 . S
H1010 C998 0.956 . S
H1011 C998 0.961 . S
H1012 C998 0.961 . S
H1013 C999 0.958 . S
H1014 C999 0.961 . S
H1015 C999 0.960 . S
C1016 C1017 1.391 . S
C1016 C1018 1.394 . S
C1016 H1032 0.931 . S
C1017 C1016 1.391 . S
C1017 C1021 1.376 . S
C1018 C1016 1.394 . S
C1018 C1019 1.369 . S
C1018 C1022 1.531 1_656 S
C1019 C1018 1.369 . S
C1019 C1020 1.410 . S
C1019 C1027 1.503 1_656 S
C1020 C1019 1.410 . S
C1020 C1021 1.392 . S
C1020 C1023 1.511 . S
C1021 C1017 1.376 . S
C1021 C1020 1.392 . S
C1021 H1033 0.929 . S
C1022 C1018 1.531 1_454 S
C1022 H1034 0.960 . S
C1022 H1035 0.962 . S
C1022 H1036 0.960 1_554 S
C1023 C1020 1.511 . S
C1023 H1037 0.961 . S
C1023 H1038 0.961 . S
C1023 H1039 0.961 . S
C1024 C1025 1.370 . S
C1024 C1026 1.363 . S
C1024 H1040 0.931 . S
C1025 C1024 1.370 . S
C1025 C1029 1.408 . S
C1026 C1024 1.363 . S
C1026 C1027 1.370 . S
C1026 C1030 1.524 1_455 S
C1027 C1019 1.503 1_454 S
C1027 C1026 1.370 . S
C1027 C1028 1.403 1_554 S
C1028 C1027 1.403 1_556 S
C1028 C1029 1.404 1_556 S
C1028 C1031 1.539 . S
C1029 C1025 1.408 . S
C1029 C1028 1.404 1_554 S
C1029 H1041 0.930 . S
C1030 C1026 1.524 1_655 S
C1030 H1042 0.956 . S
C1030 H1043 0.961 . S
C1030 H1044 0.961 . S
C1031 C1028 1.539 . S
C1031 H1045 0.958 . S
C1031 H1046 0.961 . S
C1031 H1047 0.960 . S
H1032 C1016 0.931 . S
H1033 C1021 0.929 . S
H1034 C1022 0.960 . S
H1035 C1022 0.962 . S
H1036 C1022 0.960 1_556 S
H1037 C1023 0.961 . S
H1038 C1023 0.961 . S
H1039 C1023 0.961 . S
H1040 C1024 0.931 . S
H1041 C1029 0.930 . S
H1042 C1030 0.956 . S
H1043 C1030 0.961 . S
H1044 C1030 0.961 . S
H1045 C1031 0.958 . S
H1046 C1031 0.961 . S
H1047 C1031 0.960 . S
C1048 C1049 1.391 . S
C1048 C1050 1.394 . S
C1048 H1064 0.931 . S
C1049 C1048 1.391 . S
C1049 C1053 1.376 . S
C1050 C1048 1.394 . S
C1050 C1051 1.369 . S
C1050 C1054 1.531 1_556 S
C1051 C1050 1.369 . S
C1051 C1052 1.410 . S
C1051 C1059 1.503 1_556 S
C1052 C1051 1.410 . S
C1052 C1053 1.392 . S
C1052 C1055 1.511 . S
C1053 C1049 1.376 . S
C1053 C1052 1.392 . S
C1053 H1065 0.929 . S
C1054 C1050 1.531 1_554 S
C1054 H1066 0.960 . S
C1054 H1067 0.962 . S
C1054 H1068 0.960 . S
C1055 C1052 1.511 . S
C1055 H1069 0.961 . S
C1055 H1070 0.961 . S
C1055 H1071 0.961 . S
C1056 C1057 1.370 . S
C1056 C1058 1.363 . S
C1056 H1072 0.931 . S
C1057 C1056 1.370 . S
C1057 C1061 1.408 . S
C1058 C1056 1.363 . S
C1058 C1059 1.370 . S
C1058 C1062 1.524 . S
C1059 C1051 1.503 1_554 S
C1059 C1058 1.370 . S
C1059 C1060 1.403 . S
C1060 C1059 1.403 . S
C1060 C1061 1.404 . S
C1060 C1063 1.539 1_554 S
C1061 C1057 1.408 . S
C1061 C1060 1.404 . S
C1061 H1073 0.930 . S
C1062 C1058 1.524 . S
C1062 H1074 0.956 . S
C1062 H1075 0.961 . S
C1062 H1076 0.961 . S
C1063 C1060 1.539 1_556 S
C1063 H1077 0.958 . S
C1063 H1078 0.961 . S
C1063 H1079 0.960 . S
H1064 C1048 0.931 . S
H1065 C1053 0.929 . S
H1066 C1054 0.960 . S
H1067 C1054 0.962 . S
H1068 C1054 0.960 . S
H1069 C1055 0.961 . S
H1070 C1055 0.961 . S
H1071 C1055 0.961 . S
H1072 C1056 0.931 . S
H1073 C1061 0.930 . S
H1074 C1062 0.956 . S
H1075 C1062 0.961 . S
H1076 C1062 0.961 . S
H1077 C1063 0.958 . S
H1078 C1063 0.961 . S
H1079 C1063 0.960 . S
C1080 C1081 1.391 . S
C1080 C1082 1.392 . S
C1080 H1096 0.931 . S
C1081 C1080 1.391 . S
C1081 C1085 1.376 . S
C1082 C1080 1.392 . S
C1082 C1083 1.368 . S
C1082 C1086 1.533 1_556 S
C1083 C1082 1.368 . S
C1083 C1084 1.410 . S
C1083 C1091 1.503 1_556 S
C1084 C1083 1.410 . S
C1084 C1085 1.392 . S
C1084 C1087 1.511 . S
C1085 C1081 1.376 . S
C1085 C1084 1.392 . S
C1085 H1097 0.929 . S
C1086 C1082 1.533 1_554 S
C1086 H1098 0.960 . S
C1086 H1099 0.962 . S
C1086 H1100 0.960 . S
C1087 C1084 1.511 . S
C1087 H1101 0.961 . S
C1087 H1102 0.961 . S
C1087 H1103 0.961 . S
C1088 C1089 1.370 . S
C1088 C1090 1.363 . S
C1088 H1104 0.931 . S
C1089 C1088 1.370 . S
C1089 C1093 1.408 . S
C1090 C1088 1.363 . S
C1090 C1091 1.370 . S
C1090 C1094 1.524 . S
C1091 C1083 1.503 1_554 S
C1091 C1090 1.370 . S
C1091 C1092 1.403 . S
C1092 C1091 1.403 . S
C1092 C1093 1.404 . S
C1092 C1095 1.539 1_554 S
C1093 C1089 1.408 . S
C1093 C1092 1.404 . S
C1093 H1105 0.930 . S
C1094 C1090 1.524 . S
C1094 H1106 0.956 . S
C1094 H1107 0.961 . S
C1094 H1108 0.961 . S
C1095 C1092 1.539 1_556 S
C1095 H1109 0.958 . S
C1095 H1110 0.961 . S
C1095 H1111 0.960 . S
H1096 C1080 0.931 . S
H1097 C1085 0.929 . S
H1098 C1086 0.960 . S
H1099 C1086 0.962 . S
H1100 C1086 0.960 . S
H1101 C1087 0.961 . S
H1102 C1087 0.961 . S
H1103 C1087 0.961 . S
H1104 C1088 0.931 . S
H1105 C1093 0.930 . S
H1106 C1094 0.956 . S
H1107 C1094 0.961 . S
H1108 C1094 0.961 . S
H1109 C1095 0.958 . S
H1110 C1095 0.961 . S
H1111 C1095 0.960 . S
C1112 C1113 1.391 . S
C1112 C1114 1.394 1_556 S
C1112 H1128 0.931 1_655 S
C1113 C1112 1.391 . S
C1113 C1117 1.376 . S
C1114 C1112 1.394 1_554 S
C1114 C1115 1.369 . S
C1114 C1118 1.531 . S
C1115 C1114 1.369 . S
C1115 C1116 1.410 1_554 S
C1115 C1123 1.503 . S
C1116 C1115 1.410 1_556 S
C1116 C1117 1.392 . S
C1116 C1119 1.512 1_556 S
C1117 C1113 1.376 . S
C1117 C1116 1.392 . S
C1117 H1129 0.929 . S
C1118 C1114 1.531 . S
C1118 H1130 0.960 . S
C1118 H1131 0.962 . S
C1118 H1132 0.960 . S
C1119 C1116 1.512 1_554 S
C1119 H1133 0.964 1_554 S
C1119 H1134 0.961 . S
C1119 H1135 0.957 . S
C1120 C1121 1.370 . S
C1120 C1122 1.363 . S
C1120 H1136 0.931 . S
C1121 C1120 1.370 . S
C1121 C1125 1.408 . S
C1122 C1120 1.363 . S
C1122 C1123 1.370 . S
C1122 C1126 1.524 1_554 S
C1123 C1115 1.503 . S
C1123 C1122 1.370 . S
C1123 C1124 1.403 . S
C1124 C1123 1.403 . S
C1124 C1125 1.404 . S
C1124 C1127 1.539 . S
C1125 C1121 1.408 . S
C1125 C1124 1.404 . S
C1125 H1137 0.930 . S
C1126 C1122 1.524 1_556 S
C1126 H1138 0.956 . S
C1126 H1139 0.961 . S
C1126 H1140 0.961 . S
C1127 C1124 1.539 . S
C1127 H1141 0.958 . S
C1127 H1142 0.961 . S
C1127 H1143 0.960 . S
H1128 C1112 0.931 1_455 S
H1129 C1117 0.929 . S
H1130 C1118 0.960 . S
H1131 C1118 0.962 . S
H1132 C1118 0.960 . S
H1133 C1119 0.964 1_556 S
H1134 C1119 0.961 . S
H1135 C1119 0.957 . S
H1136 C1120 0.931 . S
H1137 C1125 0.930 . S
H1138 C1126 0.956 . S
H1139 C1126 0.961 . S
H1140 C1126 0.961 . S
H1141 C1127 0.958 . S
H1142 C1127 0.961 . S
H1143 C1127 0.960 . S
C1144 C1145 1.391 . S
C1144 C1146 1.394 . S
C1144 H1160 0.931 . S
C1145 C1144 1.391 . S
C1145 C1149 1.376 . S
C1146 C1144 1.394 . S
C1146 C1147 1.369 . S
C1146 C1150 1.531 . S
C1147 C1146 1.369 . S
C1147 C1148 1.410 . S
C1147 C1155 1.503 . S
C1148 C1147 1.410 . S
C1148 C1149 1.392 . S
C1148 C1151 1.511 1_554 S
C1149 C1145 1.376 . S
C1149 C1148 1.392 . S
C1149 H1161 0.929 . S
C1150 C1146 1.531 . S
C1150 H1162 0.960 . S
C1150 H1163 0.962 . S
C1150 H1164 0.960 . S
C1151 C1148 1.511 1_556 S
C1151 H1165 0.961 . S
C1151 H1166 0.961 . S
C1151 H1167 0.961 . S
C1152 C1153 1.370 . S
C1152 C1154 1.363 . S
C1152 H1168 0.931 . S
C1153 C1152 1.370 . S
C1153 C1157 1.408 . S
C1154 C1152 1.363 . S
C1154 C1155 1.370 1_556 S
C1154 C1158 1.524 . S
C1155 C1147 1.503 . S
C1155 C1154 1.370 1_554 S
C1155 C1156 1.403 . S
C1156 C1155 1.403 . S
C1156 C1157 1.404 1_554 S
C1156 C1159 1.539 . S
C1157 C1153 1.408 . S
C1157 C1156 1.404 1_556 S
C1157 H1169 0.930 . S
C1158 C1154 1.524 . S
C1158 H1170 0.956 1_556 S
C1158 H1171 0.961 . S
C1158 H1172 0.961 . S
C1159 C1156 1.539 . S
C1159 H1173 0.958 . S
C1159 H1174 0.961 . S
C1159 H1175 0.960 . S
H1160 C1144 0.931 . S
H1161 C1149 0.929 . S
H1162 C1150 0.960 . S
H1163 C1150 0.962 . S
H1164 C1150 0.960 . S
H1165 C1151 0.961 . S
H1166 C1151 0.961 . S
H1167 C1151 0.961 . S
H1168 C1152 0.931 . S
H1169 C1157 0.930 . S
H1170 C1158 0.956 1_554 S
H1171 C1158 0.961 . S
H1172 C1158 0.961 . S
H1173 C1159 0.958 . S
H1174 C1159 0.961 . S
H1175 C1159 0.960 . S
C1176 C1177 1.391 . S
C1176 C1178 1.394 . S
C1176 H1192 0.931 . S
C1177 C1176 1.391 . S
C1177 C1181 1.376 . S
C1178 C1176 1.394 . S
C1178 C1179 1.369 . S
C1178 C1182 1.531 . S
C1179 C1178 1.369 . S
C1179 C1180 1.410 . S
C1179 C1187 1.503 . S
C1180 C1179 1.410 . S
C1180 C1181 1.392 . S
C1180 C1183 1.511 . S
C1181 C1177 1.376 . S
C1181 C1180 1.392 . S
C1181 H1193 0.929 . S
C1182 C1178 1.531 . S
C1182 H1194 0.960 . S
C1182 H1195 0.962 . S
C1182 H1196 0.960 . S
C1183 C1180 1.511 . S
C1183 H1197 0.961 . S
C1183 H1198 0.961 . S
C1183 H1199 0.961 . S
C1184 C1185 1.370 . S
C1184 C1186 1.363 . S
C1184 H1200 0.931 . S
C1185 C1184 1.370 . S
C1185 C1189 1.408 . S
C1186 C1184 1.363 . S
C1186 C1187 1.370 . S
C1186 C1190 1.524 . S
C1187 C1179 1.503 . S
C1187 C1186 1.370 . S
C1187 C1188 1.403 . S
C1188 C1187 1.403 . S
C1188 C1189 1.404 . S
C1188 C1191 1.539 . S
C1189 C1185 1.408 . S
C1189 C1188 1.404 . S
C1189 H1201 0.930 . S
C1190 C1186 1.524 . S
C1190 H1202 0.956 . S
C1190 H1203 0.961 . S
C1190 H1204 0.961 . S
C1191 C1188 1.539 . S
C1191 H1205 0.958 . S
C1191 H1206 0.961 . S
C1191 H1207 0.960 . S
H1192 C1176 0.931 . S
H1193 C1181 0.929 . S
H1194 C1182 0.960 . S
H1195 C1182 0.962 . S
H1196 C1182 0.960 . S
H1197 C1183 0.961 . S
H1198 C1183 0.961 . S
H1199 C1183 0.961 . S
H1200 C1184 0.931 . S
H1201 C1189 0.930 . S
H1202 C1190 0.956 . S
H1203 C1190 0.961 . S
H1204 C1190 0.961 . S
H1205 C1191 0.958 . S
H1206 C1191 0.961 . S
H1207 C1191 0.960 . S
C1208 C1209 1.391 . S
C1208 C1210 1.394 . S
C1208 H1224 0.931 . S
C1209 C1208 1.391 . S
C1209 C1213 1.376 . S
C1210 C1208 1.394 . S
C1210 C1211 1.369 . S
C1210 C1214 1.531 . S
C1211 C1210 1.369 . S
C1211 C1212 1.410 . S
C1211 C1219 1.503 . S
C1212 C1211 1.410 . S
C1212 C1213 1.392 . S
C1212 C1215 1.511 . S
C1213 C1209 1.376 . S
C1213 C1212 1.392 . S
C1213 H1225 0.929 . S
C1214 C1210 1.531 . S
C1214 H1226 0.960 . S
C1214 H1227 0.962 . S
C1214 H1228 0.960 . S
C1215 C1212 1.511 . S
C1215 H1229 0.961 . S
C1215 H1230 0.961 . S
C1215 H1231 0.961 . S
C1216 C1217 1.370 . S
C1216 C1218 1.363 . S
C1216 H1232 0.931 . S
C1217 C1216 1.370 . S
C1217 C1221 1.408 . S
C1218 C1216 1.363 . S
C1218 C1219 1.370 . S
C1218 C1222 1.524 . S
C1219 C1211 1.503 . S
C1219 C1218 1.370 . S
C1219 C1220 1.403 . S
C1220 C1219 1.403 . S
C1220 C1221 1.404 . S
C1220 C1223 1.539 . S
C1221 C1217 1.408 . S
C1221 C1220 1.404 . S
C1221 H1233 0.930 . S
C1222 C1218 1.524 . S
C1222 H1234 0.956 . S
C1222 H1235 0.961 . S
C1222 H1236 0.961 . S
C1223 C1220 1.539 . S
C1223 H1237 0.958 . S
C1223 H1238 0.961 . S
C1223 H1239 0.960 . S
H1224 C1208 0.931 . S
H1225 C1213 0.929 . S
H1226 C1214 0.960 . S
H1227 C1214 0.962 . S
H1228 C1214 0.960 . S
H1229 C1215 0.961 . S
H1230 C1215 0.961 . S
H1231 C1215 0.961 . S
H1232 C1216 0.931 . S
H1233 C1221 0.930 . S
H1234 C1222 0.956 . S
H1235 C1222 0.961 . S
H1236 C1222 0.961 . S
H1237 C1223 0.958 . S
H1238 C1223 0.961 . S
H1239 C1223 0.960 . S
C1240 C1241 1.391 . S
C1240 C1242 1.394 . S
C1240 H1256 0.931 . S
C1241 C1240 1.391 . S
C1241 C1245 1.376 . S
C1242 C1240 1.394 . S
C1242 C1243 1.369 . S
C1242 C1246 1.531 . S
C1243 C1242 1.369 . S
C1243 C1244 1.410 . S
C1243 C1251 1.503 . S
C1244 C1243 1.410 . S
C1244 C1245 1.392 . S
C1244 C1247 1.511 . S
C1245 C1241 1.376 . S
C1245 C1244 1.392 . S
C1245 H1257 0.929 1_565 S
C1246 C1242 1.531 . S
C1246 H1258 0.960 . S
C1246 H1259 0.962 . S
C1246 H1260 0.960 . S
C1247 C1244 1.511 . S
C1247 H1261 0.961 . S
C1247 H1262 0.961 . S
C1247 H1263 0.961 . S
C1248 C1249 1.370 . S
C1248 C1250 1.363 . S
C1248 H1264 0.931 . S
C1249 C1248 1.370 . S
C1249 C1253 1.408 . S
C1250 C1248 1.363 . S
C1250 C1251 1.370 . S
C1250 C1254 1.524 . S
C1251 C1243 1.503 . S
C1251 C1250 1.370 . S
C1251 C1252 1.403 . S
C1252 C1251 1.403 . S
C1252 C1253 1.404 . S
C1252 C1255 1.539 . S
C1253 C1249 1.408 . S
C1253 C1252 1.404 . S
C1253 H1265 0.930 . S
C1254 C1250 1.524 . S
C1254 H1266 0.956 . S
C1254 H1267 0.961 . S
C1254 H1268 0.961 . S
C1255 C1252 1.539 . S
C1255 H1269 0.958 . S
C1255 H1270 0.961 . S
C1255 H1271 0.960 . S
H1256 C1240 0.931 . S
H1257 C1245 0.929 1_545 S
H1258 C1246 0.960 . S
H1259 C1246 0.962 . S
H1260 C1246 0.960 . S
H1261 C1247 0.961 . S
H1262 C1247 0.961 . S
H1263 C1247 0.961 . S
H1264 C1248 0.931 . S
H1265 C1253 0.930 . S
H1266 C1254 0.956 . S
H1267 C1254 0.961 . S
H1268 C1254 0.961 . S
H1269 C1255 0.958 . S
H1270 C1255 0.961 . S
H1271 C1255 0.960 . S
C1272 C1273 1.391 . S
C1272 C1274 1.409 . S
C1272 H1288 0.931 . S
C1273 C1272 1.391 . S
C1273 C1277 1.376 . S
C1274 C1272 1.409 . S
C1274 C1275 1.385 . S
C1274 C1278 1.499 1_556 S
C1275 C1274 1.385 . S
C1275 C1276 1.410 . S
C1275 C1283 1.507 . S
C1276 C1275 1.410 . S
C1276 C1277 1.392 . S
C1276 C1279 1.511 . S
C1277 C1273 1.376 . S
C1277 C1276 1.392 . S
C1277 H1289 0.929 . S
C1278 C1274 1.499 1_554 S
C1278 H1290 0.960 . S
C1278 H1291 0.962 . S
C1278 H1292 0.960 . S
C1279 C1276 1.511 . S
C1279 H1293 0.961 . S
C1279 H1294 0.961 . S
C1279 H1295 0.961 . S
C1280 C1281 1.370 . S
C1280 C1282 1.363 . S
C1280 H1296 0.931 . S
C1281 C1280 1.370 . S
C1281 C1285 1.408 . S
C1282 C1280 1.363 . S
C1282 C1283 1.370 1_554 S
C1282 C1286 1.524 1_554 S
C1283 C1275 1.507 . S
C1283 C1282 1.370 1_556 S
C1283 C1284 1.400 1_556 S
C1284 C1283 1.400 1_554 S
C1284 C1285 1.404 . S
C1284 C1287 1.539 . S
C1285 C1281 1.408 . S
C1285 C1284 1.404 . S
C1285 H1297 0.930 1_565 S
C1286 C1282 1.524 1_556 S
C1286 H1298 0.956 1_556 S
C1286 H1299 0.961 . S
C1286 H1300 0.961 . S
C1287 C1284 1.539 . S
C1287 H1301 0.958 . S
C1287 H1302 0.961 . S
C1287 H1303 0.960 1_554 S
H1288 C1272 0.931 . S
H1289 C1277 0.929 . S
H1290 C1278 0.960 . S
H1291 C1278 0.962 . S
H1292 C1278 0.960 . S
H1293 C1279 0.961 . S
H1294 C1279 0.961 . S
H1295 C1279 0.961 . S
H1296 C1280 0.931 . S
H1297 C1285 0.930 1_545 S
H1298 C1286 0.956 1_554 S
H1299 C1286 0.961 . S
H1300 C1286 0.961 . S
H1301 C1287 0.958 . S
H1302 C1287 0.961 . S
H1303 C1287 0.960 1_556 S
C1304 C1305 1.391 . S
C1304 C1306 1.394 . S
C1304 H1320 0.931 . S
C1305 C1304 1.391 . S
C1305 C1309 1.376 . S
C1306 C1304 1.394 . S
C1306 C1307 1.369 . S
C1306 C1310 1.531 . S
C1307 C1306 1.369 . S
C1307 C1308 1.410 . S
C1307 C1315 1.503 . S
C1308 C1307 1.410 . S
C1308 C1309 1.392 . S
C1308 C1311 1.511 1_556 S
C1309 C1305 1.376 . S
C1309 C1308 1.392 . S
C1309 H1321 0.929 . S
C1310 C1306 1.531 . S
C1310 H1322 0.960 . S
C1310 H1323 0.962 . S
C1310 H1324 0.960 . S
C1311 C1308 1.511 1_554 S
C1311 H1325 0.961 . S
C1311 H1326 0.961 . S
C1311 H1327 0.961 . S
C1312 C1313 1.370 . S
C1312 C1314 1.363 . S
C1312 H1328 0.931 . S
C1313 C1312 1.370 . S
C1313 C1317 1.408 . S
C1314 C1312 1.363 . S
C1314 C1315 1.370 1_554 S
C1314 C1318 1.524 . S
C1315 C1307 1.503 . S
C1315 C1314 1.370 1_556 S
C1315 C1316 1.403 1_556 S
C1316 C1315 1.403 1_554 S
C1316 C1317 1.404 . S
C1316 C1319 1.539 1_554 S
C1317 C1313 1.408 . S
C1317 C1316 1.404 . S
C1317 H1329 0.930 . S
C1318 C1314 1.524 . S
C1318 H1330 0.956 1_554 S
C1318 H1331 0.961 . S
C1318 H1332 0.961 . S
C1319 C1316 1.539 1_556 S
C1319 H1333 0.958 . S
C1319 H1334 0.961 1_556 S
C1319 H1335 0.960 . S
H1320 C1304 0.931 . S
H1321 C1309 0.929 . S
H1322 C1310 0.960 . S
H1323 C1310 0.962 . S
H1324 C1310 0.960 . S
H1325 C1311 0.961 . S
H1326 C1311 0.961 . S
H1327 C1311 0.961 . S
H1328 C1312 0.931 . S
H1329 C1317 0.930 . S
H1330 C1318 0.956 1_556 S
H1331 C1318 0.961 . S
H1332 C1318 0.961 . S
H1333 C1319 0.958 . S
H1334 C1319 0.961 1_554 S
H1335 C1319 0.960 . S
C1336 C1337 1.391 . S
C1336 C1338 1.394 . S
C1336 H1352 0.931 . S
C1337 C1336 1.391 . S
C1337 C1341 1.376 . S
C1338 C1336 1.394 . S
C1338 C1339 1.369 . S
C1338 C1342 1.531 . S
C1339 C1338 1.369 . S
C1339 C1340 1.419 . S
C1339 C1347 1.518 . S
C1340 C1339 1.419 . S
C1340 C1341 1.401 . S
C1340 C1343 1.494 1_556 S
C1341 C1337 1.376 . S
C1341 C1340 1.401 . S
C1341 H1353 0.929 . S
C1342 C1338 1.531 . S
C1342 H1354 0.960 . S
C1342 H1355 0.962 . S
C1342 H1356 0.960 . S
C1343 C1340 1.494 1_554 S
C1343 H1357 0.961 . S
C1343 H1358 0.961 . S
C1343 H1359 0.961 . S
C1344 C1345 1.370 . S
C1344 C1346 1.363 . S
C1344 H1360 0.931 . S
C1345 C1344 1.370 . S
C1345 C1349 1.408 . S
C1346 C1344 1.363 . S
C1346 C1347 1.367 1_554 S
C1346 C1350 1.524 1_554 S
C1347 C1339 1.518 . S
C1347 C1346 1.367 1_556 S
C1347 C1348 1.393 1_556 S
C1348 C1347 1.393 1_554 S
C1348 C1349 1.404 . S
C1348 C1351 1.539 . S
C1349 C1345 1.408 . S
C1349 C1348 1.404 . S
C1349 H1361 0.930 . S
C1350 C1346 1.524 1_556 S
C1350 H1362 0.956 . S
C1350 H1363 0.960 . S
C1350 H1364 0.973 . S
C1351 C1348 1.539 . S
C1351 H1365 0.958 1_554 S
C1351 H1366 0.961 . S
C1351 H1367 0.960 . S
H1352 C1336 0.931 . S
H1353 C1341 0.929 . S
H1354 C1342 0.960 . S
H1355 C1342 0.962 . S
H1356 C1342 0.960 . S
H1357 C1343 0.961 . S
H1358 C1343 0.961 . S
H1359 C1343 0.961 . S
H1360 C1344 0.931 . S
H1361 C1349 0.930 . S
H1362 C1350 0.956 . S
H1363 C1350 0.960 . S
H1364 C1350 0.973 . S
H1365 C1351 0.958 1_556 S
H1366 C1351 0.961 . S
H1367 C1351 0.960 . S
C1368 C1369 1.391 . S
C1368 C1370 1.394 . S
C1368 H1384 0.931 . S
C1369 C1368 1.391 . S
C1369 C1373 1.376 . S
C1370 C1368 1.394 . S
C1370 C1371 1.369 . S
C1370 C1374 1.531 . S
C1371 C1370 1.369 . S
C1371 C1372 1.410 . S
C1371 C1379 1.503 . S
C1372 C1371 1.410 . S
C1372 C1373 1.392 . S
C1372 C1375 1.511 . S
C1373 C1369 1.376 . S
C1373 C1372 1.392 . S
C1373 H1385 0.929 . S
C1374 C1370 1.531 . S
C1374 H1386 0.960 . S
C1374 H1387 0.962 . S
C1374 H1388 0.960 . S
C1375 C1372 1.511 . S
C1375 H1389 0.961 . S
C1375 H1390 0.961 . S
C1375 H1391 0.961 . S
C1376 C1377 1.370 . S
C1376 C1378 1.363 . S
C1376 H1392 0.940 . S
C1377 C1376 1.370 . S
C1377 C1381 1.408 . S
C1378 C1376 1.363 . S
C1378 C1379 1.370 . S
C1378 C1382 1.524 . S
C1379 C1371 1.503 . S
C1379 C1378 1.370 . S
C1379 C1380 1.403 . S
C1380 C1379 1.403 . S
C1380 C1381 1.404 . S
C1380 C1383 1.539 . S
C1381 C1377 1.408 . S
C1381 C1380 1.404 . S
C1381 H1393 0.930 . S
C1382 C1378 1.524 . S
C1382 H1394 0.956 . S
C1382 H1395 0.961 . S
C1382 H1396 0.961 . S
C1383 C1380 1.539 . S
C1383 H1397 0.958 . S
C1383 H1398 0.961 . S
C1383 H1399 0.960 . S
H1384 C1368 0.931 . S
H1385 C1373 0.929 . S
H1386 C1374 0.960 . S
H1387 C1374 0.962 . S
H1388 C1374 0.960 . S
H1389 C1375 0.961 . S
H1390 C1375 0.961 . S
H1391 C1375 0.961 . S
H1392 C1376 0.940 . S
H1393 C1381 0.930 . S
H1394 C1382 0.956 . S
H1395 C1382 0.961 . S
H1396 C1382 0.961 . S
H1397 C1383 0.958 . S
H1398 C1383 0.961 . S
H1399 C1383 0.960 . S
C1400 C1401 1.391 . S
C1400 C1402 1.394 . S
C1400 H1416 0.931 . S
C1401 C1400 1.391 . S
C1401 C1405 1.376 . S
C1402 C1400 1.394 . S
C1402 C1403 1.369 . S
C1402 C1406 1.531 . S
C1403 C1402 1.369 . S
C1403 C1404 1.410 . S
C1403 C1411 1.503 . S
C1404 C1403 1.410 . S
C1404 C1405 1.392 . S
C1404 C1407 1.511 . S
C1405 C1401 1.376 . S
C1405 C1404 1.392 . S
C1405 H1417 0.929 . S
C1406 C1402 1.531 . S
C1406 H1418 0.960 . S
C1406 H1419 0.962 . S
C1406 H1420 0.960 . S
C1407 C1404 1.511 . S
C1407 H1421 0.961 . S
C1407 H1422 0.961 . S
C1407 H1423 0.961 . S
C1408 C1409 1.370 . S
C1408 C1410 1.363 . S
C1408 H1424 0.931 . S
C1409 C1408 1.370 . S
C1409 C1413 1.408 . S
C1410 C1408 1.363 . S
C1410 C1411 1.370 . S
C1410 C1414 1.524 . S
C1411 C1403 1.503 . S
C1411 C1410 1.370 . S
C1411 C1412 1.403 . S
C1412 C1411 1.403 . S
C1412 C1413 1.404 . S
C1412 C1415 1.539 . S
C1413 C1409 1.408 . S
C1413 C1412 1.404 . S
C1413 H1425 0.930 . S
C1414 C1410 1.524 . S
C1414 H1426 0.956 . S
C1414 H1427 0.961 . S
C1414 H1428 0.961 . S
C1415 C1412 1.539 . S
C1415 H1429 0.958 . S
C1415 H1430 0.961 . S
C1415 H1431 0.960 . S
H1416 C1400 0.931 . S
H1417 C1405 0.929 . S
H1418 C1406 0.960 . S
H1419 C1406 0.962 . S
H1420 C1406 0.960 . S
H1421 C1407 0.961 . S
H1422 C1407 0.961 . S
H1423 C1407 0.961 . S
H1424 C1408 0.931 . S
H1425 C1413 0.930 . S
H1426 C1414 0.956 . S
H1427 C1414 0.961 . S
H1428 C1414 0.961 . S
H1429 C1415 0.958 . S
H1430 C1415 0.961 . S
H1431 C1415 0.960 . S
C1432 C1433 1.391 . S
C1432 C1434 1.394 . S
C1432 H1448 0.931 . S
C1433 C1432 1.391 . S
C1433 C1437 1.376 . S
C1434 C1432 1.394 . S
C1434 C1435 1.369 . S
C1434 C1438 1.531 . S
C1435 C1434 1.369 . S
C1435 C1436 1.410 . S
C1435 C1443 1.503 . S
C1436 C1435 1.410 . S
C1436 C1437 1.392 . S
C1436 C1439 1.511 . S
C1437 C1433 1.376 . S
C1437 C1436 1.392 . S
C1437 H1449 0.929 . S
C1438 C1434 1.531 . S
C1438 H1450 0.960 . S
C1438 H1451 0.962 . S
C1438 H1452 0.960 . S
C1439 C1436 1.511 . S
C1439 H1453 0.961 . S
C1439 H1454 0.961 . S
C1439 H1455 0.961 . S
C1440 C1441 1.370 . S
C1440 C1442 1.363 . S
C1440 H1456 0.931 . S
C1441 C1440 1.370 . S
C1441 C1445 1.408 . S
C1442 C1440 1.363 . S
C1442 C1443 1.370 . S
C1442 C1446 1.524 . S
C1443 C1435 1.503 . S
C1443 C1442 1.370 . S
C1443 C1444 1.403 . S
C1444 C1443 1.403 . S
C1444 C1445 1.404 . S
C1444 C1447 1.539 . S
C1445 C1441 1.408 . S
C1445 C1444 1.404 . S
C1445 H1457 0.930 . S
C1446 C1442 1.524 . S
C1446 H1458 0.956 . S
C1446 H1459 0.961 . S
C1446 H1460 0.961 . S
C1447 C1444 1.539 . S
C1447 H1461 0.958 . S
C1447 H1462 0.961 . S
C1447 H1463 0.960 . S
H1448 C1432 0.931 . S
H1449 C1437 0.929 . S
H1450 C1438 0.960 . S
H1451 C1438 0.962 . S
H1452 C1438 0.960 . S
H1453 C1439 0.961 . S
H1454 C1439 0.961 . S
H1455 C1439 0.961 . S
H1456 C1440 0.931 . S
H1457 C1445 0.930 . S
H1458 C1446 0.956 . S
H1459 C1446 0.961 . S
H1460 C1446 0.961 . S
H1461 C1447 0.958 . S
H1462 C1447 0.961 . S
H1463 C1447 0.960 . S
C1464 C1465 1.391 . S
C1464 C1466 1.394 . S
C1464 H1480 0.931 . S
C1465 C1464 1.391 . S
C1465 C1469 1.376 . S
C1466 C1464 1.394 . S
C1466 C1467 1.369 . S
C1466 C1470 1.531 . S
C1467 C1466 1.369 . S
C1467 C1468 1.410 . S
C1467 C1475 1.503 . S
C1468 C1467 1.410 . S
C1468 C1469 1.392 . S
C1468 C1471 1.511 . S
C1469 C1465 1.376 . S
C1469 C1468 1.392 . S
C1469 H1481 0.929 . S
C1470 C1466 1.531 . S
C1470 H1482 0.960 . S
C1470 H1483 0.962 . S
C1470 H1484 0.960 . S
C1471 C1468 1.511 . S
C1471 H1485 0.961 . S
C1471 H1486 0.961 . S
C1471 H1487 0.961 . S
C1472 C1473 1.370 . S
C1472 C1474 1.363 . S
C1472 H1488 0.931 . S
C1473 C1472 1.370 . S
C1473 C1477 1.408 . S
C1474 C1472 1.363 . S
C1474 C1475 1.370 . S
C1474 C1478 1.524 . S
C1475 C1467 1.503 . S
C1475 C1474 1.370 . S
C1475 C1476 1.403 . S
C1476 C1475 1.403 . S
C1476 C1477 1.404 . S
C1476 C1479 1.539 . S
C1477 C1473 1.408 . S
C1477 C1476 1.404 . S
C1477 H1489 0.930 . S
C1478 C1474 1.524 . S
C1478 H1490 0.956 . S
C1478 H1491 0.961 . S
C1478 H1492 0.961 . S
C1479 C1476 1.539 . S
C1479 H1493 0.958 . S
C1479 H1494 0.961 . S
C1479 H1495 0.960 . S
H1480 C1464 0.931 . S
H1481 C1469 0.929 . S
H1482 C1470 0.960 . S
H1483 C1470 0.962 . S
H1484 C1470 0.960 . S
H1485 C1471 0.961 . S
H1486 C1471 0.961 . S
H1487 C1471 0.961 . S
H1488 C1472 0.931 . S
H1489 C1477 0.930 . S
H1490 C1478 0.956 . S
H1491 C1478 0.961 . S
H1492 C1478 0.961 . S
H1493 C1479 0.958 . S
H1494 C1479 0.961 . S
H1495 C1479 0.960 . S
C1496 C1497 1.391 . S
C1496 C1498 1.394 . S
C1496 H1512 0.931 . S
C1497 C1496 1.391 . S
C1497 C1501 1.376 . S
C1498 C1496 1.394 . S
C1498 C1499 1.369 . S
C1498 C1502 1.531 . S
C1499 C1498 1.369 . S
C1499 C1500 1.410 . S
C1499 C1507 1.503 . S
C1500 C1499 1.410 . S
C1500 C1501 1.392 . S
C1500 C1503 1.511 . S
C1501 C1497 1.376 . S
C1501 C1500 1.392 . S
C1501 H1513 0.929 . S
C1502 C1498 1.531 . S
C1502 H1514 0.960 . S
C1502 H1515 0.962 . S
C1502 H1516 0.960 . S
C1503 C1500 1.511 . S
C1503 H1517 0.961 . S
C1503 H1518 0.961 . S
C1503 H1519 0.961 . S
C1504 C1505 1.370 . S
C1504 C1506 1.363 . S
C1504 H1520 0.931 . S
C1505 C1504 1.370 . S
C1505 C1509 1.408 . S
C1506 C1504 1.363 . S
C1506 C1507 1.370 . S
C1506 C1510 1.524 . S
C1507 C1499 1.503 . S
C1507 C1506 1.370 . S
C1507 C1508 1.403 . S
C1508 C1507 1.403 . S
C1508 C1509 1.404 . S
C1508 C1511 1.539 . S
C1509 C1505 1.408 . S
C1509 C1508 1.404 . S
C1509 H1521 0.930 . S
C1510 C1506 1.524 . S
C1510 H1522 0.956 . S
C1510 H1523 0.961 . S
C1510 H1524 0.961 . S
C1511 C1508 1.539 . S
C1511 H1525 0.958 . S
C1511 H1526 0.961 . S
C1511 H1527 0.960 . S
H1512 C1496 0.931 . S
H1513 C1501 0.929 . S
H1514 C1502 0.960 . S
H1515 C1502 0.962 . S
H1516 C1502 0.960 . S
H1517 C1503 0.961 . S
H1518 C1503 0.961 . S
H1519 C1503 0.961 . S
H1520 C1504 0.931 . S
H1521 C1509 0.930 . S
H1522 C1510 0.956 . S
H1523 C1510 0.961 . S
H1524 C1510 0.961 . S
H1525 C1511 0.958 . S
H1526 C1511 0.961 . S
H1527 C1511 0.960 . S
C1528 C1529 1.391 . S
C1528 C1530 1.394 . S
C1528 H1544 0.931 . S
C1529 C1528 1.391 . S
C1529 C1533 1.376 . S
C1530 C1528 1.394 . S
C1530 C1531 1.369 . S
C1530 C1534 1.531 . S
C1531 C1530 1.369 . S
C1531 C1532 1.410 . S
C1531 C1539 1.503 . S
C1532 C1531 1.410 . S
C1532 C1533 1.392 . S
C1532 C1535 1.511 . S
C1533 C1529 1.376 . S
C1533 C1532 1.392 . S
C1533 H1545 0.929 . S
C1534 C1530 1.531 . S
C1534 H1546 0.960 . S
C1534 H1547 0.962 . S
C1534 H1548 0.960 . S
C1535 C1532 1.511 . S
C1535 H1549 0.961 . S
C1535 H1550 0.961 . S
C1535 H1551 0.961 . S
C1536 C1537 1.370 . S
C1536 C1538 1.363 . S
C1536 H1552 0.931 . S
C1537 C1536 1.370 . S
C1537 C1541 1.408 . S
C1538 C1536 1.363 . S
C1538 C1539 1.370 . S
C1538 C1542 1.524 . S
C1539 C1531 1.503 . S
C1539 C1538 1.370 . S
C1539 C1540 1.403 . S
C1540 C1539 1.403 . S
C1540 C1541 1.404 . S
C1540 C1543 1.539 . S
C1541 C1537 1.408 . S
C1541 C1540 1.404 . S
C1541 H1553 0.930 . S
C1542 C1538 1.524 . S
C1542 H1554 0.956 . S
C1542 H1555 0.961 . S
C1542 H1556 0.961 . S
C1543 C1540 1.539 . S
C1543 H1557 0.958 . S
C1543 H1558 0.961 . S
C1543 H1559 0.960 . S
H1544 C1528 0.931 . S
H1545 C1533 0.929 . S
H1546 C1534 0.960 . S
H1547 C1534 0.962 . S
H1548 C1534 0.960 . S
H1549 C1535 0.961 . S
H1550 C1535 0.961 . S
H1551 C1535 0.961 . S
H1552 C1536 0.931 . S
H1553 C1541 0.930 . S
H1554 C1542 0.956 . S
H1555 C1542 0.961 . S
H1556 C1542 0.961 . S
H1557 C1543 0.958 . S
H1558 C1543 0.961 . S
H1559 C1543 0.960 . S
C1560 C1561 1.391 . S
C1560 C1562 1.394 . S
C1560 H1576 0.931 . S
C1561 C1560 1.391 . S
C1561 C1565 1.376 . S
C1562 C1560 1.394 . S
C1562 C1563 1.369 . S
C1562 C1566 1.531 . S
C1563 C1562 1.369 . S
C1563 C1564 1.410 . S
C1563 C1571 1.503 . S
C1564 C1563 1.410 . S
C1564 C1565 1.392 . S
C1564 C1567 1.511 . S
C1565 C1561 1.376 . S
C1565 C1564 1.392 . S
C1565 H1577 0.929 . S
C1566 C1562 1.531 . S
C1566 H1578 0.960 . S
C1566 H1579 0.962 . S
C1566 H1580 0.960 . S
C1567 C1564 1.511 . S
C1567 H1581 0.961 . S
C1567 H1582 0.961 . S
C1567 H1583 0.961 . S
C1568 C1569 1.370 . S
C1568 C1570 1.363 . S
C1568 H1584 0.931 . S
C1569 C1568 1.370 . S
C1569 C1573 1.408 . S
C1570 C1568 1.363 . S
C1570 C1571 1.370 . S
C1570 C1574 1.524 . S
C1571 C1563 1.503 . S
C1571 C1570 1.370 . S
C1571 C1572 1.403 . S
C1572 C1571 1.403 . S
C1572 C1573 1.404 . S
C1572 C1575 1.539 . S
C1573 C1569 1.408 . S
C1573 C1572 1.404 . S
C1573 H1585 0.930 . S
C1574 C1570 1.524 . S
C1574 H1586 0.956 . S
C1574 H1587 0.961 . S
C1574 H1588 0.961 . S
C1575 C1572 1.539 . S
C1575 H1589 0.958 . S
C1575 H1590 0.961 . S
C1575 H1591 0.960 . S
H1576 C1560 0.931 . S
H1577 C1565 0.929 . S
H1578 C1566 0.960 . S
H1579 C1566 0.962 . S
H1580 C1566 0.960 . S
H1581 C1567 0.961 . S
H1582 C1567 0.961 . S
H1583 C1567 0.961 . S
H1584 C1568 0.931 . S
H1585 C1573 0.930 . S
H1586 C1574 0.956 . S
H1587 C1574 0.961 . S
H1588 C1574 0.961 . S
H1589 C1575 0.958 . S
H1590 C1575 0.961 . S
H1591 C1575 0.960 . S
C1592 C1593 1.391 . S
C1592 C1594 1.394 . S
C1592 H1608 0.931 . S
C1593 C1592 1.391 . S
C1593 C1597 1.376 . S
C1594 C1592 1.394 . S
C1594 C1595 1.369 . S
C1594 C1598 1.531 . S
C1595 C1594 1.369 . S
C1595 C1596 1.410 . S
C1595 C1603 1.503 . S
C1596 C1595 1.410 . S
C1596 C1597 1.392 . S
C1596 C1599 1.511 . S
C1597 C1593 1.376 . S
C1597 C1596 1.392 . S
C1597 H1609 0.929 . S
C1598 C1594 1.531 . S
C1598 H1610 0.960 . S
C1598 H1611 0.962 . S
C1598 H1612 0.960 . S
C1599 C1596 1.511 . S
C1599 H1613 0.961 . S
C1599 H1614 0.961 . S
C1599 H1615 0.961 . S
C1600 C1601 1.370 . S
C1600 C1602 1.363 . S
C1600 H1616 0.931 . S
C1601 C1600 1.370 . S
C1601 C1605 1.408 . S
C1602 C1600 1.363 . S
C1602 C1603 1.370 . S
C1602 C1606 1.524 . S
C1603 C1595 1.503 . S
C1603 C1602 1.370 . S
C1603 C1604 1.403 . S
C1604 C1603 1.403 . S
C1604 C1605 1.404 . S
C1604 C1607 1.539 . S
C1605 C1601 1.408 . S
C1605 C1604 1.404 . S
C1605 H1617 0.930 . S
C1606 C1602 1.524 . S
C1606 H1618 0.956 . S
C1606 H1619 0.961 . S
C1606 H1620 0.961 . S
C1607 C1604 1.539 . S
C1607 H1621 0.958 . S
C1607 H1622 0.961 . S
C1607 H1623 0.960 . S
H1608 C1592 0.931 . S
H1609 C1597 0.929 . S
H1610 C1598 0.960 . S
H1611 C1598 0.962 . S
H1612 C1598 0.960 . S
H1613 C1599 0.961 . S
H1614 C1599 0.961 . S
H1615 C1599 0.961 . S
H1616 C1600 0.931 . S
H1617 C1605 0.930 . S
H1618 C1606 0.956 . S
H1619 C1606 0.961 . S
H1620 C1606 0.961 . S
H1621 C1607 0.958 . S
H1622 C1607 0.961 . S
H1623 C1607 0.960 . S
C1624 C1625 1.391 . S
C1624 C1626 1.394 . S
C1624 H1640 0.931 . S
C1625 C1624 1.391 . S
C1625 C1629 1.376 . S
C1626 C1624 1.394 . S
C1626 C1627 1.369 . S
C1626 C1630 1.531 . S
C1627 C1626 1.369 . S
C1627 C1628 1.410 . S
C1627 C1635 1.503 . S
C1628 C1627 1.410 . S
C1628 C1629 1.392 . S
C1628 C1631 1.511 . S
C1629 C1625 1.376 . S
C1629 C1628 1.392 . S
C1629 H1641 0.929 . S
C1630 C1626 1.531 . S
C1630 H1642 0.960 . S
C1630 H1643 0.962 . S
C1630 H1644 0.960 . S
C1631 C1628 1.511 . S
C1631 H1645 0.961 . S
C1631 H1646 0.961 . S
C1631 H1647 0.961 . S
C1632 C1633 1.370 . S
C1632 C1634 1.363 . S
C1632 H1648 0.931 . S
C1633 C1632 1.370 . S
C1633 C1637 1.408 . S
C1634 C1632 1.363 . S
C1634 C1635 1.370 . S
C1634 C1638 1.524 . S
C1635 C1627 1.503 . S
C1635 C1634 1.370 . S
C1635 C1636 1.403 . S
C1636 C1635 1.403 . S
C1636 C1637 1.404 . S
C1636 C1639 1.539 . S
C1637 C1633 1.408 . S
C1637 C1636 1.404 . S
C1637 H1649 0.930 . S
C1638 C1634 1.524 . S
C1638 H1650 0.956 . S
C1638 H1651 0.961 . S
C1638 H1652 0.961 . S
C1639 C1636 1.539 . S
C1639 H1653 0.958 . S
C1639 H1654 0.961 . S
C1639 H1655 0.960 . S
H1640 C1624 0.931 . S
H1641 C1629 0.929 . S
H1642 C1630 0.960 . S
H1643 C1630 0.962 . S
H1644 C1630 0.960 . S
H1645 C1631 0.961 . S
H1646 C1631 0.961 . S
H1647 C1631 0.961 . S
H1648 C1632 0.931 . S
H1649 C1637 0.930 . S
H1650 C1638 0.956 . S
H1651 C1638 0.961 . S
H1652 C1638 0.961 . S
H1653 C1639 0.958 . S
H1654 C1639 0.961 . S
H1655 C1639 0.960 . S
C1656 C1657 1.391 . S
C1656 C1658 1.394 . S
C1656 H1672 0.931 . S
C1657 C1656 1.391 . S
C1657 C1661 1.376 . S
C1658 C1656 1.394 . S
C1658 C1659 1.369 . S
C1658 C1662 1.531 . S
C1659 C1658 1.369 . S
C1659 C1660 1.410 . S
C1659 C1667 1.503 . S
C1660 C1659 1.410 . S
C1660 C1661 1.392 . S
C1660 C1663 1.511 . S
C1661 C1657 1.376 . S
C1661 C1660 1.392 . S
C1661 H1673 0.929 . S
C1662 C1658 1.531 . S
C1662 H1674 0.960 . S
C1662 H1675 0.962 . S
C1662 H1676 0.960 . S
C1663 C1660 1.511 . S
C1663 H1677 0.961 . S
C1663 H1678 0.961 . S
C1663 H1679 0.961 . S
C1664 C1665 1.370 . S
C1664 C1666 1.363 . S
C1664 H1680 0.931 . S
C1665 C1664 1.370 . S
C1665 C1669 1.408 . S
C1666 C1664 1.363 . S
C1666 C1667 1.370 . S
C1666 C1670 1.524 . S
C1667 C1659 1.503 . S
C1667 C1666 1.370 . S
C1667 C1668 1.403 . S
C1668 C1667 1.403 . S
C1668 C1669 1.404 . S
C1668 C1671 1.539 . S
C1669 C1665 1.408 . S
C1669 C1668 1.404 . S
C1669 H1681 0.930 . S
C1670 C1666 1.524 . S
C1670 H1682 0.956 . S
C1670 H1683 0.961 . S
C1670 H1684 0.961 . S
C1671 C1668 1.539 . S
C1671 H1685 0.958 . S
C1671 H1686 0.961 . S
C1671 H1687 0.960 . S
H1672 C1656 0.931 . S
H1673 C1661 0.929 . S
H1674 C1662 0.960 . S
H1675 C1662 0.962 . S
H1676 C1662 0.960 . S
H1677 C1663 0.961 . S
H1678 C1663 0.961 . S
H1679 C1663 0.961 . S
H1680 C1664 0.931 . S
H1681 C1669 0.930 . S
H1682 C1670 0.956 . S
H1683 C1670 0.961 . S
H1684 C1670 0.961 . S
H1685 C1671 0.958 . S
H1686 C1671 0.961 . S
H1687 C1671 0.960 . S
C1688 C1689 1.391 . S
C1688 C1690 1.394 . S
C1688 H1704 0.931 . S
C1689 C1688 1.391 . S
C1689 C1693 1.376 . S
C1690 C1688 1.394 . S
C1690 C1691 1.369 . S
C1690 C1694 1.531 . S
C1691 C1690 1.369 . S
C1691 C1692 1.410 . S
C1691 C1699 1.503 . S
C1692 C1691 1.410 . S
C1692 C1693 1.392 . S
C1692 C1695 1.511 . S
C1693 C1689 1.376 . S
C1693 C1692 1.392 . S
C1693 H1705 0.929 . S
C1694 C1690 1.531 . S
C1694 H1706 0.960 . S
C1694 H1707 0.962 . S
C1694 H1708 0.960 . S
C1695 C1692 1.511 . S
C1695 H1709 0.961 . S
C1695 H1710 0.961 . S
C1695 H1711 0.961 . S
C1696 C1697 1.370 . S
C1696 C1698 1.363 . S
C1696 H1712 0.931 . S
C1697 C1696 1.370 . S
C1697 C1701 1.408 . S
C1698 C1696 1.363 . S
C1698 C1699 1.370 . S
C1698 C1702 1.524 . S
C1699 C1691 1.503 . S
C1699 C1698 1.370 . S
C1699 C1700 1.403 . S
C1700 C1699 1.403 . S
C1700 C1701 1.404 . S
C1700 C1703 1.539 . S
C1701 C1697 1.408 . S
C1701 C1700 1.404 . S
C1701 H1713 0.930 . S
C1702 C1698 1.524 . S
C1702 H1714 0.956 . S
C1702 H1715 0.961 . S
C1702 H1716 0.961 . S
C1703 C1700 1.539 . S
C1703 H1717 0.958 . S
C1703 H1718 0.961 . S
C1703 H1719 0.960 . S
H1704 C1688 0.931 . S
H1705 C1693 0.929 . S
H1706 C1694 0.960 . S
H1707 C1694 0.962 . S
H1708 C1694 0.960 . S
H1709 C1695 0.961 . S
H1710 C1695 0.961 . S
H1711 C1695 0.961 . S
H1712 C1696 0.931 . S
H1713 C1701 0.930 . S
H1714 C1702 0.956 . S
H1715 C1702 0.961 . S
H1716 C1702 0.961 . S
H1717 C1703 0.958 . S
H1718 C1703 0.961 . S
H1719 C1703 0.960 . S
C1720 C1721 1.391 . S
C1720 C1722 1.394 . S
C1720 H1736 0.931 . S
C1721 C1720 1.391 . S
C1721 C1725 1.376 . S
C1722 C1720 1.394 . S
C1722 C1723 1.369 . S
C1722 C1726 1.531 . S
C1723 C1722 1.369 . S
C1723 C1724 1.410 . S
C1723 C1731 1.503 . S
C1724 C1723 1.410 . S
C1724 C1725 1.392 . S
C1724 C1727 1.511 . S
C1725 C1721 1.376 . S
C1725 C1724 1.392 . S
C1725 H1737 0.929 . S
C1726 C1722 1.531 . S
C1726 H1738 0.960 . S
C1726 H1739 0.962 . S
C1726 H1740 0.960 . S
C1727 C1724 1.511 . S
C1727 H1741 0.961 . S
C1727 H1742 0.961 . S
C1727 H1743 0.961 . S
C1728 C1729 1.370 . S
C1728 C1730 1.363 . S
C1728 H1744 0.931 . S
C1729 C1728 1.370 . S
C1729 C1733 1.408 . S
C1730 C1728 1.363 . S
C1730 C1731 1.370 . S
C1730 C1734 1.524 . S
C1731 C1723 1.503 . S
C1731 C1730 1.370 . S
C1731 C1732 1.403 . S
C1732 C1731 1.403 . S
C1732 C1733 1.404 . S
C1732 C1735 1.539 . S
C1733 C1729 1.408 . S
C1733 C1732 1.404 . S
C1733 H1745 0.930 . S
C1734 C1730 1.524 . S
C1734 H1746 0.956 . S
C1734 H1747 0.961 . S
C1734 H1748 0.961 . S
C1735 C1732 1.539 . S
C1735 H1749 0.958 . S
C1735 H1750 0.961 . S
C1735 H1751 0.960 . S
H1736 C1720 0.931 . S
H1737 C1725 0.929 . S
H1738 C1726 0.960 . S
H1739 C1726 0.962 . S
H1740 C1726 0.960 . S
H1741 C1727 0.961 . S
H1742 C1727 0.961 . S
H1743 C1727 0.961 . S
H1744 C1728 0.931 . S
H1745 C1733 0.930 . S
H1746 C1734 0.956 . S
H1747 C1734 0.961 . S
H1748 C1734 0.961 . S
H1749 C1735 0.958 . S
H1750 C1735 0.961 . S
H1751 C1735 0.960 . S
C1752 C1753 1.391 . S
C1752 C1754 1.394 . S
C1752 H1768 0.931 . S
C1753 C1752 1.391 . S
C1753 C1757 1.376 . S
C1754 C1752 1.394 . S
C1754 C1755 1.369 . S
C1754 C1758 1.531 . S
C1755 C1754 1.369 . S
C1755 C1756 1.410 . S
C1755 C1763 1.503 . S
C1756 C1755 1.410 . S
C1756 C1757 1.392 . S
C1756 C1759 1.511 . S
C1757 C1753 1.376 . S
C1757 C1756 1.392 . S
C1757 H1769 0.929 . S
C1758 C1754 1.531 . S
C1758 H1770 0.960 . S
C1758 H1771 0.962 . S
C1758 H1772 0.960 . S
C1759 C1756 1.511 . S
C1759 H1773 0.961 . S
C1759 H1774 0.961 . S
C1759 H1775 0.961 . S
C1760 C1761 1.370 . S
C1760 C1762 1.363 . S
C1760 H1776 0.931 . S
C1761 C1760 1.370 . S
C1761 C1765 1.408 . S
C1762 C1760 1.363 . S
C1762 C1763 1.370 . S
C1762 C1766 1.524 . S
C1763 C1755 1.503 . S
C1763 C1762 1.370 . S
C1763 C1764 1.403 . S
C1764 C1763 1.403 . S
C1764 C1765 1.404 . S
C1764 C1767 1.539 . S
C1765 C1761 1.408 . S
C1765 C1764 1.404 . S
C1765 H1777 0.930 . S
C1766 C1762 1.524 . S
C1766 H1778 0.956 . S
C1766 H1779 0.961 . S
C1766 H1780 0.961 . S
C1767 C1764 1.539 . S
C1767 H1781 0.958 . S
C1767 H1782 0.961 . S
C1767 H1783 0.960 . S
H1768 C1752 0.931 . S
H1769 C1757 0.929 . S
H1770 C1758 0.960 . S
H1771 C1758 0.962 . S
H1772 C1758 0.960 . S
H1773 C1759 0.961 . S
H1774 C1759 0.961 . S
H1775 C1759 0.961 . S
H1776 C1760 0.931 . S
H1777 C1765 0.930 . S
H1778 C1766 0.956 . S
H1779 C1766 0.961 . S
H1780 C1766 0.961 . S
H1781 C1767 0.958 . S
H1782 C1767 0.961 . S
H1783 C1767 0.960 . S
C1784 C1785 1.391 . S
C1784 C1786 1.394 . S
C1784 H1800 0.931 . S
C1785 C1784 1.391 . S
C1785 C1789 1.376 . S
C1786 C1784 1.394 . S
C1786 C1787 1.369 . S
C1786 C1790 1.531 . S
C1787 C1786 1.369 . S
C1787 C1788 1.410 . S
C1787 C1795 1.503 . S
C1788 C1787 1.410 . S
C1788 C1789 1.392 . S
C1788 C1791 1.511 . S
C1789 C1785 1.376 . S
C1789 C1788 1.392 . S
C1789 H1801 0.929 . S
C1790 C1786 1.531 . S
C1790 H1802 0.960 . S
C1790 H1803 0.962 . S
C1790 H1804 0.960 . S
C1791 C1788 1.511 . S
C1791 H1805 0.961 . S
C1791 H1806 0.961 . S
C1791 H1807 0.961 . S
C1792 C1793 1.370 . S
C1792 C1794 1.363 . S
C1792 H1808 0.931 . S
C1793 C1792 1.370 . S
C1793 C1797 1.408 . S
C1794 C1792 1.363 . S
C1794 C1795 1.370 . S
C1794 C1798 1.524 . S
C1795 C1787 1.503 . S
C1795 C1794 1.370 . S
C1795 C1796 1.403 . S
C1796 C1795 1.403 . S
C1796 C1797 1.404 . S
C1796 C1799 1.539 . S
C1797 C1793 1.408 . S
C1797 C1796 1.404 . S
C1797 H1809 0.930 . S
C1798 C1794 1.524 . S
C1798 H1810 0.956 . S
C1798 H1811 0.961 . S
C1798 H1812 0.961 . S
C1799 C1796 1.539 . S
C1799 H1813 0.958 . S
C1799 H1814 0.961 . S
C1799 H1815 0.960 . S
H1800 C1784 0.931 . S
H1801 C1789 0.929 . S
H1802 C1790 0.960 . S
H1803 C1790 0.962 . S
H1804 C1790 0.960 . S
H1805 C1791 0.961 . S
H1806 C1791 0.961 . S
H1807 C1791 0.961 . S
H1808 C1792 0.931 . S
H1809 C1797 0.930 . S
H1810 C1798 0.956 . S
H1811 C1798 0.961 . S
H1812 C1798 0.961 . S
H1813 C1799 0.958 . S
H1814 C1799 0.961 . S
H1815 C1799 0.960 . S
C1816 C1817 1.391 . S
C1816 C1818 1.394 . S
C1816 H1832 0.931 . S
C1817 C1816 1.391 . S
C1817 C1821 1.376 . S
C1818 C1816 1.394 . S
C1818 C1819 1.369 . S
C1818 C1822 1.531 . S
C1819 C1818 1.369 . S
C1819 C1820 1.410 . S
C1819 C1827 1.503 . S
C1820 C1819 1.410 . S
C1820 C1821 1.392 . S
C1820 C1823 1.511 . S
C1821 C1817 1.376 . S
C1821 C1820 1.392 . S
C1821 H1833 0.929 . S
C1822 C1818 1.531 . S
C1822 H1834 0.960 . S
C1822 H1835 0.962 . S
C1822 H1836 0.960 . S
C1823 C1820 1.511 . S
C1823 H1837 0.961 . S
C1823 H1838 0.961 . S
C1823 H1839 0.961 . S
C1824 C1825 1.370 . S
C1824 C1826 1.363 . S
C1824 H1840 0.931 . S
C1825 C1824 1.370 . S
C1825 C1829 1.408 . S
C1826 C1824 1.363 . S
C1826 C1827 1.370 . S
C1826 C1830 1.524 . S
C1827 C1819 1.503 . S
C1827 C1826 1.370 . S
C1827 C1828 1.403 . S
C1828 C1827 1.403 . S
C1828 C1829 1.404 . S
C1828 C1831 1.539 . S
C1829 C1825 1.408 . S
C1829 C1828 1.404 . S
C1829 H1841 0.930 . S
C1830 C1826 1.524 . S
C1830 H1842 0.956 . S
C1830 H1843 0.961 . S
C1830 H1844 0.961 . S
C1831 C1828 1.539 . S
C1831 H1845 0.958 . S
C1831 H1846 0.961 . S
C1831 H1847 0.960 . S
H1832 C1816 0.931 . S
H1833 C1821 0.929 . S
H1834 C1822 0.960 . S
H1835 C1822 0.962 . S
H1836 C1822 0.960 . S
H1837 C1823 0.961 . S
H1838 C1823 0.961 . S
H1839 C1823 0.961 . S
H1840 C1824 0.931 . S
H1841 C1829 0.930 . S
H1842 C1830 0.956 . S
H1843 C1830 0.961 . S
H1844 C1830 0.961 . S
H1845 C1831 0.958 . S
H1846 C1831 0.961 . S
H1847 C1831 0.960 . S
C1848 C1849 1.391 . S
C1848 C1850 1.394 . S
C1848 H1864 0.931 . S
C1849 C1848 1.391 . S
C1849 C1853 1.376 . S
C1850 C1848 1.394 . S
C1850 C1851 1.369 . S
C1850 C1854 1.531 . S
C1851 C1850 1.369 . S
C1851 C1852 1.410 . S
C1851 C1859 1.503 . S
C1852 C1851 1.410 . S
C1852 C1853 1.392 . S
C1852 C1855 1.511 . S
C1853 C1849 1.376 . S
C1853 C1852 1.392 . S
C1853 H1865 0.929 . S
C1854 C1850 1.531 . S
C1854 H1866 0.960 . S
C1854 H1867 0.962 . S
C1854 H1868 0.960 . S
C1855 C1852 1.511 . S
C1855 H1869 0.961 . S
C1855 H1870 0.961 . S
C1855 H1871 0.961 . S
C1856 C1857 1.370 . S
C1856 C1858 1.363 . S
C1856 H1872 0.931 . S
C1857 C1856 1.370 . S
C1857 C1861 1.408 . S
C1858 C1856 1.363 . S
C1858 C1859 1.370 . S
C1858 C1862 1.524 . S
C1859 C1851 1.503 . S
C1859 C1858 1.370 . S
C1859 C1860 1.403 . S
C1860 C1859 1.403 . S
C1860 C1861 1.404 . S
C1860 C1863 1.539 . S
C1861 C1857 1.408 . S
C1861 C1860 1.404 . S
C1861 H1873 0.930 . S
C1862 C1858 1.524 . S
C1862 H1874 0.956 . S
C1862 H1875 0.961 . S
C1862 H1876 0.961 . S
C1863 C1860 1.539 . S
C1863 H1877 0.958 . S
C1863 H1878 0.961 . S
C1863 H1879 0.960 . S
H1864 C1848 0.931 . S
H1865 C1853 0.929 . S
H1866 C1854 0.960 . S
H1867 C1854 0.962 . S
H1868 C1854 0.960 . S
H1869 C1855 0.961 . S
H1870 C1855 0.961 . S
H1871 C1855 0.961 . S
H1872 C1856 0.931 . S
H1873 C1861 0.930 . S
H1874 C1862 0.956 . S
H1875 C1862 0.961 . S
H1876 C1862 0.961 . S
H1877 C1863 0.958 . S
H1878 C1863 0.961 . S
H1879 C1863 0.960 . S
C1880 C1881 1.391 . S
C1880 C1882 1.394 . S
C1880 H1896 0.931 . S
C1881 C1880 1.391 . S
C1881 C1885 1.376 . S
C1882 C1880 1.394 . S
C1882 C1883 1.369 . S
C1882 C1886 1.531 . S
C1883 C1882 1.369 . S
C1883 C1884 1.410 . S
C1883 C1891 1.503 . S
C1884 C1883 1.410 . S
C1884 C1885 1.392 . S
C1884 C1887 1.511 . S
C1885 C1881 1.376 . S
C1885 C1884 1.392 . S
C1885 H1897 0.929 . S
C1886 C1882 1.531 . S
C1886 H1898 0.960 . S
C1886 H1899 0.962 . S
C1886 H1900 0.960 . S
C1887 C1884 1.511 . S
C1887 H1901 0.961 . S
C1887 H1902 0.961 . S
C1887 H1903 0.961 . S
C1888 C1889 1.370 . S
C1888 C1890 1.363 . S
C1888 H1904 0.931 . S
C1889 C1888 1.370 . S
C1889 C1893 1.408 . S
C1890 C1888 1.363 . S
C1890 C1891 1.370 . S
C1890 C1894 1.524 . S
C1891 C1883 1.503 . S
C1891 C1890 1.370 . S
C1891 C1892 1.403 . S
C1892 C1891 1.403 . S
C1892 C1893 1.404 . S
C1892 C1895 1.539 . S
C1893 C1889 1.408 . S
C1893 C1892 1.404 . S
C1893 H1905 0.930 . S
C1894 C1890 1.524 . S
C1894 H1906 0.956 . S
C1894 H1907 0.961 . S
C1894 H1908 0.961 . S
C1895 C1892 1.539 . S
C1895 H1909 0.958 . S
C1895 H1910 0.961 . S
C1895 H1911 0.960 . S
H1896 C1880 0.931 . S
H1897 C1885 0.929 . S
H1898 C1886 0.960 . S
H1899 C1886 0.962 . S
H1900 C1886 0.960 . S
H1901 C1887 0.961 . S
H1902 C1887 0.961 . S
H1903 C1887 0.961 . S
H1904 C1888 0.931 . S
H1905 C1893 0.930 . S
H1906 C1894 0.956 . S
H1907 C1894 0.961 . S
H1908 C1894 0.961 . S
H1909 C1895 0.958 . S
H1910 C1895 0.961 . S
H1911 C1895 0.960 . S
C1912 C1913 1.391 . S
C1912 C1914 1.394 . S
C1912 H1928 0.931 . S
C1913 C1912 1.391 . S
C1913 C1917 1.376 . S
C1914 C1912 1.394 . S
C1914 C1915 1.369 . S
C1914 C1918 1.531 . S
C1915 C1914 1.369 . S
C1915 C1916 1.410 . S
C1915 C1923 1.503 . S
C1916 C1915 1.410 . S
C1916 C1917 1.392 . S
C1916 C1919 1.511 . S
C1917 C1913 1.376 . S
C1917 C1916 1.392 . S
C1917 H1929 0.929 . S
C1918 C1914 1.531 . S
C1918 H1930 0.960 . S
C1918 H1931 0.962 . S
C1918 H1932 0.960 . S
C1919 C1916 1.511 . S
C1919 H1933 0.961 . S
C1919 H1934 0.961 . S
C1919 H1935 0.961 . S
C1920 C1921 1.370 . S
C1920 C1922 1.363 . S
C1920 H1936 0.931 . S
C1921 C1920 1.370 . S
C1921 C1925 1.408 . S
C1922 C1920 1.363 . S
C1922 C1923 1.370 . S
C1922 C1926 1.524 . S
C1923 C1915 1.503 . S
C1923 C1922 1.370 . S
C1923 C1924 1.403 . S
C1924 C1923 1.403 . S
C1924 C1925 1.404 . S
C1924 C1927 1.539 . S
C1925 C1921 1.408 . S
C1925 C1924 1.404 . S
C1925 H1937 0.930 . S
C1926 C1922 1.524 . S
C1926 H1938 0.956 . S
C1926 H1939 0.961 . S
C1926 H1940 0.961 . S
C1927 C1924 1.539 . S
C1927 H1941 0.958 . S
C1927 H1942 0.961 . S
C1927 H1943 0.960 . S
H1928 C1912 0.931 . S
H1929 C1917 0.929 . S
H1930 C1918 0.960 . S
H1931 C1918 0.962 . S
H1932 C1918 0.960 . S
H1933 C1919 0.961 . S
H1934 C1919 0.961 . S
H1935 C1919 0.961 . S
H1936 C1920 0.931 . S
H1937 C1925 0.930 . S
H1938 C1926 0.956 . S
H1939 C1926 0.961 . S
H1940 C1926 0.961 . S
H1941 C1927 0.958 . S
H1942 C1927 0.961 . S
H1943 C1927 0.960 . S
C1944 C1945 1.391 . S
C1944 C1946 1.394 . S
C1944 H1960 0.931 . S
C1945 C1944 1.391 . S
C1945 C1949 1.376 . S
C1946 C1944 1.394 . S
C1946 C1947 1.369 . S
C1946 C1950 1.531 . S
C1947 C1946 1.369 . S
C1947 C1948 1.410 . S
C1947 C1955 1.503 . S
C1948 C1947 1.410 . S
C1948 C1949 1.392 . S
C1948 C1951 1.511 . S
C1949 C1945 1.376 . S
C1949 C1948 1.392 . S
C1949 H1961 0.929 . S
C1950 C1946 1.531 . S
C1950 H1962 0.960 . S
C1950 H1963 0.962 . S
C1950 H1964 0.960 . S
C1951 C1948 1.511 . S
C1951 H1965 0.961 . S
C1951 H1966 0.961 . S
C1951 H1967 0.961 . S
C1952 C1953 1.370 . S
C1952 C1954 1.363 . S
C1952 H1968 0.931 . S
C1953 C1952 1.370 . S
C1953 C1957 1.408 . S
C1954 C1952 1.363 . S
C1954 C1955 1.370 . S
C1954 C1958 1.524 . S
C1955 C1947 1.503 . S
C1955 C1954 1.370 . S
C1955 C1956 1.403 . S
C1956 C1955 1.403 . S
C1956 C1957 1.404 . S
C1956 C1959 1.539 . S
C1957 C1953 1.408 . S
C1957 C1956 1.404 . S
C1957 H1969 0.930 . S
C1958 C1954 1.524 . S
C1958 H1970 0.956 . S
C1958 H1971 0.961 . S
C1958 H1972 0.961 . S
C1959 C1956 1.539 . S
C1959 H1973 0.958 . S
C1959 H1974 0.961 . S
C1959 H1975 0.960 . S
H1960 C1944 0.931 . S
H1961 C1949 0.929 . S
H1962 C1950 0.960 . S
H1963 C1950 0.962 . S
H1964 C1950 0.960 . S
H1965 C1951 0.961 . S
H1966 C1951 0.961 . S
H1967 C1951 0.961 . S
H1968 C1952 0.931 . S
H1969 C1957 0.930 . S
H1970 C1958 0.956 . S
H1971 C1958 0.961 . S
H1972 C1958 0.961 . S
H1973 C1959 0.958 . S
H1974 C1959 0.961 . S
H1975 C1959 0.960 . S
C1976 C1977 1.391 . S
C1976 C1978 1.394 . S
C1976 H1992 0.931 . S
C1977 C1976 1.391 . S
C1977 C1981 1.376 . S
C1978 C1976 1.394 . S
C1978 C1979 1.369 . S
C1978 C1982 1.531 . S
C1979 C1978 1.369 . S
C1979 C1980 1.410 . S
C1979 C1987 1.503 . S
C1980 C1979 1.410 . S
C1980 C1981 1.392 . S
C1980 C1983 1.511 . S
C1981 C1977 1.376 . S
C1981 C1980 1.392 . S
C1981 H1993 0.929 . S
C1982 C1978 1.531 . S
C1982 H1994 0.960 . S
C1982 H1995 0.962 . S
C1982 H1996 0.960 . S
C1983 C1980 1.511 . S
C1983 H1997 0.961 . S
C1983 H1998 0.961 . S
C1983 H1999 0.961 . S
C1984 C1985 1.370 . S
C1984 C1986 1.363 . S
C1984 H2000 0.931 . S
C1985 C1984 1.370 . S
C1985 C1989 1.408 . S
C1986 C1984 1.363 . S
C1986 C1987 1.370 . S
C1986 C1990 1.524 . S
C1987 C1979 1.503 . S
C1987 C1986 1.370 . S
C1987 C1988 1.403 . S
C1988 C1987 1.403 . S
C1988 C1989 1.404 . S
C1988 C1991 1.539 . S
C1989 C1985 1.408 . S
C1989 C1988 1.404 . S
C1989 H2001 0.930 . S
C1990 C1986 1.524 . S
C1990 H2002 0.956 . S
C1990 H2003 0.961 . S
C1990 H2004 0.961 . S
C1991 C1988 1.539 . S
C1991 H2005 0.958 . S
C1991 H2006 0.961 . S
C1991 H2007 0.960 . S
H1992 C1976 0.931 . S
H1993 C1981 0.929 . S
H1994 C1982 0.960 . S
H1995 C1982 0.962 . S
H1996 C1982 0.960 . S
H1997 C1983 0.961 . S
H1998 C1983 0.961 . S
H1999 C1983 0.961 . S
H2000 C1984 0.931 . S
H2001 C1989 0.930 . S
H2002 C1990 0.956 . S
H2003 C1990 0.961 . S
H2004 C1990 0.961 . S
H2005 C1991 0.958 . S
H2006 C1991 0.961 . S
H2007 C1991 0.960 . S
C2008 C2009 1.391 . S
C2008 C2010 1.394 . S
C2008 H2024 0.931 . S
C2009 C2008 1.391 . S
C2009 C2013 1.376 . S
C2010 C2008 1.394 . S
C2010 C2011 1.369 . S
C2010 C2014 1.531 . S
C2011 C2010 1.369 . S
C2011 C2012 1.410 . S
C2011 C2019 1.503 . S
C2012 C2011 1.410 . S
C2012 C2013 1.392 . S
C2012 C2015 1.511 . S
C2013 C2009 1.376 . S
C2013 C2012 1.392 . S
C2013 H2025 0.929 . S
C2014 C2010 1.531 . S
C2014 H2026 0.960 . S
C2014 H2027 0.962 . S
C2014 H2028 0.960 . S
C2015 C2012 1.511 . S
C2015 H2029 0.961 . S
C2015 H2030 0.961 . S
C2015 H2031 0.961 . S
C2016 C2017 1.370 . S
C2016 C2018 1.363 . S
C2016 H2032 0.931 . S
C2017 C2016 1.370 . S
C2017 C2021 1.408 . S
C2018 C2016 1.363 . S
C2018 C2019 1.370 . S
C2018 C2022 1.524 . S
C2019 C2011 1.503 . S
C2019 C2018 1.370 . S
C2019 C2020 1.403 . S
C2020 C2019 1.403 . S
C2020 C2021 1.404 . S
C2020 C2023 1.539 . S
C2021 C2017 1.408 . S
C2021 C2020 1.404 . S
C2021 H2033 0.930 . S
C2022 C2018 1.524 . S
C2022 H2034 0.956 . S
C2022 H2035 0.961 . S
C2022 H2036 0.961 . S
C2023 C2020 1.539 . S
C2023 H2037 0.958 . S
C2023 H2038 0.961 . S
C2023 H2039 0.960 . S
H2024 C2008 0.931 . S
H2025 C2013 0.929 . S
H2026 C2014 0.960 . S
H2027 C2014 0.962 . S
H2028 C2014 0.960 . S
H2029 C2015 0.961 . S
H2030 C2015 0.961 . S
H2031 C2015 0.961 . S
H2032 C2016 0.931 . S
H2033 C2021 0.930 . S
H2034 C2022 0.956 . S
H2035 C2022 0.961 . S
H2036 C2022 0.961 . S
H2037 C2023 0.958 . S
H2038 C2023 0.961 . S
H2039 C2023 0.960 . S
C2040 C2041 1.391 . S
C2040 C2042 1.394 . S
C2040 H2056 0.931 . S
C2041 C2040 1.391 . S
C2041 C2045 1.376 . S
C2042 C2040 1.394 . S
C2042 C2043 1.369 . S
C2042 C2046 1.531 . S
C2043 C2042 1.369 . S
C2043 C2044 1.410 . S
C2043 C2051 1.503 . S
C2044 C2043 1.410 . S
C2044 C2045 1.392 . S
C2044 C2047 1.511 . S
C2045 C2041 1.376 . S
C2045 C2044 1.392 . S
C2045 H2057 0.929 . S
C2046 C2042 1.531 . S
C2046 H2058 0.960 . S
C2046 H2059 0.962 . S
C2046 H2060 0.960 . S
C2047 C2044 1.511 . S
C2047 H2061 0.961 . S
C2047 H2062 0.961 . S
C2047 H2063 0.961 . S
C2048 C2049 1.370 . S
C2048 C2050 1.363 . S
C2048 H2064 0.931 . S
C2049 C2048 1.370 . S
C2049 C2053 1.408 . S
C2050 C2048 1.363 . S
C2050 C2051 1.370 . S
C2050 C2054 1.524 . S
C2051 C2043 1.503 . S
C2051 C2050 1.370 . S
C2051 C2052 1.403 . S
C2052 C2051 1.403 . S
C2052 C2053 1.404 . S
C2052 C2055 1.539 . S
C2053 C2049 1.408 . S
C2053 C2052 1.404 . S
C2053 H2065 0.930 . S
C2054 C2050 1.524 . S
C2054 H2066 0.956 . S
C2054 H2067 0.961 . S
C2054 H2068 0.961 . S
C2055 C2052 1.539 . S
C2055 H2069 0.958 . S
C2055 H2070 0.961 . S
C2055 H2071 0.960 . S
H2056 C2040 0.931 . S
H2057 C2045 0.929 . S
H2058 C2046 0.960 . S
H2059 C2046 0.962 . S
H2060 C2046 0.960 . S
H2061 C2047 0.961 . S
H2062 C2047 0.961 . S
H2063 C2047 0.961 . S
H2064 C2048 0.931 . S
H2065 C2053 0.930 . S
H2066 C2054 0.956 . S
H2067 C2054 0.961 . S
H2068 C2054 0.961 . S
H2069 C2055 0.958 . S
H2070 C2055 0.961 . S
H2071 C2055 0.960 . S
C2072 C2073 1.391 . S
C2072 C2074 1.394 . S
C2072 H2088 0.931 . S
C2073 C2072 1.391 . S
C2073 C2077 1.376 . S
C2074 C2072 1.394 . S
C2074 C2075 1.369 . S
C2074 C2078 1.531 . S
C2075 C2074 1.369 . S
C2075 C2076 1.410 . S
C2075 C2083 1.503 . S
C2076 C2075 1.410 . S
C2076 C2077 1.392 . S
C2076 C2079 1.511 . S
C2077 C2073 1.376 . S
C2077 C2076 1.392 . S
C2077 H2089 0.929 . S
C2078 C2074 1.531 . S
C2078 H2090 0.960 . S
C2078 H2091 0.962 . S
C2078 H2092 0.960 . S
C2079 C2076 1.511 . S
C2079 H2093 0.961 . S
C2079 H2094 0.961 . S
C2079 H2095 0.961 . S
C2080 C2081 1.370 . S
C2080 C2082 1.363 . S
C2080 H2096 0.931 . S
C2081 C2080 1.370 . S
C2081 C2085 1.408 . S
C2082 C2080 1.363 . S
C2082 C2083 1.370 . S
C2082 C2086 1.524 . S
C2083 C2075 1.503 . S
C2083 C2082 1.370 . S
C2083 C2084 1.403 . S
C2084 C2083 1.403 . S
C2084 C2085 1.404 . S
C2084 C2087 1.539 . S
C2085 C2081 1.408 . S
C2085 C2084 1.404 . S
C2085 H2097 0.930 . S
C2086 C2082 1.524 . S
C2086 H2098 0.956 . S
C2086 H2099 0.961 . S
C2086 H2100 0.961 . S
C2087 C2084 1.539 . S
C2087 H2101 0.958 . S
C2087 H2102 0.961 . S
C2087 H2103 0.960 . S
H2088 C2072 0.931 . S
H2089 C2077 0.929 . S
H2090 C2078 0.960 . S
H2091 C2078 0.962 . S
H2092 C2078 0.960 . S
H2093 C2079 0.961 . S
H2094 C2079 0.961 . S
H2095 C2079 0.961 . S
H2096 C2080 0.931 . S
H2097 C2085 0.930 . S
H2098 C2086 0.956 . S
H2099 C2086 0.961 . S
H2100 C2086 0.961 . S
H2101 C2087 0.958 . S
H2102 C2087 0.961 . S
H2103 C2087 0.960 . S
C2104 C2105 1.391 . S
C2104 C2106 1.394 . S
C2104 H2120 0.931 . S
C2105 C2104 1.391 . S
C2105 C2109 1.376 . S
C2106 C2104 1.394 . S
C2106 C2107 1.369 . S
C2106 C2110 1.531 . S
C2107 C2106 1.369 . S
C2107 C2108 1.410 . S
C2107 C2115 1.503 . S
C2108 C2107 1.410 . S
C2108 C2109 1.392 . S
C2108 C2111 1.511 . S
C2109 C2105 1.376 . S
C2109 C2108 1.392 . S
C2109 H2121 0.929 . S
C2110 C2106 1.531 . S
C2110 H2122 0.960 . S
C2110 H2123 0.962 . S
C2110 H2124 0.960 . S
C2111 C2108 1.511 . S
C2111 H2125 0.961 . S
C2111 H2126 0.961 . S
C2111 H2127 0.961 . S
C2112 C2113 1.370 . S
C2112 C2114 1.363 . S
C2112 H2128 0.931 . S
C2113 C2112 1.370 . S
C2113 C2117 1.408 . S
C2114 C2112 1.363 . S
C2114 C2115 1.370 . S
C2114 C2118 1.524 . S
C2115 C2107 1.503 . S
C2115 C2114 1.370 . S
C2115 C2116 1.403 . S
C2116 C2115 1.403 . S
C2116 C2117 1.404 . S
C2116 C2119 1.539 . S
C2117 C2113 1.408 . S
C2117 C2116 1.404 . S
C2117 H2129 0.930 . S
C2118 C2114 1.524 . S
C2118 H2130 0.956 . S
C2118 H2131 0.961 . S
C2118 H2132 0.961 . S
C2119 C2116 1.539 . S
C2119 H2133 0.958 . S
C2119 H2134 0.961 . S
C2119 H2135 0.960 . S
H2120 C2104 0.931 . S
H2121 C2109 0.929 . S
H2122 C2110 0.960 . S
H2123 C2110 0.962 . S
H2124 C2110 0.960 . S
H2125 C2111 0.961 . S
H2126 C2111 0.961 . S
H2127 C2111 0.961 . S
H2128 C2112 0.931 . S
H2129 C2117 0.930 . S
H2130 C2118 0.956 . S
H2131 C2118 0.961 . S
H2132 C2118 0.961 . S
H2133 C2119 0.958 . S
H2134 C2119 0.961 . S
H2135 C2119 0.960 . S
C2136 C2137 1.391 . S
C2136 C2138 1.394 . S
C2136 H2152 0.931 . S
C2137 C2136 1.391 . S
C2137 C2141 1.376 . S
C2138 C2136 1.394 . S
C2138 C2139 1.369 . S
C2138 C2142 1.531 . S
C2139 C2138 1.369 . S
C2139 C2140 1.410 . S
C2139 C2147 1.503 . S
C2140 C2139 1.410 . S
C2140 C2141 1.392 . S
C2140 C2143 1.511 . S
C2141 C2137 1.376 . S
C2141 C2140 1.392 . S
C2141 H2153 0.929 . S
C2142 C2138 1.531 . S
C2142 H2154 0.960 . S
C2142 H2155 0.962 . S
C2142 H2156 0.960 . S
C2143 C2140 1.511 . S
C2143 H2157 0.961 . S
C2143 H2158 0.961 . S
C2143 H2159 0.961 . S
C2144 C2145 1.370 . S
C2144 C2146 1.363 . S
C2144 H2160 0.931 . S
C2145 C2144 1.370 . S
C2145 C2149 1.408 . S
C2146 C2144 1.363 . S
C2146 C2147 1.370 . S
C2146 C2150 1.524 . S
C2147 C2139 1.503 . S
C2147 C2146 1.370 . S
C2147 C2148 1.403 . S
C2148 C2147 1.403 . S
C2148 C2149 1.404 . S
C2148 C2151 1.539 . S
C2149 C2145 1.408 . S
C2149 C2148 1.404 . S
C2149 H2161 0.930 . S
C2150 C2146 1.524 . S
C2150 H2162 0.956 . S
C2150 H2163 0.961 . S
C2150 H2164 0.961 . S
C2151 C2148 1.539 . S
C2151 H2165 0.958 . S
C2151 H2166 0.961 . S
C2151 H2167 0.960 . S
H2152 C2136 0.931 . S
H2153 C2141 0.929 . S
H2154 C2142 0.960 . S
H2155 C2142 0.962 . S
H2156 C2142 0.960 . S
H2157 C2143 0.961 . S
H2158 C2143 0.961 . S
H2159 C2143 0.961 . S
H2160 C2144 0.931 . S
H2161 C2149 0.930 . S
H2162 C2150 0.956 . S
H2163 C2150 0.961 . S
H2164 C2150 0.961 . S
H2165 C2151 0.958 . S
H2166 C2151 0.961 . S
H2167 C2151 0.960 . S
C2168 C2169 1.391 . S
C2168 C2170 1.394 . S
C2168 H2184 0.931 . S
C2169 C2168 1.391 . S
C2169 C2173 1.376 . S
C2170 C2168 1.394 . S
C2170 C2171 1.369 . S
C2170 C2174 1.531 . S
C2171 C2170 1.369 . S
C2171 C2172 1.410 . S
C2171 C2179 1.503 . S
C2172 C2171 1.410 . S
C2172 C2173 1.392 . S
C2172 C2175 1.511 . S
C2173 C2169 1.376 . S
C2173 C2172 1.392 . S
C2173 H2185 0.929 . S
C2174 C2170 1.531 . S
C2174 H2186 0.960 . S
C2174 H2187 0.962 . S
C2174 H2188 0.960 . S
C2175 C2172 1.511 . S
C2175 H2189 0.961 . S
C2175 H2190 0.961 . S
C2175 H2191 0.961 . S
C2176 C2177 1.370 . S
C2176 C2178 1.363 . S
C2176 H2192 0.931 . S
C2177 C2176 1.370 . S
C2177 C2181 1.408 . S
C2178 C2176 1.363 . S
C2178 C2179 1.370 . S
C2178 C2182 1.524 . S
C2179 C2171 1.503 . S
C2179 C2178 1.370 . S
C2179 C2180 1.403 . S
C2180 C2179 1.403 . S
C2180 C2181 1.404 . S
C2180 C2183 1.539 . S
C2181 C2177 1.408 . S
C2181 C2180 1.404 . S
C2181 H2193 0.930 . S
C2182 C2178 1.524 . S
C2182 H2194 0.956 . S
C2182 H2195 0.961 . S
C2182 H2196 0.961 . S
C2183 C2180 1.539 . S
C2183 H2197 0.958 . S
C2183 H2198 0.961 . S
C2183 H2199 0.960 . S
H2184 C2168 0.931 . S
H2185 C2173 0.929 . S
H2186 C2174 0.960 . S
H2187 C2174 0.962 . S
H2188 C2174 0.960 . S
H2189 C2175 0.961 . S
H2190 C2175 0.961 . S
H2191 C2175 0.961 . S
H2192 C2176 0.931 . S
H2193 C2181 0.930 . S
H2194 C2182 0.956 . S
H2195 C2182 0.961 . S
H2196 C2182 0.961 . S
H2197 C2183 0.958 . S
H2198 C2183 0.961 . S
H2199 C2183 0.960 . S
C2200 C2201 1.391 . S
C2200 C2202 1.394 . S
C2200 H2216 0.931 . S
C2201 C2200 1.391 . S
C2201 C2205 1.376 . S
C2202 C2200 1.394 . S
C2202 C2203 1.369 . S
C2202 C2206 1.531 . S
C2203 C2202 1.369 . S
C2203 C2204 1.410 . S
C2203 C2211 1.503 . S
C2204 C2203 1.410 . S
C2204 C2205 1.392 . S
C2204 C2207 1.511 . S
C2205 C2201 1.376 . S
C2205 C2204 1.392 . S
C2205 H2217 0.929 . S
C2206 C2202 1.531 . S
C2206 H2218 0.960 . S
C2206 H2219 0.962 . S
C2206 H2220 0.960 . S
C2207 C2204 1.511 . S
C2207 H2221 0.961 . S
C2207 H2222 0.961 . S
C2207 H2223 0.961 . S
C2208 C2209 1.370 . S
C2208 C2210 1.363 . S
C2208 H2224 0.931 . S
C2209 C2208 1.370 . S
C2209 C2213 1.408 . S
C2210 C2208 1.363 . S
C2210 C2211 1.370 . S
C2210 C2214 1.524 . S
C2211 C2203 1.503 . S
C2211 C2210 1.370 . S
C2211 C2212 1.403 . S
C2212 C2211 1.403 . S
C2212 C2213 1.404 . S
C2212 C2215 1.539 . S
C2213 C2209 1.408 . S
C2213 C2212 1.404 . S
C2213 H2225 0.930 . S
C2214 C2210 1.524 . S
C2214 H2226 0.956 . S
C2214 H2227 0.961 . S
C2214 H2228 0.961 . S
C2215 C2212 1.539 . S
C2215 H2229 0.958 . S
C2215 H2230 0.961 . S
C2215 H2231 0.960 . S
H2216 C2200 0.931 . S
H2217 C2205 0.929 . S
H2218 C2206 0.960 . S
H2219 C2206 0.962 . S
H2220 C2206 0.960 . S
H2221 C2207 0.961 . S
H2222 C2207 0.961 . S
H2223 C2207 0.961 . S
H2224 C2208 0.931 . S
H2225 C2213 0.930 . S
H2226 C2214 0.956 . S
H2227 C2214 0.961 . S
H2228 C2214 0.961 . S
H2229 C2215 0.958 . S
H2230 C2215 0.961 . S
H2231 C2215 0.960 . S
C2232 C2233 1.391 . S
C2232 C2234 1.394 . S
C2232 H2248 0.931 . S
C2233 C2232 1.391 . S
C2233 C2237 1.376 . S
C2234 C2232 1.394 . S
C2234 C2235 1.369 . S
C2234 C2238 1.531 . S
C2235 C2234 1.369 . S
C2235 C2236 1.410 . S
C2235 C2243 1.503 . S
C2236 C2235 1.410 . S
C2236 C2237 1.392 . S
C2236 C2239 1.511 . S
C2237 C2233 1.376 . S
C2237 C2236 1.392 . S
C2237 H2249 0.929 . S
C2238 C2234 1.531 . S
C2238 H2250 0.960 . S
C2238 H2251 0.962 . S
C2238 H2252 0.960 . S
C2239 C2236 1.511 . S
C2239 H2253 0.961 . S
C2239 H2254 0.961 . S
C2239 H2255 0.961 . S
C2240 C2241 1.370 . S
C2240 C2242 1.363 . S
C2240 H2256 0.931 . S
C2241 C2240 1.370 . S
C2241 C2245 1.408 . S
C2242 C2240 1.363 . S
C2242 C2243 1.370 . S
C2242 C2246 1.524 . S
C2243 C2235 1.503 . S
C2243 C2242 1.370 . S
C2243 C2244 1.403 . S
C2244 C2243 1.403 . S
C2244 C2245 1.404 . S
C2244 C2247 1.539 . S
C2245 C2241 1.408 . S
C2245 C2244 1.404 . S
C2245 H2257 0.930 . S
C2246 C2242 1.524 . S
C2246 H2258 0.956 . S
C2246 H2259 0.961 . S
C2246 H2260 0.961 . S
C2247 C2244 1.539 . S
C2247 H2261 0.958 . S
C2247 H2262 0.961 . S
C2247 H2263 0.960 . S
H2248 C2232 0.931 . S
H2249 C2237 0.929 . S
H2250 C2238 0.960 . S
H2251 C2238 0.962 . S
H2252 C2238 0.960 . S
H2253 C2239 0.961 . S
H2254 C2239 0.961 . S
H2255 C2239 0.961 . S
H2256 C2240 0.931 . S
H2257 C2245 0.930 . S
H2258 C2246 0.956 . S
H2259 C2246 0.961 . S
H2260 C2246 0.961 . S
H2261 C2247 0.958 . S
H2262 C2247 0.961 . S
H2263 C2247 0.960 . S
C2264 C2265 1.391 . S
C2264 C2266 1.394 . S
C2264 H2280 0.931 . S
C2265 C2264 1.391 . S
C2265 C2269 1.376 . S
C2266 C2264 1.394 . S
C2266 C2267 1.369 . S
C2266 C2270 1.531 1_565 S
C2267 C2266 1.369 . S
C2267 C2268 1.410 . S
C2267 C2275 1.503 . S
C2268 C2267 1.410 . S
C2268 C2269 1.392 . S
C2268 C2271 1.511 . S
C2269 C2265 1.376 . S
C2269 C2268 1.392 . S
C2269 H2281 0.929 . S
C2270 C2266 1.531 1_545 S
C2270 H2282 0.960 . S
C2270 H2283 0.962 . S
C2270 H2284 0.960 . S
C2271 C2268 1.511 . S
C2271 H2285 0.961 . S
C2271 H2286 0.961 . S
C2271 H2287 0.961 . S
C2272 C2273 1.370 . S
C2272 C2274 1.363 1_545 S
C2272 H2288 0.931 . S
C2273 C2272 1.370 . S
C2273 C2277 1.408 1_545 S
C2274 C2272 1.363 1_565 S
C2274 C2275 1.370 . S
C2274 C2278 1.524 . S
C2275 C2267 1.503 . S
C2275 C2274 1.370 . S
C2275 C2276 1.403 . S
C2276 C2275 1.403 . S
C2276 C2277 1.404 . S
C2276 C2279 1.539 . S
C2277 C2273 1.408 1_565 S
C2277 C2276 1.404 . S
C2277 H2289 0.930 . S
C2278 C2274 1.524 . S
C2278 H2290 0.956 1_565 S
C2278 H2291 0.961 . S
C2278 H2292 0.961 1_565 S
C2279 C2276 1.539 . S
C2279 H2293 0.958 . S
C2279 H2294 0.961 . S
C2279 H2295 0.960 . S
H2280 C2264 0.931 . S
H2281 C2269 0.929 . S
H2282 C2270 0.960 . S
H2283 C2270 0.962 . S
H2284 C2270 0.960 . S
H2285 C2271 0.961 . S
H2286 C2271 0.961 . S
H2287 C2271 0.961 . S
H2288 C2272 0.931 . S
H2289 C2277 0.930 . S
H2290 C2278 0.956 1_545 S
H2291 C2278 0.961 . S
H2292 C2278 0.961 1_545 S
H2293 C2279 0.958 . S
H2294 C2279 0.961 . S
H2295 C2279 0.960 . S
C2296 C2297 1.391 1_455 S
C2296 C2298 1.394 . S
C2296 H2312 0.931 . S
C2297 C2296 1.391 1_655 S
C2297 C2301 1.376 . S
C2298 C2296 1.394 . S
C2298 C2299 1.369 . S
C2298 C2302 1.531 . S
C2299 C2298 1.369 . S
C2299 C2300 1.410 1_455 S
C2299 C2307 1.503 . S
C2300 C2299 1.410 1_655 S
C2300 C2301 1.392 . S
C2300 C2303 1.511 . S
C2301 C2297 1.376 . S
C2301 C2300 1.392 . S
C2301 H2313 0.929 . S
C2302 C2298 1.531 . S
C2302 H2314 0.960 . S
C2302 H2315 0.962 . S
C2302 H2316 0.960 . S
C2303 C2300 1.511 . S
C2303 H2317 0.961 . S
C2303 H2318 0.961 . S
C2303 H2319 0.961 . S
C2304 C2305 1.370 . S
C2304 C2306 1.363 . S
C2304 H2320 0.931 . S
C2305 C2304 1.370 . S
C2305 C2309 1.408 . S
C2306 C2304 1.363 . S
C2306 C2307 1.370 . S
C2306 C2310 1.524 . S
C2307 C2299 1.503 . S
C2307 C2306 1.370 . S
C2307 C2308 1.403 . S
C2308 C2307 1.403 . S
C2308 C2309 1.404 . S
C2308 C2311 1.539 . S
C2309 C2305 1.408 . S
C2309 C2308 1.404 . S
C2309 H2321 0.930 . S
C2310 C2306 1.524 . S
C2310 H2322 0.956 . S
C2310 H2323 0.961 . S
C2310 H2324 0.961 . S
C2311 C2308 1.539 . S
C2311 H2325 0.958 . S
C2311 H2326 0.961 . S
C2311 H2327 0.960 . S
H2312 C2296 0.931 . S
H2313 C2301 0.929 . S
H2314 C2302 0.960 . S
H2315 C2302 0.962 . S
H2316 C2302 0.960 . S
H2317 C2303 0.961 . S
H2318 C2303 0.961 . S
H2319 C2303 0.961 . S
H2320 C2304 0.931 . S
H2321 C2309 0.930 . S
H2322 C2310 0.956 . S
H2323 C2310 0.961 . S
H2324 C2310 0.961 . S
H2325 C2311 0.958 . S
H2326 C2311 0.961 . S
H2327 C2311 0.960 . S
C2328 C2329 1.391 . S
C2328 C2330 1.394 . S
C2328 H2344 0.931 . S
C2329 C2328 1.391 . S
C2329 C2333 1.376 . S
C2330 C2328 1.394 . S
C2330 C2331 1.369 . S
C2330 C2334 1.531 . S
C2331 C2330 1.369 . S
C2331 C2332 1.410 . S
C2331 C2339 1.503 . S
C2332 C2331 1.410 . S
C2332 C2333 1.392 . S
C2332 C2335 1.511 . S
C2333 C2329 1.376 . S
C2333 C2332 1.392 . S
C2333 H2345 0.929 . S
C2334 C2330 1.531 . S
C2334 H2346 0.960 . S
C2334 H2347 0.962 . S
C2334 H2348 0.960 . S
C2335 C2332 1.511 . S
C2335 H2349 0.961 . S
C2335 H2350 0.961 . S
C2335 H2351 0.961 . S
C2336 C2337 1.370 . S
C2336 C2338 1.363 . S
C2336 H2352 0.931 . S
C2337 C2336 1.370 . S
C2337 C2341 1.408 . S
C2338 C2336 1.363 . S
C2338 C2339 1.370 . S
C2338 C2342 1.524 . S
C2339 C2331 1.503 . S
C2339 C2338 1.370 . S
C2339 C2340 1.403 . S
C2340 C2339 1.403 . S
C2340 C2341 1.404 . S
C2340 C2343 1.539 . S
C2341 C2337 1.408 . S
C2341 C2340 1.404 . S
C2341 H2353 0.930 . S
C2342 C2338 1.524 . S
C2342 H2354 0.956 . S
C2342 H2355 0.961 . S
C2342 H2356 0.961 . S
C2343 C2340 1.539 . S
C2343 H2357 0.958 . S
C2343 H2358 0.961 . S
C2343 H2359 0.960 . S
H2344 C2328 0.931 . S
H2345 C2333 0.929 . S
H2346 C2334 0.960 . S
H2347 C2334 0.962 . S
H2348 C2334 0.960 . S
H2349 C2335 0.961 . S
H2350 C2335 0.961 . S
H2351 C2335 0.961 . S
H2352 C2336 0.931 . S
H2353 C2341 0.930 . S
H2354 C2342 0.956 . S
H2355 C2342 0.961 . S
H2356 C2342 0.961 . S
H2357 C2343 0.958 . S
H2358 C2343 0.961 . S
H2359 C2343 0.960 . S
C2360 C2361 1.391 . S
C2360 C2362 1.394 . S
C2360 H2376 0.931 . S
C2361 C2360 1.391 . S
C2361 C2365 1.376 . S
C2362 C2360 1.394 . S
C2362 C2363 1.369 . S
C2362 C2366 1.531 . S
C2363 C2362 1.369 . S
C2363 C2364 1.410 . S
C2363 C2371 1.503 . S
C2364 C2363 1.410 . S
C2364 C2365 1.392 . S
C2364 C2367 1.511 . S
C2365 C2361 1.376 . S
C2365 C2364 1.392 . S
C2365 H2377 0.929 . S
C2366 C2362 1.531 . S
C2366 H2378 0.960 . S
C2366 H2379 0.962 1_545 S
C2366 H2380 0.960 . S
C2367 C2364 1.511 . S
C2367 H2381 0.961 . S
C2367 H2382 0.961 . S
C2367 H2383 0.961 . S
C2368 C2369 1.370 . S
C2368 C2370 1.362 . S
C2368 H2384 0.931 . S
C2369 C2368 1.370 . S
C2369 C2373 1.408 1_565 S
C2370 C2368 1.362 . S
C2370 C2371 1.372 1_565 S
C2370 C2374 1.524 . S
C2371 C2363 1.503 . S
C2371 C2370 1.372 1_545 S
C2371 C2372 1.403 . S
C2372 C2371 1.403 . S
C2372 C2373 1.404 . S
C2372 C2375 1.539 . S
C2373 C2369 1.408 1_545 S
C2373 C2372 1.404 . S
C2373 H2385 0.930 . S
C2374 C2370 1.524 . S
C2374 H2386 0.956 . S
C2374 H2387 0.961 1_565 S
C2374 H2388 0.961 . S
C2375 C2372 1.539 . S
C2375 H2389 0.958 . S
C2375 H2390 0.961 . S
C2375 H2391 0.960 . S
H2376 C2360 0.931 . S
H2377 C2365 0.929 . S
H2378 C2366 0.960 . S
H2379 C2366 0.962 1_565 S
H2380 C2366 0.960 . S
H2381 C2367 0.961 . S
H2382 C2367 0.961 . S
H2383 C2367 0.961 . S
H2384 C2368 0.931 . S
H2385 C2373 0.930 . S
H2386 C2374 0.956 . S
H2387 C2374 0.961 1_545 S
H2388 C2374 0.961 . S
H2389 C2375 0.958 . S
H2390 C2375 0.961 . S
H2391 C2375 0.960 . S
C2392 C2393 1.391 1_655 S
C2392 C2394 1.394 . S
C2392 H2408 0.931 . S
C2393 C2392 1.391 1_455 S
C2393 C2397 1.376 . S
C2394 C2392 1.394 . S
C2394 C2395 1.369 . S
C2394 C2398 1.531 . S
C2395 C2394 1.369 . S
C2395 C2396 1.404 1_655 S
C2395 C2403 1.503 . S
C2396 C2395 1.404 1_455 S
C2396 C2397 1.393 . S
C2396 C2399 1.516 . S
C2397 C2393 1.376 . S
C2397 C2396 1.393 . S
C2397 H2409 0.929 . S
C2398 C2394 1.531 . S
C2398 H2410 0.960 . S
C2398 H2411 0.962 . S
C2398 H2412 0.960 . S
C2399 C2396 1.516 . S
C2399 H2413 0.961 . S
C2399 H2414 0.961 . S
C2399 H2415 0.942 1_455 S
C2400 C2401 1.370 . S
C2400 C2402 1.363 . S
C2400 H2416 0.931 . S
C2401 C2400 1.370 . S
C2401 C2405 1.408 . S
C2402 C2400 1.363 . S
C2402 C2403 1.370 . S
C2402 C2406 1.524 . S
C2403 C2395 1.503 . S
C2403 C2402 1.370 . S
C2403 C2404 1.403 . S
C2404 C2403 1.403 . S
C2404 C2405 1.404 . S
C2404 C2407 1.539 . S
C2405 C2401 1.408 . S
C2405 C2404 1.404 . S
C2405 H2417 0.930 . S
C2406 C2402 1.524 . S
C2406 H2418 0.956 . S
C2406 H2419 0.961 1_655 S
C2406 H2420 0.961 1_655 S
C2407 C2404 1.539 . S
C2407 H2421 0.958 . S
C2407 H2422 0.961 . S
C2407 H2423 0.960 . S
H2408 C2392 0.931 . S
H2409 C2397 0.929 . S
H2410 C2398 0.960 . S
H2411 C2398 0.962 . S
H2412 C2398 0.960 . S
H2413 C2399 0.961 . S
H2414 C2399 0.961 . S
H2415 C2399 0.942 1_655 S
H2416 C2400 0.931 . S
H2417 C2405 0.930 . S
H2418 C2406 0.956 . S
H2419 C2406 0.961 1_455 S
H2420 C2406 0.961 1_455 S
H2421 C2407 0.958 . S
H2422 C2407 0.961 . S
H2423 C2407 0.960 . S
C2424 C2425 1.391 . S
C2424 C2426 1.394 . S
C2424 H2440 0.931 . S
C2425 C2424 1.391 . S
C2425 C2429 1.376 . S
C2426 C2424 1.394 . S
C2426 C2427 1.369 . S
C2426 C2430 1.531 . S
C2427 C2426 1.369 . S
C2427 C2428 1.410 . S
C2427 C2435 1.503 . S
C2428 C2427 1.410 . S
C2428 C2429 1.392 . S
C2428 C2431 1.511 . S
C2429 C2425 1.376 . S
C2429 C2428 1.392 . S
C2429 H2441 0.929 . S
C2430 C2426 1.531 . S
C2430 H2442 0.960 . S
C2430 H2443 0.962 . S
C2430 H2444 0.960 . S
C2431 C2428 1.511 . S
C2431 H2445 0.961 . S
C2431 H2446 0.961 . S
C2431 H2447 0.961 . S
C2432 C2433 1.370 . S
C2432 C2434 1.363 . S
C2432 H2448 0.931 . S
C2433 C2432 1.370 . S
C2433 C2437 1.408 . S
C2434 C2432 1.363 . S
C2434 C2435 1.370 . S
C2434 C2438 1.524 . S
C2435 C2427 1.503 . S
C2435 C2434 1.370 . S
C2435 C2436 1.403 . S
C2436 C2435 1.403 . S
C2436 C2437 1.404 . S
C2436 C2439 1.539 . S
C2437 C2433 1.408 . S
C2437 C2436 1.404 . S
C2437 H2449 0.930 . S
C2438 C2434 1.524 . S
C2438 H2450 0.956 . S
C2438 H2451 0.961 . S
C2438 H2452 0.961 . S
C2439 C2436 1.539 . S
C2439 H2453 0.958 . S
C2439 H2454 0.961 . S
C2439 H2455 0.960 . S
H2440 C2424 0.931 . S
H2441 C2429 0.929 . S
H2442 C2430 0.960 . S
H2443 C2430 0.962 . S
H2444 C2430 0.960 . S
H2445 C2431 0.961 . S
H2446 C2431 0.961 . S
H2447 C2431 0.961 . S
H2448 C2432 0.931 . S
H2449 C2437 0.930 . S
H2450 C2438 0.956 . S
H2451 C2438 0.961 . S
H2452 C2438 0.961 . S
H2453 C2439 0.958 . S
H2454 C2439 0.961 . S
H2455 C2439 0.960 . S
C2456 C2457 1.391 1_545 S
C2456 C2458 1.394 . S
C2456 H2472 0.931 . S
C2457 C2456 1.391 1_565 S
C2457 C2461 1.376 . S
C2458 C2456 1.394 . S
C2458 C2459 1.369 . S
C2458 C2462 1.531 . S
C2459 C2458 1.369 . S
C2459 C2460 1.410 . S
C2459 C2467 1.503 . S
C2460 C2459 1.410 . S
C2460 C2461 1.392 1_545 S
C2460 C2463 1.511 . S
C2461 C2457 1.376 . S
C2461 C2460 1.392 1_565 S
C2461 H2473 0.929 . S
C2462 C2458 1.531 . S
C2462 H2474 0.960 . S
C2462 H2475 0.962 . S
C2462 H2476 0.960 . S
C2463 C2460 1.511 . S
C2463 H2477 0.961 . S
C2463 H2478 0.961 . S
C2463 H2479 0.961 . S
C2464 C2465 1.370 . S
C2464 C2466 1.363 . S
C2464 H2480 0.931 . S
C2465 C2464 1.370 . S
C2465 C2469 1.408 . S
C2466 C2464 1.363 . S
C2466 C2467 1.370 . S
C2466 C2470 1.524 1_545 S
C2467 C2459 1.503 . S
C2467 C2466 1.370 . S
C2467 C2468 1.403 . S
C2468 C2467 1.403 . S
C2468 C2469 1.404 . S
C2468 C2471 1.539 . S
C2469 C2465 1.408 . S
C2469 C2468 1.404 . S
C2469 H2481 0.930 . S
C2470 C2466 1.524 1_565 S
C2470 H2482 0.956 . S
C2470 H2483 0.961 . S
C2470 H2484 0.961 . S
C2471 C2468 1.539 . S
C2471 H2485 0.958 . S
C2471 H2486 0.961 . S
C2471 H2487 0.960 . S
H2472 C2456 0.931 . S
H2473 C2461 0.929 . S
H2474 C2462 0.960 . S
H2475 C2462 0.962 . S
H2476 C2462 0.960 . S
H2477 C2463 0.961 . S
H2478 C2463 0.961 . S
H2479 C2463 0.961 . S
H2480 C2464 0.931 . S
H2481 C2469 0.930 . S
H2482 C2470 0.956 . S
H2483 C2470 0.961 . S
H2484 C2470 0.961 . S
H2485 C2471 0.958 . S
H2486 C2471 0.961 . S
H2487 C2471 0.960 . S
C2488 C2489 1.391 1_655 S
C2488 C2490 1.394 . S
C2488 H2504 0.931 . S
C2489 C2488 1.391 1_455 S
C2489 C2493 1.376 . S
C2490 C2488 1.394 . S
C2490 C2491 1.369 . S
C2490 C2494 1.531 . S
C2491 C2490 1.369 . S
C2491 C2492 1.410 1_655 S
C2491 C2499 1.503 . S
C2492 C2491 1.410 1_455 S
C2492 C2493 1.392 . S
C2492 C2495 1.511 . S
C2493 C2489 1.376 . S
C2493 C2492 1.392 . S
C2493 H2505 0.929 . S
C2494 C2490 1.531 . S
C2494 H2506 0.960 . S
C2494 H2507 0.962 . S
C2494 H2508 0.960 . S
C2495 C2492 1.511 . S
C2495 H2509 0.961 . S
C2495 H2510 0.961 . S
C2495 H2511 0.961 . S
C2496 C2497 1.370 . S
C2496 C2498 1.363 . S
C2496 H2512 0.931 . S
C2497 C2496 1.370 . S
C2497 C2501 1.408 . S
C2498 C2496 1.363 . S
C2498 C2499 1.370 . S
C2498 C2502 1.524 . S
C2499 C2491 1.503 . S
C2499 C2498 1.370 . S
C2499 C2500 1.403 . S
C2500 C2499 1.403 . S
C2500 C2501 1.404 . S
C2500 C2503 1.539 . S
C2501 C2497 1.408 . S
C2501 C2500 1.404 . S
C2501 H2513 0.930 . S
C2502 C2498 1.524 . S
C2502 H2514 0.956 . S
C2502 H2515 0.961 . S
C2502 H2516 0.961 . S
C2503 C2500 1.539 . S
C2503 H2517 0.958 . S
C2503 H2518 0.961 . S
C2503 H2519 0.960 . S
H2504 C2488 0.931 . S
H2505 C2493 0.929 . S
H2506 C2494 0.960 . S
H2507 C2494 0.962 . S
H2508 C2494 0.960 . S
H2509 C2495 0.961 . S
H2510 C2495 0.961 . S
H2511 C2495 0.961 . S
H2512 C2496 0.931 . S
H2513 C2501 0.930 . S
H2514 C2502 0.956 . S
H2515 C2502 0.961 . S
H2516 C2502 0.961 . S
H2517 C2503 0.958 . S
H2518 C2503 0.961 . S
H2519 C2503 0.960 . S
C2520 C2521 1.391 . S
C2520 C2522 1.394 . S
C2520 H2536 0.931 . S
C2521 C2520 1.391 . S
C2521 C2525 1.376 . S
C2522 C2520 1.394 . S
C2522 C2523 1.369 . S
C2522 C2526 1.531 . S
C2523 C2522 1.369 . S
C2523 C2524 1.410 . S
C2523 C2531 1.503 . S
C2524 C2523 1.410 . S
C2524 C2525 1.392 . S
C2524 C2527 1.511 . S
C2525 C2521 1.376 . S
C2525 C2524 1.392 . S
C2525 H2537 0.929 . S
C2526 C2522 1.531 . S
C2526 H2538 0.960 . S
C2526 H2539 0.962 . S
C2526 H2540 0.960 . S
C2527 C2524 1.511 . S
C2527 H2541 0.961 . S
C2527 H2542 0.961 . S
C2527 H2543 0.961 . S
C2528 C2529 1.370 . S
C2528 C2530 1.363 . S
C2528 H2544 0.931 . S
C2529 C2528 1.370 . S
C2529 C2533 1.408 . S
C2530 C2528 1.363 . S
C2530 C2531 1.370 . S
C2530 C2534 1.524 . S
C2531 C2523 1.503 . S
C2531 C2530 1.370 . S
C2531 C2532 1.403 . S
C2532 C2531 1.403 . S
C2532 C2533 1.404 . S
C2532 C2535 1.539 . S
C2533 C2529 1.408 . S
C2533 C2532 1.404 . S
C2533 H2545 0.930 . S
C2534 C2530 1.524 . S
C2534 H2546 0.956 . S
C2534 H2547 0.961 . S
C2534 H2548 0.961 . S
C2535 C2532 1.539 . S
C2535 H2549 0.958 . S
C2535 H2550 0.961 . S
C2535 H2551 0.960 . S
H2536 C2520 0.931 . S
H2537 C2525 0.929 . S
H2538 C2526 0.960 . S
H2539 C2526 0.962 . S
H2540 C2526 0.960 . S
H2541 C2527 0.961 . S
H2542 C2527 0.961 . S
H2543 C2527 0.961 . S
H2544 C2528 0.931 . S
H2545 C2533 0.930 . S
H2546 C2534 0.956 . S
H2547 C2534 0.961 . S
H2548 C2534 0.961 . S
H2549 C2535 0.958 . S
H2550 C2535 0.961 . S
H2551 C2535 0.960 . S
C2552 C2553 1.391 . S
C2552 C2554 1.394 . S
C2552 H2568 0.931 . S
C2553 C2552 1.391 . S
C2553 C2557 1.376 1_545 S
C2554 C2552 1.394 . S
C2554 C2555 1.369 1_545 S
C2554 C2558 1.531 . S
C2555 C2554 1.369 1_565 S
C2555 C2556 1.410 . S
C2555 C2563 1.503 . S
C2556 C2555 1.410 . S
C2556 C2557 1.392 . S
C2556 C2559 1.511 . S
C2557 C2553 1.376 1_565 S
C2557 C2556 1.392 . S
C2557 H2569 0.929 . S
C2558 C2554 1.531 . S
C2558 H2570 0.960 . S
C2558 H2571 0.962 . S
C2558 H2572 0.960 . S
C2559 C2556 1.511 . S
C2559 H2573 0.961 . S
C2559 H2574 0.961 . S
C2559 H2575 0.961 . S
C2560 C2561 1.370 . S
C2560 C2562 1.363 . S
C2560 H2576 0.931 . S
C2561 C2560 1.370 . S
C2561 C2565 1.408 . S
C2562 C2560 1.363 . S
C2562 C2563 1.370 . S
C2562 C2566 1.524 . S
C2563 C2555 1.503 . S
C2563 C2562 1.370 . S
C2563 C2564 1.403 . S
C2564 C2563 1.403 . S
C2564 C2565 1.404 . S
C2564 C2567 1.539 . S
C2565 C2561 1.408 . S
C2565 C2564 1.404 . S
C2565 H2577 0.930 . S
C2566 C2562 1.524 . S
C2566 H2578 0.956 . S
C2566 H2579 0.961 . S
C2566 H2580 0.961 . S
C2567 C2564 1.539 . S
C2567 H2581 0.958 . S
C2567 H2582 0.961 . S
C2567 H2583 0.960 . S
H2568 C2552 0.931 . S
H2569 C2557 0.929 . S
H2570 C2558 0.960 . S
H2571 C2558 0.962 . S
H2572 C2558 0.960 . S
H2573 C2559 0.961 . S
H2574 C2559 0.961 . S
H2575 C2559 0.961 . S
H2576 C2560 0.931 . S
H2577 C2565 0.930 . S
H2578 C2566 0.956 . S
H2579 C2566 0.961 . S
H2580 C2566 0.961 . S
H2581 C2567 0.958 . S
H2582 C2567 0.961 . S
H2583 C2567 0.960 . S
C2584 C2585 1.391 . S
C2584 C2586 1.394 . S
C2584 H2600 0.931 . S
C2585 C2584 1.391 . S
C2585 C2589 1.376 . S
C2586 C2584 1.394 . S
C2586 C2587 1.369 . S
C2586 C2590 1.531 1_455 S
C2587 C2586 1.369 . S
C2587 C2588 1.410 . S
C2587 C2595 1.503 . S
C2588 C2587 1.410 . S
C2588 C2589 1.392 . S
C2588 C2591 1.511 . S
C2589 C2585 1.376 . S
C2589 C2588 1.392 . S
C2589 H2601 0.929 . S
C2590 C2586 1.531 1_655 S
C2590 H2602 0.960 . S
C2590 H2603 0.962 . S
C2590 H2604 0.960 . S
C2591 C2588 1.511 . S
C2591 H2605 0.961 . S
C2591 H2606 0.961 . S
C2591 H2607 0.961 . S
C2592 C2593 1.370 . S
C2592 C2594 1.363 1_655 S
C2592 H2608 0.931 . S
C2593 C2592 1.370 . S
C2593 C2597 1.408 . S
C2594 C2592 1.363 1_455 S
C2594 C2595 1.370 . S
C2594 C2598 1.524 . S
C2595 C2587 1.503 . S
C2595 C2594 1.370 . S
C2595 C2596 1.403 . S
C2596 C2595 1.403 . S
C2596 C2597 1.404 1_455 S
C2596 C2599 1.539 . S
C2597 C2593 1.408 . S
C2597 C2596 1.404 1_655 S
C2597 H2609 0.930 . S
C2598 C2594 1.524 . S
C2598 H2610 0.956 . S
C2598 H2611 0.961 . S
C2598 H2612 0.961 . S
C2599 C2596 1.539 . S
C2599 H2613 0.958 . S
C2599 H2614 0.961 . S
C2599 H2615 0.960 . S
H2600 C2584 0.931 . S
H2601 C2589 0.929 . S
H2602 C2590 0.960 . S
H2603 C2590 0.962 . S
H2604 C2590 0.960 . S
H2605 C2591 0.961 . S
H2606 C2591 0.961 . S
H2607 C2591 0.961 . S
H2608 C2592 0.931 . S
H2609 C2597 0.930 . S
H2610 C2598 0.956 . S
H2611 C2598 0.961 . S
H2612 C2598 0.961 . S
H2613 C2599 0.958 . S
H2614 C2599 0.961 . S
H2615 C2599 0.960 . S
C2616 C2617 1.391 . S
C2616 C2618 1.394 . S
C2616 H2632 0.931 . S
C2617 C2616 1.391 . S
C2617 C2621 1.376 . S
C2618 C2616 1.394 . S
C2618 C2619 1.369 . S
C2618 C2622 1.531 . S
C2619 C2618 1.369 . S
C2619 C2620 1.410 . S
C2619 C2627 1.503 1_655 S
C2620 C2619 1.410 . S
C2620 C2621 1.392 . S
C2620 C2623 1.511 . S
C2621 C2617 1.376 . S
C2621 C2620 1.392 . S
C2621 H2633 0.929 . S
C2622 C2618 1.531 . S
C2622 H2634 0.960 1_655 S
C2622 H2635 0.962 . S
C2622 H2636 0.960 . S
C2623 C2620 1.511 . S
C2623 H2637 0.961 . S
C2623 H2638 0.961 . S
C2623 H2639 0.961 . S
C2624 C2625 1.370 . S
C2624 C2626 1.363 . S
C2624 H2640 0.931 . S
C2625 C2624 1.370 . S
C2625 C2629 1.408 . S
C2626 C2624 1.363 . S
C2626 C2627 1.370 . S
C2626 C2630 1.524 . S
C2627 C2619 1.503 1_455 S
C2627 C2626 1.370 . S
C2627 C2628 1.403 . S
C2628 C2627 1.403 . S
C2628 C2629 1.404 . S
C2628 C2631 1.539 . S
C2629 C2625 1.408 . S
C2629 C2628 1.404 . S
C2629 H2641 0.930 . S
C2630 C2626 1.524 . S
C2630 H2642 0.956 . S
C2630 H2643 0.942 1_455 S
C2630 H2644 0.961 . S
C2631 C2628 1.539 . S
C2631 H2645 0.958 . S
C2631 H2646 0.961 . S
C2631 H2647 0.960 1_455 S
H2632 C2616 0.931 . S
H2633 C2621 0.929 . S
H2634 C2622 0.960 1_455 S
H2635 C2622 0.962 . S
H2636 C2622 0.960 . S
H2637 C2623 0.961 . S
H2638 C2623 0.961 . S
H2639 C2623 0.961 . S
H2640 C2624 0.931 . S
H2641 C2629 0.930 . S
H2642 C2630 0.956 . S
H2643 C2630 0.942 1_655 S
H2644 C2630 0.961 . S
H2645 C2631 0.958 . S
H2646 C2631 0.961 . S
H2647 C2631 0.960 1_655 S
C2648 C2649 1.391 . S
C2648 C2650 1.394 . S
C2648 H2664 0.931 . S
C2649 C2648 1.391 . S
C2649 C2653 1.376 . S
C2650 C2648 1.394 . S
C2650 C2651 1.369 . S
C2650 C2654 1.531 . S
C2651 C2650 1.369 . S
C2651 C2652 1.410 . S
C2651 C2659 1.503 . S
C2652 C2651 1.410 . S
C2652 C2653 1.392 . S
C2652 C2655 1.511 . S
C2653 C2649 1.376 . S
C2653 C2652 1.392 . S
C2653 H2665 0.929 . S
C2654 C2650 1.531 . S
C2654 H2666 0.960 . S
C2654 H2667 0.962 . S
C2654 H2668 0.960 . S
C2655 C2652 1.511 . S
C2655 H2669 0.961 . S
C2655 H2670 0.961 . S
C2655 H2671 0.961 . S
C2656 C2657 1.370 . S
C2656 C2658 1.363 . S
C2656 H2672 0.931 . S
C2657 C2656 1.370 . S
C2657 C2661 1.408 . S
C2658 C2656 1.363 . S
C2658 C2659 1.370 . S
C2658 C2662 1.524 . S
C2659 C2651 1.503 . S
C2659 C2658 1.370 . S
C2659 C2660 1.403 . S
C2660 C2659 1.403 . S
C2660 C2661 1.404 . S
C2660 C2663 1.539 . S
C2661 C2657 1.408 . S
C2661 C2660 1.404 . S
C2661 H2673 0.930 . S
C2662 C2658 1.524 . S
C2662 H2674 0.956 . S
C2662 H2675 0.961 . S
C2662 H2676 0.961 . S
C2663 C2660 1.539 . S
C2663 H2677 0.958 . S
C2663 H2678 0.961 . S
C2663 H2679 0.960 . S
H2664 C2648 0.931 . S
H2665 C2653 0.929 . S
H2666 C2654 0.960 . S
H2667 C2654 0.962 . S
H2668 C2654 0.960 . S
H2669 C2655 0.961 . S
H2670 C2655 0.961 . S
H2671 C2655 0.961 . S
H2672 C2656 0.931 . S
H2673 C2661 0.930 . S
H2674 C2662 0.956 . S
H2675 C2662 0.961 . S
H2676 C2662 0.961 . S
H2677 C2663 0.958 . S
H2678 C2663 0.961 . S
H2679 C2663 0.960 . S
C2680 C2681 1.391 . S
C2680 C2682 1.394 . S
C2680 H2696 0.931 . S
C2681 C2680 1.391 . S
C2681 C2685 1.376 . S
C2682 C2680 1.394 . S
C2682 C2683 1.369 . S
C2682 C2686 1.531 . S
C2683 C2682 1.369 . S
C2683 C2684 1.410 . S
C2683 C2691 1.503 1_565 S
C2684 C2683 1.410 . S
C2684 C2685 1.392 . S
C2684 C2687 1.511 . S
C2685 C2681 1.376 . S
C2685 C2684 1.392 . S
C2685 H2697 0.929 . S
C2686 C2682 1.531 . S
C2686 H2698 0.960 1_565 S
C2686 H2699 0.962 . S
C2686 H2700 0.960 . S
C2687 C2684 1.511 . S
C2687 H2701 0.961 . S
C2687 H2702 0.947 1_565 S
C2687 H2703 0.961 . S
C2688 C2689 1.370 . S
C2688 C2690 1.363 . S
C2688 H2704 0.931 . S
C2689 C2688 1.370 . S
C2689 C2693 1.408 . S
C2690 C2688 1.363 . S
C2690 C2691 1.370 . S
C2690 C2694 1.524 . S
C2691 C2683 1.503 1_545 S
C2691 C2690 1.370 . S
C2691 C2692 1.403 . S
C2692 C2691 1.403 . S
C2692 C2693 1.404 . S
C2692 C2695 1.539 . S
C2693 C2689 1.408 . S
C2693 C2692 1.404 . S
C2693 H2705 0.930 . S
C2694 C2690 1.524 . S
C2694 H2706 0.956 1_545 S
C2694 H2707 0.961 1_545 S
C2694 H2708 0.961 . S
C2695 C2692 1.539 . S
C2695 H2709 0.958 . S
C2695 H2710 0.961 . S
C2695 H2711 0.960 . S
H2696 C2680 0.931 . S
H2697 C2685 0.929 . S
H2698 C2686 0.960 1_545 S
H2699 C2686 0.962 . S
H2700 C2686 0.960 . S
H2701 C2687 0.961 . S
H2702 C2687 0.947 1_545 S
H2703 C2687 0.961 . S
H2704 C2688 0.931 . S
H2705 C2693 0.930 . S
H2706 C2694 0.956 1_565 S
H2707 C2694 0.961 1_565 S
H2708 C2694 0.961 . S
H2709 C2695 0.958 . S
H2710 C2695 0.961 . S
H2711 C2695 0.960 . S
C2712 C2713 1.391 . S
C2712 C2714 1.394 . S
C2712 H2728 0.931 . S
C2713 C2712 1.391 . S
C2713 C2717 1.376 . S
C2714 C2712 1.394 . S
C2714 C2715 1.369 . S
C2714 C2718 1.531 . S
C2715 C2714 1.369 . S
C2715 C2716 1.410 . S
C2715 C2723 1.503 1_565 S
C2716 C2715 1.410 . S
C2716 C2717 1.392 . S
C2716 C2719 1.511 . S
C2717 C2713 1.376 . S
C2717 C2716 1.392 . S
C2717 H2729 0.929 . S
C2718 C2714 1.531 . S
C2718 H2730 0.960 1_565 S
C2718 H2731 0.962 . S
C2718 H2732 0.960 . S
C2719 C2716 1.511 . S
C2719 H2733 0.961 . S
C2719 H2734 0.960 1_565 S
C2719 H2735 0.961 . S
C2720 C2721 1.370 . S
C2720 C2722 1.363 . S
C2720 H2736 0.931 . S
C2721 C2720 1.370 . S
C2721 C2725 1.408 . S
C2722 C2720 1.363 . S
C2722 C2723 1.370 . S
C2722 C2726 1.524 . S
C2723 C2715 1.503 1_545 S
C2723 C2722 1.370 . S
C2723 C2724 1.403 . S
C2724 C2723 1.403 . S
C2724 C2725 1.404 . S
C2724 C2727 1.539 . S
C2725 C2721 1.408 . S
C2725 C2724 1.404 . S
C2725 H2737 0.930 . S
C2726 C2722 1.524 . S
C2726 H2738 0.956 1_545 S
C2726 H2739 0.961 1_545 S
C2726 H2740 0.961 . S
C2727 C2724 1.539 . S
C2727 H2741 0.958 . S
C2727 H2742 0.961 . S
C2727 H2743 0.960 . S
H2728 C2712 0.931 . S
H2729 C2717 0.929 . S
H2730 C2718 0.960 1_545 S
H2731 C2718 0.962 . S
H2732 C2718 0.960 . S
H2733 C2719 0.961 . S
H2734 C2719 0.960 1_545 S
H2735 C2719 0.961 . S
H2736 C2720 0.931 . S
H2737 C2725 0.930 . S
H2738 C2726 0.956 1_565 S
H2739 C2726 0.961 1_565 S
H2740 C2726 0.961 . S
H2741 C2727 0.958 . S
H2742 C2727 0.961 . S
H2743 C2727 0.960 . S
C2744 C2745 1.391 . S
C2744 C2746 1.394 . S
C2744 H2760 0.931 . S
C2745 C2744 1.391 . S
C2745 C2749 1.376 . S
C2746 C2744 1.394 . S
C2746 C2747 1.369 . S
C2746 C2750 1.531 . S
C2747 C2746 1.369 . S
C2747 C2748 1.410 . S
C2747 C2755 1.503 1_655 S
C2748 C2747 1.410 . S
C2748 C2749 1.392 . S
C2748 C2751 1.511 . S
C2749 C2745 1.376 . S
C2749 C2748 1.392 . S
C2749 H2761 0.929 . S
C2750 C2746 1.531 . S
C2750 H2762 0.960 1_655 S
C2750 H2763 0.962 . S
C2750 H2764 0.960 . S
C2751 C2748 1.511 . S
C2751 H2765 0.961 . S
C2751 H2766 0.961 . S
C2751 H2767 0.961 . S
C2752 C2753 1.370 . S
C2752 C2754 1.363 . S
C2752 H2768 0.931 . S
C2753 C2752 1.370 . S
C2753 C2757 1.408 . S
C2754 C2752 1.363 . S
C2754 C2755 1.370 . S
C2754 C2758 1.524 . S
C2755 C2747 1.503 1_455 S
C2755 C2754 1.370 . S
C2755 C2756 1.403 . S
C2756 C2755 1.403 . S
C2756 C2757 1.404 . S
C2756 C2759 1.539 . S
C2757 C2753 1.408 . S
C2757 C2756 1.404 . S
C2757 H2769 0.930 . S
C2758 C2754 1.524 . S
C2758 H2770 0.956 . S
C2758 H2771 0.961 1_455 S
C2758 H2772 0.961 . S
C2759 C2756 1.539 . S
C2759 H2773 0.958 . S
C2759 H2774 0.961 . S
C2759 H2775 0.945 1_455 S
H2760 C2744 0.931 . S
H2761 C2749 0.929 . S
H2762 C2750 0.960 1_455 S
H2763 C2750 0.962 . S
H2764 C2750 0.960 . S
H2765 C2751 0.961 . S
H2766 C2751 0.961 . S
H2767 C2751 0.961 . S
H2768 C2752 0.931 . S
H2769 C2757 0.930 . S
H2770 C2758 0.956 . S
H2771 C2758 0.961 1_655 S
H2772 C2758 0.961 . S
H2773 C2759 0.958 . S
H2774 C2759 0.961 . S
H2775 C2759 0.945 1_655 S
C2776 C2777 1.391 . S
C2776 C2778 1.394 . S
C2776 H2792 0.931 . S
C2777 C2776 1.391 . S
C2777 C2781 1.376 . S
C2778 C2776 1.394 . S
C2778 C2779 1.369 . S
C2778 C2782 1.531 . S
C2779 C2778 1.369 . S
C2779 C2780 1.410 . S
C2779 C2787 1.503 . S
C2780 C2779 1.410 . S
C2780 C2781 1.392 . S
C2780 C2783 1.511 . S
C2781 C2777 1.376 . S
C2781 C2780 1.392 . S
C2781 H2793 0.929 . S
C2782 C2778 1.531 . S
C2782 H2794 0.960 . S
C2782 H2795 0.962 . S
C2782 H2796 0.960 . S
C2783 C2780 1.511 . S
C2783 H2797 0.961 . S
C2783 H2798 0.961 . S
C2783 H2799 0.961 . S
C2784 C2785 1.370 . S
C2784 C2786 1.363 . S
C2784 H2800 0.931 . S
C2785 C2784 1.370 . S
C2785 C2789 1.408 . S
C2786 C2784 1.363 . S
C2786 C2787 1.370 . S
C2786 C2790 1.524 . S
C2787 C2779 1.503 . S
C2787 C2786 1.370 . S
C2787 C2788 1.403 . S
C2788 C2787 1.403 . S
C2788 C2789 1.404 . S
C2788 C2791 1.539 . S
C2789 C2785 1.408 . S
C2789 C2788 1.404 . S
C2789 H2801 0.930 . S
C2790 C2786 1.524 . S
C2790 H2802 0.956 . S
C2790 H2803 0.961 . S
C2790 H2804 0.961 . S
C2791 C2788 1.539 . S
C2791 H2805 0.958 . S
C2791 H2806 0.961 . S
C2791 H2807 0.960 . S
H2792 C2776 0.931 . S
H2793 C2781 0.929 . S
H2794 C2782 0.960 . S
H2795 C2782 0.962 . S
H2796 C2782 0.960 . S
H2797 C2783 0.961 . S
H2798 C2783 0.961 . S
H2799 C2783 0.961 . S
H2800 C2784 0.931 . S
H2801 C2789 0.930 . S
H2802 C2790 0.956 . S
H2803 C2790 0.961 . S
H2804 C2790 0.961 . S
H2805 C2791 0.958 . S
H2806 C2791 0.961 . S
H2807 C2791 0.960 . S
C505 C0 1.537 . S
C513 C265 1.555 . S
C537 C15 1.540 . S
C545 C267 1.554 . S
C569 C293 1.539 . S
C577 C41 1.555 . S
C601 C55 1.546 . S
C609 C462 1.552 . S
C633 C476 1.541 . S
C641 C57 1.554 . S
C665 C71 1.538 . S
C673 C490 1.555 . S
C697 C349 1.543 . S
C705 C97 1.553 . S
C729 C99 1.556 . S
C737 C362 1.547 . S
C761 C125 1.550 . S
C769 C376 1.549 . S
C793 C139 1.554 . S
C801 C223 1.549 . S
C825 C236 1.553 . S
C833 C140 1.550 . S
C857 C154 1.540 . S
C865 C251 1.554 . S
C889 C168 1.557 . S
C897 C420 1.548 . S
C921 C183 1.543 . S
C929 C435 1.553 . S
C953 C209 1.547 . S
C961 C461 1.551 . S
C985 C294 1.552 . S
C993 C391 1.549 . S
C1017 C308 1.554 . S
C1025 C393 1.549 . S
C1049 C322 1.549 . S
C1057 C418 1.549 . S
C1081 C98 1.620 1_545 S
C1089 C13 1.596 . S
C1113 C124 1.618 1_655 S
C1121 C26 1.607 . S
C1145 C28 1.612 . S
C1153 C96 1.619 . S
C1177 C155 1.614 1_455 S
C1185 C42 1.609 . S
C1209 C138 1.617 . S
C1217 C68 1.608 . S
C1241 C141 1.614 1_565 S
C1249 C82 1.598 . S
C1273 C84 1.606 . S
C1281 C14 1.618 1_565 S
C1305 C110 1.594 . S
C1313 C40 1.624 1_455 S
C1337 C112 1.590 . S
C1345 C1 1.624 . S
C1369 C126 1.590 . S
C1377 C70 1.624 1_655 S
C1401 C54 1.616 . S
C1409 C153 1.610 . S
C1433 C56 1.622 1_545 S
C1441 C167 1.595 . S
C1465 C181 1.614 . S
C1473 C266 1.619 . S
C1497 C194 1.579 . S
C1505 C292 1.623 . S
C1529 C196 1.587 . S
C1537 C264 1.624 . S
C1561 C323 1.617 . S
C1569 C210 1.595 . S
C1593 C225 1.617 . S
C1601 C295 1.620 . S
C1625 C309 1.624 . S
C1633 C238 1.598 . S
C1657 C252 1.591 . S
C1665 C182 1.619 . S
C1689 C208 1.621 . S
C1697 C278 1.607 . S
C1721 C169 1.624 . S
C1729 C280 1.600 . S
C1753 C307 1.582 . S
C1761 C250 1.620 . S
C1785 C321 1.606 . S
C1793 C222 1.623 . S
C1817 C335 1.584 . S
C1825 C237 1.624 . S
C1849 C434 1.615 . S
C1857 C336 1.597 . S
C1881 C351 1.615 . S
C1889 C460 1.620 . S
C1913 C365 1.604 . S
C1921 C421 1.623 . S
C1945 C491 1.623 . S
C1953 C378 1.596 . S
C1977 C463 1.622 . S
C1985 C404 1.595 . S
C2009 C477 1.614 . S
C2017 C407 1.600 . S
C2041 C363 1.618 . S
C2049 C433 1.594 . S
C2073 C377 1.617 . S
C2081 C446 1.597 . S
C2105 C348 1.624 . S
C2113 C448 1.602 . S
C2137 C475 1.600 . S
C2145 C419 1.618 . S
C2169 C390 1.616 . S
C2177 C489 1.595 . S
C2201 C503 1.597 . S
C2209 C392 1.624 . S
C2233 C12 1.729 . S
C2241 C406 1.719 . S
C2265 C379 1.715 . S
C2273 C27 1.736 . S
C2297 C29 1.737 . S
C2305 C405 1.721 . S
C2329 C43 1.738 . S
C2337 C195 1.721 . S
C2361 C197 1.720 . S
C2369 C69 1.736 . S
C2393 C83 1.742 . S
C2401 C180 1.723 . S
C2425 C334 1.706 . S
C2433 C85 1.730 . S
C2457 C111 1.730 . S
C2465 C306 1.735 . S
C2489 C113 1.705 . S
C2497 C320 1.734 . S
C2521 C127 1.733 . S
C2529 C447 1.719 . S
C2553 C152 1.741 . S
C2561 C449 1.722 . S
C2585 C432 1.740 . S
C2593 C166 1.723 . S
C2617 C211 1.708 . S
C2625 C350 1.727 . S
C2649 C364 1.714 . S
C2657 C224 1.734 . S
C2681 C337 1.732 . S
C2689 C239 1.721 . S
C2713 C502 1.743 . S
C2721 C253 1.725 . S
C2745 C279 1.733 . S
C2753 C474 1.734 . S
C2777 C281 1.740 . S
C2785 C488 1.730 . S
