# Generated by pormake.
# Topology twf-e, (6)-cn, num edge types: 1
# Building blocks:
#     Node 0, Type 0, BuildingBlock: CUKXOW_clean_sbu_0, # of connection points: 6
#     Node 1, Type 0, BuildingBlock: CUKXOW_clean_sbu_0, # of connection points: 6
#     Node 2, Type 0, BuildingBlock: CUKXOW_clean_sbu_0, # of connection points: 6
#     Node 3, Type 0, BuildingBlock: CUKXOW_clean_sbu_0, # of connection points: 6
#     Node 4, Type 0, BuildingBlock: CUKXOW_clean_sbu_0, # of connection points: 6
#     Node 5, Type 0, BuildingBlock: CUKXOW_clean_sbu_0, # of connection points: 6
#     Node 6, Type 0, BuildingBlock: CUKXOW_clean_sbu_0, # of connection points: 6
#     Node 7, Type 0, BuildingBlock: CUKXOW_clean_sbu_0, # of connection points: 6
#     Node 8, Type 0, BuildingBlock: CUKXOW_clean_sbu_0, # of connection points: 6
#     Node 9, Type 0, BuildingBlock: CUKXOW_clean_sbu_0, # of connection points: 6
#     Node 10, Type 0, BuildingBlock: CUKXOW_clean_sbu_0, # of connection points: 6
#     Node 11, Type 0, BuildingBlock: CUKXOW_clean_sbu_0, # of connection points: 6
#     Node 12, Type 0, BuildingBlock: CUKXOW_clean_sbu_0, # of connection points: 6
#     Node 13, Type 0, BuildingBlock: CUKXOW_clean_sbu_0, # of connection points: 6
#     Node 14, Type 0, BuildingBlock: CUKXOW_clean_sbu_0, # of connection points: 6
#     Node 15, Type 0, BuildingBlock: CUKXOW_clean_sbu_0, # of connection points: 6
#     Node 16, Type 0, BuildingBlock: CUKXOW_clean_sbu_0, # of connection points: 6
#     Node 17, Type 0, BuildingBlock: CUKXOW_clean_sbu_0, # of connection points: 6
#     Node 18, Type 0, BuildingBlock: CUKXOW_clean_sbu_0, # of connection points: 6
#     Node 19, Type 0, BuildingBlock: CUKXOW_clean_sbu_0, # of connection points: 6
#     Node 20, Type 0, BuildingBlock: CUKXOW_clean_sbu_0, # of connection points: 6
#     Node 21, Type 0, BuildingBlock: CUKXOW_clean_sbu_0, # of connection points: 6
#     Node 22, Type 0, BuildingBlock: CUKXOW_clean_sbu_0, # of connection points: 6
#     Node 23, Type 0, BuildingBlock: CUKXOW_clean_sbu_0, # of connection points: 6
#     Node 24, Type 0, BuildingBlock: CUKXOW_clean_sbu_0, # of connection points: 6
#     Node 25, Type 0, BuildingBlock: CUKXOW_clean_sbu_0, # of connection points: 6
#     Node 26, Type 0, BuildingBlock: CUKXOW_clean_sbu_0, # of connection points: 6
#     Node 27, Type 0, BuildingBlock: CUKXOW_clean_sbu_0, # of connection points: 6
#     Node 28, Type 0, BuildingBlock: CUKXOW_clean_sbu_0, # of connection points: 6
#     Node 29, Type 0, BuildingBlock: CUKXOW_clean_sbu_0, # of connection points: 6
#     Node 30, Type 0, BuildingBlock: CUKXOW_clean_sbu_0, # of connection points: 6
#     Node 31, Type 0, BuildingBlock: CUKXOW_clean_sbu_0, # of connection points: 6
#     Node 32, Type 0, BuildingBlock: CUKXOW_clean_sbu_0, # of connection points: 6
#     Node 33, Type 0, BuildingBlock: CUKXOW_clean_sbu_0, # of connection points: 6
#     Node 34, Type 0, BuildingBlock: CUKXOW_clean_sbu_0, # of connection points: 6
#     Node 35, Type 0, BuildingBlock: CUKXOW_clean_sbu_0, # of connection points: 6
#     Node 36, Type 0, BuildingBlock: CUKXOW_clean_sbu_0, # of connection points: 6
#     Node 37, Type 0, BuildingBlock: CUKXOW_clean_sbu_0, # of connection points: 6
#     Node 38, Type 0, BuildingBlock: CUKXOW_clean_sbu_0, # of connection points: 6
#     Node 39, Type 0, BuildingBlock: CUKXOW_clean_sbu_0, # of connection points: 6
#     Node 40, Type 0, BuildingBlock: CUKXOW_clean_sbu_0, # of connection points: 6
#     Node 41, Type 0, BuildingBlock: CUKXOW_clean_sbu_0, # of connection points: 6
#     Node 42, Type 0, BuildingBlock: CUKXOW_clean_sbu_0, # of connection points: 6
#     Node 43, Type 0, BuildingBlock: CUKXOW_clean_sbu_0, # of connection points: 6
#     Node 44, Type 0, BuildingBlock: CUKXOW_clean_sbu_0, # of connection points: 6
#     Node 45, Type 0, BuildingBlock: CUKXOW_clean_sbu_0, # of connection points: 6
#     Node 46, Type 0, BuildingBlock: CUKXOW_clean_sbu_0, # of connection points: 6
#     Node 47, Type 0, BuildingBlock: CUKXOW_clean_sbu_0, # of connection points: 6
#     Edge 48, Type (0, 0), BuildingBlock: XIVTED_clean_linker_0, # of connection points: 2
#     Edge 49, Type (0, 0), BuildingBlock: XIVTED_clean_linker_0, # of connection points: 2
#     Edge 50, Type (0, 0), BuildingBlock: XIVTED_clean_linker_0, # of connection points: 2
#     Edge 51, Type (0, 0), BuildingBlock: XIVTED_clean_linker_0, # of connection points: 2
#     Edge 52, Type (0, 0), BuildingBlock: XIVTED_clean_linker_0, # of connection points: 2
#     Edge 53, Type (0, 0), BuildingBlock: XIVTED_clean_linker_0, # of connection points: 2
#     Edge 54, Type (0, 0), BuildingBlock: XIVTED_clean_linker_0, # of connection points: 2
#     Edge 55, Type (0, 0), BuildingBlock: XIVTED_clean_linker_0, # of connection points: 2
#     Edge 56, Type (0, 0), BuildingBlock: XIVTED_clean_linker_0, # of connection points: 2
#     Edge 57, Type (0, 0), BuildingBlock: XIVTED_clean_linker_0, # of connection points: 2
#     Edge 58, Type (0, 0), BuildingBlock: XIVTED_clean_linker_0, # of connection points: 2
#     Edge 59, Type (0, 0), BuildingBlock: XIVTED_clean_linker_0, # of connection points: 2
#     Edge 60, Type (0, 0), BuildingBlock: XIVTED_clean_linker_0, # of connection points: 2
#     Edge 61, Type (0, 0), BuildingBlock: XIVTED_clean_linker_0, # of connection points: 2
#     Edge 62, Type (0, 0), BuildingBlock: XIVTED_clean_linker_0, # of connection points: 2
#     Edge 63, Type (0, 0), BuildingBlock: XIVTED_clean_linker_0, # of connection points: 2
#     Edge 64, Type (0, 0), BuildingBlock: XIVTED_clean_linker_0, # of connection points: 2
#     Edge 65, Type (0, 0), BuildingBlock: XIVTED_clean_linker_0, # of connection points: 2
#     Edge 66, Type (0, 0), BuildingBlock: XIVTED_clean_linker_0, # of connection points: 2
#     Edge 67, Type (0, 0), BuildingBlock: XIVTED_clean_linker_0, # of connection points: 2
#     Edge 68, Type (0, 0), BuildingBlock: XIVTED_clean_linker_0, # of connection points: 2
#     Edge 69, Type (0, 0), BuildingBlock: XIVTED_clean_linker_0, # of connection points: 2
#     Edge 70, Type (0, 0), BuildingBlock: XIVTED_clean_linker_0, # of connection points: 2
#     Edge 71, Type (0, 0), BuildingBlock: XIVTED_clean_linker_0, # of connection points: 2
#     Edge 72, Type (0, 0), BuildingBlock: XIVTED_clean_linker_0, # of connection points: 2
#     Edge 73, Type (0, 0), BuildingBlock: XIVTED_clean_linker_0, # of connection points: 2
#     Edge 74, Type (0, 0), BuildingBlock: XIVTED_clean_linker_0, # of connection points: 2
#     Edge 75, Type (0, 0), BuildingBlock: XIVTED_clean_linker_0, # of connection points: 2
#     Edge 76, Type (0, 0), BuildingBlock: XIVTED_clean_linker_0, # of connection points: 2
#     Edge 77, Type (0, 0), BuildingBlock: XIVTED_clean_linker_0, # of connection points: 2
#     Edge 78, Type (0, 0), BuildingBlock: XIVTED_clean_linker_0, # of connection points: 2
#     Edge 79, Type (0, 0), BuildingBlock: XIVTED_clean_linker_0, # of connection points: 2
#     Edge 80, Type (0, 0), BuildingBlock: XIVTED_clean_linker_0, # of connection points: 2
#     Edge 81, Type (0, 0), BuildingBlock: XIVTED_clean_linker_0, # of connection points: 2
#     Edge 82, Type (0, 0), BuildingBlock: XIVTED_clean_linker_0, # of connection points: 2
#     Edge 83, Type (0, 0), BuildingBlock: XIVTED_clean_linker_0, # of connection points: 2
#     Edge 84, Type (0, 0), BuildingBlock: XIVTED_clean_linker_0, # of connection points: 2
#     Edge 85, Type (0, 0), BuildingBlock: XIVTED_clean_linker_0, # of connection points: 2
#     Edge 86, Type (0, 0), BuildingBlock: XIVTED_clean_linker_0, # of connection points: 2
#     Edge 87, Type (0, 0), BuildingBlock: XIVTED_clean_linker_0, # of connection points: 2
#     Edge 88, Type (0, 0), BuildingBlock: XIVTED_clean_linker_0, # of connection points: 2
#     Edge 89, Type (0, 0), BuildingBlock: XIVTED_clean_linker_0, # of connection points: 2
#     Edge 90, Type (0, 0), BuildingBlock: XIVTED_clean_linker_0, # of connection points: 2
#     Edge 91, Type (0, 0), BuildingBlock: XIVTED_clean_linker_0, # of connection points: 2
#     Edge 92, Type (0, 0), BuildingBlock: XIVTED_clean_linker_0, # of connection points: 2
#     Edge 93, Type (0, 0), BuildingBlock: XIVTED_clean_linker_0, # of connection points: 2
#     Edge 94, Type (0, 0), BuildingBlock: XIVTED_clean_linker_0, # of connection points: 2
#     Edge 95, Type (0, 0), BuildingBlock: XIVTED_clean_linker_0, # of connection points: 2
#     Edge 96, Type (0, 0), BuildingBlock: XIVTED_clean_linker_0, # of connection points: 2
#     Edge 97, Type (0, 0), BuildingBlock: XIVTED_clean_linker_0, # of connection points: 2
#     Edge 98, Type (0, 0), BuildingBlock: XIVTED_clean_linker_0, # of connection points: 2
#     Edge 99, Type (0, 0), BuildingBlock: XIVTED_clean_linker_0, # of connection points: 2
#     Edge 100, Type (0, 0), BuildingBlock: XIVTED_clean_linker_0, # of connection points: 2
#     Edge 101, Type (0, 0), BuildingBlock: XIVTED_clean_linker_0, # of connection points: 2
#     Edge 102, Type (0, 0), BuildingBlock: XIVTED_clean_linker_0, # of connection points: 2
#     Edge 103, Type (0, 0), BuildingBlock: XIVTED_clean_linker_0, # of connection points: 2
#     Edge 104, Type (0, 0), BuildingBlock: XIVTED_clean_linker_0, # of connection points: 2
#     Edge 105, Type (0, 0), BuildingBlock: XIVTED_clean_linker_0, # of connection points: 2
#     Edge 106, Type (0, 0), BuildingBlock: XIVTED_clean_linker_0, # of connection points: 2
#     Edge 107, Type (0, 0), BuildingBlock: XIVTED_clean_linker_0, # of connection points: 2
#     Edge 108, Type (0, 0), BuildingBlock: XIVTED_clean_linker_0, # of connection points: 2
#     Edge 109, Type (0, 0), BuildingBlock: XIVTED_clean_linker_0, # of connection points: 2
#     Edge 110, Type (0, 0), BuildingBlock: XIVTED_clean_linker_0, # of connection points: 2
#     Edge 111, Type (0, 0), BuildingBlock: XIVTED_clean_linker_0, # of connection points: 2
#     Edge 112, Type (0, 0), BuildingBlock: XIVTED_clean_linker_0, # of connection points: 2
#     Edge 113, Type (0, 0), BuildingBlock: XIVTED_clean_linker_0, # of connection points: 2
#     Edge 114, Type (0, 0), BuildingBlock: XIVTED_clean_linker_0, # of connection points: 2
#     Edge 115, Type (0, 0), BuildingBlock: XIVTED_clean_linker_0, # of connection points: 2
#     Edge 116, Type (0, 0), BuildingBlock: XIVTED_clean_linker_0, # of connection points: 2
#     Edge 117, Type (0, 0), BuildingBlock: XIVTED_clean_linker_0, # of connection points: 2
#     Edge 118, Type (0, 0), BuildingBlock: XIVTED_clean_linker_0, # of connection points: 2
#     Edge 119, Type (0, 0), BuildingBlock: XIVTED_clean_linker_0, # of connection points: 2
#     Edge 120, Type (0, 0), BuildingBlock: XIVTED_clean_linker_0, # of connection points: 2
#     Edge 121, Type (0, 0), BuildingBlock: XIVTED_clean_linker_0, # of connection points: 2
#     Edge 122, Type (0, 0), BuildingBlock: XIVTED_clean_linker_0, # of connection points: 2
#     Edge 123, Type (0, 0), BuildingBlock: XIVTED_clean_linker_0, # of connection points: 2
#     Edge 124, Type (0, 0), BuildingBlock: XIVTED_clean_linker_0, # of connection points: 2
#     Edge 125, Type (0, 0), BuildingBlock: XIVTED_clean_linker_0, # of connection points: 2
#     Edge 126, Type (0, 0), BuildingBlock: XIVTED_clean_linker_0, # of connection points: 2
#     Edge 127, Type (0, 0), BuildingBlock: XIVTED_clean_linker_0, # of connection points: 2
#     Edge 128, Type (0, 0), BuildingBlock: XIVTED_clean_linker_0, # of connection points: 2
#     Edge 129, Type (0, 0), BuildingBlock: XIVTED_clean_linker_0, # of connection points: 2
#     Edge 130, Type (0, 0), BuildingBlock: XIVTED_clean_linker_0, # of connection points: 2
#     Edge 131, Type (0, 0), BuildingBlock: XIVTED_clean_linker_0, # of connection points: 2
#     Edge 132, Type (0, 0), BuildingBlock: XIVTED_clean_linker_0, # of connection points: 2
#     Edge 133, Type (0, 0), BuildingBlock: XIVTED_clean_linker_0, # of connection points: 2
#     Edge 134, Type (0, 0), BuildingBlock: XIVTED_clean_linker_0, # of connection points: 2
#     Edge 135, Type (0, 0), BuildingBlock: XIVTED_clean_linker_0, # of connection points: 2
#     Edge 136, Type (0, 0), BuildingBlock: XIVTED_clean_linker_0, # of connection points: 2
#     Edge 137, Type (0, 0), BuildingBlock: XIVTED_clean_linker_0, # of connection points: 2
#     Edge 138, Type (0, 0), BuildingBlock: XIVTED_clean_linker_0, # of connection points: 2
#     Edge 139, Type (0, 0), BuildingBlock: XIVTED_clean_linker_0, # of connection points: 2
#     Edge 140, Type (0, 0), BuildingBlock: XIVTED_clean_linker_0, # of connection points: 2
#     Edge 141, Type (0, 0), BuildingBlock: XIVTED_clean_linker_0, # of connection points: 2
#     Edge 142, Type (0, 0), BuildingBlock: XIVTED_clean_linker_0, # of connection points: 2
#     Edge 143, Type (0, 0), BuildingBlock: XIVTED_clean_linker_0, # of connection points: 2
#     Edge 144, Type (0, 0), BuildingBlock: XIVTED_clean_linker_0, # of connection points: 2
#     Edge 145, Type (0, 0), BuildingBlock: XIVTED_clean_linker_0, # of connection points: 2
#     Edge 146, Type (0, 0), BuildingBlock: XIVTED_clean_linker_0, # of connection points: 2
#     Edge 147, Type (0, 0), BuildingBlock: XIVTED_clean_linker_0, # of connection points: 2
#     Edge 148, Type (0, 0), BuildingBlock: XIVTED_clean_linker_0, # of connection points: 2
#     Edge 149, Type (0, 0), BuildingBlock: XIVTED_clean_linker_0, # of connection points: 2
#     Edge 150, Type (0, 0), BuildingBlock: XIVTED_clean_linker_0, # of connection points: 2
#     Edge 151, Type (0, 0), BuildingBlock: XIVTED_clean_linker_0, # of connection points: 2
#     Edge 152, Type (0, 0), BuildingBlock: XIVTED_clean_linker_0, # of connection points: 2
#     Edge 153, Type (0, 0), BuildingBlock: XIVTED_clean_linker_0, # of connection points: 2
#     Edge 154, Type (0, 0), BuildingBlock: XIVTED_clean_linker_0, # of connection points: 2
#     Edge 155, Type (0, 0), BuildingBlock: XIVTED_clean_linker_0, # of connection points: 2
#     Edge 156, Type (0, 0), BuildingBlock: XIVTED_clean_linker_0, # of connection points: 2
#     Edge 157, Type (0, 0), BuildingBlock: XIVTED_clean_linker_0, # of connection points: 2
#     Edge 158, Type (0, 0), BuildingBlock: XIVTED_clean_linker_0, # of connection points: 2
#     Edge 159, Type (0, 0), BuildingBlock: XIVTED_clean_linker_0, # of connection points: 2
#     Edge 160, Type (0, 0), BuildingBlock: XIVTED_clean_linker_0, # of connection points: 2
#     Edge 161, Type (0, 0), BuildingBlock: XIVTED_clean_linker_0, # of connection points: 2
#     Edge 162, Type (0, 0), BuildingBlock: XIVTED_clean_linker_0, # of connection points: 2
#     Edge 163, Type (0, 0), BuildingBlock: XIVTED_clean_linker_0, # of connection points: 2
#     Edge 164, Type (0, 0), BuildingBlock: XIVTED_clean_linker_0, # of connection points: 2
#     Edge 165, Type (0, 0), BuildingBlock: XIVTED_clean_linker_0, # of connection points: 2
#     Edge 166, Type (0, 0), BuildingBlock: XIVTED_clean_linker_0, # of connection points: 2
#     Edge 167, Type (0, 0), BuildingBlock: XIVTED_clean_linker_0, # of connection points: 2
#     Edge 168, Type (0, 0), BuildingBlock: XIVTED_clean_linker_0, # of connection points: 2
#     Edge 169, Type (0, 0), BuildingBlock: XIVTED_clean_linker_0, # of connection points: 2
#     Edge 170, Type (0, 0), BuildingBlock: XIVTED_clean_linker_0, # of connection points: 2
#     Edge 171, Type (0, 0), BuildingBlock: XIVTED_clean_linker_0, # of connection points: 2
#     Edge 172, Type (0, 0), BuildingBlock: XIVTED_clean_linker_0, # of connection points: 2
#     Edge 173, Type (0, 0), BuildingBlock: XIVTED_clean_linker_0, # of connection points: 2
#     Edge 174, Type (0, 0), BuildingBlock: XIVTED_clean_linker_0, # of connection points: 2
#     Edge 175, Type (0, 0), BuildingBlock: XIVTED_clean_linker_0, # of connection points: 2
#     Edge 176, Type (0, 0), BuildingBlock: XIVTED_clean_linker_0, # of connection points: 2
#     Edge 177, Type (0, 0), BuildingBlock: XIVTED_clean_linker_0, # of connection points: 2
#     Edge 178, Type (0, 0), BuildingBlock: XIVTED_clean_linker_0, # of connection points: 2
#     Edge 179, Type (0, 0), BuildingBlock: XIVTED_clean_linker_0, # of connection points: 2
#     Edge 180, Type (0, 0), BuildingBlock: XIVTED_clean_linker_0, # of connection points: 2
#     Edge 181, Type (0, 0), BuildingBlock: XIVTED_clean_linker_0, # of connection points: 2
#     Edge 182, Type (0, 0), BuildingBlock: XIVTED_clean_linker_0, # of connection points: 2
#     Edge 183, Type (0, 0), BuildingBlock: XIVTED_clean_linker_0, # of connection points: 2
#     Edge 184, Type (0, 0), BuildingBlock: XIVTED_clean_linker_0, # of connection points: 2
#     Edge 185, Type (0, 0), BuildingBlock: XIVTED_clean_linker_0, # of connection points: 2
#     Edge 186, Type (0, 0), BuildingBlock: XIVTED_clean_linker_0, # of connection points: 2
#     Edge 187, Type (0, 0), BuildingBlock: XIVTED_clean_linker_0, # of connection points: 2
#     Edge 188, Type (0, 0), BuildingBlock: XIVTED_clean_linker_0, # of connection points: 2
#     Edge 189, Type (0, 0), BuildingBlock: XIVTED_clean_linker_0, # of connection points: 2
#     Edge 190, Type (0, 0), BuildingBlock: XIVTED_clean_linker_0, # of connection points: 2
#     Edge 191, Type (0, 0), BuildingBlock: XIVTED_clean_linker_0, # of connection points: 2
# Relax obj value: 0.533
# Max RMSD: 0.261
# Mean RMSD: 0.251
data_MOF--net-twf-e--node1-CUKXOW_clean_sbu_0--edge1-XIVTED_clean_linker_0
_symmetry_space_group_name_H-M    P1
_symmetry_Int_Tables_number       1
_symmetry_cell_setting            triclinic
loop_
_symmetry_equiv_pos_as_xyz
'x, y, z'
_cell_length_a     59.09164
_cell_length_b     59.246012
_cell_length_c     59.222762
_cell_angle_alpha  90.417329
_cell_angle_beta   88.869472
_cell_angle_gamma 89.749273
loop_
_atom_site_label
_atom_site_type_symbol
_atom_site_fract_x
_atom_site_fract_y
_atom_site_fract_z
_atom_type_partial_charge
Tb0 Tb 0.03382 0.22687 0.40327 0.0
C1 C 0.0225 0.22116 0.35281 0.0
Tb2 Tb 0.01463 0.18215 0.38898 0.0
O3 O 0.06578 0.20961 0.41173 0.0
O4 O 0.0461 0.19784 0.38573 0.0
O5 O 0.02182 0.23536 0.37003 0.0
C6 C 1.01018 0.13845 0.37899 0.0
O7 O 0.02399 0.19884 0.35621 0.0
C8 C 0.98419 0.21324 0.39278 0.0
C9 C 0.01866 0.19508 0.44288 0.0
O10 O 1.00127 0.15506 0.36816 0.0
O11 O 0.02166 0.14637 0.39572 0.0
O12 O 0.98083 0.19479 0.38145 0.0
O13 O 1.00171 0.21134 0.4043 0.0
O14 O 0.01581 0.17882 0.42715 0.0
O15 O 0.02397 0.21599 0.43699 0.0
C16 C 0.04618 0.26958 0.40884 0.0
O17 O 0.05301 0.25625 0.39268 0.0
O18 O 0.03236 0.25865 0.42203 0.0
C19 C 0.06327 0.19364 0.39693 0.0
Tb20 Tb 0.85725 1.00734 0.37948 0.0
C21 C 0.83973 1.00072 0.43208 0.0
Tb22 Tb 0.81926 0.97943 0.38891 0.0
O23 O 0.83881 0.03687 0.36894 0.0
O24 O 0.82437 0.01475 0.39249 0.0
O25 O 0.8555 1.00895 0.41767 0.0
C26 C 0.78295 0.95409 0.38419 0.0
O27 O 0.82217 0.98927 0.42434 0.0
C28 C 0.85821 0.95791 0.39075 0.0
C29 C 0.82466 0.99638 0.33924 0.0
O30 O 0.803 0.94901 0.37672 0.0
O31 O 0.78341 0.97293 0.39557 0.0
O32 O 0.84123 0.95505 0.40452 0.0
O33 O 0.85291 0.97213 0.37578 0.0
O34 O 0.81043 0.99004 0.35522 0.0
O35 O 0.84613 1.00078 0.34418 0.0
C36 C 0.90001 0.02165 0.37518 0.0
O37 O 0.88311 0.02832 0.36341 0.0
O38 O 0.8929 1.00701 0.38978 0.0
C39 C 0.82042 0.03126 0.37972 0.0
Tb40 Tb 0.0181 0.81334 0.40217 0.0
C41 C 0.03479 0.81866 0.35235 0.0
Tb42 Tb 0.0327 0.85987 0.38888 0.0
O43 O 0.98461 0.82687 0.41223 0.0
O44 O 1.00247 0.84176 0.38603 0.0
O45 O 0.03171 0.80465 0.36925 0.0
C46 C 0.03953 0.90053 0.37078 0.0
O47 O 0.03404 0.84112 0.3555 0.0
C48 C 0.06465 0.83787 0.4088 0.0
C49 C 0.02266 0.84661 0.44188 0.0
O50 O 0.04967 0.88195 0.36482 0.0
O51 O 0.02501 0.89627 0.38701 0.0
O52 O 0.06388 0.85963 0.40746 0.0
O53 O 0.04959 0.82964 0.39635 0.0
O54 O 0.02225 0.86315 0.42622 0.0
O55 O 0.02475 0.82525 0.43569 0.0
C56 C 1.00944 0.76936 0.40672 0.0
O57 O 0.02223 0.7814 0.41974 0.0
O58 O 1.00191 0.7825 0.39108 0.0
C59 C 0.985 0.8436 0.39833 0.0
Tb60 Tb 0.20206 0.98404 0.37886 0.0
C61 C 0.22514 1.00575 0.33594 0.0
Tb62 Tb 0.1956 0.03225 0.37491 0.0
O63 O 0.17895 0.98064 0.35097 0.0
O64 O 0.17289 1.00485 0.37577 0.0
O65 O 0.22378 0.98738 0.34871 0.0
C66 C 0.17558 0.07111 0.36388 0.0
O67 O 0.2144 0.02488 0.34225 0.0
C68 C 0.23112 0.02211 0.39763 0.0
C69 C 0.18588 0.01163 0.42309 0.0
O70 O 0.16917 0.05111 0.35779 0.0
O71 O 0.19396 0.06927 0.37536 0.0
O72 O 0.21951 0.04063 0.40048 0.0
O73 O 0.22456 0.01163 0.38038 0.0
O74 O 0.18088 0.02846 0.40925 0.0
O75 O 0.196 0.9931 0.41497 0.0
C76 C 0.20365 0.94073 0.39125 0.0
O77 O 0.22106 0.95385 0.38846 0.0
O78 O 0.18573 0.95209 0.3864 0.0
C79 C 0.16496 0.99609 0.35815 0.0
Tb80 Tb 0.02939 0.80155 0.65326 0.0
C81 C 0.01783 0.80792 0.70521 0.0
Tb82 Tb 1.00986 0.84572 0.66736 0.0
O83 O 0.0596 0.81881 0.64003 0.0
O84 O 0.04234 0.83145 0.6685 0.0
O85 O 0.02272 0.79384 0.6885 0.0
C86 C 0.99492 0.88518 0.68406 0.0
O87 O 0.01315 0.82967 0.70136 0.0
C88 C 0.98051 0.81882 0.64972 0.0
C89 C 0.01878 0.83443 0.61424 0.0
O90 O 0.98739 0.8654 0.68938 0.0
O91 O 0.01189 0.88276 0.66984 0.0
O92 O 0.97975 0.84049 0.6481 0.0
O93 O 0.99632 0.81297 0.66241 0.0
O94 O 0.01881 0.85061 0.63036 0.0
O95 O 0.0193 0.81277 0.61993 0.0
C96 C 0.04222 0.75873 0.65422 0.0
O97 O 0.05153 0.77526 0.66487 0.0
O98 O 0.02649 0.7664 0.64117 0.0
C99 C 0.0584 0.835 0.65484 0.0
Tb100 Tb 0.18759 0.05883 0.63985 0.0
C101 C 0.20567 0.03565 0.68358 0.0
Tb102 Tb 0.1758 0.0116 0.64515 0.0
O103 O 0.16353 0.0678 0.66677 0.0
O104 O 0.15629 0.04162 0.64508 0.0
O105 O 0.20887 0.05207 0.66875 0.0
C106 C 0.15133 0.97504 0.65493 0.0
O107 O 0.19131 0.01879 0.67897 0.0
C108 C 0.21341 0.01685 0.62263 0.0
C109 C 0.17426 0.03162 0.5953 0.0
O110 O 0.17319 0.9764 0.65656 0.0
O111 O 0.14344 0.99427 0.64837 0.0
O112 O 0.20026 0.99948 0.62031 0.0
O113 O 0.20685 0.02871 0.63922 0.0
O114 O 0.16707 0.01521 0.60898 0.0
O115 O 0.18436 0.04978 0.60371 0.0
C116 C 0.19919 0.10111 0.63059 0.0
O117 O 0.18302 0.09016 0.62105 0.0
O118 O 0.20927 0.08797 0.64458 0.0
C119 C 0.14929 0.05203 0.66243 0.0
Tb120 Tb 0.98477 0.22845 0.65357 0.0
C121 C 0.99337 0.22437 0.70539 0.0
Tb122 Tb 1.00688 0.1855 0.66903 0.0
O123 O 0.95438 0.20952 0.64496 0.0
O124 O 0.97429 0.19929 0.67176 0.0
O125 O 0.98934 0.23817 0.68847 0.0
C126 C 0.0183 0.14305 0.67926 0.0
O127 O 0.99779 0.20233 0.70202 0.0
C128 C 0.03504 0.21833 0.66044 0.0
C129 C 0.99889 0.19408 0.61486 0.0
O130 O 0.02603 0.1612 0.68857 0.0
O131 O 1.00368 0.14874 0.66421 0.0
O132 O 0.03911 0.20236 0.67463 0.0
O133 O 0.01714 0.21356 0.6505 0.0
O134 O 1.00472 0.17934 0.63104 0.0
O135 O 0.99227 0.21479 0.62028 0.0
C136 C 0.97878 0.26913 0.63565 0.0
O137 O 0.99797 0.26034 0.64134 0.0
O138 O 0.96291 0.25607 0.64368 0.0
C139 C 0.95765 0.19407 0.66 0.0
Tb140 Tb 0.83481 0.02135 0.65686 0.0
C141 C 0.83467 0.03305 0.60242 0.0
Tb142 Tb 0.81612 0.06279 0.64256 0.0
O143 O 0.8029 1.00351 0.65933 0.0
O144 O 0.80752 0.02888 0.63588 0.0
O145 O 0.84163 0.01921 0.61891 0.0
C146 C 0.80275 0.10562 0.63834 0.0
O147 O 0.82236 0.05125 0.60772 0.0
C148 C 0.85964 0.06366 0.65027 0.0
C149 C 0.80028 0.04518 0.69031 0.0
O150 O 0.81751 0.09819 0.65224 0.0
O151 O 0.79465 0.08837 0.62742 0.0
O152 O 0.8503 0.07084 0.63222 0.0
O153 O 0.84459 0.05511 0.663 0.0
O154 O 0.79465 0.05706 0.67242 0.0
O155 O 0.81842 0.03173 0.68934 0.0
C156 C 0.86945 0.99382 0.66603 0.0
O157 O 0.8483 0.98977 0.67083 0.0
O158 O 0.87089 0.01302 0.65591 0.0
C159 C 0.79333 0.01475 0.64322 0.0
Tb160 Tb 0.40168 0.99706 0.22977 0.0
C161 C 0.3517 0.99303 0.2194 0.0
Tb162 Tb 0.39096 0.98722 0.18085 0.0
O163 O 0.3908 0.03304 0.2265 0.0
O164 O 0.40281 0.01493 0.19899 0.0
O165 O 0.36705 0.98671 0.23386 0.0
C166 C 0.37452 0.98087 0.1394 0.0
O167 O 0.35777 0.99778 0.19793 0.0
C168 C 0.40236 0.95206 0.20459 0.0
C169 C 0.44317 0.99319 0.19486 0.0
O170 O 0.36592 0.97331 0.15811 0.0
O171 O 0.39226 0.99279 0.14407 0.0
O172 O 0.40668 0.95379 0.18319 0.0
O173 O 0.39075 0.96882 0.21095 0.0
O174 O 0.42846 0.99372 0.1778 0.0
O175 O 0.43606 0.99269 0.21626 0.0
C176 C 0.41498 0.99064 0.27189 0.0
O177 O 0.42466 0.98213 0.25394 0.0
O178 O 0.39858 1.00384 0.26588 0.0
C179 C 0.39338 0.03304 0.20463 0.0
Tb180 Tb 0.02256 0.3955 0.2475 0.0
C181 C 0.0321 0.34457 0.23961 0.0
Tb182 Tb 0.03606 0.38048 0.20058 0.0
O183 O 0.98871 0.40527 0.23657 0.0
O184 O 1.00591 0.37899 0.22015 0.0
O185 O 0.0358 0.36178 0.25324 0.0
C186 C 0.04005 0.36871 0.15693 0.0
O187 O 0.02731 0.3482 0.21798 0.0
C188 C 0.0701 0.38605 0.22764 0.0
C189 C 0.02996 0.43439 0.21239 0.0
O190 O 0.04683 0.35707 0.17392 0.0
O191 O 0.03051 0.38711 0.16454 0.0
O192 O 0.0716 0.37398 0.20939 0.0
O193 O 0.05197 0.39692 0.2272 0.0
O194 O 0.03196 0.41817 0.19639 0.0
O195 O 0.028 0.42927 0.23416 0.0
C196 C 0.01823 0.40082 0.2923 0.0
O197 O 0.03009 0.41359 0.27882 0.0
O198 O 1.00885 0.38531 0.28012 0.0
C199 C 0.98872 0.39157 0.2194 0.0
Tb200 Tb 0.66024 0.98975 0.21824 0.0
C201 C 0.70673 0.01372 0.22169 0.0
Tb202 Tb 0.66661 0.02877 0.19037 0.0
O203 O 0.65168 0.97058 0.18849 0.0
O204 O 0.67729 0.99508 0.18638 0.0
O205 O 0.69079 1.00293 0.23285 0.0
C206 C 0.67009 0.05606 0.15434 0.0
O207 O 0.70215 0.02309 0.20181 0.0
C208 C 0.65573 0.0402 0.23218 0.0
C209 C 0.61565 1.00658 0.19748 0.0
O210 O 0.67519 0.06133 0.17487 0.0
O211 O 0.66288 0.03544 0.15407 0.0
O212 O 0.66909 0.05167 0.219 0.0
O213 O 0.64834 0.02368 0.22107 0.0
O214 O 0.62922 0.02069 0.18563 0.0
O215 O 0.6242 0.99382 0.21359 0.0
C216 C 0.66681 0.95534 0.24562 0.0
O217 O 0.67424 0.9566 0.22506 0.0
O218 O 0.65452 0.97302 0.25064 0.0
C219 C 0.66609 0.98068 0.17542 0.0
Tb220 Tb 0.04951 0.63886 0.24273 0.0
C221 C 0.04484 0.69222 0.23922 0.0
Tb222 Tb 0.03468 0.65904 0.19601 0.0
O223 O 0.0827 0.62937 0.22761 0.0
O224 O 0.06433 0.65641 0.21491 0.0
O225 O 0.04952 0.67446 0.25199 0.0
C226 C 0.03051 0.67477 0.15403 0.0
O227 O 0.03973 0.69033 0.21718 0.0
C228 C 0.99968 0.64515 0.22001 0.0
C229 C 0.03841 0.60463 0.20362 0.0
O230 O 0.02347 0.68475 0.17248 0.0
O231 O 0.04123 0.65639 0.15943 0.0
O232 O 0.99785 0.6546 0.2005 0.0
O233 O 0.02027 0.64518 0.22454 0.0
O234 O 0.03911 0.62171 0.18872 0.0
O235 O 0.0396 0.6081 0.22565 0.0
C236 C 0.04257 0.6232 0.28474 0.0
O237 O 0.02797 0.63373 0.27254 0.0
O238 O 0.06181 0.62305 0.27348 0.0
C239 C 0.08146 0.64412 0.2114 0.0
Tb240 Tb 0.37255 0.01908 0.80452 0.0
C241 C 0.32331 0.03775 0.80628 0.0
Tb242 Tb 0.35883 0.04641 0.84478 0.0
O243 O 0.38168 0.99139 0.82645 0.0
O244 O 0.35419 0.01234 0.83535 0.0
O245 O 0.3413 0.03434 0.79326 0.0
C246 C 0.35125 0.05912 0.88787 0.0
O247 O 0.32543 0.03953 0.82871 0.0
C248 C 0.36831 0.07103 0.80952 0.0
C249 C 0.41286 0.03436 0.83406 0.0
O250 O 0.34271 0.06859 0.87028 0.0
O251 O 0.36388 0.04229 0.8812 0.0
O252 O 0.35583 0.07825 0.82638 0.0
O253 O 0.37721 0.0527 0.81507 0.0
O254 O 0.39687 0.04248 0.84862 0.0
O255 O 0.40725 0.02576 0.81413 0.0
C256 C 0.37195 0.99738 0.76531 0.0
O257 O 0.38638 0.0131 0.77037 0.0
O258 O 0.35877 0.99353 0.78252 0.0
C259 C 0.36643 0.99616 0.84172 0.0
Tb260 Tb 0.01169 0.38976 0.82137 0.0
C261 C 0.99494 0.33985 0.82708 0.0
Tb262 Tb 0.98995 0.37812 0.866 0.0
O263 O 0.04194 0.40037 0.83987 0.0
O264 O 0.02236 0.37387 0.85153 0.0
O265 O 1.00212 0.35554 0.81296 0.0
C266 C 0.9831 0.36416 0.90822 0.0
O267 O 0.98995 0.34433 0.84884 0.0
C268 C 0.96177 0.39719 0.83868 0.0
C269 C 0.99998 0.43022 0.8528 0.0
O270 O 0.97115 0.35834 0.89096 0.0
O271 O 0.999 0.37786 0.9017 0.0
O272 O 0.95906 0.39723 0.86048 0.0
O273 O 0.9781 0.38425 0.8333 0.0
O274 O 0.99875 0.41517 0.86969 0.0
O275 O 1.00196 0.42344 0.83158 0.0
C276 C 0.02759 0.39528 0.77935 0.0
O277 O 0.01104 0.4066 0.78884 0.0
O278 O 0.03446 0.38037 0.79364 0.0
C279 C 0.03911 0.38587 0.85587 0.0
Tb280 Tb 0.6203 0.05573 0.80319 0.0
C281 C 0.6726 0.05105 0.80638 0.0
Tb282 Tb 0.63805 0.037 0.84813 0.0
O283 O 0.63256 0.09015 0.81194 0.0
O284 O 0.62394 0.06708 0.83681 0.0
O285 O 0.65535 0.05426 0.7929 0.0
C286 C 0.65903 0.0245 0.88578 0.0
O287 O 0.66977 0.04653 0.82851 0.0
C288 C 0.62216 1.00684 0.8216 0.0
C289 C 0.58393 0.04351 0.84168 0.0
O290 O 0.66435 0.01834 0.86535 0.0
O291 O 0.64212 0.03862 0.88509 0.0
O292 O 0.62343 1.00412 0.84316 0.0
O293 O 0.63248 0.0245 0.81557 0.0
O294 O 0.60072 0.03967 0.85626 0.0
O295 O 0.58794 0.04923 0.82036 0.0
C296 C 0.60152 0.05016 0.76271 0.0
O297 O 0.61319 0.03531 0.77346 0.0
O298 O 0.60099 0.06872 0.7748 0.0
C299 C 0.63272 0.08604 0.83363 0.0
Tb300 Tb 0.99009 0.6458 0.82614 0.0
C301 C 0.01192 0.694 0.82847 0.0
Tb302 Tb 0.02014 0.65326 0.86298 0.0
O303 O 0.965 0.63245 0.84965 0.0
O304 O 0.9853 0.65938 0.85967 0.0
O305 O 0.99954 0.67978 0.81703 0.0
C306 C 0.03807 0.66481 0.90246 0.0
O307 O 0.02165 0.6878 0.84766 0.0
C308 C 0.04127 0.63334 0.82954 0.0
C309 C 1.00438 0.60242 0.85027 0.0
O310 O 0.04567 0.67072 0.8827 0.0
O311 O 0.02027 0.65236 0.90007 0.0
O312 O 0.04629 0.63081 0.85057 0.0
O313 O 0.0262 0.64852 0.8276 0.0
O314 O 1.01043 0.61663 0.86686 0.0
O315 O 0.99852 0.61045 0.83036 0.0
C316 C 0.96339 0.6532 0.79172 0.0
O317 O 0.98062 0.63936 0.79109 0.0
O318 O 0.96066 0.66153 0.81177 0.0
C319 C 0.96994 0.64596 0.86604 0.0
Tb320 Tb 0.20729 0.38578 0.05031 0.0
C321 C 0.21306 0.33577 0.03361 0.0
Tb322 Tb 0.18173 0.37352 1.00816 0.0
O323 O 0.18364 0.36596 0.07046 0.0
O324 O 0.1728 0.3828 0.0416 0.0
O325 O 0.22135 0.35205 0.04659 0.0
C326 C 0.14784 0.36231 0.98092 0.0
O327 O 0.19631 0.33985 0.0189 0.0
C328 C 0.22147 0.38917 1.00033 0.0
C329 C 0.18597 0.42609 0.02144 0.0
O330 O 0.16919 0.35826 0.97684 0.0
O331 O 0.14568 0.37164 1.00073 0.0
O332 O 0.20536 0.39034 0.98573 0.0
O333 O 0.21573 0.37716 0.01679 0.0
O334 O 0.17705 0.41102 1.00728 0.0
O335 O 0.19782 0.41962 0.03903 0.0
C336 C 0.23369 0.40773 0.07869 0.0
O337 O 0.2139 0.39959 0.08374 0.0
O338 O 0.23907 0.40217 0.05805 0.0
C339 C 0.16689 0.36931 0.05696 0.0
Tb340 Tb 0.2048 0.64449 0.97952 0.0
C341 C 0.22371 0.6877 1.00514 0.0
Tb342 Tb 0.19803 0.64506 0.02899 0.0
O343 O 0.17879 0.66999 0.97659 0.0
O344 O 0.17552 0.64559 1.00133 0.0
O345 O 0.22303 0.67609 0.98583 0.0
C346 C 0.17878 0.65232 0.07004 0.0
O347 O 0.21408 0.67934 0.0241 0.0
C348 C 0.23757 0.62829 0.01512 0.0
C349 C 0.19253 0.59814 1.00437 0.0
O350 O 0.17231 0.6612 0.05124 0.0
O351 O 0.19657 0.63995 0.06579 0.0
O352 O 0.22679 0.62219 0.03346 0.0
O353 O 0.22641 0.64416 1.00695 0.0
O354 O 0.18574 0.61074 0.02195 0.0
O355 O 0.20281 0.60768 0.98661 0.0
C356 C 0.21432 0.63866 0.93574 0.0
O357 O 0.22699 0.64887 0.95013 0.0
O358 O 0.19651 0.63096 0.94615 0.0
C359 C 0.16649 0.66314 0.99343 0.0
Tb360 Tb 0.37759 0.2052 0.01251 0.0
C361 C 0.32969 0.21114 0.0374 0.0
Tb362 Tb 0.3727 0.18624 0.05709 0.0
O363 O 0.39028 0.17273 1.00106 0.0
O364 O 0.36373 0.17424 0.02465 0.0
O365 O 0.3433 0.21674 0.02048 0.0
C366 C 0.37199 0.1553 0.09016 0.0
O367 O 0.33673 0.19725 0.05357 0.0
C368 C 0.37389 0.23001 0.05817 0.0
C369 C 0.42357 0.19474 0.03424 0.0
O370 O 0.3783 0.17614 0.09234 0.0
O371 O 0.3661 0.15197 0.06942 0.0
O372 O 0.36266 0.21785 0.07275 0.0
O373 O 0.38543 0.21717 0.04517 0.0
O374 O 0.41077 0.18438 0.05018 0.0
O375 O 0.4138 0.20637 0.018 0.0
C376 C 0.37013 0.22553 0.97372 0.0
O377 O 0.36892 0.20405 0.97695 0.0
O378 O 0.37711 0.23552 0.99186 0.0
C379 C 0.3762 0.16094 0.01303 0.0
Tb380 Tb 0.84095 0.39229 0.01264 0.0
C381 C 0.81638 0.35399 0.03988 0.0
Tb382 Tb 0.8494 0.39284 0.06069 0.0
O383 O 0.8621 0.36224 0.01112 0.0
O384 O 0.8708 0.38848 0.03192 0.0
O385 O 0.81736 0.36534 0.02072 0.0
C386 C 0.87238 0.38388 0.09836 0.0
O387 O 0.82847 0.36088 0.05771 0.0
C388 C 0.81459 0.41679 0.05073 0.0
C389 C 0.85719 0.43896 0.03383 0.0
O390 O 0.85259 0.39353 0.09775 0.0
O391 O 0.87871 0.37872 0.0779 0.0
O392 O 0.8268 0.42054 0.06843 0.0
O393 O 0.82004 0.39834 0.04136 0.0
O394 O 0.86297 0.42698 0.05194 0.0
O395 O 0.84658 0.42894 0.01683 0.0
C396 C 0.83574 0.39277 0.96835 0.0
O397 O 0.85361 0.39968 0.97854 0.0
O398 O 0.82029 0.38723 0.98305 0.0
C399 C 0.87711 0.36931 0.0249 0.0
Tb400 Tb 0.66457 0.85765 0.01102 0.0
C401 C 0.60972 0.84893 0.02265 0.0
Tb402 Tb 0.65072 0.82637 0.04695 0.0
O403 O 0.66981 0.83108 0.98593 0.0
O404 O 0.64631 0.82783 0.01186 0.0
O405 O 0.62575 0.86091 0.0113 0.0
C406 C 0.64791 0.79422 0.07763 0.0
O407 O 0.6159 0.83298 0.03703 0.0
C408 C 0.65646 0.86824 0.05972 0.0
C409 C 0.70122 0.82249 0.02796 0.0
O410 O 0.6405 0.79246 0.05719 0.0
O411 O 0.65606 0.81415 0.0809 0.0
O412 O 0.6403 0.85543 0.06713 0.0
O413 O 0.66922 0.85731 0.04619 0.0
O414 O 0.68391 0.81236 0.03798 0.0
O415 O 0.6985 0.84258 0.01812 0.0
C416 C 0.67095 0.89746 0.99071 0.0
O417 O 0.67702 0.87793 0.98253 0.0
O418 O 0.66137 0.89459 1.01035 0.0
C419 C 0.6548 0.81768 0.99496 0.0
Tb420 Tb 0.86237 0.66649 0.04015 0.0
C421 C 0.85052 0.61242 0.03439 0.0
Tb422 Tb 0.81937 0.65209 0.01921 0.0
O423 O 0.84713 0.67611 0.07273 0.0
O424 O 0.83222 0.65184 0.05213 0.0
O425 O 0.86614 0.62819 0.03919 0.0
C426 C 0.77861 0.64188 1.00388 0.0
O427 O 0.82988 0.61837 0.02845 0.0
C428 C 0.85478 0.65328 0.99149 0.0
C429 C 0.82369 0.70316 0.02956 0.0
O430 O 0.78791 0.63321 0.02151 0.0
O431 O 0.79202 0.65728 0.99586 0.0
O432 O 0.83824 0.63923 0.98994 0.0
O433 O 0.85026 0.66743 1.00694 0.0
O434 O 0.80954 0.68611 0.02859 0.0
O435 O 0.84616 0.69954 0.03032 0.0
C436 C 0.90571 0.67583 0.04958 0.0
O437 O 0.88808 0.687 0.05665 0.0
O438 O 0.89903 0.65937 0.03678 0.0
C439 C 0.82903 0.6646 0.06897 0.0
Tb440 Tb 0.39336 0.8167 0.02509 0.0
C441 C 0.34703 0.80786 1.00467 0.0
Tb442 Tb 0.38534 0.84445 0.98558 0.0
O443 O 0.36981 0.83825 0.04435 0.0
O444 O 0.39075 0.85207 0.01966 0.0
O445 O 0.36307 0.79871 0.01692 0.0
C446 C 0.37093 0.87881 0.96009 0.0
O447 O 0.35128 0.82686 0.99266 0.0
C448 C 0.40349 0.80621 0.97463 0.0
C449 C 0.43645 0.84184 1.00389 0.0
O450 O 0.37769 0.88036 0.98072 0.0
O451 O 0.37193 0.85778 0.95384 0.0
O452 O 0.40682 0.82469 0.96331 0.0
O453 O 0.38902 0.80944 0.99028 0.0
O454 O 0.42258 0.85217 0.98948 0.0
O455 O 0.42823 0.82701 0.01839 0.0
C456 C 0.41273 0.79403 0.05819 0.0
O457 O 0.39537 0.80732 0.06037 0.0
O458 O 0.41737 0.79167 0.0368 0.0
C459 C 0.37515 0.85651 0.03374 0.0
Tb460 Tb 0.64184 0.22123 0.05455 0.0
C461 C 0.68634 0.2402 0.03235 0.0
Tb462 Tb 0.64857 0.21078 1.00899 0.0
O463 O 0.63337 0.18596 0.05851 0.0
O464 O 0.66067 0.19452 0.0381 0.0
O465 O 0.67037 0.24374 0.04792 0.0
C466 C 0.65166 0.18597 0.97045 0.0
O467 O 0.68283 0.225 0.01596 0.0
C468 C 0.63529 0.25278 0.01268 0.0
C469 C 0.59724 0.20701 0.03223 0.0
O470 O 0.64964 0.20774 0.97168 0.0
O471 O 0.65223 0.17832 0.99086 0.0
O472 O 0.6513 0.24552 0.99909 0.0
O473 O 0.62867 0.23648 0.02487 0.0
O474 O 0.61119 0.2022 0.0145 0.0
O475 O 0.60556 0.217 0.05035 0.0
C476 C 0.64624 0.22659 0.09918 0.0
O477 O 0.6314 0.23676 0.08676 0.0
O478 O 0.65892 0.21436 0.08598 0.0
C479 C 0.64995 0.17803 0.04646 0.0
Tb480 Tb 0.53577 0.72586 0.9146 0.0
C481 C 0.52779 0.72127 0.86354 0.0
Tb482 Tb 0.53188 0.6796 0.8968 0.0
O483 O 0.57133 0.71769 0.92306 0.0
O484 O 0.55687 0.70414 0.8946 0.0
O485 O 0.52087 0.73209 0.88192 0.0
C486 C 0.53627 0.63687 0.88195 0.0
O487 O 0.537 0.70072 0.8656 0.0
C488 C 0.4927 0.69823 0.90584 0.0
C489 C 0.53697 0.68977 0.95184 0.0
O490 O 0.54261 0.64427 0.90151 0.0
O491 O 0.528 0.65365 0.87098 0.0
O492 O 0.49563 0.68284 0.8905 0.0
O493 O 0.51061 0.70047 0.91651 0.0
O494 O 0.53835 0.67456 0.93462 0.0
O495 O 0.53383 0.71144 0.94779 0.0
C496 C 0.53124 0.76995 0.92275 0.0
O497 O 0.5448 0.76064 0.9079 0.0
O498 O 0.52073 0.7541 0.93367 0.0
C499 C 0.57438 0.70415 0.90596 0.0
Tb500 Tb 0.36711 0.53697 0.87342 0.0
C501 C 0.35375 0.53462 0.92755 0.0
Tb502 Tb 0.32625 0.51246 0.88872 0.0
O503 O 0.35036 0.56798 0.86339 0.0
O504 O 0.33611 0.54667 0.88811 0.0
O505 O 0.36954 0.53956 0.91165 0.0
C506 C 0.28795 0.49227 0.90093 0.0
O507 O 0.33421 0.52567 0.92186 0.0
C508 C 0.36396 0.48834 0.8854 0.0
C509 C 0.32885 0.52483 0.83754 0.0
O510 O 0.30242 0.48481 0.88588 0.0
O511 O 0.29466 0.51179 0.90803 0.0
O512 O 0.34894 0.48624 0.90138 0.0
O513 O 0.35725 0.50295 0.87174 0.0
O514 O 0.31533 0.52021 0.85492 0.0
O515 O 0.35103 0.5287 0.84029 0.0
C516 C 0.41138 0.54327 0.86605 0.0
O517 O 0.39526 0.55468 0.85681 0.0
O518 O 0.40259 0.52845 0.87952 0.0
C519 C 0.33222 0.56295 0.87505 0.0
Tb520 Tb 0.48666 0.32762 0.88864 0.0
C521 C 0.51504 0.31656 0.84493 0.0
Tb522 Tb 0.52813 0.35242 0.88418 0.0
O523 O 0.47348 0.34951 0.86217 0.0
O524 O 0.49394 0.36269 0.88631 0.0
O525 O 0.49806 0.31019 0.85812 0.0
C526 C 0.55592 0.38538 0.87076 0.0
O527 O 0.52813 0.3339 0.85088 0.0
C528 C 0.53477 0.31641 0.90668 0.0
C529 C 0.50579 0.34891 0.93371 0.0
O530 O 0.5346 0.38781 0.87574 0.0
O531 O 0.56167 0.36444 0.87349 0.0
O532 O 0.54686 0.33459 0.90875 0.0
O533 O 0.52141 0.31763 0.89011 0.0
O534 O 0.52053 0.36008 0.92049 0.0
O535 O 0.49144 0.33412 0.92493 0.0
C536 C 0.44804 0.30541 0.89209 0.0
O537 O 0.45046 0.32673 0.89606 0.0
O538 O 0.46763 0.29616 0.88816 0.0
C539 C 0.48215 0.36796 0.86971 0.0
Tb540 Tb 0.72418 0.49206 0.8798 0.0
C541 C 0.73051 0.51472 0.8313 0.0
Tb542 Tb 0.70215 0.53494 0.87235 0.0
O543 O 0.69207 0.47556 0.88477 0.0
O544 O 0.69477 0.50178 0.86136 0.0
O545 O 0.7372 0.49948 0.8459 0.0
C546 C 0.67224 0.56934 0.87282 0.0
O547 O 0.71419 0.5295 0.83691 0.0
C548 C 0.74479 0.5391 0.88371 0.0
C549 C 0.70307 0.51349 0.92366 0.0
O550 O 0.69332 0.57046 0.86655 0.0
O551 O 0.66773 0.5486 0.87807 0.0
O552 O 0.7347 0.55146 0.86897 0.0
O553 O 0.73044 0.52522 0.89107 0.0
O554 O 0.69456 0.52888 0.9095 0.0
O555 O 0.71745 0.49783 0.91585 0.0
C556 C 0.75501 0.45949 0.87692 0.0
O557 O 0.7593 0.48084 0.8785 0.0
O558 O 0.73336 0.45628 0.87858 0.0
C559 C 0.68114 0.48856 0.87126 0.0
Tb560 Tb 0.52466 0.3016 0.14416 0.0
C561 C 0.50759 0.30504 0.19346 0.0
Tb562 Tb 0.50353 0.34453 0.15902 0.0
O563 O 0.55625 0.31871 0.1356 0.0
O564 O 0.53602 0.33055 0.16254 0.0
O565 O 0.50575 0.29329 0.17471 0.0
C566 C 0.4922 0.38751 0.16854 0.0
O567 O 0.51071 0.32727 0.19178 0.0
C568 C 0.47357 0.31398 0.14764 0.0
C569 C 0.51507 0.33412 0.10476 0.0
O570 O 0.48469 0.36985 0.17894 0.0
O571 O 0.50669 0.38102 0.15303 0.0
O572 O 0.46977 0.32969 0.16256 0.0
O573 O 0.4929 0.31723 0.13928 0.0
O574 O 0.5092 0.34916 0.12117 0.0
O575 O 0.5203 0.31287 0.10968 0.0
C576 C 0.53731 0.25897 0.14928 0.0
O577 O 0.54135 0.27552 0.16289 0.0
O578 O 0.52745 0.26661 0.13132 0.0
C579 C 0.55331 0.33462 0.15049 0.0
Tb580 Tb 0.69342 0.55272 0.14046 0.0
C581 C 0.70595 0.53056 0.18757 0.0
Tb582 Tb 0.68007 0.50671 0.14772 0.0
O583 O 0.65824 0.56187 0.13582 0.0
O584 O 0.66627 0.53763 0.15956 0.0
O585 O 0.70884 0.5476 0.17347 0.0
C586 C 0.65213 0.47126 0.15092 0.0
O587 O 0.69249 0.51337 0.18226 0.0
C588 C 0.72321 0.50964 0.13722 0.0
C589 C 0.68278 0.52615 0.09577 0.0
O590 O 0.67314 0.47145 0.15686 0.0
O591 O 0.6469 0.49094 0.14314 0.0
O592 O 0.71439 0.49467 0.15068 0.0
O593 O 0.70731 0.52143 0.12966 0.0
O594 O 0.67582 0.50957 0.1097 0.0
O595 O 0.69284 0.54422 0.10435 0.0
C596 C 0.7121 0.5935 0.14043 0.0
O597 O 0.72156 0.57524 0.14757 0.0
O598 O 0.69249 0.58868 0.13244 0.0
C599 C 0.65018 0.54756 0.15009 0.0
Tb600 Tb 0.52319 0.72993 0.16279 0.0
C601 C 0.52518 0.72302 0.21456 0.0
Tb602 Tb 0.52941 0.68301 0.1789 0.0
O603 O 0.49003 0.71954 0.14958 0.0
O604 O 0.50226 0.70555 0.17892 0.0
O605 O 0.53238 0.73576 0.19775 0.0
C606 C 0.52812 0.63866 0.18784 0.0
O607 O 0.51881 0.7017 0.21053 0.0
C608 C 0.56696 0.7061 0.177 0.0
C609 C 0.5308 0.69456 0.12425 0.0
O610 O 0.53834 0.65398 0.19946 0.0
O611 O 0.51774 0.64859 0.17149 0.0
O612 O 0.56388 0.68898 0.19006 0.0
O613 O 0.55073 0.70702 0.16369 0.0
O614 O 0.52841 0.67881 0.14051 0.0
O615 O 0.53148 0.71628 0.12962 0.0
C616 C 0.52382 0.77443 0.15596 0.0
O617 O 0.50924 0.76357 0.16836 0.0
O618 O 0.53795 0.7599 0.14709 0.0
C619 C 0.48645 0.70475 0.16528 0.0
Tb620 Tb 0.34805 0.54277 0.15137 0.0
C621 C 0.34768 0.55758 0.09935 0.0
Tb622 Tb 0.3285 0.58534 0.14181 0.0
O623 O 0.3165 0.52604 0.15794 0.0
O624 O 0.31839 0.55158 0.13365 0.0
O625 O 0.35621 0.54311 0.11418 0.0
C626 C 0.32292 0.62552 0.12259 0.0
O627 O 0.33472 0.57451 0.10667 0.0
C628 C 0.36613 0.5875 0.16523 0.0
C629 C 0.31159 0.56531 0.18674 0.0
O630 O 0.3419 0.61575 0.12674 0.0
O631 O 0.30654 0.61268 0.13007 0.0
O632 O 0.34734 0.5975 0.17077 0.0
O633 O 0.36227 0.5751 0.14842 0.0
O634 O 0.30591 0.57906 0.17021 0.0
O635 O 0.33001 0.55194 0.18436 0.0
C636 C 0.37881 0.51075 0.1596 0.0
O637 O 0.37615 0.52932 0.17117 0.0
O638 O 0.36384 0.51004 0.14389 0.0
C639 C 0.30511 0.53817 0.14391 0.0
Tb640 Tb 0.898 0.54065 0.69596 0.0
C641 C 0.85204 0.5159 0.70836 0.0
Tb642 Tb 0.89574 0.49497 0.68419 0.0
O643 O 0.90907 0.5459 0.66129 0.0
O644 O 0.88285 0.52387 0.668 0.0
O645 O 0.86439 0.53426 0.71048 0.0
C646 C 0.8949 0.45838 0.65725 0.0
O647 O 0.86004 0.49822 0.69656 0.0
C648 C 0.89952 0.49944 0.72768 0.0
C649 C 0.94506 0.51967 0.68777 0.0
O650 O 0.90148 0.45857 0.67804 0.0
O651 O 0.88904 0.47865 0.65179 0.0
O652 O 0.88781 0.48381 0.71784 0.0
O653 O 0.90968 0.51125 0.71289 0.0
O654 O 0.93313 0.50288 0.6783 0.0
O655 O 0.93413 0.53567 0.69938 0.0
C656 C 0.89093 0.58407 0.70552 0.0
O657 O 0.89821 0.57608 0.68645 0.0
O658 O 0.88922 0.5678 0.71999 0.0
C659 C 0.89424 0.53299 0.65231 0.0
Tb660 Tb 0.50222 0.87869 0.71521 0.0
C661 C 0.52498 0.83747 0.73698 0.0
Tb662 Tb 0.54871 0.87501 0.70534 0.0
O663 O 0.49958 0.84783 0.69527 0.0
O664 O 0.52025 0.87313 0.68401 0.0
O665 O 0.5082 0.85221 0.73956 0.0
C666 C 0.58872 0.87154 0.68344 0.0
O667 O 0.54135 0.84126 0.72141 0.0
C668 C 0.54214 0.88549 0.74801 0.0
C669 C 0.52664 0.92449 0.70133 0.0
O670 O 0.57177 0.85791 0.68098 0.0
O671 O 0.58316 0.88676 0.69838 0.0
O672 O 0.55818 0.87232 0.74028 0.0
O673 O 0.53082 0.89242 0.73153 0.0
O674 O 0.5448 0.91163 0.69661 0.0
O675 O 0.50822 0.91506 0.71028 0.0
C676 C 0.45845 0.88846 0.71343 0.0
O677 O 0.47281 0.88921 0.69681 0.0
O678 O 0.46881 0.88275 0.73177 0.0
C679 C 0.51097 0.85497 0.67798 0.0
Tb680 Tb 0.15686 0.51763 0.72418 0.0
C681 C 0.20787 0.53181 0.72122 0.0
Tb682 Tb 0.17021 0.54359 0.68363 0.0
O683 O 0.14446 0.4905 0.70274 0.0
O684 O 0.17239 0.50906 0.69197 0.0
O685 O 0.19155 0.52274 0.73362 0.0
C686 C 0.18473 0.55842 0.64326 0.0
O687 O 0.20391 0.54052 0.70073 0.0
C688 C 0.15024 0.56834 0.7149 0.0
C689 C 0.11758 0.53197 0.69376 0.0
O690 O 0.18921 0.56757 0.66264 0.0
O691 O 0.17255 0.54053 0.6467 0.0
O692 O 0.14935 0.57259 0.69352 0.0
O693 O 0.16368 0.55206 0.71791 0.0
O694 O 0.13356 0.53475 0.67758 0.0
O695 O 0.1234 0.52887 0.71492 0.0
C696 C 0.14705 0.49773 0.76329 0.0
O697 O 0.13885 0.51685 0.7565 0.0
O698 O 0.16208 0.49096 0.74844 0.0
C699 C 0.15879 0.49376 0.68637 0.0
Tb700 Tb 0.54024 0.13345 0.74129 0.0
C701 C 0.53739 0.18543 0.73737 0.0
Tb702 Tb 0.52567 0.15074 0.69527 0.0
O703 O 0.5758 0.14467 0.73425 0.0
O704 O 0.55437 0.13589 0.70845 0.0
O705 O 0.53917 0.16838 0.75151 0.0
C706 C 0.51629 0.17291 0.6573 0.0
O707 O 0.53454 0.18225 0.71504 0.0
C708 C 0.49303 0.13599 0.72046 0.0
C709 C 0.52985 0.09714 0.70248 0.0
O710 O 0.53084 0.15645 0.65871 0.0
O711 O 0.50766 0.17687 0.67716 0.0
O712 O 0.49291 0.13525 0.69863 0.0
O713 O 0.51009 0.14674 0.72719 0.0
O714 O 0.52937 0.11376 0.68715 0.0
O715 O 0.53201 0.10156 0.72431 0.0
C716 C 0.53084 0.11106 0.77966 0.0
O717 O 0.55005 0.11055 0.76833 0.0
O718 O 0.51827 0.1261 0.77023 0.0
C719 C 0.5733 0.14426 0.71232 0.0
Tb720 Tb 0.87935 0.50695 0.30913 0.0
C721 C 0.82993 0.52715 0.30413 0.0
Tb722 Tb 0.86672 0.54712 0.33851 0.0
O723 O 0.89067 0.49017 0.33943 0.0
O724 O 0.86271 0.5117 0.34156 0.0
O725 O 0.84591 0.51349 0.2958 0.0
C726 C 0.85943 0.57057 0.37674 0.0
O727 O 0.83343 0.54045 0.32222 0.0
C728 C 0.88079 0.56216 0.2995 0.0
C729 C 0.91996 0.53251 0.33027 0.0
O730 O 0.84807 0.57292 0.35832 0.0
O731 O 0.87426 0.55459 0.37373 0.0
O732 O 0.87396 0.57527 0.31597 0.0
O733 O 0.87895 0.542 0.30573 0.0
O734 O 0.90459 0.54363 0.34326 0.0
O735 O 0.91347 0.51918 0.31361 0.0
C736 C 0.8899 0.47201 0.28237 0.0
O737 O 0.89644 0.49276 0.27953 0.0
O738 O 0.87456 0.47222 0.29839 0.0
C739 C 0.87578 0.49938 0.35281 0.0
Tb740 Tb 0.54175 0.88788 0.34705 0.0
C741 C 0.51717 0.8415 0.33751 0.0
Tb742 Tb 0.4987 0.88243 0.36834 0.0
O743 O 0.55427 0.90056 0.37899 0.0
O744 O 0.53139 0.87385 0.37887 0.0
O745 O 0.53521 0.85415 0.33422 0.0
C746 C 0.46556 0.87235 0.39779 0.0
O747 O 0.50005 0.84884 0.3507 0.0
C748 C 0.49454 0.90357 0.33068 0.0
C749 C 0.52066 0.93254 0.36404 0.0
O750 O 0.46424 0.8708 0.37601 0.0
O751 O 0.48556 0.87943 0.40297 0.0
O752 O 0.48238 0.90743 0.34878 0.0
O753 O 0.50818 0.88724 0.33374 0.0
O754 O 0.50703 0.91889 0.37619 0.0
O755 O 0.53464 0.92388 0.34848 0.0
C756 C 0.5811 0.88069 0.32622 0.0
O757 O 0.56487 0.89306 0.31832 0.0
O758 O 0.5756 0.87338 0.34601 0.0
C759 C 0.54281 0.88667 0.39134 0.0
Tb760 Tb 0.12863 0.54963 0.29528 0.0
C761 C 0.18064 0.55095 0.29912 0.0
Tb762 Tb 0.1463 0.53651 0.34124 0.0
O763 O 0.1375 0.58558 0.30169 0.0
O764 O 0.12915 0.56401 0.32799 0.0
O765 O 0.16369 0.54998 0.28488 0.0
C766 C 0.16596 0.52817 0.38089 0.0
O767 O 0.17736 0.54877 0.32167 0.0
C768 C 0.13591 0.50272 0.31554 0.0
C769 C 0.09235 0.53733 0.33405 0.0
O770 O 0.17179 0.51966 0.36144 0.0
O771 O 0.14944 0.54233 0.37793 0.0
O772 O 0.13393 0.50253 0.33731 0.0
O773 O 0.14494 0.52092 0.30917 0.0
O774 O 0.10889 0.53747 0.34928 0.0
O775 O 0.09688 0.54007 0.31227 0.0
C776 C 0.10462 0.54124 0.25803 0.0
O777 O 0.11727 0.5271 0.26863 0.0
O778 O 0.1078 0.56099 0.26735 0.0
C779 C 0.13644 0.58334 0.32362 0.0
Tb780 Tb 0.49943 0.14106 0.32597 0.0
C781 C 0.51952 0.18782 0.31704 0.0
Tb782 Tb 0.53262 0.15724 0.3606 0.0
O783 O 0.47502 0.16589 0.33937 0.0
O784 O 0.49766 0.15043 0.36072 0.0
O785 O 0.5119 0.16932 0.3072 0.0
C786 C 0.54797 0.17253 0.40017 0.0
O787 O 0.52492 0.18794 0.3391 0.0
C788 C 0.5561 0.13981 0.32719 0.0
C789 C 0.51867 0.10447 0.35957 0.0
O790 O 0.53525 0.15503 0.39737 0.0
O791 O 0.55168 0.18179 0.38064 0.0
O792 O 0.5652 0.14876 0.3449 0.0
O793 O 0.53486 0.14173 0.32903 0.0
O794 O 0.53219 0.12016 0.36852 0.0
O795 O 0.50386 0.1096 0.34401 0.0
C796 C 0.47563 0.11347 0.30026 0.0
O797 O 0.49732 0.11657 0.29867 0.0
O798 O 0.4674 0.12888 0.31374 0.0
C799 C 0.48199 0.16486 0.35999 0.0
Tb800 Tb 0.72678 0.89764 0.52371 0.0
C801 C 0.71659 0.84826 0.5223 0.0
Tb802 Tb 0.67899 0.88819 0.52158 0.0
O803 O 0.72653 0.88492 0.55886 0.0
O804 O 0.69888 0.90209 0.54678 0.0
O805 O 0.73036 0.8631 0.51306 0.0
C806 C 0.63588 0.8734 0.52099 0.0
O807 O 0.69636 0.85518 0.53071 0.0
C808 C 0.69672 0.89551 0.48182 0.0
C809 C 0.69433 0.94008 0.52068 0.0
O810 O 0.65343 0.86342 0.51213 0.0
O811 O 0.64297 0.89115 0.53167 0.0
O812 O 0.6766 0.90166 0.48805 0.0
O813 O 0.70603 0.88479 0.49743 0.0
O814 O 0.67713 0.92603 0.52521 0.0
O815 O 0.71498 0.93193 0.5174 0.0
C816 C 0.76866 0.91484 0.52083 0.0
O817 O 0.76214 0.89811 0.53335 0.0
O818 O 0.75167 0.92032 0.50847 0.0
C819 C 0.70612 0.89166 0.56335 0.0
Tb820 Tb 0.71469 0.15837 0.4912 0.0
C821 C 0.7288 0.20387 0.51476 0.0
Tb822 Tb 0.70155 0.16201 0.53944 0.0
O823 O 0.68971 0.18358 0.48329 0.0
O824 O 0.68287 0.16056 0.50895 0.0
O825 O 0.73148 0.19063 0.49665 0.0
C826 C 0.67831 0.16998 0.5786 0.0
O827 O 0.71654 0.19681 0.53291 0.0
C828 C 0.7428 0.14581 0.5316 0.0
C829 C 0.70007 0.11333 0.5173 0.0
O830 O 0.69937 0.16375 0.57676 0.0
O831 O 0.6707 0.17255 0.55835 0.0
O832 O 0.72959 0.13976 0.54831 0.0
O833 O 0.73248 0.16085 0.52123 0.0
O834 O 0.69137 0.12644 0.53368 0.0
O835 O 0.71216 0.12238 0.50055 0.0
C836 C 0.72761 0.14497 0.44991 0.0
O837 O 0.70729 0.14374 0.45831 0.0
O838 O 0.74071 0.15412 0.46473 0.0
C839 C 0.67509 0.17748 0.49859 0.0
Tb840 Tb 0.88387 0.73435 0.51085 0.0
C841 C 0.8347 0.72864 0.52825 0.0
Tb842 Tb 0.87327 0.6913 0.53357 0.0
O843 O 0.89345 0.71451 0.4807 0.0
O844 O 0.86677 0.70401 0.50146 0.0
O845 O 0.85135 0.74318 0.52603 0.0
C846 C 0.86624 0.64794 0.54442 0.0
O847 O 0.83895 0.70638 0.52753 0.0
C848 C 0.87944 0.7243 0.56191 0.0
C849 C 0.92643 0.70518 0.52169 0.0
O850 O 0.85668 0.66532 0.55398 0.0
O851 O 0.87978 0.65492 0.52842 0.0
O852 O 0.8678 0.70649 0.56686 0.0
O853 O 0.88951 0.72109 0.54329 0.0
O854 O 0.91154 0.68871 0.52712 0.0
O855 O 0.91907 0.72571 0.51678 0.0
C856 C 0.88852 0.7752 0.49227 0.0
O857 O 0.8985 0.76799 0.51023 0.0
O858 O 0.87463 0.75954 0.4861 0.0
C859 C 0.87844 0.69904 0.48421 0.0
Tb860 Tb 0.30415 0.90467 0.53403 0.0
C861 C 0.3101 0.85395 0.5445 0.0
Tb862 Tb 0.34917 0.89146 0.55576 0.0
O863 O 0.31469 0.88766 0.50202 0.0
O864 O 0.3384 0.90046 0.5236 0.0
O865 O 0.29546 0.87058 0.5429 0.0
C866 C 0.38937 0.87511 0.56896 0.0
O867 O 0.33241 0.85802 0.54686 0.0
C868 C 0.31979 0.90959 0.58399 0.0
C869 C 0.33799 0.94441 0.54431 0.0
O870 O 0.3696 0.86809 0.57561 0.0
O871 O 0.38654 0.89105 0.55431 0.0
O872 O 0.34128 0.9083 0.5877 0.0
O873 O 0.31579 0.89751 0.56689 0.0
O874 O 0.35425 0.9288 0.5482 0.0
O875 O 0.31662 0.93834 0.54135 0.0
C876 C 0.26158 0.91506 0.52415 0.0
O877 O 0.26785 0.89945 0.53781 0.0
O878 O 0.27949 0.92529 0.51633 0.0
C879 C 0.33609 0.88864 0.50628 0.0
Tb880 Tb 0.17084 0.37143 0.5163 0.0
C881 C 0.11633 0.35987 0.52333 0.0
Tb882 Tb 0.15664 0.33529 0.54704 0.0
O883 O 0.17845 0.34867 0.48808 0.0
O884 O 0.15428 0.34082 0.51219 0.0
O885 O 0.13217 0.3743 0.51528 0.0
C886 C 0.14867 0.29836 0.57093 0.0
O887 O 0.12258 0.34199 0.53512 0.0
C888 C 0.15853 0.37548 0.56583 0.0
C889 C 0.20765 0.33464 0.53064 0.0
O890 O 0.15829 0.31643 0.57848 0.0
O891 O 0.14348 0.3012 0.54998 0.0
O892 O 0.14335 0.36043 0.57038 0.0
O893 O 0.17299 0.36751 0.55178 0.0
O894 O 0.19063 0.32302 0.53925 0.0
O895 O 0.20461 0.35577 0.52328 0.0
C896 C 0.1786 0.41195 0.49749 0.0
O897 O 0.18744 0.39291 0.49105 0.0
O898 O 0.16545 0.40833 0.51489 0.0
C899 C 0.16485 0.33302 0.49524 0.0
Tb900 Tb 0.35879 0.16926 0.53087 0.0
C901 C 0.35002 0.11666 0.52239 0.0
Tb902 Tb 0.32389 0.15766 0.49858 0.0
O903 O 0.34136 0.15346 0.55907 0.0
O904 O 0.32332 0.16803 0.53268 0.0
O905 O 0.36365 0.13169 0.53209 0.0
C906 C 0.29396 0.13478 0.47462 0.0
O907 O 0.33361 0.12359 0.50919 0.0
C908 C 0.3619 0.1719 0.48 0.0
C909 C 0.32174 0.20757 0.5145 0.0
O910 O 0.30923 0.14823 0.46651 0.0
O911 O 0.2943 0.13596 0.49648 0.0
O912 O 0.34195 0.17658 0.4727 0.0
O913 O 0.35998 0.15875 0.49665 0.0
O914 O 0.30986 0.19102 0.50532 0.0
O915 O 0.34211 0.20323 0.52363 0.0
C916 C 0.39748 0.18452 0.54803 0.0
O917 O 0.3955 0.17464 0.52859 0.0
O918 O 0.37762 0.1861 0.55765 0.0
C919 C 0.32151 0.15667 0.55048 0.0
Tb920 Tb 0.90555 0.31138 0.50311 0.0
C921 C 0.8543 0.31923 0.50242 0.0
Tb922 Tb 0.89125 0.35906 0.49226 0.0
O923 O 0.896 0.31546 0.53929 0.0
O924 O 0.9053 0.34297 0.52003 0.0
O925 O 0.87037 0.30444 0.49718 0.0
C926 C 0.87374 0.40006 0.48321 0.0
O927 O 0.85914 0.34142 0.50465 0.0
C928 C 0.90162 0.33379 0.45749 0.0
C929 C 0.94487 0.34807 0.49752 0.0
O930 O 0.86571 0.38077 0.47697 0.0
O931 O 0.89109 0.39618 0.4958 0.0
O932 O 0.9056 0.35517 0.45822 0.0
O933 O 0.89139 0.32782 0.47515 0.0
O934 O 0.92886 0.36434 0.49714 0.0
O935 O 0.93898 0.32648 0.49805 0.0
C936 C 0.92611 0.27118 0.49869 0.0
O937 O 0.92965 0.28863 0.48603 0.0
O938 O 0.91023 0.27653 0.51334 0.0
C939 C 0.89687 0.33737 0.53869 0.0
Tb940 Tb 0.14648 0.71002 0.5464 0.0
C941 C 0.19183 0.73109 0.52592 0.0
Tb942 Tb 0.15268 0.70669 0.49877 0.0
O943 O 0.13741 0.67469 0.54364 0.0
O944 O 0.16483 0.68658 0.52541 0.0
O945 O 0.17725 0.73056 0.54324 0.0
C946 C 0.15555 0.6854 0.45828 0.0
O947 O 0.18707 0.72019 0.50666 0.0
C948 C 0.1436 0.74808 0.51133 0.0
C949 C 0.10116 0.70284 0.5213 0.0
O950 O 0.15123 0.70674 0.4614 0.0
O951 O 0.15858 0.67637 0.47785 0.0
O952 O 0.15678 0.74256 0.49424 0.0
O953 O 0.13515 0.73032 0.51958 0.0
O954 O 0.11492 0.69885 0.50323 0.0
O955 O 0.1101 0.70992 0.54047 0.0
C956 C 0.1477 0.70903 0.59149 0.0
O957 O 0.15731 0.69481 0.57779 0.0
O958 O 0.13763 0.72433 0.5796 0.0
C959 C 0.15449 0.66879 0.53104 0.0
H960 H 0.02301 0.16031 0.58952 0.0
H961 H 1.0002 0.22502 0.47297 0.0
H962 H 0.97838 0.21735 0.58154 0.0
H963 H 0.02688 0.15723 0.47063 0.0
H964 H 0.99499 0.22202 0.51361 0.0
H965 H 0.02707 0.15784 0.54765 0.0
C966 C 0.01387 0.17212 0.57919 0.0
C967 C 1.00045 0.18922 0.58956 0.0
C968 C 1.00189 0.20762 0.50442 0.0
C969 C 1.00532 0.18668 0.54138 0.0
C970 C 1.00494 0.20934 0.48096 0.0
C971 C 0.01399 0.19137 0.46791 0.0
C972 C 1.00823 0.18785 0.51576 0.0
C973 C 0.01965 0.17152 0.47974 0.0
C974 C 0.01627 0.17075 0.55519 0.0
C975 C 0.98921 0.20402 0.57486 0.0
N976 N 0.01691 0.17037 0.50292 0.0
N977 N 0.99205 0.2025 0.55201 0.0
H978 H 0.83479 0.99093 0.58122 0.0
H979 H 0.86068 0.03576 0.45513 0.0
H980 H 0.84115 0.06172 0.56655 0.0
H981 H 0.82137 0.97583 0.4672 0.0
H982 H 0.86053 0.04315 0.49619 0.0
H983 H 0.83649 0.98266 0.54026 0.0
C984 C 0.83698 1.00472 0.56949 0.0
C985 C 0.83801 0.0271 0.57762 0.0
C986 C 0.85202 0.02832 0.48986 0.0
C987 C 0.84033 0.01765 0.5303 0.0
C988 C 0.85219 0.02401 0.46633 0.0
C989 C 0.84098 1.00512 0.45735 0.0
C990 C 0.84109 0.01337 0.50493 0.0
C991 C 0.83018 0.99067 0.47307 0.0
C992 C 0.83778 0.99999 0.54601 0.0
C993 C 0.84038 0.04421 0.56128 0.0
N994 N 0.83066 0.99496 0.49586 0.0
N995 N 0.84168 0.03915 0.53866 0.0
H996 H 0.03136 0.87387 0.59064 0.0
H997 H 0.99725 0.82079 0.46987 0.0
H998 H 1.00495 0.8071 0.57972 0.0
H999 H 0.04048 0.87906 0.47243 0.0
H1000 H 0.99577 0.81991 0.51086 0.0
H1001 H 0.0314 0.87989 0.54917 0.0
C1002 C 0.0254 0.86053 0.5797 0.0
C1003 C 0.01815 0.83986 0.58911 0.0
C1004 C 1.00548 0.83311 0.50271 0.0
C1005 C 0.01801 0.84678 0.54122 0.0
C1006 C 1.00623 0.83375 0.47903 0.0
C1007 C 0.01892 0.85011 0.46718 0.0
C1008 C 0.01754 0.84893 0.5155 0.0
C1009 C 0.03016 0.8663 0.48053 0.0
C1010 C 0.02555 0.86397 0.55591 0.0
C1011 C 1.01083 0.82329 0.57368 0.0
N1012 N 0.02931 0.86524 0.50385 0.0
N1013 N 1.01088 0.82714 0.55093 0.0
H1014 H 0.16868 0.9922 0.57039 0.0
H1015 H 0.17649 0.05064 0.44766 0.0
H1016 H 0.17939 0.06349 0.5615 0.0
H1017 H 0.18729 0.97936 0.45697 0.0
H1018 H 0.17285 0.05543 0.48881 0.0
H1019 H 0.17077 0.98706 0.52912 0.0
C1020 C 0.17117 1.00687 0.55985 0.0
C1021 C 0.17368 0.02839 0.56982 0.0
C1022 C 0.17591 0.0387 0.48191 0.0
C1023 C 0.17608 0.02252 0.52189 0.0
C1024 C 0.17787 0.03589 0.45825 0.0
C1025 C 0.18212 0.01449 0.44842 0.0
C1026 C 0.17785 0.01997 0.4963 0.0
C1027 C 0.18397 0.9962 0.46347 0.0
C1028 C 0.17252 1.00386 0.53615 0.0
C1029 C 0.17725 0.04657 0.55489 0.0
N1030 N 0.18173 0.99933 0.48641 0.0
N1031 N 0.1782 0.04325 0.53193 0.0
H1032 H 0.58733 0.02925 0.16695 0.0
H1033 H 0.47449 0.97232 0.2203 0.0
H1034 H 0.58518 0.98045 0.22062 0.0
H1035 H 0.47044 0.01536 0.16219 0.0
H1036 H 0.51541 0.97577 0.2192 0.0
H1037 H 0.54568 0.02556 0.16368 0.0
C1038 C 0.5783 0.01778 0.17802 0.0
C1039 C 0.59023 1.00522 0.19415 0.0
C1040 C 0.50582 0.98444 0.20649 0.0
C1041 C 0.54225 1.00089 0.19045 0.0
C1042 C 0.48221 0.98241 0.20707 0.0
C1043 C 0.46862 0.99347 0.19129 0.0
C1044 C 0.51666 0.99795 0.19011 0.0
C1045 C 0.48005 1.00628 0.1746 0.0
C1046 C 0.55443 0.01565 0.1761 0.0
C1047 C 0.57722 0.99064 0.2079 0.0
N1048 N 0.50329 1.00833 0.17456 0.0
N1049 N 0.55435 0.98899 0.20576 0.0
H1050 H 1.00167 0.57895 0.21347 0.0
H1051 H 0.05238 0.45719 0.17715 0.0
H1052 H 0.06707 0.57418 0.18057 0.0
H1053 H 1.00816 0.46899 0.23477 0.0
H1054 H 0.05385 0.49852 0.17095 0.0
H1055 H 0.99903 0.53778 0.21315 0.0
C1056 C 0.01521 0.56929 0.20547 0.0
C1057 C 0.03447 0.58038 0.19677 0.0
C1058 C 0.04372 0.49199 0.18484 0.0
C1059 C 0.03175 0.53237 0.19669 0.0
C1060 C 0.04274 0.46832 0.18832 0.0
C1061 C 0.03006 0.45928 0.20654 0.0
C1062 C 0.03145 0.50686 0.19928 0.0
C1063 C 0.01821 0.47488 0.22053 0.0
C1064 C 0.0138 0.54562 0.20552 0.0
C1065 C 0.05166 0.56658 0.18704 0.0
N1066 N 0.01907 0.49757 0.21654 0.0
N1067 N 0.04995 0.5434 0.18735 0.0
H1068 H 0.55828 1.00544 0.83794 0.0
H1069 H 0.43637 0.06419 0.86198 0.0
H1070 H 0.55286 0.07533 0.85748 0.0
H1071 H 0.44704 1.00697 0.81767 0.0
H1072 H 0.47777 0.06612 0.86738 0.0
H1073 H 0.51682 1.00297 0.83801 0.0
C1074 C 0.5484 0.02012 0.84297 0.0
C1075 C 0.55933 0.0405 0.84815 0.0
C1076 C 0.47099 0.05307 0.85659 0.0
C1077 C 0.51119 0.03793 0.84793 0.0
C1078 C 0.44727 0.05187 0.85358 0.0
C1079 C 0.43788 0.03537 0.8393 0.0
C1080 C 0.48561 0.03732 0.8457 0.0
C1081 C 0.45321 0.02007 0.82877 0.0
C1082 C 0.5246 0.01878 0.84276 0.0
C1083 C 0.54532 0.0591 0.85394 0.0
N1084 N 0.47599 0.02134 0.83227 0.0
N1085 N 0.52214 0.05739 0.85368 0.0
H1086 H 0.01737 0.57584 0.88709 0.0
H1087 H 0.98196 0.46036 0.8241 0.0
H1088 H 0.98908 0.57049 0.82071 0.0
H1089 H 0.01445 0.45839 0.88858 0.0
H1090 H 0.98257 0.50118 0.8253 0.0
H1091 H 0.01532 0.53419 0.89031 0.0
C1092 C 1.0107 0.56607 0.87322 0.0
C1093 C 1.00344 0.57708 0.85354 0.0
C1094 C 0.98955 0.49208 0.83936 0.0
C1095 C 1.00094 0.52914 0.85722 0.0
C1096 C 0.98914 0.46849 0.83874 0.0
C1097 C 0.99821 0.45551 0.85624 0.0
C1098 C 0.99931 0.50354 0.85759 0.0
C1099 C 1.00711 0.4675 0.87473 0.0
C1100 C 1.00955 0.54222 0.87509 0.0
C1101 C 0.995 0.5632 0.83624 0.0
N1102 N 1.0076 0.49077 0.87484 0.0
N1103 N 0.99401 0.54034 0.83852 0.0
H1104 H 0.19829 0.56566 0.97027 0.0
H1105 H 0.18604 0.45952 0.05358 0.0
H1106 H 0.18071 0.57175 0.04102 0.0
H1107 H 0.18208 0.45098 0.98148 0.0
H1108 H 0.18648 0.50043 0.04874 0.0
H1109 H 0.19491 0.52426 0.97331 0.0
C1110 C 0.19364 0.55843 0.98644 0.0
C1111 C 0.18974 0.57264 1.00539 0.0
C1112 C 0.18533 0.48975 0.0339 0.0
C1113 C 0.18611 0.52467 1.00906 0.0
C1114 C 0.18503 0.46618 0.03665 0.0
C1115 C 0.18375 0.45138 0.01797 0.0
C1116 C 0.18483 0.49919 0.01218 0.0
C1117 C 0.18271 0.46149 0.99648 0.0
C1118 C 0.19167 0.53467 0.98814 0.0
C1119 C 0.18381 0.56186 0.02584 0.0
N1120 N 0.1835 0.48459 0.99418 0.0
N1121 N 0.18238 0.53882 0.02711 0.0
H1122 H 0.56882 0.20134 0.99538 0.0
H1123 H 0.45306 0.18546 0.06956 0.0
H1124 H 0.56695 0.20397 0.06811 0.0
H1125 H 0.45362 0.2034 0.99919 0.0
H1126 H 0.49483 0.18736 0.06894 0.0
H1127 H 0.52723 0.19733 0.9959 0.0
C1128 C 0.55982 0.20082 0.01147 0.0
C1129 C 0.57181 0.20296 0.03171 0.0
C1130 C 0.48581 0.19078 0.05359 0.0
C1131 C 0.52359 0.19821 0.03247 0.0
C1132 C 0.46183 0.18958 0.05392 0.0
C1133 C 0.44937 0.19428 0.03443 0.0
C1134 C 0.49782 0.19633 0.03351 0.0
C1135 C 0.46215 0.1997 0.01475 0.0
C1136 C 0.53592 0.19866 0.01177 0.0
C1137 C 0.55875 0.20242 0.05199 0.0
N1138 N 0.48535 0.20046 0.01479 0.0
N1139 N 0.53567 0.20002 0.05184 0.0
H1140 H 0.88025 0.58622 0.06076 0.0
H1141 H 0.8445 0.46869 1.00073 0.0
H1142 H 0.8312 0.58002 1.00823 0.0
H1143 H 0.87521 0.46868 0.06613 0.0
H1144 H 0.84498 0.50987 1.0011 0.0
H1145 H 0.88385 0.5444 0.06105 0.0
C1146 C 0.87043 0.57625 0.04914 0.0
C1147 C 0.85531 0.58708 0.03449 0.0
C1148 C 0.85178 0.501 0.01539 0.0
C1149 C 0.85951 0.53882 0.0346 0.0
C1150 C 0.85162 0.47722 0.01516 0.0
C1151 C 0.85979 0.46462 0.03344 0.0
C1152 C 0.86045 0.51301 0.0339 0.0
C1153 C 0.86871 0.4773 0.05156 0.0
C1154 C 0.87238 0.55227 0.04941 0.0
C1155 C 0.84298 0.57284 0.02 0.0
N1156 N 0.86881 0.50058 0.05133 0.0
N1157 N 0.84542 0.54988 0.02038 0.0
H1158 H 0.58609 0.86768 0.98584 0.0
H1159 H 0.46411 0.83126 0.03865 0.0
H1160 H 0.57445 0.83444 0.04943 0.0
H1161 H 0.46829 0.86177 0.97284 0.0
H1162 H 0.50469 0.83433 0.04186 0.0
H1163 H 0.54456 0.86765 0.97983 0.0
C1164 C 0.57498 0.86065 0.9987 0.0
C1165 C 0.58431 0.8512 0.01835 0.0
C1166 C 0.49702 0.84048 0.02661 0.0
C1167 C 0.53619 0.85098 0.01142 0.0
C1168 C 0.47344 0.83871 0.02468 0.0
C1169 C 0.46202 0.84613 1.00532 0.0
C1170 C 0.51034 0.84982 1.00911 0.0
C1171 C 0.47589 0.85583 0.98819 0.0
C1172 C 0.55113 0.86052 0.99516 0.0
C1173 C 0.5686 0.842 0.03401 0.0
N1174 N 0.49914 0.85729 0.99044 0.0
N1175 N 0.54583 0.84218 0.03023 0.0
H1176 H 0.56391 0.71107 0.98149 0.0
H1177 H 0.51423 0.65801 0.09814 0.0
H1178 H 0.51511 0.65743 0.97976 0.0
H1179 H 0.55357 0.71879 0.09215 0.0
H1180 H 0.51694 0.65332 0.05639 0.0
H1181 H 0.56351 0.70949 0.02257 0.0
C1182 C 0.55341 0.6985 0.98972 0.0
C1183 C 0.53982 0.68416 0.97667 0.0
C1184 C 0.5251 0.66758 0.06429 0.0
C1185 C 0.5387 0.68263 0.02505 0.0
C1186 C 0.52369 0.6702 0.08826 0.0
C1187 C 0.53366 0.6889 0.09914 0.0
C1188 C 0.53686 0.68358 0.05091 0.0
C1189 C 0.54542 0.70414 0.08498 0.0
C1190 C 0.55302 0.69775 0.01344 0.0
C1191 C 0.52631 0.66854 0.98881 0.0
N1192 N 0.54665 0.70114 0.06207 0.0
N1193 N 0.52597 0.6683 0.01216 0.0
H1194 H 0.39059 0.52836 0.95634 0.0
H1195 H 0.32355 0.57791 0.066 0.0
H1196 H 0.32185 0.55275 0.95617 0.0
H1197 H 0.37813 0.53025 0.07381 0.0
H1198 H 0.32688 0.57341 0.02517 0.0
H1199 H 0.39061 0.53344 0.99801 0.0
C1200 C 0.37569 0.5352 0.96489 0.0
C1201 C 0.35625 0.54033 0.9524 0.0
C1202 C 0.33823 0.56389 0.03568 0.0
C1203 C 0.35612 0.54612 1.00039 0.0
C1204 C 0.33638 0.56648 0.05925 0.0
C1205 C 0.3505 0.55441 0.07389 0.0
C1206 C 0.35463 0.54933 0.02594 0.0
C1207 C 0.36673 0.53989 0.06349 0.0
C1208 C 0.37561 0.53784 0.98878 0.0
C1209 C 0.33731 0.54863 0.96479 0.0
N1210 N 0.36842 0.53785 0.04031 0.0
N1211 N 0.33779 0.55135 0.98772 0.0
H1212 H 0.54376 0.35378 0.95967 0.0
H1213 H 0.48182 0.35724 0.08169 0.0
H1214 H 0.47148 0.34634 0.96614 0.0
H1215 H 0.546 0.32381 0.071 0.0
H1216 H 0.47922 0.36247 0.04041 0.0
H1217 H 0.54642 0.35191 1.0011 0.0
C1218 C 0.52837 0.35226 0.96976 0.0
C1219 C 0.50732 0.35047 0.95915 0.0
C1220 C 0.49399 0.35422 0.04714 0.0
C1221 C 0.51026 0.34853 1.00706 0.0
C1222 C 0.49559 0.35142 0.07077 0.0
C1223 C 0.51427 0.34022 0.08004 0.0
C1224 C 0.51149 0.34637 0.03252 0.0
C1225 C 0.53133 0.33263 0.06477 0.0
C1226 C 0.52994 0.35098 0.99348 0.0
C1227 C 0.48807 0.34794 0.97339 0.0
N1228 N 0.52965 0.33601 0.042 0.0
N1229 N 0.48997 0.34727 0.99644 0.0
H1230 H 0.70906 0.48052 0.9558 0.0
H1231 H 0.68282 0.55967 0.06403 0.0
H1232 H 0.68603 0.54927 0.94986 0.0
H1233 H 0.68377 0.48716 0.06868 0.0
H1234 H 0.68627 0.55646 0.02281 0.0
H1235 H 0.70244 0.48283 0.99684 0.0
C1236 C 0.70254 0.49614 0.96302 0.0
C1237 C 0.69808 0.5147 0.94893 0.0
C1238 C 0.68555 0.5412 0.03273 0.0
C1239 C 0.69067 0.51756 0.99672 0.0
C1240 C 0.68356 0.54299 0.05644 0.0
C1241 C 0.68275 0.52367 0.07022 0.0
C1242 C 0.68732 0.51987 0.02222 0.0
C1243 C 0.68398 0.50259 0.059 0.0
C1244 C 0.69871 0.49741 0.98661 0.0
C1245 C 0.68964 0.53441 0.95971 0.0
N1246 N 0.68642 0.50128 0.03587 0.0
N1247 N 0.68645 0.53535 0.98275 0.0
H1248 H 0.97226 0.54519 0.71442 0.0
H1249 H 0.09371 0.51433 0.65701 0.0
H1250 H 0.9772 0.49685 0.65976 0.0
H1251 H 0.08366 0.54816 0.72107 0.0
H1252 H 0.05203 0.51038 0.65423 0.0
H1253 H 0.01316 0.54873 0.71379 0.0
C1254 C 0.98187 0.53522 0.70216 0.0
C1255 C 0.97077 0.52063 0.68713 0.0
C1256 C 0.059 0.51881 0.66879 0.0
C1257 C 0.01888 0.52488 0.68623 0.0
C1258 C 0.08284 0.52132 0.67026 0.0
C1259 C 0.09246 0.53179 0.68925 0.0
C1260 C 0.04454 0.52709 0.68629 0.0
C1261 C 0.07729 0.54 0.70607 0.0
C1262 C 1.0055 0.53728 0.70186 0.0
C1263 C 0.98474 0.50824 0.6718 0.0
N1264 N 0.05445 0.53755 0.70415 0.0
N1265 N 1.00794 0.51071 0.67167 0.0
H1266 H 0.49301 0.95513 0.71253 0.0
H1267 H 0.56097 0.06918 0.68004 0.0
H1268 H 0.56103 0.95319 0.68495 0.0
H1269 H 0.49563 0.06804 0.71329 0.0
H1270 H 0.56072 0.02743 0.67847 0.0
H1271 H 0.4933 0.99623 0.71022 0.0
C1272 C 0.50808 0.96322 0.70583 0.0
C1273 C 0.52701 0.95013 0.69888 0.0
C1274 C 0.54621 0.03629 0.68569 0.0
C1275 C 0.52739 0.99838 0.6961 0.0
C1276 C 0.5462 0.06024 0.68628 0.0
C1277 C 0.52797 0.07242 0.69619 0.0
C1278 C 0.52783 0.02415 0.69509 0.0
C1279 C 0.5098 0.0596 0.70491 0.0
C1280 C 0.50821 0.98695 0.70454 0.0
C1281 C 0.54594 0.96222 0.69047 0.0
N1282 N 0.5102 0.03647 0.70414 0.0
N1283 N 0.54563 0.98544 0.68933 0.0
H1284 H 0.9454 0.56192 0.35768 0.0
H1285 H 0.06486 0.50362 0.32012 0.0
H1286 H 0.9534 0.50556 0.3117 0.0
H1287 H 0.06276 0.56468 0.35981 0.0
H1288 H 0.02349 0.50243 0.32127 0.0
H1289 H 0.98707 0.56238 0.36208 0.0
C1290 C 0.95571 0.54962 0.34856 0.0
C1291 C 0.94538 0.53375 0.33418 0.0
C1292 C 0.03188 0.51597 0.33013 0.0
C1293 C 0.99351 0.534 0.33941 0.0
C1294 C 0.05569 0.51649 0.32968 0.0
C1295 C 0.06762 0.534 0.34023 0.0
C1296 C 0.01928 0.53333 0.34095 0.0
C1297 C 0.05449 0.55051 0.35188 0.0
C1298 C 0.97962 0.54989 0.35109 0.0
C1299 C 0.96009 0.51831 0.32289 0.0
N1300 N 0.03117 0.5499 0.35176 0.0
N1301 N 0.98297 0.51884 0.32577 0.0
H1302 H 0.55612 0.0773 0.36861 0.0
H1303 H 0.4853 0.96087 0.37813 0.0
H1304 H 0.48365 0.07451 0.36278 0.0
H1305 H 0.55528 0.96265 0.3565 0.0
H1306 H 0.48505 1.00253 0.37972 0.0
H1307 H 0.5569 0.03568 0.37165 0.0
C1308 C 0.54033 0.06809 0.36858 0.0
C1309 C 0.51978 0.07973 0.36572 0.0
C1310 C 0.50053 0.9938 0.37483 0.0
C1311 C 0.52052 0.03172 0.36903 0.0
C1312 C 0.50071 0.96992 0.37405 0.0
C1313 C 0.52034 0.95795 0.36719 0.0
C1314 C 0.52028 1.00607 0.36925 0.0
C1315 C 0.53969 0.97094 0.36183 0.0
C1316 C 0.54079 0.04423 0.37003 0.0
C1317 C 0.49993 0.06651 0.36516 0.0
N1318 N 0.5392 0.99404 0.36308 0.0
N1319 N 0.50079 0.04349 0.36686 0.0
H1320 H 0.66176 0.96942 0.54078 0.0
H1321 H 0.7212 0.08153 0.49003 0.0
H1322 H 0.72191 0.96975 0.49843 0.0
H1323 H 0.67302 0.08602 0.54549 0.0
H1324 H 0.718 0.04052 0.49063 0.0
H1325 H 0.66184 0.01132 0.54045 0.0
C1326 C 0.67479 0.97813 0.5312 0.0
C1327 C 0.69183 0.96563 0.51959 0.0
C1328 C 0.70804 0.05034 0.50272 0.0
C1329 C 0.69204 0.01395 0.51914 0.0
C1330 C 0.70982 0.07401 0.50237 0.0
C1331 C 0.69744 0.08776 0.51777 0.0
C1332 C 0.69352 0.03965 0.51844 0.0
C1333 C 0.68302 0.07641 0.53328 0.0
C1334 C 0.67494 1.00215 0.53116 0.0
C1335 C 0.70838 0.97826 0.50774 0.0
N1336 N 0.68143 0.05321 0.53318 0.0
N1337 N 0.708 1.00133 0.50779 0.0
H1338 H 0.07031 0.72743 0.54642 0.0
H1339 H 0.95419 0.66768 0.5098 0.0
H1340 H 0.07215 0.67646 0.49418 0.0
H1341 H 0.95808 0.73614 0.53425 0.0
H1342 H 0.99625 0.66612 0.5083 0.0
H1343 H 0.029 0.72654 0.54648 0.0
C1344 C 0.06213 0.71592 0.53491 0.0
C1345 C 0.0753 0.70206 0.52022 0.0
C1346 C 0.98785 0.68144 0.51406 0.0
C1347 C 0.02672 0.70063 0.52059 0.0
C1348 C 0.96372 0.68227 0.51515 0.0
C1349 C 0.95213 0.70206 0.5223 0.0
C1350 C 1.00076 0.70034 0.5207 0.0
C1351 C 0.96586 0.72045 0.52862 0.0
C1352 C 0.03828 0.71547 0.53495 0.0
C1353 C 0.06307 0.68763 0.50575 0.0
N1354 N 0.98901 0.71906 0.52787 0.0
N1355 N 0.03967 0.68714 0.50645 0.0
H1356 H 0.3098 0.97621 0.52699 0.0
H1357 H 0.38042 0.09049 0.54839 0.0
H1358 H 0.3761 0.97167 0.55585 0.0
H1359 H 0.32268 0.08356 0.50552 0.0
H1360 H 0.37981 0.04897 0.5543 0.0
H1361 H 0.31456 0.01635 0.5226 0.0
C1362 C 0.32554 0.98349 0.53253 0.0
C1363 C 0.34254 0.96976 0.54185 0.0
C1364 C 0.36737 0.05662 0.54354 0.0
C1365 C 0.34817 0.0176 0.53668 0.0
C1366 C 0.3677 0.08047 0.54013 0.0
C1367 C 0.35158 0.09115 0.52636 0.0
C1368 C 0.35065 0.04313 0.53334 0.0
C1369 C 0.33557 0.07674 0.51631 0.0
C1370 C 0.32825 1.00683 0.52988 0.0
C1371 C 0.36244 0.98113 0.54846 0.0
N1372 N 0.33551 0.05401 0.52007 0.0
N1373 N 0.36465 1.00424 0.54585 0.0
H1374 H 0.0881 0.39729 0.51302 0.0
H1375 H 0.97941 0.31736 0.49402 0.0
H1376 H 0.08664 0.32496 0.51986 0.0
H1377 H 0.96962 0.38886 0.50445 0.0
H1378 H 0.01964 0.32198 0.49887 0.0
H1379 H 0.04674 0.3967 0.50583 0.0
C1380 C 0.0793 0.3813 0.51288 0.0
C1381 C 0.09132 0.36115 0.51727 0.0
C1382 C 1.00892 0.33683 0.50012 0.0
C1383 C 0.04359 0.36034 0.50881 0.0
C1384 C 0.98555 0.33422 0.49729 0.0
C1385 C 0.97034 0.35265 0.49893 0.0
C1386 C 0.01816 0.35818 0.50462 0.0
C1387 C 0.98027 0.374 0.503 0.0
C1388 C 0.05555 0.38099 0.50889 0.0
C1389 C 0.07854 0.34106 0.51687 0.0
N1390 N 1.00339 0.37615 0.50573 0.0
N1391 N 0.05586 0.34123 0.51272 0.0
H1392 H 0.06121 0.23648 0.33308 0.0
H1393 H 1.00024 0.31025 0.23737 0.0
H1394 H 0.9895 0.23291 0.32259 0.0
H1395 H 0.06374 0.32725 0.2674 0.0
H1396 H 0.99817 0.27637 0.26155 0.0
H1397 H 0.0646 0.26355 0.30206 0.0
C1398 C 0.04628 0.24071 0.32363 0.0
C1399 C 0.02516 0.23176 0.33006 0.0
C1400 C 0.01275 0.28732 0.26252 0.0
C1401 C 0.02873 0.2637 0.29473 0.0
C1402 C 0.01407 0.30653 0.24851 0.0
C1403 C 0.03236 0.32156 0.25008 0.0
C1404 C 0.03003 0.28284 0.278 0.0
C1405 C 0.04943 0.31611 0.26539 0.0
C1406 C 0.04816 0.25648 0.30609 0.0
C1407 C 1.00623 0.23877 0.31778 0.0
N1408 N 0.04787 0.29736 0.27859 0.0
N1409 N 1.00843 0.2543 0.30081 0.0
H1410 H 0.81987 0.03543 0.31408 0.0
H1411 H 0.72995 0.97596 0.23194 0.0
H1412 H 0.804 0.96465 0.31351 0.0
H1413 H 0.73506 0.04823 0.23709 0.0
H1414 H 0.76208 0.97205 0.25691 0.0
H1415 H 0.79429 0.04088 0.28194 0.0
C1416 C 0.81176 0.02087 0.30665 0.0
C1417 C 0.81477 0.99937 0.31621 0.0
C1418 C 0.7566 0.98885 0.25237 0.0
C1419 C 0.7847 1.00561 0.27968 0.0
C1420 C 0.73831 0.99111 0.23778 0.0
C1421 C 0.72991 0.01246 0.2318 0.0
C1422 C 0.76683 1.00809 0.2617 0.0
C1423 C 0.74121 0.03141 0.24064 0.0
C1424 C 0.79683 0.02406 0.28848 0.0
C1425 C 0.8028 0.98141 0.30645 0.0
N1426 N 0.75889 0.0288 0.25522 0.0
N1427 N 0.78847 0.98492 0.28895 0.0
H1428 H 1.0087 0.81682 0.31381 0.0
H1429 H 0.07457 0.70495 0.27135 0.0
H1430 H 0.07085 0.79216 0.34132 0.0
H1431 H 0.01777 0.73099 0.23508 0.0
H1432 H 0.0742 0.73874 0.295 0.0
H1433 H 0.01243 0.7885 0.28301 0.0
C1434 C 0.02361 0.80614 0.31288 0.0
C1435 C 0.03984 0.80743 0.32997 0.0
C1436 C 0.06188 0.73737 0.28178 0.0
C1437 C 0.04372 0.7741 0.29519 0.0
C1438 C 0.06211 0.71794 0.26812 0.0
C1439 C 0.04623 0.71489 0.25097 0.0
C1440 C 0.04534 0.75421 0.27888 0.0
C1441 C 0.03052 0.73256 0.24786 0.0
C1442 C 0.02556 0.78968 0.29544 0.0
C1443 C 0.0582 0.79227 0.32833 0.0
N1444 N 0.03028 0.75125 0.26181 0.0
N1445 N 0.05952 0.77635 0.31157 0.0
H1446 H 0.32526 0.95931 0.23571 0.0
H1447 H 0.24127 0.04086 0.30871 0.0
H1448 H 0.32587 0.03144 0.2282 0.0
H1449 H 0.24533 0.9686 0.3158 0.0
H1450 H 0.26903 0.03835 0.27705 0.0
H1451 H 0.29275 0.96279 0.26175 0.0
C1452 C 0.31799 0.97588 0.23886 0.0
C1453 C 0.328 0.995 0.22897 0.0
C1454 C 0.26371 0.02303 0.28544 0.0
C1455 C 0.29097 0.99938 0.26024 0.0
C1456 C 0.24773 0.02444 0.30356 0.0
C1457 C 0.24073 1.00493 0.31526 0.0
C1458 C 0.27283 1.00193 0.27868 0.0
C1459 C 0.25005 0.98421 0.30761 0.0
C1460 C 0.29954 0.97792 0.25412 0.0
C1461 C 0.3183 0.01613 0.23469 0.0
N1462 N 0.26544 0.98332 0.29008 0.0
N1463 N 0.30055 0.01777 0.24999 0.0
H1464 H 0.05126 0.71476 0.8134 0.0
H1465 H 0.98492 0.80786 0.73963 0.0
H1466 H 0.97896 0.72364 0.81649 0.0
H1467 H 0.05182 0.78309 0.72296 0.0
H1468 H 0.98446 0.78365 0.77348 0.0
H1469 H 0.05382 0.7462 0.78636 0.0
C1470 C 0.03602 0.72388 0.80914 0.0
C1471 C 0.01492 0.71677 0.81777 0.0
C1472 C 0.99943 0.78386 0.76265 0.0
C1473 C 0.01759 0.75261 0.78613 0.0
C1474 C 0.99978 0.79794 0.74343 0.0
C1475 C 0.01857 0.79786 0.72847 0.0
C1476 C 0.0181 0.76971 0.7672 0.0
C1477 C 0.03705 0.78397 0.73407 0.0
C1478 C 0.03742 0.74165 0.79337 0.0
C1479 C 0.99565 0.72877 0.81071 0.0
N1480 N 0.03636 0.77059 0.75278 0.0
N1481 N 0.99742 0.74591 0.79542 0.0
H1482 H 0.28761 1.00746 0.80485 0.0
H1483 H 0.23272 0.06998 0.6981 0.0
H1484 H 0.31021 0.0707 0.77753 0.0
H1485 H 0.2122 1.00299 0.71746 0.0
H1486 H 0.25801 0.07132 0.72988 0.0
H1487 H 0.25718 1.00656 0.77672 0.0
C1488 C 0.28567 0.02159 0.79355 0.0
C1489 C 0.30117 0.03961 0.79421 0.0
C1490 C 0.24801 0.05628 0.7274 0.0
C1491 C 0.26671 0.03827 0.76114 0.0
C1492 C 0.23336 0.05544 0.70904 0.0
C1493 C 0.22004 0.03626 0.70462 0.0
C1494 C 0.24982 0.0378 0.74202 0.0
C1495 C 0.22195 0.01819 0.71994 0.0
C1496 C 0.26847 0.02088 0.77719 0.0
C1497 C 0.29837 0.05682 0.77824 0.0
N1498 N 0.23655 0.01936 0.73778 0.0
N1499 N 0.2817 0.05571 0.76257 0.0
H1500 H 0.95651 0.32017 0.81133 0.0
H1501 H 0.02414 0.22362 0.74016 0.0
H1502 H 0.0281 0.30886 0.81718 0.0
H1503 H 0.95899 0.25027 0.72249 0.0
H1504 H 0.02345 0.24811 0.77415 0.0
H1505 H 0.95466 0.28797 0.78499 0.0
C1506 C 0.97168 0.31034 0.80777 0.0
C1507 C 0.99237 0.31687 0.817 0.0
C1508 C 1.00911 0.24824 0.76305 0.0
C1509 C 0.99062 0.2803 0.78607 0.0
C1510 C 1.0094 0.23406 0.74378 0.0
C1511 C 0.9915 0.23469 0.72851 0.0
C1512 C 0.99066 0.26299 0.76727 0.0
C1513 C 0.9731 0.24908 0.73382 0.0
C1514 C 0.97071 0.29213 0.79245 0.0
C1515 C 0.0117 0.30405 0.81094 0.0
N1516 N 0.97318 0.26257 0.75259 0.0
N1517 N 1.01039 0.28652 0.79586 0.0
H1518 H 0.79645 0.01655 0.72774 0.0
H1519 H 0.6871 0.08362 0.77778 0.0
H1520 H 0.76818 0.07734 0.70009 0.0
H1521 H 0.70961 0.02146 0.80728 0.0
H1522 H 0.71988 0.08288 0.75218 0.0
H1523 H 0.76809 0.01886 0.75904 0.0
C1524 C 0.78455 0.03051 0.72831 0.0
C1525 C 0.78486 0.04672 0.71097 0.0
C1526 C 0.71802 0.06947 0.76438 0.0
C1527 C 0.75218 0.04946 0.74693 0.0
C1528 C 0.69928 0.07001 0.77925 0.0
C1529 C 0.69555 0.05276 0.79505 0.0
C1530 C 0.7334 0.05128 0.76471 0.0
C1531 C 0.71192 0.03538 0.79574 0.0
C1532 C 0.76826 0.03176 0.74619 0.0
C1533 C 0.76875 0.06429 0.71276 0.0
N1534 N 0.72994 0.03494 0.78066 0.0
N1535 N 0.75328 0.06511 0.73015 0.0
H1536 H 0.30626 0.2287 0.07486 0.0
H1537 H 0.22007 0.30287 1.00015 0.0
H1538 H 0.30318 0.22405 1.00238 0.0
H1539 H 0.2345 0.31739 0.06977 0.0
H1540 H 0.24527 0.26959 1.00186 0.0
H1541 H 0.27496 0.25642 0.07459 0.0
C1542 C 0.29859 0.23291 0.05896 0.0
C1543 C 0.30739 0.22367 0.03865 0.0
C1544 C 0.24268 0.2799 0.01686 0.0
C1545 C 0.27157 0.25599 0.03811 0.0
C1546 C 0.22807 0.29886 0.01592 0.0
C1547 C 0.22497 0.31317 0.03482 0.0
C1548 C 0.25421 0.27489 0.03692 0.0
C1549 C 0.23629 0.30706 0.05468 0.0
C1550 C 0.28086 0.24903 0.05876 0.0
C1551 C 0.29699 0.2305 0.01852 0.0
N1552 N 0.25028 0.28862 0.05518 0.0
N1553 N 0.27987 0.24612 0.01876 0.0
H1554 H 0.32569 0.78849 0.04066 0.0
H1555 H 0.2401 0.7122 0.96897 0.0
H1556 H 0.31834 0.79625 0.96897 0.0
H1557 H 0.2425 0.71097 0.04161 0.0
H1558 H 0.26726 0.74335 0.96857 0.0
H1559 H 0.29441 0.7616 0.04121 0.0
C1560 C 0.3172 0.78491 0.025 0.0
C1561 C 0.32476 0.79515 1.00478 0.0
C1562 C 0.26175 0.73648 0.98465 0.0
C1563 C 0.28863 0.76319 1.0052 0.0
C1564 C 0.24609 0.71856 0.98495 0.0
C1565 C 0.23857 0.70866 1.00541 0.0
C1566 C 0.27054 0.74485 1.00495 0.0
C1567 C 0.24737 0.71794 0.02539 0.0
C1568 C 0.29929 0.76931 0.02534 0.0
C1569 C 0.31303 0.78931 0.98507 0.0
N1570 N 0.26284 0.73521 0.02463 0.0
N1571 N 0.29584 0.77366 0.98576 0.0
H1572 H 0.79234 0.33513 0.07659 0.0
H1573 H 0.71998 0.24846 0.99938 0.0
H1574 H 0.80156 0.32828 1.00452 0.0
H1575 H 0.70152 0.26546 0.06819 0.0
H1576 H 0.75259 0.27421 1.00202 0.0
H1577 H 0.76213 0.3064 0.07511 0.0
C1578 C 0.78838 0.32741 0.06053 0.0
C1579 C 0.79981 0.33439 0.04069 0.0
C1580 C 0.74146 0.27222 0.0166 0.0
C1581 C 0.7648 0.30122 0.03878 0.0
C1582 C 0.7228 0.25736 0.0151 0.0
C1583 C 0.70762 0.25456 0.03351 0.0
C1584 C 0.74543 0.2844 0.03677 0.0
C1585 C 0.71245 0.26692 0.05339 0.0
C1586 C 0.77091 0.31106 0.05963 0.0
C1587 C 0.79338 0.32372 0.02035 0.0
N1588 N 0.73069 0.28108 0.05446 0.0
N1589 N 0.77656 0.3079 0.01995 0.0
H1590 H 0.80105 0.72178 0.06543 0.0
H1591 H 0.73693 0.81956 0.99572 0.0
H1592 H 0.81824 0.73529 0.99597 0.0
H1593 H 0.71643 0.79531 0.06135 0.0
H1594 H 0.76998 0.79359 0.99637 0.0
H1595 H 0.77406 0.75325 0.0654 0.0
C1596 C 0.79979 0.73193 0.05035 0.0
C1597 C 0.81272 0.72619 0.03096 0.0
C1598 C 0.75836 0.79418 0.01073 0.0
C1599 C 0.78049 0.76221 0.03033 0.0
C1600 C 0.73954 0.80922 0.01044 0.0
C1601 C 0.72364 0.80988 0.02853 0.0
C1602 C 0.7616 0.77979 0.02937 0.0
C1603 C 0.72797 0.79558 0.04693 0.0
C1604 C 0.78401 0.7498 0.05021 0.0
C1605 C 0.80933 0.73948 0.01159 0.0
N1606 N 0.74625 0.78136 0.04683 0.0
N1607 N 0.79358 0.75669 0.01173 0.0
H1608 H 0.55727 0.7206 0.82562 0.0
H1609 H 0.4921 0.82482 0.76747 0.0
H1610 H 0.49661 0.75277 0.8517 0.0
H1611 H 0.55867 0.80435 0.74402 0.0
H1612 H 0.49265 0.79513 0.79547 0.0
H1613 H 0.5572 0.74708 0.79334 0.0
C1614 C 0.54368 0.73282 0.82439 0.0
C1615 C 0.52681 0.73417 0.84156 0.0
C1616 C 0.50721 0.79691 0.78425 0.0
C1617 C 0.52677 0.76489 0.80458 0.0
C1618 C 0.50693 0.81404 0.76801 0.0
C1619 C 0.5254 0.81752 0.75303 0.0
C1620 C 0.52613 0.78259 0.78603 0.0
C1621 C 0.54395 0.80252 0.755 0.0
C1622 C 0.54379 0.74815 0.80602 0.0
C1623 C 0.50998 0.75084 0.83905 0.0
N1624 N 0.54387 0.78586 0.77115 0.0
N1625 N 0.51042 0.76529 0.82119 0.0
H1626 H 0.22827 0.4949 0.73812 0.0
H1627 H 0.32503 0.56019 0.8071 0.0
H1628 H 0.23926 0.56616 0.72995 0.0
H1629 H 0.30471 0.4914 0.81783 0.0
H1630 H 0.29856 0.56241 0.77524 0.0
H1631 H 0.26071 0.49295 0.76283 0.0
C1632 C 0.2379 0.51013 0.74107 0.0
C1633 C 0.23101 0.53064 0.73148 0.0
C1634 C 0.30026 0.54668 0.78425 0.0
C1635 C 0.26845 0.52871 0.76098 0.0
C1636 C 0.31565 0.54531 0.80228 0.0
C1637 C 0.31764 0.52535 0.81493 0.0
C1638 C 0.2867 0.52795 0.77872 0.0
C1639 C 0.3042 0.50698 0.80839 0.0
C1640 C 0.25642 0.50904 0.75547 0.0
C1641 C 0.2441 0.54985 0.73647 0.0
N1642 N 0.2895 0.50873 0.79097 0.0
N1643 N 0.26198 0.54847 0.75099 0.0
H1644 H 0.56704 0.20222 0.76812 0.0
H1645 H 0.48495 0.29826 0.81548 0.0
H1646 H 0.50707 0.22085 0.73251 0.0
H1647 H 0.55634 0.30014 0.82844 0.0
H1648 H 0.49199 0.26936 0.78621 0.0
H1649 H 0.56329 0.23678 0.79111 0.0
C1650 C 0.55334 0.21385 0.76476 0.0
C1651 C 0.5376 0.20865 0.74794 0.0
C1652 C 0.50621 0.27631 0.79514 0.0
C1653 C 0.53258 0.24816 0.77519 0.0
C1654 C 0.50221 0.29293 0.81188 0.0
C1655 C 0.52009 0.30206 0.82437 0.0
C1656 C 0.52824 0.26794 0.79112 0.0
C1657 C 0.54205 0.29402 0.81906 0.0
C1658 C 0.55115 0.23359 0.77802 0.0
C1659 C 0.5199 0.22426 0.74485 0.0
N1660 N 0.54543 0.27725 0.80321 0.0
N1661 N 0.51767 0.24299 0.75853 0.0
H1662 H 0.74053 0.55097 0.80295 0.0
H1663 H 0.82785 0.47852 0.72347 0.0
H1664 H 0.75124 0.47932 0.80921 0.0
H1665 H 0.82666 0.55123 0.72572 0.0
H1666 H 0.79573 0.47815 0.75063 0.0
H1667 H 0.7676 0.55108 0.77063 0.0
C1668 C 0.74808 0.53518 0.79726 0.0
C1669 C 0.74335 0.51511 0.80898 0.0
C1670 C 0.80231 0.49421 0.74498 0.0
C1671 C 0.77482 0.51511 0.77191 0.0
C1672 C 0.82061 0.49441 0.72924 0.0
C1673 C 0.83017 0.51492 0.72204 0.0
C1674 C 0.79318 0.51466 0.75363 0.0
C1675 C 0.82004 0.53495 0.73064 0.0
C1676 C 0.76378 0.53527 0.7789 0.0
C1677 C 0.75421 0.49527 0.80088 0.0
N1678 N 0.80233 0.53431 0.74586 0.0
N1679 N 0.7693 0.49579 0.78309 0.0
H1680 H 0.52798 0.18726 0.27206 0.0
H1681 H 0.52026 0.31722 0.23805 0.0
H1682 H 0.51494 0.2349 0.32618 0.0
H1683 H 0.4964 0.26097 0.19857 0.0
H1684 H 0.52471 0.29115 0.27051 0.0
H1685 H 0.52509 0.21746 0.24494 0.0
C1686 C 0.52466 0.20417 0.27841 0.0
C1687 C 0.52143 0.20816 0.30172 0.0
C1688 C 0.5183 0.28474 0.25473 0.0
C1689 C 0.51796 0.24369 0.26986 0.0
C1690 C 0.51567 0.29965 0.23617 0.0
C1691 C 0.50801 0.29154 0.21516 0.0
C1692 C 0.51365 0.26149 0.25213 0.0
C1693 C 0.50256 0.26839 0.21402 0.0
C1694 C 0.52293 0.22154 0.26271 0.0
C1695 C 0.51758 0.23083 0.30848 0.0
N1696 N 0.50571 0.25446 0.23185 0.0
N1697 N 0.51579 0.24772 0.29265 0.0
H1698 H 0.72544 0.56653 0.20954 0.0
H1699 H 0.80943 0.49179 0.28284 0.0
H1700 H 0.72026 0.49414 0.21321 0.0
H1701 H 0.80063 0.56306 0.29506 0.0
H1702 H 0.77732 0.49247 0.25735 0.0
H1703 H 0.75278 0.5659 0.24018 0.0
C1704 C 0.72975 0.55046 0.21696 0.0
C1705 C 0.72015 0.53035 0.20862 0.0
C1706 C 0.78213 0.50796 0.26576 0.0
C1707 C 0.75237 0.52951 0.24386 0.0
C1708 C 0.80055 0.50761 0.28046 0.0
C1709 C 0.80789 0.52738 0.29149 0.0
C1710 C 0.77089 0.52837 0.26131 0.0
C1711 C 0.79557 0.54731 0.28734 0.0
C1712 C 0.7455 0.55015 0.23454 0.0
C1713 C 0.72681 0.51013 0.21906 0.0
N1714 N 0.77801 0.54734 0.27245 0.0
N1715 N 0.74259 0.51022 0.23578 0.0
H1716 H 0.4877 0.72826 0.24348 0.0
H1717 H 0.55345 0.81705 0.3223 0.0
H1718 H 0.55805 0.7458 0.23636 0.0
H1719 H 0.48055 0.81594 0.32142 0.0
H1720 H 0.55476 0.78566 0.29572 0.0
H1721 H 0.48424 0.75467 0.27605 0.0
C1722 C 0.50259 0.73705 0.24919 0.0
C1723 C 0.52337 0.73434 0.23735 0.0
C1724 C 0.53838 0.79201 0.30136 0.0
C1725 C 0.51942 0.76504 0.27443 0.0
C1726 C 0.53757 0.81005 0.31676 0.0
C1727 C 0.51683 0.81953 0.3243 0.0
C1728 C 0.51829 0.78288 0.29295 0.0
C1729 C 0.49696 0.80928 0.31632 0.0
C1730 C 0.50052 0.7524 0.26761 0.0
C1731 C 0.54181 0.74693 0.2451 0.0
N1732 N 0.49817 0.79169 0.30098 0.0
N1733 N 0.53941 0.76151 0.26295 0.0
H1734 H 0.27899 0.59599 0.19934 0.0
H1735 H 0.22097 0.52622 0.30184 0.0
H1736 H 0.30676 0.53241 0.2207 0.0
H1737 H 0.19197 0.58421 0.26979 0.0
H1738 H 0.25489 0.52978 0.27678 0.0
H1739 H 0.25009 0.59355 0.22894 0.0
C1740 C 0.27922 0.58148 0.21036 0.0
C1741 C 0.29564 0.56437 0.20714 0.0
C1742 C 0.24126 0.54195 0.27552 0.0
C1743 C 0.2616 0.56134 0.24184 0.0
C1744 C 0.22198 0.54011 0.29008 0.0
C1745 C 0.20358 0.5552 0.28833 0.0
C1746 C 0.2423 0.55911 0.25908 0.0
C1747 C 0.2057 0.57234 0.2721 0.0
C1748 C 0.26248 0.58009 0.22741 0.0
C1749 C 0.29469 0.54613 0.2224 0.0
N1750 N 0.22444 0.57378 0.25832 0.0
N1751 N 0.27795 0.54503 0.2389 0.0
H1752 H 0.72576 0.82448 0.56109 0.0
H1753 H 0.8035 0.73179 0.49465 0.0
H1754 H 0.73168 0.81999 0.48868 0.0
H1755 H 0.81416 0.75107 0.56376 0.0
H1756 H 0.77065 0.75752 0.49383 0.0
H1757 H 0.75123 0.7915 0.56392 0.0
C1758 C 0.73163 0.81602 0.54578 0.0
C1759 C 0.72598 0.82479 0.52459 0.0
C1760 C 0.77979 0.75572 0.50939 0.0
C1761 C 0.75583 0.78717 0.52768 0.0
C1762 C 0.79839 0.74072 0.50995 0.0
C1763 C 0.8113 0.73862 0.52952 0.0
C1764 C 0.77386 0.76891 0.52856 0.0
C1765 C 0.80438 0.75159 0.5485 0.0
C1766 C 0.74651 0.79737 0.54739 0.0
C1767 C 0.73508 0.81359 0.50536 0.0
N1768 N 0.78628 0.76607 0.54756 0.0
N1769 N 0.74942 0.79555 0.50734 0.0
H1770 H 0.82485 0.30655 0.46971 0.0
H1771 H 0.74636 0.22857 0.55116 0.0
H1772 H 0.83198 0.30632 0.5418 0.0
H1773 H 0.74481 0.22788 0.47847 0.0
H1774 H 0.77413 0.2597 0.54927 0.0
H1775 H 0.79226 0.28126 0.47362 0.0
C1776 C 0.81904 0.30187 0.48649 0.0
C1777 C 0.83085 0.30948 0.50547 0.0
C1778 C 0.76749 0.25291 0.53374 0.0
C1779 C 0.79365 0.27906 0.51018 0.0
C1780 C 0.75138 0.23518 0.53483 0.0
C1781 C 0.74288 0.22534 0.51496 0.0
C1782 C 0.77522 0.26118 0.51262 0.0
C1783 C 0.75066 0.23464 0.49434 0.0
C1784 C 0.80053 0.28704 0.48873 0.0
C1785 C 0.82301 0.30169 0.5267 0.0
N1786 N 0.76619 0.25172 0.49375 0.0
N1787 N 0.80513 0.28696 0.52847 0.0
H1788 H 0.20804 0.7506 0.56462 0.0
H1789 H 0.30607 0.82688 0.5066 0.0
H1790 H 0.22355 0.74666 0.49329 0.0
H1791 H 0.28714 0.8299 0.577 0.0
H1792 H 0.27926 0.79545 0.50144 0.0
H1793 H 0.23907 0.77712 0.56925 0.0
C1794 C 0.21801 0.7551 0.5498 0.0
C1795 C 0.21273 0.74598 0.52844 0.0
C1796 C 0.28134 0.80256 0.51816 0.0
C1797 C 0.24918 0.7773 0.53383 0.0
C1798 C 0.29704 0.82033 0.52122 0.0
C1799 C 0.29985 0.83064 0.54254 0.0
C1800 C 0.26781 0.79499 0.53648 0.0
C1801 C 0.28642 0.82209 0.56045 0.0
C1802 C 0.23592 0.77045 0.55254 0.0
C1803 C 0.22675 0.75289 0.51014 0.0
N1804 N 0.27118 0.80503 0.55702 0.0
N1805 N 0.24408 0.76809 0.51322 0.0
H1806 H 0.23322 0.32524 0.49199 0.0
H1807 H 0.31915 0.23762 0.55091 0.0
H1808 H 0.23127 0.31274 0.56346 0.0
H1809 H 0.29639 0.22911 0.48279 0.0
H1810 H 0.29437 0.27122 0.55498 0.0
H1811 H 0.26356 0.29663 0.48758 0.0
C1812 C 0.23971 0.31715 0.50688 0.0
C1813 C 0.22987 0.32198 0.52823 0.0
C1814 C 0.29508 0.26221 0.53901 0.0
C1815 C 0.26467 0.28862 0.52325 0.0
C1816 C 0.30947 0.2431 0.53659 0.0
C1817 C 0.3102 0.23043 0.51636 0.0
C1818 C 0.28155 0.26921 0.52093 0.0
C1819 C 0.29663 0.23828 0.49866 0.0
C1820 C 0.25686 0.3005 0.50432 0.0
C1821 C 0.23855 0.31003 0.54673 0.0
N1822 N 0.2831 0.25701 0.5013 0.0
N1823 N 0.25533 0.29414 0.54386 0.0
H1824 H 0.06152 0.16528 0.361 0.0
H1825 H 0.1349 0.07526 0.34383 0.0
H1826 H 0.10357 0.18305 0.41704 0.0
H1827 H 0.18201 0.11197 0.38471 0.0
H1828 H 0.1072 0.10509 0.34984 0.0
H1829 H 0.0894 0.13755 0.34863 0.0
C1830 C 0.07659 0.16309 0.3709 0.0
C1831 C 0.08016 0.17633 0.39021 0.0
C1832 C 0.12375 0.10723 0.35697 0.0
C1833 C 0.11213 0.14373 0.37657 0.0
C1834 C 0.13962 0.09002 0.35354 0.0
C1835 C 0.16079 0.09121 0.36368 0.0
C1836 C 0.12911 0.12596 0.37059 0.0
C1837 C 0.1659 0.11051 0.37645 0.0
C1838 C 0.09252 0.14701 0.36391 0.0
C1839 C 0.10012 0.17302 0.40216 0.0
N1840 N 0.15007 0.12703 0.37974 0.0
N1841 N 0.11536 0.15697 0.39518 0.0
H1842 H 0.99645 0.11928 0.34013 0.0
H1843 H 0.93342 0.02155 0.40672 0.0
H1844 H 1.00854 0.10443 0.41001 0.0
H1845 H 0.91811 0.04381 0.33957 0.0
H1846 H 0.96826 0.04414 0.40529 0.0
H1847 H 0.97622 0.08373 0.3365 0.0
C1848 C 0.99525 0.1082 0.35458 0.0
C1849 C 1.00373 0.11483 0.37547 0.0
C1850 C 0.9575 0.04366 0.39071 0.0
C1851 C 0.97994 0.07456 0.37176 0.0
C1852 C 0.9377 0.03078 0.39152 0.0
C1853 C 0.92281 0.03129 0.3734 0.0
C1854 C 0.96229 0.05688 0.37158 0.0
C1855 C 0.92901 0.04336 0.35405 0.0
C1856 C 0.98363 0.08795 0.35256 0.0
C1857 C 1.00201 0.09987 0.39365 0.0
N1858 N 0.94814 0.05586 0.35374 0.0
N1859 N 0.98976 0.0806 0.39155 0.0
H1860 H 0.94787 0.84903 0.42559 0.0
H1861 H 0.89468 0.95482 0.36019 0.0
H1862 H 0.98149 0.87844 0.36772 0.0
H1863 H 0.86787 0.92652 0.42199 0.0
H1864 H 0.92661 0.9277 0.36148 0.0
H1865 H 0.91825 0.87762 0.4234 0.0
C1866 C 0.94901 0.86155 0.41238 0.0
C1867 C 0.96717 0.86129 0.39681 0.0
C1868 C 0.91369 0.92754 0.37476 0.0
C1869 C 0.93304 0.89439 0.39409 0.0
C1870 C 0.89553 0.94302 0.37398 0.0
C1871 C 0.87848 0.94287 0.39088 0.0
C1872 C 0.91472 0.91185 0.39251 0.0
C1873 C 0.88049 0.92723 0.40844 0.0
C1874 C 0.93206 0.87797 0.41112 0.0
C1875 C 0.96775 0.87803 0.38006 0.0
N1876 N 0.89807 0.91244 0.40874 0.0
N1877 N 0.9509 0.89388 0.37908 0.0
H1878 H 0.14452 0.97952 0.32093 0.0
H1879 H 0.04001 0.93967 0.39583 0.0
H1880 H 0.12993 1.00458 0.38819 0.0
H1881 H 0.05995 0.91147 0.33116 0.0
H1882 H 0.06526 0.9718 0.38871 0.0
H1883 H 0.10647 0.96374 0.31965 0.0
C1884 C 0.13303 0.98223 0.3352 0.0
C1885 C 0.14048 0.99295 0.35484 0.0
C1886 C 0.06359 0.95892 0.37579 0.0
C1887 C 0.09714 0.97432 0.35385 0.0
C1888 C 0.04904 0.94069 0.37978 0.0
C1889 C 0.04822 0.92284 0.36416 0.0
C1890 C 0.07725 0.95913 0.35604 0.0
C1891 C 0.06036 0.92482 0.34373 0.0
C1892 C 0.11134 0.97311 0.33454 0.0
C1893 C 0.1249 0.99618 0.3728 0.0
N1894 N 0.07464 0.94242 0.34041 0.0
N1895 N 0.10412 0.98639 0.37211 0.0
H1896 H 0.11328 0.96585 0.63213 0.0
H1897 H 0.07118 0.85859 0.69203 0.0
H1898 H 0.15909 0.93699 0.67995 0.0
H1899 H 0.0792 0.85616 0.61953 0.0
H1900 H 0.09549 0.89228 0.69291 0.0
H1901 H 0.09181 0.93052 0.6321 0.0
C1902 C 0.11865 0.95213 0.64281 0.0
C1903 C 0.13791 0.95422 0.6561 0.0
C1904 C 0.09198 0.88418 0.6769 0.0
C1905 C 0.11329 0.91424 0.65638 0.0
C1906 C 0.07812 0.86516 0.67635 0.0
C1907 C 0.07339 0.85469 0.65567 0.0
C1908 C 0.10036 0.8931 0.65657 0.0
C1909 C 0.08267 0.86374 0.63578 0.0
C1910 C 0.10652 0.93204 0.64263 0.0
C1911 C 0.14431 0.93592 0.66948 0.0
N1912 N 0.09546 0.88274 0.63667 0.0
N1913 N 0.1318 0.91666 0.66953 0.0
H1914 H 0.01951 0.10815 0.64856 0.0
H1915 H 0.1328 0.06578 0.70307 0.0
H1916 H 0.04321 0.12818 0.71405 0.0
H1917 H 0.11161 0.04521 0.63686 0.0
H1918 H 0.0947 0.07992 0.71137 0.0
H1919 H 0.04716 0.07707 0.64787 0.0
C1920 C 0.03001 0.10551 0.66311 0.0
C1921 C 0.02943 0.12088 0.68124 0.0
C1922 C 0.09813 0.07192 0.69516 0.0
C1923 C 0.06115 0.08577 0.68046 0.0
C1924 C 0.11988 0.06376 0.69049 0.0
C1925 C 0.12532 0.05467 0.66919 0.0
C1926 C 0.08187 0.07155 0.67816 0.0
C1927 C 0.10803 0.05228 0.65347 0.0
C1928 C 0.04588 0.08788 0.66266 0.0
C1929 C 0.04339 0.11684 0.69962 0.0
N1930 N 0.08715 0.06121 0.65806 0.0
N1931 N 0.05891 0.09991 0.69861 0.0
H1932 H 0.93724 0.17285 0.62531 0.0
H1933 H 0.86932 0.08357 0.69114 0.0
H1934 H 0.95277 0.16524 0.6957 0.0
H1935 H 0.89678 0.06968 0.62451 0.0
H1936 H 0.89785 0.11343 0.69572 0.0
H1937 H 0.91866 0.13607 0.62595 0.0
C1938 C 0.93663 0.16341 0.64092 0.0
C1939 C 0.94635 0.17201 0.6605 0.0
C1940 C 0.89807 0.10324 0.68046 0.0
C1941 C 0.92507 0.13011 0.66143 0.0
C1942 C 0.882 0.08609 0.67795 0.0
C1943 C 0.88074 0.07436 0.65736 0.0
C1944 C 0.9124 0.10868 0.66208 0.0
C1945 C 0.8972 0.07852 0.64058 0.0
C1946 C 0.92626 0.14238 0.64124 0.0
C1947 C 0.94535 0.15907 0.68028 0.0
N1948 N 0.91198 0.09573 0.64305 0.0
N1949 N 0.93451 0.13881 0.68039 0.0
H1950 H 0.99864 0.9257 0.66207 0.0
H1951 H 0.86995 0.95558 0.69167 0.0
H1952 H 0.9588 0.89072 0.71246 0.0
H1953 H 0.91345 0.9999 0.65325 0.0
H1954 H 0.90294 0.93226 0.70041 0.0
H1955 H 0.96895 0.9547 0.66039 0.0
C1956 C 0.98397 0.92449 0.67325 0.0
C1957 C 0.98103 0.90573 0.68728 0.0
C1958 C 0.90532 0.94718 0.69019 0.0
C1959 C 0.94681 0.93831 0.68499 0.0
C1960 C 0.88646 0.96037 0.6851 0.0
C1961 C 0.88902 0.97953 0.67161 0.0
C1962 C 0.92682 0.95308 0.6815 0.0
C1963 C 0.91079 0.98514 0.66363 0.0
C1964 C 0.96692 0.94091 0.67214 0.0
C1965 C 0.96163 0.90485 0.70127 0.0
N1966 N 0.92884 0.97188 0.66853 0.0
N1967 N 0.94509 0.92068 0.69951 0.0
H1968 H 0.40163 0.03236 0.15971 0.0
H1969 H 0.36208 0.11078 0.08553 0.0
H1970 H 0.37617 0.07624 0.21282 0.0
H1971 H 0.38323 0.15974 0.13493 0.0
H1972 H 0.36533 0.08117 0.11379 0.0
H1973 H 0.39468 0.0617 0.1323 0.0
C1974 C 0.39423 0.04811 0.1656 0.0
C1975 C 0.38904 0.05162 0.18856 0.0
C1976 C 0.3694 0.09836 0.11846 0.0
C1977 C 0.38104 0.08567 0.15699 0.0
C1978 C 0.3674 0.1153 0.10236 0.0
C1979 C 0.37269 0.13769 0.1078 0.0
C1980 C 0.37679 0.10375 0.14026 0.0
C1981 C 0.37924 0.14261 0.13001 0.0
C1982 C 0.3902 0.06489 0.14986 0.0
C1983 C 0.38017 0.07275 0.19522 0.0
N1984 N 0.38115 0.12574 0.14547 0.0
N1985 N 0.37656 0.08911 0.17948 0.0
H1986 H 0.94943 0.41576 0.21879 0.0
H1987 H 0.86344 0.39859 0.14166 0.0
H1988 H 0.98599 0.36334 0.18256 0.0
H1989 H 0.91517 0.36655 0.10014 0.0
H1990 H 0.88971 0.39971 0.17303 0.0
H1991 H 0.91931 0.41336 0.1914 0.0
C1992 C 0.95096 0.40353 0.20515 0.0
C1993 C 0.97018 0.38964 0.20302 0.0
C1994 C 0.89553 0.39265 0.15705 0.0
C1995 C 0.93533 0.38631 0.1716 0.0
C1996 C 0.88034 0.39173 0.1392 0.0
C1997 C 0.88717 0.3826 0.11824 0.0
C1998 C 0.91783 0.38455 0.15384 0.0
C1999 C 0.90923 0.37384 0.116 0.0
C2000 C 0.93357 0.40196 0.18956 0.0
C2001 C 0.97139 0.37427 0.18489 0.0
N2002 N 0.92376 0.3751 0.13352 0.0
N2003 N 0.95427 0.37311 0.16983 0.0
H2004 H 0.63449 0.98245 0.14363 0.0
H2005 H 0.6974 0.88873 0.06761 0.0
H2006 H 0.70367 0.96267 0.15404 0.0
H2007 H 0.62526 0.89855 0.07409 0.0
H2008 H 0.70301 0.92324 0.0904 0.0
H2009 H 0.63457 0.96054 0.10857 0.0
C2010 C 0.64997 0.97408 0.13802 0.0
C2011 C 0.6691 0.97433 0.15155 0.0
C2012 C 0.686 0.91805 0.08638 0.0
C2013 C 0.66906 0.9483 0.11208 0.0
C2014 C 0.68281 0.89848 0.07334 0.0
C2015 C 0.66083 0.89078 0.0693 0.0
C2016 C 0.66704 0.93002 0.09494 0.0
C2017 C 0.64247 0.90384 0.07711 0.0
C2018 C 0.64997 0.96138 0.11815 0.0
C2019 C 0.68867 0.96299 0.14383 0.0
N2020 N 0.64598 0.9227 0.08964 0.0
N2021 N 0.68803 0.94996 0.12476 0.0
H2022 H 0.11818 0.61741 0.20009 0.0
H2023 H 0.14125 0.6777 0.08089 0.0
H2024 H 0.08025 0.67497 0.17739 0.0
H2025 H 0.18668 0.62849 0.10862 0.0
H2026 H 0.11834 0.67646 0.11582 0.0
H2027 H 0.14302 0.62046 0.16649 0.0
C2028 C 0.1151 0.6307 0.18805 0.0
C2029 C 0.09704 0.64587 0.19148 0.0
C2030 C 0.13341 0.66604 0.11438 0.0
C2031 C 0.12532 0.64944 0.15291 0.0
C2032 C 0.14652 0.66679 0.09443 0.0
C2033 C 0.16594 0.65323 0.09186 0.0
C2034 C 0.13958 0.65144 0.13187 0.0
C2035 C 0.17189 0.6393 0.10992 0.0
C2036 C 0.12929 0.63246 0.16888 0.0
C2037 C 0.09385 0.66278 0.17533 0.0
N2038 N 0.15871 0.63865 0.12907 0.0
N2039 N 0.10774 0.66404 0.15675 0.0
H2040 H 0.32885 0.97275 0.85551 0.0
H2041 H 0.38425 0.92233 0.96581 0.0
H2042 H 0.39728 0.98826 0.87375 0.0
H2043 H 0.3477 0.87922 0.92043 0.0
H2044 H 0.38039 0.9535 0.93904 0.0
H2045 H 0.32695 0.94503 0.88648 0.0
C2046 C 0.34319 0.97073 0.86645 0.0
C2047 C 0.3632 0.98277 0.86235 0.0
C2048 C 0.37295 0.93729 0.93515 0.0
C2049 C 0.3611 0.9516 0.8975 0.0
C2050 C 0.37506 0.91955 0.95039 0.0
C2051 C 0.36638 0.89817 0.94521 0.0
C2052 C 0.36154 0.93379 0.91489 0.0
C2053 C 0.35473 0.89544 0.92495 0.0
C2054 C 0.34218 0.95485 0.88387 0.0
C2055 C 0.38154 0.97931 0.87656 0.0
N2056 N 0.35258 0.91308 0.91049 0.0
N2057 N 0.38003 0.96412 0.89361 0.0
H2058 H 0.14478 0.33638 0.94243 0.0
H2059 H 0.06495 0.41676 0.87789 0.0
H2060 H 0.11135 0.39018 0.97967 0.0
H2061 H 0.04854 0.34594 0.87634 0.0
H2062 H 0.09047 0.40959 0.90951 0.0
H2063 H 0.11722 0.34116 0.91198 0.0
C2064 C 0.13151 0.34897 0.94428 0.0
C2065 C 0.13014 0.36275 0.96363 0.0
C2066 C 0.08127 0.39569 0.90213 0.0
C2067 C 0.09953 0.36889 0.92876 0.0
C2068 C 0.06686 0.39972 0.88413 0.0
C2069 C 0.05468 0.38191 0.87463 0.0
C2070 C 0.08406 0.37359 0.91005 0.0
C2071 C 0.05761 0.36012 0.88334 0.0
C2072 C 0.11592 0.3517 0.92698 0.0
C2073 C 0.11281 0.37903 0.96514 0.0
N2074 N 0.07227 0.35648 0.9004 0.0
N2075 N 0.09842 0.38194 0.94775 0.0
H2076 H 0.65141 0.14015 0.96753 0.0
H2077 H 0.64794 0.13053 0.83215 0.0
H2078 H 0.65091 0.19953 0.92591 0.0
H2079 H 0.62736 0.07825 0.87828 0.0
H2080 H 0.65422 0.1558 0.86491 0.0
H2081 H 0.6485 0.11668 0.93369 0.0
C2082 C 0.65083 0.14826 0.95121 0.0
C2083 C 0.6513 0.17184 0.94958 0.0
C2084 C 0.64848 0.1387 0.86774 0.0
C2085 C 0.64792 0.14494 0.91047 0.0
C2086 C 0.64496 0.12429 0.84908 0.0
C2087 C 0.63745 0.10206 0.85246 0.0
C2088 C 0.64468 0.13067 0.88984 0.0
C2089 C 0.63366 0.09497 0.87478 0.0
C2090 C 0.64909 0.13484 0.93184 0.0
C2091 C 0.65052 0.18139 0.92792 0.0
N2092 N 0.63737 0.10909 0.89246 0.0
N2093 N 0.64884 0.16792 0.90918 0.0
H2094 H 0.94412 0.61286 0.88333 0.0
H2095 H 0.88779 0.6859 0.98444 0.0
H2096 H 0.96565 0.68086 0.8974 0.0
H2097 H 0.86716 0.61939 0.96342 0.0
H2098 H 0.91899 0.6842 0.95597 0.0
H2099 H 0.91894 0.61443 0.91612 0.0
C2100 C 0.94359 0.62816 0.89347 0.0
C2101 C 0.95677 0.64683 0.88751 0.0
C2102 C 0.90767 0.66998 0.95777 0.0
C2103 C 0.9275 0.64899 0.92525 0.0
C2104 C 0.88994 0.67094 0.97398 0.0
C2105 C 0.87476 0.65285 0.97606 0.0
C2106 C 0.91018 0.65072 0.94385 0.0
C2107 C 0.87828 0.63383 0.96223 0.0
C2108 C 0.92914 0.62909 0.91226 0.0
C2109 C 0.95563 0.66613 0.90144 0.0
N2110 N 0.89548 0.63333 0.94678 0.0
N2111 N 0.94098 0.66684 0.9196 0.0
H2112 H 0.15166 0.33404 0.08155 0.0
H2113 H 0.04411 0.39922 0.12249 0.0
H2114 H 0.1288 0.39372 0.04746 0.0
H2115 H 0.05728 0.32982 0.13944 0.0
H2116 H 0.07053 0.39551 0.09022 0.0
H2117 H 0.11395 0.32965 0.09839 0.0
C2118 C 0.13849 0.34599 0.07734 0.0
C2119 C 0.14329 0.3644 0.06344 0.0
C2120 C 0.0671 0.38088 0.10057 0.0
C2121 C 0.10025 0.35995 0.08305 0.0
C2122 C 0.05191 0.38297 0.11891 0.0
C2123 C 0.04898 0.36492 0.13384 0.0
C2124 C 0.07946 0.3607 0.09749 0.0
C2125 C 0.05946 0.34426 0.12851 0.0
C2126 C 0.11693 0.34349 0.08688 0.0
C2127 C 0.1257 0.37936 0.05828 0.0
N2128 N 0.07464 0.34285 0.11108 0.0
N2129 N 0.10503 0.37714 0.06856 0.0
H2130 H 0.14585 0.70279 0.98529 0.0
H2131 H 0.03669 0.63955 0.94099 0.0
H2132 H 0.13176 0.63286 0.999 0.0
H2133 H 0.06711 0.69876 0.91162 0.0
H2134 H 0.06287 0.64249 0.97269 0.0
H2135 H 0.10786 0.70714 0.97037 0.0
C2136 C 0.13439 0.68856 0.98592 0.0
C2137 C 0.14196 0.66737 0.99298 0.0
C2138 C 0.06338 0.65513 0.95957 0.0
C2139 C 0.09886 0.67199 0.97531 0.0
C2140 C 0.04846 0.6535 0.94156 0.0
C2141 C 0.05009 0.66877 0.92362 0.0
C2142 C 0.07964 0.67236 0.95965 0.0
C2143 C 0.06558 0.6865 0.92503 0.0
C2144 C 0.11281 0.69099 0.97724 0.0
C2145 C 0.12653 0.64946 0.99354 0.0
N2146 N 0.07988 0.6877 0.94263 0.0
N2147 N 0.1058 0.652 0.98421 0.0
H2148 H 0.40206 0.12447 1.00257 0.0
H2149 H 0.32218 0.09128 0.90465 0.0
H2150 H 0.33358 0.14939 1.0002 0.0
H2151 H 0.3779 0.04866 0.92353 0.0
H2152 H 0.32436 0.11087 0.94111 0.0
H2153 H 0.3923 0.09422 0.97619 0.0
C2154 C 0.38473 0.12302 0.99709 0.0
C2155 C 0.36856 0.13927 1.00361 0.0
C2156 C 0.33583 0.09694 0.93749 0.0
C2157 C 0.35749 0.10545 0.97263 0.0
C2158 C 0.33462 0.08581 0.91666 0.0
C2159 C 0.35002 0.0685 0.91104 0.0
C2160 C 0.3529 0.09104 0.95259 0.0
C2161 C 0.36578 0.06201 0.9272 0.0
C2162 C 0.37919 0.10587 0.98191 0.0
C2163 C 0.34645 0.13699 0.99573 0.0
N2164 N 0.36711 0.07357 0.94707 0.0
N2165 N 0.34168 0.12071 0.9802 0.0
H2166 H 0.99406 0.38806 0.9461 0.0
H2167 H 0.89372 0.32827 0.01282 0.0
H2168 H 0.95709 0.32974 0.92371 0.0
H2169 H 0.91425 0.397 0.02465 0.0
H2170 H 0.92838 0.32187 0.9905 0.0
H2171 H 0.97574 0.38472 0.98354 0.0
C2172 C 0.9826 0.37417 0.9493 0.0
C2173 C 0.97665 0.35938 0.93181 0.0
C2174 C 0.92566 0.33816 0.99854 0.0
C2175 C 0.95594 0.3554 0.97432 0.0
C2176 C 0.90599 0.34176 0.01143 0.0
C2177 C 0.90093 0.36333 0.02003 0.0
C2178 C 0.94016 0.35637 0.99404 0.0
C2179 C 0.91741 0.3802 0.01796 0.0
C2180 C 0.97215 0.37231 0.9706 0.0
C2181 C 0.96179 0.34168 0.93671 0.0
N2182 N 0.93607 0.37656 1.00458 0.0
N2183 N 0.95173 0.34033 0.95744 0.0
H2184 H 0.69535 0.99669 0.88834 0.0
H2185 H 0.65152 0.93807 1.00228 0.0
H2186 H 0.63881 0.0224 0.92797 0.0
H2187 H 0.69487 0.90613 0.95198 0.0
H2188 H 0.65252 0.97303 0.98018 0.0
H2189 H 0.7019 0.96822 0.91706 0.0
C2190 C 0.68464 0.99668 0.9034 0.0
C2191 C 0.66637 0.01176 0.9057 0.0
C2192 C 0.662 0.95844 0.97414 0.0
C2193 C 0.67346 0.97885 0.93846 0.0
C2194 C 0.66146 0.93852 0.98672 0.0
C2195 C 0.67298 0.91918 0.97878 0.0
C2196 C 0.67436 0.95901 0.95364 0.0
C2197 C 0.68561 0.92063 0.95859 0.0
C2198 C 0.68827 0.98029 0.91971 0.0
C2199 C 0.65306 0.01104 0.92556 0.0
N2200 N 0.6859 0.94015 0.94669 0.0
N2201 N 0.65664 0.99457 0.94107 0.0
H2202 H 0.02895 0.64635 0.11731 0.0
H2203 H 0.92136 0.71221 0.07247 0.0
H2204 H 1.00717 0.71201 0.14111 0.0
H2205 H 0.9422 0.64689 0.04696 0.0
H2206 H 0.95699 0.7153 0.09236 0.0
H2207 H 1.0023 0.64919 0.0862 0.0
C2208 C 0.01909 0.66167 0.11557 0.0
C2209 C 0.02008 0.67888 0.13193 0.0
C2210 C 0.95401 0.70039 0.08218 0.0
C2211 C 0.98925 0.68206 0.09673 0.0
C2212 C 0.93365 0.69865 0.07078 0.0
C2213 C 0.92876 0.67917 0.05826 0.0
C2214 C 0.96955 0.68236 0.08137 0.0
C2215 C 0.94531 0.66216 0.05654 0.0
C2216 C 1.00372 0.66321 0.09792 0.0
C2217 C 1.00681 0.69828 0.12896 0.0
N2218 N 0.96484 0.66397 0.06829 0.0
N2219 N 0.99173 0.69918 0.11196 0.0
H2220 H 0.40093 0.9805 0.10076 0.0
H2221 H 0.34026 0.8688 0.0617 0.0
H2222 H 0.33712 0.95732 0.1282 0.0
H2223 H 0.39876 0.8957 0.02677 0.0
H2224 H 0.33541 0.90468 0.08174 0.0
H2225 H 0.39709 0.95404 0.06903 0.0
C2226 C 0.38576 0.97038 0.0997 0.0
C2227 C 0.36948 0.97078 0.11725 0.0
C2228 C 0.34914 0.90296 0.06946 0.0
C2229 C 0.36519 0.94022 0.08143 0.0
C2230 C 0.35189 0.88244 0.05804 0.0
C2231 C 0.37011 0.87923 0.04288 0.0
C2232 C 0.365 0.92028 0.06604 0.0
C2233 C 0.38459 0.89748 0.03853 0.0
C2234 C 0.38364 0.95515 0.08168 0.0
C2235 C 0.3502 0.95729 0.11513 0.0
N2236 N 0.382 0.91712 0.05041 0.0
N2237 N 0.34879 0.94228 0.09781 0.0
H2238 H 0.68933 0.1725 0.06901 0.0
H2239 H 0.65243 0.04988 0.11239 0.0
H2240 H 0.63226 0.13619 0.04327 0.0
H2241 H 0.6907 0.09715 0.15186 0.0
H2242 H 0.6525 0.07694 0.08115 0.0
H2243 H 0.69823 0.14008 0.09296 0.0
C2244 C 0.67934 0.15728 0.06763 0.0
C2245 C 0.66026 0.15678 0.05394 0.0
C2246 C 0.66108 0.08126 0.09657 0.0
C2247 C 0.66984 0.12005 0.08167 0.0
C2248 C 0.66105 0.06586 0.11437 0.0
C2249 C 0.67138 0.07142 0.13477 0.0
C2250 C 0.67179 0.10225 0.0991 0.0
C2251 C 0.68236 0.09231 0.13646 0.0
C2252 C 0.68416 0.13896 0.08157 0.0
C2253 C 0.64732 0.13702 0.05337 0.0
N2254 N 0.68223 0.10699 0.11889 0.0
N2255 N 0.65222 0.11949 0.06718 0.0
H2256 H 0.59767 0.695 0.86739 0.0
H2257 H 0.63567 0.57251 0.90176 0.0
H2258 H 0.58995 0.6732 0.93632 0.0
H2259 H 0.67573 0.61133 0.85457 0.0
H2260 H 0.6137 0.60675 0.91149 0.0
H2261 H 0.62223 0.66231 0.85939 0.0
C2262 C 0.60161 0.68354 0.88096 0.0
C2263 C 0.59231 0.687 0.90266 0.0
C2264 C 0.62729 0.60769 0.89899 0.0
C2265 C 0.61932 0.64903 0.89336 0.0
C2266 C 0.63962 0.58817 0.89325 0.0
C2267 C 0.65742 0.58913 0.87724 0.0
C2268 C 0.63246 0.62813 0.88824 0.0
C2269 C 0.66207 0.60989 0.86693 0.0
C2270 C 0.61546 0.66486 0.87635 0.0
C2271 C 0.59732 0.67136 0.91952 0.0
N2272 N 0.64954 0.62853 0.87244 0.0
N2273 N 0.61025 0.6528 0.91444 0.0
H2274 H 0.43259 0.56689 0.83276 0.0
H2275 H 0.52957 0.60167 0.91102 0.0
H2276 H 0.44499 0.53176 0.89481 0.0
H2277 H 0.5278 0.61947 0.84065 0.0
H2278 H 0.50424 0.57004 0.90347 0.0
H2279 H 0.47134 0.58091 0.83281 0.0
C2280 C 0.44367 0.56187 0.84621 0.0
C2281 C 0.43561 0.54854 0.86399 0.0
C2282 C 0.51003 0.58035 0.8895 0.0
C2283 C 0.47981 0.56485 0.86453 0.0
C2284 C 0.52468 0.59829 0.89379 0.0
C2285 C 0.53022 0.61345 0.8765 0.0
C2286 C 0.50084 0.57793 0.86787 0.0
C2287 C 0.52346 0.60837 0.85451 0.0
C2288 C 0.46584 0.56977 0.84622 0.0
C2289 C 0.45062 0.54225 0.88092 0.0
N2290 N 0.5086 0.5914 0.85091 0.0
N2291 N 0.47189 0.55093 0.88109 0.0
H2292 H 0.38617 0.46526 0.91774 0.0
H2293 H 0.45441 0.38325 0.83643 0.0
H2294 H 0.38714 0.47732 0.84605 0.0
H2295 H 0.47901 0.40088 0.90229 0.0
H2296 H 0.42773 0.41524 0.83908 0.0
H2297 H 0.41789 0.43879 0.91254 0.0
C2298 C 0.39315 0.46238 0.9009 0.0
C2299 C 0.38403 0.47345 0.8823 0.0
C2300 C 0.43925 0.41228 0.85275 0.0
C2301 C 0.42004 0.44285 0.87616 0.0
C2302 C 0.45449 0.39409 0.85124 0.0
C2303 C 0.46897 0.38937 0.86915 0.0
C2304 C 0.43807 0.42546 0.87257 0.0
C2305 C 0.46822 0.40388 0.88804 0.0
C2306 C 0.4113 0.44736 0.89796 0.0
C2307 C 0.39375 0.46915 0.86084 0.0
N2308 N 0.45276 0.42097 0.88943 0.0
N2309 N 0.41102 0.4539 0.85829 0.0
H2310 H 0.54917 0.43072 0.87603 0.0
H2311 H 0.67567 0.45967 0.83631 0.0
H2312 H 0.59792 0.3816 0.85141 0.0
H2313 H 0.63884 0.49817 0.88697 0.0
H2314 H 0.64181 0.43679 0.83013 0.0
H2315 H 0.57709 0.46068 0.86927 0.0
C2316 C 0.56563 0.42632 0.86887 0.0
C2317 C 0.57148 0.40372 0.86454 0.0
C2318 C 0.64093 0.4507 0.84208 0.0
C2319 C 0.60309 0.4377 0.85644 0.0
C2320 C 0.6601 0.4639 0.84538 0.0
C2321 C 0.65976 0.48084 0.86197 0.0
C2322 C 0.62145 0.45454 0.85555 0.0
C2323 C 0.63951 0.48536 0.87383 0.0
C2324 C 0.58148 0.44337 0.86503 0.0
C2325 C 0.59292 0.39883 0.85522 0.0
N2326 N 0.62114 0.47208 0.87058 0.0
N2327 N 0.60802 0.4157 0.85156 0.0
H2328 H 0.57313 0.35587 0.11499 0.0
H2329 H 0.65348 0.43577 0.18012 0.0
H2330 H 0.56398 0.36062 0.18727 0.0
H2331 H 0.61614 0.46234 0.12435 0.0
H2332 H 0.62782 0.40306 0.18126 0.0
H2333 H 0.59619 0.39025 0.11583 0.0
C2334 C 0.57608 0.36415 0.13103 0.0
C2335 C 0.56675 0.35551 0.15111 0.0
C2336 C 0.62528 0.41616 0.16889 0.0
C2337 C 0.59342 0.39426 0.15219 0.0
C2338 C 0.6399 0.43467 0.16814 0.0
C2339 C 0.63682 0.45168 0.15212 0.0
C2340 C 0.60806 0.41439 0.15302 0.0
C2341 C 0.61898 0.44958 0.13699 0.0
C2342 C 0.58909 0.38373 0.13147 0.0
C2343 C 0.57088 0.36688 0.17145 0.0
N2344 N 0.60546 0.43106 0.13755 0.0
N2345 N 0.58428 0.38556 0.17156 0.0
H2346 H 0.52214 0.6072 0.15452 0.0
H2347 H 0.63399 0.5456 0.19387 0.0
H2348 H 0.55206 0.61648 0.21972 0.0
H2349 H 0.61316 0.55367 0.12508 0.0
H2350 H 0.59628 0.55857 0.20693 0.0
H2351 H 0.54662 0.5743 0.14791 0.0
C2352 C 0.53323 0.60179 0.16781 0.0
C2353 C 0.53556 0.61487 0.18743 0.0
C2354 C 0.59978 0.55682 0.18898 0.0
C2355 C 0.56388 0.57767 0.17982 0.0
C2356 C 0.6212 0.54934 0.18156 0.0
C2357 C 0.62661 0.549 0.15842 0.0
C2358 C 0.58382 0.56373 0.17306 0.0
C2359 C 0.60962 0.55408 0.14309 0.0
C2360 C 0.54734 0.58312 0.16396 0.0
C2361 C 0.5501 0.60705 0.20416 0.0
N2362 N 0.58908 0.56152 0.15067 0.0
N2363 N 0.56415 0.58927 0.19975 0.0
H2364 H 0.39921 0.59277 0.13281 0.0
H2365 H 0.47153 0.68154 0.20176 0.0
H2366 H 0.38039 0.61278 0.20082 0.0
H2367 H 0.46247 0.68726 0.12996 0.0
H2368 H 0.44417 0.65059 0.20274 0.0
H2369 H 0.42939 0.62101 0.13284 0.0
C2370 C 0.40182 0.60266 0.14798 0.0
C2371 C 0.38733 0.60043 0.16692 0.0
C2372 C 0.44814 0.65866 0.1868 0.0
C2373 C 0.42163 0.63276 0.16691 0.0
C2374 C 0.46367 0.67631 0.18621 0.0
C2375 C 0.46899 0.68707 0.16578 0.0
C2376 C 0.43829 0.65135 0.16672 0.0
C2377 C 0.45853 0.67956 0.14608 0.0
C2378 C 0.41883 0.61896 0.14784 0.0
C2379 C 0.39128 0.61394 0.18596 0.0
N2380 N 0.44376 0.66198 0.147 0.0
N2381 N 0.40807 0.62957 0.18548 0.0
H2382 H 0.39576 0.48242 0.1273 0.0
H2383 H 0.46824 0.4057 0.20407 0.0
H2384 H 0.40448 0.50219 0.19678 0.0
H2385 H 0.4894 0.41903 0.13539 0.0
H2386 H 0.44278 0.43858 0.20296 0.0
H2387 H 0.42727 0.45574 0.13049 0.0
C2388 C 0.40428 0.48104 0.14327 0.0
C2389 C 0.3975 0.49438 0.16186 0.0
C2390 C 0.45337 0.43455 0.18833 0.0
C2391 C 0.43336 0.46382 0.16565 0.0
C2392 C 0.46789 0.41588 0.18896 0.0
C2393 C 0.4809 0.40974 0.1698 0.0
C2394 C 0.45137 0.44662 0.16817 0.0
C2395 C 0.47973 0.42331 0.15056 0.0
C2396 C 0.42236 0.466 0.145 0.0
C2397 C 0.40922 0.49212 0.1821 0.0
N2398 N 0.46481 0.44084 0.15005 0.0
N2399 N 0.42643 0.47684 0.1836 0.0
H2400 H 0.9184 0.53715 0.61347 0.0
H2401 H 0.83518 0.63132 0.57432 0.0
H2402 H 0.85097 0.54479 0.64149 0.0
H2403 H 0.8951 0.61241 0.53591 0.0
H2404 H 0.83767 0.59601 0.5952 0.0
H2405 H 0.90756 0.55971 0.58102 0.0
C2406 C 0.90102 0.5429 0.6123 0.0
C2407 C 0.88553 0.53914 0.63007 0.0
C2408 C 0.85002 0.59928 0.58189 0.0
C2409 C 0.87324 0.56586 0.59356 0.0
C2410 C 0.84862 0.61947 0.56998 0.0
C2411 C 0.86513 0.62486 0.5536 0.0
C2412 C 0.86837 0.58457 0.57771 0.0
C2413 C 0.88211 0.60891 0.54853 0.0
C2414 C 0.89487 0.55594 0.59386 0.0
C2415 C 0.86334 0.5472 0.628 0.0
N2416 N 0.88356 0.58968 0.56088 0.0
N2417 N 0.858 0.56068 0.61033 0.0
H2418 H 0.43069 0.89603 0.56527 0.0
H2419 H 0.48398 0.82093 0.66319 0.0
H2420 H 0.39712 0.8399 0.59722 0.0
H2421 H 0.51151 0.88503 0.64262 0.0
H2422 H 0.45707 0.82298 0.63245 0.0
H2423 H 0.4646 0.88798 0.58732 0.0
C2424 C 0.4306 0.88177 0.57661 0.0
C2425 C 0.41103 0.86868 0.57952 0.0
C2426 C 0.46925 0.83642 0.63436 0.0
C2427 C 0.4497 0.85936 0.60476 0.0
C2428 C 0.48481 0.83514 0.6518 0.0
C2429 C 0.49991 0.85293 0.6557 0.0
C2430 C 0.46871 0.85563 0.6206 0.0
C2431 C 0.50015 0.87094 0.64034 0.0
C2432 C 0.44992 0.87724 0.58925 0.0
C2433 C 0.4118 0.85048 0.59453 0.0
N2434 N 0.48454 0.87201 0.62371 0.0
N2435 N 0.43072 0.84645 0.60664 0.0
H2436 H 0.19577 0.40267 0.57464 0.0
H2437 H 0.12399 0.47075 0.66907 0.0
H2438 H 0.12397 0.39661 0.5872 0.0
H2439 H 0.19431 0.4857 0.65585 0.0
H2440 H 0.12424 0.44532 0.63678 0.0
H2441 H 0.19643 0.43478 0.60162 0.0
C2442 C 0.18015 0.40834 0.58274 0.0
C2443 C 0.15982 0.39684 0.57891 0.0
C2444 C 0.13969 0.45416 0.64069 0.0
C2445 C 0.16042 0.43319 0.60963 0.0
C2446 C 0.13953 0.46871 0.65923 0.0
C2447 C 0.15919 0.48018 0.66527 0.0
C2448 C 0.1598 0.45058 0.62805 0.0
C2449 C 0.17879 0.47708 0.65173 0.0
C2450 C 0.18053 0.42655 0.59818 0.0
C2451 C 0.14007 0.40477 0.58986 0.0
N2452 N 0.17871 0.46231 0.63386 0.0
N2453 N 0.14091 0.42223 0.60472 0.0
H2454 H 0.56809 0.13751 0.66765 0.0
H2455 H 0.69188 0.16566 0.62278 0.0
H2456 H 0.61723 0.16187 0.71465 0.0
H2457 H 0.63234 0.1732 0.5826 0.0
H2458 H 0.66732 0.1612 0.65668 0.0
H2459 H 0.59361 0.14654 0.63648 0.0
C2460 C 0.58418 0.14512 0.67147 0.0
C2461 C 0.59013 0.14949 0.69392 0.0
C2462 C 0.65971 0.16411 0.64047 0.0
C2463 C 0.62026 0.15919 0.65779 0.0
C2464 C 0.67368 0.16666 0.62112 0.0
C2465 C 0.66416 0.16982 0.59976 0.0
C2466 C 0.63605 0.16423 0.63836 0.0
C2467 C 0.64048 0.17084 0.59863 0.0
C2468 C 0.59887 0.15015 0.65354 0.0
C2469 C 0.61178 0.15844 0.69764 0.0
N2470 N 0.62733 0.16779 0.6175 0.0
N2471 N 0.62616 0.1629 0.67974 0.0
H2472 H 0.83719 0.41068 0.45777 0.0
H2473 H 0.90895 0.49226 0.38252 0.0
H2474 H 0.90123 0.43696 0.47926 0.0
H2475 H 0.83648 0.48963 0.37663 0.0
H2476 H 0.90578 0.47365 0.41912 0.0
H2477 H 0.8351 0.44078 0.42967 0.0
C2478 C 0.85051 0.42318 0.45701 0.0
C2479 C 0.86946 0.42127 0.47082 0.0
C2480 C 0.89047 0.47752 0.41014 0.0
C2481 C 0.86751 0.45534 0.43824 0.0
C2482 C 0.89229 0.48816 0.38924 0.0
C2483 C 0.87295 0.49251 0.37663 0.0
C2484 C 0.86918 0.47046 0.41824 0.0
C2485 C 0.85177 0.48672 0.38597 0.0
C2486 C 0.84933 0.44032 0.44091 0.0
C2487 C 0.88629 0.43782 0.469 0.0
N2488 N 0.85047 0.47552 0.40603 0.0
N2489 N 0.88516 0.45385 0.45267 0.0
H2490 H 0.55221 0.91895 0.42203 0.0
H2491 H 0.61871 0.83724 0.49845 0.0
H2492 H 0.54506 0.84693 0.41505 0.0
H2493 H 0.60252 0.90543 0.51906 0.0
H2494 H 0.58839 0.83876 0.47092 0.0
H2495 H 0.56726 0.91368 0.45974 0.0
C2496 C 0.55342 0.90201 0.4287 0.0
C2497 C 0.54754 0.88334 0.41546 0.0
C2498 C 0.59098 0.85316 0.48192 0.0
C2499 C 0.56536 0.87705 0.4584 0.0
C2500 C 0.60821 0.85224 0.49775 0.0
C2501 C 0.61328 0.87132 0.51089 0.0
C2502 C 0.57909 0.87346 0.4789 0.0
C2503 C 0.59925 0.89036 0.50922 0.0
C2504 C 0.56197 0.89899 0.45025 0.0
C2505 C 0.5494 0.86175 0.42481 0.0
N2506 N 0.58318 0.89117 0.49308 0.0
N2507 N 0.55868 0.85913 0.44556 0.0
H2508 H 0.1525 0.62727 0.3194 0.0
H2509 H 0.15102 0.70159 0.4149 0.0
H2510 H 0.12835 0.57926 0.36848 0.0
H2511 H 0.15796 0.63993 0.45237 0.0
H2512 H 0.14748 0.67912 0.37997 0.0
H2513 H 0.15872 0.65456 0.3504 0.0
C2514 C 0.14851 0.62248 0.33663 0.0
C2515 C 0.14017 0.60081 0.34135 0.0
C2516 C 0.15016 0.67054 0.39576 0.0
C2517 C 0.1471 0.6318 0.37683 0.0
C2518 C 0.15205 0.68336 0.41572 0.0
C2519 C 0.15484 0.67262 0.43658 0.0
C2520 C 0.1508 0.6468 0.39678 0.0
C2521 C 0.1559 0.64896 0.4367 0.0
C2522 C 0.15194 0.63808 0.35431 0.0
C2523 C 0.13526 0.59552 0.364 0.0
N2524 N 0.15364 0.63693 0.41724 0.0
N2525 N 0.13896 0.61073 0.38077 0.0
H2526 H 0.44445 0.1919 0.36109 0.0
H2527 H 0.40392 0.15192 0.48416 0.0
H2528 H 0.48584 0.15074 0.40375 0.0
H2529 H 0.36652 0.19803 0.44283 0.0
H2530 H 0.43569 0.15366 0.45676 0.0
H2531 H 0.41735 0.19696 0.39247 0.0
C2532 C 0.44797 0.18418 0.37718 0.0
C2533 C 0.46732 0.17076 0.37976 0.0
C2534 C 0.42062 0.16359 0.45384 0.0
C2535 C 0.43618 0.17615 0.41578 0.0
C2536 C 0.40253 0.16264 0.46951 0.0
C2537 C 0.38249 0.17467 0.46563 0.0
C2538 C 0.41857 0.17662 0.43418 0.0
C2539 C 0.38158 0.18829 0.44637 0.0
C2540 C 0.43246 0.18701 0.39511 0.0
C2541 C 0.47108 0.16118 0.40101 0.0
N2542 N 0.39921 0.18873 0.43132 0.0
N2543 N 0.45551 0.16382 0.41812 0.0
H2544 H 0.60564 0.8388 0.65452 0.0
H2545 H 0.67888 0.92226 0.58411 0.0
H2546 H 0.61853 0.90603 0.6794 0.0
H2547 H 0.70242 0.85359 0.58936 0.0
H2548 H 0.6531 0.91614 0.6163 0.0
H2549 H 0.63793 0.84266 0.62782 0.0
C2550 C 0.61543 0.85421 0.65455 0.0
C2551 C 0.60942 0.87216 0.66908 0.0
C2552 C 0.66412 0.90249 0.61063 0.0
C2553 C 0.64575 0.87679 0.63852 0.0
C2554 C 0.67879 0.90597 0.59231 0.0
C2555 C 0.69289 0.88847 0.58438 0.0
C2556 C 0.66294 0.88111 0.62057 0.0
C2557 C 0.69199 0.86756 0.59532 0.0
C2558 C 0.63383 0.85635 0.63942 0.0
C2559 C 0.62259 0.89179 0.66847 0.0
N2560 N 0.67688 0.86428 0.6127 0.0
N2561 N 0.63987 0.89375 0.65316 0.0
H2562 H 0.54878 0.14811 0.43907 0.0
H2563 H 0.65621 0.21541 0.48229 0.0
H2564 H 0.57581 0.20824 0.40831 0.0
H2565 H 0.63943 0.14806 0.50372 0.0
H2566 H 0.6198 0.21811 0.4637 0.0
H2567 H 0.57504 0.15284 0.47027 0.0
C2568 C 0.5599 0.1626 0.43915 0.0
C2569 C 0.56037 0.17768 0.42097 0.0
C2570 C 0.6238 0.20291 0.47288 0.0
C2571 C 0.59041 0.18314 0.45652 0.0
C2572 C 0.6445 0.20144 0.48366 0.0
C2573 C 0.6509 0.18139 0.49428 0.0
C2574 C 0.60946 0.18409 0.47251 0.0
C2575 C 0.63513 0.1638 0.49563 0.0
C2576 C 0.57492 0.16523 0.45692 0.0
C2577 C 0.57506 0.19613 0.4219 0.0
N2578 N 0.61528 0.16537 0.48441 0.0
N2579 N 0.58967 0.19821 0.43925 0.0
H2580 H 0.82696 0.60181 0.3891 0.0
H2581 H 0.90969 0.67788 0.45704 0.0
H2582 H 0.89298 0.57698 0.4067 0.0
H2583 H 0.83982 0.67452 0.47911 0.0
H2584 H 0.90388 0.64446 0.43309 0.0
H2585 H 0.83071 0.63212 0.4175 0.0
C2586 C 0.84205 0.60257 0.39915 0.0
C2587 C 0.85966 0.58692 0.39565 0.0
C2588 C 0.88987 0.65104 0.44325 0.0
C2589 C 0.86433 0.62168 0.42731 0.0
C2590 C 0.89313 0.67011 0.45677 0.0
C2591 C 0.87519 0.67887 0.46996 0.0
C2592 C 0.86836 0.64114 0.44245 0.0
C2593 C 0.85407 0.66816 0.46915 0.0
C2594 C 0.84418 0.6198 0.41527 0.0
C2595 C 0.87897 0.58867 0.40897 0.0
N2596 N 0.8511 0.64999 0.45534 0.0
N2597 N 0.88098 0.606 0.42393 0.0
H2598 H 0.38049 0.8958 0.51291 0.0
H2599 H 0.42159 0.86158 0.38888 0.0
H2600 H 0.33473 0.86754 0.46464 0.0
H2601 H 0.46646 0.877 0.44339 0.0
H2602 H 0.38956 0.86166 0.41597 0.0
H2603 H 0.41212 0.88723 0.48762 0.0
C2604 C 0.37716 0.88737 0.49711 0.0
C2605 C 0.35502 0.88214 0.491 0.0
C2606 C 0.40646 0.86472 0.42201 0.0
C2607 C 0.39126 0.87285 0.46134 0.0
C2608 C 0.4247 0.86467 0.4066 0.0
C2609 C 0.44659 0.8695 0.41397 0.0
C2610 C 0.41024 0.86979 0.44483 0.0
C2611 C 0.4498 0.87336 0.43702 0.0
C2612 C 0.39526 0.88259 0.48253 0.0
C2613 C 0.35162 0.8718 0.46997 0.0
N2614 N 0.4318 0.87363 0.45158 0.0
N2615 N 0.36959 0.86767 0.45571 0.0
H2616 H 0.1437 0.53067 0.42208 0.0
H2617 H 0.20965 0.42166 0.46471 0.0
H2618 H 0.2021 0.5011 0.38842 0.0
H2619 H 0.15238 0.45039 0.501 0.0
H2620 H 0.21036 0.45439 0.43999 0.0
H2621 H 0.14983 0.50569 0.45439 0.0
C2622 C 0.15817 0.51939 0.42177 0.0
C2623 C 0.17234 0.51781 0.40251 0.0
C2624 C 0.19776 0.45377 0.45349 0.0
C2625 C 0.17922 0.48898 0.43911 0.0
C2626 C 0.19737 0.43506 0.46763 0.0
C2627 C 0.18083 0.43326 0.48479 0.0
C2628 C 0.18123 0.47077 0.45622 0.0
C2629 C 0.16539 0.45115 0.4879 0.0
C2630 C 0.16156 0.505 0.44013 0.0
C2631 C 0.1907 0.50276 0.40288 0.0
N2632 N 0.16575 0.46904 0.47353 0.0
N2633 N 0.19344 0.48879 0.42072 0.0
H2634 H 0.43988 0.16955 0.53589 0.0
H2635 H 0.48995 0.21003 0.65356 0.0
H2636 H 0.40378 0.2095 0.58608 0.0
H2637 H 0.51846 0.15488 0.61438 0.0
H2638 H 0.46454 0.21848 0.62274 0.0
H2639 H 0.47408 0.17203 0.55871 0.0
C2640 C 0.43931 0.17926 0.55147 0.0
C2641 C 0.41899 0.18915 0.55931 0.0
C2642 C 0.47664 0.20479 0.62065 0.0
C2643 C 0.45786 0.19211 0.58529 0.0
C2644 C 0.49125 0.20006 0.63817 0.0
C2645 C 0.50605 0.18155 0.63657 0.0
C2646 C 0.47668 0.19079 0.60144 0.0
C2647 C 0.50717 0.16925 0.61626 0.0
C2648 C 0.45877 0.18058 0.56449 0.0
C2649 C 0.41908 0.20147 0.57957 0.0
N2650 N 0.49231 0.17382 0.59957 0.0
N2651 N 0.43816 0.20247 0.59194 0.0
H2652 H 0.89072 0.32781 0.58401 0.0
H2653 H 0.90433 0.41381 0.66634 0.0
H2654 H 0.89793 0.38285 0.53727 0.0
H2655 H 0.88374 0.45828 0.61314 0.0
H2656 H 0.90349 0.38194 0.63955 0.0
H2657 H 0.88913 0.35531 0.61538 0.0
C2658 C 0.89191 0.34566 0.58038 0.0
C2659 C 0.89452 0.35312 0.55805 0.0
C2660 C 0.89878 0.39858 0.63383 0.0
C2661 C 0.89309 0.38456 0.59361 0.0
C2662 C 0.89947 0.41679 0.64908 0.0
C2663 C 0.89412 0.43866 0.6419 0.0
C2664 C 0.89277 0.40244 0.6113 0.0
C2665 C 0.888 0.44169 0.61938 0.0
C2666 C 0.89124 0.36135 0.59828 0.0
C2667 C 0.89593 0.37638 0.55421 0.0
N2668 N 0.88766 0.42386 0.6049 0.0
N2669 N 0.89514 0.3912 0.57174 0.0
H2670 H 0.21074 0.59523 0.63363 0.0
H2671 H 0.137 0.62666 0.53071 0.0
H2672 H 0.16538 0.54766 0.60309 0.0
H2673 H 0.19718 0.66356 0.54717 0.0
H2674 H 0.15032 0.59502 0.55324 0.0
H2675 H 0.20952 0.61815 0.59945 0.0
C2676 C 0.20092 0.58937 0.61951 0.0
C2677 C 0.18795 0.56968 0.62124 0.0
C2678 C 0.16101 0.60971 0.55139 0.0
C2679 C 0.18607 0.59602 0.58226 0.0
C2680 C 0.15348 0.62769 0.53834 0.0
C2681 C 0.16605 0.64765 0.53703 0.0
C2682 C 0.18094 0.61202 0.56376 0.0
C2683 C 0.18709 0.64835 0.54759 0.0
C2684 C 0.20022 0.60245 0.59998 0.0
C2685 C 0.17553 0.56282 0.60247 0.0
N2686 N 0.19361 0.63102 0.56101 0.0
N2687 N 0.17452 0.57621 0.58393 0.0
H2688 H 0.08141 0.2894 0.38654 0.0
H2689 H 0.13389 0.3014 0.50546 0.0
H2690 H 0.0419 0.2924 0.44856 0.0
H2691 H 0.16623 0.33489 0.44903 0.0
H2692 H 0.10214 0.29214 0.48166 0.0
H2693 H 0.11348 0.30567 0.40632 0.0
C2694 C 0.07919 0.29441 0.40408 0.0
C2695 C 0.05949 0.28875 0.41632 0.0
C2696 C 0.11631 0.30133 0.47443 0.0
C2697 C 0.09581 0.30641 0.4388 0.0
C2698 C 0.13464 0.30608 0.48782 0.0
C2699 C 0.15232 0.31932 0.47927 0.0
C2700 C 0.11601 0.30949 0.45229 0.0
C2701 C 0.15268 0.32486 0.45627 0.0
C2702 C 0.09755 0.30338 0.41537 0.0
C2703 C 0.05715 0.2959 0.43878 0.0
N2704 N 0.13446 0.32018 0.44349 0.0
N2705 N 0.07549 0.30371 0.44961 0.0
H2706 H 0.70578 0.11069 0.42894 0.0
H2707 H 0.78114 0.02484 0.40391 0.0
H2708 H 0.76819 0.14823 0.42769 0.0
H2709 H 0.81672 0.0734 0.36263 0.0
H2710 H 0.75268 0.05381 0.41342 0.0
H2711 H 0.72367 0.08181 0.40461 0.0
C2712 C 0.72303 0.11318 0.42295 0.0
C2713 C 0.73579 0.13154 0.43056 0.0
C2714 C 0.76635 0.05787 0.40172 0.0
C2715 C 0.75612 0.09879 0.40317 0.0
C2716 C 0.78266 0.04146 0.39653 0.0
C2717 C 0.8014 0.04698 0.38288 0.0
C2718 C 0.76918 0.07988 0.39344 0.0
C2719 C 0.80264 0.06863 0.37353 0.0
C2720 C 0.73321 0.09663 0.40931 0.0
C2721 C 0.75797 0.1341 0.42237 0.0
N2722 N 0.78705 0.08453 0.37948 0.0
N2723 N 0.76758 0.1177 0.40923 0.0
H2724 H 0.97512 0.7461 0.38591 0.0
H2725 H 0.92632 0.80098 0.49809 0.0
H2726 H 1.01018 0.74902 0.44849 0.0
H2727 H 0.88164 0.77752 0.44658 0.0
H2728 H 0.95861 0.78849 0.475 0.0
H2729 H 0.93976 0.7556 0.40588 0.0
C2730 C 0.97521 0.74756 0.40416 0.0
C2731 C 0.99567 0.75066 0.41539 0.0
C2732 C 0.94169 0.78623 0.46864 0.0
C2733 C 0.95618 0.76054 0.43809 0.0
C2734 C 0.92329 0.7942 0.48138 0.0
C2735 C 0.90148 0.78778 0.47519 0.0
C2736 C 0.93774 0.77346 0.44904 0.0
C2737 C 0.89845 0.78087 0.45272 0.0
C2738 C 0.95513 0.75379 0.41538 0.0
C2739 C 0.99472 0.74951 0.43896 0.0
N2740 N 0.91646 0.77252 0.44075 0.0
N2741 N 0.97545 0.75648 0.44969 0.0
H2742 H 0.1677 0.92776 0.41715 0.0
H2743 H 0.23781 0.94948 0.50576 0.0
H2744 H 0.23837 0.91343 0.40386 0.0
H2745 H 0.2395 0.87707 0.51263 0.0
H2746 H 0.21253 0.94507 0.47373 0.0
H2747 H 0.17183 0.91408 0.45567 0.0
C2748 C 0.18375 0.92045 0.42186 0.0
C2749 C 0.20304 0.92247 0.40775 0.0
C2750 C 0.21765 0.93024 0.48299 0.0
C2751 C 0.20742 0.90633 0.45109 0.0
C2752 C 0.23201 0.93278 0.50114 0.0
C2753 C 0.24068 0.91363 0.51155 0.0
C2754 C 0.21298 0.90848 0.47482 0.0
C2755 C 0.23303 0.89222 0.50486 0.0
C2756 C 0.18599 0.9127 0.44384 0.0
C2757 C 0.2233 0.91262 0.41453 0.0
N2758 N 0.22039 0.8901 0.4861 0.0
N2759 N 0.22516 0.90548 0.4361 0.0
H2760 H 0.03945 0.72387 0.6236 0.0
H2761 H 0.1299 0.66868 0.60248 0.0
H2762 H 0.06301 0.7407 0.68999 0.0
H2763 H 0.14466 0.73443 0.6299 0.0
H2764 H 0.09963 0.66435 0.63091 0.0
H2765 H 0.067 0.69307 0.62156 0.0
C2766 C 0.0497 0.72039 0.63814 0.0
C2767 C 0.05019 0.73546 0.65634 0.0
C2768 C 0.11045 0.67905 0.63155 0.0
C2769 C 0.08189 0.70117 0.65393 0.0
C2770 C 0.1277 0.6816 0.6154 0.0
C2771 C 0.13907 0.7023 0.61364 0.0
C2772 C 0.10514 0.69725 0.64592 0.0
C2773 C 0.13577 0.71849 0.63054 0.0
C2774 C 0.06533 0.70266 0.63716 0.0
C2775 C 0.06327 0.73003 0.67505 0.0
N2776 N 0.11872 0.71578 0.64587 0.0
N2777 N 0.07939 0.7138 0.67304 0.0
H2778 H 0.19171 0.12233 0.59074 0.0
H2779 H 0.31767 0.15302 0.59605 0.0
H2780 H 0.22862 0.12779 0.65258 0.0
H2781 H 0.27847 0.16194 0.53604 0.0
H2782 H 0.28289 0.15294 0.61863 0.0
H2783 H 0.21891 0.14757 0.57255 0.0
C2784 C 0.20505 0.12961 0.60071 0.0
C2785 C 0.20874 0.12236 0.62276 0.0
C2786 C 0.28179 0.1552 0.60056 0.0
C2787 C 0.23996 0.15047 0.60218 0.0
C2788 C 0.30165 0.15489 0.58765 0.0
C2789 C 0.30072 0.15675 0.56418 0.0
C2790 C 0.26085 0.15668 0.58979 0.0
C2791 C 0.27969 0.15987 0.55413 0.0
C2792 C 0.22066 0.14392 0.59032 0.0
C2793 C 0.22586 0.13246 0.6352 0.0
N2794 N 0.26046 0.15925 0.56697 0.0
N2795 N 0.24132 0.14557 0.62453 0.0
H2796 H 0.01257 0.27756 0.60436 0.0
H2797 H 0.92289 0.23123 0.52119 0.0
H2798 H 0.93995 0.27827 0.61375 0.0
H2799 H 0.97204 0.27634 0.49235 0.0
H2800 H 0.94283 0.23254 0.55676 0.0
H2801 H 1.00763 0.26871 0.56417 0.0
C2802 C 0.99558 0.27684 0.59785 0.0
C2803 C 0.97656 0.27774 0.61258 0.0
C2804 C 0.94973 0.24158 0.54236 0.0
C2805 C 0.97116 0.26669 0.56746 0.0
C2806 C 0.93874 0.24032 0.52184 0.0
C2807 C 0.94445 0.2559 0.50507 0.0
C2808 C 0.96711 0.25741 0.54494 0.0
C2809 C 0.96595 0.26587 0.50605 0.0
C2810 C 0.9929 0.27125 0.57509 0.0
C2811 C 0.95506 0.27709 0.60314 0.0
N2812 N 0.9759 0.26794 0.52645 0.0
N2813 N 0.95292 0.27076 0.58129 0.0
H2814 H 0.77654 0.03054 0.60384 0.0
H2815 H 0.80156 0.90906 0.55169 0.0
H2816 H 0.78472 0.9694 0.64207 0.0
H2817 H 0.76802 0.96031 0.51312 0.0
H2818 H 0.80546 0.93605 0.5826 0.0
H2819 H 0.7772 1.00806 0.56898 0.0
C2820 C 0.7775 0.01232 0.60498 0.0
C2821 C 0.78136 1.00189 0.62582 0.0
C2822 C 0.79764 0.94151 0.56717 0.0
C2823 C 0.78306 0.97644 0.58624 0.0
C2824 C 0.79599 0.92631 0.54929 0.0
C2825 C 0.78337 0.93217 0.53043 0.0
C2826 C 0.78698 0.96266 0.56575 0.0
C2827 C 0.77709 0.9549 0.52786 0.0
C2828 C 0.77843 0.99961 0.58507 0.0
C2829 C 0.78229 0.97825 0.62637 0.0
N2830 N 0.77817 0.96924 0.54578 0.0
N2831 N 0.78383 0.96636 0.60678 0.0
H2832 H 0.45888 0.98129 0.28173 0.0
H2833 H 0.43603 0.10038 0.32002 0.0
H2834 H 0.39615 1.00449 0.31212 0.0
H2835 H 0.49711 0.07447 0.28788 0.0
H2836 H 0.4267 0.06242 0.33235 0.0
H2837 H 0.47925 1.00781 0.305 0.0
C2838 C 0.44942 0.99107 0.29426 0.0
C2839 C 0.42577 0.99235 0.29378 0.0
C2840 C 0.44221 0.06502 0.32269 0.0
C2841 C 0.44857 0.02359 0.31863 0.0
C2842 C 0.44721 0.08658 0.31507 0.0
C2843 C 0.467 0.09044 0.30225 0.0
C2844 C 0.45673 0.04699 0.31686 0.0
C2845 C 0.48129 0.07212 0.29708 0.0
C2846 C 0.46107 1.00654 0.30737 0.0
C2847 C 0.41446 1.00446 0.31092 0.0
N2848 N 0.47574 0.05115 0.30422 0.0
N2849 N 0.42592 0.02066 0.32209 0.0
H2850 H 0.02039 0.44308 0.31147 0.0
H2851 H 0.88799 0.43102 0.30343 0.0
H2852 H 0.98958 0.37841 0.32173 0.0
H2853 H 0.932 0.4734 0.26323 0.0
H2854 H 0.92141 0.41431 0.32085 0.0
H2855 H 0.98299 0.46053 0.312 0.0
C2856 C 1.0058 0.43261 0.3152 0.0
C2857 C 1.00732 0.40909 0.31326 0.0
C2858 C 0.92357 0.42718 0.3081 0.0
C2859 C 0.96533 0.42849 0.3144 0.0
C2860 C 0.90465 0.43624 0.29765 0.0
C2861 C 0.90725 0.45422 0.28244 0.0
C2862 C 0.9449 0.43627 0.30314 0.0
C2863 C 0.92919 0.46001 0.2753 0.0
C2864 C 0.98442 0.44254 0.31487 0.0
C2865 C 0.98847 0.39662 0.32064 0.0
N2866 N 0.94719 0.45156 0.28624 0.0
N2867 N 0.96765 0.40618 0.31914 0.0
H2868 H 0.67667 0.91251 0.23199 0.0
H2869 H 0.58987 0.8744 0.2816 0.0
H2870 H 0.66396 0.95349 0.29138 0.0
H2871 H 0.62178 0.87765 0.34631 0.0
H2872 H 0.62682 0.87782 0.26312 0.0
H2873 H 0.66904 0.87862 0.25432 0.0
C2874 C 0.67311 0.91427 0.24993 0.0
C2875 C 0.66954 0.93559 0.25982 0.0
C2876 C 0.62602 0.87677 0.28138 0.0
C2877 C 0.66131 0.89745 0.28506 0.0
C2878 C 0.60485 0.87529 0.29183 0.0
C2879 C 0.60304 0.87687 0.31529 0.0
C2880 C 0.64499 0.88154 0.29457 0.0
C2881 C 0.62272 0.87723 0.32803 0.0
C2882 C 0.66905 0.89497 0.26264 0.0
C2883 C 0.66568 0.93721 0.28307 0.0
N2884 N 0.64298 0.88066 0.31748 0.0
N2885 N 0.66119 0.91827 0.29494 0.0
H2886 H 1.00032 0.60453 0.28994 0.0
H2887 H 0.07476 0.56356 0.23119 0.0
H2888 H 0.06869 0.59644 0.31193 0.0
H2889 H 0.08071 0.50422 0.27208 0.0
H2890 H 0.03717 0.56976 0.24711 0.0
H2891 H 0.99901 0.56418 0.28101 0.0
C2892 C 0.01463 0.59407 0.29426 0.0
C2893 C 0.03567 0.60394 0.29892 0.0
C2894 C 0.04604 0.55451 0.25166 0.0
C2895 C 0.0337 0.55829 0.29024 0.0
C2896 C 0.06766 0.55096 0.2424 0.0
C2897 C 0.08158 0.53454 0.25181 0.0
C2898 C 0.03978 0.54296 0.27149 0.0
C2899 C 0.07109 0.51835 0.26575 0.0
C2900 C 0.01373 0.571 0.28917 0.0
C2901 C 0.05275 0.5896 0.30638 0.0
N2902 N 0.05137 0.52389 0.27667 0.0
N2903 N 0.05183 0.56739 0.30082 0.0
H2904 H 0.40015 1.00061 0.72839 0.0
H2905 H 0.43984 0.90849 0.67725 0.0
H2906 H 0.34667 0.96027 0.75762 0.0
H2907 H 0.42518 0.8893 0.74614 0.0
H2908 H 0.40704 0.93382 0.6785 0.0
H2909 H 0.41059 0.96892 0.70369 0.0
C2910 C 0.39009 0.98538 0.72896 0.0
C2911 C 0.37324 0.98252 0.74555 0.0
C2912 C 0.41055 0.92336 0.69296 0.0
C2913 C 0.38514 0.94643 0.71794 0.0
C2914 C 0.42924 0.90903 0.69239 0.0
C2915 C 0.43555 0.89763 0.71201 0.0
C2916 C 0.39822 0.92593 0.71321 0.0
C2917 C 0.42114 0.89841 0.73095 0.0
C2918 C 0.39586 0.96736 0.71474 0.0
C2919 C 0.36036 0.9627 0.74547 0.0
N2920 N 0.40324 0.9128 0.73124 0.0
N2921 N 0.36723 0.94492 0.73255 0.0
H2922 H 0.06845 0.37897 0.76448 0.0
H2923 H 0.10576 0.50537 0.78297 0.0
H2924 H 0.02381 0.43638 0.75948 0.0
H2925 H 0.15442 0.4526 0.76788 0.0
H2926 H 0.07541 0.47803 0.77941 0.0
H2927 H 0.10081 0.40436 0.76385 0.0
C2928 C 0.06551 0.39686 0.7621 0.0
C2929 C 0.04354 0.40587 0.76359 0.0
C2930 C 0.09277 0.47238 0.77711 0.0
C2931 C 0.07999 0.43469 0.76356 0.0
C2932 C 0.11012 0.48782 0.77983 0.0
C2933 C 0.13245 0.48134 0.77465 0.0
C2934 C 0.09803 0.45036 0.76977 0.0
C2935 C 0.13725 0.45834 0.77128 0.0
C2936 C 0.08396 0.41136 0.76233 0.0
C2937 C 0.04058 0.42893 0.75953 0.0
N2938 N 0.12005 0.44365 0.76821 0.0
N2939 N 0.05866 0.4428 0.76073 0.0
H2940 H 0.58377 1.00796 0.75576 0.0
H2941 H 0.54817 0.0795 0.80865 0.0
H2942 H 0.5758 0.07678 0.73511 0.0
H2943 H 0.49011 0.09283 0.768 0.0
H2944 H 0.54571 0.03995 0.79812 0.0
H2945 H 0.54278 1.00548 0.76229 0.0
C2946 C 0.57327 0.0222 0.75135 0.0
C2947 C 0.58297 0.04356 0.74783 0.0
C2948 C 0.53271 0.05127 0.79219 0.0
C2949 C 0.53688 0.04039 0.7538 0.0
C2950 C 0.53423 0.07402 0.79838 0.0
C2951 C 0.52064 0.08982 0.78756 0.0
C2952 C 0.52089 0.04597 0.77239 0.0
C2953 C 0.50243 0.08144 0.77505 0.0
C2954 C 0.54987 0.02062 0.75496 0.0
C2955 C 0.56891 0.06057 0.73993 0.0
N2956 N 0.50365 0.06001 0.76672 0.0
N2957 N 0.54633 0.0589 0.74393 0.0
H2958 H 0.92367 0.67636 0.79396 0.0
H2959 H 0.87032 0.60358 0.74231 0.0
H2960 H 0.97045 0.64417 0.74697 0.0
H2961 H 0.90459 0.61931 0.67954 0.0
H2962 H 0.87863 0.64123 0.75617 0.0
H2963 H 0.89542 0.67798 0.76431 0.0
C2964 C 0.92814 0.6701 0.77722 0.0
C2965 C 0.94872 0.65878 0.77303 0.0
C2966 C 0.88355 0.637 0.73894 0.0
C2967 C 0.91695 0.6609 0.73946 0.0
C2968 C 0.87907 0.61528 0.73124 0.0
C2969 C 0.88835 0.60808 0.71056 0.0
C2970 C 0.89889 0.65044 0.72652 0.0
C2971 C 0.89847 0.62401 0.69628 0.0
C2972 C 0.91216 0.67137 0.76031 0.0
C2973 C 0.95422 0.65189 0.75105 0.0
N2974 N 0.90436 0.64436 0.70488 0.0
N2975 N 0.93816 0.65264 0.73509 0.0
H2976 H 0.22127 0.42537 0.11977 0.0
H2977 H 0.29635 0.53508 0.09898 0.0
H2978 H 0.26626 0.43562 0.0625 0.0
H2979 H 0.27105 0.51603 0.1649 0.0
H2980 H 0.27486 0.50419 0.08236 0.0
H2981 H 0.23188 0.46259 0.1345 0.0
C2982 C 0.23368 0.4353 0.11056 0.0
C2983 C 0.24317 0.42742 0.0901 0.0
C2984 C 0.27354 0.50716 0.1004 0.0
C2985 C 0.25449 0.47003 0.10618 0.0
C2986 C 0.28546 0.52501 0.10982 0.0
C2987 C 0.2857 0.52762 0.13332 0.0
C2988 C 0.26191 0.49212 0.11468 0.0
C2989 C 0.27142 0.51417 0.14669 0.0
C2990 C 0.23943 0.45659 0.11875 0.0
C2991 C 0.25882 0.44099 0.07852 0.0
N2992 N 0.26043 0.49657 0.13723 0.0
N2993 N 0.26391 0.46173 0.08667 0.0
H2994 H 0.2018 0.60175 0.91142 0.0
H2995 H 0.32433 0.60443 0.85724 0.0
H2996 H 0.24521 0.66001 0.90924 0.0
H2997 H 0.29062 0.5472 0.88677 0.0
H2998 H 0.28819 0.62506 0.85804 0.0
H2999 H 0.22609 0.58342 0.88273 0.0
C3000 C 0.21586 0.61106 0.90413 0.0
C3001 C 0.22224 0.63192 0.91316 0.0
C3002 C 0.28867 0.60775 0.86379 0.0
C3003 C 0.2499 0.6112 0.88092 0.0
C3004 C 0.30923 0.59611 0.86359 0.0
C3005 C 0.31043 0.5745 0.87293 0.0
C3006 C 0.26933 0.59747 0.87317 0.0
C3007 C 0.29046 0.56416 0.88036 0.0
C3008 C 0.22973 0.6006 0.88785 0.0
C3009 C 0.24033 0.64351 0.90309 0.0
N3010 N 0.27072 0.57585 0.88062 0.0
N3011 N 0.25399 0.63272 0.88784 0.0
H3012 H 0.36697 0.20625 0.93195 0.0
H3013 H 0.4406 0.26151 0.88107 0.0
H3014 H 0.36131 0.26988 0.96736 0.0
H3015 H 0.40608 0.32389 0.89756 0.0
H3016 H 0.40529 0.24138 0.88614 0.0
H3017 H 0.37085 0.22659 0.89624 0.0
C3018 C 0.36606 0.22452 0.93208 0.0
C3019 C 0.36556 0.23668 0.95245 0.0
C3020 C 0.40498 0.25957 0.88789 0.0
C3021 C 0.37058 0.25968 0.91238 0.0
C3022 C 0.42537 0.27097 0.88543 0.0
C3023 C 0.42631 0.29399 0.89055 0.0
C3024 C 0.38582 0.27129 0.89643 0.0
C3025 C 0.40612 0.30579 0.89486 0.0
C3026 C 0.36821 0.23609 0.91176 0.0
C3027 C 0.36318 0.26008 0.95193 0.0
N3028 N 0.38669 0.29418 0.89837 0.0
N3029 N 0.36631 0.27095 0.93213 0.0
H3030 H 0.80711 0.36581 0.94558 0.0
H3031 H 0.80012 0.46479 0.86915 0.0
H3032 H 0.85904 0.41578 0.93572 0.0
H3033 H 0.74894 0.41398 0.87881 0.0
H3034 H 0.82923 0.43665 0.87642 0.0
H3035 H 0.79563 0.37085 0.90666 0.0
C3036 C 0.8163 0.37762 0.93499 0.0
C3037 C 0.83302 0.39148 0.94396 0.0
C3038 C 0.81169 0.43141 0.87633 0.0
C3039 C 0.81949 0.39803 0.90007 0.0
C3040 C 0.79509 0.44754 0.8724 0.0
C3041 C 0.77223 0.44181 0.87493 0.0
C3042 C 0.80513 0.40991 0.88381 0.0
C3043 C 0.76647 0.41919 0.87794 0.0
C3044 C 0.80993 0.38036 0.91272 0.0
C3045 C 0.84528 0.40562 0.92951 0.0
N3046 N 0.78285 0.40408 0.88301 0.0
N3047 N 0.83773 0.40917 0.90835 0.0
H3048 H 0.6495 0.82393 0.94966 0.0
H3049 H 0.52265 0.78538 0.96567 0.0
H3050 H 0.6212 0.78957 1.00763 0.0
H3051 H 0.55113 0.80566 0.9016 0.0
H3052 H 0.5551 0.80162 0.98448 0.0
H3053 H 0.61209 0.82495 0.93314 0.0
C3054 C 0.63561 0.81574 0.95852 0.0
C3055 C 0.63829 0.80704 0.9803 0.0
C3056 C 0.55397 0.8031 0.96631 0.0
C3057 C 0.59549 0.80917 0.96201 0.0
C3058 C 0.53513 0.79439 0.9556 0.0
C3059 C 0.53572 0.79234 0.93204 0.0
C3060 C 0.57256 0.81006 0.95298 0.0
C3061 C 0.55124 0.80553 0.91989 0.0
C3062 C 0.61414 0.81702 0.9494 0.0
C3063 C 0.61975 0.79656 0.99087 0.0
N3064 N 0.57005 0.81275 0.93038 0.0
N3065 N 0.59896 0.79838 0.98185 0.0
H3066 H 0.82647 0.67126 0.11443 0.0
H3067 H 0.69994 0.62879 0.11413 0.0
H3068 H 0.7857 0.65952 0.05603 0.0
H3069 H 0.75022 0.60714 0.16124 0.0
H3070 H 0.72536 0.65893 0.1016 0.0
H3071 H 0.79272 0.66586 0.13873 0.0
C3072 C 0.8103 0.66802 0.10676 0.0
C3073 C 0.80876 0.66485 0.0834 0.0
C3074 C 0.73042 0.64809 0.11529 0.0
C3075 C 0.7705 0.65964 0.11064 0.0
C3076 C 0.71601 0.63091 0.12238 0.0
C3077 C 0.72358 0.61512 0.13801 0.0
C3078 C 0.75231 0.64921 0.12399 0.0
C3079 C 0.74425 0.61868 0.14855 0.0
C3080 C 0.79114 0.66516 0.12055 0.0
C3081 C 0.78758 0.66114 0.07406 0.0
N3082 N 0.75824 0.63514 0.14096 0.0
N3083 N 0.76923 0.65837 0.08775 0.0
H3084 H 0.40973 0.8093 0.10155 0.0
H3085 H 0.54006 0.79132 0.11608 0.0
H3086 H 0.4569 0.78251 0.05151 0.0
H3087 H 0.4936 0.80624 0.17112 0.0
H3088 H 0.51244 0.8055 0.0897 0.0
H3089 H 0.44157 0.82004 0.125 0.0
C3090 C 0.42678 0.80522 0.09576 0.0
C3091 C 0.43073 0.79463 0.07479 0.0
C3092 C 0.50854 0.80644 0.10763 0.0
C3093 C 0.4671 0.80777 0.10093 0.0
C3094 C 0.52452 0.79876 0.12277 0.0
C3095 C 0.51805 0.7959 0.14543 0.0
C3096 C 0.48652 0.81128 0.11571 0.0
C3097 C 0.49841 0.80687 0.15339 0.0
C3098 C 0.44491 0.81185 0.10886 0.0
C3099 C 0.4531 0.79022 0.06778 0.0
N3100 N 0.48259 0.81305 0.13837 0.0
N3101 N 0.47046 0.79683 0.08084 0.0
H3102 H 0.63855 0.25195 0.13721 0.0
H3103 H 0.55027 0.24145 0.18901 0.0
H3104 H 0.63877 0.18367 0.11175 0.0
H3105 H 0.54533 0.22488 0.11832 0.0
H3106 H 0.58235 0.21567 0.19175 0.0
H3107 H 0.61099 0.24108 0.1661 0.0
C3108 C 0.63361 0.23441 0.13847 0.0
C3109 C 0.64016 0.21887 0.12181 0.0
C3110 C 0.57335 0.21656 0.17601 0.0
C3111 C 0.6073 0.20682 0.15316 0.0
C3112 C 0.55523 0.23148 0.1743 0.0
C3113 C 0.54652 0.23636 0.15297 0.0
C3114 C 0.58266 0.20716 0.15616 0.0
C3115 C 0.55259 0.2224 0.13477 0.0
C3116 C 0.6179 0.22803 0.15501 0.0
C3117 C 0.63343 0.19628 0.1241 0.0
N3118 N 0.57094 0.20874 0.1366 0.0
N3119 N 0.61626 0.19114 0.13867 0.0
H3120 H 0.97395 0.77351 0.65672 0.0
H3121 H 0.88411 0.71639 0.60688 0.0
H3122 H 0.94747 0.83155 0.62214 0.0
H3123 H 0.89543 0.76614 0.55512 0.0
H3124 H 0.90636 0.73932 0.63299 0.0
H3125 H 0.94446 0.75022 0.63948 0.0
C3126 C 0.96177 0.7813 0.64574 0.0
C3127 C 0.96302 0.80429 0.64067 0.0
C3128 C 0.90381 0.74519 0.61595 0.0
C3129 C 0.92948 0.77833 0.62151 0.0
C3130 C 0.89092 0.73237 0.60122 0.0
C3131 C 0.88836 0.73948 0.57889 0.0
C3132 C 0.91375 0.76517 0.6081 0.0
C3133 C 0.89739 0.76013 0.57218 0.0
C3134 C 0.94484 0.76817 0.6362 0.0
C3135 C 0.94703 0.81381 0.6264 0.0
N3136 N 0.90981 0.7723 0.58677 0.0
N3137 N 0.93106 0.80069 0.61708 0.0
H3138 H 0.22436 0.01279 0.57874 0.0
H3139 H 0.33434 0.94493 0.60944 0.0
H3140 H 0.25327 0.01904 0.64469 0.0
H3141 H 0.27687 0.92078 0.57275 0.0
H3142 H 0.31552 0.98172 0.61407 0.0
H3143 H 0.25797 0.9921 0.56567 0.0
C3144 C 0.2384 0.01084 0.59008 0.0
C3145 C 0.23608 0.01678 0.61287 0.0
C3146 C 0.30732 0.96837 0.60473 0.0
C3147 C 0.27355 0.99266 0.59853 0.0
C3148 C 0.31772 0.94734 0.60242 0.0
C3149 C 0.30709 0.92996 0.59037 0.0
C3150 C 0.28644 0.97191 0.59464 0.0
C3151 C 0.28569 0.93387 0.58169 0.0
C3152 C 0.2574 0.9989 0.58272 0.0
C3153 C 0.25455 0.01419 0.62704 0.0
N3154 N 0.2761 0.95455 0.58382 0.0
N3155 N 0.27242 1.00141 0.61985 0.0
H3156 H 0.03414 0.23739 0.61908 0.0
H3157 H 0.15171 0.29416 0.61662 0.0
H3158 H 0.0774 0.22681 0.67603 0.0
H3159 H 0.12303 0.26324 0.55756 0.0
H3160 H 0.12568 0.27212 0.64048 0.0
H3161 H 0.0662 0.25238 0.59785 0.0
C3162 C 0.05035 0.23852 0.62723 0.0
C3163 C 0.05328 0.23079 0.64926 0.0
C3164 C 0.12561 0.26978 0.62233 0.0
C3165 C 0.08996 0.24758 0.62498 0.0
C3166 C 0.14043 0.28221 0.60876 0.0
C3167 C 0.13899 0.28077 0.58519 0.0
C3168 C 0.10926 0.25635 0.61201 0.0
C3169 C 0.1243 0.26507 0.5757 0.0
C3170 C 0.06868 0.24674 0.61499 0.0
C3171 C 0.07463 0.2326 0.65901 0.0
N3172 N 0.10953 0.25381 0.58917 0.0
N3173 N 0.09234 0.24095 0.64676 0.0
H3174 H 0.84156 0.11901 0.6187 0.0
H3175 H 0.77506 0.11317 0.53559 0.0
H3176 H 0.77218 0.1392 0.63053 0.0
H3177 H 0.76473 0.18516 0.53854 0.0
H3178 H 0.80807 0.11763 0.55927 0.0
H3179 H 0.84256 0.14135 0.58417 0.0
C3180 C 0.82703 0.12943 0.61483 0.0
C3181 C 0.80645 0.12688 0.62678 0.0
C3182 C 0.79936 0.13267 0.55368 0.0
C3183 C 0.80781 0.15251 0.58815 0.0
C3184 C 0.7804 0.12999 0.54034 0.0
C3185 C 0.76684 0.14869 0.53597 0.0
C3186 C 0.80308 0.15371 0.56416 0.0
C3187 C 0.77447 0.17022 0.54226 0.0
C3188 C 0.82774 0.14219 0.59521 0.0
C3189 C 0.78813 0.14046 0.62131 0.0
N3190 N 0.79147 0.17209 0.55715 0.0
N3191 N 0.78911 0.15254 0.602 0.0
H3192 H 0.93869 0.21355 0.38672 0.0
H3193 H 0.93134 0.34252 0.42329 0.0
H3194 H 0.99555 0.25677 0.39963 0.0
H3195 H 0.88675 0.2912 0.4498 0.0
H3196 H 0.9476 0.31468 0.39676 0.0
H3197 H 0.91318 0.24609 0.39282 0.0
C3198 C 0.94577 0.22999 0.39035 0.0
C3199 C 0.96904 0.23264 0.39338 0.0
C3200 C 0.93376 0.3098 0.40795 0.0
C3201 C 0.94052 0.26942 0.39932 0.0
C3202 C 0.92463 0.32553 0.4231 0.0
C3203 C 0.90833 0.31873 0.43904 0.0
C3204 C 0.92632 0.28739 0.40887 0.0
C3205 C 0.89982 0.29675 0.43805 0.0
C3206 C 0.93132 0.24841 0.39364 0.0
C3207 C 0.97763 0.25409 0.39779 0.0
N3208 N 0.90923 0.28162 0.42338 0.0
N3209 N 0.96331 0.27174 0.4008 0.0
H3210 H 0.73851 0.96548 0.38775 0.0
H3211 H 0.73456 0.87561 0.4633 0.0
H3212 H 0.78347 0.90886 0.37659 0.0
H3213 H 0.67269 0.90978 0.4461 0.0
H3214 H 0.74763 0.87891 0.42419 0.0
H3215 H 0.70827 0.93953 0.39776 0.0
C3216 C 0.74176 0.94747 0.3869 0.0
C3217 C 0.76357 0.93914 0.38277 0.0
C3218 C 0.73084 0.88504 0.42872 0.0
C3219 C 0.72978 0.90958 0.39522 0.0
C3220 C 0.72361 0.88348 0.45115 0.0
C3221 C 0.7032 0.89362 0.45798 0.0
C3222 C 0.71788 0.89759 0.41351 0.0
C3223 C 0.68912 0.90276 0.44158 0.0
C3224 C 0.72449 0.93256 0.39239 0.0
C3225 C 0.76693 0.9158 0.38082 0.0
N3226 N 0.69699 0.9051 0.42013 0.0
N3227 N 0.75037 0.90168 0.38801 0.0
H3228 H 0.0631 0.79333 0.42054 0.0
H3229 H 0.09849 0.75362 0.52026 0.0
H3230 H 0.09118 0.85755 0.43987 0.0
H3231 H 0.15825 0.78918 0.4977 0.0
H3232 H 0.07525 0.7799 0.49909 0.0
H3233 H 0.07768 0.77699 0.45536 0.0
C3234 C 0.07208 0.80395 0.43223 0.0
C3235 C 0.07553 0.82677 0.42772 0.0
C3236 C 0.09339 0.78237 0.49954 0.0
C3237 C 0.09227 0.80852 0.46701 0.0
C3238 C 0.10666 0.7676 0.51178 0.0
C3239 C 0.13031 0.76881 0.50976 0.0
C3240 C 0.10407 0.79845 0.48584 0.0
C3241 C 0.14003 0.78746 0.499 0.0
C3242 C 0.08014 0.79479 0.45211 0.0
C3243 C 0.08804 0.83983 0.4429 0.0
N3244 N 0.12683 0.80137 0.48681 0.0
N3245 N 0.0963 0.83041 0.46181 0.0
H3246 H 0.30197 0.12464 0.43043 0.0
H3247 H 0.2408 1.00882 0.43968 0.0
H3248 H 0.27338 0.09761 0.49211 0.0
H3249 H 0.27124 0.03377 0.3783 0.0
H3250 H 0.26445 0.03411 0.46139 0.0
H3251 H 0.29878 0.08756 0.41272 0.0
C3252 C 0.29459 0.11096 0.44009 0.0
C3253 C 0.28745 0.11423 0.46258 0.0
C3254 C 0.26671 0.03351 0.4432 0.0
C3255 C 0.28445 0.07162 0.44272 0.0
C3256 C 0.25361 0.0186 0.43083 0.0
C3257 C 0.25341 0.02029 0.40729 0.0
C3258 C 0.27938 0.04991 0.43161 0.0
C3259 C 0.27046 0.03275 0.39656 0.0
C3260 C 0.29324 0.08969 0.43015 0.0
C3261 C 0.27859 0.09587 0.47455 0.0
N3262 N 0.28208 0.04811 0.40877 0.0
N3263 N 0.27722 0.07534 0.46442 0.0
H3264 H 0.58186 0.01177 0.80109 0.0
H3265 H 0.57289 0.87912 0.78096 0.0
H3266 H 0.63536 0.96422 0.81367 0.0
H3267 H 0.52351 0.92685 0.75724 0.0
H3268 H 0.59176 0.90971 0.80079 0.0
H3269 H 0.55749 0.98063 0.7899 0.0
C3270 C 0.58876 0.99486 0.80056 0.0
C3271 C 0.6108 0.99049 0.80749 0.0
C3272 C 0.57655 0.91342 0.79158 0.0
C3273 C 0.58298 0.95488 0.79551 0.0
C3274 C 0.5656 0.89593 0.78055 0.0
C3275 C 0.54717 0.90071 0.76684 0.0
C3276 C 0.56888 0.93566 0.7888 0.0
C3277 C 0.53807 0.92261 0.7672 0.0
C3278 C 0.57475 0.97708 0.79455 0.0
C3279 C 0.61864 0.9682 0.80761 0.0
N3280 N 0.5494 0.93949 0.77754 0.0
N3281 N 0.60473 0.95114 0.80167 0.0
H3282 H 0.04234 0.64328 0.78395 0.0
H3283 H 0.14886 0.56116 0.76046 0.0
H3284 H 0.07237 0.60047 0.83391 0.0
H3285 H 0.11578 0.59781 0.70771 0.0
H3286 H 0.121 0.57627 0.78776 0.0
H3287 H 0.06883 0.62727 0.75536 0.0
C3288 C 0.05438 0.63046 0.78882 0.0
C3289 C 0.05539 0.62333 0.81128 0.0
C3290 C 0.1198 0.58103 0.7702 0.0
C3291 C 0.0856 0.60515 0.77905 0.0
C3292 C 0.13571 0.57239 0.75467 0.0
C3293 C 0.1345 0.57819 0.73189 0.0
C3294 C 0.10265 0.59568 0.76287 0.0
C3295 C 0.11729 0.59299 0.72521 0.0
C3296 C 0.06951 0.62138 0.7726 0.0
C3297 C 0.07121 0.60664 0.81681 0.0
N3298 N 0.10201 0.60124 0.74064 0.0
N3299 N 0.08572 0.59823 0.80087 0.0
H3300 H 0.37802 0.0621 0.76598 0.0
H3301 H 0.4792 0.15032 0.76299 0.0
H3302 H 0.38661 0.11218 0.81819 0.0
H3303 H 0.46246 0.10541 0.70819 0.0
H3304 H 0.44457 0.13832 0.7833 0.0
H3305 H 0.4069 0.08077 0.74304 0.0
C3306 C 0.38559 0.0775 0.77222 0.0
C3307 C 0.38003 0.08581 0.79372 0.0
C3308 C 0.4485 0.13122 0.76678 0.0
C3309 C 0.41379 0.10664 0.76833 0.0
C3310 C 0.46833 0.13782 0.75541 0.0
C3311 C 0.47363 0.12858 0.73411 0.0
C3312 C 0.43415 0.11538 0.75663 0.0
C3313 C 0.45892 0.11286 0.72465 0.0
C3314 C 0.40223 0.08805 0.75931 0.0
C3315 C 0.39041 0.10556 0.80144 0.0
N3316 N 0.4399 0.10672 0.73599 0.0
N3317 N 0.40722 0.11515 0.78887 0.0
H3318 H 0.93268 0.43053 0.85178 0.0
H3319 H 0.87736 0.48972 0.76664 0.0
H3320 H 0.96812 0.40336 0.79324 0.0
H3321 H 0.9441 0.4939 0.73632 0.0
H3322 H 0.89291 0.46732 0.79734 0.0
H3323 H 0.91851 0.46145 0.82872 0.0
C3324 C 0.93738 0.43102 0.83402 0.0
C3325 C 0.95169 0.41449 0.8243 0.0
C3326 C 0.90428 0.47386 0.78442 0.0
C3327 C 0.9359 0.44984 0.79817 0.0
C3328 C 0.89545 0.48672 0.76706 0.0
C3329 C 0.90957 0.49375 0.74924 0.0
C3330 C 0.9272 0.46756 0.78342 0.0
C3331 C 0.93279 0.489 0.75002 0.0
C3332 C 0.92938 0.44869 0.82098 0.0
C3333 C 0.95743 0.41599 0.80134 0.0
N3334 N 0.94083 0.47557 0.76654 0.0
N3335 N 0.94964 0.43353 0.78901 0.0
H3336 H 0.61271 0.0299 0.24694 0.0
H3337 H 0.59951 0.14631 0.31518 0.0
H3338 H 0.6663 0.07831 0.25526 0.0
H3339 H 0.54297 0.10252 0.30274 0.0
H3340 H 0.62408 0.12087 0.29351 0.0
H3341 H 0.58719 0.05461 0.26908 0.0
C3342 C 0.61923 0.04551 0.25382 0.0
C3343 C 0.64162 0.05219 0.24921 0.0
C3344 C 0.60628 0.11682 0.29523 0.0
C3345 C 0.61249 0.08059 0.27409 0.0
C3346 C 0.59222 0.13145 0.30747 0.0
C3347 C 0.56923 0.12653 0.31051 0.0
C3348 C 0.59738 0.09688 0.28615 0.0
C3349 C 0.56059 0.10702 0.30039 0.0
C3350 C 0.60458 0.05971 0.26621 0.0
C3351 C 0.64915 0.0726 0.25837 0.0
N3352 N 0.57477 0.09271 0.28875 0.0
N3353 N 0.63458 0.08612 0.27024 0.0
H3354 H 1.00277 0.60799 0.24706 0.0
H3355 H 0.87461 0.6018 0.27865 0.0
H3356 H 0.95499 0.65315 0.21663 0.0
H3357 H 0.91663 0.54211 0.27713 0.0
H3358 H 0.90299 0.62131 0.25563 0.0
H3359 H 0.97134 0.58451 0.26019 0.0
C3360 C 0.98569 0.61321 0.24355 0.0
C3361 C 0.98137 0.63265 0.23109 0.0
C3362 C 0.90577 0.60377 0.25987 0.0
C3363 C 0.94557 0.60584 0.24569 0.0
C3364 C 0.88956 0.59262 0.27285 0.0
C3365 C 0.8936 0.57053 0.28001 0.0
C3366 C 0.92632 0.59286 0.25466 0.0
C3367 C 0.91311 0.55927 0.27216 0.0
C3368 C 0.96782 0.59959 0.25067 0.0
C3369 C 0.95891 0.63833 0.22644 0.0
N3370 N 0.92917 0.5708 0.26036 0.0
N3371 N 0.94175 0.62508 0.23395 0.0
H3372 H 0.44396 0.93277 0.19676 0.0
H3373 H 0.4664 0.93812 0.3244 0.0
H3374 H 0.3908 0.94066 0.2472 0.0
H3375 H 0.50144 0.8846 0.288 0.0
H3376 H 0.44287 0.94422 0.29208 0.0
H3377 H 0.46898 0.91782 0.22594 0.0
C3378 C 0.43738 0.93066 0.21381 0.0
C3379 C 0.41554 0.93824 0.2199 0.0
C3380 C 0.45607 0.93153 0.29092 0.0
C3381 C 0.44376 0.92162 0.25277 0.0
C3382 C 0.46955 0.92802 0.30932 0.0
C3383 C 0.48555 0.91055 0.30894 0.0
C3384 C 0.45919 0.91823 0.27153 0.0
C3385 C 0.48914 0.89819 0.28885 0.0
C3386 C 0.45163 0.92219 0.23033 0.0
C3387 C 0.40768 0.93528 0.24204 0.0
N3388 N 0.47593 0.9023 0.27067 0.0
N3389 N 0.42195 0.92757 0.25782 0.0
H3390 H 0.11025 0.40246 0.21153 0.0
H3391 H 0.14831 0.49525 0.27097 0.0
H3392 H 0.07204 0.38929 0.27265 0.0
H3393 H 0.1184 0.46333 0.32953 0.0
H3394 H 0.14056 0.46131 0.24876 0.0
H3395 H 0.13482 0.42784 0.23268 0.0
C3396 C 0.10762 0.40438 0.2296 0.0
C3397 C 0.08914 0.39418 0.24052 0.0
C3398 C 0.13616 0.46143 0.26656 0.0
C3399 C 0.11608 0.42374 0.26447 0.0
C3400 C 0.1402 0.48103 0.27911 0.0
C3401 C 0.13324 0.48227 0.30182 0.0
C3402 C 0.12536 0.44302 0.27708 0.0
C3403 C 0.1236 0.46322 0.3119 0.0
C3404 C 0.12131 0.41921 0.2416 0.0
C3405 C 0.08609 0.39713 0.26375 0.0
N3406 N 0.11975 0.44451 0.29941 0.0
N3407 N 0.09925 0.41191 0.27492 0.0
H3408 H 0.76239 0.59956 0.01121 0.0
H3409 H 0.76669 0.57917 0.87831 0.0
H3410 H 0.76521 0.65266 0.96176 0.0
H3411 H 0.75517 0.52577 0.9263 0.0
H3412 H 0.77147 0.60556 0.90951 0.0
H3413 H 0.75895 0.57191 0.98078 0.0
C3414 C 0.76136 0.60548 0.99399 0.0
C3415 C 0.76487 0.62826 0.98881 0.0
C3416 C 0.76816 0.588 0.91323 0.0
C3417 C 0.7619 0.5969 0.95416 0.0
C3418 C 0.76598 0.57283 0.89542 0.0
C3419 C 0.75935 0.5506 0.89984 0.0
C3420 C 0.76402 0.58062 0.93539 0.0
C3421 C 0.75938 0.54306 0.92224 0.0
C3422 C 0.75995 0.58965 0.97661 0.0
C3423 C 0.76308 0.63512 0.96634 0.0
N3424 N 0.76091 0.55825 0.93933 0.0
N3425 N 0.76234 0.61938 0.9497 0.0
H3426 H 0.81009 0.4576 0.03142 0.0
H3427 H 0.75321 0.47587 0.14418 0.0
H3428 H 0.77283 0.40481 0.06472 0.0
H3429 H 0.73431 0.52575 0.09508 0.0
H3430 H 0.76978 0.45292 0.11378 0.0
H3431 H 0.78589 0.48576 0.05037 0.0
C3432 C 0.79589 0.45192 0.04163 0.0
C3433 C 0.79376 0.42912 0.04734 0.0
C3434 C 0.76207 0.469 0.10978 0.0
C3435 C 0.767 0.46069 0.06924 0.0
C3436 C 0.75315 0.48231 0.1271 0.0
C3437 C 0.74153 0.50216 0.12192 0.0
C3438 C 0.75984 0.47598 0.08738 0.0
C3439 C 0.74248 0.51008 0.09958 0.0
C3440 C 0.78231 0.46798 0.0526 0.0
C3441 C 0.7751 0.4224 0.06035 0.0
N3442 N 0.75117 0.49668 0.08283 0.0
N3443 N 0.76292 0.43826 0.07182 0.0
H3444 H 0.6569 0.79906 0.1221 0.0
H3445 H 0.59516 0.68398 0.14829 0.0
H3446 H 0.63579 0.75025 0.07245 0.0
H3447 H 0.58845 0.74451 0.18864 0.0
H3448 H 0.62662 0.7012 0.12718 0.0
H3449 H 0.64804 0.77199 0.15198 0.0
C3450 C 0.65083 0.78245 0.11751 0.0
C3451 C 0.6463 0.77694 0.095 0.0
C3452 C 0.61884 0.71035 0.14122 0.0
C3453 C 0.63664 0.74613 0.12876 0.0
C3454 C 0.60104 0.70057 0.15323 0.0
C3455 C 0.5894 0.71314 0.16985 0.0
C3456 C 0.62462 0.73281 0.14589 0.0
C3457 C 0.59717 0.73454 0.17574 0.0
C3458 C 0.64595 0.76705 0.1345 0.0
C3459 C 0.63889 0.75521 0.08974 0.0
N3460 N 0.61417 0.74397 0.16342 0.0
N3461 N 0.63392 0.74061 0.10661 0.0
H3462 H 0.26457 0.66302 1.00105 0.0
H3463 H 0.28681 0.65161 0.111 0.0
H3464 H 0.26726 0.59628 0.02942 0.0
H3465 H 0.3541 0.63163 0.08916 0.0
H3466 H 0.27807 0.66011 0.07179 0.0
H3467 H 0.29793 0.67335 0.02224 0.0
C3468 C 0.27289 0.65009 0.01069 0.0
C3469 C 0.26235 0.62927 0.01499 0.0
C3470 C 0.29514 0.65495 0.07581 0.0
C3471 C 0.30096 0.64056 0.03771 0.0
C3472 C 0.30004 0.65009 0.09814 0.0
C3473 C 0.32086 0.64029 0.10306 0.0
C3474 C 0.31069 0.64863 0.0586 0.0
C3475 C 0.33755 0.63864 0.08583 0.0
C3476 C 0.29206 0.65606 0.02259 0.0
C3477 C 0.27439 0.61286 0.0266 0.0
N3478 N 0.33168 0.64142 0.06402 0.0
N3479 N 0.2929 0.61907 0.03821 0.0
H3480 H 0.40744 0.25457 0.03809 0.0
H3481 H 0.42762 0.31733 0.15462 0.0
H3482 H 0.35739 0.25698 0.09211 0.0
H3483 H 0.47879 0.29198 0.10782 0.0
H3484 H 0.39845 0.30669 0.1275 0.0
H3485 H 0.42913 0.28336 0.05768 0.0
C3486 C 0.40065 0.26173 0.05371 0.0
C3487 C 0.38134 0.25271 0.06421 0.0
C3488 C 0.41613 0.30374 0.12321 0.0
C3489 C 0.40611 0.28486 0.08677 0.0
C3490 C 0.43266 0.30942 0.13875 0.0
C3491 C 0.45554 0.30527 0.13347 0.0
C3492 C 0.42273 0.29416 0.10234 0.0
C3493 C 0.46132 0.29534 0.11261 0.0
C3494 C 0.41308 0.27801 0.06496 0.0
C3495 C 0.3728 0.26296 0.08403 0.0
N3496 N 0.44502 0.29015 0.0978 0.0
N3497 N 0.38569 0.27808 0.09519 0.0
H3498 H 0.2546 0.37414 0.97252 0.0
H3499 H 0.2663 0.50284 0.94045 0.0
H3500 H 0.23608 0.42872 0.01762 0.0
H3501 H 0.28301 0.44709 0.89571 0.0
H3502 H 0.25889 0.47615 0.97081 0.0
H3503 H 0.27425 0.4008 0.94805 0.0
C3504 C 0.25582 0.39162 0.97788 0.0
C3505 C 0.24324 0.39957 0.99652 0.0
C3506 C 0.26407 0.46976 0.95432 0.0
C3507 C 0.26409 0.43009 0.96828 0.0
C3508 C 0.26775 0.48492 0.93687 0.0
C3509 C 0.27542 0.47705 0.9157 0.0
C3510 C 0.26796 0.44667 0.95037 0.0
C3511 C 0.27715 0.45378 0.91187 0.0
C3512 C 0.26648 0.40693 0.96365 0.0
C3513 C 0.24519 0.42218 1.00296 0.0
N3514 N 0.27369 0.43935 0.92919 0.0
N3515 N 0.25468 0.43699 0.98833 0.0
H3516 H 0.58992 0.25647 0.02362 0.0
H3517 H 0.56925 0.28844 0.89623 0.0
H3518 H 0.64118 0.28129 0.97726 0.0
H3519 H 0.51682 0.30135 0.94621 0.0
H3520 H 0.59344 0.2739 0.92579 0.0
H3521 H 0.56088 0.26643 0.99636 0.0
C3522 C 0.59505 0.26464 1.00806 0.0
C3523 C 0.61811 0.26738 1.00236 0.0
C3524 C 0.57638 0.27934 0.9302 0.0
C3525 C 0.58521 0.27788 0.97109 0.0
C3526 C 0.56236 0.28696 0.91325 0.0
C3527 C 0.54118 0.29623 0.91891 0.0
C3528 C 0.56896 0.28088 0.95282 0.0
C3529 C 0.53316 0.2944 0.94127 0.0
C3530 C 0.57849 0.26996 0.99242 0.0
C3531 C 0.62368 0.27839 0.98214 0.0
N3532 N 0.54729 0.2874 0.95767 0.0
N3533 N 0.60739 0.28267 0.96695 0.0
H3534 H 0.40618 0.7969 0.92991 0.0
H3535 H 0.48096 0.69805 0.95008 0.0
H3536 H 0.40746 0.76559 0.99538 0.0
H3537 H 0.45478 0.71097 0.88398 0.0
H3538 H 0.44763 0.71594 0.96712 0.0
H3539 H 0.41652 0.76107 0.91238 0.0
C3540 C 0.40854 0.78232 0.94056 0.0
C3541 C 0.40701 0.78416 0.9641 0.0
C3542 C 0.44871 0.71432 0.9489 0.0
C3543 C 0.41894 0.74325 0.94427 0.0
C3544 C 0.46784 0.70434 0.93921 0.0
C3545 C 0.47071 0.704 0.91571 0.0
C3546 C 0.43301 0.72481 0.9349 0.0
C3547 C 0.45319 0.71158 0.90222 0.0
C3548 C 0.41407 0.76177 0.93054 0.0
C3549 C 0.40927 0.76478 0.97716 0.0
N3550 N 0.43524 0.72242 0.91204 0.0
N3551 N 0.41582 0.74511 0.96709 0.0
loop_
_geom_bond_atom_site_label_1
_geom_bond_atom_site_label_2
_geom_bond_distance
_geom_bond_site_symmetry_2
_ccdc_geom_bond_type
Tb0 O3 2.453 . S
Tb0 O4 2.596 . S
Tb0 O5 2.374 . S
Tb0 O13 2.343 . S
Tb0 O15 2.353 . S
Tb0 O17 2.427 . S
Tb0 O18 2.513 . S
C1 O5 1.251 . S
C1 O7 1.263 1_455 S
Tb2 O4 2.343 1_655 S
Tb2 O7 2.353 . S
Tb2 O10 2.427 . S
Tb2 O11 2.513 . S
Tb2 O12 2.453 . S
Tb2 O13 2.596 1_655 S
Tb2 O14 2.374 . S
O3 Tb0 2.453 . S
O3 C19 1.245 . S
O4 Tb0 2.596 . S
O4 Tb2 2.343 1_455 S
O4 C19 1.259 . S
O5 Tb0 2.374 . S
O5 C1 1.251 . S
C6 O10 1.275 . S
C6 O11 1.246 . S
O7 C1 1.263 1_655 S
O7 Tb2 2.353 . S
C8 O12 1.245 . S
C8 O13 1.259 1_655 S
C9 O14 1.250 1_455 S
C9 O15 1.263 . S
O10 Tb2 2.427 . S
O10 C6 1.275 . S
O11 Tb2 2.513 . S
O11 C6 1.246 . S
O12 Tb2 2.453 . S
O12 C8 1.245 . S
O13 Tb0 2.343 . S
O13 Tb2 2.596 1_455 S
O13 C8 1.259 1_455 S
O14 Tb2 2.374 . S
O14 C9 1.250 1_655 S
O15 Tb0 2.353 . S
O15 C9 1.263 . S
C16 O17 1.275 . S
C16 O18 1.246 . S
O17 Tb0 2.427 . S
O17 C16 1.275 . S
O18 Tb0 2.513 . S
O18 C16 1.246 . S
C19 O3 1.245 . S
C19 O4 1.259 . S
Tb20 O23 2.453 . S
Tb20 O24 2.596 . S
Tb20 O25 2.374 . S
Tb20 O33 2.343 1_545 S
Tb20 O35 2.353 . S
Tb20 O37 2.427 . S
Tb20 O38 2.513 . S
C21 O25 1.251 . S
C21 O27 1.263 1_545 S
Tb22 O24 2.343 1_565 S
Tb22 O27 2.353 . S
Tb22 O30 2.427 . S
Tb22 O31 2.513 . S
Tb22 O32 2.453 . S
Tb22 O33 2.596 . S
Tb22 O34 2.374 . S
O23 Tb20 2.453 . S
O23 C39 1.245 . S
O24 Tb20 2.596 . S
O24 Tb22 2.343 1_545 S
O24 C39 1.259 . S
O25 Tb20 2.374 . S
O25 C21 1.251 . S
C26 O30 1.275 . S
C26 O31 1.246 . S
O27 C21 1.263 1_565 S
O27 Tb22 2.353 . S
C28 O32 1.245 . S
C28 O33 1.259 . S
C29 O34 1.250 . S
C29 O35 1.263 1_565 S
O30 Tb22 2.427 . S
O30 C26 1.275 . S
O31 Tb22 2.513 . S
O31 C26 1.246 . S
O32 Tb22 2.453 . S
O32 C28 1.245 . S
O33 Tb20 2.343 1_565 S
O33 Tb22 2.596 . S
O33 C28 1.259 . S
O34 Tb22 2.374 . S
O34 C29 1.250 . S
O35 Tb20 2.353 . S
O35 C29 1.263 1_545 S
C36 O37 1.275 . S
C36 O38 1.246 . S
O37 Tb20 2.427 . S
O37 C36 1.275 . S
O38 Tb20 2.513 . S
O38 C36 1.246 . S
C39 O23 1.245 . S
C39 O24 1.259 . S
Tb40 O43 2.453 . S
Tb40 O44 2.594 1_655 S
Tb40 O45 2.374 . S
Tb40 O53 2.343 1_655 S
Tb40 O55 2.353 . S
Tb40 O57 2.427 . S
Tb40 O58 2.513 . S
C41 O45 1.251 1_455 S
C41 O47 1.263 . S
Tb42 O44 2.346 . S
Tb42 O47 2.353 . S
Tb42 O50 2.427 . S
Tb42 O51 2.513 . S
Tb42 O52 2.453 . S
Tb42 O53 2.596 . S
Tb42 O54 2.374 . S
O43 Tb40 2.453 . S
O43 C59 1.245 . S
O44 Tb40 2.594 1_455 S
O44 Tb42 2.346 . S
O44 C59 1.257 1_455 S
O45 Tb40 2.374 . S
O45 C41 1.251 1_655 S
C46 O50 1.275 . S
C46 O51 1.246 . S
O47 C41 1.263 . S
O47 Tb42 2.353 . S
C48 O52 1.245 . S
C48 O53 1.259 . S
C49 O54 1.250 . S
C49 O55 1.263 1_455 S
O50 Tb42 2.427 . S
O50 C46 1.275 . S
O51 Tb42 2.513 . S
O51 C46 1.246 . S
O52 Tb42 2.453 . S
O52 C48 1.245 . S
O53 Tb40 2.343 1_455 S
O53 Tb42 2.596 . S
O53 C48 1.259 . S
O54 Tb42 2.374 . S
O54 C49 1.250 . S
O55 Tb40 2.353 . S
O55 C49 1.263 1_655 S
C56 O57 1.275 . S
C56 O58 1.246 . S
O57 Tb40 2.427 . S
O57 C56 1.275 . S
O58 Tb40 2.513 . S
O58 C56 1.246 . S
C59 O43 1.245 . S
C59 O44 1.257 1_655 S
Tb60 O63 2.453 . S
Tb60 O64 2.596 1_565 S
Tb60 O65 2.374 . S
Tb60 O73 2.343 1_565 S
Tb60 O75 2.353 . S
Tb60 O77 2.427 . S
Tb60 O78 2.513 . S
C61 O65 1.251 1_545 S
C61 O67 1.263 . S
Tb62 O64 2.343 . S
Tb62 O67 2.353 . S
Tb62 O70 2.427 . S
Tb62 O71 2.513 . S
Tb62 O72 2.453 . S
Tb62 O73 2.596 . S
Tb62 O74 2.374 . S
O63 Tb60 2.453 . S
O63 C79 1.245 . S
O64 Tb60 2.596 1_545 S
O64 Tb62 2.343 . S
O64 C79 1.259 1_545 S
O65 Tb60 2.374 . S
O65 C61 1.251 1_565 S
C66 O70 1.275 . S
C66 O71 1.246 . S
O67 C61 1.263 . S
O67 Tb62 2.353 . S
C68 O72 1.245 . S
C68 O73 1.259 . S
C69 O74 1.250 . S
C69 O75 1.263 1_545 S
O70 Tb62 2.427 . S
O70 C66 1.275 . S
O71 Tb62 2.513 . S
O71 C66 1.246 . S
O72 Tb62 2.453 . S
O72 C68 1.245 . S
O73 Tb60 2.343 1_545 S
O73 Tb62 2.596 . S
O73 C68 1.259 . S
O74 Tb62 2.374 . S
O74 C69 1.250 . S
O75 Tb60 2.353 . S
O75 C69 1.263 1_565 S
C76 O77 1.275 . S
C76 O78 1.246 . S
O77 Tb60 2.427 . S
O77 C76 1.275 . S
O78 Tb60 2.513 . S
O78 C76 1.246 . S
C79 O63 1.245 . S
C79 O64 1.259 1_565 S
Tb80 O83 2.453 . S
Tb80 O84 2.596 . S
Tb80 O85 2.374 . S
Tb80 O93 2.343 . S
Tb80 O95 2.353 . S
Tb80 O97 2.427 . S
Tb80 O98 2.513 . S
C81 O85 1.251 . S
C81 O87 1.263 1_455 S
Tb82 O84 2.343 1_655 S
Tb82 O87 2.353 . S
Tb82 O90 2.427 . S
Tb82 O91 2.513 . S
Tb82 O92 2.453 . S
Tb82 O93 2.596 1_655 S
Tb82 O94 2.374 . S
O83 Tb80 2.453 . S
O83 C99 1.245 . S
O84 Tb80 2.596 . S
O84 Tb82 2.343 1_455 S
O84 C99 1.259 . S
O85 Tb80 2.374 . S
O85 C81 1.251 . S
C86 O90 1.275 . S
C86 O91 1.246 . S
O87 C81 1.263 1_655 S
O87 Tb82 2.353 . S
C88 O92 1.245 . S
C88 O93 1.259 1_655 S
C89 O94 1.250 1_455 S
C89 O95 1.263 . S
O90 Tb82 2.427 . S
O90 C86 1.275 . S
O91 Tb82 2.513 . S
O91 C86 1.246 . S
O92 Tb82 2.453 . S
O92 C88 1.245 . S
O93 Tb80 2.343 . S
O93 Tb82 2.596 1_455 S
O93 C88 1.259 1_455 S
O94 Tb82 2.374 . S
O94 C89 1.250 1_655 S
O95 Tb80 2.353 . S
O95 C89 1.263 . S
C96 O97 1.275 . S
C96 O98 1.246 . S
O97 Tb80 2.427 . S
O97 C96 1.275 . S
O98 Tb80 2.513 . S
O98 C96 1.246 . S
C99 O83 1.245 . S
C99 O84 1.259 . S
Tb100 O103 2.453 . S
Tb100 O104 2.596 . S
Tb100 O105 2.374 . S
Tb100 O113 2.347 . S
Tb100 O115 2.353 . S
Tb100 O117 2.427 . S
Tb100 O118 2.513 . S
C101 O105 1.251 . S
C101 O107 1.263 1_545 S
Tb102 O104 2.343 1_565 S
Tb102 O107 2.353 . S
Tb102 O110 2.427 . S
Tb102 O111 2.513 . S
Tb102 O112 2.453 . S
Tb102 O113 2.593 1_565 S
Tb102 O114 2.374 . S
O103 Tb100 2.453 . S
O103 C119 1.245 . S
O104 Tb100 2.596 . S
O104 Tb102 2.343 1_545 S
O104 C119 1.259 . S
O105 Tb100 2.374 . S
O105 C101 1.251 . S
C106 O110 1.275 . S
C106 O111 1.246 . S
O107 C101 1.263 1_565 S
O107 Tb102 2.353 . S
C108 O112 1.245 . S
C108 O113 1.256 1_565 S
C109 O114 1.250 1_545 S
C109 O115 1.263 . S
O110 Tb102 2.427 . S
O110 C106 1.275 . S
O111 Tb102 2.513 . S
O111 C106 1.246 . S
O112 Tb102 2.453 . S
O112 C108 1.245 . S
O113 Tb100 2.347 . S
O113 Tb102 2.593 1_545 S
O113 C108 1.256 1_545 S
O114 Tb102 2.374 . S
O114 C109 1.250 1_565 S
O115 Tb100 2.353 . S
O115 C109 1.263 . S
C116 O117 1.275 . S
C116 O118 1.246 . S
O117 Tb100 2.427 . S
O117 C116 1.275 . S
O118 Tb100 2.513 . S
O118 C116 1.246 . S
C119 O103 1.245 . S
C119 O104 1.259 . S
Tb120 O123 2.453 . S
Tb120 O124 2.596 . S
Tb120 O125 2.374 . S
Tb120 O133 2.343 1_655 S
Tb120 O135 2.353 . S
Tb120 O137 2.427 . S
Tb120 O138 2.513 . S
C121 O125 1.222 1_455 S
C121 O127 1.298 . S
Tb122 O124 2.343 1_455 S
Tb122 O127 2.353 . S
Tb122 O130 2.427 . S
Tb122 O131 2.513 . S
Tb122 O132 2.453 . S
Tb122 O133 2.596 . S
Tb122 O134 2.374 . S
O123 Tb120 2.453 . S
O123 C139 1.245 . S
O124 Tb120 2.596 . S
O124 Tb122 2.343 1_655 S
O124 C139 1.259 . S
O125 Tb120 2.374 . S
O125 C121 1.222 1_655 S
C126 O130 1.275 . S
C126 O131 1.246 . S
O127 C121 1.298 . S
O127 Tb122 2.353 . S
C128 O132 1.245 . S
C128 O133 1.259 . S
C129 O134 1.250 . S
C129 O135 1.263 1_455 S
O130 Tb122 2.427 . S
O130 C126 1.275 . S
O131 Tb122 2.513 . S
O131 C126 1.246 . S
O132 Tb122 2.453 . S
O132 C128 1.245 . S
O133 Tb120 2.343 1_455 S
O133 Tb122 2.596 . S
O133 C128 1.259 . S
O134 Tb122 2.374 . S
O134 C129 1.250 . S
O135 Tb120 2.353 . S
O135 C129 1.263 1_655 S
C136 O137 1.275 . S
C136 O138 1.246 . S
O137 Tb120 2.427 . S
O137 C136 1.275 . S
O138 Tb120 2.513 . S
O138 C136 1.246 . S
C139 O123 1.245 . S
C139 O124 1.259 . S
Tb140 O143 2.453 . S
Tb140 O144 2.596 1_565 S
Tb140 O145 2.374 1_565 S
Tb140 O153 2.343 1_565 S
Tb140 O155 2.353 1_565 S
Tb140 O157 2.427 . S
Tb140 O158 2.513 . S
C141 O145 1.251 . S
C141 O147 1.263 . S
Tb142 O144 2.343 . S
Tb142 O147 2.353 . S
Tb142 O150 2.427 . S
Tb142 O151 2.513 . S
Tb142 O152 2.453 . S
Tb142 O153 2.596 . S
Tb142 O154 2.374 . S
O143 Tb140 2.453 . S
O143 C159 1.245 . S
O144 Tb140 2.596 1_545 S
O144 Tb142 2.343 . S
O144 C159 1.259 1_545 S
O145 Tb140 2.374 1_545 S
O145 C141 1.251 . S
C146 O150 1.275 . S
C146 O151 1.246 . S
O147 C141 1.263 . S
O147 Tb142 2.353 . S
C148 O152 1.245 . S
C148 O153 1.259 . S
C149 O154 1.250 . S
C149 O155 1.263 . S
O150 Tb142 2.427 . S
O150 C146 1.275 . S
O151 Tb142 2.513 . S
O151 C146 1.246 . S
O152 Tb142 2.453 . S
O152 C148 1.245 . S
O153 Tb140 2.343 1_545 S
O153 Tb142 2.596 . S
O153 C148 1.259 . S
O154 Tb142 2.374 . S
O154 C149 1.250 . S
O155 Tb140 2.353 1_545 S
O155 C149 1.263 . S
C156 O157 1.275 . S
C156 O158 1.246 . S
O157 Tb140 2.427 . S
O157 C156 1.275 . S
O158 Tb140 2.513 . S
O158 C156 1.246 . S
C159 O143 1.245 . S
C159 O144 1.259 1_565 S
Tb160 O163 2.453 . S
Tb160 O164 2.596 . S
Tb160 O165 2.374 . S
Tb160 O173 2.343 1_545 S
Tb160 O175 2.353 . S
Tb160 O177 2.427 . S
Tb160 O178 2.513 . S
C161 O165 1.251 . S
C161 O167 1.263 1_545 S
Tb162 O164 2.343 1_565 S
Tb162 O167 2.353 . S
Tb162 O170 2.427 . S
Tb162 O171 2.513 . S
Tb162 O172 2.453 . S
Tb162 O173 2.596 . S
Tb162 O174 2.374 . S
O163 Tb160 2.453 . S
O163 C179 1.245 . S
O164 Tb160 2.596 . S
O164 Tb162 2.343 1_545 S
O164 C179 1.259 . S
O165 Tb160 2.374 . S
O165 C161 1.251 . S
C166 O170 1.275 . S
C166 O171 1.246 . S
O167 C161 1.263 1_565 S
O167 Tb162 2.353 . S
C168 O172 1.245 . S
C168 O173 1.259 . S
C169 O174 1.250 . S
C169 O175 1.263 1_565 S
O170 Tb162 2.427 . S
O170 C166 1.275 . S
O171 Tb162 2.513 . S
O171 C166 1.246 . S
O172 Tb162 2.453 . S
O172 C168 1.245 . S
O173 Tb160 2.343 1_565 S
O173 Tb162 2.596 . S
O173 C168 1.259 . S
O174 Tb162 2.374 . S
O174 C169 1.250 . S
O175 Tb160 2.353 . S
O175 C169 1.263 1_545 S
C176 O177 1.275 . S
C176 O178 1.246 . S
O177 Tb160 2.427 . S
O177 C176 1.275 . S
O178 Tb160 2.513 . S
O178 C176 1.246 . S
C179 O163 1.245 . S
C179 O164 1.259 . S
Tb180 O183 2.453 . S
Tb180 O184 2.596 1_655 S
Tb180 O185 2.374 . S
Tb180 O193 2.343 1_655 S
Tb180 O195 2.353 . S
Tb180 O197 2.427 . S
Tb180 O198 2.513 . S
C181 O185 1.251 1_455 S
C181 O187 1.263 . S
Tb182 O184 2.343 . S
Tb182 O187 2.353 . S
Tb182 O190 2.427 . S
Tb182 O191 2.513 . S
Tb182 O192 2.453 . S
Tb182 O193 2.596 . S
Tb182 O194 2.374 . S
O183 Tb180 2.453 . S
O183 C199 1.245 . S
O184 Tb180 2.596 1_455 S
O184 Tb182 2.343 . S
O184 C199 1.259 1_455 S
O185 Tb180 2.374 . S
O185 C181 1.251 1_655 S
C186 O190 1.275 . S
C186 O191 1.246 . S
O187 C181 1.263 . S
O187 Tb182 2.353 . S
C188 O192 1.245 . S
C188 O193 1.259 . S
C189 O194 1.250 . S
C189 O195 1.263 1_455 S
O190 Tb182 2.427 . S
O190 C186 1.275 . S
O191 Tb182 2.513 . S
O191 C186 1.246 . S
O192 Tb182 2.453 . S
O192 C188 1.245 . S
O193 Tb180 2.343 1_455 S
O193 Tb182 2.596 . S
O193 C188 1.259 . S
O194 Tb182 2.374 . S
O194 C189 1.250 . S
O195 Tb180 2.353 . S
O195 C189 1.263 1_655 S
C196 O197 1.275 . S
C196 O198 1.246 . S
O197 Tb180 2.427 . S
O197 C196 1.275 . S
O198 Tb180 2.513 . S
O198 C196 1.246 . S
C199 O183 1.245 . S
C199 O184 1.259 1_655 S
Tb200 O203 2.453 . S
Tb200 O204 2.596 . S
Tb200 O205 2.374 . S
Tb200 O213 2.343 1_565 S
Tb200 O215 2.353 . S
Tb200 O217 2.427 . S
Tb200 O218 2.513 . S
C201 O205 1.251 1_545 S
C201 O207 1.263 . S
Tb202 O204 2.343 1_545 S
Tb202 O207 2.353 . S
Tb202 O210 2.427 . S
Tb202 O211 2.513 . S
Tb202 O212 2.453 . S
Tb202 O213 2.596 . S
Tb202 O214 2.374 . S
O203 Tb200 2.453 . S
O203 C219 1.245 . S
O204 Tb200 2.596 . S
O204 Tb202 2.343 1_565 S
O204 C219 1.259 . S
O205 Tb200 2.374 . S
O205 C201 1.251 1_565 S
C206 O210 1.275 . S
C206 O211 1.246 . S
O207 C201 1.263 . S
O207 Tb202 2.353 . S
C208 O212 1.245 . S
C208 O213 1.259 . S
C209 O214 1.250 . S
C209 O215 1.263 1_545 S
O210 Tb202 2.427 . S
O210 C206 1.275 . S
O211 Tb202 2.513 . S
O211 C206 1.246 . S
O212 Tb202 2.453 . S
O212 C208 1.245 . S
O213 Tb200 2.343 1_545 S
O213 Tb202 2.596 . S
O213 C208 1.259 . S
O214 Tb202 2.374 . S
O214 C209 1.250 . S
O215 Tb200 2.353 . S
O215 C209 1.263 1_565 S
C216 O217 1.275 . S
C216 O218 1.246 . S
O217 Tb200 2.427 . S
O217 C216 1.275 . S
O218 Tb200 2.513 . S
O218 C216 1.246 . S
C219 O203 1.245 . S
C219 O204 1.259 . S
Tb220 O223 2.453 . S
Tb220 O224 2.596 . S
Tb220 O225 2.374 . S
Tb220 O233 2.343 . S
Tb220 O235 2.353 . S
Tb220 O237 2.427 . S
Tb220 O238 2.513 . S
C221 O225 1.251 . S
C221 O227 1.263 1_455 S
Tb222 O224 2.343 1_655 S
Tb222 O227 2.353 . S
Tb222 O230 2.427 . S
Tb222 O231 2.513 . S
Tb222 O232 2.453 . S
Tb222 O233 2.596 1_655 S
Tb222 O234 2.374 . S
O223 Tb220 2.453 . S
O223 C239 1.245 . S
O224 Tb220 2.596 . S
O224 Tb222 2.343 1_455 S
O224 C239 1.259 . S
O225 Tb220 2.374 . S
O225 C221 1.251 . S
C226 O230 1.275 . S
C226 O231 1.246 . S
O227 C221 1.263 1_655 S
O227 Tb222 2.353 . S
C228 O232 1.245 . S
C228 O233 1.259 1_655 S
C229 O234 1.250 1_455 S
C229 O235 1.263 . S
O230 Tb222 2.427 . S
O230 C226 1.275 . S
O231 Tb222 2.513 . S
O231 C226 1.246 . S
O232 Tb222 2.453 . S
O232 C228 1.245 . S
O233 Tb220 2.343 . S
O233 Tb222 2.596 1_455 S
O233 C228 1.259 1_455 S
O234 Tb222 2.374 . S
O234 C229 1.250 1_655 S
O235 Tb220 2.353 . S
O235 C229 1.263 . S
C236 O237 1.275 . S
C236 O238 1.246 . S
O237 Tb220 2.427 . S
O237 C236 1.275 . S
O238 Tb220 2.513 . S
O238 C236 1.246 . S
C239 O223 1.245 . S
C239 O224 1.259 . S
Tb240 O243 2.453 . S
Tb240 O244 2.596 1_565 S
Tb240 O245 2.374 1_565 S
Tb240 O253 2.343 1_565 S
Tb240 O255 2.353 1_565 S
Tb240 O257 2.427 . S
Tb240 O258 2.513 . S
C241 O245 1.251 . S
C241 O247 1.263 . S
Tb242 O244 2.343 . S
Tb242 O247 2.353 . S
Tb242 O250 2.427 . S
Tb242 O251 2.513 . S
Tb242 O252 2.453 . S
Tb242 O253 2.596 . S
Tb242 O254 2.374 . S
O243 Tb240 2.453 . S
O243 C259 1.245 . S
O244 Tb240 2.596 1_545 S
O244 Tb242 2.343 . S
O244 C259 1.259 1_545 S
O245 Tb240 2.374 1_545 S
O245 C241 1.251 . S
C246 O250 1.275 . S
C246 O251 1.246 . S
O247 C241 1.263 . S
O247 Tb242 2.353 . S
C248 O252 1.245 . S
C248 O253 1.259 . S
C249 O254 1.250 . S
C249 O255 1.263 . S
O250 Tb242 2.427 . S
O250 C246 1.275 . S
O251 Tb242 2.513 . S
O251 C246 1.246 . S
O252 Tb242 2.453 . S
O252 C248 1.245 . S
O253 Tb240 2.343 1_545 S
O253 Tb242 2.596 . S
O253 C248 1.259 . S
O254 Tb242 2.374 . S
O254 C249 1.250 . S
O255 Tb240 2.353 1_545 S
O255 C249 1.263 . S
C256 O257 1.275 . S
C256 O258 1.246 . S
O257 Tb240 2.427 . S
O257 C256 1.275 . S
O258 Tb240 2.513 . S
O258 C256 1.246 . S
C259 O243 1.245 . S
C259 O244 1.259 1_565 S
Tb260 O263 2.453 . S
Tb260 O264 2.596 . S
Tb260 O265 2.374 . S
Tb260 O273 2.343 1_455 S
Tb260 O275 2.353 . S
Tb260 O277 2.427 . S
Tb260 O278 2.513 . S
C261 O265 1.251 . S
C261 O267 1.263 1_455 S
Tb262 O264 2.343 1_655 S
Tb262 O267 2.353 . S
Tb262 O270 2.427 . S
Tb262 O271 2.513 . S
Tb262 O272 2.453 . S
Tb262 O273 2.596 . S
Tb262 O274 2.374 . S
O263 Tb260 2.453 . S
O263 C279 1.245 . S
O264 Tb260 2.596 . S
O264 Tb262 2.343 1_455 S
O264 C279 1.259 . S
O265 Tb260 2.374 . S
O265 C261 1.251 . S
C266 O270 1.275 . S
C266 O271 1.246 . S
O267 C261 1.263 1_655 S
O267 Tb262 2.353 . S
C268 O272 1.245 . S
C268 O273 1.259 . S
C269 O274 1.250 . S
C269 O275 1.263 1_655 S
O270 Tb262 2.427 . S
O270 C266 1.275 . S
O271 Tb262 2.513 . S
O271 C266 1.246 . S
O272 Tb262 2.453 . S
O272 C268 1.245 . S
O273 Tb260 2.343 1_655 S
O273 Tb262 2.596 . S
O273 C268 1.259 . S
O274 Tb262 2.374 . S
O274 C269 1.250 . S
O275 Tb260 2.353 . S
O275 C269 1.263 1_455 S
C276 O277 1.275 . S
C276 O278 1.246 . S
O277 Tb260 2.427 . S
O277 C276 1.275 . S
O278 Tb260 2.513 . S
O278 C276 1.246 . S
C279 O263 1.245 . S
C279 O264 1.259 . S
Tb280 O283 2.453 . S
Tb280 O284 2.596 . S
Tb280 O285 2.374 . S
Tb280 O293 2.343 . S
Tb280 O295 2.353 . S
Tb280 O297 2.427 . S
Tb280 O298 2.513 . S
C281 O285 1.251 . S
C281 O287 1.263 . S
Tb282 O284 2.343 1_565 S
Tb282 O287 2.353 1_565 S
Tb282 O290 2.427 . S
Tb282 O291 2.513 . S
Tb282 O292 2.453 . S
Tb282 O293 2.596 1_565 S
Tb282 O294 2.374 1_565 S
O283 Tb280 2.453 . S
O283 C299 1.245 . S
O284 Tb280 2.596 . S
O284 Tb282 2.343 1_545 S
O284 C299 1.259 . S
O285 Tb280 2.374 . S
O285 C281 1.251 . S
C286 O290 1.275 . S
C286 O291 1.246 . S
O287 C281 1.263 . S
O287 Tb282 2.353 1_545 S
C288 O292 1.245 . S
C288 O293 1.259 1_565 S
C289 O294 1.250 . S
C289 O295 1.263 . S
O290 Tb282 2.427 . S
O290 C286 1.275 . S
O291 Tb282 2.513 . S
O291 C286 1.246 . S
O292 Tb282 2.453 . S
O292 C288 1.245 . S
O293 Tb280 2.343 . S
O293 Tb282 2.596 1_545 S
O293 C288 1.259 1_545 S
O294 Tb282 2.374 1_545 S
O294 C289 1.250 . S
O295 Tb280 2.353 . S
O295 C289 1.263 . S
C296 O297 1.275 . S
C296 O298 1.246 . S
O297 Tb280 2.427 . S
O297 C296 1.275 . S
O298 Tb280 2.513 . S
O298 C296 1.246 . S
C299 O283 1.245 . S
C299 O284 1.259 . S
Tb300 O303 2.453 . S
Tb300 O304 2.596 . S
Tb300 O305 2.374 . S
Tb300 O313 2.343 1_655 S
Tb300 O315 2.353 . S
Tb300 O317 2.427 . S
Tb300 O318 2.513 . S
C301 O305 1.251 1_455 S
C301 O307 1.263 . S
Tb302 O304 2.343 1_455 S
Tb302 O307 2.353 . S
Tb302 O310 2.427 . S
Tb302 O311 2.513 . S
Tb302 O312 2.453 . S
Tb302 O313 2.596 . S
Tb302 O314 2.374 . S
O303 Tb300 2.453 . S
O303 C319 1.245 . S
O304 Tb300 2.596 . S
O304 Tb302 2.343 1_655 S
O304 C319 1.259 . S
O305 Tb300 2.374 . S
O305 C301 1.251 1_655 S
C306 O310 1.275 . S
C306 O311 1.246 . S
O307 C301 1.263 . S
O307 Tb302 2.353 . S
C308 O312 1.245 . S
C308 O313 1.259 . S
C309 O314 1.250 . S
C309 O315 1.263 1_455 S
O310 Tb302 2.427 . S
O310 C306 1.275 . S
O311 Tb302 2.513 . S
O311 C306 1.246 . S
O312 Tb302 2.453 . S
O312 C308 1.245 . S
O313 Tb300 2.343 1_455 S
O313 Tb302 2.596 . S
O313 C308 1.259 . S
O314 Tb302 2.374 . S
O314 C309 1.250 . S
O315 Tb300 2.353 . S
O315 C309 1.263 1_655 S
C316 O317 1.275 . S
C316 O318 1.246 . S
O317 Tb300 2.427 . S
O317 C316 1.275 . S
O318 Tb300 2.513 . S
O318 C316 1.246 . S
C319 O303 1.245 . S
C319 O304 1.259 . S
Tb320 O323 2.453 . S
Tb320 O324 2.596 . S
Tb320 O325 2.374 . S
Tb320 O333 2.343 . S
Tb320 O335 2.353 . S
Tb320 O337 2.427 . S
Tb320 O338 2.513 . S
C321 O325 1.251 . S
C321 O327 1.263 1_554 S
Tb322 O324 2.343 1_556 S
Tb322 O327 2.353 . S
Tb322 O330 2.427 . S
Tb322 O331 2.513 . S
Tb322 O332 2.453 . S
Tb322 O333 2.596 1_556 S
Tb322 O334 2.374 . S
O323 Tb320 2.453 . S
O323 C339 1.245 . S
O324 Tb320 2.596 . S
O324 Tb322 2.343 1_554 S
O324 C339 1.259 . S
O325 Tb320 2.374 . S
O325 C321 1.251 . S
C326 O330 1.275 . S
C326 O331 1.246 . S
O327 C321 1.263 1_556 S
O327 Tb322 2.353 . S
C328 O332 1.245 . S
C328 O333 1.259 1_556 S
C329 O334 1.250 1_554 S
C329 O335 1.263 . S
O330 Tb322 2.427 . S
O330 C326 1.275 . S
O331 Tb322 2.513 . S
O331 C326 1.246 . S
O332 Tb322 2.453 . S
O332 C328 1.245 . S
O333 Tb320 2.343 . S
O333 Tb322 2.596 1_554 S
O333 C328 1.259 1_554 S
O334 Tb322 2.374 . S
O334 C329 1.250 1_556 S
O335 Tb320 2.353 . S
O335 C329 1.263 . S
C336 O337 1.275 . S
C336 O338 1.246 . S
O337 Tb320 2.427 . S
O337 C336 1.275 . S
O338 Tb320 2.513 . S
O338 C336 1.246 . S
C339 O323 1.245 . S
C339 O324 1.259 . S
Tb340 O343 2.453 . S
Tb340 O344 2.596 1_556 S
Tb340 O345 2.374 . S
Tb340 O353 2.343 1_556 S
Tb340 O355 2.353 . S
Tb340 O357 2.427 . S
Tb340 O358 2.513 . S
C341 O345 1.251 1_554 S
C341 O347 1.263 . S
Tb342 O344 2.343 . S
Tb342 O347 2.353 . S
Tb342 O350 2.427 . S
Tb342 O351 2.513 . S
Tb342 O352 2.453 . S
Tb342 O353 2.596 . S
Tb342 O354 2.374 . S
O343 Tb340 2.453 . S
O343 C359 1.245 . S
O344 Tb340 2.596 1_554 S
O344 Tb342 2.343 . S
O344 C359 1.259 1_554 S
O345 Tb340 2.374 . S
O345 C341 1.251 1_556 S
C346 O350 1.275 . S
C346 O351 1.246 . S
O347 C341 1.263 . S
O347 Tb342 2.353 . S
C348 O352 1.245 . S
C348 O353 1.259 . S
C349 O354 1.250 . S
C349 O355 1.263 1_554 S
O350 Tb342 2.427 . S
O350 C346 1.275 . S
O351 Tb342 2.513 . S
O351 C346 1.246 . S
O352 Tb342 2.453 . S
O352 C348 1.245 . S
O353 Tb340 2.343 1_554 S
O353 Tb342 2.596 . S
O353 C348 1.259 . S
O354 Tb342 2.374 . S
O354 C349 1.250 . S
O355 Tb340 2.353 . S
O355 C349 1.263 1_556 S
C356 O357 1.275 . S
C356 O358 1.246 . S
O357 Tb340 2.427 . S
O357 C356 1.275 . S
O358 Tb340 2.513 . S
O358 C356 1.246 . S
C359 O343 1.245 . S
C359 O344 1.259 1_556 S
Tb360 O363 2.453 . S
Tb360 O364 2.596 1_556 S
Tb360 O365 2.369 1_556 S
Tb360 O373 2.343 1_556 S
Tb360 O375 2.356 . S
Tb360 O377 2.427 . S
Tb360 O378 2.513 . S
C361 O365 1.263 . S
C361 O367 1.263 . S
Tb362 O364 2.343 . S
Tb362 O367 2.353 . S
Tb362 O370 2.427 . S
Tb362 O371 2.513 . S
Tb362 O372 2.453 . S
Tb362 O373 2.596 . S
Tb362 O374 2.374 . S
O363 Tb360 2.453 . S
O363 C379 1.245 . S
O364 Tb360 2.596 1_554 S
O364 Tb362 2.343 . S
O364 C379 1.259 1_554 S
O365 Tb360 2.369 1_554 S
O365 C361 1.263 . S
C366 O370 1.275 . S
C366 O371 1.246 . S
O367 C361 1.263 . S
O367 Tb362 2.353 . S
C368 O372 1.245 . S
C368 O373 1.259 . S
C369 O374 1.250 . S
C369 O375 1.256 1_554 S
O370 Tb362 2.427 . S
O370 C366 1.275 . S
O371 Tb362 2.513 . S
O371 C366 1.246 . S
O372 Tb362 2.453 . S
O372 C368 1.245 . S
O373 Tb360 2.343 1_554 S
O373 Tb362 2.596 . S
O373 C368 1.259 . S
O374 Tb362 2.374 . S
O374 C369 1.250 . S
O375 Tb360 2.356 . S
O375 C369 1.256 1_556 S
C376 O377 1.275 . S
C376 O378 1.246 . S
O377 Tb360 2.427 . S
O377 C376 1.275 . S
O378 Tb360 2.513 . S
O378 C376 1.246 . S
C379 O363 1.245 . S
C379 O364 1.259 1_556 S
Tb380 O383 2.453 . S
Tb380 O384 2.596 1_556 S
Tb380 O385 2.366 1_556 S
Tb380 O393 2.343 1_556 S
Tb380 O395 2.336 1_556 S
Tb380 O397 2.427 . S
Tb380 O398 2.513 . S
C381 O385 1.269 . S
C381 O387 1.263 . S
Tb382 O384 2.343 . S
Tb382 O387 2.353 . S
Tb382 O390 2.427 . S
Tb382 O391 2.513 . S
Tb382 O392 2.453 . S
Tb382 O393 2.596 . S
Tb382 O394 2.374 . S
O383 Tb380 2.453 . S
O383 C399 1.245 . S
O384 Tb380 2.596 1_554 S
O384 Tb382 2.343 . S
O384 C399 1.259 1_554 S
O385 Tb380 2.366 1_554 S
O385 C381 1.269 . S
C386 O390 1.275 . S
C386 O391 1.246 . S
O387 C381 1.263 . S
O387 Tb382 2.353 . S
C388 O392 1.245 . S
C388 O393 1.259 . S
C389 O394 1.250 . S
C389 O395 1.311 . S
O390 Tb382 2.427 . S
O390 C386 1.275 . S
O391 Tb382 2.513 . S
O391 C386 1.246 . S
O392 Tb382 2.453 . S
O392 C388 1.245 . S
O393 Tb380 2.343 1_554 S
O393 Tb382 2.596 . S
O393 C388 1.259 . S
O394 Tb382 2.374 . S
O394 C389 1.250 . S
O395 Tb380 2.336 1_554 S
O395 C389 1.311 . S
C396 O397 1.275 . S
C396 O398 1.246 . S
O397 Tb380 2.427 . S
O397 C396 1.275 . S
O398 Tb380 2.513 . S
O398 C396 1.246 . S
C399 O383 1.245 . S
C399 O384 1.259 1_556 S
Tb400 O403 2.453 . S
Tb400 O404 2.596 1_556 S
Tb400 O405 2.374 1_556 S
Tb400 O413 2.343 1_556 S
Tb400 O415 2.353 1_556 S
Tb400 O417 2.427 . S
Tb400 O418 2.513 . S
C401 O405 1.251 . S
C401 O407 1.263 . S
Tb402 O404 2.343 . S
Tb402 O407 2.353 . S
Tb402 O410 2.427 . S
Tb402 O411 2.513 . S
Tb402 O412 2.453 . S
Tb402 O413 2.596 . S
Tb402 O414 2.374 . S
O403 Tb400 2.453 . S
O403 C419 1.245 . S
O404 Tb400 2.596 1_554 S
O404 Tb402 2.343 . S
O404 C419 1.259 1_554 S
O405 Tb400 2.374 1_554 S
O405 C401 1.251 . S
C406 O410 1.275 . S
C406 O411 1.246 . S
O407 C401 1.263 . S
O407 Tb402 2.353 . S
C408 O412 1.245 . S
C408 O413 1.259 . S
C409 O414 1.250 . S
C409 O415 1.263 . S
O410 Tb402 2.427 . S
O410 C406 1.275 . S
O411 Tb402 2.513 . S
O411 C406 1.246 . S
O412 Tb402 2.453 . S
O412 C408 1.245 . S
O413 Tb400 2.343 1_554 S
O413 Tb402 2.596 . S
O413 C408 1.259 . S
O414 Tb402 2.374 . S
O414 C409 1.250 . S
O415 Tb400 2.353 1_554 S
O415 C409 1.263 . S
C416 O417 1.275 . S
C416 O418 1.246 . S
O417 Tb400 2.427 . S
O417 C416 1.275 . S
O418 Tb400 2.513 . S
O418 C416 1.246 . S
C419 O403 1.245 . S
C419 O404 1.259 1_556 S
Tb420 O423 2.453 . S
Tb420 O424 2.596 . S
Tb420 O425 2.374 . S
Tb420 O433 2.343 1_554 S
Tb420 O435 2.353 . S
Tb420 O437 2.427 . S
Tb420 O438 2.513 . S
C421 O425 1.251 . S
C421 O427 1.263 1_554 S
Tb422 O424 2.343 1_556 S
Tb422 O427 2.353 . S
Tb422 O430 2.427 . S
Tb422 O431 2.513 . S
Tb422 O432 2.453 . S
Tb422 O433 2.596 . S
Tb422 O434 2.374 . S
O423 Tb420 2.453 . S
O423 C439 1.245 . S
O424 Tb420 2.596 . S
O424 Tb422 2.343 1_554 S
O424 C439 1.259 . S
O425 Tb420 2.374 . S
O425 C421 1.251 . S
C426 O430 1.275 . S
C426 O431 1.246 . S
O427 C421 1.263 1_556 S
O427 Tb422 2.353 . S
C428 O432 1.245 . S
C428 O433 1.259 . S
C429 O434 1.250 1_554 S
C429 O435 1.263 . S
O430 Tb422 2.427 . S
O430 C426 1.275 . S
O431 Tb422 2.513 . S
O431 C426 1.246 . S
O432 Tb422 2.453 . S
O432 C428 1.245 . S
O433 Tb420 2.343 1_556 S
O433 Tb422 2.596 . S
O433 C428 1.259 . S
O434 Tb422 2.374 . S
O434 C429 1.250 1_556 S
O435 Tb420 2.353 . S
O435 C429 1.263 . S
C436 O437 1.275 . S
C436 O438 1.246 . S
O437 Tb420 2.427 . S
O437 C436 1.275 . S
O438 Tb420 2.513 . S
O438 C436 1.246 . S
C439 O423 1.245 . S
C439 O424 1.259 . S
Tb440 O443 2.453 . S
Tb440 O444 2.596 . S
Tb440 O445 2.374 . S
Tb440 O453 2.386 . S
Tb440 O455 2.353 . S
Tb440 O457 2.427 . S
Tb440 O458 2.513 . S
C441 O445 1.251 . S
C441 O447 1.263 1_554 S
Tb442 O444 2.343 1_556 S
Tb442 O447 2.353 . S
Tb442 O450 2.427 . S
Tb442 O451 2.513 . S
Tb442 O452 2.453 . S
Tb442 O453 2.571 1_556 S
Tb442 O454 2.374 . S
O443 Tb440 2.453 . S
O443 C459 1.245 . S
O444 Tb440 2.596 . S
O444 Tb442 2.343 1_554 S
O444 C459 1.259 . S
O445 Tb440 2.374 . S
O445 C441 1.251 . S
C446 O450 1.275 . S
C446 O451 1.246 . S
O447 C441 1.263 1_556 S
O447 Tb442 2.353 . S
C448 O452 1.245 . S
C448 O453 1.222 1_556 S
C449 O454 1.250 1_554 S
C449 O455 1.263 . S
O450 Tb442 2.427 . S
O450 C446 1.275 . S
O451 Tb442 2.513 . S
O451 C446 1.246 . S
O452 Tb442 2.453 . S
O452 C448 1.245 . S
O453 Tb440 2.386 . S
O453 Tb442 2.571 1_554 S
O453 C448 1.222 1_554 S
O454 Tb442 2.374 . S
O454 C449 1.250 1_556 S
O455 Tb440 2.353 . S
O455 C449 1.263 . S
C456 O457 1.275 . S
C456 O458 1.246 . S
O457 Tb440 2.427 . S
O457 C456 1.275 . S
O458 Tb440 2.513 . S
O458 C456 1.246 . S
C459 O443 1.245 . S
C459 O444 1.259 . S
Tb460 O463 2.453 . S
Tb460 O464 2.596 . S
Tb460 O465 2.374 . S
Tb460 O473 2.343 1_554 S
Tb460 O475 2.353 . S
Tb460 O477 2.427 . S
Tb460 O478 2.513 . S
C461 O465 1.251 . S
C461 O467 1.263 1_554 S
Tb462 O464 2.343 1_556 S
Tb462 O467 2.353 . S
Tb462 O470 2.427 . S
Tb462 O471 2.513 . S
Tb462 O472 2.453 . S
Tb462 O473 2.596 . S
Tb462 O474 2.374 . S
O463 Tb460 2.453 . S
O463 C479 1.245 . S
O464 Tb460 2.596 . S
O464 Tb462 2.343 1_554 S
O464 C479 1.259 . S
O465 Tb460 2.374 . S
O465 C461 1.251 . S
C466 O470 1.275 . S
C466 O471 1.246 . S
O467 C461 1.263 1_556 S
O467 Tb462 2.353 . S
C468 O472 1.245 . S
C468 O473 1.259 . S
C469 O474 1.250 1_554 S
C469 O475 1.263 . S
O470 Tb462 2.427 . S
O470 C466 1.275 . S
O471 Tb462 2.513 . S
O471 C466 1.246 . S
O472 Tb462 2.453 . S
O472 C468 1.245 . S
O473 Tb460 2.343 1_556 S
O473 Tb462 2.596 . S
O473 C468 1.259 . S
O474 Tb462 2.374 . S
O474 C469 1.250 1_556 S
O475 Tb460 2.353 . S
O475 C469 1.263 . S
C476 O477 1.275 . S
C476 O478 1.246 . S
O477 Tb460 2.427 . S
O477 C476 1.275 . S
O478 Tb460 2.513 . S
O478 C476 1.246 . S
C479 O463 1.245 . S
C479 O464 1.259 . S
Tb480 O483 2.453 . S
Tb480 O484 2.596 . S
Tb480 O485 2.374 . S
Tb480 O493 2.343 . S
Tb480 O495 2.353 . S
Tb480 O497 2.427 . S
Tb480 O498 2.513 . S
C481 O485 1.251 . S
C481 O487 1.263 . S
Tb482 O484 2.343 . S
Tb482 O487 2.353 . S
Tb482 O490 2.427 . S
Tb482 O491 2.513 . S
Tb482 O492 2.453 . S
Tb482 O493 2.596 . S
Tb482 O494 2.374 . S
O483 Tb480 2.453 . S
O483 C499 1.245 . S
O484 Tb480 2.596 . S
O484 Tb482 2.343 . S
O484 C499 1.259 . S
O485 Tb480 2.374 . S
O485 C481 1.251 . S
C486 O490 1.275 . S
C486 O491 1.246 . S
O487 C481 1.263 . S
O487 Tb482 2.353 . S
C488 O492 1.245 . S
C488 O493 1.259 . S
C489 O494 1.250 . S
C489 O495 1.263 . S
O490 Tb482 2.427 . S
O490 C486 1.275 . S
O491 Tb482 2.513 . S
O491 C486 1.246 . S
O492 Tb482 2.453 . S
O492 C488 1.245 . S
O493 Tb480 2.343 . S
O493 Tb482 2.596 . S
O493 C488 1.259 . S
O494 Tb482 2.374 . S
O494 C489 1.250 . S
O495 Tb480 2.353 . S
O495 C489 1.263 . S
C496 O497 1.275 . S
C496 O498 1.246 . S
O497 Tb480 2.427 . S
O497 C496 1.275 . S
O498 Tb480 2.513 . S
O498 C496 1.246 . S
C499 O483 1.245 . S
C499 O484 1.259 . S
Tb500 O503 2.453 . S
Tb500 O504 2.596 . S
Tb500 O505 2.374 . S
Tb500 O513 2.343 . S
Tb500 O515 2.353 . S
Tb500 O517 2.427 . S
Tb500 O518 2.513 . S
C501 O505 1.251 . S
C501 O507 1.263 . S
Tb502 O504 2.343 . S
Tb502 O507 2.353 . S
Tb502 O510 2.427 . S
Tb502 O511 2.513 . S
Tb502 O512 2.453 . S
Tb502 O513 2.596 . S
Tb502 O514 2.374 . S
O503 Tb500 2.453 . S
O503 C519 1.245 . S
O504 Tb500 2.596 . S
O504 Tb502 2.343 . S
O504 C519 1.259 . S
O505 Tb500 2.374 . S
O505 C501 1.251 . S
C506 O510 1.275 . S
C506 O511 1.246 . S
O507 C501 1.263 . S
O507 Tb502 2.353 . S
C508 O512 1.245 . S
C508 O513 1.259 . S
C509 O514 1.250 . S
C509 O515 1.263 . S
O510 Tb502 2.427 . S
O510 C506 1.275 . S
O511 Tb502 2.513 . S
O511 C506 1.246 . S
O512 Tb502 2.453 . S
O512 C508 1.245 . S
O513 Tb500 2.343 . S
O513 Tb502 2.596 . S
O513 C508 1.259 . S
O514 Tb502 2.374 . S
O514 C509 1.250 . S
O515 Tb500 2.353 . S
O515 C509 1.263 . S
C516 O517 1.275 . S
C516 O518 1.246 . S
O517 Tb500 2.427 . S
O517 C516 1.275 . S
O518 Tb500 2.513 . S
O518 C516 1.246 . S
C519 O503 1.245 . S
C519 O504 1.259 . S
Tb520 O523 2.453 . S
Tb520 O524 2.596 . S
Tb520 O525 2.374 . S
Tb520 O533 2.343 . S
Tb520 O535 2.353 . S
Tb520 O537 2.427 . S
Tb520 O538 2.513 . S
C521 O525 1.251 . S
C521 O527 1.263 . S
Tb522 O524 2.343 . S
Tb522 O527 2.353 . S
Tb522 O530 2.427 . S
Tb522 O531 2.513 . S
Tb522 O532 2.453 . S
Tb522 O533 2.596 . S
Tb522 O534 2.374 . S
O523 Tb520 2.453 . S
O523 C539 1.245 . S
O524 Tb520 2.596 . S
O524 Tb522 2.343 . S
O524 C539 1.259 . S
O525 Tb520 2.374 . S
O525 C521 1.251 . S
C526 O530 1.275 . S
C526 O531 1.246 . S
O527 C521 1.263 . S
O527 Tb522 2.353 . S
C528 O532 1.245 . S
C528 O533 1.259 . S
C529 O534 1.250 . S
C529 O535 1.263 . S
O530 Tb522 2.427 . S
O530 C526 1.275 . S
O531 Tb522 2.513 . S
O531 C526 1.246 . S
O532 Tb522 2.453 . S
O532 C528 1.245 . S
O533 Tb520 2.343 . S
O533 Tb522 2.596 . S
O533 C528 1.259 . S
O534 Tb522 2.374 . S
O534 C529 1.250 . S
O535 Tb520 2.353 . S
O535 C529 1.263 . S
C536 O537 1.275 . S
C536 O538 1.246 . S
O537 Tb520 2.427 . S
O537 C536 1.275 . S
O538 Tb520 2.513 . S
O538 C536 1.246 . S
C539 O523 1.245 . S
C539 O524 1.259 . S
Tb540 O543 2.453 . S
Tb540 O544 2.596 . S
Tb540 O545 2.374 . S
Tb540 O553 2.343 . S
Tb540 O555 2.353 . S
Tb540 O557 2.427 . S
Tb540 O558 2.513 . S
C541 O545 1.251 . S
C541 O547 1.263 . S
Tb542 O544 2.343 . S
Tb542 O547 2.353 . S
Tb542 O550 2.427 . S
Tb542 O551 2.513 . S
Tb542 O552 2.453 . S
Tb542 O553 2.596 . S
Tb542 O554 2.374 . S
O543 Tb540 2.453 . S
O543 C559 1.245 . S
O544 Tb540 2.596 . S
O544 Tb542 2.343 . S
O544 C559 1.259 . S
O545 Tb540 2.374 . S
O545 C541 1.251 . S
C546 O550 1.275 . S
C546 O551 1.246 . S
O547 C541 1.263 . S
O547 Tb542 2.353 . S
C548 O552 1.245 . S
C548 O553 1.259 . S
C549 O554 1.250 . S
C549 O555 1.263 . S
O550 Tb542 2.427 . S
O550 C546 1.275 . S
O551 Tb542 2.513 . S
O551 C546 1.246 . S
O552 Tb542 2.453 . S
O552 C548 1.245 . S
O553 Tb540 2.343 . S
O553 Tb542 2.596 . S
O553 C548 1.259 . S
O554 Tb542 2.374 . S
O554 C549 1.250 . S
O555 Tb540 2.353 . S
O555 C549 1.263 . S
C556 O557 1.275 . S
C556 O558 1.246 . S
O557 Tb540 2.427 . S
O557 C556 1.275 . S
O558 Tb540 2.513 . S
O558 C556 1.246 . S
C559 O543 1.245 . S
C559 O544 1.259 . S
Tb560 O563 2.453 . S
Tb560 O564 2.596 . S
Tb560 O565 2.374 . S
Tb560 O573 2.343 . S
Tb560 O575 2.353 . S
Tb560 O577 2.427 . S
Tb560 O578 2.513 . S
C561 O565 1.251 . S
C561 O567 1.263 . S
Tb562 O564 2.343 . S
Tb562 O567 2.353 . S
Tb562 O570 2.427 . S
Tb562 O571 2.513 . S
Tb562 O572 2.453 . S
Tb562 O573 2.596 . S
Tb562 O574 2.374 . S
O563 Tb560 2.453 . S
O563 C579 1.245 . S
O564 Tb560 2.596 . S
O564 Tb562 2.343 . S
O564 C579 1.259 . S
O565 Tb560 2.374 . S
O565 C561 1.251 . S
C566 O570 1.275 . S
C566 O571 1.246 . S
O567 C561 1.263 . S
O567 Tb562 2.353 . S
C568 O572 1.245 . S
C568 O573 1.259 . S
C569 O574 1.250 . S
C569 O575 1.263 . S
O570 Tb562 2.427 . S
O570 C566 1.275 . S
O571 Tb562 2.513 . S
O571 C566 1.246 . S
O572 Tb562 2.453 . S
O572 C568 1.245 . S
O573 Tb560 2.343 . S
O573 Tb562 2.596 . S
O573 C568 1.259 . S
O574 Tb562 2.374 . S
O574 C569 1.250 . S
O575 Tb560 2.353 . S
O575 C569 1.263 . S
C576 O577 1.275 . S
C576 O578 1.246 . S
O577 Tb560 2.427 . S
O577 C576 1.275 . S
O578 Tb560 2.513 . S
O578 C576 1.246 . S
C579 O563 1.245 . S
C579 O564 1.259 . S
Tb580 O583 2.453 . S
Tb580 O584 2.596 . S
Tb580 O585 2.374 . S
Tb580 O593 2.343 . S
Tb580 O595 2.353 . S
Tb580 O597 2.427 . S
Tb580 O598 2.513 . S
C581 O585 1.251 . S
C581 O587 1.263 . S
Tb582 O584 2.343 . S
Tb582 O587 2.353 . S
Tb582 O590 2.427 . S
Tb582 O591 2.513 . S
Tb582 O592 2.453 . S
Tb582 O593 2.596 . S
Tb582 O594 2.374 . S
O583 Tb580 2.453 . S
O583 C599 1.245 . S
O584 Tb580 2.596 . S
O584 Tb582 2.343 . S
O584 C599 1.259 . S
O585 Tb580 2.374 . S
O585 C581 1.251 . S
C586 O590 1.275 . S
C586 O591 1.246 . S
O587 C581 1.263 . S
O587 Tb582 2.353 . S
C588 O592 1.245 . S
C588 O593 1.259 . S
C589 O594 1.250 . S
C589 O595 1.263 . S
O590 Tb582 2.427 . S
O590 C586 1.275 . S
O591 Tb582 2.513 . S
O591 C586 1.246 . S
O592 Tb582 2.453 . S
O592 C588 1.245 . S
O593 Tb580 2.343 . S
O593 Tb582 2.596 . S
O593 C588 1.259 . S
O594 Tb582 2.374 . S
O594 C589 1.250 . S
O595 Tb580 2.353 . S
O595 C589 1.263 . S
C596 O597 1.275 . S
C596 O598 1.246 . S
O597 Tb580 2.427 . S
O597 C596 1.275 . S
O598 Tb580 2.513 . S
O598 C596 1.246 . S
C599 O583 1.245 . S
C599 O584 1.259 . S
Tb600 O603 2.453 . S
Tb600 O604 2.596 . S
Tb600 O605 2.374 . S
Tb600 O613 2.343 . S
Tb600 O615 2.353 . S
Tb600 O617 2.427 . S
Tb600 O618 2.513 . S
C601 O605 1.251 . S
C601 O607 1.263 . S
Tb602 O604 2.343 . S
Tb602 O607 2.353 . S
Tb602 O610 2.427 . S
Tb602 O611 2.513 . S
Tb602 O612 2.453 . S
Tb602 O613 2.596 . S
Tb602 O614 2.374 . S
O603 Tb600 2.453 . S
O603 C619 1.245 . S
O604 Tb600 2.596 . S
O604 Tb602 2.343 . S
O604 C619 1.259 . S
O605 Tb600 2.374 . S
O605 C601 1.251 . S
C606 O610 1.275 . S
C606 O611 1.246 . S
O607 C601 1.263 . S
O607 Tb602 2.353 . S
C608 O612 1.245 . S
C608 O613 1.259 . S
C609 O614 1.250 . S
C609 O615 1.263 . S
O610 Tb602 2.427 . S
O610 C606 1.275 . S
O611 Tb602 2.513 . S
O611 C606 1.246 . S
O612 Tb602 2.453 . S
O612 C608 1.245 . S
O613 Tb600 2.343 . S
O613 Tb602 2.596 . S
O613 C608 1.259 . S
O614 Tb602 2.374 . S
O614 C609 1.250 . S
O615 Tb600 2.353 . S
O615 C609 1.263 . S
C616 O617 1.275 . S
C616 O618 1.246 . S
O617 Tb600 2.427 . S
O617 C616 1.275 . S
O618 Tb600 2.513 . S
O618 C616 1.246 . S
C619 O603 1.245 . S
C619 O604 1.259 . S
Tb620 O623 2.453 . S
Tb620 O624 2.596 . S
Tb620 O625 2.374 . S
Tb620 O633 2.343 . S
Tb620 O635 2.353 . S
Tb620 O637 2.427 . S
Tb620 O638 2.513 . S
C621 O625 1.251 . S
C621 O627 1.263 . S
Tb622 O624 2.343 . S
Tb622 O627 2.353 . S
Tb622 O630 2.427 . S
Tb622 O631 2.513 . S
Tb622 O632 2.453 . S
Tb622 O633 2.596 . S
Tb622 O634 2.374 . S
O623 Tb620 2.453 . S
O623 C639 1.245 . S
O624 Tb620 2.596 . S
O624 Tb622 2.343 . S
O624 C639 1.259 . S
O625 Tb620 2.374 . S
O625 C621 1.251 . S
C626 O630 1.275 . S
C626 O631 1.246 . S
O627 C621 1.263 . S
O627 Tb622 2.353 . S
C628 O632 1.245 . S
C628 O633 1.259 . S
C629 O634 1.250 . S
C629 O635 1.263 . S
O630 Tb622 2.427 . S
O630 C626 1.275 . S
O631 Tb622 2.513 . S
O631 C626 1.246 . S
O632 Tb622 2.453 . S
O632 C628 1.245 . S
O633 Tb620 2.343 . S
O633 Tb622 2.596 . S
O633 C628 1.259 . S
O634 Tb622 2.374 . S
O634 C629 1.250 . S
O635 Tb620 2.353 . S
O635 C629 1.263 . S
C636 O637 1.275 . S
C636 O638 1.246 . S
O637 Tb620 2.427 . S
O637 C636 1.275 . S
O638 Tb620 2.513 . S
O638 C636 1.246 . S
C639 O623 1.245 . S
C639 O624 1.259 . S
Tb640 O643 2.453 . S
Tb640 O644 2.596 . S
Tb640 O645 2.374 . S
Tb640 O653 2.343 . S
Tb640 O655 2.353 . S
Tb640 O657 2.427 . S
Tb640 O658 2.513 . S
C641 O645 1.251 . S
C641 O647 1.263 . S
Tb642 O644 2.343 . S
Tb642 O647 2.353 . S
Tb642 O650 2.427 . S
Tb642 O651 2.513 . S
Tb642 O652 2.453 . S
Tb642 O653 2.596 . S
Tb642 O654 2.374 . S
O643 Tb640 2.453 . S
O643 C659 1.245 . S
O644 Tb640 2.596 . S
O644 Tb642 2.343 . S
O644 C659 1.259 . S
O645 Tb640 2.374 . S
O645 C641 1.251 . S
C646 O650 1.275 . S
C646 O651 1.246 . S
O647 C641 1.263 . S
O647 Tb642 2.353 . S
C648 O652 1.245 . S
C648 O653 1.259 . S
C649 O654 1.250 . S
C649 O655 1.263 . S
O650 Tb642 2.427 . S
O650 C646 1.275 . S
O651 Tb642 2.513 . S
O651 C646 1.246 . S
O652 Tb642 2.453 . S
O652 C648 1.245 . S
O653 Tb640 2.343 . S
O653 Tb642 2.596 . S
O653 C648 1.259 . S
O654 Tb642 2.374 . S
O654 C649 1.250 . S
O655 Tb640 2.353 . S
O655 C649 1.263 . S
C656 O657 1.275 . S
C656 O658 1.246 . S
O657 Tb640 2.427 . S
O657 C656 1.275 . S
O658 Tb640 2.513 . S
O658 C656 1.246 . S
C659 O643 1.245 . S
C659 O644 1.259 . S
Tb660 O663 2.453 . S
Tb660 O664 2.596 . S
Tb660 O665 2.374 . S
Tb660 O673 2.343 . S
Tb660 O675 2.353 . S
Tb660 O677 2.427 . S
Tb660 O678 2.513 . S
C661 O665 1.251 . S
C661 O667 1.263 . S
Tb662 O664 2.343 . S
Tb662 O667 2.353 . S
Tb662 O670 2.427 . S
Tb662 O671 2.513 . S
Tb662 O672 2.453 . S
Tb662 O673 2.596 . S
Tb662 O674 2.374 . S
O663 Tb660 2.453 . S
O663 C679 1.245 . S
O664 Tb660 2.596 . S
O664 Tb662 2.343 . S
O664 C679 1.259 . S
O665 Tb660 2.374 . S
O665 C661 1.251 . S
C666 O670 1.275 . S
C666 O671 1.246 . S
O667 C661 1.263 . S
O667 Tb662 2.353 . S
C668 O672 1.245 . S
C668 O673 1.259 . S
C669 O674 1.250 . S
C669 O675 1.263 . S
O670 Tb662 2.427 . S
O670 C666 1.275 . S
O671 Tb662 2.513 . S
O671 C666 1.246 . S
O672 Tb662 2.453 . S
O672 C668 1.245 . S
O673 Tb660 2.343 . S
O673 Tb662 2.596 . S
O673 C668 1.259 . S
O674 Tb662 2.374 . S
O674 C669 1.250 . S
O675 Tb660 2.353 . S
O675 C669 1.263 . S
C676 O677 1.275 . S
C676 O678 1.246 . S
O677 Tb660 2.427 . S
O677 C676 1.275 . S
O678 Tb660 2.513 . S
O678 C676 1.246 . S
C679 O663 1.245 . S
C679 O664 1.259 . S
Tb680 O683 2.453 . S
Tb680 O684 2.596 . S
Tb680 O685 2.374 . S
Tb680 O693 2.343 . S
Tb680 O695 2.353 . S
Tb680 O697 2.427 . S
Tb680 O698 2.513 . S
C681 O685 1.251 . S
C681 O687 1.263 . S
Tb682 O684 2.343 . S
Tb682 O687 2.353 . S
Tb682 O690 2.427 . S
Tb682 O691 2.513 . S
Tb682 O692 2.453 . S
Tb682 O693 2.596 . S
Tb682 O694 2.374 . S
O683 Tb680 2.453 . S
O683 C699 1.245 . S
O684 Tb680 2.596 . S
O684 Tb682 2.343 . S
O684 C699 1.259 . S
O685 Tb680 2.374 . S
O685 C681 1.251 . S
C686 O690 1.275 . S
C686 O691 1.246 . S
O687 C681 1.263 . S
O687 Tb682 2.353 . S
C688 O692 1.245 . S
C688 O693 1.259 . S
C689 O694 1.250 . S
C689 O695 1.263 . S
O690 Tb682 2.427 . S
O690 C686 1.275 . S
O691 Tb682 2.513 . S
O691 C686 1.246 . S
O692 Tb682 2.453 . S
O692 C688 1.245 . S
O693 Tb680 2.343 . S
O693 Tb682 2.596 . S
O693 C688 1.259 . S
O694 Tb682 2.374 . S
O694 C689 1.250 . S
O695 Tb680 2.353 . S
O695 C689 1.263 . S
C696 O697 1.275 . S
C696 O698 1.246 . S
O697 Tb680 2.427 . S
O697 C696 1.275 . S
O698 Tb680 2.513 . S
O698 C696 1.246 . S
C699 O683 1.245 . S
C699 O684 1.259 . S
Tb700 O703 2.453 . S
Tb700 O704 2.596 . S
Tb700 O705 2.374 . S
Tb700 O713 2.343 . S
Tb700 O715 2.353 . S
Tb700 O717 2.427 . S
Tb700 O718 2.513 . S
C701 O705 1.251 . S
C701 O707 1.263 . S
Tb702 O704 2.343 . S
Tb702 O707 2.353 . S
Tb702 O710 2.427 . S
Tb702 O711 2.513 . S
Tb702 O712 2.453 . S
Tb702 O713 2.596 . S
Tb702 O714 2.374 . S
O703 Tb700 2.453 . S
O703 C719 1.245 . S
O704 Tb700 2.596 . S
O704 Tb702 2.343 . S
O704 C719 1.259 . S
O705 Tb700 2.374 . S
O705 C701 1.251 . S
C706 O710 1.275 . S
C706 O711 1.246 . S
O707 C701 1.263 . S
O707 Tb702 2.353 . S
C708 O712 1.245 . S
C708 O713 1.259 . S
C709 O714 1.250 . S
C709 O715 1.263 . S
O710 Tb702 2.427 . S
O710 C706 1.275 . S
O711 Tb702 2.513 . S
O711 C706 1.246 . S
O712 Tb702 2.453 . S
O712 C708 1.245 . S
O713 Tb700 2.343 . S
O713 Tb702 2.596 . S
O713 C708 1.259 . S
O714 Tb702 2.374 . S
O714 C709 1.250 . S
O715 Tb700 2.353 . S
O715 C709 1.263 . S
C716 O717 1.275 . S
C716 O718 1.246 . S
O717 Tb700 2.427 . S
O717 C716 1.275 . S
O718 Tb700 2.513 . S
O718 C716 1.246 . S
C719 O703 1.245 . S
C719 O704 1.259 . S
Tb720 O723 2.453 . S
Tb720 O724 2.596 . S
Tb720 O725 2.374 . S
Tb720 O733 2.343 . S
Tb720 O735 2.353 . S
Tb720 O737 2.427 . S
Tb720 O738 2.513 . S
C721 O725 1.251 . S
C721 O727 1.263 . S
Tb722 O724 2.343 . S
Tb722 O727 2.353 . S
Tb722 O730 2.427 . S
Tb722 O731 2.513 . S
Tb722 O732 2.453 . S
Tb722 O733 2.596 . S
Tb722 O734 2.374 . S
O723 Tb720 2.453 . S
O723 C739 1.245 . S
O724 Tb720 2.596 . S
O724 Tb722 2.343 . S
O724 C739 1.259 . S
O725 Tb720 2.374 . S
O725 C721 1.251 . S
C726 O730 1.275 . S
C726 O731 1.246 . S
O727 C721 1.263 . S
O727 Tb722 2.353 . S
C728 O732 1.245 . S
C728 O733 1.259 . S
C729 O734 1.250 . S
C729 O735 1.263 . S
O730 Tb722 2.427 . S
O730 C726 1.275 . S
O731 Tb722 2.513 . S
O731 C726 1.246 . S
O732 Tb722 2.453 . S
O732 C728 1.245 . S
O733 Tb720 2.343 . S
O733 Tb722 2.596 . S
O733 C728 1.259 . S
O734 Tb722 2.374 . S
O734 C729 1.250 . S
O735 Tb720 2.353 . S
O735 C729 1.263 . S
C736 O737 1.275 . S
C736 O738 1.246 . S
O737 Tb720 2.427 . S
O737 C736 1.275 . S
O738 Tb720 2.513 . S
O738 C736 1.246 . S
C739 O723 1.245 . S
C739 O724 1.259 . S
Tb740 O743 2.453 . S
Tb740 O744 2.596 . S
Tb740 O745 2.374 . S
Tb740 O753 2.343 . S
Tb740 O755 2.353 . S
Tb740 O757 2.427 . S
Tb740 O758 2.513 . S
C741 O745 1.251 . S
C741 O747 1.263 . S
Tb742 O744 2.343 . S
Tb742 O747 2.353 . S
Tb742 O750 2.427 . S
Tb742 O751 2.513 . S
Tb742 O752 2.453 . S
Tb742 O753 2.596 . S
Tb742 O754 2.374 . S
O743 Tb740 2.453 . S
O743 C759 1.245 . S
O744 Tb740 2.596 . S
O744 Tb742 2.343 . S
O744 C759 1.259 . S
O745 Tb740 2.374 . S
O745 C741 1.251 . S
C746 O750 1.275 . S
C746 O751 1.246 . S
O747 C741 1.263 . S
O747 Tb742 2.353 . S
C748 O752 1.245 . S
C748 O753 1.259 . S
C749 O754 1.250 . S
C749 O755 1.263 . S
O750 Tb742 2.427 . S
O750 C746 1.275 . S
O751 Tb742 2.513 . S
O751 C746 1.246 . S
O752 Tb742 2.453 . S
O752 C748 1.245 . S
O753 Tb740 2.343 . S
O753 Tb742 2.596 . S
O753 C748 1.259 . S
O754 Tb742 2.374 . S
O754 C749 1.250 . S
O755 Tb740 2.353 . S
O755 C749 1.263 . S
C756 O757 1.275 . S
C756 O758 1.246 . S
O757 Tb740 2.427 . S
O757 C756 1.275 . S
O758 Tb740 2.513 . S
O758 C756 1.246 . S
C759 O743 1.245 . S
C759 O744 1.259 . S
Tb760 O763 2.453 . S
Tb760 O764 2.596 . S
Tb760 O765 2.374 . S
Tb760 O773 2.343 . S
Tb760 O775 2.353 . S
Tb760 O777 2.427 . S
Tb760 O778 2.513 . S
C761 O765 1.251 . S
C761 O767 1.263 . S
Tb762 O764 2.343 . S
Tb762 O767 2.353 . S
Tb762 O770 2.427 . S
Tb762 O771 2.513 . S
Tb762 O772 2.453 . S
Tb762 O773 2.596 . S
Tb762 O774 2.374 . S
O763 Tb760 2.453 . S
O763 C779 1.245 . S
O764 Tb760 2.596 . S
O764 Tb762 2.343 . S
O764 C779 1.259 . S
O765 Tb760 2.374 . S
O765 C761 1.251 . S
C766 O770 1.275 . S
C766 O771 1.246 . S
O767 C761 1.263 . S
O767 Tb762 2.353 . S
C768 O772 1.245 . S
C768 O773 1.259 . S
C769 O774 1.250 . S
C769 O775 1.263 . S
O770 Tb762 2.427 . S
O770 C766 1.275 . S
O771 Tb762 2.513 . S
O771 C766 1.246 . S
O772 Tb762 2.453 . S
O772 C768 1.245 . S
O773 Tb760 2.343 . S
O773 Tb762 2.596 . S
O773 C768 1.259 . S
O774 Tb762 2.374 . S
O774 C769 1.250 . S
O775 Tb760 2.353 . S
O775 C769 1.263 . S
C776 O777 1.275 . S
C776 O778 1.246 . S
O777 Tb760 2.427 . S
O777 C776 1.275 . S
O778 Tb760 2.513 . S
O778 C776 1.246 . S
C779 O763 1.245 . S
C779 O764 1.259 . S
Tb780 O783 2.453 . S
Tb780 O784 2.596 . S
Tb780 O785 2.374 . S
Tb780 O793 2.343 . S
Tb780 O795 2.353 . S
Tb780 O797 2.427 . S
Tb780 O798 2.513 . S
C781 O785 1.251 . S
C781 O787 1.263 . S
Tb782 O784 2.343 . S
Tb782 O787 2.353 . S
Tb782 O790 2.427 . S
Tb782 O791 2.513 . S
Tb782 O792 2.453 . S
Tb782 O793 2.596 . S
Tb782 O794 2.374 . S
O783 Tb780 2.453 . S
O783 C799 1.245 . S
O784 Tb780 2.596 . S
O784 Tb782 2.343 . S
O784 C799 1.259 . S
O785 Tb780 2.374 . S
O785 C781 1.251 . S
C786 O790 1.275 . S
C786 O791 1.246 . S
O787 C781 1.263 . S
O787 Tb782 2.353 . S
C788 O792 1.245 . S
C788 O793 1.259 . S
C789 O794 1.250 . S
C789 O795 1.263 . S
O790 Tb782 2.427 . S
O790 C786 1.275 . S
O791 Tb782 2.513 . S
O791 C786 1.246 . S
O792 Tb782 2.453 . S
O792 C788 1.245 . S
O793 Tb780 2.343 . S
O793 Tb782 2.596 . S
O793 C788 1.259 . S
O794 Tb782 2.374 . S
O794 C789 1.250 . S
O795 Tb780 2.353 . S
O795 C789 1.263 . S
C796 O797 1.275 . S
C796 O798 1.246 . S
O797 Tb780 2.427 . S
O797 C796 1.275 . S
O798 Tb780 2.513 . S
O798 C796 1.246 . S
C799 O783 1.245 . S
C799 O784 1.259 . S
Tb800 O803 2.453 . S
Tb800 O804 2.596 . S
Tb800 O805 2.374 . S
Tb800 O813 2.343 . S
Tb800 O815 2.353 . S
Tb800 O817 2.427 . S
Tb800 O818 2.513 . S
C801 O805 1.251 . S
C801 O807 1.263 . S
Tb802 O804 2.343 . S
Tb802 O807 2.353 . S
Tb802 O810 2.427 . S
Tb802 O811 2.513 . S
Tb802 O812 2.453 . S
Tb802 O813 2.596 . S
Tb802 O814 2.374 . S
O803 Tb800 2.453 . S
O803 C819 1.245 . S
O804 Tb800 2.596 . S
O804 Tb802 2.343 . S
O804 C819 1.259 . S
O805 Tb800 2.374 . S
O805 C801 1.251 . S
C806 O810 1.275 . S
C806 O811 1.246 . S
O807 C801 1.263 . S
O807 Tb802 2.353 . S
C808 O812 1.245 . S
C808 O813 1.259 . S
C809 O814 1.250 . S
C809 O815 1.263 . S
O810 Tb802 2.427 . S
O810 C806 1.275 . S
O811 Tb802 2.513 . S
O811 C806 1.246 . S
O812 Tb802 2.453 . S
O812 C808 1.245 . S
O813 Tb800 2.343 . S
O813 Tb802 2.596 . S
O813 C808 1.259 . S
O814 Tb802 2.374 . S
O814 C809 1.250 . S
O815 Tb800 2.353 . S
O815 C809 1.263 . S
C816 O817 1.275 . S
C816 O818 1.246 . S
O817 Tb800 2.427 . S
O817 C816 1.275 . S
O818 Tb800 2.513 . S
O818 C816 1.246 . S
C819 O803 1.245 . S
C819 O804 1.259 . S
Tb820 O823 2.453 . S
Tb820 O824 2.596 . S
Tb820 O825 2.374 . S
Tb820 O833 2.343 . S
Tb820 O835 2.353 . S
Tb820 O837 2.427 . S
Tb820 O838 2.513 . S
C821 O825 1.251 . S
C821 O827 1.263 . S
Tb822 O824 2.343 . S
Tb822 O827 2.353 . S
Tb822 O830 2.427 . S
Tb822 O831 2.513 . S
Tb822 O832 2.453 . S
Tb822 O833 2.596 . S
Tb822 O834 2.374 . S
O823 Tb820 2.453 . S
O823 C839 1.245 . S
O824 Tb820 2.596 . S
O824 Tb822 2.343 . S
O824 C839 1.259 . S
O825 Tb820 2.374 . S
O825 C821 1.251 . S
C826 O830 1.275 . S
C826 O831 1.246 . S
O827 C821 1.263 . S
O827 Tb822 2.353 . S
C828 O832 1.245 . S
C828 O833 1.259 . S
C829 O834 1.250 . S
C829 O835 1.263 . S
O830 Tb822 2.427 . S
O830 C826 1.275 . S
O831 Tb822 2.513 . S
O831 C826 1.246 . S
O832 Tb822 2.453 . S
O832 C828 1.245 . S
O833 Tb820 2.343 . S
O833 Tb822 2.596 . S
O833 C828 1.259 . S
O834 Tb822 2.374 . S
O834 C829 1.250 . S
O835 Tb820 2.353 . S
O835 C829 1.263 . S
C836 O837 1.275 . S
C836 O838 1.246 . S
O837 Tb820 2.427 . S
O837 C836 1.275 . S
O838 Tb820 2.513 . S
O838 C836 1.246 . S
C839 O823 1.245 . S
C839 O824 1.259 . S
Tb840 O843 2.453 . S
Tb840 O844 2.596 . S
Tb840 O845 2.374 . S
Tb840 O853 2.343 . S
Tb840 O855 2.353 . S
Tb840 O857 2.427 . S
Tb840 O858 2.513 . S
C841 O845 1.251 . S
C841 O847 1.263 . S
Tb842 O844 2.343 . S
Tb842 O847 2.353 . S
Tb842 O850 2.427 . S
Tb842 O851 2.513 . S
Tb842 O852 2.453 . S
Tb842 O853 2.596 . S
Tb842 O854 2.374 . S
O843 Tb840 2.453 . S
O843 C859 1.245 . S
O844 Tb840 2.596 . S
O844 Tb842 2.343 . S
O844 C859 1.259 . S
O845 Tb840 2.374 . S
O845 C841 1.251 . S
C846 O850 1.275 . S
C846 O851 1.246 . S
O847 C841 1.263 . S
O847 Tb842 2.353 . S
C848 O852 1.245 . S
C848 O853 1.259 . S
C849 O854 1.250 . S
C849 O855 1.263 . S
O850 Tb842 2.427 . S
O850 C846 1.275 . S
O851 Tb842 2.513 . S
O851 C846 1.246 . S
O852 Tb842 2.453 . S
O852 C848 1.245 . S
O853 Tb840 2.343 . S
O853 Tb842 2.596 . S
O853 C848 1.259 . S
O854 Tb842 2.374 . S
O854 C849 1.250 . S
O855 Tb840 2.353 . S
O855 C849 1.263 . S
C856 O857 1.275 . S
C856 O858 1.246 . S
O857 Tb840 2.427 . S
O857 C856 1.275 . S
O858 Tb840 2.513 . S
O858 C856 1.246 . S
C859 O843 1.245 . S
C859 O844 1.259 . S
Tb860 O863 2.453 . S
Tb860 O864 2.596 . S
Tb860 O865 2.374 . S
Tb860 O873 2.343 . S
Tb860 O875 2.353 . S
Tb860 O877 2.427 . S
Tb860 O878 2.513 . S
C861 O865 1.251 . S
C861 O867 1.263 . S
Tb862 O864 2.343 . S
Tb862 O867 2.353 . S
Tb862 O870 2.427 . S
Tb862 O871 2.513 . S
Tb862 O872 2.453 . S
Tb862 O873 2.596 . S
Tb862 O874 2.374 . S
O863 Tb860 2.453 . S
O863 C879 1.245 . S
O864 Tb860 2.596 . S
O864 Tb862 2.343 . S
O864 C879 1.259 . S
O865 Tb860 2.374 . S
O865 C861 1.251 . S
C866 O870 1.275 . S
C866 O871 1.246 . S
O867 C861 1.263 . S
O867 Tb862 2.353 . S
C868 O872 1.245 . S
C868 O873 1.259 . S
C869 O874 1.250 . S
C869 O875 1.263 . S
O870 Tb862 2.427 . S
O870 C866 1.275 . S
O871 Tb862 2.513 . S
O871 C866 1.246 . S
O872 Tb862 2.453 . S
O872 C868 1.245 . S
O873 Tb860 2.343 . S
O873 Tb862 2.596 . S
O873 C868 1.259 . S
O874 Tb862 2.374 . S
O874 C869 1.250 . S
O875 Tb860 2.353 . S
O875 C869 1.263 . S
C876 O877 1.275 . S
C876 O878 1.246 . S
O877 Tb860 2.427 . S
O877 C876 1.275 . S
O878 Tb860 2.513 . S
O878 C876 1.246 . S
C879 O863 1.245 . S
C879 O864 1.259 . S
Tb880 O883 2.453 . S
Tb880 O884 2.596 . S
Tb880 O885 2.374 . S
Tb880 O893 2.343 . S
Tb880 O895 2.353 . S
Tb880 O897 2.427 . S
Tb880 O898 2.513 . S
C881 O885 1.251 . S
C881 O887 1.263 . S
Tb882 O884 2.343 . S
Tb882 O887 2.353 . S
Tb882 O890 2.427 . S
Tb882 O891 2.513 . S
Tb882 O892 2.453 . S
Tb882 O893 2.596 . S
Tb882 O894 2.374 . S
O883 Tb880 2.453 . S
O883 C899 1.245 . S
O884 Tb880 2.596 . S
O884 Tb882 2.343 . S
O884 C899 1.259 . S
O885 Tb880 2.374 . S
O885 C881 1.251 . S
C886 O890 1.275 . S
C886 O891 1.246 . S
O887 C881 1.263 . S
O887 Tb882 2.353 . S
C888 O892 1.245 . S
C888 O893 1.259 . S
C889 O894 1.250 . S
C889 O895 1.263 . S
O890 Tb882 2.427 . S
O890 C886 1.275 . S
O891 Tb882 2.513 . S
O891 C886 1.246 . S
O892 Tb882 2.453 . S
O892 C888 1.245 . S
O893 Tb880 2.343 . S
O893 Tb882 2.596 . S
O893 C888 1.259 . S
O894 Tb882 2.374 . S
O894 C889 1.250 . S
O895 Tb880 2.353 . S
O895 C889 1.263 . S
C896 O897 1.275 . S
C896 O898 1.246 . S
O897 Tb880 2.427 . S
O897 C896 1.275 . S
O898 Tb880 2.513 . S
O898 C896 1.246 . S
C899 O883 1.245 . S
C899 O884 1.259 . S
Tb900 O903 2.453 . S
Tb900 O904 2.596 . S
Tb900 O905 2.374 . S
Tb900 O913 2.343 . S
Tb900 O915 2.353 . S
Tb900 O917 2.427 . S
Tb900 O918 2.513 . S
C901 O905 1.251 . S
C901 O907 1.263 . S
Tb902 O904 2.343 . S
Tb902 O907 2.353 . S
Tb902 O910 2.427 . S
Tb902 O911 2.513 . S
Tb902 O912 2.453 . S
Tb902 O913 2.596 . S
Tb902 O914 2.374 . S
O903 Tb900 2.453 . S
O903 C919 1.245 . S
O904 Tb900 2.596 . S
O904 Tb902 2.343 . S
O904 C919 1.259 . S
O905 Tb900 2.374 . S
O905 C901 1.251 . S
C906 O910 1.275 . S
C906 O911 1.246 . S
O907 C901 1.263 . S
O907 Tb902 2.353 . S
C908 O912 1.245 . S
C908 O913 1.259 . S
C909 O914 1.250 . S
C909 O915 1.263 . S
O910 Tb902 2.427 . S
O910 C906 1.275 . S
O911 Tb902 2.513 . S
O911 C906 1.246 . S
O912 Tb902 2.453 . S
O912 C908 1.245 . S
O913 Tb900 2.343 . S
O913 Tb902 2.596 . S
O913 C908 1.259 . S
O914 Tb902 2.374 . S
O914 C909 1.250 . S
O915 Tb900 2.353 . S
O915 C909 1.263 . S
C916 O917 1.275 . S
C916 O918 1.246 . S
O917 Tb900 2.427 . S
O917 C916 1.275 . S
O918 Tb900 2.513 . S
O918 C916 1.246 . S
C919 O903 1.245 . S
C919 O904 1.259 . S
Tb920 O923 2.453 . S
Tb920 O924 2.596 . S
Tb920 O925 2.374 . S
Tb920 O933 2.343 . S
Tb920 O935 2.353 . S
Tb920 O937 2.427 . S
Tb920 O938 2.513 . S
C921 O925 1.251 . S
C921 O927 1.263 . S
Tb922 O924 2.343 . S
Tb922 O927 2.353 . S
Tb922 O930 2.427 . S
Tb922 O931 2.513 . S
Tb922 O932 2.453 . S
Tb922 O933 2.596 . S
Tb922 O934 2.374 . S
O923 Tb920 2.453 . S
O923 C939 1.245 . S
O924 Tb920 2.596 . S
O924 Tb922 2.343 . S
O924 C939 1.259 . S
O925 Tb920 2.374 . S
O925 C921 1.251 . S
C926 O930 1.275 . S
C926 O931 1.246 . S
O927 C921 1.263 . S
O927 Tb922 2.353 . S
C928 O932 1.245 . S
C928 O933 1.259 . S
C929 O934 1.250 . S
C929 O935 1.263 . S
O930 Tb922 2.427 . S
O930 C926 1.275 . S
O931 Tb922 2.513 . S
O931 C926 1.246 . S
O932 Tb922 2.453 . S
O932 C928 1.245 . S
O933 Tb920 2.343 . S
O933 Tb922 2.596 . S
O933 C928 1.259 . S
O934 Tb922 2.374 . S
O934 C929 1.250 . S
O935 Tb920 2.353 . S
O935 C929 1.263 . S
C936 O937 1.275 . S
C936 O938 1.246 . S
O937 Tb920 2.427 . S
O937 C936 1.275 . S
O938 Tb920 2.513 . S
O938 C936 1.246 . S
C939 O923 1.245 . S
C939 O924 1.259 . S
Tb940 O943 2.453 . S
Tb940 O944 2.596 . S
Tb940 O945 2.374 . S
Tb940 O953 2.343 . S
Tb940 O955 2.353 . S
Tb940 O957 2.427 . S
Tb940 O958 2.513 . S
C941 O945 1.251 . S
C941 O947 1.263 . S
Tb942 O944 2.343 . S
Tb942 O947 2.353 . S
Tb942 O950 2.427 . S
Tb942 O951 2.513 . S
Tb942 O952 2.453 . S
Tb942 O953 2.596 . S
Tb942 O954 2.374 . S
O943 Tb940 2.453 . S
O943 C959 1.245 . S
O944 Tb940 2.596 . S
O944 Tb942 2.343 . S
O944 C959 1.259 . S
O945 Tb940 2.374 . S
O945 C941 1.251 . S
C946 O950 1.275 . S
C946 O951 1.246 . S
O947 C941 1.263 . S
O947 Tb942 2.353 . S
C948 O952 1.245 . S
C948 O953 1.259 . S
C949 O954 1.250 . S
C949 O955 1.263 . S
O950 Tb942 2.427 . S
O950 C946 1.275 . S
O951 Tb942 2.513 . S
O951 C946 1.246 . S
O952 Tb942 2.453 . S
O952 C948 1.245 . S
O953 Tb940 2.343 . S
O953 Tb942 2.596 . S
O953 C948 1.259 . S
O954 Tb942 2.374 . S
O954 C949 1.250 . S
O955 Tb940 2.353 . S
O955 C949 1.263 . S
C956 O957 1.275 . S
C956 O958 1.246 . S
O957 Tb940 2.427 . S
O957 C956 1.275 . S
O958 Tb940 2.513 . S
O958 C956 1.246 . S
C959 O943 1.245 . S
C959 O944 1.259 . S
H960 C966 0.930 . S
H961 C970 0.930 . S
H962 C975 0.929 . S
H963 C973 0.929 . S
H964 C968 0.929 . S
H965 C974 0.929 . S
C966 H960 0.930 . S
C966 C967 1.367 1_655 S
C966 C974 1.378 . S
C967 C966 1.367 1_455 S
C967 C975 1.433 . S
C968 H964 0.929 . S
C968 C970 1.378 . S
C968 C972 1.350 . S
C969 C972 1.463 . S
C969 C974 1.350 1_455 S
C969 N977 1.427 . S
C970 H961 0.930 . S
C970 C968 1.378 . S
C970 C971 1.367 . S
C971 C970 1.367 . S
C971 C973 1.433 1_455 S
C972 C968 1.350 . S
C972 C969 1.463 . S
C972 N976 1.427 1_455 S
C973 H963 0.929 . S
C973 C971 1.433 1_655 S
C973 N976 1.384 . S
C974 H965 0.929 . S
C974 C966 1.378 . S
C974 C969 1.350 1_655 S
C975 H962 0.929 . S
C975 C967 1.433 . S
C975 N977 1.384 . S
N976 C972 1.427 1_655 S
N976 C973 1.384 . S
N977 C969 1.427 . S
N977 C975 1.384 . S
H978 C984 0.930 . S
H979 C988 0.930 . S
H980 C993 0.929 . S
H981 C991 0.929 . S
H982 C986 0.929 . S
H983 C992 0.929 . S
C984 H978 0.930 . S
C984 C985 1.367 1_565 S
C984 C992 1.378 . S
C985 C984 1.367 1_545 S
C985 C993 1.433 . S
C986 H982 0.929 . S
C986 C988 1.378 . S
C986 C990 1.350 . S
C987 C990 1.463 . S
C987 C992 1.350 1_545 S
C987 N995 1.427 . S
C988 H979 0.930 . S
C988 C986 1.378 . S
C988 C989 1.367 . S
C989 C988 1.367 . S
C989 C991 1.433 1_545 S
C990 C986 1.350 . S
C990 C987 1.463 . S
C990 N994 1.427 1_545 S
C991 H981 0.929 . S
C991 C989 1.433 1_565 S
C991 N994 1.384 . S
C992 H983 0.929 . S
C992 C984 1.378 . S
C992 C987 1.350 1_565 S
C993 H980 0.929 . S
C993 C985 1.433 . S
C993 N995 1.384 . S
N994 C990 1.427 1_565 S
N994 C991 1.384 . S
N995 C987 1.427 . S
N995 C993 1.384 . S
H996 C1002 0.930 . S
H997 C1006 0.930 . S
H998 C1011 0.929 . S
H999 C1009 0.929 . S
H1000 C1004 0.929 . S
H1001 C1010 0.929 . S
C1002 H996 0.930 . S
C1002 C1003 1.367 . S
C1002 C1010 1.378 . S
C1003 C1002 1.367 . S
C1003 C1011 1.433 1_455 S
C1004 H1000 0.929 . S
C1004 C1006 1.378 . S
C1004 C1008 1.350 1_655 S
C1005 C1008 1.463 . S
C1005 C1010 1.350 . S
C1005 N1013 1.427 1_455 S
C1006 H997 0.930 . S
C1006 C1004 1.378 . S
C1006 C1007 1.367 1_655 S
C1007 C1006 1.367 1_455 S
C1007 C1009 1.433 . S
C1008 C1004 1.350 1_455 S
C1008 C1005 1.463 . S
C1008 N1012 1.427 . S
C1009 H999 0.929 . S
C1009 C1007 1.433 . S
C1009 N1012 1.384 . S
C1010 H1001 0.929 . S
C1010 C1002 1.378 . S
C1010 C1005 1.350 . S
C1011 H998 0.929 . S
C1011 C1003 1.433 1_655 S
C1011 N1013 1.384 . S
N1012 C1008 1.427 . S
N1012 C1009 1.384 . S
N1013 C1005 1.427 1_655 S
N1013 C1011 1.384 . S
H1014 C1020 0.930 . S
H1015 C1024 0.930 . S
H1016 C1029 0.929 . S
H1017 C1027 0.929 . S
H1018 C1022 0.929 . S
H1019 C1028 0.929 . S
C1020 H1014 0.930 . S
C1020 C1021 1.367 1_565 S
C1020 C1028 1.378 . S
C1021 C1020 1.367 1_545 S
C1021 C1029 1.433 . S
C1022 H1018 0.929 . S
C1022 C1024 1.378 . S
C1022 C1026 1.350 . S
C1023 C1026 1.463 . S
C1023 C1028 1.350 1_545 S
C1023 N1031 1.427 . S
C1024 H1015 0.930 . S
C1024 C1022 1.378 . S
C1024 C1025 1.367 . S
C1025 C1024 1.367 . S
C1025 C1027 1.433 1_545 S
C1026 C1022 1.350 . S
C1026 C1023 1.463 . S
C1026 N1030 1.427 1_545 S
C1027 H1017 0.929 . S
C1027 C1025 1.433 1_565 S
C1027 N1030 1.384 . S
C1028 H1019 0.929 . S
C1028 C1020 1.378 . S
C1028 C1023 1.350 1_565 S
C1029 H1016 0.929 . S
C1029 C1021 1.433 . S
C1029 N1031 1.384 . S
N1030 C1026 1.427 1_565 S
N1030 C1027 1.384 . S
N1031 C1023 1.427 . S
N1031 C1029 1.384 . S
H1032 C1038 0.930 . S
H1033 C1042 0.930 . S
H1034 C1047 0.929 . S
H1035 C1045 0.929 . S
H1036 C1040 0.929 . S
H1037 C1046 0.929 . S
C1038 H1032 0.930 . S
C1038 C1039 1.367 . S
C1038 C1046 1.378 . S
C1039 C1038 1.367 . S
C1039 C1047 1.433 1_545 S
C1040 H1036 0.929 . S
C1040 C1042 1.378 . S
C1040 C1044 1.318 1_565 S
C1041 C1044 1.468 . S
C1041 C1046 1.350 . S
C1041 N1049 1.427 1_545 S
C1042 H1033 0.930 . S
C1042 C1040 1.378 . S
C1042 C1043 1.367 . S
C1043 C1042 1.367 . S
C1043 C1045 1.433 1_565 S
C1044 C1040 1.318 1_545 S
C1044 C1041 1.468 . S
C1044 N1048 1.458 . S
C1045 H1035 0.929 . S
C1045 C1043 1.433 1_545 S
C1045 N1048 1.384 . S
C1046 H1037 0.929 . S
C1046 C1038 1.378 . S
C1046 C1041 1.350 . S
C1047 H1034 0.929 . S
C1047 C1039 1.433 1_565 S
C1047 N1049 1.384 . S
N1048 C1044 1.458 . S
N1048 C1045 1.384 . S
N1049 C1041 1.427 1_565 S
N1049 C1047 1.384 . S
H1050 C1056 0.930 . S
H1051 C1060 0.930 . S
H1052 C1065 0.929 . S
H1053 C1063 0.929 1_655 S
H1054 C1058 0.929 . S
H1055 C1064 0.941 . S
C1056 H1050 0.930 . S
C1056 C1057 1.367 1_655 S
C1056 C1064 1.380 . S
C1057 C1056 1.367 1_455 S
C1057 C1065 1.433 . S
C1058 H1054 0.929 . S
C1058 C1060 1.378 . S
C1058 C1062 1.350 . S
C1059 C1062 1.463 . S
C1059 C1064 1.336 1_455 S
C1059 N1067 1.427 . S
C1060 H1051 0.930 . S
C1060 C1058 1.378 . S
C1060 C1061 1.367 . S
C1061 C1060 1.367 . S
C1061 C1063 1.433 . S
C1062 C1058 1.350 . S
C1062 C1059 1.463 . S
C1062 N1066 1.427 . S
C1063 H1053 0.929 1_455 S
C1063 C1061 1.433 . S
C1063 N1066 1.384 . S
C1064 H1055 0.941 . S
C1064 C1056 1.380 . S
C1064 C1059 1.336 1_655 S
C1065 H1052 0.929 . S
C1065 C1057 1.433 . S
C1065 N1067 1.384 . S
N1066 C1062 1.427 . S
N1066 C1063 1.384 . S
N1067 C1059 1.427 . S
N1067 C1065 1.384 . S
H1068 C1074 0.930 1_565 S
H1069 C1078 0.930 . S
H1070 C1083 0.929 . S
H1071 C1081 0.929 . S
H1072 C1076 0.929 . S
H1073 C1082 0.929 1_565 S
C1074 H1068 0.930 1_545 S
C1074 C1075 1.367 . S
C1074 C1082 1.378 . S
C1075 C1074 1.367 . S
C1075 C1083 1.433 . S
C1076 H1072 0.929 . S
C1076 C1078 1.378 . S
C1076 C1080 1.350 . S
C1077 C1080 1.463 . S
C1077 C1082 1.350 . S
C1077 N1085 1.427 . S
C1078 H1069 0.930 . S
C1078 C1076 1.378 . S
C1078 C1079 1.367 . S
C1079 C1078 1.367 . S
C1079 C1081 1.433 . S
C1080 C1076 1.350 . S
C1080 C1077 1.463 . S
C1080 N1084 1.427 . S
C1081 H1071 0.929 . S
C1081 C1079 1.433 . S
C1081 N1084 1.384 . S
C1082 H1073 0.929 1_545 S
C1082 C1074 1.378 . S
C1082 C1077 1.350 . S
C1083 H1070 0.929 . S
C1083 C1075 1.433 . S
C1083 N1085 1.384 . S
N1084 C1080 1.427 . S
N1084 C1081 1.384 . S
N1085 C1077 1.427 . S
N1085 C1083 1.384 . S
H1086 C1092 0.930 . S
H1087 C1096 0.930 . S
H1088 C1101 0.929 . S
H1089 C1099 0.929 . S
H1090 C1094 0.929 . S
H1091 C1100 0.929 . S
C1092 H1086 0.930 . S
C1092 C1093 1.367 . S
C1092 C1100 1.378 . S
C1093 C1092 1.367 . S
C1093 C1101 1.433 1_455 S
C1094 H1090 0.929 . S
C1094 C1096 1.378 . S
C1094 C1098 1.350 1_655 S
C1095 C1098 1.463 . S
C1095 C1100 1.350 . S
C1095 N1103 1.427 1_455 S
C1096 H1087 0.930 . S
C1096 C1094 1.378 . S
C1096 C1097 1.367 . S
C1097 C1096 1.367 . S
C1097 C1099 1.433 1_655 S
C1098 C1094 1.350 1_455 S
C1098 C1095 1.463 . S
C1098 N1102 1.427 . S
C1099 H1089 0.929 . S
C1099 C1097 1.433 1_455 S
C1099 N1102 1.384 . S
C1100 H1091 0.929 . S
C1100 C1092 1.378 . S
C1100 C1095 1.350 . S
C1101 H1088 0.929 . S
C1101 C1093 1.433 1_655 S
C1101 N1103 1.384 . S
N1102 C1098 1.427 . S
N1102 C1099 1.384 . S
N1103 C1095 1.427 1_655 S
N1103 C1101 1.384 . S
H1104 C1110 0.930 . S
H1105 C1114 0.930 . S
H1106 C1119 0.929 . S
H1107 C1117 0.929 . S
H1108 C1112 0.929 . S
H1109 C1118 0.929 . S
C1110 H1104 0.930 . S
C1110 C1111 1.367 1_556 S
C1110 C1118 1.378 . S
C1111 C1110 1.367 1_554 S
C1111 C1119 1.433 . S
C1112 H1108 0.929 . S
C1112 C1114 1.378 . S
C1112 C1116 1.350 . S
C1113 C1116 1.463 . S
C1113 C1118 1.350 1_554 S
C1113 N1121 1.427 . S
C1114 H1105 0.930 . S
C1114 C1112 1.378 . S
C1114 C1115 1.367 . S
C1115 C1114 1.367 . S
C1115 C1117 1.433 1_554 S
C1116 C1112 1.350 . S
C1116 C1113 1.463 . S
C1116 N1120 1.427 1_554 S
C1117 H1107 0.929 . S
C1117 C1115 1.433 1_556 S
C1117 N1120 1.384 . S
C1118 H1109 0.929 . S
C1118 C1110 1.378 . S
C1118 C1113 1.350 1_556 S
C1119 H1106 0.929 . S
C1119 C1111 1.433 . S
C1119 N1121 1.384 . S
N1120 C1116 1.427 1_556 S
N1120 C1117 1.384 . S
N1121 C1113 1.427 . S
N1121 C1119 1.384 . S
H1122 C1128 0.930 . S
H1123 C1132 0.930 . S
H1124 C1137 0.929 . S
H1125 C1135 0.929 . S
H1126 C1130 0.929 . S
H1127 C1136 0.929 . S
C1128 H1122 0.930 . S
C1128 C1129 1.367 1_556 S
C1128 C1136 1.378 . S
C1129 C1128 1.367 1_554 S
C1129 C1137 1.433 . S
C1130 H1126 0.929 . S
C1130 C1132 1.378 . S
C1130 C1134 1.350 . S
C1131 C1134 1.463 . S
C1131 C1136 1.350 1_554 S
C1131 N1139 1.427 . S
C1132 H1123 0.930 . S
C1132 C1130 1.378 . S
C1132 C1133 1.367 . S
C1133 C1132 1.367 . S
C1133 C1135 1.433 1_554 S
C1134 C1130 1.350 . S
C1134 C1131 1.463 . S
C1134 N1138 1.427 1_554 S
C1135 H1125 0.929 . S
C1135 C1133 1.433 1_556 S
C1135 N1138 1.384 . S
C1136 H1127 0.929 . S
C1136 C1128 1.378 . S
C1136 C1131 1.350 1_556 S
C1137 H1124 0.929 . S
C1137 C1129 1.433 . S
C1137 N1139 1.384 . S
N1138 C1134 1.427 1_556 S
N1138 C1135 1.384 . S
N1139 C1131 1.427 . S
N1139 C1137 1.384 . S
H1140 C1146 0.930 . S
H1141 C1150 0.968 . S
H1142 C1155 0.929 . S
H1143 C1153 0.929 . S
H1144 C1148 0.929 . S
H1145 C1154 0.929 . S
C1146 H1140 0.930 . S
C1146 C1147 1.367 . S
C1146 C1154 1.378 . S
C1147 C1146 1.367 . S
C1147 C1155 1.433 1_554 S
C1148 H1144 0.929 . S
C1148 C1150 1.383 . S
C1148 C1152 1.350 1_556 S
C1149 C1152 1.463 . S
C1149 C1154 1.350 . S
C1149 N1157 1.427 1_554 S
C1150 H1141 0.968 . S
C1150 C1148 1.383 . S
C1150 C1151 1.325 1_556 S
C1151 C1150 1.325 1_554 S
C1151 C1153 1.433 . S
C1152 C1148 1.350 1_554 S
C1152 C1149 1.463 . S
C1152 N1156 1.427 . S
C1153 H1143 0.929 . S
C1153 C1151 1.433 . S
C1153 N1156 1.384 . S
C1154 H1145 0.929 . S
C1154 C1146 1.378 . S
C1154 C1149 1.350 . S
C1155 H1142 0.929 . S
C1155 C1147 1.433 1_556 S
C1155 N1157 1.384 . S
N1156 C1152 1.427 . S
N1156 C1153 1.384 . S
N1157 C1149 1.427 1_556 S
N1157 C1155 1.384 . S
H1158 C1164 0.930 . S
H1159 C1168 0.940 . S
H1160 C1173 0.929 . S
H1161 C1171 0.929 . S
H1162 C1166 0.929 1_556 S
H1163 C1172 0.929 . S
C1164 H1158 0.930 . S
C1164 C1165 1.367 . S
C1164 C1172 1.378 . S
C1165 C1164 1.367 . S
C1165 C1173 1.433 . S
C1166 H1162 0.929 1_554 S
C1166 C1168 1.376 1_554 S
C1166 C1170 1.350 . S
C1167 C1170 1.463 . S
C1167 C1172 1.350 . S
C1167 N1175 1.427 . S
C1168 H1159 0.940 . S
C1168 C1166 1.376 1_556 S
C1168 C1169 1.360 1_556 S
C1169 C1168 1.360 1_554 S
C1169 C1171 1.433 . S
C1170 C1166 1.350 . S
C1170 C1167 1.463 . S
C1170 N1174 1.427 . S
C1171 H1161 0.929 . S
C1171 C1169 1.433 . S
C1171 N1174 1.384 . S
C1172 H1163 0.929 . S
C1172 C1164 1.378 . S
C1172 C1167 1.350 . S
C1173 H1160 0.929 . S
C1173 C1165 1.433 . S
C1173 N1175 1.384 . S
N1174 C1170 1.427 . S
N1174 C1171 1.384 . S
N1175 C1167 1.427 . S
N1175 C1173 1.384 . S
H1176 C1182 0.930 . S
H1177 C1186 0.930 . S
H1178 C1191 0.929 . S
H1179 C1189 0.929 . S
H1180 C1184 0.929 . S
H1181 C1190 0.922 1_554 S
C1182 H1176 0.930 . S
C1182 C1183 1.367 . S
C1182 C1190 1.389 . S
C1183 C1182 1.367 . S
C1183 C1191 1.433 . S
C1184 H1180 0.929 . S
C1184 C1186 1.378 . S
C1184 C1188 1.350 . S
C1185 C1188 1.463 . S
C1185 C1190 1.346 1_554 S
C1185 N1193 1.427 1_554 S
C1186 H1177 0.930 . S
C1186 C1184 1.378 . S
C1186 C1187 1.367 . S
C1187 C1186 1.367 . S
C1187 C1189 1.433 . S
C1188 C1184 1.350 . S
C1188 C1185 1.463 . S
C1188 N1192 1.427 . S
C1189 H1179 0.929 . S
C1189 C1187 1.433 . S
C1189 N1192 1.384 . S
C1190 H1181 0.922 1_556 S
C1190 C1182 1.389 . S
C1190 C1185 1.346 1_556 S
C1191 H1178 0.929 . S
C1191 C1183 1.433 . S
C1191 N1193 1.384 . S
N1192 C1188 1.427 . S
N1192 C1189 1.384 . S
N1193 C1185 1.427 1_556 S
N1193 C1191 1.384 . S
H1194 C1200 0.930 . S
H1195 C1204 0.930 . S
H1196 C1209 0.929 . S
H1197 C1207 0.929 . S
H1198 C1202 0.929 . S
H1199 C1208 0.929 . S
C1200 H1194 0.930 . S
C1200 C1201 1.367 . S
C1200 C1208 1.378 . S
C1201 C1200 1.367 . S
C1201 C1209 1.433 . S
C1202 H1198 0.929 . S
C1202 C1204 1.378 . S
C1202 C1206 1.350 . S
C1203 C1206 1.463 1_556 S
C1203 C1208 1.350 . S
C1203 N1211 1.427 . S
C1204 H1195 0.930 . S
C1204 C1202 1.378 . S
C1204 C1205 1.367 . S
C1205 C1204 1.367 . S
C1205 C1207 1.433 . S
C1206 C1202 1.350 . S
C1206 C1203 1.463 1_554 S
C1206 N1210 1.427 . S
C1207 H1197 0.929 . S
C1207 C1205 1.433 . S
C1207 N1210 1.384 . S
C1208 H1199 0.929 . S
C1208 C1200 1.378 . S
C1208 C1203 1.350 . S
C1209 H1196 0.929 . S
C1209 C1201 1.433 . S
C1209 N1211 1.384 . S
N1210 C1206 1.427 . S
N1210 C1207 1.384 . S
N1211 C1203 1.427 . S
N1211 C1209 1.384 . S
H1212 C1218 0.930 . S
H1213 C1222 0.930 . S
H1214 C1227 0.929 . S
H1215 C1225 0.929 . S
H1216 C1220 0.929 . S
H1217 C1226 0.929 . S
C1218 H1212 0.930 . S
C1218 C1219 1.367 . S
C1218 C1226 1.378 . S
C1219 C1218 1.367 . S
C1219 C1227 1.433 . S
C1220 H1216 0.929 . S
C1220 C1222 1.378 . S
C1220 C1224 1.350 . S
C1221 C1224 1.463 1_556 S
C1221 C1226 1.350 . S
C1221 N1229 1.427 . S
C1222 H1213 0.930 . S
C1222 C1220 1.378 . S
C1222 C1223 1.367 . S
C1223 C1222 1.367 . S
C1223 C1225 1.433 . S
C1224 C1220 1.350 . S
C1224 C1221 1.463 1_554 S
C1224 N1228 1.427 . S
C1225 H1215 0.929 . S
C1225 C1223 1.433 . S
C1225 N1228 1.384 . S
C1226 H1217 0.929 . S
C1226 C1218 1.378 . S
C1226 C1221 1.350 . S
C1227 H1214 0.929 . S
C1227 C1219 1.433 . S
C1227 N1229 1.384 . S
N1228 C1224 1.427 . S
N1228 C1225 1.384 . S
N1229 C1221 1.427 . S
N1229 C1227 1.384 . S
H1230 C1236 0.930 . S
H1231 C1240 0.930 . S
H1232 C1245 0.929 . S
H1233 C1243 0.929 . S
H1234 C1238 0.929 . S
H1235 C1244 0.929 . S
C1236 H1230 0.930 . S
C1236 C1237 1.367 . S
C1236 C1244 1.378 . S
C1237 C1236 1.367 . S
C1237 C1245 1.433 . S
C1238 H1234 0.929 . S
C1238 C1240 1.378 . S
C1238 C1242 1.350 . S
C1239 C1242 1.463 1_556 S
C1239 C1244 1.350 . S
C1239 N1247 1.427 . S
C1240 H1231 0.930 . S
C1240 C1238 1.378 . S
C1240 C1241 1.367 . S
C1241 C1240 1.367 . S
C1241 C1243 1.433 . S
C1242 C1238 1.350 . S
C1242 C1239 1.463 1_554 S
C1242 N1246 1.427 . S
C1243 H1233 0.929 . S
C1243 C1241 1.433 . S
C1243 N1246 1.384 . S
C1244 H1235 0.929 . S
C1244 C1236 1.378 . S
C1244 C1239 1.350 . S
C1245 H1232 0.929 . S
C1245 C1237 1.433 . S
C1245 N1247 1.384 . S
N1246 C1242 1.427 . S
N1246 C1243 1.384 . S
N1247 C1239 1.427 . S
N1247 C1245 1.384 . S
H1248 C1254 0.930 . S
H1249 C1258 0.930 . S
H1250 C1263 0.929 . S
H1251 C1261 0.929 . S
H1252 C1256 0.929 . S
H1253 C1262 0.929 . S
C1254 H1248 0.930 . S
C1254 C1255 1.367 . S
C1254 C1262 1.378 . S
C1255 C1254 1.367 . S
C1255 C1263 1.433 . S
C1256 H1252 0.929 . S
C1256 C1258 1.378 . S
C1256 C1260 1.350 . S
C1257 C1260 1.463 1_655 S
C1257 C1262 1.350 . S
C1257 N1265 1.427 . S
C1258 H1249 0.930 . S
C1258 C1256 1.378 . S
C1258 C1259 1.367 . S
C1259 C1258 1.367 . S
C1259 C1261 1.433 . S
C1260 C1256 1.350 . S
C1260 C1257 1.463 1_455 S
C1260 N1264 1.427 . S
C1261 H1251 0.929 . S
C1261 C1259 1.433 . S
C1261 N1264 1.384 . S
C1262 H1253 0.929 . S
C1262 C1254 1.378 . S
C1262 C1257 1.350 . S
C1263 H1250 0.929 . S
C1263 C1255 1.433 . S
C1263 N1265 1.384 . S
N1264 C1260 1.427 . S
N1264 C1261 1.384 . S
N1265 C1257 1.427 . S
N1265 C1263 1.384 . S
H1266 C1272 0.930 . S
H1267 C1276 0.930 . S
H1268 C1281 0.929 . S
H1269 C1279 0.929 . S
H1270 C1274 0.929 . S
H1271 C1280 0.902 1_545 S
C1272 H1266 0.930 . S
C1272 C1273 1.367 . S
C1272 C1280 1.378 . S
C1273 C1272 1.367 . S
C1273 C1281 1.433 . S
C1274 H1270 0.929 . S
C1274 C1276 1.378 . S
C1274 C1278 1.350 . S
C1275 C1278 1.463 . S
C1275 C1280 1.350 1_545 S
C1275 N1283 1.427 1_545 S
C1276 H1267 0.930 . S
C1276 C1274 1.378 . S
C1276 C1277 1.367 . S
C1277 C1276 1.367 . S
C1277 C1279 1.433 . S
C1278 C1274 1.350 . S
C1278 C1275 1.463 . S
C1278 N1282 1.427 . S
C1279 H1269 0.929 . S
C1279 C1277 1.433 . S
C1279 N1282 1.384 . S
C1280 H1271 0.902 1_565 S
C1280 C1272 1.378 . S
C1280 C1275 1.350 1_565 S
C1281 H1268 0.929 . S
C1281 C1273 1.433 . S
C1281 N1283 1.384 . S
N1282 C1278 1.427 . S
N1282 C1279 1.384 . S
N1283 C1275 1.427 1_565 S
N1283 C1281 1.384 . S
H1284 C1290 0.930 . S
H1285 C1294 0.930 . S
H1286 C1299 0.929 . S
H1287 C1297 0.929 . S
H1288 C1292 0.929 . S
H1289 C1298 0.929 . S
C1290 H1284 0.930 . S
C1290 C1291 1.367 . S
C1290 C1298 1.378 . S
C1291 C1290 1.367 . S
C1291 C1299 1.433 . S
C1292 H1288 0.929 . S
C1292 C1294 1.378 . S
C1292 C1296 1.350 . S
C1293 C1296 1.463 1_655 S
C1293 C1298 1.350 . S
C1293 N1301 1.427 . S
C1294 H1285 0.930 . S
C1294 C1292 1.378 . S
C1294 C1295 1.367 . S
C1295 C1294 1.367 . S
C1295 C1297 1.433 . S
C1296 C1292 1.350 . S
C1296 C1293 1.463 1_455 S
C1296 N1300 1.427 . S
C1297 H1287 0.929 . S
C1297 C1295 1.433 . S
C1297 N1300 1.384 . S
C1298 H1289 0.929 . S
C1298 C1290 1.378 . S
C1298 C1293 1.350 . S
C1299 H1286 0.929 . S
C1299 C1291 1.433 . S
C1299 N1301 1.384 . S
N1300 C1296 1.427 . S
N1300 C1297 1.384 . S
N1301 C1293 1.427 . S
N1301 C1299 1.384 . S
H1302 C1308 0.930 . S
H1303 C1312 0.930 . S
H1304 C1317 0.929 . S
H1305 C1315 0.929 . S
H1306 C1310 0.929 . S
H1307 C1316 0.929 . S
C1308 H1302 0.930 . S
C1308 C1309 1.367 . S
C1308 C1316 1.378 . S
C1309 C1308 1.367 . S
C1309 C1317 1.433 . S
C1310 H1306 0.929 . S
C1310 C1312 1.378 . S
C1310 C1314 1.350 . S
C1311 C1314 1.463 1_545 S
C1311 C1316 1.350 . S
C1311 N1319 1.427 . S
C1312 H1303 0.930 . S
C1312 C1310 1.378 . S
C1312 C1313 1.367 . S
C1313 C1312 1.367 . S
C1313 C1315 1.433 . S
C1314 C1310 1.350 . S
C1314 C1311 1.463 1_565 S
C1314 N1318 1.427 . S
C1315 H1305 0.929 . S
C1315 C1313 1.433 . S
C1315 N1318 1.384 . S
C1316 H1307 0.929 . S
C1316 C1308 1.378 . S
C1316 C1311 1.350 . S
C1317 H1304 0.929 . S
C1317 C1309 1.433 . S
C1317 N1319 1.384 . S
N1318 C1314 1.427 . S
N1318 C1315 1.384 . S
N1319 C1311 1.427 . S
N1319 C1317 1.384 . S
H1320 C1326 0.930 . S
H1321 C1330 0.930 . S
H1322 C1335 0.929 . S
H1323 C1333 0.929 . S
H1324 C1328 0.929 . S
H1325 C1334 0.929 . S
C1326 H1320 0.930 . S
C1326 C1327 1.367 . S
C1326 C1334 1.378 . S
C1327 C1326 1.367 . S
C1327 C1335 1.433 . S
C1328 H1324 0.929 . S
C1328 C1330 1.378 . S
C1328 C1332 1.350 . S
C1329 C1332 1.463 1_565 S
C1329 C1334 1.350 . S
C1329 N1337 1.427 . S
C1330 H1321 0.930 . S
C1330 C1328 1.378 . S
C1330 C1331 1.367 . S
C1331 C1330 1.367 . S
C1331 C1333 1.433 . S
C1332 C1328 1.350 . S
C1332 C1329 1.463 1_545 S
C1332 N1336 1.427 . S
C1333 H1323 0.929 . S
C1333 C1331 1.433 . S
C1333 N1336 1.384 . S
C1334 H1325 0.929 . S
C1334 C1326 1.378 . S
C1334 C1329 1.350 . S
C1335 H1322 0.929 . S
C1335 C1327 1.433 . S
C1335 N1337 1.384 . S
N1336 C1332 1.427 . S
N1336 C1333 1.384 . S
N1337 C1329 1.427 . S
N1337 C1335 1.384 . S
H1338 C1344 0.930 . S
H1339 C1348 0.930 . S
H1340 C1353 0.929 . S
H1341 C1351 0.929 . S
H1342 C1346 0.929 . S
H1343 C1352 0.929 . S
C1344 H1338 0.930 . S
C1344 C1345 1.367 . S
C1344 C1352 1.378 . S
C1345 C1344 1.367 . S
C1345 C1353 1.433 . S
C1346 H1342 0.929 . S
C1346 C1348 1.378 . S
C1346 C1350 1.350 . S
C1347 C1350 1.463 1_455 S
C1347 C1352 1.350 . S
C1347 N1355 1.427 . S
C1348 H1339 0.930 . S
C1348 C1346 1.378 . S
C1348 C1349 1.367 . S
C1349 C1348 1.367 . S
C1349 C1351 1.433 . S
C1350 C1346 1.350 . S
C1350 C1347 1.463 1_655 S
C1350 N1354 1.427 . S
C1351 H1341 0.929 . S
C1351 C1349 1.433 . S
C1351 N1354 1.384 . S
C1352 H1343 0.929 . S
C1352 C1344 1.378 . S
C1352 C1347 1.350 . S
C1353 H1340 0.929 . S
C1353 C1345 1.433 . S
C1353 N1355 1.384 . S
N1354 C1350 1.427 . S
N1354 C1351 1.384 . S
N1355 C1347 1.427 . S
N1355 C1353 1.384 . S
H1356 C1362 0.930 . S
H1357 C1366 0.930 . S
H1358 C1371 0.929 . S
H1359 C1369 0.929 . S
H1360 C1364 0.929 . S
H1361 C1370 0.929 . S
C1362 H1356 0.930 . S
C1362 C1363 1.367 . S
C1362 C1370 1.378 . S
C1363 C1362 1.367 . S
C1363 C1371 1.433 . S
C1364 H1360 0.929 . S
C1364 C1366 1.378 . S
C1364 C1368 1.350 . S
C1365 C1368 1.463 1_565 S
C1365 C1370 1.350 . S
C1365 N1373 1.427 . S
C1366 H1357 0.930 . S
C1366 C1364 1.378 . S
C1366 C1367 1.367 . S
C1367 C1366 1.367 . S
C1367 C1369 1.433 . S
C1368 C1364 1.350 . S
C1368 C1365 1.463 1_545 S
C1368 N1372 1.427 . S
C1369 H1359 0.929 . S
C1369 C1367 1.433 . S
C1369 N1372 1.384 . S
C1370 H1361 0.929 . S
C1370 C1362 1.378 . S
C1370 C1365 1.350 . S
C1371 H1358 0.929 . S
C1371 C1363 1.433 . S
C1371 N1373 1.384 . S
N1372 C1368 1.427 . S
N1372 C1369 1.384 . S
N1373 C1365 1.427 . S
N1373 C1371 1.384 . S
H1374 C1380 0.930 . S
H1375 C1384 0.930 . S
H1376 C1389 0.929 . S
H1377 C1387 0.929 . S
H1378 C1382 0.929 . S
H1379 C1388 0.929 . S
C1380 H1374 0.930 . S
C1380 C1381 1.367 . S
C1380 C1388 1.378 . S
C1381 C1380 1.367 . S
C1381 C1389 1.433 . S
C1382 H1378 0.929 . S
C1382 C1384 1.378 . S
C1382 C1386 1.350 . S
C1383 C1386 1.463 1_455 S
C1383 C1388 1.350 . S
C1383 N1391 1.427 . S
C1384 H1375 0.930 . S
C1384 C1382 1.378 . S
C1384 C1385 1.367 . S
C1385 C1384 1.367 . S
C1385 C1387 1.433 . S
C1386 C1382 1.350 . S
C1386 C1383 1.463 1_655 S
C1386 N1390 1.427 . S
C1387 H1377 0.929 . S
C1387 C1385 1.433 . S
C1387 N1390 1.384 . S
C1388 H1379 0.929 . S
C1388 C1380 1.378 . S
C1388 C1383 1.350 . S
C1389 H1376 0.929 . S
C1389 C1381 1.433 . S
C1389 N1391 1.384 . S
N1390 C1386 1.427 . S
N1390 C1387 1.384 . S
N1391 C1383 1.427 . S
N1391 C1389 1.384 . S
H1392 C1398 0.930 . S
H1393 C1402 0.930 . S
H1394 C1407 0.929 . S
H1395 C1405 0.929 . S
H1396 C1400 0.929 . S
H1397 C1406 0.929 . S
C1398 H1392 0.930 . S
C1398 C1399 1.367 . S
C1398 C1406 1.378 . S
C1399 C1398 1.367 . S
C1399 C1407 1.433 . S
C1400 H1396 0.929 . S
C1400 C1402 1.378 . S
C1400 C1404 1.350 . S
C1401 C1404 1.463 . S
C1401 C1406 1.350 . S
C1401 N1409 1.427 . S
C1402 H1393 0.930 . S
C1402 C1400 1.378 . S
C1402 C1403 1.367 . S
C1403 C1402 1.367 . S
C1403 C1405 1.433 . S
C1404 C1400 1.350 . S
C1404 C1401 1.463 . S
C1404 N1408 1.427 . S
C1405 H1395 0.929 . S
C1405 C1403 1.433 . S
C1405 N1408 1.384 . S
C1406 H1397 0.929 . S
C1406 C1398 1.378 . S
C1406 C1401 1.350 . S
C1407 H1394 0.929 . S
C1407 C1399 1.433 . S
C1407 N1409 1.384 . S
N1408 C1404 1.427 . S
N1408 C1405 1.384 . S
N1409 C1401 1.427 . S
N1409 C1407 1.384 . S
H1410 C1416 0.930 . S
H1411 C1420 0.930 . S
H1412 C1425 0.929 . S
H1413 C1423 0.929 . S
H1414 C1418 0.929 . S
H1415 C1424 0.929 . S
C1416 H1410 0.930 . S
C1416 C1417 1.367 1_545 S
C1416 C1424 1.378 . S
C1417 C1416 1.367 1_565 S
C1417 C1425 1.433 . S
C1418 H1414 0.929 . S
C1418 C1420 1.378 . S
C1418 C1422 1.350 . S
C1419 C1422 1.463 . S
C1419 C1424 1.350 1_565 S
C1419 N1427 1.427 . S
C1420 H1411 0.930 . S
C1420 C1418 1.378 . S
C1420 C1421 1.367 . S
C1421 C1420 1.367 . S
C1421 C1423 1.433 1_565 S
C1422 C1418 1.350 . S
C1422 C1419 1.463 . S
C1422 N1426 1.427 1_565 S
C1423 H1413 0.929 . S
C1423 C1421 1.433 1_545 S
C1423 N1426 1.384 . S
C1424 H1415 0.929 . S
C1424 C1416 1.378 . S
C1424 C1419 1.350 1_545 S
C1425 H1412 0.929 . S
C1425 C1417 1.433 . S
C1425 N1427 1.384 . S
N1426 C1422 1.427 1_545 S
N1426 C1423 1.384 . S
N1427 C1419 1.427 . S
N1427 C1425 1.384 . S
H1428 C1434 0.930 . S
H1429 C1438 0.930 . S
H1430 C1443 0.929 . S
H1431 C1441 0.929 . S
H1432 C1436 0.929 . S
H1433 C1442 0.929 . S
C1434 H1428 0.930 . S
C1434 C1435 1.367 1_655 S
C1434 C1442 1.378 . S
C1435 C1434 1.367 1_455 S
C1435 C1443 1.433 . S
C1436 H1432 0.929 . S
C1436 C1438 1.378 . S
C1436 C1440 1.350 . S
C1437 C1440 1.463 . S
C1437 C1442 1.350 1_455 S
C1437 N1445 1.427 . S
C1438 H1429 0.930 . S
C1438 C1436 1.378 . S
C1438 C1439 1.367 . S
C1439 C1438 1.367 . S
C1439 C1441 1.433 1_455 S
C1440 C1436 1.350 . S
C1440 C1437 1.463 . S
C1440 N1444 1.427 1_455 S
C1441 H1431 0.929 . S
C1441 C1439 1.433 1_655 S
C1441 N1444 1.384 . S
C1442 H1433 0.929 . S
C1442 C1434 1.378 . S
C1442 C1437 1.350 1_655 S
C1443 H1430 0.929 . S
C1443 C1435 1.433 . S
C1443 N1445 1.384 . S
N1444 C1440 1.427 1_655 S
N1444 C1441 1.384 . S
N1445 C1437 1.427 . S
N1445 C1443 1.384 . S
H1446 C1452 0.930 . S
H1447 C1456 0.930 . S
H1448 C1461 0.929 . S
H1449 C1459 0.929 . S
H1450 C1454 0.929 . S
H1451 C1460 0.929 . S
C1452 H1446 0.930 . S
C1452 C1453 1.367 1_565 S
C1452 C1460 1.378 . S
C1453 C1452 1.367 1_545 S
C1453 C1461 1.433 . S
C1454 H1450 0.929 . S
C1454 C1456 1.378 . S
C1454 C1458 1.350 . S
C1455 C1458 1.463 . S
C1455 C1460 1.350 1_545 S
C1455 N1463 1.427 . S
C1456 H1447 0.930 . S
C1456 C1454 1.378 . S
C1456 C1457 1.367 . S
C1457 C1456 1.367 . S
C1457 C1459 1.433 1_545 S
C1458 C1454 1.350 . S
C1458 C1455 1.463 . S
C1458 N1462 1.427 1_545 S
C1459 H1449 0.929 . S
C1459 C1457 1.433 1_565 S
C1459 N1462 1.384 . S
C1460 H1451 0.929 . S
C1460 C1452 1.378 . S
C1460 C1455 1.350 1_565 S
C1461 H1448 0.929 . S
C1461 C1453 1.433 . S
C1461 N1463 1.384 . S
N1462 C1458 1.427 1_565 S
N1462 C1459 1.384 . S
N1463 C1455 1.427 . S
N1463 C1461 1.384 . S
H1464 C1470 0.930 . S
H1465 C1474 0.942 . S
H1466 C1479 0.929 . S
H1467 C1477 0.929 . S
H1468 C1472 0.929 . S
H1469 C1478 0.929 . S
C1470 H1464 0.930 . S
C1470 C1471 1.367 . S
C1470 C1478 1.378 . S
C1471 C1470 1.367 . S
C1471 C1479 1.433 1_455 S
C1472 H1468 0.929 . S
C1472 C1474 1.379 . S
C1472 C1476 1.350 1_655 S
C1473 C1476 1.463 . S
C1473 C1478 1.350 . S
C1473 N1481 1.427 1_455 S
C1474 H1465 0.942 . S
C1474 C1472 1.379 . S
C1474 C1475 1.355 1_655 S
C1475 C1474 1.355 1_455 S
C1475 C1477 1.433 . S
C1476 C1472 1.350 1_455 S
C1476 C1473 1.463 . S
C1476 N1480 1.427 . S
C1477 H1467 0.929 . S
C1477 C1475 1.433 . S
C1477 N1480 1.384 . S
C1478 H1469 0.929 . S
C1478 C1470 1.378 . S
C1478 C1473 1.350 . S
C1479 H1466 0.929 . S
C1479 C1471 1.433 1_655 S
C1479 N1481 1.384 . S
N1480 C1476 1.427 . S
N1480 C1477 1.384 . S
N1481 C1473 1.427 1_655 S
N1481 C1479 1.384 . S
H1482 C1488 0.930 . S
H1483 C1492 0.930 . S
H1484 C1497 0.929 . S
H1485 C1495 0.929 1_565 S
H1486 C1490 0.929 . S
H1487 C1496 0.916 1_565 S
C1488 H1482 0.930 . S
C1488 C1489 1.367 . S
C1488 C1496 1.378 . S
C1489 C1488 1.367 . S
C1489 C1497 1.433 . S
C1490 H1486 0.929 . S
C1490 C1492 1.378 . S
C1490 C1494 1.350 . S
C1491 C1494 1.463 . S
C1491 C1496 1.350 . S
C1491 N1499 1.427 . S
C1492 H1483 0.930 . S
C1492 C1490 1.378 . S
C1492 C1493 1.367 . S
C1493 C1492 1.367 . S
C1493 C1495 1.433 . S
C1494 C1490 1.350 . S
C1494 C1491 1.463 . S
C1494 N1498 1.427 . S
C1495 H1485 0.929 1_545 S
C1495 C1493 1.433 . S
C1495 N1498 1.384 . S
C1496 H1487 0.916 1_545 S
C1496 C1488 1.378 . S
C1496 C1491 1.350 . S
C1497 H1484 0.929 . S
C1497 C1489 1.433 . S
C1497 N1499 1.384 . S
N1498 C1494 1.427 . S
N1498 C1495 1.384 . S
N1499 C1491 1.427 . S
N1499 C1497 1.384 . S
H1500 C1506 0.930 . S
H1501 C1510 0.930 . S
H1502 C1515 0.929 . S
H1503 C1513 0.929 . S
H1504 C1508 0.929 . S
H1505 C1514 0.929 . S
C1506 H1500 0.930 . S
C1506 C1507 1.367 1_655 S
C1506 C1514 1.378 . S
C1507 C1506 1.367 1_455 S
C1507 C1515 1.433 . S
C1508 H1504 0.929 . S
C1508 C1510 1.378 . S
C1508 C1512 1.350 . S
C1509 C1512 1.463 . S
C1509 C1514 1.350 1_455 S
C1509 N1517 1.427 . S
C1510 H1501 0.930 . S
C1510 C1508 1.378 . S
C1510 C1511 1.367 1_455 S
C1511 C1510 1.367 1_655 S
C1511 C1513 1.433 . S
C1512 C1508 1.350 . S
C1512 C1509 1.463 . S
C1512 N1516 1.427 1_455 S
C1513 H1503 0.929 . S
C1513 C1511 1.433 . S
C1513 N1516 1.384 . S
C1514 H1505 0.929 . S
C1514 C1506 1.378 . S
C1514 C1509 1.350 1_655 S
C1515 H1502 0.929 . S
C1515 C1507 1.433 . S
C1515 N1517 1.384 . S
N1516 C1512 1.427 1_655 S
N1516 C1513 1.384 . S
N1517 C1509 1.427 . S
N1517 C1515 1.384 . S
H1518 C1524 0.930 1_565 S
H1519 C1528 0.930 . S
H1520 C1533 0.929 . S
H1521 C1531 0.929 1_565 S
H1522 C1526 0.929 . S
H1523 C1532 0.929 1_565 S
C1524 H1518 0.930 1_545 S
C1524 C1525 1.367 . S
C1524 C1532 1.378 . S
C1525 C1524 1.367 . S
C1525 C1533 1.433 . S
C1526 H1522 0.929 . S
C1526 C1528 1.378 . S
C1526 C1530 1.350 . S
C1527 C1530 1.463 . S
C1527 C1532 1.350 . S
C1527 N1535 1.427 . S
C1528 H1519 0.930 . S
C1528 C1526 1.378 . S
C1528 C1529 1.367 . S
C1529 C1528 1.367 . S
C1529 C1531 1.433 . S
C1530 C1526 1.350 . S
C1530 C1527 1.463 . S
C1530 N1534 1.427 . S
C1531 H1521 0.929 1_545 S
C1531 C1529 1.433 . S
C1531 N1534 1.384 . S
C1532 H1523 0.929 1_545 S
C1532 C1524 1.378 . S
C1532 C1527 1.350 . S
C1533 H1520 0.929 . S
C1533 C1525 1.433 . S
C1533 N1535 1.384 . S
N1534 C1530 1.427 . S
N1534 C1531 1.384 . S
N1535 C1527 1.427 . S
N1535 C1533 1.384 . S
H1536 C1542 0.930 . S
H1537 C1546 0.916 1_556 S
H1538 C1551 0.917 1_556 S
H1539 C1549 0.929 . S
H1540 C1544 0.914 1_556 S
H1541 C1550 0.929 . S
C1542 H1536 0.930 . S
C1542 C1543 1.367 . S
C1542 C1550 1.378 . S
C1543 C1542 1.367 . S
C1543 C1551 1.446 . S
C1544 H1540 0.914 1_554 S
C1544 C1546 1.378 . S
C1544 C1548 1.366 . S
C1545 C1548 1.463 . S
C1545 C1550 1.350 . S
C1545 N1553 1.445 . S
C1546 H1537 0.916 1_554 S
C1546 C1544 1.378 . S
C1546 C1547 1.380 . S
C1547 C1546 1.380 . S
C1547 C1549 1.433 . S
C1548 C1544 1.366 . S
C1548 C1545 1.463 . S
C1548 N1552 1.427 . S
C1549 H1539 0.929 . S
C1549 C1547 1.433 . S
C1549 N1552 1.384 . S
C1550 H1541 0.929 . S
C1550 C1542 1.378 . S
C1550 C1545 1.350 . S
C1551 H1538 0.917 1_554 S
C1551 C1543 1.446 . S
C1551 N1553 1.384 . S
N1552 C1548 1.427 . S
N1552 C1549 1.384 . S
N1553 C1545 1.445 . S
N1553 C1551 1.384 . S
H1554 C1560 0.930 . S
H1555 C1564 0.930 . S
H1556 C1569 0.929 . S
H1557 C1567 0.929 . S
H1558 C1562 0.929 . S
H1559 C1568 0.929 . S
C1560 H1554 0.930 . S
C1560 C1561 1.367 . S
C1560 C1568 1.378 . S
C1561 C1560 1.367 . S
C1561 C1569 1.433 1_554 S
C1562 H1558 0.929 . S
C1562 C1564 1.378 . S
C1562 C1566 1.350 1_556 S
C1563 C1566 1.463 . S
C1563 C1568 1.350 . S
C1563 N1571 1.427 1_554 S
C1564 H1555 0.930 . S
C1564 C1562 1.378 . S
C1564 C1565 1.367 1_556 S
C1565 C1564 1.367 1_554 S
C1565 C1567 1.433 . S
C1566 C1562 1.350 1_554 S
C1566 C1563 1.463 . S
C1566 N1570 1.427 . S
C1567 H1557 0.929 . S
C1567 C1565 1.433 . S
C1567 N1570 1.384 . S
C1568 H1559 0.929 . S
C1568 C1560 1.378 . S
C1568 C1563 1.350 . S
C1569 H1556 0.929 . S
C1569 C1561 1.433 1_556 S
C1569 N1571 1.384 . S
N1570 C1566 1.427 . S
N1570 C1567 1.384 . S
N1571 C1563 1.427 1_556 S
N1571 C1569 1.384 . S
H1572 C1578 0.930 . S
H1573 C1582 0.930 . S
H1574 C1587 0.929 . S
H1575 C1585 0.929 . S
H1576 C1580 0.929 . S
H1577 C1586 0.929 . S
C1578 H1572 0.930 . S
C1578 C1579 1.367 . S
C1578 C1586 1.378 . S
C1579 C1578 1.367 . S
C1579 C1587 1.433 1_554 S
C1580 H1576 0.929 . S
C1580 C1582 1.378 . S
C1580 C1584 1.350 1_556 S
C1581 C1584 1.463 . S
C1581 C1586 1.350 . S
C1581 N1589 1.427 1_554 S
C1582 H1573 0.930 . S
C1582 C1580 1.378 . S
C1582 C1583 1.367 1_556 S
C1583 C1582 1.367 1_554 S
C1583 C1585 1.433 . S
C1584 C1580 1.350 1_554 S
C1584 C1581 1.463 . S
C1584 N1588 1.427 . S
C1585 H1575 0.929 . S
C1585 C1583 1.433 . S
C1585 N1588 1.384 . S
C1586 H1577 0.929 . S
C1586 C1578 1.378 . S
C1586 C1581 1.350 . S
C1587 H1574 0.929 . S
C1587 C1579 1.433 1_556 S
C1587 N1589 1.384 . S
N1588 C1584 1.427 . S
N1588 C1585 1.384 . S
N1589 C1581 1.427 1_556 S
N1589 C1587 1.384 . S
H1590 C1596 0.930 . S
H1591 C1600 0.930 . S
H1592 C1605 0.929 . S
H1593 C1603 0.929 . S
H1594 C1598 0.929 . S
H1595 C1604 0.929 . S
C1596 H1590 0.930 . S
C1596 C1597 1.367 . S
C1596 C1604 1.378 . S
C1597 C1596 1.367 . S
C1597 C1605 1.433 1_554 S
C1598 H1594 0.929 . S
C1598 C1600 1.378 . S
C1598 C1602 1.350 1_556 S
C1599 C1602 1.463 . S
C1599 C1604 1.350 . S
C1599 N1607 1.427 1_554 S
C1600 H1591 0.930 . S
C1600 C1598 1.378 . S
C1600 C1601 1.367 1_556 S
C1601 C1600 1.367 1_554 S
C1601 C1603 1.433 . S
C1602 C1598 1.350 1_554 S
C1602 C1599 1.463 . S
C1602 N1606 1.427 . S
C1603 H1593 0.929 . S
C1603 C1601 1.433 . S
C1603 N1606 1.384 . S
C1604 H1595 0.929 . S
C1604 C1596 1.378 . S
C1604 C1599 1.350 . S
C1605 H1592 0.929 . S
C1605 C1597 1.433 1_556 S
C1605 N1607 1.384 . S
N1606 C1602 1.427 . S
N1606 C1603 1.384 . S
N1607 C1599 1.427 1_556 S
N1607 C1605 1.384 . S
H1608 C1614 0.930 . S
H1609 C1618 0.930 . S
H1610 C1623 0.929 . S
H1611 C1621 0.929 . S
H1612 C1616 0.929 . S
H1613 C1622 0.929 . S
C1614 H1608 0.930 . S
C1614 C1615 1.367 . S
C1614 C1622 1.378 . S
C1615 C1614 1.367 . S
C1615 C1623 1.433 . S
C1616 H1612 0.929 . S
C1616 C1618 1.378 . S
C1616 C1620 1.350 . S
C1617 C1620 1.463 . S
C1617 C1622 1.350 . S
C1617 N1625 1.427 . S
C1618 H1609 0.930 . S
C1618 C1616 1.378 . S
C1618 C1619 1.367 . S
C1619 C1618 1.367 . S
C1619 C1621 1.433 . S
C1620 C1616 1.350 . S
C1620 C1617 1.463 . S
C1620 N1624 1.427 . S
C1621 H1611 0.929 . S
C1621 C1619 1.433 . S
C1621 N1624 1.384 . S
C1622 H1613 0.929 . S
C1622 C1614 1.378 . S
C1622 C1617 1.350 . S
C1623 H1610 0.929 . S
C1623 C1615 1.433 . S
C1623 N1625 1.384 . S
N1624 C1620 1.427 . S
N1624 C1621 1.384 . S
N1625 C1617 1.427 . S
N1625 C1623 1.384 . S
H1626 C1632 0.930 . S
H1627 C1636 0.930 . S
H1628 C1641 0.929 . S
H1629 C1639 0.929 . S
H1630 C1634 0.929 . S
H1631 C1640 0.929 . S
C1632 H1626 0.930 . S
C1632 C1633 1.367 . S
C1632 C1640 1.378 . S
C1633 C1632 1.367 . S
C1633 C1641 1.433 . S
C1634 H1630 0.929 . S
C1634 C1636 1.378 . S
C1634 C1638 1.350 . S
C1635 C1638 1.463 . S
C1635 C1640 1.350 . S
C1635 N1643 1.427 . S
C1636 H1627 0.930 . S
C1636 C1634 1.378 . S
C1636 C1637 1.367 . S
C1637 C1636 1.367 . S
C1637 C1639 1.433 . S
C1638 C1634 1.350 . S
C1638 C1635 1.463 . S
C1638 N1642 1.427 . S
C1639 H1629 0.929 . S
C1639 C1637 1.433 . S
C1639 N1642 1.384 . S
C1640 H1631 0.929 . S
C1640 C1632 1.378 . S
C1640 C1635 1.350 . S
C1641 H1628 0.929 . S
C1641 C1633 1.433 . S
C1641 N1643 1.384 . S
N1642 C1638 1.427 . S
N1642 C1639 1.384 . S
N1643 C1635 1.427 . S
N1643 C1641 1.384 . S
H1644 C1650 0.930 . S
H1645 C1654 0.930 . S
H1646 C1659 0.929 . S
H1647 C1657 0.929 . S
H1648 C1652 0.929 . S
H1649 C1658 0.929 . S
C1650 H1644 0.930 . S
C1650 C1651 1.367 . S
C1650 C1658 1.378 . S
C1651 C1650 1.367 . S
C1651 C1659 1.433 . S
C1652 H1648 0.929 . S
C1652 C1654 1.378 . S
C1652 C1656 1.350 . S
C1653 C1656 1.463 . S
C1653 C1658 1.350 . S
C1653 N1661 1.427 . S
C1654 H1645 0.930 . S
C1654 C1652 1.378 . S
C1654 C1655 1.367 . S
C1655 C1654 1.367 . S
C1655 C1657 1.433 . S
C1656 C1652 1.350 . S
C1656 C1653 1.463 . S
C1656 N1660 1.427 . S
C1657 H1647 0.929 . S
C1657 C1655 1.433 . S
C1657 N1660 1.384 . S
C1658 H1649 0.929 . S
C1658 C1650 1.378 . S
C1658 C1653 1.350 . S
C1659 H1646 0.929 . S
C1659 C1651 1.433 . S
C1659 N1661 1.384 . S
N1660 C1656 1.427 . S
N1660 C1657 1.384 . S
N1661 C1653 1.427 . S
N1661 C1659 1.384 . S
H1662 C1668 0.930 . S
H1663 C1672 0.930 . S
H1664 C1677 0.929 . S
H1665 C1675 0.929 . S
H1666 C1670 0.929 . S
H1667 C1676 0.929 . S
C1668 H1662 0.930 . S
C1668 C1669 1.367 . S
C1668 C1676 1.378 . S
C1669 C1668 1.367 . S
C1669 C1677 1.433 . S
C1670 H1666 0.929 . S
C1670 C1672 1.378 . S
C1670 C1674 1.350 . S
C1671 C1674 1.463 . S
C1671 C1676 1.350 . S
C1671 N1679 1.427 . S
C1672 H1663 0.930 . S
C1672 C1670 1.378 . S
C1672 C1673 1.367 . S
C1673 C1672 1.367 . S
C1673 C1675 1.433 . S
C1674 C1670 1.350 . S
C1674 C1671 1.463 . S
C1674 N1678 1.427 . S
C1675 H1665 0.929 . S
C1675 C1673 1.433 . S
C1675 N1678 1.384 . S
C1676 H1667 0.929 . S
C1676 C1668 1.378 . S
C1676 C1671 1.350 . S
C1677 H1664 0.929 . S
C1677 C1669 1.433 . S
C1677 N1679 1.384 . S
N1678 C1674 1.427 . S
N1678 C1675 1.384 . S
N1679 C1671 1.427 . S
N1679 C1677 1.384 . S
H1680 C1686 0.930 . S
H1681 C1690 0.930 . S
H1682 C1695 0.929 . S
H1683 C1693 0.929 . S
H1684 C1688 0.929 . S
H1685 C1694 0.929 . S
C1686 H1680 0.930 . S
C1686 C1687 1.367 . S
C1686 C1694 1.378 . S
C1687 C1686 1.367 . S
C1687 C1695 1.433 . S
C1688 H1684 0.929 . S
C1688 C1690 1.378 . S
C1688 C1692 1.350 . S
C1689 C1692 1.463 . S
C1689 C1694 1.350 . S
C1689 N1697 1.427 . S
C1690 H1681 0.930 . S
C1690 C1688 1.378 . S
C1690 C1691 1.367 . S
C1691 C1690 1.367 . S
C1691 C1693 1.433 . S
C1692 C1688 1.350 . S
C1692 C1689 1.463 . S
C1692 N1696 1.427 . S
C1693 H1683 0.929 . S
C1693 C1691 1.433 . S
C1693 N1696 1.384 . S
C1694 H1685 0.929 . S
C1694 C1686 1.378 . S
C1694 C1689 1.350 . S
C1695 H1682 0.929 . S
C1695 C1687 1.433 . S
C1695 N1697 1.384 . S
N1696 C1692 1.427 . S
N1696 C1693 1.384 . S
N1697 C1689 1.427 . S
N1697 C1695 1.384 . S
H1698 C1704 0.930 . S
H1699 C1708 0.930 . S
H1700 C1713 0.929 . S
H1701 C1711 0.929 . S
H1702 C1706 0.929 . S
H1703 C1712 0.929 . S
C1704 H1698 0.930 . S
C1704 C1705 1.367 . S
C1704 C1712 1.378 . S
C1705 C1704 1.367 . S
C1705 C1713 1.433 . S
C1706 H1702 0.929 . S
C1706 C1708 1.378 . S
C1706 C1710 1.350 . S
C1707 C1710 1.463 . S
C1707 C1712 1.350 . S
C1707 N1715 1.427 . S
C1708 H1699 0.930 . S
C1708 C1706 1.378 . S
C1708 C1709 1.367 . S
C1709 C1708 1.367 . S
C1709 C1711 1.433 . S
C1710 C1706 1.350 . S
C1710 C1707 1.463 . S
C1710 N1714 1.427 . S
C1711 H1701 0.929 . S
C1711 C1709 1.433 . S
C1711 N1714 1.384 . S
C1712 H1703 0.929 . S
C1712 C1704 1.378 . S
C1712 C1707 1.350 . S
C1713 H1700 0.929 . S
C1713 C1705 1.433 . S
C1713 N1715 1.384 . S
N1714 C1710 1.427 . S
N1714 C1711 1.384 . S
N1715 C1707 1.427 . S
N1715 C1713 1.384 . S
H1716 C1722 0.930 . S
H1717 C1726 0.930 . S
H1718 C1731 0.929 . S
H1719 C1729 0.929 . S
H1720 C1724 0.929 . S
H1721 C1730 0.929 . S
C1722 H1716 0.930 . S
C1722 C1723 1.367 . S
C1722 C1730 1.378 . S
C1723 C1722 1.367 . S
C1723 C1731 1.433 . S
C1724 H1720 0.929 . S
C1724 C1726 1.378 . S
C1724 C1728 1.350 . S
C1725 C1728 1.463 . S
C1725 C1730 1.350 . S
C1725 N1733 1.427 . S
C1726 H1717 0.930 . S
C1726 C1724 1.378 . S
C1726 C1727 1.367 . S
C1727 C1726 1.367 . S
C1727 C1729 1.433 . S
C1728 C1724 1.350 . S
C1728 C1725 1.463 . S
C1728 N1732 1.427 . S
C1729 H1719 0.929 . S
C1729 C1727 1.433 . S
C1729 N1732 1.384 . S
C1730 H1721 0.929 . S
C1730 C1722 1.378 . S
C1730 C1725 1.350 . S
C1731 H1718 0.929 . S
C1731 C1723 1.433 . S
C1731 N1733 1.384 . S
N1732 C1728 1.427 . S
N1732 C1729 1.384 . S
N1733 C1725 1.427 . S
N1733 C1731 1.384 . S
H1734 C1740 0.930 . S
H1735 C1744 0.930 . S
H1736 C1749 0.929 . S
H1737 C1747 0.929 . S
H1738 C1742 0.929 . S
H1739 C1748 0.929 . S
C1740 H1734 0.930 . S
C1740 C1741 1.367 . S
C1740 C1748 1.378 . S
C1741 C1740 1.367 . S
C1741 C1749 1.433 . S
C1742 H1738 0.929 . S
C1742 C1744 1.378 . S
C1742 C1746 1.350 . S
C1743 C1746 1.463 . S
C1743 C1748 1.350 . S
C1743 N1751 1.427 . S
C1744 H1735 0.930 . S
C1744 C1742 1.378 . S
C1744 C1745 1.367 . S
C1745 C1744 1.367 . S
C1745 C1747 1.433 . S
C1746 C1742 1.350 . S
C1746 C1743 1.463 . S
C1746 N1750 1.427 . S
C1747 H1737 0.929 . S
C1747 C1745 1.433 . S
C1747 N1750 1.384 . S
C1748 H1739 0.929 . S
C1748 C1740 1.378 . S
C1748 C1743 1.350 . S
C1749 H1736 0.929 . S
C1749 C1741 1.433 . S
C1749 N1751 1.384 . S
N1750 C1746 1.427 . S
N1750 C1747 1.384 . S
N1751 C1743 1.427 . S
N1751 C1749 1.384 . S
H1752 C1758 0.930 . S
H1753 C1762 0.930 . S
H1754 C1767 0.929 . S
H1755 C1765 0.929 . S
H1756 C1760 0.929 . S
H1757 C1766 0.929 . S
C1758 H1752 0.930 . S
C1758 C1759 1.367 . S
C1758 C1766 1.378 . S
C1759 C1758 1.367 . S
C1759 C1767 1.433 . S
C1760 H1756 0.929 . S
C1760 C1762 1.378 . S
C1760 C1764 1.350 . S
C1761 C1764 1.463 . S
C1761 C1766 1.350 . S
C1761 N1769 1.427 . S
C1762 H1753 0.930 . S
C1762 C1760 1.378 . S
C1762 C1763 1.367 . S
C1763 C1762 1.367 . S
C1763 C1765 1.433 . S
C1764 C1760 1.350 . S
C1764 C1761 1.463 . S
C1764 N1768 1.427 . S
C1765 H1755 0.929 . S
C1765 C1763 1.433 . S
C1765 N1768 1.384 . S
C1766 H1757 0.929 . S
C1766 C1758 1.378 . S
C1766 C1761 1.350 . S
C1767 H1754 0.929 . S
C1767 C1759 1.433 . S
C1767 N1769 1.384 . S
N1768 C1764 1.427 . S
N1768 C1765 1.384 . S
N1769 C1761 1.427 . S
N1769 C1767 1.384 . S
H1770 C1776 0.930 . S
H1771 C1780 0.930 . S
H1772 C1785 0.929 . S
H1773 C1783 0.929 . S
H1774 C1778 0.929 . S
H1775 C1784 0.929 . S
C1776 H1770 0.930 . S
C1776 C1777 1.367 . S
C1776 C1784 1.378 . S
C1777 C1776 1.367 . S
C1777 C1785 1.433 . S
C1778 H1774 0.929 . S
C1778 C1780 1.378 . S
C1778 C1782 1.350 . S
C1779 C1782 1.463 . S
C1779 C1784 1.350 . S
C1779 N1787 1.427 . S
C1780 H1771 0.930 . S
C1780 C1778 1.378 . S
C1780 C1781 1.367 . S
C1781 C1780 1.367 . S
C1781 C1783 1.433 . S
C1782 C1778 1.350 . S
C1782 C1779 1.463 . S
C1782 N1786 1.427 . S
C1783 H1773 0.929 . S
C1783 C1781 1.433 . S
C1783 N1786 1.384 . S
C1784 H1775 0.929 . S
C1784 C1776 1.378 . S
C1784 C1779 1.350 . S
C1785 H1772 0.929 . S
C1785 C1777 1.433 . S
C1785 N1787 1.384 . S
N1786 C1782 1.427 . S
N1786 C1783 1.384 . S
N1787 C1779 1.427 . S
N1787 C1785 1.384 . S
H1788 C1794 0.930 . S
H1789 C1798 0.930 . S
H1790 C1803 0.929 . S
H1791 C1801 0.929 . S
H1792 C1796 0.929 . S
H1793 C1802 0.929 . S
C1794 H1788 0.930 . S
C1794 C1795 1.367 . S
C1794 C1802 1.378 . S
C1795 C1794 1.367 . S
C1795 C1803 1.433 . S
C1796 H1792 0.929 . S
C1796 C1798 1.378 . S
C1796 C1800 1.350 . S
C1797 C1800 1.463 . S
C1797 C1802 1.350 . S
C1797 N1805 1.427 . S
C1798 H1789 0.930 . S
C1798 C1796 1.378 . S
C1798 C1799 1.367 . S
C1799 C1798 1.367 . S
C1799 C1801 1.433 . S
C1800 C1796 1.350 . S
C1800 C1797 1.463 . S
C1800 N1804 1.427 . S
C1801 H1791 0.929 . S
C1801 C1799 1.433 . S
C1801 N1804 1.384 . S
C1802 H1793 0.929 . S
C1802 C1794 1.378 . S
C1802 C1797 1.350 . S
C1803 H1790 0.929 . S
C1803 C1795 1.433 . S
C1803 N1805 1.384 . S
N1804 C1800 1.427 . S
N1804 C1801 1.384 . S
N1805 C1797 1.427 . S
N1805 C1803 1.384 . S
H1806 C1812 0.930 . S
H1807 C1816 0.930 . S
H1808 C1821 0.929 . S
H1809 C1819 0.929 . S
H1810 C1814 0.929 . S
H1811 C1820 0.929 . S
C1812 H1806 0.930 . S
C1812 C1813 1.367 . S
C1812 C1820 1.378 . S
C1813 C1812 1.367 . S
C1813 C1821 1.433 . S
C1814 H1810 0.929 . S
C1814 C1816 1.378 . S
C1814 C1818 1.350 . S
C1815 C1818 1.463 . S
C1815 C1820 1.350 . S
C1815 N1823 1.427 . S
C1816 H1807 0.930 . S
C1816 C1814 1.378 . S
C1816 C1817 1.367 . S
C1817 C1816 1.367 . S
C1817 C1819 1.433 . S
C1818 C1814 1.350 . S
C1818 C1815 1.463 . S
C1818 N1822 1.427 . S
C1819 H1809 0.929 . S
C1819 C1817 1.433 . S
C1819 N1822 1.384 . S
C1820 H1811 0.929 . S
C1820 C1812 1.378 . S
C1820 C1815 1.350 . S
C1821 H1808 0.929 . S
C1821 C1813 1.433 . S
C1821 N1823 1.384 . S
N1822 C1818 1.427 . S
N1822 C1819 1.384 . S
N1823 C1815 1.427 . S
N1823 C1821 1.384 . S
H1824 C1830 0.930 . S
H1825 C1834 0.930 . S
H1826 C1839 0.929 . S
H1827 C1837 0.929 . S
H1828 C1832 0.929 . S
H1829 C1838 0.929 . S
C1830 H1824 0.930 . S
C1830 C1831 1.367 . S
C1830 C1838 1.378 . S
C1831 C1830 1.367 . S
C1831 C1839 1.433 . S
C1832 H1828 0.929 . S
C1832 C1834 1.378 . S
C1832 C1836 1.350 . S
C1833 C1836 1.463 . S
C1833 C1838 1.350 . S
C1833 N1841 1.427 . S
C1834 H1825 0.930 . S
C1834 C1832 1.378 . S
C1834 C1835 1.367 . S
C1835 C1834 1.367 . S
C1835 C1837 1.433 . S
C1836 C1832 1.350 . S
C1836 C1833 1.463 . S
C1836 N1840 1.427 . S
C1837 H1827 0.929 . S
C1837 C1835 1.433 . S
C1837 N1840 1.384 . S
C1838 H1829 0.929 . S
C1838 C1830 1.378 . S
C1838 C1833 1.350 . S
C1839 H1826 0.929 . S
C1839 C1831 1.433 . S
C1839 N1841 1.384 . S
N1840 C1836 1.427 . S
N1840 C1837 1.384 . S
N1841 C1833 1.427 . S
N1841 C1839 1.384 . S
H1842 C1848 0.930 . S
H1843 C1852 0.930 . S
H1844 C1857 0.929 . S
H1845 C1855 0.929 . S
H1846 C1850 0.929 . S
H1847 C1856 0.929 . S
C1848 H1842 0.930 . S
C1848 C1849 1.367 . S
C1848 C1856 1.378 . S
C1849 C1848 1.367 . S
C1849 C1857 1.433 . S
C1850 H1846 0.929 . S
C1850 C1852 1.378 . S
C1850 C1854 1.350 . S
C1851 C1854 1.463 . S
C1851 C1856 1.350 . S
C1851 N1859 1.427 . S
C1852 H1843 0.930 . S
C1852 C1850 1.378 . S
C1852 C1853 1.367 . S
C1853 C1852 1.367 . S
C1853 C1855 1.433 . S
C1854 C1850 1.350 . S
C1854 C1851 1.463 . S
C1854 N1858 1.427 . S
C1855 H1845 0.929 . S
C1855 C1853 1.433 . S
C1855 N1858 1.384 . S
C1856 H1847 0.929 . S
C1856 C1848 1.378 . S
C1856 C1851 1.350 . S
C1857 H1844 0.929 . S
C1857 C1849 1.433 . S
C1857 N1859 1.384 . S
N1858 C1854 1.427 . S
N1858 C1855 1.384 . S
N1859 C1851 1.427 . S
N1859 C1857 1.384 . S
H1860 C1866 0.930 . S
H1861 C1870 0.930 . S
H1862 C1875 0.929 . S
H1863 C1873 0.929 . S
H1864 C1868 0.929 . S
H1865 C1874 0.929 . S
C1866 H1860 0.930 . S
C1866 C1867 1.367 . S
C1866 C1874 1.378 . S
C1867 C1866 1.367 . S
C1867 C1875 1.433 . S
C1868 H1864 0.929 . S
C1868 C1870 1.378 . S
C1868 C1872 1.350 . S
C1869 C1872 1.463 . S
C1869 C1874 1.350 . S
C1869 N1877 1.427 . S
C1870 H1861 0.930 . S
C1870 C1868 1.378 . S
C1870 C1871 1.367 . S
C1871 C1870 1.367 . S
C1871 C1873 1.433 . S
C1872 C1868 1.350 . S
C1872 C1869 1.463 . S
C1872 N1876 1.427 . S
C1873 H1863 0.929 . S
C1873 C1871 1.433 . S
C1873 N1876 1.384 . S
C1874 H1865 0.929 . S
C1874 C1866 1.378 . S
C1874 C1869 1.350 . S
C1875 H1862 0.929 . S
C1875 C1867 1.433 . S
C1875 N1877 1.384 . S
N1876 C1872 1.427 . S
N1876 C1873 1.384 . S
N1877 C1869 1.427 . S
N1877 C1875 1.384 . S
H1878 C1884 0.930 . S
H1879 C1888 0.930 . S
H1880 C1893 0.929 . S
H1881 C1891 0.929 . S
H1882 C1886 0.929 . S
H1883 C1892 0.929 . S
C1884 H1878 0.930 . S
C1884 C1885 1.367 . S
C1884 C1892 1.378 . S
C1885 C1884 1.367 . S
C1885 C1893 1.433 . S
C1886 H1882 0.929 . S
C1886 C1888 1.378 . S
C1886 C1890 1.350 . S
C1887 C1890 1.463 . S
C1887 C1892 1.350 . S
C1887 N1895 1.427 . S
C1888 H1879 0.930 . S
C1888 C1886 1.378 . S
C1888 C1889 1.367 . S
C1889 C1888 1.367 . S
C1889 C1891 1.433 . S
C1890 C1886 1.350 . S
C1890 C1887 1.463 . S
C1890 N1894 1.427 . S
C1891 H1881 0.929 . S
C1891 C1889 1.433 . S
C1891 N1894 1.384 . S
C1892 H1883 0.929 . S
C1892 C1884 1.378 . S
C1892 C1887 1.350 . S
C1893 H1880 0.929 . S
C1893 C1885 1.433 . S
C1893 N1895 1.384 . S
N1894 C1890 1.427 . S
N1894 C1891 1.384 . S
N1895 C1887 1.427 . S
N1895 C1893 1.384 . S
H1896 C1902 0.930 . S
H1897 C1906 0.930 . S
H1898 C1911 0.929 . S
H1899 C1909 0.929 . S
H1900 C1904 0.929 . S
H1901 C1910 0.929 . S
C1902 H1896 0.930 . S
C1902 C1903 1.367 . S
C1902 C1910 1.378 . S
C1903 C1902 1.367 . S
C1903 C1911 1.433 . S
C1904 H1900 0.929 . S
C1904 C1906 1.378 . S
C1904 C1908 1.350 . S
C1905 C1908 1.463 . S
C1905 C1910 1.350 . S
C1905 N1913 1.427 . S
C1906 H1897 0.930 . S
C1906 C1904 1.378 . S
C1906 C1907 1.367 . S
C1907 C1906 1.367 . S
C1907 C1909 1.433 . S
C1908 C1904 1.350 . S
C1908 C1905 1.463 . S
C1908 N1912 1.427 . S
C1909 H1899 0.929 . S
C1909 C1907 1.433 . S
C1909 N1912 1.384 . S
C1910 H1901 0.929 . S
C1910 C1902 1.378 . S
C1910 C1905 1.350 . S
C1911 H1898 0.929 . S
C1911 C1903 1.433 . S
C1911 N1913 1.384 . S
N1912 C1908 1.427 . S
N1912 C1909 1.384 . S
N1913 C1905 1.427 . S
N1913 C1911 1.384 . S
H1914 C1920 0.930 . S
H1915 C1924 0.930 . S
H1916 C1929 0.929 . S
H1917 C1927 0.929 . S
H1918 C1922 0.929 . S
H1919 C1928 0.929 . S
C1920 H1914 0.930 . S
C1920 C1921 1.367 . S
C1920 C1928 1.378 . S
C1921 C1920 1.367 . S
C1921 C1929 1.433 . S
C1922 H1918 0.929 . S
C1922 C1924 1.378 . S
C1922 C1926 1.350 . S
C1923 C1926 1.463 . S
C1923 C1928 1.350 . S
C1923 N1931 1.427 . S
C1924 H1915 0.930 . S
C1924 C1922 1.378 . S
C1924 C1925 1.367 . S
C1925 C1924 1.367 . S
C1925 C1927 1.433 . S
C1926 C1922 1.350 . S
C1926 C1923 1.463 . S
C1926 N1930 1.427 . S
C1927 H1917 0.929 . S
C1927 C1925 1.433 . S
C1927 N1930 1.384 . S
C1928 H1919 0.929 . S
C1928 C1920 1.378 . S
C1928 C1923 1.350 . S
C1929 H1916 0.929 . S
C1929 C1921 1.433 . S
C1929 N1931 1.384 . S
N1930 C1926 1.427 . S
N1930 C1927 1.384 . S
N1931 C1923 1.427 . S
N1931 C1929 1.384 . S
H1932 C1938 0.930 . S
H1933 C1942 0.930 . S
H1934 C1947 0.929 . S
H1935 C1945 0.929 . S
H1936 C1940 0.929 . S
H1937 C1946 0.929 . S
C1938 H1932 0.930 . S
C1938 C1939 1.367 . S
C1938 C1946 1.378 . S
C1939 C1938 1.367 . S
C1939 C1947 1.433 . S
C1940 H1936 0.929 . S
C1940 C1942 1.378 . S
C1940 C1944 1.350 . S
C1941 C1944 1.463 . S
C1941 C1946 1.350 . S
C1941 N1949 1.427 . S
C1942 H1933 0.930 . S
C1942 C1940 1.378 . S
C1942 C1943 1.367 . S
C1943 C1942 1.367 . S
C1943 C1945 1.433 . S
C1944 C1940 1.350 . S
C1944 C1941 1.463 . S
C1944 N1948 1.427 . S
C1945 H1935 0.929 . S
C1945 C1943 1.433 . S
C1945 N1948 1.384 . S
C1946 H1937 0.929 . S
C1946 C1938 1.378 . S
C1946 C1941 1.350 . S
C1947 H1934 0.929 . S
C1947 C1939 1.433 . S
C1947 N1949 1.384 . S
N1948 C1944 1.427 . S
N1948 C1945 1.384 . S
N1949 C1941 1.427 . S
N1949 C1947 1.384 . S
H1950 C1956 0.930 . S
H1951 C1960 0.930 . S
H1952 C1965 0.929 . S
H1953 C1963 0.929 1_545 S
H1954 C1958 0.929 . S
H1955 C1964 0.929 . S
C1956 H1950 0.930 . S
C1956 C1957 1.367 . S
C1956 C1964 1.378 . S
C1957 C1956 1.367 . S
C1957 C1965 1.433 . S
C1958 H1954 0.929 . S
C1958 C1960 1.378 . S
C1958 C1962 1.350 . S
C1959 C1962 1.463 . S
C1959 C1964 1.350 . S
C1959 N1967 1.427 . S
C1960 H1951 0.930 . S
C1960 C1958 1.378 . S
C1960 C1961 1.367 . S
C1961 C1960 1.367 . S
C1961 C1963 1.433 . S
C1962 C1958 1.350 . S
C1962 C1959 1.463 . S
C1962 N1966 1.427 . S
C1963 H1953 0.929 1_565 S
C1963 C1961 1.433 . S
C1963 N1966 1.384 . S
C1964 H1955 0.929 . S
C1964 C1956 1.378 . S
C1964 C1959 1.350 . S
C1965 H1952 0.929 . S
C1965 C1957 1.433 . S
C1965 N1967 1.384 . S
N1966 C1962 1.427 . S
N1966 C1963 1.384 . S
N1967 C1959 1.427 . S
N1967 C1965 1.384 . S
H1968 C1974 0.930 . S
H1969 C1978 0.930 . S
H1970 C1983 0.929 . S
H1971 C1981 0.929 . S
H1972 C1976 0.929 . S
H1973 C1982 0.929 . S
C1974 H1968 0.930 . S
C1974 C1975 1.367 . S
C1974 C1982 1.378 . S
C1975 C1974 1.367 . S
C1975 C1983 1.433 . S
C1976 H1972 0.929 . S
C1976 C1978 1.378 . S
C1976 C1980 1.350 . S
C1977 C1980 1.463 . S
C1977 C1982 1.350 . S
C1977 N1985 1.427 . S
C1978 H1969 0.930 . S
C1978 C1976 1.378 . S
C1978 C1979 1.367 . S
C1979 C1978 1.367 . S
C1979 C1981 1.433 . S
C1980 C1976 1.350 . S
C1980 C1977 1.463 . S
C1980 N1984 1.427 . S
C1981 H1971 0.929 . S
C1981 C1979 1.433 . S
C1981 N1984 1.384 . S
C1982 H1973 0.929 . S
C1982 C1974 1.378 . S
C1982 C1977 1.350 . S
C1983 H1970 0.929 . S
C1983 C1975 1.433 . S
C1983 N1985 1.384 . S
N1984 C1980 1.427 . S
N1984 C1981 1.384 . S
N1985 C1977 1.427 . S
N1985 C1983 1.384 . S
H1986 C1992 0.930 . S
H1987 C1996 0.930 . S
H1988 C2001 0.929 . S
H1989 C1999 0.929 . S
H1990 C1994 0.929 . S
H1991 C2000 0.929 . S
C1992 H1986 0.930 . S
C1992 C1993 1.367 . S
C1992 C2000 1.378 . S
C1993 C1992 1.367 . S
C1993 C2001 1.433 . S
C1994 H1990 0.929 . S
C1994 C1996 1.378 . S
C1994 C1998 1.350 . S
C1995 C1998 1.463 . S
C1995 C2000 1.350 . S
C1995 N2003 1.427 . S
C1996 H1987 0.930 . S
C1996 C1994 1.378 . S
C1996 C1997 1.367 . S
C1997 C1996 1.367 . S
C1997 C1999 1.433 . S
C1998 C1994 1.350 . S
C1998 C1995 1.463 . S
C1998 N2002 1.427 . S
C1999 H1989 0.929 . S
C1999 C1997 1.433 . S
C1999 N2002 1.384 . S
C2000 H1991 0.929 . S
C2000 C1992 1.378 . S
C2000 C1995 1.350 . S
C2001 H1988 0.929 . S
C2001 C1993 1.433 . S
C2001 N2003 1.384 . S
N2002 C1998 1.427 . S
N2002 C1999 1.384 . S
N2003 C1995 1.427 . S
N2003 C2001 1.384 . S
H2004 C2010 0.930 . S
H2005 C2014 0.930 . S
H2006 C2019 0.929 . S
H2007 C2017 0.929 . S
H2008 C2012 0.929 . S
H2009 C2018 0.929 . S
C2010 H2004 0.930 . S
C2010 C2011 1.367 . S
C2010 C2018 1.378 . S
C2011 C2010 1.367 . S
C2011 C2019 1.433 . S
C2012 H2008 0.929 . S
C2012 C2014 1.378 . S
C2012 C2016 1.350 . S
C2013 C2016 1.463 . S
C2013 C2018 1.350 . S
C2013 N2021 1.427 . S
C2014 H2005 0.930 . S
C2014 C2012 1.378 . S
C2014 C2015 1.367 . S
C2015 C2014 1.367 . S
C2015 C2017 1.433 . S
C2016 C2012 1.350 . S
C2016 C2013 1.463 . S
C2016 N2020 1.427 . S
C2017 H2007 0.929 . S
C2017 C2015 1.433 . S
C2017 N2020 1.384 . S
C2018 H2009 0.929 . S
C2018 C2010 1.378 . S
C2018 C2013 1.350 . S
C2019 H2006 0.929 . S
C2019 C2011 1.433 . S
C2019 N2021 1.384 . S
N2020 C2016 1.427 . S
N2020 C2017 1.384 . S
N2021 C2013 1.427 . S
N2021 C2019 1.384 . S
H2022 C2028 0.930 . S
H2023 C2032 0.930 . S
H2024 C2037 0.929 . S
H2025 C2035 0.929 . S
H2026 C2030 0.929 . S
H2027 C2036 0.929 . S
C2028 H2022 0.930 . S
C2028 C2029 1.367 . S
C2028 C2036 1.378 . S
C2029 C2028 1.367 . S
C2029 C2037 1.433 . S
C2030 H2026 0.929 . S
C2030 C2032 1.378 . S
C2030 C2034 1.350 . S
C2031 C2034 1.463 . S
C2031 C2036 1.350 . S
C2031 N2039 1.427 . S
C2032 H2023 0.930 . S
C2032 C2030 1.378 . S
C2032 C2033 1.367 . S
C2033 C2032 1.367 . S
C2033 C2035 1.433 . S
C2034 C2030 1.350 . S
C2034 C2031 1.463 . S
C2034 N2038 1.427 . S
C2035 H2025 0.929 . S
C2035 C2033 1.433 . S
C2035 N2038 1.384 . S
C2036 H2027 0.929 . S
C2036 C2028 1.378 . S
C2036 C2031 1.350 . S
C2037 H2024 0.929 . S
C2037 C2029 1.433 . S
C2037 N2039 1.384 . S
N2038 C2034 1.427 . S
N2038 C2035 1.384 . S
N2039 C2031 1.427 . S
N2039 C2037 1.384 . S
H2040 C2046 0.930 . S
H2041 C2050 0.930 . S
H2042 C2055 0.913 1_545 S
H2043 C2053 0.929 . S
H2044 C2048 0.929 . S
H2045 C2054 0.929 . S
C2046 H2040 0.930 . S
C2046 C2047 1.367 . S
C2046 C2054 1.378 . S
C2047 C2046 1.367 . S
C2047 C2055 1.438 . S
C2048 H2044 0.929 . S
C2048 C2050 1.378 . S
C2048 C2052 1.350 . S
C2049 C2052 1.463 . S
C2049 C2054 1.350 . S
C2049 N2057 1.427 . S
C2050 H2041 0.930 . S
C2050 C2048 1.378 . S
C2050 C2051 1.367 . S
C2051 C2050 1.367 . S
C2051 C2053 1.433 . S
C2052 C2048 1.350 . S
C2052 C2049 1.463 . S
C2052 N2056 1.427 . S
C2053 H2043 0.929 . S
C2053 C2051 1.433 . S
C2053 N2056 1.384 . S
C2054 H2045 0.929 . S
C2054 C2046 1.378 . S
C2054 C2049 1.350 . S
C2055 H2042 0.913 1_565 S
C2055 C2047 1.438 . S
C2055 N2057 1.396 . S
N2056 C2052 1.427 . S
N2056 C2053 1.384 . S
N2057 C2049 1.427 . S
N2057 C2055 1.396 . S
H2058 C2064 0.930 . S
H2059 C2068 0.930 . S
H2060 C2073 0.929 . S
H2061 C2071 0.929 . S
H2062 C2066 0.929 . S
H2063 C2072 0.929 . S
C2064 H2058 0.930 . S
C2064 C2065 1.367 . S
C2064 C2072 1.378 . S
C2065 C2064 1.367 . S
C2065 C2073 1.433 . S
C2066 H2062 0.929 . S
C2066 C2068 1.378 . S
C2066 C2070 1.350 . S
C2067 C2070 1.463 . S
C2067 C2072 1.350 . S
C2067 N2075 1.427 . S
C2068 H2059 0.930 . S
C2068 C2066 1.378 . S
C2068 C2069 1.367 . S
C2069 C2068 1.367 . S
C2069 C2071 1.433 . S
C2070 C2066 1.350 . S
C2070 C2067 1.463 . S
C2070 N2074 1.427 . S
C2071 H2061 0.929 . S
C2071 C2069 1.433 . S
C2071 N2074 1.384 . S
C2072 H2063 0.929 . S
C2072 C2064 1.378 . S
C2072 C2067 1.350 . S
C2073 H2060 0.929 . S
C2073 C2065 1.433 . S
C2073 N2075 1.384 . S
N2074 C2070 1.427 . S
N2074 C2071 1.384 . S
N2075 C2067 1.427 . S
N2075 C2073 1.384 . S
H2076 C2082 0.930 . S
H2077 C2086 0.930 . S
H2078 C2091 0.929 . S
H2079 C2089 0.929 . S
H2080 C2084 0.929 . S
H2081 C2090 0.929 . S
C2082 H2076 0.930 . S
C2082 C2083 1.367 . S
C2082 C2090 1.378 . S
C2083 C2082 1.367 . S
C2083 C2091 1.433 . S
C2084 H2080 0.929 . S
C2084 C2086 1.378 . S
C2084 C2088 1.350 . S
C2085 C2088 1.463 . S
C2085 C2090 1.350 . S
C2085 N2093 1.427 . S
C2086 H2077 0.930 . S
C2086 C2084 1.378 . S
C2086 C2087 1.367 . S
C2087 C2086 1.367 . S
C2087 C2089 1.433 . S
C2088 C2084 1.350 . S
C2088 C2085 1.463 . S
C2088 N2092 1.427 . S
C2089 H2079 0.929 . S
C2089 C2087 1.433 . S
C2089 N2092 1.384 . S
C2090 H2081 0.929 . S
C2090 C2082 1.378 . S
C2090 C2085 1.350 . S
C2091 H2078 0.929 . S
C2091 C2083 1.433 . S
C2091 N2093 1.384 . S
N2092 C2088 1.427 . S
N2092 C2089 1.384 . S
N2093 C2085 1.427 . S
N2093 C2091 1.384 . S
H2094 C2100 0.930 . S
H2095 C2104 0.930 . S
H2096 C2109 0.929 . S
H2097 C2107 0.929 . S
H2098 C2102 0.929 . S
H2099 C2108 0.929 . S
C2100 H2094 0.930 . S
C2100 C2101 1.367 . S
C2100 C2108 1.378 . S
C2101 C2100 1.367 . S
C2101 C2109 1.433 . S
C2102 H2098 0.929 . S
C2102 C2104 1.378 . S
C2102 C2106 1.350 . S
C2103 C2106 1.463 . S
C2103 C2108 1.350 . S
C2103 N2111 1.427 . S
C2104 H2095 0.930 . S
C2104 C2102 1.378 . S
C2104 C2105 1.367 . S
C2105 C2104 1.367 . S
C2105 C2107 1.433 . S
C2106 C2102 1.350 . S
C2106 C2103 1.463 . S
C2106 N2110 1.427 . S
C2107 H2097 0.929 . S
C2107 C2105 1.433 . S
C2107 N2110 1.384 . S
C2108 H2099 0.929 . S
C2108 C2100 1.378 . S
C2108 C2103 1.350 . S
C2109 H2096 0.929 . S
C2109 C2101 1.433 . S
C2109 N2111 1.384 . S
N2110 C2106 1.427 . S
N2110 C2107 1.384 . S
N2111 C2103 1.427 . S
N2111 C2109 1.384 . S
H2112 C2118 0.930 . S
H2113 C2122 0.930 . S
H2114 C2127 0.929 . S
H2115 C2125 0.929 . S
H2116 C2120 0.929 . S
H2117 C2126 0.929 . S
C2118 H2112 0.930 . S
C2118 C2119 1.367 . S
C2118 C2126 1.378 . S
C2119 C2118 1.367 . S
C2119 C2127 1.433 . S
C2120 H2116 0.929 . S
C2120 C2122 1.378 . S
C2120 C2124 1.350 . S
C2121 C2124 1.463 . S
C2121 C2126 1.350 . S
C2121 N2129 1.427 . S
C2122 H2113 0.930 . S
C2122 C2120 1.378 . S
C2122 C2123 1.367 . S
C2123 C2122 1.367 . S
C2123 C2125 1.433 . S
C2124 C2120 1.350 . S
C2124 C2121 1.463 . S
C2124 N2128 1.427 . S
C2125 H2115 0.929 . S
C2125 C2123 1.433 . S
C2125 N2128 1.384 . S
C2126 H2117 0.929 . S
C2126 C2118 1.378 . S
C2126 C2121 1.350 . S
C2127 H2114 0.929 . S
C2127 C2119 1.433 . S
C2127 N2129 1.384 . S
N2128 C2124 1.427 . S
N2128 C2125 1.384 . S
N2129 C2121 1.427 . S
N2129 C2127 1.384 . S
H2130 C2136 0.930 . S
H2131 C2140 0.930 . S
H2132 C2145 0.929 . S
H2133 C2143 0.929 . S
H2134 C2138 0.929 . S
H2135 C2144 0.929 . S
C2136 H2130 0.930 . S
C2136 C2137 1.367 . S
C2136 C2144 1.378 . S
C2137 C2136 1.367 . S
C2137 C2145 1.433 . S
C2138 H2134 0.929 . S
C2138 C2140 1.378 . S
C2138 C2142 1.350 . S
C2139 C2142 1.463 . S
C2139 C2144 1.350 . S
C2139 N2147 1.427 . S
C2140 H2131 0.930 . S
C2140 C2138 1.378 . S
C2140 C2141 1.367 . S
C2141 C2140 1.367 . S
C2141 C2143 1.433 . S
C2142 C2138 1.350 . S
C2142 C2139 1.463 . S
C2142 N2146 1.427 . S
C2143 H2133 0.929 . S
C2143 C2141 1.433 . S
C2143 N2146 1.384 . S
C2144 H2135 0.929 . S
C2144 C2136 1.378 . S
C2144 C2139 1.350 . S
C2145 H2132 0.929 . S
C2145 C2137 1.433 . S
C2145 N2147 1.384 . S
N2146 C2142 1.427 . S
N2146 C2143 1.384 . S
N2147 C2139 1.427 . S
N2147 C2145 1.384 . S
H2148 C2154 0.930 1_554 S
H2149 C2158 0.930 . S
H2150 C2163 0.929 . S
H2151 C2161 0.929 . S
H2152 C2156 0.929 . S
H2153 C2162 0.929 . S
C2154 H2148 0.930 1_556 S
C2154 C2155 1.367 . S
C2154 C2162 1.378 . S
C2155 C2154 1.367 . S
C2155 C2163 1.433 . S
C2156 H2152 0.929 . S
C2156 C2158 1.378 . S
C2156 C2160 1.350 . S
C2157 C2160 1.463 . S
C2157 C2162 1.350 . S
C2157 N2165 1.427 . S
C2158 H2149 0.930 . S
C2158 C2156 1.378 . S
C2158 C2159 1.367 . S
C2159 C2158 1.367 . S
C2159 C2161 1.433 . S
C2160 C2156 1.350 . S
C2160 C2157 1.463 . S
C2160 N2164 1.427 . S
C2161 H2151 0.929 . S
C2161 C2159 1.433 . S
C2161 N2164 1.384 . S
C2162 H2153 0.929 . S
C2162 C2154 1.378 . S
C2162 C2157 1.350 . S
C2163 H2150 0.929 . S
C2163 C2155 1.433 . S
C2163 N2165 1.384 . S
N2164 C2160 1.427 . S
N2164 C2161 1.384 . S
N2165 C2157 1.427 . S
N2165 C2163 1.384 . S
H2166 C2172 0.930 . S
H2167 C2176 0.930 . S
H2168 C2181 0.929 . S
H2169 C2179 0.929 . S
H2170 C2174 0.929 . S
H2171 C2180 0.929 . S
C2172 H2166 0.930 . S
C2172 C2173 1.367 . S
C2172 C2180 1.378 . S
C2173 C2172 1.367 . S
C2173 C2181 1.433 . S
C2174 H2170 0.929 . S
C2174 C2176 1.378 . S
C2174 C2178 1.350 . S
C2175 C2178 1.463 . S
C2175 C2180 1.350 . S
C2175 N2183 1.427 . S
C2176 H2167 0.930 . S
C2176 C2174 1.378 . S
C2176 C2177 1.367 . S
C2177 C2176 1.367 . S
C2177 C2179 1.433 . S
C2178 C2174 1.350 . S
C2178 C2175 1.463 . S
C2178 N2182 1.427 . S
C2179 H2169 0.929 . S
C2179 C2177 1.433 . S
C2179 N2182 1.384 . S
C2180 H2171 0.929 . S
C2180 C2172 1.378 . S
C2180 C2175 1.350 . S
C2181 H2168 0.929 . S
C2181 C2173 1.433 . S
C2181 N2183 1.384 . S
N2182 C2178 1.427 . S
N2182 C2179 1.384 . S
N2183 C2175 1.427 . S
N2183 C2181 1.384 . S
H2184 C2190 0.930 . S
H2185 C2194 0.930 1_554 S
H2186 C2199 0.929 1_545 S
H2187 C2197 0.929 . S
H2188 C2192 0.929 . S
H2189 C2198 0.929 . S
C2190 H2184 0.930 . S
C2190 C2191 1.367 . S
C2190 C2198 1.378 . S
C2191 C2190 1.367 . S
C2191 C2199 1.433 . S
C2192 H2188 0.929 . S
C2192 C2194 1.378 . S
C2192 C2196 1.350 . S
C2193 C2196 1.463 . S
C2193 C2198 1.350 . S
C2193 N2201 1.427 . S
C2194 H2185 0.930 1_556 S
C2194 C2192 1.378 . S
C2194 C2195 1.367 . S
C2195 C2194 1.367 . S
C2195 C2197 1.433 . S
C2196 C2192 1.350 . S
C2196 C2193 1.463 . S
C2196 N2200 1.427 . S
C2197 H2187 0.929 . S
C2197 C2195 1.433 . S
C2197 N2200 1.384 . S
C2198 H2189 0.929 . S
C2198 C2190 1.378 . S
C2198 C2193 1.350 . S
C2199 H2186 0.929 1_565 S
C2199 C2191 1.433 . S
C2199 N2201 1.384 . S
N2200 C2196 1.427 . S
N2200 C2197 1.384 . S
N2201 C2193 1.427 . S
N2201 C2199 1.384 . S
H2202 C2208 0.930 . S
H2203 C2212 0.930 . S
H2204 C2217 0.929 . S
H2205 C2215 0.929 . S
H2206 C2210 0.929 . S
H2207 C2216 0.929 . S
C2208 H2202 0.930 . S
C2208 C2209 1.367 . S
C2208 C2216 1.378 . S
C2209 C2208 1.367 . S
C2209 C2217 1.433 . S
C2210 H2206 0.929 . S
C2210 C2212 1.378 . S
C2210 C2214 1.350 . S
C2211 C2214 1.463 . S
C2211 C2216 1.350 . S
C2211 N2219 1.427 . S
C2212 H2203 0.930 . S
C2212 C2210 1.378 . S
C2212 C2213 1.367 . S
C2213 C2212 1.367 . S
C2213 C2215 1.433 . S
C2214 C2210 1.350 . S
C2214 C2211 1.463 . S
C2214 N2218 1.427 . S
C2215 H2205 0.929 . S
C2215 C2213 1.433 . S
C2215 N2218 1.384 . S
C2216 H2207 0.929 . S
C2216 C2208 1.378 . S
C2216 C2211 1.350 . S
C2217 H2204 0.929 . S
C2217 C2209 1.433 . S
C2217 N2219 1.384 . S
N2218 C2214 1.427 . S
N2218 C2215 1.384 . S
N2219 C2211 1.427 . S
N2219 C2217 1.384 . S
H2220 C2226 0.930 . S
H2221 C2230 0.930 . S
H2222 C2235 0.929 . S
H2223 C2233 0.929 . S
H2224 C2228 0.929 . S
H2225 C2234 0.929 . S
C2226 H2220 0.930 . S
C2226 C2227 1.367 . S
C2226 C2234 1.378 . S
C2227 C2226 1.367 . S
C2227 C2235 1.433 . S
C2228 H2224 0.929 . S
C2228 C2230 1.378 . S
C2228 C2232 1.350 . S
C2229 C2232 1.463 . S
C2229 C2234 1.350 . S
C2229 N2237 1.427 . S
C2230 H2221 0.930 . S
C2230 C2228 1.378 . S
C2230 C2231 1.367 . S
C2231 C2230 1.367 . S
C2231 C2233 1.433 . S
C2232 C2228 1.350 . S
C2232 C2229 1.463 . S
C2232 N2236 1.427 . S
C2233 H2223 0.929 . S
C2233 C2231 1.433 . S
C2233 N2236 1.384 . S
C2234 H2225 0.929 . S
C2234 C2226 1.378 . S
C2234 C2229 1.350 . S
C2235 H2222 0.929 . S
C2235 C2227 1.433 . S
C2235 N2237 1.384 . S
N2236 C2232 1.427 . S
N2236 C2233 1.384 . S
N2237 C2229 1.427 . S
N2237 C2235 1.384 . S
H2238 C2244 0.930 . S
H2239 C2248 0.930 . S
H2240 C2253 0.929 . S
H2241 C2251 0.929 . S
H2242 C2246 0.929 . S
H2243 C2252 0.929 . S
C2244 H2238 0.930 . S
C2244 C2245 1.367 . S
C2244 C2252 1.378 . S
C2245 C2244 1.367 . S
C2245 C2253 1.433 . S
C2246 H2242 0.929 . S
C2246 C2248 1.378 . S
C2246 C2250 1.350 . S
C2247 C2250 1.463 . S
C2247 C2252 1.350 . S
C2247 N2255 1.427 . S
C2248 H2239 0.930 . S
C2248 C2246 1.378 . S
C2248 C2249 1.367 . S
C2249 C2248 1.367 . S
C2249 C2251 1.433 . S
C2250 C2246 1.350 . S
C2250 C2247 1.463 . S
C2250 N2254 1.427 . S
C2251 H2241 0.929 . S
C2251 C2249 1.433 . S
C2251 N2254 1.384 . S
C2252 H2243 0.929 . S
C2252 C2244 1.378 . S
C2252 C2247 1.350 . S
C2253 H2240 0.929 . S
C2253 C2245 1.433 . S
C2253 N2255 1.384 . S
N2254 C2250 1.427 . S
N2254 C2251 1.384 . S
N2255 C2247 1.427 . S
N2255 C2253 1.384 . S
H2256 C2262 0.930 . S
H2257 C2266 0.930 . S
H2258 C2271 0.929 . S
H2259 C2269 0.929 . S
H2260 C2264 0.929 . S
H2261 C2270 0.929 . S
C2262 H2256 0.930 . S
C2262 C2263 1.367 . S
C2262 C2270 1.378 . S
C2263 C2262 1.367 . S
C2263 C2271 1.433 . S
C2264 H2260 0.929 . S
C2264 C2266 1.378 . S
C2264 C2268 1.350 . S
C2265 C2268 1.463 . S
C2265 C2270 1.350 . S
C2265 N2273 1.427 . S
C2266 H2257 0.930 . S
C2266 C2264 1.378 . S
C2266 C2267 1.367 . S
C2267 C2266 1.367 . S
C2267 C2269 1.433 . S
C2268 C2264 1.350 . S
C2268 C2265 1.463 . S
C2268 N2272 1.427 . S
C2269 H2259 0.929 . S
C2269 C2267 1.433 . S
C2269 N2272 1.384 . S
C2270 H2261 0.929 . S
C2270 C2262 1.378 . S
C2270 C2265 1.350 . S
C2271 H2258 0.929 . S
C2271 C2263 1.433 . S
C2271 N2273 1.384 . S
N2272 C2268 1.427 . S
N2272 C2269 1.384 . S
N2273 C2265 1.427 . S
N2273 C2271 1.384 . S
H2274 C2280 0.930 . S
H2275 C2284 0.930 . S
H2276 C2289 0.929 . S
H2277 C2287 0.929 . S
H2278 C2282 0.929 . S
H2279 C2288 0.929 . S
C2280 H2274 0.930 . S
C2280 C2281 1.367 . S
C2280 C2288 1.378 . S
C2281 C2280 1.367 . S
C2281 C2289 1.433 . S
C2282 H2278 0.929 . S
C2282 C2284 1.378 . S
C2282 C2286 1.350 . S
C2283 C2286 1.463 . S
C2283 C2288 1.350 . S
C2283 N2291 1.427 . S
C2284 H2275 0.930 . S
C2284 C2282 1.378 . S
C2284 C2285 1.367 . S
C2285 C2284 1.367 . S
C2285 C2287 1.433 . S
C2286 C2282 1.350 . S
C2286 C2283 1.463 . S
C2286 N2290 1.427 . S
C2287 H2277 0.929 . S
C2287 C2285 1.433 . S
C2287 N2290 1.384 . S
C2288 H2279 0.929 . S
C2288 C2280 1.378 . S
C2288 C2283 1.350 . S
C2289 H2276 0.929 . S
C2289 C2281 1.433 . S
C2289 N2291 1.384 . S
N2290 C2286 1.427 . S
N2290 C2287 1.384 . S
N2291 C2283 1.427 . S
N2291 C2289 1.384 . S
H2292 C2298 0.930 . S
H2293 C2302 0.930 . S
H2294 C2307 0.929 . S
H2295 C2305 0.929 . S
H2296 C2300 0.929 . S
H2297 C2306 0.929 . S
C2298 H2292 0.930 . S
C2298 C2299 1.367 . S
C2298 C2306 1.378 . S
C2299 C2298 1.367 . S
C2299 C2307 1.433 . S
C2300 H2296 0.929 . S
C2300 C2302 1.378 . S
C2300 C2304 1.350 . S
C2301 C2304 1.463 . S
C2301 C2306 1.350 . S
C2301 N2309 1.427 . S
C2302 H2293 0.930 . S
C2302 C2300 1.378 . S
C2302 C2303 1.367 . S
C2303 C2302 1.367 . S
C2303 C2305 1.433 . S
C2304 C2300 1.350 . S
C2304 C2301 1.463 . S
C2304 N2308 1.427 . S
C2305 H2295 0.929 . S
C2305 C2303 1.433 . S
C2305 N2308 1.384 . S
C2306 H2297 0.929 . S
C2306 C2298 1.378 . S
C2306 C2301 1.350 . S
C2307 H2294 0.929 . S
C2307 C2299 1.433 . S
C2307 N2309 1.384 . S
N2308 C2304 1.427 . S
N2308 C2305 1.384 . S
N2309 C2301 1.427 . S
N2309 C2307 1.384 . S
H2310 C2316 0.930 . S
H2311 C2320 0.930 . S
H2312 C2325 0.929 . S
H2313 C2323 0.929 . S
H2314 C2318 0.929 . S
H2315 C2324 0.929 . S
C2316 H2310 0.930 . S
C2316 C2317 1.367 . S
C2316 C2324 1.378 . S
C2317 C2316 1.367 . S
C2317 C2325 1.433 . S
C2318 H2314 0.929 . S
C2318 C2320 1.378 . S
C2318 C2322 1.350 . S
C2319 C2322 1.463 . S
C2319 C2324 1.350 . S
C2319 N2327 1.427 . S
C2320 H2311 0.930 . S
C2320 C2318 1.378 . S
C2320 C2321 1.367 . S
C2321 C2320 1.367 . S
C2321 C2323 1.433 . S
C2322 C2318 1.350 . S
C2322 C2319 1.463 . S
C2322 N2326 1.427 . S
C2323 H2313 0.929 . S
C2323 C2321 1.433 . S
C2323 N2326 1.384 . S
C2324 H2315 0.929 . S
C2324 C2316 1.378 . S
C2324 C2319 1.350 . S
C2325 H2312 0.929 . S
C2325 C2317 1.433 . S
C2325 N2327 1.384 . S
N2326 C2322 1.427 . S
N2326 C2323 1.384 . S
N2327 C2319 1.427 . S
N2327 C2325 1.384 . S
H2328 C2334 0.930 . S
H2329 C2338 0.930 . S
H2330 C2343 0.929 . S
H2331 C2341 0.929 . S
H2332 C2336 0.929 . S
H2333 C2342 0.929 . S
C2334 H2328 0.930 . S
C2334 C2335 1.367 . S
C2334 C2342 1.378 . S
C2335 C2334 1.367 . S
C2335 C2343 1.433 . S
C2336 H2332 0.929 . S
C2336 C2338 1.378 . S
C2336 C2340 1.350 . S
C2337 C2340 1.463 . S
C2337 C2342 1.350 . S
C2337 N2345 1.427 . S
C2338 H2329 0.930 . S
C2338 C2336 1.378 . S
C2338 C2339 1.367 . S
C2339 C2338 1.367 . S
C2339 C2341 1.433 . S
C2340 C2336 1.350 . S
C2340 C2337 1.463 . S
C2340 N2344 1.427 . S
C2341 H2331 0.929 . S
C2341 C2339 1.433 . S
C2341 N2344 1.384 . S
C2342 H2333 0.929 . S
C2342 C2334 1.378 . S
C2342 C2337 1.350 . S
C2343 H2330 0.929 . S
C2343 C2335 1.433 . S
C2343 N2345 1.384 . S
N2344 C2340 1.427 . S
N2344 C2341 1.384 . S
N2345 C2337 1.427 . S
N2345 C2343 1.384 . S
H2346 C2352 0.930 . S
H2347 C2356 0.930 . S
H2348 C2361 0.929 . S
H2349 C2359 0.929 . S
H2350 C2354 0.929 . S
H2351 C2360 0.929 . S
C2352 H2346 0.930 . S
C2352 C2353 1.367 . S
C2352 C2360 1.378 . S
C2353 C2352 1.367 . S
C2353 C2361 1.433 . S
C2354 H2350 0.929 . S
C2354 C2356 1.378 . S
C2354 C2358 1.350 . S
C2355 C2358 1.463 . S
C2355 C2360 1.350 . S
C2355 N2363 1.427 . S
C2356 H2347 0.930 . S
C2356 C2354 1.378 . S
C2356 C2357 1.367 . S
C2357 C2356 1.367 . S
C2357 C2359 1.433 . S
C2358 C2354 1.350 . S
C2358 C2355 1.463 . S
C2358 N2362 1.427 . S
C2359 H2349 0.929 . S
C2359 C2357 1.433 . S
C2359 N2362 1.384 . S
C2360 H2351 0.929 . S
C2360 C2352 1.378 . S
C2360 C2355 1.350 . S
C2361 H2348 0.929 . S
C2361 C2353 1.433 . S
C2361 N2363 1.384 . S
N2362 C2358 1.427 . S
N2362 C2359 1.384 . S
N2363 C2355 1.427 . S
N2363 C2361 1.384 . S
H2364 C2370 0.930 . S
H2365 C2374 0.930 . S
H2366 C2379 0.929 . S
H2367 C2377 0.929 . S
H2368 C2372 0.929 . S
H2369 C2378 0.929 . S
C2370 H2364 0.930 . S
C2370 C2371 1.367 . S
C2370 C2378 1.378 . S
C2371 C2370 1.367 . S
C2371 C2379 1.433 . S
C2372 H2368 0.929 . S
C2372 C2374 1.378 . S
C2372 C2376 1.350 . S
C2373 C2376 1.463 . S
C2373 C2378 1.350 . S
C2373 N2381 1.427 . S
C2374 H2365 0.930 . S
C2374 C2372 1.378 . S
C2374 C2375 1.367 . S
C2375 C2374 1.367 . S
C2375 C2377 1.433 . S
C2376 C2372 1.350 . S
C2376 C2373 1.463 . S
C2376 N2380 1.427 . S
C2377 H2367 0.929 . S
C2377 C2375 1.433 . S
C2377 N2380 1.384 . S
C2378 H2369 0.929 . S
C2378 C2370 1.378 . S
C2378 C2373 1.350 . S
C2379 H2366 0.929 . S
C2379 C2371 1.433 . S
C2379 N2381 1.384 . S
N2380 C2376 1.427 . S
N2380 C2377 1.384 . S
N2381 C2373 1.427 . S
N2381 C2379 1.384 . S
H2382 C2388 0.930 . S
H2383 C2392 0.930 . S
H2384 C2397 0.929 . S
H2385 C2395 0.929 . S
H2386 C2390 0.929 . S
H2387 C2396 0.929 . S
C2388 H2382 0.930 . S
C2388 C2389 1.367 . S
C2388 C2396 1.378 . S
C2389 C2388 1.367 . S
C2389 C2397 1.433 . S
C2390 H2386 0.929 . S
C2390 C2392 1.378 . S
C2390 C2394 1.350 . S
C2391 C2394 1.463 . S
C2391 C2396 1.350 . S
C2391 N2399 1.427 . S
C2392 H2383 0.930 . S
C2392 C2390 1.378 . S
C2392 C2393 1.367 . S
C2393 C2392 1.367 . S
C2393 C2395 1.433 . S
C2394 C2390 1.350 . S
C2394 C2391 1.463 . S
C2394 N2398 1.427 . S
C2395 H2385 0.929 . S
C2395 C2393 1.433 . S
C2395 N2398 1.384 . S
C2396 H2387 0.929 . S
C2396 C2388 1.378 . S
C2396 C2391 1.350 . S
C2397 H2384 0.929 . S
C2397 C2389 1.433 . S
C2397 N2399 1.384 . S
N2398 C2394 1.427 . S
N2398 C2395 1.384 . S
N2399 C2391 1.427 . S
N2399 C2397 1.384 . S
H2400 C2406 0.930 . S
H2401 C2410 0.930 . S
H2402 C2415 0.929 . S
H2403 C2413 0.929 . S
H2404 C2408 0.929 . S
H2405 C2414 0.929 . S
C2406 H2400 0.930 . S
C2406 C2407 1.367 . S
C2406 C2414 1.378 . S
C2407 C2406 1.367 . S
C2407 C2415 1.433 . S
C2408 H2404 0.929 . S
C2408 C2410 1.378 . S
C2408 C2412 1.350 . S
C2409 C2412 1.463 . S
C2409 C2414 1.350 . S
C2409 N2417 1.427 . S
C2410 H2401 0.930 . S
C2410 C2408 1.378 . S
C2410 C2411 1.367 . S
C2411 C2410 1.367 . S
C2411 C2413 1.433 . S
C2412 C2408 1.350 . S
C2412 C2409 1.463 . S
C2412 N2416 1.427 . S
C2413 H2403 0.929 . S
C2413 C2411 1.433 . S
C2413 N2416 1.384 . S
C2414 H2405 0.929 . S
C2414 C2406 1.378 . S
C2414 C2409 1.350 . S
C2415 H2402 0.929 . S
C2415 C2407 1.433 . S
C2415 N2417 1.384 . S
N2416 C2412 1.427 . S
N2416 C2413 1.384 . S
N2417 C2409 1.427 . S
N2417 C2415 1.384 . S
H2418 C2424 0.930 . S
H2419 C2428 0.930 . S
H2420 C2433 0.929 . S
H2421 C2431 0.929 . S
H2422 C2426 0.929 . S
H2423 C2432 0.929 . S
C2424 H2418 0.930 . S
C2424 C2425 1.367 . S
C2424 C2432 1.378 . S
C2425 C2424 1.367 . S
C2425 C2433 1.433 . S
C2426 H2422 0.929 . S
C2426 C2428 1.378 . S
C2426 C2430 1.350 . S
C2427 C2430 1.463 . S
C2427 C2432 1.350 . S
C2427 N2435 1.427 . S
C2428 H2419 0.930 . S
C2428 C2426 1.378 . S
C2428 C2429 1.367 . S
C2429 C2428 1.367 . S
C2429 C2431 1.433 . S
C2430 C2426 1.350 . S
C2430 C2427 1.463 . S
C2430 N2434 1.427 . S
C2431 H2421 0.929 . S
C2431 C2429 1.433 . S
C2431 N2434 1.384 . S
C2432 H2423 0.929 . S
C2432 C2424 1.378 . S
C2432 C2427 1.350 . S
C2433 H2420 0.929 . S
C2433 C2425 1.433 . S
C2433 N2435 1.384 . S
N2434 C2430 1.427 . S
N2434 C2431 1.384 . S
N2435 C2427 1.427 . S
N2435 C2433 1.384 . S
H2436 C2442 0.930 . S
H2437 C2446 0.930 . S
H2438 C2451 0.929 . S
H2439 C2449 0.929 . S
H2440 C2444 0.929 . S
H2441 C2450 0.929 . S
C2442 H2436 0.930 . S
C2442 C2443 1.367 . S
C2442 C2450 1.378 . S
C2443 C2442 1.367 . S
C2443 C2451 1.433 . S
C2444 H2440 0.929 . S
C2444 C2446 1.378 . S
C2444 C2448 1.350 . S
C2445 C2448 1.463 . S
C2445 C2450 1.350 . S
C2445 N2453 1.427 . S
C2446 H2437 0.930 . S
C2446 C2444 1.378 . S
C2446 C2447 1.367 . S
C2447 C2446 1.367 . S
C2447 C2449 1.433 . S
C2448 C2444 1.350 . S
C2448 C2445 1.463 . S
C2448 N2452 1.427 . S
C2449 H2439 0.929 . S
C2449 C2447 1.433 . S
C2449 N2452 1.384 . S
C2450 H2441 0.929 . S
C2450 C2442 1.378 . S
C2450 C2445 1.350 . S
C2451 H2438 0.929 . S
C2451 C2443 1.433 . S
C2451 N2453 1.384 . S
N2452 C2448 1.427 . S
N2452 C2449 1.384 . S
N2453 C2445 1.427 . S
N2453 C2451 1.384 . S
H2454 C2460 0.930 . S
H2455 C2464 0.930 . S
H2456 C2469 0.929 . S
H2457 C2467 0.929 . S
H2458 C2462 0.929 . S
H2459 C2468 0.929 . S
C2460 H2454 0.930 . S
C2460 C2461 1.367 . S
C2460 C2468 1.378 . S
C2461 C2460 1.367 . S
C2461 C2469 1.433 . S
C2462 H2458 0.929 . S
C2462 C2464 1.378 . S
C2462 C2466 1.350 . S
C2463 C2466 1.463 . S
C2463 C2468 1.350 . S
C2463 N2471 1.427 . S
C2464 H2455 0.930 . S
C2464 C2462 1.378 . S
C2464 C2465 1.367 . S
C2465 C2464 1.367 . S
C2465 C2467 1.433 . S
C2466 C2462 1.350 . S
C2466 C2463 1.463 . S
C2466 N2470 1.427 . S
C2467 H2457 0.929 . S
C2467 C2465 1.433 . S
C2467 N2470 1.384 . S
C2468 H2459 0.929 . S
C2468 C2460 1.378 . S
C2468 C2463 1.350 . S
C2469 H2456 0.929 . S
C2469 C2461 1.433 . S
C2469 N2471 1.384 . S
N2470 C2466 1.427 . S
N2470 C2467 1.384 . S
N2471 C2463 1.427 . S
N2471 C2469 1.384 . S
H2472 C2478 0.930 . S
H2473 C2482 0.930 . S
H2474 C2487 0.929 . S
H2475 C2485 0.929 . S
H2476 C2480 0.929 . S
H2477 C2486 0.929 . S
C2478 H2472 0.930 . S
C2478 C2479 1.367 . S
C2478 C2486 1.378 . S
C2479 C2478 1.367 . S
C2479 C2487 1.433 . S
C2480 H2476 0.929 . S
C2480 C2482 1.378 . S
C2480 C2484 1.350 . S
C2481 C2484 1.463 . S
C2481 C2486 1.350 . S
C2481 N2489 1.427 . S
C2482 H2473 0.930 . S
C2482 C2480 1.378 . S
C2482 C2483 1.367 . S
C2483 C2482 1.367 . S
C2483 C2485 1.433 . S
C2484 C2480 1.350 . S
C2484 C2481 1.463 . S
C2484 N2488 1.427 . S
C2485 H2475 0.929 . S
C2485 C2483 1.433 . S
C2485 N2488 1.384 . S
C2486 H2477 0.929 . S
C2486 C2478 1.378 . S
C2486 C2481 1.350 . S
C2487 H2474 0.929 . S
C2487 C2479 1.433 . S
C2487 N2489 1.384 . S
N2488 C2484 1.427 . S
N2488 C2485 1.384 . S
N2489 C2481 1.427 . S
N2489 C2487 1.384 . S
H2490 C2496 0.930 . S
H2491 C2500 0.930 . S
H2492 C2505 0.929 . S
H2493 C2503 0.929 . S
H2494 C2498 0.929 . S
H2495 C2504 0.929 . S
C2496 H2490 0.930 . S
C2496 C2497 1.367 . S
C2496 C2504 1.378 . S
C2497 C2496 1.367 . S
C2497 C2505 1.433 . S
C2498 H2494 0.929 . S
C2498 C2500 1.378 . S
C2498 C2502 1.350 . S
C2499 C2502 1.463 . S
C2499 C2504 1.350 . S
C2499 N2507 1.427 . S
C2500 H2491 0.930 . S
C2500 C2498 1.378 . S
C2500 C2501 1.367 . S
C2501 C2500 1.367 . S
C2501 C2503 1.433 . S
C2502 C2498 1.350 . S
C2502 C2499 1.463 . S
C2502 N2506 1.427 . S
C2503 H2493 0.929 . S
C2503 C2501 1.433 . S
C2503 N2506 1.384 . S
C2504 H2495 0.929 . S
C2504 C2496 1.378 . S
C2504 C2499 1.350 . S
C2505 H2492 0.929 . S
C2505 C2497 1.433 . S
C2505 N2507 1.384 . S
N2506 C2502 1.427 . S
N2506 C2503 1.384 . S
N2507 C2499 1.427 . S
N2507 C2505 1.384 . S
H2508 C2514 0.930 . S
H2509 C2518 0.930 . S
H2510 C2523 0.929 . S
H2511 C2521 0.929 . S
H2512 C2516 0.929 . S
H2513 C2522 0.929 . S
C2514 H2508 0.930 . S
C2514 C2515 1.367 . S
C2514 C2522 1.378 . S
C2515 C2514 1.367 . S
C2515 C2523 1.433 . S
C2516 H2512 0.929 . S
C2516 C2518 1.378 . S
C2516 C2520 1.350 . S
C2517 C2520 1.463 . S
C2517 C2522 1.350 . S
C2517 N2525 1.427 . S
C2518 H2509 0.930 . S
C2518 C2516 1.378 . S
C2518 C2519 1.367 . S
C2519 C2518 1.367 . S
C2519 C2521 1.433 . S
C2520 C2516 1.350 . S
C2520 C2517 1.463 . S
C2520 N2524 1.427 . S
C2521 H2511 0.929 . S
C2521 C2519 1.433 . S
C2521 N2524 1.384 . S
C2522 H2513 0.929 . S
C2522 C2514 1.378 . S
C2522 C2517 1.350 . S
C2523 H2510 0.929 . S
C2523 C2515 1.433 . S
C2523 N2525 1.384 . S
N2524 C2520 1.427 . S
N2524 C2521 1.384 . S
N2525 C2517 1.427 . S
N2525 C2523 1.384 . S
H2526 C2532 0.930 . S
H2527 C2536 0.930 . S
H2528 C2541 0.929 . S
H2529 C2539 0.929 . S
H2530 C2534 0.929 . S
H2531 C2540 0.929 . S
C2532 H2526 0.930 . S
C2532 C2533 1.367 . S
C2532 C2540 1.378 . S
C2533 C2532 1.367 . S
C2533 C2541 1.433 . S
C2534 H2530 0.929 . S
C2534 C2536 1.378 . S
C2534 C2538 1.350 . S
C2535 C2538 1.463 . S
C2535 C2540 1.350 . S
C2535 N2543 1.427 . S
C2536 H2527 0.930 . S
C2536 C2534 1.378 . S
C2536 C2537 1.367 . S
C2537 C2536 1.367 . S
C2537 C2539 1.433 . S
C2538 C2534 1.350 . S
C2538 C2535 1.463 . S
C2538 N2542 1.427 . S
C2539 H2529 0.929 . S
C2539 C2537 1.433 . S
C2539 N2542 1.384 . S
C2540 H2531 0.929 . S
C2540 C2532 1.378 . S
C2540 C2535 1.350 . S
C2541 H2528 0.929 . S
C2541 C2533 1.433 . S
C2541 N2543 1.384 . S
N2542 C2538 1.427 . S
N2542 C2539 1.384 . S
N2543 C2535 1.427 . S
N2543 C2541 1.384 . S
H2544 C2550 0.930 . S
H2545 C2554 0.930 . S
H2546 C2559 0.929 . S
H2547 C2557 0.929 . S
H2548 C2552 0.929 . S
H2549 C2558 0.929 . S
C2550 H2544 0.930 . S
C2550 C2551 1.367 . S
C2550 C2558 1.378 . S
C2551 C2550 1.367 . S
C2551 C2559 1.433 . S
C2552 H2548 0.929 . S
C2552 C2554 1.378 . S
C2552 C2556 1.350 . S
C2553 C2556 1.463 . S
C2553 C2558 1.350 . S
C2553 N2561 1.427 . S
C2554 H2545 0.930 . S
C2554 C2552 1.378 . S
C2554 C2555 1.367 . S
C2555 C2554 1.367 . S
C2555 C2557 1.433 . S
C2556 C2552 1.350 . S
C2556 C2553 1.463 . S
C2556 N2560 1.427 . S
C2557 H2547 0.929 . S
C2557 C2555 1.433 . S
C2557 N2560 1.384 . S
C2558 H2549 0.929 . S
C2558 C2550 1.378 . S
C2558 C2553 1.350 . S
C2559 H2546 0.929 . S
C2559 C2551 1.433 . S
C2559 N2561 1.384 . S
N2560 C2556 1.427 . S
N2560 C2557 1.384 . S
N2561 C2553 1.427 . S
N2561 C2559 1.384 . S
H2562 C2568 0.930 . S
H2563 C2572 0.930 . S
H2564 C2577 0.929 . S
H2565 C2575 0.929 . S
H2566 C2570 0.929 . S
H2567 C2576 0.929 . S
C2568 H2562 0.930 . S
C2568 C2569 1.367 . S
C2568 C2576 1.378 . S
C2569 C2568 1.367 . S
C2569 C2577 1.433 . S
C2570 H2566 0.929 . S
C2570 C2572 1.378 . S
C2570 C2574 1.350 . S
C2571 C2574 1.463 . S
C2571 C2576 1.350 . S
C2571 N2579 1.427 . S
C2572 H2563 0.930 . S
C2572 C2570 1.378 . S
C2572 C2573 1.367 . S
C2573 C2572 1.367 . S
C2573 C2575 1.433 . S
C2574 C2570 1.350 . S
C2574 C2571 1.463 . S
C2574 N2578 1.427 . S
C2575 H2565 0.929 . S
C2575 C2573 1.433 . S
C2575 N2578 1.384 . S
C2576 H2567 0.929 . S
C2576 C2568 1.378 . S
C2576 C2571 1.350 . S
C2577 H2564 0.929 . S
C2577 C2569 1.433 . S
C2577 N2579 1.384 . S
N2578 C2574 1.427 . S
N2578 C2575 1.384 . S
N2579 C2571 1.427 . S
N2579 C2577 1.384 . S
H2580 C2586 0.930 . S
H2581 C2590 0.930 . S
H2582 C2595 0.929 . S
H2583 C2593 0.929 . S
H2584 C2588 0.929 . S
H2585 C2594 0.929 . S
C2586 H2580 0.930 . S
C2586 C2587 1.367 . S
C2586 C2594 1.378 . S
C2587 C2586 1.367 . S
C2587 C2595 1.433 . S
C2588 H2584 0.929 . S
C2588 C2590 1.378 . S
C2588 C2592 1.350 . S
C2589 C2592 1.463 . S
C2589 C2594 1.350 . S
C2589 N2597 1.427 . S
C2590 H2581 0.930 . S
C2590 C2588 1.378 . S
C2590 C2591 1.367 . S
C2591 C2590 1.367 . S
C2591 C2593 1.433 . S
C2592 C2588 1.350 . S
C2592 C2589 1.463 . S
C2592 N2596 1.427 . S
C2593 H2583 0.929 . S
C2593 C2591 1.433 . S
C2593 N2596 1.384 . S
C2594 H2585 0.929 . S
C2594 C2586 1.378 . S
C2594 C2589 1.350 . S
C2595 H2582 0.929 . S
C2595 C2587 1.433 . S
C2595 N2597 1.384 . S
N2596 C2592 1.427 . S
N2596 C2593 1.384 . S
N2597 C2589 1.427 . S
N2597 C2595 1.384 . S
H2598 C2604 0.930 . S
H2599 C2608 0.930 . S
H2600 C2613 0.929 . S
H2601 C2611 0.929 . S
H2602 C2606 0.929 . S
H2603 C2612 0.929 . S
C2604 H2598 0.930 . S
C2604 C2605 1.367 . S
C2604 C2612 1.378 . S
C2605 C2604 1.367 . S
C2605 C2613 1.433 . S
C2606 H2602 0.929 . S
C2606 C2608 1.378 . S
C2606 C2610 1.350 . S
C2607 C2610 1.463 . S
C2607 C2612 1.350 . S
C2607 N2615 1.427 . S
C2608 H2599 0.930 . S
C2608 C2606 1.378 . S
C2608 C2609 1.367 . S
C2609 C2608 1.367 . S
C2609 C2611 1.433 . S
C2610 C2606 1.350 . S
C2610 C2607 1.463 . S
C2610 N2614 1.427 . S
C2611 H2601 0.929 . S
C2611 C2609 1.433 . S
C2611 N2614 1.384 . S
C2612 H2603 0.929 . S
C2612 C2604 1.378 . S
C2612 C2607 1.350 . S
C2613 H2600 0.929 . S
C2613 C2605 1.433 . S
C2613 N2615 1.384 . S
N2614 C2610 1.427 . S
N2614 C2611 1.384 . S
N2615 C2607 1.427 . S
N2615 C2613 1.384 . S
H2616 C2622 0.930 . S
H2617 C2626 0.930 . S
H2618 C2631 0.929 . S
H2619 C2629 0.929 . S
H2620 C2624 0.929 . S
H2621 C2630 0.929 . S
C2622 H2616 0.930 . S
C2622 C2623 1.367 . S
C2622 C2630 1.378 . S
C2623 C2622 1.367 . S
C2623 C2631 1.433 . S
C2624 H2620 0.929 . S
C2624 C2626 1.378 . S
C2624 C2628 1.350 . S
C2625 C2628 1.463 . S
C2625 C2630 1.350 . S
C2625 N2633 1.427 . S
C2626 H2617 0.930 . S
C2626 C2624 1.378 . S
C2626 C2627 1.367 . S
C2627 C2626 1.367 . S
C2627 C2629 1.433 . S
C2628 C2624 1.350 . S
C2628 C2625 1.463 . S
C2628 N2632 1.427 . S
C2629 H2619 0.929 . S
C2629 C2627 1.433 . S
C2629 N2632 1.384 . S
C2630 H2621 0.929 . S
C2630 C2622 1.378 . S
C2630 C2625 1.350 . S
C2631 H2618 0.929 . S
C2631 C2623 1.433 . S
C2631 N2633 1.384 . S
N2632 C2628 1.427 . S
N2632 C2629 1.384 . S
N2633 C2625 1.427 . S
N2633 C2631 1.384 . S
H2634 C2640 0.930 . S
H2635 C2644 0.930 . S
H2636 C2649 0.929 . S
H2637 C2647 0.929 . S
H2638 C2642 0.929 . S
H2639 C2648 0.929 . S
C2640 H2634 0.930 . S
C2640 C2641 1.367 . S
C2640 C2648 1.378 . S
C2641 C2640 1.367 . S
C2641 C2649 1.433 . S
C2642 H2638 0.929 . S
C2642 C2644 1.378 . S
C2642 C2646 1.350 . S
C2643 C2646 1.463 . S
C2643 C2648 1.350 . S
C2643 N2651 1.427 . S
C2644 H2635 0.930 . S
C2644 C2642 1.378 . S
C2644 C2645 1.367 . S
C2645 C2644 1.367 . S
C2645 C2647 1.433 . S
C2646 C2642 1.350 . S
C2646 C2643 1.463 . S
C2646 N2650 1.427 . S
C2647 H2637 0.929 . S
C2647 C2645 1.433 . S
C2647 N2650 1.384 . S
C2648 H2639 0.929 . S
C2648 C2640 1.378 . S
C2648 C2643 1.350 . S
C2649 H2636 0.929 . S
C2649 C2641 1.433 . S
C2649 N2651 1.384 . S
N2650 C2646 1.427 . S
N2650 C2647 1.384 . S
N2651 C2643 1.427 . S
N2651 C2649 1.384 . S
H2652 C2658 0.930 . S
H2653 C2662 0.930 . S
H2654 C2667 0.929 . S
H2655 C2665 0.929 . S
H2656 C2660 0.929 . S
H2657 C2666 0.929 . S
C2658 H2652 0.930 . S
C2658 C2659 1.367 . S
C2658 C2666 1.378 . S
C2659 C2658 1.367 . S
C2659 C2667 1.433 . S
C2660 H2656 0.929 . S
C2660 C2662 1.378 . S
C2660 C2664 1.350 . S
C2661 C2664 1.463 . S
C2661 C2666 1.350 . S
C2661 N2669 1.427 . S
C2662 H2653 0.930 . S
C2662 C2660 1.378 . S
C2662 C2663 1.367 . S
C2663 C2662 1.367 . S
C2663 C2665 1.433 . S
C2664 C2660 1.350 . S
C2664 C2661 1.463 . S
C2664 N2668 1.427 . S
C2665 H2655 0.929 . S
C2665 C2663 1.433 . S
C2665 N2668 1.384 . S
C2666 H2657 0.929 . S
C2666 C2658 1.378 . S
C2666 C2661 1.350 . S
C2667 H2654 0.929 . S
C2667 C2659 1.433 . S
C2667 N2669 1.384 . S
N2668 C2664 1.427 . S
N2668 C2665 1.384 . S
N2669 C2661 1.427 . S
N2669 C2667 1.384 . S
H2670 C2676 0.930 . S
H2671 C2680 0.930 . S
H2672 C2685 0.929 . S
H2673 C2683 0.929 . S
H2674 C2678 0.929 . S
H2675 C2684 0.929 . S
C2676 H2670 0.930 . S
C2676 C2677 1.367 . S
C2676 C2684 1.378 . S
C2677 C2676 1.367 . S
C2677 C2685 1.433 . S
C2678 H2674 0.929 . S
C2678 C2680 1.378 . S
C2678 C2682 1.350 . S
C2679 C2682 1.463 . S
C2679 C2684 1.350 . S
C2679 N2687 1.427 . S
C2680 H2671 0.930 . S
C2680 C2678 1.378 . S
C2680 C2681 1.367 . S
C2681 C2680 1.367 . S
C2681 C2683 1.433 . S
C2682 C2678 1.350 . S
C2682 C2679 1.463 . S
C2682 N2686 1.427 . S
C2683 H2673 0.929 . S
C2683 C2681 1.433 . S
C2683 N2686 1.384 . S
C2684 H2675 0.929 . S
C2684 C2676 1.378 . S
C2684 C2679 1.350 . S
C2685 H2672 0.929 . S
C2685 C2677 1.433 . S
C2685 N2687 1.384 . S
N2686 C2682 1.427 . S
N2686 C2683 1.384 . S
N2687 C2679 1.427 . S
N2687 C2685 1.384 . S
H2688 C2694 0.930 . S
H2689 C2698 0.930 . S
H2690 C2703 0.929 . S
H2691 C2701 0.929 . S
H2692 C2696 0.929 . S
H2693 C2702 0.929 . S
C2694 H2688 0.930 . S
C2694 C2695 1.367 . S
C2694 C2702 1.378 . S
C2695 C2694 1.367 . S
C2695 C2703 1.433 . S
C2696 H2692 0.929 . S
C2696 C2698 1.378 . S
C2696 C2700 1.350 . S
C2697 C2700 1.463 . S
C2697 C2702 1.350 . S
C2697 N2705 1.427 . S
C2698 H2689 0.930 . S
C2698 C2696 1.378 . S
C2698 C2699 1.367 . S
C2699 C2698 1.367 . S
C2699 C2701 1.433 . S
C2700 C2696 1.350 . S
C2700 C2697 1.463 . S
C2700 N2704 1.427 . S
C2701 H2691 0.929 . S
C2701 C2699 1.433 . S
C2701 N2704 1.384 . S
C2702 H2693 0.929 . S
C2702 C2694 1.378 . S
C2702 C2697 1.350 . S
C2703 H2690 0.929 . S
C2703 C2695 1.433 . S
C2703 N2705 1.384 . S
N2704 C2700 1.427 . S
N2704 C2701 1.384 . S
N2705 C2697 1.427 . S
N2705 C2703 1.384 . S
H2706 C2712 0.930 . S
H2707 C2716 0.930 . S
H2708 C2721 0.929 . S
H2709 C2719 0.929 . S
H2710 C2714 0.929 . S
H2711 C2720 0.929 . S
C2712 H2706 0.930 . S
C2712 C2713 1.367 . S
C2712 C2720 1.378 . S
C2713 C2712 1.367 . S
C2713 C2721 1.433 . S
C2714 H2710 0.929 . S
C2714 C2716 1.378 . S
C2714 C2718 1.350 . S
C2715 C2718 1.463 . S
C2715 C2720 1.350 . S
C2715 N2723 1.427 . S
C2716 H2707 0.930 . S
C2716 C2714 1.378 . S
C2716 C2717 1.367 . S
C2717 C2716 1.367 . S
C2717 C2719 1.433 . S
C2718 C2714 1.350 . S
C2718 C2715 1.463 . S
C2718 N2722 1.427 . S
C2719 H2709 0.929 . S
C2719 C2717 1.433 . S
C2719 N2722 1.384 . S
C2720 H2711 0.929 . S
C2720 C2712 1.378 . S
C2720 C2715 1.350 . S
C2721 H2708 0.929 . S
C2721 C2713 1.433 . S
C2721 N2723 1.384 . S
N2722 C2718 1.427 . S
N2722 C2719 1.384 . S
N2723 C2715 1.427 . S
N2723 C2721 1.384 . S
H2724 C2730 0.930 . S
H2725 C2734 0.930 . S
H2726 C2739 0.929 . S
H2727 C2737 0.929 . S
H2728 C2732 0.929 . S
H2729 C2738 0.929 . S
C2730 H2724 0.930 . S
C2730 C2731 1.367 . S
C2730 C2738 1.378 . S
C2731 C2730 1.367 . S
C2731 C2739 1.433 . S
C2732 H2728 0.929 . S
C2732 C2734 1.378 . S
C2732 C2736 1.350 . S
C2733 C2736 1.463 . S
C2733 C2738 1.350 . S
C2733 N2741 1.427 . S
C2734 H2725 0.930 . S
C2734 C2732 1.378 . S
C2734 C2735 1.367 . S
C2735 C2734 1.367 . S
C2735 C2737 1.433 . S
C2736 C2732 1.350 . S
C2736 C2733 1.463 . S
C2736 N2740 1.427 . S
C2737 H2727 0.929 . S
C2737 C2735 1.433 . S
C2737 N2740 1.384 . S
C2738 H2729 0.929 . S
C2738 C2730 1.378 . S
C2738 C2733 1.350 . S
C2739 H2726 0.929 . S
C2739 C2731 1.433 . S
C2739 N2741 1.384 . S
N2740 C2736 1.427 . S
N2740 C2737 1.384 . S
N2741 C2733 1.427 . S
N2741 C2739 1.384 . S
H2742 C2748 0.930 . S
H2743 C2752 0.930 . S
H2744 C2757 0.929 . S
H2745 C2755 0.929 . S
H2746 C2750 0.929 . S
H2747 C2756 0.929 . S
C2748 H2742 0.930 . S
C2748 C2749 1.367 . S
C2748 C2756 1.378 . S
C2749 C2748 1.367 . S
C2749 C2757 1.433 . S
C2750 H2746 0.929 . S
C2750 C2752 1.378 . S
C2750 C2754 1.350 . S
C2751 C2754 1.463 . S
C2751 C2756 1.350 . S
C2751 N2759 1.427 . S
C2752 H2743 0.930 . S
C2752 C2750 1.378 . S
C2752 C2753 1.367 . S
C2753 C2752 1.367 . S
C2753 C2755 1.433 . S
C2754 C2750 1.350 . S
C2754 C2751 1.463 . S
C2754 N2758 1.427 . S
C2755 H2745 0.929 . S
C2755 C2753 1.433 . S
C2755 N2758 1.384 . S
C2756 H2747 0.929 . S
C2756 C2748 1.378 . S
C2756 C2751 1.350 . S
C2757 H2744 0.929 . S
C2757 C2749 1.433 . S
C2757 N2759 1.384 . S
N2758 C2754 1.427 . S
N2758 C2755 1.384 . S
N2759 C2751 1.427 . S
N2759 C2757 1.384 . S
H2760 C2766 0.930 . S
H2761 C2770 0.930 . S
H2762 C2775 0.929 . S
H2763 C2773 0.929 . S
H2764 C2768 0.929 . S
H2765 C2774 0.929 . S
C2766 H2760 0.930 . S
C2766 C2767 1.367 . S
C2766 C2774 1.378 . S
C2767 C2766 1.367 . S
C2767 C2775 1.433 . S
C2768 H2764 0.929 . S
C2768 C2770 1.378 . S
C2768 C2772 1.350 . S
C2769 C2772 1.463 . S
C2769 C2774 1.350 . S
C2769 N2777 1.427 . S
C2770 H2761 0.930 . S
C2770 C2768 1.378 . S
C2770 C2771 1.367 . S
C2771 C2770 1.367 . S
C2771 C2773 1.433 . S
C2772 C2768 1.350 . S
C2772 C2769 1.463 . S
C2772 N2776 1.427 . S
C2773 H2763 0.929 . S
C2773 C2771 1.433 . S
C2773 N2776 1.384 . S
C2774 H2765 0.929 . S
C2774 C2766 1.378 . S
C2774 C2769 1.350 . S
C2775 H2762 0.929 . S
C2775 C2767 1.433 . S
C2775 N2777 1.384 . S
N2776 C2772 1.427 . S
N2776 C2773 1.384 . S
N2777 C2769 1.427 . S
N2777 C2775 1.384 . S
H2778 C2784 0.930 . S
H2779 C2788 0.930 . S
H2780 C2793 0.929 . S
H2781 C2791 0.929 . S
H2782 C2786 0.929 . S
H2783 C2792 0.929 . S
C2784 H2778 0.930 . S
C2784 C2785 1.367 . S
C2784 C2792 1.378 . S
C2785 C2784 1.367 . S
C2785 C2793 1.433 . S
C2786 H2782 0.929 . S
C2786 C2788 1.378 . S
C2786 C2790 1.350 . S
C2787 C2790 1.463 . S
C2787 C2792 1.350 . S
C2787 N2795 1.427 . S
C2788 H2779 0.930 . S
C2788 C2786 1.378 . S
C2788 C2789 1.367 . S
C2789 C2788 1.367 . S
C2789 C2791 1.433 . S
C2790 C2786 1.350 . S
C2790 C2787 1.463 . S
C2790 N2794 1.427 . S
C2791 H2781 0.929 . S
C2791 C2789 1.433 . S
C2791 N2794 1.384 . S
C2792 H2783 0.929 . S
C2792 C2784 1.378 . S
C2792 C2787 1.350 . S
C2793 H2780 0.929 . S
C2793 C2785 1.433 . S
C2793 N2795 1.384 . S
N2794 C2790 1.427 . S
N2794 C2791 1.384 . S
N2795 C2787 1.427 . S
N2795 C2793 1.384 . S
H2796 C2802 0.930 . S
H2797 C2806 0.930 . S
H2798 C2811 0.929 . S
H2799 C2809 0.929 . S
H2800 C2804 0.929 . S
H2801 C2810 0.929 . S
C2802 H2796 0.930 . S
C2802 C2803 1.367 . S
C2802 C2810 1.378 . S
C2803 C2802 1.367 . S
C2803 C2811 1.433 . S
C2804 H2800 0.929 . S
C2804 C2806 1.378 . S
C2804 C2808 1.350 . S
C2805 C2808 1.463 . S
C2805 C2810 1.350 . S
C2805 N2813 1.427 . S
C2806 H2797 0.930 . S
C2806 C2804 1.378 . S
C2806 C2807 1.367 . S
C2807 C2806 1.367 . S
C2807 C2809 1.433 . S
C2808 C2804 1.350 . S
C2808 C2805 1.463 . S
C2808 N2812 1.427 . S
C2809 H2799 0.929 . S
C2809 C2807 1.433 . S
C2809 N2812 1.384 . S
C2810 H2801 0.929 . S
C2810 C2802 1.378 . S
C2810 C2805 1.350 . S
C2811 H2798 0.929 . S
C2811 C2803 1.433 . S
C2811 N2813 1.384 . S
N2812 C2808 1.427 . S
N2812 C2809 1.384 . S
N2813 C2805 1.427 . S
N2813 C2811 1.384 . S
H2814 C2820 0.930 1_545 S
H2815 C2824 0.930 . S
H2816 C2829 0.929 . S
H2817 C2827 0.929 . S
H2818 C2822 0.929 . S
H2819 C2828 0.929 . S
C2820 H2814 0.930 1_565 S
C2820 C2821 1.367 . S
C2820 C2828 1.378 . S
C2821 C2820 1.367 . S
C2821 C2829 1.433 . S
C2822 H2818 0.929 . S
C2822 C2824 1.378 . S
C2822 C2826 1.350 . S
C2823 C2826 1.463 . S
C2823 C2828 1.350 . S
C2823 N2831 1.427 . S
C2824 H2815 0.930 . S
C2824 C2822 1.378 . S
C2824 C2825 1.367 . S
C2825 C2824 1.367 . S
C2825 C2827 1.433 . S
C2826 C2822 1.350 . S
C2826 C2823 1.463 . S
C2826 N2830 1.427 . S
C2827 H2817 0.929 . S
C2827 C2825 1.433 . S
C2827 N2830 1.384 . S
C2828 H2819 0.929 . S
C2828 C2820 1.378 . S
C2828 C2823 1.350 . S
C2829 H2816 0.929 . S
C2829 C2821 1.433 . S
C2829 N2831 1.384 . S
N2830 C2826 1.427 . S
N2830 C2827 1.384 . S
N2831 C2823 1.427 . S
N2831 C2829 1.384 . S
H2832 C2838 0.930 . S
H2833 C2842 0.930 . S
H2834 C2847 0.929 . S
H2835 C2845 0.929 . S
H2836 C2840 0.929 . S
H2837 C2846 0.929 . S
C2838 H2832 0.930 . S
C2838 C2839 1.367 . S
C2838 C2846 1.378 . S
C2839 C2838 1.367 . S
C2839 C2847 1.433 . S
C2840 H2836 0.929 . S
C2840 C2842 1.378 . S
C2840 C2844 1.350 . S
C2841 C2844 1.463 . S
C2841 C2846 1.350 . S
C2841 N2849 1.427 . S
C2842 H2833 0.930 . S
C2842 C2840 1.378 . S
C2842 C2843 1.367 . S
C2843 C2842 1.367 . S
C2843 C2845 1.433 . S
C2844 C2840 1.350 . S
C2844 C2841 1.463 . S
C2844 N2848 1.427 . S
C2845 H2835 0.929 . S
C2845 C2843 1.433 . S
C2845 N2848 1.384 . S
C2846 H2837 0.929 . S
C2846 C2838 1.378 . S
C2846 C2841 1.350 . S
C2847 H2834 0.929 . S
C2847 C2839 1.433 . S
C2847 N2849 1.384 . S
N2848 C2844 1.427 . S
N2848 C2845 1.384 . S
N2849 C2841 1.427 . S
N2849 C2847 1.384 . S
H2850 C2856 0.930 . S
H2851 C2860 0.930 . S
H2852 C2865 0.929 . S
H2853 C2863 0.929 . S
H2854 C2858 0.929 . S
H2855 C2864 0.929 . S
C2856 H2850 0.930 . S
C2856 C2857 1.367 . S
C2856 C2864 1.378 . S
C2857 C2856 1.367 . S
C2857 C2865 1.433 . S
C2858 H2854 0.929 . S
C2858 C2860 1.378 . S
C2858 C2862 1.350 . S
C2859 C2862 1.463 . S
C2859 C2864 1.350 . S
C2859 N2867 1.427 . S
C2860 H2851 0.930 . S
C2860 C2858 1.378 . S
C2860 C2861 1.367 . S
C2861 C2860 1.367 . S
C2861 C2863 1.433 . S
C2862 C2858 1.350 . S
C2862 C2859 1.463 . S
C2862 N2866 1.427 . S
C2863 H2853 0.929 . S
C2863 C2861 1.433 . S
C2863 N2866 1.384 . S
C2864 H2855 0.929 . S
C2864 C2856 1.378 . S
C2864 C2859 1.350 . S
C2865 H2852 0.929 . S
C2865 C2857 1.433 . S
C2865 N2867 1.384 . S
N2866 C2862 1.427 . S
N2866 C2863 1.384 . S
N2867 C2859 1.427 . S
N2867 C2865 1.384 . S
H2868 C2874 0.930 . S
H2869 C2878 0.930 . S
H2870 C2883 0.929 . S
H2871 C2881 0.929 . S
H2872 C2876 0.929 . S
H2873 C2882 0.929 . S
C2874 H2868 0.930 . S
C2874 C2875 1.367 . S
C2874 C2882 1.378 . S
C2875 C2874 1.367 . S
C2875 C2883 1.433 . S
C2876 H2872 0.929 . S
C2876 C2878 1.378 . S
C2876 C2880 1.350 . S
C2877 C2880 1.463 . S
C2877 C2882 1.350 . S
C2877 N2885 1.427 . S
C2878 H2869 0.930 . S
C2878 C2876 1.378 . S
C2878 C2879 1.367 . S
C2879 C2878 1.367 . S
C2879 C2881 1.433 . S
C2880 C2876 1.350 . S
C2880 C2877 1.463 . S
C2880 N2884 1.427 . S
C2881 H2871 0.929 . S
C2881 C2879 1.433 . S
C2881 N2884 1.384 . S
C2882 H2873 0.929 . S
C2882 C2874 1.378 . S
C2882 C2877 1.350 . S
C2883 H2870 0.929 . S
C2883 C2875 1.433 . S
C2883 N2885 1.384 . S
N2884 C2880 1.427 . S
N2884 C2881 1.384 . S
N2885 C2877 1.427 . S
N2885 C2883 1.384 . S
H2886 C2892 0.930 . S
H2887 C2896 0.930 . S
H2888 C2901 0.929 . S
H2889 C2899 0.929 . S
H2890 C2894 0.929 . S
H2891 C2900 0.929 . S
C2892 H2886 0.930 . S
C2892 C2893 1.367 . S
C2892 C2900 1.378 . S
C2893 C2892 1.367 . S
C2893 C2901 1.433 . S
C2894 H2890 0.929 . S
C2894 C2896 1.378 . S
C2894 C2898 1.350 . S
C2895 C2898 1.463 . S
C2895 C2900 1.350 . S
C2895 N2903 1.427 . S
C2896 H2887 0.930 . S
C2896 C2894 1.378 . S
C2896 C2897 1.367 . S
C2897 C2896 1.367 . S
C2897 C2899 1.433 . S
C2898 C2894 1.350 . S
C2898 C2895 1.463 . S
C2898 N2902 1.427 . S
C2899 H2889 0.929 . S
C2899 C2897 1.433 . S
C2899 N2902 1.384 . S
C2900 H2891 0.929 . S
C2900 C2892 1.378 . S
C2900 C2895 1.350 . S
C2901 H2888 0.929 . S
C2901 C2893 1.433 . S
C2901 N2903 1.384 . S
N2902 C2898 1.427 . S
N2902 C2899 1.384 . S
N2903 C2895 1.427 . S
N2903 C2901 1.384 . S
H2904 C2910 0.930 . S
H2905 C2914 0.930 . S
H2906 C2919 0.929 . S
H2907 C2917 0.929 . S
H2908 C2912 0.929 . S
H2909 C2918 0.929 . S
C2910 H2904 0.930 . S
C2910 C2911 1.367 . S
C2910 C2918 1.378 . S
C2911 C2910 1.367 . S
C2911 C2919 1.433 . S
C2912 H2908 0.929 . S
C2912 C2914 1.378 . S
C2912 C2916 1.350 . S
C2913 C2916 1.463 . S
C2913 C2918 1.350 . S
C2913 N2921 1.427 . S
C2914 H2905 0.930 . S
C2914 C2912 1.378 . S
C2914 C2915 1.367 . S
C2915 C2914 1.367 . S
C2915 C2917 1.433 . S
C2916 C2912 1.350 . S
C2916 C2913 1.463 . S
C2916 N2920 1.427 . S
C2917 H2907 0.929 . S
C2917 C2915 1.433 . S
C2917 N2920 1.384 . S
C2918 H2909 0.929 . S
C2918 C2910 1.378 . S
C2918 C2913 1.350 . S
C2919 H2906 0.929 . S
C2919 C2911 1.433 . S
C2919 N2921 1.384 . S
N2920 C2916 1.427 . S
N2920 C2917 1.384 . S
N2921 C2913 1.427 . S
N2921 C2919 1.384 . S
H2922 C2928 0.930 . S
H2923 C2932 0.930 . S
H2924 C2937 0.929 . S
H2925 C2935 0.929 . S
H2926 C2930 0.929 . S
H2927 C2936 0.929 . S
C2928 H2922 0.930 . S
C2928 C2929 1.367 . S
C2928 C2936 1.378 . S
C2929 C2928 1.367 . S
C2929 C2937 1.433 . S
C2930 H2926 0.929 . S
C2930 C2932 1.378 . S
C2930 C2934 1.350 . S
C2931 C2934 1.463 . S
C2931 C2936 1.350 . S
C2931 N2939 1.427 . S
C2932 H2923 0.930 . S
C2932 C2930 1.378 . S
C2932 C2933 1.367 . S
C2933 C2932 1.367 . S
C2933 C2935 1.433 . S
C2934 C2930 1.350 . S
C2934 C2931 1.463 . S
C2934 N2938 1.427 . S
C2935 H2925 0.929 . S
C2935 C2933 1.433 . S
C2935 N2938 1.384 . S
C2936 H2927 0.929 . S
C2936 C2928 1.378 . S
C2936 C2931 1.350 . S
C2937 H2924 0.929 . S
C2937 C2929 1.433 . S
C2937 N2939 1.384 . S
N2938 C2934 1.427 . S
N2938 C2935 1.384 . S
N2939 C2931 1.427 . S
N2939 C2937 1.384 . S
H2940 C2946 0.930 . S
H2941 C2950 0.930 . S
H2942 C2955 0.929 . S
H2943 C2953 0.929 . S
H2944 C2948 0.929 . S
H2945 C2954 0.929 . S
C2946 H2940 0.930 . S
C2946 C2947 1.367 . S
C2946 C2954 1.378 . S
C2947 C2946 1.367 . S
C2947 C2955 1.433 . S
C2948 H2944 0.929 . S
C2948 C2950 1.378 . S
C2948 C2952 1.350 . S
C2949 C2952 1.463 . S
C2949 C2954 1.350 . S
C2949 N2957 1.427 . S
C2950 H2941 0.930 . S
C2950 C2948 1.378 . S
C2950 C2951 1.367 . S
C2951 C2950 1.367 . S
C2951 C2953 1.433 . S
C2952 C2948 1.350 . S
C2952 C2949 1.463 . S
C2952 N2956 1.427 . S
C2953 H2943 0.929 . S
C2953 C2951 1.433 . S
C2953 N2956 1.384 . S
C2954 H2945 0.929 . S
C2954 C2946 1.378 . S
C2954 C2949 1.350 . S
C2955 H2942 0.929 . S
C2955 C2947 1.433 . S
C2955 N2957 1.384 . S
N2956 C2952 1.427 . S
N2956 C2953 1.384 . S
N2957 C2949 1.427 . S
N2957 C2955 1.384 . S
H2958 C2964 0.930 . S
H2959 C2968 0.930 . S
H2960 C2973 0.929 . S
H2961 C2971 0.929 . S
H2962 C2966 0.929 . S
H2963 C2972 0.929 . S
C2964 H2958 0.930 . S
C2964 C2965 1.367 . S
C2964 C2972 1.378 . S
C2965 C2964 1.367 . S
C2965 C2973 1.433 . S
C2966 H2962 0.929 . S
C2966 C2968 1.378 . S
C2966 C2970 1.350 . S
C2967 C2970 1.463 . S
C2967 C2972 1.350 . S
C2967 N2975 1.427 . S
C2968 H2959 0.930 . S
C2968 C2966 1.378 . S
C2968 C2969 1.367 . S
C2969 C2968 1.367 . S
C2969 C2971 1.433 . S
C2970 C2966 1.350 . S
C2970 C2967 1.463 . S
C2970 N2974 1.427 . S
C2971 H2961 0.929 . S
C2971 C2969 1.433 . S
C2971 N2974 1.384 . S
C2972 H2963 0.929 . S
C2972 C2964 1.378 . S
C2972 C2967 1.350 . S
C2973 H2960 0.929 . S
C2973 C2965 1.433 . S
C2973 N2975 1.384 . S
N2974 C2970 1.427 . S
N2974 C2971 1.384 . S
N2975 C2967 1.427 . S
N2975 C2973 1.384 . S
H2976 C2982 0.930 . S
H2977 C2986 0.930 . S
H2978 C2991 0.929 . S
H2979 C2989 0.929 . S
H2980 C2984 0.929 . S
H2981 C2990 0.929 . S
C2982 H2976 0.930 . S
C2982 C2983 1.367 . S
C2982 C2990 1.378 . S
C2983 C2982 1.367 . S
C2983 C2991 1.433 . S
C2984 H2980 0.929 . S
C2984 C2986 1.378 . S
C2984 C2988 1.350 . S
C2985 C2988 1.463 . S
C2985 C2990 1.350 . S
C2985 N2993 1.427 . S
C2986 H2977 0.930 . S
C2986 C2984 1.378 . S
C2986 C2987 1.367 . S
C2987 C2986 1.367 . S
C2987 C2989 1.433 . S
C2988 C2984 1.350 . S
C2988 C2985 1.463 . S
C2988 N2992 1.427 . S
C2989 H2979 0.929 . S
C2989 C2987 1.433 . S
C2989 N2992 1.384 . S
C2990 H2981 0.929 . S
C2990 C2982 1.378 . S
C2990 C2985 1.350 . S
C2991 H2978 0.929 . S
C2991 C2983 1.433 . S
C2991 N2993 1.384 . S
N2992 C2988 1.427 . S
N2992 C2989 1.384 . S
N2993 C2985 1.427 . S
N2993 C2991 1.384 . S
H2994 C3000 0.930 . S
H2995 C3004 0.930 . S
H2996 C3009 0.929 . S
H2997 C3007 0.929 . S
H2998 C3002 0.929 . S
H2999 C3008 0.929 . S
C3000 H2994 0.930 . S
C3000 C3001 1.367 . S
C3000 C3008 1.378 . S
C3001 C3000 1.367 . S
C3001 C3009 1.433 . S
C3002 H2998 0.929 . S
C3002 C3004 1.378 . S
C3002 C3006 1.350 . S
C3003 C3006 1.463 . S
C3003 C3008 1.350 . S
C3003 N3011 1.427 . S
C3004 H2995 0.930 . S
C3004 C3002 1.378 . S
C3004 C3005 1.367 . S
C3005 C3004 1.367 . S
C3005 C3007 1.433 . S
C3006 C3002 1.350 . S
C3006 C3003 1.463 . S
C3006 N3010 1.427 . S
C3007 H2997 0.929 . S
C3007 C3005 1.433 . S
C3007 N3010 1.384 . S
C3008 H2999 0.929 . S
C3008 C3000 1.378 . S
C3008 C3003 1.350 . S
C3009 H2996 0.929 . S
C3009 C3001 1.433 . S
C3009 N3011 1.384 . S
N3010 C3006 1.427 . S
N3010 C3007 1.384 . S
N3011 C3003 1.427 . S
N3011 C3009 1.384 . S
H3012 C3018 0.930 . S
H3013 C3022 0.930 . S
H3014 C3027 0.929 1_554 S
H3015 C3025 0.929 . S
H3016 C3020 0.929 . S
H3017 C3026 0.929 . S
C3018 H3012 0.930 . S
C3018 C3019 1.367 . S
C3018 C3026 1.378 . S
C3019 C3018 1.367 . S
C3019 C3027 1.433 . S
C3020 H3016 0.929 . S
C3020 C3022 1.378 . S
C3020 C3024 1.350 . S
C3021 C3024 1.463 . S
C3021 C3026 1.350 . S
C3021 N3029 1.427 . S
C3022 H3013 0.930 . S
C3022 C3020 1.378 . S
C3022 C3023 1.367 . S
C3023 C3022 1.367 . S
C3023 C3025 1.433 . S
C3024 C3020 1.350 . S
C3024 C3021 1.463 . S
C3024 N3028 1.427 . S
C3025 H3015 0.929 . S
C3025 C3023 1.433 . S
C3025 N3028 1.384 . S
C3026 H3017 0.929 . S
C3026 C3018 1.378 . S
C3026 C3021 1.350 . S
C3027 H3014 0.929 1_556 S
C3027 C3019 1.433 . S
C3027 N3029 1.384 . S
N3028 C3024 1.427 . S
N3028 C3025 1.384 . S
N3029 C3021 1.427 . S
N3029 C3027 1.384 . S
H3030 C3036 0.930 . S
H3031 C3040 0.930 . S
H3032 C3045 0.929 . S
H3033 C3043 0.929 . S
H3034 C3038 0.929 . S
H3035 C3044 0.929 . S
C3036 H3030 0.930 . S
C3036 C3037 1.367 . S
C3036 C3044 1.378 . S
C3037 C3036 1.367 . S
C3037 C3045 1.433 . S
C3038 H3034 0.929 . S
C3038 C3040 1.378 . S
C3038 C3042 1.350 . S
C3039 C3042 1.463 . S
C3039 C3044 1.350 . S
C3039 N3047 1.427 . S
C3040 H3031 0.930 . S
C3040 C3038 1.378 . S
C3040 C3041 1.367 . S
C3041 C3040 1.367 . S
C3041 C3043 1.433 . S
C3042 C3038 1.350 . S
C3042 C3039 1.463 . S
C3042 N3046 1.427 . S
C3043 H3033 0.929 . S
C3043 C3041 1.433 . S
C3043 N3046 1.384 . S
C3044 H3035 0.929 . S
C3044 C3036 1.378 . S
C3044 C3039 1.350 . S
C3045 H3032 0.929 . S
C3045 C3037 1.433 . S
C3045 N3047 1.384 . S
N3046 C3042 1.427 . S
N3046 C3043 1.384 . S
N3047 C3039 1.427 . S
N3047 C3045 1.384 . S
H3048 C3054 0.930 . S
H3049 C3058 0.930 . S
H3050 C3063 0.929 1_554 S
H3051 C3061 0.929 . S
H3052 C3056 0.929 . S
H3053 C3062 0.929 . S
C3054 H3048 0.930 . S
C3054 C3055 1.367 . S
C3054 C3062 1.378 . S
C3055 C3054 1.367 . S
C3055 C3063 1.433 . S
C3056 H3052 0.929 . S
C3056 C3058 1.378 . S
C3056 C3060 1.350 . S
C3057 C3060 1.463 . S
C3057 C3062 1.350 . S
C3057 N3065 1.427 . S
C3058 H3049 0.930 . S
C3058 C3056 1.378 . S
C3058 C3059 1.367 . S
C3059 C3058 1.367 . S
C3059 C3061 1.433 . S
C3060 C3056 1.350 . S
C3060 C3057 1.463 . S
C3060 N3064 1.427 . S
C3061 H3051 0.929 . S
C3061 C3059 1.433 . S
C3061 N3064 1.384 . S
C3062 H3053 0.929 . S
C3062 C3054 1.378 . S
C3062 C3057 1.350 . S
C3063 H3050 0.929 1_556 S
C3063 C3055 1.433 . S
C3063 N3065 1.384 . S
N3064 C3060 1.427 . S
N3064 C3061 1.384 . S
N3065 C3057 1.427 . S
N3065 C3063 1.384 . S
H3066 C3072 0.930 . S
H3067 C3076 0.930 . S
H3068 C3081 0.929 . S
H3069 C3079 0.929 . S
H3070 C3074 0.929 . S
H3071 C3080 0.929 . S
C3072 H3066 0.930 . S
C3072 C3073 1.367 . S
C3072 C3080 1.378 . S
C3073 C3072 1.367 . S
C3073 C3081 1.433 . S
C3074 H3070 0.929 . S
C3074 C3076 1.378 . S
C3074 C3078 1.350 . S
C3075 C3078 1.463 . S
C3075 C3080 1.350 . S
C3075 N3083 1.427 . S
C3076 H3067 0.930 . S
C3076 C3074 1.378 . S
C3076 C3077 1.367 . S
C3077 C3076 1.367 . S
C3077 C3079 1.433 . S
C3078 C3074 1.350 . S
C3078 C3075 1.463 . S
C3078 N3082 1.427 . S
C3079 H3069 0.929 . S
C3079 C3077 1.433 . S
C3079 N3082 1.384 . S
C3080 H3071 0.929 . S
C3080 C3072 1.378 . S
C3080 C3075 1.350 . S
C3081 H3068 0.929 . S
C3081 C3073 1.433 . S
C3081 N3083 1.384 . S
N3082 C3078 1.427 . S
N3082 C3079 1.384 . S
N3083 C3075 1.427 . S
N3083 C3081 1.384 . S
H3084 C3090 0.930 . S
H3085 C3094 0.930 . S
H3086 C3099 0.929 . S
H3087 C3097 0.929 . S
H3088 C3092 0.929 . S
H3089 C3098 0.929 . S
C3090 H3084 0.930 . S
C3090 C3091 1.367 . S
C3090 C3098 1.378 . S
C3091 C3090 1.367 . S
C3091 C3099 1.433 . S
C3092 H3088 0.929 . S
C3092 C3094 1.378 . S
C3092 C3096 1.350 . S
C3093 C3096 1.463 . S
C3093 C3098 1.350 . S
C3093 N3101 1.427 . S
C3094 H3085 0.930 . S
C3094 C3092 1.378 . S
C3094 C3095 1.367 . S
C3095 C3094 1.367 . S
C3095 C3097 1.433 . S
C3096 C3092 1.350 . S
C3096 C3093 1.463 . S
C3096 N3100 1.427 . S
C3097 H3087 0.929 . S
C3097 C3095 1.433 . S
C3097 N3100 1.384 . S
C3098 H3089 0.929 . S
C3098 C3090 1.378 . S
C3098 C3093 1.350 . S
C3099 H3086 0.929 . S
C3099 C3091 1.433 . S
C3099 N3101 1.384 . S
N3100 C3096 1.427 . S
N3100 C3097 1.384 . S
N3101 C3093 1.427 . S
N3101 C3099 1.384 . S
H3102 C3108 0.930 . S
H3103 C3112 0.930 . S
H3104 C3117 0.929 . S
H3105 C3115 0.929 . S
H3106 C3110 0.929 . S
H3107 C3116 0.929 . S
C3108 H3102 0.930 . S
C3108 C3109 1.367 . S
C3108 C3116 1.378 . S
C3109 C3108 1.367 . S
C3109 C3117 1.433 . S
C3110 H3106 0.929 . S
C3110 C3112 1.378 . S
C3110 C3114 1.350 . S
C3111 C3114 1.463 . S
C3111 C3116 1.350 . S
C3111 N3119 1.427 . S
C3112 H3103 0.930 . S
C3112 C3110 1.378 . S
C3112 C3113 1.367 . S
C3113 C3112 1.367 . S
C3113 C3115 1.433 . S
C3114 C3110 1.350 . S
C3114 C3111 1.463 . S
C3114 N3118 1.427 . S
C3115 H3105 0.929 . S
C3115 C3113 1.433 . S
C3115 N3118 1.384 . S
C3116 H3107 0.929 . S
C3116 C3108 1.378 . S
C3116 C3111 1.350 . S
C3117 H3104 0.929 . S
C3117 C3109 1.433 . S
C3117 N3119 1.384 . S
N3118 C3114 1.427 . S
N3118 C3115 1.384 . S
N3119 C3111 1.427 . S
N3119 C3117 1.384 . S
H3120 C3126 0.930 . S
H3121 C3130 0.930 . S
H3122 C3135 0.929 . S
H3123 C3133 0.929 . S
H3124 C3128 0.929 . S
H3125 C3134 0.929 . S
C3126 H3120 0.930 . S
C3126 C3127 1.367 . S
C3126 C3134 1.378 . S
C3127 C3126 1.367 . S
C3127 C3135 1.433 . S
C3128 H3124 0.929 . S
C3128 C3130 1.378 . S
C3128 C3132 1.350 . S
C3129 C3132 1.463 . S
C3129 C3134 1.350 . S
C3129 N3137 1.427 . S
C3130 H3121 0.930 . S
C3130 C3128 1.378 . S
C3130 C3131 1.367 . S
C3131 C3130 1.367 . S
C3131 C3133 1.433 . S
C3132 C3128 1.350 . S
C3132 C3129 1.463 . S
C3132 N3136 1.427 . S
C3133 H3123 0.929 . S
C3133 C3131 1.433 . S
C3133 N3136 1.384 . S
C3134 H3125 0.929 . S
C3134 C3126 1.378 . S
C3134 C3129 1.350 . S
C3135 H3122 0.929 . S
C3135 C3127 1.433 . S
C3135 N3137 1.384 . S
N3136 C3132 1.427 . S
N3136 C3133 1.384 . S
N3137 C3129 1.427 . S
N3137 C3135 1.384 . S
H3138 C3144 0.930 . S
H3139 C3148 0.930 . S
H3140 C3153 0.929 . S
H3141 C3151 0.929 . S
H3142 C3146 0.929 . S
H3143 C3152 0.929 . S
C3144 H3138 0.930 . S
C3144 C3145 1.367 . S
C3144 C3152 1.378 . S
C3145 C3144 1.367 . S
C3145 C3153 1.433 . S
C3146 H3142 0.929 . S
C3146 C3148 1.378 . S
C3146 C3150 1.350 . S
C3147 C3150 1.463 . S
C3147 C3152 1.350 . S
C3147 N3155 1.427 . S
C3148 H3139 0.930 . S
C3148 C3146 1.378 . S
C3148 C3149 1.367 . S
C3149 C3148 1.367 . S
C3149 C3151 1.433 . S
C3150 C3146 1.350 . S
C3150 C3147 1.463 . S
C3150 N3154 1.427 . S
C3151 H3141 0.929 . S
C3151 C3149 1.433 . S
C3151 N3154 1.384 . S
C3152 H3143 0.929 . S
C3152 C3144 1.378 . S
C3152 C3147 1.350 . S
C3153 H3140 0.929 . S
C3153 C3145 1.433 . S
C3153 N3155 1.384 . S
N3154 C3150 1.427 . S
N3154 C3151 1.384 . S
N3155 C3147 1.427 . S
N3155 C3153 1.384 . S
H3156 C3162 0.930 . S
H3157 C3166 0.930 . S
H3158 C3171 0.929 . S
H3159 C3169 0.929 . S
H3160 C3164 0.929 . S
H3161 C3170 0.929 . S
C3162 H3156 0.930 . S
C3162 C3163 1.367 . S
C3162 C3170 1.378 . S
C3163 C3162 1.367 . S
C3163 C3171 1.433 . S
C3164 H3160 0.929 . S
C3164 C3166 1.378 . S
C3164 C3168 1.350 . S
C3165 C3168 1.463 . S
C3165 C3170 1.350 . S
C3165 N3173 1.427 . S
C3166 H3157 0.930 . S
C3166 C3164 1.378 . S
C3166 C3167 1.367 . S
C3167 C3166 1.367 . S
C3167 C3169 1.433 . S
C3168 C3164 1.350 . S
C3168 C3165 1.463 . S
C3168 N3172 1.427 . S
C3169 H3159 0.929 . S
C3169 C3167 1.433 . S
C3169 N3172 1.384 . S
C3170 H3161 0.929 . S
C3170 C3162 1.378 . S
C3170 C3165 1.350 . S
C3171 H3158 0.929 . S
C3171 C3163 1.433 . S
C3171 N3173 1.384 . S
N3172 C3168 1.427 . S
N3172 C3169 1.384 . S
N3173 C3165 1.427 . S
N3173 C3171 1.384 . S
H3174 C3180 0.930 . S
H3175 C3184 0.930 . S
H3176 C3189 0.929 . S
H3177 C3187 0.929 . S
H3178 C3182 0.929 . S
H3179 C3188 0.929 . S
C3180 H3174 0.930 . S
C3180 C3181 1.367 . S
C3180 C3188 1.378 . S
C3181 C3180 1.367 . S
C3181 C3189 1.433 . S
C3182 H3178 0.929 . S
C3182 C3184 1.378 . S
C3182 C3186 1.350 . S
C3183 C3186 1.463 . S
C3183 C3188 1.350 . S
C3183 N3191 1.427 . S
C3184 H3175 0.930 . S
C3184 C3182 1.378 . S
C3184 C3185 1.367 . S
C3185 C3184 1.367 . S
C3185 C3187 1.433 . S
C3186 C3182 1.350 . S
C3186 C3183 1.463 . S
C3186 N3190 1.427 . S
C3187 H3177 0.929 . S
C3187 C3185 1.433 . S
C3187 N3190 1.384 . S
C3188 H3179 0.929 . S
C3188 C3180 1.378 . S
C3188 C3183 1.350 . S
C3189 H3176 0.929 . S
C3189 C3181 1.433 . S
C3189 N3191 1.384 . S
N3190 C3186 1.427 . S
N3190 C3187 1.384 . S
N3191 C3183 1.427 . S
N3191 C3189 1.384 . S
H3192 C3198 0.930 . S
H3193 C3202 0.930 . S
H3194 C3207 0.929 . S
H3195 C3205 0.929 . S
H3196 C3200 0.929 . S
H3197 C3206 0.929 . S
C3198 H3192 0.930 . S
C3198 C3199 1.367 . S
C3198 C3206 1.378 . S
C3199 C3198 1.367 . S
C3199 C3207 1.433 . S
C3200 H3196 0.929 . S
C3200 C3202 1.378 . S
C3200 C3204 1.350 . S
C3201 C3204 1.463 . S
C3201 C3206 1.350 . S
C3201 N3209 1.427 . S
C3202 H3193 0.930 . S
C3202 C3200 1.378 . S
C3202 C3203 1.367 . S
C3203 C3202 1.367 . S
C3203 C3205 1.433 . S
C3204 C3200 1.350 . S
C3204 C3201 1.463 . S
C3204 N3208 1.427 . S
C3205 H3195 0.929 . S
C3205 C3203 1.433 . S
C3205 N3208 1.384 . S
C3206 H3197 0.929 . S
C3206 C3198 1.378 . S
C3206 C3201 1.350 . S
C3207 H3194 0.929 . S
C3207 C3199 1.433 . S
C3207 N3209 1.384 . S
N3208 C3204 1.427 . S
N3208 C3205 1.384 . S
N3209 C3201 1.427 . S
N3209 C3207 1.384 . S
H3210 C3216 0.930 . S
H3211 C3220 0.930 . S
H3212 C3225 0.929 . S
H3213 C3223 0.929 . S
H3214 C3218 0.929 . S
H3215 C3224 0.929 . S
C3216 H3210 0.930 . S
C3216 C3217 1.367 . S
C3216 C3224 1.378 . S
C3217 C3216 1.367 . S
C3217 C3225 1.433 . S
C3218 H3214 0.929 . S
C3218 C3220 1.378 . S
C3218 C3222 1.350 . S
C3219 C3222 1.463 . S
C3219 C3224 1.350 . S
C3219 N3227 1.427 . S
C3220 H3211 0.930 . S
C3220 C3218 1.378 . S
C3220 C3221 1.367 . S
C3221 C3220 1.367 . S
C3221 C3223 1.433 . S
C3222 C3218 1.350 . S
C3222 C3219 1.463 . S
C3222 N3226 1.427 . S
C3223 H3213 0.929 . S
C3223 C3221 1.433 . S
C3223 N3226 1.384 . S
C3224 H3215 0.929 . S
C3224 C3216 1.378 . S
C3224 C3219 1.350 . S
C3225 H3212 0.929 . S
C3225 C3217 1.433 . S
C3225 N3227 1.384 . S
N3226 C3222 1.427 . S
N3226 C3223 1.384 . S
N3227 C3219 1.427 . S
N3227 C3225 1.384 . S
H3228 C3234 0.930 . S
H3229 C3238 0.930 . S
H3230 C3243 0.929 . S
H3231 C3241 0.929 . S
H3232 C3236 0.929 . S
H3233 C3242 0.929 . S
C3234 H3228 0.930 . S
C3234 C3235 1.367 . S
C3234 C3242 1.378 . S
C3235 C3234 1.367 . S
C3235 C3243 1.433 . S
C3236 H3232 0.929 . S
C3236 C3238 1.378 . S
C3236 C3240 1.350 . S
C3237 C3240 1.463 . S
C3237 C3242 1.350 . S
C3237 N3245 1.427 . S
C3238 H3229 0.930 . S
C3238 C3236 1.378 . S
C3238 C3239 1.367 . S
C3239 C3238 1.367 . S
C3239 C3241 1.433 . S
C3240 C3236 1.350 . S
C3240 C3237 1.463 . S
C3240 N3244 1.427 . S
C3241 H3231 0.929 . S
C3241 C3239 1.433 . S
C3241 N3244 1.384 . S
C3242 H3233 0.929 . S
C3242 C3234 1.378 . S
C3242 C3237 1.350 . S
C3243 H3230 0.929 . S
C3243 C3235 1.433 . S
C3243 N3245 1.384 . S
N3244 C3240 1.427 . S
N3244 C3241 1.384 . S
N3245 C3237 1.427 . S
N3245 C3243 1.384 . S
H3246 C3252 0.930 . S
H3247 C3256 0.930 . S
H3248 C3261 0.929 . S
H3249 C3259 0.929 . S
H3250 C3254 0.929 . S
H3251 C3260 0.929 . S
C3252 H3246 0.930 . S
C3252 C3253 1.367 . S
C3252 C3260 1.378 . S
C3253 C3252 1.367 . S
C3253 C3261 1.433 . S
C3254 H3250 0.929 . S
C3254 C3256 1.378 . S
C3254 C3258 1.350 . S
C3255 C3258 1.463 . S
C3255 C3260 1.350 . S
C3255 N3263 1.427 . S
C3256 H3247 0.930 . S
C3256 C3254 1.378 . S
C3256 C3257 1.367 . S
C3257 C3256 1.367 . S
C3257 C3259 1.433 . S
C3258 C3254 1.350 . S
C3258 C3255 1.463 . S
C3258 N3262 1.427 . S
C3259 H3249 0.929 . S
C3259 C3257 1.433 . S
C3259 N3262 1.384 . S
C3260 H3251 0.929 . S
C3260 C3252 1.378 . S
C3260 C3255 1.350 . S
C3261 H3248 0.929 . S
C3261 C3253 1.433 . S
C3261 N3263 1.384 . S
N3262 C3258 1.427 . S
N3262 C3259 1.384 . S
N3263 C3255 1.427 . S
N3263 C3261 1.384 . S
H3264 C3270 0.930 . S
H3265 C3274 0.930 . S
H3266 C3279 0.929 . S
H3267 C3277 0.929 . S
H3268 C3272 0.929 . S
H3269 C3278 0.929 . S
C3270 H3264 0.930 . S
C3270 C3271 1.367 . S
C3270 C3278 1.378 . S
C3271 C3270 1.367 . S
C3271 C3279 1.433 . S
C3272 H3268 0.929 . S
C3272 C3274 1.378 . S
C3272 C3276 1.350 . S
C3273 C3276 1.463 . S
C3273 C3278 1.350 . S
C3273 N3281 1.427 . S
C3274 H3265 0.930 . S
C3274 C3272 1.378 . S
C3274 C3275 1.367 . S
C3275 C3274 1.367 . S
C3275 C3277 1.433 . S
C3276 C3272 1.350 . S
C3276 C3273 1.463 . S
C3276 N3280 1.427 . S
C3277 H3267 0.929 . S
C3277 C3275 1.433 . S
C3277 N3280 1.384 . S
C3278 H3269 0.929 . S
C3278 C3270 1.378 . S
C3278 C3273 1.350 . S
C3279 H3266 0.929 . S
C3279 C3271 1.433 . S
C3279 N3281 1.384 . S
N3280 C3276 1.427 . S
N3280 C3277 1.384 . S
N3281 C3273 1.427 . S
N3281 C3279 1.384 . S
H3282 C3288 0.930 . S
H3283 C3292 0.930 . S
H3284 C3297 0.929 . S
H3285 C3295 0.929 . S
H3286 C3290 0.929 . S
H3287 C3296 0.929 . S
C3288 H3282 0.930 . S
C3288 C3289 1.367 . S
C3288 C3296 1.378 . S
C3289 C3288 1.367 . S
C3289 C3297 1.433 . S
C3290 H3286 0.929 . S
C3290 C3292 1.378 . S
C3290 C3294 1.350 . S
C3291 C3294 1.463 . S
C3291 C3296 1.350 . S
C3291 N3299 1.427 . S
C3292 H3283 0.930 . S
C3292 C3290 1.378 . S
C3292 C3293 1.367 . S
C3293 C3292 1.367 . S
C3293 C3295 1.433 . S
C3294 C3290 1.350 . S
C3294 C3291 1.463 . S
C3294 N3298 1.427 . S
C3295 H3285 0.929 . S
C3295 C3293 1.433 . S
C3295 N3298 1.384 . S
C3296 H3287 0.929 . S
C3296 C3288 1.378 . S
C3296 C3291 1.350 . S
C3297 H3284 0.929 . S
C3297 C3289 1.433 . S
C3297 N3299 1.384 . S
N3298 C3294 1.427 . S
N3298 C3295 1.384 . S
N3299 C3291 1.427 . S
N3299 C3297 1.384 . S
H3300 C3306 0.930 . S
H3301 C3310 0.930 . S
H3302 C3315 0.929 . S
H3303 C3313 0.929 . S
H3304 C3308 0.929 . S
H3305 C3314 0.929 . S
C3306 H3300 0.930 . S
C3306 C3307 1.367 . S
C3306 C3314 1.378 . S
C3307 C3306 1.367 . S
C3307 C3315 1.433 . S
C3308 H3304 0.929 . S
C3308 C3310 1.378 . S
C3308 C3312 1.350 . S
C3309 C3312 1.463 . S
C3309 C3314 1.350 . S
C3309 N3317 1.427 . S
C3310 H3301 0.930 . S
C3310 C3308 1.378 . S
C3310 C3311 1.367 . S
C3311 C3310 1.367 . S
C3311 C3313 1.433 . S
C3312 C3308 1.350 . S
C3312 C3309 1.463 . S
C3312 N3316 1.427 . S
C3313 H3303 0.929 . S
C3313 C3311 1.433 . S
C3313 N3316 1.384 . S
C3314 H3305 0.929 . S
C3314 C3306 1.378 . S
C3314 C3309 1.350 . S
C3315 H3302 0.929 . S
C3315 C3307 1.433 . S
C3315 N3317 1.384 . S
N3316 C3312 1.427 . S
N3316 C3313 1.384 . S
N3317 C3309 1.427 . S
N3317 C3315 1.384 . S
H3318 C3324 0.930 . S
H3319 C3328 0.930 . S
H3320 C3333 0.929 . S
H3321 C3331 0.929 . S
H3322 C3326 0.929 . S
H3323 C3332 0.929 . S
C3324 H3318 0.930 . S
C3324 C3325 1.367 . S
C3324 C3332 1.378 . S
C3325 C3324 1.367 . S
C3325 C3333 1.433 . S
C3326 H3322 0.929 . S
C3326 C3328 1.378 . S
C3326 C3330 1.350 . S
C3327 C3330 1.463 . S
C3327 C3332 1.350 . S
C3327 N3335 1.427 . S
C3328 H3319 0.930 . S
C3328 C3326 1.378 . S
C3328 C3329 1.367 . S
C3329 C3328 1.367 . S
C3329 C3331 1.433 . S
C3330 C3326 1.350 . S
C3330 C3327 1.463 . S
C3330 N3334 1.427 . S
C3331 H3321 0.929 . S
C3331 C3329 1.433 . S
C3331 N3334 1.384 . S
C3332 H3323 0.929 . S
C3332 C3324 1.378 . S
C3332 C3327 1.350 . S
C3333 H3320 0.929 . S
C3333 C3325 1.433 . S
C3333 N3335 1.384 . S
N3334 C3330 1.427 . S
N3334 C3331 1.384 . S
N3335 C3327 1.427 . S
N3335 C3333 1.384 . S
H3336 C3342 0.930 . S
H3337 C3346 0.930 . S
H3338 C3351 0.929 . S
H3339 C3349 0.929 . S
H3340 C3344 0.929 . S
H3341 C3350 0.929 . S
C3342 H3336 0.930 . S
C3342 C3343 1.367 . S
C3342 C3350 1.378 . S
C3343 C3342 1.367 . S
C3343 C3351 1.433 . S
C3344 H3340 0.929 . S
C3344 C3346 1.378 . S
C3344 C3348 1.350 . S
C3345 C3348 1.463 . S
C3345 C3350 1.350 . S
C3345 N3353 1.427 . S
C3346 H3337 0.930 . S
C3346 C3344 1.378 . S
C3346 C3347 1.367 . S
C3347 C3346 1.367 . S
C3347 C3349 1.433 . S
C3348 C3344 1.350 . S
C3348 C3345 1.463 . S
C3348 N3352 1.427 . S
C3349 H3339 0.929 . S
C3349 C3347 1.433 . S
C3349 N3352 1.384 . S
C3350 H3341 0.929 . S
C3350 C3342 1.378 . S
C3350 C3345 1.350 . S
C3351 H3338 0.929 . S
C3351 C3343 1.433 . S
C3351 N3353 1.384 . S
N3352 C3348 1.427 . S
N3352 C3349 1.384 . S
N3353 C3345 1.427 . S
N3353 C3351 1.384 . S
H3354 C3360 0.930 . S
H3355 C3364 0.930 . S
H3356 C3369 0.929 . S
H3357 C3367 0.929 . S
H3358 C3362 0.929 . S
H3359 C3368 0.929 . S
C3360 H3354 0.930 . S
C3360 C3361 1.367 . S
C3360 C3368 1.378 . S
C3361 C3360 1.367 . S
C3361 C3369 1.433 . S
C3362 H3358 0.929 . S
C3362 C3364 1.378 . S
C3362 C3366 1.350 . S
C3363 C3366 1.463 . S
C3363 C3368 1.350 . S
C3363 N3371 1.427 . S
C3364 H3355 0.930 . S
C3364 C3362 1.378 . S
C3364 C3365 1.367 . S
C3365 C3364 1.367 . S
C3365 C3367 1.433 . S
C3366 C3362 1.350 . S
C3366 C3363 1.463 . S
C3366 N3370 1.427 . S
C3367 H3357 0.929 . S
C3367 C3365 1.433 . S
C3367 N3370 1.384 . S
C3368 H3359 0.929 . S
C3368 C3360 1.378 . S
C3368 C3363 1.350 . S
C3369 H3356 0.929 . S
C3369 C3361 1.433 . S
C3369 N3371 1.384 . S
N3370 C3366 1.427 . S
N3370 C3367 1.384 . S
N3371 C3363 1.427 . S
N3371 C3369 1.384 . S
H3372 C3378 0.930 . S
H3373 C3382 0.930 . S
H3374 C3387 0.929 . S
H3375 C3385 0.929 . S
H3376 C3380 0.929 . S
H3377 C3386 0.929 . S
C3378 H3372 0.930 . S
C3378 C3379 1.367 . S
C3378 C3386 1.378 . S
C3379 C3378 1.367 . S
C3379 C3387 1.433 . S
C3380 H3376 0.929 . S
C3380 C3382 1.378 . S
C3380 C3384 1.350 . S
C3381 C3384 1.463 . S
C3381 C3386 1.350 . S
C3381 N3389 1.427 . S
C3382 H3373 0.930 . S
C3382 C3380 1.378 . S
C3382 C3383 1.367 . S
C3383 C3382 1.367 . S
C3383 C3385 1.433 . S
C3384 C3380 1.350 . S
C3384 C3381 1.463 . S
C3384 N3388 1.427 . S
C3385 H3375 0.929 . S
C3385 C3383 1.433 . S
C3385 N3388 1.384 . S
C3386 H3377 0.929 . S
C3386 C3378 1.378 . S
C3386 C3381 1.350 . S
C3387 H3374 0.929 . S
C3387 C3379 1.433 . S
C3387 N3389 1.384 . S
N3388 C3384 1.427 . S
N3388 C3385 1.384 . S
N3389 C3381 1.427 . S
N3389 C3387 1.384 . S
H3390 C3396 0.930 . S
H3391 C3400 0.930 . S
H3392 C3405 0.929 . S
H3393 C3403 0.929 . S
H3394 C3398 0.929 . S
H3395 C3404 0.929 . S
C3396 H3390 0.930 . S
C3396 C3397 1.367 . S
C3396 C3404 1.378 . S
C3397 C3396 1.367 . S
C3397 C3405 1.433 . S
C3398 H3394 0.929 . S
C3398 C3400 1.378 . S
C3398 C3402 1.350 . S
C3399 C3402 1.463 . S
C3399 C3404 1.350 . S
C3399 N3407 1.427 . S
C3400 H3391 0.930 . S
C3400 C3398 1.378 . S
C3400 C3401 1.367 . S
C3401 C3400 1.367 . S
C3401 C3403 1.433 . S
C3402 C3398 1.350 . S
C3402 C3399 1.463 . S
C3402 N3406 1.427 . S
C3403 H3393 0.929 . S
C3403 C3401 1.433 . S
C3403 N3406 1.384 . S
C3404 H3395 0.929 . S
C3404 C3396 1.378 . S
C3404 C3399 1.350 . S
C3405 H3392 0.929 . S
C3405 C3397 1.433 . S
C3405 N3407 1.384 . S
N3406 C3402 1.427 . S
N3406 C3403 1.384 . S
N3407 C3399 1.427 . S
N3407 C3405 1.384 . S
H3408 C3414 0.930 . S
H3409 C3418 0.930 . S
H3410 C3423 0.929 . S
H3411 C3421 0.929 . S
H3412 C3416 0.929 . S
H3413 C3422 0.929 . S
C3414 H3408 0.930 . S
C3414 C3415 1.367 . S
C3414 C3422 1.378 . S
C3415 C3414 1.367 . S
C3415 C3423 1.433 . S
C3416 H3412 0.929 . S
C3416 C3418 1.378 . S
C3416 C3420 1.350 . S
C3417 C3420 1.463 . S
C3417 C3422 1.350 . S
C3417 N3425 1.427 . S
C3418 H3409 0.930 . S
C3418 C3416 1.378 . S
C3418 C3419 1.367 . S
C3419 C3418 1.367 . S
C3419 C3421 1.433 . S
C3420 C3416 1.350 . S
C3420 C3417 1.463 . S
C3420 N3424 1.427 . S
C3421 H3411 0.929 . S
C3421 C3419 1.433 . S
C3421 N3424 1.384 . S
C3422 H3413 0.929 . S
C3422 C3414 1.378 . S
C3422 C3417 1.350 . S
C3423 H3410 0.929 . S
C3423 C3415 1.433 . S
C3423 N3425 1.384 . S
N3424 C3420 1.427 . S
N3424 C3421 1.384 . S
N3425 C3417 1.427 . S
N3425 C3423 1.384 . S
H3426 C3432 0.930 . S
H3427 C3436 0.930 . S
H3428 C3441 0.929 . S
H3429 C3439 0.929 . S
H3430 C3434 0.929 . S
H3431 C3440 0.929 . S
C3432 H3426 0.930 . S
C3432 C3433 1.367 . S
C3432 C3440 1.378 . S
C3433 C3432 1.367 . S
C3433 C3441 1.433 . S
C3434 H3430 0.929 . S
C3434 C3436 1.378 . S
C3434 C3438 1.350 . S
C3435 C3438 1.463 . S
C3435 C3440 1.350 . S
C3435 N3443 1.427 . S
C3436 H3427 0.930 . S
C3436 C3434 1.378 . S
C3436 C3437 1.367 . S
C3437 C3436 1.367 . S
C3437 C3439 1.433 . S
C3438 C3434 1.350 . S
C3438 C3435 1.463 . S
C3438 N3442 1.427 . S
C3439 H3429 0.929 . S
C3439 C3437 1.433 . S
C3439 N3442 1.384 . S
C3440 H3431 0.929 . S
C3440 C3432 1.378 . S
C3440 C3435 1.350 . S
C3441 H3428 0.929 . S
C3441 C3433 1.433 . S
C3441 N3443 1.384 . S
N3442 C3438 1.427 . S
N3442 C3439 1.384 . S
N3443 C3435 1.427 . S
N3443 C3441 1.384 . S
H3444 C3450 0.930 . S
H3445 C3454 0.930 . S
H3446 C3459 0.929 . S
H3447 C3457 0.929 . S
H3448 C3452 0.929 . S
H3449 C3458 0.929 . S
C3450 H3444 0.930 . S
C3450 C3451 1.367 . S
C3450 C3458 1.378 . S
C3451 C3450 1.367 . S
C3451 C3459 1.433 . S
C3452 H3448 0.929 . S
C3452 C3454 1.378 . S
C3452 C3456 1.350 . S
C3453 C3456 1.463 . S
C3453 C3458 1.350 . S
C3453 N3461 1.427 . S
C3454 H3445 0.930 . S
C3454 C3452 1.378 . S
C3454 C3455 1.367 . S
C3455 C3454 1.367 . S
C3455 C3457 1.433 . S
C3456 C3452 1.350 . S
C3456 C3453 1.463 . S
C3456 N3460 1.427 . S
C3457 H3447 0.929 . S
C3457 C3455 1.433 . S
C3457 N3460 1.384 . S
C3458 H3449 0.929 . S
C3458 C3450 1.378 . S
C3458 C3453 1.350 . S
C3459 H3446 0.929 . S
C3459 C3451 1.433 . S
C3459 N3461 1.384 . S
N3460 C3456 1.427 . S
N3460 C3457 1.384 . S
N3461 C3453 1.427 . S
N3461 C3459 1.384 . S
H3462 C3468 0.930 . S
H3463 C3472 0.930 . S
H3464 C3477 0.929 . S
H3465 C3475 0.929 . S
H3466 C3470 0.929 . S
H3467 C3476 0.929 . S
C3468 H3462 0.930 . S
C3468 C3469 1.367 . S
C3468 C3476 1.378 . S
C3469 C3468 1.367 . S
C3469 C3477 1.433 . S
C3470 H3466 0.929 . S
C3470 C3472 1.378 . S
C3470 C3474 1.350 . S
C3471 C3474 1.463 . S
C3471 C3476 1.350 . S
C3471 N3479 1.427 . S
C3472 H3463 0.930 . S
C3472 C3470 1.378 . S
C3472 C3473 1.367 . S
C3473 C3472 1.367 . S
C3473 C3475 1.433 . S
C3474 C3470 1.350 . S
C3474 C3471 1.463 . S
C3474 N3478 1.427 . S
C3475 H3465 0.929 . S
C3475 C3473 1.433 . S
C3475 N3478 1.384 . S
C3476 H3467 0.929 . S
C3476 C3468 1.378 . S
C3476 C3471 1.350 . S
C3477 H3464 0.929 . S
C3477 C3469 1.433 . S
C3477 N3479 1.384 . S
N3478 C3474 1.427 . S
N3478 C3475 1.384 . S
N3479 C3471 1.427 . S
N3479 C3477 1.384 . S
H3480 C3486 0.930 . S
H3481 C3490 0.930 . S
H3482 C3495 0.929 . S
H3483 C3493 0.929 . S
H3484 C3488 0.929 . S
H3485 C3494 0.929 . S
C3486 H3480 0.930 . S
C3486 C3487 1.367 . S
C3486 C3494 1.378 . S
C3487 C3486 1.367 . S
C3487 C3495 1.433 . S
C3488 H3484 0.929 . S
C3488 C3490 1.378 . S
C3488 C3492 1.350 . S
C3489 C3492 1.463 . S
C3489 C3494 1.350 . S
C3489 N3497 1.427 . S
C3490 H3481 0.930 . S
C3490 C3488 1.378 . S
C3490 C3491 1.367 . S
C3491 C3490 1.367 . S
C3491 C3493 1.433 . S
C3492 C3488 1.350 . S
C3492 C3489 1.463 . S
C3492 N3496 1.427 . S
C3493 H3483 0.929 . S
C3493 C3491 1.433 . S
C3493 N3496 1.384 . S
C3494 H3485 0.929 . S
C3494 C3486 1.378 . S
C3494 C3489 1.350 . S
C3495 H3482 0.929 . S
C3495 C3487 1.433 . S
C3495 N3497 1.384 . S
N3496 C3492 1.427 . S
N3496 C3493 1.384 . S
N3497 C3489 1.427 . S
N3497 C3495 1.384 . S
H3498 C3504 0.930 . S
H3499 C3508 0.930 . S
H3500 C3513 0.907 1_554 S
H3501 C3511 0.929 . S
H3502 C3506 0.929 . S
H3503 C3512 0.929 . S
C3504 H3498 0.930 . S
C3504 C3505 1.367 . S
C3504 C3512 1.378 . S
C3505 C3504 1.367 . S
C3505 C3513 1.433 . S
C3506 H3502 0.929 . S
C3506 C3508 1.378 . S
C3506 C3510 1.350 . S
C3507 C3510 1.463 . S
C3507 C3512 1.350 . S
C3507 N3515 1.427 . S
C3508 H3499 0.930 . S
C3508 C3506 1.378 . S
C3508 C3509 1.367 . S
C3509 C3508 1.367 . S
C3509 C3511 1.433 . S
C3510 C3506 1.350 . S
C3510 C3507 1.463 . S
C3510 N3514 1.427 . S
C3511 H3501 0.929 . S
C3511 C3509 1.433 . S
C3511 N3514 1.384 . S
C3512 H3503 0.929 . S
C3512 C3504 1.378 . S
C3512 C3507 1.350 . S
C3513 H3500 0.907 1_556 S
C3513 C3505 1.433 . S
C3513 N3515 1.384 . S
N3514 C3510 1.427 . S
N3514 C3511 1.384 . S
N3515 C3507 1.427 . S
N3515 C3513 1.384 . S
H3516 C3522 0.930 . S
H3517 C3526 0.930 . S
H3518 C3531 0.929 . S
H3519 C3529 0.929 . S
H3520 C3524 0.929 . S
H3521 C3530 0.929 . S
C3522 H3516 0.930 . S
C3522 C3523 1.367 . S
C3522 C3530 1.378 . S
C3523 C3522 1.367 . S
C3523 C3531 1.433 . S
C3524 H3520 0.929 . S
C3524 C3526 1.378 . S
C3524 C3528 1.350 . S
C3525 C3528 1.463 . S
C3525 C3530 1.350 . S
C3525 N3533 1.427 . S
C3526 H3517 0.930 . S
C3526 C3524 1.378 . S
C3526 C3527 1.367 . S
C3527 C3526 1.367 . S
C3527 C3529 1.433 . S
C3528 C3524 1.350 . S
C3528 C3525 1.463 . S
C3528 N3532 1.427 . S
C3529 H3519 0.929 . S
C3529 C3527 1.433 . S
C3529 N3532 1.384 . S
C3530 H3521 0.929 . S
C3530 C3522 1.378 . S
C3530 C3525 1.350 . S
C3531 H3518 0.929 . S
C3531 C3523 1.433 . S
C3531 N3533 1.384 . S
N3532 C3528 1.427 . S
N3532 C3529 1.384 . S
N3533 C3525 1.427 . S
N3533 C3531 1.384 . S
H3534 C3540 0.930 . S
H3535 C3544 0.930 . S
H3536 C3549 0.929 1_554 S
H3537 C3547 0.929 . S
H3538 C3542 0.929 . S
H3539 C3548 0.929 . S
C3540 H3534 0.930 . S
C3540 C3541 1.367 . S
C3540 C3548 1.378 . S
C3541 C3540 1.367 . S
C3541 C3549 1.433 . S
C3542 H3538 0.929 . S
C3542 C3544 1.378 . S
C3542 C3546 1.350 . S
C3543 C3546 1.463 . S
C3543 C3548 1.350 . S
C3543 N3551 1.427 . S
C3544 H3535 0.930 . S
C3544 C3542 1.378 . S
C3544 C3545 1.367 . S
C3545 C3544 1.367 . S
C3545 C3547 1.433 . S
C3546 C3542 1.350 . S
C3546 C3543 1.463 . S
C3546 N3550 1.427 . S
C3547 H3537 0.929 . S
C3547 C3545 1.433 . S
C3547 N3550 1.384 . S
C3548 H3539 0.929 . S
C3548 C3540 1.378 . S
C3548 C3543 1.350 . S
C3549 H3536 0.929 1_556 S
C3549 C3541 1.433 . S
C3549 N3551 1.384 . S
N3550 C3546 1.427 . S
N3550 C3547 1.384 . S
N3551 C3543 1.427 . S
N3551 C3549 1.384 . S
C967 C129 2.273 . S
C971 C9 2.275 . S
C985 C141 2.266 . S
C989 C21 2.266 . S
C1003 C89 2.272 . S
C1007 C49 2.271 . S
C1021 C109 2.295 . S
C1025 C69 2.294 . S
C1039 C209 2.316 . S
C1043 C169 2.315 . S
C1057 C229 2.239 . S
C1061 C189 2.238 . S
C1075 C289 2.239 . S
C1079 C249 2.237 . S
C1093 C309 2.317 . S
C1097 C269 2.316 . S
C1111 C349 2.271 . S
C1115 C329 2.268 . S
C1129 C469 2.290 . S
C1133 C369 2.291 . S
C1147 C421 2.283 . S
C1151 C389 2.268 . S
C1165 C401 2.285 . S
C1169 C449 2.275 . S
C1183 C489 2.277 . S
C1187 C609 2.275 . S
C1201 C501 2.264 . S
C1205 C621 2.264 . S
C1219 C529 2.273 . S
C1223 C569 2.274 . S
C1237 C549 2.290 . S
C1241 C589 2.291 . S
C1255 C649 2.312 . S
C1259 C689 2.314 . S
C1273 C669 2.238 . S
C1277 C709 2.240 . S
C1291 C729 2.237 . S
C1295 C769 2.240 . S
C1309 C789 2.316 . S
C1313 C749 2.316 . S
C1327 C809 2.269 . S
C1331 C829 2.271 . S
C1345 C949 2.287 . S
C1349 C849 2.288 . S
C1363 C869 2.269 . S
C1367 C901 2.283 . S
C1381 C881 2.285 . S
C1385 C929 2.273 . S
C1399 C1 2.610 . S
C1403 C181 2.589 . S
C1417 C29 2.717 . S
C1421 C201 2.734 1_565 S
C1435 C41 2.463 . S
C1439 C221 2.471 . S
C1453 C161 2.464 . S
C1457 C61 2.444 . S
C1471 C301 2.642 . S
C1475 C81 2.631 . S
C1489 C241 2.682 . S
C1493 C101 2.694 . S
C1507 C261 2.563 . S
C1511 C121 2.519 1_655 S
C1525 C149 2.378 . S
C1529 C281 2.376 . S
C1543 C361 2.567 . S
C1547 C321 2.574 . S
C1561 C441 2.579 . S
C1565 C341 2.567 . S
C1579 C381 2.572 . S
C1583 C461 2.572 . S
C1597 C429 2.580 . S
C1601 C409 2.574 . S
C1615 C481 2.610 . S
C1619 C661 2.589 . S
C1633 C681 2.737 . S
C1637 C509 2.714 . S
C1651 C701 2.460 . S
C1655 C521 2.472 . S
C1669 C541 2.444 . S
C1673 C641 2.464 . S
C1687 C781 2.633 . S
C1691 C561 2.642 . S
C1705 C581 2.693 . S
C1709 C721 2.681 . S
C1723 C601 2.528 . S
C1727 C741 2.559 . S
C1741 C629 2.377 . S
C1745 C761 2.378 . S
C1759 C801 2.576 . S
C1763 C841 2.567 . S
C1777 C921 2.570 . S
C1781 C821 2.572 . S
C1795 C941 2.573 . S
C1799 C861 2.574 . S
C1813 C889 2.579 . S
C1817 C909 2.575 . S
C1831 C19 0.828 . S
C1835 C66 0.847 . S
C1849 C6 0.599 . S
C1853 C36 0.619 . S
C1867 C59 1.178 . S
C1871 C28 1.201 . S
C1885 C79 0.790 . S
C1889 C46 0.777 . S
C1903 C106 0.873 . S
C1907 C99 0.831 . S
C1921 C126 0.880 . S
C1925 C119 0.913 . S
C1939 C139 1.093 . S
C1943 C148 1.157 . S
C1957 C86 0.580 . S
C1961 C156 0.535 . S
C1975 C179 0.843 . S
C1979 C366 0.903 . S
C1993 C199 0.919 . S
C1997 C386 0.967 . S
C2011 C219 1.041 . S
C2015 C408 1.028 . S
C2029 C239 0.781 . S
C2033 C346 0.817 . S
C2047 C259 0.886 . S
C2051 C446 0.951 . S
C2065 C326 0.937 . S
C2069 C279 0.883 . S
C2083 C466 0.657 . S
C2087 C299 0.665 . S
C2101 C319 1.176 . S
C2105 C428 1.217 . S
C2119 C339 0.745 . S
C2123 C186 0.711 . S
C2137 C359 0.852 . S
C2141 C306 0.846 . S
C2155 C379 0.773 . S
C2159 C246 0.731 . S
C2173 C266 0.687 . S
C2177 C399 0.737 . S
C2191 C286 0.613 . S
C2195 C416 0.635 . S
C2209 C226 0.508 . S
C2213 C436 0.562 . S
C2227 C166 0.716 . S
C2231 C459 0.724 . S
C2245 C479 0.992 . S
C2249 C206 1.025 . S
C2263 C499 0.833 . S
C2267 C546 0.842 . S
C2281 C516 0.662 . S
C2285 C486 0.565 . S
C2299 C508 1.177 . S
C2303 C539 1.202 . S
C2317 C526 0.800 . S
C2321 C559 0.762 . S
C2335 C579 0.845 . S
C2339 C586 0.856 . S
C2353 C606 0.876 . S
C2357 C599 0.916 . S
C2371 C628 1.157 . S
C2375 C619 1.091 . S
C2389 C636 0.585 . S
C2393 C566 0.532 . S
C2407 C659 0.862 . S
C2411 C846 0.886 . S
C2425 C866 0.945 . S
C2429 C679 0.948 . S
C2443 C888 1.055 . S
C2447 C699 1.012 . S
C2461 C719 0.784 . S
C2465 C826 0.808 . S
C2479 C926 0.936 . S
C2483 C739 0.901 . S
C2497 C759 0.887 . S
C2501 C806 0.935 . S
C2515 C779 0.686 . S
C2519 C946 0.631 . S
C2533 C799 1.203 . S
C2537 C908 1.190 . S
C2551 C666 0.739 . S
C2555 C819 0.709 . S
C2569 C786 0.832 . S
C2573 C839 0.864 . S
C2587 C726 0.752 . S
C2591 C859 0.749 . S
C2605 C879 0.690 . S
C2609 C746 0.721 . S
C2623 C766 0.617 . S
C2627 C896 0.631 . S
C2641 C916 0.560 . S
C2645 C706 0.513 . S
C2659 C939 0.747 . S
C2663 C646 0.693 . S
C2677 C686 1.003 . S
C2681 C959 1.011 . S
C2695 C16 0.994 . S
C2699 C899 0.982 . S
C2713 C836 1.270 . S
C2717 C39 1.240 . S
C2731 C56 0.737 . S
C2735 C856 0.740 . S
C2749 C76 0.903 . S
C2753 C876 0.906 . S
C2767 C96 0.611 . S
C2771 C956 0.597 . S
C2785 C116 1.163 . S
C2789 C919 1.126 . S
C2803 C136 0.920 . S
C2807 C936 0.913 . S
C2821 C159 1.273 . S
C2825 C816 1.298 . S
C2839 C176 0.710 . S
C2843 C796 0.706 . S
C2857 C196 0.670 . S
C2861 C736 0.667 . S
C2875 C216 0.731 . S
C2879 C756 0.742 . S
C2893 C236 0.623 . S
C2897 C776 0.618 . S
C2911 C256 0.714 . S
C2915 C676 0.708 . S
C2929 C276 0.702 . S
C2933 C696 0.702 . S
C2947 C296 0.619 . S
C2951 C716 0.616 . S
C2965 C316 0.706 . S
C2969 C656 0.713 . S
C2983 C336 1.300 . S
C2987 C639 1.273 . S
C3001 C356 1.258 . S
C3005 C519 1.222 . S
C3019 C376 0.700 . S
C3023 C536 0.710 . S
C3037 C396 0.893 . S
C3041 C556 0.902 . S
C3055 C419 0.951 . S
C3059 C496 0.975 . S
C3073 C439 1.125 . S
C3077 C596 1.145 . S
C3091 C456 0.904 . S
C3095 C616 0.916 . S
C3109 C476 0.642 . S
C3113 C576 0.638 . S
C3127 C88 1.682 . S
C3131 C848 1.687 . S
C3145 C108 1.432 . S
C3149 C868 1.438 . S
C3163 C128 1.249 . S
C3167 C886 1.274 . S
C3181 C146 1.002 . S
C3185 C828 0.986 . S
C3199 C8 1.407 . S
C3203 C928 1.447 . S
C3217 C26 1.013 . S
C3221 C808 0.981 . S
C3235 C48 1.895 . S
C3239 C948 1.897 . S
C3253 C906 1.099 . S
C3257 C68 1.089 . S
C3271 C288 1.660 . S
C3275 C668 1.671 . S
C3289 C308 1.949 . S
C3293 C688 1.954 . S
C3307 C248 1.690 . S
C3311 C708 1.662 . S
C3325 C268 1.799 . S
C3329 C648 1.800 . S
C3343 C208 1.954 . S
C3347 C788 1.950 . S
C3361 C228 1.671 . S
C3365 C728 1.677 . S
C3379 C168 1.798 . S
C3383 C748 1.795 . S
C3397 C188 1.686 . S
C3401 C768 1.657 . S
C3415 C426 1.117 . S
C3419 C548 1.091 . S
C3433 C388 1.449 . S
C3437 C588 1.416 . S
C3451 C406 1.274 . S
C3455 C608 1.247 . S
C3469 C348 0.971 . S
C3473 C626 1.015 . S
C3487 C368 1.698 . S
C3491 C568 1.679 . S
C3505 C328 0.971 . S
C3509 C506 1.005 . S
C3523 C468 1.897 . S
C3527 C528 1.887 . S
C3541 C448 1.431 . S
C3545 C488 1.419 . S
