# Generated by pormake.
# Topology unu, (4)-cn, num edge types: 1
# Building blocks:
#     Node 0, Type 0, BuildingBlock: GALJAG_clean_sbu_0, # of connection points: 4
#     Node 1, Type 0, BuildingBlock: GALJAG_clean_sbu_0, # of connection points: 4
#     Node 2, Type 0, BuildingBlock: GALJAG_clean_sbu_0, # of connection points: 4
#     Node 3, Type 0, BuildingBlock: GALJAG_clean_sbu_0, # of connection points: 4
#     Node 4, Type 0, BuildingBlock: GALJAG_clean_sbu_0, # of connection points: 4
#     Node 5, Type 0, BuildingBlock: GALJAG_clean_sbu_0, # of connection points: 4
#     Node 6, Type 0, BuildingBlock: GALJAG_clean_sbu_0, # of connection points: 4
#     Node 7, Type 0, BuildingBlock: GALJAG_clean_sbu_0, # of connection points: 4
#     Node 8, Type 0, BuildingBlock: GALJAG_clean_sbu_0, # of connection points: 4
#     Node 9, Type 0, BuildingBlock: GALJAG_clean_sbu_0, # of connection points: 4
#     Node 10, Type 0, BuildingBlock: GALJAG_clean_sbu_0, # of connection points: 4
#     Node 11, Type 0, BuildingBlock: GALJAG_clean_sbu_0, # of connection points: 4
#     Node 12, Type 0, BuildingBlock: GALJAG_clean_sbu_0, # of connection points: 4
#     Node 13, Type 0, BuildingBlock: GALJAG_clean_sbu_0, # of connection points: 4
#     Node 14, Type 0, BuildingBlock: GALJAG_clean_sbu_0, # of connection points: 4
#     Node 15, Type 0, BuildingBlock: GALJAG_clean_sbu_0, # of connection points: 4
#     Node 16, Type 0, BuildingBlock: GALJAG_clean_sbu_0, # of connection points: 4
#     Node 17, Type 0, BuildingBlock: GALJAG_clean_sbu_0, # of connection points: 4
#     Node 18, Type 0, BuildingBlock: GALJAG_clean_sbu_0, # of connection points: 4
#     Node 19, Type 0, BuildingBlock: GALJAG_clean_sbu_0, # of connection points: 4
#     Node 20, Type 0, BuildingBlock: GALJAG_clean_sbu_0, # of connection points: 4
#     Node 21, Type 0, BuildingBlock: GALJAG_clean_sbu_0, # of connection points: 4
#     Node 22, Type 0, BuildingBlock: GALJAG_clean_sbu_0, # of connection points: 4
#     Node 23, Type 0, BuildingBlock: GALJAG_clean_sbu_0, # of connection points: 4
#     Node 24, Type 0, BuildingBlock: GALJAG_clean_sbu_0, # of connection points: 4
#     Node 25, Type 0, BuildingBlock: GALJAG_clean_sbu_0, # of connection points: 4
#     Node 26, Type 0, BuildingBlock: GALJAG_clean_sbu_0, # of connection points: 4
#     Node 27, Type 0, BuildingBlock: GALJAG_clean_sbu_0, # of connection points: 4
#     Node 28, Type 0, BuildingBlock: GALJAG_clean_sbu_0, # of connection points: 4
#     Node 29, Type 0, BuildingBlock: GALJAG_clean_sbu_0, # of connection points: 4
#     Node 30, Type 0, BuildingBlock: GALJAG_clean_sbu_0, # of connection points: 4
#     Node 31, Type 0, BuildingBlock: GALJAG_clean_sbu_0, # of connection points: 4
#     Node 32, Type 0, BuildingBlock: GALJAG_clean_sbu_0, # of connection points: 4
#     Node 33, Type 0, BuildingBlock: GALJAG_clean_sbu_0, # of connection points: 4
#     Node 34, Type 0, BuildingBlock: GALJAG_clean_sbu_0, # of connection points: 4
#     Node 35, Type 0, BuildingBlock: GALJAG_clean_sbu_0, # of connection points: 4
#     Edge 36, Type (0, 0), BuildingBlock: CIFDUS_clean_linker_0, # of connection points: 2
#     Edge 37, Type (0, 0), BuildingBlock: CIFDUS_clean_linker_0, # of connection points: 2
#     Edge 38, Type (0, 0), BuildingBlock: CIFDUS_clean_linker_0, # of connection points: 2
#     Edge 39, Type (0, 0), BuildingBlock: CIFDUS_clean_linker_0, # of connection points: 2
#     Edge 40, Type (0, 0), BuildingBlock: CIFDUS_clean_linker_0, # of connection points: 2
#     Edge 41, Type (0, 0), BuildingBlock: CIFDUS_clean_linker_0, # of connection points: 2
#     Edge 42, Type (0, 0), BuildingBlock: CIFDUS_clean_linker_0, # of connection points: 2
#     Edge 43, Type (0, 0), BuildingBlock: CIFDUS_clean_linker_0, # of connection points: 2
#     Edge 44, Type (0, 0), BuildingBlock: CIFDUS_clean_linker_0, # of connection points: 2
#     Edge 45, Type (0, 0), BuildingBlock: CIFDUS_clean_linker_0, # of connection points: 2
#     Edge 46, Type (0, 0), BuildingBlock: CIFDUS_clean_linker_0, # of connection points: 2
#     Edge 47, Type (0, 0), BuildingBlock: CIFDUS_clean_linker_0, # of connection points: 2
#     Edge 48, Type (0, 0), BuildingBlock: CIFDUS_clean_linker_0, # of connection points: 2
#     Edge 49, Type (0, 0), BuildingBlock: CIFDUS_clean_linker_0, # of connection points: 2
#     Edge 50, Type (0, 0), BuildingBlock: CIFDUS_clean_linker_0, # of connection points: 2
#     Edge 51, Type (0, 0), BuildingBlock: CIFDUS_clean_linker_0, # of connection points: 2
#     Edge 52, Type (0, 0), BuildingBlock: CIFDUS_clean_linker_0, # of connection points: 2
#     Edge 53, Type (0, 0), BuildingBlock: CIFDUS_clean_linker_0, # of connection points: 2
#     Edge 54, Type (0, 0), BuildingBlock: CIFDUS_clean_linker_0, # of connection points: 2
#     Edge 55, Type (0, 0), BuildingBlock: CIFDUS_clean_linker_0, # of connection points: 2
#     Edge 56, Type (0, 0), BuildingBlock: CIFDUS_clean_linker_0, # of connection points: 2
#     Edge 57, Type (0, 0), BuildingBlock: CIFDUS_clean_linker_0, # of connection points: 2
#     Edge 58, Type (0, 0), BuildingBlock: CIFDUS_clean_linker_0, # of connection points: 2
#     Edge 59, Type (0, 0), BuildingBlock: CIFDUS_clean_linker_0, # of connection points: 2
#     Edge 60, Type (0, 0), BuildingBlock: CIFDUS_clean_linker_0, # of connection points: 2
#     Edge 61, Type (0, 0), BuildingBlock: CIFDUS_clean_linker_0, # of connection points: 2
#     Edge 62, Type (0, 0), BuildingBlock: CIFDUS_clean_linker_0, # of connection points: 2
#     Edge 63, Type (0, 0), BuildingBlock: CIFDUS_clean_linker_0, # of connection points: 2
#     Edge 64, Type (0, 0), BuildingBlock: CIFDUS_clean_linker_0, # of connection points: 2
#     Edge 65, Type (0, 0), BuildingBlock: CIFDUS_clean_linker_0, # of connection points: 2
#     Edge 66, Type (0, 0), BuildingBlock: CIFDUS_clean_linker_0, # of connection points: 2
#     Edge 67, Type (0, 0), BuildingBlock: CIFDUS_clean_linker_0, # of connection points: 2
#     Edge 68, Type (0, 0), BuildingBlock: CIFDUS_clean_linker_0, # of connection points: 2
#     Edge 69, Type (0, 0), BuildingBlock: CIFDUS_clean_linker_0, # of connection points: 2
#     Edge 70, Type (0, 0), BuildingBlock: CIFDUS_clean_linker_0, # of connection points: 2
#     Edge 71, Type (0, 0), BuildingBlock: CIFDUS_clean_linker_0, # of connection points: 2
#     Edge 72, Type (0, 0), BuildingBlock: CIFDUS_clean_linker_0, # of connection points: 2
#     Edge 73, Type (0, 0), BuildingBlock: CIFDUS_clean_linker_0, # of connection points: 2
#     Edge 74, Type (0, 0), BuildingBlock: CIFDUS_clean_linker_0, # of connection points: 2
#     Edge 75, Type (0, 0), BuildingBlock: CIFDUS_clean_linker_0, # of connection points: 2
#     Edge 76, Type (0, 0), BuildingBlock: CIFDUS_clean_linker_0, # of connection points: 2
#     Edge 77, Type (0, 0), BuildingBlock: CIFDUS_clean_linker_0, # of connection points: 2
#     Edge 78, Type (0, 0), BuildingBlock: CIFDUS_clean_linker_0, # of connection points: 2
#     Edge 79, Type (0, 0), BuildingBlock: CIFDUS_clean_linker_0, # of connection points: 2
#     Edge 80, Type (0, 0), BuildingBlock: CIFDUS_clean_linker_0, # of connection points: 2
#     Edge 81, Type (0, 0), BuildingBlock: CIFDUS_clean_linker_0, # of connection points: 2
#     Edge 82, Type (0, 0), BuildingBlock: CIFDUS_clean_linker_0, # of connection points: 2
#     Edge 83, Type (0, 0), BuildingBlock: CIFDUS_clean_linker_0, # of connection points: 2
#     Edge 84, Type (0, 0), BuildingBlock: CIFDUS_clean_linker_0, # of connection points: 2
#     Edge 85, Type (0, 0), BuildingBlock: CIFDUS_clean_linker_0, # of connection points: 2
#     Edge 86, Type (0, 0), BuildingBlock: CIFDUS_clean_linker_0, # of connection points: 2
#     Edge 87, Type (0, 0), BuildingBlock: CIFDUS_clean_linker_0, # of connection points: 2
#     Edge 88, Type (0, 0), BuildingBlock: CIFDUS_clean_linker_0, # of connection points: 2
#     Edge 89, Type (0, 0), BuildingBlock: CIFDUS_clean_linker_0, # of connection points: 2
#     Edge 90, Type (0, 0), BuildingBlock: CIFDUS_clean_linker_0, # of connection points: 2
#     Edge 91, Type (0, 0), BuildingBlock: CIFDUS_clean_linker_0, # of connection points: 2
#     Edge 92, Type (0, 0), BuildingBlock: CIFDUS_clean_linker_0, # of connection points: 2
#     Edge 93, Type (0, 0), BuildingBlock: CIFDUS_clean_linker_0, # of connection points: 2
#     Edge 94, Type (0, 0), BuildingBlock: CIFDUS_clean_linker_0, # of connection points: 2
#     Edge 95, Type (0, 0), BuildingBlock: CIFDUS_clean_linker_0, # of connection points: 2
#     Edge 96, Type (0, 0), BuildingBlock: CIFDUS_clean_linker_0, # of connection points: 2
#     Edge 97, Type (0, 0), BuildingBlock: CIFDUS_clean_linker_0, # of connection points: 2
#     Edge 98, Type (0, 0), BuildingBlock: CIFDUS_clean_linker_0, # of connection points: 2
#     Edge 99, Type (0, 0), BuildingBlock: CIFDUS_clean_linker_0, # of connection points: 2
#     Edge 100, Type (0, 0), BuildingBlock: CIFDUS_clean_linker_0, # of connection points: 2
#     Edge 101, Type (0, 0), BuildingBlock: CIFDUS_clean_linker_0, # of connection points: 2
#     Edge 102, Type (0, 0), BuildingBlock: CIFDUS_clean_linker_0, # of connection points: 2
#     Edge 103, Type (0, 0), BuildingBlock: CIFDUS_clean_linker_0, # of connection points: 2
#     Edge 104, Type (0, 0), BuildingBlock: CIFDUS_clean_linker_0, # of connection points: 2
#     Edge 105, Type (0, 0), BuildingBlock: CIFDUS_clean_linker_0, # of connection points: 2
#     Edge 106, Type (0, 0), BuildingBlock: CIFDUS_clean_linker_0, # of connection points: 2
#     Edge 107, Type (0, 0), BuildingBlock: CIFDUS_clean_linker_0, # of connection points: 2
# Relax obj value: 0.103
# Max RMSD: 0.228
# Mean RMSD: 0.228
data_MOF--net-unu--node1-GALJAG_clean_sbu_0--edge1-CIFDUS_clean_linker_0
_symmetry_space_group_name_H-M    P1
_symmetry_Int_Tables_number       1
_symmetry_cell_setting            triclinic
loop_
_symmetry_equiv_pos_as_xyz
'x, y, z'
_cell_length_a     40.547194
_cell_length_b     40.530757
_cell_length_c     61.695803
_cell_angle_alpha  89.981338
_cell_angle_beta   90.003047
_cell_angle_gamma 119.98262
loop_
_atom_site_label
_atom_site_type_symbol
_atom_site_fract_x
_atom_site_fract_y
_atom_site_fract_z
_atom_type_partial_charge
In0 In 0.20131 0.04112 0.14943 0.0
O1 O 0.23797 0.04067 0.12141 0.0
O2 O 0.23598 0.01218 0.151 0.0
C3 C 0.16737 0.08193 0.14143 0.0
C4 C 0.24818 0.08786 0.17971 0.0
C5 C 0.13775 0.97305 0.1476 0.0
O6 O 0.18713 0.07753 0.12696 0.0
O7 O 0.16545 0.0661 0.15937 0.0
O8 O 0.1546 0.98725 0.16536 0.0
O9 O 0.15338 0.99306 0.13101 0.0
C10 C 0.24875 0.0208 0.13193 0.0
O11 O 0.22081 0.05504 0.18437 0.0
O12 O 0.25191 0.0965 0.1598 0.0
In13 In 0.94296 0.13941 0.13888 0.0
O14 O 0.94975 0.17664 0.10938 0.0
O15 O 0.97325 0.20312 0.13984 0.0
C16 C 0.90299 0.06481 0.13 0.0
C17 C 0.89184 0.14195 0.16505 0.0
C18 C 0.00988 0.14202 0.14431 0.0
O19 O 0.91177 0.08947 0.11512 0.0
O20 O 0.91379 0.07817 0.14878 0.0
O21 O 0.99124 0.1444 0.1601 0.0
O22 O -0.00501 0.13906 0.12593 0.0
C23 C 0.96818 0.2073 0.12008 0.0
O24 O 0.92309 0.14606 0.172 0.0
O25 O 0.88663 0.13676 0.14483 0.0
In26 In 0.84883 0.78362 0.13013 0.0
O27 O 0.81275 0.75506 0.10007 0.0
O28 O 0.78551 0.75075 0.13058 0.0
C29 C 0.92422 0.81781 0.12594 0.0
C30 C 0.84361 0.72672 0.15417 0.0
C31 C 0.84615 0.84796 0.13424 0.0
O32 O 0.90269 0.80388 0.10949 0.0
O33 O 0.90736 0.81393 0.14375 0.0
O34 O 0.84123 0.82639 0.15029 0.0
O35 O 0.85181 0.83656 0.11631 0.0
C36 C 0.78188 0.74238 0.11068 0.0
O37 O 0.83987 0.75347 0.16225 0.0
O38 O 0.84966 0.7288 0.13394 0.0
In39 In 0.96073 0.18088 0.40657 0.0
O40 O 0.91158 0.19177 0.40288 0.0
O41 O 0.94074 0.19209 0.37394 0.0
C42 C 0.01297 0.16094 0.3957 0.0
C43 C 0.01148 0.25291 0.41787 0.0
C44 C 0.90993 0.12159 0.43052 0.0
O45 O 0.01276 0.17667 0.41319 0.0
O46 O 0.98544 0.15358 0.38313 0.0
O47 O 0.91302 0.11994 0.41025 0.0
O48 O 0.93274 0.15331 0.43908 0.0
C49 C 0.91441 0.19584 0.38252 0.0
O50 O -0.00269 0.24327 0.39917 0.0
O51 O -0.00203 0.22635 0.43173 0.0
In52 In 0.7971 0.85027 0.47458 0.0
O53 O 0.76781 0.83733 0.44217 0.0
O54 O 0.73517 0.8319 0.47075 0.0
C55 C 0.87077 0.87534 0.46894 0.0
C56 C 0.77566 0.77996 0.48854 0.0
C57 C 0.81 0.92074 0.48086 0.0
O58 O 0.84707 0.86186 0.45344 0.0
O59 O 0.85692 0.87552 0.4873 0.0
O60 O 0.80673 0.89967 0.49699 0.0
O61 O 0.80546 0.9055 0.46246 0.0
C62 C 0.73604 0.82989 0.45028 0.0
O63 O 0.76794 0.80172 0.49965 0.0
O64 O 0.79492 0.79462 0.4716 0.0
In65 In 0.1515 0.01059 0.4088 0.0
O66 O 0.16483 0.97952 0.38235 0.0
O67 O 0.1606 0.9612 0.41523 0.0
C68 C 0.13277 0.05861 0.38968 0.0
C69 C 0.21978 0.05555 0.42672 0.0
C70 C 0.08165 0.96481 0.42466 0.0
O71 O 0.13315 0.032 0.37916 0.0
O72 O 0.14387 0.06191 0.40906 0.0
O73 O 0.10812 0.98886 0.43667 0.0
O74 O 0.09096 0.96407 0.40527 0.0
C75 C 0.16598 0.95623 0.39565 0.0
O76 O 0.19009 0.03653 0.43806 0.0
O77 O 0.21458 0.05253 0.40642 0.0
In78 In 0.81071 0.94912 0.90313 0.0
O79 O 0.777 0.9571 0.93032 0.0
O80 O 0.77809 0.97895 0.89832 0.0
C81 C 0.84572 0.90868 0.90584 0.0
C82 C 0.75582 0.89787 0.87831 0.0
C83 C 0.87481 0.01613 0.90403 0.0
O84 O 0.82953 0.91304 0.92243 0.0
O85 O 0.8436 0.92445 0.88862 0.0
O86 O 0.85642 0.00213 0.88658 0.0
O87 O 0.86033 0.99636 0.92093 0.0
C88 C 0.76594 0.97442 0.91758 0.0
O89 O 0.78326 0.92833 0.87057 0.0
O90 O 0.75656 0.89339 0.89864 0.0
In91 In 0.0704 0.85701 0.88138 0.0
O92 O 0.06527 0.81911 0.90987 0.0
O93 O 0.04024 0.79373 0.8792 0.0
C94 C 0.10847 0.93242 0.88475 0.0
C95 C 0.12343 0.85495 0.85723 0.0
C96 C 0.00264 0.85263 0.88266 0.0
O97 O 0.10491 0.91153 0.90101 0.0
O98 O 0.0932 0.9149 0.86736 0.0
O99 O 0.01664 0.84902 0.86497 0.0
O100 O 0.02275 0.85782 0.89937 0.0
C101 C 0.04633 0.7889 0.89874 0.0
O102 O 0.09244 0.84989 0.84904 0.0
O103 O 0.12706 0.86078 0.8775 0.0
In104 In 0.15874 0.2114 0.87153 0.0
O105 O 0.1643 0.23916 0.83888 0.0
O106 O 0.15781 0.26587 0.86735 0.0
C107 C 0.16023 0.1464 0.86897 0.0
C108 C 0.22765 0.25295 0.88877 0.0
C109 C 0.0842 0.17849 0.87904 0.0
O110 O 0.16278 0.16565 0.85218 0.0
O111 O 0.15731 0.16034 0.88668 0.0
O112 O 0.10806 0.19362 0.89439 0.0
O113 O 0.09833 0.18047 0.86052 0.0
C114 C 0.16142 0.26644 0.84695 0.0
O115 O 0.19777 0.24226 0.90006 0.0
O116 O 0.22218 0.24293 0.8691 0.0
In117 In 0.9733 0.7889 0.58154 0.0
O118 O 0.97258 0.75884 0.55049 0.0
O119 O 0.00581 0.7577 0.57727 0.0
C120 C 0.92635 0.81695 0.58072 0.0
C121 C 0.92771 0.73187 0.60755 0.0
C122 C 0.03639 0.85705 0.57775 0.0
O123 O 0.93169 0.80167 0.56413 0.0
O124 O 0.94458 0.81772 0.59751 0.0
O125 O 0.02741 0.83919 0.5957 0.0
O126 O 0.01432 0.83971 0.56214 0.0
C127 C 0.99438 0.74754 0.55802 0.0
O128 O 0.95885 0.75944 0.6146 0.0
O129 O 0.92084 0.73347 0.58771 0.0
In130 In 0.19036 0.15121 0.54719 0.0
O131 O 0.21293 0.17844 0.51397 0.0
O132 O 0.22031 0.21434 0.54111 0.0
C133 C 0.16129 0.07536 0.54728 0.0
C134 C 0.25148 0.16616 0.57072 0.0
C135 C 0.124 0.14965 0.55291 0.0
O136 O 0.1718 0.09431 0.52975 0.0
O137 O 0.16563 0.09477 0.56409 0.0
O138 O 0.1477 0.15784 0.56821 0.0
O139 O 0.13444 0.14338 0.53484 0.0
C140 C 0.22574 0.21204 0.52114 0.0
O141 O 0.22458 0.16998 0.57844 0.0
O142 O 0.24754 0.15556 0.55115 0.0
In143 In 0.8282 0.01 0.55505 0.0
O144 O 0.81452 0.02533 0.58801 0.0
O145 O 0.81963 0.05988 0.56052 0.0
C146 C 0.84007 0.95088 0.55802 0.0
C147 C 0.76092 0.97548 0.53468 0.0
C148 C 0.90166 0.06215 0.54901 0.0
O149 O 0.83223 0.9641 0.57463 0.0
O150 O 0.84073 0.96693 0.54037 0.0
O151 O 0.87783 0.05199 0.53356 0.0
O152 O 0.88801 0.04615 0.56694 0.0
C153 C 0.81386 0.05425 0.58067 0.0
O154 O 0.79123 -0.00111 0.52484 0.0
O155 O 0.76516 0.96981 0.55436 0.0
In156 In 0.8182 0.37607 0.35249 0.0
O157 O 0.8449 0.35101 0.3288 0.0
O158 O 0.81377 0.31894 0.35612 0.0
C159 C 0.79811 0.42283 0.33264 0.0
C160 C 0.88075 0.4237 0.37469 0.0
C161 C 0.75254 0.34065 0.37444 0.0
O162 O 0.78211 0.38768 0.32844 0.0
O163 O 0.82767 0.43471 0.34396 0.0
O164 O 0.78441 0.35862 0.38399 0.0
O165 O 0.75414 0.3404 0.35401 0.0
C166 C 0.83352 0.32103 0.33997 0.0
O167 O 0.84896 0.40289 0.38382 0.0
O168 O 0.88098 0.41992 0.35435 0.0
In169 In 0.64568 0.50098 0.4327 0.0
O170 O 0.58412 0.4743 0.42128 0.0
O171 O 0.6206 0.53307 0.4149 0.0
C172 C 0.67197 0.47981 0.39801 0.0
C173 C 0.68913 0.56716 0.45418 0.0
C174 C 0.63131 0.45029 0.46503 0.0
O175 O 0.6891 0.51337 0.40536 0.0
O176 O 0.64202 0.45742 0.40811 0.0
O177 O 0.66198 0.46551 0.4544 0.0
O178 O 0.60841 0.46137 0.4597 0.0
C179 C 0.58766 0.50446 0.41324 0.0
O180 O 0.6535 0.54765 0.45657 0.0
O181 O 0.70277 0.5532 0.44105 0.0
In182 In 0.50911 0.18345 0.4744 0.0
O183 O 0.46909 0.17479 0.44651 0.0
O184 O 0.44503 0.1548 0.47793 0.0
C185 C 0.57408 0.22405 0.45201 0.0
C186 C 0.5043 0.1158 0.48232 0.0
C187 C 0.52158 0.24278 0.4998 0.0
O188 O 0.54184 0.21294 0.44347 0.0
O189 O 0.57312 0.21388 0.47141 0.0
O190 O 0.53823 0.22393 0.50307 0.0
O191 O 0.49654 0.22936 0.48523 0.0
C192 C 0.43938 0.15841 0.45811 0.0
O193 O 0.50023 0.13482 0.49731 0.0
O194 O 0.51108 0.13123 0.46391 0.0
In195 In 0.72543 0.53284 0.71677 0.0
O196 O 0.7491 0.56468 0.68568 0.0
O197 O 0.78304 0.58583 0.71471 0.0
C198 C 0.65841 0.46878 0.71793 0.0
C199 C 0.70031 0.57623 0.73344 0.0
C200 C 0.76352 0.4958 0.71383 0.0
O201 O 0.6706 0.48897 0.70085 0.0
O202 O 0.67995 0.48158 0.73437 0.0
O203 O 0.7619 0.51038 0.73187 0.0
O204 O 0.74568 0.49991 0.69817 0.0
C205 C 0.7802 0.58936 0.69443 0.0
O206 O 0.71689 0.56329 0.74545 0.0
O207 O 0.69685 0.56699 0.71362 0.0
In208 In 0.46285 0.18725 0.68025 0.0
O209 O 0.43303 0.1807 0.6482 0.0
O210 O 0.40617 0.18492 0.67712 0.0
C211 C 0.52903 0.18971 0.67255 0.0
C212 C 0.42702 0.11798 0.69827 0.0
C213 C 0.49394 0.26115 0.69037 0.0
O214 O 0.50682 0.18692 0.65732 0.0
O215 O 0.51753 0.19097 0.69137 0.0
O216 O 0.48135 0.23575 0.70502 0.0
O217 O 0.48996 0.24885 0.67123 0.0
C218 C 0.40507 0.18169 0.65669 0.0
O219 O 0.43658 0.14774 0.70943 0.0
O220 O 0.43487 0.12362 0.67834 0.0
In221 In 0.82005 0.28269 0.66627 0.0
O222 O 0.86466 0.28895 0.69069 0.0
O223 O 0.88216 0.31292 0.65873 0.0
C224 C 0.74569 0.24473 0.67356 0.0
C225 C 0.81616 0.22947 0.63987 0.0
C226 C 0.82368 0.34921 0.67276 0.0
O227 O 0.769 0.24656 0.68803 0.0
O228 O 0.76038 0.26163 0.65589 0.0
O229 O 0.82419 0.33733 0.65372 0.0
O230 O 0.82222 0.32775 0.68809 0.0
C231 C 0.89175 0.30759 0.67737 0.0
O232 O 0.82056 0.26086 0.63265 0.0
O233 O 0.81411 0.22562 0.66032 0.0
In234 In 0.45858 0.29697 0.28142 0.0
O235 O 0.43026 0.29888 0.31341 0.0
O236 O 0.42412 0.32591 0.28522 0.0
C237 C 0.48689 0.24964 0.2837 0.0
C238 C 0.40461 0.25378 0.25291 0.0
C239 C 0.52508 0.36243 0.27753 0.0
O240 O 0.47386 0.25741 0.30045 0.0
O241 O 0.48556 0.26581 0.26655 0.0
O242 O 0.50203 0.34782 0.26192 0.0
O243 O 0.51388 0.34463 0.29524 0.0
C244 C 0.41608 0.31752 0.30493 0.0
O245 O 0.43216 0.28626 0.24793 0.0
O246 O 0.40412 0.2437 0.27238 0.0
In247 In 0.67577 0.15015 0.25681 0.0
O248 O 0.68937 0.13914 0.22249 0.0
O249 O 0.72915 0.15006 0.24816 0.0
C250 C 0.61192 0.15434 0.25905 0.0
C251 C 0.65446 0.08386 0.27657 0.0
C252 C 0.72278 0.22472 0.26263 0.0
O253 O 0.62392 0.1487 0.24121 0.0
O254 O 0.63129 0.15613 0.27549 0.0
O255 O 0.71613 0.201 0.27778 0.0
O256 O 0.70583 0.21049 0.24498 0.0
C257 C 0.72119 0.14301 0.22828 0.0
O258 O 0.67532 0.1155 0.28594 0.0
O259 O 0.6438 0.08603 0.25763 0.0
In260 In 0.82084 0.5173 0.26592 0.0
O261 O 0.8301 0.54655 0.23322 0.0
O262 O 0.82589 0.57476 0.2615 0.0
C263 C 0.81295 0.4484 0.25881 0.0
C264 C 0.88958 0.554 0.28446 0.0
C265 C 0.74813 0.49327 0.27627 0.0
O266 O 0.81712 0.47088 0.24344 0.0
O267 O 0.81374 0.46124 0.27756 0.0
O268 O 0.77385 0.50509 0.2907 0.0
O269 O 0.7595 0.49384 0.25718 0.0
C270 C 0.83013 0.5754 0.24119 0.0
O271 O 0.85951 0.54426 0.29529 0.0
O272 O 0.88446 0.54444 0.26474 0.0
In273 In 0.64612 0.14021 0.96967 0.0
O274 O 0.62256 0.11884 0.00342 0.0
O275 O 0.59164 0.08599 0.97567 0.0
C276 C 0.70809 0.20932 0.96989 0.0
C277 C 0.67691 0.09708 0.96075 0.0
C278 C 0.60096 0.16507 0.95427 0.0
O279 O 0.69109 0.19286 0.98728 0.0
O280 O 0.69438 0.19021 0.95275 0.0
O281 O 0.61418 0.14953 0.94177 0.0
O282 O 0.6105 0.16737 0.97394 0.0
C283 C 0.59349 0.08935 0.99609 0.0
O284 O 0.65636 0.10194 0.94702 0.0
O285 O 0.68234 0.11475 0.97845 0.0
In286 In 0.87297 0.50442 0.94741 0.0
O287 O 0.89762 0.51461 0.98137 0.0
O288 O 0.92521 0.50177 0.95568 0.0
C289 C 0.8078 0.50544 0.94483 0.0
C290 C 0.92007 0.57059 0.92863 0.0
C291 C 0.84079 0.42891 0.94571 0.0
O292 O 0.8264 0.51253 0.9624 0.0
O293 O 0.82294 0.49913 0.92862 0.0
O294 O 0.85779 0.44924 0.92922 0.0
O295 O 0.84004 0.44693 0.96222 0.0
C296 C 0.92448 0.50895 0.97558 0.0
O297 O 0.90823 0.53938 0.91846 0.0
O298 O 0.90725 0.56777 0.94762 0.0
In299 In 0.51307 0.36564 0.93808 0.0
O300 O 0.50421 0.38135 0.97195 0.0
O301 O 0.51049 0.4187 0.94577 0.0
C302 C 0.51572 0.30127 0.94378 0.0
C303 C 0.44601 0.34151 0.91854 0.0
C304 C 0.58697 0.41355 0.93021 0.0
O305 O 0.50865 0.31758 0.95906 0.0
O306 O 0.52072 0.31709 0.9255 0.0
O307 O 0.56305 0.40048 0.91481 0.0
O308 O 0.57331 0.4022 0.94886 0.0
C309 C 0.50556 0.41186 0.96587 0.0
O310 O 0.47701 0.36099 0.90834 0.0
O311 O 0.4494 0.33363 0.93788 0.0
In312 In 0.52498 0.68108 0.79161 0.0
O313 O 0.56495 0.6744 0.76861 0.0
O314 O 0.5502 0.6438 0.7987 0.0
C315 C 0.50118 0.72802 0.7775 0.0
C316 C 0.57524 0.73008 0.81964 0.0
C317 C 0.45639 0.61929 0.78767 0.0
O318 O 0.51892 0.71719 0.76506 0.0
O319 O 0.49626 0.71543 0.79667 0.0
O320 O 0.46948 0.63413 0.80608 0.0
O321 O 0.47867 0.63487 0.77185 0.0
C322 C 0.56919 0.65208 0.78129 0.0
O323 O 0.54548 0.70039 0.82622 0.0
O324 O 0.57863 0.73437 0.79931 0.0
In325 In 0.31461 0.83241 0.74935 0.0
O326 O 0.2936 0.84342 0.78111 0.0
O327 O 0.26228 0.83823 0.75216 0.0
C328 C 0.37395 0.82362 0.76041 0.0
C329 C 0.34576 0.9002 0.72949 0.0
C330 C 0.26482 0.75927 0.74037 0.0
O331 O 0.3555 0.8311 0.77417 0.0
O332 O 0.36315 0.8218 0.74103 0.0
O333 O 0.28335 0.7826 0.72532 0.0
O334 O 0.27177 0.77309 0.7592 0.0
C335 C 0.26523 0.84339 0.77244 0.0
O336 O 0.32605 0.86944 0.7191 0.0
O337 O 0.35077 0.89619 0.74927 0.0
In338 In 0.17217 0.47103 0.73734 0.0
O339 O 0.16033 0.43961 0.76876 0.0
O340 O 0.17034 0.41521 0.73997 0.0
C341 C 0.18177 0.53885 0.72774 0.0
C342 C 0.1008 0.43073 0.72469 0.0
C343 C 0.24561 0.49998 0.74406 0.0
O344 O 0.17056 0.52377 0.74638 0.0
O345 O 0.18693 0.51881 0.71375 0.0
O346 O 0.23073 0.48483 0.72583 0.0
O347 O 0.22322 0.50081 0.75819 0.0
C348 C 0.16344 0.41261 0.76023 0.0
O349 O 0.12795 0.43536 0.71222 0.0
O350 O 0.11043 0.4478 0.74283 0.0
In351 In 0.36878 0.85712 0.07843 0.0
O352 O 0.38696 0.88646 0.04574 0.0
O353 O 0.42314 0.91223 0.0733 0.0
C354 C 0.30358 0.79069 0.07502 0.0
C355 C 0.34496 0.89954 0.09863 0.0
C356 C 0.41358 0.82666 0.08266 0.0
O357 O 0.31884 0.81237 0.05884 0.0
O358 O 0.32068 0.80333 0.09284 0.0
O359 O 0.40481 0.83972 0.09904 0.0
O360 O 0.39985 0.82939 0.06485 0.0
C361 C 0.41766 0.91381 0.05323 0.0
O362 O 0.36394 0.88711 0.10863 0.0
O363 O 0.33751 0.88949 0.07905 0.0
In364 In 0.13419 0.49384 0.07011 0.0
O365 O 0.10094 0.45677 0.09904 0.0
O366 O 0.09977 0.42998 0.069 0.0
C367 C 0.16507 0.56812 0.07921 0.0
C368 C 0.08338 0.49244 0.04221 0.0
C369 C 0.19974 0.49318 0.06639 0.0
O370 O 0.14961 0.54309 0.09393 0.0
O371 O 0.16466 0.55531 0.06053 0.0
O372 O 0.17903 0.48943 0.05017 0.0
O373 O 0.18669 0.49615 0.0844 0.0
C374 C 0.08861 0.42605 0.08841 0.0
O375 O 0.11063 0.48779 0.0361 0.0
O376 O 0.0817 0.4971 0.06235 0.0
In377 In 0.49502 0.6217 0.06259 0.0
O378 O 0.50231 0.60742 0.02788 0.0
O379 O 0.49506 0.56834 0.05333 0.0
C380 C 0.49318 0.68685 0.06332 0.0
C381 C 0.56314 0.64408 0.08009 0.0
C382 C 0.42115 0.57531 0.07092 0.0
O383 O 0.49704 0.67279 0.04581 0.0
O384 O 0.49126 0.66846 0.08024 0.0
O385 O 0.44604 0.58405 0.08563 0.0
O386 O 0.43389 0.58995 0.05258 0.0
C387 C 0.49974 0.57601 0.03331 0.0
O388 O 0.53266 0.62347 0.09055 0.0
O389 O 0.55881 0.65362 0.06128 0.0
In390 In 0.10736 0.59348 0.48102 0.0
O391 O 0.08253 0.59801 0.51318 0.0
O392 O 0.08503 0.63315 0.48633 0.0
C393 C 0.12861 0.54176 0.47526 0.0
C394 C 0.04514 0.55462 0.45731 0.0
C395 C 0.17771 0.65247 0.4854 0.0
O396 O 0.11568 0.54512 0.49342 0.0
O397 O 0.13064 0.5645 0.46057 0.0
O398 O 0.15908 0.64713 0.46789 0.0
O399 O 0.1606 0.62811 0.50016 0.0
C400 C 0.07574 0.62341 0.50589 0.0
O401 O 0.07461 0.58334 0.44953 0.0
O402 O 0.04757 0.54639 0.47684 0.0
In403 In 0.33535 0.47765 0.44186 0.0
O404 O 0.3379 0.45015 0.47361 0.0
O405 O 0.31298 0.41463 0.44585 0.0
C406 C 0.36892 0.55328 0.44657 0.0
C407 C 0.38812 0.4791 0.41541 0.0
C408 C 0.26509 0.46764 0.44156 0.0
O409 O 0.37073 0.53231 0.4613 0.0
O410 O 0.34973 0.53574 0.43005 0.0
O411 O 0.28267 0.46991 0.42411 0.0
O412 O 0.28279 0.46934 0.45873 0.0
C413 C 0.32142 0.41676 0.46572 0.0
O414 O 0.35317 0.46048 0.41023 0.0
O415 O 0.39539 0.49583 0.43347 0.0
In416 In 0.47315 0.84035 0.48354 0.0
O417 O 0.48801 0.89124 0.46212 0.0
O418 O 0.473 0.89219 0.49562 0.0
C419 C 0.4668 0.77333 0.47537 0.0
C420 C 0.54176 0.86853 0.50085 0.0
C421 C 0.39798 0.80731 0.48163 0.0
O422 O 0.47328 0.79716 0.46014 0.0
O423 O 0.46495 0.78431 0.49437 0.0
O424 O 0.41531 0.81369 0.49976 0.0
O425 O 0.419 0.81876 0.4649 0.0
C426 C 0.48314 0.9094 0.47753 0.0
O427 O 0.5119 0.85546 0.51256 0.0
O428 O 0.53649 0.86686 0.48047 0.0
In429 In 0.27435 0.45817 0.36015 0.0
O430 O 0.27732 0.42301 0.33266 0.0
O431 O 0.29665 0.41732 0.36408 0.0
C432 C 0.24892 0.50539 0.35013 0.0
C433 C 0.20844 0.41286 0.37971 0.0
C434 C 0.34554 0.51625 0.36128 0.0
O435 O 0.25096 0.4836 0.336 0.0
O436 O 0.26045 0.50356 0.36893 0.0
O437 O 0.32762 0.50085 0.37875 0.0
O438 O 0.32757 0.5014 0.34395 0.0
C439 C 0.29233 0.40808 0.34422 0.0
O440 O 0.23925 0.42858 0.39051 0.0
O441 O 0.21201 0.41792 0.35943 0.0
In442 In 0.53002 0.80429 0.33645 0.0
O443 O 0.55753 0.83773 0.30543 0.0
O444 O 0.56206 0.86768 0.33496 0.0
C445 C 0.49756 0.72857 0.33611 0.0
C446 C 0.58703 0.81312 0.36133 0.0
C447 C 0.46578 0.8071 0.33717 0.0
O448 O 0.51241 0.74798 0.31901 0.0
O449 O 0.49919 0.74757 0.3527 0.0
O450 O 0.4865 0.81443 0.35391 0.0
O451 O 0.47765 0.7983 0.32043 0.0
C452 C 0.56962 0.86955 0.31497 0.0
O453 O 0.55953 0.81621 0.36885 0.0
O454 O 0.58574 0.80627 0.34122 0.0
In455 In 0.17892 0.72092 0.33033 0.0
O456 O 0.13905 0.69924 0.3014 0.0
O457 O 0.11557 0.68508 0.33351 0.0
C458 C 0.25342 0.75999 0.32297 0.0
C459 C 0.17396 0.78107 0.34282 0.0
C460 C 0.18361 0.66027 0.34247 0.0
O461 O 0.22985 0.74623 0.30735 0.0
O462 O 0.23887 0.75481 0.34166 0.0
O463 O 0.17916 0.68087 0.3564 0.0
O464 O 0.18437 0.66998 0.32292 0.0
C465 C 0.10958 0.6821 0.31328 0.0
O466 O 0.17189 0.75645 0.35638 0.0
O467 O 0.17795 0.77465 0.32318 0.0
H468 H 0.30386 0.16074 0.17343 0.0
H469 H 0.24942 0.07511 0.22306 0.0
H470 H 0.29222 0.11974 0.25034 0.0
H471 H 0.34597 0.18244 0.2598 0.0
H472 H 0.40048 0.2679 0.21008 0.0
H473 H 0.3564 0.22393 0.18305 0.0
C474 C 0.30136 0.15183 0.19022 0.0
C475 C 0.27372 0.11467 0.19624 0.0
C476 C 0.32592 0.17758 0.20575 0.0
C477 C 0.2706 0.10357 0.21805 0.0
C478 C 0.29501 0.12905 0.23363 0.0
C479 C 0.34804 0.19152 0.24307 0.0
C480 C 0.37643 0.22829 0.23691 0.0
C481 C 0.32286 0.16605 0.22763 0.0
C482 C 0.37883 0.23971 0.2152 0.0
C483 C 0.35373 0.21457 0.19974 0.0
H484 H 0.78915 0.15063 0.2385 0.0
H485 H 0.71381 0.13005 0.18439 0.0
H486 H 0.76025 0.12778 0.15987 0.0
H487 H 0.82267 0.13242 0.15402 0.0
H488 H 0.89725 0.1533 0.20861 0.0
H489 H 0.85048 0.15475 0.23283 0.0
C490 C 0.78275 0.14556 0.22134 0.0
C491 C 0.74814 0.14053 0.21324 0.0
C492 C 0.80946 0.14446 0.20748 0.0
C493 C 0.7403 0.13398 0.19099 0.0
C494 C 0.76683 0.13274 0.177 0.0
C495 C 0.82864 0.1373 0.17122 0.0
C496 C 0.86337 0.14282 0.17953 0.0
C497 C 0.80157 0.13808 0.18508 0.0
C498 C 0.87075 0.14902 0.20183 0.0
C499 C 0.84403 0.14984 0.21569 0.0
H500 H 0.83778 0.58299 0.19744 0.0
H501 H 0.82987 0.63884 0.25515 0.0
H502 H 0.83317 0.69053 0.2333 0.0
H503 H 0.83747 0.71951 0.19783 0.0
H504 H 0.8458 0.66417 0.14003 0.0
H505 H 0.84307 0.6126 0.16188 0.0
C506 C 0.8369 0.60655 0.20521 0.0
C507 C 0.83354 0.6071 0.22784 0.0
C508 C 0.83873 0.63618 0.19255 0.0
C509 C 0.83245 0.63777 0.23773 0.0
C510 C 0.83427 0.66732 0.22526 0.0
C511 C 0.83862 0.69613 0.19002 0.0
C512 C 0.84169 0.69554 0.16739 0.0
C513 C 0.83723 0.66672 0.20266 0.0
C514 C 0.84337 0.6652 0.15747 0.0
C515 C 0.84184 0.63572 0.16994 0.0
H516 H 0.03397 0.31741 0.39566 0.0
H517 H 0.06983 0.26861 0.44601 0.0
H518 H 0.13615 0.31907 0.44093 0.0
H519 H 0.18472 0.36911 0.41673 0.0
H520 H 0.14655 0.41271 0.36453 0.0
H521 H 0.08077 0.37276 0.37577 0.0
C522 C 0.05619 0.3186 0.40602 0.0
C523 C 0.04726 0.28924 0.42094 0.0
C524 C 0.09413 0.34634 0.40224 0.0
C525 C 0.07609 0.29108 0.43442 0.0
C526 C 0.11409 0.31959 0.43127 0.0
C527 C 0.16192 0.37019 0.40817 0.0
C528 C 0.17019 0.39284 0.38947 0.0
C529 C 0.12367 0.34611 0.41437 0.0
C530 C 0.14065 0.39458 0.37861 0.0
C531 C 0.10303 0.37191 0.38507 0.0
H532 H 0.7316 0.82544 0.40659 0.0
H533 H 0.66765 0.81983 0.46377 0.0
H534 H 0.61575 0.81451 0.44119 0.0
H535 H 0.58954 0.81347 0.40518 0.0
H536 H 0.65347 0.8186 0.34808 0.0
H537 H 0.70461 0.82235 0.3707 0.0
C538 C 0.70617 0.82273 0.41409 0.0
C539 C 0.7034 0.82307 0.43674 0.0
C540 C 0.67665 0.81997 0.40106 0.0
C541 C 0.67034 0.81954 0.44631 0.0
C542 C 0.64075 0.81668 0.43343 0.0
C543 C 0.61474 0.81554 0.39772 0.0
C544 C 0.61795 0.81604 0.37507 0.0
C545 C 0.64382 0.81731 0.4108 0.0
C546 C 0.65048 0.81828 0.36554 0.0
C547 C 0.67967 0.82036 0.37843 0.0
H548 H 0.16872 0.93295 0.35466 0.0
H549 H 0.17312 0.9065 0.422 0.0
H550 H 0.17583 0.84988 0.41168 0.0
H551 H 0.17511 0.80672 0.3836 0.0
H552 H 0.1708 0.83298 0.31623 0.0
H553 H 0.16972 0.89057 0.32649 0.0
C554 C 0.17059 0.91493 0.36704 0.0
C555 C 0.17065 0.92384 0.38902 0.0
C556 C 0.17183 0.88216 0.36101 0.0
C557 C 0.17297 0.90022 0.40492 0.0
C558 C 0.17442 0.86775 0.39906 0.0
C559 C 0.17385 0.82502 0.37119 0.0
C560 C 0.17282 0.81552 0.34924 0.0
C561 C 0.17346 0.85822 0.37717 0.0
C562 C 0.17151 0.83964 0.33329 0.0
C563 C 0.17094 0.87262 0.33912 0.0
H564 H 0.63782 0.79478 0.80772 0.0
H565 H 0.57926 0.72782 0.86402 0.0
H566 H 0.6305 0.7742 0.88736 0.0
H567 H 0.69227 0.83344 0.89139 0.0
H568 H 0.74975 0.89948 0.83454 0.0
H569 H 0.69832 0.8534 0.81164 0.0
C570 C 0.63613 0.79025 0.82511 0.0
C571 C 0.60489 0.75795 0.83417 0.0
C572 C 0.66548 0.81674 0.83824 0.0
C573 C 0.60307 0.75255 0.85671 0.0
C574 C 0.63235 0.77898 0.87001 0.0
C575 C 0.69351 0.83767 0.87398 0.0
C576 C 0.72476 0.86973 0.86463 0.0
C577 C 0.66376 0.8111 0.8609 0.0
C578 C 0.72601 0.875 0.8421 0.0
C579 C 0.69664 0.84871 0.829 0.0
H580 H 0.12572 0.84876 0.81349 0.0
H581 H 0.18892 0.85993 0.87198 0.0
H582 H 0.23899 0.85848 0.85084 0.0
H583 H 0.26432 0.85287 0.81586 0.0
H584 H 0.20141 0.84186 0.75729 0.0
H585 H 0.15188 0.84465 0.77833 0.0
C586 C 0.15046 0.85087 0.82158 0.0
C587 C 0.15356 0.85428 0.84423 0.0
C588 C 0.17924 0.85014 0.80933 0.0
C589 C 0.18584 0.8572 0.85453 0.0
C590 C 0.21451 0.8564 0.84247 0.0
C591 C 0.23986 0.85127 0.80771 0.0
C592 C 0.23646 0.8471 0.7851 0.0
C593 C 0.21144 0.85274 0.81988 0.0
C594 C 0.20464 0.84507 0.77472 0.0
C595 C 0.17627 0.84659 0.78672 0.0
H596 H 0.16474 0.27224 0.80309 0.0
H597 H 0.15713 0.32769 0.86106 0.0
H598 H 0.15562 0.37708 0.83924 0.0
H599 H 0.15726 0.40494 0.80382 0.0
H600 H 0.16549 0.35014 0.74574 0.0
H601 H 0.16565 0.29985 0.7675 0.0
C602 C 0.16282 0.29518 0.81091 0.0
C603 C 0.16118 0.29643 0.8336 0.0
C604 C 0.1619 0.32347 0.79828 0.0
C605 C 0.15853 0.32618 0.84358 0.0
C606 C 0.1576 0.3544 0.83114 0.0
C607 C 0.15885 0.38187 0.79592 0.0
C608 C 0.16134 0.38119 0.77326 0.0
C609 C 0.1593 0.35334 0.80849 0.0
C610 C 0.16354 0.35124 0.76321 0.0
C611 C 0.16372 0.32254 0.77562 0.0
H612 H 0.78622 0.59339 0.65092 0.0
H613 H 0.84511 0.6515 0.70928 0.0
H614 H 0.89755 0.70017 0.68765 0.0
H615 H 0.92577 0.72697 0.65181 0.0
H616 H 0.86584 0.66722 0.59392 0.0
H617 H 0.81502 0.61826 0.61572 0.0
C618 C 0.81046 0.61677 0.65892 0.0
C619 C 0.81168 0.61911 0.6816 0.0
C620 C 0.84048 0.64424 0.64645 0.0
C621 C 0.84349 0.64926 0.69177 0.0
C622 C 0.87349 0.67702 0.67943 0.0
C623 C 0.90178 0.70299 0.64405 0.0
C624 C 0.89951 0.70082 0.62132 0.0
C625 C 0.87225 0.67487 0.65672 0.0
C626 C 0.8682 0.66968 0.61141 0.0
C627 C 0.83902 0.64165 0.62384 0.0
H628 H 0.39745 0.17623 0.61303 0.0
H629 H 0.34267 0.18383 0.67126 0.0
H630 H 0.291 0.18155 0.64971 0.0
H631 H 0.26076 0.17607 0.61431 0.0
H632 H 0.31535 0.16739 0.55626 0.0
H633 H 0.36788 0.17176 0.57775 0.0
C634 C 0.3742 0.17737 0.621 0.0
C635 C 0.37378 0.18005 0.64367 0.0
C636 C 0.34464 0.17601 0.60854 0.0
C637 C 0.34355 0.18164 0.6538 0.0
C638 C 0.31404 0.1804 0.6415 0.0
C639 C 0.28433 0.17546 0.60638 0.0
C640 C 0.28422 0.17144 0.58377 0.0
C641 C 0.31424 0.17748 0.61886 0.0
C642 C 0.31478 0.17044 0.57368 0.0
C643 C 0.3448 0.17285 0.58594 0.0
H644 H 0.80604 0.1609 0.65206 0.0
H645 H 0.82096 0.23023 0.59572 0.0
H646 H 0.81916 0.18069 0.57232 0.0
H647 H 0.81603 0.11914 0.56812 0.0
H648 H 0.80247 0.05031 0.62447 0.0
H649 H 0.80066 0.09827 0.64772 0.0
C650 C 0.80878 0.16514 0.63464 0.0
C651 C 0.81386 0.19924 0.6256 0.0
C652 C 0.80791 0.1367 0.62136 0.0
C653 C 0.81719 0.20427 0.60304 0.0
C654 C 0.81614 0.17598 0.58967 0.0
C655 C 0.81238 0.11446 0.58548 0.0
C656 C 0.80951 0.08134 0.59461 0.0
C657 C 0.81188 0.14228 0.59869 0.0
C658 C 0.80477 0.07564 0.61709 0.0
C659 C 0.80385 0.10306 0.63037 0.0
H660 H 0.03803 0.5494 0.41339 0.0
H661 H 0.97492 0.50582 0.4729 0.0
H662 H 0.91829 0.4619 0.45252 0.0
H663 H 0.88733 0.43415 0.41804 0.0
H664 H 0.95023 0.47562 0.35833 0.0
H665 H 0.00634 0.52195 0.37851 0.0
C666 C 0.01172 0.53056 0.42181 0.0
C667 C 0.01055 0.53079 0.44455 0.0
C668 C 0.97938 0.50476 0.41 0.0
C669 C 0.97648 0.50603 0.45536 0.0
C670 C 0.94411 0.48087 0.44375 0.0
C671 C 0.91331 0.45333 0.40944 0.0
C672 C 0.91474 0.4514 0.38679 0.0
C673 C 0.94538 0.47965 0.42111 0.0
C674 C 0.94855 0.47645 0.37583 0.0
C675 C 0.98059 0.50301 0.38733 0.0
H676 H 0.45546 0.53926 0.40541 0.0
H677 H 0.39005 0.4171 0.4001 0.0
H678 H 0.44872 0.41446 0.39531 0.0
H679 H 0.51826 0.44617 0.40138 0.0
H680 H 0.58306 0.56854 0.40751 0.0
H681 H 0.5251 0.57206 0.40301 0.0
C682 C 0.45413 0.51227 0.40225 0.0
C683 C 0.41892 0.4784 0.40335 0.0
C684 C 0.4879 0.51103 0.4003 0.0
C685 C 0.41703 0.44349 0.39921 0.0
C686 C 0.45061 0.44199 0.39685 0.0
C687 C 0.51974 0.47364 0.40119 0.0
C688 C 0.55463 0.50698 0.40534 0.0
C689 C 0.4862 0.4754 0.39876 0.0
C690 C 0.55643 0.54247 0.40462 0.0
C691 C 0.52329 0.54449 0.40212 0.0
H692 H 0.51233 0.0724 0.4519 0.0
H693 H 0.48719 0.07395 0.51974 0.0
H694 H 0.4786 0.01005 0.52417 0.0
H695 H 0.47732 0.95362 0.50855 0.0
H696 H 0.5024 0.9524 0.44065 0.0
H697 H 0.5119 0.01657 0.43643 0.0
C698 C 0.50508 0.05884 0.46769 0.0
C699 C 0.50036 0.07784 0.48548 0.0
C700 C 0.50007 0.02222 0.47006 0.0
C701 C 0.49099 0.0599 0.50582 0.0
C702 C 0.48603 0.02339 0.50833 0.0
C703 C 0.48487 0.96738 0.49281 0.0
C704 C 0.48906 0.94824 0.4749 0.0
C705 C 0.49032 0.00424 0.49053 0.0
C706 C 0.49896 0.96649 0.45466 0.0
C707 C 0.5044 0.00317 0.45225 0.0
H708 H 0.48229 0.97611 0.06658 0.0
H709 H 0.4164 0.92108 0.00932 0.0
H710 H 0.46508 0.97129 0.98666 0.0
H711 H 0.52686 0.02949 0.98315 0.0
H712 H 0.59282 0.08485 0.04031 0.0
H713 H 0.54331 0.03558 0.06313 0.0
C714 C 0.47851 0.97517 0.04914 0.0
C715 C 0.44594 0.94491 0.03959 0.0
C716 C 0.50656 0.004 0.03627 0.0
C717 C 0.44129 0.9441 0.01702 0.0
C718 C 0.4691 0.97273 0.00407 0.0
C719 C 0.53042 0.03083 0.00061 0.0
C720 C 0.56348 0.06057 0.01007 0.0
C721 C 0.50194 0.00258 0.01353 0.0
C722 C 0.5676 0.06213 0.03269 0.0
C723 C 0.53936 0.03401 0.04571 0.0
H724 H 0.98149 0.49523 0.96625 0.0
H725 H 0.92925 0.52187 0.01926 0.0
H726 H 0.97393 0.51867 0.04467 0.0
H727 H 0.02714 0.50753 0.05169 0.0
H728 H 0.07911 0.48087 0.99854 0.0
H729 H 0.03481 0.48464 0.97318 0.0
C730 C 0.97994 0.50049 0.98336 0.0
C731 C 0.95219 0.50879 0.99092 0.0
C732 C 0.00543 0.49838 0.99779 0.0
C733 C 0.95046 0.51548 0.0131 0.0
C734 C 0.97589 0.51356 0.0276 0.0
C735 C 0.02869 0.50244 0.03456 0.0
C736 C 0.0562 0.49382 0.02696 0.0
C737 C 0.00333 0.50484 0.02012 0.0
C738 C 0.05808 0.48747 0.00474 0.0
C739 C 0.03284 0.48969 0.99026 0.0
H740 H 0.51059 0.47951 0.95647 0.0
H741 H 0.49432 0.40324 0.00948 0.0
H742 H 0.49107 0.44762 0.03495 0.0
H743 H 0.49345 0.50798 0.04214 0.0
H744 H 0.50991 0.58474 0.9894 0.0
H745 H 0.51257 0.5401 0.96371 0.0
C746 C 0.50624 0.47258 0.9736 0.0
C747 C 0.50269 0.43821 0.98113 0.0
C748 C 0.50455 0.49826 0.98813 0.0
C749 C 0.49712 0.42955 0.00333 0.0
C750 C 0.49529 0.45489 0.01788 0.0
C751 C 0.49764 0.515 0.02502 0.0
C752 C 0.50155 0.54957 0.01764 0.0
C753 C 0.4991 0.48932 0.01046 0.0
C754 C 0.50688 0.55827 0.99544 0.0
C755 C 0.50838 0.53278 0.98078 0.0
H756 H 0.28246 0.98744 0.15336 0.0
H757 H 0.26609 0.01953 0.08927 0.0
H758 H 0.29643 0.98599 0.07341 0.0
H759 H 0.32266 0.94346 0.07775 0.0
H760 H 0.33947 0.91157 0.14178 0.0
H761 H 0.3138 0.94938 0.15783 0.0
C762 C 0.28591 0.98744 0.13592 0.0
C763 C 0.27174 0.00554 0.12244 0.0
C764 C 0.30304 0.96791 0.12698 0.0
C765 C 0.27674 0.00573 0.09993 0.0
C766 C 0.29387 0.9864 0.09089 0.0
C767 C 0.32083 0.9449 0.09523 0.0
C768 C 0.33233 0.92436 0.10862 0.0
C769 C 0.30627 0.96669 0.10425 0.0
C770 C 0.33053 0.92699 0.1312 0.0
C771 C 0.31585 0.94853 0.14034 0.0
H772 H 0.04992 0.35965 0.06658 0.0
H773 H 0.07103 0.40728 0.13104 0.0
H774 H 0.03314 0.34335 0.14638 0.0
H775 H -0.00235 0.2741 0.14149 0.0
H776 H 0.97625 0.22631 0.07708 0.0
H777 H 0.01043 0.2905 0.06156 0.0
C778 C 0.04608 0.35605 0.08399 0.0
C779 C 0.06357 0.38802 0.09772 0.0
C780 C 0.02431 0.31934 0.09263 0.0
C781 C 0.05796 0.38306 0.12019 0.0
C782 C 0.03639 0.34655 0.12894 0.0
C783 C 0.00021 0.27772 0.12404 0.0
C784 C 0.98482 0.2456 0.11041 0.0
C785 C 0.01998 0.31453 0.11532 0.0
C786 C 0.98793 0.25065 0.08786 0.0
C787 C 0.00759 0.28729 0.07902 0.0
H788 H 0.62934 0.67524 0.05782 0.0
H789 H 0.58239 0.64082 0.12209 0.0
H790 H 0.6465 0.66597 0.13691 0.0
H791 H 0.71555 0.70128 0.13183 0.0
H792 H 0.76289 0.73564 0.06767 0.0
H793 H 0.69855 0.70632 0.05239 0.0
C794 C 0.63315 0.67312 0.07507 0.0
C795 C 0.60134 0.6567 0.08894 0.0
C796 C 0.66996 0.68752 0.08341 0.0
C797 C 0.60652 0.65354 0.11116 0.0
C798 C 0.64311 0.66793 0.11961 0.0
C799 C 0.71181 0.7021 0.11447 0.0
C800 C 0.74378 0.72092 0.10087 0.0
C801 C 0.67498 0.6855 0.10592 0.0
C802 C 0.73862 0.72134 0.07841 0.0
C803 C 0.70191 0.70478 0.06972 0.0
H804 H 0.80135 0.25071 0.35672 0.0
H805 H 0.89792 0.33103 0.31913 0.0
H806 H 0.92986 0.29415 0.32608 0.0
H807 H 0.93491 0.24625 0.34896 0.0
H808 H 0.84019 0.17146 0.38962 0.0
H809 H 0.80282 0.19865 0.37537 0.0
C810 C 0.82899 0.25962 0.34955 0.0
C811 C 0.84751 0.29378 0.3377 0.0
C812 C 0.84777 0.23951 0.35457 0.0
C813 C 0.88308 0.30479 0.3283 0.0
C814 C 0.90152 0.28395 0.33253 0.0
C815 C 0.90572 0.23531 0.35417 0.0
C816 C 0.89025 0.20709 0.37037 0.0
C817 C 0.88492 0.25235 0.34656 0.0
C818 C 0.85264 0.19334 0.37726 0.0
C819 C 0.83132 0.20892 0.36915 0.0
H820 H 0.66578 0.60513 0.4811 0.0
H821 H 0.76556 0.61397 0.45037 0.0
H822 H 0.80341 0.67968 0.46265 0.0
H823 H 0.80589 0.73695 0.47707 0.0
H824 H 0.70632 0.73025 0.50643 0.0
H825 H 0.67095 0.66114 0.50046 0.0
C826 C 0.69595 0.62128 0.47741 0.0
C827 C 0.71268 0.60489 0.46448 0.0
C828 C 0.71756 0.65941 0.48432 0.0
C829 C 0.75186 0.62602 0.46004 0.0
C830 C 0.77356 0.66363 0.46707 0.0
C831 C 0.77675 0.72014 0.48276 0.0
C832 C 0.75858 0.73856 0.49201 0.0
C833 C 0.75641 0.68095 0.47853 0.0
C834 C 0.72096 0.71662 0.49942 0.0
C835 C 0.70061 0.6772 0.49569 0.0
H836 H 0.37249 0.12612 0.48016 0.0
H837 H 0.41988 0.1584 0.41585 0.0
H838 H 0.35596 0.13159 0.40063 0.0
H839 H 0.28669 0.09606 0.40538 0.0
H840 H 0.23903 0.06313 0.46958 0.0
H841 H 0.30306 0.09354 0.4851 0.0
C842 C 0.36881 0.12743 0.46282 0.0
C843 C 0.40081 0.14393 0.44912 0.0
C844 C 0.33199 0.11188 0.45418 0.0
C845 C 0.39567 0.14569 0.42672 0.0
C846 C 0.35914 0.13036 0.41801 0.0
C847 C 0.29029 0.09583 0.42279 0.0
C848 C 0.2582 0.0772 0.43631 0.0
C849 C 0.32711 0.11298 0.43155 0.0
C850 C 0.26331 0.07724 0.45883 0.0
C851 C 0.2999 0.0945 0.46771 0.0
H852 H 0.76335 0.0039 0.95673 0.0
H853 H 0.71482 0.98041 0.89255 0.0
H854 H 0.68119 0.0148 0.90053 0.0
H855 H 0.66975 0.05597 0.92461 0.0
H856 H 0.72041 0.0823 0.98831 0.0
H857 H 0.74907 0.04271 0.98169 0.0
C858 C 0.74478 0.00576 0.94474 0.0
C859 C 0.74148 0.98982 0.92414 0.0
C860 C 0.72643 0.02664 0.9492 0.0
C861 C 0.71781 0.9927 0.90852 0.0
C862 C 0.69871 0.01245 0.91302 0.0
C863 C 0.68694 0.05291 0.93705 0.0
C864 C 0.69324 0.07227 0.95679 0.0
C865 C 0.70358 0.03037 0.9331 0.0
C866 C 0.71538 0.06788 0.97286 0.0
C867 C 0.73172 0.04517 0.96913 0.0
H868 H 0.96202 0.63567 0.95078 0.0
H869 H 0.93827 0.5895 0.88597 0.0
H870 H 0.97842 0.65353 0.87105 0.0
H871 H 0.01577 0.72271 0.87654 0.0
H872 H 0.03942 0.76862 0.94143 0.0
H873 H 0.004 0.70414 0.95636 0.0
C874 C 0.96579 0.63959 0.93338 0.0
C875 C 0.94684 0.60815 0.91942 0.0
C876 C 0.98877 0.67625 0.92502 0.0
C877 C 0.95246 0.6134 0.89697 0.0
C878 C 0.97529 0.64994 0.88848 0.0
C879 C 0.01349 0.71858 0.89396 0.0
C880 C 0.02973 0.75029 0.90791 0.0
C881 C 0.99292 0.68159 0.90235 0.0
C882 C 0.02705 0.7446 0.93041 0.0
C883 C 0.00667 0.70781 0.93892 0.0
H884 H 0.38081 0.31788 0.94062 0.0
H885 H 0.42676 0.33867 0.87577 0.0
H886 H 0.36279 0.31519 0.86086 0.0
H887 H 0.29379 0.28554 0.86644 0.0
H888 H 0.24827 0.26549 0.93141 0.0
H889 H 0.3126 0.29256 0.94624 0.0
C890 C 0.37685 0.31732 0.9232 0.0
C891 C 0.40822 0.32941 0.90924 0.0
C892 C 0.34027 0.30409 0.91487 0.0
C893 C 0.4029 0.32925 0.88677 0.0
C894 C 0.36641 0.31583 0.87829 0.0
C895 C 0.29798 0.28739 0.88386 0.0
C896 C 0.2664 0.27326 0.89786 0.0
C897 C 0.33489 0.30273 0.8922 0.0
C898 C 0.27218 0.27616 0.92035 0.0
C899 C 0.30888 0.29144 0.92881 0.0
H900 H 0.02313 0.70446 0.57334 0.0
H901 H 0.99063 0.73788 0.51429 0.0
H902 H 0.01187 0.70107 0.49303 0.0
H903 H 0.04179 0.6616 0.4912 0.0
H904 H 0.07233 0.62594 0.55009 0.0
H905 H 0.04929 0.6612 0.57159 0.0
C906 C 0.0207 0.70362 0.55581 0.0
C907 C 0.00578 0.72413 0.54532 0.0
C908 C 0.03249 0.68202 0.54375 0.0
C909 C 0.00217 0.72239 0.52267 0.0
C910 C 0.01432 0.70141 0.51053 0.0
C911 C 0.04326 0.66142 0.50876 0.0
C912 C 0.05902 0.6416 0.51911 0.0
C913 C 0.02983 0.68146 0.5209 0.0
C914 C 0.06029 0.64107 0.54183 0.0
C915 C 0.04729 0.66133 0.55408 0.0
H916 H 0.26571 0.2851 0.53471 0.0
H917 H 0.22919 0.21621 0.47683 0.0
H918 H 0.25769 0.27388 0.45445 0.0
H919 H 0.28983 0.34376 0.45156 0.0
H920 H 0.32656 0.41229 0.50961 0.0
H921 H 0.30138 0.35471 0.53176 0.0
C922 C 0.26412 0.28267 0.51719 0.0
C923 C 0.24506 0.24647 0.50742 0.0
C924 C 0.28058 0.31584 0.5045 0.0
C925 C 0.24362 0.24377 0.48471 0.0
C926 C 0.25984 0.27671 0.47194 0.0
C927 C 0.29264 0.34611 0.46905 0.0
C928 C 0.30984 0.38225 0.47895 0.0
C929 C 0.27794 0.31288 0.48168 0.0
C930 C 0.31344 0.38484 0.50161 0.0
C931 C 0.29892 0.35192 0.51428 0.0
H932 H 0.69341 0.93404 0.55486 0.0
H933 H 0.743 0.97485 0.49175 0.0
H934 H 0.67927 0.94405 0.47553 0.0
H935 H 0.60945 0.90673 0.47963 0.0
H936 H 0.56063 0.86817 0.54318 0.0
H937 H 0.62431 0.897 0.55895 0.0
C938 C 0.69035 0.93613 0.53753 0.0
C939 C 0.72285 0.95665 0.52449 0.0
C940 C 0.65381 0.91886 0.52846 0.0
C941 C 0.71839 0.95924 0.5021 0.0
C942 C 0.68199 0.94165 0.49285 0.0
C943 C 0.61277 0.90453 0.49692 0.0
C944 C 0.58036 0.88533 0.51024 0.0
C945 C 0.64949 0.92157 0.50591 0.0
C946 C 0.58509 0.88285 0.53261 0.0
C947 C 0.62148 0.89931 0.54163 0.0
H948 H 0.66644 0.57035 0.7724 0.0
H949 H 0.69606 0.63175 0.71187 0.0
H950 H 0.65937 0.66225 0.72176 0.0
H951 H 0.61455 0.66732 0.74612 0.0
H952 H 0.58207 0.60386 0.80601 0.0
H953 H 0.62383 0.57817 0.79787 0.0
C954 C 0.66545 0.59105 0.76168 0.0
C955 C 0.68383 0.59895 0.74151 0.0
C956 C 0.64319 0.60753 0.76715 0.0
C957 C 0.68197 0.6253 0.7275 0.0
C958 C 0.66088 0.64257 0.73307 0.0
C959 C 0.6167 0.64796 0.7574 0.0
C960 C 0.595 0.63721 0.77648 0.0
C961 C 0.64055 0.63313 0.75258 0.0
C962 C 0.59829 0.61233 0.79107 0.0
C963 C 0.62225 0.5977 0.78648 0.0
H964 H 0.399 0.05148 0.67645 0.0
H965 H 0.41785 0.09808 0.74111 0.0
H966 H 0.39487 0.03451 0.75635 0.0
H967 H 0.37118 0.96632 0.75118 0.0
H968 H 0.35073 0.91932 0.68659 0.0
H969 H 0.373 0.98282 0.67131 0.0
C970 C 0.39789 0.04772 0.69389 0.0
C971 C 0.41021 0.07942 0.70767 0.0
C972 C 0.38475 0.01121 0.70247 0.0
C973 C 0.40843 0.0741 0.7302 0.0
C974 C 0.39549 0.03782 0.73889 0.0
C975 C 0.37177 0.96998 0.73374 0.0
C976 C 0.35975 0.93831 0.71998 0.0
C977 C 0.38397 0.0063 0.72516 0.0
C978 C 0.36006 0.94334 0.69747 0.0
C979 C 0.3727 0.97957 0.68876 0.0
H980 H 0.92247 0.32976 0.71728 0.0
H981 H 0.95134 0.32578 0.65046 0.0
H982 H 0.01915 0.36227 0.65925 0.0
H983 H 0.07019 0.39889 0.6856 0.0
H984 H 0.04057 0.40617 0.75193 0.0
H985 H 0.97332 0.36513 0.74369 0.0
C986 C 0.94368 0.33636 0.70477 0.0
C987 C 0.93215 0.32509 0.68334 0.0
C988 C 0.9825 0.35845 0.70979 0.0
C989 C 0.95974 0.33427 0.66712 0.0
C990 C -0.00154 0.35523 0.6721 0.0
C991 C 0.04898 0.39137 0.69822 0.0
C992 C 0.0603 0.40573 0.71926 0.0
C993 C 0.01018 0.36813 0.69331 0.0
C994 C 0.03255 0.39577 0.7355 0.0
C995 C 0.99406 0.37216 0.73086 0.0
H996 H 0.36495 0.3329 0.28714 0.0
H997 H 0.41234 0.32759 0.34872 0.0
H998 H 0.37556 0.35277 0.36686 0.0
H999 H 0.33347 0.38057 0.36445 0.0
H1000 H 0.28662 0.38504 0.30237 0.0
H1001 H 0.31933 0.35529 0.28517 0.0
C1002 C 0.36705 0.337 0.30457 0.0
C1003 C 0.39157 0.3289 0.31659 0.0
C1004 C 0.34587 0.35122 0.31475 0.0
C1005 C 0.39362 0.33373 0.33917 0.0
C1006 C 0.3727 0.34819 0.34949 0.0
C1007 C 0.32995 0.37446 0.34722 0.0
C1008 C 0.30781 0.38521 0.33467 0.0
C1009 C 0.34919 0.35761 0.33736 0.0
C1010 C 0.30356 0.37717 0.31237 0.0
C1011 C 0.32236 0.36028 0.30251 0.0
H1012 H 0.60859 0.93866 0.33363 0.0
H1013 H 0.57287 0.88359 0.27135 0.0
H1014 H 0.59714 0.94577 0.25381 0.0
H1015 H 0.62446 0.01523 0.25673 0.0
H1016 H 0.66054 0.06979 0.31914 0.0
H1017 H 0.63994 0.00805 0.3362 0.0
C1018 C 0.60642 0.94026 0.31617 0.0
C1019 C 0.5887 0.90666 0.30378 0.0
C1020 C 0.62009 0.97587 0.30633 0.0
C1021 C 0.58645 0.90912 0.28119 0.0
C1022 C 0.60008 0.9446 0.27121 0.0
C1023 C 0.62785 0.01357 0.27407 0.0
C1024 C 0.64351 0.04687 0.28675 0.0
C1025 C 0.61622 0.97806 0.2837 0.0
C1026 C 0.64835 0.04449 0.3091 0.0
C1027 C 0.6366 0.00924 0.31884 0.0
H1028 H 0.95569 0.58787 0.26222 0.0
H1029 H 0.90997 0.57064 0.32705 0.0
H1030 H 0.97445 0.609 0.34167 0.0
H1031 H 0.04348 0.64755 0.33584 0.0
H1032 H 0.08873 0.66574 0.27084 0.0
H1033 H 0.02439 0.62684 0.25637 0.0
C1034 C 0.95981 0.59237 0.27957 0.0
C1035 C 0.92821 0.57638 0.29358 0.0
C1036 C -0.00328 0.6147 0.28776 0.0
C1037 C 0.93392 0.58269 0.31598 0.0
C1038 C 0.97071 0.6046 0.32431 0.0
C1039 C 0.03927 0.64304 0.3185 0.0
C1040 C 0.07078 0.65944 0.3044 0.0
C1041 C 0.00227 0.6208 0.31033 0.0
C1042 C 0.0649 0.65345 0.28199 0.0
C1043 C 0.02817 0.63118 0.27373 0.0
H1044 H 0.05324 0.13583 0.11277 0.0
H1045 H 0.04387 0.1413 0.18223 0.0
H1046 H 0.09542 0.12739 0.18719 0.0
H1047 H 0.13791 0.10695 0.17199 0.0
H1048 H 0.14681 0.09968 0.1027 0.0
H1049 H 0.10098 0.12171 0.0974 0.0
C1050 C 0.06286 0.1345 0.12899 0.0
C1051 C 0.04448 0.1391 0.14714 0.0
C1052 C 0.0922 0.12601 0.13171 0.0
C1053 C 0.0574 0.13762 0.16802 0.0
C1054 C 0.0868 0.12958 0.17087 0.0
C1055 C 0.1302 0.11066 0.1557 0.0
C1056 C 0.14524 0.10126 0.13774 0.0
C1057 C 0.10359 0.12268 0.15286 0.0
C1058 C 0.1355 0.10669 0.11675 0.0
C1059 C 0.10915 0.11904 0.11374 0.0
H1060 H 0.87346 0.00934 0.16009 0.0
H1061 H 0.89281 0.02771 0.09127 0.0
H1062 H 0.87307 0.96033 0.08626 0.0
H1063 H 0.85733 0.89836 0.10214 0.0
H1064 H 0.84019 0.88136 0.17122 0.0
H1065 H 0.85193 0.94626 0.17544 0.0
C1066 C 0.87288 -0.00148 0.14393 0.0
C1067 C 0.88498 0.02347 0.12609 0.0
C1068 C 0.86227 0.96017 0.14129 0.0
C1069 C 0.88366 0.00901 0.10524 0.0
C1070 C 0.87262 0.97059 0.10241 0.0
C1071 C 0.85569 0.90871 0.11809 0.0
C1072 C 0.84836 0.88528 0.1364 0.0
C1073 C 0.86297 0.94622 0.12042 0.0
C1074 C 0.84603 0.89893 0.15691 0.0
C1075 C 0.8528 0.93604 0.15934 0.0
H1076 H 0.97251 0.83554 0.15937 0.0
H1077 H 0.96959 0.85089 0.09035 0.0
H1078 H 0.03779 0.89804 0.0907 0.0
H1079 H 0.09561 0.94035 0.11154 0.0
H1080 H 0.09673 0.92628 0.18087 0.0
H1081 H 0.0316 0.87278 0.17949 0.0
C1082 C 0.98691 0.8488 0.14433 0.0
C1083 C 0.96609 0.84027 0.1249 0.0
C1084 C 0.02557 0.8763 0.14479 0.0
C1085 C 0.9851 0.85713 0.10549 0.0
C1086 C 0.02396 0.88424 0.10574 0.0
C1087 C 0.08178 0.92521 0.12631 0.0
C1088 C 0.10071 0.93752 0.14634 0.0
C1089 C 0.04411 0.89493 0.12543 0.0
C1090 C 0.08262 0.91752 0.1653 0.0
C1091 C 0.04539 0.887 0.16452 0.0
H1092 H 0.01187 0.1067 0.36833 0.0
H1093 H 0.08271 0.19541 0.41353 0.0
H1094 H 0.13 0.1754 0.41245 0.0
H1095 H 0.14657 0.12713 0.40337 0.0
H1096 H 0.07627 0.03648 0.35932 0.0
H1097 H 0.03413 0.06319 0.35475 0.0
C1098 C 0.03806 0.12203 0.37752 0.0
C1099 C 0.04343 0.15196 0.39132 0.0
C1100 C 0.06518 0.1099 0.37714 0.0
C1101 C 0.07755 0.17178 0.4031 0.0
C1102 C 0.10472 0.16044 0.40249 0.0
C1103 C 0.12259 0.11381 0.39231 0.0
C1104 C 0.11426 0.0798 0.38187 0.0
C1105 C 0.09813 0.12868 0.39027 0.0
C1106 C 0.08331 0.06286 0.36747 0.0
C1107 C 0.05896 0.07788 0.36506 0.0
H1108 H 0.92252 0.09254 0.46722 0.0
H1109 H 0.83589 0.07525 0.42083 0.0
H1110 H 0.79221 0.01341 0.43701 0.0
H1111 H 0.78332 0.95999 0.45959 0.0
H1112 H 0.87334 0.97321 0.50199 0.0
H1113 H 0.91094 0.04012 0.4923 0.0
C1114 C 0.8937 0.07554 0.46113 0.0
C1115 C 0.88221 0.08814 0.44294 0.0
C1116 C 0.86943 0.03912 0.46982 0.0
C1117 C 0.84517 0.06584 0.43481 0.0
C1118 C 0.82027 0.03054 0.44404 0.0
C1119 C 0.81037 0.97821 0.46752 0.0
C1120 C 0.82505 0.96205 0.482 0.0
C1121 C 0.83263 0.01627 0.46096 0.0
C1122 C 0.86061 0.98536 0.49166 0.0
C1123 C 0.88248 0.02368 0.48578 0.0
H1124 H 0.04986 0.9674 0.46323 0.0
H1125 H 0.0242 0.90864 0.40179 0.0
H1126 H 0.95683 0.87406 0.41073 0.0
H1127 H 0.90469 0.86419 0.43448 0.0
H1128 H 0.92879 0.92229 0.49596 0.0
H1129 H -0.0028 0.95318 0.48865 0.0
C1130 C 0.02951 0.94664 0.45198 0.0
C1131 C 0.0419 0.94091 0.4318 0.0
C1132 C 0.99053 0.92695 0.45714 0.0
C1133 C 0.01533 0.91385 0.41736 0.0
C1134 C 0.97675 0.89406 0.42242 0.0
C1135 C 0.92495 0.88341 0.44634 0.0
C1136 C 0.91188 0.89126 0.46558 0.0
C1137 C 0.96397 0.90104 0.442 0.0
C1138 C 0.93831 0.91583 0.48098 0.0
C1139 C 0.97738 0.93359 0.47678 0.0
H1140 H 0.86632 0.88271 0.87134 0.0
H1141 H 0.87661 0.89226 0.94094 0.0
H1142 H 0.92396 0.87145 0.93997 0.0
H1143 H 0.96762 0.85828 0.91878 0.0
H1144 H 0.95817 0.851 0.84903 0.0
H1145 H 0.90487 0.86301 0.8506 0.0
C1146 C 0.87853 0.87973 0.88635 0.0
C1147 C 0.86847 0.88947 0.90617 0.0
C1148 C 0.90605 0.86855 0.88557 0.0
C1149 C 0.884 0.88496 0.92551 0.0
C1150 C 0.91123 0.87334 0.92491 0.0
C1151 C 0.95355 0.85881 0.90394 0.0
C1152 C 0.96711 0.85427 0.88377 0.0
C1153 C 0.9233 0.86626 0.90496 0.0
C1154 C 0.94842 0.85464 0.86471 0.0
C1155 C 0.91803 0.86161 0.86561 0.0
H1156 H 0.12805 0.98065 0.85095 0.0
H1157 H 0.1281 0.97771 0.92086 0.0
H1158 H 0.14792 0.04557 0.922 0.0
H1159 H 0.15843 0.10341 0.90304 0.0
H1160 H 0.15646 0.10529 0.83309 0.0
H1161 H 0.14436 0.03987 0.83202 0.0
C1162 C 0.13284 0.99495 0.86646 0.0
C1163 C 0.12619 0.97421 0.88582 0.0
C1164 C 0.14354 0.03355 0.86694 0.0
C1165 C 0.13297 0.99313 0.90577 0.0
C1166 C 0.14407 0.03181 0.9064 0.0
C1167 C 0.15578 0.08964 0.88755 0.0
C1168 C 0.15785 0.10891 0.86815 0.0
C1169 C 0.14838 0.05196 0.88708 0.0
C1170 C 0.15477 0.09094 0.84822 0.0
C1171 C 0.14775 0.05355 0.84761 0.0
H1172 H 0.04507 0.1453 0.91612 0.0
H1173 H 0.03046 0.16219 0.84852 0.0
H1174 H 0.96272 0.11601 0.85094 0.0
H1175 H 0.90967 0.06504 0.87085 0.0
H1176 H 0.92391 0.0459 0.93813 0.0
H1177 H 0.98947 0.09883 0.93733 0.0
C1178 C 0.02679 0.13946 0.90211 0.0
C1179 C 0.04267 0.15669 0.88214 0.0
C1180 C 0.98791 0.11206 0.90345 0.0
C1181 C 0.01885 0.14889 0.86403 0.0
C1182 C 0.98014 0.12242 0.86536 0.0
C1183 C 0.92696 0.0728 0.88542 0.0
C1184 C 0.91224 0.05132 0.90439 0.0
C1185 C 0.96468 0.10285 0.88476 0.0
C1186 C 0.93476 0.0619 0.92323 0.0
C1187 C 0.97228 0.0921 0.92279 0.0
H1188 H 0.84656 0.91468 0.59377 0.0
H1189 H 0.85973 0.92161 0.52428 0.0
H1190 H 0.88292 0.87681 0.52514 0.0
H1191 H 0.90439 0.83987 0.54536 0.0
H1192 H 0.89779 0.8369 0.61513 0.0
H1193 H 0.86663 0.87535 0.61438 0.0
C1194 C 0.85392 0.90587 0.5788 0.0
C1195 C 0.85081 0.92107 0.55894 0.0
C1196 C 0.86848 0.88084 0.57941 0.0
C1197 C 0.86096 0.90979 0.53971 0.0
C1198 C 0.87447 0.88432 0.54014 0.0
C1199 C 0.89554 0.84711 0.56037 0.0
C1200 C 0.90334 0.83574 0.58022 0.0
C1201 C 0.87893 0.87017 0.55987 0.0
C1202 C 0.89213 0.84558 0.59961 0.0
C1203 C 0.87442 0.8676 0.5992 0.0
H1204 H 0.15022 0.0331 0.58325 0.0
H1205 H 0.1314 0.02359 0.51414 0.0
H1206 H 0.09405 0.95408 0.51739 0.0
H1207 H 0.06183 0.89702 0.54038 0.0
H1208 H 0.0798 0.90691 0.60958 0.0
H1209 H 0.12309 0.97552 0.60576 0.0
C1210 C 0.13829 0.0158 0.56884 0.0
C1211 C 0.14314 0.03342 0.54849 0.0
C1212 C 0.11671 0.97606 0.57089 0.0
C1213 C 0.12796 0.01067 0.52996 0.0
C1214 C 0.10651 0.97098 0.53185 0.0
C1215 C 0.07565 0.91408 0.55461 0.0
C1216 C 0.06736 0.89698 0.57529 0.0
C1217 C 0.09998 0.9535 0.5523 0.0
C1218 C 0.08569 0.91939 0.59353 0.0
C1219 C 0.11025 0.95863 0.59134 0.0
H1220 H 0.0739 0.14462 0.52212 0.0
H1221 H 0.08656 0.1385 0.59122 0.0
H1222 H 0.01856 0.11459 0.59625 0.0
H1223 H 0.95486 0.08767 0.58057 0.0
H1224 H 0.94166 0.09556 0.51174 0.0
H1225 H 0.01077 0.12682 0.50698 0.0
C1226 C 0.06184 0.13868 0.53831 0.0
C1227 C 0.08501 0.14272 0.55626 0.0
C1228 C 0.02269 0.12474 0.54106 0.0
C1229 C 0.06925 0.13548 0.57716 0.0
C1230 C 0.03035 0.12159 0.58003 0.0
C1231 C 0.96707 0.09666 0.56453 0.0
C1232 C 0.94311 0.0878 0.54636 0.0
C1233 C 0.00667 0.1149 0.56202 0.0
C1234 C 0.95942 0.10063 0.52582 0.0
C1235 C -0.00106 0.11872 0.52314 0.0
H1236 H 0.73957 0.52001 0.37653 0.0
H1237 H 0.63779 0.40963 0.37944 0.0
H1238 H 0.66547 0.38418 0.35403 0.0
H1239 H 0.72185 0.39064 0.33582 0.0
H1240 H 0.82552 0.49937 0.33497 0.0
H1241 H 0.79331 0.5286 0.35366 0.0
C1242 C 0.72326 0.49058 0.37131 0.0
C1243 C 0.68696 0.46659 0.38018 0.0
C1244 C 0.73967 0.47586 0.35696 0.0
C1245 C 0.66601 0.42859 0.37311 0.0
C1246 C 0.6818 0.41397 0.35855 0.0
C1247 C 0.73702 0.42106 0.3389 0.0
C1248 C 0.7761 0.44278 0.33417 0.0
C1249 C 0.71906 0.43699 0.35096 0.0
C1250 C 0.79538 0.48211 0.33843 0.0
C1251 C 0.77716 0.49864 0.34951 0.0
H1252 H 0.59622 0.29413 0.50313 0.0
H1253 H 0.48461 0.28189 0.50773 0.0
H1254 H 0.51169 0.35015 0.50146 0.0
H1255 H 0.56397 0.4086 0.48589 0.0
H1256 H 0.67417 0.4186 0.47712 0.0
H1257 H 0.65108 0.35627 0.49389 0.0
C1258 C 0.57814 0.30678 0.50383 0.0
C1259 C 0.53851 0.28317 0.50581 0.0
C1260 C 0.59359 0.3455 0.49869 0.0
C1261 C 0.51523 0.29967 0.50629 0.0
C1262 C 0.53066 0.33858 0.50238 0.0
C1263 C 0.58322 0.39759 0.48818 0.0
C1264 C 0.62045 0.41777 0.47985 0.0
C1265 C 0.56935 0.36115 0.49713 0.0
C1266 C 0.6452 0.40335 0.48313 0.0
C1267 C 0.63198 0.36765 0.49268 0.0
H1268 H 0.74177 0.32378 0.41727 0.0
H1269 H 0.68144 0.31215 0.35759 0.0
H1270 H 0.62058 0.27576 0.37637 0.0
H1271 H 0.58449 0.24537 0.4096 0.0
H1272 H 0.64524 0.25595 0.469 0.0
H1273 H 0.70583 0.29452 0.45051 0.0
C1274 C 0.71528 0.31345 0.40843 0.0
C1275 C 0.71601 0.32041 0.38612 0.0
C1276 C 0.68045 0.29215 0.41925 0.0
C1277 C 0.68154 0.30685 0.3748 0.0
C1278 C 0.64674 0.28606 0.38551 0.0
C1279 C 0.61101 0.25618 0.41846 0.0
C1280 C 0.61041 0.24765 0.44057 0.0
C1281 C 0.64584 0.27818 0.40769 0.0
C1282 C 0.64496 0.26191 0.45191 0.0
C1283 C 0.67964 0.28404 0.44138 0.0
H1284 H 0.78559 0.48099 0.67583 0.0
H1285 H 0.78515 0.46129 0.74457 0.0
H1286 H 0.80828 0.41663 0.7378 0.0
H1287 H 0.82126 0.37816 0.71198 0.0
H1288 H 0.81925 0.39691 0.6432 0.0
H1289 H 0.80468 0.44754 0.65038 0.0
C1290 C 0.79094 0.46724 0.68938 0.0
C1291 C 0.78316 0.47385 0.71065 0.0
C1292 C 0.80352 0.44138 0.68531 0.0
C1293 C 0.79084 0.45646 0.72807 0.0
C1294 C 0.80383 0.43083 0.72417 0.0
C1295 C 0.81818 0.3937 0.69856 0.0
C1296 C 0.82085 0.38352 0.67705 0.0
C1297 C 0.80916 0.42228 0.70281 0.0
C1298 C 0.81711 0.40408 0.65986 0.0
C1299 C 0.80866 0.43291 0.66396 0.0
H1300 H 0.53088 0.29701 0.72754 0.0
H1301 H 0.50668 0.31776 0.66247 0.0
H1302 H 0.55299 0.38531 0.66612 0.0
H1303 H 0.60606 0.43671 0.6859 0.0
H1304 H 0.63222 0.41632 0.75058 0.0
H1305 H 0.57943 0.35074 0.74908 0.0
C1306 C 0.53513 0.31654 0.71441 0.0
C1307 C 0.51575 0.30244 0.69471 0.0
C1308 C 0.56261 0.35536 0.71641 0.0
C1309 C 0.52158 0.32795 0.67774 0.0
C1310 C 0.54816 0.36657 0.67976 0.0
C1311 C 0.59986 0.41807 0.69978 0.0
C1312 C 0.6233 0.43116 0.71817 0.0
C1313 C 0.5698 0.38032 0.69871 0.0
C1314 C 0.61472 0.40682 0.73613 0.0
C1315 C 0.58458 0.36926 0.73528 0.0
H1316 H 0.69222 0.22735 0.64293 0.0
H1317 H 0.70652 0.22252 0.71194 0.0
H1318 H 0.63907 0.20184 0.71754 0.0
H1319 H 0.57806 0.19127 0.70294 0.0
H1320 H 0.56474 0.19745 0.63388 0.0
H1321 H 0.63009 0.21138 0.62813 0.0
C1322 C 0.6805 0.22137 0.6592 0.0
C1323 C 0.70429 0.22684 0.67704 0.0
C1324 C 0.64209 0.21007 0.66225 0.0
C1325 C 0.6887 0.21855 0.69798 0.0
C1326 C 0.65026 0.20695 0.70117 0.0
C1327 C 0.58935 0.19529 0.68661 0.0
C1328 C 0.56682 0.19379 0.66885 0.0
C1329 C 0.62698 0.20358 0.68346 0.0
C1330 C 0.58162 0.19866 0.64779 0.0
C1331 C 0.61896 0.2067 0.64451 0.0
H1332 H 0.58363 0.16866 0.29548 0.0
H1333 H 0.57131 0.16133 0.22586 0.0
H1334 H 0.52822 0.18703 0.22784 0.0
H1335 H 0.49997 0.21786 0.24886 0.0
H1336 H 0.51305 0.22682 0.31835 0.0
H1337 H 0.54981 0.19377 0.31697 0.0
C1338 C 0.57102 0.1721 0.28076 0.0
C1339 C 0.58094 0.16345 0.26051 0.0
C1340 C 0.54679 0.18748 0.28201 0.0
C1341 C 0.56423 0.16786 0.24162 0.0
C1342 C 0.53975 0.18273 0.24274 0.0
C1343 C 0.51052 0.21223 0.26375 0.0
C1344 C 0.5043 0.22517 0.28367 0.0
C1345 C 0.53179 0.19366 0.26277 0.0
C1346 C 0.5176 0.21721 0.30285 0.0
C1347 C 0.53872 0.19848 0.30203 0.0
H1348 H 0.74622 0.27789 0.23107 0.0
H1349 H 0.75233 0.26478 0.30014 0.0
H1350 H 0.78457 0.33384 0.30461 0.0
H1351 H 0.80684 0.39757 0.28918 0.0
H1352 H 0.79768 0.41 0.22042 0.0
H1353 H 0.77219 0.34165 0.2154 0.0
C1354 C 0.75506 0.29018 0.2471 0.0
C1355 C 0.74656 0.26631 0.26529 0.0
C1356 C 0.77334 0.32981 0.24957 0.0
C1357 C 0.75849 0.28258 0.28591 0.0
C1358 C 0.77695 0.32209 0.28847 0.0
C1359 C 0.79935 0.38527 0.27313 0.0
C1360 C 0.80342 0.40859 0.25528 0.0
C1361 C 0.78381 0.34589 0.27048 0.0
C1362 C 0.7946 0.39259 0.23444 0.0
C1363 C 0.77984 0.35351 0.23158 0.0
H1364 H 0.69168 0.47409 0.24726 0.0
H1365 H 0.71295 0.47651 0.31573 0.0
H1366 H 0.64431 0.43867 0.32275 0.0
H1367 H 0.57911 0.39869 0.30854 0.0
H1368 H 0.55888 0.39772 0.23977 0.0
H1369 H 0.6264 0.44199 0.23368 0.0
C1370 C 0.68131 0.46675 0.26376 0.0
C1371 C 0.70723 0.47685 0.28101 0.0
C1372 C 0.64206 0.44524 0.26751 0.0
C1373 C 0.6934 0.468 0.30228 0.0
C1374 C 0.65424 0.4465 0.30623 0.0
C1375 C 0.5894 0.40872 0.29227 0.0
C1376 C 0.56418 0.39452 0.27458 0.0
C1377 C 0.62838 0.43391 0.28886 0.0
C1378 C 0.57778 0.40804 0.25363 0.0
C1379 C 0.6164 0.43322 0.25012 0.0
H1380 H 0.55621 0.18104 0.97883 0.0
H1381 H 0.59626 0.18877 0.91327 0.0
H1382 H 0.56898 0.22883 0.9034 0.0
H1383 H 0.54115 0.26814 0.91493 0.0
H1384 H 0.50375 0.26142 0.98114 0.0
H1385 H 0.5224 0.21414 0.98924 0.0
C1386 C 0.55848 0.19102 0.96228 0.0
C1387 C 0.5786 0.18251 0.94685 0.0
C1388 C 0.54354 0.21448 0.95694 0.0
C1389 C 0.58089 0.19506 0.92541 0.0
C1390 C 0.56556 0.21816 0.91983 0.0
C1391 C 0.53651 0.25582 0.93102 0.0
C1392 C 0.52158 0.2686 0.94751 0.0
C1393 C 0.54795 0.22908 0.93568 0.0
C1394 C 0.51554 0.25231 0.96824 0.0
C1395 C 0.52623 0.22533 0.9729 0.0
H1396 H 0.81863 0.38462 0.98119 0.0
H1397 H 0.82076 0.37935 0.9114 0.0
H1398 H 0.78262 0.30959 0.91297 0.0
H1399 H 0.74382 0.25114 0.93419 0.0
H1400 H 0.74082 0.25767 0.00396 0.0
H1401 H 0.78475 0.32627 0.0024 0.0
C1402 C 0.81101 0.36822 0.96629 0.0
C1403 C 0.82195 0.38699 0.94618 0.0
C1404 C 0.78893 0.32852 0.96736 0.0
C1405 C 0.81247 0.36544 0.92705 0.0
C1406 C 0.7906 0.32566 0.92797 0.0
C1407 C 0.75322 0.2675 0.94908 0.0
C1408 C 0.73885 0.24946 0.96918 0.0
C1409 C 0.77795 0.30701 0.94802 0.0
C1410 C 0.75136 0.27094 0.98832 0.0
C1411 C 0.77634 0.31015 0.98742 0.0
H1412 H 0.76055 0.48325 0.91001 0.0
H1413 H 0.7676 0.51396 0.97756 0.0
H1414 H 0.69967 0.49266 0.97785 0.0
H1415 H 0.63745 0.45742 0.96045 0.0
H1416 H 0.62909 0.42394 0.89343 0.0
H1417 H 0.69869 0.45485 0.89123 0.0
C1418 C 0.74735 0.48595 0.92469 0.0
C1419 C 0.7689 0.49962 0.94384 0.0
C1420 C 0.70811 0.47286 0.92486 0.0
C1421 C 0.75154 0.50324 0.96268 0.0
C1422 C 0.7127 0.49094 0.96287 0.0
C1423 C 0.6509 0.45739 0.94525 0.0
C1424 C 0.62835 0.43796 0.92722 0.0
C1425 C 0.69056 0.47444 0.9443 0.0
C1426 C 0.64599 0.43863 0.90753 0.0
C1427 C 0.68569 0.45607 0.90634 0.0
H1428 H 0.41432 0.80312 0.7339 0.0
H1429 H 0.39839 0.82116 0.80115 0.0
H1430 H 0.43952 0.79619 0.81214 0.0
H1431 H 0.47475 0.76376 0.80291 0.0
H1432 H 0.49033 0.7444 0.7359 0.0
H1433 H 0.45491 0.77583 0.72449 0.0
C1434 C 0.42031 0.80209 0.75094 0.0
C1435 C 0.40305 0.81364 0.76671 0.0
C1436 C 0.44367 0.78726 0.75717 0.0
C1437 C 0.41118 0.8123 0.78871 0.0
C1438 C 0.4346 0.79791 0.79502 0.0
C1439 C 0.47076 0.76678 0.78578 0.0
C1440 C 0.48472 0.75144 0.77025 0.0
C1441 C 0.45016 0.78445 0.77942 0.0
C1442 C 0.47977 0.75594 0.74814 0.0
C1443 C 0.45938 0.77374 0.74164 0.0
H1444 H 0.2644 0.71411 0.70733 0.0
H1445 H 0.20742 0.71237 0.76674 0.0
H1446 H 0.17251 0.64305 0.76649 0.0
H1447 H 0.16497 0.58348 0.7524 0.0
H1448 H 0.22298 0.58392 0.69373 0.0
H1449 H 0.25021 0.65288 0.69049 0.0
C1450 C 0.24363 0.69844 0.71987 0.0
C1451 C 0.2388 0.71817 0.73716 0.0
C1452 C 0.22422 0.65834 0.71994 0.0
C1453 C 0.21193 0.69768 0.75339 0.0
C1454 C 0.19201 0.65805 0.75331 0.0
C1455 C 0.18306 0.59858 0.7387 0.0
C1456 C 0.19241 0.57882 0.72353 0.0
C1457 C 0.19903 0.63814 0.73715 0.0
C1458 C 0.21551 0.59861 0.70571 0.0
C1459 C 0.23124 0.63807 0.7039 0.0
H1460 H 0.42415 0.58464 0.74978 0.0
H1461 H 0.39872 0.58836 0.81738 0.0
H1462 H 0.33069 0.54873 0.80981 0.0
H1463 H 0.27874 0.51931 0.78344 0.0
H1464 H 0.30386 0.51693 0.71568 0.0
H1465 H 0.3721 0.54987 0.72388 0.0
C1466 C 0.40377 0.57627 0.76293 0.0
C1467 C 0.41636 0.58971 0.78408 0.0
C1468 C 0.36479 0.55425 0.75837 0.0
C1469 C 0.3897 0.57843 0.80097 0.0
C1470 C 0.35082 0.55601 0.79662 0.0
C1471 C 0.29913 0.52577 0.77046 0.0
C1472 C 0.28644 0.51631 0.74892 0.0
C1473 C 0.33808 0.54482 0.77529 0.0
C1474 C 0.31305 0.5242 0.73234 0.0
C1475 C 0.35199 0.54305 0.73703 0.0
H1476 H 0.44534 0.81024 0.04918 0.0
H1477 H 0.43108 0.79843 0.11857 0.0
H1478 H 0.45888 0.75682 0.1189 0.0
H1479 H 0.48019 0.71833 0.09878 0.0
H1480 H 0.49198 0.72895 0.02919 0.0
H1481 H 0.47242 0.77697 0.02963 0.0
C1482 C 0.44873 0.79894 0.06444 0.0
C1483 C 0.43575 0.80689 0.0838 0.0
C1484 C 0.46401 0.7747 0.06441 0.0
C1485 C 0.44079 0.79257 0.10346 0.0
C1486 C 0.45647 0.76865 0.10362 0.0
C1487 C 0.47903 0.73158 0.08375 0.0
C1488 C 0.48708 0.71981 0.06393 0.0
C1489 C 0.46712 0.75867 0.08409 0.0
C1490 C 0.48569 0.73736 0.04461 0.0
C1491 C 0.47441 0.76472 0.04485 0.0
H1492 H 0.18482 0.62294 0.04917 0.0
H1493 H 0.189 0.60604 0.11792 0.0
H1494 H 0.22945 0.67497 0.12302 0.0
H1495 H 0.26902 0.73882 0.1072 0.0
H1496 H 0.26555 0.75464 0.0382 0.0
H1497 H 0.21889 0.68714 0.03393 0.0
C1498 C 0.19423 0.63437 0.06532 0.0
C1499 C 0.18446 0.60953 0.08313 0.0
C1500 C 0.21768 0.67371 0.06803 0.0
C1501 C 0.19631 0.62467 0.10398 0.0
C1502 C 0.21954 0.664 0.10686 0.0
C1503 C 0.2576 0.72761 0.09127 0.0
C1504 C 0.27102 0.75158 0.07298 0.0
C1505 C 0.23123 0.68864 0.0889 0.0
C1506 C 0.25582 0.73674 0.05249 0.0
C1507 C 0.22926 0.69813 0.05004 0.0
H1508 H 0.36695 0.54139 0.04051 0.0
H1509 H 0.38285 0.5578 0.1096 0.0
H1510 H 0.31388 0.52888 0.11458 0.0
H1511 H 0.25049 0.50664 0.09864 0.0
H1512 H 0.23579 0.4925 0.02931 0.0
H1513 H 0.30305 0.51246 0.02506 0.0
C1514 C 0.35528 0.53817 0.0567 0.0
C1515 C 0.37982 0.55218 0.07466 0.0
C1516 C 0.31595 0.52219 0.05934 0.0
C1517 C 0.36442 0.54732 0.09556 0.0
C1518 C 0.32507 0.531 0.09837 0.0
C1519 C 0.26188 0.5073 0.08264 0.0
C1520 C 0.23838 0.49863 0.06427 0.0
C1521 C 0.30073 0.51948 0.08029 0.0
C1522 C 0.25339 0.49932 0.04367 0.0
C1523 C 0.29185 0.51085 0.04122 0.0
H1524 H 0.14915 0.52531 0.4369 0.0
H1525 H 0.14211 0.50027 0.5053 0.0
H1526 H 0.17842 0.46761 0.49975 0.0
H1527 H 0.22076 0.45613 0.47657 0.0
H1528 H 0.23132 0.48534 0.40871 0.0
H1529 H 0.18399 0.50537 0.41274 0.0
C1530 C 0.15501 0.51215 0.45055 0.0
C1531 C 0.14375 0.51586 0.47157 0.0
C1532 C 0.17656 0.49427 0.44729 0.0
C1533 C 0.15087 0.49811 0.48903 0.0
C1534 C 0.17172 0.47957 0.48585 0.0
C1535 C 0.21204 0.46607 0.46255 0.0
C1536 C 0.22988 0.46982 0.44242 0.0
C1537 C 0.18602 0.47894 0.46522 0.0
C1538 C 0.218 0.48219 0.42434 0.0
C1539 C 0.19124 0.49405 0.42671 0.0
H1540 H 0.41215 0.59854 0.47975 0.0
H1541 H 0.36909 0.60229 0.41638 0.0
H1542 H 0.40008 0.67148 0.41838 0.0
H1543 H 0.43567 0.73082 0.43923 0.0
H1544 H 0.47528 0.72669 0.50347 0.0
H1545 H 0.45 0.65816 0.49995 0.0
C1546 C 0.40967 0.61455 0.46638 0.0
C1547 C 0.38827 0.59527 0.448 0.0
C1548 C 0.42711 0.65441 0.46776 0.0
C1549 C 0.38537 0.6164 0.43075 0.0
C1550 C 0.40311 0.65604 0.43186 0.0
C1551 C 0.43946 0.71498 0.45222 0.0
C1552 C 0.4574 0.73367 0.47152 0.0
C1553 C 0.42368 0.67534 0.45038 0.0
C1554 C 0.46157 0.7128 0.48844 0.0
C1555 C 0.44695 0.67361 0.48649 0.0
H1556 H 0.34661 0.76728 0.5132 0.0
H1557 H 0.35547 0.79632 0.44535 0.0
H1558 H 0.28732 0.75287 0.44066 0.0
H1559 H 0.22599 0.70269 0.45523 0.0
H1560 H 0.2181 0.67241 0.52287 0.0
H1561 H 0.28473 0.7202 0.52821 0.0
C1562 C 0.33351 0.76452 0.49747 0.0
C1563 C 0.35607 0.78485 0.47966 0.0
C1564 C 0.29442 0.73892 0.49478 0.0
C1565 C 0.33872 0.78085 0.45934 0.0
C1566 C 0.29974 0.75592 0.45661 0.0
C1567 C 0.2388 0.70688 0.47116 0.0
C1568 C 0.21721 0.68384 0.48855 0.0
C1569 C 0.27743 0.73418 0.47411 0.0
C1570 C 0.23417 0.68957 0.50913 0.0
C1571 C 0.27231 0.71693 0.51224 0.0
H1572 H 0.23301 0.54611 0.3789 0.0
H1573 H 0.23049 0.52169 0.31062 0.0
H1574 H 0.2073 0.56562 0.30259 0.0
H1575 H 0.19076 0.61285 0.31473 0.0
H1576 H 0.19368 0.63827 0.38286 0.0
H1577 H 0.21316 0.59136 0.39129 0.0
C1578 C 0.22733 0.55038 0.36226 0.0
C1579 C 0.23379 0.53099 0.34532 0.0
C1580 C 0.21396 0.57562 0.35779 0.0
C1581 C 0.22591 0.53643 0.32389 0.0
C1582 C 0.21264 0.5615 0.31931 0.0
C1583 C 0.19532 0.60795 0.33147 0.0
C1584 C 0.19097 0.62912 0.34816 0.0
C1585 C 0.20697 0.58149 0.3361 0.0
C1586 C 0.19681 0.6223 0.36975 0.0
C1587 C 0.20815 0.59566 0.37454 0.0
H1588 H 0.47746 0.68429 0.37189 0.0
H1589 H 0.47123 0.67876 0.30205 0.0
H1590 H 0.42738 0.60997 0.30393 0.0
H1591 H 0.3843 0.55408 0.32547 0.0
H1592 H 0.38935 0.55964 0.39526 0.0
H1593 H 0.44103 0.62593 0.39342 0.0
C1594 C 0.46694 0.66792 0.35706 0.0
C1595 C 0.47692 0.68656 0.33684 0.0
C1596 C 0.44143 0.62864 0.35831 0.0
C1597 C 0.46371 0.66503 0.31777 0.0
C1598 C 0.43855 0.62578 0.31886 0.0
C1599 C 0.39711 0.56953 0.34032 0.0
C1600 C 0.3822 0.55244 0.36055 0.0
C1601 C 0.42621 0.60764 0.33905 0.0
C1602 C 0.39966 0.57254 0.37957 0.0
C1603 C 0.42915 0.61041 0.37848 0.0
H1604 H 0.41877 0.79347 0.30302 0.0
H1605 H 0.43108 0.82013 0.37133 0.0
H1606 H 0.36757 0.81297 0.37201 0.0
H1607 H 0.30666 0.79271 0.35413 0.0
H1608 H 0.29284 0.76296 0.28626 0.0
H1609 H 0.35946 0.77869 0.28432 0.0
C1610 C 0.4077 0.79809 0.31802 0.0
C1611 C 0.4293 0.8068 0.33718 0.0
C1612 C 0.37105 0.79341 0.31833 0.0
C1613 C 0.41483 0.8131 0.35643 0.0
C1614 C 0.37855 0.809 0.35682 0.0
C1615 C 0.31835 0.79021 0.3388 0.0
C1616 C 0.29483 0.77629 0.3204 0.0
C1617 C 0.35613 0.79823 0.338 0.0
C1618 C 0.31041 0.77355 0.30064 0.0
C1619 C 0.34838 0.78227 0.29958 0.0
loop_
_geom_bond_atom_site_label_1
_geom_bond_atom_site_label_2
_geom_bond_distance
_geom_bond_site_symmetry_2
_ccdc_geom_bond_type
In0 O1 2.294 . S
In0 O2 2.326 . S
In0 O6 2.266 . S
In0 O7 2.326 . S
In0 O8 2.266 . S
In0 O9 2.326 . S
In0 O11 2.294 . S
In0 O12 2.326 . S
O1 In0 2.294 . S
O1 C10 1.240 . S
O2 In0 2.326 . S
O2 C10 1.252 . S
C3 O6 1.252 . S
C3 O7 1.260 . S
C4 O11 1.240 . S
C4 O12 1.252 . S
C5 O8 1.252 1_565 S
C5 O9 1.260 1_565 S
O6 In0 2.266 . S
O6 C3 1.252 . S
O7 In0 2.326 . S
O7 C3 1.260 . S
O8 In0 2.266 . S
O8 C5 1.252 1_545 S
O9 In0 2.326 . S
O9 C5 1.260 1_545 S
C10 O1 1.240 . S
C10 O2 1.252 . S
O11 In0 2.294 . S
O11 C4 1.240 . S
O12 In0 2.326 . S
O12 C4 1.252 . S
In13 O14 2.294 . S
In13 O15 2.326 . S
In13 O19 2.266 . S
In13 O20 2.326 . S
In13 O21 2.266 . S
In13 O22 2.326 . S
In13 O24 2.294 . S
In13 O25 2.326 . S
O14 In13 2.294 . S
O14 C23 1.240 . S
O15 In13 2.326 . S
O15 C23 1.252 . S
C16 O19 1.252 . S
C16 O20 1.260 . S
C17 O24 1.240 . S
C17 O25 1.252 . S
C18 O21 1.252 1_455 S
C18 O22 1.260 1_455 S
O19 In13 2.266 . S
O19 C16 1.252 . S
O20 In13 2.326 . S
O20 C16 1.260 . S
O21 In13 2.266 . S
O21 C18 1.252 1_655 S
O22 In13 2.326 . S
O22 C18 1.260 1_655 S
C23 O14 1.240 . S
C23 O15 1.252 . S
O24 In13 2.294 . S
O24 C17 1.240 . S
O25 In13 2.326 . S
O25 C17 1.252 . S
In26 O27 2.294 . S
In26 O28 2.326 . S
In26 O32 2.266 . S
In26 O33 2.326 . S
In26 O34 2.266 . S
In26 O35 2.326 . S
In26 O37 2.294 . S
In26 O38 2.326 . S
O27 In26 2.294 . S
O27 C36 1.240 . S
O28 In26 2.326 . S
O28 C36 1.252 . S
C29 O32 1.252 . S
C29 O33 1.260 . S
C30 O37 1.240 . S
C30 O38 1.252 . S
C31 O34 1.252 . S
C31 O35 1.260 . S
O32 In26 2.266 . S
O32 C29 1.252 . S
O33 In26 2.326 . S
O33 C29 1.260 . S
O34 In26 2.266 . S
O34 C31 1.252 . S
O35 In26 2.326 . S
O35 C31 1.260 . S
C36 O27 1.240 . S
C36 O28 1.252 . S
O37 In26 2.294 . S
O37 C30 1.240 . S
O38 In26 2.326 . S
O38 C30 1.252 . S
In39 O40 2.294 . S
In39 O41 2.326 . S
In39 O45 2.266 . S
In39 O46 2.326 . S
In39 O47 2.266 . S
In39 O48 2.326 . S
In39 O50 2.294 . S
In39 O51 2.326 . S
O40 In39 2.294 . S
O40 C49 1.240 . S
O41 In39 2.326 . S
O41 C49 1.252 . S
C42 O45 1.252 . S
C42 O46 1.260 . S
C43 O50 1.240 . S
C43 O51 1.252 . S
C44 O47 1.252 1_655 S
C44 O48 1.260 1_655 S
O45 In39 2.266 . S
O45 C42 1.252 . S
O46 In39 2.326 . S
O46 C42 1.260 . S
O47 In39 2.266 . S
O47 C44 1.252 1_455 S
O48 In39 2.326 . S
O48 C44 1.260 1_455 S
C49 O40 1.240 . S
C49 O41 1.252 . S
O50 In39 2.294 . S
O50 C43 1.240 . S
O51 In39 2.326 . S
O51 C43 1.252 . S
In52 O53 2.294 . S
In52 O54 2.326 . S
In52 O58 2.266 . S
In52 O59 2.326 . S
In52 O60 2.266 . S
In52 O61 2.326 . S
In52 O63 2.294 . S
In52 O64 2.326 . S
O53 In52 2.294 . S
O53 C62 1.240 . S
O54 In52 2.326 . S
O54 C62 1.252 . S
C55 O58 1.252 . S
C55 O59 1.260 . S
C56 O63 1.240 . S
C56 O64 1.252 . S
C57 O60 1.252 . S
C57 O61 1.260 . S
O58 In52 2.266 . S
O58 C55 1.252 . S
O59 In52 2.326 . S
O59 C55 1.260 . S
O60 In52 2.266 . S
O60 C57 1.252 . S
O61 In52 2.326 . S
O61 C57 1.260 . S
C62 O53 1.240 . S
C62 O54 1.252 . S
O63 In52 2.294 . S
O63 C56 1.240 . S
O64 In52 2.326 . S
O64 C56 1.252 . S
In65 O66 2.294 . S
In65 O67 2.326 . S
In65 O71 2.266 . S
In65 O72 2.326 . S
In65 O73 2.266 . S
In65 O74 2.326 . S
In65 O76 2.294 . S
In65 O77 2.326 . S
O66 In65 2.294 . S
O66 C75 1.240 . S
O67 In65 2.326 . S
O67 C75 1.252 . S
C68 O71 1.252 1_545 S
C68 O72 1.260 1_545 S
C69 O76 1.240 . S
C69 O77 1.252 . S
C70 O73 1.252 . S
C70 O74 1.260 . S
O71 In65 2.266 . S
O71 C68 1.252 1_565 S
O72 In65 2.326 . S
O72 C68 1.260 1_565 S
O73 In65 2.266 . S
O73 C70 1.252 . S
O74 In65 2.326 . S
O74 C70 1.260 . S
C75 O66 1.240 . S
C75 O67 1.252 . S
O76 In65 2.294 . S
O76 C69 1.240 . S
O77 In65 2.326 . S
O77 C69 1.252 . S
In78 O79 2.294 . S
In78 O80 2.326 . S
In78 O84 2.266 . S
In78 O85 2.326 . S
In78 O86 2.266 . S
In78 O87 2.326 . S
In78 O89 2.294 . S
In78 O90 2.326 . S
O79 In78 2.294 . S
O79 C88 1.240 . S
O80 In78 2.326 . S
O80 C88 1.252 . S
C81 O84 1.252 . S
C81 O85 1.260 . S
C82 O89 1.240 . S
C82 O90 1.252 . S
C83 O86 1.252 1_545 S
C83 O87 1.260 1_545 S
O84 In78 2.266 . S
O84 C81 1.252 . S
O85 In78 2.326 . S
O85 C81 1.260 . S
O86 In78 2.266 . S
O86 C83 1.252 1_565 S
O87 In78 2.326 . S
O87 C83 1.260 1_565 S
C88 O79 1.240 . S
C88 O80 1.252 . S
O89 In78 2.294 . S
O89 C82 1.240 . S
O90 In78 2.326 . S
O90 C82 1.252 . S
In91 O92 2.294 . S
In91 O93 2.326 . S
In91 O97 2.266 . S
In91 O98 2.326 . S
In91 O99 2.266 . S
In91 O100 2.326 . S
In91 O102 2.294 . S
In91 O103 2.326 . S
O92 In91 2.294 . S
O92 C101 1.240 . S
O93 In91 2.326 . S
O93 C101 1.252 . S
C94 O97 1.252 . S
C94 O98 1.260 . S
C95 O102 1.240 . S
C95 O103 1.252 . S
C96 O99 1.252 1_655 S
C96 O100 1.260 1_655 S
O97 In91 2.266 . S
O97 C94 1.252 . S
O98 In91 2.326 . S
O98 C94 1.260 . S
O99 In91 2.266 . S
O99 C96 1.252 1_455 S
O100 In91 2.326 . S
O100 C96 1.260 1_455 S
C101 O92 1.240 . S
C101 O93 1.252 . S
O102 In91 2.294 . S
O102 C95 1.240 . S
O103 In91 2.326 . S
O103 C95 1.252 . S
In104 O105 2.294 . S
In104 O106 2.326 . S
In104 O110 2.266 . S
In104 O111 2.326 . S
In104 O112 2.266 . S
In104 O113 2.326 . S
In104 O115 2.294 . S
In104 O116 2.326 . S
O105 In104 2.294 . S
O105 C114 1.240 . S
O106 In104 2.326 . S
O106 C114 1.252 . S
C107 O110 1.252 . S
C107 O111 1.260 . S
C108 O115 1.240 . S
C108 O116 1.252 . S
C109 O112 1.252 . S
C109 O113 1.260 . S
O110 In104 2.266 . S
O110 C107 1.252 . S
O111 In104 2.326 . S
O111 C107 1.260 . S
O112 In104 2.266 . S
O112 C109 1.252 . S
O113 In104 2.326 . S
O113 C109 1.260 . S
C114 O105 1.240 . S
C114 O106 1.252 . S
O115 In104 2.294 . S
O115 C108 1.240 . S
O116 In104 2.326 . S
O116 C108 1.252 . S
In117 O118 2.294 . S
In117 O119 2.326 . S
In117 O123 2.266 . S
In117 O124 2.326 . S
In117 O125 2.266 . S
In117 O126 2.326 . S
In117 O128 2.294 . S
In117 O129 2.326 . S
O118 In117 2.294 . S
O118 C127 1.240 . S
O119 In117 2.326 . S
O119 C127 1.252 . S
C120 O123 1.252 . S
C120 O124 1.260 . S
C121 O128 1.240 . S
C121 O129 1.252 . S
C122 O125 1.252 1_455 S
C122 O126 1.260 1_455 S
O123 In117 2.266 . S
O123 C120 1.252 . S
O124 In117 2.326 . S
O124 C120 1.260 . S
O125 In117 2.266 . S
O125 C122 1.252 1_655 S
O126 In117 2.326 . S
O126 C122 1.260 1_655 S
C127 O118 1.240 . S
C127 O119 1.252 . S
O128 In117 2.294 . S
O128 C121 1.240 . S
O129 In117 2.326 . S
O129 C121 1.252 . S
In130 O131 2.294 . S
In130 O132 2.326 . S
In130 O136 2.266 . S
In130 O137 2.326 . S
In130 O138 2.266 . S
In130 O139 2.326 . S
In130 O141 2.294 . S
In130 O142 2.326 . S
O131 In130 2.294 . S
O131 C140 1.240 . S
O132 In130 2.326 . S
O132 C140 1.252 . S
C133 O136 1.252 . S
C133 O137 1.260 . S
C134 O141 1.240 . S
C134 O142 1.252 . S
C135 O138 1.252 . S
C135 O139 1.260 . S
O136 In130 2.266 . S
O136 C133 1.252 . S
O137 In130 2.326 . S
O137 C133 1.260 . S
O138 In130 2.266 . S
O138 C135 1.252 . S
O139 In130 2.326 . S
O139 C135 1.260 . S
C140 O131 1.240 . S
C140 O132 1.252 . S
O141 In130 2.294 . S
O141 C134 1.240 . S
O142 In130 2.326 . S
O142 C134 1.252 . S
In143 O144 2.294 . S
In143 O145 2.326 . S
In143 O149 2.266 . S
In143 O150 2.326 . S
In143 O151 2.266 . S
In143 O152 2.326 . S
In143 O154 2.294 . S
In143 O155 2.326 . S
O144 In143 2.294 . S
O144 C153 1.240 . S
O145 In143 2.326 . S
O145 C153 1.252 . S
C146 O149 1.252 1_565 S
C146 O150 1.260 1_565 S
C147 O154 1.240 . S
C147 O155 1.252 . S
C148 O151 1.252 . S
C148 O152 1.260 . S
O149 In143 2.266 . S
O149 C146 1.252 1_545 S
O150 In143 2.326 . S
O150 C146 1.260 1_545 S
O151 In143 2.266 . S
O151 C148 1.252 . S
O152 In143 2.326 . S
O152 C148 1.260 . S
C153 O144 1.240 . S
C153 O145 1.252 . S
O154 In143 2.294 . S
O154 C147 1.240 . S
O155 In143 2.326 . S
O155 C147 1.252 . S
In156 O157 2.294 . S
In156 O158 2.326 . S
In156 O162 2.266 . S
In156 O163 2.326 . S
In156 O164 2.266 . S
In156 O165 2.326 . S
In156 O167 2.294 . S
In156 O168 2.326 . S
O157 In156 2.294 . S
O157 C166 1.240 . S
O158 In156 2.326 . S
O158 C166 1.252 . S
C159 O162 1.252 . S
C159 O163 1.260 . S
C160 O167 1.240 . S
C160 O168 1.252 . S
C161 O164 1.252 . S
C161 O165 1.260 . S
O162 In156 2.266 . S
O162 C159 1.252 . S
O163 In156 2.326 . S
O163 C159 1.260 . S
O164 In156 2.266 . S
O164 C161 1.252 . S
O165 In156 2.326 . S
O165 C161 1.260 . S
C166 O157 1.240 . S
C166 O158 1.252 . S
O167 In156 2.294 . S
O167 C160 1.240 . S
O168 In156 2.326 . S
O168 C160 1.252 . S
In169 O170 2.294 . S
In169 O171 2.326 . S
In169 O175 2.266 . S
In169 O176 2.326 . S
In169 O177 2.266 . S
In169 O178 2.326 . S
In169 O180 2.294 . S
In169 O181 2.326 . S
O170 In169 2.294 . S
O170 C179 1.240 . S
O171 In169 2.326 . S
O171 C179 1.252 . S
C172 O175 1.252 . S
C172 O176 1.260 . S
C173 O180 1.240 . S
C173 O181 1.252 . S
C174 O177 1.252 . S
C174 O178 1.260 . S
O175 In169 2.266 . S
O175 C172 1.252 . S
O176 In169 2.326 . S
O176 C172 1.260 . S
O177 In169 2.266 . S
O177 C174 1.252 . S
O178 In169 2.326 . S
O178 C174 1.260 . S
C179 O170 1.240 . S
C179 O171 1.252 . S
O180 In169 2.294 . S
O180 C173 1.240 . S
O181 In169 2.326 . S
O181 C173 1.252 . S
In182 O183 2.294 . S
In182 O184 2.326 . S
In182 O188 2.266 . S
In182 O189 2.326 . S
In182 O190 2.266 . S
In182 O191 2.326 . S
In182 O193 2.294 . S
In182 O194 2.326 . S
O183 In182 2.294 . S
O183 C192 1.240 . S
O184 In182 2.326 . S
O184 C192 1.252 . S
C185 O188 1.252 . S
C185 O189 1.260 . S
C186 O193 1.240 . S
C186 O194 1.252 . S
C187 O190 1.252 . S
C187 O191 1.260 . S
O188 In182 2.266 . S
O188 C185 1.252 . S
O189 In182 2.326 . S
O189 C185 1.260 . S
O190 In182 2.266 . S
O190 C187 1.252 . S
O191 In182 2.326 . S
O191 C187 1.260 . S
C192 O183 1.240 . S
C192 O184 1.252 . S
O193 In182 2.294 . S
O193 C186 1.240 . S
O194 In182 2.326 . S
O194 C186 1.252 . S
In195 O196 2.294 . S
In195 O197 2.326 . S
In195 O201 2.266 . S
In195 O202 2.326 . S
In195 O203 2.266 . S
In195 O204 2.326 . S
In195 O206 2.294 . S
In195 O207 2.326 . S
O196 In195 2.294 . S
O196 C205 1.240 . S
O197 In195 2.326 . S
O197 C205 1.252 . S
C198 O201 1.252 . S
C198 O202 1.260 . S
C199 O206 1.240 . S
C199 O207 1.252 . S
C200 O203 1.252 . S
C200 O204 1.260 . S
O201 In195 2.266 . S
O201 C198 1.252 . S
O202 In195 2.326 . S
O202 C198 1.260 . S
O203 In195 2.266 . S
O203 C200 1.252 . S
O204 In195 2.326 . S
O204 C200 1.260 . S
C205 O196 1.240 . S
C205 O197 1.252 . S
O206 In195 2.294 . S
O206 C199 1.240 . S
O207 In195 2.326 . S
O207 C199 1.252 . S
In208 O209 2.294 . S
In208 O210 2.326 . S
In208 O214 2.266 . S
In208 O215 2.326 . S
In208 O216 2.266 . S
In208 O217 2.326 . S
In208 O219 2.294 . S
In208 O220 2.326 . S
O209 In208 2.294 . S
O209 C218 1.240 . S
O210 In208 2.326 . S
O210 C218 1.252 . S
C211 O214 1.252 . S
C211 O215 1.260 . S
C212 O219 1.240 . S
C212 O220 1.252 . S
C213 O216 1.252 . S
C213 O217 1.260 . S
O214 In208 2.266 . S
O214 C211 1.252 . S
O215 In208 2.326 . S
O215 C211 1.260 . S
O216 In208 2.266 . S
O216 C213 1.252 . S
O217 In208 2.326 . S
O217 C213 1.260 . S
C218 O209 1.240 . S
C218 O210 1.252 . S
O219 In208 2.294 . S
O219 C212 1.240 . S
O220 In208 2.326 . S
O220 C212 1.252 . S
In221 O222 2.294 . S
In221 O223 2.326 . S
In221 O227 2.266 . S
In221 O228 2.326 . S
In221 O229 2.266 . S
In221 O230 2.326 . S
In221 O232 2.294 . S
In221 O233 2.326 . S
O222 In221 2.294 . S
O222 C231 1.240 . S
O223 In221 2.326 . S
O223 C231 1.252 . S
C224 O227 1.252 . S
C224 O228 1.260 . S
C225 O232 1.240 . S
C225 O233 1.252 . S
C226 O229 1.252 . S
C226 O230 1.260 . S
O227 In221 2.266 . S
O227 C224 1.252 . S
O228 In221 2.326 . S
O228 C224 1.260 . S
O229 In221 2.266 . S
O229 C226 1.252 . S
O230 In221 2.326 . S
O230 C226 1.260 . S
C231 O222 1.240 . S
C231 O223 1.252 . S
O232 In221 2.294 . S
O232 C225 1.240 . S
O233 In221 2.326 . S
O233 C225 1.252 . S
In234 O235 2.294 . S
In234 O236 2.326 . S
In234 O240 2.266 . S
In234 O241 2.326 . S
In234 O242 2.266 . S
In234 O243 2.326 . S
In234 O245 2.294 . S
In234 O246 2.326 . S
O235 In234 2.294 . S
O235 C244 1.240 . S
O236 In234 2.326 . S
O236 C244 1.252 . S
C237 O240 1.252 . S
C237 O241 1.260 . S
C238 O245 1.240 . S
C238 O246 1.252 . S
C239 O242 1.252 . S
C239 O243 1.260 . S
O240 In234 2.266 . S
O240 C237 1.252 . S
O241 In234 2.326 . S
O241 C237 1.260 . S
O242 In234 2.266 . S
O242 C239 1.252 . S
O243 In234 2.326 . S
O243 C239 1.260 . S
C244 O235 1.240 . S
C244 O236 1.252 . S
O245 In234 2.294 . S
O245 C238 1.240 . S
O246 In234 2.326 . S
O246 C238 1.252 . S
In247 O248 2.294 . S
In247 O249 2.326 . S
In247 O253 2.266 . S
In247 O254 2.326 . S
In247 O255 2.266 . S
In247 O256 2.326 . S
In247 O258 2.294 . S
In247 O259 2.326 . S
O248 In247 2.294 . S
O248 C257 1.240 . S
O249 In247 2.326 . S
O249 C257 1.252 . S
C250 O253 1.252 . S
C250 O254 1.260 . S
C251 O258 1.240 . S
C251 O259 1.252 . S
C252 O255 1.252 . S
C252 O256 1.260 . S
O253 In247 2.266 . S
O253 C250 1.252 . S
O254 In247 2.326 . S
O254 C250 1.260 . S
O255 In247 2.266 . S
O255 C252 1.252 . S
O256 In247 2.326 . S
O256 C252 1.260 . S
C257 O248 1.240 . S
C257 O249 1.252 . S
O258 In247 2.294 . S
O258 C251 1.240 . S
O259 In247 2.326 . S
O259 C251 1.252 . S
In260 O261 2.294 . S
In260 O262 2.326 . S
In260 O266 2.266 . S
In260 O267 2.326 . S
In260 O268 2.266 . S
In260 O269 2.326 . S
In260 O271 2.294 . S
In260 O272 2.326 . S
O261 In260 2.294 . S
O261 C270 1.240 . S
O262 In260 2.326 . S
O262 C270 1.252 . S
C263 O266 1.252 . S
C263 O267 1.260 . S
C264 O271 1.240 . S
C264 O272 1.252 . S
C265 O268 1.252 . S
C265 O269 1.260 . S
O266 In260 2.266 . S
O266 C263 1.252 . S
O267 In260 2.326 . S
O267 C263 1.260 . S
O268 In260 2.266 . S
O268 C265 1.252 . S
O269 In260 2.326 . S
O269 C265 1.260 . S
C270 O261 1.240 . S
C270 O262 1.252 . S
O271 In260 2.294 . S
O271 C264 1.240 . S
O272 In260 2.326 . S
O272 C264 1.252 . S
In273 O274 2.294 . S
In273 O275 2.326 . S
In273 O279 2.266 . S
In273 O280 2.326 . S
In273 O281 2.266 . S
In273 O282 2.326 . S
In273 O284 2.294 . S
In273 O285 2.326 . S
O274 In273 2.294 . S
O274 C283 1.240 . S
O275 In273 2.326 . S
O275 C283 1.252 . S
C276 O279 1.252 . S
C276 O280 1.260 . S
C277 O284 1.240 . S
C277 O285 1.252 . S
C278 O281 1.252 . S
C278 O282 1.260 . S
O279 In273 2.266 . S
O279 C276 1.252 . S
O280 In273 2.326 . S
O280 C276 1.260 . S
O281 In273 2.266 . S
O281 C278 1.252 . S
O282 In273 2.326 . S
O282 C278 1.260 . S
C283 O274 1.240 . S
C283 O275 1.252 . S
O284 In273 2.294 . S
O284 C277 1.240 . S
O285 In273 2.326 . S
O285 C277 1.252 . S
In286 O287 2.294 . S
In286 O288 2.326 . S
In286 O292 2.266 . S
In286 O293 2.326 . S
In286 O294 2.266 . S
In286 O295 2.326 . S
In286 O297 2.294 . S
In286 O298 2.326 . S
O287 In286 2.294 . S
O287 C296 1.240 . S
O288 In286 2.326 . S
O288 C296 1.252 . S
C289 O292 1.252 . S
C289 O293 1.260 . S
C290 O297 1.240 . S
C290 O298 1.252 . S
C291 O294 1.252 . S
C291 O295 1.260 . S
O292 In286 2.266 . S
O292 C289 1.252 . S
O293 In286 2.326 . S
O293 C289 1.260 . S
O294 In286 2.266 . S
O294 C291 1.252 . S
O295 In286 2.326 . S
O295 C291 1.260 . S
C296 O287 1.240 . S
C296 O288 1.252 . S
O297 In286 2.294 . S
O297 C290 1.240 . S
O298 In286 2.326 . S
O298 C290 1.252 . S
In299 O300 2.294 . S
In299 O301 2.326 . S
In299 O305 2.266 . S
In299 O306 2.326 . S
In299 O307 2.266 . S
In299 O308 2.326 . S
In299 O310 2.294 . S
In299 O311 2.326 . S
O300 In299 2.294 . S
O300 C309 1.240 . S
O301 In299 2.326 . S
O301 C309 1.252 . S
C302 O305 1.252 . S
C302 O306 1.260 . S
C303 O310 1.240 . S
C303 O311 1.252 . S
C304 O307 1.252 . S
C304 O308 1.260 . S
O305 In299 2.266 . S
O305 C302 1.252 . S
O306 In299 2.326 . S
O306 C302 1.260 . S
O307 In299 2.266 . S
O307 C304 1.252 . S
O308 In299 2.326 . S
O308 C304 1.260 . S
C309 O300 1.240 . S
C309 O301 1.252 . S
O310 In299 2.294 . S
O310 C303 1.240 . S
O311 In299 2.326 . S
O311 C303 1.252 . S
In312 O313 2.294 . S
In312 O314 2.326 . S
In312 O318 2.266 . S
In312 O319 2.326 . S
In312 O320 2.266 . S
In312 O321 2.326 . S
In312 O323 2.294 . S
In312 O324 2.326 . S
O313 In312 2.294 . S
O313 C322 1.240 . S
O314 In312 2.326 . S
O314 C322 1.252 . S
C315 O318 1.252 . S
C315 O319 1.260 . S
C316 O323 1.240 . S
C316 O324 1.252 . S
C317 O320 1.252 . S
C317 O321 1.260 . S
O318 In312 2.266 . S
O318 C315 1.252 . S
O319 In312 2.326 . S
O319 C315 1.260 . S
O320 In312 2.266 . S
O320 C317 1.252 . S
O321 In312 2.326 . S
O321 C317 1.260 . S
C322 O313 1.240 . S
C322 O314 1.252 . S
O323 In312 2.294 . S
O323 C316 1.240 . S
O324 In312 2.326 . S
O324 C316 1.252 . S
In325 O326 2.294 . S
In325 O327 2.326 . S
In325 O331 2.266 . S
In325 O332 2.326 . S
In325 O333 2.266 . S
In325 O334 2.326 . S
In325 O336 2.294 . S
In325 O337 2.326 . S
O326 In325 2.294 . S
O326 C335 1.240 . S
O327 In325 2.326 . S
O327 C335 1.252 . S
C328 O331 1.252 . S
C328 O332 1.260 . S
C329 O336 1.240 . S
C329 O337 1.252 . S
C330 O333 1.252 . S
C330 O334 1.260 . S
O331 In325 2.266 . S
O331 C328 1.252 . S
O332 In325 2.326 . S
O332 C328 1.260 . S
O333 In325 2.266 . S
O333 C330 1.252 . S
O334 In325 2.326 . S
O334 C330 1.260 . S
C335 O326 1.240 . S
C335 O327 1.252 . S
O336 In325 2.294 . S
O336 C329 1.240 . S
O337 In325 2.326 . S
O337 C329 1.252 . S
In338 O339 2.294 . S
In338 O340 2.326 . S
In338 O344 2.266 . S
In338 O345 2.326 . S
In338 O346 2.266 . S
In338 O347 2.326 . S
In338 O349 2.294 . S
In338 O350 2.326 . S
O339 In338 2.294 . S
O339 C348 1.240 . S
O340 In338 2.326 . S
O340 C348 1.252 . S
C341 O344 1.252 . S
C341 O345 1.260 . S
C342 O349 1.240 . S
C342 O350 1.252 . S
C343 O346 1.252 . S
C343 O347 1.260 . S
O344 In338 2.266 . S
O344 C341 1.252 . S
O345 In338 2.326 . S
O345 C341 1.260 . S
O346 In338 2.266 . S
O346 C343 1.252 . S
O347 In338 2.326 . S
O347 C343 1.260 . S
C348 O339 1.240 . S
C348 O340 1.252 . S
O349 In338 2.294 . S
O349 C342 1.240 . S
O350 In338 2.326 . S
O350 C342 1.252 . S
In351 O352 2.294 . S
In351 O353 2.326 . S
In351 O357 2.266 . S
In351 O358 2.326 . S
In351 O359 2.266 . S
In351 O360 2.326 . S
In351 O362 2.294 . S
In351 O363 2.326 . S
O352 In351 2.294 . S
O352 C361 1.240 . S
O353 In351 2.326 . S
O353 C361 1.252 . S
C354 O357 1.252 . S
C354 O358 1.260 . S
C355 O362 1.240 . S
C355 O363 1.252 . S
C356 O359 1.252 . S
C356 O360 1.260 . S
O357 In351 2.266 . S
O357 C354 1.252 . S
O358 In351 2.326 . S
O358 C354 1.260 . S
O359 In351 2.266 . S
O359 C356 1.252 . S
O360 In351 2.326 . S
O360 C356 1.260 . S
C361 O352 1.240 . S
C361 O353 1.252 . S
O362 In351 2.294 . S
O362 C355 1.240 . S
O363 In351 2.326 . S
O363 C355 1.252 . S
In364 O365 2.294 . S
In364 O366 2.326 . S
In364 O370 2.266 . S
In364 O371 2.326 . S
In364 O372 2.266 . S
In364 O373 2.326 . S
In364 O375 2.294 . S
In364 O376 2.326 . S
O365 In364 2.294 . S
O365 C374 1.240 . S
O366 In364 2.326 . S
O366 C374 1.252 . S
C367 O370 1.252 . S
C367 O371 1.260 . S
C368 O375 1.240 . S
C368 O376 1.252 . S
C369 O372 1.252 . S
C369 O373 1.260 . S
O370 In364 2.266 . S
O370 C367 1.252 . S
O371 In364 2.326 . S
O371 C367 1.260 . S
O372 In364 2.266 . S
O372 C369 1.252 . S
O373 In364 2.326 . S
O373 C369 1.260 . S
C374 O365 1.240 . S
C374 O366 1.252 . S
O375 In364 2.294 . S
O375 C368 1.240 . S
O376 In364 2.326 . S
O376 C368 1.252 . S
In377 O378 2.294 . S
In377 O379 2.326 . S
In377 O383 2.266 . S
In377 O384 2.326 . S
In377 O385 2.266 . S
In377 O386 2.326 . S
In377 O388 2.294 . S
In377 O389 2.326 . S
O378 In377 2.294 . S
O378 C387 1.240 . S
O379 In377 2.326 . S
O379 C387 1.252 . S
C380 O383 1.252 . S
C380 O384 1.260 . S
C381 O388 1.240 . S
C381 O389 1.252 . S
C382 O385 1.252 . S
C382 O386 1.260 . S
O383 In377 2.266 . S
O383 C380 1.252 . S
O384 In377 2.326 . S
O384 C380 1.260 . S
O385 In377 2.266 . S
O385 C382 1.252 . S
O386 In377 2.326 . S
O386 C382 1.260 . S
C387 O378 1.240 . S
C387 O379 1.252 . S
O388 In377 2.294 . S
O388 C381 1.240 . S
O389 In377 2.326 . S
O389 C381 1.252 . S
In390 O391 2.294 . S
In390 O392 2.326 . S
In390 O396 2.266 . S
In390 O397 2.326 . S
In390 O398 2.266 . S
In390 O399 2.326 . S
In390 O401 2.294 . S
In390 O402 2.326 . S
O391 In390 2.294 . S
O391 C400 1.240 . S
O392 In390 2.326 . S
O392 C400 1.252 . S
C393 O396 1.252 . S
C393 O397 1.260 . S
C394 O401 1.240 . S
C394 O402 1.252 . S
C395 O398 1.252 . S
C395 O399 1.260 . S
O396 In390 2.266 . S
O396 C393 1.252 . S
O397 In390 2.326 . S
O397 C393 1.260 . S
O398 In390 2.266 . S
O398 C395 1.252 . S
O399 In390 2.326 . S
O399 C395 1.260 . S
C400 O391 1.240 . S
C400 O392 1.252 . S
O401 In390 2.294 . S
O401 C394 1.240 . S
O402 In390 2.326 . S
O402 C394 1.252 . S
In403 O404 2.294 . S
In403 O405 2.326 . S
In403 O409 2.266 . S
In403 O410 2.326 . S
In403 O411 2.266 . S
In403 O412 2.326 . S
In403 O414 2.294 . S
In403 O415 2.326 . S
O404 In403 2.294 . S
O404 C413 1.240 . S
O405 In403 2.326 . S
O405 C413 1.252 . S
C406 O409 1.252 . S
C406 O410 1.260 . S
C407 O414 1.240 . S
C407 O415 1.252 . S
C408 O411 1.252 . S
C408 O412 1.260 . S
O409 In403 2.266 . S
O409 C406 1.252 . S
O410 In403 2.326 . S
O410 C406 1.260 . S
O411 In403 2.266 . S
O411 C408 1.252 . S
O412 In403 2.326 . S
O412 C408 1.260 . S
C413 O404 1.240 . S
C413 O405 1.252 . S
O414 In403 2.294 . S
O414 C407 1.240 . S
O415 In403 2.326 . S
O415 C407 1.252 . S
In416 O417 2.294 . S
In416 O418 2.326 . S
In416 O422 2.266 . S
In416 O423 2.326 . S
In416 O424 2.266 . S
In416 O425 2.326 . S
In416 O427 2.294 . S
In416 O428 2.326 . S
O417 In416 2.294 . S
O417 C426 1.240 . S
O418 In416 2.326 . S
O418 C426 1.252 . S
C419 O422 1.252 . S
C419 O423 1.260 . S
C420 O427 1.240 . S
C420 O428 1.252 . S
C421 O424 1.252 . S
C421 O425 1.260 . S
O422 In416 2.266 . S
O422 C419 1.252 . S
O423 In416 2.326 . S
O423 C419 1.260 . S
O424 In416 2.266 . S
O424 C421 1.252 . S
O425 In416 2.326 . S
O425 C421 1.260 . S
C426 O417 1.240 . S
C426 O418 1.252 . S
O427 In416 2.294 . S
O427 C420 1.240 . S
O428 In416 2.326 . S
O428 C420 1.252 . S
In429 O430 2.294 . S
In429 O431 2.326 . S
In429 O435 2.266 . S
In429 O436 2.326 . S
In429 O437 2.266 . S
In429 O438 2.326 . S
In429 O440 2.294 . S
In429 O441 2.326 . S
O430 In429 2.294 . S
O430 C439 1.240 . S
O431 In429 2.326 . S
O431 C439 1.252 . S
C432 O435 1.252 . S
C432 O436 1.260 . S
C433 O440 1.240 . S
C433 O441 1.252 . S
C434 O437 1.252 . S
C434 O438 1.260 . S
O435 In429 2.266 . S
O435 C432 1.252 . S
O436 In429 2.326 . S
O436 C432 1.260 . S
O437 In429 2.266 . S
O437 C434 1.252 . S
O438 In429 2.326 . S
O438 C434 1.260 . S
C439 O430 1.240 . S
C439 O431 1.252 . S
O440 In429 2.294 . S
O440 C433 1.240 . S
O441 In429 2.326 . S
O441 C433 1.252 . S
In442 O443 2.294 . S
In442 O444 2.326 . S
In442 O448 2.266 . S
In442 O449 2.326 . S
In442 O450 2.266 . S
In442 O451 2.326 . S
In442 O453 2.294 . S
In442 O454 2.326 . S
O443 In442 2.294 . S
O443 C452 1.240 . S
O444 In442 2.326 . S
O444 C452 1.252 . S
C445 O448 1.252 . S
C445 O449 1.260 . S
C446 O453 1.240 . S
C446 O454 1.252 . S
C447 O450 1.252 . S
C447 O451 1.260 . S
O448 In442 2.266 . S
O448 C445 1.252 . S
O449 In442 2.326 . S
O449 C445 1.260 . S
O450 In442 2.266 . S
O450 C447 1.252 . S
O451 In442 2.326 . S
O451 C447 1.260 . S
C452 O443 1.240 . S
C452 O444 1.252 . S
O453 In442 2.294 . S
O453 C446 1.240 . S
O454 In442 2.326 . S
O454 C446 1.252 . S
In455 O456 2.294 . S
In455 O457 2.326 . S
In455 O461 2.266 . S
In455 O462 2.326 . S
In455 O463 2.266 . S
In455 O464 2.326 . S
In455 O466 2.294 . S
In455 O467 2.326 . S
O456 In455 2.294 . S
O456 C465 1.240 . S
O457 In455 2.326 . S
O457 C465 1.252 . S
C458 O461 1.252 . S
C458 O462 1.260 . S
C459 O466 1.240 . S
C459 O467 1.252 . S
C460 O463 1.252 . S
C460 O464 1.260 . S
O461 In455 2.266 . S
O461 C458 1.252 . S
O462 In455 2.326 . S
O462 C458 1.260 . S
O463 In455 2.266 . S
O463 C460 1.252 . S
O464 In455 2.326 . S
O464 C460 1.260 . S
C465 O456 1.240 . S
C465 O457 1.252 . S
O466 In455 2.294 . S
O466 C459 1.240 . S
O467 In455 2.326 . S
O467 C459 1.252 . S
H468 C474 0.930 . S
H469 C477 0.930 . S
H470 C478 0.930 . S
H471 C479 0.930 . S
H472 C482 0.930 . S
H473 C483 0.930 . S
C474 H468 0.930 . S
C474 C475 1.355 . S
C474 C476 1.415 . S
C475 C474 1.355 . S
C475 C477 1.419 . S
C476 C474 1.415 . S
C476 C481 1.425 . S
C476 C483 1.409 . S
C477 H469 0.930 . S
C477 C475 1.419 . S
C477 C478 1.362 . S
C478 H470 0.930 . S
C478 C477 1.362 . S
C478 C481 1.409 . S
C479 H471 0.930 . S
C479 C480 1.355 . S
C479 C481 1.415 . S
C480 C479 1.355 . S
C480 C482 1.419 . S
C481 C476 1.425 . S
C481 C478 1.409 . S
C481 C479 1.415 . S
C482 H472 0.930 . S
C482 C480 1.419 . S
C482 C483 1.362 . S
C483 H473 0.930 . S
C483 C476 1.409 . S
C483 C482 1.362 . S
H484 C490 0.930 . S
H485 C493 0.930 . S
H486 C494 0.930 . S
H487 C495 0.930 . S
H488 C498 0.930 . S
H489 C499 0.930 . S
C490 H484 0.930 . S
C490 C491 1.355 . S
C490 C492 1.415 . S
C491 C490 1.355 . S
C491 C493 1.419 . S
C492 C490 1.415 . S
C492 C497 1.425 . S
C492 C499 1.409 . S
C493 H485 0.930 . S
C493 C491 1.419 . S
C493 C494 1.362 . S
C494 H486 0.930 . S
C494 C493 1.362 . S
C494 C497 1.409 . S
C495 H487 0.930 . S
C495 C496 1.355 . S
C495 C497 1.415 . S
C496 C495 1.355 . S
C496 C498 1.419 . S
C497 C492 1.425 . S
C497 C494 1.409 . S
C497 C495 1.415 . S
C498 H488 0.930 . S
C498 C496 1.419 . S
C498 C499 1.362 . S
C499 H489 0.930 . S
C499 C492 1.409 . S
C499 C498 1.362 . S
H500 C506 0.930 . S
H501 C509 0.930 . S
H502 C510 0.930 . S
H503 C511 0.930 . S
H504 C514 0.930 . S
H505 C515 0.930 . S
C506 H500 0.930 . S
C506 C507 1.355 . S
C506 C508 1.415 . S
C507 C506 1.355 . S
C507 C509 1.419 . S
C508 C506 1.415 . S
C508 C513 1.425 . S
C508 C515 1.409 . S
C509 H501 0.930 . S
C509 C507 1.419 . S
C509 C510 1.362 . S
C510 H502 0.930 . S
C510 C509 1.362 . S
C510 C513 1.409 . S
C511 H503 0.930 . S
C511 C512 1.355 . S
C511 C513 1.415 . S
C512 C511 1.355 . S
C512 C514 1.419 . S
C513 C508 1.425 . S
C513 C510 1.409 . S
C513 C511 1.415 . S
C514 H504 0.930 . S
C514 C512 1.419 . S
C514 C515 1.362 . S
C515 H505 0.930 . S
C515 C508 1.409 . S
C515 C514 1.362 . S
H516 C522 0.930 . S
H517 C525 0.930 . S
H518 C526 0.930 . S
H519 C527 0.930 . S
H520 C530 0.930 . S
H521 C531 0.930 . S
C522 H516 0.930 . S
C522 C523 1.355 . S
C522 C524 1.415 . S
C523 C522 1.355 . S
C523 C525 1.419 . S
C524 C522 1.415 . S
C524 C529 1.425 . S
C524 C531 1.409 . S
C525 H517 0.930 . S
C525 C523 1.419 . S
C525 C526 1.362 . S
C526 H518 0.930 . S
C526 C525 1.362 . S
C526 C529 1.409 . S
C527 H519 0.930 . S
C527 C528 1.355 . S
C527 C529 1.415 . S
C528 C527 1.355 . S
C528 C530 1.419 . S
C529 C524 1.425 . S
C529 C526 1.409 . S
C529 C527 1.415 . S
C530 H520 0.930 . S
C530 C528 1.419 . S
C530 C531 1.362 . S
C531 H521 0.930 . S
C531 C524 1.409 . S
C531 C530 1.362 . S
H532 C538 0.930 . S
H533 C541 0.930 . S
H534 C542 0.930 . S
H535 C543 0.930 . S
H536 C546 0.930 . S
H537 C547 0.930 . S
C538 H532 0.930 . S
C538 C539 1.355 . S
C538 C540 1.415 . S
C539 C538 1.355 . S
C539 C541 1.419 . S
C540 C538 1.415 . S
C540 C545 1.425 . S
C540 C547 1.409 . S
C541 H533 0.930 . S
C541 C539 1.419 . S
C541 C542 1.362 . S
C542 H534 0.930 . S
C542 C541 1.362 . S
C542 C545 1.409 . S
C543 H535 0.930 . S
C543 C544 1.355 . S
C543 C545 1.415 . S
C544 C543 1.355 . S
C544 C546 1.419 . S
C545 C540 1.425 . S
C545 C542 1.409 . S
C545 C543 1.415 . S
C546 H536 0.930 . S
C546 C544 1.419 . S
C546 C547 1.362 . S
C547 H537 0.930 . S
C547 C540 1.409 . S
C547 C546 1.362 . S
H548 C554 0.930 . S
H549 C557 0.930 . S
H550 C558 0.930 . S
H551 C559 0.930 . S
H552 C562 0.930 . S
H553 C563 0.930 . S
C554 H548 0.930 . S
C554 C555 1.355 . S
C554 C556 1.415 . S
C555 C554 1.355 . S
C555 C557 1.419 . S
C556 C554 1.415 . S
C556 C561 1.425 . S
C556 C563 1.409 . S
C557 H549 0.930 . S
C557 C555 1.419 . S
C557 C558 1.362 . S
C558 H550 0.930 . S
C558 C557 1.362 . S
C558 C561 1.409 . S
C559 H551 0.930 . S
C559 C560 1.355 . S
C559 C561 1.415 . S
C560 C559 1.355 . S
C560 C562 1.419 . S
C561 C556 1.425 . S
C561 C558 1.409 . S
C561 C559 1.415 . S
C562 H552 0.930 . S
C562 C560 1.419 . S
C562 C563 1.362 . S
C563 H553 0.930 . S
C563 C556 1.409 . S
C563 C562 1.362 . S
H564 C570 0.930 . S
H565 C573 0.930 . S
H566 C574 0.930 . S
H567 C575 0.930 . S
H568 C578 0.930 . S
H569 C579 0.930 . S
C570 H564 0.930 . S
C570 C571 1.355 . S
C570 C572 1.415 . S
C571 C570 1.355 . S
C571 C573 1.419 . S
C572 C570 1.415 . S
C572 C577 1.425 . S
C572 C579 1.409 . S
C573 H565 0.930 . S
C573 C571 1.419 . S
C573 C574 1.362 . S
C574 H566 0.930 . S
C574 C573 1.362 . S
C574 C577 1.409 . S
C575 H567 0.930 . S
C575 C576 1.355 . S
C575 C577 1.415 . S
C576 C575 1.355 . S
C576 C578 1.419 . S
C577 C572 1.425 . S
C577 C574 1.409 . S
C577 C575 1.415 . S
C578 H568 0.930 . S
C578 C576 1.419 . S
C578 C579 1.362 . S
C579 H569 0.930 . S
C579 C572 1.409 . S
C579 C578 1.362 . S
H580 C586 0.930 . S
H581 C589 0.930 . S
H582 C590 0.930 . S
H583 C591 0.930 . S
H584 C594 0.930 . S
H585 C595 0.930 . S
C586 H580 0.930 . S
C586 C587 1.355 . S
C586 C588 1.415 . S
C587 C586 1.355 . S
C587 C589 1.419 . S
C588 C586 1.415 . S
C588 C593 1.425 . S
C588 C595 1.409 . S
C589 H581 0.930 . S
C589 C587 1.419 . S
C589 C590 1.362 . S
C590 H582 0.930 . S
C590 C589 1.362 . S
C590 C593 1.409 . S
C591 H583 0.930 . S
C591 C592 1.355 . S
C591 C593 1.415 . S
C592 C591 1.355 . S
C592 C594 1.419 . S
C593 C588 1.425 . S
C593 C590 1.409 . S
C593 C591 1.415 . S
C594 H584 0.930 . S
C594 C592 1.419 . S
C594 C595 1.362 . S
C595 H585 0.930 . S
C595 C588 1.409 . S
C595 C594 1.362 . S
H596 C602 0.930 . S
H597 C605 0.930 . S
H598 C606 0.930 . S
H599 C607 0.930 . S
H600 C610 0.930 . S
H601 C611 0.930 . S
C602 H596 0.930 . S
C602 C603 1.355 . S
C602 C604 1.415 . S
C603 C602 1.355 . S
C603 C605 1.419 . S
C604 C602 1.415 . S
C604 C609 1.425 . S
C604 C611 1.409 . S
C605 H597 0.930 . S
C605 C603 1.419 . S
C605 C606 1.362 . S
C606 H598 0.930 . S
C606 C605 1.362 . S
C606 C609 1.409 . S
C607 H599 0.930 . S
C607 C608 1.355 . S
C607 C609 1.415 . S
C608 C607 1.355 . S
C608 C610 1.419 . S
C609 C604 1.425 . S
C609 C606 1.409 . S
C609 C607 1.415 . S
C610 H600 0.930 . S
C610 C608 1.419 . S
C610 C611 1.362 . S
C611 H601 0.930 . S
C611 C604 1.409 . S
C611 C610 1.362 . S
H612 C618 0.930 . S
H613 C621 0.930 . S
H614 C622 0.930 . S
H615 C623 0.930 . S
H616 C626 0.930 . S
H617 C627 0.930 . S
C618 H612 0.930 . S
C618 C619 1.355 . S
C618 C620 1.415 . S
C619 C618 1.355 . S
C619 C621 1.419 . S
C620 C618 1.415 . S
C620 C625 1.425 . S
C620 C627 1.409 . S
C621 H613 0.930 . S
C621 C619 1.419 . S
C621 C622 1.362 . S
C622 H614 0.930 . S
C622 C621 1.362 . S
C622 C625 1.409 . S
C623 H615 0.930 . S
C623 C624 1.355 . S
C623 C625 1.415 . S
C624 C623 1.355 . S
C624 C626 1.419 . S
C625 C620 1.425 . S
C625 C622 1.409 . S
C625 C623 1.415 . S
C626 H616 0.930 . S
C626 C624 1.419 . S
C626 C627 1.362 . S
C627 H617 0.930 . S
C627 C620 1.409 . S
C627 C626 1.362 . S
H628 C634 0.930 . S
H629 C637 0.930 . S
H630 C638 0.930 . S
H631 C639 0.930 . S
H632 C642 0.930 . S
H633 C643 0.930 . S
C634 H628 0.930 . S
C634 C635 1.355 . S
C634 C636 1.415 . S
C635 C634 1.355 . S
C635 C637 1.419 . S
C636 C634 1.415 . S
C636 C641 1.425 . S
C636 C643 1.409 . S
C637 H629 0.930 . S
C637 C635 1.419 . S
C637 C638 1.362 . S
C638 H630 0.930 . S
C638 C637 1.362 . S
C638 C641 1.409 . S
C639 H631 0.930 . S
C639 C640 1.355 . S
C639 C641 1.415 . S
C640 C639 1.355 . S
C640 C642 1.419 . S
C641 C636 1.425 . S
C641 C638 1.409 . S
C641 C639 1.415 . S
C642 H632 0.930 . S
C642 C640 1.419 . S
C642 C643 1.362 . S
C643 H633 0.930 . S
C643 C636 1.409 . S
C643 C642 1.362 . S
H644 C650 0.930 . S
H645 C653 0.930 . S
H646 C654 0.930 . S
H647 C655 0.930 . S
H648 C658 0.930 . S
H649 C659 0.930 . S
C650 H644 0.930 . S
C650 C651 1.355 . S
C650 C652 1.415 . S
C651 C650 1.355 . S
C651 C653 1.419 . S
C652 C650 1.415 . S
C652 C657 1.425 . S
C652 C659 1.409 . S
C653 H645 0.930 . S
C653 C651 1.419 . S
C653 C654 1.362 . S
C654 H646 0.930 . S
C654 C653 1.362 . S
C654 C657 1.409 . S
C655 H647 0.930 . S
C655 C656 1.355 . S
C655 C657 1.415 . S
C656 C655 1.355 . S
C656 C658 1.419 . S
C657 C652 1.425 . S
C657 C654 1.409 . S
C657 C655 1.415 . S
C658 H648 0.930 . S
C658 C656 1.419 . S
C658 C659 1.362 . S
C659 H649 0.930 . S
C659 C652 1.409 . S
C659 C658 1.362 . S
H660 C666 0.930 . S
H661 C669 0.930 . S
H662 C670 0.930 . S
H663 C671 0.930 . S
H664 C674 0.930 . S
H665 C675 0.930 . S
C666 H660 0.930 . S
C666 C667 1.355 . S
C666 C668 1.415 . S
C667 C666 1.355 . S
C667 C669 1.419 . S
C668 C666 1.415 . S
C668 C673 1.425 1_455 S
C668 C675 1.409 . S
C669 H661 0.930 . S
C669 C667 1.419 . S
C669 C670 1.362 1_455 S
C670 H662 0.930 . S
C670 C669 1.362 1_655 S
C670 C673 1.409 . S
C671 H663 0.930 . S
C671 C672 1.355 . S
C671 C673 1.415 . S
C672 C671 1.355 . S
C672 C674 1.419 . S
C673 C668 1.425 1_655 S
C673 C670 1.409 . S
C673 C671 1.415 . S
C674 H664 0.930 . S
C674 C672 1.419 . S
C674 C675 1.362 1_655 S
C675 H665 0.930 . S
C675 C668 1.409 . S
C675 C674 1.362 1_455 S
H676 C682 0.930 . S
H677 C685 0.930 . S
H678 C686 0.930 . S
H679 C687 0.930 . S
H680 C690 0.930 . S
H681 C691 0.930 . S
C682 H676 0.930 . S
C682 C683 1.355 . S
C682 C684 1.415 . S
C683 C682 1.355 . S
C683 C685 1.419 . S
C684 C682 1.415 . S
C684 C689 1.425 . S
C684 C691 1.409 . S
C685 H677 0.930 . S
C685 C683 1.419 . S
C685 C686 1.362 . S
C686 H678 0.930 . S
C686 C685 1.362 . S
C686 C689 1.409 . S
C687 H679 0.930 . S
C687 C688 1.355 . S
C687 C689 1.415 . S
C688 C687 1.355 . S
C688 C690 1.419 . S
C689 C684 1.425 . S
C689 C686 1.409 . S
C689 C687 1.415 . S
C690 H680 0.930 . S
C690 C688 1.419 . S
C690 C691 1.362 . S
C691 H681 0.930 . S
C691 C684 1.409 . S
C691 C690 1.362 . S
H692 C698 0.930 . S
H693 C701 0.930 . S
H694 C702 0.930 . S
H695 C703 0.930 . S
H696 C706 0.930 . S
H697 C707 0.930 . S
C698 H692 0.930 . S
C698 C699 1.355 . S
C698 C700 1.415 1_545 S
C699 C698 1.355 . S
C699 C701 1.419 . S
C700 C698 1.415 1_565 S
C700 C705 1.425 1_565 S
C700 C707 1.409 . S
C701 H693 0.930 . S
C701 C699 1.419 . S
C701 C702 1.362 . S
C702 H694 0.930 . S
C702 C701 1.362 . S
C702 C705 1.409 . S
C703 H695 0.930 . S
C703 C704 1.355 . S
C703 C705 1.415 1_565 S
C704 C703 1.355 . S
C704 C706 1.419 . S
C705 C700 1.425 1_545 S
C705 C702 1.409 . S
C705 C703 1.415 1_545 S
C706 H696 0.930 . S
C706 C704 1.419 . S
C706 C707 1.362 . S
C707 H697 0.930 . S
C707 C700 1.409 . S
C707 C706 1.362 . S
H708 C714 0.930 . S
H709 C717 0.930 . S
H710 C718 0.941 . S
H711 C719 0.930 . S
H712 C722 0.930 . S
H713 C723 0.941 . S
C714 H708 0.930 . S
C714 C715 1.355 . S
C714 C716 1.415 1_565 S
C715 C714 1.355 . S
C715 C717 1.419 . S
C716 C714 1.415 1_545 S
C716 C721 1.425 1_544 S
C716 C723 1.414 . S
C717 H709 0.930 . S
C717 C715 1.419 . S
C717 C718 1.347 1_554 S
C718 H710 0.941 . S
C718 C717 1.347 1_556 S
C718 C721 1.414 . S
C719 H711 0.930 . S
C719 C720 1.355 . S
C719 C721 1.415 1_545 S
C720 C719 1.355 . S
C720 C722 1.419 . S
C721 C716 1.425 1_566 S
C721 C718 1.414 . S
C721 C719 1.415 1_565 S
C722 H712 0.930 . S
C722 C720 1.419 . S
C722 C723 1.347 1_556 S
C723 H713 0.941 . S
C723 C716 1.414 . S
C723 C722 1.347 1_554 S
H724 C730 0.930 . S
H725 C733 0.930 . S
H726 C734 0.930 . S
H727 C735 0.930 . S
H728 C738 0.930 . S
H729 C739 0.930 . S
C730 H724 0.930 . S
C730 C731 1.355 . S
C730 C732 1.415 1_655 S
C731 C730 1.355 . S
C731 C733 1.419 . S
C732 C730 1.415 1_455 S
C732 C737 1.425 1_456 S
C732 C739 1.409 . S
C733 H725 0.930 . S
C733 C731 1.419 . S
C733 C734 1.362 1_556 S
C734 H726 0.930 . S
C734 C733 1.362 1_554 S
C734 C737 1.409 . S
C735 H727 0.930 . S
C735 C736 1.355 . S
C735 C737 1.415 1_455 S
C736 C735 1.355 . S
C736 C738 1.419 . S
C737 C732 1.425 1_654 S
C737 C734 1.409 . S
C737 C735 1.415 1_655 S
C738 H728 0.930 . S
C738 C736 1.419 . S
C738 C739 1.362 1_554 S
C739 H729 0.930 . S
C739 C732 1.409 . S
C739 C738 1.362 1_556 S
H740 C746 0.930 . S
H741 C749 0.930 . S
H742 C750 0.930 . S
H743 C751 0.930 . S
H744 C754 0.930 . S
H745 C755 0.930 . S
C746 H740 0.930 . S
C746 C747 1.355 . S
C746 C748 1.415 . S
C747 C746 1.355 . S
C747 C749 1.419 . S
C748 C746 1.415 . S
C748 C753 1.425 1_556 S
C748 C755 1.409 . S
C749 H741 0.930 . S
C749 C747 1.419 . S
C749 C750 1.362 1_556 S
C750 H742 0.930 . S
C750 C749 1.362 1_554 S
C750 C753 1.409 . S
C751 H743 0.930 . S
C751 C752 1.355 . S
C751 C753 1.415 . S
C752 C751 1.355 . S
C752 C754 1.419 . S
C753 C748 1.425 1_554 S
C753 C750 1.409 . S
C753 C751 1.415 . S
C754 H744 0.930 . S
C754 C752 1.419 . S
C754 C755 1.362 1_554 S
C755 H745 0.930 . S
C755 C748 1.409 . S
C755 C754 1.362 1_556 S
H756 C762 0.930 . S
H757 C765 0.930 . S
H758 C766 0.930 . S
H759 C767 0.930 . S
H760 C770 0.930 . S
H761 C771 0.930 . S
C762 H756 0.930 . S
C762 C763 1.355 1_565 S
C762 C764 1.415 . S
C763 C762 1.355 1_545 S
C763 C765 1.419 . S
C764 C762 1.415 . S
C764 C769 1.425 . S
C764 C771 1.409 . S
C765 H757 0.930 . S
C765 C763 1.419 . S
C765 C766 1.362 . S
C766 H758 0.930 . S
C766 C765 1.362 . S
C766 C769 1.409 1_545 S
C767 H759 0.930 . S
C767 C768 1.355 . S
C767 C769 1.415 . S
C768 C767 1.355 . S
C768 C770 1.419 . S
C769 C764 1.425 . S
C769 C766 1.409 1_565 S
C769 C767 1.415 . S
C770 H760 0.930 . S
C770 C768 1.419 . S
C770 C771 1.362 . S
C771 H761 0.930 . S
C771 C764 1.409 . S
C771 C770 1.362 . S
H772 C778 0.930 . S
H773 C781 0.930 . S
H774 C782 0.930 1_655 S
H775 C783 0.930 . S
H776 C786 0.930 . S
H777 C787 0.930 . S
C778 H772 0.930 . S
C778 C779 1.355 . S
C778 C780 1.415 . S
C779 C778 1.355 . S
C779 C781 1.419 . S
C780 C778 1.415 . S
C780 C785 1.425 . S
C780 C787 1.409 . S
C781 H773 0.930 . S
C781 C779 1.419 . S
C781 C782 1.362 . S
C782 H774 0.930 1_455 S
C782 C781 1.362 . S
C782 C785 1.409 . S
C783 H775 0.930 . S
C783 C784 1.355 . S
C783 C785 1.415 1_655 S
C784 C783 1.355 . S
C784 C786 1.419 1_655 S
C785 C780 1.425 . S
C785 C782 1.409 . S
C785 C783 1.415 1_455 S
C786 H776 0.930 . S
C786 C784 1.419 1_455 S
C786 C787 1.362 . S
C787 H777 0.930 . S
C787 C780 1.409 . S
C787 C786 1.362 . S
H788 C794 0.930 . S
H789 C797 0.930 . S
H790 C798 0.930 . S
H791 C799 0.930 . S
H792 C802 0.930 . S
H793 C803 0.930 . S
C794 H788 0.930 . S
C794 C795 1.355 . S
C794 C796 1.415 . S
C795 C794 1.355 . S
C795 C797 1.419 . S
C796 C794 1.415 . S
C796 C801 1.425 . S
C796 C803 1.409 . S
C797 H789 0.930 . S
C797 C795 1.419 . S
C797 C798 1.362 . S
C798 H790 0.930 . S
C798 C797 1.362 . S
C798 C801 1.409 . S
C799 H791 0.930 . S
C799 C800 1.355 . S
C799 C801 1.415 . S
C800 C799 1.355 . S
C800 C802 1.419 . S
C801 C796 1.425 . S
C801 C798 1.409 . S
C801 C799 1.415 . S
C802 H792 0.930 . S
C802 C800 1.419 . S
C802 C803 1.362 . S
C803 H793 0.930 . S
C803 C796 1.409 . S
C803 C802 1.362 . S
H804 C810 0.930 . S
H805 C813 0.930 . S
H806 C814 0.930 . S
H807 C815 0.930 . S
H808 C818 0.930 . S
H809 C819 0.930 . S
C810 H804 0.930 . S
C810 C811 1.355 . S
C810 C812 1.415 . S
C811 C810 1.355 . S
C811 C813 1.419 . S
C812 C810 1.415 . S
C812 C817 1.425 . S
C812 C819 1.409 1_655 S
C813 H805 0.930 . S
C813 C811 1.419 . S
C813 C814 1.362 . S
C814 H806 0.930 . S
C814 C813 1.362 . S
C814 C817 1.409 . S
C815 H807 0.930 . S
C815 C816 1.355 1_655 S
C815 C817 1.415 . S
C816 C815 1.355 1_455 S
C816 C818 1.419 . S
C817 C812 1.425 . S
C817 C814 1.409 . S
C817 C815 1.415 . S
C818 H808 0.930 . S
C818 C816 1.419 . S
C818 C819 1.362 . S
C819 H809 0.930 . S
C819 C812 1.409 1_455 S
C819 C818 1.362 . S
H820 C826 0.930 . S
H821 C829 0.930 . S
H822 C830 0.930 . S
H823 C831 0.930 . S
H824 C834 0.930 . S
H825 C835 0.930 . S
C826 H820 0.930 . S
C826 C827 1.355 . S
C826 C828 1.415 . S
C827 C826 1.355 . S
C827 C829 1.419 . S
C828 C826 1.415 . S
C828 C833 1.425 . S
C828 C835 1.409 . S
C829 H821 0.930 . S
C829 C827 1.419 . S
C829 C830 1.362 . S
C830 H822 0.930 . S
C830 C829 1.362 . S
C830 C833 1.409 . S
C831 H823 0.930 . S
C831 C832 1.355 . S
C831 C833 1.415 . S
C832 C831 1.355 . S
C832 C834 1.419 . S
C833 C828 1.425 . S
C833 C830 1.409 . S
C833 C831 1.415 . S
C834 H824 0.930 . S
C834 C832 1.419 . S
C834 C835 1.362 . S
C835 H825 0.930 . S
C835 C828 1.409 . S
C835 C834 1.362 . S
H836 C842 0.930 . S
H837 C845 0.930 . S
H838 C846 0.930 . S
H839 C847 0.930 . S
H840 C850 0.930 . S
H841 C851 0.930 . S
C842 H836 0.930 . S
C842 C843 1.355 . S
C842 C844 1.415 . S
C843 C842 1.355 . S
C843 C845 1.419 . S
C844 C842 1.415 . S
C844 C849 1.425 . S
C844 C851 1.409 1_545 S
C845 H837 0.930 . S
C845 C843 1.419 . S
C845 C846 1.362 . S
C846 H838 0.930 . S
C846 C845 1.362 . S
C846 C849 1.409 . S
C847 H839 0.930 . S
C847 C848 1.355 1_545 S
C847 C849 1.415 . S
C848 C847 1.355 1_565 S
C848 C850 1.419 . S
C849 C844 1.425 . S
C849 C846 1.409 . S
C849 C847 1.415 . S
C850 H840 0.930 . S
C850 C848 1.419 . S
C850 C851 1.362 . S
C851 H841 0.930 . S
C851 C844 1.409 1_565 S
C851 C850 1.362 . S
H852 C858 0.930 . S
H853 C861 0.930 . S
H854 C862 0.930 . S
H855 C863 0.930 . S
H856 C866 0.930 . S
H857 C867 0.930 . S
C858 H852 0.930 . S
C858 C859 1.355 1_545 S
C858 C860 1.415 . S
C859 C858 1.355 1_565 S
C859 C861 1.419 . S
C860 C858 1.415 . S
C860 C865 1.425 . S
C860 C867 1.409 . S
C861 H853 0.930 . S
C861 C859 1.419 . S
C861 C862 1.362 . S
C862 H854 0.930 . S
C862 C861 1.362 . S
C862 C865 1.409 1_565 S
C863 H855 0.930 . S
C863 C864 1.355 . S
C863 C865 1.415 . S
C864 C863 1.355 . S
C864 C866 1.419 . S
C865 C860 1.425 . S
C865 C862 1.409 1_545 S
C865 C863 1.415 . S
C866 H856 0.930 . S
C866 C864 1.419 . S
C866 C867 1.362 . S
C867 H857 0.930 . S
C867 C860 1.409 . S
C867 C866 1.362 . S
H868 C874 0.930 . S
H869 C877 0.930 . S
H870 C878 0.930 . S
H871 C879 0.930 . S
H872 C882 0.930 . S
H873 C883 0.930 . S
C874 H868 0.930 . S
C874 C875 1.355 . S
C874 C876 1.415 . S
C875 C874 1.355 . S
C875 C877 1.419 . S
C876 C874 1.415 . S
C876 C881 1.425 . S
C876 C883 1.409 1_655 S
C877 H869 0.930 . S
C877 C875 1.419 . S
C877 C878 1.362 . S
C878 H870 0.930 . S
C878 C877 1.362 . S
C878 C881 1.409 . S
C879 H871 0.930 . S
C879 C880 1.355 1_655 S
C879 C881 1.415 . S
C880 C879 1.355 1_455 S
C880 C882 1.419 . S
C881 C876 1.425 . S
C881 C878 1.409 . S
C881 C879 1.415 . S
C882 H872 0.930 . S
C882 C880 1.419 . S
C882 C883 1.362 . S
C883 H873 0.930 . S
C883 C876 1.409 1_455 S
C883 C882 1.362 . S
H884 C890 0.930 . S
H885 C893 0.930 . S
H886 C894 0.930 . S
H887 C895 0.930 . S
H888 C898 0.930 . S
H889 C899 0.930 . S
C890 H884 0.930 . S
C890 C891 1.355 . S
C890 C892 1.415 . S
C891 C890 1.355 . S
C891 C893 1.419 . S
C892 C890 1.415 . S
C892 C897 1.425 . S
C892 C899 1.409 . S
C893 H885 0.930 . S
C893 C891 1.419 . S
C893 C894 1.362 . S
C894 H886 0.930 . S
C894 C893 1.362 . S
C894 C897 1.409 . S
C895 H887 0.930 . S
C895 C896 1.355 . S
C895 C897 1.415 . S
C896 C895 1.355 . S
C896 C898 1.419 . S
C897 C892 1.425 . S
C897 C894 1.409 . S
C897 C895 1.415 . S
C898 H888 0.930 . S
C898 C896 1.419 . S
C898 C899 1.362 . S
C899 H889 0.930 . S
C899 C892 1.409 . S
C899 C898 1.362 . S
H900 C906 0.930 . S
H901 C909 0.930 . S
H902 C910 0.930 . S
H903 C911 0.930 . S
H904 C914 0.930 . S
H905 C915 0.930 . S
C906 H900 0.930 . S
C906 C907 1.355 1_455 S
C906 C908 1.415 . S
C907 C906 1.355 1_655 S
C907 C909 1.419 . S
C908 C906 1.415 . S
C908 C913 1.425 . S
C908 C915 1.409 . S
C909 H901 0.930 . S
C909 C907 1.419 . S
C909 C910 1.362 . S
C910 H902 0.930 . S
C910 C909 1.362 . S
C910 C913 1.409 1_655 S
C911 H903 0.930 . S
C911 C912 1.355 . S
C911 C913 1.415 . S
C912 C911 1.355 . S
C912 C914 1.419 . S
C913 C908 1.425 . S
C913 C910 1.409 1_455 S
C913 C911 1.415 . S
C914 H904 0.930 . S
C914 C912 1.419 . S
C914 C915 1.362 . S
C915 H905 0.930 . S
C915 C908 1.409 . S
C915 C914 1.362 . S
H916 C922 0.930 . S
H917 C925 0.930 . S
H918 C926 0.930 . S
H919 C927 0.930 . S
H920 C930 0.930 . S
H921 C931 0.930 . S
C922 H916 0.930 . S
C922 C923 1.355 . S
C922 C924 1.415 . S
C923 C922 1.355 . S
C923 C925 1.419 . S
C924 C922 1.415 . S
C924 C929 1.425 . S
C924 C931 1.409 . S
C925 H917 0.930 . S
C925 C923 1.419 . S
C925 C926 1.362 . S
C926 H918 0.930 . S
C926 C925 1.362 . S
C926 C929 1.409 . S
C927 H919 0.930 . S
C927 C928 1.355 . S
C927 C929 1.415 . S
C928 C927 1.355 . S
C928 C930 1.419 . S
C929 C924 1.425 . S
C929 C926 1.409 . S
C929 C927 1.415 . S
C930 H920 0.930 . S
C930 C928 1.419 . S
C930 C931 1.362 . S
C931 H921 0.930 . S
C931 C924 1.409 . S
C931 C930 1.362 . S
H932 C938 0.930 . S
H933 C941 0.930 . S
H934 C942 0.930 . S
H935 C943 0.930 . S
H936 C946 0.930 . S
H937 C947 0.930 1_545 S
C938 H932 0.930 . S
C938 C939 1.355 . S
C938 C940 1.415 1_545 S
C939 C938 1.355 . S
C939 C941 1.419 1_545 S
C940 C938 1.415 1_565 S
C940 C945 1.425 . S
C940 C947 1.409 . S
C941 H933 0.930 . S
C941 C939 1.419 1_565 S
C941 C942 1.362 . S
C942 H934 0.930 . S
C942 C941 1.362 . S
C942 C945 1.409 . S
C943 H935 0.930 . S
C943 C944 1.355 . S
C943 C945 1.415 . S
C944 C943 1.355 . S
C944 C946 1.419 . S
C945 C940 1.425 . S
C945 C942 1.409 . S
C945 C943 1.415 . S
C946 H936 0.930 . S
C946 C944 1.419 . S
C946 C947 1.362 . S
C947 H937 0.930 1_565 S
C947 C940 1.409 . S
C947 C946 1.362 . S
H948 C954 0.930 . S
H949 C957 0.930 . S
H950 C958 0.930 . S
H951 C959 0.930 . S
H952 C962 0.930 . S
H953 C963 0.930 . S
C954 H948 0.930 . S
C954 C955 1.355 . S
C954 C956 1.415 . S
C955 C954 1.355 . S
C955 C957 1.419 . S
C956 C954 1.415 . S
C956 C961 1.425 . S
C956 C963 1.409 . S
C957 H949 0.930 . S
C957 C955 1.419 . S
C957 C958 1.362 . S
C958 H950 0.930 . S
C958 C957 1.362 . S
C958 C961 1.409 . S
C959 H951 0.930 . S
C959 C960 1.355 . S
C959 C961 1.415 . S
C960 C959 1.355 . S
C960 C962 1.419 . S
C961 C956 1.425 . S
C961 C958 1.409 . S
C961 C959 1.415 . S
C962 H952 0.930 . S
C962 C960 1.419 . S
C962 C963 1.362 . S
C963 H953 0.930 . S
C963 C956 1.409 . S
C963 C962 1.362 . S
H964 C970 0.930 . S
H965 C973 0.930 . S
H966 C974 0.930 . S
H967 C975 0.930 . S
H968 C978 0.930 . S
H969 C979 0.930 . S
C970 H964 0.930 . S
C970 C971 1.355 . S
C970 C972 1.415 . S
C971 C970 1.355 . S
C971 C973 1.419 . S
C972 C970 1.415 . S
C972 C977 1.425 1_545 S
C972 C979 1.409 1_545 S
C973 H965 0.930 . S
C973 C971 1.419 . S
C973 C974 1.362 . S
C974 H966 0.930 . S
C974 C973 1.362 . S
C974 C977 1.409 1_545 S
C975 H967 0.930 . S
C975 C976 1.355 . S
C975 C977 1.415 . S
C976 C975 1.355 . S
C976 C978 1.419 . S
C977 C972 1.425 1_565 S
C977 C974 1.409 1_565 S
C977 C975 1.415 . S
C978 H968 0.930 . S
C978 C976 1.419 . S
C978 C979 1.362 . S
C979 H969 0.930 . S
C979 C972 1.409 1_565 S
C979 C978 1.362 . S
H980 C986 0.930 . S
H981 C989 0.930 . S
H982 C990 0.930 . S
H983 C991 0.930 . S
H984 C994 0.930 . S
H985 C995 0.930 . S
C986 H980 0.930 . S
C986 C987 1.355 . S
C986 C988 1.415 . S
C987 C986 1.355 . S
C987 C989 1.419 . S
C988 C986 1.415 . S
C988 C993 1.425 1_655 S
C988 C995 1.409 1_655 S
C989 H981 0.930 . S
C989 C987 1.419 . S
C989 C990 1.362 . S
C990 H982 0.930 . S
C990 C989 1.362 . S
C990 C993 1.409 1_655 S
C991 H983 0.930 . S
C991 C992 1.355 . S
C991 C993 1.415 . S
C992 C991 1.355 . S
C992 C994 1.419 . S
C993 C988 1.425 1_455 S
C993 C990 1.409 1_455 S
C993 C991 1.415 . S
C994 H984 0.930 . S
C994 C992 1.419 . S
C994 C995 1.362 . S
C995 H985 0.930 . S
C995 C988 1.409 1_455 S
C995 C994 1.362 . S
H996 C1002 0.930 . S
H997 C1005 0.930 . S
H998 C1006 0.930 . S
H999 C1007 0.930 . S
H1000 C1010 0.930 . S
H1001 C1011 0.930 . S
C1002 H996 0.930 . S
C1002 C1003 1.355 . S
C1002 C1004 1.415 . S
C1003 C1002 1.355 . S
C1003 C1005 1.419 . S
C1004 C1002 1.415 . S
C1004 C1009 1.425 . S
C1004 C1011 1.409 . S
C1005 H997 0.930 . S
C1005 C1003 1.419 . S
C1005 C1006 1.362 . S
C1006 H998 0.930 . S
C1006 C1005 1.362 . S
C1006 C1009 1.409 . S
C1007 H999 0.930 . S
C1007 C1008 1.355 . S
C1007 C1009 1.415 . S
C1008 C1007 1.355 . S
C1008 C1010 1.419 . S
C1009 C1004 1.425 . S
C1009 C1006 1.409 . S
C1009 C1007 1.415 . S
C1010 H1000 0.930 . S
C1010 C1008 1.419 . S
C1010 C1011 1.362 . S
C1011 H1001 0.930 . S
C1011 C1004 1.409 . S
C1011 C1010 1.362 . S
H1012 C1018 0.930 . S
H1013 C1021 0.930 . S
H1014 C1022 0.930 . S
H1015 C1023 0.930 . S
H1016 C1026 0.930 . S
H1017 C1027 0.930 . S
C1018 H1012 0.930 . S
C1018 C1019 1.355 . S
C1018 C1020 1.415 . S
C1019 C1018 1.355 . S
C1019 C1021 1.419 . S
C1020 C1018 1.415 . S
C1020 C1025 1.425 1_565 S
C1020 C1027 1.409 1_565 S
C1021 H1013 0.930 . S
C1021 C1019 1.419 . S
C1021 C1022 1.362 . S
C1022 H1014 0.930 . S
C1022 C1021 1.362 . S
C1022 C1025 1.409 1_565 S
C1023 H1015 0.930 . S
C1023 C1024 1.355 . S
C1023 C1025 1.415 . S
C1024 C1023 1.355 . S
C1024 C1026 1.419 . S
C1025 C1020 1.425 1_545 S
C1025 C1022 1.409 1_545 S
C1025 C1023 1.415 . S
C1026 H1016 0.930 . S
C1026 C1024 1.419 . S
C1026 C1027 1.362 . S
C1027 H1017 0.930 . S
C1027 C1020 1.409 1_545 S
C1027 C1026 1.362 . S
H1028 C1034 0.930 . S
H1029 C1037 0.930 . S
H1030 C1038 0.930 . S
H1031 C1039 0.930 . S
H1032 C1042 0.930 . S
H1033 C1043 0.930 . S
C1034 H1028 0.930 . S
C1034 C1035 1.355 . S
C1034 C1036 1.415 . S
C1035 C1034 1.355 . S
C1035 C1037 1.419 . S
C1036 C1034 1.415 . S
C1036 C1041 1.425 1_655 S
C1036 C1043 1.409 1_655 S
C1037 H1029 0.930 . S
C1037 C1035 1.419 . S
C1037 C1038 1.362 . S
C1038 H1030 0.930 . S
C1038 C1037 1.362 . S
C1038 C1041 1.409 1_655 S
C1039 H1031 0.930 . S
C1039 C1040 1.355 . S
C1039 C1041 1.415 . S
C1040 C1039 1.355 . S
C1040 C1042 1.419 . S
C1041 C1036 1.425 1_455 S
C1041 C1038 1.409 1_455 S
C1041 C1039 1.415 . S
C1042 H1032 0.930 . S
C1042 C1040 1.419 . S
C1042 C1043 1.362 . S
C1043 H1033 0.930 . S
C1043 C1036 1.409 1_455 S
C1043 C1042 1.362 . S
H1044 C1050 0.930 . S
H1045 C1053 0.930 . S
H1046 C1054 0.930 . S
H1047 C1055 0.930 . S
H1048 C1058 0.930 . S
H1049 C1059 0.930 . S
C1050 H1044 0.930 . S
C1050 C1051 1.355 . S
C1050 C1052 1.415 . S
C1051 C1050 1.355 . S
C1051 C1053 1.419 . S
C1052 C1050 1.415 . S
C1052 C1057 1.425 . S
C1052 C1059 1.409 . S
C1053 H1045 0.930 . S
C1053 C1051 1.419 . S
C1053 C1054 1.362 . S
C1054 H1046 0.930 . S
C1054 C1053 1.362 . S
C1054 C1057 1.409 . S
C1055 H1047 0.930 . S
C1055 C1056 1.355 . S
C1055 C1057 1.415 . S
C1056 C1055 1.355 . S
C1056 C1058 1.419 . S
C1057 C1052 1.425 . S
C1057 C1054 1.409 . S
C1057 C1055 1.415 . S
C1058 H1048 0.930 . S
C1058 C1056 1.419 . S
C1058 C1059 1.362 . S
C1059 H1049 0.930 . S
C1059 C1052 1.409 . S
C1059 C1058 1.362 . S
H1060 C1066 0.930 . S
H1061 C1069 0.930 . S
H1062 C1070 0.930 . S
H1063 C1071 0.930 . S
H1064 C1074 0.930 . S
H1065 C1075 0.930 . S
C1066 H1060 0.930 . S
C1066 C1067 1.355 . S
C1066 C1068 1.415 1_545 S
C1067 C1066 1.355 . S
C1067 C1069 1.419 . S
C1068 C1066 1.415 1_565 S
C1068 C1073 1.425 . S
C1068 C1075 1.409 . S
C1069 H1061 0.930 . S
C1069 C1067 1.419 . S
C1069 C1070 1.362 . S
C1070 H1062 0.930 . S
C1070 C1069 1.362 . S
C1070 C1073 1.409 1_545 S
C1071 H1063 0.930 . S
C1071 C1072 1.355 . S
C1071 C1073 1.415 . S
C1072 C1071 1.355 . S
C1072 C1074 1.419 . S
C1073 C1068 1.425 . S
C1073 C1070 1.409 1_565 S
C1073 C1071 1.415 . S
C1074 H1064 0.930 . S
C1074 C1072 1.419 . S
C1074 C1075 1.362 . S
C1075 H1065 0.930 . S
C1075 C1068 1.409 . S
C1075 C1074 1.362 . S
H1076 C1082 0.930 . S
H1077 C1085 0.930 . S
H1078 C1086 0.930 . S
H1079 C1087 0.930 . S
H1080 C1090 0.930 . S
H1081 C1091 0.930 . S
C1082 H1076 0.930 . S
C1082 C1083 1.355 . S
C1082 C1084 1.415 1_655 S
C1083 C1082 1.355 . S
C1083 C1085 1.419 . S
C1084 C1082 1.415 1_455 S
C1084 C1089 1.425 . S
C1084 C1091 1.409 . S
C1085 H1077 0.930 . S
C1085 C1083 1.419 . S
C1085 C1086 1.362 . S
C1086 H1078 0.930 . S
C1086 C1085 1.362 . S
C1086 C1089 1.409 1_655 S
C1087 H1079 0.930 . S
C1087 C1088 1.355 . S
C1087 C1089 1.415 . S
C1088 C1087 1.355 . S
C1088 C1090 1.419 . S
C1089 C1084 1.425 . S
C1089 C1086 1.409 1_455 S
C1089 C1087 1.415 . S
C1090 H1080 0.930 . S
C1090 C1088 1.419 . S
C1090 C1091 1.362 . S
C1091 H1081 0.930 . S
C1091 C1084 1.409 . S
C1091 C1090 1.362 . S
H1092 C1098 0.930 . S
H1093 C1101 0.930 . S
H1094 C1102 0.930 . S
H1095 C1103 0.930 . S
H1096 C1106 0.930 . S
H1097 C1107 0.930 . S
C1098 H1092 0.930 . S
C1098 C1099 1.355 . S
C1098 C1100 1.415 . S
C1099 C1098 1.355 . S
C1099 C1101 1.419 . S
C1100 C1098 1.415 . S
C1100 C1105 1.425 . S
C1100 C1107 1.409 . S
C1101 H1093 0.930 . S
C1101 C1099 1.419 . S
C1101 C1102 1.362 . S
C1102 H1094 0.930 . S
C1102 C1101 1.362 . S
C1102 C1105 1.409 . S
C1103 H1095 0.930 . S
C1103 C1104 1.355 . S
C1103 C1105 1.415 . S
C1104 C1103 1.355 . S
C1104 C1106 1.419 . S
C1105 C1100 1.425 . S
C1105 C1102 1.409 . S
C1105 C1103 1.415 . S
C1106 H1096 0.930 . S
C1106 C1104 1.419 . S
C1106 C1107 1.362 . S
C1107 H1097 0.930 . S
C1107 C1100 1.409 . S
C1107 C1106 1.362 . S
H1108 C1114 0.930 . S
H1109 C1117 0.930 . S
H1110 C1118 0.930 . S
H1111 C1119 0.930 . S
H1112 C1122 0.930 . S
H1113 C1123 0.930 . S
C1114 H1108 0.930 . S
C1114 C1115 1.355 . S
C1114 C1116 1.415 . S
C1115 C1114 1.355 . S
C1115 C1117 1.419 . S
C1116 C1114 1.415 . S
C1116 C1121 1.425 . S
C1116 C1123 1.409 1_545 S
C1117 H1109 0.930 . S
C1117 C1115 1.419 . S
C1117 C1118 1.362 . S
C1118 H1110 0.930 . S
C1118 C1117 1.362 . S
C1118 C1121 1.409 . S
C1119 H1111 0.930 . S
C1119 C1120 1.355 . S
C1119 C1121 1.415 1_565 S
C1120 C1119 1.355 . S
C1120 C1122 1.419 . S
C1121 C1116 1.425 . S
C1121 C1118 1.409 . S
C1121 C1119 1.415 1_545 S
C1122 H1112 0.930 . S
C1122 C1120 1.419 . S
C1122 C1123 1.362 . S
C1123 H1113 0.930 . S
C1123 C1116 1.409 1_565 S
C1123 C1122 1.362 . S
H1124 C1130 0.930 . S
H1125 C1133 0.930 . S
H1126 C1134 0.930 . S
H1127 C1135 0.930 . S
H1128 C1138 0.930 . S
H1129 C1139 0.930 . S
C1130 H1124 0.930 . S
C1130 C1131 1.355 . S
C1130 C1132 1.415 1_455 S
C1131 C1130 1.355 . S
C1131 C1133 1.419 . S
C1132 C1130 1.415 1_655 S
C1132 C1137 1.425 . S
C1132 C1139 1.409 . S
C1133 H1125 0.930 . S
C1133 C1131 1.419 . S
C1133 C1134 1.362 1_455 S
C1134 H1126 0.930 . S
C1134 C1133 1.362 1_655 S
C1134 C1137 1.409 . S
C1135 H1127 0.930 . S
C1135 C1136 1.355 . S
C1135 C1137 1.415 . S
C1136 C1135 1.355 . S
C1136 C1138 1.419 . S
C1137 C1132 1.425 . S
C1137 C1134 1.409 . S
C1137 C1135 1.415 . S
C1138 H1128 0.930 . S
C1138 C1136 1.419 . S
C1138 C1139 1.362 . S
C1139 H1129 0.930 . S
C1139 C1132 1.409 . S
C1139 C1138 1.362 . S
H1140 C1146 0.930 . S
H1141 C1149 0.930 . S
H1142 C1150 0.930 . S
H1143 C1151 0.930 . S
H1144 C1154 0.930 . S
H1145 C1155 0.930 . S
C1146 H1140 0.930 . S
C1146 C1147 1.355 . S
C1146 C1148 1.415 . S
C1147 C1146 1.355 . S
C1147 C1149 1.419 . S
C1148 C1146 1.415 . S
C1148 C1153 1.425 . S
C1148 C1155 1.409 . S
C1149 H1141 0.930 . S
C1149 C1147 1.419 . S
C1149 C1150 1.362 . S
C1150 H1142 0.930 . S
C1150 C1149 1.362 . S
C1150 C1153 1.409 . S
C1151 H1143 0.930 . S
C1151 C1152 1.355 . S
C1151 C1153 1.415 . S
C1152 C1151 1.355 . S
C1152 C1154 1.419 . S
C1153 C1148 1.425 . S
C1153 C1150 1.409 . S
C1153 C1151 1.415 . S
C1154 H1144 0.930 . S
C1154 C1152 1.419 . S
C1154 C1155 1.362 . S
C1155 H1145 0.930 . S
C1155 C1148 1.409 . S
C1155 C1154 1.362 . S
H1156 C1162 0.930 . S
H1157 C1165 0.930 . S
H1158 C1166 0.930 . S
H1159 C1167 0.930 . S
H1160 C1170 0.930 . S
H1161 C1171 0.930 . S
C1162 H1156 0.930 . S
C1162 C1163 1.355 . S
C1162 C1164 1.415 1_565 S
C1163 C1162 1.355 . S
C1163 C1165 1.419 . S
C1164 C1162 1.415 1_545 S
C1164 C1169 1.425 . S
C1164 C1171 1.409 . S
C1165 H1157 0.930 . S
C1165 C1163 1.419 . S
C1165 C1166 1.362 1_565 S
C1166 H1158 0.930 . S
C1166 C1165 1.362 1_545 S
C1166 C1169 1.409 . S
C1167 H1159 0.930 . S
C1167 C1168 1.355 . S
C1167 C1169 1.415 . S
C1168 C1167 1.355 . S
C1168 C1170 1.419 . S
C1169 C1164 1.425 . S
C1169 C1166 1.409 . S
C1169 C1167 1.415 . S
C1170 H1160 0.930 . S
C1170 C1168 1.419 . S
C1170 C1171 1.362 . S
C1171 H1161 0.930 . S
C1171 C1164 1.409 . S
C1171 C1170 1.362 . S
H1172 C1178 0.930 . S
H1173 C1181 0.930 . S
H1174 C1182 0.930 . S
H1175 C1183 0.930 . S
H1176 C1186 0.929 1_565 S
H1177 C1187 0.930 . S
C1178 H1172 0.930 . S
C1178 C1179 1.355 . S
C1178 C1180 1.415 1_455 S
C1179 C1178 1.355 . S
C1179 C1181 1.419 . S
C1180 C1178 1.415 1_655 S
C1180 C1185 1.425 . S
C1180 C1187 1.409 . S
C1181 H1173 0.930 . S
C1181 C1179 1.419 . S
C1181 C1182 1.362 1_455 S
C1182 H1174 0.930 . S
C1182 C1181 1.362 1_655 S
C1182 C1185 1.409 . S
C1183 H1175 0.930 . S
C1183 C1184 1.355 . S
C1183 C1185 1.415 . S
C1184 C1183 1.355 . S
C1184 C1186 1.419 . S
C1185 C1180 1.425 . S
C1185 C1182 1.409 . S
C1185 C1183 1.415 . S
C1186 H1176 0.929 1_545 S
C1186 C1184 1.419 . S
C1186 C1187 1.362 . S
C1187 H1177 0.930 . S
C1187 C1180 1.409 . S
C1187 C1186 1.362 . S
H1188 C1194 0.930 . S
H1189 C1197 0.930 . S
H1190 C1198 0.930 . S
H1191 C1199 0.930 . S
H1192 C1202 0.930 . S
H1193 C1203 0.930 . S
C1194 H1188 0.930 . S
C1194 C1195 1.355 . S
C1194 C1196 1.415 . S
C1195 C1194 1.355 . S
C1195 C1197 1.419 . S
C1196 C1194 1.415 . S
C1196 C1201 1.425 . S
C1196 C1203 1.409 . S
C1197 H1189 0.930 . S
C1197 C1195 1.419 . S
C1197 C1198 1.362 . S
C1198 H1190 0.930 . S
C1198 C1197 1.362 . S
C1198 C1201 1.409 . S
C1199 H1191 0.930 . S
C1199 C1200 1.355 . S
C1199 C1201 1.415 . S
C1200 C1199 1.355 . S
C1200 C1202 1.419 . S
C1201 C1196 1.425 . S
C1201 C1198 1.409 . S
C1201 C1199 1.415 . S
C1202 H1192 0.930 . S
C1202 C1200 1.419 . S
C1202 C1203 1.362 . S
C1203 H1193 0.930 . S
C1203 C1196 1.409 . S
C1203 C1202 1.362 . S
H1204 C1210 0.930 . S
H1205 C1213 0.930 . S
H1206 C1214 0.930 . S
H1207 C1215 0.930 . S
H1208 C1218 0.930 . S
H1209 C1219 0.930 . S
C1210 H1204 0.930 . S
C1210 C1211 1.355 . S
C1210 C1212 1.415 1_545 S
C1211 C1210 1.355 . S
C1211 C1213 1.419 . S
C1212 C1210 1.415 1_565 S
C1212 C1217 1.425 . S
C1212 C1219 1.409 . S
C1213 H1205 0.930 . S
C1213 C1211 1.419 . S
C1213 C1214 1.362 1_545 S
C1214 H1206 0.930 . S
C1214 C1213 1.362 1_565 S
C1214 C1217 1.409 . S
C1215 H1207 0.930 . S
C1215 C1216 1.355 . S
C1215 C1217 1.415 . S
C1216 C1215 1.355 . S
C1216 C1218 1.419 . S
C1217 C1212 1.425 . S
C1217 C1214 1.409 . S
C1217 C1215 1.415 . S
C1218 H1208 0.930 . S
C1218 C1216 1.419 . S
C1218 C1219 1.362 . S
C1219 H1209 0.930 . S
C1219 C1212 1.409 . S
C1219 C1218 1.362 . S
H1220 C1226 0.930 . S
H1221 C1229 0.930 . S
H1222 C1230 0.930 . S
H1223 C1231 0.930 . S
H1224 C1234 0.930 . S
H1225 C1235 0.930 . S
C1226 H1220 0.930 . S
C1226 C1227 1.355 . S
C1226 C1228 1.415 . S
C1227 C1226 1.355 . S
C1227 C1229 1.419 . S
C1228 C1226 1.415 . S
C1228 C1233 1.425 . S
C1228 C1235 1.409 . S
C1229 H1221 0.930 . S
C1229 C1227 1.419 . S
C1229 C1230 1.362 . S
C1230 H1222 0.930 . S
C1230 C1229 1.362 . S
C1230 C1233 1.409 . S
C1231 H1223 0.930 . S
C1231 C1232 1.355 . S
C1231 C1233 1.415 1_655 S
C1232 C1231 1.355 . S
C1232 C1234 1.419 . S
C1233 C1228 1.425 . S
C1233 C1230 1.409 . S
C1233 C1231 1.415 1_455 S
C1234 H1224 0.930 . S
C1234 C1232 1.419 . S
C1234 C1235 1.362 1_655 S
C1235 H1225 0.930 . S
C1235 C1228 1.409 . S
C1235 C1234 1.362 1_455 S
H1236 C1242 0.930 . S
H1237 C1245 0.930 . S
H1238 C1246 0.930 . S
H1239 C1247 0.930 . S
H1240 C1250 0.930 . S
H1241 C1251 0.930 . S
C1242 H1236 0.930 . S
C1242 C1243 1.355 . S
C1242 C1244 1.415 . S
C1243 C1242 1.355 . S
C1243 C1245 1.419 . S
C1244 C1242 1.415 . S
C1244 C1249 1.425 . S
C1244 C1251 1.409 . S
C1245 H1237 0.930 . S
C1245 C1243 1.419 . S
C1245 C1246 1.362 . S
C1246 H1238 0.930 . S
C1246 C1245 1.362 . S
C1246 C1249 1.409 . S
C1247 H1239 0.930 . S
C1247 C1248 1.355 . S
C1247 C1249 1.415 . S
C1248 C1247 1.355 . S
C1248 C1250 1.419 . S
C1249 C1244 1.425 . S
C1249 C1246 1.409 . S
C1249 C1247 1.415 . S
C1250 H1240 0.930 . S
C1250 C1248 1.419 . S
C1250 C1251 1.362 . S
C1251 H1241 0.930 . S
C1251 C1244 1.409 . S
C1251 C1250 1.362 . S
H1252 C1258 0.930 . S
H1253 C1261 0.930 . S
H1254 C1262 0.930 . S
H1255 C1263 0.930 . S
H1256 C1266 0.930 . S
H1257 C1267 0.930 . S
C1258 H1252 0.930 . S
C1258 C1259 1.355 . S
C1258 C1260 1.415 . S
C1259 C1258 1.355 . S
C1259 C1261 1.419 . S
C1260 C1258 1.415 . S
C1260 C1265 1.425 . S
C1260 C1267 1.409 . S
C1261 H1253 0.930 . S
C1261 C1259 1.419 . S
C1261 C1262 1.362 . S
C1262 H1254 0.930 . S
C1262 C1261 1.362 . S
C1262 C1265 1.409 . S
C1263 H1255 0.930 . S
C1263 C1264 1.355 . S
C1263 C1265 1.415 . S
C1264 C1263 1.355 . S
C1264 C1266 1.419 . S
C1265 C1260 1.425 . S
C1265 C1262 1.409 . S
C1265 C1263 1.415 . S
C1266 H1256 0.930 . S
C1266 C1264 1.419 . S
C1266 C1267 1.362 . S
C1267 H1257 0.930 . S
C1267 C1260 1.409 . S
C1267 C1266 1.362 . S
H1268 C1274 0.930 . S
H1269 C1277 0.930 . S
H1270 C1278 0.930 . S
H1271 C1279 0.930 . S
H1272 C1282 0.930 . S
H1273 C1283 0.930 . S
C1274 H1268 0.930 . S
C1274 C1275 1.355 . S
C1274 C1276 1.415 . S
C1275 C1274 1.355 . S
C1275 C1277 1.419 . S
C1276 C1274 1.415 . S
C1276 C1281 1.425 . S
C1276 C1283 1.409 . S
C1277 H1269 0.930 . S
C1277 C1275 1.419 . S
C1277 C1278 1.362 . S
C1278 H1270 0.930 . S
C1278 C1277 1.362 . S
C1278 C1281 1.409 . S
C1279 H1271 0.930 . S
C1279 C1280 1.355 . S
C1279 C1281 1.415 . S
C1280 C1279 1.355 . S
C1280 C1282 1.419 . S
C1281 C1276 1.425 . S
C1281 C1278 1.409 . S
C1281 C1279 1.415 . S
C1282 H1272 0.930 . S
C1282 C1280 1.419 . S
C1282 C1283 1.362 . S
C1283 H1273 0.930 . S
C1283 C1276 1.409 . S
C1283 C1282 1.362 . S
H1284 C1290 0.930 . S
H1285 C1293 0.930 . S
H1286 C1294 0.930 . S
H1287 C1295 0.930 . S
H1288 C1298 0.930 . S
H1289 C1299 0.930 . S
C1290 H1284 0.930 . S
C1290 C1291 1.355 . S
C1290 C1292 1.415 . S
C1291 C1290 1.355 . S
C1291 C1293 1.419 . S
C1292 C1290 1.415 . S
C1292 C1297 1.425 . S
C1292 C1299 1.409 . S
C1293 H1285 0.930 . S
C1293 C1291 1.419 . S
C1293 C1294 1.362 . S
C1294 H1286 0.930 . S
C1294 C1293 1.362 . S
C1294 C1297 1.409 . S
C1295 H1287 0.930 . S
C1295 C1296 1.355 . S
C1295 C1297 1.415 . S
C1296 C1295 1.355 . S
C1296 C1298 1.419 . S
C1297 C1292 1.425 . S
C1297 C1294 1.409 . S
C1297 C1295 1.415 . S
C1298 H1288 0.930 . S
C1298 C1296 1.419 . S
C1298 C1299 1.362 . S
C1299 H1289 0.930 . S
C1299 C1292 1.409 . S
C1299 C1298 1.362 . S
H1300 C1306 0.930 . S
H1301 C1309 0.930 . S
H1302 C1310 0.930 . S
H1303 C1311 0.930 . S
H1304 C1314 0.930 . S
H1305 C1315 0.930 . S
C1306 H1300 0.930 . S
C1306 C1307 1.355 . S
C1306 C1308 1.415 . S
C1307 C1306 1.355 . S
C1307 C1309 1.419 . S
C1308 C1306 1.415 . S
C1308 C1313 1.425 . S
C1308 C1315 1.409 . S
C1309 H1301 0.930 . S
C1309 C1307 1.419 . S
C1309 C1310 1.362 . S
C1310 H1302 0.930 . S
C1310 C1309 1.362 . S
C1310 C1313 1.409 . S
C1311 H1303 0.930 . S
C1311 C1312 1.355 . S
C1311 C1313 1.415 . S
C1312 C1311 1.355 . S
C1312 C1314 1.419 . S
C1313 C1308 1.425 . S
C1313 C1310 1.409 . S
C1313 C1311 1.415 . S
C1314 H1304 0.930 . S
C1314 C1312 1.419 . S
C1314 C1315 1.362 . S
C1315 H1305 0.930 . S
C1315 C1308 1.409 . S
C1315 C1314 1.362 . S
H1316 C1322 0.930 . S
H1317 C1325 0.930 . S
H1318 C1326 0.930 . S
H1319 C1327 0.930 . S
H1320 C1330 0.930 . S
H1321 C1331 0.930 . S
C1322 H1316 0.930 . S
C1322 C1323 1.355 . S
C1322 C1324 1.415 . S
C1323 C1322 1.355 . S
C1323 C1325 1.419 . S
C1324 C1322 1.415 . S
C1324 C1329 1.425 . S
C1324 C1331 1.409 . S
C1325 H1317 0.930 . S
C1325 C1323 1.419 . S
C1325 C1326 1.362 . S
C1326 H1318 0.930 . S
C1326 C1325 1.362 . S
C1326 C1329 1.409 . S
C1327 H1319 0.930 . S
C1327 C1328 1.355 . S
C1327 C1329 1.415 . S
C1328 C1327 1.355 . S
C1328 C1330 1.419 . S
C1329 C1324 1.425 . S
C1329 C1326 1.409 . S
C1329 C1327 1.415 . S
C1330 H1320 0.930 . S
C1330 C1328 1.419 . S
C1330 C1331 1.362 . S
C1331 H1321 0.930 . S
C1331 C1324 1.409 . S
C1331 C1330 1.362 . S
H1332 C1338 0.930 . S
H1333 C1341 0.930 . S
H1334 C1342 0.930 . S
H1335 C1343 0.930 . S
H1336 C1346 0.930 . S
H1337 C1347 0.930 . S
C1338 H1332 0.930 . S
C1338 C1339 1.355 . S
C1338 C1340 1.415 . S
C1339 C1338 1.355 . S
C1339 C1341 1.419 . S
C1340 C1338 1.415 . S
C1340 C1345 1.425 . S
C1340 C1347 1.409 . S
C1341 H1333 0.930 . S
C1341 C1339 1.419 . S
C1341 C1342 1.362 . S
C1342 H1334 0.930 . S
C1342 C1341 1.362 . S
C1342 C1345 1.409 . S
C1343 H1335 0.930 . S
C1343 C1344 1.355 . S
C1343 C1345 1.415 . S
C1344 C1343 1.355 . S
C1344 C1346 1.419 . S
C1345 C1340 1.425 . S
C1345 C1342 1.409 . S
C1345 C1343 1.415 . S
C1346 H1336 0.930 . S
C1346 C1344 1.419 . S
C1346 C1347 1.362 . S
C1347 H1337 0.930 . S
C1347 C1340 1.409 . S
C1347 C1346 1.362 . S
H1348 C1354 0.930 . S
H1349 C1357 0.930 . S
H1350 C1358 0.930 . S
H1351 C1359 0.930 . S
H1352 C1362 0.930 . S
H1353 C1363 0.930 . S
C1354 H1348 0.930 . S
C1354 C1355 1.355 . S
C1354 C1356 1.415 . S
C1355 C1354 1.355 . S
C1355 C1357 1.419 . S
C1356 C1354 1.415 . S
C1356 C1361 1.425 . S
C1356 C1363 1.409 . S
C1357 H1349 0.930 . S
C1357 C1355 1.419 . S
C1357 C1358 1.362 . S
C1358 H1350 0.930 . S
C1358 C1357 1.362 . S
C1358 C1361 1.409 . S
C1359 H1351 0.930 . S
C1359 C1360 1.355 . S
C1359 C1361 1.415 . S
C1360 C1359 1.355 . S
C1360 C1362 1.419 . S
C1361 C1356 1.425 . S
C1361 C1358 1.409 . S
C1361 C1359 1.415 . S
C1362 H1352 0.930 . S
C1362 C1360 1.419 . S
C1362 C1363 1.362 . S
C1363 H1353 0.930 . S
C1363 C1356 1.409 . S
C1363 C1362 1.362 . S
H1364 C1370 0.930 . S
H1365 C1373 0.930 . S
H1366 C1374 0.930 . S
H1367 C1375 0.930 . S
H1368 C1378 0.930 . S
H1369 C1379 0.930 . S
C1370 H1364 0.930 . S
C1370 C1371 1.355 . S
C1370 C1372 1.415 . S
C1371 C1370 1.355 . S
C1371 C1373 1.419 . S
C1372 C1370 1.415 . S
C1372 C1377 1.425 . S
C1372 C1379 1.409 . S
C1373 H1365 0.930 . S
C1373 C1371 1.419 . S
C1373 C1374 1.362 . S
C1374 H1366 0.930 . S
C1374 C1373 1.362 . S
C1374 C1377 1.409 . S
C1375 H1367 0.930 . S
C1375 C1376 1.355 . S
C1375 C1377 1.415 . S
C1376 C1375 1.355 . S
C1376 C1378 1.419 . S
C1377 C1372 1.425 . S
C1377 C1374 1.409 . S
C1377 C1375 1.415 . S
C1378 H1368 0.930 . S
C1378 C1376 1.419 . S
C1378 C1379 1.362 . S
C1379 H1369 0.930 . S
C1379 C1372 1.409 . S
C1379 C1378 1.362 . S
H1380 C1386 0.930 . S
H1381 C1389 0.930 . S
H1382 C1390 0.930 . S
H1383 C1391 0.930 . S
H1384 C1394 0.930 . S
H1385 C1395 0.930 . S
C1386 H1380 0.930 . S
C1386 C1387 1.355 . S
C1386 C1388 1.415 . S
C1387 C1386 1.355 . S
C1387 C1389 1.419 . S
C1388 C1386 1.415 . S
C1388 C1393 1.425 . S
C1388 C1395 1.409 . S
C1389 H1381 0.930 . S
C1389 C1387 1.419 . S
C1389 C1390 1.362 . S
C1390 H1382 0.930 . S
C1390 C1389 1.362 . S
C1390 C1393 1.409 . S
C1391 H1383 0.930 . S
C1391 C1392 1.355 . S
C1391 C1393 1.415 . S
C1392 C1391 1.355 . S
C1392 C1394 1.419 . S
C1393 C1388 1.425 . S
C1393 C1390 1.409 . S
C1393 C1391 1.415 . S
C1394 H1384 0.930 . S
C1394 C1392 1.419 . S
C1394 C1395 1.362 . S
C1395 H1385 0.930 . S
C1395 C1388 1.409 . S
C1395 C1394 1.362 . S
H1396 C1402 0.930 . S
H1397 C1405 0.930 . S
H1398 C1406 0.930 . S
H1399 C1407 0.930 . S
H1400 C1410 0.930 . S
H1401 C1411 0.930 . S
C1402 H1396 0.930 . S
C1402 C1403 1.355 . S
C1402 C1404 1.415 . S
C1403 C1402 1.355 . S
C1403 C1405 1.419 . S
C1404 C1402 1.415 . S
C1404 C1409 1.425 . S
C1404 C1411 1.409 . S
C1405 H1397 0.930 . S
C1405 C1403 1.419 . S
C1405 C1406 1.362 . S
C1406 H1398 0.930 . S
C1406 C1405 1.362 . S
C1406 C1409 1.409 . S
C1407 H1399 0.930 . S
C1407 C1408 1.355 . S
C1407 C1409 1.415 . S
C1408 C1407 1.355 . S
C1408 C1410 1.419 . S
C1409 C1404 1.425 . S
C1409 C1406 1.409 . S
C1409 C1407 1.415 . S
C1410 H1400 0.930 . S
C1410 C1408 1.419 . S
C1410 C1411 1.362 . S
C1411 H1401 0.930 . S
C1411 C1404 1.409 . S
C1411 C1410 1.362 . S
H1412 C1418 0.930 . S
H1413 C1421 0.930 . S
H1414 C1422 0.930 . S
H1415 C1423 0.930 . S
H1416 C1426 0.930 . S
H1417 C1427 0.930 . S
C1418 H1412 0.930 . S
C1418 C1419 1.355 . S
C1418 C1420 1.415 . S
C1419 C1418 1.355 . S
C1419 C1421 1.419 . S
C1420 C1418 1.415 . S
C1420 C1425 1.425 . S
C1420 C1427 1.409 . S
C1421 H1413 0.930 . S
C1421 C1419 1.419 . S
C1421 C1422 1.362 . S
C1422 H1414 0.930 . S
C1422 C1421 1.362 . S
C1422 C1425 1.409 . S
C1423 H1415 0.930 . S
C1423 C1424 1.355 . S
C1423 C1425 1.415 . S
C1424 C1423 1.355 . S
C1424 C1426 1.419 . S
C1425 C1420 1.425 . S
C1425 C1422 1.409 . S
C1425 C1423 1.415 . S
C1426 H1416 0.930 . S
C1426 C1424 1.419 . S
C1426 C1427 1.362 . S
C1427 H1417 0.930 . S
C1427 C1420 1.409 . S
C1427 C1426 1.362 . S
H1428 C1434 0.930 . S
H1429 C1437 0.930 . S
H1430 C1438 0.930 . S
H1431 C1439 0.930 . S
H1432 C1442 0.930 . S
H1433 C1443 0.930 . S
C1434 H1428 0.930 . S
C1434 C1435 1.355 . S
C1434 C1436 1.415 . S
C1435 C1434 1.355 . S
C1435 C1437 1.419 . S
C1436 C1434 1.415 . S
C1436 C1441 1.425 . S
C1436 C1443 1.409 . S
C1437 H1429 0.930 . S
C1437 C1435 1.419 . S
C1437 C1438 1.362 . S
C1438 H1430 0.930 . S
C1438 C1437 1.362 . S
C1438 C1441 1.409 . S
C1439 H1431 0.930 . S
C1439 C1440 1.355 . S
C1439 C1441 1.415 . S
C1440 C1439 1.355 . S
C1440 C1442 1.419 . S
C1441 C1436 1.425 . S
C1441 C1438 1.409 . S
C1441 C1439 1.415 . S
C1442 H1432 0.930 . S
C1442 C1440 1.419 . S
C1442 C1443 1.362 . S
C1443 H1433 0.930 . S
C1443 C1436 1.409 . S
C1443 C1442 1.362 . S
H1444 C1450 0.930 . S
H1445 C1453 0.930 . S
H1446 C1454 0.930 . S
H1447 C1455 0.930 . S
H1448 C1458 0.930 . S
H1449 C1459 0.930 . S
C1450 H1444 0.930 . S
C1450 C1451 1.355 . S
C1450 C1452 1.415 . S
C1451 C1450 1.355 . S
C1451 C1453 1.419 . S
C1452 C1450 1.415 . S
C1452 C1457 1.425 . S
C1452 C1459 1.409 . S
C1453 H1445 0.930 . S
C1453 C1451 1.419 . S
C1453 C1454 1.362 . S
C1454 H1446 0.930 . S
C1454 C1453 1.362 . S
C1454 C1457 1.409 . S
C1455 H1447 0.930 . S
C1455 C1456 1.355 . S
C1455 C1457 1.415 . S
C1456 C1455 1.355 . S
C1456 C1458 1.419 . S
C1457 C1452 1.425 . S
C1457 C1454 1.409 . S
C1457 C1455 1.415 . S
C1458 H1448 0.930 . S
C1458 C1456 1.419 . S
C1458 C1459 1.362 . S
C1459 H1449 0.930 . S
C1459 C1452 1.409 . S
C1459 C1458 1.362 . S
H1460 C1466 0.930 . S
H1461 C1469 0.930 . S
H1462 C1470 0.930 . S
H1463 C1471 0.930 . S
H1464 C1474 0.930 . S
H1465 C1475 0.930 . S
C1466 H1460 0.930 . S
C1466 C1467 1.355 . S
C1466 C1468 1.415 . S
C1467 C1466 1.355 . S
C1467 C1469 1.419 . S
C1468 C1466 1.415 . S
C1468 C1473 1.425 . S
C1468 C1475 1.409 . S
C1469 H1461 0.930 . S
C1469 C1467 1.419 . S
C1469 C1470 1.362 . S
C1470 H1462 0.930 . S
C1470 C1469 1.362 . S
C1470 C1473 1.409 . S
C1471 H1463 0.930 . S
C1471 C1472 1.355 . S
C1471 C1473 1.415 . S
C1472 C1471 1.355 . S
C1472 C1474 1.419 . S
C1473 C1468 1.425 . S
C1473 C1470 1.409 . S
C1473 C1471 1.415 . S
C1474 H1464 0.930 . S
C1474 C1472 1.419 . S
C1474 C1475 1.362 . S
C1475 H1465 0.930 . S
C1475 C1468 1.409 . S
C1475 C1474 1.362 . S
H1476 C1482 0.930 . S
H1477 C1485 0.930 . S
H1478 C1486 0.930 . S
H1479 C1487 0.930 . S
H1480 C1490 0.930 . S
H1481 C1491 0.930 . S
C1482 H1476 0.930 . S
C1482 C1483 1.355 . S
C1482 C1484 1.415 . S
C1483 C1482 1.355 . S
C1483 C1485 1.419 . S
C1484 C1482 1.415 . S
C1484 C1489 1.425 . S
C1484 C1491 1.409 . S
C1485 H1477 0.930 . S
C1485 C1483 1.419 . S
C1485 C1486 1.362 . S
C1486 H1478 0.930 . S
C1486 C1485 1.362 . S
C1486 C1489 1.409 . S
C1487 H1479 0.930 . S
C1487 C1488 1.355 . S
C1487 C1489 1.415 . S
C1488 C1487 1.355 . S
C1488 C1490 1.419 . S
C1489 C1484 1.425 . S
C1489 C1486 1.409 . S
C1489 C1487 1.415 . S
C1490 H1480 0.930 . S
C1490 C1488 1.419 . S
C1490 C1491 1.362 . S
C1491 H1481 0.930 . S
C1491 C1484 1.409 . S
C1491 C1490 1.362 . S
H1492 C1498 0.930 . S
H1493 C1501 0.930 . S
H1494 C1502 0.930 . S
H1495 C1503 0.930 . S
H1496 C1506 0.930 . S
H1497 C1507 0.930 . S
C1498 H1492 0.930 . S
C1498 C1499 1.355 . S
C1498 C1500 1.415 . S
C1499 C1498 1.355 . S
C1499 C1501 1.419 . S
C1500 C1498 1.415 . S
C1500 C1505 1.425 . S
C1500 C1507 1.409 . S
C1501 H1493 0.930 . S
C1501 C1499 1.419 . S
C1501 C1502 1.362 . S
C1502 H1494 0.930 . S
C1502 C1501 1.362 . S
C1502 C1505 1.409 . S
C1503 H1495 0.930 . S
C1503 C1504 1.355 . S
C1503 C1505 1.415 . S
C1504 C1503 1.355 . S
C1504 C1506 1.419 . S
C1505 C1500 1.425 . S
C1505 C1502 1.409 . S
C1505 C1503 1.415 . S
C1506 H1496 0.930 . S
C1506 C1504 1.419 . S
C1506 C1507 1.362 . S
C1507 H1497 0.930 . S
C1507 C1500 1.409 . S
C1507 C1506 1.362 . S
H1508 C1514 0.930 . S
H1509 C1517 0.930 . S
H1510 C1518 0.930 . S
H1511 C1519 0.930 . S
H1512 C1522 0.930 . S
H1513 C1523 0.930 . S
C1514 H1508 0.930 . S
C1514 C1515 1.355 . S
C1514 C1516 1.415 . S
C1515 C1514 1.355 . S
C1515 C1517 1.419 . S
C1516 C1514 1.415 . S
C1516 C1521 1.425 . S
C1516 C1523 1.409 . S
C1517 H1509 0.930 . S
C1517 C1515 1.419 . S
C1517 C1518 1.362 . S
C1518 H1510 0.930 . S
C1518 C1517 1.362 . S
C1518 C1521 1.409 . S
C1519 H1511 0.930 . S
C1519 C1520 1.355 . S
C1519 C1521 1.415 . S
C1520 C1519 1.355 . S
C1520 C1522 1.419 . S
C1521 C1516 1.425 . S
C1521 C1518 1.409 . S
C1521 C1519 1.415 . S
C1522 H1512 0.930 . S
C1522 C1520 1.419 . S
C1522 C1523 1.362 . S
C1523 H1513 0.930 . S
C1523 C1516 1.409 . S
C1523 C1522 1.362 . S
H1524 C1530 0.930 . S
H1525 C1533 0.930 . S
H1526 C1534 0.930 . S
H1527 C1535 0.930 . S
H1528 C1538 0.930 . S
H1529 C1539 0.930 . S
C1530 H1524 0.930 . S
C1530 C1531 1.355 . S
C1530 C1532 1.415 . S
C1531 C1530 1.355 . S
C1531 C1533 1.419 . S
C1532 C1530 1.415 . S
C1532 C1537 1.425 . S
C1532 C1539 1.409 . S
C1533 H1525 0.930 . S
C1533 C1531 1.419 . S
C1533 C1534 1.362 . S
C1534 H1526 0.930 . S
C1534 C1533 1.362 . S
C1534 C1537 1.409 . S
C1535 H1527 0.930 . S
C1535 C1536 1.355 . S
C1535 C1537 1.415 . S
C1536 C1535 1.355 . S
C1536 C1538 1.419 . S
C1537 C1532 1.425 . S
C1537 C1534 1.409 . S
C1537 C1535 1.415 . S
C1538 H1528 0.930 . S
C1538 C1536 1.419 . S
C1538 C1539 1.362 . S
C1539 H1529 0.930 . S
C1539 C1532 1.409 . S
C1539 C1538 1.362 . S
H1540 C1546 0.930 . S
H1541 C1549 0.930 . S
H1542 C1550 0.930 . S
H1543 C1551 0.930 . S
H1544 C1554 0.930 . S
H1545 C1555 0.930 . S
C1546 H1540 0.930 . S
C1546 C1547 1.355 . S
C1546 C1548 1.415 . S
C1547 C1546 1.355 . S
C1547 C1549 1.419 . S
C1548 C1546 1.415 . S
C1548 C1553 1.425 . S
C1548 C1555 1.409 . S
C1549 H1541 0.930 . S
C1549 C1547 1.419 . S
C1549 C1550 1.362 . S
C1550 H1542 0.930 . S
C1550 C1549 1.362 . S
C1550 C1553 1.409 . S
C1551 H1543 0.930 . S
C1551 C1552 1.355 . S
C1551 C1553 1.415 . S
C1552 C1551 1.355 . S
C1552 C1554 1.419 . S
C1553 C1548 1.425 . S
C1553 C1550 1.409 . S
C1553 C1551 1.415 . S
C1554 H1544 0.930 . S
C1554 C1552 1.419 . S
C1554 C1555 1.362 . S
C1555 H1545 0.930 . S
C1555 C1548 1.409 . S
C1555 C1554 1.362 . S
H1556 C1562 0.930 . S
H1557 C1565 0.930 . S
H1558 C1566 0.930 . S
H1559 C1567 0.930 . S
H1560 C1570 0.930 . S
H1561 C1571 0.930 . S
C1562 H1556 0.930 . S
C1562 C1563 1.355 . S
C1562 C1564 1.415 . S
C1563 C1562 1.355 . S
C1563 C1565 1.419 . S
C1564 C1562 1.415 . S
C1564 C1569 1.425 . S
C1564 C1571 1.409 . S
C1565 H1557 0.930 . S
C1565 C1563 1.419 . S
C1565 C1566 1.362 . S
C1566 H1558 0.930 . S
C1566 C1565 1.362 . S
C1566 C1569 1.409 . S
C1567 H1559 0.930 . S
C1567 C1568 1.355 . S
C1567 C1569 1.415 . S
C1568 C1567 1.355 . S
C1568 C1570 1.419 . S
C1569 C1564 1.425 . S
C1569 C1566 1.409 . S
C1569 C1567 1.415 . S
C1570 H1560 0.930 . S
C1570 C1568 1.419 . S
C1570 C1571 1.362 . S
C1571 H1561 0.930 . S
C1571 C1564 1.409 . S
C1571 C1570 1.362 . S
H1572 C1578 0.930 . S
H1573 C1581 0.930 . S
H1574 C1582 0.930 . S
H1575 C1583 0.930 . S
H1576 C1586 0.930 . S
H1577 C1587 0.930 . S
C1578 H1572 0.930 . S
C1578 C1579 1.355 . S
C1578 C1580 1.415 . S
C1579 C1578 1.355 . S
C1579 C1581 1.419 . S
C1580 C1578 1.415 . S
C1580 C1585 1.425 . S
C1580 C1587 1.409 . S
C1581 H1573 0.930 . S
C1581 C1579 1.419 . S
C1581 C1582 1.362 . S
C1582 H1574 0.930 . S
C1582 C1581 1.362 . S
C1582 C1585 1.409 . S
C1583 H1575 0.930 . S
C1583 C1584 1.355 . S
C1583 C1585 1.415 . S
C1584 C1583 1.355 . S
C1584 C1586 1.419 . S
C1585 C1580 1.425 . S
C1585 C1582 1.409 . S
C1585 C1583 1.415 . S
C1586 H1576 0.930 . S
C1586 C1584 1.419 . S
C1586 C1587 1.362 . S
C1587 H1577 0.930 . S
C1587 C1580 1.409 . S
C1587 C1586 1.362 . S
H1588 C1594 0.930 . S
H1589 C1597 0.930 . S
H1590 C1598 0.930 . S
H1591 C1599 0.930 . S
H1592 C1602 0.930 . S
H1593 C1603 0.930 . S
C1594 H1588 0.930 . S
C1594 C1595 1.355 . S
C1594 C1596 1.415 . S
C1595 C1594 1.355 . S
C1595 C1597 1.419 . S
C1596 C1594 1.415 . S
C1596 C1601 1.425 . S
C1596 C1603 1.409 . S
C1597 H1589 0.930 . S
C1597 C1595 1.419 . S
C1597 C1598 1.362 . S
C1598 H1590 0.930 . S
C1598 C1597 1.362 . S
C1598 C1601 1.409 . S
C1599 H1591 0.930 . S
C1599 C1600 1.355 . S
C1599 C1601 1.415 . S
C1600 C1599 1.355 . S
C1600 C1602 1.419 . S
C1601 C1596 1.425 . S
C1601 C1598 1.409 . S
C1601 C1599 1.415 . S
C1602 H1592 0.930 . S
C1602 C1600 1.419 . S
C1602 C1603 1.362 . S
C1603 H1593 0.930 . S
C1603 C1596 1.409 . S
C1603 C1602 1.362 . S
H1604 C1610 0.930 . S
H1605 C1613 0.930 . S
H1606 C1614 0.930 . S
H1607 C1615 0.930 . S
H1608 C1618 0.930 . S
H1609 C1619 0.930 . S
C1610 H1604 0.930 . S
C1610 C1611 1.355 . S
C1610 C1612 1.415 . S
C1611 C1610 1.355 . S
C1611 C1613 1.419 . S
C1612 C1610 1.415 . S
C1612 C1617 1.425 . S
C1612 C1619 1.409 . S
C1613 H1605 0.930 . S
C1613 C1611 1.419 . S
C1613 C1614 1.362 . S
C1614 H1606 0.930 . S
C1614 C1613 1.362 . S
C1614 C1617 1.409 . S
C1615 H1607 0.930 . S
C1615 C1616 1.355 . S
C1615 C1617 1.415 . S
C1616 C1615 1.355 . S
C1616 C1618 1.419 . S
C1617 C1612 1.425 . S
C1617 C1614 1.409 . S
C1617 C1615 1.415 . S
C1618 H1608 0.930 . S
C1618 C1616 1.419 . S
C1618 C1619 1.362 . S
C1619 H1609 0.930 . S
C1619 C1612 1.409 . S
C1619 C1618 1.362 . S
C475 C4 1.498 . S
C480 C238 1.498 . S
C491 C257 1.500 . S
C496 C17 1.500 . S
C507 C270 1.496 . S
C512 C30 1.496 . S
C523 C43 1.496 . S
C528 C433 1.496 . S
C539 C62 1.495 . S
C544 C446 1.495 . S
C555 C75 1.500 . S
C560 C459 1.500 . S
C571 C316 1.503 . S
C576 C82 1.503 . S
C587 C95 1.503 . S
C592 C335 1.503 . S
C603 C114 1.498 . S
C608 C348 1.498 . S
C619 C205 1.495 . S
C624 C121 1.495 . S
C635 C218 1.498 . S
C640 C134 1.498 . S
C651 C225 1.502 . S
C656 C153 1.502 . S
C667 C394 1.504 . S
C672 C160 1.504 . S
C683 C407 1.499 . S
C688 C179 1.499 . S
C699 C186 1.502 . S
C704 C426 1.502 . S
C715 C361 1.497 . S
C720 C283 1.497 . S
C731 C296 1.500 . S
C736 C368 1.500 . S
C747 C309 1.496 . S
C752 C387 1.496 . S
C763 C10 1.609 . S
C768 C355 1.594 . S
C779 C374 1.569 . S
C784 C23 1.560 . S
C795 C381 1.599 . S
C800 C36 1.613 . S
C811 C166 1.580 . S
C816 C49 1.596 . S
C827 C173 1.572 . S
C832 C56 1.587 . S
C843 C192 1.579 . S
C848 C69 1.595 . S
C859 C88 1.573 . S
C864 C277 1.561 . S
C875 C290 1.562 . S
C880 C101 1.573 . S
C891 C303 1.618 . S
C896 C108 1.606 . S
C907 C127 1.589 . S
C912 C400 1.574 . S
C923 C140 1.602 . S
C928 C413 1.586 . S
C939 C147 1.608 . S
C944 C420 1.620 . S
C955 C199 1.557 . S
C960 C322 1.559 . S
C971 C212 1.593 . S
C976 C329 1.608 . S
C987 C231 1.559 . S
C992 C342 1.569 . S
C1003 C244 1.624 . S
C1008 C439 1.616 . S
C1019 C452 1.624 . S
C1024 C251 1.615 . S
C1035 C264 1.598 . S
C1040 C465 1.612 . S
C1051 C18 1.304 . S
C1056 C3 1.282 . S
C1067 C16 1.183 . S
C1072 C31 1.286 . S
C1083 C29 1.188 . S
C1088 C5 1.290 . S
C1099 C42 1.210 . S
C1104 C68 1.303 . S
C1115 C44 1.304 . S
C1120 C57 1.213 . S
C1131 C70 1.236 . S
C1136 C55 1.271 . S
C1147 C81 1.264 . S
C1152 C96 1.316 . S
C1163 C94 1.281 . S
C1168 C107 1.311 . S
C1179 C109 1.202 . S
C1184 C83 1.262 . S
C1195 C146 1.269 . S
C1200 C120 1.230 . S
C1211 C133 1.264 . S
C1216 C122 1.317 . S
C1227 C135 1.313 . S
C1232 C148 1.279 . S
C1243 C172 1.272 . S
C1248 C159 1.238 . S
C1259 C187 1.304 . S
C1264 C174 1.282 . S
C1275 C161 1.265 . S
C1280 C185 1.218 . S
C1291 C200 1.180 . S
C1296 C226 1.284 . S
C1307 C213 1.174 . S
C1312 C198 1.269 . S
C1323 C224 1.268 . S
C1328 C211 1.316 . S
C1339 C250 1.312 . S
C1344 C237 1.234 . S
C1355 C252 1.265 . S
C1360 C263 1.316 . S
C1371 C265 1.225 . S
C1376 C239 1.309 . S
C1387 C278 1.232 . S
C1392 C302 1.311 . S
C1403 C291 1.282 . S
C1408 C276 1.304 . S
C1419 C289 1.315 . S
C1424 C304 1.247 . S
C1435 C328 1.316 . S
C1440 C315 1.273 . S
C1451 C330 1.232 . S
C1456 C341 1.269 . S
C1467 C317 1.310 . S
C1472 C343 1.229 . S
C1483 C356 1.174 . S
C1488 C380 1.275 . S
C1499 C367 1.281 . S
C1504 C354 1.311 . S
C1515 C382 1.282 . S
C1520 C369 1.308 . S
C1531 C393 1.218 . S
C1536 C408 1.306 . S
C1547 C406 1.219 . S
C1552 C419 1.266 . S
C1563 C421 1.179 . S
C1568 C395 1.283 . S
C1579 C432 1.225 . S
C1584 C460 1.267 . S
C1595 C445 1.236 . S
C1600 C434 1.313 . S
C1611 C447 1.289 . S
C1616 C458 1.186 . S
