# Generated by pormake.
# Topology hcp, (12)-cn, num edge types: 1
# Building blocks:
#     Node 0, Type 0, BuildingBlock: UKIBUN_clean_sbu_0, # of connection points: 12
#     Node 1, Type 0, BuildingBlock: UKIBUN_clean_sbu_0, # of connection points: 12
#     Edge 2, Type (0, 0), BuildingBlock: XUDNAN_clean_linker_2, # of connection points: 2
#     Edge 3, Type (0, 0), BuildingBlock: XUDNAN_clean_linker_2, # of connection points: 2
#     Edge 4, Type (0, 0), BuildingBlock: XUDNAN_clean_linker_2, # of connection points: 2
#     Edge 5, Type (0, 0), BuildingBlock: XUDNAN_clean_linker_2, # of connection points: 2
#     Edge 6, Type (0, 0), BuildingBlock: XUDNAN_clean_linker_2, # of connection points: 2
#     Edge 7, Type (0, 0), BuildingBlock: XUDNAN_clean_linker_2, # of connection points: 2
#     Edge 8, Type (0, 0), BuildingBlock: XUDNAN_clean_linker_2, # of connection points: 2
#     Edge 9, Type (0, 0), BuildingBlock: XUDNAN_clean_linker_2, # of connection points: 2
#     Edge 10, Type (0, 0), BuildingBlock: XUDNAN_clean_linker_2, # of connection points: 2
#     Edge 11, Type (0, 0), BuildingBlock: XUDNAN_clean_linker_2, # of connection points: 2
#     Edge 12, Type (0, 0), BuildingBlock: XUDNAN_clean_linker_2, # of connection points: 2
#     Edge 13, Type (0, 0), BuildingBlock: XUDNAN_clean_linker_2, # of connection points: 2
# Relax obj value: 0.181
# Max RMSD: 0.266
# Mean RMSD: 0.266
data_MOF--net-hcp--node1-UKIBUN_clean_sbu_0--edge1-XUDNAN_clean_linker_2
_symmetry_space_group_name_H-M    P1
_symmetry_Int_Tables_number       1
_symmetry_cell_setting            triclinic
loop_
_symmetry_equiv_pos_as_xyz
'x, y, z'
_cell_length_a     17.931341
_cell_length_b     17.928754
_cell_length_c     29.683634
_cell_angle_alpha  89.50675
_cell_angle_beta   90.354137
_cell_angle_gamma 120.31931
loop_
_atom_site_label
_atom_site_type_symbol
_atom_site_fract_x
_atom_site_fract_y
_atom_site_fract_z
_atom_type_partial_charge
C0 C 0.93593 0.54625 0.27008 0.0
C1 C 0.87469 0.27982 0.25652 0.0
O2 O 0.7508 0.45122 0.28471 0.0
O3 O 0.66584 0.33936 0.19452 0.0
O4 O 0.63848 0.42437 0.23981 0.0
O5 O 0.77656 0.36458 0.24159 0.0
Hf6 Hf 0.75846 0.46012 0.21559 0.0
O7 O 0.66213 0.33658 0.32772 0.0
Hf8 Hf 0.78353 0.36501 0.31054 0.0
O9 O 0.54893 0.31057 0.28267 0.0
Hf10 Hf 0.63455 0.42917 0.30867 0.0
O11 O 0.68944 0.25043 0.28442 0.0
Hf12 Hf 0.54438 0.31016 0.21335 0.0
Hf13 Hf 0.69227 0.24579 0.21533 0.0
O14 O 0.57648 0.22405 0.23953 0.0
Hf15 Hf 0.56954 0.21632 0.30852 0.0
C16 C 0.53496 0.17132 0.14264 0.0
C17 C 0.77388 0.47798 0.39005 0.0
C18 C 0.46754 0.41722 0.25967 0.0
C19 C 0.74237 0.61389 0.26238 0.0
O20 O 0.76988 0.58777 0.22926 0.0
O21 O 0.83299 0.44365 0.16019 0.0
C22 C 0.82721 0.37502 0.14247 0.0
O23 O 0.57203 0.09433 0.30144 0.0
O24 O 0.41372 0.19664 0.227 0.0
O25 O 0.56502 0.4 0.15557 0.0
O26 O 0.50413 0.23305 0.36842 0.0
O27 O 0.76112 0.27754 0.37012 0.0
O28 O 0.90739 0.48897 0.30202 0.0
O29 O 0.81711 0.24897 0.22483 0.0
O30 O 0.59951 0.16782 0.16042 0.0
C31 C 0.50993 0.30219 0.38527 0.0
O32 O 0.52107 0.44451 0.29322 0.0
O33 O 0.70956 0.48231 0.37272 0.0
C34 C 0.60755 0.06964 0.27188 0.0
O35 O 0.6139 0.19015 0.37203 0.0
O36 O 0.71005 0.49983 0.1574 0.0
O37 O 0.89414 0.54367 0.23425 0.0
O38 O 0.43392 0.13451 0.29046 0.0
O39 O 0.65004 0.11304 0.23701 0.0
O40 O 0.55115 0.37791 0.3675 0.0
C41 C 0.38733 0.13884 0.25866 0.0
O42 O 0.69628 0.56751 0.29549 0.0
O43 O 0.81097 0.44019 0.37225 0.0
O44 O 0.77398 0.29709 0.15534 0.0
O45 O 0.46653 0.36939 0.22743 0.0
O46 O 0.50901 0.22287 0.15551 0.0
O47 O 0.87069 0.31777 0.29225 0.0
C48 C 0.68967 0.21897 0.38869 0.0
C49 C 0.63349 0.46892 0.1411 0.0
C50 C 0.50378 0.70533 0.87846 0.0
C51 C 0.30641 0.77944 0.88724 0.0
O52 O 0.44257 0.68599 0.78322 0.0
O53 O 0.242 0.54235 0.78966 0.0
O54 O 0.35419 0.5664 0.74402 0.0
O55 O 0.33237 0.66251 0.82872 0.0
Hf56 Hf 0.36035 0.56899 0.81269 0.0
O57 O 0.40978 0.76374 0.73717 0.0
Hf58 Hf 0.42193 0.78188 0.80576 0.0
O59 O 0.32165 0.64389 0.69479 0.0
Hf60 Hf 0.44488 0.67942 0.71419 0.0
O61 O 0.30032 0.74213 0.78078 0.0
Hf62 Hf 0.23239 0.52595 0.72121 0.0
Hf63 Hf 0.20971 0.63091 0.81136 0.0
O64 O 0.21359 0.6227 0.74271 0.0
Hf65 Hf 0.29337 0.73722 0.71122 0.0
C66 C 0.05213 0.45358 0.77229 0.0
C67 C 0.59439 0.86905 0.74738 0.0
C68 C 0.35622 0.51203 0.64879 0.0
C69 C 0.52905 0.58288 0.76555 0.0
O70 O 0.47316 0.55245 0.79792 0.0
O71 O 0.28651 0.51691 0.87695 0.0
C72 C 0.22484 0.52503 0.89429 0.0
O73 O 0.17445 0.74357 0.72238 0.0
O74 O 0.15228 0.53151 0.66566 0.0
O75 O 0.21614 0.39941 0.74213 0.0
O76 O 0.37843 0.80559 0.65222 0.0
O77 O 0.39784 0.8924 0.79548 0.0
O78 O 0.50544 0.77296 0.86077 0.0
O79 O 0.23455 0.72203 0.86862 0.0
O80 O 0.08018 0.51317 0.80261 0.0
C81 C 0.44501 0.80453 0.63624 0.0
O82 O 0.42436 0.58277 0.66152 0.0
O83 O 0.56925 0.8047 0.72003 0.0
C84 C 0.11956 0.71685 0.75515 0.0
O85 O 0.35884 0.87625 0.72172 0.0
O86 O 0.30111 0.4295 0.80481 0.0
O87 O 0.45174 0.62731 0.86686 0.0
O88 O 0.20098 0.67557 0.65473 0.0
O89 O 0.12493 0.68104 0.79184 0.0
O90 O 0.47494 0.75776 0.65222 0.0
C91 C 0.15037 0.59482 0.64565 0.0
O92 O 0.53092 0.63167 0.73314 0.0
O93 O 0.55095 0.8732 0.78059 0.0
O94 O 0.18753 0.56219 0.87533 0.0
O95 O 0.27997 0.48231 0.66514 0.0
O96 O 0.09668 0.44772 0.74026 0.0
O97 O 0.38206 0.80699 0.87079 0.0
C98 C 0.37213 0.91463 0.75951 0.0
C99 C 0.24861 0.37754 0.77517 0.0
H100 H 0.39634 0.79148 0.96347 0.0
H101 H 0.22183 0.86686 0.90533 0.0
H102 H 0.25356 0.96831 0.96849 0.0
H103 H 0.34648 0.81501 0.08658 0.0
H104 H 0.45679 0.85224 0.10271 0.0
H105 H 0.40751 0.7752 0.05777 0.0
H106 H 0.53364 0.87755 1.00693 0.0
H107 H 0.58169 0.95862 0.04956 0.0
H108 H 0.5546 0.98542 0.99548 0.0
H109 H 0.32299 0.07761 0.03016 0.0
H110 H 0.41173 0.17672 0.09007 0.0
H111 H 0.54034 0.02855 0.11051 0.0
C112 C 0.36202 0.82672 0.96523 0.0
C113 C 0.30539 0.82049 0.93006 0.0
C114 C 0.26344 0.8691 0.93255 0.0
C115 C 0.28172 0.92729 0.96814 0.0
C116 C 0.34061 0.93449 1.00139 0.0
C117 C 0.37833 0.88373 1.00097 0.0
C118 C 0.44315 0.90765 0.03927 0.0
C119 C 0.41159 0.83311 0.07362 0.0
C120 C 0.53368 0.93406 0.02169 0.0
C121 C 0.44103 0.98409 0.05919 0.0
C122 C 0.38026 0.99733 0.03734 0.0
C123 C 0.3694 0.06661 0.04804 0.0
C124 C 0.42093 0.12306 0.08216 0.0
C125 C 0.48373 0.11104 0.10543 0.0
C126 C 0.4934 0.04007 0.09357 0.0
H127 H 0.50153 0.54917 0.60035 0.0
H128 H 0.23107 0.35391 0.61679 0.0
H129 H 0.24498 0.26669 0.5574 0.0
H130 H 0.50505 0.5413 0.48339 0.0
H131 H 0.61256 0.55728 0.48039 0.0
H132 H 0.58238 0.59861 0.52747 0.0
H133 H 0.62532 0.5126 0.58281 0.0
H134 H 0.65675 0.47371 0.53507 0.0
H135 H 0.57967 0.39804 0.57488 0.0
H136 H 0.28623 0.20522 0.4908 0.0
H137 H 0.3497 0.18433 0.42094 0.0
H138 H 0.58948 0.42032 0.44962 0.0
C139 C 0.44533 0.48772 0.59191 0.0
C140 C 0.36534 0.45904 0.61337 0.0
C141 C 0.29335 0.37804 0.60088 0.0
C142 C 0.30059 0.32737 0.56732 0.0
C143 C 0.38033 0.3579 0.54665 0.0
C144 C 0.45131 0.43637 0.55852 0.0
C145 C 0.52809 0.4581 0.52917 0.0
C146 C 0.55872 0.54384 0.50358 0.0
C147 C 0.60176 0.46067 0.55718 0.0
C148 C 0.48833 0.38149 0.49777 0.0
C149 C 0.40364 0.32305 0.50872 0.0
C150 C 0.35297 0.25001 0.48227 0.0
C151 C 0.38931 0.23824 0.44284 0.0
C152 C 0.47452 0.30028 0.43026 0.0
C153 C 0.52465 0.37101 0.45887 0.0
H154 H 0.96021 0.5249 0.10365 0.0
H155 H 0.83635 0.24472 0.10036 0.0
H156 H 0.94417 0.25587 0.0464 0.0
H157 H 0.00216 0.55504 0.98651 0.0
H158 H 0.10454 0.65371 0.99228 0.0
H159 H 0.02265 0.62378 0.03452 0.0
H160 H 0.13224 0.63512 0.09542 0.0
H161 H 0.21352 0.6627 0.05283 0.0
H162 H 0.1841 0.57183 0.08987 0.0
H163 H 0.05908 0.29434 0.98922 0.0
H164 H 0.15859 0.35896 0.9244 0.0
H165 H 0.2075 0.61227 0.96291 0.0
C166 C 0.95586 0.46592 0.09171 0.0
C167 C 0.88953 0.38409 0.10685 0.0
C168 C 0.88616 0.30856 0.08974 0.0
C169 C 0.94791 0.31396 0.05928 0.0
C170 C 0.01302 0.39525 0.04568 0.0
C171 C 0.01681 0.46998 0.06072 0.0
C172 C 0.08855 0.54877 0.03719 0.0
C173 C 0.05229 0.59817 1.01106 0.0
C174 C 0.15875 0.60808 0.07085 0.0
C175 C 0.12199 0.50604 1.00565 0.0
C176 C 0.07913 0.4176 1.01191 0.0
C177 C 0.09426 0.3637 0.98438 0.0
C178 C 0.15147 0.40075 0.94796 0.0
C179 C 0.19141 0.49032 0.9394 0.0
C180 C 0.17905 0.54371 0.96962 0.0
H181 H 0.42747 0.93723 0.59828 0.0
H182 H 0.5804 0.81181 0.58984 0.0
H183 H 0.67371 0.91857 0.53319 0.0
H184 H 0.43264 0.98413 0.4808 0.0
H185 H 0.43984 0.08706 0.4892 0.0
H186 H 0.38804 0.00285 0.53083 0.0
H187 H 0.49172 0.1078 0.59155 0.0
H188 H 0.54508 0.19143 0.54957 0.0
H189 H 0.60684 0.15826 0.58375 0.0
H190 H 0.74877 0.03652 0.47443 0.0
H191 H 0.78565 0.14414 0.41287 0.0
H192 H 0.58647 0.19354 0.4599 0.0
C193 C 0.48025 0.93182 0.58443 0.0
C194 C 0.49585 0.86538 0.59888 0.0
C195 C 0.56634 0.86159 0.5797 0.0
C196 C 0.62052 0.92256 0.54757 0.0
C197 C 0.60429 0.98784 0.53469 0.0
C198 C 0.53534 0.99243 0.5522 0.0
C199 C 0.52945 0.06645 0.53084 0.0
C200 C 0.44236 0.03311 0.50645 0.0
C201 C 0.54416 0.13504 0.56604 0.0
C202 C 0.60409 0.10083 0.4978 0.0
C203 C 0.64765 0.05581 0.50103 0.0
C204 C 0.7158 0.07298 0.47197 0.0
C205 C 0.73718 0.1349 0.4374 0.0
C206 C 0.68979 0.17781 0.43207 0.0
C207 C 0.62482 0.16265 0.46378 0.0
H208 H 0.58938 0.42906 0.05195 0.0
H209 H 0.66728 0.63269 0.14947 0.0
H210 H 0.65877 0.72793 0.09138 0.0
H211 H 0.72152 0.5766 0.96181 0.0
H212 H 0.64473 0.51345 0.91857 0.0
H213 H 0.65329 0.46141 0.9689 0.0
H214 H 0.48911 0.39675 0.98363 0.0
H215 H 0.48126 0.44817 0.93302 0.0
H216 H 0.44577 0.46811 0.98589 0.0
H217 H 0.62258 0.79374 0.0223 0.0
H218 H 0.57435 0.82362 0.94859 0.0
H219 H 0.55666 0.59139 0.89486 0.0
C220 C 0.60328 0.49322 0.06104 0.0
C221 C 0.62448 0.52237 0.10571 0.0
C222 C 0.64635 0.60804 0.116 0.0
C223 C 0.64289 0.6629 0.08306 0.0
C224 C 0.62118 0.63242 0.03923 0.0
C225 C 0.6039 0.55021 0.02803 0.0
C226 C 0.58675 0.53441 0.9782 0.0
C227 C 0.65575 0.52071 0.95555 0.0
C228 C 0.49532 0.45736 0.96971 0.0
C229 C 0.59436 0.61915 0.96351 0.0
C230 C 0.61282 0.67488 0.999 0.0
C231 C 0.61016 0.75147 0.99394 0.0
C232 C 0.58347 0.76868 0.95207 0.0
C233 C 0.5609 0.70993 0.91619 0.0
C234 C 0.57327 0.63811 0.92153 0.0
H235 H 0.91647 0.62414 0.42122 0.0
H236 H 0.6972 0.37992 0.46246 0.0
H237 H 0.76536 0.39156 0.53623 0.0
H238 H 0.06945 0.58756 0.46333 0.0
H239 H 0.14442 0.69472 0.48323 0.0
H240 H 0.07147 0.68023 0.43785 0.0
H241 H 0.01114 0.76196 0.48202 0.0
H242 H 0.08571 0.77917 0.52722 0.0
H243 H 0.97162 0.72816 0.53858 0.0
H244 H 0.86828 0.41178 0.59691 0.0
H245 H 0.99202 0.45023 0.64702 0.0
H246 H 0.14688 0.68615 0.57041 0.0
C247 C 0.88088 0.57618 0.44694 0.0
C248 C 0.79947 0.50332 0.4371 0.0
C249 C 0.75696 0.43864 0.47036 0.0
C250 C 0.79609 0.44404 0.51211 0.0
C251 C 0.87785 0.51486 0.52023 0.0
C252 C 0.91919 0.58107 0.48911 0.0
C253 C 0.01059 0.64514 0.50456 0.0
C254 C 0.0779 0.65227 0.47019 0.0
C255 C 0.02032 0.73388 0.51365 0.0
C256 C 0.01531 0.60235 0.54804 0.0
C257 C 0.9378 0.52734 0.55628 0.0
C258 C 0.92843 0.47168 0.59159 0.0
C259 C -0.00053 0.49379 0.61971 0.0
C260 C 0.0789 0.57167 0.61307 0.0
C261 C 0.08659 0.62688 0.57677 0.0
H262 H 0.54219 0.91405 0.22959 0.0
H263 H 0.71107 0.07117 0.33731 0.0
H264 H 0.77557 0.9778 0.3417 0.0
H265 H 0.50786 0.70432 0.27883 0.0
H266 H 0.50112 0.66075 0.2235 0.0
H267 H 0.46543 0.73703 0.23234 0.0
H268 H 0.56922 0.83337 0.16868 0.0
H269 H 0.60658 0.75811 0.16143 0.0
H270 H 0.68294 0.86994 0.17318 0.0
H271 H 0.83336 0.8782 0.32772 0.0
H272 H 0.85464 0.75513 0.31024 0.0
H273 H 0.63819 0.65541 0.21811 0.0
C274 C 0.59002 0.92608 0.25533 0.0
C275 C 0.62092 0.99816 0.28377 0.0
C276 C 0.68528 0.01435 0.31626 0.0
C277 C 0.72322 0.96271 0.31841 0.0
C278 C 0.69445 0.89435 0.2884 0.0
C279 C 0.6267 0.87351 0.25888 0.0
C280 C 0.60617 0.79474 0.23142 0.0
C281 C 0.51476 0.71977 0.2422 0.0
C282 C 0.61696 0.81543 0.18067 0.0
C283 C 0.67505 0.77677 0.24892 0.0
C284 C 0.72624 0.83571 0.28123 0.0
C285 C 0.79378 0.8316 0.30243 0.0
C286 C 0.80642 0.76265 0.29183 0.0
C287 C 0.7516 0.69939 0.26057 0.0
C288 C 0.68569 0.70698 0.23883 0.0
H289 H 0.01723 0.73898 0.81522 0.0
H290 H 0.02862 0.66724 0.6773 0.0
H291 H 0.87117 0.60454 0.66999 0.0
H292 H 0.82029 0.55744 0.84628 0.0
H293 H 0.78168 0.61606 0.87835 0.0
H294 H 0.89597 0.6583 0.87255 0.0
H295 H 0.91511 0.80191 0.83984 0.0
H296 H 0.80113 0.75986 0.84721 0.0
H297 H 0.84964 0.79822 0.79262 0.0
H298 H 0.71275 0.53784 0.67988 0.0
H299 H 0.56652 0.50907 0.69792 0.0
H300 H 0.65697 0.63027 0.82801 0.0
C301 C 0.98675 0.71268 0.78306 0.0
C302 C 0.03476 0.70807 0.74674 0.0
C303 C 0.99309 0.67257 0.70525 0.0
C304 C 0.90349 0.63537 0.70108 0.0
C305 C 0.85725 0.63611 0.73844 0.0
C306 C 0.8976 0.677 0.77798 0.0
C307 C 0.83297 0.67233 0.81219 0.0
C308 C 0.83278 0.62304 0.85485 0.0
C309 C 0.85074 0.76348 0.82361 0.0
C310 C 0.74976 0.62156 0.7858 0.0
C311 C 0.76539 0.59966 0.74374 0.0
C312 C 0.69961 0.55471 0.71263 0.0
C313 C 0.61661 0.5374 0.72343 0.0
C314 C 0.60073 0.56604 0.76464 0.0
C315 C 0.66702 0.60506 0.79706 0.0
H316 H 0.30887 0.01264 0.19589 0.0
H317 H 0.27314 0.09959 0.32544 0.0
H318 H 0.1578 0.9515 0.34398 0.0
H319 H 0.07099 0.84217 0.17899 0.0
H320 H 0.10042 0.77114 0.15185 0.0
H321 H 0.16891 0.8865 0.14635 0.0
H322 H 0.29698 0.87176 0.17586 0.0
H323 H 0.22804 0.75713 0.18387 0.0
H324 H 0.28976 0.82395 0.23054 0.0
H325 H 0.07105 0.79279 0.35496 0.0
H326 H 0.97777 0.63479 0.34804 0.0
H327 H 0.06165 0.64957 0.20991 0.0
C328 C 0.27273 0.00119 0.22681 0.0
C329 C 0.29829 0.06704 0.25905 0.0
C330 C 0.25264 0.04973 0.30011 0.0
C331 C 0.18827 0.96571 0.31121 0.0
C332 C 0.16962 0.90049 0.28044 0.0
C333 C 0.20734 0.91744 0.23823 0.0
C334 C 0.17672 0.8346 0.21213 0.0
C335 C 0.1262 0.83353 0.16984 0.0
C336 C 0.25242 0.82115 0.19991 0.0
C337 C 0.11809 0.76883 0.24684 0.0
C338 C 0.11646 0.80829 0.28627 0.0
C339 C 0.07018 0.76107 0.32394 0.0
C340 C 0.01882 0.67128 0.32007 0.0
C341 C 0.01302 0.63046 0.27862 0.0
C342 C 0.06574 0.67945 0.24211 0.0
H343 H 0.32359 0.31316 0.83212 0.0
H344 H 0.13971 0.24111 0.72172 0.0
H345 H 0.13788 0.10369 0.71462 0.0
H346 H 0.45033 0.25101 0.7858 0.0
H347 H 0.47449 0.20743 0.83505 0.0
H348 H 0.44563 0.28931 0.8411 0.0
H349 H 0.32005 0.19045 0.89455 0.0
H350 H 0.34969 0.10849 0.88986 0.0
H351 H 0.241 0.08289 0.87692 0.0
H352 H 0.1809 0.9972 0.70684 0.0
H353 H 0.25123 0.91226 0.70368 0.0
H354 H 0.40729 0.04581 0.82103 0.0
C355 C 0.28027 0.2672 0.80753 0.0
C356 C 0.23209 0.28822 0.77718 0.0
C357 C 0.17729 0.22669 0.74519 0.0
C358 C 0.17558 0.14828 0.74107 0.0
C359 C 0.22806 0.13221 0.76959 0.0
C360 C 0.27801 0.18876 0.80294 0.0
C361 C 0.33651 0.16062 0.82524 0.0
C362 C 0.43237 0.2313 0.82153 0.0
C363 C 0.31022 0.13402 0.87457 0.0
C364 C 0.31629 0.083 0.79675 0.0
C365 C 0.25244 0.0676 0.76551 0.0
C366 C 0.22886 0.00669 0.73196 0.0
C367 C 0.27065 0.95942 0.73031 0.0
C368 C 0.33538 0.972 0.76233 0.0
C369 C 0.35777 0.03416 0.79644 0.0
H370 H 0.34515 0.37661 0.32405 0.0
H371 H 0.4237 0.4839 0.18977 0.0
H372 H 0.2761 0.45426 0.17378 0.0
H373 H 0.15055 0.20634 0.29578 0.0
H374 H 0.08924 0.20759 0.34337 0.0
H375 H 0.20388 0.25095 0.34867 0.0
H376 H 0.22684 0.39884 0.37429 0.0
H377 H 0.11171 0.35484 0.37133 0.0
H378 H 0.18329 0.4523 0.34072 0.0
H379 H 0.11687 0.38667 0.167 0.0
H380 H 0.96009 0.32392 0.17718 0.0
H381 H 0.98373 0.26648 0.31691 0.0
C382 C 0.33223 0.39849 0.29238 0.0
C383 C 0.3954 0.43354 0.25827 0.0
C384 C 0.37592 0.45821 0.21642 0.0
C385 C 0.29216 0.44056 0.20686 0.0
C386 C 0.22928 0.3993 0.23981 0.0
C387 C 0.24868 0.38167 0.28236 0.0
C388 C 0.16785 0.33381 0.31083 0.0
C389 C 0.15202 0.2444 0.32551 0.0
C390 C 0.1727 0.38821 0.3517 0.0
C391 C 0.10018 0.3256 0.27723 0.0
C392 C 0.137 0.36249 0.23626 0.0
C393 C 0.08738 0.35908 0.19919 0.0
C394 C -0.00186 0.32181 0.20499 0.0
C395 C 0.95997 0.29012 0.24765 0.0
C396 C 0.01139 0.28984 0.28385 0.0
H397 H 0.99082 0.31165 0.82513 0.0
H398 H 0.92101 0.43099 0.71838 0.0
H399 H 0.80291 0.28726 0.69475 0.0
H400 H 0.96253 0.13652 0.76655 0.0
H401 H 0.91554 0.05764 0.81124 0.0
H402 H 0.98689 0.16973 0.82448 0.0
H403 H 0.86994 0.17283 0.87413 0.0
H404 H 0.80001 0.05946 0.86319 0.0
H405 H 0.76337 0.13451 0.85126 0.0
H406 H 0.70962 0.13019 0.67556 0.0
H407 H 0.61454 0.97141 0.67628 0.0
H408 H 0.73976 0.95479 0.79806 0.0
C409 C 0.94709 0.30763 0.79864 0.0
C410 C 0.9634 0.38168 0.77384 0.0
C411 C 0.9079 0.37446 0.73802 0.0
C412 C 0.84182 0.29317 0.724 0.0
C413 C 0.83179 0.22044 0.74682 0.0
C414 C 0.88028 0.227 0.78459 0.0
C415 C 0.8572 0.13872 0.80269 0.0
C416 C 0.9352 0.12491 0.80113 0.0
C417 C 0.82039 0.12559 0.85065 0.0
C418 C 0.78865 0.08158 0.769 0.0
C419 C 0.77657 0.13001 0.73639 0.0
C420 C 0.71781 0.09157 0.70117 0.0
C421 C 0.66543 0.00135 0.70124 0.0
C422 C 0.67154 0.95148 0.73666 0.0
C423 C 0.73582 0.99172 0.77001 0.0
loop_
_geom_bond_atom_site_label_1
_geom_bond_atom_site_label_2
_geom_bond_distance
_geom_bond_site_symmetry_2
_ccdc_geom_bond_type
C0 O28 1.281 . S
C0 O37 1.281 . S
C1 O29 1.281 . S
C1 O47 1.281 . S
O2 Hf6 2.202 . S
O2 Hf8 2.202 . S
O2 Hf10 2.202 . S
O3 Hf6 2.202 . S
O3 Hf12 2.202 . S
O3 Hf13 2.202 . S
O4 Hf6 2.072 . S
O4 Hf10 2.072 . S
O4 Hf12 2.072 . S
O5 Hf6 2.072 . S
O5 Hf8 2.072 . S
O5 Hf13 2.072 . S
Hf6 O2 2.202 . S
Hf6 O3 2.202 . S
Hf6 O4 2.072 . S
Hf6 O5 2.072 . S
Hf6 O20 2.209 . S
Hf6 O21 2.209 . S
Hf6 O36 2.209 . S
Hf6 O37 2.209 . S
O7 Hf8 2.072 . S
O7 Hf10 2.072 . S
O7 Hf15 2.072 . S
Hf8 O2 2.202 . S
Hf8 O5 2.072 . S
Hf8 O7 2.072 . S
Hf8 O11 2.202 . S
Hf8 O27 2.209 . S
Hf8 O28 2.209 . S
Hf8 O43 2.209 . S
Hf8 O47 2.209 . S
O9 Hf10 2.202 . S
O9 Hf12 2.202 . S
O9 Hf15 2.202 . S
Hf10 O2 2.202 . S
Hf10 O4 2.072 . S
Hf10 O7 2.072 . S
Hf10 O9 2.202 . S
Hf10 O32 2.209 . S
Hf10 O33 2.209 . S
Hf10 O40 2.209 . S
Hf10 O42 2.209 . S
O11 Hf8 2.202 . S
O11 Hf13 2.202 . S
O11 Hf15 2.202 . S
Hf12 O3 2.202 . S
Hf12 O4 2.072 . S
Hf12 O9 2.202 . S
Hf12 O14 2.072 . S
Hf12 O24 2.209 . S
Hf12 O25 2.209 . S
Hf12 O45 2.209 . S
Hf12 O46 2.209 . S
Hf13 O3 2.202 . S
Hf13 O5 2.072 . S
Hf13 O11 2.202 . S
Hf13 O14 2.072 . S
Hf13 O29 2.209 . S
Hf13 O30 2.209 . S
Hf13 O39 2.209 . S
Hf13 O44 2.209 . S
O14 Hf12 2.072 . S
O14 Hf13 2.072 . S
O14 Hf15 2.072 . S
Hf15 O7 2.072 . S
Hf15 O9 2.202 . S
Hf15 O11 2.202 . S
Hf15 O14 2.072 . S
Hf15 O23 2.209 . S
Hf15 O26 2.209 . S
Hf15 O35 2.209 . S
Hf15 O38 2.209 . S
C16 O30 1.281 . S
C16 O46 1.281 . S
C17 O33 1.281 . S
C17 O43 1.281 . S
C18 O32 1.281 . S
C18 O45 1.281 . S
C19 O20 1.281 . S
C19 O42 1.281 . S
O20 Hf6 2.209 . S
O20 C19 1.281 . S
O21 Hf6 2.209 . S
O21 C22 1.281 . S
C22 O21 1.281 . S
C22 O44 1.281 . S
O23 Hf15 2.209 . S
O23 C34 1.281 . S
O24 Hf12 2.209 . S
O24 C41 1.281 . S
O25 Hf12 2.209 . S
O25 C49 1.281 . S
O26 Hf15 2.209 . S
O26 C31 1.281 . S
O27 Hf8 2.209 . S
O27 C48 1.281 . S
O28 C0 1.281 . S
O28 Hf8 2.209 . S
O29 C1 1.281 . S
O29 Hf13 2.209 . S
O30 Hf13 2.209 . S
O30 C16 1.281 . S
C31 O26 1.281 . S
C31 O40 1.281 . S
O32 Hf10 2.209 . S
O32 C18 1.281 . S
O33 Hf10 2.209 . S
O33 C17 1.281 . S
C34 O23 1.281 . S
C34 O39 1.281 . S
O35 Hf15 2.209 . S
O35 C48 1.281 . S
O36 Hf6 2.209 . S
O36 C49 1.281 . S
O37 C0 1.281 . S
O37 Hf6 2.209 . S
O38 Hf15 2.209 . S
O38 C41 1.281 . S
O39 Hf13 2.209 . S
O39 C34 1.281 . S
O40 Hf10 2.209 . S
O40 C31 1.281 . S
C41 O24 1.281 . S
C41 O38 1.281 . S
O42 Hf10 2.209 . S
O42 C19 1.281 . S
O43 Hf8 2.209 . S
O43 C17 1.281 . S
O44 Hf13 2.209 . S
O44 C22 1.281 . S
O45 Hf12 2.209 . S
O45 C18 1.281 . S
O46 Hf12 2.209 . S
O46 C16 1.281 . S
O47 C1 1.281 . S
O47 Hf8 2.209 . S
C48 O27 1.281 . S
C48 O35 1.281 . S
C49 O25 1.281 . S
C49 O36 1.281 . S
C50 O78 1.281 . S
C50 O87 1.281 . S
C51 O79 1.281 . S
C51 O97 1.281 . S
O52 Hf56 2.202 . S
O52 Hf58 2.202 . S
O52 Hf60 2.202 . S
O53 Hf56 2.202 . S
O53 Hf62 2.202 . S
O53 Hf63 2.202 . S
O54 Hf56 2.072 . S
O54 Hf60 2.072 . S
O54 Hf62 2.072 . S
O55 Hf56 2.072 . S
O55 Hf58 2.072 . S
O55 Hf63 2.072 . S
Hf56 O52 2.202 . S
Hf56 O53 2.202 . S
Hf56 O54 2.072 . S
Hf56 O55 2.072 . S
Hf56 O70 2.209 . S
Hf56 O71 2.209 . S
Hf56 O86 2.209 . S
Hf56 O87 2.209 . S
O57 Hf58 2.072 . S
O57 Hf60 2.072 . S
O57 Hf65 2.072 . S
Hf58 O52 2.202 . S
Hf58 O55 2.072 . S
Hf58 O57 2.072 . S
Hf58 O61 2.202 . S
Hf58 O77 2.209 . S
Hf58 O78 2.209 . S
Hf58 O93 2.209 . S
Hf58 O97 2.209 . S
O59 Hf60 2.202 . S
O59 Hf62 2.202 . S
O59 Hf65 2.202 . S
Hf60 O52 2.202 . S
Hf60 O54 2.072 . S
Hf60 O57 2.072 . S
Hf60 O59 2.202 . S
Hf60 O82 2.209 . S
Hf60 O83 2.209 . S
Hf60 O90 2.209 . S
Hf60 O92 2.209 . S
O61 Hf58 2.202 . S
O61 Hf63 2.202 . S
O61 Hf65 2.202 . S
Hf62 O53 2.202 . S
Hf62 O54 2.072 . S
Hf62 O59 2.202 . S
Hf62 O64 2.072 . S
Hf62 O74 2.209 . S
Hf62 O75 2.209 . S
Hf62 O95 2.209 . S
Hf62 O96 2.209 . S
Hf63 O53 2.202 . S
Hf63 O55 2.072 . S
Hf63 O61 2.202 . S
Hf63 O64 2.072 . S
Hf63 O79 2.209 . S
Hf63 O80 2.209 . S
Hf63 O89 2.209 . S
Hf63 O94 2.209 . S
O64 Hf62 2.072 . S
O64 Hf63 2.072 . S
O64 Hf65 2.072 . S
Hf65 O57 2.072 . S
Hf65 O59 2.202 . S
Hf65 O61 2.202 . S
Hf65 O64 2.072 . S
Hf65 O73 2.209 . S
Hf65 O76 2.209 . S
Hf65 O85 2.209 . S
Hf65 O88 2.209 . S
C66 O80 1.281 . S
C66 O96 1.281 . S
C67 O83 1.281 . S
C67 O93 1.281 . S
C68 O82 1.281 . S
C68 O95 1.281 . S
C69 O70 1.281 . S
C69 O92 1.281 . S
O70 Hf56 2.209 . S
O70 C69 1.281 . S
O71 Hf56 2.209 . S
O71 C72 1.281 . S
C72 O71 1.281 . S
C72 O94 1.281 . S
O73 Hf65 2.209 . S
O73 C84 1.281 . S
O74 Hf62 2.209 . S
O74 C91 1.281 . S
O75 Hf62 2.209 . S
O75 C99 1.281 . S
O76 Hf65 2.209 . S
O76 C81 1.281 . S
O77 Hf58 2.209 . S
O77 C98 1.281 . S
O78 C50 1.281 . S
O78 Hf58 2.209 . S
O79 C51 1.281 . S
O79 Hf63 2.209 . S
O80 Hf63 2.209 . S
O80 C66 1.281 . S
C81 O76 1.281 . S
C81 O90 1.281 . S
O82 Hf60 2.209 . S
O82 C68 1.281 . S
O83 Hf60 2.209 . S
O83 C67 1.281 . S
C84 O73 1.281 . S
C84 O89 1.281 . S
O85 Hf65 2.209 . S
O85 C98 1.281 . S
O86 Hf56 2.209 . S
O86 C99 1.281 . S
O87 C50 1.281 . S
O87 Hf56 2.209 . S
O88 Hf65 2.209 . S
O88 C91 1.281 . S
O89 Hf63 2.209 . S
O89 C84 1.281 . S
O90 Hf60 2.209 . S
O90 C81 1.281 . S
C91 O74 1.281 . S
C91 O88 1.281 . S
O92 Hf60 2.209 . S
O92 C69 1.281 . S
O93 Hf58 2.209 . S
O93 C67 1.281 . S
O94 Hf63 2.209 . S
O94 C72 1.281 . S
O95 Hf62 2.209 . S
O95 C68 1.281 . S
O96 Hf62 2.209 . S
O96 C66 1.281 . S
O97 C51 1.281 . S
O97 Hf58 2.209 . S
C98 O77 1.281 . S
C98 O85 1.281 . S
C99 O75 1.281 . S
C99 O86 1.281 . S
H100 C112 0.930 . S
H101 C114 0.930 . S
H102 C115 0.930 1_545 S
H103 C119 0.959 . S
H104 C119 0.959 . S
H105 C119 0.961 . S
H106 C120 0.960 . S
H107 C120 0.961 . S
H108 C120 0.959 . S
H109 C123 0.929 1_556 S
H110 C124 0.931 . S
H111 C126 0.930 1_565 S
C112 H100 0.930 . S
C112 C113 1.399 . S
C112 C117 1.399 . S
C113 C112 1.399 . S
C113 C114 1.376 . S
C114 H101 0.930 . S
C114 C113 1.376 . S
C114 C115 1.388 . S
C115 H102 0.930 1_565 S
C115 C114 1.388 . S
C115 C116 1.390 . S
C116 C115 1.390 . S
C116 C117 1.394 . S
C116 C122 1.465 1_566 S
C117 C112 1.399 . S
C117 C116 1.394 . S
C117 C118 1.516 1_556 S
C118 C117 1.516 1_554 S
C118 C119 1.502 . S
C118 C120 1.561 . S
C118 C121 1.526 . S
C119 H103 0.959 . S
C119 H104 0.959 . S
C119 H105 0.961 . S
C119 C118 1.502 . S
C120 H106 0.960 . S
C120 H107 0.961 . S
C120 H108 0.959 . S
C120 C118 1.561 . S
C121 C118 1.526 . S
C121 C122 1.396 1_565 S
C121 C126 1.390 1_565 S
C122 C116 1.465 1_544 S
C122 C121 1.396 1_545 S
C122 C123 1.399 . S
C123 H109 0.929 1_554 S
C123 C122 1.399 . S
C123 C124 1.385 . S
C124 H110 0.931 . S
C124 C123 1.385 . S
C124 C125 1.389 . S
C125 C124 1.389 . S
C125 C126 1.387 . S
C126 H111 0.930 1_545 S
C126 C121 1.390 1_545 S
C126 C125 1.387 . S
H127 C139 0.930 . S
H128 C141 0.930 . S
H129 C142 0.930 . S
H130 C146 0.959 . S
H131 C146 0.959 . S
H132 C146 0.961 . S
H133 C147 0.960 . S
H134 C147 0.961 . S
H135 C147 0.959 . S
H136 C150 0.929 . S
H137 C151 0.931 . S
H138 C153 0.930 . S
C139 H127 0.930 . S
C139 C140 1.399 . S
C139 C144 1.399 . S
C140 C139 1.399 . S
C140 C141 1.376 . S
C141 H128 0.930 . S
C141 C140 1.376 . S
C141 C142 1.388 . S
C142 H129 0.930 . S
C142 C141 1.388 . S
C142 C143 1.390 . S
C143 C142 1.390 . S
C143 C144 1.394 . S
C143 C149 1.465 . S
C144 C139 1.399 . S
C144 C143 1.394 . S
C144 C145 1.516 . S
C145 C144 1.516 . S
C145 C146 1.502 . S
C145 C147 1.561 . S
C145 C148 1.526 . S
C146 H130 0.959 . S
C146 H131 0.959 . S
C146 H132 0.961 . S
C146 C145 1.502 . S
C147 H133 0.960 . S
C147 H134 0.961 . S
C147 H135 0.959 . S
C147 C145 1.561 . S
C148 C145 1.526 . S
C148 C149 1.396 . S
C148 C153 1.390 . S
C149 C143 1.465 . S
C149 C148 1.396 . S
C149 C150 1.399 . S
C150 H136 0.929 . S
C150 C149 1.399 . S
C150 C151 1.385 . S
C151 H137 0.931 . S
C151 C150 1.385 . S
C151 C152 1.389 . S
C152 C151 1.389 . S
C152 C153 1.387 . S
C153 H138 0.930 . S
C153 C148 1.390 . S
C153 C152 1.387 . S
H154 C166 0.930 . S
H155 C168 0.930 . S
H156 C169 0.930 . S
H157 C173 0.959 . S
H158 C173 0.959 . S
H159 C173 0.976 . S
H160 C174 0.960 . S
H161 C174 0.961 . S
H162 C174 0.959 . S
H163 C177 0.929 . S
H164 C178 0.931 . S
H165 C180 0.930 . S
C166 H154 0.930 . S
C166 C167 1.399 . S
C166 C171 1.399 1_655 S
C167 C166 1.399 . S
C167 C168 1.376 . S
C168 H155 0.930 . S
C168 C167 1.376 . S
C168 C169 1.388 . S
C169 H156 0.930 . S
C169 C168 1.388 . S
C169 C170 1.390 1_655 S
C170 C169 1.390 1_455 S
C170 C171 1.394 . S
C170 C176 1.465 1_554 S
C171 C166 1.399 1_455 S
C171 C170 1.394 . S
C171 C172 1.516 . S
C172 C171 1.516 . S
C172 C173 1.502 1_554 S
C172 C174 1.561 . S
C172 C175 1.526 1_554 S
C173 H157 0.959 . S
C173 H158 0.959 . S
C173 H159 0.976 . S
C173 C172 1.502 1_556 S
C174 H160 0.960 . S
C174 H161 0.961 . S
C174 H162 0.959 . S
C174 C172 1.561 . S
C175 C172 1.526 1_556 S
C175 C176 1.396 . S
C175 C180 1.390 . S
C176 C170 1.465 1_556 S
C176 C175 1.396 . S
C176 C177 1.399 . S
C177 H163 0.929 . S
C177 C176 1.399 . S
C177 C178 1.385 . S
C178 H164 0.931 . S
C178 C177 1.385 . S
C178 C179 1.389 . S
C179 C178 1.389 . S
C179 C180 1.387 . S
C180 H165 0.930 . S
C180 C175 1.390 . S
C180 C179 1.387 . S
H181 C193 0.930 1_545 S
H182 C195 0.930 . S
H183 C196 0.930 . S
H184 C200 0.959 . S
H185 C200 0.959 . S
H186 C200 0.961 . S
H187 C201 0.960 . S
H188 C201 0.961 . S
H189 C201 0.959 . S
H190 C204 0.929 1_565 S
H191 C205 0.931 . S
H192 C207 0.930 . S
C193 H181 0.930 1_565 S
C193 C194 1.399 . S
C193 C198 1.399 1_565 S
C194 C193 1.399 . S
C194 C195 1.376 . S
C195 H182 0.930 . S
C195 C194 1.376 . S
C195 C196 1.388 . S
C196 H183 0.930 . S
C196 C195 1.388 . S
C196 C197 1.390 . S
C197 C196 1.390 . S
C197 C198 1.394 1_565 S
C197 C203 1.465 1_565 S
C198 C193 1.399 1_545 S
C198 C197 1.394 1_545 S
C198 C199 1.516 . S
C199 C198 1.516 . S
C199 C200 1.502 . S
C199 C201 1.561 . S
C199 C202 1.526 . S
C200 H184 0.959 . S
C200 H185 0.959 . S
C200 H186 0.961 . S
C200 C199 1.502 . S
C201 H187 0.960 . S
C201 H188 0.961 . S
C201 H189 0.959 . S
C201 C199 1.561 . S
C202 C199 1.526 . S
C202 C203 1.396 . S
C202 C207 1.390 . S
C203 C197 1.465 1_545 S
C203 C202 1.396 . S
C203 C204 1.399 . S
C204 H190 0.929 1_545 S
C204 C203 1.399 . S
C204 C205 1.385 . S
C205 H191 0.931 . S
C205 C204 1.385 . S
C205 C206 1.389 . S
C206 C205 1.389 . S
C206 C207 1.387 . S
C207 H192 0.930 . S
C207 C202 1.390 . S
C207 C206 1.387 . S
H208 C220 0.930 . S
H209 C222 0.930 . S
H210 C223 0.930 . S
H211 C227 0.959 . S
H212 C227 0.959 . S
H213 C227 0.961 . S
H214 C228 0.960 . S
H215 C228 0.961 . S
H216 C228 0.959 . S
H217 C231 0.926 1_554 S
H218 C232 0.931 . S
H219 C234 0.930 . S
C220 H208 0.930 . S
C220 C221 1.399 . S
C220 C225 1.399 . S
C221 C220 1.399 . S
C221 C222 1.376 . S
C222 H209 0.930 . S
C222 C221 1.376 . S
C222 C223 1.388 . S
C223 H210 0.930 . S
C223 C222 1.388 . S
C223 C224 1.390 . S
C224 C223 1.390 . S
C224 C225 1.394 . S
C224 C230 1.472 . S
C225 C220 1.399 . S
C225 C224 1.394 . S
C225 C226 1.516 1_554 S
C226 C225 1.516 1_556 S
C226 C227 1.502 . S
C226 C228 1.561 . S
C226 C229 1.526 . S
C227 H211 0.959 . S
C227 H212 0.959 . S
C227 H213 0.961 . S
C227 C226 1.502 . S
C228 H214 0.960 . S
C228 H215 0.961 . S
C228 H216 0.959 . S
C228 C226 1.561 . S
C229 C226 1.526 . S
C229 C230 1.389 1_556 S
C229 C234 1.390 . S
C230 C224 1.472 . S
C230 C229 1.389 1_554 S
C230 C231 1.399 1_554 S
C231 H217 0.926 1_556 S
C231 C230 1.399 1_556 S
C231 C232 1.389 . S
C232 H218 0.931 . S
C232 C231 1.389 . S
C232 C233 1.389 . S
C233 C232 1.389 . S
C233 C234 1.387 . S
C234 H219 0.930 . S
C234 C229 1.390 . S
C234 C233 1.387 . S
H235 C247 0.930 . S
H236 C249 0.930 . S
H237 C250 0.930 . S
H238 C254 0.959 . S
H239 C254 0.959 . S
H240 C254 0.961 . S
H241 C255 0.960 . S
H242 C255 0.961 . S
H243 C255 0.959 . S
H244 C258 0.929 . S
H245 C259 0.931 . S
H246 C261 0.930 . S
C247 H235 0.930 . S
C247 C248 1.399 . S
C247 C252 1.399 . S
C248 C247 1.399 . S
C248 C249 1.376 . S
C249 H236 0.930 . S
C249 C248 1.376 . S
C249 C250 1.388 . S
C250 H237 0.930 . S
C250 C249 1.388 . S
C250 C251 1.390 . S
C251 C250 1.390 . S
C251 C252 1.394 . S
C251 C257 1.465 . S
C252 C247 1.399 . S
C252 C251 1.394 . S
C252 C253 1.516 . S
C253 C252 1.516 . S
C253 C254 1.502 1_655 S
C253 C255 1.561 . S
C253 C256 1.526 1_655 S
C254 H238 0.959 . S
C254 H239 0.959 . S
C254 H240 0.961 . S
C254 C253 1.502 1_455 S
C255 H241 0.960 . S
C255 H242 0.961 . S
C255 H243 0.959 . S
C255 C253 1.561 . S
C256 C253 1.526 1_455 S
C256 C257 1.396 1_455 S
C256 C261 1.390 . S
C257 C251 1.465 . S
C257 C256 1.396 1_655 S
C257 C258 1.399 . S
C258 H244 0.929 . S
C258 C257 1.399 . S
C258 C259 1.385 1_655 S
C259 H245 0.931 . S
C259 C258 1.385 1_455 S
C259 C260 1.389 . S
C260 C259 1.389 . S
C260 C261 1.387 . S
C261 H246 0.930 . S
C261 C256 1.390 . S
C261 C260 1.387 . S
H262 C274 0.930 . S
H263 C276 0.930 . S
H264 C277 0.930 . S
H265 C281 0.959 . S
H266 C281 0.959 . S
H267 C281 0.961 . S
H268 C282 0.960 . S
H269 C282 0.961 . S
H270 C282 0.959 . S
H271 C285 0.929 . S
H272 C286 0.931 . S
H273 C288 0.930 . S
C274 H262 0.930 . S
C274 C275 1.399 1_565 S
C274 C279 1.399 . S
C275 C274 1.399 1_545 S
C275 C276 1.376 . S
C276 H263 0.930 . S
C276 C275 1.376 . S
C276 C277 1.388 1_545 S
C277 H264 0.930 . S
C277 C276 1.388 1_565 S
C277 C278 1.390 . S
C278 C277 1.390 . S
C278 C279 1.394 . S
C278 C284 1.465 . S
C279 C274 1.399 . S
C279 C278 1.394 . S
C279 C280 1.516 . S
C280 C279 1.516 . S
C280 C281 1.502 . S
C280 C282 1.561 . S
C280 C283 1.526 . S
C281 H265 0.959 . S
C281 H266 0.959 . S
C281 H267 0.961 . S
C281 C280 1.502 . S
C282 H268 0.960 . S
C282 H269 0.961 . S
C282 H270 0.959 . S
C282 C280 1.561 . S
C283 C280 1.526 . S
C283 C284 1.396 . S
C283 C288 1.390 . S
C284 C278 1.465 . S
C284 C283 1.396 . S
C284 C285 1.399 . S
C285 H271 0.929 . S
C285 C284 1.399 . S
C285 C286 1.385 . S
C286 H272 0.931 . S
C286 C285 1.385 . S
C286 C287 1.389 . S
C287 C286 1.389 . S
C287 C288 1.387 . S
C288 H273 0.930 . S
C288 C283 1.390 . S
C288 C287 1.387 . S
H289 C301 0.930 . S
H290 C303 0.930 . S
H291 C304 0.930 . S
H292 C308 0.959 . S
H293 C308 0.959 . S
H294 C308 0.961 . S
H295 C309 0.960 . S
H296 C309 0.961 . S
H297 C309 0.959 . S
H298 C312 0.929 . S
H299 C313 0.931 . S
H300 C315 0.930 . S
C301 H289 0.930 . S
C301 C302 1.399 1_655 S
C301 C306 1.399 . S
C302 C301 1.399 1_455 S
C302 C303 1.376 . S
C303 H290 0.930 . S
C303 C302 1.376 . S
C303 C304 1.388 1_455 S
C304 H291 0.930 . S
C304 C303 1.388 1_655 S
C304 C305 1.390 . S
C305 C304 1.390 . S
C305 C306 1.394 . S
C305 C311 1.465 . S
C306 C301 1.399 . S
C306 C305 1.394 . S
C306 C307 1.516 . S
C307 C306 1.516 . S
C307 C308 1.502 . S
C307 C309 1.561 . S
C307 C310 1.526 . S
C308 H292 0.959 . S
C308 H293 0.959 . S
C308 H294 0.961 . S
C308 C307 1.502 . S
C309 H295 0.960 . S
C309 H296 0.961 . S
C309 H297 0.959 . S
C309 C307 1.561 . S
C310 C307 1.526 . S
C310 C311 1.396 . S
C310 C315 1.390 . S
C311 C305 1.465 . S
C311 C310 1.396 . S
C311 C312 1.399 . S
C312 H298 0.929 . S
C312 C311 1.399 . S
C312 C313 1.385 . S
C313 H299 0.931 . S
C313 C312 1.385 . S
C313 C314 1.389 . S
C314 C313 1.389 . S
C314 C315 1.387 . S
C315 H300 0.930 . S
C315 C310 1.390 . S
C315 C314 1.387 . S
H316 C328 0.930 1_545 S
H317 C330 0.930 1_545 S
H318 C331 0.930 . S
H319 C335 0.959 . S
H320 C335 0.959 . S
H321 C335 0.961 . S
H322 C336 0.960 . S
H323 C336 0.961 . S
H324 C336 0.959 . S
H325 C339 0.929 . S
H326 C340 0.931 . S
H327 C342 0.930 . S
C328 H316 0.930 1_565 S
C328 C329 1.399 1_565 S
C328 C333 1.399 . S
C329 C328 1.399 1_545 S
C329 C330 1.376 1_545 S
C330 H317 0.930 1_565 S
C330 C329 1.376 1_565 S
C330 C331 1.388 . S
C331 H318 0.930 . S
C331 C330 1.388 . S
C331 C332 1.390 . S
C332 C331 1.390 . S
C332 C333 1.394 . S
C332 C338 1.465 . S
C333 C328 1.399 . S
C333 C332 1.394 . S
C333 C334 1.516 . S
C334 C333 1.516 . S
C334 C335 1.502 . S
C334 C336 1.561 . S
C334 C337 1.526 . S
C335 H319 0.959 . S
C335 H320 0.959 . S
C335 H321 0.961 . S
C335 C334 1.502 . S
C336 H322 0.960 . S
C336 H323 0.961 . S
C336 H324 0.959 . S
C336 C334 1.561 . S
C337 C334 1.526 . S
C337 C338 1.396 . S
C337 C342 1.390 . S
C338 C332 1.465 . S
C338 C337 1.396 . S
C338 C339 1.399 . S
C339 H325 0.929 . S
C339 C338 1.399 . S
C339 C340 1.385 . S
C340 H326 0.931 . S
C340 C339 1.385 . S
C340 C341 1.389 1_455 S
C341 C340 1.389 1_655 S
C341 C342 1.387 1_655 S
C342 H327 0.930 . S
C342 C337 1.390 . S
C342 C341 1.387 1_455 S
H343 C355 0.930 . S
H344 C357 0.930 . S
H345 C358 0.930 . S
H346 C362 0.959 . S
H347 C362 0.959 . S
H348 C362 0.961 . S
H349 C363 0.960 . S
H350 C363 0.961 . S
H351 C363 0.959 . S
H352 C366 0.929 . S
H353 C367 0.931 . S
H354 C369 0.930 . S
C355 H343 0.930 . S
C355 C356 1.399 . S
C355 C360 1.399 . S
C356 C355 1.399 . S
C356 C357 1.376 . S
C357 H344 0.930 . S
C357 C356 1.376 . S
C357 C358 1.388 . S
C358 H345 0.930 . S
C358 C357 1.388 . S
C358 C359 1.390 . S
C359 C358 1.390 . S
C359 C360 1.394 . S
C359 C365 1.465 . S
C360 C355 1.399 . S
C360 C359 1.394 . S
C360 C361 1.516 . S
C361 C360 1.516 . S
C361 C362 1.502 . S
C361 C363 1.561 . S
C361 C364 1.526 . S
C362 H346 0.959 . S
C362 H347 0.959 . S
C362 H348 0.961 . S
C362 C361 1.502 . S
C363 H349 0.960 . S
C363 H350 0.961 . S
C363 H351 0.959 . S
C363 C361 1.561 . S
C364 C361 1.526 . S
C364 C365 1.396 . S
C364 C369 1.390 . S
C365 C359 1.465 . S
C365 C364 1.396 . S
C365 C366 1.399 . S
C366 H352 0.929 . S
C366 C365 1.399 . S
C366 C367 1.385 1_545 S
C367 H353 0.931 . S
C367 C366 1.385 1_565 S
C367 C368 1.389 . S
C368 C367 1.389 . S
C368 C369 1.387 1_565 S
C369 H354 0.930 . S
C369 C364 1.390 . S
C369 C368 1.387 1_545 S
H370 C382 0.930 . S
H371 C384 0.930 . S
H372 C385 0.930 . S
H373 C389 0.959 . S
H374 C389 0.959 . S
H375 C389 0.961 . S
H376 C390 0.960 . S
H377 C390 0.961 . S
H378 C390 0.959 . S
H379 C393 0.929 . S
H380 C394 0.931 1_655 S
H381 C396 0.930 1_655 S
C382 H370 0.930 . S
C382 C383 1.399 . S
C382 C387 1.399 . S
C383 C382 1.399 . S
C383 C384 1.376 . S
C384 H371 0.930 . S
C384 C383 1.376 . S
C384 C385 1.388 . S
C385 H372 0.930 . S
C385 C384 1.388 . S
C385 C386 1.390 . S
C386 C385 1.390 . S
C386 C387 1.394 . S
C386 C392 1.465 . S
C387 C382 1.399 . S
C387 C386 1.394 . S
C387 C388 1.516 . S
C388 C387 1.516 . S
C388 C389 1.502 . S
C388 C390 1.561 . S
C388 C391 1.526 . S
C389 H373 0.959 . S
C389 H374 0.959 . S
C389 H375 0.961 . S
C389 C388 1.502 . S
C390 H376 0.960 . S
C390 H377 0.961 . S
C390 H378 0.959 . S
C390 C388 1.561 . S
C391 C388 1.526 . S
C391 C392 1.396 . S
C391 C396 1.390 . S
C392 C386 1.465 . S
C392 C391 1.396 . S
C392 C393 1.399 . S
C393 H379 0.929 . S
C393 C392 1.399 . S
C393 C394 1.385 . S
C394 H380 0.931 1_455 S
C394 C393 1.385 . S
C394 C395 1.389 1_455 S
C395 C394 1.389 1_655 S
C395 C396 1.387 1_655 S
C396 H381 0.930 1_455 S
C396 C391 1.390 . S
C396 C395 1.387 1_455 S
H397 C409 0.930 . S
H398 C411 0.930 . S
H399 C412 0.930 . S
H400 C416 0.959 . S
H401 C416 0.959 . S
H402 C416 0.961 . S
H403 C417 0.960 . S
H404 C417 0.961 . S
H405 C417 0.959 . S
H406 C420 0.929 . S
H407 C421 0.931 1_565 S
H408 C423 0.930 1_565 S
C409 H397 0.930 . S
C409 C410 1.399 . S
C409 C414 1.399 . S
C410 C409 1.399 . S
C410 C411 1.377 . S
C411 H398 0.930 . S
C411 C410 1.377 . S
C411 C412 1.388 . S
C412 H399 0.930 . S
C412 C411 1.388 . S
C412 C413 1.390 . S
C413 C412 1.390 . S
C413 C414 1.394 . S
C413 C419 1.465 . S
C414 C409 1.399 . S
C414 C413 1.394 . S
C414 C415 1.516 . S
C415 C414 1.516 . S
C415 C416 1.502 . S
C415 C417 1.561 . S
C415 C418 1.526 . S
C416 H400 0.959 . S
C416 H401 0.959 . S
C416 H402 0.961 . S
C416 C415 1.502 . S
C417 H403 0.960 . S
C417 H404 0.961 . S
C417 H405 0.959 . S
C417 C415 1.561 . S
C418 C415 1.526 . S
C418 C419 1.396 . S
C418 C423 1.390 . S
C419 C413 1.465 . S
C419 C418 1.396 . S
C419 C420 1.399 . S
C420 H406 0.929 . S
C420 C419 1.399 . S
C420 C421 1.385 . S
C421 H407 0.931 1_545 S
C421 C420 1.385 . S
C421 C422 1.389 1_545 S
C422 C421 1.389 1_565 S
C422 C423 1.387 1_565 S
C423 H408 0.930 1_545 S
C423 C418 1.390 . S
C423 C422 1.387 1_545 S
C113 C51 1.676 . S
C125 C16 1.811 . S
C140 C68 1.807 . S
C152 C31 1.691 . S
C167 C22 1.803 . S
C179 C72 1.740 . S
C194 C81 1.809 . S
C206 C48 1.681 . S
C221 C49 1.815 . S
C233 C50 1.720 . S
C248 C17 1.690 . S
C260 C91 1.820 . S
C275 C34 1.122 . S
C287 C19 1.163 . S
C302 C84 1.162 . S
C314 C69 1.128 . S
C329 C41 1.131 . S
C341 C0 1.147 . S
C356 C99 1.164 . S
C368 C98 1.120 . S
C383 C18 1.162 . S
C395 C1 1.141 . S
C410 C66 1.162 1_655 S
C422 C67 1.141 . S
