# Generated by pormake.
# Topology ecn, (8)-cn, num edge types: 1
# Building blocks:
#     Node 0, Type 0, BuildingBlock: TAGTUT_clean_sbu_1, # of connection points: 8
#     Node 1, Type 0, BuildingBlock: TAGTUT_clean_sbu_1, # of connection points: 8
#     Node 2, Type 0, BuildingBlock: TAGTUT_clean_sbu_1, # of connection points: 8
#     Node 3, Type 0, BuildingBlock: TAGTUT_clean_sbu_1, # of connection points: 8
#     Node 4, Type 0, BuildingBlock: TAGTUT_clean_sbu_1, # of connection points: 8
#     Node 5, Type 0, BuildingBlock: TAGTUT_clean_sbu_1, # of connection points: 8
#     Node 6, Type 0, BuildingBlock: TAGTUT_clean_sbu_1, # of connection points: 8
#     Node 7, Type 0, BuildingBlock: TAGTUT_clean_sbu_1, # of connection points: 8
#     Node 8, Type 0, BuildingBlock: TAGTUT_clean_sbu_1, # of connection points: 8
#     Edge 9, Type (0, 0), BuildingBlock: ZUJKAS_clean_linker_0, # of connection points: 2
#     Edge 10, Type (0, 0), BuildingBlock: ZUJKAS_clean_linker_0, # of connection points: 2
#     Edge 11, Type (0, 0), BuildingBlock: ZUJKAS_clean_linker_0, # of connection points: 2
#     Edge 12, Type (0, 0), BuildingBlock: ZUJKAS_clean_linker_0, # of connection points: 2
#     Edge 13, Type (0, 0), BuildingBlock: ZUJKAS_clean_linker_0, # of connection points: 2
#     Edge 14, Type (0, 0), BuildingBlock: ZUJKAS_clean_linker_0, # of connection points: 2
#     Edge 15, Type (0, 0), BuildingBlock: ZUJKAS_clean_linker_0, # of connection points: 2
#     Edge 16, Type (0, 0), BuildingBlock: ZUJKAS_clean_linker_0, # of connection points: 2
#     Edge 17, Type (0, 0), BuildingBlock: ZUJKAS_clean_linker_0, # of connection points: 2
#     Edge 18, Type (0, 0), BuildingBlock: ZUJKAS_clean_linker_0, # of connection points: 2
#     Edge 19, Type (0, 0), BuildingBlock: ZUJKAS_clean_linker_0, # of connection points: 2
#     Edge 20, Type (0, 0), BuildingBlock: ZUJKAS_clean_linker_0, # of connection points: 2
#     Edge 21, Type (0, 0), BuildingBlock: ZUJKAS_clean_linker_0, # of connection points: 2
#     Edge 22, Type (0, 0), BuildingBlock: ZUJKAS_clean_linker_0, # of connection points: 2
#     Edge 23, Type (0, 0), BuildingBlock: ZUJKAS_clean_linker_0, # of connection points: 2
#     Edge 24, Type (0, 0), BuildingBlock: ZUJKAS_clean_linker_0, # of connection points: 2
#     Edge 25, Type (0, 0), BuildingBlock: ZUJKAS_clean_linker_0, # of connection points: 2
#     Edge 26, Type (0, 0), BuildingBlock: ZUJKAS_clean_linker_0, # of connection points: 2
#     Edge 27, Type (0, 0), BuildingBlock: ZUJKAS_clean_linker_0, # of connection points: 2
#     Edge 28, Type (0, 0), BuildingBlock: ZUJKAS_clean_linker_0, # of connection points: 2
#     Edge 29, Type (0, 0), BuildingBlock: ZUJKAS_clean_linker_0, # of connection points: 2
#     Edge 30, Type (0, 0), BuildingBlock: ZUJKAS_clean_linker_0, # of connection points: 2
#     Edge 31, Type (0, 0), BuildingBlock: ZUJKAS_clean_linker_0, # of connection points: 2
#     Edge 32, Type (0, 0), BuildingBlock: ZUJKAS_clean_linker_0, # of connection points: 2
#     Edge 33, Type (0, 0), BuildingBlock: ZUJKAS_clean_linker_0, # of connection points: 2
#     Edge 34, Type (0, 0), BuildingBlock: ZUJKAS_clean_linker_0, # of connection points: 2
#     Edge 35, Type (0, 0), BuildingBlock: ZUJKAS_clean_linker_0, # of connection points: 2
#     Edge 36, Type (0, 0), BuildingBlock: ZUJKAS_clean_linker_0, # of connection points: 2
#     Edge 37, Type (0, 0), BuildingBlock: ZUJKAS_clean_linker_0, # of connection points: 2
#     Edge 38, Type (0, 0), BuildingBlock: ZUJKAS_clean_linker_0, # of connection points: 2
#     Edge 39, Type (0, 0), BuildingBlock: ZUJKAS_clean_linker_0, # of connection points: 2
#     Edge 40, Type (0, 0), BuildingBlock: ZUJKAS_clean_linker_0, # of connection points: 2
#     Edge 41, Type (0, 0), BuildingBlock: ZUJKAS_clean_linker_0, # of connection points: 2
#     Edge 42, Type (0, 0), BuildingBlock: ZUJKAS_clean_linker_0, # of connection points: 2
#     Edge 43, Type (0, 0), BuildingBlock: ZUJKAS_clean_linker_0, # of connection points: 2
#     Edge 44, Type (0, 0), BuildingBlock: ZUJKAS_clean_linker_0, # of connection points: 2
# Relax obj value: 0.105
# Max RMSD: 0.220
# Mean RMSD: 0.212
data_MOF--net-ecn--node1-TAGTUT_clean_sbu_1--edge1-ZUJKAS_clean_linker_0
_symmetry_space_group_name_H-M    P1
_symmetry_Int_Tables_number       1
_symmetry_cell_setting            triclinic
loop_
_symmetry_equiv_pos_as_xyz
'x, y, z'
_cell_length_a     64.411318
_cell_length_b     63.324407
_cell_length_c     18.687011
_cell_angle_alpha  90.243066
_cell_angle_beta   89.463377
_cell_angle_gamma 118.20279
loop_
_atom_site_label
_atom_site_type_symbol
_atom_site_fract_x
_atom_site_fract_y
_atom_site_fract_z
_atom_type_partial_charge
C0 C 0.03276 0.19902 0.03485 0.0
C1 C 0.05743 0.15937 0.15869 0.0
C2 C 0.13184 0.24797 0.21568 0.0
Mg3 Mg 0.06908 0.18078 0.00706 0.0
O4 O 0.08953 0.21082 0.04497 0.0
Mg5 Mg 0.08114 0.22019 0.13884 0.0
Mg6 Mg 0.12336 0.22046 0.06379 0.0
O7 O 0.15723 0.23032 0.0828 0.0
Mg8 Mg 0.17718 0.26109 0.1171 0.0
Mg9 Mg 0.16599 0.22105 -0.01075 0.0
C10 C 0.11464 0.19477 0.9077 0.0
C11 C 0.13017 0.17292 0.07708 0.0
O12 O 0.04552 0.21118 0.08756 0.0
O13 O 0.03844 0.18618 -0.00599 0.0
O14 O 0.06346 0.18049 0.18308 0.0
O15 O 0.0605 0.15586 0.09301 0.0
O16 O 0.09239 0.18172 0.91942 0.0
O17 O 0.12802 0.21108 0.9516 0.0
C18 C 0.1168 0.26825 0.04887 0.0
O19 O 0.12943 0.25818 0.03204 0.0
O20 O 0.09848 0.25778 0.08918 0.0
O21 O 0.20227 0.23033 0.04268 0.0
O22 O 0.20727 0.25532 0.13462 0.0
O23 O 0.18171 0.25978 0.94227 0.0
C24 C 0.21396 0.24252 0.0973 0.0
O25 O 0.18408 0.28507 0.02918 0.0
O26 O 0.15391 0.26135 0.20243 0.0
C27 C 0.18627 0.28076 0.96364 0.0
O28 O 0.11877 0.22998 0.17628 0.0
O29 O 0.11715 0.18259 0.09372 0.0
O30 O 0.14892 0.18394 0.03896 0.0
C31 C 0.77308 0.80291 0.08512 0.0
C32 C 0.73495 0.83163 0.96015 0.0
C33 C 0.81675 0.90955 0.9176 0.0
Mg34 Mg 0.75295 0.83829 0.11397 0.0
O35 O 0.78352 0.86015 0.08516 0.0
Mg36 Mg 0.79402 0.85459 -0.01092 0.0
Mg37 Mg 0.79225 0.89484 0.07641 0.0
O38 O 0.8003 0.92942 0.06707 0.0
Mg39 Mg 0.82862 0.95269 0.02798 0.0
Mg40 Mg 0.79082 0.9343 0.16511 0.0
C41 C 0.76321 0.88042 0.22503 0.0
C42 C 0.74436 0.90023 0.06922 0.0
O43 O 0.78577 0.81653 0.03357 0.0
O44 O 0.75951 0.80812 0.12352 0.0
O45 O 0.75613 0.83791 0.93985 0.0
O46 O 0.72983 0.83238 0.02582 0.0
O47 O 0.75054 0.85856 0.20507 0.0
O48 O 0.78172 0.8952 0.19052 0.0
C49 C 0.84027 0.88958 0.08329 0.0
O50 O 0.82992 0.90159 0.10479 0.0
O51 O 0.83022 0.87174 0.04053 0.0
O52 O 0.79855 0.97188 0.12903 0.0
O53 O 0.82224 0.98367 0.03202 0.0
O54 O 0.83045 0.95171 0.20604 0.0
C55 C 0.80982 0.98725 0.07995 0.0
O56 O 0.85358 0.95844 0.10921 0.0
O57 O 0.82786 0.93214 0.93204 0.0
C58 C 0.85094 0.95907 0.17684 0.0
O59 O 0.80252 0.89409 0.96249 0.0
O60 O 0.75498 0.88853 0.04735 0.0
O61 O 0.75386 0.91744 0.11466 0.0
C62 C 0.20574 0.97545 -0.00352 0.0
C63 C 0.17675 0.90415 0.90018 0.0
C64 C 0.09959 0.89507 0.86173 0.0
Mg65 Mg 0.17436 0.92324 0.04909 0.0
O66 O 0.15073 0.93033 0.0208 0.0
Mg67 Mg 0.15246 0.94105 0.91895 0.0
Mg68 Mg 0.11761 0.90378 0.02398 0.0
O69 O 0.08476 0.87636 0.02678 0.0
Mg70 Mg 0.05936 0.87638 0.98067 0.0
Mg71 Mg 0.08333 0.86697 0.12802 0.0
C72 C 0.13757 0.89655 0.17389 0.0
C73 C 0.11781 0.85277 0.0331 0.0
O74 O 0.19041 0.97239 0.94799 0.0
O75 O 0.20275 0.95893 0.04121 0.0
O76 O 0.16946 0.91814 0.87429 0.0
O77 O 0.17811 0.90182 0.96734 0.0
O78 O 0.15861 0.9051 0.14861 0.0
O79 O 0.12105 0.89834 0.14096 0.0
C80 C 0.11767 0.95472 0.01525 0.0
O81 O 0.10837 0.93385 0.044 0.0
O82 O 0.13407 0.96134 0.96753 0.0
O83 O 0.04677 0.83479 0.10653 0.0
O84 O 0.03168 0.84062 0.00546 0.0
O85 O 0.06422 0.89026 0.15467 0.0
C86 C 0.03043 0.82778 0.05968 0.0
O87 O 0.05516 0.90116 0.04939 0.0
O88 O 0.07767 0.88236 0.87778 0.0
C89 C 0.05606 0.90189 0.11786 0.0
O90 O 0.11445 0.90936 0.90668 0.0
O91 O 0.12651 0.87357 0.00397 0.0
O92 O 0.10222 0.84626 0.08352 0.0
C93 C 0.69213 0.53105 0.38624 0.0
C94 C 0.71736 0.49123 0.51215 0.0
C95 C 0.79075 0.57795 0.57354 0.0
Mg96 Mg 0.72857 0.51277 0.36027 0.0
O97 O 0.74896 0.54289 0.39767 0.0
Mg98 Mg 0.74029 0.55176 0.49218 0.0
Mg99 Mg 0.78249 0.55175 0.41868 0.0
O100 O 0.81602 0.56053 0.44059 0.0
Mg101 Mg 0.83648 0.59073 0.47743 0.0
Mg102 Mg 0.8252 0.55112 0.34818 0.0
C103 C 0.7746 0.52541 0.26466 0.0
C104 C 0.78732 0.50326 0.4325 0.0
O105 O 0.70453 0.54277 0.44021 0.0
O106 O 0.69833 0.5187 0.34499 0.0
O107 O 0.72304 0.51223 0.5367 0.0
O108 O 0.72005 0.48784 0.44615 0.0
O109 O 0.75225 0.51279 0.27546 0.0
O110 O 0.78787 0.54233 0.30711 0.0
C111 C 0.7766 0.59984 0.40293 0.0
O112 O 0.78943 0.58984 0.38759 0.0
O113 O 0.75798 0.58932 0.44211 0.0
O114 O 0.86089 0.55929 0.40326 0.0
O115 O 0.86611 0.5841 0.49576 0.0
O116 O 0.84233 0.59011 0.30263 0.0
C117 C 0.87259 0.57118 0.45818 0.0
O118 O 0.84439 0.61515 0.39025 0.0
O119 O 0.81304 0.59081 0.56256 0.0
C120 C 0.84715 0.6111 0.32487 0.0
O121 O 0.77761 0.56111 0.53076 0.0
O122 O 0.77458 0.51337 0.44689 0.0
O123 O 0.80678 0.51385 0.39742 0.0
C124 C 0.43999 0.13448 0.41826 0.0
C125 C 0.40269 0.16517 0.29726 0.0
C126 C 0.48815 0.24242 0.26472 0.0
Mg127 Mg 0.42021 0.16991 0.4519 0.0
O128 O 0.4507 0.19187 0.42242 0.0
Mg129 Mg 0.46157 0.18705 0.32636 0.0
Mg130 Mg 0.45974 0.2266 0.41576 0.0
O131 O 0.46832 0.2614 0.40944 0.0
Mg132 Mg 0.49734 0.28492 0.37508 0.0
Mg133 Mg 0.4583 0.26532 0.50797 0.0
C134 C 0.43215 0.21073 0.56853 0.0
C135 C 0.41217 0.23261 0.4093 0.0
O136 O 0.4527 0.14844 0.36739 0.0
O137 O 0.42656 0.13955 0.45779 0.0
O138 O 0.42393 0.17179 0.27664 0.0
O139 O 0.39741 0.16489 0.36339 0.0
O140 O 0.41912 0.18893 0.54856 0.0
O141 O 0.44902 0.22595 0.52945 0.0
C142 C 0.50738 0.22064 0.42317 0.0
O143 O 0.49713 0.23269 0.44522 0.0
O144 O 0.49741 0.20316 0.37915 0.0
O145 O 0.46688 0.30346 0.47466 0.0
O146 O 0.49065 0.31573 0.37801 0.0
O147 O 0.49708 0.28169 0.55321 0.0
C148 C 0.47826 0.31918 0.42643 0.0
O149 O 0.52142 0.29029 0.45891 0.0
O150 O 0.49937 0.26476 0.28204 0.0
C151 C 0.51789 0.28959 0.52632 0.0
O152 O 0.47098 0.22687 0.30235 0.0
O153 O 0.42258 0.22086 0.38597 0.0
O154 O 0.42182 0.24939 0.45589 0.0
C155 C 0.87417 0.30826 0.32632 0.0
C156 C 0.84688 0.2357 0.24084 0.0
C157 C 0.76889 0.24399 0.18517 0.0
Mg158 Mg 0.84158 0.25655 0.38369 0.0
O159 O 0.81856 0.26251 0.3422 0.0
Mg160 Mg 0.82257 0.2732 0.2406 0.0
Mg161 Mg 0.78575 0.23548 0.33686 0.0
O162 O 0.75274 0.20808 0.33325 0.0
Mg163 Mg 0.72821 0.21281 0.29854 0.0
Mg164 Mg 0.75003 0.19674 0.43511 0.0
C165 C 0.80196 0.23531 0.50223 0.0
C166 C 0.78692 0.18495 0.34343 0.0
O167 O 0.85978 0.30484 0.27458 0.0
O168 O 0.87021 0.29212 0.37341 0.0
O169 O 0.84034 0.24956 0.20946 0.0
O170 O 0.84666 0.23383 0.3089 0.0
O171 O 0.82408 0.24482 0.4875 0.0
O172 O 0.78651 0.22957 0.45324 0.0
C173 C 0.78512 0.28605 0.32269 0.0
O174 O 0.77559 0.26531 0.35252 0.0
O175 O 0.80271 0.29305 0.27913 0.0
O176 O 0.7142 0.16531 0.40289 0.0
O177 O 0.69999 0.17584 0.30743 0.0
O178 O 0.72957 0.21714 0.47424 0.0
C179 C 0.69837 0.16053 0.35509 0.0
O180 O 0.72189 0.23323 0.37848 0.0
O181 O 0.74701 0.23378 0.20413 0.0
C182 C 0.72183 0.23044 0.44592 0.0
O183 O 0.78482 0.24197 0.22063 0.0
O184 O 0.79603 0.20622 0.31795 0.0
O185 O 0.77011 0.17738 0.38982 0.0
C186 C 0.36369 0.86606 0.71228 0.0
C187 C 0.38755 0.8228 0.82346 0.0
C188 C 0.46435 0.91011 0.88803 0.0
Mg189 Mg 0.39883 0.84682 0.67496 0.0
O190 O 0.41991 0.8757 0.71812 0.0
Mg191 Mg 0.41227 0.88406 0.81402 0.0
Mg192 Mg 0.45361 0.88431 0.73345 0.0
O193 O 0.48752 0.89301 0.7476 0.0
Mg194 Mg 0.50817 0.92335 0.78206 0.0
Mg195 Mg 0.49519 0.88478 0.65058 0.0
C196 C 0.44323 0.86543 0.56848 0.0
C197 C 0.45886 0.83565 0.73425 0.0
O198 O 0.3767 0.87696 0.76598 0.0
O199 O 0.36882 0.8536 0.66822 0.0
O200 O 0.39411 0.84358 0.85155 0.0
O201 O 0.3902 0.82026 0.7566 0.0
O202 O 0.42118 0.85136 0.5805 0.0
O203 O 0.45738 0.87749 0.61848 0.0
C204 C 0.44813 0.93287 0.72764 0.0
O205 O 0.46041 0.92266 0.70843 0.0
O206 O 0.43 0.9223 0.76865 0.0
O207 O 0.53177 0.89218 0.70009 0.0
O208 O 0.53792 0.91696 0.79349 0.0
O209 O 0.51194 0.92406 0.6077 0.0
C210 C 0.54402 0.90408 0.75441 0.0
O211 O 0.51488 0.94856 0.69759 0.0
O212 O 0.48622 0.92297 0.87134 0.0
C213 C 0.51701 0.94494 0.63142 0.0
O214 O 0.45 0.8925 0.84918 0.0
O215 O 0.44653 0.8456 0.75561 0.0
O216 O 0.47735 0.84686 0.69518 0.0
C217 C 0.10974 0.47135 0.75125 0.0
C218 C 0.07102 0.4996 0.6257 0.0
C219 C 0.15161 0.57985 0.5992 0.0
Mg220 Mg 0.08669 0.50407 0.78208 0.0
O221 O 0.11707 0.52756 0.75783 0.0
Mg222 Mg 0.12981 0.52435 0.66277 0.0
Mg223 Mg 0.12438 0.56192 0.75379 0.0
O224 O 0.13151 0.59627 0.74887 0.0
Mg225 Mg 0.16048 0.62025 0.71524 0.0
Mg226 Mg 0.12177 0.5989 0.84868 0.0
C227 C 0.09415 0.54343 0.9001 0.0
C228 C 0.07589 0.56614 0.7488 0.0
O229 O 0.1227 0.48612 0.70227 0.0
O230 O 0.09501 0.47503 0.78892 0.0
O231 O 0.09268 0.50732 0.60776 0.0
O232 O 0.06483 0.49865 0.69112 0.0
O233 O 0.08236 0.52188 0.87654 0.0
O234 O 0.11244 0.55943 0.86726 0.0
C235 C 0.17369 0.5594 0.76443 0.0
O236 O 0.16191 0.56989 0.78569 0.0
O237 O 0.16547 0.5421 0.71936 0.0
O238 O 0.12972 0.6372 0.81996 0.0
O239 O 0.15423 0.65116 0.72521 0.0
O240 O 0.16105 0.61506 0.89234 0.0
C241 C 0.14135 0.65364 0.77392 0.0
O242 O 0.18466 0.6236 0.79612 0.0
O243 O 0.16188 0.60218 0.61667 0.0
C244 C 0.18162 0.62249 0.86377 0.0
O245 O 0.13663 0.56354 0.64057 0.0
O246 O 0.08675 0.555 0.72372 0.0
O247 O 0.08526 0.58266 0.79646 0.0
C248 C 0.53679 0.64076 0.64799 0.0
C249 C 0.51069 0.57179 0.53989 0.0
C250 C 0.43156 0.5741 0.49302 0.0
Mg251 Mg 0.50493 0.58763 0.69012 0.0
O252 O 0.48139 0.59464 0.65955 0.0
Mg253 Mg 0.48503 0.60784 0.56017 0.0
Mg254 Mg 0.4484 0.56784 0.65291 0.0
O255 O 0.41553 0.54075 0.64552 0.0
Mg256 Mg 0.3911 0.54511 0.60763 0.0
Mg257 Mg 0.41234 0.5284 0.74519 0.0
C258 C 0.46529 0.55618 0.80243 0.0
C259 C 0.44886 0.51685 0.65074 0.0
O260 O 0.52212 0.63858 0.59824 0.0
O261 O 0.5333 0.62351 0.69039 0.0
O262 O 0.5032 0.58574 0.51487 0.0
O263 O 0.51119 0.5686 0.60686 0.0
O264 O 0.48705 0.56625 0.78307 0.0
O265 O 0.44957 0.55886 0.76785 0.0
C266 C 0.44767 0.61862 0.65278 0.0
O267 O 0.43814 0.59715 0.67751 0.0
O268 O 0.46522 0.62655 0.60884 0.0
O269 O 0.37619 0.49799 0.71197 0.0
O270 O 0.36243 0.50849 0.61577 0.0
O271 O 0.39325 0.55062 0.78449 0.0
C272 C 0.36049 0.49326 0.66394 0.0
O273 O 0.3851 0.56574 0.6869 0.0
O274 O 0.40943 0.56271 0.5086 0.0
C275 C 0.38527 0.56362 0.75474 0.0
O276 O 0.44742 0.57658 0.53822 0.0
O277 O 0.4584 0.53848 0.6274 0.0
O278 O 0.43176 0.50895 0.6964 0.0
H279 H 0.23266 0.21491 0.04002 0.0
H280 H 0.26478 0.20887 0.08808 0.0
H281 H 0.27456 0.25891 0.25786 0.0
H282 H 0.24261 0.26502 0.21088 0.0
H283 H 0.313 0.24232 0.11642 0.0
H284 H 0.26447 0.19786 0.36451 0.0
H285 H 0.25006 0.2018 0.28714 0.0
H286 H 0.26553 0.22626 0.34804 0.0
C287 C 0.24174 0.22478 0.0873 0.0
C288 C 0.23484 0.24035 0.12173 0.0
C289 C 0.26008 0.22125 0.11476 0.0
C290 C 0.27175 0.23305 0.17741 0.0
C291 C 0.26547 0.2492 0.21036 0.0
H292 H 0.38421 0.25223 0.45092 0.0
H293 H 0.34942 0.24925 0.39148 0.0
C294 C 0.24724 0.25278 0.18301 0.0
C295 C 0.29046 0.22861 0.20897 0.0
H296 H 0.3058 0.21078 0.36311 0.0
C297 C 0.31135 0.23512 0.16996 0.0
C298 C 0.28823 0.2191 0.27872 0.0
C299 C 0.26578 0.21062 0.32188 0.0
C300 C 0.33052 0.23355 0.20027 0.0
C301 C 0.32856 0.22482 0.27105 0.0
C302 C 0.30734 0.21752 0.30899 0.0
C303 C 0.3489 0.22498 0.30886 0.0
C304 C 0.35307 0.24234 0.15752 0.0
C305 C 0.35989 0.21176 0.28351 0.0
C306 C 0.37997 0.21347 0.31749 0.0
C307 C 0.38936 0.22833 0.37775 0.0
C308 C 0.37764 0.2407 0.40455 0.0
C309 C 0.35767 0.23901 0.37059 0.0
H310 H 0.3533 0.25299 0.11015 0.0
H311 H 0.36856 0.25354 0.1912 0.0
H312 H 0.35495 0.22672 0.13825 0.0
H313 H 0.35316 0.20039 0.23687 0.0
H314 H 0.3885 0.20371 0.29527 0.0
H315 H 0.78524 0.14467 0.4036 0.0
H316 H 0.79413 0.11513 0.34437 0.0
H317 H 0.8124 0.1569 0.15026 0.0
H318 H 0.80339 0.18621 0.20857 0.0
H319 H 0.78059 0.10894 0.12958 0.0
H320 H 0.85787 0.11935 0.28391 0.0
H321 H 0.83302 0.11423 0.33951 0.0
H322 H 0.84727 0.14114 0.28695 0.0
C323 C 0.79147 0.14768 0.34866 0.0
C324 C 0.79402 0.16794 0.31115 0.0
C325 C 0.79667 0.1309 0.315 0.0
C326 C 0.80428 0.13404 0.24323 0.0
C327 C 0.80677 0.15424 0.2058 0.0
H328 H 0.84448 0.03209 0.04207 0.0
H329 H 0.84504 0.07046 0.06899 0.0
C330 C 0.80175 0.17104 0.23945 0.0
C331 C 0.80792 0.1154 0.20554 0.0
H332 H 0.83833 0.08358 0.21291 0.0
C333 C 0.79344 0.10361 0.14718 0.0
C334 C 0.82498 0.10878 0.22767 0.0
C335 C 0.84185 0.12169 0.28749 0.0
C336 C 0.79465 0.08446 0.11294 0.0
C337 C 0.81063 0.07681 0.13811 0.0
C338 C 0.82603 0.08944 0.19387 0.0
C339 C 0.80969 0.05414 0.11322 0.0
C340 C 0.77846 0.0722 0.05111 0.0
C341 C 0.78956 0.03241 0.12826 0.0
C342 C 0.78927 0.01069 0.11347 0.0
C343 C 0.80908 0.01021 0.08303 0.0
C344 C 0.82889 0.03196 0.06476 0.0
C345 C 0.82928 0.05383 0.08052 0.0
H346 H 0.77263 0.08421 0.02498 0.0
H347 H 0.7872 0.06616 0.01043 0.0
H348 H 0.76255 0.05621 0.07122 0.0
H349 H 0.7744 0.03224 0.15441 0.0
H350 H 0.77376 0.99421 0.12819 0.0
H351 H 0.98634 0.81223 0.00363 0.0
H352 H 0.95045 0.77515 0.03336 0.0
H353 H 0.99086 0.75326 0.1681 0.0
H354 H 0.02649 0.79038 0.14058 0.0
H355 H 0.93626 0.72681 0.02121 0.0
H356 H 0.9419 0.75284 0.30604 0.0
H357 H 0.95994 0.7735 0.2375 0.0
H358 H 0.96827 0.75256 0.27583 0.0
C359 C 0.98757 0.79941 0.03916 0.0
C360 C 0.00917 0.8044 0.07073 0.0
C361 C 0.96707 0.77825 0.05604 0.0
C362 C 0.9679 0.76175 0.10432 0.0
C363 C 0.98969 0.76607 0.13235 0.0
H364 H 0.87368 0.61534 0.20552 0.0
H365 H 0.89954 0.65231 0.14215 0.0
C366 C 0.01007 0.78728 0.11637 0.0
C367 C 0.94603 0.74048 0.12825 0.0
H368 H 0.91634 0.71167 0.2793 0.0
C369 C 0.93166 0.72356 0.07754 0.0
C370 C 0.93968 0.73659 0.20153 0.0
C371 C 0.95312 0.75497 0.25823 0.0
C372 C 0.91174 0.70227 0.09866 0.0
C373 C 0.90648 0.69757 0.17251 0.0
C374 C 0.92034 0.71505 0.22267 0.0
C375 C 0.88765 0.67435 0.20036 0.0
C376 C 0.89655 0.68518 0.0416 0.0
C377 C 0.87214 0.6742 0.25397 0.0
C378 C 0.85801 0.65327 0.29202 0.0
C379 C 0.85859 0.63186 0.27601 0.0
C380 C 0.87268 0.63152 0.21861 0.0
C381 C 0.88736 0.65267 0.18185 0.0
H382 H 0.89734 0.69489 -0.0086 0.0
H383 H 0.90319 0.67229 0.02903 0.0
H384 H 0.87788 0.67499 0.05927 0.0
H385 H 0.87193 0.69063 0.26919 0.0
H386 H 0.84735 0.65412 0.336 0.0
H387 H 0.74702 0.76895 0.18448 0.0
H388 H 0.75209 0.73527 0.22514 0.0
H389 H 0.80842 0.75322 0.07192 0.0
H390 H 0.80376 0.78756 0.03127 0.0
H391 H 0.74849 0.69586 0.152 0.0
H392 H 0.83889 0.74974 0.25999 0.0
H393 H 0.8206 0.76307 0.23567 0.0
H394 H 0.83494 0.75447 0.16742 0.0
C395 C 0.7605 0.76583 0.15898 0.0
C396 C 0.77508 0.78118 0.10471 0.0
C397 C 0.76335 0.74647 0.18242 0.0
C398 C 0.78088 0.7419 0.15251 0.0
C399 C 0.79508 0.75669 0.09686 0.0
H400 H 0.80544 0.62185 0.28747 0.0
H401 H 0.80925 0.65706 0.22194 0.0
C402 C 0.79225 0.77619 0.07321 0.0
C403 C 0.78388 0.72155 0.18048 0.0
H404 H 0.82104 0.70791 0.2762 0.0
C405 C 0.76446 0.69849 0.17846 0.0
C406 C 0.80475 0.72495 0.21493 0.0
C407 C 0.82598 0.74938 0.22033 0.0
C408 C 0.76505 0.67896 0.2117 0.0
C409 C 0.78553 0.68255 0.24858 0.0
C410 C 0.80536 0.7053 0.24804 0.0
C411 C 0.78574 0.66314 0.29224 0.0
C412 C 0.74356 0.65464 0.20853 0.0
C413 C 0.77195 0.65547 0.35472 0.0
C414 C 0.76996 0.63563 0.39262 0.0
C415 C 0.78174 0.62298 0.36885 0.0
C416 C 0.7964 0.63136 0.30783 0.0
C417 C 0.79848 0.65137 0.27002 0.0
H418 H 0.73139 0.65365 0.16535 0.0
H419 H 0.7487 0.64037 0.19969 0.0
H420 H 0.73389 0.65099 0.26029 0.0
H421 H 0.76215 0.66447 0.37305 0.0
H422 H 0.75858 0.62976 0.43941 0.0
H423 H 0.24123 0.98681 0.09152 0.0
H424 H 0.27527 0.02528 0.11243 0.0
H425 H 0.25441 0.05643 0.94099 0.0
H426 H 0.21938 0.01755 0.92043 0.0
H427 H 0.31207 0.05296 0.02633 0.0
H428 H 0.26301 0.10195 0.10677 0.0
H429 H 0.24867 0.06977 0.09778 0.0
H430 H 0.25707 0.0884 0.01947 0.0
C431 C 0.24369 1.0017 0.05782 0.0
C432 C 0.22732 0.99897 0.00442 0.0
C433 C 0.26333 0.02379 0.06988 0.0
C434 C 0.26735 0.04388 0.02894 0.0
C435 C 0.25146 0.04128 0.97418 0.0
H436 H 0.40574 0.16277 0.15052 0.0
H437 H 0.37372 0.13846 0.06862 0.0
C438 C 0.23155 0.019 0.96213 0.0
C439 C 0.28818 0.06724 0.04586 0.0
H440 H 0.30387 0.12166 0.12324 0.0
C441 C 0.31041 0.06821 0.04634 0.0
C442 C 0.28592 0.08706 0.07217 0.0
C443 C 0.26241 0.08686 0.07466 0.0
C444 C 0.33004 0.08755 0.07702 0.0
C445 C 0.32763 0.10704 0.10584 0.0
C446 C 0.30575 0.1068 0.10098 0.0
C447 C 0.34645 0.12583 0.15033 0.0
C448 C 0.35262 0.08594 0.08314 0.0
C449 C 0.34155 0.12842 0.22223 0.0
C450 C 0.35968 0.1427 0.26873 0.0
C451 C 0.38323 0.15454 0.2446 0.0
C452 C 0.38788 0.15355 0.17123 0.0
C453 C 0.36959 0.1395 0.12439 0.0
H454 H 0.34997 0.0676 0.07158 0.0
H455 H 0.36573 0.09836 0.04407 0.0
H456 H 0.36009 0.09107 0.13763 0.0
H457 H 0.32384 0.11828 0.24359 0.0
H458 H 0.35532 0.14323 0.32459 0.0
H459 H 0.02414 0.23648 0.05438 0.0
H460 H 0.98566 0.235 0.06433 0.0
H461 H 0.95172 0.16019 0.00664 0.0
H462 H 0.99049 0.16172 -0.00533 0.0
H463 H 0.92878 0.18973 0.95534 0.0
H464 H 0.94813 0.1956 0.24528 0.0
H465 H 0.97121 0.21885 0.1937 0.0
H466 H 0.96431 0.18811 0.17953 0.0
C467 C 1.00852 0.21988 0.04185 0.0
C468 C 0.01017 0.19913 0.02472 0.0
C469 C 0.98659 0.21908 0.0474 0.0
C470 C 0.96594 0.1974 0.03736 0.0
C471 C 0.96752 0.17706 0.01456 0.0
H472 H 0.85119 0.19662 0.2804 0.0
H473 H 0.87368 0.17985 0.21977 0.0
C474 C 0.98962 0.17796 0.0078 0.0
C475 C 0.94325 0.19557 0.06138 0.0
H476 H 0.91744 0.20408 0.2104 0.0
C477 C 0.92597 0.19246 0.01118 0.0
C478 C 0.93942 0.19844 0.1345 0.0
C479 C 0.95663 0.20019 0.19153 0.0
C480 C 0.90548 0.19363 0.03203 0.0
C481 C 0.90268 0.19864 0.10442 0.0
C482 C 0.91945 0.20035 0.1548 0.0
C483 C 0.88382 0.20416 0.12956 0.0
C484 C 0.88719 0.18958 0.97633 0.0
C485 C 0.88092 0.22261 0.09734 0.0
C486 C 0.86729 0.23169 0.13085 0.0
C487 C 0.857 0.22301 0.19826 0.0
C488 C 0.85892 0.20374 0.22852 0.0
C489 C 0.87179 0.19412 0.19386 0.0
H490 H 0.88701 0.17706 0.9342 0.0
H491 H 0.86928 0.18222 0.0003 0.0
H492 H 0.8916 0.20687 0.94991 0.0
H493 H 0.89048 0.23118 0.04889 0.0
H494 H 0.8663 0.24668 0.1065 0.0
H495 H 0.90102 0.59244 0.57336 0.0
H496 H 0.93405 0.58719 0.61543 0.0
H497 H 0.92474 0.53931 0.43967 0.0
H498 H 0.89167 0.54456 0.39655 0.0
H499 H 0.93281 0.54368 0.65648 0.0
H500 H 0.99575 0.58687 0.43111 0.0
H501 H 0.97027 0.59122 0.44567 0.0
H502 H 0.96691 0.56377 0.40715 0.0
C503 C 0.90605 0.58094 0.54303 0.0
C504 C 0.8936 0.56899 0.48127 0.0
C505 C 0.92495 0.57791 0.56739 0.0
C506 C 0.93204 0.56302 0.53047 0.0
C507 C 0.91986 0.5512 0.46846 0.0
H508 H 0.0524 0.53806 0.63288 0.0
H509 H 0.01595 0.53366 0.57885 0.0
C510 C 0.90087 0.55417 0.44402 0.0
C511 C 0.95168 0.55939 0.55875 0.0
H512 H 1.00813 0.57038 0.52377 0.0
C513 C 0.94923 0.54941 0.62726 0.0
C514 C 0.97303 0.56661 0.52036 0.0
C515 C 0.97686 0.57788 0.44719 0.0
C516 C 0.96764 0.54687 0.65895 0.0
C517 C 0.98933 0.55497 0.62183 0.0
C518 C 0.99152 0.56417 0.55224 0.0
C519 C 0.01053 0.55604 0.65668 0.0
C520 C 0.96367 0.53556 0.73212 0.0
C521 C 0.01959 0.56998 0.71841 0.0
C522 C 0.04029 0.57248 0.74939 0.0
C523 C 0.05264 0.56123 0.71917 0.0
C524 C 0.04332 0.54687 0.65791 0.0
C525 C 0.02253 0.54442 0.62674 0.0
H526 H 0.94465 0.52349 0.74263 0.0
H527 H 0.97341 0.52516 0.73812 0.0
H528 H 0.97001 0.54986 0.77338 0.0
H529 H 0.01098 0.57953 0.74174 0.0
H530 H 0.04688 0.58375 0.7963 0.0
H531 H 0.47435 0.52254 0.52806 0.0
H532 H 0.48419 0.49354 0.47079 0.0
H533 H 0.44882 0.44342 0.64163 0.0
H534 H 0.43954 0.4726 0.70057 0.0
H535 H 0.50733 0.46371 0.54215 0.0
H536 H 0.41658 0.41369 0.43461 0.0
H537 H 0.42999 0.44516 0.45725 0.0
H538 H 0.419 0.42297 0.52673 0.0
C539 C 0.46931 0.50566 0.55467 0.0
C540 C 0.45646 0.50004 0.61947 0.0
C541 C 0.47477 0.48905 0.52147 0.0
C542 C 0.46717 0.46642 0.55203 0.0
C543 C 0.45481 0.46087 0.61737 0.0
H544 H 0.4501 0.32952 0.51273 0.0
H545 H 0.44995 0.36743 0.52785 0.0
C546 C 0.4495 0.47753 0.65088 0.0
C547 C 0.47074 0.44786 0.51408 0.0
H548 H 0.44001 0.39394 0.43105 0.0
C549 C 0.49282 0.44859 0.51666 0.0
C550 C 0.45179 0.42849 0.4801 0.0
C551 C 0.42799 0.42746 0.47376 0.0
C552 C 0.49594 0.42937 0.4908 0.0
C553 C 0.47648 0.40918 0.46104 0.0
C554 C 0.45488 0.40937 0.45411 0.0
C555 C 0.47685 0.38624 0.44772 0.0
C556 C 0.51954 0.43014 0.49961 0.0
C557 C 0.49186 0.38402 0.39662 0.0
C558 C 0.49211 0.36209 0.38785 0.0
C559 C 0.47729 0.34212 0.42999 0.0
C560 C 0.4619 0.34444 0.47952 0.0
C561 C 0.46172 0.36618 0.48823 0.0
H562 H 0.53176 0.44562 0.53259 0.0
H563 H 0.51736 0.41337 0.52492 0.0
H564 H 0.52779 0.43169 0.44617 0.0
H565 H 0.50341 0.3992 0.36388 0.0
H566 H 0.50413 0.3609 0.34914 0.0
H567 H 0.53918 0.94837 0.50294 0.0
H568 H 0.56498 0.98521 0.43828 0.0
H569 H 0.54549 0.02584 0.58456 0.0
H570 H 0.52051 0.98931 0.65134 0.0
H571 H 0.56317 0.0236 0.37132 0.0
H572 H 0.61541 0.05229 0.6212 0.0
H573 H 0.59154 0.02241 0.60933 0.0
H574 H 0.58551 0.04665 0.63176 0.0
C575 C 0.54 0.96507 0.52052 0.0
C576 C 0.52818 0.96598 0.58319 0.0
C577 C 0.55474 0.98612 0.48338 0.0
C578 C 0.55766 0.00836 0.50779 0.0
C579 C 0.544 0.00896 0.56595 0.0
H580 H 0.65298 0.14878 0.31856 0.0
H581 H 0.61732 0.11128 0.34708 0.0
C582 C 0.52964 0.98803 0.60391 0.0
C583 C 0.57698 0.03091 0.47827 0.0
H584 H 0.62857 0.07946 0.52531 0.0
C585 C 0.57746 0.0359 0.40486 0.0
C586 C 0.59582 0.04672 0.52197 0.0
C587 C 0.59726 0.04171 0.60026 0.0
C588 C 0.59634 0.05628 0.37406 0.0
C589 C 0.61498 0.07219 0.41814 0.0
C590 C 0.61427 0.06728 0.49154 0.0
C591 C 0.63613 0.09351 0.39 0.0
C592 C 0.59653 0.06021 0.29448 0.0
C593 C 0.65854 0.09594 0.40377 0.0
C594 C 0.67878 0.11737 0.3888 0.0
C595 C 0.67711 0.13683 0.35897 0.0
C596 C 0.65478 0.13399 0.34096 0.0
C597 C 0.6344 0.11253 0.35704 0.0
H598 H 0.58413 0.04361 0.2661 0.0
H599 H 0.59109 0.07413 0.28414 0.0
H600 H 0.61448 0.06656 0.27164 0.0
H601 H 0.66034 0.08151 0.42893 0.0
H602 H 0.69575 0.11897 0.40279 0.0
H603 H 0.47038 0.11919 0.36165 0.0
H604 H 0.47498 0.08456 0.3999 0.0
H605 H 0.41933 0.06643 0.55567 0.0
H606 H 0.41427 0.10029 0.51736 0.0
H607 H 0.48683 0.0749 0.53335 0.0
H608 H 0.39905 1.00276 0.45816 0.0
H609 H 0.41049 0.03302 0.42526 0.0
H610 H 0.39663 0.02496 0.51221 0.0
C611 C 0.45886 0.10758 0.40321 0.0
C612 C 0.44185 0.11254 0.43601 0.0
C613 C 0.4616 0.08786 0.42526 0.0
C614 C 0.44726 0.07265 0.47995 0.0
C615 C 0.43023 0.07752 0.51224 0.0
H616 H 0.43017 0.96261 0.7675 0.0
H617 H 0.4331 0.9973 0.70243 0.0
C618 C 0.42746 0.09707 0.49036 0.0
C619 C 0.45046 0.05223 0.50631 0.0
H620 H 0.41944 0.99281 0.5488 0.0
C621 C 0.47225 0.05684 0.53553 0.0
C622 C 0.4315 0.0286 0.50864 0.0
C623 C 0.4082 0.02198 0.47365 0.0
C624 C 0.47508 0.03876 0.57083 0.0
C625 C 0.45563 0.0156 0.57708 0.0
C626 C 0.43424 0.01072 0.54487 0.0
C627 C 0.45648 0.99639 0.62011 0.0
C628 C 0.49845 0.04469 0.60404 0.0
C629 C 0.46902 0.98462 0.59604 0.0
C630 C 0.46732 0.96465 0.63311 0.0
C631 C 0.45308 0.95615 0.69495 0.0
C632 C 0.44132 0.96864 0.72025 0.0
C633 C 0.44295 0.98848 0.68307 0.0
H634 H 0.51111 0.06413 0.60086 0.0
H635 H 0.49591 0.03907 0.66106 0.0
H636 H 0.50628 0.03463 0.57594 0.0
H637 H 0.47934 0.99026 0.54708 0.0
H638 H 0.47625 0.95522 0.61134 0.0
H639 H 0.02343 0.47986 0.64642 0.0
H640 H 0.99259 0.45409 0.56483 0.0
H641 H 0.0444 0.46883 0.39809 0.0
H642 H 0.07575 0.49399 0.48095 0.0
H643 H 0.97487 0.456 0.43761 0.0
H644 H 0.01763 0.39761 0.41742 0.0
H645 H 0.0277 0.42243 0.4788 0.0
H646 H 0.03489 0.42765 0.38508 0.0
C647 C 0.02838 0.47793 0.59219 0.0
C648 C 0.05223 0.48853 0.57101 0.0
C649 C 0.01061 0.4632 0.5453 0.0
C650 C 0.01615 0.45885 0.47583 0.0
C651 C 0.03972 0.47125 0.45216 0.0
H652 H 0.89061 0.34918 0.24236 0.0
H653 H 0.92611 0.38776 0.26224 0.0
C654 C 0.05763 0.48582 0.49948 0.0
C655 C 0.99745 0.43958 0.4322 0.0
H656 H 0.98047 0.38333 0.3668 0.0
C657 C 0.9762 0.44025 0.42097 0.0
C658 C 0.99912 0.41892 0.41081 0.0
C659 C 0.02094 0.41639 0.42398 0.0
C660 C 0.95626 0.42041 0.39292 0.0
C661 C 0.95774 0.39949 0.37411 0.0
C662 C 0.97939 0.39941 0.38106 0.0
C663 C 0.93647 0.37631 0.35838 0.0
C664 C 0.93338 0.42143 0.38818 0.0
C665 C 0.93077 0.35692 0.40454 0.0
C666 C 0.91084 0.33499 0.39301 0.0
C667 C 0.89585 0.33171 0.33486 0.0
C668 C 0.90168 0.35106 0.28777 0.0
C669 C 0.92188 0.37318 0.29935 0.0
H670 H 0.93433 0.43754 0.41504 0.0
H671 H 0.92904 0.42191 0.3311 0.0
H672 H 0.91878 0.40522 0.41284 0.0
H673 H 0.94167 0.35882 0.45049 0.0
H674 H 0.90712 0.32065 0.43064 0.0
H675 H 0.51841 0.57721 0.39385 0.0
H676 H 0.54057 0.56224 0.3208 0.0
H677 H 0.54812 0.52588 0.50567 0.0
H678 H 0.52574 0.53989 0.57724 0.0
H679 H 0.58437 0.57516 0.33937 0.0
H680 H 0.54005 0.47737 0.36124 0.0
H681 H 0.52509 0.49443 0.3849 0.0
H682 H 0.54239 0.48874 0.45011 0.0
C683 C 0.52427 0.56548 0.41822 0.0
C684 C 0.52061 0.56009 0.49168 0.0
C685 C 0.53687 0.55687 0.37639 0.0
C686 C 0.54581 0.54261 0.40727 0.0
C687 C 0.54092 0.53619 0.4796 0.0
H688 H 0.6765 0.55933 0.45253 0.0
H689 H 0.6399 0.56061 0.43328 0.0
C690 C 0.52838 0.54465 0.52104 0.0
C691 C 0.56372 0.53802 0.36964 0.0
H692 H 0.58431 0.49727 0.36702 0.0
C693 C 0.58397 0.55788 0.34299 0.0
C694 C 0.56325 0.51543 0.37229 0.0
C695 C 0.54134 0.49282 0.39297 0.0
C696 C 0.6046 0.55641 0.3278 0.0
C697 C 0.60512 0.53471 0.34103 0.0
C698 C 0.58411 0.51412 0.35879 0.0
C699 C 0.62775 0.53416 0.34857 0.0
C700 C 0.62609 0.57857 0.30196 0.0
C701 C 0.63288 0.51836 0.30855 0.0
C702 C 0.65396 0.51747 0.31975 0.0
C703 C 0.67003 0.53213 0.37189 0.0
C704 C 0.66465 0.54781 0.41182 0.0
C705 C 0.64377 0.54874 0.40043 0.0
H706 H 0.62101 0.59004 0.26957 0.0
H707 H 0.63607 0.58924 0.34883 0.0
H708 H 0.63786 0.57393 0.2693 0.0
H709 H 0.62059 0.50674 0.2689 0.0
H710 H 0.6575 0.5051 0.2883 0.0
H711 H 0.56143 0.87506 0.69788 0.0
H712 H 0.59407 0.86934 0.74411 0.0
H713 H 0.6066 0.92206 0.90778 0.0
H714 H 0.57443 0.92797 0.86258 0.0
H715 H 0.64404 0.90515 0.76975 0.0
H716 H 0.59572 0.8603 0.01788 0.0
H717 H 0.58108 0.86298 0.93911 0.0
H718 H 0.59558 0.88801 -0.00127 0.0
C719 C 0.57127 0.8856 0.74329 0.0
C720 C 0.56508 0.90185 0.77668 0.0
C721 C 0.58988 0.88226 0.76972 0.0
C722 C 0.60246 0.89496 0.83023 0.0
C723 C 0.59685 0.91174 0.86189 0.0
H724 H 0.71482 0.91825 0.10937 0.0
H725 H 0.67977 0.9139 0.04773 0.0
C726 C 0.57844 0.91515 0.83558 0.0
C727 C 0.62135 0.89081 0.86166 0.0
H728 H 0.63726 0.8745 0.01749 0.0
C729 C 0.64249 0.89808 0.82343 0.0
C730 C 0.61925 0.88157 0.9317 0.0
C731 C 0.59662 0.87255 0.97416 0.0
C732 C 0.66206 0.8976 0.85493 0.0
C733 C 0.66023 0.88919 0.92612 0.0
C734 C 0.63873 0.88103 0.96312 0.0
C735 C 0.68084 0.89038 0.9651 0.0
C736 C 0.68485 0.90725 0.81303 0.0
C737 C 0.69284 0.8781 0.9404 0.0
C738 C 0.71304 0.88065 0.97551 0.0
C739 C 0.72152 0.89531 0.03654 0.0
C740 C 0.70889 0.90683 0.06258 0.0
C741 C 0.68879 0.90435 0.02735 0.0
H742 H 0.6848 0.91773 0.76556 0.0
H743 H 0.70004 0.91886 0.84719 0.0
H744 H 0.68749 0.89207 0.79391 0.0
H745 H 0.68679 0.8668 0.89341 0.0
H746 H 0.72239 0.87167 0.95355 0.0
H747 H 0.17392 0.69886 0.72989 0.0
H748 H 0.17363 0.73672 0.7583 0.0
H749 H 0.10617 0.69727 0.86337 0.0
H750 H 0.10625 0.65973 0.83525 0.0
H751 H 0.11049 0.73585 0.77363 0.0
H752 H 0.18358 0.76258 0.9688 0.0
H753 H 0.18862 0.7555 0.87905 0.0
H754 H 0.16743 0.73233 0.93541 0.0
C755 C 0.15887 0.69831 0.7579 0.0
C756 C 0.14021 0.67635 0.7809 0.0
C757 C 0.15882 0.71991 0.77456 0.0
C758 C 0.14002 0.71973 0.81382 0.0
C759 C 0.12089 0.69778 0.83336 0.0
H760 H 0.11663 0.81314 0.09619 0.0
H761 H 0.12398 0.78241 0.03791 0.0
C762 C 0.121 0.67635 0.81735 0.0
C763 C 0.14034 0.74215 0.83826 0.0
H764 H 0.16497 0.78672 0.96268 0.0
C765 C 0.12261 0.74722 0.81417 0.0
C766 C 0.15599 0.75668 0.89188 0.0
C767 C 0.17494 0.75156 0.92092 0.0
C768 C 0.11969 0.76609 0.8436 0.0
C769 C 0.13509 0.78037 0.89811 0.0
C770 C 0.15321 0.7757 0.92093 0.0
C771 C 0.13198 0.79958 0.93402 0.0
C772 C 0.09954 0.76994 0.81828 0.0
C773 C 0.13437 0.81947 0.8951 0.0
C774 C 0.13025 0.83695 0.92816 0.0
C775 C 0.12384 0.83499 0.00098 0.0
C776 C 0.12171 0.81519 0.0402 0.0
C777 C 0.12594 0.7977 0.00704 0.0
H778 H 0.08643 0.75435 0.78751 0.0
H779 H 0.09042 0.77325 0.86426 0.0
H780 H 0.10652 0.78589 0.78288 0.0
H781 H 0.13928 0.82141 0.83896 0.0
H782 H 0.13172 0.85183 0.89617 0.0
H783 H 0.18811 0.32447 0.97942 0.0
H784 H 0.20982 0.36 0.90561 0.0
H785 H 0.2305 0.31941 0.76263 0.0
H786 H 0.20758 0.28341 0.83401 0.0
H787 H 0.25472 0.3803 0.89588 0.0
H788 H 0.22126 0.36057 0.61963 0.0
H789 H 0.20507 0.34191 0.69447 0.0
H790 H 0.22818 0.33799 0.65145 0.0
C791 C 0.19668 0.32291 0.93103 0.0
C792 C 0.19623 0.30113 0.91281 0.0
C793 C 0.20911 0.34327 0.88881 0.0
C794 C 0.2218 0.34248 0.82823 0.0
C795 C 0.22043 0.32046 0.80794 0.0
H796 H 0.35744 0.45168 0.7128 0.0
H797 H 0.32173 0.41488 0.74246 0.0
C798 C 0.20748 0.29988 0.84932 0.0
C799 C 0.2393 0.3652 0.7939 0.0
H800 H 0.26153 0.39245 0.63288 0.0
C801 C 0.25582 0.38303 0.83841 0.0
C802 C 0.24081 0.36903 0.71894 0.0
C803 C 0.22269 0.35143 0.66853 0.0
C804 C 0.27428 0.404 0.81018 0.0
C805 C 0.27681 0.40702 0.73515 0.0
C806 C 0.25975 0.38985 0.69039 0.0
C807 C 0.29792 0.42737 0.70362 0.0
C808 C 0.29122 0.42261 0.86116 0.0
C809 C 0.29632 0.44604 0.66811 0.0
C810 C 0.31684 0.46713 0.6502 0.0
C811 C 0.33908 0.46975 0.66827 0.0
C812 C 0.34053 0.45029 0.69912 0.0
C813 C 0.32016 0.42926 0.71608 0.0
H814 H 0.28329 0.42087 0.91529 0.0
H815 H 0.30712 0.42019 0.86654 0.0
H816 H 0.29687 0.44102 0.841 0.0
H817 H 0.27927 0.44484 0.65792 0.0
H818 H 0.31523 0.48187 0.62654 0.0
H819 H 0.14396 0.28991 0.93038 0.0
H820 H 0.14972 0.32698 0.87218 0.0
H821 H 0.10627 0.33572 0.03418 0.0
H822 H 0.10098 0.29926 0.09336 0.0
H823 H 0.1151 0.33571 0.81521 0.0
H824 H 0.16234 0.40226 0.02626 0.0
H825 H 0.15981 0.37261 0.0264 0.0
H826 H 0.13611 0.3774 0.06046 0.0
C827 C 0.13616 0.30009 0.9546 0.0
C828 C 0.12226 0.29177 0.01706 0.0
C829 C 0.1393 0.32116 0.92093 0.0
C830 C 0.12872 0.33436 0.94935 0.0
C831 C 0.11508 0.3262 0.01212 0.0
H832 H 0.0856 0.43697 0.85167 0.0
H833 H 0.09302 0.40457 0.89095 0.0
C834 C 0.11194 0.30521 0.04568 0.0
C835 C 0.13037 0.35571 0.91143 0.0
H836 H 0.14183 0.41356 0.93941 0.0
C837 C 0.12142 0.3529 0.8417 0.0
C838 C 0.13875 0.3782 0.9458 0.0
C839 C 0.15003 0.3829 0.01857 0.0
C840 C 0.11925 0.37151 0.80744 0.0
C841 C 0.12627 0.39342 0.84376 0.0
C842 C 0.1363 0.39664 0.91189 0.0
C843 C 0.12129 0.41237 0.81526 0.0
C844 C 0.10834 0.3673 0.73426 0.0
C845 C 0.1346 0.42739 0.75883 0.0
C846 C 0.13046 0.44616 0.73603 0.0
C847 C 0.11292 0.45018 0.76938 0.0
C848 C 0.09928 0.43456 0.8246 0.0
C849 C 0.1035 0.41599 0.84738 0.0
H850 H 0.10258 0.34877 0.71476 0.0
H851 H 0.0929 0.37065 0.73551 0.0
H852 H 0.12131 0.38009 0.69554 0.0
H853 H 0.14851 0.42492 0.7336 0.0
H854 H 0.14135 0.45784 0.69358 0.0
H855 H 0.73493 0.81095 0.83111 0.0
H856 H 0.70054 0.78469 0.76064 0.0
H857 H 0.6562 0.80072 0.90075 0.0
H858 H 0.6903 0.82592 0.97355 0.0
H859 H 0.63984 0.75527 0.89357 0.0
H860 H 0.6577 0.78838 0.61536 0.0
H861 H 0.68145 0.78412 0.64871 0.0
H862 H 0.67496 0.80621 0.68951 0.0
C863 C 0.71796 0.8094 0.84581 0.0
C864 C 0.71536 0.82039 0.90837 0.0
C865 C 0.69825 0.79446 0.80501 0.0
C866 C 0.67565 0.79073 0.82485 0.0
C867 C 0.67338 0.80319 0.88427 0.0
H868 H 0.54474 0.68617 0.61121 0.0
H869 H 0.57812 0.72443 0.64839 0.0
C870 C 0.69294 0.81768 0.92585 0.0
C871 C 0.6542 0.77128 0.79103 0.0
H872 H 0.629 0.74645 0.63071 0.0
C873 C 0.63737 0.75369 0.83609 0.0
C874 C 0.65065 0.7691 0.71603 0.0
C875 C 0.66705 0.78813 0.66476 0.0
C876 C 0.61776 0.73364 0.80849 0.0
C877 C 0.61513 0.73058 0.73351 0.0
C878 C 0.63126 0.74862 0.68818 0.0
C879 C 0.59644 0.70802 0.70241 0.0
C880 C 0.60015 0.71572 0.86019 0.0
C881 C 0.59616 0.68625 0.71798 0.0
C882 C 0.5772 0.66456 0.69751 0.0
C883 C 0.55814 0.66407 0.66001 0.0
C884 C 0.55913 0.68595 0.64013 0.0
C885 C 0.57816 0.7078 0.66137 0.0
H886 H 0.6007 0.72397 0.91321 0.0
H887 H 0.58195 0.70804 0.8392 0.0
H888 H 0.60443 0.70086 0.86836 0.0
H889 H 0.61032 0.68601 0.74823 0.0
H890 H 0.57722 0.64808 0.71272 0.0
H891 H 0.35653 0.90366 0.74734 0.0
H892 H 0.31915 0.90469 0.75081 0.0
H893 H 0.28383 0.83338 0.6624 0.0
H894 H 0.32159 0.83247 0.65682 0.0
H895 H 0.26568 0.86672 0.61591 0.0
H896 H 0.27341 0.861 0.90952 0.0
H897 H 0.29881 0.8854 0.86949 0.0
H898 H 0.29145 0.85503 0.84677 0.0
C899 C 0.34089 0.88836 0.72734 0.0
C900 C 0.34183 0.86781 0.703 0.0
C901 C 0.31959 0.88901 0.72908 0.0
C902 C 0.29873 0.86896 0.708 0.0
C903 C 0.29978 0.84901 0.67893 0.0
H904 H 0.17855 0.86297 0.92591 0.0
H905 H 0.20165 0.84772 0.86206 0.0
C906 C 0.3213 0.84849 0.676 0.0
C907 C 0.27587 0.86796 0.72591 0.0
H908 H 0.24529 0.87237 0.8693 0.0
C909 C 0.26089 0.86758 0.67123 0.0
C910 C 0.26947 0.8685 0.79812 0.0
C911 C 0.284 0.86725 0.8594 0.0
C912 C 0.24012 0.86893 0.68719 0.0
C913 C 0.23465 0.87123 0.75947 0.0
C914 C 0.24929 0.8706 0.81378 0.0
C915 C 0.21484 0.87571 0.78169 0.0
C916 C 0.22434 0.86785 0.62663 0.0
C917 C 0.21304 0.89551 0.7549 0.0
C918 C 0.19863 0.90349 0.78944 0.0
C919 C 0.18652 0.8923 0.85265 0.0
C920 C 0.18722 0.87166 0.87652 0.0
C921 C 0.20069 0.86308 0.84035 0.0
H922 H 0.22577 0.85727 0.58105 0.0
H923 H 0.20562 0.85981 0.644 0.0
H924 H 0.22992 0.88628 0.60692 0.0
H925 H 0.2241 0.90595 0.71084 0.0
H926 H 0.19863 0.91961 0.77031 0.0
H927 H 0.1024 0.95839 0.14896 0.0
H928 H 0.09282 0.98936 0.19293 0.0
H929 H 0.10727 0.0215 0.98295 0.0
H930 H 0.11672 0.99066 0.93885 0.0
H931 H 0.12455 0.0376 0.19342 0.0
H932 H 0.04608 0.02228 0.03938 0.0
H933 H 0.05487 0.99932 0.05154 0.0
H934 H 0.06808 0.02139 0.98178 0.0
C935 C 0.10311 0.97186 0.11202 0.0
C936 C 0.11016 0.97213 0.04042 0.0
C937 C 0.0976 0.98946 0.13716 0.0
C938 C 0.09884 0.00739 0.09082 0.0
C939 C 0.10553 0.00741 0.01908 0.0
H940 H 0.15505 0.14858 0.05709 0.0
H941 H 0.14304 0.10702 0.08523 0.0
C942 C 0.1112 0.98998 -0.00588 0.0
C943 C 0.09629 0.02797 0.11824 0.0
H944 H 0.07301 0.06419 0.07026 0.0
C945 C 0.11274 0.04309 0.16835 0.0
C946 C 0.08051 0.03486 0.087 0.0
C947 C 0.06121 0.01843 0.03755 0.0
C948 C 0.11571 0.06615 0.18126 0.0
C949 C 0.1021 0.07423 0.1424 0.0
C950 C 0.08372 0.05808 0.09912 0.0
C951 C 0.10981 0.10006 0.13411 0.0
C952 C 0.13453 0.0823 0.23248 0.0
C953 C 0.09502 0.10994 0.15207 0.0
C954 C 0.10194 0.13396 0.13608 0.0
C955 C 0.12341 0.14818 0.10037 0.0
C956 C 0.13831 0.13821 0.08418 0.0
C957 C 0.13157 0.11445 0.1008 0.0
H958 H 0.13724 0.07173 0.27524 0.0
H959 H 0.15144 0.09221 0.20286 0.0
H960 H 0.12998 0.09553 0.25756 0.0
H961 H 0.07808 0.09901 0.17744 0.0
H962 H 0.09031 0.14124 0.15027 0.0
H963 H 0.03315 0.15672 0.28327 0.0
H964 H 1.00063 0.1205 0.33462 0.0
H965 H 0.01433 0.07718 0.18219 0.0
H966 H 0.04664 0.11293 0.1313 0.0
H967 H 0.96248 0.09313 0.2561 0.0
H968 H 0.99791 0.03495 0.35571 0.0
H969 H 0.01644 0.0666 0.33982 0.0
H970 H 0.00889 0.04541 0.26734 0.0
C971 C 0.02985 0.13942 0.26257 0.0
C972 C 0.04257 0.13784 0.20291 0.0
C973 C 0.01113 0.11869 0.2918 0.0
C974 C 1.00502 0.09599 0.26275 0.0
C975 C 0.01889 0.09431 0.20686 0.0
H976 H 0.89525 0.96779 0.14019 0.0
H977 H 0.93199 0.99953 0.18552 0.0
C978 C 0.03742 0.11493 0.17744 0.0
C979 C 0.9822 0.07465 0.28157 0.0
H980 H 0.95746 0.01435 0.31164 0.0
C981 C 0.96133 0.07603 0.27045 0.0
C982 C 0.98063 0.05229 0.30019 0.0
C983 C 1.00221 0.04979 0.31716 0.0
C984 C 0.93918 0.05542 0.27117 0.0
C985 C 0.93775 0.03277 0.28493 0.0
C986 C 0.95848 0.03164 0.30109 0.0
C987 C 0.91577 0.01006 0.27053 0.0
C988 C 0.91775 0.05789 0.25136 0.0
C989 C 0.89437 1.00423 0.30609 0.0
C990 C 0.87304 0.98571 0.28034 0.0
C991 C 0.87287 0.97281 0.2186 0.0
C992 C 0.89461 0.97727 0.18784 0.0
C993 C 0.91576 0.99556 0.21366 0.0
H994 H 0.92244 0.07616 0.23184 0.0
H995 H 0.90755 0.04478 0.20908 0.0
H996 H 0.90615 0.05417 0.29905 0.0
H997 H 0.89398 0.01487 0.35109 0.0
H998 H 0.85666 0.98285 0.30522 0.0
H999 H 0.8679 0.92419 0.18055 0.0
H1000 H 0.90932 0.93691 0.20991 0.0
H1001 H 0.90812 0.88152 0.07235 0.0
H1002 H 0.86764 0.86958 0.04061 0.0
H1003 H 0.93311 0.91407 0.26857 0.0
H1004 H 0.9628 0.94126 -0.00929 0.0
H1005 H 0.93394 0.93526 0.022 0.0
H1006 H 0.93932 0.91108 -0.00711 0.0
C1007 C 0.87664 0.91502 0.15591 0.0
C1008 C 0.86464 0.89642 0.10646 0.0
C1009 C 0.90019 0.92212 0.17327 0.0
C1010 C 0.91201 0.9106 0.14167 0.0
C1011 C 0.89961 0.89117 0.09566 0.0
H1012 H 0.02378 0.88276 0.22495 0.0
H1013 H 0.99145 0.89173 0.24677 0.0
C1014 C 0.87633 0.88428 0.07783 0.0
C1015 C 0.93741 0.91879 0.15432 0.0
H1016 H 0.98745 0.93057 0.06203 0.0
C1017 C 0.94526 0.91821 0.22379 0.0
C1018 C 0.95351 0.92509 0.09642 0.0
C1019 C 0.94701 0.9285 0.0215 0.0
C1020 C 0.96828 0.92184 0.23588 0.0
C1021 C 0.98349 0.92528 0.17663 0.0
C1022 C 0.97603 0.92768 0.10801 0.0
C1023 C 1.00599 0.92395 0.18177 0.0
C1024 C 0.97585 0.92174 0.31191 0.0
C1025 C 0.02555 0.9393 0.13972 0.0
C1026 C 0.04338 0.93335 0.12408 0.0
C1027 C 0.04284 0.91273 0.15352 0.0
C1028 C 0.02497 0.8991 0.20293 0.0
C1029 C 1.00643 0.90435 0.21576 0.0
H1030 H 0.96773 0.9297 0.34851 0.0
H1031 H 0.9696 0.90296 0.32938 0.0
H1032 H 0.99528 0.93184 0.3175 0.0
H1033 H 0.02589 0.95463 0.1131 0.0
H1034 H 0.05642 0.9437 0.08396 0.0
H1035 H 0.77398 0.29623 0.45442 0.0
H1036 H 0.76531 0.32893 0.48513 0.0
H1037 H 0.76715 0.34595 0.26087 0.0
H1038 H 0.77688 0.31401 0.23061 0.0
H1039 H 0.79657 0.38313 0.3331 0.0
H1040 H 0.7109 0.34344 0.47712 0.0
H1041 H 0.73106 0.33422 0.51334 0.0
H1042 H 0.72048 0.32579 0.42352 0.0
C1043 C 0.77201 0.30669 0.41184 0.0
C1044 C 0.7762 0.30289 0.34035 0.0
C1045 C 0.76683 0.32519 0.4293 0.0
C1046 C 0.76533 0.33975 0.37525 0.0
C1047 C 0.76817 0.33491 0.30341 0.0
H1048 H 0.74533 0.46549 0.39807 0.0
H1049 H 0.73657 0.42333 0.39663 0.0
C1050 C 0.7738 0.31678 0.28615 0.0
C1051 C 0.76469 0.36221 0.39352 0.0
H1052 H 0.73534 0.38603 0.48975 0.0
C1053 C 0.783 0.38365 0.36677 0.0
C1054 C 0.74695 0.36291 0.43723 0.0
C1055 C 0.7261 0.34034 0.4639 0.0
C1056 C 0.7843 0.40578 0.38292 0.0
C1057 C 0.76731 0.40667 0.4296 0.0
C1058 C 0.74862 0.38526 0.45534 0.0
C1059 C 0.76882 0.42994 0.44964 0.0
C1060 C 0.80378 0.42803 0.34887 0.0
C1061 C 0.78907 0.4472 0.48395 0.0
C1062 C 0.79425 0.4712 0.48354 0.0
C1063 C 0.77884 0.47805 0.45105 0.0
C1064 C 0.75726 0.46045 0.42426 0.0
C1065 C 0.75229 0.43643 0.42329 0.0
H1066 H 0.81127 0.42368 0.30068 0.0
H1067 H 0.79735 0.44079 0.33306 0.0
H1068 H 0.81824 0.4371 0.38786 0.0
H1069 H 0.80186 0.44241 0.50543 0.0
H1070 H 0.81098 0.48457 0.5045 0.0
H1071 H 0.70731 0.44512 0.48298 0.0
H1072 H 0.67595 0.409 0.53592 0.0
H1073 H 0.66426 0.45148 0.69632 0.0
H1074 H 0.69539 0.4881 0.64196 0.0
H1075 H 0.66243 0.38525 0.66461 0.0
H1076 H 0.60246 0.42232 0.58963 0.0
H1077 H 0.63295 0.43644 0.56216 0.0
H1078 H 0.62511 0.43939 0.65283 0.0
C1079 C 0.6985 0.44688 0.53052 0.0
C1080 C 0.70354 0.46964 0.55708 0.0
C1081 C 0.68053 0.4261 0.56095 0.0
C1082 C 0.6672 0.42752 0.61879 0.0
C1083 C 0.67386 0.44999 0.65043 0.0
H1084 H 0.52179 0.31235 0.65496 0.0
H1085 H 0.55846 0.34386 0.70556 0.0
C1086 C 0.69186 0.47091 0.61969 0.0
C1087 C 0.64482 0.40587 0.63864 0.0
H1088 H 0.58519 0.38217 0.62197 0.0
C1089 C 0.64551 0.38469 0.65684 0.0
C1090 C 0.62265 0.40505 0.62875 0.0
C1091 C 0.62057 0.4269 0.60682 0.0
C1092 C 0.6248 0.36257 0.66123 0.0
C1093 C 0.60284 0.36153 0.64629 0.0
C1094 C 0.602 0.38295 0.63367 0.0
C1095 C 0.58135 0.33859 0.63033 0.0
C1096 C 0.62675 0.34039 0.67919 0.0
C1097 C 0.58201 0.32449 0.57313 0.0
C1098 C 0.56118 0.3067 0.54399 0.0
C1099 C 0.53911 0.30243 0.57144 0.0
C1100 C 0.53847 0.31497 0.63301 0.0
C1101 C 0.55944 0.3331 0.66177 0.0
H1102 H 0.64183 0.34474 0.7154 0.0
H1103 H 0.61038 0.32652 0.70495 0.0
H1104 H 0.63 0.3328 0.62928 0.0
H1105 H 0.59853 0.32861 0.54669 0.0
H1106 H 0.56239 0.29763 0.49611 0.0
H1107 H 0.53474 0.20105 0.37761 0.0
H1108 H 0.57465 0.21166 0.41228 0.0
H1109 H 0.57541 0.26522 0.55715 0.0
H1110 H 0.53452 0.25383 0.52455 0.0
H1111 H 0.61259 0.2557 0.39169 0.0
H1112 H 0.6024 0.23027 0.6797 0.0
H1113 H 0.57751 0.21991 0.6204 0.0
H1114 H 0.59155 0.25035 0.65127 0.0
C1115 C 0.54316 0.21497 0.41737 0.0
C1116 C 0.53149 0.2269 0.44744 0.0
C1117 C 0.56608 0.22103 0.43711 0.0
C1118 C 0.57807 0.23924 0.48723 0.0
C1119 C 0.56643 0.25096 0.5188 0.0
H1120 H 0.72566 0.2751 0.44753 0.0
H1121 H 0.69421 0.28456 0.48118 0.0
C1122 C 0.54321 0.24468 0.49941 0.0
C1123 C 0.60312 0.24631 0.50195 0.0
H1124 H 0.63963 0.24249 0.62679 0.0
C1125 C 0.61868 0.25322 0.44336 0.0
C1126 C 0.61092 0.24305 0.56947 0.0
C1127 C 0.59478 0.23536 0.63398 0.0
C1128 C 0.64118 0.25514 0.44867 0.0
C1129 C 0.64887 0.25113 0.51577 0.0
C1130 C 0.63382 0.24572 0.57565 0.0
C1131 C 0.67087 0.24904 0.52145 0.0
C1132 C 0.65557 0.2595 0.3807 0.0
C1133 C 0.66942 0.22702 0.54161 0.0
C1134 C 0.68799 0.22208 0.52605 0.0
C1135 C 0.70796 0.23893 0.48882 0.0
C1136 C 0.71053 0.2619 0.47659 0.0
C1137 C 0.69237 0.26715 0.49474 0.0
H1138 H 0.64487 0.25695 0.33199 0.0
H1139 H 0.67005 0.27823 0.38019 0.0
H1140 H 0.66338 0.24721 0.37711 0.0
H1141 H 0.65312 0.21281 0.56298 0.0
H1142 H 0.68549 0.20415 0.53543 0.0
H1143 H 0.41886 0.80339 0.80555 0.0
H1144 H 0.4057 0.76054 0.82541 0.0
H1145 H 0.46994 0.76851 0.72804 0.0
H1146 H 0.48279 0.8107 0.70643 0.0
H1147 H 0.40175 0.72732 0.7049 0.0
H1148 H 0.46164 0.73041 0.91976 0.0
H1149 H 0.45376 0.75398 0.90601 0.0
H1150 H 0.47631 0.75263 0.85167 0.0
C1151 C 0.43009 0.79596 0.78842 0.0
C1152 C 0.45159 0.81038 0.75312 0.0
C1153 C 0.42265 0.77157 0.80025 0.0
C1154 C 0.43696 0.76151 0.77865 0.0
C1155 C 0.45878 0.77605 0.74592 0.0
H1156 H 0.45083 0.65738 0.58193 0.0
H1157 H 0.43977 0.68703 0.62572 0.0
C1158 C 0.46602 0.80018 0.73321 0.0
C1159 C 0.42879 0.7355 0.78338 0.0
H1160 H 0.44893 0.6971 0.83645 0.0
C1161 C 0.41143 0.72038 0.7355 0.0
C1162 C 0.44119 0.72644 0.82407 0.0
C1163 C 0.45912 0.74166 0.87886 0.0
C1164 C 0.40812 0.69722 0.72133 0.0
C1165 C 0.42263 0.68927 0.75564 0.0
C1166 C 0.43798 0.70335 0.8096 0.0
C1167 C 0.42567 0.66915 0.72675 0.0
C1168 C 0.39032 0.68206 0.66617 0.0
C1169 C 0.42139 0.64925 0.76918 0.0
C1170 C 0.42767 0.63216 0.74404 0.0
C1171 C 0.43873 0.63507 0.67684 0.0
C1172 C 0.44243 0.65472 0.63402 0.0
C1173 C 0.4359 0.67154 0.65867 0.0
H1174 H 0.37581 0.68679 0.66244 0.0
H1175 H 0.39911 0.68527 0.61299 0.0
H1176 H 0.38274 0.66268 0.67891 0.0
H1177 H 0.41377 0.64729 0.82223 0.0
H1178 H 0.42473 0.61723 0.77831 0.0
H1179 H 0.18861 0.64792 -0.01095 0.0
H1180 H 0.22685 0.67958 0.03003 0.0
H1181 H 0.26209 0.65785 0.87157 0.0
H1182 H 0.22434 0.62585 0.83302 0.0
H1183 H 0.29017 0.67699 0.98332 0.0
H1184 H 0.25341 0.73706 0.90175 0.0
H1185 H 0.23876 0.71768 0.97598 0.0
H1186 H 0.23757 0.70513 0.88858 0.0
C1187 C 0.20458 0.6492 0.96535 0.0
C1188 C 0.20341 0.63465 0.90681 0.0
C1189 C 0.22645 0.6676 -0.01207 0.0
C1190 C 0.24735 0.67185 0.95172 0.0
C1191 C 0.2463 0.65531 0.89974 0.0
H1192 H 0.37521 0.77646 0.78743 0.0
H1193 H 0.3438 0.74022 0.83974 0.0
C1194 C 0.2246 0.63689 0.87774 0.0
C1195 C 0.26968 0.69485 0.95951 0.0
H1196 H 0.29355 0.75487 0.9249 0.0
C1197 C 0.29083 0.69408 0.97187 0.0
C1198 C 0.27073 0.71727 0.94403 0.0
C1199 C 0.24899 0.71946 0.92624 0.0
C1200 C 0.31288 0.71478 0.96628 0.0
C1201 C 0.31388 0.73688 0.94766 0.0
C1202 C 0.29276 0.73795 0.9396 0.0
C1203 C 0.33628 0.75834 0.9266 0.0
C1204 C 0.33493 0.71267 0.97842 0.0
C1205 C 0.34304 0.78075 0.95872 0.0
C1206 C 0.36131 0.80171 0.92903 0.0
C1207 C 0.37286 0.8007 0.86576 0.0
C1208 C 0.36694 0.77803 0.83643 0.0
C1209 C 0.34893 0.75715 0.86654 0.0
H1210 H 0.33147 0.69749 0.01474 0.0
H1211 H 0.34126 0.70921 0.92646 0.0
H1212 H 0.34914 0.72941 0.00142 0.0
H1213 H 0.33341 0.78216 0.00474 0.0
H1214 H 0.36519 0.8188 0.9528 0.0
H1215 H 0.36302 0.54809 0.88507 0.0
H1216 H 0.33018 0.55401 0.92936 0.0
H1217 H 0.34288 0.60494 0.76028 0.0
H1218 H 0.37593 0.59975 0.7175 0.0
H1219 H 0.32377 0.61516 0.87775 0.0
H1220 H 0.27259 0.51852 0.80615 0.0
H1221 H 0.29343 0.52537 0.87694 0.0
H1222 H 0.30365 0.53572 0.78753 0.0
C1223 C 0.35946 0.56131 0.85929 0.0
C1224 C 0.37174 0.57301 0.79672 0.0
C1225 C 0.34048 0.56447 0.88412 0.0
C1226 C 0.33346 0.5792 0.84636 0.0
C1227 C 0.34767 0.5932 0.78974 0.0
H1228 H 0.21561 0.59138 0.70696 0.0
H1229 H 0.25493 0.5989 0.74482 0.0
C1230 C 0.36662 0.59017 0.76524 0.0
C1231 C 0.30973 0.57739 0.85702 0.0
H1232 H 0.25132 0.53884 0.83177 0.0
C1233 C 0.30789 0.59839 0.86897 0.0
C1234 C 0.28894 0.55553 0.84478 0.0
C1235 C 0.28961 0.53252 0.82755 0.0
C1236 C 0.28597 0.59824 0.86682 0.0
C1237 C 0.26543 0.57657 0.85185 0.0
C1238 C 0.26711 0.55541 0.84353 0.0
C1239 C 0.24234 0.57555 0.83728 0.0
C1240 C 0.28498 0.6213 0.87914 0.0
C1241 C 0.22221 0.56007 0.87683 0.0
C1242 C 0.19982 0.55583 0.85521 0.0
C1243 C 0.19725 0.56687 0.79349 0.0
C1244 C 0.21733 0.58294 0.75523 0.0
C1245 C 0.23974 0.58733 0.77713 0.0
H1246 H 0.30041 0.63438 0.90998 0.0
H1247 H 0.28511 0.62952 0.8267 0.0
H1248 H 0.26859 0.61798 0.90822 0.0
H1249 H 0.22377 0.55055 0.92277 0.0
H1250 H 0.18445 0.54314 0.88483 0.0
H1251 H 0.09271 0.16272 0.80015 0.0
H1252 H 0.09757 0.17402 0.67429 0.0
H1253 H 0.16055 0.23936 0.72393 0.0
H1254 H 0.15623 0.22796 0.84889 0.0
H1255 H 0.0932 0.21566 0.66009 0.0
H1256 H 0.17384 0.22509 0.5216 0.0
H1257 H 0.16162 0.20647 0.59981 0.0
H1258 H 0.179 0.23839 0.60902 0.0
C1259 C 0.10828 0.17889 0.78377 0.0
C1260 C 0.12347 0.19507 0.83468 0.0
C1261 C 0.11098 0.18533 0.71187 0.0
C1262 C 0.12902 0.20777 0.69066 0.0
C1263 C 0.14647 0.22196 0.73942 0.0
H1264 H 0.15182 0.28634 0.30577 0.0
H1265 H 0.14646 0.2832 0.43514 0.0
C1266 C 0.1439 0.21542 0.8112 0.0
C1267 C 0.12648 0.21863 0.62436 0.0
H1268 H 0.1538 0.24409 0.46781 0.0
C1269 C 0.10638 0.22179 0.6177 0.0
C1270 C 0.14402 0.22716 0.5707 0.0
C1271 C 0.16575 0.22396 0.57518 0.0
C1272 C 0.1031 0.23282 0.55739 0.0
C1273 C 0.12033 0.24076 0.50288 0.0
C1274 C 0.14078 0.23829 0.51062 0.0
C1275 C 0.11618 0.24796 0.43219 0.0
C1276 C 0.0812 0.23565 0.552 0.0
C1277 C 0.09937 0.23024 0.38831 0.0
C1278 C 0.10243 0.2319 0.31438 0.0
C1279 C 0.12251 0.25115 0.28456 0.0
C1280 C 0.13664 0.27091 0.32781 0.0
C1281 C 0.1335 0.26927 0.40171 0.0
H1282 H 0.07382 0.23594 0.60577 0.0
H1283 H 0.08485 0.25234 0.52302 0.0
H1284 H 0.0676 0.22023 0.52198 0.0
H1285 H 0.08587 0.21364 0.411 0.0
H1286 H 0.09092 0.21664 0.28215 0.0
H1287 H 0.72513 0.85464 0.31152 0.0
H1288 H 0.72457 0.85994 0.44044 0.0
H1289 H 0.78758 0.92798 0.42345 0.0
H1290 H 0.78858 0.92281 0.29532 0.0
H1291 H 0.76748 0.86108 0.48201 0.0
H1292 H 0.75658 0.93413 0.61152 0.0
H1293 H 0.74221 0.92018 0.52871 0.0
H1294 H 0.77258 0.94285 0.52827 0.0
C1295 C 0.73831 0.87124 0.33476 0.0
C1296 C 0.75759 0.88779 0.29403 0.0
C1297 C 0.73772 0.87434 0.40834 0.0
C1298 C 0.75626 0.89409 0.44106 0.0
C1299 C 0.77307 0.91264 0.39888 0.0
H1300 H 0.84184 0.93731 0.80426 0.0
H1301 H 0.82816 0.9297 0.68116 0.0
C1302 C 0.77378 0.90949 0.32543 0.0
C1303 C 0.76305 0.89154 0.51376 0.0
H1304 H 0.78257 0.92206 0.66959 0.0
C1305 C 0.77029 0.87403 0.52399 0.0
C1306 C 0.76699 0.90872 0.56711 0.0
C1307 C 0.75899 0.92742 0.55872 0.0
C1308 C 0.78283 0.87422 0.58469 0.0
C1309 C 0.78767 0.89205 0.63678 0.0
C1310 C 0.77926 0.90874 0.62838 0.0
C1311 C 0.80078 0.89354 0.70196 0.0
C1312 C 0.79176 0.85613 0.59072 0.0
C1313 C 0.79129 0.87489 0.75193 0.0
C1314 C 0.79941 0.87902 0.82186 0.0
C1315 C 0.81636 0.90208 0.84284 0.0
C1316 C 0.82826 0.91953 0.79012 0.0
C1317 C 0.8204 0.91528 0.71986 0.0
H1318 H 0.79268 0.8486 0.53768 0.0
H1319 H 0.80951 0.86422 0.61523 0.0
H1320 H 0.77951 0.84107 0.62518 0.0
H1321 H 0.77613 0.85797 0.73905 0.0
H1322 H 0.79047 0.86498 0.86072 0.0
H1323 H 0.09041 0.85066 0.82671 0.0
H1324 H 0.10313 0.83751 0.71997 0.0
H1325 H 0.14066 0.91093 0.64711 0.0
H1326 H 0.1291 0.92421 0.75693 0.0
H1327 H 0.08878 0.83949 0.59701 0.0
H1328 H 0.1851 0.88796 0.58004 0.0
H1329 H 0.16945 0.8855 0.66287 0.0
H1330 H 0.17543 0.90955 0.60086 0.0
C1331 C 0.10159 0.86397 0.78793 0.0
C1332 C 0.10826 0.88832 0.79796 0.0
C1333 C 0.10905 0.85647 0.72762 0.0
C1334 C 0.12292 0.87318 0.67566 0.0
C1335 C 0.13046 0.89774 0.68734 0.0
H1336 H 0.10265 0.88915 0.26916 0.0
H1337 H 0.09824 0.87316 0.38972 0.0
C1338 C 0.12351 0.90533 0.74906 0.0
C1339 C 0.12588 0.86479 0.60441 0.0
H1340 H 0.16422 0.8829 0.46405 0.0
C1341 C 0.10548 0.84838 0.56854 0.0
C1342 C 0.14769 0.87536 0.56766 0.0
C1343 C 0.17066 0.89032 0.6054 0.0
C1344 C 0.10582 0.84497 0.49475 0.0
C1345 C 0.1268 0.85903 0.45611 0.0
C1346 C 0.14785 0.8727 0.49334 0.0
C1347 C 0.12644 0.86372 0.37906 0.0
C1348 C 0.08335 0.82751 0.45852 0.0
C1349 C 0.14372 0.86376 0.33295 0.0
C1350 C 0.14667 0.87355 0.26467 0.0
C1351 C 0.13228 0.8833 0.24155 0.0
C1352 C 0.11394 0.88172 0.28578 0.0
C1353 C 0.11123 0.87228 0.3544 0.0
H1354 H 0.07345 0.81142 0.49262 0.0
H1355 H 0.0719 0.83603 0.45113 0.0
H1356 H 0.08681 0.82172 0.40557 0.0
H1357 H 0.15566 0.85732 0.35103 0.0
H1358 H 0.16073 0.87421 0.23091 0.0
H1359 H 0.74829 0.54657 0.6326 0.0
H1360 H 0.74251 0.53837 0.76021 0.0
H1361 H 0.80644 0.60358 0.80295 0.0
H1362 H 0.81216 0.61216 0.6758 0.0
H1363 H 0.78085 0.53197 0.80209 0.0
H1364 H 0.76842 0.59395 -0.01312 0.0
H1365 H 0.75989 0.59071 0.89397 0.0
H1366 H 0.79018 0.60901 0.91846 0.0
C1367 C 0.76043 0.55986 0.66918 0.0
C1368 C 0.78136 0.57933 0.64436 0.0
C1369 C 0.75705 0.55513 0.74222 0.0
C1370 C 0.7744 0.57005 0.79034 0.0
C1371 C 0.79289 0.59182 0.76647 0.0
H1372 H 0.81736 0.55613 0.20589 0.0
H1373 H 0.82345 0.56395 0.07816 0.0
C1374 C 0.79624 0.59658 0.69351 0.0
C1375 C 0.77722 0.56002 0.8579 0.0
H1376 H 0.78505 0.57062 0.03641 0.0
C1377 C 0.78147 0.5402 0.85363 0.0
C1378 C 0.77863 0.57124 0.92415 0.0
C1379 C 0.77385 0.59229 0.93141 0.0
C1380 C 0.78725 0.53134 0.91436 0.0
C1381 C 0.78865 0.54256 0.9806 0.0
C1382 C 0.78443 0.56239 0.98487 0.0
C1383 C 0.79136 0.53247 0.04821 0.0
C1384 C 0.79201 0.51027 0.90722 0.0
C1385 C 0.77264 0.5109 0.07226 0.0
C1386 C 0.76908 0.50637 0.1453 0.0
C1387 C 0.78402 0.52366 0.19426 0.0
C1388 C 0.80517 0.54284 0.16942 0.0
C1389 C 0.80874 0.54734 0.09631 0.0
H1390 H 0.79726 0.50847 0.85166 0.0
H1391 H 0.80607 0.51195 0.94435 0.0
H1392 H 0.77571 0.49359 0.9208 0.0
H1393 H 0.75907 0.49917 0.03575 0.0
H1394 H 0.753 0.49099 0.16306 0.0
H1395 H 0.52423 0.26929 0.17264 0.0
H1396 H 0.52255 0.26323 0.04353 0.0
H1397 H 0.46273 0.19326 0.07039 0.0
H1398 H 0.46405 0.19903 0.19869 0.0
H1399 H 0.49229 0.2038 0.93207 0.0
H1400 H 0.45811 0.26684 0.01253 0.0
H1401 H 0.48803 0.2748 0.03457 0.0
H1402 H 0.46419 0.24959 0.07755 0.0
C1403 C 0.51137 0.25217 0.15139 0.0
C1404 C 0.49342 0.23515 0.19512 0.0
C1405 C 0.51066 0.24866 0.07772 0.0
C1406 C 0.49203 0.2282 0.04832 0.0
C1407 C 0.47705 0.20929 0.09277 0.0
H1408 H 0.40726 0.18045 0.67754 0.0
H1409 H 0.42011 0.18674 0.80164 0.0
C1410 C 0.47771 0.21276 0.16628 0.0
C1411 C 0.48323 0.22961 0.97777 0.0
H1412 H 0.45011 0.25144 0.89655 0.0
C1413 C 0.48337 0.21444 0.92356 0.0
C1414 C 0.47137 0.24337 0.96821 0.0
C1415 C 0.47021 0.25951 0.02622 0.0
C1416 C 0.47162 0.21246 0.85938 0.0
C1417 C 0.459 0.2255 0.85111 0.0
C1418 C 0.4595 0.24123 0.90438 0.0
C1419 C 0.4461 0.22377 0.78556 0.0
C1420 C 0.47282 0.1965 0.80103 0.0
C1421 C 0.45473 0.24334 0.73895 0.0
C1422 C 0.44728 0.23992 0.66839 0.0
C1423 C 0.43147 0.21683 0.6441 0.0
C1424 C 0.41996 0.19831 0.69421 0.0
C1425 C 0.42738 0.20178 0.76494 0.0
H1426 H 0.48746 0.1922 0.80957 0.0
H1427 H 0.45607 0.17941 0.80049 0.0
H1428 H 0.4752 0.20508 0.74774 0.0
H1429 H 0.46883 0.2606 0.75505 0.0
H1430 H 0.45593 0.25476 0.63175 0.0
H1431 H 0.76669 0.24518 0.53521 0.0
H1432 H 0.76094 0.26168 0.64612 0.0
H1433 H 0.818 0.25435 0.74116 0.0
H1434 H 0.82386 0.23752 0.62894 0.0
H1435 H 0.75026 0.24277 0.77671 0.0
H1436 H 0.83624 0.32455 0.78063 0.0
H1437 H 0.82486 0.30624 0.70153 0.0
H1438 H 0.83989 0.29837 0.76876 0.0
C1439 C 0.77732 0.24596 0.58047 0.0
C1440 C 0.79525 0.23932 0.5741 0.0
C1441 C 0.77444 0.25609 0.64319 0.0
C1442 C 0.78953 0.2599 0.70056 0.0
C1443 C 0.80672 0.25223 0.69612 0.0
H1444 H 0.80583 0.25355 0.09702 0.0
H1445 H 0.81201 0.27109 0.97828 0.0
C1446 C 0.80971 0.24216 0.63289 0.0
C1447 C 0.78623 0.27034 0.76708 0.0
H1448 H 0.81726 0.31012 0.89745 0.0
C1449 C 0.76459 0.25797 0.80263 0.0
C1450 C 0.80478 0.29066 0.79896 0.0
C1451 C 0.82765 0.30588 0.75998 0.0
C1452 C 0.76204 0.26316 0.87376 0.0
C1453 C 0.78175 0.28146 0.90918 0.0
C1454 C 0.80232 0.29599 0.87021 0.0
C1455 C 0.78367 0.28034 -0.01287 0.0
C1456 C 0.73927 0.247 0.91231 0.0
C1457 C 0.76694 0.28149 0.03312 0.0
C1458 C 0.76283 0.27065 0.10017 0.0
C1459 C 0.77601 0.25941 0.12205 0.0
C1460 C 0.79511 0.26164 0.08038 0.0
C1461 C 0.79884 0.27196 0.01294 0.0
H1462 H 0.72623 0.23301 0.87672 0.0
H1463 H 0.74271 0.23791 0.95782 0.0
H1464 H 0.73117 0.2578 0.9337 0.0
H1465 H 0.75557 0.28856 0.01459 0.0
H1466 H 0.74856 0.2699 0.13309 0.0
H1467 H 0.45632 0.91154 0.54619 0.0
H1468 H 0.44971 0.9283 0.43808 0.0
H1469 H 0.43536 0.86331 0.32393 0.0
H1470 H 0.43885 0.84525 0.43583 0.0
H1471 H 0.46437 0.94223 0.32375 0.0
H1472 H 0.37957 0.86598 0.26249 0.0
H1473 H 0.39416 0.86731 0.34555 0.0
H1474 H 0.39923 0.85348 0.2669 0.0
C1475 C 0.45226 0.90099 0.49752 0.0
C1476 C 0.44816 0.87713 0.49878 0.0
C1477 C 0.4482 0.91054 0.43574 0.0
C1478 C 0.44089 0.89672 0.37323 0.0
C1479 C 0.4395 0.87382 0.37254 0.0
H1480 H 0.49123 0.92974 0.00304 0.0
H1481 H 0.47906 0.93485 0.1205 0.0
C1482 C 0.44229 0.86374 0.43562 0.0
C1483 C 0.43549 0.90646 0.30817 0.0
H1484 H 0.40444 0.88682 0.15456 0.0
C1485 C 0.45069 0.93025 0.28795 0.0
C1486 C 0.41652 0.892 0.26277 0.0
C1487 C 0.39629 0.86844 0.28644 0.0
C1488 C 0.44981 0.93829 0.21912 0.0
C1489 C 0.43498 0.92151 0.1682 0.0
C1490 C 0.41693 0.8994 0.19216 0.0
C1491 C 0.44254 0.92322 0.09256 0.0
C1492 C 0.46623 0.96404 0.19997 0.0
C1493 C 0.4261 0.91431 0.03677 0.0
C1494 C 0.43301 0.91031 0.96905 0.0
C1495 C 0.45648 0.91554 0.9563 0.0
C1496 C 0.47304 0.92569 0.01097 0.0
C1497 C 0.46611 0.92913 0.07836 0.0
H1498 H 0.46511 0.97604 0.24163 0.0
H1499 H 0.4847 0.96715 0.19928 0.0
H1500 H 0.462 0.96902 0.14724 0.0
H1501 H 0.40777 0.90941 0.04644 0.0
H1502 H 0.41996 0.90283 0.92758 0.0
H1503 H 0.17431 0.61018 0.48842 0.0
H1504 H 0.16383 0.60066 0.36337 0.0
H1505 H 0.12373 0.52568 0.41615 0.0
H1506 H 0.13404 0.53489 0.54112 0.0
H1507 H 0.15966 0.56465 0.25166 0.0
H1508 H 0.07567 0.55274 0.37591 0.0
H1509 H 0.10331 0.56676 0.42283 0.0
H1510 H 0.08819 0.53487 0.41069 0.0
C1511 C 0.16408 0.59154 0.47329 0.0
C1512 C 0.15392 0.57338 0.52513 0.0
C1513 C 0.15818 0.58616 0.40176 0.0
C1514 C 0.14239 0.56265 0.38209 0.0
C1515 C 0.13557 0.54401 0.43148 0.0
H1516 H 0.06593 0.51116 1e-05 0.0
H1517 H 0.07201 0.51715 0.12818 0.0
C1518 C 0.14142 0.54936 0.50299 0.0
C1519 C 0.12946 0.55871 0.31549 0.0
H1520 H 0.07685 0.55049 0.25031 0.0
C1521 C 0.14153 0.56138 0.25102 0.0
C1522 C 0.10586 0.55465 0.31608 0.0
C1523 C 0.09244 0.55222 0.38496 0.0
C1524 C 0.13054 0.56009 0.18605 0.0
C1525 C 0.10716 0.55671 0.1866 0.0
C1526 C 0.09489 0.55352 0.25101 0.0
C1527 C 0.09518 0.55525 0.11944 0.0
C1528 C 0.14397 0.56225 0.11736 0.0
C1529 C 0.10421 0.57521 0.0742 0.0
C1530 C 0.10125 0.57183 0.00079 0.0
C1531 C 0.08902 0.54852 0.97296 0.0
C1532 C 0.07609 0.52928 0.01978 0.0
C1533 C 0.07938 0.53264 0.09319 0.0
H1534 H 0.15974 0.55981 0.12632 0.0
H1535 H 0.13256 0.54879 0.07754 0.0
H1536 H 0.15001 0.58033 0.09412 0.0
H1537 H 0.1161 0.59287 0.09458 0.0
H1538 H 0.11075 0.58714 0.96648 0.0
H1539 H 0.47572 0.59215 0.43535 0.0
H1540 H 0.48386 0.58317 0.31564 0.0
H1541 H 0.41175 0.56069 0.257 0.0
H1542 H 0.40304 0.56805 0.37887 0.0
H1543 H 0.42331 0.52494 0.24275 0.0
H1544 H 0.49237 0.60822 0.11698 0.0
H1545 H 0.50046 0.60233 0.20324 0.0
H1546 H 0.47616 0.60874 0.19555 0.0
C1547 C 0.46173 0.5859 0.39679 0.0
C1548 C 0.4385 0.57958 0.41752 0.0
C1549 C 0.46648 0.58097 0.32792 0.0
C1550 C 0.44824 0.5708 0.27827 0.0
C1551 C 0.4259 0.56811 0.29554 0.0
H1552 H 0.42343 0.5385 0.87501 0.0
H1553 H 0.41797 0.52795 0.00062 0.0
C1554 C 0.42102 0.57252 0.36498 0.0
C1555 C 0.45144 0.55976 0.21288 0.0
H1556 H 0.4831 0.57184 0.0585 0.0
C1557 C 0.43642 0.53515 0.20235 0.0
C1558 C 0.46901 0.57301 0.16179 0.0
C1559 C 0.48528 0.59957 0.16958 0.0
C1560 C 0.43759 0.52374 0.13945 0.0
C1561 C 0.45432 0.5373 0.0869 0.0
C1562 C 0.47048 0.56143 0.09981 0.0
C1563 C 0.45203 0.52939 0.01238 0.0
C1564 C 0.42034 0.49768 0.12808 0.0
C1565 C 0.47201 0.53135 0.97636 0.0
C1566 C 0.47529 0.53763 0.90436 0.0
C1567 C 0.45859 0.54198 0.8685 0.0
C1568 C 0.43682 0.53578 0.90162 0.0
C1569 C 0.43351 0.52934 0.97344 0.0
H1570 H 0.41414 0.48807 0.17988 0.0
H1571 H 0.40475 0.49631 0.09932 0.0
H1572 H 0.42832 0.48868 0.09524 0.0
H1573 H 0.4864 0.53133 0.00589 0.0
H1574 H 0.49194 0.54148 0.87924 0.0
loop_
_geom_bond_atom_site_label_1
_geom_bond_atom_site_label_2
_geom_bond_distance
_geom_bond_site_symmetry_2
_ccdc_geom_bond_type
C0 O12 1.241 . S
C0 O13 1.280 1_554 S
C1 O14 1.277 . S
C1 O15 1.245 . S
C2 O26 1.247 . S
C2 O28 1.289 . S
Mg3 O4 1.926 1_556 S
Mg3 O13 1.984 . S
Mg3 O15 1.988 1_556 S
Mg3 O16 2.061 . S
O4 Mg3 1.926 1_554 S
O4 Mg5 1.986 . S
O4 Mg6 1.917 . S
Mg5 O4 1.986 . S
Mg5 O12 2.042 . S
Mg5 O14 2.041 . S
Mg5 O20 2.038 . S
Mg5 O28 2.238 . S
Mg6 O4 1.917 . S
Mg6 O7 1.917 . S
Mg6 O17 2.106 1_554 S
Mg6 O19 2.079 . S
Mg6 O28 2.106 . S
Mg6 O29 2.079 . S
O7 Mg6 1.917 . S
O7 Mg8 1.926 . S
O7 Mg9 1.986 1_554 S
Mg8 O7 1.926 . S
Mg8 O22 1.984 . S
Mg8 O25 1.988 . S
Mg8 O26 2.061 . S
Mg9 O7 1.986 1_556 S
Mg9 O17 2.238 . S
Mg9 O21 2.042 1_556 S
Mg9 O23 2.041 . S
Mg9 O30 2.038 1_556 S
C10 O16 1.247 . S
C10 O17 1.289 . S
C11 O29 1.245 . S
C11 O30 1.274 . S
O12 C0 1.241 . S
O12 Mg5 2.042 . S
O13 C0 1.280 1_556 S
O13 Mg3 1.984 . S
O14 C1 1.277 . S
O14 Mg5 2.041 . S
O15 C1 1.245 . S
O15 Mg3 1.988 1_554 S
O16 Mg3 2.061 . S
O16 C10 1.247 . S
O17 Mg6 2.106 1_556 S
O17 Mg9 2.238 . S
O17 C10 1.289 . S
C18 O19 1.245 . S
C18 O20 1.274 . S
O19 Mg6 2.079 . S
O19 C18 1.245 . S
O20 Mg5 2.038 . S
O20 C18 1.274 . S
O21 Mg9 2.042 1_554 S
O21 C24 1.241 . S
O22 Mg8 1.984 . S
O22 C24 1.280 . S
O23 Mg9 2.041 . S
O23 C27 1.277 1_556 S
C24 O21 1.241 . S
C24 O22 1.280 . S
O25 Mg8 1.988 . S
O25 C27 1.245 . S
O26 C2 1.247 . S
O26 Mg8 2.061 . S
C27 O23 1.277 1_554 S
C27 O25 1.245 . S
O28 C2 1.289 . S
O28 Mg5 2.238 . S
O28 Mg6 2.106 . S
O29 Mg6 2.079 . S
O29 C11 1.245 . S
O30 Mg9 2.038 1_554 S
O30 C11 1.274 . S
C31 O43 1.241 . S
C31 O44 1.280 . S
C32 O45 1.277 . S
C32 O46 1.245 . S
C33 O57 1.247 . S
C33 O59 1.289 1_556 S
Mg34 O35 1.926 . S
Mg34 O44 1.984 . S
Mg34 O46 1.988 . S
Mg34 O47 2.061 . S
O35 Mg34 1.926 . S
O35 Mg36 1.986 . S
O35 Mg37 1.917 . S
Mg36 O35 1.986 . S
Mg36 O43 2.042 . S
Mg36 O45 2.041 . S
Mg36 O51 2.038 . S
Mg36 O59 2.238 . S
Mg37 O35 1.917 . S
Mg37 O38 1.917 . S
Mg37 O48 2.106 . S
Mg37 O50 2.079 . S
Mg37 O59 2.106 . S
Mg37 O60 2.079 . S
O38 Mg37 1.917 . S
O38 Mg39 1.926 . S
O38 Mg40 1.986 . S
Mg39 O38 1.926 . S
Mg39 O53 1.984 . S
Mg39 O56 1.988 . S
Mg39 O57 2.061 1_554 S
Mg40 O38 1.986 . S
Mg40 O48 2.238 . S
Mg40 O52 2.042 . S
Mg40 O54 2.041 . S
Mg40 O61 2.038 . S
C41 O47 1.247 . S
C41 O48 1.289 . S
C42 O60 1.245 . S
C42 O61 1.274 . S
O43 C31 1.241 . S
O43 Mg36 2.042 . S
O44 C31 1.280 . S
O44 Mg34 1.984 . S
O45 C32 1.277 . S
O45 Mg36 2.041 . S
O46 C32 1.245 . S
O46 Mg34 1.988 . S
O47 Mg34 2.061 . S
O47 C41 1.247 . S
O48 Mg37 2.106 . S
O48 Mg40 2.238 . S
O48 C41 1.289 . S
C49 O50 1.245 . S
C49 O51 1.274 . S
O50 Mg37 2.079 . S
O50 C49 1.245 . S
O51 Mg36 2.038 . S
O51 C49 1.274 . S
O52 Mg40 2.042 . S
O52 C55 1.241 . S
O53 Mg39 1.984 . S
O53 C55 1.280 . S
O54 Mg40 2.041 . S
O54 C58 1.277 . S
C55 O52 1.241 . S
C55 O53 1.280 . S
O56 Mg39 1.988 . S
O56 C58 1.245 . S
O57 C33 1.247 . S
O57 Mg39 2.061 1_556 S
C58 O54 1.277 . S
C58 O56 1.245 . S
O59 C33 1.289 1_554 S
O59 Mg36 2.238 . S
O59 Mg37 2.106 . S
O60 Mg37 2.079 . S
O60 C42 1.245 . S
O61 Mg40 2.038 . S
O61 C42 1.274 . S
C62 O74 1.241 1_554 S
C62 O75 1.280 . S
C63 O76 1.277 . S
C63 O77 1.245 1_556 S
C64 O88 1.247 . S
C64 O90 1.289 . S
Mg65 O66 1.926 . S
Mg65 O75 1.984 . S
Mg65 O77 1.988 . S
Mg65 O78 2.061 . S
O66 Mg65 1.926 . S
O66 Mg67 1.986 1_554 S
O66 Mg68 1.917 . S
Mg67 O66 1.986 1_556 S
Mg67 O74 2.042 . S
Mg67 O76 2.041 . S
Mg67 O82 2.038 . S
Mg67 O90 2.238 . S
Mg68 O66 1.917 . S
Mg68 O69 1.917 1_554 S
Mg68 O79 2.108 . S
Mg68 O81 2.079 . S
Mg68 O90 2.105 1_554 S
Mg68 O91 2.079 1_554 S
O69 Mg68 1.917 1_556 S
O69 Mg70 1.926 . S
O69 Mg71 1.986 1_556 S
Mg70 O69 1.926 . S
Mg70 O84 1.984 . S
Mg70 O87 1.988 . S
Mg70 O88 2.061 . S
Mg71 O69 1.986 1_554 S
Mg71 O79 2.238 . S
Mg71 O83 2.042 . S
Mg71 O85 2.041 . S
Mg71 O92 2.038 . S
C72 O78 1.247 . S
C72 O79 1.289 . S
C73 O91 1.245 1_554 S
C73 O92 1.274 . S
O74 C62 1.241 1_556 S
O74 Mg67 2.042 . S
O75 C62 1.280 . S
O75 Mg65 1.984 . S
O76 C63 1.277 . S
O76 Mg67 2.041 . S
O77 C63 1.245 1_554 S
O77 Mg65 1.988 . S
O78 Mg65 2.061 . S
O78 C72 1.247 . S
O79 Mg68 2.108 . S
O79 Mg71 2.238 . S
O79 C72 1.289 . S
C80 O81 1.245 1_556 S
C80 O82 1.274 . S
O81 Mg68 2.079 . S
O81 C80 1.245 1_554 S
O82 Mg67 2.038 . S
O82 C80 1.274 . S
O83 Mg71 2.042 . S
O83 C86 1.241 1_554 S
O84 Mg70 1.984 . S
O84 C86 1.280 . S
O85 Mg71 2.041 . S
O85 C89 1.277 . S
C86 O83 1.241 1_556 S
C86 O84 1.280 . S
O87 Mg70 1.988 . S
O87 C89 1.245 1_556 S
O88 C64 1.247 . S
O88 Mg70 2.061 . S
C89 O85 1.277 . S
C89 O87 1.245 1_554 S
O90 C64 1.289 . S
O90 Mg67 2.238 . S
O90 Mg68 2.105 1_556 S
O91 Mg68 2.079 1_556 S
O91 C73 1.245 1_556 S
O92 Mg71 2.038 . S
O92 C73 1.274 . S
C93 O105 1.241 . S
C93 O106 1.280 . S
C94 O107 1.277 . S
C94 O108 1.245 . S
C95 O119 1.247 . S
C95 O121 1.289 . S
Mg96 O97 1.926 . S
Mg96 O106 1.984 . S
Mg96 O108 1.988 . S
Mg96 O109 2.061 . S
O97 Mg96 1.926 . S
O97 Mg98 1.986 . S
O97 Mg99 1.917 . S
Mg98 O97 1.986 . S
Mg98 O105 2.042 . S
Mg98 O107 2.041 . S
Mg98 O113 2.038 . S
Mg98 O121 2.238 . S
Mg99 O97 1.917 . S
Mg99 O100 1.917 . S
Mg99 O110 2.106 . S
Mg99 O112 2.079 . S
Mg99 O121 2.106 . S
Mg99 O122 2.079 . S
O100 Mg99 1.917 . S
O100 Mg101 1.926 . S
O100 Mg102 1.986 . S
Mg101 O100 1.926 . S
Mg101 O115 1.984 . S
Mg101 O118 1.988 . S
Mg101 O119 2.061 . S
Mg102 O100 1.986 . S
Mg102 O110 2.238 . S
Mg102 O114 2.042 . S
Mg102 O116 2.041 . S
Mg102 O123 2.038 . S
C103 O109 1.247 . S
C103 O110 1.289 . S
C104 O122 1.245 . S
C104 O123 1.274 . S
O105 C93 1.241 . S
O105 Mg98 2.042 . S
O106 C93 1.280 . S
O106 Mg96 1.984 . S
O107 C94 1.277 . S
O107 Mg98 2.041 . S
O108 C94 1.245 . S
O108 Mg96 1.988 . S
O109 Mg96 2.061 . S
O109 C103 1.247 . S
O110 Mg99 2.106 . S
O110 Mg102 2.238 . S
O110 C103 1.289 . S
C111 O112 1.245 . S
C111 O113 1.274 . S
O112 Mg99 2.079 . S
O112 C111 1.245 . S
O113 Mg98 2.038 . S
O113 C111 1.274 . S
O114 Mg102 2.042 . S
O114 C117 1.241 . S
O115 Mg101 1.984 . S
O115 C117 1.280 . S
O116 Mg102 2.041 . S
O116 C120 1.277 . S
C117 O114 1.241 . S
C117 O115 1.280 . S
O118 Mg101 1.988 . S
O118 C120 1.245 . S
O119 C95 1.247 . S
O119 Mg101 2.061 . S
C120 O116 1.277 . S
C120 O118 1.245 . S
O121 C95 1.289 . S
O121 Mg98 2.238 . S
O121 Mg99 2.106 . S
O122 Mg99 2.079 . S
O122 C104 1.245 . S
O123 Mg102 2.038 . S
O123 C104 1.274 . S
C124 O136 1.241 . S
C124 O137 1.280 . S
C125 O138 1.277 . S
C125 O139 1.245 . S
C126 O150 1.247 . S
C126 O152 1.289 . S
Mg127 O128 1.926 . S
Mg127 O137 1.984 . S
Mg127 O139 1.988 . S
Mg127 O140 2.061 . S
O128 Mg127 1.926 . S
O128 Mg129 1.986 . S
O128 Mg130 1.917 . S
Mg129 O128 1.986 . S
Mg129 O136 2.042 . S
Mg129 O138 2.041 . S
Mg129 O144 2.038 . S
Mg129 O152 2.238 . S
Mg130 O128 1.917 . S
Mg130 O131 1.917 . S
Mg130 O141 2.106 . S
Mg130 O143 2.079 . S
Mg130 O152 2.106 . S
Mg130 O153 2.079 . S
O131 Mg130 1.917 . S
O131 Mg132 1.926 . S
O131 Mg133 1.986 . S
Mg132 O131 1.926 . S
Mg132 O146 1.984 . S
Mg132 O149 1.988 . S
Mg132 O150 2.061 . S
Mg133 O131 1.986 . S
Mg133 O141 2.238 . S
Mg133 O145 2.042 . S
Mg133 O147 2.041 . S
Mg133 O154 2.038 . S
C134 O140 1.247 . S
C134 O141 1.289 . S
C135 O153 1.245 . S
C135 O154 1.274 . S
O136 C124 1.241 . S
O136 Mg129 2.042 . S
O137 C124 1.280 . S
O137 Mg127 1.984 . S
O138 C125 1.277 . S
O138 Mg129 2.041 . S
O139 C125 1.245 . S
O139 Mg127 1.988 . S
O140 Mg127 2.061 . S
O140 C134 1.247 . S
O141 Mg130 2.106 . S
O141 Mg133 2.238 . S
O141 C134 1.289 . S
C142 O143 1.245 . S
C142 O144 1.274 . S
O143 Mg130 2.079 . S
O143 C142 1.245 . S
O144 Mg129 2.038 . S
O144 C142 1.274 . S
O145 Mg133 2.042 . S
O145 C148 1.241 . S
O146 Mg132 1.984 . S
O146 C148 1.280 . S
O147 Mg133 2.041 . S
O147 C151 1.277 . S
C148 O145 1.241 . S
C148 O146 1.280 . S
O149 Mg132 1.988 . S
O149 C151 1.245 . S
O150 C126 1.247 . S
O150 Mg132 2.061 . S
C151 O147 1.277 . S
C151 O149 1.245 . S
O152 C126 1.289 . S
O152 Mg129 2.238 . S
O152 Mg130 2.106 . S
O153 Mg130 2.079 . S
O153 C135 1.245 . S
O154 Mg133 2.038 . S
O154 C135 1.274 . S
C155 O167 1.241 . S
C155 O168 1.280 . S
C156 O169 1.277 . S
C156 O170 1.245 . S
C157 O181 1.247 . S
C157 O183 1.289 . S
Mg158 O159 1.926 . S
Mg158 O168 1.984 . S
Mg158 O170 1.988 . S
Mg158 O171 2.061 . S
O159 Mg158 1.926 . S
O159 Mg160 1.986 . S
O159 Mg161 1.917 . S
Mg160 O159 1.986 . S
Mg160 O167 2.042 . S
Mg160 O169 2.041 . S
Mg160 O175 2.038 . S
Mg160 O183 2.238 . S
Mg161 O159 1.917 . S
Mg161 O162 1.917 . S
Mg161 O172 2.106 . S
Mg161 O174 2.079 . S
Mg161 O183 2.106 . S
Mg161 O184 2.079 . S
O162 Mg161 1.917 . S
O162 Mg163 1.926 . S
O162 Mg164 1.986 . S
Mg163 O162 1.926 . S
Mg163 O177 1.984 . S
Mg163 O180 1.988 . S
Mg163 O181 2.061 . S
Mg164 O162 1.986 . S
Mg164 O172 2.238 . S
Mg164 O176 2.042 . S
Mg164 O178 2.041 . S
Mg164 O185 2.038 . S
C165 O171 1.247 . S
C165 O172 1.289 . S
C166 O184 1.245 . S
C166 O185 1.274 . S
O167 C155 1.241 . S
O167 Mg160 2.042 . S
O168 C155 1.280 . S
O168 Mg158 1.984 . S
O169 C156 1.277 . S
O169 Mg160 2.041 . S
O170 C156 1.245 . S
O170 Mg158 1.988 . S
O171 Mg158 2.061 . S
O171 C165 1.247 . S
O172 Mg161 2.106 . S
O172 Mg164 2.238 . S
O172 C165 1.289 . S
C173 O174 1.245 . S
C173 O175 1.274 . S
O174 Mg161 2.079 . S
O174 C173 1.245 . S
O175 Mg160 2.038 . S
O175 C173 1.274 . S
O176 Mg164 2.042 . S
O176 C179 1.241 . S
O177 Mg163 1.984 . S
O177 C179 1.280 . S
O178 Mg164 2.041 . S
O178 C182 1.277 . S
C179 O176 1.241 . S
C179 O177 1.280 . S
O180 Mg163 1.988 . S
O180 C182 1.245 . S
O181 C157 1.247 . S
O181 Mg163 2.061 . S
C182 O178 1.277 . S
C182 O180 1.245 . S
O183 C157 1.289 . S
O183 Mg160 2.238 . S
O183 Mg161 2.106 . S
O184 Mg161 2.079 . S
O184 C166 1.245 . S
O185 Mg164 2.038 . S
O185 C166 1.274 . S
C186 O198 1.241 . S
C186 O199 1.280 . S
C187 O200 1.277 . S
C187 O201 1.245 . S
C188 O212 1.247 . S
C188 O214 1.289 . S
Mg189 O190 1.926 . S
Mg189 O199 1.984 . S
Mg189 O201 1.988 . S
Mg189 O202 2.061 . S
O190 Mg189 1.926 . S
O190 Mg191 1.986 . S
O190 Mg192 1.917 . S
Mg191 O190 1.986 . S
Mg191 O198 2.042 . S
Mg191 O200 2.041 . S
Mg191 O206 2.038 . S
Mg191 O214 2.238 . S
Mg192 O190 1.917 . S
Mg192 O193 1.917 . S
Mg192 O203 2.106 . S
Mg192 O205 2.079 . S
Mg192 O214 2.106 . S
Mg192 O215 2.079 . S
O193 Mg192 1.917 . S
O193 Mg194 1.926 . S
O193 Mg195 1.986 . S
Mg194 O193 1.926 . S
Mg194 O208 1.984 . S
Mg194 O211 1.988 . S
Mg194 O212 2.061 . S
Mg195 O193 1.986 . S
Mg195 O203 2.238 . S
Mg195 O207 2.042 . S
Mg195 O209 2.041 . S
Mg195 O216 2.038 . S
C196 O202 1.247 . S
C196 O203 1.289 . S
C197 O215 1.245 . S
C197 O216 1.274 . S
O198 C186 1.241 . S
O198 Mg191 2.042 . S
O199 C186 1.280 . S
O199 Mg189 1.984 . S
O200 C187 1.277 . S
O200 Mg191 2.041 . S
O201 C187 1.245 . S
O201 Mg189 1.988 . S
O202 Mg189 2.061 . S
O202 C196 1.247 . S
O203 Mg192 2.106 . S
O203 Mg195 2.238 . S
O203 C196 1.289 . S
C204 O205 1.245 . S
C204 O206 1.274 . S
O205 Mg192 2.079 . S
O205 C204 1.245 . S
O206 Mg191 2.038 . S
O206 C204 1.274 . S
O207 Mg195 2.042 . S
O207 C210 1.241 . S
O208 Mg194 1.984 . S
O208 C210 1.280 . S
O209 Mg195 2.041 . S
O209 C213 1.277 . S
C210 O207 1.241 . S
C210 O208 1.280 . S
O211 Mg194 1.988 . S
O211 C213 1.245 . S
O212 C188 1.247 . S
O212 Mg194 2.061 . S
C213 O209 1.277 . S
C213 O211 1.245 . S
O214 C188 1.289 . S
O214 Mg191 2.238 . S
O214 Mg192 2.106 . S
O215 Mg192 2.079 . S
O215 C197 1.245 . S
O216 Mg195 2.038 . S
O216 C197 1.274 . S
C217 O229 1.241 . S
C217 O230 1.280 . S
C218 O231 1.277 . S
C218 O232 1.245 . S
C219 O243 1.247 . S
C219 O245 1.289 . S
Mg220 O221 1.926 . S
Mg220 O230 1.984 . S
Mg220 O232 1.988 . S
Mg220 O233 2.061 . S
O221 Mg220 1.926 . S
O221 Mg222 1.986 . S
O221 Mg223 1.917 . S
Mg222 O221 1.986 . S
Mg222 O229 2.042 . S
Mg222 O231 2.041 . S
Mg222 O237 2.038 . S
Mg222 O245 2.238 . S
Mg223 O221 1.917 . S
Mg223 O224 1.917 . S
Mg223 O234 2.106 . S
Mg223 O236 2.079 . S
Mg223 O245 2.106 . S
Mg223 O246 2.079 . S
O224 Mg223 1.917 . S
O224 Mg225 1.926 . S
O224 Mg226 1.986 . S
Mg225 O224 1.926 . S
Mg225 O239 1.984 . S
Mg225 O242 1.988 . S
Mg225 O243 2.061 . S
Mg226 O224 1.986 . S
Mg226 O234 2.238 . S
Mg226 O238 2.042 . S
Mg226 O240 2.041 . S
Mg226 O247 2.038 . S
C227 O233 1.247 . S
C227 O234 1.289 . S
C228 O246 1.245 . S
C228 O247 1.274 . S
O229 C217 1.241 . S
O229 Mg222 2.042 . S
O230 C217 1.280 . S
O230 Mg220 1.984 . S
O231 C218 1.277 . S
O231 Mg222 2.041 . S
O232 C218 1.245 . S
O232 Mg220 1.988 . S
O233 Mg220 2.061 . S
O233 C227 1.247 . S
O234 Mg223 2.106 . S
O234 Mg226 2.238 . S
O234 C227 1.289 . S
C235 O236 1.245 . S
C235 O237 1.274 . S
O236 Mg223 2.079 . S
O236 C235 1.245 . S
O237 Mg222 2.038 . S
O237 C235 1.274 . S
O238 Mg226 2.042 . S
O238 C241 1.241 . S
O239 Mg225 1.984 . S
O239 C241 1.280 . S
O240 Mg226 2.041 . S
O240 C244 1.277 . S
C241 O238 1.241 . S
C241 O239 1.280 . S
O242 Mg225 1.988 . S
O242 C244 1.245 . S
O243 C219 1.247 . S
O243 Mg225 2.061 . S
C244 O240 1.277 . S
C244 O242 1.245 . S
O245 C219 1.289 . S
O245 Mg222 2.238 . S
O245 Mg223 2.106 . S
O246 Mg223 2.079 . S
O246 C228 1.245 . S
O247 Mg226 2.038 . S
O247 C228 1.274 . S
C248 O260 1.241 . S
C248 O261 1.280 . S
C249 O262 1.277 . S
C249 O263 1.245 . S
C250 O274 1.247 . S
C250 O276 1.289 . S
Mg251 O252 1.926 . S
Mg251 O261 1.984 . S
Mg251 O263 1.988 . S
Mg251 O264 2.061 . S
O252 Mg251 1.926 . S
O252 Mg253 1.986 . S
O252 Mg254 1.917 . S
Mg253 O252 1.986 . S
Mg253 O260 2.042 . S
Mg253 O262 2.041 . S
Mg253 O268 2.038 . S
Mg253 O276 2.238 . S
Mg254 O252 1.917 . S
Mg254 O255 1.917 . S
Mg254 O265 2.106 . S
Mg254 O267 2.079 . S
Mg254 O276 2.106 . S
Mg254 O277 2.079 . S
O255 Mg254 1.917 . S
O255 Mg256 1.926 . S
O255 Mg257 1.986 . S
Mg256 O255 1.926 . S
Mg256 O270 1.984 . S
Mg256 O273 1.988 . S
Mg256 O274 2.061 . S
Mg257 O255 1.986 . S
Mg257 O265 2.238 . S
Mg257 O269 2.042 . S
Mg257 O271 2.041 . S
Mg257 O278 2.038 . S
C258 O264 1.247 . S
C258 O265 1.289 . S
C259 O277 1.245 . S
C259 O278 1.274 . S
O260 C248 1.241 . S
O260 Mg253 2.042 . S
O261 C248 1.280 . S
O261 Mg251 1.984 . S
O262 C249 1.277 . S
O262 Mg253 2.041 . S
O263 C249 1.245 . S
O263 Mg251 1.988 . S
O264 Mg251 2.061 . S
O264 C258 1.247 . S
O265 Mg254 2.106 . S
O265 Mg257 2.238 . S
O265 C258 1.289 . S
C266 O267 1.245 . S
C266 O268 1.274 . S
O267 Mg254 2.079 . S
O267 C266 1.245 . S
O268 Mg253 2.038 . S
O268 C266 1.274 . S
O269 Mg257 2.042 . S
O269 C272 1.241 . S
O270 Mg256 1.984 . S
O270 C272 1.280 . S
O271 Mg257 2.041 . S
O271 C275 1.277 . S
C272 O269 1.241 . S
C272 O270 1.280 . S
O273 Mg256 1.988 . S
O273 C275 1.245 . S
O274 C250 1.247 . S
O274 Mg256 2.061 . S
C275 O271 1.277 . S
C275 O273 1.245 . S
O276 C250 1.289 . S
O276 Mg253 2.238 . S
O276 Mg254 2.106 . S
O277 Mg254 2.079 . S
O277 C259 1.245 . S
O278 Mg257 2.038 . S
O278 C259 1.274 . S
H279 C287 0.929 . S
H280 C289 0.930 . S
H281 C291 0.930 . S
H282 C294 0.929 . S
H283 C297 0.930 . S
H284 C299 0.960 . S
H285 C299 0.960 . S
H286 C299 0.960 . S
C287 H279 0.929 . S
C287 C288 1.377 . S
C287 C289 1.384 . S
C288 C287 1.377 . S
C288 C294 1.390 . S
C289 H280 0.930 . S
C289 C287 1.384 . S
C289 C290 1.372 . S
C290 C289 1.372 . S
C290 C291 1.400 . S
C290 C295 1.490 . S
C291 H281 0.930 . S
C291 C290 1.400 . S
C291 C294 1.386 . S
H292 C308 0.930 . S
H293 C309 0.931 . S
C294 H282 0.929 . S
C294 C288 1.390 . S
C294 C291 1.386 . S
C295 C290 1.490 . S
C295 C297 1.395 . S
C295 C298 1.403 . S
H296 C302 0.930 . S
C297 H283 0.930 . S
C297 C295 1.395 . S
C297 C300 1.403 . S
C298 C295 1.403 . S
C298 C299 1.524 . S
C298 C302 1.400 . S
C299 H284 0.960 . S
C299 H285 0.960 . S
C299 H286 0.960 . S
C299 C298 1.524 . S
C300 C297 1.403 . S
C300 C301 1.392 . S
C300 C304 1.495 . S
C301 C300 1.392 . S
C301 C302 1.385 . S
C301 C303 1.478 . S
C302 H296 0.930 . S
C302 C298 1.400 . S
C302 C301 1.385 . S
C303 C301 1.478 . S
C303 C305 1.381 . S
C303 C309 1.383 . S
C304 C300 1.495 . S
C304 H310 0.959 . S
C304 H311 0.961 . S
C304 H312 0.960 . S
C305 C303 1.381 . S
C305 C306 1.394 . S
C305 H313 0.930 . S
C306 C305 1.394 . S
C306 C307 1.383 . S
C306 H314 0.929 . S
C307 C306 1.383 . S
C307 C308 1.377 . S
C308 H292 0.930 . S
C308 C307 1.377 . S
C308 C309 1.379 . S
C309 H293 0.931 . S
C309 C303 1.383 . S
C309 C308 1.379 . S
H310 C304 0.959 . S
H311 C304 0.961 . S
H312 C304 0.960 . S
H313 C305 0.930 . S
H314 C306 0.929 . S
H315 C323 0.929 . S
H316 C325 0.930 . S
H317 C327 0.930 . S
H318 C330 0.929 . S
H319 C333 0.930 . S
H320 C335 0.960 . S
H321 C335 0.960 . S
H322 C335 0.960 . S
C323 H315 0.929 . S
C323 C324 1.377 . S
C323 C325 1.384 . S
C324 C323 1.377 . S
C324 C330 1.390 . S
C325 H316 0.930 . S
C325 C323 1.384 . S
C325 C326 1.372 . S
C326 C325 1.372 . S
C326 C327 1.400 . S
C326 C331 1.490 . S
C327 H317 0.930 . S
C327 C326 1.400 . S
C327 C330 1.386 . S
H328 C344 0.930 . S
H329 C345 0.931 . S
C330 H318 0.929 . S
C330 C324 1.390 . S
C330 C327 1.386 . S
C331 C326 1.490 . S
C331 C333 1.395 . S
C331 C334 1.403 . S
H332 C338 0.930 . S
C333 H319 0.930 . S
C333 C331 1.395 . S
C333 C336 1.403 . S
C334 C331 1.403 . S
C334 C335 1.524 . S
C334 C338 1.400 . S
C335 H320 0.960 . S
C335 H321 0.960 . S
C335 H322 0.960 . S
C335 C334 1.524 . S
C336 C333 1.403 . S
C336 C337 1.392 . S
C336 C340 1.495 . S
C337 C336 1.392 . S
C337 C338 1.385 . S
C337 C339 1.478 . S
C338 H332 0.930 . S
C338 C334 1.400 . S
C338 C337 1.385 . S
C339 C337 1.478 . S
C339 C341 1.381 . S
C339 C345 1.383 . S
C340 C336 1.495 . S
C340 H346 0.959 . S
C340 H347 0.961 . S
C340 H348 0.960 . S
C341 C339 1.381 . S
C341 C342 1.394 1_545 S
C341 H349 0.930 . S
C342 C341 1.394 1_565 S
C342 C343 1.383 . S
C342 H350 0.929 . S
C343 C342 1.383 . S
C343 C344 1.377 1_565 S
C344 H328 0.930 . S
C344 C343 1.377 1_545 S
C344 C345 1.379 . S
C345 H329 0.931 . S
C345 C339 1.383 . S
C345 C344 1.379 . S
H346 C340 0.959 . S
H347 C340 0.961 . S
H348 C340 0.960 . S
H349 C341 0.930 . S
H350 C342 0.929 . S
H351 C359 0.929 . S
H352 C361 0.930 . S
H353 C363 0.899 1_455 S
H354 C366 0.929 . S
H355 C369 0.930 1_556 S
H356 C371 0.960 . S
H357 C371 0.960 . S
H358 C371 0.960 . S
C359 H351 0.929 . S
C359 C360 1.377 1_655 S
C359 C361 1.384 1_556 S
C360 C359 1.377 1_455 S
C360 C366 1.390 1_556 S
C361 H352 0.930 . S
C361 C359 1.384 1_554 S
C361 C362 1.372 . S
C362 C361 1.372 . S
C362 C363 1.453 . S
C362 C367 1.490 . S
C363 H353 0.899 1_655 S
C363 C362 1.453 . S
C363 C366 1.364 1_655 S
H364 C380 0.930 . S
H365 C381 0.931 . S
C366 H354 0.929 . S
C366 C360 1.390 1_554 S
C366 C363 1.364 1_455 S
C367 C362 1.490 . S
C367 C369 1.395 . S
C367 C370 1.403 . S
H368 C374 0.930 . S
C369 H355 0.930 1_554 S
C369 C367 1.395 . S
C369 C372 1.403 . S
C370 C367 1.403 . S
C370 C371 1.524 . S
C370 C374 1.400 . S
C371 H356 0.960 . S
C371 H357 0.960 . S
C371 H358 0.960 . S
C371 C370 1.524 . S
C372 C369 1.403 . S
C372 C373 1.392 . S
C372 C376 1.495 . S
C373 C372 1.392 . S
C373 C374 1.385 . S
C373 C375 1.478 . S
C374 H368 0.930 . S
C374 C370 1.400 . S
C374 C373 1.385 . S
C375 C373 1.478 . S
C375 C377 1.381 . S
C375 C381 1.383 . S
C376 C372 1.495 . S
C376 H382 0.959 1_554 S
C376 H383 0.961 . S
C376 H384 0.960 . S
C377 C375 1.381 . S
C377 C378 1.394 . S
C377 H385 0.930 . S
C378 C377 1.394 . S
C378 C379 1.383 . S
C378 H386 0.929 . S
C379 C378 1.383 . S
C379 C380 1.377 . S
C380 H364 0.930 . S
C380 C379 1.377 . S
C380 C381 1.379 . S
C381 H365 0.931 . S
C381 C375 1.383 . S
C381 C380 1.379 . S
H382 C376 0.959 1_556 S
H383 C376 0.961 . S
H384 C376 0.960 . S
H385 C377 0.930 . S
H386 C378 0.929 . S
H387 C395 0.929 . S
H388 C397 0.930 . S
H389 C399 0.930 . S
H390 C402 0.929 . S
H391 C405 0.930 . S
H392 C407 0.960 . S
H393 C407 0.960 . S
H394 C407 0.960 . S
C395 H387 0.929 . S
C395 C396 1.377 . S
C395 C397 1.384 . S
C396 C395 1.377 . S
C396 C402 1.390 . S
C397 H388 0.930 . S
C397 C395 1.384 . S
C397 C398 1.372 . S
C398 C397 1.372 . S
C398 C399 1.400 . S
C398 C403 1.490 . S
C399 H389 0.930 . S
C399 C398 1.400 . S
C399 C402 1.386 . S
H400 C416 0.930 . S
H401 C417 0.931 . S
C402 H390 0.929 . S
C402 C396 1.390 . S
C402 C399 1.386 . S
C403 C398 1.490 . S
C403 C405 1.395 . S
C403 C406 1.403 . S
H404 C410 0.930 . S
C405 H391 0.930 . S
C405 C403 1.395 . S
C405 C408 1.403 . S
C406 C403 1.403 . S
C406 C407 1.524 . S
C406 C410 1.400 . S
C407 H392 0.960 . S
C407 H393 0.960 . S
C407 H394 0.960 . S
C407 C406 1.524 . S
C408 C405 1.403 . S
C408 C409 1.392 . S
C408 C412 1.495 . S
C409 C408 1.392 . S
C409 C410 1.385 . S
C409 C411 1.478 . S
C410 H404 0.930 . S
C410 C406 1.400 . S
C410 C409 1.385 . S
C411 C409 1.478 . S
C411 C413 1.381 . S
C411 C417 1.383 . S
C412 C408 1.495 . S
C412 H418 0.959 . S
C412 H419 0.961 . S
C412 H420 0.960 . S
C413 C411 1.381 . S
C413 C414 1.394 . S
C413 H421 0.930 . S
C414 C413 1.394 . S
C414 C415 1.383 . S
C414 H422 0.929 . S
C415 C414 1.383 . S
C415 C416 1.377 . S
C416 H400 0.930 . S
C416 C415 1.377 . S
C416 C417 1.379 . S
C417 H401 0.931 . S
C417 C411 1.383 . S
C417 C416 1.379 . S
H418 C412 0.959 . S
H419 C412 0.961 . S
H420 C412 0.960 . S
H421 C413 0.930 . S
H422 C414 0.929 . S
H423 C431 0.929 . S
H424 C433 0.930 . S
H425 C435 0.930 . S
H426 C438 0.929 . S
H427 C441 0.930 . S
H428 C443 0.960 . S
H429 C443 0.960 . S
H430 C443 0.960 . S
C431 H423 0.929 . S
C431 C432 1.377 . S
C431 C433 1.384 . S
C432 C431 1.377 . S
C432 C438 1.390 1_565 S
C433 H424 0.930 . S
C433 C431 1.384 . S
C433 C434 1.372 1_565 S
C434 C433 1.372 1_545 S
C434 C435 1.400 . S
C434 C439 1.490 . S
C435 H425 0.930 . S
C435 C434 1.400 . S
C435 C438 1.386 . S
H436 C452 0.930 . S
H437 C453 0.931 . S
C438 H426 0.929 . S
C438 C432 1.390 1_545 S
C438 C435 1.386 . S
C439 C434 1.490 . S
C439 C441 1.395 . S
C439 C442 1.403 . S
H440 C446 0.930 . S
C441 H427 0.930 . S
C441 C439 1.395 . S
C441 C444 1.403 . S
C442 C439 1.403 . S
C442 C443 1.524 . S
C442 C446 1.400 . S
C443 H428 0.960 . S
C443 H429 0.960 . S
C443 H430 0.960 . S
C443 C442 1.524 . S
C444 C441 1.403 . S
C444 C445 1.392 . S
C444 C448 1.495 . S
C445 C444 1.392 . S
C445 C446 1.385 . S
C445 C447 1.478 . S
C446 H440 0.930 . S
C446 C442 1.400 . S
C446 C445 1.385 . S
C447 C445 1.478 . S
C447 C449 1.381 . S
C447 C453 1.383 . S
C448 C444 1.495 . S
C448 H454 0.959 . S
C448 H455 0.961 . S
C448 H456 0.960 . S
C449 C447 1.381 . S
C449 C450 1.394 . S
C449 H457 0.930 . S
C450 C449 1.394 . S
C450 C451 1.383 . S
C450 H458 0.929 . S
C451 C450 1.383 . S
C451 C452 1.377 . S
C452 H436 0.930 . S
C452 C451 1.377 . S
C452 C453 1.379 . S
C453 H437 0.931 . S
C453 C447 1.383 . S
C453 C452 1.379 . S
H454 C448 0.959 . S
H455 C448 0.961 . S
H456 C448 0.960 . S
H457 C449 0.930 . S
H458 C450 0.929 . S
H459 C467 0.929 1_556 S
H460 C469 0.930 . S
H461 C471 0.930 . S
H462 C474 0.929 . S
H463 C477 0.930 1_556 S
H464 C479 0.960 . S
H465 C479 0.960 . S
H466 C479 0.960 . S
C467 H459 0.929 1_554 S
C467 C468 1.377 . S
C467 C469 1.384 1_455 S
C468 C467 1.377 . S
C468 C474 1.390 . S
C469 H460 0.930 . S
C469 C467 1.384 1_655 S
C469 C470 1.372 . S
C470 C469 1.372 . S
C470 C471 1.400 . S
C470 C475 1.490 . S
C471 H461 0.930 . S
C471 C470 1.400 . S
C471 C474 1.386 1_655 S
H472 C488 0.930 . S
H473 C489 0.931 . S
C474 H462 0.929 . S
C474 C468 1.390 . S
C474 C471 1.386 1_455 S
C475 C470 1.490 . S
C475 C477 1.395 . S
C475 C478 1.403 . S
H476 C482 0.930 . S
C477 H463 0.930 1_554 S
C477 C475 1.395 . S
C477 C480 1.403 . S
C478 C475 1.403 . S
C478 C479 1.524 . S
C478 C482 1.400 . S
C479 H464 0.960 . S
C479 H465 0.960 . S
C479 H466 0.960 . S
C479 C478 1.524 . S
C480 C477 1.403 . S
C480 C481 1.392 . S
C480 C484 1.495 . S
C481 C480 1.392 . S
C481 C482 1.385 . S
C481 C483 1.478 . S
C482 H476 0.930 . S
C482 C478 1.400 . S
C482 C481 1.385 . S
C483 C481 1.478 . S
C483 C485 1.381 . S
C483 C489 1.383 . S
C484 C480 1.495 . S
C484 H490 0.959 1_554 S
C484 H491 0.961 . S
C484 H492 0.960 . S
C485 C483 1.381 . S
C485 C486 1.394 . S
C485 H493 0.930 . S
C486 C485 1.394 . S
C486 C487 1.383 . S
C486 H494 0.929 . S
C487 C486 1.383 . S
C487 C488 1.377 . S
C488 H472 0.930 . S
C488 C487 1.377 . S
C488 C489 1.379 . S
C489 H473 0.931 . S
C489 C483 1.383 . S
C489 C488 1.379 . S
H490 C484 0.959 1_556 S
H491 C484 0.961 . S
H492 C484 0.960 . S
H493 C485 0.930 . S
H494 C486 0.929 . S
H495 C503 0.929 . S
H496 C505 0.930 . S
H497 C507 0.930 . S
H498 C510 0.929 . S
H499 C513 0.930 . S
H500 C515 0.960 . S
H501 C515 0.960 . S
H502 C515 0.960 . S
C503 H495 0.929 . S
C503 C504 1.377 . S
C503 C505 1.384 . S
C504 C503 1.377 . S
C504 C510 1.390 . S
C505 H496 0.930 . S
C505 C503 1.384 . S
C505 C506 1.372 . S
C506 C505 1.372 . S
C506 C507 1.400 . S
C506 C511 1.490 . S
C507 H497 0.930 . S
C507 C506 1.400 . S
C507 C510 1.386 . S
H508 C524 0.930 . S
H509 C525 0.930 . S
C510 H498 0.929 . S
C510 C504 1.390 . S
C510 C507 1.386 . S
C511 C506 1.490 . S
C511 C513 1.395 . S
C511 C514 1.403 . S
H512 C518 0.930 . S
C513 H499 0.930 . S
C513 C511 1.395 . S
C513 C516 1.403 . S
C514 C511 1.403 . S
C514 C515 1.524 . S
C514 C518 1.400 . S
C515 H500 0.960 . S
C515 H501 0.960 . S
C515 H502 0.960 . S
C515 C514 1.524 . S
C516 C513 1.403 . S
C516 C517 1.392 . S
C516 C520 1.495 . S
C517 C516 1.392 . S
C517 C518 1.385 . S
C517 C519 1.478 . S
C518 H512 0.930 . S
C518 C514 1.400 . S
C518 C517 1.385 . S
C519 C517 1.478 . S
C519 C521 1.381 1_655 S
C519 C525 1.383 1_655 S
C520 C516 1.495 . S
C520 H526 0.959 . S
C520 H527 0.961 . S
C520 H528 0.960 . S
C521 C519 1.381 1_455 S
C521 C522 1.394 . S
C521 H529 0.923 1_455 S
C522 C521 1.394 . S
C522 C523 1.383 . S
C522 H530 0.929 . S
C523 C522 1.383 . S
C523 C524 1.377 . S
C524 H508 0.930 . S
C524 C523 1.377 . S
C524 C525 1.379 . S
C525 H509 0.930 . S
C525 C519 1.383 1_455 S
C525 C524 1.379 . S
H526 C520 0.959 . S
H527 C520 0.961 . S
H528 C520 0.960 . S
H529 C521 0.923 1_655 S
H530 C522 0.929 . S
H531 C539 0.929 . S
H532 C541 0.930 . S
H533 C543 0.930 . S
H534 C546 0.929 . S
H535 C549 0.930 . S
H536 C551 0.960 . S
H537 C551 0.960 . S
H538 C551 0.960 . S
C539 H531 0.929 . S
C539 C540 1.377 . S
C539 C541 1.384 . S
C540 C539 1.377 . S
C540 C546 1.390 . S
C541 H532 0.930 . S
C541 C539 1.384 . S
C541 C542 1.372 . S
C542 C541 1.372 . S
C542 C543 1.400 . S
C542 C547 1.490 . S
C543 H533 0.930 . S
C543 C542 1.400 . S
C543 C546 1.386 . S
H544 C560 0.930 . S
H545 C561 0.931 . S
C546 H534 0.929 . S
C546 C540 1.390 . S
C546 C543 1.386 . S
C547 C542 1.490 . S
C547 C549 1.395 . S
C547 C550 1.403 . S
H548 C554 0.930 . S
C549 H535 0.930 . S
C549 C547 1.395 . S
C549 C552 1.403 . S
C550 C547 1.403 . S
C550 C551 1.524 . S
C550 C554 1.400 . S
C551 H536 0.960 . S
C551 H537 0.960 . S
C551 H538 0.960 . S
C551 C550 1.524 . S
C552 C549 1.403 . S
C552 C553 1.392 . S
C552 C556 1.495 . S
C553 C552 1.392 . S
C553 C554 1.385 . S
C553 C555 1.478 . S
C554 H548 0.930 . S
C554 C550 1.400 . S
C554 C553 1.385 . S
C555 C553 1.478 . S
C555 C557 1.381 . S
C555 C561 1.383 . S
C556 C552 1.495 . S
C556 H562 0.959 . S
C556 H563 0.961 . S
C556 H564 0.960 . S
C557 C555 1.381 . S
C557 C558 1.394 . S
C557 H565 0.930 . S
C558 C557 1.394 . S
C558 C559 1.383 . S
C558 H566 0.929 . S
C559 C558 1.383 . S
C559 C560 1.377 . S
C560 H544 0.930 . S
C560 C559 1.377 . S
C560 C561 1.379 . S
C561 H545 0.931 . S
C561 C555 1.383 . S
C561 C560 1.379 . S
H562 C556 0.959 . S
H563 C556 0.961 . S
H564 C556 0.960 . S
H565 C557 0.930 . S
H566 C558 0.929 . S
H567 C575 0.929 . S
H568 C577 0.930 . S
H569 C579 0.930 . S
H570 C582 0.929 . S
H571 C585 0.930 . S
H572 C587 0.960 . S
H573 C587 0.960 . S
H574 C587 0.960 . S
C575 H567 0.929 . S
C575 C576 1.377 . S
C575 C577 1.384 . S
C576 C575 1.377 . S
C576 C582 1.390 . S
C577 H568 0.930 . S
C577 C575 1.384 . S
C577 C578 1.372 1_565 S
C578 C577 1.372 1_545 S
C578 C579 1.400 . S
C578 C583 1.490 . S
C579 H569 0.930 . S
C579 C578 1.400 . S
C579 C582 1.386 1_545 S
H580 C596 0.930 . S
H581 C597 0.931 . S
C582 H570 0.929 . S
C582 C576 1.390 . S
C582 C579 1.386 1_565 S
C583 C578 1.490 . S
C583 C585 1.395 . S
C583 C586 1.403 . S
H584 C590 0.930 . S
C585 H571 0.930 . S
C585 C583 1.395 . S
C585 C588 1.403 . S
C586 C583 1.403 . S
C586 C587 1.524 . S
C586 C590 1.400 . S
C587 H572 0.960 . S
C587 H573 0.960 . S
C587 H574 0.960 . S
C587 C586 1.524 . S
C588 C585 1.403 . S
C588 C589 1.392 . S
C588 C592 1.495 . S
C589 C588 1.392 . S
C589 C590 1.385 . S
C589 C591 1.478 . S
C590 H584 0.930 . S
C590 C586 1.400 . S
C590 C589 1.385 . S
C591 C589 1.478 . S
C591 C593 1.381 . S
C591 C597 1.383 . S
C592 C588 1.495 . S
C592 H598 0.959 . S
C592 H599 0.961 . S
C592 H600 0.960 . S
C593 C591 1.381 . S
C593 C594 1.394 . S
C593 H601 0.930 . S
C594 C593 1.394 . S
C594 C595 1.383 . S
C594 H602 0.929 . S
C595 C594 1.383 . S
C595 C596 1.377 . S
C596 H580 0.930 . S
C596 C595 1.377 . S
C596 C597 1.379 . S
C597 H581 0.931 . S
C597 C591 1.383 . S
C597 C596 1.379 . S
H598 C592 0.959 . S
H599 C592 0.961 . S
H600 C592 0.960 . S
H601 C593 0.930 . S
H602 C594 0.929 . S
H603 C611 0.929 . S
H604 C613 0.930 . S
H605 C615 0.930 . S
H606 C618 0.929 . S
H607 C621 0.930 . S
H608 C623 0.960 . S
H609 C623 0.960 . S
H610 C623 0.960 . S
C611 H603 0.929 . S
C611 C612 1.377 . S
C611 C613 1.384 . S
C612 C611 1.377 . S
C612 C618 1.390 . S
C613 H604 0.930 . S
C613 C611 1.384 . S
C613 C614 1.372 . S
C614 C613 1.372 . S
C614 C615 1.400 . S
C614 C619 1.490 . S
C615 H605 0.930 . S
C615 C614 1.400 . S
C615 C618 1.386 . S
H616 C632 0.930 . S
H617 C633 0.931 1_545 S
C618 H606 0.929 . S
C618 C612 1.390 . S
C618 C615 1.386 . S
C619 C614 1.490 . S
C619 C621 1.395 . S
C619 C622 1.403 . S
H620 C626 0.930 . S
C621 H607 0.930 . S
C621 C619 1.395 . S
C621 C624 1.403 . S
C622 C619 1.403 . S
C622 C623 1.524 . S
C622 C626 1.400 . S
C623 H608 0.960 . S
C623 H609 0.960 . S
C623 H610 0.960 . S
C623 C622 1.524 . S
C624 C621 1.403 . S
C624 C625 1.392 . S
C624 C628 1.495 . S
C625 C624 1.392 . S
C625 C626 1.385 . S
C625 C627 1.478 1_545 S
C626 H620 0.930 . S
C626 C622 1.400 . S
C626 C625 1.385 . S
C627 C625 1.478 1_565 S
C627 C629 1.381 . S
C627 C633 1.383 . S
C628 C624 1.495 . S
C628 H634 0.959 . S
C628 H635 0.961 . S
C628 H636 0.960 . S
C629 C627 1.381 . S
C629 C630 1.394 . S
C629 H637 0.930 . S
C630 C629 1.394 . S
C630 C631 1.383 . S
C630 H638 0.929 . S
C631 C630 1.383 . S
C631 C632 1.377 . S
C632 H616 0.930 . S
C632 C631 1.377 . S
C632 C633 1.379 . S
C633 H617 0.931 1_565 S
C633 C627 1.383 . S
C633 C632 1.379 . S
H634 C628 0.959 . S
H635 C628 0.961 . S
H636 C628 0.960 . S
H637 C629 0.930 . S
H638 C630 0.929 . S
H639 C647 0.929 . S
H640 C649 0.936 1_655 S
H641 C651 0.930 . S
H642 C654 0.929 . S
H643 C657 0.930 . S
H644 C659 0.960 . S
H645 C659 0.960 1_455 S
H646 C659 0.960 . S
C647 H639 0.929 . S
C647 C648 1.377 . S
C647 C649 1.403 . S
C648 C647 1.377 . S
C648 C654 1.390 . S
C649 H640 0.936 1_455 S
C649 C647 1.403 . S
C649 C650 1.349 1_455 S
C650 C649 1.349 1_655 S
C650 C651 1.400 . S
C650 C655 1.490 . S
C651 H641 0.930 . S
C651 C650 1.400 . S
C651 C654 1.386 1_655 S
H652 C668 0.930 . S
H653 C669 0.931 . S
C654 H642 0.929 . S
C654 C648 1.390 . S
C654 C651 1.386 1_455 S
C655 C650 1.490 . S
C655 C657 1.395 . S
C655 C658 1.403 . S
H656 C662 0.930 . S
C657 H643 0.930 . S
C657 C655 1.395 . S
C657 C660 1.403 . S
C658 C655 1.403 . S
C658 C659 1.524 . S
C658 C662 1.400 . S
C659 H644 0.960 . S
C659 H645 0.960 1_655 S
C659 H646 0.960 . S
C659 C658 1.524 . S
C660 C657 1.403 . S
C660 C661 1.392 . S
C660 C664 1.495 . S
C661 C660 1.392 . S
C661 C662 1.385 . S
C661 C663 1.478 . S
C662 H656 0.930 . S
C662 C658 1.400 . S
C662 C661 1.385 . S
C663 C661 1.478 . S
C663 C665 1.381 . S
C663 C669 1.383 . S
C664 C660 1.495 . S
C664 H670 0.959 . S
C664 H671 0.961 . S
C664 H672 0.960 . S
C665 C663 1.381 . S
C665 C666 1.394 . S
C665 H673 0.930 . S
C666 C665 1.394 . S
C666 C667 1.383 . S
C666 H674 0.929 . S
C667 C666 1.383 . S
C667 C668 1.377 . S
C668 H652 0.930 . S
C668 C667 1.377 . S
C668 C669 1.379 . S
C669 H653 0.931 . S
C669 C663 1.383 . S
C669 C668 1.379 . S
H670 C664 0.959 . S
H671 C664 0.961 . S
H672 C664 0.960 . S
H673 C665 0.930 . S
H674 C666 0.929 . S
H675 C683 0.929 . S
H676 C685 0.930 . S
H677 C687 0.930 . S
H678 C690 0.929 . S
H679 C693 0.930 . S
H680 C695 0.960 . S
H681 C695 0.960 . S
H682 C695 0.960 . S
C683 H675 0.929 . S
C683 C684 1.377 . S
C683 C685 1.384 . S
C684 C683 1.377 . S
C684 C690 1.390 . S
C685 H676 0.930 . S
C685 C683 1.384 . S
C685 C686 1.372 . S
C686 C685 1.372 . S
C686 C687 1.400 . S
C686 C691 1.490 . S
C687 H677 0.930 . S
C687 C686 1.400 . S
C687 C690 1.386 . S
H688 C704 0.930 . S
H689 C705 0.931 . S
C690 H678 0.929 . S
C690 C684 1.390 . S
C690 C687 1.386 . S
C691 C686 1.490 . S
C691 C693 1.395 . S
C691 C694 1.403 . S
H692 C698 0.930 . S
C693 H679 0.930 . S
C693 C691 1.395 . S
C693 C696 1.403 . S
C694 C691 1.403 . S
C694 C695 1.524 . S
C694 C698 1.400 . S
C695 H680 0.960 . S
C695 H681 0.960 . S
C695 H682 0.960 . S
C695 C694 1.524 . S
C696 C693 1.403 . S
C696 C697 1.392 . S
C696 C700 1.495 . S
C697 C696 1.392 . S
C697 C698 1.385 . S
C697 C699 1.478 . S
C698 H692 0.930 . S
C698 C694 1.400 . S
C698 C697 1.385 . S
C699 C697 1.478 . S
C699 C701 1.381 . S
C699 C705 1.383 . S
C700 C696 1.495 . S
C700 H706 0.959 . S
C700 H707 0.961 . S
C700 H708 0.960 . S
C701 C699 1.381 . S
C701 C702 1.394 . S
C701 H709 0.930 . S
C702 C701 1.394 . S
C702 C703 1.383 . S
C702 H710 0.929 . S
C703 C702 1.383 . S
C703 C704 1.377 . S
C704 H688 0.930 . S
C704 C703 1.377 . S
C704 C705 1.379 . S
C705 H689 0.931 . S
C705 C699 1.383 . S
C705 C704 1.379 . S
H706 C700 0.959 . S
H707 C700 0.961 . S
H708 C700 0.960 . S
H709 C701 0.930 . S
H710 C702 0.929 . S
H711 C719 0.929 . S
H712 C721 0.930 . S
H713 C723 0.930 . S
H714 C726 0.929 . S
H715 C729 0.930 . S
H716 C731 0.960 . S
H717 C731 0.960 . S
H718 C731 0.960 . S
C719 H711 0.929 . S
C719 C720 1.377 . S
C719 C721 1.384 . S
C720 C719 1.377 . S
C720 C726 1.390 . S
C721 H712 0.930 . S
C721 C719 1.384 . S
C721 C722 1.372 . S
C722 C721 1.372 . S
C722 C723 1.400 . S
C722 C727 1.490 . S
C723 H713 0.930 . S
C723 C722 1.400 . S
C723 C726 1.386 . S
H724 C740 0.930 . S
H725 C741 0.931 . S
C726 H714 0.929 . S
C726 C720 1.390 . S
C726 C723 1.386 . S
C727 C722 1.490 . S
C727 C729 1.395 . S
C727 C730 1.403 . S
H728 C734 0.930 . S
C729 H715 0.930 . S
C729 C727 1.395 . S
C729 C732 1.403 . S
C730 C727 1.403 . S
C730 C731 1.524 1_556 S
C730 C734 1.400 1_556 S
C731 H716 0.960 . S
C731 H717 0.960 . S
C731 H718 0.960 . S
C731 C730 1.524 1_554 S
C732 C729 1.403 . S
C732 C733 1.392 . S
C732 C736 1.495 . S
C733 C732 1.392 . S
C733 C734 1.385 1_556 S
C733 C735 1.478 1_556 S
C734 H728 0.930 . S
C734 C730 1.400 1_554 S
C734 C733 1.385 1_554 S
C735 C733 1.478 1_554 S
C735 C737 1.381 . S
C735 C741 1.383 . S
C736 C732 1.495 . S
C736 H742 0.959 . S
C736 H743 0.961 . S
C736 H744 0.960 . S
C737 C735 1.381 . S
C737 C738 1.394 . S
C737 H745 0.930 1_554 S
C738 C737 1.394 . S
C738 C739 1.383 . S
C738 H746 0.929 . S
C739 C738 1.383 . S
C739 C740 1.377 . S
C740 H724 0.930 . S
C740 C739 1.377 . S
C740 C741 1.379 . S
C741 H725 0.931 . S
C741 C735 1.383 . S
C741 C740 1.379 . S
H742 C736 0.959 . S
H743 C736 0.961 . S
H744 C736 0.960 . S
H745 C737 0.930 1_556 S
H746 C738 0.929 . S
H747 C755 0.929 . S
H748 C757 0.930 . S
H749 C759 0.930 . S
H750 C762 0.929 . S
H751 C765 0.930 . S
H752 C767 0.960 . S
H753 C767 0.960 . S
H754 C767 0.960 . S
C755 H747 0.929 . S
C755 C756 1.377 . S
C755 C757 1.384 . S
C756 C755 1.377 . S
C756 C762 1.390 . S
C757 H748 0.930 . S
C757 C755 1.384 . S
C757 C758 1.372 . S
C758 C757 1.372 . S
C758 C759 1.400 . S
C758 C763 1.490 . S
C759 H749 0.930 . S
C759 C758 1.400 . S
C759 C762 1.386 . S
H760 C776 0.930 . S
H761 C777 0.931 1_554 S
C762 H750 0.929 . S
C762 C756 1.390 . S
C762 C759 1.386 . S
C763 C758 1.490 . S
C763 C765 1.395 . S
C763 C766 1.403 . S
H764 C770 0.930 . S
C765 H751 0.930 . S
C765 C763 1.395 . S
C765 C768 1.403 . S
C766 C763 1.403 . S
C766 C767 1.524 . S
C766 C770 1.400 . S
C767 H752 0.960 . S
C767 H753 0.960 . S
C767 H754 0.960 . S
C767 C766 1.524 . S
C768 C765 1.403 . S
C768 C769 1.392 . S
C768 C772 1.495 . S
C769 C768 1.392 . S
C769 C770 1.385 . S
C769 C771 1.478 . S
C770 H764 0.930 . S
C770 C766 1.400 . S
C770 C769 1.385 . S
C771 C769 1.478 . S
C771 C773 1.381 . S
C771 C777 1.383 . S
C772 C768 1.495 . S
C772 H778 0.959 . S
C772 H779 0.961 . S
C772 H780 0.960 . S
C773 C771 1.381 . S
C773 C774 1.394 . S
C773 H781 0.930 . S
C774 C773 1.394 . S
C774 C775 1.383 . S
C774 H782 0.929 . S
C775 C774 1.383 . S
C775 C776 1.377 1_556 S
C776 H760 0.930 . S
C776 C775 1.377 1_554 S
C776 C777 1.379 1_554 S
C777 H761 0.931 1_556 S
C777 C771 1.383 . S
C777 C776 1.379 1_556 S
H778 C772 0.959 . S
H779 C772 0.961 . S
H780 C772 0.960 . S
H781 C773 0.930 . S
H782 C774 0.929 . S
H783 C791 0.929 . S
H784 C793 0.930 . S
H785 C795 0.930 . S
H786 C798 0.929 . S
H787 C801 0.930 . S
H788 C803 0.960 . S
H789 C803 0.960 . S
H790 C803 0.960 . S
C791 H783 0.929 . S
C791 C792 1.377 . S
C791 C793 1.384 . S
C792 C791 1.377 . S
C792 C798 1.390 . S
C793 H784 0.930 . S
C793 C791 1.384 . S
C793 C794 1.372 . S
C794 C793 1.372 . S
C794 C795 1.400 . S
C794 C799 1.490 . S
C795 H785 0.930 . S
C795 C794 1.400 . S
C795 C798 1.386 . S
H796 C812 0.930 . S
H797 C813 0.931 . S
C798 H786 0.929 . S
C798 C792 1.390 . S
C798 C795 1.386 . S
C799 C794 1.490 . S
C799 C801 1.395 . S
C799 C802 1.403 . S
H800 C806 0.930 . S
C801 H787 0.930 . S
C801 C799 1.395 . S
C801 C804 1.403 . S
C802 C799 1.403 . S
C802 C803 1.524 . S
C802 C806 1.400 . S
C803 H788 0.960 . S
C803 H789 0.960 . S
C803 H790 0.960 . S
C803 C802 1.524 . S
C804 C801 1.403 . S
C804 C805 1.392 . S
C804 C808 1.495 . S
C805 C804 1.392 . S
C805 C806 1.385 . S
C805 C807 1.478 . S
C806 H800 0.930 . S
C806 C802 1.400 . S
C806 C805 1.385 . S
C807 C805 1.478 . S
C807 C809 1.381 . S
C807 C813 1.383 . S
C808 C804 1.495 . S
C808 H814 0.959 . S
C808 H815 0.961 . S
C808 H816 0.960 . S
C809 C807 1.381 . S
C809 C810 1.394 . S
C809 H817 0.930 . S
C810 C809 1.394 . S
C810 C811 1.383 . S
C810 H818 0.929 . S
C811 C810 1.383 . S
C811 C812 1.377 . S
C812 H796 0.930 . S
C812 C811 1.377 . S
C812 C813 1.379 . S
C813 H797 0.931 . S
C813 C807 1.383 . S
C813 C812 1.379 . S
H814 C808 0.959 . S
H815 C808 0.961 . S
H816 C808 0.960 . S
H817 C809 0.930 . S
H818 C810 0.929 . S
H819 C827 0.929 . S
H820 C829 0.930 . S
H821 C831 0.930 . S
H822 C834 0.929 . S
H823 C837 0.930 . S
H824 C839 0.960 . S
H825 C839 0.960 . S
H826 C839 0.960 . S
C827 H819 0.929 . S
C827 C828 1.377 1_556 S
C827 C829 1.384 . S
C828 C827 1.377 1_554 S
C828 C834 1.390 . S
C829 H820 0.930 . S
C829 C827 1.384 . S
C829 C830 1.372 1_556 S
C830 C829 1.372 1_554 S
C830 C831 1.400 . S
C830 C835 1.490 1_554 S
C831 H821 0.930 . S
C831 C830 1.400 . S
C831 C834 1.386 . S
H832 C848 0.930 . S
H833 C849 0.931 . S
C834 H822 0.929 . S
C834 C828 1.390 . S
C834 C831 1.386 . S
C835 C830 1.490 1_556 S
C835 C837 1.395 . S
C835 C838 1.403 1_556 S
H836 C842 0.930 1_554 S
C837 H823 0.930 . S
C837 C835 1.395 . S
C837 C840 1.403 . S
C838 C835 1.403 1_554 S
C838 C839 1.524 . S
C838 C842 1.400 1_554 S
C839 H824 0.960 . S
C839 H825 0.960 . S
C839 H826 0.960 . S
C839 C838 1.524 . S
C840 C837 1.403 . S
C840 C841 1.392 . S
C840 C844 1.495 . S
C841 C840 1.392 . S
C841 C842 1.385 . S
C841 C843 1.478 . S
C842 H836 0.930 1_556 S
C842 C838 1.400 1_556 S
C842 C841 1.385 . S
C843 C841 1.478 . S
C843 C845 1.381 . S
C843 C849 1.383 . S
C844 C840 1.495 . S
C844 H850 0.959 . S
C844 H851 0.961 . S
C844 H852 0.960 . S
C845 C843 1.381 . S
C845 C846 1.394 . S
C845 H853 0.930 . S
C846 C845 1.394 . S
C846 C847 1.383 . S
C846 H854 0.929 . S
C847 C846 1.383 . S
C847 C848 1.377 . S
C848 H832 0.930 . S
C848 C847 1.377 . S
C848 C849 1.379 . S
C849 H833 0.931 . S
C849 C843 1.383 . S
C849 C848 1.379 . S
H850 C844 0.959 . S
H851 C844 0.961 . S
H852 C844 0.960 . S
H853 C845 0.930 . S
H854 C846 0.929 . S
H855 C863 0.929 . S
H856 C865 0.930 . S
H857 C867 0.930 1_554 S
H858 C870 0.929 . S
H859 C873 0.930 . S
H860 C875 0.960 . S
H861 C875 0.960 . S
H862 C875 0.960 . S
C863 H855 0.929 . S
C863 C864 1.377 1_556 S
C863 C865 1.384 . S
C864 C863 1.377 1_554 S
C864 C870 1.390 . S
C865 H856 0.930 . S
C865 C863 1.384 . S
C865 C866 1.372 . S
C866 C865 1.372 . S
C866 C867 1.400 . S
C866 C871 1.490 . S
C867 H857 0.930 1_556 S
C867 C866 1.400 . S
C867 C870 1.386 1_556 S
H868 C884 0.930 . S
H869 C885 0.931 . S
C870 H858 0.929 . S
C870 C864 1.390 . S
C870 C867 1.386 1_554 S
C871 C866 1.490 . S
C871 C873 1.395 . S
C871 C874 1.403 . S
H872 C878 0.930 . S
C873 H859 0.930 . S
C873 C871 1.395 . S
C873 C876 1.403 . S
C874 C871 1.403 . S
C874 C875 1.524 . S
C874 C878 1.400 . S
C875 H860 0.960 . S
C875 H861 0.960 . S
C875 H862 0.960 . S
C875 C874 1.524 . S
C876 C873 1.403 . S
C876 C877 1.392 . S
C876 C880 1.495 . S
C877 C876 1.392 . S
C877 C878 1.385 . S
C877 C879 1.478 . S
C878 H872 0.930 . S
C878 C874 1.400 . S
C878 C877 1.385 . S
C879 C877 1.478 . S
C879 C881 1.381 . S
C879 C885 1.383 . S
C880 C876 1.495 . S
C880 H886 0.959 . S
C880 H887 0.961 . S
C880 H888 0.960 . S
C881 C879 1.381 . S
C881 C882 1.394 . S
C881 H889 0.930 . S
C882 C881 1.394 . S
C882 C883 1.383 . S
C882 H890 0.929 . S
C883 C882 1.383 . S
C883 C884 1.377 . S
C884 H868 0.930 . S
C884 C883 1.377 . S
C884 C885 1.379 . S
C885 H869 0.931 . S
C885 C879 1.383 . S
C885 C884 1.379 . S
H886 C880 0.959 . S
H887 C880 0.961 . S
H888 C880 0.960 . S
H889 C881 0.930 . S
H890 C882 0.929 . S
H891 C899 0.929 . S
H892 C901 0.930 . S
H893 C903 0.930 . S
H894 C906 0.929 . S
H895 C909 0.930 . S
H896 C911 0.960 . S
H897 C911 0.960 . S
H898 C911 0.960 . S
C899 H891 0.929 . S
C899 C900 1.377 . S
C899 C901 1.384 . S
C900 C899 1.377 . S
C900 C906 1.390 . S
C901 H892 0.930 . S
C901 C899 1.384 . S
C901 C902 1.372 . S
C902 C901 1.372 . S
C902 C903 1.400 . S
C902 C907 1.490 . S
C903 H893 0.930 . S
C903 C902 1.400 . S
C903 C906 1.386 . S
H904 C920 0.930 . S
H905 C921 0.931 . S
C906 H894 0.929 . S
C906 C900 1.390 . S
C906 C903 1.386 . S
C907 C902 1.490 . S
C907 C909 1.395 . S
C907 C910 1.403 . S
H908 C914 0.930 . S
C909 H895 0.930 . S
C909 C907 1.395 . S
C909 C912 1.403 . S
C910 C907 1.403 . S
C910 C911 1.524 . S
C910 C914 1.400 . S
C911 H896 0.960 . S
C911 H897 0.960 . S
C911 H898 0.960 . S
C911 C910 1.524 . S
C912 C909 1.403 . S
C912 C913 1.392 . S
C912 C916 1.495 . S
C913 C912 1.392 . S
C913 C914 1.385 . S
C913 C915 1.478 . S
C914 H908 0.930 . S
C914 C910 1.400 . S
C914 C913 1.385 . S
C915 C913 1.478 . S
C915 C917 1.381 . S
C915 C921 1.383 . S
C916 C912 1.495 . S
C916 H922 0.959 . S
C916 H923 0.961 . S
C916 H924 0.960 . S
C917 C915 1.381 . S
C917 C918 1.394 . S
C917 H925 0.930 . S
C918 C917 1.394 . S
C918 C919 1.383 . S
C918 H926 0.929 . S
C919 C918 1.383 . S
C919 C920 1.377 . S
C920 H904 0.930 . S
C920 C919 1.377 . S
C920 C921 1.379 . S
C921 H905 0.931 . S
C921 C915 1.383 . S
C921 C920 1.379 . S
H922 C916 0.959 . S
H923 C916 0.961 . S
H924 C916 0.960 . S
H925 C917 0.930 . S
H926 C918 0.929 . S
H927 C935 0.929 . S
H928 C937 0.930 . S
H929 C939 0.930 1_545 S
H930 C942 0.929 . S
H931 C945 0.930 . S
H932 C947 0.960 . S
H933 C947 0.960 . S
H934 C947 0.960 1_556 S
C935 H927 0.929 . S
C935 C936 1.377 . S
C935 C937 1.384 1_565 S
C936 C935 1.377 . S
C936 C942 1.390 1_554 S
C937 H928 0.930 . S
C937 C935 1.384 1_545 S
C937 C938 1.372 . S
C938 C937 1.372 . S
C938 C939 1.400 1_544 S
C938 C943 1.490 . S
C939 H929 0.930 1_565 S
C939 C938 1.400 1_566 S
C939 C942 1.386 . S
H940 C956 0.930 . S
H941 C957 0.931 . S
C942 H930 0.929 . S
C942 C936 1.390 1_556 S
C942 C939 1.386 . S
C943 C938 1.490 . S
C943 C945 1.395 . S
C943 C946 1.403 . S
H944 C950 0.930 . S
C945 H931 0.930 . S
C945 C943 1.395 . S
C945 C948 1.403 . S
C946 C943 1.403 . S
C946 C947 1.524 . S
C946 C950 1.400 . S
C947 H932 0.960 . S
C947 H933 0.960 . S
C947 H934 0.960 1_554 S
C947 C946 1.524 . S
C948 C945 1.403 . S
C948 C949 1.392 . S
C948 C952 1.495 . S
C949 C948 1.392 . S
C949 C950 1.385 . S
C949 C951 1.478 . S
C950 H944 0.930 . S
C950 C946 1.400 . S
C950 C949 1.385 . S
C951 C949 1.478 . S
C951 C953 1.381 . S
C951 C957 1.383 1_554 S
C952 C948 1.495 . S
C952 H958 0.959 . S
C952 H959 0.961 . S
C952 H960 0.960 . S
C953 C951 1.381 . S
C953 C954 1.394 . S
C953 H961 0.930 . S
C954 C953 1.394 . S
C954 C955 1.383 . S
C954 H962 0.929 . S
C955 C954 1.383 . S
C955 C956 1.377 1_554 S
C956 H940 0.930 . S
C956 C955 1.377 1_556 S
C956 C957 1.379 . S
C957 H941 0.931 . S
C957 C951 1.383 1_556 S
C957 C956 1.379 . S
H958 C952 0.959 . S
H959 C952 0.961 . S
H960 C952 0.960 . S
H961 C953 0.930 . S
H962 C954 0.929 . S
H963 C971 0.929 . S
H964 C973 0.930 . S
H965 C975 0.930 . S
H966 C978 0.929 . S
H967 C981 0.930 . S
H968 C983 0.960 . S
H969 C983 0.960 . S
H970 C983 0.960 . S
C971 H963 0.929 . S
C971 C972 1.377 . S
C971 C973 1.384 1_455 S
C972 C971 1.377 . S
C972 C978 1.390 . S
C973 H964 0.930 . S
C973 C971 1.384 1_655 S
C973 C974 1.372 . S
C974 C973 1.372 . S
C974 C975 1.400 1_655 S
C974 C979 1.490 . S
C975 H965 0.930 . S
C975 C974 1.400 1_455 S
C975 C978 1.386 . S
H976 C992 0.930 . S
H977 C993 0.931 . S
C978 H966 0.929 . S
C978 C972 1.390 . S
C978 C975 1.386 . S
C979 C974 1.490 . S
C979 C981 1.395 . S
C979 C982 1.403 . S
H980 C986 0.930 . S
C981 H967 0.930 . S
C981 C979 1.395 . S
C981 C984 1.403 . S
C982 C979 1.403 . S
C982 C983 1.524 . S
C982 C986 1.400 . S
C983 H968 0.960 . S
C983 H969 0.960 . S
C983 H970 0.960 . S
C983 C982 1.524 . S
C984 C981 1.403 . S
C984 C985 1.392 . S
C984 C988 1.495 . S
C985 C984 1.392 . S
C985 C986 1.385 . S
C985 C987 1.478 . S
C986 H980 0.930 . S
C986 C982 1.400 . S
C986 C985 1.385 . S
C987 C985 1.478 . S
C987 C989 1.381 . S
C987 C993 1.383 1_545 S
C988 C984 1.495 . S
C988 H994 0.959 . S
C988 H995 0.961 . S
C988 H996 0.960 . S
C989 C987 1.381 . S
C989 C990 1.394 1_545 S
C989 H997 0.930 . S
C990 C989 1.394 1_565 S
C990 C991 1.383 . S
C990 H998 0.929 . S
C991 C990 1.383 . S
C991 C992 1.377 . S
C992 H976 0.930 . S
C992 C991 1.377 . S
C992 C993 1.379 . S
C993 H977 0.931 . S
C993 C987 1.383 1_565 S
C993 C992 1.379 . S
H994 C988 0.959 . S
H995 C988 0.961 . S
H996 C988 0.960 . S
H997 C989 0.930 . S
H998 C990 0.929 . S
H999 C1007 0.929 . S
H1000 C1009 0.930 . S
H1001 C1011 0.930 . S
H1002 C1014 0.929 . S
H1003 C1017 0.930 . S
H1004 C1019 0.960 . S
H1005 C1019 0.960 . S
H1006 C1019 0.960 . S
C1007 H999 0.929 . S
C1007 C1008 1.377 . S
C1007 C1009 1.384 . S
C1008 C1007 1.377 . S
C1008 C1014 1.390 . S
C1009 H1000 0.930 . S
C1009 C1007 1.384 . S
C1009 C1010 1.372 . S
C1010 C1009 1.372 . S
C1010 C1011 1.400 . S
C1010 C1015 1.490 . S
C1011 H1001 0.930 . S
C1011 C1010 1.400 . S
C1011 C1014 1.386 . S
H1012 C1028 0.917 . S
H1013 C1029 0.931 . S
C1014 H1002 0.929 . S
C1014 C1008 1.390 . S
C1014 C1011 1.386 . S
C1015 C1010 1.490 . S
C1015 C1017 1.395 . S
C1015 C1018 1.403 . S
H1016 C1022 0.930 . S
C1017 H1003 0.930 . S
C1017 C1015 1.395 . S
C1017 C1020 1.403 . S
C1018 C1015 1.403 . S
C1018 C1019 1.524 1_554 S
C1018 C1022 1.400 . S
C1019 H1004 0.960 . S
C1019 H1005 0.960 . S
C1019 H1006 0.960 . S
C1019 C1018 1.524 1_556 S
C1020 C1017 1.403 . S
C1020 C1021 1.392 . S
C1020 C1024 1.495 . S
C1021 C1020 1.392 . S
C1021 C1022 1.385 . S
C1021 C1023 1.478 . S
C1022 H1016 0.930 . S
C1022 C1018 1.400 . S
C1022 C1021 1.385 . S
C1023 C1021 1.478 . S
C1023 C1025 1.381 . S
C1023 C1029 1.383 . S
C1024 C1020 1.495 . S
C1024 H1030 0.959 . S
C1024 H1031 0.961 . S
C1024 H1032 0.960 . S
C1025 C1023 1.381 . S
C1025 C1026 1.394 1_655 S
C1025 H1033 0.930 . S
C1026 C1025 1.394 1_455 S
C1026 C1027 1.383 . S
C1026 H1034 0.929 . S
C1027 C1026 1.383 . S
C1027 C1028 1.377 . S
C1028 H1012 0.917 . S
C1028 C1027 1.377 . S
C1028 C1029 1.379 1_455 S
C1029 H1013 0.931 . S
C1029 C1023 1.383 . S
C1029 C1028 1.379 1_655 S
H1030 C1024 0.959 . S
H1031 C1024 0.961 . S
H1032 C1024 0.960 . S
H1033 C1025 0.930 . S
H1034 C1026 0.929 . S
H1035 C1043 0.929 . S
H1036 C1045 0.930 . S
H1037 C1047 0.930 . S
H1038 C1050 0.929 . S
H1039 C1053 0.930 . S
H1040 C1055 0.960 . S
H1041 C1055 0.960 . S
H1042 C1055 0.960 . S
C1043 H1035 0.929 . S
C1043 C1044 1.377 . S
C1043 C1045 1.384 . S
C1044 C1043 1.377 . S
C1044 C1050 1.390 . S
C1045 H1036 0.930 . S
C1045 C1043 1.384 . S
C1045 C1046 1.372 . S
C1046 C1045 1.372 . S
C1046 C1047 1.400 . S
C1046 C1051 1.490 . S
C1047 H1037 0.930 . S
C1047 C1046 1.400 . S
C1047 C1050 1.386 . S
H1048 C1064 0.930 . S
H1049 C1065 0.931 . S
C1050 H1038 0.929 . S
C1050 C1044 1.390 . S
C1050 C1047 1.386 . S
C1051 C1046 1.490 . S
C1051 C1053 1.395 . S
C1051 C1054 1.403 . S
H1052 C1058 0.930 . S
C1053 H1039 0.930 . S
C1053 C1051 1.395 . S
C1053 C1056 1.403 . S
C1054 C1051 1.403 . S
C1054 C1055 1.524 . S
C1054 C1058 1.400 . S
C1055 H1040 0.960 . S
C1055 H1041 0.960 . S
C1055 H1042 0.960 . S
C1055 C1054 1.524 . S
C1056 C1053 1.403 . S
C1056 C1057 1.392 . S
C1056 C1060 1.495 . S
C1057 C1056 1.392 . S
C1057 C1058 1.385 . S
C1057 C1059 1.478 . S
C1058 H1052 0.930 . S
C1058 C1054 1.400 . S
C1058 C1057 1.385 . S
C1059 C1057 1.478 . S
C1059 C1061 1.381 . S
C1059 C1065 1.383 . S
C1060 C1056 1.495 . S
C1060 H1066 0.959 . S
C1060 H1067 0.961 . S
C1060 H1068 0.960 . S
C1061 C1059 1.381 . S
C1061 C1062 1.394 . S
C1061 H1069 0.930 . S
C1062 C1061 1.394 . S
C1062 C1063 1.383 . S
C1062 H1070 0.929 . S
C1063 C1062 1.383 . S
C1063 C1064 1.377 . S
C1064 H1048 0.930 . S
C1064 C1063 1.377 . S
C1064 C1065 1.379 . S
C1065 H1049 0.931 . S
C1065 C1059 1.383 . S
C1065 C1064 1.379 . S
H1066 C1060 0.959 . S
H1067 C1060 0.961 . S
H1068 C1060 0.960 . S
H1069 C1061 0.930 . S
H1070 C1062 0.929 . S
H1071 C1079 0.929 . S
H1072 C1081 0.930 . S
H1073 C1083 0.930 . S
H1074 C1086 0.929 . S
H1075 C1089 0.930 . S
H1076 C1091 0.960 . S
H1077 C1091 0.960 . S
H1078 C1091 0.960 . S
C1079 H1071 0.929 . S
C1079 C1080 1.377 . S
C1079 C1081 1.384 . S
C1080 C1079 1.377 . S
C1080 C1086 1.390 . S
C1081 H1072 0.930 . S
C1081 C1079 1.384 . S
C1081 C1082 1.372 . S
C1082 C1081 1.372 . S
C1082 C1083 1.400 . S
C1082 C1087 1.490 . S
C1083 H1073 0.930 . S
C1083 C1082 1.400 . S
C1083 C1086 1.386 . S
H1084 C1100 0.930 . S
H1085 C1101 0.931 . S
C1086 H1074 0.929 . S
C1086 C1080 1.390 . S
C1086 C1083 1.386 . S
C1087 C1082 1.490 . S
C1087 C1089 1.395 . S
C1087 C1090 1.403 . S
H1088 C1094 0.930 . S
C1089 H1075 0.930 . S
C1089 C1087 1.395 . S
C1089 C1092 1.403 . S
C1090 C1087 1.403 . S
C1090 C1091 1.524 . S
C1090 C1094 1.400 . S
C1091 H1076 0.960 . S
C1091 H1077 0.960 . S
C1091 H1078 0.960 . S
C1091 C1090 1.524 . S
C1092 C1089 1.403 . S
C1092 C1093 1.392 . S
C1092 C1096 1.495 . S
C1093 C1092 1.392 . S
C1093 C1094 1.385 . S
C1093 C1095 1.478 . S
C1094 H1088 0.930 . S
C1094 C1090 1.400 . S
C1094 C1093 1.385 . S
C1095 C1093 1.478 . S
C1095 C1097 1.381 . S
C1095 C1101 1.383 . S
C1096 C1092 1.495 . S
C1096 H1102 0.959 . S
C1096 H1103 0.961 . S
C1096 H1104 0.960 . S
C1097 C1095 1.381 . S
C1097 C1098 1.394 . S
C1097 H1105 0.930 . S
C1098 C1097 1.394 . S
C1098 C1099 1.383 . S
C1098 H1106 0.929 . S
C1099 C1098 1.383 . S
C1099 C1100 1.377 . S
C1100 H1084 0.930 . S
C1100 C1099 1.377 . S
C1100 C1101 1.379 . S
C1101 H1085 0.931 . S
C1101 C1095 1.383 . S
C1101 C1100 1.379 . S
H1102 C1096 0.959 . S
H1103 C1096 0.961 . S
H1104 C1096 0.960 . S
H1105 C1097 0.930 . S
H1106 C1098 0.929 . S
H1107 C1115 0.929 . S
H1108 C1117 0.930 . S
H1109 C1119 0.930 . S
H1110 C1122 0.929 . S
H1111 C1125 0.930 . S
H1112 C1127 0.960 . S
H1113 C1127 0.960 . S
H1114 C1127 0.960 . S
C1115 H1107 0.929 . S
C1115 C1116 1.377 . S
C1115 C1117 1.384 . S
C1116 C1115 1.377 . S
C1116 C1122 1.390 . S
C1117 H1108 0.930 . S
C1117 C1115 1.384 . S
C1117 C1118 1.372 . S
C1118 C1117 1.372 . S
C1118 C1119 1.400 . S
C1118 C1123 1.490 . S
C1119 H1109 0.930 . S
C1119 C1118 1.400 . S
C1119 C1122 1.386 . S
H1120 C1136 0.930 . S
H1121 C1137 0.931 . S
C1122 H1110 0.929 . S
C1122 C1116 1.390 . S
C1122 C1119 1.386 . S
C1123 C1118 1.490 . S
C1123 C1125 1.395 . S
C1123 C1126 1.403 . S
H1124 C1130 0.930 . S
C1125 H1111 0.930 . S
C1125 C1123 1.395 . S
C1125 C1128 1.403 . S
C1126 C1123 1.403 . S
C1126 C1127 1.524 . S
C1126 C1130 1.400 . S
C1127 H1112 0.960 . S
C1127 H1113 0.960 . S
C1127 H1114 0.960 . S
C1127 C1126 1.524 . S
C1128 C1125 1.403 . S
C1128 C1129 1.392 . S
C1128 C1132 1.495 . S
C1129 C1128 1.392 . S
C1129 C1130 1.385 . S
C1129 C1131 1.478 . S
C1130 H1124 0.930 . S
C1130 C1126 1.400 . S
C1130 C1129 1.385 . S
C1131 C1129 1.478 . S
C1131 C1133 1.381 . S
C1131 C1137 1.383 . S
C1132 C1128 1.495 . S
C1132 H1138 0.959 . S
C1132 H1139 0.961 . S
C1132 H1140 0.960 . S
C1133 C1131 1.381 . S
C1133 C1134 1.394 . S
C1133 H1141 0.930 . S
C1134 C1133 1.394 . S
C1134 C1135 1.383 . S
C1134 H1142 0.929 . S
C1135 C1134 1.383 . S
C1135 C1136 1.377 . S
C1136 H1120 0.930 . S
C1136 C1135 1.377 . S
C1136 C1137 1.379 . S
C1137 H1121 0.931 . S
C1137 C1131 1.383 . S
C1137 C1136 1.379 . S
H1138 C1132 0.959 . S
H1139 C1132 0.961 . S
H1140 C1132 0.960 . S
H1141 C1133 0.930 . S
H1142 C1134 0.929 . S
H1143 C1151 0.929 . S
H1144 C1153 0.930 . S
H1145 C1155 0.930 . S
H1146 C1158 0.929 . S
H1147 C1161 0.930 . S
H1148 C1163 0.960 . S
H1149 C1163 0.960 . S
H1150 C1163 0.960 . S
C1151 H1143 0.929 . S
C1151 C1152 1.377 . S
C1151 C1153 1.384 . S
C1152 C1151 1.377 . S
C1152 C1158 1.390 . S
C1153 H1144 0.930 . S
C1153 C1151 1.384 . S
C1153 C1154 1.372 . S
C1154 C1153 1.372 . S
C1154 C1155 1.400 . S
C1154 C1159 1.490 . S
C1155 H1145 0.930 . S
C1155 C1154 1.400 . S
C1155 C1158 1.386 . S
H1156 C1172 0.930 . S
H1157 C1173 0.931 . S
C1158 H1146 0.929 . S
C1158 C1152 1.390 . S
C1158 C1155 1.386 . S
C1159 C1154 1.490 . S
C1159 C1161 1.395 . S
C1159 C1162 1.403 . S
H1160 C1166 0.930 . S
C1161 H1147 0.930 . S
C1161 C1159 1.395 . S
C1161 C1164 1.403 . S
C1162 C1159 1.403 . S
C1162 C1163 1.524 . S
C1162 C1166 1.400 . S
C1163 H1148 0.960 . S
C1163 H1149 0.960 . S
C1163 H1150 0.960 . S
C1163 C1162 1.524 . S
C1164 C1161 1.403 . S
C1164 C1165 1.392 . S
C1164 C1168 1.495 . S
C1165 C1164 1.392 . S
C1165 C1166 1.385 . S
C1165 C1167 1.478 . S
C1166 H1160 0.930 . S
C1166 C1162 1.400 . S
C1166 C1165 1.385 . S
C1167 C1165 1.478 . S
C1167 C1169 1.381 . S
C1167 C1173 1.383 . S
C1168 C1164 1.495 . S
C1168 H1174 0.959 . S
C1168 H1175 0.961 . S
C1168 H1176 0.960 . S
C1169 C1167 1.381 . S
C1169 C1170 1.394 . S
C1169 H1177 0.930 . S
C1170 C1169 1.394 . S
C1170 C1171 1.383 . S
C1170 H1178 0.929 . S
C1171 C1170 1.383 . S
C1171 C1172 1.377 . S
C1172 H1156 0.930 . S
C1172 C1171 1.377 . S
C1172 C1173 1.379 . S
C1173 H1157 0.931 . S
C1173 C1167 1.383 . S
C1173 C1172 1.379 . S
H1174 C1168 0.959 . S
H1175 C1168 0.961 . S
H1176 C1168 0.960 . S
H1177 C1169 0.930 . S
H1178 C1170 0.929 . S
H1179 C1187 0.929 . S
H1180 C1189 0.930 . S
H1181 C1191 0.930 . S
H1182 C1194 0.929 . S
H1183 C1197 0.930 . S
H1184 C1199 0.960 . S
H1185 C1199 0.960 . S
H1186 C1199 0.960 . S
C1187 H1179 0.929 . S
C1187 C1188 1.377 . S
C1187 C1189 1.384 . S
C1188 C1187 1.377 . S
C1188 C1194 1.390 . S
C1189 H1180 0.930 . S
C1189 C1187 1.384 . S
C1189 C1190 1.372 . S
C1190 C1189 1.372 . S
C1190 C1191 1.400 . S
C1190 C1195 1.490 . S
C1191 H1181 0.930 . S
C1191 C1190 1.400 . S
C1191 C1194 1.386 . S
H1192 C1208 0.930 . S
H1193 C1209 0.931 . S
C1194 H1182 0.929 . S
C1194 C1188 1.390 . S
C1194 C1191 1.386 . S
C1195 C1190 1.490 . S
C1195 C1197 1.395 . S
C1195 C1198 1.403 . S
H1196 C1202 0.930 . S
C1197 H1183 0.930 . S
C1197 C1195 1.395 . S
C1197 C1200 1.403 . S
C1198 C1195 1.403 . S
C1198 C1199 1.524 . S
C1198 C1202 1.400 . S
C1199 H1184 0.960 . S
C1199 H1185 0.960 . S
C1199 H1186 0.960 . S
C1199 C1198 1.524 . S
C1200 C1197 1.403 . S
C1200 C1201 1.392 . S
C1200 C1204 1.495 . S
C1201 C1200 1.392 . S
C1201 C1202 1.385 . S
C1201 C1203 1.478 . S
C1202 H1196 0.930 . S
C1202 C1198 1.400 . S
C1202 C1201 1.385 . S
C1203 C1201 1.478 . S
C1203 C1205 1.381 . S
C1203 C1209 1.383 . S
C1204 C1200 1.495 . S
C1204 H1210 0.959 1_556 S
C1204 H1211 0.961 . S
C1204 H1212 0.960 1_556 S
C1205 C1203 1.381 . S
C1205 C1206 1.394 . S
C1205 H1213 0.930 . S
C1206 C1205 1.394 . S
C1206 C1207 1.383 . S
C1206 H1214 0.929 . S
C1207 C1206 1.383 . S
C1207 C1208 1.377 . S
C1208 H1192 0.930 . S
C1208 C1207 1.377 . S
C1208 C1209 1.379 . S
C1209 H1193 0.931 . S
C1209 C1203 1.383 . S
C1209 C1208 1.379 . S
H1210 C1204 0.959 1_554 S
H1211 C1204 0.961 . S
H1212 C1204 0.960 1_554 S
H1213 C1205 0.930 . S
H1214 C1206 0.929 . S
H1215 C1223 0.929 . S
H1216 C1225 0.930 . S
H1217 C1227 0.930 . S
H1218 C1230 0.929 . S
H1219 C1233 0.930 . S
H1220 C1235 0.960 . S
H1221 C1235 0.960 . S
H1222 C1235 0.960 . S
C1223 H1215 0.929 . S
C1223 C1224 1.377 . S
C1223 C1225 1.384 . S
C1224 C1223 1.377 . S
C1224 C1230 1.390 . S
C1225 H1216 0.930 . S
C1225 C1223 1.384 . S
C1225 C1226 1.372 . S
C1226 C1225 1.372 . S
C1226 C1227 1.400 . S
C1226 C1231 1.490 . S
C1227 H1217 0.930 . S
C1227 C1226 1.400 . S
C1227 C1230 1.386 . S
H1228 C1244 0.930 . S
H1229 C1245 0.931 . S
C1230 H1218 0.929 . S
C1230 C1224 1.390 . S
C1230 C1227 1.386 . S
C1231 C1226 1.490 . S
C1231 C1233 1.395 . S
C1231 C1234 1.403 . S
H1232 C1238 0.930 . S
C1233 H1219 0.930 . S
C1233 C1231 1.395 . S
C1233 C1236 1.403 . S
C1234 C1231 1.403 . S
C1234 C1235 1.524 . S
C1234 C1238 1.400 . S
C1235 H1220 0.960 . S
C1235 H1221 0.960 . S
C1235 H1222 0.960 . S
C1235 C1234 1.524 . S
C1236 C1233 1.403 . S
C1236 C1237 1.392 . S
C1236 C1240 1.495 . S
C1237 C1236 1.392 . S
C1237 C1238 1.385 . S
C1237 C1239 1.478 . S
C1238 H1232 0.930 . S
C1238 C1234 1.400 . S
C1238 C1237 1.385 . S
C1239 C1237 1.478 . S
C1239 C1241 1.381 . S
C1239 C1245 1.383 . S
C1240 C1236 1.495 . S
C1240 H1246 0.959 . S
C1240 H1247 0.961 . S
C1240 H1248 0.960 . S
C1241 C1239 1.381 . S
C1241 C1242 1.394 . S
C1241 H1249 0.930 . S
C1242 C1241 1.394 . S
C1242 C1243 1.383 . S
C1242 H1250 0.929 . S
C1243 C1242 1.383 . S
C1243 C1244 1.377 . S
C1244 H1228 0.930 . S
C1244 C1243 1.377 . S
C1244 C1245 1.379 . S
C1245 H1229 0.931 . S
C1245 C1239 1.383 . S
C1245 C1244 1.379 . S
H1246 C1240 0.959 . S
H1247 C1240 0.961 . S
H1248 C1240 0.960 . S
H1249 C1241 0.930 . S
H1250 C1242 0.929 . S
H1251 C1259 0.929 . S
H1252 C1261 0.930 . S
H1253 C1263 0.930 . S
H1254 C1266 0.929 . S
H1255 C1269 0.930 . S
H1256 C1271 0.960 . S
H1257 C1271 0.960 . S
H1258 C1271 0.960 . S
C1259 H1251 0.929 . S
C1259 C1260 1.377 . S
C1259 C1261 1.384 . S
C1260 C1259 1.377 . S
C1260 C1266 1.390 . S
C1261 H1252 0.930 . S
C1261 C1259 1.384 . S
C1261 C1262 1.372 . S
C1262 C1261 1.372 . S
C1262 C1263 1.400 . S
C1262 C1267 1.490 . S
C1263 H1253 0.930 . S
C1263 C1262 1.400 . S
C1263 C1266 1.386 . S
H1264 C1280 0.930 . S
H1265 C1281 0.931 . S
C1266 H1254 0.929 . S
C1266 C1260 1.390 . S
C1266 C1263 1.386 . S
C1267 C1262 1.490 . S
C1267 C1269 1.395 . S
C1267 C1270 1.403 . S
H1268 C1274 0.930 . S
C1269 H1255 0.930 . S
C1269 C1267 1.395 . S
C1269 C1272 1.403 . S
C1270 C1267 1.403 . S
C1270 C1271 1.524 . S
C1270 C1274 1.400 . S
C1271 H1256 0.960 . S
C1271 H1257 0.960 . S
C1271 H1258 0.960 . S
C1271 C1270 1.524 . S
C1272 C1269 1.403 . S
C1272 C1273 1.392 . S
C1272 C1276 1.495 . S
C1273 C1272 1.392 . S
C1273 C1274 1.385 . S
C1273 C1275 1.478 . S
C1274 H1268 0.930 . S
C1274 C1270 1.400 . S
C1274 C1273 1.385 . S
C1275 C1273 1.478 . S
C1275 C1277 1.381 . S
C1275 C1281 1.383 . S
C1276 C1272 1.495 . S
C1276 H1282 0.959 . S
C1276 H1283 0.961 . S
C1276 H1284 0.960 . S
C1277 C1275 1.381 . S
C1277 C1278 1.394 . S
C1277 H1285 0.930 . S
C1278 C1277 1.394 . S
C1278 C1279 1.383 . S
C1278 H1286 0.929 . S
C1279 C1278 1.383 . S
C1279 C1280 1.377 . S
C1280 H1264 0.930 . S
C1280 C1279 1.377 . S
C1280 C1281 1.379 . S
C1281 H1265 0.931 . S
C1281 C1275 1.383 . S
C1281 C1280 1.379 . S
H1282 C1276 0.959 . S
H1283 C1276 0.961 . S
H1284 C1276 0.960 . S
H1285 C1277 0.930 . S
H1286 C1278 0.929 . S
H1287 C1295 0.929 . S
H1288 C1297 0.930 . S
H1289 C1299 0.930 . S
H1290 C1302 0.929 . S
H1291 C1305 0.930 . S
H1292 C1307 0.960 . S
H1293 C1307 0.960 . S
H1294 C1307 0.960 . S
C1295 H1287 0.929 . S
C1295 C1296 1.377 . S
C1295 C1297 1.384 . S
C1296 C1295 1.377 . S
C1296 C1302 1.390 . S
C1297 H1288 0.930 . S
C1297 C1295 1.384 . S
C1297 C1298 1.372 . S
C1298 C1297 1.372 . S
C1298 C1299 1.400 . S
C1298 C1303 1.490 . S
C1299 H1289 0.930 . S
C1299 C1298 1.400 . S
C1299 C1302 1.386 . S
H1300 C1316 0.930 . S
H1301 C1317 0.931 . S
C1302 H1290 0.929 . S
C1302 C1296 1.390 . S
C1302 C1299 1.386 . S
C1303 C1298 1.490 . S
C1303 C1305 1.395 . S
C1303 C1306 1.403 . S
H1304 C1310 0.930 . S
C1305 H1291 0.930 . S
C1305 C1303 1.395 . S
C1305 C1308 1.403 . S
C1306 C1303 1.403 . S
C1306 C1307 1.524 . S
C1306 C1310 1.400 . S
C1307 H1292 0.960 . S
C1307 H1293 0.960 . S
C1307 H1294 0.960 . S
C1307 C1306 1.524 . S
C1308 C1305 1.403 . S
C1308 C1309 1.392 . S
C1308 C1312 1.495 . S
C1309 C1308 1.392 . S
C1309 C1310 1.385 . S
C1309 C1311 1.478 . S
C1310 H1304 0.930 . S
C1310 C1306 1.400 . S
C1310 C1309 1.385 . S
C1311 C1309 1.478 . S
C1311 C1313 1.381 . S
C1311 C1317 1.383 . S
C1312 C1308 1.495 . S
C1312 H1318 0.959 . S
C1312 H1319 0.961 . S
C1312 H1320 0.960 . S
C1313 C1311 1.381 . S
C1313 C1314 1.394 . S
C1313 H1321 0.930 . S
C1314 C1313 1.394 . S
C1314 C1315 1.383 . S
C1314 H1322 0.929 . S
C1315 C1314 1.383 . S
C1315 C1316 1.377 . S
C1316 H1300 0.930 . S
C1316 C1315 1.377 . S
C1316 C1317 1.379 . S
C1317 H1301 0.931 . S
C1317 C1311 1.383 . S
C1317 C1316 1.379 . S
H1318 C1312 0.959 . S
H1319 C1312 0.961 . S
H1320 C1312 0.960 . S
H1321 C1313 0.930 . S
H1322 C1314 0.929 . S
H1323 C1331 0.929 . S
H1324 C1333 0.930 . S
H1325 C1335 0.930 . S
H1326 C1338 0.929 . S
H1327 C1341 0.930 . S
H1328 C1343 0.960 . S
H1329 C1343 0.960 . S
H1330 C1343 0.960 . S
C1331 H1323 0.929 . S
C1331 C1332 1.377 . S
C1331 C1333 1.384 . S
C1332 C1331 1.377 . S
C1332 C1338 1.390 . S
C1333 H1324 0.930 . S
C1333 C1331 1.384 . S
C1333 C1334 1.372 . S
C1334 C1333 1.372 . S
C1334 C1335 1.400 . S
C1334 C1339 1.490 . S
C1335 H1325 0.930 . S
C1335 C1334 1.400 . S
C1335 C1338 1.386 . S
H1336 C1352 0.930 . S
H1337 C1353 0.931 . S
C1338 H1326 0.929 . S
C1338 C1332 1.390 . S
C1338 C1335 1.386 . S
C1339 C1334 1.490 . S
C1339 C1341 1.395 . S
C1339 C1342 1.403 . S
H1340 C1346 0.930 . S
C1341 H1327 0.930 . S
C1341 C1339 1.395 . S
C1341 C1344 1.403 . S
C1342 C1339 1.403 . S
C1342 C1343 1.524 . S
C1342 C1346 1.400 . S
C1343 H1328 0.960 . S
C1343 H1329 0.960 . S
C1343 H1330 0.960 . S
C1343 C1342 1.524 . S
C1344 C1341 1.403 . S
C1344 C1345 1.392 . S
C1344 C1348 1.495 . S
C1345 C1344 1.392 . S
C1345 C1346 1.385 . S
C1345 C1347 1.478 . S
C1346 H1340 0.930 . S
C1346 C1342 1.400 . S
C1346 C1345 1.385 . S
C1347 C1345 1.478 . S
C1347 C1349 1.381 . S
C1347 C1353 1.383 . S
C1348 C1344 1.495 . S
C1348 H1354 0.959 . S
C1348 H1355 0.961 . S
C1348 H1356 0.960 . S
C1349 C1347 1.381 . S
C1349 C1350 1.394 . S
C1349 H1357 0.930 . S
C1350 C1349 1.394 . S
C1350 C1351 1.383 . S
C1350 H1358 0.929 . S
C1351 C1350 1.383 . S
C1351 C1352 1.377 . S
C1352 H1336 0.930 . S
C1352 C1351 1.377 . S
C1352 C1353 1.379 . S
C1353 H1337 0.931 . S
C1353 C1347 1.383 . S
C1353 C1352 1.379 . S
H1354 C1348 0.959 . S
H1355 C1348 0.961 . S
H1356 C1348 0.960 . S
H1357 C1349 0.930 . S
H1358 C1350 0.929 . S
H1359 C1367 0.929 . S
H1360 C1369 0.930 . S
H1361 C1371 0.930 . S
H1362 C1374 0.929 . S
H1363 C1377 0.930 . S
H1364 C1379 0.960 . S
H1365 C1379 0.960 . S
H1366 C1379 0.960 . S
C1367 H1359 0.929 . S
C1367 C1368 1.377 . S
C1367 C1369 1.384 . S
C1368 C1367 1.377 . S
C1368 C1374 1.390 . S
C1369 H1360 0.930 . S
C1369 C1367 1.384 . S
C1369 C1370 1.372 . S
C1370 C1369 1.372 . S
C1370 C1371 1.400 . S
C1370 C1375 1.490 . S
C1371 H1361 0.930 . S
C1371 C1370 1.400 . S
C1371 C1374 1.386 . S
H1372 C1388 0.930 . S
H1373 C1389 0.931 . S
C1374 H1362 0.929 . S
C1374 C1368 1.390 . S
C1374 C1371 1.386 . S
C1375 C1370 1.490 . S
C1375 C1377 1.395 . S
C1375 C1378 1.403 . S
H1376 C1382 0.930 . S
C1377 H1363 0.930 . S
C1377 C1375 1.395 . S
C1377 C1380 1.403 . S
C1378 C1375 1.403 . S
C1378 C1379 1.524 . S
C1378 C1382 1.400 . S
C1379 H1364 0.960 . S
C1379 H1365 0.960 . S
C1379 H1366 0.960 . S
C1379 C1378 1.524 . S
C1380 C1377 1.403 . S
C1380 C1381 1.392 . S
C1380 C1384 1.495 . S
C1381 C1380 1.392 . S
C1381 C1382 1.385 . S
C1381 C1383 1.478 1_556 S
C1382 H1376 0.930 . S
C1382 C1378 1.400 . S
C1382 C1381 1.385 . S
C1383 C1381 1.478 1_554 S
C1383 C1385 1.381 . S
C1383 C1389 1.383 . S
C1384 C1380 1.495 . S
C1384 H1390 0.959 . S
C1384 H1391 0.963 . S
C1384 H1392 0.960 1_556 S
C1385 C1383 1.381 . S
C1385 C1386 1.394 . S
C1385 H1393 0.930 . S
C1386 C1385 1.394 . S
C1386 C1387 1.383 . S
C1386 H1394 0.929 . S
C1387 C1386 1.383 . S
C1387 C1388 1.377 . S
C1388 H1372 0.930 . S
C1388 C1387 1.377 . S
C1388 C1389 1.379 . S
C1389 H1373 0.931 . S
C1389 C1383 1.383 . S
C1389 C1388 1.379 . S
H1390 C1384 0.959 . S
H1391 C1384 0.963 . S
H1392 C1384 0.960 1_554 S
H1393 C1385 0.930 . S
H1394 C1386 0.929 . S
H1395 C1403 0.929 . S
H1396 C1405 0.930 . S
H1397 C1407 0.930 . S
H1398 C1410 0.929 . S
H1399 C1413 0.930 . S
H1400 C1415 0.960 1_556 S
H1401 C1415 0.960 . S
H1402 C1415 0.960 . S
C1403 H1395 0.929 . S
C1403 C1404 1.377 . S
C1403 C1405 1.384 . S
C1404 C1403 1.377 . S
C1404 C1410 1.390 . S
C1405 H1396 0.930 . S
C1405 C1403 1.384 . S
C1405 C1406 1.372 . S
C1406 C1405 1.372 . S
C1406 C1407 1.400 . S
C1406 C1411 1.490 . S
C1407 H1397 0.930 . S
C1407 C1406 1.400 . S
C1407 C1410 1.386 . S
H1408 C1424 0.930 . S
H1409 C1425 0.931 . S
C1410 H1398 0.929 . S
C1410 C1404 1.390 . S
C1410 C1407 1.386 . S
C1411 C1406 1.490 . S
C1411 C1413 1.395 . S
C1411 C1414 1.403 1_554 S
H1412 C1418 0.930 . S
C1413 H1399 0.930 . S
C1413 C1411 1.395 . S
C1413 C1416 1.403 1_554 S
C1414 C1411 1.403 1_556 S
C1414 C1415 1.524 1_556 S
C1414 C1418 1.400 . S
C1415 H1400 0.960 1_554 S
C1415 H1401 0.960 . S
C1415 H1402 0.960 . S
C1415 C1414 1.524 1_554 S
C1416 C1413 1.403 1_556 S
C1416 C1417 1.392 . S
C1416 C1420 1.495 . S
C1417 C1416 1.392 . S
C1417 C1418 1.385 . S
C1417 C1419 1.478 . S
C1418 H1412 0.930 . S
C1418 C1414 1.400 . S
C1418 C1417 1.385 . S
C1419 C1417 1.478 . S
C1419 C1421 1.381 . S
C1419 C1425 1.383 . S
C1420 C1416 1.495 . S
C1420 H1426 0.959 . S
C1420 H1427 0.961 . S
C1420 H1428 0.960 . S
C1421 C1419 1.381 . S
C1421 C1422 1.394 . S
C1421 H1429 0.930 . S
C1422 C1421 1.394 . S
C1422 C1423 1.383 . S
C1422 H1430 0.929 . S
C1423 C1422 1.383 . S
C1423 C1424 1.377 . S
C1424 H1408 0.930 . S
C1424 C1423 1.377 . S
C1424 C1425 1.379 . S
C1425 H1409 0.931 . S
C1425 C1419 1.383 . S
C1425 C1424 1.379 . S
H1426 C1420 0.959 . S
H1427 C1420 0.961 . S
H1428 C1420 0.960 . S
H1429 C1421 0.930 . S
H1430 C1422 0.929 . S
H1431 C1439 0.929 . S
H1432 C1441 0.930 . S
H1433 C1443 0.930 . S
H1434 C1446 0.929 . S
H1435 C1449 0.930 . S
H1436 C1451 0.960 . S
H1437 C1451 0.960 . S
H1438 C1451 0.960 . S
C1439 H1431 0.929 . S
C1439 C1440 1.377 . S
C1439 C1441 1.384 . S
C1440 C1439 1.377 . S
C1440 C1446 1.390 . S
C1441 H1432 0.930 . S
C1441 C1439 1.384 . S
C1441 C1442 1.372 . S
C1442 C1441 1.372 . S
C1442 C1443 1.400 . S
C1442 C1447 1.490 . S
C1443 H1433 0.930 . S
C1443 C1442 1.400 . S
C1443 C1446 1.386 . S
H1444 C1460 0.930 . S
H1445 C1461 0.934 . S
C1446 H1434 0.929 . S
C1446 C1440 1.390 . S
C1446 C1443 1.386 . S
C1447 C1442 1.490 . S
C1447 C1449 1.395 . S
C1447 C1450 1.403 . S
H1448 C1454 0.930 . S
C1449 H1435 0.930 . S
C1449 C1447 1.395 . S
C1449 C1452 1.403 . S
C1450 C1447 1.403 . S
C1450 C1451 1.524 . S
C1450 C1454 1.400 . S
C1451 H1436 0.960 . S
C1451 H1437 0.960 . S
C1451 H1438 0.960 . S
C1451 C1450 1.524 . S
C1452 C1449 1.403 . S
C1452 C1453 1.392 . S
C1452 C1456 1.495 . S
C1453 C1452 1.392 . S
C1453 C1454 1.385 . S
C1453 C1455 1.478 . S
C1454 H1448 0.930 . S
C1454 C1450 1.400 . S
C1454 C1453 1.385 . S
C1455 C1453 1.478 . S
C1455 C1457 1.381 1_556 S
C1455 C1461 1.383 1_556 S
C1456 C1452 1.495 . S
C1456 H1462 0.959 . S
C1456 H1463 0.961 . S
C1456 H1464 0.960 . S
C1457 C1455 1.381 1_554 S
C1457 C1458 1.394 . S
C1457 H1465 0.930 . S
C1458 C1457 1.394 . S
C1458 C1459 1.383 . S
C1458 H1466 0.929 . S
C1459 C1458 1.383 . S
C1459 C1460 1.377 . S
C1460 H1444 0.930 . S
C1460 C1459 1.377 . S
C1460 C1461 1.379 . S
C1461 H1445 0.934 . S
C1461 C1455 1.383 1_554 S
C1461 C1460 1.379 . S
H1462 C1456 0.959 . S
H1463 C1456 0.961 . S
H1464 C1456 0.960 . S
H1465 C1457 0.930 . S
H1466 C1458 0.929 . S
H1467 C1475 0.929 . S
H1468 C1477 0.930 . S
H1469 C1479 0.930 . S
H1470 C1482 0.929 . S
H1471 C1485 0.930 . S
H1472 C1487 0.960 . S
H1473 C1487 0.960 . S
H1474 C1487 0.960 . S
C1475 H1467 0.929 . S
C1475 C1476 1.377 . S
C1475 C1477 1.384 . S
C1476 C1475 1.377 . S
C1476 C1482 1.390 . S
C1477 H1468 0.930 . S
C1477 C1475 1.384 . S
C1477 C1478 1.372 . S
C1478 C1477 1.372 . S
C1478 C1479 1.400 . S
C1478 C1483 1.490 . S
C1479 H1469 0.930 . S
C1479 C1478 1.400 . S
C1479 C1482 1.386 . S
H1480 C1496 0.930 . S
H1481 C1497 0.931 . S
C1482 H1470 0.929 . S
C1482 C1476 1.390 . S
C1482 C1479 1.386 . S
C1483 C1478 1.490 . S
C1483 C1485 1.395 . S
C1483 C1486 1.403 . S
H1484 C1490 0.930 . S
C1485 H1471 0.930 . S
C1485 C1483 1.395 . S
C1485 C1488 1.403 . S
C1486 C1483 1.403 . S
C1486 C1487 1.524 . S
C1486 C1490 1.400 . S
C1487 H1472 0.960 . S
C1487 H1473 0.960 . S
C1487 H1474 0.960 . S
C1487 C1486 1.524 . S
C1488 C1485 1.403 . S
C1488 C1489 1.392 . S
C1488 C1492 1.495 . S
C1489 C1488 1.392 . S
C1489 C1490 1.385 . S
C1489 C1491 1.478 . S
C1490 H1484 0.930 . S
C1490 C1486 1.400 . S
C1490 C1489 1.385 . S
C1491 C1489 1.478 . S
C1491 C1493 1.381 . S
C1491 C1497 1.383 . S
C1492 C1488 1.495 . S
C1492 H1498 0.959 . S
C1492 H1499 0.961 . S
C1492 H1500 0.960 . S
C1493 C1491 1.381 . S
C1493 C1494 1.394 1_554 S
C1493 H1501 0.930 . S
C1494 C1493 1.394 1_556 S
C1494 C1495 1.383 . S
C1494 H1502 0.929 . S
C1495 C1494 1.383 . S
C1495 C1496 1.377 . S
C1496 H1480 0.930 . S
C1496 C1495 1.377 . S
C1496 C1497 1.379 1_556 S
C1497 H1481 0.931 . S
C1497 C1491 1.383 . S
C1497 C1496 1.379 1_554 S
H1498 C1492 0.959 . S
H1499 C1492 0.961 . S
H1500 C1492 0.960 . S
H1501 C1493 0.930 . S
H1502 C1494 0.929 . S
H1503 C1511 0.929 . S
H1504 C1513 0.930 . S
H1505 C1515 0.930 . S
H1506 C1518 0.929 . S
H1507 C1521 0.930 . S
H1508 C1523 0.960 . S
H1509 C1523 0.960 . S
H1510 C1523 0.960 . S
C1511 H1503 0.929 . S
C1511 C1512 1.377 . S
C1511 C1513 1.384 . S
C1512 C1511 1.377 . S
C1512 C1518 1.390 . S
C1513 H1504 0.930 . S
C1513 C1511 1.384 . S
C1513 C1514 1.372 . S
C1514 C1513 1.372 . S
C1514 C1515 1.400 . S
C1514 C1519 1.490 . S
C1515 H1505 0.930 . S
C1515 C1514 1.400 . S
C1515 C1518 1.386 . S
H1516 C1532 0.930 . S
H1517 C1533 0.931 . S
C1518 H1506 0.929 . S
C1518 C1512 1.390 . S
C1518 C1515 1.386 . S
C1519 C1514 1.490 . S
C1519 C1521 1.395 . S
C1519 C1522 1.403 . S
H1520 C1526 0.930 . S
C1521 H1507 0.930 . S
C1521 C1519 1.395 . S
C1521 C1524 1.403 . S
C1522 C1519 1.403 . S
C1522 C1523 1.524 . S
C1522 C1526 1.400 . S
C1523 H1508 0.960 . S
C1523 H1509 0.960 . S
C1523 H1510 0.960 . S
C1523 C1522 1.524 . S
C1524 C1521 1.403 . S
C1524 C1525 1.392 . S
C1524 C1528 1.495 . S
C1525 C1524 1.392 . S
C1525 C1526 1.385 . S
C1525 C1527 1.478 . S
C1526 H1520 0.930 . S
C1526 C1522 1.400 . S
C1526 C1525 1.385 . S
C1527 C1525 1.478 . S
C1527 C1529 1.381 . S
C1527 C1533 1.383 . S
C1528 C1524 1.495 . S
C1528 H1534 0.959 . S
C1528 H1535 0.961 . S
C1528 H1536 0.960 . S
C1529 C1527 1.381 . S
C1529 C1530 1.394 . S
C1529 H1537 0.930 . S
C1530 C1529 1.394 . S
C1530 C1531 1.383 1_554 S
C1530 H1538 0.929 1_554 S
C1531 C1530 1.383 1_556 S
C1531 C1532 1.377 1_556 S
C1532 H1516 0.930 . S
C1532 C1531 1.377 1_554 S
C1532 C1533 1.379 . S
C1533 H1517 0.931 . S
C1533 C1527 1.383 . S
C1533 C1532 1.379 . S
H1534 C1528 0.959 . S
H1535 C1528 0.961 . S
H1536 C1528 0.960 . S
H1537 C1529 0.930 . S
H1538 C1530 0.929 1_556 S
H1539 C1547 0.929 . S
H1540 C1549 0.930 . S
H1541 C1551 0.930 . S
H1542 C1554 0.929 . S
H1543 C1557 0.930 . S
H1544 C1559 0.960 . S
H1545 C1559 0.960 . S
H1546 C1559 0.960 . S
C1547 H1539 0.929 . S
C1547 C1548 1.377 . S
C1547 C1549 1.384 . S
C1548 C1547 1.377 . S
C1548 C1554 1.390 . S
C1549 H1540 0.930 . S
C1549 C1547 1.384 . S
C1549 C1550 1.372 . S
C1550 C1549 1.372 . S
C1550 C1551 1.400 . S
C1550 C1555 1.490 . S
C1551 H1541 0.930 . S
C1551 C1550 1.400 . S
C1551 C1554 1.386 . S
H1552 C1568 0.930 . S
H1553 C1569 0.926 1_554 S
C1554 H1542 0.929 . S
C1554 C1548 1.390 . S
C1554 C1551 1.386 . S
C1555 C1550 1.490 . S
C1555 C1557 1.395 . S
C1555 C1558 1.403 . S
H1556 C1562 0.930 . S
C1557 H1543 0.930 . S
C1557 C1555 1.395 . S
C1557 C1560 1.403 . S
C1558 C1555 1.403 . S
C1558 C1559 1.524 . S
C1558 C1562 1.400 . S
C1559 H1544 0.960 . S
C1559 H1545 0.960 . S
C1559 H1546 0.960 . S
C1559 C1558 1.524 . S
C1560 C1557 1.403 . S
C1560 C1561 1.392 . S
C1560 C1564 1.495 . S
C1561 C1560 1.392 . S
C1561 C1562 1.385 . S
C1561 C1563 1.478 . S
C1562 H1556 0.930 . S
C1562 C1558 1.400 . S
C1562 C1561 1.385 . S
C1563 C1561 1.478 . S
C1563 C1565 1.381 1_554 S
C1563 C1569 1.383 1_554 S
C1564 C1560 1.495 . S
C1564 H1570 0.959 . S
C1564 H1571 0.961 . S
C1564 H1572 0.960 . S
C1565 C1563 1.381 1_556 S
C1565 C1566 1.394 . S
C1565 H1573 0.930 . S
C1566 C1565 1.394 . S
C1566 C1567 1.383 . S
C1566 H1574 0.929 . S
C1567 C1566 1.383 . S
C1567 C1568 1.377 . S
C1568 H1552 0.930 . S
C1568 C1567 1.377 . S
C1568 C1569 1.379 . S
C1569 H1553 0.926 1_556 S
C1569 C1563 1.383 1_556 S
C1569 C1568 1.379 . S
H1570 C1564 0.959 . S
H1571 C1564 0.961 . S
H1572 C1564 0.960 . S
H1573 C1565 0.930 . S
H1574 C1566 0.929 . S
C288 C24 1.928 . S
C307 C135 1.956 . S
C324 C166 1.781 . S
C343 C55 1.659 . S
C360 C86 1.730 . S
C379 C120 1.935 . S
C396 C31 1.599 . S
C415 C111 1.604 . S
C432 C62 1.670 . S
C451 C125 1.686 . S
C468 C0 1.416 . S
C487 C156 1.530 . S
C504 C117 1.921 . S
C523 C228 1.969 . S
C540 C259 1.781 . S
C559 C148 1.592 . S
C576 C213 1.932 . S
C595 C179 1.758 . S
C612 C124 1.591 . S
C631 C204 1.631 . S
C648 C218 1.697 . S
C667 C155 1.673 . S
C684 C249 1.522 . S
C703 C93 1.431 . S
C720 C210 1.929 . S
C739 C42 1.947 . S
C756 C241 1.623 . S
C775 C73 1.768 1_556 S
C792 C27 1.937 1_556 S
C811 C272 1.696 . S
C828 C18 1.624 . S
C847 C217 1.573 . S
C864 C32 1.701 . S
C883 C248 1.648 . S
C900 C186 1.413 . S
C919 C63 1.524 . S
C936 C80 1.775 1_554 S
C955 C11 1.750 . S
C972 C1 1.536 . S
C991 C58 1.475 . S
C1008 C49 1.667 . S
C1027 C89 1.622 . S
C1044 C173 1.775 . S
C1063 C104 1.749 . S
C1080 C94 1.527 . S
C1099 C151 1.533 . S
C1116 C142 1.667 . S
C1135 C182 1.572 . S
C1152 C197 1.766 . S
C1171 C266 1.754 . S
C1188 C244 1.507 . S
C1207 C187 1.560 . S
C1224 C275 1.595 . S
C1243 C235 1.681 . S
C1260 C10 0.570 . S
C1279 C2 0.587 . S
C1296 C41 0.572 . S
C1315 C33 0.607 . S
C1332 C64 0.596 . S
C1351 C72 0.642 . S
C1368 C95 0.588 . S
C1387 C103 0.544 . S
C1404 C126 0.568 . S
C1423 C134 0.534 . S
C1440 C165 0.581 . S
C1459 C157 0.521 . S
C1476 C196 0.572 . S
C1495 C188 0.521 . S
C1512 C219 0.579 . S
C1531 C227 0.635 . S
C1548 C250 0.598 . S
C1567 C258 0.624 . S
