# Generated by pormake.
# Topology vch, (7)-cn, num edge types: 1
# Building blocks:
#     Node 0, Type 0, BuildingBlock: HICVOG_clean_sbu_0, # of connection points: 7
#     Node 1, Type 0, BuildingBlock: HICVOG_clean_sbu_0, # of connection points: 7
#     Node 2, Type 0, BuildingBlock: HICVOG_clean_sbu_0, # of connection points: 7
#     Node 3, Type 0, BuildingBlock: HICVOG_clean_sbu_0, # of connection points: 7
#     Node 4, Type 0, BuildingBlock: HICVOG_clean_sbu_0, # of connection points: 7
#     Node 5, Type 0, BuildingBlock: HICVOG_clean_sbu_0, # of connection points: 7
#     Node 6, Type 0, BuildingBlock: HICVOG_clean_sbu_0, # of connection points: 7
#     Node 7, Type 0, BuildingBlock: HICVOG_clean_sbu_0, # of connection points: 7
#     Node 8, Type 0, BuildingBlock: HICVOG_clean_sbu_0, # of connection points: 7
#     Node 9, Type 0, BuildingBlock: HICVOG_clean_sbu_0, # of connection points: 7
#     Node 10, Type 0, BuildingBlock: HICVOG_clean_sbu_0, # of connection points: 7
#     Node 11, Type 0, BuildingBlock: HICVOG_clean_sbu_0, # of connection points: 7
#     Node 12, Type 0, BuildingBlock: HICVOG_clean_sbu_0, # of connection points: 7
#     Node 13, Type 0, BuildingBlock: HICVOG_clean_sbu_0, # of connection points: 7
#     Node 14, Type 0, BuildingBlock: HICVOG_clean_sbu_0, # of connection points: 7
#     Node 15, Type 0, BuildingBlock: HICVOG_clean_sbu_0, # of connection points: 7
#     Edge 16, Type (0, 0), BuildingBlock: CIFDUS_clean_linker_0, # of connection points: 2
#     Edge 17, Type (0, 0), BuildingBlock: CIFDUS_clean_linker_0, # of connection points: 2
#     Edge 18, Type (0, 0), BuildingBlock: CIFDUS_clean_linker_0, # of connection points: 2
#     Edge 19, Type (0, 0), BuildingBlock: CIFDUS_clean_linker_0, # of connection points: 2
#     Edge 20, Type (0, 0), BuildingBlock: CIFDUS_clean_linker_0, # of connection points: 2
#     Edge 21, Type (0, 0), BuildingBlock: CIFDUS_clean_linker_0, # of connection points: 2
#     Edge 22, Type (0, 0), BuildingBlock: CIFDUS_clean_linker_0, # of connection points: 2
#     Edge 23, Type (0, 0), BuildingBlock: CIFDUS_clean_linker_0, # of connection points: 2
#     Edge 24, Type (0, 0), BuildingBlock: CIFDUS_clean_linker_0, # of connection points: 2
#     Edge 25, Type (0, 0), BuildingBlock: CIFDUS_clean_linker_0, # of connection points: 2
#     Edge 26, Type (0, 0), BuildingBlock: CIFDUS_clean_linker_0, # of connection points: 2
#     Edge 27, Type (0, 0), BuildingBlock: CIFDUS_clean_linker_0, # of connection points: 2
#     Edge 28, Type (0, 0), BuildingBlock: CIFDUS_clean_linker_0, # of connection points: 2
#     Edge 29, Type (0, 0), BuildingBlock: CIFDUS_clean_linker_0, # of connection points: 2
#     Edge 30, Type (0, 0), BuildingBlock: CIFDUS_clean_linker_0, # of connection points: 2
#     Edge 31, Type (0, 0), BuildingBlock: CIFDUS_clean_linker_0, # of connection points: 2
#     Edge 32, Type (0, 0), BuildingBlock: CIFDUS_clean_linker_0, # of connection points: 2
#     Edge 33, Type (0, 0), BuildingBlock: CIFDUS_clean_linker_0, # of connection points: 2
#     Edge 34, Type (0, 0), BuildingBlock: CIFDUS_clean_linker_0, # of connection points: 2
#     Edge 35, Type (0, 0), BuildingBlock: CIFDUS_clean_linker_0, # of connection points: 2
#     Edge 36, Type (0, 0), BuildingBlock: CIFDUS_clean_linker_0, # of connection points: 2
#     Edge 37, Type (0, 0), BuildingBlock: CIFDUS_clean_linker_0, # of connection points: 2
#     Edge 38, Type (0, 0), BuildingBlock: CIFDUS_clean_linker_0, # of connection points: 2
#     Edge 39, Type (0, 0), BuildingBlock: CIFDUS_clean_linker_0, # of connection points: 2
#     Edge 40, Type (0, 0), BuildingBlock: CIFDUS_clean_linker_0, # of connection points: 2
#     Edge 41, Type (0, 0), BuildingBlock: CIFDUS_clean_linker_0, # of connection points: 2
#     Edge 42, Type (0, 0), BuildingBlock: CIFDUS_clean_linker_0, # of connection points: 2
#     Edge 43, Type (0, 0), BuildingBlock: CIFDUS_clean_linker_0, # of connection points: 2
#     Edge 44, Type (0, 0), BuildingBlock: CIFDUS_clean_linker_0, # of connection points: 2
#     Edge 45, Type (0, 0), BuildingBlock: CIFDUS_clean_linker_0, # of connection points: 2
#     Edge 46, Type (0, 0), BuildingBlock: CIFDUS_clean_linker_0, # of connection points: 2
#     Edge 47, Type (0, 0), BuildingBlock: CIFDUS_clean_linker_0, # of connection points: 2
#     Edge 48, Type (0, 0), BuildingBlock: CIFDUS_clean_linker_0, # of connection points: 2
#     Edge 49, Type (0, 0), BuildingBlock: CIFDUS_clean_linker_0, # of connection points: 2
#     Edge 50, Type (0, 0), BuildingBlock: CIFDUS_clean_linker_0, # of connection points: 2
#     Edge 51, Type (0, 0), BuildingBlock: CIFDUS_clean_linker_0, # of connection points: 2
#     Edge 52, Type (0, 0), BuildingBlock: CIFDUS_clean_linker_0, # of connection points: 2
#     Edge 53, Type (0, 0), BuildingBlock: CIFDUS_clean_linker_0, # of connection points: 2
#     Edge 54, Type (0, 0), BuildingBlock: CIFDUS_clean_linker_0, # of connection points: 2
#     Edge 55, Type (0, 0), BuildingBlock: CIFDUS_clean_linker_0, # of connection points: 2
#     Edge 56, Type (0, 0), BuildingBlock: CIFDUS_clean_linker_0, # of connection points: 2
#     Edge 57, Type (0, 0), BuildingBlock: CIFDUS_clean_linker_0, # of connection points: 2
#     Edge 58, Type (0, 0), BuildingBlock: CIFDUS_clean_linker_0, # of connection points: 2
#     Edge 59, Type (0, 0), BuildingBlock: CIFDUS_clean_linker_0, # of connection points: 2
#     Edge 60, Type (0, 0), BuildingBlock: CIFDUS_clean_linker_0, # of connection points: 2
#     Edge 61, Type (0, 0), BuildingBlock: CIFDUS_clean_linker_0, # of connection points: 2
#     Edge 62, Type (0, 0), BuildingBlock: CIFDUS_clean_linker_0, # of connection points: 2
#     Edge 63, Type (0, 0), BuildingBlock: CIFDUS_clean_linker_0, # of connection points: 2
#     Edge 64, Type (0, 0), BuildingBlock: CIFDUS_clean_linker_0, # of connection points: 2
#     Edge 65, Type (0, 0), BuildingBlock: CIFDUS_clean_linker_0, # of connection points: 2
#     Edge 66, Type (0, 0), BuildingBlock: CIFDUS_clean_linker_0, # of connection points: 2
#     Edge 67, Type (0, 0), BuildingBlock: CIFDUS_clean_linker_0, # of connection points: 2
#     Edge 68, Type (0, 0), BuildingBlock: CIFDUS_clean_linker_0, # of connection points: 2
#     Edge 69, Type (0, 0), BuildingBlock: CIFDUS_clean_linker_0, # of connection points: 2
#     Edge 70, Type (0, 0), BuildingBlock: CIFDUS_clean_linker_0, # of connection points: 2
#     Edge 71, Type (0, 0), BuildingBlock: CIFDUS_clean_linker_0, # of connection points: 2
# Relax obj value: 0.112
# Max RMSD: 0.199
# Mean RMSD: 0.199
data_MOF--net-vch--node1-HICVOG_clean_sbu_0--edge1-CIFDUS_clean_linker_0
_symmetry_space_group_name_H-M    P1
_symmetry_Int_Tables_number       1
_symmetry_cell_setting            triclinic
loop_
_symmetry_equiv_pos_as_xyz
'x, y, z'
_cell_length_a     16.413741
_cell_length_b     71.630886
_cell_length_c     45.526991
_cell_angle_alpha  90.270511
_cell_angle_beta   90.046125
_cell_angle_gamma 89.906856
loop_
_atom_site_label
_atom_site_type_symbol
_atom_site_fract_x
_atom_site_fract_y
_atom_site_fract_z
_atom_type_partial_charge
Zn0 Zn 0.98611 0.14895 0.12874 0.0
C1 C 0.13378 0.12361 0.07216 0.0
N2 N 0.06978 0.12303 0.05395 0.0
C3 C 0.00855 0.12927 0.07075 0.0
N4 N 0.03358 0.13367 0.09815 0.0
N5 N 0.11186 0.12947 0.09918 0.0
C6 C 0.33381 0.13151 0.13757 0.0
O7 O 0.30334 0.14645 0.15032 0.0
O8 O 0.86438 0.15268 0.12412 0.0
Zn9 Zn 0.1631 0.11945 0.13385 0.0
N10 N 0.04541 0.17249 0.12851 0.0
C11 C 0.1772 0.18626 0.13025 0.0
C12 C 0.1276 0.17058 0.13045 0.0
C13 C 0.0103 0.18973 0.12697 0.0
N14 N 0.14258 0.2034 0.12887 0.0
C15 C 0.06035 0.2058 0.12745 0.0
O16 O 0.13205 0.13079 0.17334 0.0
C17 C 0.06296 0.13442 0.18486 0.0
O18 O 0.00085 0.13843 0.16933 0.0
H19 H 0.15451 0.15691 0.13227 0.0
H20 H 0.94474 0.19077 0.1253 0.0
C21 C 0.17442 0.07917 0.13394 0.0
C22 C 0.14162 0.06099 0.13431 0.0
C23 C 0.00878 0.07405 0.13839 0.0
C24 C 0.04161 0.09193 0.13779 0.0
N25 N 0.12353 0.09414 0.13559 0.0
N26 N 0.05928 0.05908 0.13664 0.0
H27 H 0.23929 0.08156 0.13273 0.0
C28 C 0.81794 0.13848 0.12303 0.0
O29 O 0.85079 0.12174 0.12326 0.0
O30 O 0.28601 0.11858 0.12917 0.0
H31 H 0.00221 0.10401 0.13898 0.0
H32 H 0.24274 0.18486 0.13154 0.0
H33 H 0.94366 0.07205 0.14016 0.0
Zn34 Zn 0.33958 0.90253 0.13424 0.0
C35 C 0.4933 0.89203 0.07046 0.0
N36 N 0.43181 0.89815 0.05372 0.0
C37 C 0.36846 0.89815 0.07217 0.0
N38 N 0.39101 0.89271 0.09928 0.0
N39 N 0.46907 0.88825 0.09815 0.0
C40 C 0.68479 0.88376 0.1231 0.0
O41 O 0.65221 0.90052 0.12294 0.0
O42 O 0.21679 0.90333 0.1294 0.0
Zn43 Zn 0.51674 0.87354 0.12937 0.0
N44 N 0.37844 0.92787 0.13689 0.0
C45 C 0.49261 0.9482 0.13941 0.0
C46 C 0.46046 0.93025 0.13811 0.0
C47 C 0.32682 0.94274 0.13703 0.0
N48 N 0.44132 0.96307 0.13959 0.0
C49 C 0.35889 0.96095 0.13859 0.0
O50 O 0.50288 0.8848 0.16997 0.0
C51 C 0.43987 0.88832 0.18536 0.0
O52 O 0.37034 0.89107 0.17358 0.0
H53 H 0.50049 0.91826 0.13791 0.0
H54 H 0.26197 0.94032 0.13544 0.0
C55 C 0.49256 0.83267 0.12832 0.0
C56 C 0.4423 0.81664 0.1286 0.0
C57 C 0.32559 0.83625 0.13089 0.0
C58 C 0.37533 0.85191 0.13113 0.0
N59 N 0.45756 0.84995 0.12959 0.0
N60 N 0.36007 0.81909 0.12971 0.0
H61 H 0.55814 0.83156 0.12689 0.0
C62 C 0.16894 0.89043 0.13766 0.0
O63 O 0.19927 0.87554 0.15039 0.0
O64 O 0.63817 0.86963 0.12465 0.0
H65 H 0.34843 0.8656 0.13253 0.0
H66 H 0.55781 0.95032 0.14025 0.0
H67 H 0.26003 0.8377 0.13186 0.0
Zn68 Zn 0.64478 0.90215 0.4129 0.0
C69 C 0.49637 0.87529 0.46902 0.0
N70 N 0.56262 0.87469 0.48613 0.0
C71 C 0.62108 0.88143 0.4687 0.0
N72 N 0.59216 0.88636 0.44209 0.0
N73 N 0.51388 0.882 0.44219 0.0
C74 C 0.30711 0.88939 0.40227 0.0
O75 O 0.35908 0.90215 0.3936 0.0
O76 O 0.76802 0.89924 0.41821 0.0
Zn77 Zn 0.45962 0.8718 0.40861 0.0
N78 N 0.60525 0.92761 0.42011 0.0
C79 C 0.48647 0.9455 0.43103 0.0
C80 C 0.52485 0.92837 0.42725 0.0
C81 C 0.64908 0.94362 0.41626 0.0
N82 N 0.52945 0.96138 0.42692 0.0
C83 C 0.60978 0.9611 0.41955 0.0
O84 O 0.49164 0.88334 0.37021 0.0
C85 C 0.55024 0.89106 0.35667 0.0
O86 O 0.61421 0.89668 0.37001 0.0
H87 H 0.4898 0.91576 0.42934 0.0
H88 H 0.71232 0.94272 0.40972 0.0
C89 C 0.46786 0.82997 0.41062 0.0
C90 C 0.51512 0.81345 0.40883 0.0
C91 C 0.63164 0.83161 0.39727 0.0
C92 C 0.58512 0.84775 0.39896 0.0
N93 N 0.5045 0.84675 0.4056 0.0
N94 N 0.59573 0.81494 0.40222 0.0
H95 H 0.40402 0.8296 0.41646 0.0
C96 C 0.82198 0.9039 0.39961 0.0
O97 O 0.79898 0.91193 0.37507 0.0
O98 O 0.33488 0.87385 0.41154 0.0
H99 H 0.61348 0.86115 0.39543 0.0
H100 H 0.42251 0.9462 0.43665 0.0
H101 H 0.69592 0.83229 0.39216 0.0
Zn102 Zn 0.02732 0.14287 0.41191 0.0
C103 C 0.87107 0.11884 0.46734 0.0
N104 N 0.93443 0.11866 0.48589 0.0
C105 C 0.99652 0.12418 0.46904 0.0
N106 N 0.97293 0.12768 0.44122 0.0
N107 N 0.8942 0.12372 0.44003 0.0
C108 C 0.67634 0.12899 0.39829 0.0
O109 O 0.71896 0.14164 0.38428 0.0
O110 O 0.15314 0.14267 0.41586 0.0
Zn111 Zn 0.8397 0.11349 0.40563 0.0
N112 N 0.97544 0.16749 0.41465 0.0
C113 C 0.84358 0.18133 0.41344 0.0
C114 C 0.89336 0.16572 0.41194 0.0
C115 C 0.0105 0.18468 0.41793 0.0
N116 N 0.87785 0.19834 0.41679 0.0
C117 C 0.95994 0.2008 0.41888 0.0
O118 O 0.87596 0.12419 0.36623 0.0
C119 C 0.94279 0.12975 0.3549 0.0
O120 O 0.00359 0.1347 0.37049 0.0
H121 H 0.86659 0.15219 0.4083 0.0
H122 H 0.0761 0.18566 0.4191 0.0
C123 C 0.83594 0.07184 0.40889 0.0
C124 C 0.87706 0.05444 0.40835 0.0
C125 C 0.00111 0.07019 0.3982 0.0
C126 C 0.96055 0.08721 0.39878 0.0
N127 N 0.87912 0.08782 0.40409 0.0
N128 N 0.95869 0.05431 0.40303 0.0
H129 H 0.77153 0.07275 0.41371 0.0
C130 C 0.18961 0.12709 0.41953 0.0
O131 O 0.14548 0.11188 0.42178 0.0
O132 O 0.71399 0.11507 0.40935 0.0
H133 H 0.99402 0.09998 0.3954 0.0
H134 H 0.77813 0.17998 0.41157 0.0
H135 H 0.06599 0.06959 0.39413 0.0
Zn136 Zn 0.84085 0.90003 0.90838 0.0
C137 C -0.00123 0.87869 0.96699 0.0
N138 N 0.93379 0.87761 0.9846 0.0
C139 C 0.87224 0.88241 0.96689 0.0
N140 N 0.89792 0.8865 0.93949 0.0
N141 N 0.97763 0.88359 0.93946 0.0
C142 C 0.19391 0.8855 0.90281 0.0
O143 O 0.15118 0.89915 0.89126 0.0
O144 O 0.71627 0.89654 0.91051 0.0
Zn145 Zn 0.03118 0.8717 0.90673 0.0
N146 N 0.87013 0.92614 0.91393 0.0
C147 C 0.98128 0.94714 0.919 0.0
C148 C 0.95169 0.9291 0.91573 0.0
C149 C 0.81631 0.94067 0.9149 0.0
N150 N 0.92812 0.96162 0.91983 0.0
C151 C 0.84599 0.95916 0.91775 0.0
O152 O 0.00717 0.88355 0.86766 0.0
C153 C 0.94631 0.89002 0.85361 0.0
O154 O 0.87956 0.89438 0.86638 0.0
H155 H 0.99356 0.91747 0.91437 0.0
H156 H 0.75195 0.93768 0.91358 0.0
C157 C 0.01342 0.83007 0.90942 0.0
C158 C 0.96379 0.81391 0.90708 0.0
C159 C 0.85166 0.83319 0.89376 0.0
C160 C 0.9004 0.84889 0.89619 0.0
N161 N 0.98001 0.84718 0.90391 0.0
N162 N 0.8843 0.81623 0.89927 0.0
H163 H 0.07707 0.82925 0.91529 0.0
C164 C 0.68209 0.881 0.91627 0.0
O165 O 0.72802 0.86635 0.92139 0.0
O166 O 0.15599 0.8711 0.91193 0.0
H167 H 0.87464 0.86249 0.89222 0.0
H168 H 0.0461 0.94967 0.92056 0.0
H169 H 0.78818 0.83443 0.88765 0.0
Zn170 Zn 0.65263 0.11863 0.91062 0.0
C171 C 0.50221 0.14373 0.96729 0.0
N172 N 0.56696 0.14457 0.98513 0.0
C173 C 0.62787 0.1386 0.96794 0.0
N174 N 0.60196 0.13407 0.94071 0.0
N175 N 0.52327 0.13797 0.94013 0.0
C176 C 0.30621 0.14162 0.90508 0.0
O177 O 0.33667 0.12646 0.89296 0.0
O178 O 0.77649 0.11929 0.91204 0.0
Zn179 Zn 0.47621 0.15043 0.90704 0.0
N180 N 0.61526 0.09326 0.91748 0.0
C181 C 0.5005 0.07348 0.92404 0.0
C182 C 0.53332 0.09118 0.91998 0.0
C183 C 0.66616 0.07822 0.9186 0.0
N184 N 0.55092 0.05849 0.92515 0.0
C185 C 0.63325 0.06019 0.92258 0.0
O186 O 0.49346 0.13738 0.86839 0.0
C187 C 0.55283 0.12956 0.85518 0.0
O188 O 0.61686 0.12421 0.86868 0.0
H189 H 0.4937 0.10319 0.91842 0.0
H190 H 0.73086 0.08033 0.91571 0.0
C191 C 0.50195 0.19118 0.90839 0.0
C192 C 0.55248 0.20714 0.90641 0.0
C193 C 0.665 0.18731 0.89542 0.0
C194 C 0.61502 0.17175 0.89743 0.0
N195 N 0.53483 0.1739 0.90394 0.0
N196 N 0.63274 0.2045 0.89994 0.0
H197 H 0.43762 0.19225 0.91305 0.0
C198 C 0.82082 0.13363 0.91616 0.0
O199 O 0.78602 0.14992 0.92067 0.0
O200 O 0.35468 0.15453 0.91314 0.0
H201 H 0.63996 0.15796 0.89395 0.0
H202 H 0.43535 0.07164 0.92605 0.0
H203 H 0.72903 0.18578 0.89034 0.0
Zn204 Zn 0.35441 0.12052 0.62844 0.0
C205 C 0.50438 0.14413 0.57075 0.0
N206 N 0.43964 0.14443 0.55282 0.0
C207 C 0.37869 0.13892 0.57028 0.0
N208 N 0.4045 0.13526 0.59778 0.0
N209 N 0.48309 0.13914 0.59821 0.0
C210 C 0.7007 0.14286 0.63327 0.0
O211 O 0.67094 0.12779 0.64559 0.0
O212 O 0.23073 0.12109 0.62712 0.0
Zn213 Zn 0.53077 0.15127 0.63165 0.0
N214 N 0.3923 0.09521 0.62215 0.0
C215 C 0.5063 0.07518 0.61502 0.0
C216 C 0.47405 0.09297 0.6191 0.0
C217 C 0.34113 0.08028 0.62173 0.0
N218 N 0.4555 0.06027 0.61451 0.0
C219 C 0.37339 0.06218 0.61773 0.0
O220 O 0.51609 0.13787 0.67011 0.0
C221 C 0.45531 0.13094 0.68353 0.0
O222 O 0.38975 0.12645 0.67023 0.0
H223 H 0.51392 0.10493 0.62024 0.0
H224 H 0.27671 0.08257 0.62516 0.0
C225 C 0.50362 0.19187 0.63193 0.0
C226 C 0.45273 0.2078 0.63445 0.0
C227 C 0.34057 0.18779 0.64459 0.0
C228 C 0.39094 0.1723 0.64209 0.0
N229 N 0.47113 0.17455 0.63578 0.0
N230 N 0.37248 0.20502 0.64073 0.0
H231 H 0.56777 0.19291 0.6271 0.0
C232 C 0.18603 0.13528 0.6223 0.0
O233 O 0.22035 0.15146 0.61697 0.0
O234 O 0.65169 0.15563 0.62514 0.0
H235 H 0.36618 0.15849 0.64491 0.0
H236 H 0.57128 0.07319 0.61253 0.0
H237 H 0.27652 0.18618 0.64952 0.0
Zn238 Zn 0.16573 0.90355 0.63109 0.0
C239 C 0.00234 0.89412 0.57026 0.0
N240 N 0.05825 0.90241 0.55341 0.0
C241 C 0.12521 0.90218 0.57016 0.0
N242 N 0.11009 0.8944 0.59647 0.0
N243 N 0.03333 0.88879 0.59641 0.0
C244 C 0.8222 0.88131 0.62366 0.0
O245 O 0.85449 0.8974 0.63129 0.0
O246 O 0.29025 0.90197 0.6284 0.0
Zn247 Zn 0.99069 0.87232 0.62653 0.0
N248 N 0.13419 0.92951 0.63249 0.0
C249 C 0.02307 0.95065 0.63676 0.0
C250 C 0.05303 0.9325 0.63595 0.0
C251 C 0.18721 0.94399 0.62977 0.0
N252 N 0.07563 0.96513 0.6342 0.0
C253 C 0.15732 0.96247 0.6308 0.0
O254 O -0.00012 0.88331 0.66734 0.0
C255 C 0.05999 0.88902 0.68265 0.0
O256 O 0.12719 0.89398 0.67096 0.0
H257 H 0.01194 0.92078 0.63791 0.0
H258 H 0.25111 0.94101 0.6264 0.0
C259 C 0.03682 0.83161 0.62687 0.0
C260 C 0.09686 0.81749 0.62993 0.0
C261 C 0.19904 0.84082 0.6329 0.0
C262 C 0.14005 0.8546 0.63035 0.0
N263 N 0.06024 0.84994 0.62723 0.0
N264 N 0.17614 0.82272 0.63275 0.0
H265 H 0.97281 0.82818 0.6253 0.0
C266 C 0.33497 0.88945 0.61656 0.0
O267 O 0.30065 0.87522 0.60318 0.0
O268 O 0.86933 0.86732 0.62007 0.0
H269 H 0.15787 0.86902 0.63148 0.0
H270 H 0.95854 0.95325 0.63942 0.0
H271 H 0.26257 0.84444 0.63555 0.0
Zn272 Zn 0.4426 0.65003 0.1295 0.0
C273 C 0.60933 0.63834 0.07278 0.0
N274 N 0.55374 0.64511 0.05406 0.0
C275 C 0.48559 0.64533 0.0701 0.0
N276 N 0.49901 0.6389 0.09738 0.0
N277 N 0.57666 0.63411 0.09916 0.0
C278 C 0.78869 0.63437 0.12754 0.0
O279 O 0.75372 0.65058 0.12274 0.0
O280 O 0.32256 0.65427 0.12039 0.0
Zn281 Zn 0.62017 0.61865 0.13084 0.0
N282 N 0.50032 0.67318 0.13726 0.0
C283 C 0.62624 0.68606 0.15315 0.0
C284 C 0.57671 0.6707 0.14803 0.0
C285 C 0.47112 0.69056 0.13117 0.0
N286 N 0.59754 0.70336 0.14715 0.0
C287 C 0.52131 0.70635 0.13622 0.0
O288 O 0.57105 0.62289 0.17223 0.0
C289 C 0.5009 0.62734 0.18235 0.0
O290 O 0.44735 0.6354 0.16668 0.0
H291 H 0.59933 0.65681 0.15223 0.0
H292 H 0.41016 0.69175 0.12251 0.0
C293 C 0.64385 0.57855 0.12414 0.0
C294 C 0.61936 0.56027 0.11629 0.0
C295 C 0.4893 0.57228 0.10292 0.0
C296 C 0.51414 0.59023 0.11052 0.0
N297 N 0.59081 0.59306 0.12083 0.0
N298 N 0.54217 0.55783 0.10593 0.0
H299 H 0.70356 0.58137 0.13308 0.0
C300 C 0.27612 0.64004 0.12087 0.0
O301 O 0.3088 0.62356 0.12556 0.0
O302 O 0.74441 0.62007 0.13204 0.0
H303 H 0.47246 0.60183 0.10833 0.0
H304 H 0.6873 0.68427 0.16166 0.0
H305 H 0.42842 0.56982 0.09467 0.0
Zn306 Zn 0.85708 0.40223 0.13203 0.0
C307 C 0.01004 0.37926 0.07334 0.0
N308 N 0.94408 0.3777 0.05625 0.0
C309 C 0.88347 0.3828 0.07429 0.0
N310 N 0.91094 0.38761 0.10125 0.0
N311 N 0.99051 0.38473 0.1007 0.0
C312 C 0.21145 0.38469 0.1376 0.0
O313 O 0.17248 0.39833 0.15091 0.0
O314 O 0.73433 0.39719 0.13186 0.0
Zn315 Zn 0.04577 0.37309 0.13256 0.0
N316 N 0.87976 0.42837 0.12304 0.0
C317 C 0.98317 0.44986 0.1094 0.0
C318 C 0.95862 0.4318 0.11585 0.0
C319 C 0.82409 0.44254 0.12452 0.0
N320 N 0.92804 0.46394 0.11074 0.0
C321 C 0.84869 0.46103 0.11818 0.0
O322 O 0.0275 0.38635 0.17027 0.0
C323 C 0.97206 0.39448 0.18493 0.0
O324 O 0.90318 0.39886 0.17381 0.0
H325 H 0.00247 0.42055 0.11543 0.0
H326 H 0.76245 0.43936 0.13101 0.0
C327 C 0.02394 0.33188 0.1317 0.0
C328 C 0.97398 0.31586 0.13485 0.0
C329 C 0.86365 0.33562 0.14879 0.0
C330 C 0.91288 0.35118 0.14564 0.0
N331 N 0.99174 0.34912 0.13717 0.0
N332 N 0.89517 0.31849 0.14335 0.0
H333 H 0.08698 0.33091 0.12515 0.0
C334 C 0.69122 0.40369 0.15274 0.0
O335 O 0.7277 0.41305 0.17386 0.0
O336 O 0.17 0.3714 0.12631 0.0
H337 H 0.8881 0.36493 0.14962 0.0
H338 H 0.04578 0.45274 0.10358 0.0
H339 H 0.80069 0.3371 0.15543 0.0
Zn340 Zn 0.1444 0.3999 0.40588 0.0
C341 C -0.0013 0.38967 0.47085 0.0
N342 N 0.06062 0.39689 0.48621 0.0
C343 C 0.12271 0.39595 0.46724 0.0
N344 N 0.09899 0.38893 0.44109 0.0
N345 N 0.02132 0.38433 0.44364 0.0
C346 C 0.8007 0.37887 0.41995 0.0
O347 O 0.83419 0.39533 0.41622 0.0
O348 O 0.26912 0.39966 0.40697 0.0
Zn349 Zn 0.96918 0.36789 0.41571 0.0
N350 N 0.10926 0.4256 0.40837 0.0
C351 C 0.99602 0.44629 0.41042 0.0
C352 C 0.02731 0.42827 0.40863 0.0
C353 C 0.16171 0.44028 0.40986 0.0
N354 N 0.04804 0.46096 0.41187 0.0
C355 C 0.13043 0.4586 0.41173 0.0
O356 O 0.978 0.37778 0.37512 0.0
C357 C 0.02845 0.3853 0.35766 0.0
O358 O 0.09724 0.39153 0.3664 0.0
H359 H 0.9867 0.41642 0.40737 0.0
H360 H 0.22652 0.43761 0.40907 0.0
C361 C 0.99584 0.32706 0.4189 0.0
C362 C 0.0468 0.31108 0.41772 0.0
C363 C 0.16141 0.3309 0.41139 0.0
C364 C 0.11077 0.34646 0.4118 0.0
N365 N 0.02934 0.34436 0.41586 0.0
N366 N 0.12839 0.31368 0.41421 0.0
H367 H 0.93084 0.32591 0.4222 0.0
C368 C 0.31625 0.38605 0.40076 0.0
O369 O 0.28474 0.37021 0.39167 0.0
O370 O 0.84689 0.3646 0.4219 0.0
H371 H 0.13609 0.36019 0.40869 0.0
H372 H 0.9309 0.44864 0.41061 0.0
H373 H 0.22643 0.33244 0.40843 0.0
Zn374 Zn 0.51593 0.64758 0.41467 0.0
C375 C 0.36389 0.62205 0.46914 0.0
N376 N 0.4261 0.62223 0.48819 0.0
C377 C 0.48815 0.62861 0.47211 0.0
N378 N 0.46563 0.63225 0.44423 0.0
N379 N 0.38798 0.62751 0.44214 0.0
C380 C 0.16846 0.62992 0.40139 0.0
O381 O 0.19906 0.64513 0.38985 0.0
O382 O 0.63786 0.65158 0.42027 0.0
Zn383 Zn 0.34045 0.61666 0.40668 0.0
N384 N 0.4536 0.67072 0.41395 0.0
C385 C 0.31976 0.68309 0.40921 0.0
C386 C 0.37276 0.66798 0.40934 0.0
C387 C 0.48436 0.68824 0.41781 0.0
N388 N 0.3499 0.7005 0.41314 0.0
C389 C 0.43082 0.70379 0.41733 0.0
O390 O 0.38278 0.62526 0.36632 0.0
C391 C 0.45327 0.63005 0.35714 0.0
O392 O 0.50711 0.6366 0.37442 0.0
H393 H 0.34971 0.65407 0.40576 0.0
H394 H 0.54928 0.6898 0.42069 0.0
C395 C 0.32284 0.57635 0.40792 0.0
C396 C 0.3534 0.55793 0.40823 0.0
C397 C 0.48823 0.57003 0.40918 0.0
C398 C 0.45761 0.58814 0.40846 0.0
N399 N 0.37578 0.59095 0.4079 0.0
N400 N 0.4357 0.55543 0.40899 0.0
H401 H 0.25818 0.57921 0.408 0.0
C402 C 0.68451 0.63735 0.4202 0.0
O403 O 0.6516 0.62067 0.41864 0.0
O404 O 0.21618 0.61679 0.4091 0.0
H405 H 0.49864 0.59993 0.40833 0.0
H406 H 0.25514 0.68106 0.40583 0.0
H407 H 0.55325 0.56756 0.40973 0.0
Zn408 Zn 0.52661 0.37405 0.91136 0.0
C409 C 0.38009 0.39838 0.96942 0.0
N410 N 0.44344 0.39823 0.98787 0.0
C411 C 0.50464 0.39213 0.97091 0.0
N412 N 0.48003 0.38848 0.94315 0.0
N413 N 0.40208 0.39301 0.94224 0.0
C414 C 0.17873 0.39145 0.90434 0.0
O415 O 0.20902 0.37688 0.89052 0.0
O416 O 0.64824 0.37039 0.91532 0.0
Zn417 Zn 0.34907 0.4032 0.90825 0.0
N418 N 0.46882 0.35027 0.91087 0.0
C419 C 0.33802 0.33599 0.90981 0.0
C420 C 0.38639 0.35188 0.90977 0.0
C421 C 0.50531 0.33315 0.91157 0.0
N422 N 0.37399 0.31897 0.91044 0.0
C423 C 0.45646 0.3169 0.91114 0.0
O424 O 0.37638 0.39163 0.86903 0.0
C425 C 0.44499 0.38903 0.85664 0.0
O426 O 0.50938 0.38556 0.8713 0.0
H427 H 0.35828 0.36546 0.90886 0.0
H428 H 0.57102 0.33233 0.91271 0.0
C429 C 0.33603 0.44328 0.9068 0.0
C430 C 0.36728 0.4616 0.90658 0.0
C431 C 0.50151 0.44909 0.90449 0.0
C432 C 0.47011 0.43106 0.90502 0.0
N433 N 0.38821 0.42852 0.9062 0.0
N434 N 0.44965 0.46385 0.90532 0.0
H435 H 0.27134 0.44057 0.90713 0.0
C436 C 0.69467 0.38452 0.91776 0.0
O437 O 0.66193 0.40125 0.91918 0.0
O438 O 0.22665 0.40411 0.91362 0.0
H439 H 0.51056 0.41914 0.90462 0.0
H440 H 0.27232 0.33715 0.90915 0.0
H441 H 0.5666 0.45136 0.90356 0.0
Zn442 Zn 0.97321 0.64711 0.91713 0.0
C443 C 0.11711 0.61697 0.96979 0.0
N444 N 0.05359 0.61663 0.98821 0.0
C445 C 0.99431 0.62503 0.97289 0.0
N446 N 0.02007 0.63047 0.94609 0.0
N447 N 0.09669 0.62498 0.94417 0.0
C448 C 0.31977 0.63102 0.9243 0.0
O449 O 0.28633 0.64634 0.93468 0.0
O450 O 0.85216 0.65061 0.92396 0.0
Zn451 Zn 0.15142 0.61865 0.90821 0.0
N452 N 0.03286 0.67065 0.91955 0.0
C453 C 0.16499 0.68425 0.92122 0.0
C454 C 0.11512 0.66862 0.92001 0.0
C455 C -0.00195 0.68795 0.91953 0.0
N456 N 0.13073 0.70145 0.92105 0.0
C457 C 0.04855 0.70397 0.91997 0.0
O458 O 0.11941 0.63276 0.87113 0.0
C459 C 0.04979 0.63575 0.85954 0.0
O460 O 0.98604 0.63797 0.87515 0.0
H461 H 0.14182 0.65492 0.91903 0.0
H462 H 0.93239 0.68909 0.91909 0.0
C463 C 0.17051 0.57876 0.90162 0.0
C464 C 0.14133 0.56046 0.89754 0.0
C465 C 0.00715 0.57248 0.89227 0.0
C466 C 0.03641 0.59054 0.89628 0.0
N467 N 0.11729 0.59332 0.90083 0.0
N468 N 0.06003 0.55792 0.89306 0.0
H469 H 0.23413 0.58145 0.90614 0.0
C470 C 0.80614 0.63641 0.92158 0.0
O471 O 0.83892 0.62022 0.91469 0.0
O472 O 0.27476 0.61843 0.91302 0.0
H473 H 0.99491 0.60227 0.8962 0.0
H474 H 0.23056 0.68278 0.92176 0.0
H475 H 0.94286 0.57002 0.88874 0.0
Zn476 Zn 0.83866 0.62483 0.63305 0.0
C477 C 0.99613 0.64528 0.57356 0.0
N478 N 0.93075 0.64587 0.55599 0.0
C479 C 0.86967 0.64139 0.57405 0.0
N480 N 0.89585 0.63798 0.6016 0.0
N481 N 0.97545 0.64104 0.60146 0.0
C482 C 0.19029 0.64062 0.63826 0.0
O483 O 0.14735 0.6272 0.65027 0.0
O484 O 0.71349 0.62847 0.63108 0.0
Zn485 Zn 0.02724 0.65423 0.63353 0.0
N486 N 0.86752 0.59861 0.62791 0.0
C487 C 0.97793 0.57751 0.6214 0.0
C488 C 0.94882 0.59557 0.62512 0.0
C489 C 0.81353 0.58414 0.62763 0.0
N490 N 0.92457 0.56311 0.62098 0.0
C491 C 0.84265 0.56561 0.62405 0.0
O492 O 0.00311 0.6434 0.67351 0.0
C493 C 0.94369 0.63632 0.68758 0.0
O494 O 0.87873 0.63085 0.67467 0.0
H495 H 0.99086 0.60715 0.62598 0.0
H496 H 0.74966 0.58728 0.63026 0.0
C497 C 0.00268 0.69583 0.62743 0.0
C498 C 0.94894 0.71132 0.6274 0.0
C499 C 0.84054 0.69154 0.64176 0.0
C500 C 0.89318 0.67636 0.64168 0.0
N501 N 0.97283 0.67859 0.63431 0.0
N502 N 0.86942 0.70857 0.6345 0.0
H503 H 0.06614 0.69741 0.62152 0.0
C504 C 0.67905 0.6438 0.62403 0.0
O505 O 0.72484 0.65817 0.61735 0.0
O506 O 0.15242 0.6549 0.62852 0.0
H507 H 0.87024 0.6627 0.64701 0.0
H508 H 0.04254 0.57491 0.61903 0.0
H509 H 0.77703 0.68983 0.64744 0.0
Zn510 Zn 0.6413 0.40614 0.63018 0.0
C511 C 0.49261 0.38062 0.57326 0.0
N512 N 0.55841 0.37914 0.55609 0.0
C513 C 0.61835 0.38528 0.57356 0.0
N514 N 0.59092 0.39058 0.6002 0.0
N515 N 0.51206 0.38695 0.60026 0.0
C516 C 0.29547 0.3835 0.63415 0.0
O517 O 0.32611 0.39888 0.64547 0.0
O518 O 0.76503 0.4052 0.62903 0.0
Zn519 Zn 0.46487 0.37448 0.63304 0.0
N520 N 0.60621 0.43164 0.62256 0.0
C521 C 0.49606 0.45195 0.61115 0.0
C522 C 0.52585 0.43411 0.61659 0.0
C523 C 0.65824 0.44644 0.62378 0.0
N524 N 0.54772 0.46669 0.61217 0.0
C525 C 0.62848 0.46465 0.61836 0.0
O526 O 0.48198 0.38728 0.67163 0.0
C527 C 0.54068 0.39508 0.68519 0.0
O528 O 0.60464 0.40067 0.67199 0.0
H529 H 0.48503 0.42231 0.61635 0.0
H530 H 0.72117 0.44392 0.62948 0.0
C531 C 0.48965 0.33383 0.63283 0.0
C532 C 0.53924 0.3178 0.63581 0.0
C533 C 0.65322 0.33737 0.64518 0.0
C534 C 0.60383 0.35305 0.64271 0.0
N535 N 0.52341 0.35106 0.63641 0.0
N536 N 0.6199 0.32021 0.64176 0.0
H537 H 0.42561 0.33276 0.62752 0.0
C538 C 0.80963 0.39081 0.62554 0.0
O539 O 0.77522 0.37444 0.62173 0.0
O540 O 0.34377 0.37038 0.62679 0.0
H541 H 0.62933 0.36681 0.64571 0.0
H542 H 0.4322 0.4541 0.60631 0.0
H543 H 0.71746 0.33879 0.65 0.0
H544 H 0.7035 0.1115 0.11501 0.0
H545 H 0.73032 0.17043 0.13263 0.0
H546 H 0.58289 0.17353 0.13817 0.0
H547 H 0.44687 0.15922 0.1404 0.0
H548 H 0.41996 0.10042 0.12178 0.0
H549 H 0.56678 0.09759 0.11424 0.0
C550 C 0.67713 0.12505 0.11992 0.0
C551 C 0.7281 0.14067 0.1237 0.0
C552 C 0.59225 0.12674 0.12309 0.0
C553 C 0.69267 0.15816 0.1297 0.0
C554 C 0.6083 0.15994 0.13298 0.0
C555 C 0.47312 0.14578 0.13472 0.0
C556 C 0.42256 0.13001 0.13206 0.0
C557 C 0.55762 0.14427 0.13017 0.0
C558 C 0.45746 0.11277 0.12415 0.0
C559 C 0.54147 0.11113 0.11984 0.0
H560 H 0.05556 0.8628 0.1404 0.0
H561 H 0.08321 0.92149 0.12186 0.0
H562 H 0.93644 0.92438 0.11426 0.0
H563 H 0.79959 0.91058 0.11501 0.0
H564 H 0.77192 0.85178 0.13265 0.0
H565 H 0.91933 0.84859 0.13815 0.0
C566 C 0.02948 0.87623 0.13472 0.0
C567 C 0.08023 0.89195 0.1321 0.0
C568 C 0.945 0.87778 0.13016 0.0
C569 C 0.04556 0.90918 0.1242 0.0
C570 C 0.96158 0.91085 0.11985 0.0
C571 C 0.82576 0.89704 0.11991 0.0
C572 C 0.77457 0.88149 0.12372 0.0
C573 C 0.91061 0.89529 0.12309 0.0
C574 C 0.80975 0.864 0.12971 0.0
C575 C 0.8941 0.86217 0.13296 0.0
H576 H 0.95199 0.91457 0.36685 0.0
H577 H 0.88944 0.88347 0.44454 0.0
H578 H 0.03309 0.87545 0.45193 0.0
H579 H 0.1782 0.87717 0.43592 0.0
H580 H 0.23769 0.90982 0.3595 0.0
H581 H 0.09433 0.91709 0.35196 0.0
C582 C 0.96954 0.90603 0.38544 0.0
C583 C 0.9096 0.89956 0.40494 0.0
C584 C 0.05222 0.90161 0.38972 0.0
C585 C 0.93405 0.88863 0.42905 0.0
C586 C 0.01634 0.88398 0.43328 0.0
C587 C 0.1594 0.88577 0.41757 0.0
C588 C 0.21863 0.89287 0.39823 0.0
C589 C 0.07617 0.89032 0.41366 0.0
C590 C 0.19352 0.90423 0.37478 0.0
C591 C 0.11141 0.9084 0.3704 0.0
H592 H 0.56451 0.10523 0.42329 0.0
H593 H 0.58547 0.15906 0.38179 0.0
H594 H 0.43911 0.16386 0.38633 0.0
H595 H 0.30284 0.15239 0.40022 0.0
H596 H 0.28082 0.09821 0.44033 0.0
H597 H 0.42838 0.09411 0.43841 0.0
C598 C 0.53711 0.11802 0.41528 0.0
C599 C 0.58656 0.13165 0.40199 0.0
C600 C 0.45198 0.1207 0.41771 0.0
C601 C 0.54947 0.14819 0.39191 0.0
C602 C 0.46539 0.15101 0.39453 0.0
C603 C 0.33039 0.13977 0.40879 0.0
C604 C 0.28032 0.12562 0.42027 0.0
C605 C 0.41573 0.13731 0.40715 0.0
C606 C 0.31745 0.10931 0.43114 0.0
C607 C 0.40211 0.10692 0.43005 0.0
H608 H 0.30685 0.85961 0.9215 0.0
H609 H 0.28441 0.91619 0.89021 0.0
H610 H 0.43142 0.92005 0.89258 0.0
H611 H 0.56785 0.90729 0.90195 0.0
H612 H 0.59225 0.85063 0.93249 0.0
H613 H 0.44435 0.84701 0.93209 0.0
C614 C 0.33413 0.87279 0.91529 0.0
C615 C 0.28405 0.88751 0.9055 0.0
C616 C 0.41967 0.87496 0.91648 0.0
C617 C 0.3209 0.90452 0.89764 0.0
C618 C 0.40534 0.90679 0.899 0.0
C619 C 0.54092 0.89416 0.90862 0.0
C620 C 0.59161 0.87924 0.91704 0.0
C621 C 0.45551 0.89208 0.90813 0.0
C622 C 0.55513 0.86235 0.92569 0.0
C623 C 0.47027 0.86025 0.92549 0.0
H624 H 0.19315 0.11429 0.89893 0.0
H625 H 0.21887 0.17236 0.92279 0.0
H626 H 0.07121 0.17491 0.92926 0.0
H627 H 0.93415 0.16085 0.92645 0.0
H628 H 0.91052 0.10259 0.90315 0.0
H629 H 0.05794 0.09996 0.89831 0.0
C630 C 0.16662 0.12754 0.90553 0.0
C631 C 0.21707 0.14317 0.91003 0.0
C632 C 0.08188 0.12888 0.9093 0.0
C633 C 0.18151 0.16013 0.91901 0.0
C634 C 0.09702 0.1616 0.9227 0.0
C635 C 0.96123 0.14756 0.92039 0.0
C636 C 0.91095 0.13199 0.9149 0.0
C637 C 0.04648 0.14611 0.91764 0.0
C638 C 0.94739 0.11484 0.90736 0.0
C639 C 0.03185 0.11331 0.90454 0.0
H640 H 0.81454 0.11572 0.63957 0.0
H641 H 0.78683 0.17354 0.61527 0.0
H642 H 0.9344 0.17619 0.60877 0.0
H643 H 0.0719 0.16229 0.61172 0.0
H644 H 0.09743 0.10428 0.63557 0.0
H645 H 0.95012 0.10154 0.64036 0.0
C646 C 0.84061 0.12893 0.63286 0.0
C647 C 0.78968 0.14447 0.62825 0.0
C648 C 0.92527 0.13033 0.62909 0.0
C649 C 0.82461 0.16138 0.61914 0.0
C650 C 0.90903 0.16291 0.61543 0.0
C651 C 0.04525 0.14903 0.61788 0.0
C652 C 0.09601 0.13357 0.62355 0.0
C653 C 0.96008 0.14751 0.62062 0.0
C654 C 0.06016 0.11646 0.63124 0.0
C655 C 0.97577 0.11486 0.63402 0.0
H656 H 0.44904 0.86338 0.60039 0.0
H657 H 0.42451 0.91901 0.63631 0.0
H658 H 0.57209 0.92141 0.64088 0.0
H659 H 0.70787 0.90759 0.63611 0.0
H660 H 0.73465 0.85184 0.60112 0.0
H661 H 0.58671 0.84965 0.59475 0.0
C662 C 0.47597 0.87606 0.60912 0.0
C663 C 0.42529 0.89095 0.61815 0.0
C664 C 0.56139 0.87731 0.61198 0.0
C665 C 0.46158 0.90726 0.62938 0.0
C666 C 0.54618 0.90867 0.63199 0.0
C667 C 0.6816 0.89494 0.62703 0.0
C668 C 0.73256 0.87985 0.61929 0.0
C669 C 0.59661 0.89374 0.62362 0.0
C670 C 0.69702 0.86361 0.60751 0.0
C671 C 0.61234 0.86237 0.6038 0.0
H672 H 0.90158 0.66147 0.11602 0.0
H673 H 0.87902 0.60276 0.13549 0.0
H674 H 0.02666 0.59928 0.13363 0.0
H675 H 0.16243 0.6129 0.12802 0.0
H676 H 0.18696 0.67159 0.10903 0.0
H677 H 0.03852 0.675 0.10891 0.0
C678 C 0.92891 0.64792 0.11989 0.0
C679 C 0.87888 0.63245 0.12619 0.0
C680 C 0.01435 0.64597 0.11881 0.0
C681 C 0.91566 0.61496 0.13085 0.0
C682 C 0.00028 0.61293 0.12973 0.0
C683 C 0.13553 0.62645 0.12367 0.0
C684 C 0.18609 0.64199 0.11871 0.0
C685 C 0.05024 0.62834 0.12394 0.0
C686 C 0.14972 0.6594 0.11307 0.0
C687 C 0.06474 0.66137 0.11304 0.0
H688 H 0.31092 0.40491 0.17233 0.0
H689 H 0.31535 0.36595 0.09987 0.0
H690 H 0.46465 0.36844 0.09765 0.0
H691 H 0.59434 0.38214 0.11646 0.0
H692 H 0.58471 0.42045 0.18998 0.0
H693 H 0.43729 0.41776 0.19148 0.0
C694 C 0.3443 0.39693 0.15597 0.0
C695 C 0.3019 0.38529 0.13625 0.0
C696 C 0.4295 0.39833 0.15502 0.0
C697 C 0.34649 0.37494 0.11543 0.0
C698 C 0.43183 0.37642 0.11411 0.0
C699 C 0.55989 0.38987 0.13281 0.0
C700 C 0.60107 0.4015 0.15309 0.0
C701 C 0.47413 0.38813 0.1338 0.0
C702 C 0.55523 0.41136 0.17415 0.0
C703 C 0.47061 0.40986 0.17504 0.0
H704 H 0.68719 0.40664 0.42012 0.0
H705 H 0.71103 0.34665 0.4176 0.0
H706 H 0.56363 0.34357 0.41152 0.0
H707 H 0.42827 0.35797 0.40484 0.0
H708 H 0.4047 0.41795 0.40854 0.0
H709 H 0.55144 0.42094 0.41616 0.0
C710 C 0.66023 0.39287 0.41841 0.0
C711 C 0.71051 0.37691 0.41908 0.0
C712 C 0.57534 0.3912 0.41488 0.0
C713 C 0.67409 0.35919 0.41711 0.0
C714 C 0.58969 0.35741 0.41351 0.0
C715 C 0.45526 0.3717 0.40721 0.0
C716 C 0.40548 0.38773 0.4057 0.0
C717 C 0.53982 0.37333 0.41194 0.0
C718 C 0.44144 0.40539 0.4094 0.0
C719 C 0.52546 0.40711 0.41379 0.0
H720 H 0.05586 0.65798 0.40228 0.0
H721 H 0.08144 0.59847 0.41356 0.0
H722 H 0.93496 0.59569 0.42181 0.0
H723 H 0.79886 0.60991 0.424 0.0
H724 H 0.7729 0.6695 0.41382 0.0
H725 H 0.92015 0.67249 0.40732 0.0
C726 C 0.02935 0.64439 0.40647 0.0
C727 C 0.07956 0.62842 0.40689 0.0
C728 C 0.94496 0.64291 0.41151 0.0
C729 C 0.04431 0.61098 0.41292 0.0
C730 C 0.96046 0.60937 0.41766 0.0
C731 C 0.82533 0.62359 0.42053 0.0
C732 C 0.77454 0.63943 0.41913 0.0
C733 C 0.91009 0.62521 0.41676 0.0
C734 C 0.81029 0.65705 0.41492 0.0
C735 C 0.89458 0.65877 0.41108 0.0
H736 H 0.06525 0.364 0.89908 0.0
H737 H 0.09327 0.42205 0.92276 0.0
H738 H 0.94645 0.42479 0.93038 0.0
H739 H 0.80945 0.41109 0.92821 0.0
H740 H 0.78166 0.35287 0.90546 0.0
H741 H 0.92902 0.3498 0.89987 0.0
C742 C 0.03924 0.37726 0.90589 0.0
C743 C 0.09007 0.39286 0.90995 0.0
C744 C 0.95478 0.37871 0.91044 0.0
C745 C 0.05552 0.40985 0.9193 0.0
C746 C 0.97152 0.41144 0.92365 0.0
C747 C 0.83561 0.3977 0.92217 0.0
C748 C 0.78441 0.38229 0.91695 0.0
C749 C 0.92046 0.39602 0.91898 0.0
C750 C 0.81951 0.36499 0.9095 0.0
C751 C 0.90384 0.36322 0.9062 0.0
H752 H 0.4346 0.65655 0.94075 0.0
H753 H 0.40705 0.60006 0.90876 0.0
H754 H 0.55471 0.59655 0.90644 0.0
H755 H 0.69146 0.60989 0.91117 0.0
H756 H 0.7201 0.66655 0.94209 0.0
H757 H 0.57236 0.66956 0.94724 0.0
C758 C 0.46085 0.64343 0.93341 0.0
C759 C 0.40957 0.62865 0.92468 0.0
C760 C 0.54609 0.64155 0.9318 0.0
C761 C 0.44484 0.61173 0.91537 0.0
C762 C 0.52941 0.60969 0.91403 0.0
C763 C 0.66554 0.62289 0.91916 0.0
C764 C 0.71687 0.63803 0.92596 0.0
C765 C 0.58057 0.62458 0.9218 0.0
C766 C 0.68204 0.65473 0.9364 0.0
C767 C 0.59751 0.65646 0.9394 0.0
H768 H 0.56428 0.61825 0.64083 0.0
H769 H 0.58937 0.67372 0.60548 0.0
H770 H 0.44164 0.67765 0.60582 0.0
H771 H 0.30389 0.6657 0.61756 0.0
H772 H 0.28061 0.6103 0.65348 0.0
H773 H 0.42749 0.60611 0.65141 0.0
C774 C 0.53752 0.63118 0.63311 0.0
C775 C 0.58847 0.64568 0.62334 0.0
C776 C 0.45209 0.63345 0.63354 0.0
C777 C 0.55215 0.66231 0.61334 0.0
C778 C 0.46734 0.6646 0.6135 0.0
C779 C 0.33094 0.65271 0.62487 0.0
C780 C 0.28057 0.63843 0.63584 0.0
C781 C 0.41649 0.65034 0.6238 0.0
C782 C 0.31723 0.62165 0.64509 0.0
C783 C 0.40165 0.61918 0.64392 0.0
H784 H 0.18184 0.41079 0.64008 0.0
H785 H 0.20855 0.35249 0.61775 0.0
H786 H 0.06074 0.34968 0.61222 0.0
H787 H 0.92338 0.36361 0.61545 0.0
H788 H 0.89862 0.42209 0.6373 0.0
H789 H 0.04614 0.42496 0.64115 0.0
C790 C 0.15549 0.39745 0.634 0.0
C791 C 0.20626 0.38183 0.62965 0.0
C792 C 0.07065 0.39595 0.6308 0.0
C793 C 0.17094 0.36472 0.62138 0.0
C794 C 0.08637 0.3631 0.61824 0.0
C795 C 0.95024 0.37699 0.621 0.0
C796 C 0.89967 0.39256 0.62636 0.0
C797 C 0.03552 0.37859 0.62317 0.0
C798 C 0.93577 0.40983 0.63321 0.0
C799 C 0.02028 0.41151 0.63546 0.0
H800 H 0.19216 0.1081 0.02279 0.0
H801 H 0.25041 0.14772 0.09115 0.0
H802 H 0.36627 0.15889 0.06288 0.0
H803 H 0.44511 0.1588 1.01721 0.0
H804 H 0.38513 0.11964 0.94836 0.0
H805 H 0.27044 0.10814 0.97699 0.0
C806 C 0.23164 0.11885 0.03175 0.0
C807 C 0.21502 0.12651 0.05957 0.0
C808 C 0.29415 0.12614 1.01442 0.0
C809 C 0.26486 0.14082 0.07063 0.0
C810 C 0.32941 0.14766 0.054 0.0
C811 C 0.40564 0.14804 1.00825 0.0
C812 C 0.42171 0.14052 0.98031 0.0
C813 C 0.34316 0.14074 0.02558 0.0
C814 C 0.37155 0.1263 0.96915 0.0
C815 C 0.30753 0.11932 0.98592 0.0
H816 H 0.30857 0.91438 0.0238 0.0
H817 H 0.25177 0.87409 0.09069 0.0
H818 H 0.13548 0.86314 0.06213 0.0
H819 H 0.05652 0.86349 1.01645 0.0
H820 H 0.11356 0.90356 0.94925 0.0
H821 H 0.22856 0.91495 0.97824 0.0
C822 C 0.26919 0.90356 0.03242 0.0
C823 C 0.28649 0.8956 0.05989 0.0
C824 C 0.20627 0.89645 1.0149 0.0
C825 C 0.23683 0.8812 0.07048 0.0
C826 C 0.17204 0.8745 0.05367 0.0
C827 C 0.09543 0.87443 1.00791 0.0
C828 C 0.07897 0.88214 0.98022 0.0
C829 C 0.15776 0.88168 0.02553 0.0
C830 C 0.12805 0.89666 0.96969 0.0
C831 C 0.19207 0.90359 0.98671 0.0
H832 H 0.71392 0.85864 0.50013 0.0
H833 H 0.69818 0.91501 0.46801 0.0
H834 H 0.81068 0.92431 0.50026 0.0
H835 H 0.90821 0.91653 0.53904 0.0
H836 H 0.93025 0.85983 0.56914 0.0
H837 H 0.8158 0.85055 0.53764 0.0
C838 C 0.73687 0.87284 0.49975 0.0
C839 C 0.70036 0.88605 0.48121 0.0
C840 C 0.79903 0.87811 0.51902 0.0
C841 C 0.72809 0.90452 0.48126 0.0
C842 C 0.79087 0.90988 0.50015 0.0
C843 C 0.88648 0.90222 0.53911 0.0
C844 C 0.92397 0.88902 0.5574 0.0
C845 C 0.82536 0.89686 0.51952 0.0
C846 C 0.89841 0.87038 0.5566 0.0
C847 C 0.83485 0.86502 0.53798 0.0
H848 H 0.81037 0.10505 0.5173 0.0
H849 H 0.757 0.14308 0.44678 0.0
H850 H 0.64192 0.15573 0.47424 0.0
H851 H 0.56263 0.1574 0.51986 0.0
H852 H 0.62001 0.1202 0.59112 0.0
H853 H 0.73288 0.10709 0.5631 0.0
C854 C 0.77207 0.11577 0.50768 0.0
C855 C 0.78969 0.1225 0.47947 0.0
C856 C 0.7105 0.124 0.52458 0.0
C857 C 0.74147 0.13681 0.46759 0.0
C858 C 0.6775 0.14452 0.48377 0.0
C859 C 0.60123 0.14673 0.52948 0.0
C860 C 0.58474 0.14021 0.55791 0.0
C861 C 0.66296 0.13854 0.51257 0.0
C862 C 0.63382 0.1261 0.56991 0.0
C863 C 0.69681 0.11819 0.55351 0.0
H864 H 0.79383 0.85964 1.00292 0.0
H865 H 0.77694 0.91334 0.96113 0.0
H866 H 0.66104 0.92161 0.99248 0.0
H867 H 0.57088 0.91406 0.0335 0.0
H868 H 0.58274 0.85988 0.07394 0.0
H869 H 0.69914 0.85153 0.04267 0.0
C870 C 0.76326 0.87299 1.00032 0.0
C871 C 0.79171 0.88576 0.97939 0.0
C872 C 0.69934 0.87779 1.01912 0.0
C873 C 0.75365 0.90313 0.97638 0.0
C874 C 0.68886 0.90796 0.99472 0.0
C875 C 0.6002 0.90055 0.03578 0.0
C876 C 0.57179 0.88788 0.05686 0.0
C877 C 0.66273 0.89555 1.01656 0.0
C878 C 0.60744 0.87019 0.0591 0.0
C879 C 0.67213 0.86528 0.04067 0.0
H880 H 0.70936 0.1615 1.00303 0.0
H881 H 0.71764 0.10663 0.964 0.0
H882 H 0.83372 0.09841 0.99531 0.0
H883 H 0.92747 0.10659 0.03528 0.0
H884 H 0.92214 0.16176 0.07328 0.0
H885 H 0.8055 0.16996 0.04215 0.0
C886 C 0.73799 0.14788 1.00105 0.0
C887 C 0.70746 0.1348 0.98081 0.0
C888 C 0.80176 0.14314 1.01986 0.0
C889 C 0.74283 0.11707 0.97864 0.0
C890 C 0.80769 0.11229 0.99697 0.0
C891 C 0.89939 0.12028 0.03707 0.0
C892 C 0.92987 0.13333 0.05736 0.0
C893 C 0.83631 0.12511 1.01801 0.0
C894 C 0.89593 0.15123 0.05899 0.0
C895 C 0.83103 0.15602 0.04068 0.0
H896 H 0.07736 0.10357 0.50753 0.0
H897 H 0.08156 0.15662 0.46338 0.0
H898 H 0.19834 0.16641 0.49327 0.0
H899 H 0.29614 0.1599 0.5327 0.0
H900 H 0.29109 0.10694 0.57703 0.0
H901 H 0.17364 0.09727 0.54751 0.0
C902 C 0.10507 0.11715 0.5042 0.0
C903 C 0.07407 0.12913 0.4826 0.0
C904 C 0.16909 0.12287 0.52228 0.0
C905 C 0.10773 0.1469 0.4789 0.0
C906 C 0.173 0.1526 0.4964 0.0
C907 C 0.26802 0.14638 0.53619 0.0
C908 C 0.29963 0.13431 0.55756 0.0
C909 C 0.20337 0.14075 0.51833 0.0
C910 C 0.26496 0.11668 0.5616 0.0
C911 C 0.19922 0.11105 0.54429 0.0
H912 H 0.46336 0.9027 0.50635 0.0
H913 H 0.35713 0.8546 0.46399 0.0
H914 H 0.23239 0.85874 0.49325 0.0
H915 H 0.15786 0.87538 0.53194 0.0
H916 H 0.2632 0.92362 0.57419 0.0
H917 H 0.38759 0.91972 0.54457 0.0
C918 C 0.41232 0.89324 0.50346 0.0
C919 C 0.41781 0.87848 0.48309 0.0
C920 C 0.34282 0.8955 0.52071 0.0
C921 C 0.35267 0.86618 0.47929 0.0
C922 C 0.28233 0.86845 0.49619 0.0
C923 C 0.20845 0.88499 0.53465 0.0
C924 C 0.203 0.89964 0.55521 0.0
C925 C 0.27751 0.8829 0.51717 0.0
C926 C 0.26753 0.91215 0.55869 0.0
C927 C 0.33775 0.90998 0.54163 0.0
H928 H 0.7024 0.66087 0.04143 0.0
H929 H 0.69324 0.60551 0.07778 0.0
H930 H 0.8111 0.59629 0.04802 0.0
H931 H 0.9085 0.6035 1.00876 0.0
H932 H 0.91961 0.65906 0.97318 0.0
H933 H 0.80483 0.6686 1.00427 0.0
C934 C 0.72771 0.64691 0.04327 0.0
C935 C 0.69103 0.63393 0.0621 0.0
C936 C 0.79244 0.64161 0.0252 0.0
C937 C 0.72258 0.61582 0.06415 0.0
C938 C 0.78861 0.61049 0.04667 0.0
C939 C 0.88468 0.61762 1.00756 0.0
C940 C 0.91867 0.63035 0.98766 0.0
C941 C 0.82222 0.62314 0.02654 0.0
C942 C 0.89036 0.64878 0.98698 0.0
C943 C 0.8265 0.65432 1.00529 0.0
H944 H 0.58105 0.41404 1.00858 0.0
H945 H 0.59592 0.36025 0.96619 0.0
H946 H 0.71225 0.3519 0.99747 0.0
H947 H 0.80581 0.35992 0.03779 0.0
H948 H 0.78525 0.41321 0.08146 0.0
H949 H 0.66943 0.42138 0.05025 0.0
C950 C 0.61095 0.40061 1.0059 0.0
C951 C 0.58337 0.38806 0.98431 0.0
C952 C 0.67313 0.39557 0.02515 0.0
C953 C 0.6199 0.37048 0.98149 0.0
C954 C 0.68451 0.36556 0.99991 0.0
C955 C 0.77442 0.37314 0.04087 0.0
C956 C 0.8021 0.38583 0.06227 0.0
C957 C 0.71062 0.37793 0.02205 0.0
C958 C 0.7627 0.40301 0.06592 0.0
C959 C 0.698 0.40783 0.04758 0.0
H960 H 0.18287 0.4141 0.51387 0.0
H961 H 0.24072 0.37172 0.4497 0.0
H962 H 0.35893 0.36219 0.47844 0.0
H963 H 0.43805 0.36414 0.52405 0.0
H964 H 0.37454 0.40523 0.5897 0.0
H965 H 0.26076 0.41581 0.5596 0.0
C966 C 0.22281 0.40311 0.50585 0.0
C967 C 0.2054 0.39416 0.47908 0.0
C968 C 0.28584 0.39663 0.52377 0.0
C969 C 0.2559 0.3796 0.46925 0.0
C970 C 0.32166 0.37369 0.48626 0.0
C971 C 0.39808 0.37514 0.53199 0.0
C972 C 0.41294 0.38352 0.55942 0.0
C973 C 0.33548 0.38173 0.51395 0.0
C974 C 0.36207 0.39801 0.56928 0.0
C975 C 0.29851 0.40442 0.55169 0.0
H976 H 0.05301 0.65881 0.5227 0.0
H977 H 0.11128 0.62076 0.59273 0.0
H978 H 0.22429 0.60807 0.56404 0.0
H979 H 0.30265 0.60698 0.5182 0.0
H980 H 0.24731 0.64582 0.44897 0.0
H981 H 0.13136 0.65771 0.47683 0.0
C982 C 0.09177 0.64803 0.53191 0.0
C983 C 0.07594 0.64123 0.56027 0.0
C984 C 0.1534 0.6401 0.51461 0.0
C985 C 0.12502 0.62693 0.57168 0.0
C986 C 0.18795 0.61926 0.55487 0.0
C987 C 0.26366 0.61769 0.5089 0.0
C988 C 0.28137 0.62494 0.48096 0.0
C989 C 0.2015 0.62549 0.5261 0.0
C990 C 0.23205 0.63919 0.46953 0.0
C991 C 0.16754 0.64647 0.48597 0.0
H992 H 0.06532 0.36454 0.02296 0.0
H993 H 0.12655 0.40349 0.09202 0.0
H994 H 0.24137 0.41492 0.06338 0.0
H995 H 0.32077 0.41458 1.01791 0.0
H996 H 0.26325 0.37464 0.94996 0.0
H997 H 0.14518 0.3641 0.97761 0.0
C998 C 0.10495 0.37527 0.03192 0.0
C999 C 0.08941 0.38276 0.05987 0.0
C1000 C 0.16795 0.3824 1.01474 0.0
C1001 C 0.13976 0.39691 0.07112 0.0
C1002 C 0.2039 0.40382 0.0544 0.0
C1003 C 0.28086 0.40393 1.00889 0.0
C1004 C 0.29813 0.396 0.98136 0.0
C1005 C 0.21741 0.39691 0.02598 0.0
C1006 C 0.24806 0.38177 0.97022 0.0
C1007 C 0.18228 0.37529 0.98651 0.0
H1008 H 0.16521 0.64788 0.99594 0.0
H1009 H 0.24258 0.59195 0.97459 0.0
H1010 H 0.36331 0.59582 1.00617 0.0
H1011 H 0.44144 0.61479 0.04148 0.0
H1012 H 0.3624 0.67053 0.06329 0.0
H1013 H 0.24389 0.66693 0.03067 0.0
C1014 C 0.20969 0.63671 0.99787 0.0
C1015 C 0.19714 0.61979 0.98284 0.0
C1016 C 0.27591 0.63884 1.01678 0.0
C1017 C 0.25293 0.60515 0.98567 0.0
C1018 C 0.32079 0.60732 1.00393 0.0
C1019 C 0.39724 0.626 0.03929 0.0
C1020 C 0.40827 0.64273 0.05497 0.0
C1021 C 0.33167 0.62395 1.02001 0.0
C1022 C 0.35297 0.65743 0.0518 0.0
C1023 C 0.2864 0.65543 0.03295 0.0
H1024 H 0.78723 0.6634 0.53781 0.0
H1025 H 0.77793 0.61015 0.58117 0.0
H1026 H 0.66043 0.60109 0.55123 0.0
H1027 H 0.56717 0.60774 0.5106 0.0
H1028 H 0.57138 0.66148 0.46862 0.0
H1029 H 0.68817 0.67079 0.499 0.0
C1030 C 0.75798 0.64998 0.54105 0.0
C1031 C 0.78909 0.63755 0.562 0.0
C1032 C 0.6928 0.64476 0.52311 0.0
C1033 C 0.75268 0.62009 0.56588 0.0
C1034 C 0.68683 0.61482 0.54836 0.0
C1035 C 0.59478 0.62138 0.50786 0.0
C1036 C 0.56467 0.63359 0.48641 0.0
C1037 C 0.65791 0.62689 0.52648 0.0
C1038 C 0.5978 0.65148 0.48367 0.0
C1039 C 0.66277 0.65693 0.50155 0.0
H1040 H 0.70122 0.36056 0.54236 0.0
H1041 H 0.70956 0.41699 0.57543 0.0
H1042 H 0.82698 0.4236 0.54389 0.0
H1043 H 0.91987 0.41368 0.50471 0.0
H1044 H 0.91323 0.35713 0.47218 0.0
H1045 H 0.79758 0.35029 0.50448 0.0
C1046 C 0.73029 0.37417 0.54305 0.0
C1047 C 0.69922 0.38819 0.5615 0.0
C1048 C 0.79443 0.37798 0.524 0.0
C1049 C 0.73509 0.40589 0.56208 0.0
C1050 C 0.80067 0.40973 0.54362 0.0
C1051 C 0.89183 0.39996 0.50442 0.0
C1052 C 0.92138 0.38611 0.48531 0.0
C1053 C 0.82917 0.396 0.52402 0.0
C1054 C 0.88757 0.36821 0.48556 0.0
C1055 C 0.82329 0.36422 0.50453 0.0
H1056 H 0.10354 0.02636 0.1536 0.0
H1057 H 0.29549 0.0568 0.11 0.0
H1058 H 0.378 0.02862 0.10785 0.0
H1059 H 0.39619 0.99529 0.11808 0.0
H1060 H 0.20363 0.96479 0.16103 0.0
H1061 H 0.12049 0.99296 0.1629 0.0
C1062 C 0.16333 0.0269 0.14353 0.0
C1063 C 0.19332 0.04392 0.13257 0.0
C1064 C 0.21029 1.01054 0.14189 0.0
C1065 C 0.27109 0.04419 0.11952 0.0
C1066 C 0.31831 0.02796 0.11795 0.0
C1067 C 0.33601 0.99478 0.12787 0.0
C1068 C 0.30618 0.97783 0.13907 0.0
C1069 C 0.28862 0.01109 0.12915 0.0
C1070 C 0.22784 0.97745 0.15158 0.0
C1071 C 0.18037 0.99364 0.15294 0.0
H1072 H 0.71971 0.04411 0.39508 0.0
H1073 H 0.94378 0.02342 0.43259 0.0
H1074 H 0.88369 0.99258 0.43816 0.0
H1075 H 0.76721 0.97123 0.43255 0.0
H1076 H 0.54283 0.99208 0.39563 0.0
H1077 H 0.60315 0.02291 0.38985 0.0
C1078 C 0.75504 0.03298 0.40493 0.0
C1079 C 0.83609 0.03623 0.41357 0.0
C1080 C 0.72026 0.01513 0.40796 0.0
C1081 C 0.88127 0.02138 0.42564 0.0
C1082 C 0.84703 1.00367 0.42884 0.0
C1083 C 0.73196 0.98244 0.42286 0.0
C1084 C 0.65079 0.97926 0.41435 0.0
C1085 C 0.76672 1.00031 0.4199 0.0
C1086 C 0.60547 0.99412 0.40242 0.0
C1087 C 0.63984 0.0118 0.39912 0.0
H1088 H 0.88746 0.99424 0.9351 0.0
H1089 H 0.68361 0.96291 0.90029 0.0
H1090 H 0.60187 0.99118 0.89949 0.0
H1091 H 0.58843 0.02501 0.90718 0.0
H1092 H 0.793 0.05637 0.94094 0.0
H1093 H 0.87422 0.02789 0.94279 0.0
C1094 C 0.82515 0.99344 0.92728 0.0
C1095 C 0.79248 0.97612 0.9181 0.0
C1096 C 0.7785 1.00989 0.92624 0.0
C1097 C 0.71114 0.97568 0.90816 0.0
C1098 C 0.66408 0.99199 0.90739 0.0
C1099 C 0.65078 0.02567 0.91501 0.0
C1100 C 0.68448 0.04299 0.92349 0.0
C1101 C 0.69726 1.00917 0.91622 0.0
C1102 C 0.76555 0.04345 0.93354 0.0
C1103 C 0.812 0.02708 0.9349 0.0
H1104 H 0.11433 0.99702 0.61242 0.0
H1105 H 0.32104 0.96577 0.64473 0.0
H1106 H 0.40487 0.99371 0.64258 0.0
H1107 H 0.41877 0.02723 0.63331 0.0
H1108 H 0.21181 0.05855 0.60146 0.0
H1109 H 0.12879 0.03041 0.60238 0.0
C1110 C 0.17776 0.99625 0.61901 0.0
C1111 C 0.211 0.97913 0.62841 0.0
C1112 C 0.22555 0.01247 0.61821 0.0
C1113 C 0.2936 0.97851 0.63672 0.0
C1114 C 0.34167 0.99459 0.6358 0.0
C1115 C 0.35557 0.02794 0.62643 0.0
C1116 C 0.32163 0.04515 0.61782 0.0
C1117 C 0.30813 0.01165 0.62677 0.0
C1118 C 0.23947 0.04571 0.609 0.0
C1119 C 0.19194 0.02954 0.60923 0.0
H1120 H 0.89153 0.49758 0.1216 0.0
H1121 H 0.67869 0.46215 0.117 0.0
H1122 H 0.59139 0.4896 0.11768 0.0
H1123 H 0.57473 0.52368 0.11787 0.0
H1124 H 0.78859 0.55889 0.11908 0.0
H1125 H 0.8751 0.53146 0.12149 0.0
C1126 C 0.82604 0.49571 0.12073 0.0
C1127 C 0.7927 0.47754 0.11953 0.0
C1128 C 0.77577 0.5116 0.12052 0.0
C1129 C 0.70727 0.4757 0.11855 0.0
C1130 C 0.65683 0.4915 0.11867 0.0
C1131 C 0.64027 0.52546 0.11869 0.0
C1132 C 0.67407 0.5436 0.11872 0.0
C1133 C 0.69044 0.50952 0.11945 0.0
C1134 C 0.75951 0.54538 0.1198 0.0
C1135 C 0.8096 0.52958 0.12088 0.0
H1136 H 0.09327 0.49349 0.39344 0.0
H1137 H 0.28673 0.46175 0.43402 0.0
H1138 H 0.37101 0.48968 0.43644 0.0
H1139 H 0.3897 0.52312 0.42751 0.0
H1140 H 0.19636 0.55469 0.38641 0.0
H1141 H 0.11187 0.52689 0.38457 0.0
C1142 C 0.15383 0.49263 0.4029 0.0
C1143 C 0.18361 0.47538 0.41311 0.0
C1144 C 0.20187 0.50879 0.40452 0.0
C1145 C 0.26245 0.47463 0.42525 0.0
C1146 C 0.31062 0.49068 0.42693 0.0
C1147 C 0.32909 0.52399 0.41811 0.0
C1148 C 0.29958 0.5412 0.40758 0.0
C1149 C 0.28095 0.50782 0.41661 0.0
C1150 C 0.22063 0.54192 0.3955 0.0
C1151 C 0.17225 0.5259 0.3941 0.0
H1152 H 0.40603 0.49662 0.88904 0.0
H1153 H 0.20858 0.46499 0.9271 0.0
H1154 H 0.1231 0.49265 0.92716 0.0
H1155 H 0.10333 0.52586 0.9165 0.0
H1156 H 0.30143 0.55777 0.87989 0.0
H1157 H 0.38786 0.53004 0.87995 0.0
C1158 C 0.34439 0.4957 0.89746 0.0
C1159 C 0.31392 0.47845 0.90735 0.0
C1160 C 0.29558 0.51181 0.89802 0.0
C1161 C 0.23374 0.47774 0.91833 0.0
C1162 C 0.18465 0.49368 0.91872 0.0
C1163 C 0.16544 0.52676 0.90852 0.0
C1164 C 0.1958 0.54393 0.89842 0.0
C1165 C 0.2148 0.51075 0.90849 0.0
C1166 C 0.27667 0.54486 0.88833 0.0
C1167 C 0.32604 0.52895 0.88811 0.0
H1168 H 0.89057 0.52935 0.61871 0.0
H1169 H 0.67222 0.56286 0.62844 0.0
H1170 H 0.5903 0.53479 0.62801 0.0
H1171 H 0.57906 0.50071 0.62493 0.0
H1172 H 0.79696 0.46744 0.61332 0.0
H1173 H 0.87941 0.49553 0.6149 0.0
C1174 C 0.82505 0.53075 0.62076 0.0
C1175 C 0.78907 0.54862 0.6237 0.0
C1176 C 0.77747 0.51446 0.62039 0.0
C1177 C 0.70352 0.54967 0.62625 0.0
C1178 C 0.65585 0.53347 0.62599 0.0
C1179 C 0.64461 0.49949 0.62269 0.0
C1180 C 0.68097 0.4817 0.6195 0.0
C1181 C 0.69217 0.51581 0.62308 0.0
C1182 C 0.76631 0.48065 0.61662 0.0
C1183 C 0.81392 0.49683 0.61721 0.0
H1184 H 0.1376 0.23712 0.10923 0.0
H1185 H 0.9106 0.21848 0.14711 0.0
H1186 H 0.86501 0.25071 0.1515 0.0
H1187 H 0.89208 0.28398 0.14744 0.0
H1188 H 0.1197 0.30285 0.1099 0.0
H1189 H 0.16246 0.27067 0.10332 0.0
C1190 C 0.07786 0.24004 0.11834 0.0
C1191 C 0.02768 0.22521 0.1276 0.0
C1192 C 0.05243 0.25868 0.12139 0.0
C1193 C 0.95029 0.22939 0.13918 0.0
C1194 C 0.92439 0.24791 0.14204 0.0
C1195 C 0.95115 0.28126 0.13766 0.0
C1196 C 0.00252 0.29624 0.12972 0.0
C1197 C 0.97544 0.26264 0.1336 0.0
C1198 C 0.07863 0.29201 0.11698 0.0
C1199 C 0.10326 0.27345 0.11293 0.0
H1200 H 0.36527 0.78553 0.1092 0.0
H1201 H 0.59082 0.80369 0.14906 0.0
H1202 H 0.63472 0.77132 0.15347 0.0
H1203 H 0.60581 0.73802 0.14901 0.0
H1204 H 0.37864 0.71991 0.10971 0.0
H1205 H 0.339 0.75212 0.10275 0.0
C1206 C 0.42434 0.78247 0.11875 0.0
C1207 C 0.47454 0.79719 0.12864 0.0
C1208 C 0.44867 0.76378 0.12179 0.0
C1209 C 0.55114 0.79284 0.14071 0.0
C1210 C 0.57603 0.77425 0.14357 0.0
C1211 C 0.5475 0.74092 0.13879 0.0
C1212 C 0.4954 0.72609 0.13048 0.0
C1213 C 0.52469 0.75962 0.13461 0.0
C1214 C 0.42044 0.73057 0.11706 0.0
C1215 C 0.39745 0.74917 0.11282 0.0
H1216 H 0.3431 0.73499 0.40492 0.0
H1217 H 0.57983 0.71788 0.43714 0.0
H1218 H 0.62262 0.75027 0.43892 0.0
H1219 H 0.59582 0.78333 0.4294 0.0
H1220 H 0.35984 0.80052 0.39726 0.0
H1221 H 0.31336 0.76816 0.3985 0.0
C1222 C 0.4041 0.73818 0.41255 0.0
C1223 C 0.45831 0.72362 0.42017 0.0
C1224 C 0.4284 0.75695 0.41388 0.0
C1225 C 0.53681 0.7284 0.43019 0.0
C1226 C 0.5614 0.74706 0.43152 0.0
C1227 C 0.5339 0.78005 0.42283 0.0
C1228 C 0.48154 0.79442 0.41322 0.0
C1229 C 0.5081 0.7614 0.42304 0.0
C1230 C 0.40129 0.78989 0.40514 0.0
C1231 C 0.37493 0.77132 0.40553 0.0
H1232 H 0.13081 0.27984 0.43327 0.0
H1233 H 0.89301 0.29787 0.40373 0.0
H1234 H 0.84748 0.26564 0.40226 0.0
H1235 H 0.87579 0.23248 0.40703 0.0
H1236 H 0.11312 0.2139 0.43632 0.0
H1237 H 0.15818 0.24626 0.43932 0.0
C1238 C 0.06879 0.2768 0.4266 0.0
C1239 C 0.0155 0.29153 0.41896 0.0
C1240 C 0.04308 0.25808 0.42524 0.0
C1241 C 0.93534 0.28713 0.41046 0.0
C1242 C 0.90932 0.26857 0.40925 0.0
C1243 C 0.93751 0.23531 0.41427 0.0
C1244 C 0.99081 0.22042 0.42109 0.0
C1245 C 0.96287 0.25396 0.41631 0.0
C1246 C 0.07055 0.22475 0.43028 0.0
C1247 C 0.09637 0.24337 0.43227 0.0
H1248 H 0.88577 0.78179 0.89276 0.0
H1249 H 0.10677 0.80155 0.93439 0.0
H1250 H 0.14894 0.76944 0.94276 0.0
H1251 H 0.12406 0.73573 0.93801 0.0
H1252 H 0.90293 0.71637 0.89622 0.0
H1253 H 0.85917 0.74848 0.8893 0.0
C1254 C 0.94325 0.77928 0.90381 0.0
C1255 C 0.993 0.79442 0.9125 0.0
C1256 C 0.9668 0.76076 0.909 0.0
C1257 C 0.06725 0.79049 0.92675 0.0
C1258 C 0.09133 0.77201 0.93184 0.0
C1259 C 0.066 0.73847 0.92748 0.0
C1260 C 0.01681 0.72344 0.91797 0.0
C1261 C 0.04166 0.75706 0.92298 0.0
C1262 C 0.94167 0.72741 0.90447 0.0
C1263 C 0.91688 0.74587 0.90013 0.0
H1264 H 0.62967 0.23913 0.89087 0.0
H1265 H 0.40854 0.2198 0.93247 0.0
H1266 H 0.36274 0.25186 0.93812 0.0
H1267 H 0.38368 0.2854 0.93078 0.0
H1268 H 0.60489 0.30469 0.88953 0.0
H1269 H 0.65298 0.2726 0.88527 0.0
C1270 C 0.57143 0.24177 0.90132 0.0
C1271 C 0.52247 0.22671 0.91063 0.0
C1272 C 0.54564 0.26034 0.90498 0.0
C1273 C 0.44731 0.23075 0.9242 0.0
C1274 C 0.42112 0.24922 0.92778 0.0
C1275 C 0.44267 0.28265 0.92093 0.0
C1276 C 0.49056 0.29761 0.9107 0.0
C1277 C 0.46955 0.2641 0.91809 0.0
C1278 C 0.56704 0.29366 0.89818 0.0
C1279 C 0.59432 0.27523 0.89541 0.0
H1280 H 0.3659 0.23958 0.64394 0.0
H1281 H 0.60568 0.22108 0.61663 0.0
H1282 H 0.64978 0.25324 0.6135 0.0
H1283 H 0.62285 0.2867 0.61998 0.0
H1284 H 0.38397 0.30505 0.64775 0.0
H1285 H 0.33728 0.27283 0.64834 0.0
C1286 C 0.42797 0.24238 0.63716 0.0
C1287 C 0.48204 0.22747 0.63108 0.0
C1288 C 0.45334 0.26102 0.63517 0.0
C1289 C 0.56201 0.23182 0.62214 0.0
C1290 C 0.58763 0.25039 0.62012 0.0
C1291 C 0.56034 0.2837 0.62604 0.0
C1292 C 0.50714 0.29844 0.63361 0.0
C1293 C 0.53408 0.26507 0.62688 0.0
C1294 C 0.42622 0.2942 0.64122 0.0
C1295 C 0.39957 0.27568 0.64189 0.0
H1296 H 0.07992 0.73015 0.64908 0.0
H1297 H 0.87123 0.73604 0.59242 0.0
H1298 H 0.89655 0.76954 0.58809 0.0
H1299 H 0.97445 0.79757 0.60245 0.0
H1300 H 0.1802 0.79151 0.66081 0.0
H1301 H 0.1594 0.75795 0.66248 0.0
C1302 C 0.04136 0.73872 0.63524 0.0
C1303 C 0.97455 0.73064 0.6208 0.0
C1304 C 0.05475 0.7581 0.63358 0.0
C1305 C 0.92356 0.74198 0.60356 0.0
C1306 C 0.93759 0.76116 0.60125 0.0
C1307 C 0.01409 0.78895 0.61579 0.0
C1308 C 0.0784 0.79719 0.63162 0.0
C1309 C 0.00204 0.76947 0.61667 0.0
C1310 C 0.1302 0.78563 0.64829 0.0
C1311 C 0.11856 0.76636 0.64928 0.0
H1312 H 0.08267 0.13213 0.3233 0.0
H1313 H 0.8214 0.12876 0.31357 0.0
H1314 H 0.83566 0.13024 0.26018 0.0
H1315 H 0.9223 0.1325 0.21633 0.0
H1316 H 0.18378 0.13478 0.22623 0.0
H1317 H 0.16921 0.13373 0.27957 0.0
C1318 C 0.02869 0.13178 0.30955 0.0
C1319 C 0.951 0.13043 0.32249 0.0
C1320 C 0.03736 0.13244 0.2789 0.0
C1321 C 0.88192 0.12977 0.30424 0.0
C1322 C 0.89002 0.13065 0.2737 0.0
C1323 C 0.97617 0.13285 0.23014 0.0
C1324 C 0.05405 0.13382 0.21724 0.0
C1325 C 0.96743 0.13201 0.2608 0.0
C1326 C 0.12314 0.13402 0.23551 0.0
C1327 C 0.11487 0.13345 0.26603 0.0
H1328 H 0.57855 0.89264 0.21797 0.0
H1329 H 0.31801 0.88606 0.2259 0.0
H1330 H 0.32951 0.88696 0.2793 0.0
H1331 H 0.41304 0.88886 0.32368 0.0
H1332 H 0.67317 0.89626 0.31655 0.0
H1333 H 0.66209 0.896 0.26287 0.0
C1334 C 0.52429 0.89136 0.23138 0.0
C1335 C 0.44753 0.88913 0.21785 0.0
C1336 C 0.53118 0.89211 0.2622 0.0
C1337 C 0.37781 0.88777 0.23562 0.0
C1338 C 0.38431 0.88827 0.26621 0.0
C1339 C 0.46751 0.89045 0.31045 0.0
C1340 C 0.544 0.89242 0.32419 0.0
C1341 C 0.46064 0.89033 0.27971 0.0
C1342 C 0.61357 0.89474 0.3066 0.0
C1343 C 0.60728 0.8945 0.27589 0.0
H1344 H 0.91984 0.89044 0.71489 0.0
H1345 H 0.18183 0.88981 0.7234 0.0
H1346 H 0.16946 0.89061 0.7768 0.0
H1347 H 0.08482 0.89069 0.82107 0.0
H1348 H 0.82288 0.89236 0.81311 0.0
H1349 H 0.83479 0.89215 0.75952 0.0
C1350 C 0.97423 0.89045 0.72843 0.0
C1351 C 0.05169 0.88991 0.71509 0.0
C1352 C 0.96674 0.89116 0.75923 0.0
C1353 C 0.12149 0.89021 0.73301 0.0
C1354 C 0.1145 0.89065 0.76358 0.0
C1355 C 0.0302 0.89106 0.80766 0.0
C1356 C 0.95301 0.8914 0.82116 0.0
C1357 C 0.0375 0.89102 0.77692 0.0
C1358 C 0.88305 0.89212 0.80336 0.0
C1359 C 0.88982 0.89191 0.77269 0.0
H1360 H 0.41678 0.12851 0.82128 0.0
H1361 H 0.67921 0.12635 0.81643 0.0
H1362 H 0.67217 0.12607 0.76278 0.0
H1363 H 0.59157 0.12812 0.71729 0.0
H1364 H 0.329 0.12912 0.72231 0.0
H1365 H 0.33608 0.12809 0.77586 0.0
C1366 C 0.47246 0.12788 0.80848 0.0
C1367 C 0.54843 0.12763 0.82283 0.0
C1368 C 0.46795 0.12759 0.77769 0.0
C1369 C 0.61995 0.12654 0.80594 0.0
C1370 C 0.61599 0.12647 0.77526 0.0
C1371 C 0.5359 0.12804 0.73011 0.0
C1372 C 0.45989 0.12888 0.71583 0.0
C1373 C 0.54036 0.12726 0.76091 0.0
C1374 C 0.38829 0.12848 0.73273 0.0
C1375 C 0.39226 0.12796 0.76337 0.0
H1376 H 0.6047 0.62755 0.22926 0.0
H1377 H 0.35132 0.62149 0.20607 0.0
H1378 H 0.31382 0.62082 0.25792 0.0
H1379 H 0.35178 0.62401 0.31009 0.0
H1380 H 0.60491 0.63166 0.33298 0.0
H1381 H 0.64312 0.62968 0.28144 0.0
C1382 C 0.54152 0.62576 0.2356 0.0
C1383 C 0.48105 0.62455 0.21381 0.0
C1384 C 0.51993 0.62592 0.26556 0.0
C1385 C 0.39916 0.62251 0.22241 0.0
C1386 C 0.37754 0.62217 0.25209 0.0
C1387 C 0.4153 0.62513 0.30382 0.0
C1388 C 0.47499 0.62813 0.32553 0.0
C1389 C 0.43718 0.62423 0.2739 0.0
C1390 C 0.55718 0.62956 0.31686 0.0
C1391 C 0.5794 0.62836 0.2873 0.0
H1392 H 0.87125 0.38758 0.23082 0.0
H1393 H 0.11213 0.40695 0.20912 0.0
H1394 H 0.15082 0.40653 0.26093 0.0
H1395 H 0.1196 0.39831 0.31194 0.0
H1396 H 0.88057 0.3772 0.33326 0.0
H1397 H 0.8383 0.3805 0.28233 0.0
C1398 C 0.93144 0.39212 0.23763 0.0
C1399 C 0.9886 0.39741 0.21639 0.0
C1400 C 0.95428 0.39116 0.26736 0.0
C1401 C 0.0671 0.40288 0.22525 0.0
C1402 C 0.08942 0.40253 0.25481 0.0
C1403 C 0.05825 0.39446 0.30548 0.0
C1404 C 0.00393 0.38734 0.32646 0.0
C1405 C 0.03418 0.39625 0.276 0.0
C1406 C 0.92435 0.38252 0.31761 0.0
C1407 C 0.89972 0.38449 0.28844 0.0
H1408 H 0.40621 0.39107 0.71906 0.0
H1409 H 0.66478 0.40159 0.72424 0.0
H1410 H 0.65815 0.4005 0.77787 0.0
H1411 H 0.57949 0.3954 0.8232 0.0
H1412 H 0.32046 0.38556 0.81746 0.0
H1413 H 0.32702 0.38743 0.76404 0.0
C1414 C 0.46119 0.39322 0.73187 0.0
C1415 C 0.53597 0.39629 0.71762 0.0
C1416 C 0.457 0.39254 0.76259 0.0
C1417 C 0.60636 0.39924 0.73463 0.0
C1418 C 0.60271 0.39851 0.76529 0.0
C1419 C 0.52456 0.3936 0.81023 0.0
C1420 C 0.44973 0.39018 0.82428 0.0
C1421 C 0.52851 0.39493 0.77949 0.0
C1422 C 0.37885 0.38818 0.80721 0.0
C1423 C 0.38251 0.38925 0.77666 0.0
H1424 H 0.0799 0.64007 0.72129 0.0
H1425 H 0.82132 0.62981 0.72721 0.0
H1426 H 0.83096 0.62912 0.78078 0.0
H1427 H 0.91267 0.63175 0.82609 0.0
H1428 H 0.1719 0.64097 0.81973 0.0
H1429 H 0.16185 0.6418 0.76627 0.0
C1430 C 0.02549 0.63768 0.73424 0.0
C1431 C 0.94988 0.63509 0.72011 0.0
C1432 C 0.03152 0.63717 0.76504 0.0
C1433 C 0.88036 0.63182 0.73739 0.0
C1434 C 0.88576 0.63148 0.76807 0.0
C1435 C 0.96693 0.63403 0.81302 0.0
C1436 C 0.04288 0.63642 0.82701 0.0
C1437 C 0.96096 0.63423 0.78216 0.0
C1438 C 0.11267 0.63909 0.80964 0.0
C1439 C 0.107 0.63958 0.77902 0.0
loop_
_geom_bond_atom_site_label_1
_geom_bond_atom_site_label_2
_geom_bond_distance
_geom_bond_site_symmetry_2
_ccdc_geom_bond_type
Zn0 N4 2.020 1_655 S
Zn0 O8 2.019 . S
Zn0 N10 2.119 1_655 S
Zn0 O18 1.975 1_655 S
C1 N2 1.334 . S
C1 N5 1.336 . S
N2 C1 1.334 . S
N2 C3 1.334 . S
C3 N2 1.334 . S
C3 N4 1.336 . S
N4 Zn0 2.020 1_455 S
N4 C3 1.336 . S
N4 N5 1.354 . S
N5 C1 1.336 . S
N5 N4 1.354 . S
N5 Zn9 2.020 . S
C6 O7 1.244 . S
C6 O30 1.257 . S
O7 C6 1.244 . S
O8 Zn0 2.019 . S
O8 C28 1.257 . S
Zn9 N5 2.020 . S
Zn9 O16 1.975 . S
Zn9 N25 2.119 . S
Zn9 O30 2.019 . S
N10 Zn0 2.119 1_455 S
N10 C12 1.334 . S
N10 C13 1.328 1_455 S
C11 C12 1.391 . S
C11 N14 1.329 . S
C11 H32 0.930 . S
C12 N10 1.334 . S
C12 C11 1.391 . S
C12 H19 0.930 . S
C13 N10 1.328 1_655 S
C13 C15 1.392 . S
C13 H20 0.930 . S
N14 C11 1.329 . S
N14 C15 1.331 1_455 S
C15 C13 1.392 . S
C15 N14 1.331 1_655 S
O16 Zn9 1.975 . S
O16 C17 1.252 . S
C17 O16 1.252 . S
C17 O18 1.252 . S
O18 Zn0 1.975 1_455 S
O18 C17 1.252 . S
H19 C12 0.930 . S
H20 C13 0.930 . S
C21 C22 1.392 . S
C21 N25 1.328 . S
C21 H27 0.930 . S
C22 C21 1.392 . S
C22 N26 1.331 . S
C23 C24 1.391 . S
C23 N26 1.329 . S
C23 H33 0.930 . S
C24 C23 1.391 . S
C24 N25 1.334 . S
C24 H31 0.930 . S
N25 Zn9 2.119 . S
N25 C21 1.328 . S
N25 C24 1.334 . S
N26 C22 1.331 . S
N26 C23 1.329 . S
H27 C21 0.930 . S
C28 O8 1.257 . S
C28 O29 1.244 . S
O29 C28 1.244 . S
O30 C6 1.257 . S
O30 Zn9 2.019 . S
H31 C24 0.930 . S
H32 C11 0.930 . S
H33 C23 0.930 . S
Zn34 N38 2.020 . S
Zn34 O42 2.019 . S
Zn34 N44 2.119 . S
Zn34 O52 1.975 . S
C35 N36 1.334 . S
C35 N39 1.336 . S
N36 C35 1.334 . S
N36 C37 1.334 . S
C37 N36 1.334 . S
C37 N38 1.336 . S
N38 Zn34 2.020 . S
N38 C37 1.336 . S
N38 N39 1.354 . S
N39 C35 1.336 . S
N39 N38 1.354 . S
N39 Zn43 2.020 . S
C40 O41 1.244 . S
C40 O64 1.257 . S
O41 C40 1.244 . S
O42 Zn34 2.019 . S
O42 C62 1.257 . S
Zn43 N39 2.020 . S
Zn43 O50 1.975 . S
Zn43 N59 2.119 . S
Zn43 O64 2.019 . S
N44 Zn34 2.119 . S
N44 C46 1.334 . S
N44 C47 1.328 . S
C45 C46 1.391 . S
C45 N48 1.329 . S
C45 H66 0.930 . S
C46 N44 1.334 . S
C46 C45 1.391 . S
C46 H53 0.930 . S
C47 N44 1.328 . S
C47 C49 1.392 . S
C47 H54 0.930 . S
N48 C45 1.329 . S
N48 C49 1.331 . S
C49 C47 1.392 . S
C49 N48 1.331 . S
O50 Zn43 1.975 . S
O50 C51 1.252 . S
C51 O50 1.252 . S
C51 O52 1.252 . S
O52 Zn34 1.975 . S
O52 C51 1.252 . S
H53 C46 0.930 . S
H54 C47 0.930 . S
C55 C56 1.392 . S
C55 N59 1.328 . S
C55 H61 0.930 . S
C56 C55 1.392 . S
C56 N60 1.331 . S
C57 C58 1.391 . S
C57 N60 1.329 . S
C57 H67 0.930 . S
C58 C57 1.391 . S
C58 N59 1.334 . S
C58 H65 0.930 . S
N59 Zn43 2.119 . S
N59 C55 1.328 . S
N59 C58 1.334 . S
N60 C56 1.331 . S
N60 C57 1.329 . S
H61 C55 0.930 . S
C62 O42 1.257 . S
C62 O63 1.244 . S
O63 C62 1.244 . S
O64 C40 1.257 . S
O64 Zn43 2.019 . S
H65 C58 0.930 . S
H66 C45 0.930 . S
H67 C57 0.930 . S
Zn68 N72 2.020 . S
Zn68 O76 2.019 . S
Zn68 N78 2.119 . S
Zn68 O86 1.975 . S
C69 N70 1.334 . S
C69 N73 1.336 . S
N70 C69 1.334 . S
N70 C71 1.334 . S
C71 N70 1.334 . S
C71 N72 1.336 . S
N72 Zn68 2.020 . S
N72 C71 1.336 . S
N72 N73 1.354 . S
N73 C69 1.336 . S
N73 N72 1.354 . S
N73 Zn77 2.020 . S
C74 O75 1.244 . S
C74 O98 1.257 . S
O75 C74 1.244 . S
O76 Zn68 2.019 . S
O76 C96 1.257 . S
Zn77 N73 2.020 . S
Zn77 O84 1.975 . S
Zn77 N93 2.119 . S
Zn77 O98 2.019 . S
N78 Zn68 2.119 . S
N78 C80 1.334 . S
N78 C81 1.328 . S
C79 C80 1.391 . S
C79 N82 1.329 . S
C79 H100 0.930 . S
C80 N78 1.334 . S
C80 C79 1.391 . S
C80 H87 0.930 . S
C81 N78 1.328 . S
C81 C83 1.392 . S
C81 H88 0.930 . S
N82 C79 1.329 . S
N82 C83 1.331 . S
C83 C81 1.392 . S
C83 N82 1.331 . S
O84 Zn77 1.975 . S
O84 C85 1.252 . S
C85 O84 1.252 . S
C85 O86 1.252 . S
O86 Zn68 1.975 . S
O86 C85 1.252 . S
H87 C80 0.930 . S
H88 C81 0.930 . S
C89 C90 1.392 . S
C89 N93 1.328 . S
C89 H95 0.930 . S
C90 C89 1.392 . S
C90 N94 1.331 . S
C91 C92 1.391 . S
C91 N94 1.329 . S
C91 H101 0.930 . S
C92 C91 1.391 . S
C92 N93 1.334 . S
C92 H99 0.930 . S
N93 Zn77 2.119 . S
N93 C89 1.328 . S
N93 C92 1.334 . S
N94 C90 1.331 . S
N94 C91 1.329 . S
H95 C89 0.930 . S
C96 O76 1.257 . S
C96 O97 1.244 . S
O97 C96 1.244 . S
O98 C74 1.257 . S
O98 Zn77 2.019 . S
H99 C92 0.930 . S
H100 C79 0.930 . S
H101 C91 0.930 . S
Zn102 N106 2.020 1_455 S
Zn102 O110 2.019 . S
Zn102 N112 2.119 1_455 S
Zn102 O120 1.975 1_455 S
C103 N104 1.334 . S
C103 N107 1.336 . S
N104 C103 1.334 . S
N104 C105 1.334 . S
C105 N104 1.334 . S
C105 N106 1.336 . S
N106 Zn102 2.020 1_655 S
N106 C105 1.336 . S
N106 N107 1.354 . S
N107 C103 1.336 . S
N107 N106 1.354 . S
N107 Zn111 2.020 . S
C108 O109 1.244 . S
C108 O132 1.257 . S
O109 C108 1.244 . S
O110 Zn102 2.019 . S
O110 C130 1.257 . S
Zn111 N107 2.020 . S
Zn111 O118 1.975 . S
Zn111 N127 2.119 . S
Zn111 O132 2.019 . S
N112 Zn102 2.119 1_655 S
N112 C114 1.334 . S
N112 C115 1.328 1_655 S
C113 C114 1.391 . S
C113 N116 1.329 . S
C113 H134 0.930 . S
C114 N112 1.334 . S
C114 C113 1.391 . S
C114 H121 0.930 . S
C115 N112 1.328 1_455 S
C115 C117 1.392 . S
C115 H122 0.930 . S
N116 C113 1.329 . S
N116 C117 1.331 1_655 S
C117 C115 1.392 . S
C117 N116 1.331 1_455 S
O118 Zn111 1.975 . S
O118 C119 1.252 . S
C119 O118 1.252 . S
C119 O120 1.252 . S
O120 Zn102 1.975 1_655 S
O120 C119 1.252 . S
H121 C114 0.930 . S
H122 C115 0.930 . S
C123 C124 1.392 . S
C123 N127 1.328 . S
C123 H129 0.930 . S
C124 C123 1.392 . S
C124 N128 1.331 . S
C125 C126 1.391 . S
C125 N128 1.329 . S
C125 H135 0.930 . S
C126 C125 1.391 . S
C126 N127 1.334 . S
C126 H133 0.930 . S
N127 Zn111 2.119 . S
N127 C123 1.328 . S
N127 C126 1.334 . S
N128 C124 1.331 . S
N128 C125 1.329 . S
H129 C123 0.930 . S
C130 O110 1.257 . S
C130 O131 1.244 . S
O131 C130 1.244 . S
O132 C108 1.257 . S
O132 Zn111 2.019 . S
H133 C126 0.930 . S
H134 C113 0.930 . S
H135 C125 0.930 . S
Zn136 N140 2.020 . S
Zn136 O144 2.019 . S
Zn136 N146 2.119 . S
Zn136 O154 1.975 . S
C137 N138 1.334 . S
C137 N141 1.336 . S
N138 C137 1.334 . S
N138 C139 1.334 . S
C139 N138 1.334 . S
C139 N140 1.336 . S
N140 Zn136 2.020 . S
N140 C139 1.336 . S
N140 N141 1.354 . S
N141 C137 1.336 . S
N141 N140 1.354 . S
N141 Zn145 2.020 1_655 S
C142 O143 1.244 . S
C142 O166 1.257 . S
O143 C142 1.244 . S
O144 Zn136 2.019 . S
O144 C164 1.257 . S
Zn145 N141 2.020 1_455 S
Zn145 O152 1.975 1_455 S
Zn145 N161 2.119 1_455 S
Zn145 O166 2.019 . S
N146 Zn136 2.119 . S
N146 C148 1.334 . S
N146 C149 1.328 . S
C147 C148 1.391 . S
C147 N150 1.329 . S
C147 H168 0.930 . S
C148 N146 1.334 . S
C148 C147 1.391 . S
C148 H155 0.930 . S
C149 N146 1.328 . S
C149 C151 1.392 . S
C149 H156 0.930 . S
N150 C147 1.329 . S
N150 C151 1.331 . S
C151 C149 1.392 . S
C151 N150 1.331 . S
O152 Zn145 1.975 1_655 S
O152 C153 1.252 . S
C153 O152 1.252 . S
C153 O154 1.252 . S
O154 Zn136 1.975 . S
O154 C153 1.252 . S
H155 C148 0.930 . S
H156 C149 0.930 . S
C157 C158 1.392 . S
C157 N161 1.328 1_455 S
C157 H163 0.930 . S
C158 C157 1.392 . S
C158 N162 1.331 1_455 S
C159 C160 1.391 . S
C159 N162 1.329 . S
C159 H169 0.930 . S
C160 C159 1.391 . S
C160 N161 1.334 . S
C160 H167 0.930 . S
N161 Zn145 2.119 1_655 S
N161 C157 1.328 1_655 S
N161 C160 1.334 . S
N162 C158 1.331 1_655 S
N162 C159 1.329 . S
H163 C157 0.930 . S
C164 O144 1.257 . S
C164 O165 1.244 . S
O165 C164 1.244 . S
O166 C142 1.257 . S
O166 Zn145 2.019 . S
H167 C160 0.930 . S
H168 C147 0.930 . S
H169 C159 0.930 . S
Zn170 N174 2.020 . S
Zn170 O178 2.019 . S
Zn170 N180 2.119 . S
Zn170 O188 1.975 . S
C171 N172 1.334 . S
C171 N175 1.336 . S
N172 C171 1.334 . S
N172 C173 1.334 . S
C173 N172 1.334 . S
C173 N174 1.336 . S
N174 Zn170 2.020 . S
N174 C173 1.336 . S
N174 N175 1.354 . S
N175 C171 1.336 . S
N175 N174 1.354 . S
N175 Zn179 2.020 . S
C176 O177 1.244 . S
C176 O200 1.257 . S
O177 C176 1.244 . S
O178 Zn170 2.019 . S
O178 C198 1.257 . S
Zn179 N175 2.020 . S
Zn179 O186 1.975 . S
Zn179 N195 2.119 . S
Zn179 O200 2.019 . S
N180 Zn170 2.119 . S
N180 C182 1.334 . S
N180 C183 1.328 . S
C181 C182 1.391 . S
C181 N184 1.329 . S
C181 H202 0.930 . S
C182 N180 1.334 . S
C182 C181 1.391 . S
C182 H189 0.930 . S
C183 N180 1.328 . S
C183 C185 1.392 . S
C183 H190 0.930 . S
N184 C181 1.329 . S
N184 C185 1.331 . S
C185 C183 1.392 . S
C185 N184 1.331 . S
O186 Zn179 1.975 . S
O186 C187 1.252 . S
C187 O186 1.252 . S
C187 O188 1.252 . S
O188 Zn170 1.975 . S
O188 C187 1.252 . S
H189 C182 0.930 . S
H190 C183 0.930 . S
C191 C192 1.392 . S
C191 N195 1.328 . S
C191 H197 0.930 . S
C192 C191 1.392 . S
C192 N196 1.331 . S
C193 C194 1.391 . S
C193 N196 1.329 . S
C193 H203 0.930 . S
C194 C193 1.391 . S
C194 N195 1.334 . S
C194 H201 0.930 . S
N195 Zn179 2.119 . S
N195 C191 1.328 . S
N195 C194 1.334 . S
N196 C192 1.331 . S
N196 C193 1.329 . S
H197 C191 0.930 . S
C198 O178 1.257 . S
C198 O199 1.244 . S
O199 C198 1.244 . S
O200 C176 1.257 . S
O200 Zn179 2.019 . S
H201 C194 0.930 . S
H202 C181 0.930 . S
H203 C193 0.930 . S
Zn204 N208 2.020 . S
Zn204 O212 2.019 . S
Zn204 N214 2.119 . S
Zn204 O222 1.975 . S
C205 N206 1.334 . S
C205 N209 1.336 . S
N206 C205 1.334 . S
N206 C207 1.334 . S
C207 N206 1.334 . S
C207 N208 1.336 . S
N208 Zn204 2.020 . S
N208 C207 1.336 . S
N208 N209 1.354 . S
N209 C205 1.336 . S
N209 N208 1.354 . S
N209 Zn213 2.020 . S
C210 O211 1.244 . S
C210 O234 1.257 . S
O211 C210 1.244 . S
O212 Zn204 2.019 . S
O212 C232 1.257 . S
Zn213 N209 2.020 . S
Zn213 O220 1.975 . S
Zn213 N229 2.119 . S
Zn213 O234 2.019 . S
N214 Zn204 2.119 . S
N214 C216 1.334 . S
N214 C217 1.328 . S
C215 C216 1.391 . S
C215 N218 1.329 . S
C215 H236 0.930 . S
C216 N214 1.334 . S
C216 C215 1.391 . S
C216 H223 0.930 . S
C217 N214 1.328 . S
C217 C219 1.392 . S
C217 H224 0.930 . S
N218 C215 1.329 . S
N218 C219 1.331 . S
C219 C217 1.392 . S
C219 N218 1.331 . S
O220 Zn213 1.975 . S
O220 C221 1.252 . S
C221 O220 1.252 . S
C221 O222 1.252 . S
O222 Zn204 1.975 . S
O222 C221 1.252 . S
H223 C216 0.930 . S
H224 C217 0.930 . S
C225 C226 1.392 . S
C225 N229 1.328 . S
C225 H231 0.930 . S
C226 C225 1.392 . S
C226 N230 1.331 . S
C227 C228 1.391 . S
C227 N230 1.329 . S
C227 H237 0.930 . S
C228 C227 1.391 . S
C228 N229 1.334 . S
C228 H235 0.930 . S
N229 Zn213 2.119 . S
N229 C225 1.328 . S
N229 C228 1.334 . S
N230 C226 1.331 . S
N230 C227 1.329 . S
H231 C225 0.930 . S
C232 O212 1.257 . S
C232 O233 1.244 . S
O233 C232 1.244 . S
O234 C210 1.257 . S
O234 Zn213 2.019 . S
H235 C228 0.930 . S
H236 C215 0.930 . S
H237 C227 0.930 . S
Zn238 N242 2.020 . S
Zn238 O246 2.019 . S
Zn238 N248 2.119 . S
Zn238 O256 1.975 . S
C239 N240 1.334 . S
C239 N243 1.336 . S
N240 C239 1.334 . S
N240 C241 1.334 . S
C241 N240 1.334 . S
C241 N242 1.336 . S
N242 Zn238 2.020 . S
N242 C241 1.336 . S
N242 N243 1.354 . S
N243 C239 1.336 . S
N243 N242 1.354 . S
N243 Zn247 2.020 1_455 S
C244 O245 1.244 . S
C244 O268 1.257 . S
O245 C244 1.244 . S
O246 Zn238 2.019 . S
O246 C266 1.257 . S
Zn247 N243 2.020 1_655 S
Zn247 O254 1.975 1_655 S
Zn247 N263 2.119 1_655 S
Zn247 O268 2.019 . S
N248 Zn238 2.119 . S
N248 C250 1.334 . S
N248 C251 1.328 . S
C249 C250 1.391 . S
C249 N252 1.329 . S
C249 H270 0.930 . S
C250 N248 1.334 . S
C250 C249 1.391 . S
C250 H257 0.930 . S
C251 N248 1.328 . S
C251 C253 1.392 . S
C251 H258 0.930 . S
N252 C249 1.329 . S
N252 C253 1.331 . S
C253 C251 1.392 . S
C253 N252 1.331 . S
O254 Zn247 1.975 1_455 S
O254 C255 1.252 . S
C255 O254 1.252 . S
C255 O256 1.252 . S
O256 Zn238 1.975 . S
O256 C255 1.252 . S
H257 C250 0.930 . S
H258 C251 0.930 . S
C259 C260 1.392 . S
C259 N263 1.328 1_655 S
C259 H265 0.930 . S
C260 C259 1.392 . S
C260 N264 1.331 1_655 S
C261 C262 1.391 . S
C261 N264 1.329 . S
C261 H271 0.930 . S
C262 C261 1.391 . S
C262 N263 1.334 . S
C262 H269 0.930 . S
N263 Zn247 2.119 1_455 S
N263 C259 1.328 1_455 S
N263 C262 1.334 . S
N264 C260 1.331 1_455 S
N264 C261 1.329 . S
H265 C259 0.930 . S
C266 O246 1.257 . S
C266 O267 1.244 . S
O267 C266 1.244 . S
O268 C244 1.257 . S
O268 Zn247 2.019 . S
H269 C262 0.930 . S
H270 C249 0.930 . S
H271 C261 0.930 . S
Zn272 N276 2.020 . S
Zn272 O280 2.019 . S
Zn272 N282 2.119 . S
Zn272 O290 1.975 . S
C273 N274 1.334 . S
C273 N277 1.336 . S
N274 C273 1.334 . S
N274 C275 1.334 . S
C275 N274 1.334 . S
C275 N276 1.336 . S
N276 Zn272 2.020 . S
N276 C275 1.336 . S
N276 N277 1.354 . S
N277 C273 1.336 . S
N277 N276 1.354 . S
N277 Zn281 2.020 . S
C278 O279 1.244 . S
C278 O302 1.257 . S
O279 C278 1.244 . S
O280 Zn272 2.019 . S
O280 C300 1.257 . S
Zn281 N277 2.020 . S
Zn281 O288 1.975 . S
Zn281 N297 2.119 . S
Zn281 O302 2.019 . S
N282 Zn272 2.119 . S
N282 C284 1.334 . S
N282 C285 1.328 . S
C283 C284 1.391 . S
C283 N286 1.329 . S
C283 H304 0.930 . S
C284 N282 1.334 . S
C284 C283 1.391 . S
C284 H291 0.930 . S
C285 N282 1.328 . S
C285 C287 1.392 . S
C285 H292 0.930 . S
N286 C283 1.329 . S
N286 C287 1.331 . S
C287 C285 1.392 . S
C287 N286 1.331 . S
O288 Zn281 1.975 . S
O288 C289 1.252 . S
C289 O288 1.252 . S
C289 O290 1.252 . S
O290 Zn272 1.975 . S
O290 C289 1.252 . S
H291 C284 0.930 . S
H292 C285 0.930 . S
C293 C294 1.392 . S
C293 N297 1.328 . S
C293 H299 0.930 . S
C294 C293 1.392 . S
C294 N298 1.331 . S
C295 C296 1.391 . S
C295 N298 1.329 . S
C295 H305 0.930 . S
C296 C295 1.391 . S
C296 N297 1.334 . S
C296 H303 0.930 . S
N297 Zn281 2.119 . S
N297 C293 1.328 . S
N297 C296 1.334 . S
N298 C294 1.331 . S
N298 C295 1.329 . S
H299 C293 0.930 . S
C300 O280 1.257 . S
C300 O301 1.244 . S
O301 C300 1.244 . S
O302 C278 1.257 . S
O302 Zn281 2.019 . S
H303 C296 0.930 . S
H304 C283 0.930 . S
H305 C295 0.930 . S
Zn306 N310 2.020 . S
Zn306 O314 2.019 . S
Zn306 N316 2.119 . S
Zn306 O324 1.975 . S
C307 N308 1.334 . S
C307 N311 1.336 . S
N308 C307 1.334 . S
N308 C309 1.334 . S
C309 N308 1.334 . S
C309 N310 1.336 . S
N310 Zn306 2.020 . S
N310 C309 1.336 . S
N310 N311 1.354 . S
N311 C307 1.336 . S
N311 N310 1.354 . S
N311 Zn315 2.020 1_655 S
C312 O313 1.244 . S
C312 O336 1.257 . S
O313 C312 1.244 . S
O314 Zn306 2.019 . S
O314 C334 1.257 . S
Zn315 N311 2.020 1_455 S
Zn315 O322 1.975 1_455 S
Zn315 N331 2.119 1_455 S
Zn315 O336 2.019 . S
N316 Zn306 2.119 . S
N316 C318 1.334 . S
N316 C319 1.328 . S
C317 C318 1.391 . S
C317 N320 1.329 . S
C317 H338 0.930 . S
C318 N316 1.334 . S
C318 C317 1.391 . S
C318 H325 0.930 . S
C319 N316 1.328 . S
C319 C321 1.392 . S
C319 H326 0.930 . S
N320 C317 1.329 . S
N320 C321 1.331 . S
C321 C319 1.392 . S
C321 N320 1.331 . S
O322 Zn315 1.975 1_655 S
O322 C323 1.252 . S
C323 O322 1.252 . S
C323 O324 1.252 . S
O324 Zn306 1.975 . S
O324 C323 1.252 . S
H325 C318 0.930 . S
H326 C319 0.930 . S
C327 C328 1.392 . S
C327 N331 1.328 1_455 S
C327 H333 0.930 . S
C328 C327 1.392 . S
C328 N332 1.331 1_455 S
C329 C330 1.391 . S
C329 N332 1.329 . S
C329 H339 0.930 . S
C330 C329 1.391 . S
C330 N331 1.334 . S
C330 H337 0.930 . S
N331 Zn315 2.119 1_655 S
N331 C327 1.328 1_655 S
N331 C330 1.334 . S
N332 C328 1.331 1_655 S
N332 C329 1.329 . S
H333 C327 0.930 . S
C334 O314 1.257 . S
C334 O335 1.244 . S
O335 C334 1.244 . S
O336 C312 1.257 . S
O336 Zn315 2.019 . S
H337 C330 0.930 . S
H338 C317 0.930 . S
H339 C329 0.930 . S
Zn340 N344 2.020 . S
Zn340 O348 2.019 . S
Zn340 N350 2.119 . S
Zn340 O358 1.975 . S
C341 N342 1.334 . S
C341 N345 1.336 . S
N342 C341 1.334 . S
N342 C343 1.334 . S
C343 N342 1.334 . S
C343 N344 1.336 . S
N344 Zn340 2.020 . S
N344 C343 1.336 . S
N344 N345 1.354 . S
N345 C341 1.336 . S
N345 N344 1.354 . S
N345 Zn349 2.020 1_455 S
C346 O347 1.244 . S
C346 O370 1.257 . S
O347 C346 1.244 . S
O348 Zn340 2.019 . S
O348 C368 1.257 . S
Zn349 N345 2.020 1_655 S
Zn349 O356 1.975 1_655 S
Zn349 N365 2.119 1_655 S
Zn349 O370 2.019 . S
N350 Zn340 2.119 . S
N350 C352 1.334 . S
N350 C353 1.328 . S
C351 C352 1.391 . S
C351 N354 1.329 . S
C351 H372 0.930 . S
C352 N350 1.334 . S
C352 C351 1.391 . S
C352 H359 0.930 . S
C353 N350 1.328 . S
C353 C355 1.392 . S
C353 H360 0.930 . S
N354 C351 1.329 . S
N354 C355 1.331 . S
C355 C353 1.392 . S
C355 N354 1.331 . S
O356 Zn349 1.975 1_455 S
O356 C357 1.252 . S
C357 O356 1.252 . S
C357 O358 1.252 . S
O358 Zn340 1.975 . S
O358 C357 1.252 . S
H359 C352 0.930 . S
H360 C353 0.930 . S
C361 C362 1.392 . S
C361 N365 1.328 1_655 S
C361 H367 0.930 . S
C362 C361 1.392 . S
C362 N366 1.331 1_655 S
C363 C364 1.391 . S
C363 N366 1.329 . S
C363 H373 0.930 . S
C364 C363 1.391 . S
C364 N365 1.334 . S
C364 H371 0.930 . S
N365 Zn349 2.119 1_455 S
N365 C361 1.328 1_455 S
N365 C364 1.334 . S
N366 C362 1.331 1_455 S
N366 C363 1.329 . S
H367 C361 0.930 . S
C368 O348 1.257 . S
C368 O369 1.244 . S
O369 C368 1.244 . S
O370 C346 1.257 . S
O370 Zn349 2.019 . S
H371 C364 0.930 . S
H372 C351 0.930 . S
H373 C363 0.930 . S
Zn374 N378 2.020 . S
Zn374 O382 2.019 . S
Zn374 N384 2.119 . S
Zn374 O392 1.975 . S
C375 N376 1.334 . S
C375 N379 1.336 . S
N376 C375 1.334 . S
N376 C377 1.334 . S
C377 N376 1.334 . S
C377 N378 1.336 . S
N378 Zn374 2.020 . S
N378 C377 1.336 . S
N378 N379 1.354 . S
N379 C375 1.336 . S
N379 N378 1.354 . S
N379 Zn383 2.020 . S
C380 O381 1.244 . S
C380 O404 1.257 . S
O381 C380 1.244 . S
O382 Zn374 2.019 . S
O382 C402 1.257 . S
Zn383 N379 2.020 . S
Zn383 O390 1.975 . S
Zn383 N399 2.119 . S
Zn383 O404 2.019 . S
N384 Zn374 2.119 . S
N384 C386 1.334 . S
N384 C387 1.328 . S
C385 C386 1.391 . S
C385 N388 1.329 . S
C385 H406 0.930 . S
C386 N384 1.334 . S
C386 C385 1.391 . S
C386 H393 0.930 . S
C387 N384 1.328 . S
C387 C389 1.392 . S
C387 H394 0.930 . S
N388 C385 1.329 . S
N388 C389 1.331 . S
C389 C387 1.392 . S
C389 N388 1.331 . S
O390 Zn383 1.975 . S
O390 C391 1.252 . S
C391 O390 1.252 . S
C391 O392 1.252 . S
O392 Zn374 1.975 . S
O392 C391 1.252 . S
H393 C386 0.930 . S
H394 C387 0.930 . S
C395 C396 1.392 . S
C395 N399 1.328 . S
C395 H401 0.930 . S
C396 C395 1.392 . S
C396 N400 1.331 . S
C397 C398 1.391 . S
C397 N400 1.329 . S
C397 H407 0.930 . S
C398 C397 1.391 . S
C398 N399 1.334 . S
C398 H405 0.930 . S
N399 Zn383 2.119 . S
N399 C395 1.328 . S
N399 C398 1.334 . S
N400 C396 1.331 . S
N400 C397 1.329 . S
H401 C395 0.930 . S
C402 O382 1.257 . S
C402 O403 1.244 . S
O403 C402 1.244 . S
O404 C380 1.257 . S
O404 Zn383 2.019 . S
H405 C398 0.930 . S
H406 C385 0.930 . S
H407 C397 0.930 . S
Zn408 N412 2.020 . S
Zn408 O416 2.019 . S
Zn408 N418 2.119 . S
Zn408 O426 1.975 . S
C409 N410 1.334 . S
C409 N413 1.336 . S
N410 C409 1.334 . S
N410 C411 1.334 . S
C411 N410 1.334 . S
C411 N412 1.336 . S
N412 Zn408 2.020 . S
N412 C411 1.336 . S
N412 N413 1.354 . S
N413 C409 1.336 . S
N413 N412 1.354 . S
N413 Zn417 2.020 . S
C414 O415 1.244 . S
C414 O438 1.257 . S
O415 C414 1.244 . S
O416 Zn408 2.019 . S
O416 C436 1.257 . S
Zn417 N413 2.020 . S
Zn417 O424 1.975 . S
Zn417 N433 2.119 . S
Zn417 O438 2.019 . S
N418 Zn408 2.119 . S
N418 C420 1.334 . S
N418 C421 1.328 . S
C419 C420 1.391 . S
C419 N422 1.329 . S
C419 H440 0.930 . S
C420 N418 1.334 . S
C420 C419 1.391 . S
C420 H427 0.930 . S
C421 N418 1.328 . S
C421 C423 1.392 . S
C421 H428 0.930 . S
N422 C419 1.329 . S
N422 C423 1.331 . S
C423 C421 1.392 . S
C423 N422 1.331 . S
O424 Zn417 1.975 . S
O424 C425 1.252 . S
C425 O424 1.252 . S
C425 O426 1.252 . S
O426 Zn408 1.975 . S
O426 C425 1.252 . S
H427 C420 0.930 . S
H428 C421 0.930 . S
C429 C430 1.392 . S
C429 N433 1.328 . S
C429 H435 0.930 . S
C430 C429 1.392 . S
C430 N434 1.331 . S
C431 C432 1.391 . S
C431 N434 1.329 . S
C431 H441 0.930 . S
C432 C431 1.391 . S
C432 N433 1.334 . S
C432 H439 0.930 . S
N433 Zn417 2.119 . S
N433 C429 1.328 . S
N433 C432 1.334 . S
N434 C430 1.331 . S
N434 C431 1.329 . S
H435 C429 0.930 . S
C436 O416 1.257 . S
C436 O437 1.244 . S
O437 C436 1.244 . S
O438 C414 1.257 . S
O438 Zn417 2.019 . S
H439 C432 0.930 . S
H440 C419 0.930 . S
H441 C431 0.930 . S
Zn442 N446 2.020 1_655 S
Zn442 O450 2.019 . S
Zn442 N452 2.119 1_655 S
Zn442 O460 1.975 1_655 S
C443 N444 1.334 . S
C443 N447 1.336 . S
N444 C443 1.334 . S
N444 C445 1.334 . S
C445 N444 1.334 . S
C445 N446 1.336 . S
N446 Zn442 2.020 1_455 S
N446 C445 1.336 . S
N446 N447 1.354 . S
N447 C443 1.336 . S
N447 N446 1.354 . S
N447 Zn451 2.020 . S
C448 O449 1.244 . S
C448 O472 1.257 . S
O449 C448 1.244 . S
O450 Zn442 2.019 . S
O450 C470 1.257 . S
Zn451 N447 2.020 . S
Zn451 O458 1.975 . S
Zn451 N467 2.119 . S
Zn451 O472 2.019 . S
N452 Zn442 2.119 1_455 S
N452 C454 1.334 . S
N452 C455 1.328 1_455 S
C453 C454 1.391 . S
C453 N456 1.329 . S
C453 H474 0.930 . S
C454 N452 1.334 . S
C454 C453 1.391 . S
C454 H461 0.930 . S
C455 N452 1.328 1_655 S
C455 C457 1.392 . S
C455 H462 0.930 . S
N456 C453 1.329 . S
N456 C457 1.331 1_455 S
C457 C455 1.392 . S
C457 N456 1.331 1_655 S
O458 Zn451 1.975 . S
O458 C459 1.252 . S
C459 O458 1.252 . S
C459 O460 1.252 . S
O460 Zn442 1.975 1_455 S
O460 C459 1.252 . S
H461 C454 0.930 . S
H462 C455 0.930 . S
C463 C464 1.392 . S
C463 N467 1.328 . S
C463 H469 0.930 . S
C464 C463 1.392 . S
C464 N468 1.331 . S
C465 C466 1.391 . S
C465 N468 1.329 . S
C465 H475 0.930 . S
C466 C465 1.391 . S
C466 N467 1.334 . S
C466 H473 0.930 . S
N467 Zn451 2.119 . S
N467 C463 1.328 . S
N467 C466 1.334 . S
N468 C464 1.331 . S
N468 C465 1.329 . S
H469 C463 0.930 . S
C470 O450 1.257 . S
C470 O471 1.244 . S
O471 C470 1.244 . S
O472 C448 1.257 . S
O472 Zn451 2.019 . S
H473 C466 0.930 . S
H474 C453 0.930 . S
H475 C465 0.930 . S
Zn476 N480 2.020 . S
Zn476 O484 2.019 . S
Zn476 N486 2.119 . S
Zn476 O494 1.975 . S
C477 N478 1.334 . S
C477 N481 1.336 . S
N478 C477 1.334 . S
N478 C479 1.334 . S
C479 N478 1.334 . S
C479 N480 1.336 . S
N480 Zn476 2.020 . S
N480 C479 1.336 . S
N480 N481 1.354 . S
N481 C477 1.336 . S
N481 N480 1.354 . S
N481 Zn485 2.020 1_655 S
C482 O483 1.244 . S
C482 O506 1.257 . S
O483 C482 1.244 . S
O484 Zn476 2.019 . S
O484 C504 1.257 . S
Zn485 N481 2.020 1_455 S
Zn485 O492 1.975 1_455 S
Zn485 N501 2.119 1_455 S
Zn485 O506 2.019 . S
N486 Zn476 2.119 . S
N486 C488 1.334 . S
N486 C489 1.328 . S
C487 C488 1.391 . S
C487 N490 1.329 . S
C487 H508 0.930 . S
C488 N486 1.334 . S
C488 C487 1.391 . S
C488 H495 0.930 . S
C489 N486 1.328 . S
C489 C491 1.392 . S
C489 H496 0.930 . S
N490 C487 1.329 . S
N490 C491 1.331 . S
C491 C489 1.392 . S
C491 N490 1.331 . S
O492 Zn485 1.975 1_655 S
O492 C493 1.252 . S
C493 O492 1.252 . S
C493 O494 1.252 . S
O494 Zn476 1.975 . S
O494 C493 1.252 . S
H495 C488 0.930 . S
H496 C489 0.930 . S
C497 C498 1.392 . S
C497 N501 1.328 1_455 S
C497 H503 0.930 . S
C498 C497 1.392 . S
C498 N502 1.331 1_455 S
C499 C500 1.391 . S
C499 N502 1.329 . S
C499 H509 0.930 . S
C500 C499 1.391 . S
C500 N501 1.334 . S
C500 H507 0.930 . S
N501 Zn485 2.119 1_655 S
N501 C497 1.328 1_655 S
N501 C500 1.334 . S
N502 C498 1.331 1_655 S
N502 C499 1.329 . S
H503 C497 0.930 . S
C504 O484 1.257 . S
C504 O505 1.244 . S
O505 C504 1.244 . S
O506 C482 1.257 . S
O506 Zn485 2.019 . S
H507 C500 0.930 . S
H508 C487 0.930 . S
H509 C499 0.930 . S
Zn510 N514 2.020 . S
Zn510 O518 2.019 . S
Zn510 N520 2.119 . S
Zn510 O528 1.975 . S
C511 N512 1.334 . S
C511 N515 1.336 . S
N512 C511 1.334 . S
N512 C513 1.334 . S
C513 N512 1.334 . S
C513 N514 1.336 . S
N514 Zn510 2.020 . S
N514 C513 1.336 . S
N514 N515 1.354 . S
N515 C511 1.336 . S
N515 N514 1.354 . S
N515 Zn519 2.020 . S
C516 O517 1.244 . S
C516 O540 1.257 . S
O517 C516 1.244 . S
O518 Zn510 2.019 . S
O518 C538 1.257 . S
Zn519 N515 2.020 . S
Zn519 O526 1.975 . S
Zn519 N535 2.119 . S
Zn519 O540 2.019 . S
N520 Zn510 2.119 . S
N520 C522 1.334 . S
N520 C523 1.328 . S
C521 C522 1.391 . S
C521 N524 1.329 . S
C521 H542 0.930 . S
C522 N520 1.334 . S
C522 C521 1.391 . S
C522 H529 0.930 . S
C523 N520 1.328 . S
C523 C525 1.392 . S
C523 H530 0.930 . S
N524 C521 1.329 . S
N524 C525 1.331 . S
C525 C523 1.392 . S
C525 N524 1.331 . S
O526 Zn519 1.975 . S
O526 C527 1.252 . S
C527 O526 1.252 . S
C527 O528 1.252 . S
O528 Zn510 1.975 . S
O528 C527 1.252 . S
H529 C522 0.930 . S
H530 C523 0.930 . S
C531 C532 1.392 . S
C531 N535 1.328 . S
C531 H537 0.930 . S
C532 C531 1.392 . S
C532 N536 1.331 . S
C533 C534 1.391 . S
C533 N536 1.329 . S
C533 H543 0.930 . S
C534 C533 1.391 . S
C534 N535 1.334 . S
C534 H541 0.930 . S
N535 Zn519 2.119 . S
N535 C531 1.328 . S
N535 C534 1.334 . S
N536 C532 1.331 . S
N536 C533 1.329 . S
H537 C531 0.930 . S
C538 O518 1.257 . S
C538 O539 1.244 . S
O539 C538 1.244 . S
O540 C516 1.257 . S
O540 Zn519 2.019 . S
H541 C534 0.930 . S
H542 C521 0.930 . S
H543 C533 0.930 . S
H544 C550 0.930 . S
H545 C553 0.930 . S
H546 C554 0.930 . S
H547 C555 0.930 . S
H548 C558 0.930 . S
H549 C559 0.930 . S
C550 H544 0.930 . S
C550 C551 1.355 . S
C550 C552 1.415 . S
C551 C550 1.355 . S
C551 C553 1.419 . S
C552 C550 1.415 . S
C552 C557 1.425 . S
C552 C559 1.409 . S
C553 H545 0.930 . S
C553 C551 1.419 . S
C553 C554 1.362 . S
C554 H546 0.930 . S
C554 C553 1.362 . S
C554 C557 1.409 . S
C555 H547 0.930 . S
C555 C556 1.355 . S
C555 C557 1.415 . S
C556 C555 1.355 . S
C556 C558 1.419 . S
C557 C552 1.425 . S
C557 C554 1.409 . S
C557 C555 1.415 . S
C558 H548 0.930 . S
C558 C556 1.419 . S
C558 C559 1.362 . S
C559 H549 0.930 . S
C559 C552 1.409 . S
C559 C558 1.362 . S
H560 C566 0.930 . S
H561 C569 0.930 . S
H562 C570 0.930 . S
H563 C571 0.930 . S
H564 C574 0.930 . S
H565 C575 0.930 . S
C566 H560 0.930 . S
C566 C567 1.355 . S
C566 C568 1.415 1_455 S
C567 C566 1.355 . S
C567 C569 1.419 . S
C568 C566 1.415 1_655 S
C568 C573 1.425 . S
C568 C575 1.409 . S
C569 H561 0.930 . S
C569 C567 1.419 . S
C569 C570 1.362 1_455 S
C570 H562 0.930 . S
C570 C569 1.362 1_655 S
C570 C573 1.409 . S
C571 H563 0.930 . S
C571 C572 1.355 . S
C571 C573 1.415 . S
C572 C571 1.355 . S
C572 C574 1.419 . S
C573 C568 1.425 . S
C573 C570 1.409 . S
C573 C571 1.415 . S
C574 H564 0.930 . S
C574 C572 1.419 . S
C574 C575 1.362 . S
C575 H565 0.930 . S
C575 C568 1.409 . S
C575 C574 1.362 . S
H576 C582 0.930 . S
H577 C585 0.930 . S
H578 C586 0.930 . S
H579 C587 0.930 . S
H580 C590 0.930 . S
H581 C591 0.930 . S
C582 H576 0.930 . S
C582 C583 1.355 . S
C582 C584 1.415 1_655 S
C583 C582 1.355 . S
C583 C585 1.419 . S
C584 C582 1.415 1_455 S
C584 C589 1.425 . S
C584 C591 1.409 . S
C585 H577 0.930 . S
C585 C583 1.419 . S
C585 C586 1.362 1_655 S
C586 H578 0.930 . S
C586 C585 1.362 1_455 S
C586 C589 1.409 . S
C587 H579 0.930 . S
C587 C588 1.355 . S
C587 C589 1.415 . S
C588 C587 1.355 . S
C588 C590 1.419 . S
C589 C584 1.425 . S
C589 C586 1.409 . S
C589 C587 1.415 . S
C590 H580 0.930 . S
C590 C588 1.419 . S
C590 C591 1.362 . S
C591 H581 0.930 . S
C591 C584 1.409 . S
C591 C590 1.362 . S
H592 C598 0.930 . S
H593 C601 0.930 . S
H594 C602 0.930 . S
H595 C603 0.930 . S
H596 C606 0.930 . S
H597 C607 0.930 . S
C598 H592 0.930 . S
C598 C599 1.355 . S
C598 C600 1.415 . S
C599 C598 1.355 . S
C599 C601 1.419 . S
C600 C598 1.415 . S
C600 C605 1.425 . S
C600 C607 1.409 . S
C601 H593 0.930 . S
C601 C599 1.419 . S
C601 C602 1.362 . S
C602 H594 0.930 . S
C602 C601 1.362 . S
C602 C605 1.409 . S
C603 H595 0.930 . S
C603 C604 1.355 . S
C603 C605 1.415 . S
C604 C603 1.355 . S
C604 C606 1.419 . S
C605 C600 1.425 . S
C605 C602 1.409 . S
C605 C603 1.415 . S
C606 H596 0.930 . S
C606 C604 1.419 . S
C606 C607 1.362 . S
C607 H597 0.930 . S
C607 C600 1.409 . S
C607 C606 1.362 . S
H608 C614 0.930 . S
H609 C617 0.930 . S
H610 C618 0.930 . S
H611 C619 0.930 . S
H612 C622 0.930 . S
H613 C623 0.930 . S
C614 H608 0.930 . S
C614 C615 1.355 . S
C614 C616 1.415 . S
C615 C614 1.355 . S
C615 C617 1.419 . S
C616 C614 1.415 . S
C616 C621 1.425 . S
C616 C623 1.409 . S
C617 H609 0.930 . S
C617 C615 1.419 . S
C617 C618 1.362 . S
C618 H610 0.930 . S
C618 C617 1.362 . S
C618 C621 1.409 . S
C619 H611 0.930 . S
C619 C620 1.355 . S
C619 C621 1.415 . S
C620 C619 1.355 . S
C620 C622 1.419 . S
C621 C616 1.425 . S
C621 C618 1.409 . S
C621 C619 1.415 . S
C622 H612 0.930 . S
C622 C620 1.419 . S
C622 C623 1.362 . S
C623 H613 0.930 . S
C623 C616 1.409 . S
C623 C622 1.362 . S
H624 C630 0.930 . S
H625 C633 0.930 . S
H626 C634 0.930 . S
H627 C635 0.930 . S
H628 C638 0.930 . S
H629 C639 0.930 . S
C630 H624 0.930 . S
C630 C631 1.355 . S
C630 C632 1.415 . S
C631 C630 1.355 . S
C631 C633 1.419 . S
C632 C630 1.415 . S
C632 C637 1.425 . S
C632 C639 1.409 . S
C633 H625 0.930 . S
C633 C631 1.419 . S
C633 C634 1.362 . S
C634 H626 0.930 . S
C634 C633 1.362 . S
C634 C637 1.409 . S
C635 H627 0.930 . S
C635 C636 1.355 . S
C635 C637 1.415 1_655 S
C636 C635 1.355 . S
C636 C638 1.419 . S
C637 C632 1.425 . S
C637 C634 1.409 . S
C637 C635 1.415 1_455 S
C638 H628 0.930 . S
C638 C636 1.419 . S
C638 C639 1.362 1_655 S
C639 H629 0.930 . S
C639 C632 1.409 . S
C639 C638 1.362 1_455 S
H640 C646 0.930 . S
H641 C649 0.930 . S
H642 C650 0.930 . S
H643 C651 0.930 . S
H644 C654 0.930 . S
H645 C655 0.930 . S
C646 H640 0.930 . S
C646 C647 1.355 . S
C646 C648 1.415 . S
C647 C646 1.355 . S
C647 C649 1.419 . S
C648 C646 1.415 . S
C648 C653 1.425 . S
C648 C655 1.409 . S
C649 H641 0.930 . S
C649 C647 1.419 . S
C649 C650 1.362 . S
C650 H642 0.930 . S
C650 C649 1.362 . S
C650 C653 1.409 . S
C651 H643 0.930 . S
C651 C652 1.355 . S
C651 C653 1.415 1_455 S
C652 C651 1.355 . S
C652 C654 1.419 . S
C653 C648 1.425 . S
C653 C650 1.409 . S
C653 C651 1.415 1_655 S
C654 H644 0.930 . S
C654 C652 1.419 . S
C654 C655 1.362 1_455 S
C655 H645 0.930 . S
C655 C648 1.409 . S
C655 C654 1.362 1_655 S
H656 C662 0.930 . S
H657 C665 0.930 . S
H658 C666 0.930 . S
H659 C667 0.930 . S
H660 C670 0.930 . S
H661 C671 0.930 . S
C662 H656 0.930 . S
C662 C663 1.355 . S
C662 C664 1.415 . S
C663 C662 1.355 . S
C663 C665 1.419 . S
C664 C662 1.415 . S
C664 C669 1.425 . S
C664 C671 1.409 . S
C665 H657 0.930 . S
C665 C663 1.419 . S
C665 C666 1.362 . S
C666 H658 0.930 . S
C666 C665 1.362 . S
C666 C669 1.409 . S
C667 H659 0.930 . S
C667 C668 1.355 . S
C667 C669 1.415 . S
C668 C667 1.355 . S
C668 C670 1.419 . S
C669 C664 1.425 . S
C669 C666 1.409 . S
C669 C667 1.415 . S
C670 H660 0.930 . S
C670 C668 1.419 . S
C670 C671 1.362 . S
C671 H661 0.930 . S
C671 C664 1.409 . S
C671 C670 1.362 . S
H672 C678 0.930 . S
H673 C681 0.930 . S
H674 C682 0.930 . S
H675 C683 0.930 . S
H676 C686 0.930 . S
H677 C687 0.930 . S
C678 H672 0.930 . S
C678 C679 1.355 . S
C678 C680 1.415 1_655 S
C679 C678 1.355 . S
C679 C681 1.419 . S
C680 C678 1.415 1_455 S
C680 C685 1.425 . S
C680 C687 1.409 . S
C681 H673 0.930 . S
C681 C679 1.419 . S
C681 C682 1.362 1_655 S
C682 H674 0.930 . S
C682 C681 1.362 1_455 S
C682 C685 1.409 . S
C683 H675 0.930 . S
C683 C684 1.355 . S
C683 C685 1.415 . S
C684 C683 1.355 . S
C684 C686 1.419 . S
C685 C680 1.425 . S
C685 C682 1.409 . S
C685 C683 1.415 . S
C686 H676 0.930 . S
C686 C684 1.419 . S
C686 C687 1.362 . S
C687 H677 0.930 . S
C687 C680 1.409 . S
C687 C686 1.362 . S
H688 C694 0.930 . S
H689 C697 0.930 . S
H690 C698 0.930 . S
H691 C699 0.930 . S
H692 C702 0.930 . S
H693 C703 0.930 . S
C694 H688 0.930 . S
C694 C695 1.355 . S
C694 C696 1.415 . S
C695 C694 1.355 . S
C695 C697 1.419 . S
C696 C694 1.415 . S
C696 C701 1.425 . S
C696 C703 1.409 . S
C697 H689 0.930 . S
C697 C695 1.419 . S
C697 C698 1.362 . S
C698 H690 0.930 . S
C698 C697 1.362 . S
C698 C701 1.409 . S
C699 H691 0.930 . S
C699 C700 1.355 . S
C699 C701 1.415 . S
C700 C699 1.355 . S
C700 C702 1.419 . S
C701 C696 1.425 . S
C701 C698 1.409 . S
C701 C699 1.415 . S
C702 H692 0.930 . S
C702 C700 1.419 . S
C702 C703 1.362 . S
C703 H693 0.930 . S
C703 C696 1.409 . S
C703 C702 1.362 . S
H704 C710 0.930 . S
H705 C713 0.930 . S
H706 C714 0.930 . S
H707 C715 0.930 . S
H708 C718 0.930 . S
H709 C719 0.930 . S
C710 H704 0.930 . S
C710 C711 1.355 . S
C710 C712 1.415 . S
C711 C710 1.355 . S
C711 C713 1.419 . S
C712 C710 1.415 . S
C712 C717 1.425 . S
C712 C719 1.409 . S
C713 H705 0.930 . S
C713 C711 1.419 . S
C713 C714 1.362 . S
C714 H706 0.930 . S
C714 C713 1.362 . S
C714 C717 1.409 . S
C715 H707 0.930 . S
C715 C716 1.355 . S
C715 C717 1.415 . S
C716 C715 1.355 . S
C716 C718 1.419 . S
C717 C712 1.425 . S
C717 C714 1.409 . S
C717 C715 1.415 . S
C718 H708 0.930 . S
C718 C716 1.419 . S
C718 C719 1.362 . S
C719 H709 0.930 . S
C719 C712 1.409 . S
C719 C718 1.362 . S
H720 C726 0.930 . S
H721 C729 0.930 . S
H722 C730 0.930 . S
H723 C731 0.930 . S
H724 C734 0.930 . S
H725 C735 0.930 . S
C726 H720 0.930 . S
C726 C727 1.355 . S
C726 C728 1.415 1_455 S
C727 C726 1.355 . S
C727 C729 1.419 . S
C728 C726 1.415 1_655 S
C728 C733 1.425 . S
C728 C735 1.409 . S
C729 H721 0.930 . S
C729 C727 1.419 . S
C729 C730 1.362 1_455 S
C730 H722 0.930 . S
C730 C729 1.362 1_655 S
C730 C733 1.409 . S
C731 H723 0.930 . S
C731 C732 1.355 . S
C731 C733 1.415 . S
C732 C731 1.355 . S
C732 C734 1.419 . S
C733 C728 1.425 . S
C733 C730 1.409 . S
C733 C731 1.415 . S
C734 H724 0.930 . S
C734 C732 1.419 . S
C734 C735 1.362 . S
C735 H725 0.930 . S
C735 C728 1.409 . S
C735 C734 1.362 . S
H736 C742 0.930 . S
H737 C745 0.930 . S
H738 C746 0.930 . S
H739 C747 0.930 . S
H740 C750 0.930 . S
H741 C751 0.930 . S
C742 H736 0.930 . S
C742 C743 1.355 . S
C742 C744 1.415 1_455 S
C743 C742 1.355 . S
C743 C745 1.419 . S
C744 C742 1.415 1_655 S
C744 C749 1.425 . S
C744 C751 1.409 . S
C745 H737 0.930 . S
C745 C743 1.419 . S
C745 C746 1.362 1_455 S
C746 H738 0.930 . S
C746 C745 1.362 1_655 S
C746 C749 1.409 . S
C747 H739 0.930 . S
C747 C748 1.355 . S
C747 C749 1.415 . S
C748 C747 1.355 . S
C748 C750 1.419 . S
C749 C744 1.425 . S
C749 C746 1.409 . S
C749 C747 1.415 . S
C750 H740 0.930 . S
C750 C748 1.419 . S
C750 C751 1.362 . S
C751 H741 0.930 . S
C751 C744 1.409 . S
C751 C750 1.362 . S
H752 C758 0.930 . S
H753 C761 0.930 . S
H754 C762 0.930 . S
H755 C763 0.930 . S
H756 C766 0.930 . S
H757 C767 0.930 . S
C758 H752 0.930 . S
C758 C759 1.355 . S
C758 C760 1.415 . S
C759 C758 1.355 . S
C759 C761 1.419 . S
C760 C758 1.415 . S
C760 C765 1.425 . S
C760 C767 1.409 . S
C761 H753 0.930 . S
C761 C759 1.419 . S
C761 C762 1.362 . S
C762 H754 0.930 . S
C762 C761 1.362 . S
C762 C765 1.409 . S
C763 H755 0.930 . S
C763 C764 1.355 . S
C763 C765 1.415 . S
C764 C763 1.355 . S
C764 C766 1.419 . S
C765 C760 1.425 . S
C765 C762 1.409 . S
C765 C763 1.415 . S
C766 H756 0.930 . S
C766 C764 1.419 . S
C766 C767 1.362 . S
C767 H757 0.930 . S
C767 C760 1.409 . S
C767 C766 1.362 . S
H768 C774 0.930 . S
H769 C777 0.930 . S
H770 C778 0.930 . S
H771 C779 0.930 . S
H772 C782 0.930 . S
H773 C783 0.930 . S
C774 H768 0.930 . S
C774 C775 1.355 . S
C774 C776 1.415 . S
C775 C774 1.355 . S
C775 C777 1.419 . S
C776 C774 1.415 . S
C776 C781 1.425 . S
C776 C783 1.409 . S
C777 H769 0.930 . S
C777 C775 1.419 . S
C777 C778 1.362 . S
C778 H770 0.930 . S
C778 C777 1.362 . S
C778 C781 1.409 . S
C779 H771 0.930 . S
C779 C780 1.355 . S
C779 C781 1.415 . S
C780 C779 1.355 . S
C780 C782 1.419 . S
C781 C776 1.425 . S
C781 C778 1.409 . S
C781 C779 1.415 . S
C782 H772 0.930 . S
C782 C780 1.419 . S
C782 C783 1.362 . S
C783 H773 0.930 . S
C783 C776 1.409 . S
C783 C782 1.362 . S
H784 C790 0.930 . S
H785 C793 0.930 . S
H786 C794 0.930 . S
H787 C795 0.930 . S
H788 C798 0.930 . S
H789 C799 0.930 . S
C790 H784 0.930 . S
C790 C791 1.355 . S
C790 C792 1.415 . S
C791 C790 1.355 . S
C791 C793 1.419 . S
C792 C790 1.415 . S
C792 C797 1.425 . S
C792 C799 1.409 . S
C793 H785 0.930 . S
C793 C791 1.419 . S
C793 C794 1.362 . S
C794 H786 0.930 . S
C794 C793 1.362 . S
C794 C797 1.409 . S
C795 H787 0.930 . S
C795 C796 1.355 . S
C795 C797 1.415 1_655 S
C796 C795 1.355 . S
C796 C798 1.419 . S
C797 C792 1.425 . S
C797 C794 1.409 . S
C797 C795 1.415 1_455 S
C798 H788 0.930 . S
C798 C796 1.419 . S
C798 C799 1.362 1_655 S
C799 H789 0.930 . S
C799 C792 1.409 . S
C799 C798 1.362 1_455 S
H800 C806 0.930 . S
H801 C809 0.930 . S
H802 C810 0.930 . S
H803 C811 0.930 . S
H804 C814 0.930 . S
H805 C815 0.930 . S
C806 H800 0.930 . S
C806 C807 1.355 . S
C806 C808 1.415 1_554 S
C807 C806 1.355 . S
C807 C809 1.419 . S
C808 C806 1.415 1_556 S
C808 C813 1.425 1_556 S
C808 C815 1.409 . S
C809 H801 0.930 . S
C809 C807 1.419 . S
C809 C810 1.362 . S
C810 H802 0.930 . S
C810 C809 1.362 . S
C810 C813 1.409 . S
C811 H803 0.930 . S
C811 C812 1.355 . S
C811 C813 1.415 1_556 S
C812 C811 1.355 . S
C812 C814 1.419 . S
C813 C808 1.425 1_554 S
C813 C810 1.409 . S
C813 C811 1.415 1_554 S
C814 H804 0.930 . S
C814 C812 1.419 . S
C814 C815 1.362 . S
C815 H805 0.930 . S
C815 C808 1.409 . S
C815 C814 1.362 . S
H816 C822 0.930 . S
H817 C825 0.930 . S
H818 C826 0.930 . S
H819 C827 0.930 . S
H820 C830 0.930 1_655 S
H821 C831 0.930 . S
C822 H816 0.930 . S
C822 C823 1.355 . S
C822 C824 1.415 . S
C823 C822 1.355 . S
C823 C825 1.419 . S
C824 C822 1.415 . S
C824 C829 1.425 1_554 S
C824 C831 1.409 . S
C825 H817 0.930 . S
C825 C823 1.419 . S
C825 C826 1.362 1_554 S
C826 H818 0.930 . S
C826 C825 1.362 1_556 S
C826 C829 1.409 . S
C827 H819 0.930 . S
C827 C828 1.355 . S
C827 C829 1.415 . S
C828 C827 1.355 . S
C828 C830 1.419 . S
C829 C824 1.425 1_556 S
C829 C826 1.409 . S
C829 C827 1.415 . S
C830 H820 0.930 1_455 S
C830 C828 1.419 . S
C830 C831 1.362 1_556 S
C831 H821 0.930 . S
C831 C824 1.409 . S
C831 C830 1.362 1_554 S
H832 C838 0.930 . S
H833 C841 0.930 . S
H834 C842 0.930 . S
H835 C843 0.930 . S
H836 C846 0.930 1_455 S
H837 C847 0.930 . S
C838 H832 0.930 . S
C838 C839 1.355 . S
C838 C840 1.415 . S
C839 C838 1.355 . S
C839 C841 1.419 . S
C840 C838 1.415 . S
C840 C845 1.425 . S
C840 C847 1.409 . S
C841 H833 0.930 . S
C841 C839 1.419 . S
C841 C842 1.362 . S
C842 H834 0.930 . S
C842 C841 1.362 . S
C842 C845 1.409 . S
C843 H835 0.930 . S
C843 C844 1.355 . S
C843 C845 1.415 . S
C844 C843 1.355 . S
C844 C846 1.419 . S
C845 C840 1.425 . S
C845 C842 1.409 . S
C845 C843 1.415 . S
C846 H836 0.930 1_655 S
C846 C844 1.419 . S
C846 C847 1.362 . S
C847 H837 0.930 . S
C847 C840 1.409 . S
C847 C846 1.362 . S
H848 C854 0.930 . S
H849 C857 0.930 . S
H850 C858 0.930 . S
H851 C859 0.930 . S
H852 C862 0.930 . S
H853 C863 0.930 . S
C854 H848 0.930 . S
C854 C855 1.355 . S
C854 C856 1.415 . S
C855 C854 1.355 . S
C855 C857 1.419 . S
C856 C854 1.415 . S
C856 C861 1.425 . S
C856 C863 1.409 . S
C857 H849 0.930 . S
C857 C855 1.419 . S
C857 C858 1.362 . S
C858 H850 0.930 . S
C858 C857 1.362 . S
C858 C861 1.409 . S
C859 H851 0.930 . S
C859 C860 1.355 . S
C859 C861 1.415 . S
C860 C859 1.355 . S
C860 C862 1.419 . S
C861 C856 1.425 . S
C861 C858 1.409 . S
C861 C859 1.415 . S
C862 H852 0.930 . S
C862 C860 1.419 . S
C862 C863 1.362 . S
C863 H853 0.930 . S
C863 C856 1.409 . S
C863 C862 1.362 . S
H864 C870 0.930 . S
H865 C873 0.930 . S
H866 C874 0.930 . S
H867 C875 0.930 . S
H868 C878 0.930 . S
H869 C879 0.930 . S
C870 H864 0.930 . S
C870 C871 1.355 . S
C870 C872 1.415 . S
C871 C870 1.355 . S
C871 C873 1.419 . S
C872 C870 1.415 . S
C872 C877 1.425 1_556 S
C872 C879 1.409 . S
C873 H865 0.930 . S
C873 C871 1.419 . S
C873 C874 1.362 1_556 S
C874 H866 0.930 . S
C874 C873 1.362 1_554 S
C874 C877 1.409 . S
C875 H867 0.930 . S
C875 C876 1.355 . S
C875 C877 1.415 . S
C876 C875 1.355 . S
C876 C878 1.419 . S
C877 C872 1.425 1_554 S
C877 C874 1.409 . S
C877 C875 1.415 . S
C878 H868 0.930 . S
C878 C876 1.419 . S
C878 C879 1.362 1_554 S
C879 H869 0.930 . S
C879 C872 1.409 . S
C879 C878 1.362 1_556 S
H880 C886 0.930 . S
H881 C889 0.930 . S
H882 C890 0.930 . S
H883 C891 0.930 . S
H884 C894 0.930 1_455 S
H885 C895 0.930 . S
C886 H880 0.930 . S
C886 C887 1.355 . S
C886 C888 1.415 . S
C887 C886 1.355 . S
C887 C889 1.419 . S
C888 C886 1.415 . S
C888 C893 1.425 1_556 S
C888 C895 1.409 . S
C889 H881 0.930 . S
C889 C887 1.419 . S
C889 C890 1.362 1_556 S
C890 H882 0.930 . S
C890 C889 1.362 1_554 S
C890 C893 1.409 . S
C891 H883 0.930 . S
C891 C892 1.355 . S
C891 C893 1.415 . S
C892 C891 1.355 . S
C892 C894 1.419 . S
C893 C888 1.425 1_554 S
C893 C890 1.409 . S
C893 C891 1.415 . S
C894 H884 0.930 1_655 S
C894 C892 1.419 . S
C894 C895 1.362 1_554 S
C895 H885 0.930 . S
C895 C888 1.409 . S
C895 C894 1.362 1_556 S
H896 C902 0.930 . S
H897 C905 0.930 1_655 S
H898 C906 0.930 . S
H899 C907 0.930 . S
H900 C910 0.930 . S
H901 C911 0.930 . S
C902 H896 0.930 . S
C902 C903 1.355 . S
C902 C904 1.415 . S
C903 C902 1.355 . S
C903 C905 1.419 . S
C904 C902 1.415 . S
C904 C909 1.425 . S
C904 C911 1.409 . S
C905 H897 0.930 1_455 S
C905 C903 1.419 . S
C905 C906 1.362 . S
C906 H898 0.930 . S
C906 C905 1.362 . S
C906 C909 1.409 . S
C907 H899 0.930 . S
C907 C908 1.355 . S
C907 C909 1.415 . S
C908 C907 1.355 . S
C908 C910 1.419 . S
C909 C904 1.425 . S
C909 C906 1.409 . S
C909 C907 1.415 . S
C910 H900 0.930 . S
C910 C908 1.419 . S
C910 C911 1.362 . S
C911 H901 0.930 . S
C911 C904 1.409 . S
C911 C910 1.362 . S
H912 C918 0.930 . S
H913 C921 0.930 . S
H914 C922 0.930 . S
H915 C923 0.930 . S
H916 C926 0.930 . S
H917 C927 0.930 . S
C918 H912 0.930 . S
C918 C919 1.355 . S
C918 C920 1.415 . S
C919 C918 1.355 . S
C919 C921 1.419 . S
C920 C918 1.415 . S
C920 C925 1.425 . S
C920 C927 1.409 . S
C921 H913 0.930 . S
C921 C919 1.419 . S
C921 C922 1.362 . S
C922 H914 0.930 . S
C922 C921 1.362 . S
C922 C925 1.409 . S
C923 H915 0.930 . S
C923 C924 1.355 . S
C923 C925 1.415 . S
C924 C923 1.355 . S
C924 C926 1.419 . S
C925 C920 1.425 . S
C925 C922 1.409 . S
C925 C923 1.415 . S
C926 H916 0.930 . S
C926 C924 1.419 . S
C926 C927 1.362 . S
C927 H917 0.930 . S
C927 C920 1.409 . S
C927 C926 1.362 . S
H928 C934 0.930 . S
H929 C937 0.930 . S
H930 C938 0.930 . S
H931 C939 0.930 . S
H932 C942 0.930 1_455 S
H933 C943 0.930 . S
C934 H928 0.930 . S
C934 C935 1.355 . S
C934 C936 1.415 . S
C935 C934 1.355 . S
C935 C937 1.419 . S
C936 C934 1.415 . S
C936 C941 1.425 1_554 S
C936 C943 1.409 . S
C937 H929 0.930 . S
C937 C935 1.419 . S
C937 C938 1.362 1_554 S
C938 H930 0.930 . S
C938 C937 1.362 1_556 S
C938 C941 1.409 . S
C939 H931 0.930 . S
C939 C940 1.355 . S
C939 C941 1.415 . S
C940 C939 1.355 . S
C940 C942 1.419 . S
C941 C936 1.425 1_556 S
C941 C938 1.409 . S
C941 C939 1.415 . S
C942 H932 0.930 1_655 S
C942 C940 1.419 . S
C942 C943 1.362 1_556 S
C943 H933 0.930 . S
C943 C936 1.409 . S
C943 C942 1.362 1_554 S
H944 C950 0.930 . S
H945 C953 0.930 . S
H946 C954 0.930 . S
H947 C955 0.930 . S
H948 C958 0.930 . S
H949 C959 0.930 . S
C950 H944 0.930 . S
C950 C951 1.355 . S
C950 C952 1.415 . S
C951 C950 1.355 . S
C951 C953 1.419 . S
C952 C950 1.415 . S
C952 C957 1.425 1_556 S
C952 C959 1.409 . S
C953 H945 0.930 . S
C953 C951 1.419 . S
C953 C954 1.362 1_556 S
C954 H946 0.930 . S
C954 C953 1.362 1_554 S
C954 C957 1.409 . S
C955 H947 0.930 . S
C955 C956 1.355 . S
C955 C957 1.415 . S
C956 C955 1.355 . S
C956 C958 1.419 . S
C957 C952 1.425 1_554 S
C957 C954 1.409 . S
C957 C955 1.415 . S
C958 H948 0.930 . S
C958 C956 1.419 . S
C958 C959 1.362 1_554 S
C959 H949 0.930 . S
C959 C952 1.409 . S
C959 C958 1.362 1_556 S
H960 C966 0.930 . S
H961 C969 0.930 . S
H962 C970 0.930 . S
H963 C971 0.930 . S
H964 C974 0.930 . S
H965 C975 0.930 . S
C966 H960 0.930 . S
C966 C967 1.355 . S
C966 C968 1.415 . S
C967 C966 1.355 . S
C967 C969 1.419 . S
C968 C966 1.415 . S
C968 C973 1.425 . S
C968 C975 1.409 . S
C969 H961 0.930 . S
C969 C967 1.419 . S
C969 C970 1.362 . S
C970 H962 0.930 . S
C970 C969 1.362 . S
C970 C973 1.409 . S
C971 H963 0.930 . S
C971 C972 1.355 . S
C971 C973 1.415 . S
C972 C971 1.355 . S
C972 C974 1.419 . S
C973 C968 1.425 . S
C973 C970 1.409 . S
C973 C971 1.415 . S
C974 H964 0.930 . S
C974 C972 1.419 . S
C974 C975 1.362 . S
C975 H965 0.930 . S
C975 C968 1.409 . S
C975 C974 1.362 . S
H976 C982 0.930 . S
H977 C985 0.930 1_655 S
H978 C986 0.930 . S
H979 C987 0.930 . S
H980 C990 0.930 . S
H981 C991 0.930 . S
C982 H976 0.930 . S
C982 C983 1.355 . S
C982 C984 1.415 . S
C983 C982 1.355 . S
C983 C985 1.419 . S
C984 C982 1.415 . S
C984 C989 1.425 . S
C984 C991 1.409 . S
C985 H977 0.930 1_455 S
C985 C983 1.419 . S
C985 C986 1.362 . S
C986 H978 0.930 . S
C986 C985 1.362 . S
C986 C989 1.409 . S
C987 H979 0.930 . S
C987 C988 1.355 . S
C987 C989 1.415 . S
C988 C987 1.355 . S
C988 C990 1.419 . S
C989 C984 1.425 . S
C989 C986 1.409 . S
C989 C987 1.415 . S
C990 H980 0.930 . S
C990 C988 1.419 . S
C990 C991 1.362 . S
C991 H981 0.930 . S
C991 C984 1.409 . S
C991 C990 1.362 . S
H992 C998 0.930 . S
H993 C1001 0.930 1_655 S
H994 C1002 0.930 1_556 S
H995 C1003 0.930 . S
H996 C1006 0.930 . S
H997 C1007 0.920 1_554 S
C998 H992 0.930 . S
C998 C999 1.355 . S
C998 C1000 1.415 . S
C999 C998 1.355 . S
C999 C1001 1.419 . S
C1000 C998 1.415 . S
C1000 C1005 1.425 1_554 S
C1000 C1007 1.409 1_554 S
C1001 H993 0.930 1_455 S
C1001 C999 1.419 . S
C1001 C1002 1.362 . S
C1002 H994 0.930 1_554 S
C1002 C1001 1.362 . S
C1002 C1005 1.409 1_554 S
C1003 H995 0.930 . S
C1003 C1004 1.355 . S
C1003 C1005 1.415 . S
C1004 C1003 1.355 . S
C1004 C1006 1.419 . S
C1005 C1000 1.425 1_556 S
C1005 C1002 1.409 1_556 S
C1005 C1003 1.415 . S
C1006 H996 0.930 . S
C1006 C1004 1.419 . S
C1006 C1007 1.362 . S
C1007 H997 0.920 1_556 S
C1007 C1000 1.409 1_556 S
C1007 C1006 1.362 . S
H1008 C1014 0.930 . S
H1009 C1017 0.930 . S
H1010 C1018 0.930 . S
H1011 C1019 0.930 . S
H1012 C1022 0.930 . S
H1013 C1023 0.930 . S
C1014 H1008 0.930 . S
C1014 C1015 1.355 . S
C1014 C1016 1.415 . S
C1015 C1014 1.355 . S
C1015 C1017 1.419 . S
C1016 C1014 1.415 . S
C1016 C1021 1.425 1_556 S
C1016 C1023 1.409 1_556 S
C1017 H1009 0.930 . S
C1017 C1015 1.419 . S
C1017 C1018 1.362 . S
C1018 H1010 0.930 . S
C1018 C1017 1.362 . S
C1018 C1021 1.409 1_556 S
C1019 H1011 0.930 . S
C1019 C1020 1.355 . S
C1019 C1021 1.415 . S
C1020 C1019 1.355 . S
C1020 C1022 1.419 . S
C1021 C1016 1.425 1_554 S
C1021 C1018 1.409 1_554 S
C1021 C1019 1.415 . S
C1022 H1012 0.930 . S
C1022 C1020 1.419 . S
C1022 C1023 1.362 . S
C1023 H1013 0.930 . S
C1023 C1016 1.409 1_554 S
C1023 C1022 1.362 . S
H1024 C1030 0.930 . S
H1025 C1033 0.930 . S
H1026 C1034 0.930 . S
H1027 C1035 0.930 . S
H1028 C1038 0.930 . S
H1029 C1039 0.930 . S
C1030 H1024 0.930 . S
C1030 C1031 1.355 . S
C1030 C1032 1.415 . S
C1031 C1030 1.355 . S
C1031 C1033 1.419 . S
C1032 C1030 1.415 . S
C1032 C1037 1.425 . S
C1032 C1039 1.409 . S
C1033 H1025 0.930 . S
C1033 C1031 1.419 . S
C1033 C1034 1.362 . S
C1034 H1026 0.930 . S
C1034 C1033 1.362 . S
C1034 C1037 1.409 . S
C1035 H1027 0.930 . S
C1035 C1036 1.355 . S
C1035 C1037 1.415 . S
C1036 C1035 1.355 . S
C1036 C1038 1.419 . S
C1037 C1032 1.425 . S
C1037 C1034 1.409 . S
C1037 C1035 1.415 . S
C1038 H1028 0.930 . S
C1038 C1036 1.419 . S
C1038 C1039 1.362 . S
C1039 H1029 0.930 . S
C1039 C1032 1.409 . S
C1039 C1038 1.362 . S
H1040 C1046 0.930 . S
H1041 C1049 0.930 . S
H1042 C1050 0.930 . S
H1043 C1051 0.930 . S
H1044 C1054 0.930 . S
H1045 C1055 0.930 . S
C1046 H1040 0.930 . S
C1046 C1047 1.355 . S
C1046 C1048 1.415 . S
C1047 C1046 1.355 . S
C1047 C1049 1.419 . S
C1048 C1046 1.415 . S
C1048 C1053 1.425 . S
C1048 C1055 1.409 . S
C1049 H1041 0.930 . S
C1049 C1047 1.419 . S
C1049 C1050 1.362 . S
C1050 H1042 0.930 . S
C1050 C1049 1.362 . S
C1050 C1053 1.409 . S
C1051 H1043 0.930 . S
C1051 C1052 1.355 . S
C1051 C1053 1.415 . S
C1052 C1051 1.355 . S
C1052 C1054 1.419 . S
C1053 C1048 1.425 . S
C1053 C1050 1.409 . S
C1053 C1051 1.415 . S
C1054 H1044 0.930 . S
C1054 C1052 1.419 . S
C1054 C1055 1.362 . S
C1055 H1045 0.930 . S
C1055 C1048 1.409 . S
C1055 C1054 1.362 . S
H1056 C1062 0.930 . S
H1057 C1065 0.930 . S
H1058 C1066 0.930 . S
H1059 C1067 0.930 . S
H1060 C1070 0.930 . S
H1061 C1071 0.930 . S
C1062 H1056 0.930 . S
C1062 C1063 1.355 . S
C1062 C1064 1.415 . S
C1063 C1062 1.355 . S
C1063 C1065 1.419 . S
C1064 C1062 1.415 . S
C1064 C1069 1.425 1_545 S
C1064 C1071 1.409 1_545 S
C1065 H1057 0.930 . S
C1065 C1063 1.419 . S
C1065 C1066 1.362 . S
C1066 H1058 0.930 . S
C1066 C1065 1.362 . S
C1066 C1069 1.409 1_545 S
C1067 H1059 0.930 . S
C1067 C1068 1.355 . S
C1067 C1069 1.415 . S
C1068 C1067 1.355 . S
C1068 C1070 1.419 . S
C1069 C1064 1.425 1_565 S
C1069 C1066 1.409 1_565 S
C1069 C1067 1.415 . S
C1070 H1060 0.930 . S
C1070 C1068 1.419 . S
C1070 C1071 1.362 . S
C1071 H1061 0.930 . S
C1071 C1064 1.409 1_565 S
C1071 C1070 1.362 . S
H1072 C1078 0.930 . S
H1073 C1081 0.930 . S
H1074 C1082 0.930 . S
H1075 C1083 0.930 . S
H1076 C1086 0.930 . S
H1077 C1087 0.930 . S
C1078 H1072 0.930 . S
C1078 C1079 1.355 . S
C1078 C1080 1.415 . S
C1079 C1078 1.355 . S
C1079 C1081 1.419 . S
C1080 C1078 1.415 . S
C1080 C1085 1.425 1_545 S
C1080 C1087 1.409 1_545 S
C1081 H1073 0.930 . S
C1081 C1079 1.419 . S
C1081 C1082 1.362 . S
C1082 H1074 0.930 . S
C1082 C1081 1.362 . S
C1082 C1085 1.409 1_545 S
C1083 H1075 0.930 . S
C1083 C1084 1.355 . S
C1083 C1085 1.415 . S
C1084 C1083 1.355 . S
C1084 C1086 1.419 . S
C1085 C1080 1.425 1_565 S
C1085 C1082 1.409 1_565 S
C1085 C1083 1.415 . S
C1086 H1076 0.930 . S
C1086 C1084 1.419 . S
C1086 C1087 1.362 . S
C1087 H1077 0.930 . S
C1087 C1080 1.409 1_565 S
C1087 C1086 1.362 . S
H1088 C1094 0.930 . S
H1089 C1097 0.930 . S
H1090 C1098 0.930 . S
H1091 C1099 0.930 . S
H1092 C1102 0.930 . S
H1093 C1103 0.930 . S
C1094 H1088 0.930 . S
C1094 C1095 1.355 . S
C1094 C1096 1.415 . S
C1095 C1094 1.355 . S
C1095 C1097 1.419 . S
C1096 C1094 1.415 . S
C1096 C1101 1.425 1_565 S
C1096 C1103 1.409 1_565 S
C1097 H1089 0.930 . S
C1097 C1095 1.419 . S
C1097 C1098 1.362 . S
C1098 H1090 0.930 . S
C1098 C1097 1.362 . S
C1098 C1101 1.409 1_565 S
C1099 H1091 0.930 . S
C1099 C1100 1.355 . S
C1099 C1101 1.415 . S
C1100 C1099 1.355 . S
C1100 C1102 1.419 . S
C1101 C1096 1.425 1_545 S
C1101 C1098 1.409 1_545 S
C1101 C1099 1.415 . S
C1102 H1092 0.930 . S
C1102 C1100 1.419 . S
C1102 C1103 1.362 . S
C1103 H1093 0.930 . S
C1103 C1096 1.409 1_545 S
C1103 C1102 1.362 . S
H1104 C1110 0.930 . S
H1105 C1113 0.930 . S
H1106 C1114 0.930 . S
H1107 C1115 0.930 . S
H1108 C1118 0.930 . S
H1109 C1119 0.930 . S
C1110 H1104 0.930 . S
C1110 C1111 1.355 . S
C1110 C1112 1.415 . S
C1111 C1110 1.355 . S
C1111 C1113 1.419 . S
C1112 C1110 1.415 . S
C1112 C1117 1.425 1_565 S
C1112 C1119 1.409 1_565 S
C1113 H1105 0.930 . S
C1113 C1111 1.419 . S
C1113 C1114 1.362 . S
C1114 H1106 0.930 . S
C1114 C1113 1.362 . S
C1114 C1117 1.409 1_565 S
C1115 H1107 0.930 . S
C1115 C1116 1.355 . S
C1115 C1117 1.415 . S
C1116 C1115 1.355 . S
C1116 C1118 1.419 . S
C1117 C1112 1.425 1_545 S
C1117 C1114 1.409 1_545 S
C1117 C1115 1.415 . S
C1118 H1108 0.930 . S
C1118 C1116 1.419 . S
C1118 C1119 1.362 . S
C1119 H1109 0.930 . S
C1119 C1112 1.409 1_545 S
C1119 C1118 1.362 . S
H1120 C1126 0.930 . S
H1121 C1129 0.930 . S
H1122 C1130 0.930 . S
H1123 C1131 0.930 . S
H1124 C1134 0.930 . S
H1125 C1135 0.930 . S
C1126 H1120 0.930 . S
C1126 C1127 1.355 . S
C1126 C1128 1.415 . S
C1127 C1126 1.355 . S
C1127 C1129 1.419 . S
C1128 C1126 1.415 . S
C1128 C1133 1.425 . S
C1128 C1135 1.409 . S
C1129 H1121 0.930 . S
C1129 C1127 1.419 . S
C1129 C1130 1.362 . S
C1130 H1122 0.930 . S
C1130 C1129 1.362 . S
C1130 C1133 1.409 . S
C1131 H1123 0.930 . S
C1131 C1132 1.355 . S
C1131 C1133 1.415 . S
C1132 C1131 1.355 . S
C1132 C1134 1.419 . S
C1133 C1128 1.425 . S
C1133 C1130 1.409 . S
C1133 C1131 1.415 . S
C1134 H1124 0.930 . S
C1134 C1132 1.419 . S
C1134 C1135 1.362 . S
C1135 H1125 0.930 . S
C1135 C1128 1.409 . S
C1135 C1134 1.362 . S
H1136 C1142 0.930 . S
H1137 C1145 0.930 . S
H1138 C1146 0.930 . S
H1139 C1147 0.930 . S
H1140 C1150 0.930 . S
H1141 C1151 0.930 . S
C1142 H1136 0.930 . S
C1142 C1143 1.355 . S
C1142 C1144 1.415 . S
C1143 C1142 1.355 . S
C1143 C1145 1.419 . S
C1144 C1142 1.415 . S
C1144 C1149 1.425 . S
C1144 C1151 1.409 . S
C1145 H1137 0.930 . S
C1145 C1143 1.419 . S
C1145 C1146 1.362 . S
C1146 H1138 0.930 . S
C1146 C1145 1.362 . S
C1146 C1149 1.409 . S
C1147 H1139 0.930 . S
C1147 C1148 1.355 . S
C1147 C1149 1.415 . S
C1148 C1147 1.355 . S
C1148 C1150 1.419 . S
C1149 C1144 1.425 . S
C1149 C1146 1.409 . S
C1149 C1147 1.415 . S
C1150 H1140 0.930 . S
C1150 C1148 1.419 . S
C1150 C1151 1.362 . S
C1151 H1141 0.930 . S
C1151 C1144 1.409 . S
C1151 C1150 1.362 . S
H1152 C1158 0.930 . S
H1153 C1161 0.930 . S
H1154 C1162 0.930 . S
H1155 C1163 0.930 . S
H1156 C1166 0.930 . S
H1157 C1167 0.930 . S
C1158 H1152 0.930 . S
C1158 C1159 1.355 . S
C1158 C1160 1.415 . S
C1159 C1158 1.355 . S
C1159 C1161 1.419 . S
C1160 C1158 1.415 . S
C1160 C1165 1.425 . S
C1160 C1167 1.409 . S
C1161 H1153 0.930 . S
C1161 C1159 1.419 . S
C1161 C1162 1.362 . S
C1162 H1154 0.930 . S
C1162 C1161 1.362 . S
C1162 C1165 1.409 . S
C1163 H1155 0.930 . S
C1163 C1164 1.355 . S
C1163 C1165 1.415 . S
C1164 C1163 1.355 . S
C1164 C1166 1.419 . S
C1165 C1160 1.425 . S
C1165 C1162 1.409 . S
C1165 C1163 1.415 . S
C1166 H1156 0.930 . S
C1166 C1164 1.419 . S
C1166 C1167 1.362 . S
C1167 H1157 0.930 . S
C1167 C1160 1.409 . S
C1167 C1166 1.362 . S
H1168 C1174 0.930 . S
H1169 C1177 0.930 . S
H1170 C1178 0.930 . S
H1171 C1179 0.930 . S
H1172 C1182 0.930 . S
H1173 C1183 0.930 . S
C1174 H1168 0.930 . S
C1174 C1175 1.355 . S
C1174 C1176 1.415 . S
C1175 C1174 1.355 . S
C1175 C1177 1.419 . S
C1176 C1174 1.415 . S
C1176 C1181 1.425 . S
C1176 C1183 1.409 . S
C1177 H1169 0.930 . S
C1177 C1175 1.419 . S
C1177 C1178 1.362 . S
C1178 H1170 0.930 . S
C1178 C1177 1.362 . S
C1178 C1181 1.409 . S
C1179 H1171 0.930 . S
C1179 C1180 1.355 . S
C1179 C1181 1.415 . S
C1180 C1179 1.355 . S
C1180 C1182 1.419 . S
C1181 C1176 1.425 . S
C1181 C1178 1.409 . S
C1181 C1179 1.415 . S
C1182 H1172 0.930 . S
C1182 C1180 1.419 . S
C1182 C1183 1.362 . S
C1183 H1173 0.930 . S
C1183 C1176 1.409 . S
C1183 C1182 1.362 . S
H1184 C1190 0.930 . S
H1185 C1193 0.930 . S
H1186 C1194 0.930 . S
H1187 C1195 0.930 . S
H1188 C1198 0.930 . S
H1189 C1199 0.930 . S
C1190 H1184 0.930 . S
C1190 C1191 1.355 . S
C1190 C1192 1.415 . S
C1191 C1190 1.355 . S
C1191 C1193 1.419 1_655 S
C1192 C1190 1.415 . S
C1192 C1197 1.425 1_655 S
C1192 C1199 1.409 . S
C1193 H1185 0.930 . S
C1193 C1191 1.419 1_455 S
C1193 C1194 1.362 . S
C1194 H1186 0.930 . S
C1194 C1193 1.362 . S
C1194 C1197 1.409 . S
C1195 H1187 0.930 . S
C1195 C1196 1.355 . S
C1195 C1197 1.415 . S
C1196 C1195 1.355 . S
C1196 C1198 1.419 1_455 S
C1197 C1192 1.425 1_455 S
C1197 C1194 1.409 . S
C1197 C1195 1.415 . S
C1198 H1188 0.930 . S
C1198 C1196 1.419 1_655 S
C1198 C1199 1.362 . S
C1199 H1189 0.930 . S
C1199 C1192 1.409 . S
C1199 C1198 1.362 . S
H1200 C1206 0.930 . S
H1201 C1209 0.930 . S
H1202 C1210 0.930 . S
H1203 C1211 0.930 . S
H1204 C1214 0.930 . S
H1205 C1215 0.930 . S
C1206 H1200 0.930 . S
C1206 C1207 1.355 . S
C1206 C1208 1.415 . S
C1207 C1206 1.355 . S
C1207 C1209 1.419 . S
C1208 C1206 1.415 . S
C1208 C1213 1.425 . S
C1208 C1215 1.409 . S
C1209 H1201 0.930 . S
C1209 C1207 1.419 . S
C1209 C1210 1.362 . S
C1210 H1202 0.930 . S
C1210 C1209 1.362 . S
C1210 C1213 1.409 . S
C1211 H1203 0.930 . S
C1211 C1212 1.355 . S
C1211 C1213 1.415 . S
C1212 C1211 1.355 . S
C1212 C1214 1.419 . S
C1213 C1208 1.425 . S
C1213 C1210 1.409 . S
C1213 C1211 1.415 . S
C1214 H1204 0.930 . S
C1214 C1212 1.419 . S
C1214 C1215 1.362 . S
C1215 H1205 0.930 . S
C1215 C1208 1.409 . S
C1215 C1214 1.362 . S
H1216 C1222 0.930 . S
H1217 C1225 0.930 . S
H1218 C1226 0.930 . S
H1219 C1227 0.930 . S
H1220 C1230 0.930 . S
H1221 C1231 0.930 . S
C1222 H1216 0.930 . S
C1222 C1223 1.355 . S
C1222 C1224 1.415 . S
C1223 C1222 1.355 . S
C1223 C1225 1.419 . S
C1224 C1222 1.415 . S
C1224 C1229 1.425 . S
C1224 C1231 1.409 . S
C1225 H1217 0.930 . S
C1225 C1223 1.419 . S
C1225 C1226 1.362 . S
C1226 H1218 0.930 . S
C1226 C1225 1.362 . S
C1226 C1229 1.409 . S
C1227 H1219 0.930 . S
C1227 C1228 1.355 . S
C1227 C1229 1.415 . S
C1228 C1227 1.355 . S
C1228 C1230 1.419 . S
C1229 C1224 1.425 . S
C1229 C1226 1.409 . S
C1229 C1227 1.415 . S
C1230 H1220 0.930 . S
C1230 C1228 1.419 . S
C1230 C1231 1.362 . S
C1231 H1221 0.930 . S
C1231 C1224 1.409 . S
C1231 C1230 1.362 . S
H1232 C1238 0.930 . S
H1233 C1241 0.930 . S
H1234 C1242 0.930 . S
H1235 C1243 0.930 . S
H1236 C1246 0.930 . S
H1237 C1247 0.930 . S
C1238 H1232 0.930 . S
C1238 C1239 1.355 1_455 S
C1238 C1240 1.415 . S
C1239 C1238 1.355 1_655 S
C1239 C1241 1.419 . S
C1240 C1238 1.415 . S
C1240 C1245 1.425 1_455 S
C1240 C1247 1.409 . S
C1241 H1233 0.930 . S
C1241 C1239 1.419 . S
C1241 C1242 1.362 . S
C1242 H1234 0.930 . S
C1242 C1241 1.362 . S
C1242 C1245 1.409 . S
C1243 H1235 0.930 . S
C1243 C1244 1.355 1_655 S
C1243 C1245 1.415 . S
C1244 C1243 1.355 1_455 S
C1244 C1246 1.419 . S
C1245 C1240 1.425 1_655 S
C1245 C1242 1.409 . S
C1245 C1243 1.415 . S
C1246 H1236 0.930 . S
C1246 C1244 1.419 . S
C1246 C1247 1.362 . S
C1247 H1237 0.930 . S
C1247 C1240 1.409 . S
C1247 C1246 1.362 . S
H1248 C1254 0.930 . S
H1249 C1257 0.930 . S
H1250 C1258 0.930 . S
H1251 C1259 0.930 . S
H1252 C1262 0.930 . S
H1253 C1263 0.930 . S
C1254 H1248 0.930 . S
C1254 C1255 1.355 . S
C1254 C1256 1.415 . S
C1255 C1254 1.355 . S
C1255 C1257 1.419 1_455 S
C1256 C1254 1.415 . S
C1256 C1261 1.425 1_455 S
C1256 C1263 1.409 . S
C1257 H1249 0.930 . S
C1257 C1255 1.419 1_655 S
C1257 C1258 1.362 . S
C1258 H1250 0.930 . S
C1258 C1257 1.362 . S
C1258 C1261 1.409 . S
C1259 H1251 0.930 . S
C1259 C1260 1.355 . S
C1259 C1261 1.415 . S
C1260 C1259 1.355 . S
C1260 C1262 1.419 1_655 S
C1261 C1256 1.425 1_655 S
C1261 C1258 1.409 . S
C1261 C1259 1.415 . S
C1262 H1252 0.930 . S
C1262 C1260 1.419 1_455 S
C1262 C1263 1.362 . S
C1263 H1253 0.930 . S
C1263 C1256 1.409 . S
C1263 C1262 1.362 . S
H1264 C1270 0.930 . S
H1265 C1273 0.930 . S
H1266 C1274 0.930 . S
H1267 C1275 0.930 . S
H1268 C1278 0.930 . S
H1269 C1279 0.930 . S
C1270 H1264 0.930 . S
C1270 C1271 1.355 . S
C1270 C1272 1.415 . S
C1271 C1270 1.355 . S
C1271 C1273 1.419 . S
C1272 C1270 1.415 . S
C1272 C1277 1.425 . S
C1272 C1279 1.409 . S
C1273 H1265 0.930 . S
C1273 C1271 1.419 . S
C1273 C1274 1.362 . S
C1274 H1266 0.930 . S
C1274 C1273 1.362 . S
C1274 C1277 1.409 . S
C1275 H1267 0.930 . S
C1275 C1276 1.355 . S
C1275 C1277 1.415 . S
C1276 C1275 1.355 . S
C1276 C1278 1.419 . S
C1277 C1272 1.425 . S
C1277 C1274 1.409 . S
C1277 C1275 1.415 . S
C1278 H1268 0.930 . S
C1278 C1276 1.419 . S
C1278 C1279 1.362 . S
C1279 H1269 0.930 . S
C1279 C1272 1.409 . S
C1279 C1278 1.362 . S
H1280 C1286 0.930 . S
H1281 C1289 0.930 . S
H1282 C1290 0.930 . S
H1283 C1291 0.930 . S
H1284 C1294 0.930 . S
H1285 C1295 0.930 . S
C1286 H1280 0.930 . S
C1286 C1287 1.355 . S
C1286 C1288 1.415 . S
C1287 C1286 1.355 . S
C1287 C1289 1.419 . S
C1288 C1286 1.415 . S
C1288 C1293 1.425 . S
C1288 C1295 1.409 . S
C1289 H1281 0.930 . S
C1289 C1287 1.419 . S
C1289 C1290 1.362 . S
C1290 H1282 0.930 . S
C1290 C1289 1.362 . S
C1290 C1293 1.409 . S
C1291 H1283 0.930 . S
C1291 C1292 1.355 . S
C1291 C1293 1.415 . S
C1292 C1291 1.355 . S
C1292 C1294 1.419 . S
C1293 C1288 1.425 . S
C1293 C1290 1.409 . S
C1293 C1291 1.415 . S
C1294 H1284 0.930 . S
C1294 C1292 1.419 . S
C1294 C1295 1.362 . S
C1295 H1285 0.930 . S
C1295 C1288 1.409 . S
C1295 C1294 1.362 . S
H1296 C1302 0.930 . S
H1297 C1305 0.930 . S
H1298 C1306 0.930 . S
H1299 C1307 0.930 . S
H1300 C1310 0.930 . S
H1301 C1311 0.930 . S
C1302 H1296 0.930 . S
C1302 C1303 1.355 . S
C1302 C1304 1.415 . S
C1303 C1302 1.355 . S
C1303 C1305 1.419 1_455 S
C1304 C1302 1.415 . S
C1304 C1309 1.425 1_455 S
C1304 C1311 1.409 . S
C1305 H1297 0.930 . S
C1305 C1303 1.419 1_655 S
C1305 C1306 1.362 . S
C1306 H1298 0.930 . S
C1306 C1305 1.362 . S
C1306 C1309 1.409 . S
C1307 H1299 0.930 . S
C1307 C1308 1.355 . S
C1307 C1309 1.415 . S
C1308 C1307 1.355 . S
C1308 C1310 1.419 1_655 S
C1309 C1304 1.425 1_655 S
C1309 C1306 1.409 . S
C1309 C1307 1.415 . S
C1310 H1300 0.930 . S
C1310 C1308 1.419 1_455 S
C1310 C1311 1.362 . S
C1311 H1301 0.930 . S
C1311 C1304 1.409 . S
C1311 C1310 1.362 . S
H1312 C1318 0.930 . S
H1313 C1321 0.930 . S
H1314 C1322 0.930 . S
H1315 C1323 0.930 . S
H1316 C1326 0.930 . S
H1317 C1327 0.930 . S
C1318 H1312 0.930 . S
C1318 C1319 1.355 1_455 S
C1318 C1320 1.415 . S
C1319 C1318 1.355 1_655 S
C1319 C1321 1.419 . S
C1320 C1318 1.415 . S
C1320 C1325 1.425 1_455 S
C1320 C1327 1.409 . S
C1321 H1313 0.930 . S
C1321 C1319 1.419 . S
C1321 C1322 1.362 . S
C1322 H1314 0.930 . S
C1322 C1321 1.362 . S
C1322 C1325 1.409 . S
C1323 H1315 0.930 . S
C1323 C1324 1.355 1_655 S
C1323 C1325 1.415 . S
C1324 C1323 1.355 1_455 S
C1324 C1326 1.419 . S
C1325 C1320 1.425 1_655 S
C1325 C1322 1.409 . S
C1325 C1323 1.415 . S
C1326 H1316 0.930 . S
C1326 C1324 1.419 . S
C1326 C1327 1.362 . S
C1327 H1317 0.930 . S
C1327 C1320 1.409 . S
C1327 C1326 1.362 . S
H1328 C1334 0.930 . S
H1329 C1337 0.930 . S
H1330 C1338 0.930 . S
H1331 C1339 0.930 . S
H1332 C1342 0.930 . S
H1333 C1343 0.930 . S
C1334 H1328 0.930 . S
C1334 C1335 1.355 . S
C1334 C1336 1.415 . S
C1335 C1334 1.355 . S
C1335 C1337 1.419 . S
C1336 C1334 1.415 . S
C1336 C1341 1.425 . S
C1336 C1343 1.409 . S
C1337 H1329 0.930 . S
C1337 C1335 1.419 . S
C1337 C1338 1.362 . S
C1338 H1330 0.930 . S
C1338 C1337 1.362 . S
C1338 C1341 1.409 . S
C1339 H1331 0.930 . S
C1339 C1340 1.355 . S
C1339 C1341 1.415 . S
C1340 C1339 1.355 . S
C1340 C1342 1.419 . S
C1341 C1336 1.425 . S
C1341 C1338 1.409 . S
C1341 C1339 1.415 . S
C1342 H1332 0.930 . S
C1342 C1340 1.419 . S
C1342 C1343 1.362 . S
C1343 H1333 0.930 . S
C1343 C1336 1.409 . S
C1343 C1342 1.362 . S
H1344 C1350 0.930 . S
H1345 C1353 0.930 . S
H1346 C1354 0.930 . S
H1347 C1355 0.930 . S
H1348 C1358 0.930 . S
H1349 C1359 0.930 . S
C1350 H1344 0.930 . S
C1350 C1351 1.355 1_655 S
C1350 C1352 1.415 . S
C1351 C1350 1.355 1_455 S
C1351 C1353 1.419 . S
C1352 C1350 1.415 . S
C1352 C1357 1.425 1_655 S
C1352 C1359 1.409 . S
C1353 H1345 0.930 . S
C1353 C1351 1.419 . S
C1353 C1354 1.362 . S
C1354 H1346 0.930 . S
C1354 C1353 1.362 . S
C1354 C1357 1.409 . S
C1355 H1347 0.930 . S
C1355 C1356 1.355 1_455 S
C1355 C1357 1.415 . S
C1356 C1355 1.355 1_655 S
C1356 C1358 1.419 . S
C1357 C1352 1.425 1_455 S
C1357 C1354 1.409 . S
C1357 C1355 1.415 . S
C1358 H1348 0.930 . S
C1358 C1356 1.419 . S
C1358 C1359 1.362 . S
C1359 H1349 0.930 . S
C1359 C1352 1.409 . S
C1359 C1358 1.362 . S
H1360 C1366 0.930 . S
H1361 C1369 0.930 . S
H1362 C1370 0.930 . S
H1363 C1371 0.930 . S
H1364 C1374 0.930 . S
H1365 C1375 0.930 . S
C1366 H1360 0.930 . S
C1366 C1367 1.355 . S
C1366 C1368 1.415 . S
C1367 C1366 1.355 . S
C1367 C1369 1.419 . S
C1368 C1366 1.415 . S
C1368 C1373 1.425 . S
C1368 C1375 1.409 . S
C1369 H1361 0.930 . S
C1369 C1367 1.419 . S
C1369 C1370 1.362 . S
C1370 H1362 0.930 . S
C1370 C1369 1.362 . S
C1370 C1373 1.409 . S
C1371 H1363 0.930 . S
C1371 C1372 1.355 . S
C1371 C1373 1.415 . S
C1372 C1371 1.355 . S
C1372 C1374 1.419 . S
C1373 C1368 1.425 . S
C1373 C1370 1.409 . S
C1373 C1371 1.415 . S
C1374 H1364 0.930 . S
C1374 C1372 1.419 . S
C1374 C1375 1.362 . S
C1375 H1365 0.930 . S
C1375 C1368 1.409 . S
C1375 C1374 1.362 . S
H1376 C1382 0.930 . S
H1377 C1385 0.930 . S
H1378 C1386 0.930 . S
H1379 C1387 0.930 . S
H1380 C1390 0.930 . S
H1381 C1391 0.930 . S
C1382 H1376 0.930 . S
C1382 C1383 1.355 . S
C1382 C1384 1.415 . S
C1383 C1382 1.355 . S
C1383 C1385 1.419 . S
C1384 C1382 1.415 . S
C1384 C1389 1.425 . S
C1384 C1391 1.409 . S
C1385 H1377 0.930 . S
C1385 C1383 1.419 . S
C1385 C1386 1.362 . S
C1386 H1378 0.930 . S
C1386 C1385 1.362 . S
C1386 C1389 1.409 . S
C1387 H1379 0.930 . S
C1387 C1388 1.355 . S
C1387 C1389 1.415 . S
C1388 C1387 1.355 . S
C1388 C1390 1.419 . S
C1389 C1384 1.425 . S
C1389 C1386 1.409 . S
C1389 C1387 1.415 . S
C1390 H1380 0.930 . S
C1390 C1388 1.419 . S
C1390 C1391 1.362 . S
C1391 H1381 0.930 . S
C1391 C1384 1.409 . S
C1391 C1390 1.362 . S
H1392 C1398 0.930 . S
H1393 C1401 0.930 . S
H1394 C1402 0.930 . S
H1395 C1403 0.930 . S
H1396 C1406 0.930 . S
H1397 C1407 0.930 . S
C1398 H1392 0.930 . S
C1398 C1399 1.355 . S
C1398 C1400 1.415 . S
C1399 C1398 1.355 . S
C1399 C1401 1.419 1_655 S
C1400 C1398 1.415 . S
C1400 C1405 1.425 1_655 S
C1400 C1407 1.409 . S
C1401 H1393 0.930 . S
C1401 C1399 1.419 1_455 S
C1401 C1402 1.362 . S
C1402 H1394 0.930 . S
C1402 C1401 1.362 . S
C1402 C1405 1.409 . S
C1403 H1395 0.930 . S
C1403 C1404 1.355 . S
C1403 C1405 1.415 . S
C1404 C1403 1.355 . S
C1404 C1406 1.419 1_455 S
C1405 C1400 1.425 1_455 S
C1405 C1402 1.409 . S
C1405 C1403 1.415 . S
C1406 H1396 0.930 . S
C1406 C1404 1.419 1_655 S
C1406 C1407 1.362 . S
C1407 H1397 0.930 . S
C1407 C1400 1.409 . S
C1407 C1406 1.362 . S
H1408 C1414 0.930 . S
H1409 C1417 0.930 . S
H1410 C1418 0.930 . S
H1411 C1419 0.930 . S
H1412 C1422 0.930 . S
H1413 C1423 0.930 . S
C1414 H1408 0.930 . S
C1414 C1415 1.355 . S
C1414 C1416 1.415 . S
C1415 C1414 1.355 . S
C1415 C1417 1.419 . S
C1416 C1414 1.415 . S
C1416 C1421 1.425 . S
C1416 C1423 1.409 . S
C1417 H1409 0.930 . S
C1417 C1415 1.419 . S
C1417 C1418 1.362 . S
C1418 H1410 0.930 . S
C1418 C1417 1.362 . S
C1418 C1421 1.409 . S
C1419 H1411 0.930 . S
C1419 C1420 1.355 . S
C1419 C1421 1.415 . S
C1420 C1419 1.355 . S
C1420 C1422 1.419 . S
C1421 C1416 1.425 . S
C1421 C1418 1.409 . S
C1421 C1419 1.415 . S
C1422 H1412 0.930 . S
C1422 C1420 1.419 . S
C1422 C1423 1.362 . S
C1423 H1413 0.930 . S
C1423 C1416 1.409 . S
C1423 C1422 1.362 . S
H1424 C1430 0.930 . S
H1425 C1433 0.930 . S
H1426 C1434 0.930 . S
H1427 C1435 0.930 . S
H1428 C1438 0.930 . S
H1429 C1439 0.930 . S
C1430 H1424 0.930 . S
C1430 C1431 1.355 . S
C1430 C1432 1.415 . S
C1431 C1430 1.355 . S
C1431 C1433 1.419 . S
C1432 C1430 1.415 . S
C1432 C1437 1.425 1_655 S
C1432 C1439 1.409 . S
C1433 H1425 0.930 . S
C1433 C1431 1.419 . S
C1433 C1434 1.362 1_655 S
C1434 H1426 0.930 . S
C1434 C1433 1.362 1_455 S
C1434 C1437 1.409 . S
C1435 H1427 0.930 . S
C1435 C1436 1.355 . S
C1435 C1437 1.415 . S
C1436 C1435 1.355 . S
C1436 C1438 1.419 . S
C1437 C1432 1.425 1_455 S
C1437 C1434 1.409 . S
C1437 C1435 1.415 . S
C1438 H1428 0.930 . S
C1438 C1436 1.419 . S
C1438 C1439 1.362 1_455 S
C1439 H1429 0.930 . S
C1439 C1432 1.409 . S
C1439 C1438 1.362 1_655 S
C551 C28 1.448 . S
C556 C6 1.456 . S
C567 C62 1.433 . S
C572 C40 1.449 . S
C583 C96 1.431 . S
C588 C74 1.451 . S
C599 C108 1.444 . S
C604 C130 1.450 . S
C615 C142 1.451 . S
C620 C164 1.439 . S
C631 C176 1.448 . S
C636 C198 1.449 . S
C647 C210 1.451 . S
C652 C232 1.429 . S
C663 C266 1.454 . S
C668 C244 1.448 . S
C679 C278 1.440 . S
C684 C300 1.448 . S
C695 C312 1.448 . S
C700 C334 1.456 . S
C711 C346 1.448 . S
C716 C368 1.456 . S
C727 C380 1.435 . S
C732 C402 1.449 . S
C743 C414 1.446 . S
C748 C436 1.448 . S
C759 C448 1.448 . S
C764 C470 1.448 . S
C775 C504 1.432 . S
C780 C482 1.451 . S
C791 C516 1.448 . S
C796 C538 1.440 . S
C807 C1 1.848 . S
C812 C171 1.859 . S
C823 C37 1.778 . S
C828 C137 1.793 1_455 S
C839 C71 1.790 . S
C844 C239 1.806 1_655 S
C855 C103 1.777 . S
C860 C205 1.792 . S
C871 C139 1.805 . S
C876 C35 1.821 . S
C887 C173 1.803 . S
C892 C3 1.820 1_655 S
C903 C105 1.812 1_455 S
C908 C207 1.795 . S
C919 C69 1.866 . S
C924 C241 1.855 . S
C935 C273 1.780 . S
C940 C445 1.796 1_655 S
C951 C411 1.862 . S
C956 C309 1.848 . S
C967 C343 1.782 . S
C972 C511 1.795 . S
C983 C477 1.795 1_455 S
C988 C375 1.779 . S
C999 C307 1.798 1_455 S
C1004 C409 1.784 . S
C1015 C443 1.858 . S
C1020 C275 1.869 . S
C1031 C479 1.803 . S
C1036 C377 1.819 . S
C1047 C513 1.848 . S
C1052 C341 1.862 1_655 S
C1063 C22 1.540 . S
C1068 C49 1.541 . S
C1079 C124 1.460 . S
C1084 C83 1.463 . S
C1095 C151 1.521 . S
C1100 C185 1.514 . S
C1111 C253 1.516 . S
C1116 C219 1.509 . S
C1127 C321 1.539 . S
C1132 C294 1.536 . S
C1143 C355 1.506 . S
C1148 C396 1.513 . S
C1159 C430 1.480 . S
C1164 C464 1.487 . S
C1175 C491 1.540 . S
C1180 C525 1.541 . S
C1191 C15 1.703 . S
C1196 C328 1.703 . S
C1207 C56 1.702 . S
C1212 C287 1.702 . S
C1223 C389 1.780 . S
C1228 C90 1.781 . S
C1239 C362 1.782 . S
C1244 C117 1.781 . S
C1255 C158 1.716 . S
C1260 C457 1.716 . S
C1271 C192 1.792 . S
C1276 C423 1.793 . S
C1287 C226 1.800 . S
C1292 C532 1.801 . S
C1303 C498 1.703 . S
C1308 C260 1.703 . S
C1319 C119 1.655 . S
C1324 C17 1.655 . S
C1335 C51 1.655 . S
C1340 C85 1.655 . S
C1351 C255 1.656 . S
C1356 C153 1.656 . S
C1367 C187 1.654 . S
C1372 C221 1.654 . S
C1383 C289 1.625 . S
C1388 C391 1.625 . S
C1399 C323 1.629 . S
C1404 C357 1.629 . S
C1415 C527 1.654 . S
C1420 C425 1.654 . S
C1431 C493 1.626 . S
C1436 C459 1.626 . S
