# Generated by pormake.
# Topology sxg, (6)-cn, num edge types: 1
# Building blocks:
#     Node 0, Type 0, BuildingBlock: PAMTUU_clean_sbu_0, # of connection points: 6
#     Node 1, Type 0, BuildingBlock: PAMTUU_clean_sbu_0, # of connection points: 6
#     Node 2, Type 0, BuildingBlock: PAMTUU_clean_sbu_0, # of connection points: 6
#     Node 3, Type 0, BuildingBlock: PAMTUU_clean_sbu_0, # of connection points: 6
#     Node 4, Type 0, BuildingBlock: PAMTUU_clean_sbu_0, # of connection points: 6
#     Node 5, Type 0, BuildingBlock: PAMTUU_clean_sbu_0, # of connection points: 6
#     Node 6, Type 0, BuildingBlock: PAMTUU_clean_sbu_0, # of connection points: 6
#     Node 7, Type 0, BuildingBlock: PAMTUU_clean_sbu_0, # of connection points: 6
#     Node 8, Type 0, BuildingBlock: PAMTUU_clean_sbu_0, # of connection points: 6
#     Node 9, Type 0, BuildingBlock: PAMTUU_clean_sbu_0, # of connection points: 6
#     Node 10, Type 0, BuildingBlock: PAMTUU_clean_sbu_0, # of connection points: 6
#     Node 11, Type 0, BuildingBlock: PAMTUU_clean_sbu_0, # of connection points: 6
#     Node 12, Type 0, BuildingBlock: PAMTUU_clean_sbu_0, # of connection points: 6
#     Node 13, Type 0, BuildingBlock: PAMTUU_clean_sbu_0, # of connection points: 6
#     Node 14, Type 0, BuildingBlock: PAMTUU_clean_sbu_0, # of connection points: 6
#     Node 15, Type 0, BuildingBlock: PAMTUU_clean_sbu_0, # of connection points: 6
#     Node 16, Type 0, BuildingBlock: PAMTUU_clean_sbu_0, # of connection points: 6
#     Node 17, Type 0, BuildingBlock: PAMTUU_clean_sbu_0, # of connection points: 6
#     Node 18, Type 0, BuildingBlock: PAMTUU_clean_sbu_0, # of connection points: 6
#     Node 19, Type 0, BuildingBlock: PAMTUU_clean_sbu_0, # of connection points: 6
#     Node 20, Type 0, BuildingBlock: PAMTUU_clean_sbu_0, # of connection points: 6
#     Node 21, Type 0, BuildingBlock: PAMTUU_clean_sbu_0, # of connection points: 6
#     Node 22, Type 0, BuildingBlock: PAMTUU_clean_sbu_0, # of connection points: 6
#     Node 23, Type 0, BuildingBlock: PAMTUU_clean_sbu_0, # of connection points: 6
#     Edge 24, Type (0, 0), BuildingBlock: EZIPEK_clean_linker_0, # of connection points: 2
#     Edge 25, Type (0, 0), BuildingBlock: EZIPEK_clean_linker_0, # of connection points: 2
#     Edge 26, Type (0, 0), BuildingBlock: EZIPEK_clean_linker_0, # of connection points: 2
#     Edge 27, Type (0, 0), BuildingBlock: EZIPEK_clean_linker_0, # of connection points: 2
#     Edge 28, Type (0, 0), BuildingBlock: EZIPEK_clean_linker_0, # of connection points: 2
#     Edge 29, Type (0, 0), BuildingBlock: EZIPEK_clean_linker_0, # of connection points: 2
#     Edge 30, Type (0, 0), BuildingBlock: EZIPEK_clean_linker_0, # of connection points: 2
#     Edge 31, Type (0, 0), BuildingBlock: EZIPEK_clean_linker_0, # of connection points: 2
#     Edge 32, Type (0, 0), BuildingBlock: EZIPEK_clean_linker_0, # of connection points: 2
#     Edge 33, Type (0, 0), BuildingBlock: EZIPEK_clean_linker_0, # of connection points: 2
#     Edge 34, Type (0, 0), BuildingBlock: EZIPEK_clean_linker_0, # of connection points: 2
#     Edge 35, Type (0, 0), BuildingBlock: EZIPEK_clean_linker_0, # of connection points: 2
#     Edge 36, Type (0, 0), BuildingBlock: EZIPEK_clean_linker_0, # of connection points: 2
#     Edge 37, Type (0, 0), BuildingBlock: EZIPEK_clean_linker_0, # of connection points: 2
#     Edge 38, Type (0, 0), BuildingBlock: EZIPEK_clean_linker_0, # of connection points: 2
#     Edge 39, Type (0, 0), BuildingBlock: EZIPEK_clean_linker_0, # of connection points: 2
#     Edge 40, Type (0, 0), BuildingBlock: EZIPEK_clean_linker_0, # of connection points: 2
#     Edge 41, Type (0, 0), BuildingBlock: EZIPEK_clean_linker_0, # of connection points: 2
#     Edge 42, Type (0, 0), BuildingBlock: EZIPEK_clean_linker_0, # of connection points: 2
#     Edge 43, Type (0, 0), BuildingBlock: EZIPEK_clean_linker_0, # of connection points: 2
#     Edge 44, Type (0, 0), BuildingBlock: EZIPEK_clean_linker_0, # of connection points: 2
#     Edge 45, Type (0, 0), BuildingBlock: EZIPEK_clean_linker_0, # of connection points: 2
#     Edge 46, Type (0, 0), BuildingBlock: EZIPEK_clean_linker_0, # of connection points: 2
#     Edge 47, Type (0, 0), BuildingBlock: EZIPEK_clean_linker_0, # of connection points: 2
#     Edge 48, Type (0, 0), BuildingBlock: EZIPEK_clean_linker_0, # of connection points: 2
#     Edge 49, Type (0, 0), BuildingBlock: EZIPEK_clean_linker_0, # of connection points: 2
#     Edge 50, Type (0, 0), BuildingBlock: EZIPEK_clean_linker_0, # of connection points: 2
#     Edge 51, Type (0, 0), BuildingBlock: EZIPEK_clean_linker_0, # of connection points: 2
#     Edge 52, Type (0, 0), BuildingBlock: EZIPEK_clean_linker_0, # of connection points: 2
#     Edge 53, Type (0, 0), BuildingBlock: EZIPEK_clean_linker_0, # of connection points: 2
#     Edge 54, Type (0, 0), BuildingBlock: EZIPEK_clean_linker_0, # of connection points: 2
#     Edge 55, Type (0, 0), BuildingBlock: EZIPEK_clean_linker_0, # of connection points: 2
#     Edge 56, Type (0, 0), BuildingBlock: EZIPEK_clean_linker_0, # of connection points: 2
#     Edge 57, Type (0, 0), BuildingBlock: EZIPEK_clean_linker_0, # of connection points: 2
#     Edge 58, Type (0, 0), BuildingBlock: EZIPEK_clean_linker_0, # of connection points: 2
#     Edge 59, Type (0, 0), BuildingBlock: EZIPEK_clean_linker_0, # of connection points: 2
#     Edge 60, Type (0, 0), BuildingBlock: EZIPEK_clean_linker_0, # of connection points: 2
#     Edge 61, Type (0, 0), BuildingBlock: EZIPEK_clean_linker_0, # of connection points: 2
#     Edge 62, Type (0, 0), BuildingBlock: EZIPEK_clean_linker_0, # of connection points: 2
#     Edge 63, Type (0, 0), BuildingBlock: EZIPEK_clean_linker_0, # of connection points: 2
#     Edge 64, Type (0, 0), BuildingBlock: EZIPEK_clean_linker_0, # of connection points: 2
#     Edge 65, Type (0, 0), BuildingBlock: EZIPEK_clean_linker_0, # of connection points: 2
#     Edge 66, Type (0, 0), BuildingBlock: EZIPEK_clean_linker_0, # of connection points: 2
#     Edge 67, Type (0, 0), BuildingBlock: EZIPEK_clean_linker_0, # of connection points: 2
#     Edge 68, Type (0, 0), BuildingBlock: EZIPEK_clean_linker_0, # of connection points: 2
#     Edge 69, Type (0, 0), BuildingBlock: EZIPEK_clean_linker_0, # of connection points: 2
#     Edge 70, Type (0, 0), BuildingBlock: EZIPEK_clean_linker_0, # of connection points: 2
#     Edge 71, Type (0, 0), BuildingBlock: EZIPEK_clean_linker_0, # of connection points: 2
#     Edge 72, Type (0, 0), BuildingBlock: EZIPEK_clean_linker_0, # of connection points: 2
#     Edge 73, Type (0, 0), BuildingBlock: EZIPEK_clean_linker_0, # of connection points: 2
#     Edge 74, Type (0, 0), BuildingBlock: EZIPEK_clean_linker_0, # of connection points: 2
#     Edge 75, Type (0, 0), BuildingBlock: EZIPEK_clean_linker_0, # of connection points: 2
#     Edge 76, Type (0, 0), BuildingBlock: EZIPEK_clean_linker_0, # of connection points: 2
#     Edge 77, Type (0, 0), BuildingBlock: EZIPEK_clean_linker_0, # of connection points: 2
#     Edge 78, Type (0, 0), BuildingBlock: EZIPEK_clean_linker_0, # of connection points: 2
#     Edge 79, Type (0, 0), BuildingBlock: EZIPEK_clean_linker_0, # of connection points: 2
#     Edge 80, Type (0, 0), BuildingBlock: EZIPEK_clean_linker_0, # of connection points: 2
#     Edge 81, Type (0, 0), BuildingBlock: EZIPEK_clean_linker_0, # of connection points: 2
#     Edge 82, Type (0, 0), BuildingBlock: EZIPEK_clean_linker_0, # of connection points: 2
#     Edge 83, Type (0, 0), BuildingBlock: EZIPEK_clean_linker_0, # of connection points: 2
#     Edge 84, Type (0, 0), BuildingBlock: EZIPEK_clean_linker_0, # of connection points: 2
#     Edge 85, Type (0, 0), BuildingBlock: EZIPEK_clean_linker_0, # of connection points: 2
#     Edge 86, Type (0, 0), BuildingBlock: EZIPEK_clean_linker_0, # of connection points: 2
#     Edge 87, Type (0, 0), BuildingBlock: EZIPEK_clean_linker_0, # of connection points: 2
#     Edge 88, Type (0, 0), BuildingBlock: EZIPEK_clean_linker_0, # of connection points: 2
#     Edge 89, Type (0, 0), BuildingBlock: EZIPEK_clean_linker_0, # of connection points: 2
#     Edge 90, Type (0, 0), BuildingBlock: EZIPEK_clean_linker_0, # of connection points: 2
#     Edge 91, Type (0, 0), BuildingBlock: EZIPEK_clean_linker_0, # of connection points: 2
#     Edge 92, Type (0, 0), BuildingBlock: EZIPEK_clean_linker_0, # of connection points: 2
#     Edge 93, Type (0, 0), BuildingBlock: EZIPEK_clean_linker_0, # of connection points: 2
#     Edge 94, Type (0, 0), BuildingBlock: EZIPEK_clean_linker_0, # of connection points: 2
#     Edge 95, Type (0, 0), BuildingBlock: EZIPEK_clean_linker_0, # of connection points: 2
# Relax obj value: 0.261
# Max RMSD: 0.283
# Mean RMSD: 0.247
data_MOF--net-sxg--node1-PAMTUU_clean_sbu_0--edge1-EZIPEK_clean_linker_0
_symmetry_space_group_name_H-M    P1
_symmetry_Int_Tables_number       1
_symmetry_cell_setting            triclinic
loop_
_symmetry_equiv_pos_as_xyz
'x, y, z'
_cell_length_a     38.892617
_cell_length_b     44.336733
_cell_length_c     39.36959
_cell_angle_alpha  85.612485
_cell_angle_beta   99.791255
_cell_angle_gamma 84.967766
loop_
_atom_site_label
_atom_site_type_symbol
_atom_site_fract_x
_atom_site_fract_y
_atom_site_fract_z
_atom_type_partial_charge
Tb0 Tb 1.01462 0.26302 0.22685 0.0
Tb1 Tb 0.99308 0.33594 0.21517 0.0
C2 C 0.96737 0.29403 0.15455 0.0
C3 C 0.06457 0.18934 0.26584 0.0
C4 C 0.12339 0.15659 0.3107 0.0
C5 C 0.09659 0.17231 0.32428 0.0
C6 C 0.06752 0.18852 0.30214 0.0
C7 C 0.09146 0.17345 0.25245 0.0
C8 C 0.1205 0.15734 0.27458 0.0
C9 C 0.03408 0.20667 0.24169 0.0
O10 O 0.05657 0.27878 0.20049 0.0
O11 O 0.0409 0.33059 0.1913 0.0
O12 O 0.03178 0.32995 0.26245 0.0
O13 O 0.05739 0.28213 0.25777 0.0
O14 O 0.9521 0.37013 0.1964 0.0
O15 O 1.00345 0.38139 0.2192 0.0
O16 O 0.96107 0.32056 0.25401 0.0
O17 O 0.99068 0.27406 0.2732 0.0
O18 O 0.97442 0.26974 0.17774 0.0
O19 O 0.97575 0.32068 0.16376 0.0
C20 C 0.06299 0.30637 0.18954 0.0
O21 O 1.01012 0.22156 0.25514 0.0
O22 O 0.04127 0.22265 0.21517 0.0
C23 C 0.05797 0.30849 0.27062 0.0
C24 C 0.95375 0.41129 0.23005 0.0
C25 C 0.91221 0.44369 0.26965 0.0
C26 C 0.93797 0.42052 0.28591 0.0
C27 C 0.95845 0.40416 0.26611 0.0
C28 C 0.92938 0.43555 0.21428 0.0
C29 C 0.90876 0.45162 0.23393 0.0
C30 C 0.97063 0.39151 0.20805 0.0
C31 C 0.96892 0.29742 0.27825 0.0
H32 H 0.09815 0.17197 0.35204 0.0
H33 H 0.04743 0.20042 0.31351 0.0
H34 H 0.09006 0.17351 0.22473 0.0
H35 H 0.14075 0.14532 0.26349 0.0
H36 H 0.94089 0.41411 0.31343 0.0
H37 H 0.97687 0.38522 0.27868 0.0
H38 H 0.92518 0.44117 0.18651 0.0
H39 H 0.88896 0.46945 0.221 0.0
Tb40 Tb 0.41593 0.73615 0.80346 0.0
Tb41 Tb 0.44892 0.68659 0.75791 0.0
C42 C 0.46482 0.74985 0.7471 0.0
C43 C 0.38226 0.81355 0.84173 0.0
C44 C 0.35983 0.87164 0.86283 0.0
C45 C 0.36668 0.86881 0.82925 0.0
C46 C 0.37769 0.84037 0.81891 0.0
C47 C 0.37569 0.81636 0.87555 0.0
C48 C 0.36462 0.845 0.88594 0.0
C49 C 0.3944 0.78349 0.82965 0.0
O50 O 0.36839 0.72779 0.77068 0.0
O51 O 0.39563 0.70755 0.72894 0.0
O52 O 0.42448 0.65664 0.78888 0.0
O53 O 0.39603 0.69074 0.81931 0.0
O54 O 0.45955 0.68147 0.70805 0.0
O55 O 0.47102 0.64392 0.74791 0.0
O56 O 0.4909 0.68522 0.80416 0.0
O57 O 0.4698 0.72493 0.83214 0.0
O58 O 0.43409 0.75664 0.75617 0.0
O59 O 0.48082 0.72339 0.75817 0.0
C60 C 0.36723 0.72072 0.739 0.0
O61 O 0.4036 0.75736 0.84833 0.0
O62 O 0.39659 0.78192 0.79725 0.0
C63 C 0.40307 0.66232 0.81025 0.0
C64 C 0.51274 0.65047 0.71225 0.0
C65 C 0.58412 0.64122 0.70773 0.0
C66 C 0.56282 0.61735 0.7033 0.0
C67 C 0.5273 0.62194 0.70561 0.0
C68 C 0.53412 0.6744 0.71647 0.0
C69 C 0.5696 0.66979 0.71428 0.0
C70 C 0.47616 0.65449 0.71757 0.0
C71 C 0.49466 0.70336 0.82952 0.0
H72 H 0.36319 0.88872 0.81077 0.0
H73 H 0.38259 0.83947 0.79272 0.0
H74 H 0.37899 0.79644 0.89395 0.0
H75 H 0.35946 0.84634 0.91199 0.0
H76 H 0.57376 0.59518 0.69819 0.0
H77 H 0.51133 0.60316 0.70267 0.0
H78 H 0.52358 0.69658 0.72184 0.0
H79 H 0.58573 0.68843 0.71763 0.0
Tb80 Tb 0.61935 0.21332 0.75629 0.0
Tb81 Tb 0.59684 0.16173 0.8082 0.0
C82 C 0.5717 0.22712 0.81403 0.0
C83 C 0.64006 0.28863 0.71782 0.0
C84 C 0.64195 0.35161 0.7083 0.0
C85 C 0.62841 0.33894 0.73636 0.0
C86 C 0.62744 0.30746 0.74111 0.0
C87 C 0.65575 0.30123 0.69135 0.0
C88 C 0.65673 0.33257 0.68662 0.0
C89 C 0.63235 0.25695 0.71709 0.0
O90 O 0.66717 0.20386 0.79412 0.0
O91 O 0.64263 0.18377 0.83862 0.0
O92 O 0.6338 0.13586 0.78211 0.0
O93 O 0.63501 0.16999 0.73533 0.0
O94 O 0.58031 0.14945 0.85537 0.0
O95 O 0.58293 0.11736 0.81752 0.0
O96 O 0.55345 0.16743 0.7625 0.0
O97 O 0.57198 0.20187 0.72485 0.0
O98 O 0.59803 0.23518 0.79916 0.0
O99 O 0.56041 0.20096 0.8084 0.0
C100 C 0.6683 0.19827 0.82739 0.0
O101 O 0.65632 0.2359 0.73318 0.0
O102 O 0.60106 0.25181 0.72207 0.0
C103 C 0.64168 0.14208 0.75119 0.0
C104 C 0.53279 0.11854 0.84453 0.0
C105 C 0.46111 0.10669 0.84018 0.0
C106 C 0.48829 0.0879 0.86225 0.0
C107 C 0.52365 0.09369 0.8643 0.0
C108 C 0.5056 0.13752 0.82274 0.0
C109 C 0.47032 0.13159 0.82044 0.0
C110 C 0.57046 0.12371 0.84514 0.0
C111 C 0.54875 0.18421 0.73251 0.0
H112 H 0.61704 0.35347 0.75332 0.0
H113 H 0.61517 0.29804 0.7617 0.0
H114 H 0.66545 0.28701 0.67312 0.0
H115 H 0.66737 0.34213 0.66495 0.0
H116 H 0.48213 0.06853 0.87776 0.0
H117 H 0.54391 0.07854 0.88114 0.0
H118 H 0.51163 0.15686 0.80717 0.0
H119 H 0.45014 0.14647 0.80316 0.0
Tb120 Tb 1.01263 0.77823 0.29697 0.0
Tb121 Tb 0.04144 0.84677 0.31141 0.0
C122 C 0.06528 0.79048 0.36937 0.0
C123 C 0.95982 0.70869 0.27122 0.0
C124 C 0.90918 0.66685 0.24963 0.0
C125 C 0.92778 0.66469 0.28392 0.0
C126 C 0.95269 0.68513 0.29446 0.0
C127 C 0.94074 0.71107 0.23701 0.0
C128 C 0.91588 0.69062 0.22648 0.0
C129 C 0.99056 0.72713 0.28113 0.0
O130 O 0.97577 0.79777 0.32658 0.0
O131 O 0.9983 0.84297 0.34119 0.0
O132 O 0.98923 0.85905 0.28092 0.0
O133 O 0.97272 0.8127 0.26407 0.0
O134 O 0.06726 0.87627 0.34458 0.0
O135 O 0.04725 0.89085 0.29097 0.0
O136 O 0.06953 0.83029 0.27092 0.0
O137 O 0.05953 0.77988 0.27148 0.0
O138 O 0.04463 0.77248 0.35122 0.0
O139 O 0.07152 0.81702 0.35546 0.0
C140 C 0.97551 0.82252 0.34301 0.0
O141 O 0.99628 0.74872 0.25904 0.0
O142 O 0.99897 0.73439 0.31275 0.0
C143 C 0.96663 0.84276 0.26388 0.0
C144 C 0.09725 0.91348 0.3176 0.0
C145 C 0.1548 0.94766 0.31282 0.0
C146 C 0.13788 0.94855 0.34157 0.0
C147 C 0.10941 0.93167 0.3439 0.0
C148 C 0.11446 0.91229 0.28893 0.0
C149 C 0.14295 0.9293 0.28654 0.0
C150 C 0.06529 0.89785 0.31976 0.0
C151 C 0.07524 0.80308 0.26028 0.0
H152 H 0.92344 0.64677 0.30253 0.0
H153 H 0.96717 0.68191 0.32074 0.0
H154 H 0.94567 0.72831 0.21793 0.0
H155 H 0.90221 0.69306 0.19989 0.0
H156 H 0.14657 0.96254 0.36211 0.0
H157 H 0.09649 0.93318 0.36611 0.0
H158 H 0.10567 0.89856 0.26817 0.0
H159 H 0.15565 0.92828 0.26416 0.0
Tb160 Tb 0.32323 0.06968 0.34867 0.0
Tb161 Tb 0.30456 0.02742 0.41847 0.0
C162 C 0.26856 0.019 0.34093 0.0
C163 C 0.35274 0.12493 0.27706 0.0
C164 C 0.3737 0.16947 0.23013 0.0
C165 C 0.33823 0.16443 0.22813 0.0
C166 C 0.32793 0.1425 0.25115 0.0
C167 C 0.38826 0.13031 0.27931 0.0
C168 C 0.39855 0.15239 0.25633 0.0
C169 C 0.34215 0.09797 0.29701 0.0
O170 O 0.27578 0.0943 0.35889 0.0
O171 O 0.25896 0.06157 0.40076 0.0
O172 O 0.32464 0.0687 0.44051 0.0
O173 O 0.34875 0.09004 0.39556 0.0
O174 O 0.26716 1.00862 0.44471 0.0
O175 O 0.32211 0.99698 0.46368 0.0
O176 O 0.35071 1.00321 0.40292 0.0
O177 O 0.34511 0.02261 0.34639 0.0
O178 O 0.28064 0.0432 0.32722 0.0
O179 O 0.27954 1.00747 0.37314 0.0
C180 C 0.25247 0.08539 0.37727 0.0
O181 O 0.36397 0.08285 0.32288 0.0
O182 O 0.30971 0.09744 0.30136 0.0
C183 C 0.34205 0.09011 0.42763 0.0
C184 C 0.28293 0.95856 0.47453 0.0
C185 C 0.26794 0.8978 0.49411 0.0
C186 C 0.29998 0.90325 0.48357 0.0
C187 C 0.30745 0.93317 0.47409 0.0
C188 C 0.25079 0.95288 0.48454 0.0
C189 C 0.24341 0.92313 0.49407 0.0
C190 C 0.29045 0.9911 0.46695 0.0
C191 C 0.35624 1.00048 0.37108 0.0
H192 H 0.31845 0.17728 0.20838 0.0
H193 H 0.30049 0.13866 0.2479 0.0
H194 H 0.40831 0.11687 0.29827 0.0
H195 H 0.42605 0.15584 0.25866 0.0
H196 H 0.31942 0.88434 0.48303 0.0
H197 H 0.33255 0.9364 0.46672 0.0
H198 H 0.23131 0.97168 0.48549 0.0
H199 H 0.21846 0.91991 0.50182 0.0
Tb200 Tb 0.24669 0.04389 0.83006 0.0
Tb201 Tb 0.278 0.05964 0.90656 0.0
C202 C 0.31825 0.0757 0.84547 0.0
C203 C 0.20278 0.99566 0.77462 0.0
C204 C 0.17417 0.93994 0.77738 0.0
C205 C 0.16961 0.95834 0.74586 0.0
C206 C 0.18397 0.9862 0.74445 0.0
C207 C 0.20704 0.97708 0.80591 0.0
C208 C 0.19305 0.94939 0.80731 0.0
C209 C 0.21738 0.02502 0.77512 0.0
O210 O 0.27538 1.00105 0.85367 0.0
O211 O 0.30799 1.01487 0.90334 0.0
O212 O 0.2488 0.02201 0.91539 0.0
O213 O 0.21016 0.03081 0.8648 0.0
O214 O 0.31799 0.07098 0.94498 0.0
O215 O 0.26494 0.0702 0.95406 0.0
O216 O 0.23134 0.09298 0.88605 0.0
O217 O 0.22965 0.09203 0.82819 0.0
O218 O 0.29752 0.06057 0.82425 0.0
O219 O 0.3106 0.0823 0.87538 0.0
C220 C 0.30049 0.99464 0.88062 0.0
O221 O 0.20167 0.04468 0.79181 0.0
O222 O 0.25133 0.02318 0.78453 0.0
C223 C 0.21828 0.01898 0.89717 0.0
C224 C 0.29488 0.11036 0.97354 0.0
C225 C 0.29711 0.17061 0.9898 0.0
C226 C 0.30039 0.14684 1.01626 0.0
C227 C 0.29931 0.11679 1.00814 0.0
C228 C 0.28923 0.13429 0.947 0.0
C229 C 0.29047 0.16431 0.95511 0.0
C230 C 0.29566 0.07888 0.96477 0.0
C231 C 0.21854 0.10456 0.85399 0.0
H232 H 0.15495 0.9511 0.72249 0.0
H233 H 0.18021 1.00031 0.72015 0.0
H234 H 0.22055 0.98418 0.82964 0.0
H235 H 0.19677 0.93543 0.83172 0.0
H236 H 0.30613 0.15139 0.04318 0.0
H237 H 0.30315 0.09857 1.02881 0.0
H238 H 0.28521 0.12963 0.92007 0.0
H239 H 0.28855 0.18234 0.93448 0.0
Tb240 Tb 0.79555 0.58234 0.67539 0.0
Tb241 Tb 0.73037 0.56207 0.62458 0.0
C242 C 0.80503 0.54197 0.61556 0.0
C243 C 0.86487 0.62564 0.71746 0.0
C244 C 0.90449 0.67502 0.72185 0.0
C245 C 0.90842 0.65278 0.74991 0.0
C246 C 0.88867 0.62814 0.7477 0.0
C247 C 0.85932 0.64884 0.69012 0.0
C248 C 0.8792 0.67354 0.69229 0.0
C249 C 0.84831 0.59761 0.7137 0.0
O250 O 0.7887 0.61662 0.63086 0.0
O251 O 0.73237 0.61005 0.60575 0.0
O252 O 0.71243 0.57514 0.67089 0.0
O253 O 0.74938 0.61131 0.68231 0.0
O254 O 0.70949 0.53142 0.59055 0.0
O255 O 0.67684 0.56972 0.60246 0.0
O256 O 0.74917 0.52171 0.66221 0.0
O257 O 0.7797 0.54481 0.7063 0.0
O258 O 0.8126 0.54359 0.64903 0.0
O259 O 0.77517 0.55582 0.59886 0.0
C260 C 0.75918 0.62666 0.60975 0.0
O261 O 0.81762 0.59739 0.72275 0.0
O262 O 0.84939 0.58589 0.68447 0.0
C263 C 0.71919 0.60075 0.68353 0.0
C264 C 0.65579 0.52142 0.60507 0.0
C265 C 0.6375 0.47153 0.64373 0.0
C266 C 0.63806 0.49978 0.65728 0.0
C267 C 0.64724 0.52462 0.63809 0.0
C268 C 0.65157 0.4939 0.59027 0.0
C269 C 0.64252 0.46902 0.60957 0.0
C270 C 0.6775 0.54296 0.59075 0.0
C271 C 0.76565 0.52092 0.6946 0.0
H272 H 0.92805 0.65377 0.77281 0.0
H273 H 0.89307 0.6104 0.76895 0.0
H274 H 0.84091 0.64712 0.66658 0.0
H275 H 0.87621 0.69054 0.67043 0.0
H276 H 0.63414 0.50197 0.68361 0.0
H277 H 0.65051 0.54548 0.65036 0.0
H278 H 0.65836 0.49084 0.56509 0.0
H279 H 0.64199 0.44725 0.59882 0.0
Tb280 Tb 0.73073 0.56204 0.2343 0.0
Tb281 Tb 0.77231 0.52064 0.17781 0.0
C282 C 0.79611 0.51135 0.25946 0.0
C283 C 0.69948 0.61652 0.3021 0.0
C284 C 0.6908 0.65785 0.35451 0.0
C285 C 0.71518 0.6315 0.36164 0.0
C286 C 0.71925 0.6111 0.33603 0.0
C287 C 0.67539 0.64292 0.2951 0.0
C288 C 0.67108 0.66304 0.32065 0.0
C289 C 0.69991 0.59397 0.27476 0.0
O290 O 0.77762 0.5848 0.22792 0.0
O291 O 0.80803 0.55585 0.19298 0.0
O292 O 0.74745 0.56342 0.1491 0.0
O293 O 0.7048 0.57781 0.1804 0.0
O294 O 0.81399 0.49431 0.16145 0.0
O295 O 0.76233 0.50212 0.1299 0.0
O296 O 0.73426 0.49182 0.19481 0.0
O297 O 0.70401 0.51965 0.22981 0.0
O298 O 0.77799 0.53646 0.26529 0.0
O299 O 0.79324 0.50005 0.22931 0.0
C300 C 0.805 0.57903 0.21246 0.0
O301 O 0.70307 0.60338 0.24339 0.0
O302 O 0.71427 0.56606 0.28286 0.0
C303 C 0.71948 0.58107 0.15248 0.0
C304 C 0.79661 0.45556 0.12262 0.0
C305 C 0.80039 0.39934 0.09043 0.0
C306 C 0.7694 0.41073 0.10126 0.0
C307 C 0.7675 0.43839 0.11703 0.0
C308 C 0.82793 0.44341 0.11304 0.0
C309 C 0.82978 0.41589 0.09719 0.0
C310 C 0.7937 0.48764 0.13351 0.0
C311 C 0.71107 0.49404 0.21555 0.0
H312 H 0.73107 0.62662 0.38718 0.0
H313 H 0.73769 0.59093 0.34294 0.0
H314 H 0.65914 0.64782 0.26971 0.0
H315 H 0.65212 0.68289 0.31386 0.0
H316 H 0.7461 0.39894 0.09609 0.0
H317 H 0.74276 0.4469 0.12363 0.0
H318 H 0.85077 0.45595 0.11643 0.0
H319 H 0.85393 0.40812 0.08887 0.0
Tb320 Tb 0.35578 0.32753 0.09576 0.0
Tb321 Tb 0.42575 0.29927 0.06095 0.0
C322 C 0.35059 0.27899 0.04116 0.0
C323 C 0.26636 0.33829 0.12751 0.0
C324 C 0.19885 0.3274 0.14457 0.0
C325 C 0.20722 0.32159 0.112 0.0
C326 C 0.2403 0.32703 0.10355 0.0
C327 C 0.25802 0.34374 0.16015 0.0
C328 C 0.225 0.33836 0.16854 0.0
C329 C 0.3005 0.34749 0.11805 0.0
O330 O 0.36588 0.28082 0.11789 0.0
O331 O 0.42209 0.26784 0.10772 0.0
O332 O 0.45119 0.31457 0.10883 0.0
O333 O 0.40491 0.34154 0.12784 0.0
O334 O 0.45101 0.26325 0.03902 0.0
O335 O 0.47183 0.30643 0.04089 0.0
O336 O 0.4109 0.34604 0.0368 0.0
O337 O 0.35415 0.35456 0.04576 0.0
O338 O 0.34067 0.28801 0.06931 0.0
O339 O 0.37713 0.28959 1.02923 0.0
C340 C 0.39543 0.26291 0.12424 0.0
O341 O 0.33019 0.33717 0.13803 0.0
O342 O 0.30391 0.34896 0.08561 0.0
C343 C 0.4391 0.33181 0.13077 0.0
C344 C 0.48436 0.2766 0.99451 0.0
C345 C 0.51174 0.26707 0.93253 0.0
C346 C 0.51511 0.29439 0.94827 0.0
C347 C 0.50177 0.29903 0.97885 0.0
C348 C 0.48035 0.24956 0.97817 0.0
C349 C 0.49369 0.24494 0.94763 0.0
C350 C 0.47468 0.27953 1.02971 0.0
C351 C 0.37924 0.36073 1.02827 0.0
H352 H 0.18803 0.31289 0.09295 0.0
H353 H 0.24527 0.32273 0.07803 0.0
H354 H 0.27696 0.35276 0.17917 0.0
H355 H 0.21977 0.34295 0.19391 0.0
H356 H 0.52878 0.31191 0.93727 0.0
H357 H 0.50597 0.31995 0.99074 0.0
H358 H 0.46768 0.2315 0.98953 0.0
H359 H 0.49059 0.22368 0.93617 0.0
Tb360 Tb 0.85132 0.23812 0.97516 0.0
Tb361 Tb 0.84204 0.30389 0.93071 0.0
C362 C 0.89175 0.25179 0.90807 0.0
C363 C 0.85875 0.16815 0.04161 0.0
C364 C 0.86619 0.12494 0.09999 0.0
C365 C 0.89598 0.13451 0.08819 0.0
C366 C 0.89229 0.15576 0.05907 0.0
C367 C 0.82922 0.15969 0.05483 0.0
C368 C 0.83291 0.13844 0.0837 0.0
C369 C 0.85371 0.18574 1.00703 0.0
O370 O 0.89276 0.25793 1.00677 0.0
O371 O 0.8817 0.30721 0.98126 0.0
O372 O 0.80468 0.30556 0.96609 0.0
O373 O 0.83466 0.27294 1.00968 0.0
O374 O 0.85981 0.3432 0.90735 0.0
O375 O 0.80492 0.33976 0.90613 0.0
O376 O 0.80853 0.27306 0.89895 0.0
O377 O 0.79902 0.2409 0.94335 0.0
O378 O 0.88055 0.23203 0.93025 0.0
O379 O 0.88171 0.28095 0.90631 0.0
C380 C 0.89896 0.28651 1.00699 0.0
O381 O 0.82533 0.20447 0.99771 0.0
O382 O 0.88057 0.19652 0.99637 0.0
C383 C 0.81488 0.29905 0.99935 0.0
C384 C 0.81888 0.37449 0.86139 0.0
C385 C 0.7985 0.41819 0.80219 0.0
C386 C 0.77392 0.40051 0.81421 0.0
C387 C 0.78391 0.37906 0.84335 0.0
C388 C 0.84363 0.39158 0.84859 0.0
C389 C 0.83364 0.41298 0.81936 0.0
C390 C 0.82808 0.35629 0.89623 0.0
C391 C 0.79031 0.25165 0.91082 0.0
H392 H 0.92192 0.12443 0.10045 0.0
H393 H 0.91559 0.16146 0.04941 0.0
H394 H 0.80299 0.16839 0.04185 0.0
H395 H 0.80959 0.13147 0.09236 0.0
H396 H 0.74666 0.40403 0.80171 0.0
H397 H 0.7638 0.36691 0.85252 0.0
H398 H 0.87059 0.38927 0.86201 0.0
H399 H 0.85318 0.42627 0.81083 0.0
Tb400 Tb 0.71073 0.80853 0.48241 0.0
Tb401 Tb 0.64462 0.78503 0.51777 0.0
C402 C 0.72004 0.74894 0.53848 0.0
C403 C 0.79331 0.82387 0.4423 0.0
C404 C 0.85499 0.8242 0.41267 0.0
C405 C 0.85687 0.82466 0.44856 0.0
C406 C 0.82641 0.82457 0.46318 0.0
C407 C 0.79162 0.82284 0.40637 0.0
C408 C 0.82215 0.82289 0.39175 0.0
C409 C 0.76083 0.82945 0.45726 0.0
O410 O 0.70269 0.76702 0.45778 0.0
O411 O 0.65246 0.75306 0.4768 0.0
O412 O 0.61868 0.80345 0.46605 0.0
O413 O 0.6617 0.82985 0.44763 0.0
O414 O 0.62271 0.75271 0.54801 0.0
O415 O 0.59332 0.79531 0.527 0.0
O416 O 0.65865 0.8266 0.54431 0.0
O417 O 0.7071 0.83981 0.52281 0.0
O418 O 0.73215 0.76497 0.51401 0.0
O419 O 0.69009 0.75751 0.54781 0.0
C420 C 0.6772 0.74927 0.45703 0.0
O421 O 0.73055 0.82561 0.43893 0.0
O422 O 0.76206 0.8216 0.49009 0.0
C423 C 0.62916 0.82192 0.44313 0.0
C424 C 0.57869 0.77273 0.57955 0.0
C425 C 0.54149 0.77309 0.6362 0.0
C426 C 0.53497 0.79705 0.60971 0.0
C427 C 0.55325 0.79688 0.58181 0.0
C428 C 0.58577 0.74907 0.60663 0.0
C429 C 0.56749 0.7493 0.63463 0.0
C430 C 0.59388 0.77042 0.54705 0.0
C431 C 0.68456 0.84422 0.54379 0.0
H432 H 0.88189 0.82567 0.46519 0.0
H433 H 0.82868 0.82609 0.49079 0.0
H434 H 0.7666 0.82295 0.38936 0.0
H435 H 0.82009 0.8225 0.364 0.0
H436 H 0.51483 0.81547 0.61004 0.0
H437 H 0.54648 0.81523 0.56131 0.0
H438 H 0.60462 0.72981 0.60563 0.0
H439 H 0.57275 0.73035 0.65448 0.0
Tb440 Tb 0.18273 0.73199 0.58359 0.0
Tb441 Tb 0.1593 0.78756 0.59865 0.0
C442 C 0.16249 0.7363 0.6591 0.0
C443 C 0.19936 0.65031 0.56137 0.0
C444 C 0.22005 0.60143 0.52482 0.0
C445 C 0.20486 0.5961 0.55431 0.0
C446 C 0.19462 0.62034 0.57241 0.0
C447 C 0.21349 0.65583 0.53118 0.0
C448 C 0.22375 0.63152 0.513 0.0
C449 C 0.19269 0.67465 0.58378 0.0
O450 O 0.15025 0.74034 0.53241 0.0
O451 O 0.13475 0.78876 0.54167 0.0
O452 O 0.19634 0.80655 0.5712 0.0
O453 O 0.2105 0.76173 0.54955 0.0
O454 O 0.10987 0.80523 0.60727 0.0
O455 O 0.15475 0.83111 0.61527 0.0
O456 O 0.20859 0.77783 0.63937 0.0
O457 O 0.23186 0.73773 0.61531 0.0
O458 O 0.15018 0.74377 0.62536 0.0
O459 O 0.14865 0.744 0.62592 0.0
C460 C 0.13371 0.76685 0.52021 0.0
O461 O 0.21752 0.69227 0.59088 0.0
O462 O 0.16167 0.6899 0.57803 0.0
C463 C 0.21333 0.79151 0.55111 0.0
C464 C 0.11362 0.83936 0.65094 0.0
C465 C 0.11538 0.8548 0.71857 0.0
C466 C 0.11869 0.87694 0.69212 0.0
C467 C 0.11792 0.86922 0.6585 0.0
C468 C 0.1063 0.81825 0.67642 0.0
C469 C 0.10745 0.82579 0.71037 0.0
C470 C 0.12201 0.82997 0.61824 0.0
C471 C 0.23491 0.7564 0.63926 0.0
H472 H 0.20181 0.57309 0.56383 0.0
H473 H 0.18399 0.61556 0.59574 0.0
H474 H 0.21753 0.67877 0.52228 0.0
H475 H 0.23546 0.63606 0.49031 0.0
H476 H 0.12471 0.89958 0.69805 0.0
H477 H 0.12319 0.88596 0.63901 0.0
H478 H 0.10158 0.79568 0.67022 0.0
H479 H 0.10437 0.80871 0.73047 0.0
Tb480 Tb 0.06835 0.70176 0.84764 0.0
Tb481 Tb 0.04509 0.77469 0.83742 0.0
C482 C 1.01295 0.73088 0.78314 0.0
C483 C 0.11038 0.6275 0.83377 0.0
C484 C 0.15407 0.59749 0.79448 0.0
C485 C 0.12726 0.6197 0.7781 0.0
C486 C 0.10566 0.63487 0.79776 0.0
C487 C 0.13577 0.60404 0.84962 0.0
C488 C 0.15751 0.58915 0.8301 0.0
C489 C 0.09275 0.64672 0.85564 0.0
O490 O 0.10023 0.71837 0.80936 0.0
O491 O 0.07436 0.76705 0.79373 0.0
O492 O 0.08497 0.76779 0.88664 0.0
O493 O 0.08263 0.71698 0.89985 0.0
O494 O 0.04984 0.81862 0.81472 0.0
O495 O 1.01183 0.81196 0.84732 0.0
O496 O 1.00459 0.75569 0.86367 0.0
O497 O 1.01537 0.70405 0.86079 0.0
O498 O 0.03657 0.70833 0.79665 0.0
O499 O 1.00881 0.7557 0.79869 0.0
C500 C 0.0947 0.74323 0.78737 0.0
O501 O 0.11037 0.66873 0.86703 0.0
O502 O 0.05968 0.65587 0.8444 0.0
C503 C 0.09146 0.74339 0.90965 0.0
C504 C 0.99366 0.84827 0.79865 0.0
C505 C 0.93599 0.87903 0.75026 0.0
C506 C 0.93995 0.88345 0.78563 0.0
C507 C 0.96841 0.8683 0.80948 0.0
C508 C 0.99007 0.84432 0.76307 0.0
C509 C 0.96154 0.85949 0.73918 0.0
C510 C 1.02211 0.83074 0.82506 0.0
C511 C 0.99535 0.72774 0.86748 0.0
H512 H 0.1244 0.62641 0.75064 0.0
H513 H 0.08644 0.65325 0.78517 0.0
H514 H 0.13999 0.59831 0.87738 0.0
H515 H 0.17816 0.57205 0.84308 0.0
H516 H 0.92058 0.89823 0.79489 0.0
H517 H 0.97034 0.87179 0.83664 0.0
H518 H 1.00887 0.82898 0.75377 0.0
H519 H 0.95901 0.85551 0.71211 0.0
Tb520 Tb 0.61291 0.34986 0.30737 0.0
Tb521 Tb 0.64413 0.30174 0.25737 0.0
C522 C 0.65564 0.37632 0.25342 0.0
C523 C 0.54401 0.38435 0.34784 0.0
C524 C 0.47101 0.39395 0.34683 0.0
C525 C 0.48377 0.38901 0.31631 0.0
C526 C 0.51988 0.38433 0.3168 0.0
C527 C 0.5312 0.38868 0.37854 0.0
C528 C 0.49493 0.39351 0.37803 0.0
C529 C 0.58221 0.37902 0.348 0.0
O530 O 0.57138 0.35495 0.2606 0.0
O531 O 0.5904 0.31646 0.22999 0.0
O532 O 0.62908 0.27729 0.30407 0.0
O533 O 0.58348 0.31135 0.30501 0.0
O534 O 0.68154 0.28264 0.2292 0.0
O535 O 0.63212 0.26441 0.22919 0.0
O536 O 0.68676 0.29433 0.3007 0.0
O537 O 0.66866 0.33199 0.33345 0.0
O538 O 0.63563 0.38134 0.2763 0.0
O539 O 0.66174 0.34836 0.24289 0.0
C540 C 0.56649 0.33816 0.2342 0.0
O541 O 0.59609 0.35093 0.3555 0.0
O542 O 0.5931 0.39182 0.3214 0.0
C543 C 0.59963 0.28473 0.3154 0.0
C544 C 0.67907 0.22953 0.2181 0.0
C545 C 0.70796 0.16781 0.21183 0.0
C546 C 0.68582 0.1748 0.23619 0.0
C547 C 0.67265 0.20488 0.23991 0.0
C548 C 0.69761 0.22282 0.19151 0.0
C549 C 0.71071 0.19275 0.18781 0.0
C550 C 0.66218 0.26134 0.21875 0.0
C551 C 0.6922 0.30967 0.32786 0.0
H552 H 0.46578 0.38925 0.29202 0.0
H553 H 0.52887 0.38097 0.29276 0.0
H554 H 0.5492 0.38848 0.40281 0.0
H555 H 0.48551 0.39723 0.40188 0.0
H556 H 0.67678 0.15727 0.25191 0.0
H557 H 0.65632 0.20866 0.25921 0.0
H558 H 0.70087 0.24086 0.1725 0.0
H559 H 0.72166 0.18953 0.16482 0.0
Tb560 Tb 0.46028 0.87527 0.25384 0.0
Tb561 Tb 0.44697 0.82367 0.30821 0.0
C562 C 0.41689 0.89409 0.31108 0.0
C563 C 0.52575 0.9207 0.22416 0.0
C564 C 0.5981 0.92936 0.22985 0.0
C565 C 0.57436 0.93848 0.19879 0.0
C566 C 0.53862 0.93396 0.19589 0.0
C567 C 0.54953 0.91196 0.25527 0.0
C568 C 0.58528 0.91574 0.25791 0.0
C569 C 0.48798 0.91544 0.2212 0.0
O570 O 0.50849 0.85976 0.29362 0.0
O571 O 0.4836 0.84869 0.33942 0.0
O572 O 0.48512 0.80359 0.27674 0.0
O573 O 0.46989 0.83588 0.22762 0.0
O574 O 0.41338 0.79874 0.33323 0.0
O575 O 0.47011 0.78944 0.34646 0.0
O576 O 0.40608 0.81799 0.26434 0.0
O577 O 0.408 0.86104 0.22807 0.0
O578 O 0.42434 0.90099 0.28031 0.0
O579 O 0.42392 0.86598 0.32621 0.0
C580 C 0.51118 0.8557 0.32753 0.0
O581 O 0.47898 0.89037 0.20869 0.0
O582 O 0.47382 0.92012 0.24826 0.0
C583 C 0.48664 0.81082 0.24363 0.0
C584 C 0.43699 0.74856 0.35404 0.0
C585 C 0.44039 0.68592 0.37019 0.0
C586 C 0.45957 0.6974 0.34594 0.0
C587 C 0.45775 0.72873 0.33771 0.0
C588 C 0.41627 0.73684 0.37662 0.0
C589 C 0.4179 0.70561 0.38463 0.0
C590 C 0.43985 0.78121 0.35153 0.0
C591 C 0.39315 0.8357 0.23591 0.0
H592 H 0.58358 0.94895 0.17671 0.0
H593 H 0.52102 0.9409 0.1716 0.0
H594 H 0.54059 0.90234 0.2778 0.0
H595 H 0.6029 0.90852 0.28212 0.0
H596 H 0.477 0.68227 0.33469 0.0
H597 H 0.47381 0.73746 0.32002 0.0
H598 H 0.40018 0.75191 0.38939 0.0
H599 H 0.40298 0.69684 0.40339 0.0
Tb600 Tb 1.02162 0.19141 0.75039 0.0
Tb601 Tb 0.04731 0.25905 0.76638 0.0
C602 C 0.09446 0.19257 0.79874 0.0
C603 C 0.96609 0.12493 0.74857 0.0
C604 C 0.91548 0.0844 0.75895 0.0
C605 C 0.95009 0.07859 0.77725 0.0
C606 C 0.97525 0.09858 0.77191 0.0
C607 C 0.93072 0.13171 0.73251 0.0
C608 C 0.9058 0.1117 0.73764 0.0
C609 C 0.99346 0.14304 0.7373 0.0
O610 O 0.99114 0.20654 0.79015 0.0
O611 O 1.00357 0.25573 0.79566 0.0
O612 O 1.00813 0.26754 0.7155 0.0
O613 O 1.00382 0.21847 0.70099 0.0
O614 O 0.06995 0.2841 0.80643 0.0
O615 O 0.05635 0.30516 0.75444 0.0
O616 O 0.0753 0.24829 0.72572 0.0
O617 O 0.06638 0.19743 0.72217 0.0
O618 O 0.06896 0.17642 0.78748 0.0
O619 O 0.09103 0.22293 0.79248 0.0
C620 C 0.98668 0.23246 0.8041 0.0
O621 O 0.98264 0.16975 0.72109 0.0
O622 O 1.02316 0.14345 0.75832 0.0
C623 C 0.99799 0.24786 0.69226 0.0
C624 C 0.10045 0.32809 0.79383 0.0
C625 C 0.1519 0.36955 0.814 0.0
C626 C 0.12306 0.37801 0.78695 0.0
C627 C 0.09786 0.35772 0.77713 0.0
C628 C 0.12948 0.31949 0.82077 0.0
C629 C 0.15483 0.3398 0.83053 0.0
C630 C 0.07027 0.30871 0.78625 0.0
C631 C 0.08214 0.22198 0.71406 0.0
H632 H 0.95829 0.05741 0.79336 0.0
H633 H 1.00223 0.09251 0.78452 0.0
H634 H 0.92255 0.15163 0.71425 0.0
H635 H 0.87942 0.11649 0.72293 0.0
H636 H 0.1199 0.40057 0.77344 0.0
H637 H 0.07569 0.36556 0.75682 0.0
H638 H 0.13236 0.29718 0.83481 0.0
H639 H 0.17672 0.33229 0.85122 0.0
Tb640 Tb 0.75827 1.00762 0.64368 0.0
Tb641 Tb 0.74281 0.9653 0.7128 0.0
C642 C 0.71922 0.94613 0.63413 0.0
C643 C 0.7789 0.07663 0.58768 0.0
C644 C 0.7944 0.13766 0.57067 0.0
C645 C 0.81099 0.11259 0.55777 0.0
C646 C 0.80346 0.08269 0.5662 0.0
C647 C 0.76241 0.10163 0.60102 0.0
C648 C 0.77003 0.13174 0.59257 0.0
C649 C 0.77116 0.04419 0.59486 0.0
O650 O 0.71505 0.03362 0.66331 0.0
O651 O 0.72286 1.0122 0.71934 0.0
O652 O 0.79239 0.98579 0.73012 0.0
O653 O 0.78578 0.02633 0.68848 0.0
O654 O 0.70268 0.95001 0.73788 0.0
O655 O 0.7578 0.93644 0.75958 0.0
O656 O 0.78264 0.93619 0.69549 0.0
O657 O 0.80227 0.97055 0.65812 0.0
O658 O 0.73681 0.96716 0.62094 0.0
O659 O 0.71284 0.94731 0.66619 0.0
C660 C 0.7106 0.03512 0.69586 0.0
O661 O 0.79483 0.02636 0.61628 0.0
O662 O 0.73965 0.03865 0.59921 0.0
C663 C 0.80286 1.01128 0.71723 0.0
C664 C 0.71441 0.91554 0.79165 0.0
C665 C 0.69436 0.87557 0.84345 0.0
C666 C 0.72967 0.88087 0.84472 0.0
C667 C 0.73958 0.90057 0.81913 0.0
C668 C 0.67892 0.9109 0.79109 0.0
C669 C 0.66905 0.8911 0.81659 0.0
C670 C 0.72521 0.934 0.76245 0.0
C671 C 0.80636 0.94407 0.67731 0.0
H672 H 0.8296 0.11622 0.54066 0.0
H673 H 0.81668 0.06413 0.55545 0.0
H674 H 0.74342 0.09797 0.61769 0.0
H675 H 0.75648 0.15047 0.60272 0.0
H676 H 0.74974 0.86898 0.86494 0.0
H677 H 0.76712 0.90345 0.8204 0.0
H678 H 0.65881 0.92185 0.77029 0.0
H679 H 0.64172 0.88721 0.8148 0.0
Tb680 Tb 0.78241 0.97693 0.16844 0.0
Tb681 Tb 0.80866 0.98923 0.24919 0.0
C682 C 0.83675 0.02503 0.18615 0.0
C683 C 0.76256 0.92837 0.09715 0.0
C684 C 0.75819 0.86946 0.07561 0.0
C685 C 0.73266 0.89335 0.06079 0.0
C686 C 0.73483 0.92259 0.07151 0.0
C687 C 0.78822 0.90445 0.11191 0.0
C688 C 0.78616 0.87524 0.10104 0.0
C689 C 0.76354 0.95896 0.10939 0.0
O690 O 0.82009 0.93698 0.19209 0.0
O691 O 0.84544 0.95055 0.24515 0.0
O692 O 0.76907 0.95676 0.2499 0.0
O693 O 0.73912 0.96879 0.19467 0.0
O694 O 0.84775 0.99401 0.29181 0.0
O695 O 0.79306 1.00018 0.29577 0.0
O696 O 0.7712 0.02813 0.22774 0.0
O697 O 0.75964 0.02468 0.16892 0.0
O698 O 0.81803 1.01075 0.16279 0.0
O699 O 0.83777 0.01905 0.21969 0.0
C700 C 0.84434 0.93225 0.2205 0.0
O701 O 0.74199 0.96567 0.13025 0.0
O702 O 0.7945 0.96738 0.12012 0.0
C703 C 0.74042 0.95742 0.22646 0.0
C704 C 0.82876 0.03808 0.31461 0.0
C705 C 0.84836 0.09719 0.30534 0.0
C706 C 0.87013 0.07496 0.32859 0.0
C707 C 0.86055 0.04548 0.33293 0.0
C708 C 0.80537 0.06131 0.29438 0.0
C709 C 0.81548 0.09041 0.28902 0.0
C710 C 0.82466 1.00617 0.3085 0.0
C711 C 0.75722 0.03992 0.19629 0.0
H712 H 0.71101 0.88929 0.04099 0.0
H713 H 0.7147 0.94065 0.05998 0.0
H714 H 0.80977 0.90825 0.13192 0.0
H715 H 0.80619 0.85711 0.11259 0.0
H716 H 0.89558 0.07992 0.34163 0.0
H717 H 0.87913 0.02798 0.34838 0.0
H718 H 0.78035 0.05652 0.28043 0.0
H719 H 0.79835 0.10719 0.27095 0.0
Tb720 Tb 0.34533 0.47017 0.43806 0.0
Tb721 Tb 0.27023 0.45301 0.40236 0.0
C722 C 0.34017 0.42906 0.37873 0.0
C723 C 0.42008 0.51263 0.46197 0.0
C724 C 0.43999 0.56772 0.43669 0.0
C725 C 0.46182 0.54081 0.43706 0.0
C726 C 0.45199 0.51331 0.44994 0.0
C727 C 0.39965 0.53997 0.46393 0.0
C728 C 0.40972 0.56743 0.45148 0.0
C729 C 0.40478 0.48376 0.4643 0.0
O730 O 0.33031 0.50074 0.38889 0.0
O731 O 0.27059 0.49872 0.37834 0.0
O732 O 0.26229 0.47891 0.44625 0.0
O733 O 0.30953 0.5062 0.44993 0.0
O734 O 0.23133 0.44611 0.3606 0.0
O735 O 0.22289 0.43948 0.41352 0.0
O736 O 0.29648 0.41077 0.4302 0.0
O737 O 0.33274 0.43176 0.47169 0.0
O738 O 0.35578 0.43193 0.41001 0.0
O739 O 0.30709 0.43969 0.3679 0.0
C740 C 0.29844 0.51128 0.37192 0.0
O741 O 0.37883 0.48249 0.4814 0.0
O742 O 0.39806 0.47232 0.43465 0.0
C743 C 0.27807 0.50267 0.45584 0.0
C744 C 0.19826 0.40657 0.37533 0.0
C745 C 0.16963 0.35336 0.35666 0.0
C746 C 0.14971 0.37585 0.37025 0.0
C747 C 0.16394 0.40241 0.3794 0.0
C748 C 0.21952 0.38276 0.36537 0.0
C749 C 0.20518 0.35617 0.35596 0.0
C750 C 0.2111 0.43601 0.38127 0.0
C751 C 0.31727 0.40816 0.46033 0.0
H752 H 0.4852 0.5409 0.42553 0.0
H753 H 0.46776 0.49237 0.44784 0.0
H754 H 0.37466 0.54001 0.47259 0.0
H755 H 0.39264 0.58817 0.45111 0.0
H756 H 0.12213 0.37417 0.37059 0.0
H757 H 0.14755 0.42037 0.38786 0.0
H758 H 0.24649 0.3854 0.36305 0.0
H759 H 0.22075 0.33911 0.3452 0.0
Tb760 Tb 0.29163 0.51504 0.88342 0.0
Tb761 Tb 0.33148 0.47538 0.82462 0.0
C762 C 0.342 0.4537 0.90635 0.0
C763 C 0.26545 0.57845 0.93999 0.0
C764 C 0.26011 0.63456 0.97253 0.0
C765 C 0.29127 0.62393 0.96146 0.0
C766 C 0.29392 0.59637 0.94555 0.0
C767 C 0.23391 0.58983 0.9498 0.0
C768 C 0.23131 0.61726 0.96581 0.0
C769 C 0.26949 0.54637 0.92901 0.0
O770 O 0.32344 0.54711 0.86205 0.0
O771 O 0.36071 0.51631 0.83619 0.0
O772 O 0.28639 0.5051 0.79487 0.0
O773 O 0.27358 0.53978 0.83341 0.0
O774 O 0.37224 0.44474 0.81214 0.0
O775 O 0.33158 0.46712 0.7722 0.0
O776 O 0.28731 0.45011 0.83241 0.0
O777 O 0.25666 0.47894 0.86712 0.0
O778 O 0.33402 0.48211 0.91215 0.0
O779 O 0.34046 0.44598 0.87429 0.0
C780 C 0.35042 0.54338 0.84619 0.0
O781 O 0.24919 0.53898 0.90151 0.0
O782 O 0.30122 0.5331 0.93167 0.0
C783 C 0.27039 0.53067 0.80216 0.0
C784 C 0.36514 0.42326 0.75512 0.0
C785 C 0.37585 0.37811 0.70702 0.0
C786 C 0.38135 0.40879 0.69991 0.0
C787 C 0.37606 0.43077 0.72333 0.0
C788 C 0.35983 0.39248 0.7626 0.0
C789 C 0.36497 0.37035 0.7389 0.0
C790 C 0.3601 0.44841 0.77886 0.0
C791 C 0.25976 0.45578 0.84742 0.0
H792 H 0.31417 0.63623 0.96659 0.0
H793 H 0.31882 0.58848 0.93888 0.0
H794 H 0.21154 0.57673 0.94651 0.0
H795 H 0.20706 0.62436 0.97433 0.0
H796 H 0.38939 0.41594 0.67579 0.0
H797 H 0.38051 0.45404 0.7164 0.0
H798 H 0.35146 0.38552 0.7866 0.0
H799 H 0.36017 0.34711 0.74542 0.0
Tb800 Tb 0.64009 0.74286 1.00498 0.0
Tb801 Tb 0.70601 0.70914 0.96641 0.0
C802 C 0.62218 0.71027 0.9341 0.0
C803 C 0.58021 0.7648 0.06981 0.0
C804 C 0.5561 0.76997 0.1339 0.0
C805 C 0.53245 0.77386 0.10228 0.0
C806 C 0.54434 0.77128 0.07075 0.0
C807 C 0.60396 0.75997 0.10146 0.0
C808 C 0.592 0.76249 0.13316 0.0
C809 C 0.59158 0.76431 0.03539 0.0
O810 O 0.65854 0.69981 0.03643 0.0
O811 O 0.70167 0.67634 1.01041 0.0
O812 O 0.72886 0.74377 0.9972 0.0
O813 O 0.68841 0.75721 1.0317 0.0
O814 O 0.7284 0.69889 0.92238 0.0
O815 O 0.75699 0.68615 0.97376 0.0
O816 O 0.6954 0.75527 0.94225 0.0
O817 O 0.64632 0.77638 0.96216 0.0
O818 O 0.61269 0.72705 0.95779 0.0
O819 O 0.65539 0.69915 0.93472 0.0
C820 C 0.68274 0.67732 0.03537 0.0
O821 O 0.61866 0.77836 1.03039 0.0
O822 O 0.59152 0.73873 1.02118 0.0
C823 C 0.7185 0.75957 1.02126 0.0
C824 C 0.79205 0.69764 0.92996 0.0
C825 C 0.85811 0.70907 0.90993 0.0
C826 C 0.85207 0.71273 0.9438 0.0
C827 C 0.81969 0.70708 0.95367 0.0
C828 C 0.79798 0.69451 0.89596 0.0
C829 C 0.83033 0.70017 0.88611 0.0
C830 C 0.75869 0.68809 0.94089 0.0
C831 C 0.67055 0.77743 0.94207 0.0
H832 H 0.50477 0.77983 0.10193 0.0
H833 H 0.52542 0.77506 0.04684 0.0
H834 H 0.63174 0.75483 0.10163 0.0
H835 H 0.61089 0.75956 0.15709 0.0
H836 H 0.8727 0.71961 0.96286 0.0
H837 H 0.81661 0.7096 0.98015 0.0
H838 H 0.77772 0.68698 0.877 0.0
H839 H 0.83387 0.69711 0.85985 0.0
Tb840 Tb 0.21974 0.7285 0.13359 0.0
Tb841 Tb 0.20978 0.7951 0.09095 0.0
C842 C 0.24776 0.73396 0.06588 0.0
C843 C 0.24421 0.65639 0.20132 0.0
C844 C 0.26471 0.6124 0.26053 0.0
C845 C 0.28787 0.6184 0.23764 0.0
C846 C 0.27784 0.64 0.20866 0.0
C847 C 0.22119 0.65089 0.22469 0.0
C848 C 0.23139 0.62936 0.25398 0.0
C849 C 0.23294 0.6755 0.16709 0.0
O850 O 0.25507 0.7578 0.16604 0.0
O851 O 0.26014 0.79569 0.12493 0.0
O852 O 0.18496 0.80086 0.1385 0.0
O853 O 0.17912 0.75142 0.15712 0.0
O854 O 0.23258 0.82708 0.06194 0.0
O855 O 0.18109 0.8378 0.07406 0.0
O856 O 0.16192 0.77726 0.0683 0.0
O857 O 0.18273 0.72732 0.08037 0.0
O858 O 0.25769 0.72644 0.09896 0.0
O859 O 0.22792 0.76021 0.05654 0.0
C860 C 0.27086 0.78169 0.15588 0.0
O861 O 0.20152 0.6899 0.15821 0.0
O862 O 0.25604 0.69118 0.15575 0.0
C863 C 0.17172 0.78072 0.15848 0.0
C864 C 0.19559 0.86729 1.02536 0.0
C865 C 0.18472 0.91698 0.97385 0.0
C866 C 0.15841 0.91098 0.99308 0.0
C867 C 0.16386 0.88642 1.01872 0.0
C868 C 0.22064 0.87203 1.00405 0.0
C869 C 0.21523 0.89664 0.97856 0.0
C870 C 0.20557 0.84738 0.05839 0.0
C871 C 0.16211 0.74966 0.05902 0.0
H872 H 0.31353 0.60567 0.24164 0.0
H873 H 0.29616 0.64305 0.19111 0.0
H874 H 0.19493 0.66255 0.21985 0.0
H875 H 0.21276 0.62512 0.27089 0.0
H876 H 0.13481 0.92657 0.99001 0.0
H877 H 0.14423 0.88373 0.03491 0.0
H878 H 0.24554 0.85804 1.00864 0.0
H879 H 0.23593 0.901 0.96412 0.0
Tb880 Tb 0.42019 0.24717 0.54556 0.0
Tb881 Tb 0.3513 0.22749 0.5782 0.0
C882 C 0.43053 0.20918 0.6183 0.0
C883 C 0.48654 0.25887 0.48368 0.0
C884 C 0.52415 0.25877 0.42704 0.0
C885 C 0.53036 0.23463 0.45336 0.0
C886 C 0.51189 0.23468 0.48122 0.0
C887 C 0.47983 0.28273 0.45679 0.0
C888 C 0.49827 0.28261 0.42885 0.0
C889 C 0.47117 0.2611 0.51622 0.0
O890 O 0.40887 0.20264 0.52464 0.0
O891 O 0.35273 0.19948 0.53441 0.0
O892 O 0.33728 0.27233 0.54783 0.0
O893 O 0.37267 0.26356 0.50944 0.0
O894 O 0.32825 0.20832 0.61861 0.0
O895 O 0.29762 0.22116 0.56764 0.0
O896 O 0.36481 0.26567 0.6082 0.0
O897 O 0.40927 0.28327 0.58163 0.0
O898 O 0.4418 0.23007 0.59876 0.0
O899 O 0.39843 0.20076 0.61041 0.0
C900 C 0.37893 0.1899 0.51945 0.0
O901 O 0.44259 0.27918 0.5154 0.0
O902 O 0.4714 0.23619 0.53623 0.0
C903 C 0.34731 0.28068 0.51847 0.0
C904 C 0.26531 0.21481 0.61451 0.0
C905 C 0.20186 0.21671 0.64137 0.0
C906 C 0.20303 0.2325 0.60929 0.0
C907 C 0.23439 0.23144 0.59588 0.0
C908 C 0.26395 0.19926 0.64669 0.0
C909 C 0.2327 0.20029 0.66 0.0
C910 C 0.29747 0.20942 0.599 0.0
C911 C 0.38771 0.28558 0.60492 0.0
H912 H 0.55037 0.21613 0.45293 0.0
H913 H 0.51844 0.21616 0.50155 0.0
H914 H 0.46119 0.30208 0.45793 0.0
H915 H 0.4932 0.30173 0.40922 0.0
H916 H 0.17971 0.2457 0.59471 0.0
H917 H 0.23426 0.24326 0.57074 0.0
H918 H 0.287 0.18571 0.66135 0.0
H919 H 0.23258 0.18824 0.68498 0.0
Tb920 Tb 0.90401 0.24164 0.46445 0.0
Tb921 Tb 0.8747 0.30569 0.48073 0.0
C922 C 0.84769 0.24335 0.51282 0.0
C923 C 0.9369 0.18748 0.41016 0.0
C924 C 0.92472 0.1779 0.33996 0.0
C925 C 0.93022 0.15307 0.36557 0.0
C926 C 0.93603 0.1579 0.40051 0.0
C927 C 0.93659 0.21172 0.38483 0.0
C928 C 0.93069 0.20694 0.34978 0.0
C929 C 0.93011 0.1936 0.44454 0.0
O930 O 0.8566 0.2586 0.42259 0.0
O931 O 0.82781 0.29372 0.45015 0.0
O932 O 0.89134 0.30976 0.42726 0.0
O933 O 0.93394 0.27148 0.43735 0.0
O934 O 0.83665 0.34009 0.48819 0.0
O935 O 0.8894 0.35005 0.48469 0.0
O936 O 0.91448 0.29297 0.52806 0.0
O937 O 0.92963 0.24342 0.52 0.0
O938 O 0.86658 0.22731 0.49489 0.0
O939 O 0.84839 0.27347 0.51292 0.0
C940 C 0.82793 0.27723 0.42424 0.0
O941 O 0.94884 0.21303 0.46029 0.0
O942 O 0.89696 0.19911 0.44602 0.0
C943 C 0.91793 0.29447 0.41653 0.0
C944 C 0.8559 0.38422 0.51435 0.0
C945 C 0.84698 0.43625 0.55066 0.0
C946 C 0.81892 0.4189 0.54152 0.0
C947 C 0.82328 0.39323 0.52342 0.0
C948 C 0.8843 0.40108 0.52472 0.0
C949 C 0.87987 0.42682 0.54274 0.0
C950 C 0.8584 0.36088 0.48943 0.0
C951 C 0.93093 0.26608 0.54038 0.0
H952 H 0.92578 0.13036 0.3587 0.0
H953 H 0.93628 0.13896 0.41968 0.0
H954 H 0.93764 0.2347 0.39183 0.0
H955 H 0.92736 0.22628 0.33056 0.0
H956 H 0.7933 0.42589 0.54729 0.0
H957 H 0.80068 0.3812 0.51525 0.0
H958 H 0.90962 0.39516 0.5177 0.0
H959 H 0.90183 0.43996 0.54952 0.0
C960 C 0.10456 0.29889 0.32454 0.0
C961 C 0.09098 0.31553 0.2919 0.0
C962 C 0.1423 0.34398 0.29863 0.0
C963 C 0.15009 0.33345 0.33383 0.0
N964 N 0.13996 0.30034 0.38145 0.0
N965 N 0.09626 0.35709 0.24957 0.0
C966 C 0.13186 0.31041 0.34715 0.0
C967 C 0.1099 0.33869 0.27904 0.0
N968 N 0.09164 0.27247 0.33401 0.0
N969 N 0.16577 0.36023 0.28514 0.0
H970 H 0.07191 0.3555 0.23498 0.0
H971 H 0.10729 0.37643 0.24171 0.0
H972 H 0.16364 0.36727 0.2589 0.0
H973 H 0.16364 0.36727 0.2589 0.0
H974 H 0.10283 0.25838 0.35626 0.0
H975 H 0.07164 0.26324 0.31832 0.0
H976 H 0.12496 0.28603 0.39363 0.0
H977 H 0.161 0.30763 0.39787 0.0
C978 C 0.37689 0.59263 0.86458 0.0
C979 C 0.36772 0.57253 0.83824 0.0
C980 C 0.37431 0.61438 0.79482 0.0
C981 C 0.38593 0.63385 0.82105 0.0
N982 N 0.40313 0.63858 0.88178 0.0
N983 N 0.3655 0.56368 0.77819 0.0
C984 C 0.38824 0.6222 0.8562 0.0
C985 C 0.3691 0.5832 0.80351 0.0
N986 N 0.37535 0.58321 0.89809 0.0
N987 N 0.36683 0.62604 0.7609 0.0
H988 H 0.35935 0.54149 0.78204 0.0
H989 H 0.37126 0.56884 0.75363 0.0
H990 H 0.37049 0.6482 0.75266 0.0
H991 H 0.3537 0.61473 0.74116 0.0
H992 H 0.37683 0.59762 0.91784 0.0
H993 H 0.37151 0.56095 0.906 0.0
H994 H 0.40971 0.63023 0.90773 0.0
H995 H 0.4111 0.66006 0.87669 0.0
C996 C 0.6436 0.10476 0.70391 0.0
C997 C 0.66019 0.11653 0.73467 0.0
C998 C 0.71146 0.07861 0.73579 0.0
C999 C 0.69333 0.06425 0.70769 0.0
N1000 N 0.63966 0.06257 0.66749 0.0
N1001 N 0.70967 0.11244 0.78138 0.0
C1002 C 0.65882 0.07729 0.69222 0.0
C1003 C 0.69392 0.10262 0.75104 0.0
N1004 N 0.61311 0.11981 0.68571 0.0
N1005 N 0.74651 0.0707 0.74667 0.0
H1006 H 0.69974 0.13158 0.7918 0.0
H1007 H 0.73162 0.10059 0.79727 0.0
H1008 H 0.76057 0.05463 0.73523 0.0
H1009 H 0.76239 0.08238 0.76405 0.0
H1010 H 0.60147 0.11469 0.6613 0.0
H1011 H 0.60076 0.1391 0.69382 0.0
H1012 H 0.61314 0.06861 0.65779 0.0
H1013 H 0.64954 0.04259 0.65862 0.0
C1014 C 0.90032 0.85662 0.25821 0.0
C1015 C 0.93209 0.86024 0.2455 0.0
C1016 C 0.90162 0.90606 0.20845 0.0
C1017 C 0.87225 0.90522 0.22559 0.0
N1018 N 0.8441 0.87991 0.2679 0.0
N1019 N 0.96258 0.88836 0.20745 0.0
C1020 C 0.87169 0.88037 0.25057 0.0
C1021 C 0.93238 0.88486 0.22004 0.0
N1022 N 0.89735 0.83043 0.27763 0.0
N1023 N 0.90014 0.92724 0.18101 0.0
H1024 H 0.98438 0.87215 0.21318 0.0
H1025 H 0.96663 0.90766 0.19247 0.0
H1026 H 0.87843 0.94312 0.17226 0.0
H1027 H 0.91895 0.92763 0.16512 0.0
H1028 H 0.87413 0.8251 0.28533 0.0
H1029 H 0.91721 0.81256 0.28329 0.0
H1030 H 0.84398 0.86506 0.28968 0.0
H1031 H 0.82195 0.89571 0.26164 0.0
C1032 C 0.3856 0.13346 0.50557 0.0
C1033 C 0.37301 0.16453 0.49467 0.0
C1034 C 0.34466 0.14742 0.4383 0.0
C1035 C 0.35437 0.1159 0.4503 0.0
N1036 N 0.38466 0.0795 0.4966 0.0
N1037 N 0.33735 0.20039 0.45122 0.0
C1038 C 0.37497 0.10924 0.48436 0.0
C1039 C 0.35182 0.17115 0.46112 0.0
N1040 N 0.40841 0.1271 0.53628 0.0
N1041 N 0.32866 0.15513 0.40471 0.0
H1042 H 0.34338 0.21849 0.46584 0.0
H1043 H 0.31769 0.20654 0.42972 0.0
H1044 H 0.32024 0.13939 0.38768 0.0
H1045 H 0.32547 0.17723 0.39281 0.0
H1046 H 0.42179 0.10581 0.5449 0.0
H1047 H 0.41592 0.14388 0.55237 0.0
H1048 H 0.39546 0.07229 0.52226 0.0
H1049 H 0.38085 0.06159 0.48116 0.0
C1050 C 0.1986 0.99946 0.95088 0.0
C1051 C 0.19488 1.00003 0.91448 0.0
C1052 C 0.17242 0.95009 0.91686 0.0
C1053 C 0.18334 0.94697 0.95341 0.0
N1054 N 0.2056 0.96922 1.0059 0.0
N1055 N 0.16006 0.98418 0.86389 0.0
C1056 C 0.19528 0.97211 0.97072 0.0
C1057 C 0.17619 0.97785 0.89751 0.0
N1058 N 0.20432 0.02569 0.96604 0.0
N1059 N 0.15992 0.92611 0.90061 0.0
H1060 H 0.15987 1.00535 0.85038 0.0
H1061 H 0.14313 0.97017 0.85103 0.0
H1062 H 0.15582 0.90598 0.9142 0.0
H1063 H 0.1552 0.92562 0.87383 0.0
H1064 H 0.20468 0.02792 0.99223 0.0
H1065 H 0.20456 0.0462 0.95121 0.0
H1066 H 0.2186 0.98537 1.01946 0.0
H1067 H 0.20312 0.94978 1.0216 0.0
C1068 C 0.82443 0.49183 0.54564 0.0
C1069 C 0.84136 0.46538 0.56663 0.0
C1070 C 0.84818 0.49473 0.61734 0.0
C1071 C 0.82516 0.51906 0.59791 0.0
N1072 N 0.80709 0.54623 0.54161 0.0
N1073 N 0.86836 0.44098 0.62284 0.0
C1074 C 0.81775 0.51923 0.5613 0.0
C1075 C 0.85329 0.46673 0.60255 0.0
N1076 N 0.81401 0.4905 0.51086 0.0
N1077 N 0.86745 0.49909 0.64863 0.0
H1078 H 0.87285 0.42011 0.61297 0.0
H1079 H 0.8739 0.43977 0.64977 0.0
H1080 H 0.86897 0.52055 0.65752 0.0
H1081 H 0.88626 0.48273 0.66298 0.0
H1082 H 0.79776 0.50756 0.4947 0.0
H1083 H 0.82034 0.47152 0.49818 0.0
H1084 H 0.80341 0.54878 0.51471 0.0
H1085 H 0.80615 0.56696 0.55249 0.0
C1086 C 0.70184 0.63696 0.12874 0.0
C1087 C 0.70477 0.60557 0.12285 0.0
C1088 C 0.68829 0.62116 0.05946 0.0
C1089 C 0.68981 0.65235 0.06536 0.0
N1090 N 0.70259 0.68936 0.1064 0.0
N1091 N 0.70024 0.56782 0.08178 0.0
C1092 C 0.69736 0.66003 0.10024 0.0
C1093 C 0.69791 0.59779 0.0879 0.0
N1094 N 0.70342 0.64515 0.16167 0.0
N1095 N 0.67581 0.61389 1.02683 0.0
H1096 H 0.70271 0.55018 0.10142 0.0
H1097 H 0.7008 0.56033 0.05744 0.0
H1098 H 0.66783 0.6302 1.00579 0.0
H1099 H 0.67038 0.59212 1.02097 0.0
H1100 H 0.69638 0.66719 0.16727 0.0
H1101 H 0.70942 0.62978 0.18359 0.0
H1102 H 0.71292 0.69586 0.1306 0.0
H1103 H 0.69973 0.70701 0.08686 0.0
C1104 C 0.48336 0.36433 0.16345 0.0
C1105 C 0.46658 0.33699 0.16198 0.0
C1106 C 0.51072 0.31445 0.21276 0.0
C1107 C 0.53044 0.33982 0.21117 0.0
N1108 N 0.53562 0.38936 0.18437 0.0
N1109 N 0.46823 0.28443 0.18379 0.0
C1110 C 0.51647 0.36513 0.1866 0.0
C1111 C 0.4813 0.31182 0.18646 0.0
N1112 N 0.46777 0.38943 0.14238 0.0
N1113 N 0.51947 0.29284 0.24023 0.0
H1114 H 0.44593 0.28172 0.16642 0.0
H1115 H 0.48079 0.26412 0.19704 0.0
H1116 H 0.54071 0.2937 0.25989 0.0
H1117 H 0.50362 0.27592 0.2454 0.0
H1118 H 0.47656 0.41088 0.14361 0.0
H1119 H 0.4442 0.38914 0.12524 0.0
H1120 H 0.52924 0.40735 0.1651 0.0
H1121 H 0.55928 0.39061 0.20102 0.0
C1122 C 0.90583 0.22886 0.85259 0.0
C1123 C 0.91747 0.24218 0.88388 0.0
C1124 C 0.9755 0.24516 0.86488 0.0
C1125 C 0.96264 0.23522 0.83177 0.0
N1126 N 0.91301 0.22068 0.79337 0.0
N1127 N 0.9634 0.2656 0.91791 0.0
C1128 C 0.92719 0.22755 0.82569 0.0
C1129 C 0.95231 0.25105 0.88929 0.0
N1130 N 0.87402 0.21748 0.8484 0.0
N1131 N 1.01062 0.24747 0.87405 0.0
H1132 H 0.94869 0.26831 0.9375 0.0
H1133 H 0.98624 0.27649 0.92131 0.0
H1134 H 1.02859 0.24242 0.85793 0.0
H1135 H 1.02255 0.25129 0.89886 0.0
H1136 H 0.8651 0.20459 0.82832 0.0
H1137 H 0.85767 0.21882 0.8668 0.0
H1138 H 0.88659 0.21798 0.78568 0.0
H1139 H 0.92702 0.22028 0.77304 0.0
C1140 C 0.5569 0.87142 0.3765 0.0
C1141 C 0.54629 0.85029 0.35219 0.0
C1142 C 0.59055 0.81145 0.38659 0.0
C1143 C 0.60272 0.83273 0.4102 0.0
N1144 N 0.60029 0.88473 0.42406 0.0
N1145 N 0.56144 0.80317 0.32918 0.0
C1146 C 0.58695 0.86337 0.40377 0.0
C1147 C 0.56593 0.82138 0.35566 0.0
N1148 N 0.53764 0.89899 0.37401 0.0
N1149 N 0.60111 0.78119 0.39421 0.0
H1150 H 0.54473 0.81001 0.30587 0.0
H1151 H 0.57744 0.78314 0.32868 0.0
H1152 H 0.61874 0.7726 0.41627 0.0
H1153 H 0.58989 0.76435 0.38029 0.0
H1154 H 0.54094 0.91427 0.39282 0.0
H1155 H 0.51704 0.90594 0.35353 0.0
H1156 H 0.59249 0.90793 0.41895 0.0
H1157 H 0.62107 0.87942 0.4448 0.0
C1158 C 0.1059 0.7393 0.6896 0.0
C1159 C 0.14285 0.73927 0.69059 0.0
C1160 C 0.14844 0.7393 0.75551 0.0
C1161 C 0.11138 0.74363 0.75379 0.0
N1162 N 0.05572 0.75623 0.71524 0.0
N1163 N 0.19842 0.74447 0.72668 0.0
C1164 C 0.09048 0.74621 0.71966 0.0
C1165 C 0.16366 0.74061 0.72428 0.0
N1166 N 0.08508 0.73197 0.66054 0.0
N1167 N 0.16969 0.73417 0.78721 0.0
H1168 H 0.21069 0.74615 0.70524 0.0
H1169 H 0.21426 0.74913 0.74939 0.0
H1170 H 0.16034 0.73558 0.81039 0.0
H1171 H 0.19629 0.72663 0.7905 0.0
H1172 H 0.05864 0.72903 0.65954 0.0
H1173 H 0.09495 0.72528 0.63902 0.0
H1174 H 0.04001 0.7614 0.69091 0.0
H1175 H 0.04354 0.76235 0.7356 0.0
C1176 C 0.99355 0.70067 0.73291 0.0
C1177 C 0.98724 0.72599 0.75186 0.0
C1178 C 0.92425 0.72554 0.73517 0.0
C1179 C 0.93059 0.69704 0.72244 0.0
N1180 N 0.96829 0.66316 0.69678 0.0
N1181 N 0.94873 0.77208 0.74992 0.0
C1182 C 0.96441 0.68673 0.71671 0.0
C1183 C 0.95319 0.74177 0.74611 0.0
N1184 N 1.02713 0.68962 0.73151 0.0
N1185 N 0.89109 0.73623 0.73842 0.0
H1186 H 0.96997 0.78497 0.75381 0.0
H1187 H 0.92436 0.78491 0.7443 0.0
H1188 H 0.86924 0.72507 0.72949 0.0
H1189 H 0.88573 0.7553 0.7513 0.0
H1190 H 0.03397 0.66936 0.7215 0.0
H1191 H 0.0486 0.70111 0.74055 0.0
H1192 H 0.99191 0.6552 0.68999 0.0
H1193 H 0.9469 0.65289 0.68477 0.0
C1194 C 0.66904 0.41665 0.20689 0.0
C1195 C 0.67269 0.4047 0.24212 0.0
C1196 C 0.69454 0.45377 0.25955 0.0
C1197 C 0.69419 0.46477 0.22441 0.0
N1198 N 0.68106 0.45532 0.16419 0.0
N1199 N 0.69541 0.41115 0.30195 0.0
C1200 C 0.68171 0.44558 0.19808 0.0
C1201 C 0.68715 0.4232 0.2682 0.0
N1202 N 0.65139 0.40134 0.18174 0.0
N1203 N 0.7014 0.47242 0.28544 0.0
H1204 H 0.68953 0.38979 0.31053 0.0
H1205 H 0.71105 0.42122 0.32119 0.0
H1206 H 0.71072 0.4935 0.28251 0.0
H1207 H 0.69587 0.46758 0.31015 0.0
H1208 H 0.64382 0.41011 0.156 0.0
H1209 H 0.64202 0.3805 0.18706 0.0
H1210 H 0.67771 0.4412 0.1442 0.0
H1211 H 0.68474 0.47755 0.15605 0.0
C1212 C 0.37357 0.91805 0.3469 0.0
C1213 C 0.40323 0.91998 0.33031 0.0
C1214 C 0.40471 0.97362 0.3445 0.0
C1215 C 0.37539 0.97162 0.36155 0.0
N1216 N 0.33768 0.9388 0.3862 0.0
N1217 N 0.45297 0.94728 0.32322 0.0
C1218 C 0.362 0.94274 0.3654 0.0
C1219 C 0.4204 0.94717 0.33189 0.0
N1220 N 0.35483 0.89347 0.34313 0.0
N1221 N 0.41802 1.00093 0.34049 0.0
H1222 H 0.46624 0.92824 0.3156 0.0
H1223 H 0.46857 0.96504 0.32724 0.0
H1224 H 0.41031 0.01985 0.35263 0.0
H1225 H 0.43568 1.00517 0.32399 0.0
H1226 H 0.3309 0.89198 0.35132 0.0
H1227 H 0.36147 0.87564 0.32892 0.0
H1228 H 0.33008 0.91762 0.3933 0.0
H1229 H 0.3268 0.95624 0.39849 0.0
C1230 C 0.15986 0.13444 0.86247 0.0
C1231 C 0.18977 0.13139 0.84557 0.0
C1232 C 0.1577 0.16884 0.79908 0.0
C1233 C 0.12914 0.17451 0.81692 0.0
N1234 N 0.10739 0.16595 0.87004 0.0
N1235 N 0.22004 0.15558 0.80405 0.0
C1236 C 0.13186 0.1585 0.8502 0.0
C1237 C 0.18967 0.15208 0.81622 0.0
N1238 N 0.15649 0.11338 0.88855 0.0
N1239 N 0.15328 0.17612 0.76444 0.0
H1240 H 0.24427 0.14489 0.81678 0.0
H1241 H 0.22147 0.1719 0.78391 0.0
H1242 H 0.12867 0.18313 0.75033 0.0
H1243 H 0.17231 0.17039 0.74963 0.0
H1244 H 0.1337 0.11272 0.89905 0.0
H1245 H 0.17487 0.09484 0.89766 0.0
H1246 H 0.10959 0.15738 0.8958 0.0
H1247 H 0.08671 0.18297 0.86163 0.0
C1248 C 0.69291 0.92608 0.57546 0.0
C1249 C 0.7063 0.92009 0.6118 0.0
C1250 C 0.69782 0.86499 0.6044 0.0
C1251 C 0.68926 0.87064 0.56758 0.0
N1252 N 0.6809 0.90772 0.51816 0.0
N1253 N 0.72443 0.88107 0.65968 0.0
C1254 C 0.68769 0.90152 0.55332 0.0
C1255 C 0.70902 0.88882 0.62593 0.0
N1256 N 0.68278 0.9555 0.56212 0.0
N1257 N 0.69565 0.83648 0.61921 0.0
H1258 H 0.73346 0.89661 0.67664 0.0
H1259 H 0.73155 0.85872 0.67033 0.0
H1260 H 0.69015 0.81816 0.60484 0.0
H1261 H 0.69658 0.83145 0.64564 0.0
H1262 H 0.66961 0.96159 0.53688 0.0
H1263 H 0.68366 0.9737 0.5774 0.0
H1264 H 0.68412 0.92861 0.50573 0.0
H1265 H 0.67387 0.89142 0.50124 0.0
C1266 C 0.85999 0.10477 0.16001 0.0
C1267 C 0.86882 0.09912 0.12742 0.0
C1268 C 0.87283 0.04435 0.14421 0.0
C1269 C 0.85555 0.05007 0.17235 0.0
N1270 N 0.83308 0.08679 0.20778 0.0
N1271 N 0.88291 0.06292 0.08774 0.0
C1272 C 0.85003 0.08054 0.1811 0.0
C1273 C 0.87574 0.06871 0.11955 0.0
N1274 N 0.86087 0.13339 0.17051 0.0
N1275 N 0.88633 1.0154 0.14113 0.0
H1276 H 0.88526 0.07996 0.06877 0.0
H1277 H 0.884 0.04123 0.07924 0.0
H1278 H 0.88527 0.99742 0.15953 0.0
H1279 H 0.90177 1.01 0.12283 0.0
H1280 H 0.85807 0.13857 0.19532 0.0
H1281 H 0.86787 0.1514 0.15532 0.0
H1282 H 0.82535 0.10873 0.21311 0.0
H1283 H 0.82491 0.07021 0.22378 0.0
C1284 C 0.21424 0.56671 0.47666 0.0
C1285 C 0.23388 0.57526 0.50757 0.0
C1286 C 0.27839 0.5323 0.5077 0.0
C1287 C 0.2609 0.52588 0.47476 0.0
N1288 N 0.21409 0.53921 0.42572 0.0
N1289 N 0.28687 0.56881 0.55043 0.0
C1290 C 0.22916 0.54352 0.45874 0.0
C1291 C 0.26656 0.55872 0.52257 0.0
N1292 N 0.18102 0.58035 0.46479 0.0
N1293 N 0.30562 0.51249 0.52538 0.0
H1294 H 0.27905 0.58788 0.56227 0.0
H1295 H 0.31264 0.55983 0.56007 0.0
H1296 H 0.31437 0.4925 0.51572 0.0
H1297 H 0.31721 0.51418 0.55093 0.0
H1298 H 0.16382 0.57287 0.44466 0.0
H1299 H 0.16954 0.59775 0.47688 0.0
H1300 H 0.19355 0.55379 0.41108 0.0
H1301 H 0.22369 0.52229 0.41185 0.0
C1302 C 0.34869 0.41198 0.99812 0.0
C1303 C 0.37115 0.38499 0.9973 0.0
C1304 C 0.37917 0.40534 0.93875 0.0
C1305 C 0.35245 0.42979 0.93758 0.0
N1306 N 0.30491 0.44982 0.96478 0.0
N1307 N 0.4005 0.35338 0.9611 0.0
C1308 C 0.3353 0.43126 0.96691 0.0
C1309 C 0.38444 0.38096 0.96601 0.0
N1310 N 0.34095 0.42018 1.02891 0.0
N1311 N 0.40069 0.40569 0.91475 0.0
H1312 H 0.40269 0.33422 0.97865 0.0
H1313 H 0.40777 0.34861 0.93763 0.0
H1314 H 0.39938 0.4237 0.89581 0.0
H1315 H 0.42251 0.38986 0.91634 0.0
H1316 H 0.32718 0.44097 1.0312 0.0
H1317 H 0.352 0.40818 0.05263 0.0
H1318 H 0.28997 0.44953 0.9844 0.0
H1319 H 0.29219 0.46247 0.94206 0.0
C1320 C 0.54639 0.67669 0.87557 0.0
C1321 C 0.53009 0.70292 0.85349 0.0
C1322 C 0.57535 0.73283 0.88265 0.0
C1323 C 0.59292 0.70653 0.90388 0.0
N1324 N 0.59733 0.65227 0.91675 0.0
N1325 N 0.53649 0.75329 0.82971 0.0
C1326 C 0.57924 0.67803 0.89885 0.0
C1327 C 0.54684 0.73011 0.85529 0.0
N1328 N 0.5296 0.65091 0.87567 0.0
N1329 N 0.58504 0.76101 0.88903 0.0
H1330 H 0.51669 0.75181 0.80872 0.0
H1331 H 0.55013 0.7723 0.82715 0.0
H1332 H 0.60639 0.76454 0.90744 0.0
H1333 H 0.57025 0.78112 0.87775 0.0
H1334 H 0.53772 0.63197 0.89345 0.0
H1335 H 0.50587 0.64924 0.85934 0.0
H1336 H 0.59106 0.63043 0.91212 0.0
H1337 H 0.62032 0.65266 0.93466 0.0
C1338 C 0.09281 0.81374 0.19999 0.0
C1339 C 0.10067 0.79862 0.23433 0.0
C1340 C 0.15795 0.77762 0.22044 0.0
C1341 C 0.14857 0.79008 0.18509 0.0
N1342 N 0.10427 0.81748 0.14073 0.0
N1343 N 0.1406 0.76393 0.2759 0.0
C1344 C 0.11537 0.80776 0.17493 0.0
C1345 C 0.13318 0.77986 0.24398 0.0
N1346 N 0.06338 0.83387 0.191 0.0
N1347 N 0.19155 0.76477 0.23216 0.0
H1348 H 0.12471 0.76639 0.29454 0.0
H1349 H 0.16129 0.74687 0.28321 0.0
H1350 H 0.21056 0.76374 0.21641 0.0
H1351 H 0.2017 0.75799 0.25808 0.0
H1352 H 0.05815 0.8486 0.16843 0.0
H1353 H 0.04499 0.83722 0.20713 0.0
H1354 H 0.07892 0.82715 0.13045 0.0
H1355 H 0.11972 0.81387 0.12194 0.0
C1356 C 0.50572 0.16382 0.68481 0.0
C1357 C 0.51429 0.18685 0.70724 0.0
C1358 C 0.45958 0.21753 0.67841 0.0
C1359 C 0.45468 0.19758 0.652 0.0
N1360 N 0.47383 0.15139 0.6295 0.0
N1361 N 0.50119 0.23855 0.72051 0.0
C1362 C 0.47779 0.17038 0.65526 0.0
C1363 C 0.49158 0.21443 0.7028 0.0
N1364 N 0.52447 0.13588 0.69149 0.0
N1365 N 0.43323 0.23933 0.68055 0.0
H1366 H 0.5247 0.23793 0.73787 0.0
H1367 H 0.48725 0.26006 0.71559 0.0
H1368 H 0.40912 0.24123 0.66385 0.0
H1369 H 0.43389 0.25286 0.70113 0.0
H1370 H 0.51805 0.11732 0.6779 0.0
H1371 H 0.5448 0.13067 0.71267 0.0
H1372 H 0.49186 0.13294 0.62805 0.0
H1373 H 0.45306 0.15516 0.60855 0.0
C1374 C 0.90567 0.29968 0.3479 0.0
C1375 C 0.92921 0.3002 0.38021 0.0
C1376 C 0.97824 0.29846 0.34581 0.0
C1377 C 0.95479 0.29861 0.31339 0.0
N1378 N 0.89467 0.30408 0.28447 0.0
N1379 N 0.98783 0.30657 0.40734 0.0
C1380 C 0.91811 0.30084 0.31488 0.0
C1381 C 0.96545 0.30123 0.37819 0.0
N1382 N 0.87129 0.2964 0.34862 0.0
N1383 N 1.01341 0.29588 0.34585 0.0
H1384 H 0.97949 0.30975 0.43075 0.0
H1385 H 1.01372 0.31101 0.40774 0.0
H1386 H 1.02359 0.29731 0.32316 0.0
H1387 H 0.03241 0.29094 0.3681 0.0
H1388 H 0.85348 0.29134 0.32747 0.0
H1389 H 0.86095 0.29706 0.37118 0.0
H1390 H 0.86787 0.30982 0.28277 0.0
H1391 H 0.90233 0.30288 0.26044 0.0
C1392 C 0.21474 0.13557 0.36641 0.0
C1393 C 0.21668 0.10332 0.36939 0.0
C1394 C 0.15428 0.10678 0.34143 0.0
C1395 C 0.15426 0.13869 0.33409 0.0
N1396 N 0.18424 0.18383 0.33917 0.0
N1397 N 0.18494 0.05865 0.3689 0.0
C1398 C 0.18429 0.15324 0.34693 0.0
C1399 C 0.18535 0.08902 0.35996 0.0
N1400 N 0.24157 0.14922 0.38403 0.0
N1401 N 0.12497 0.09328 0.32891 0.0
H1402 H 0.20686 0.0442 0.38065 0.0
H1403 H 0.16232 0.04753 0.36648 0.0
H1404 H 0.10148 0.10564 0.31672 0.0
H1405 H 0.12393 0.06993 0.32905 0.0
H1406 H 0.2412 0.17256 0.3856 0.0
H1407 H 0.26257 0.13661 0.40061 0.0
H1408 H 0.20651 0.19534 0.34396 0.0
H1409 H 0.16216 0.19762 0.32596 0.0
C1410 C 0.35466 0.95617 0.88319 0.0
C1411 C 0.31844 0.96228 0.885 0.0
C1412 C 0.31037 0.90848 0.87508 0.0
C1413 C 0.34627 0.90235 0.8728 0.0
N1414 N 0.40421 0.91872 0.88159 0.0
N1415 N 0.2638 0.94085 0.88919 0.0
C1416 C 0.3689 0.92577 0.87899 0.0
C1417 C 0.29725 0.93751 0.88317 0.0
N1418 N 0.37515 0.97967 0.88375 0.0
N1419 N 0.28795 0.88662 0.86904 0.0
H1420 H 0.25238 0.96061 0.89717 0.0
H1421 H 0.25238 0.96061 0.89717 0.0
H1422 H 0.29572 0.86514 0.86222 0.0
H1423 H 0.26125 0.8904 0.86994 0.0
H1424 H 0.40043 0.97792 0.8782 0.0
H1425 H 0.36618 1.0016 0.8882 0.0
H1426 H 0.42277 0.93348 0.88942 0.0
H1427 H 0.41525 0.897 0.87855 0.0
C1428 C 0.60505 0.42949 0.66406 0.0
C1429 C 0.63648 0.44363 0.66646 0.0
C1430 C 0.66779 0.40104 0.70627 0.0
C1431 C 0.63806 0.38482 0.69902 0.0
N1432 N 0.57832 0.38255 0.67065 0.0
N1433 N 0.69841 0.44324 0.68881 0.0
C1434 C 0.6064 0.39892 0.67829 0.0
C1435 C 0.66797 0.42976 0.68777 0.0
N1436 N 0.57406 0.4454 0.64819 0.0
N1437 N 0.69578 0.38878 0.73076 0.0
H1438 H 0.69966 0.46455 0.67615 0.0
H1439 H 0.72294 0.43255 0.7004 0.0
H1440 H 0.69615 0.36768 0.74461 0.0
H1441 H 0.71713 0.40049 0.73953 0.0
H1442 H 0.54967 0.43746 0.64837 0.0
H1443 H 0.57251 0.46782 0.63736 0.0
H1444 H 0.5561 0.3903 0.65232 0.0
H1445 H 0.57794 0.36033 0.68124 0.0
C1446 C 0.86967 0.59121 0.22834 0.0
C1447 C 0.83321 0.60117 0.21749 0.0
C1448 C 0.84659 0.65377 0.22841 0.0
C1449 C 0.88308 0.64418 0.2379 0.0
N1450 N 0.92985 0.60455 0.23909 0.0
N1451 N 0.79021 0.64389 0.19663 0.0
C1452 C 0.89471 0.61309 0.2355 0.0
C1453 C 0.82272 0.63306 0.21452 0.0
N1454 N 0.88052 0.56081 0.23321 0.0
N1455 N 0.83428 0.68253 0.2337 0.0
H1456 H 0.77326 0.62976 0.18391 0.0
H1457 H 0.78195 0.66698 0.19071 0.0
H1458 H 0.85058 0.69827 0.24401 0.0
H1459 H 0.80764 0.68978 0.23088 0.0
H1460 H 0.90595 0.55199 0.24437 0.0
H1461 H 0.86361 0.54405 0.22872 0.0
H1462 H 0.9402 0.58329 0.23387 0.0
H1463 H 0.94872 0.61971 0.24418 0.0
C1464 C 0.39914 0.18449 0.17621 0.0
C1465 C 0.38446 0.19317 0.20524 0.0
C1466 C 0.38587 0.24716 0.18506 0.0
C1467 C 0.39799 0.23861 0.15443 0.0
N1468 N 0.4269 0.19913 0.12738 0.0
N1469 N 0.36325 0.23266 0.23731 0.0
C1470 C 0.4079 0.20726 0.15195 0.0
C1471 C 0.37806 0.22451 0.20978 0.0
N1472 N 0.403 0.15438 0.17079 0.0
N1473 N 0.38368 0.27713 0.19148 0.0
H1474 H 0.35952 0.217 0.25717 0.0
H1475 H 0.3529 0.25464 0.23985 0.0
H1476 H 0.39011 0.2944 0.17496 0.0
H1477 H 0.37886 0.28492 0.21464 0.0
H1478 H 0.40913 0.14645 0.14813 0.0
H1479 H 0.39754 0.13718 0.18807 0.0
H1480 H 0.43756 0.17703 0.12583 0.0
H1481 H 0.4358 0.21494 0.11098 0.0
C1482 C 0.18002 0.88347 0.77628 0.0
C1483 C 0.15893 0.9107 0.77882 0.0
C1484 C 0.10581 0.88531 0.7656 0.0
C1485 C 0.12646 0.86169 0.7545 0.0
N1486 N 0.18096 0.83022 0.76477 0.0
N1487 N 0.10357 0.93549 0.7867 0.0
C1488 C 0.16298 0.85778 0.76622 0.0
C1489 C 0.12228 0.91069 0.77783 0.0
N1490 N 0.21569 0.88303 0.78072 0.0
N1491 N 0.07043 0.88413 0.76099 0.0
H1492 H 0.11557 0.95421 0.79565 0.0
H1493 H 0.07666 0.93728 0.78625 0.0
H1494 H 0.05927 0.86522 0.75134 0.0
H1495 H 0.05268 0.90077 0.76734 0.0
H1496 H 0.23225 0.86475 0.77584 0.0
H1497 H 0.22887 0.90152 0.78849 0.0
H1498 H 0.20769 0.82508 0.77405 0.0
H1499 H 0.16793 0.81168 0.75674 0.0
C1500 C 0.75619 0.49382 0.7507 0.0
C1501 C 0.76934 0.49246 0.71928 0.0
C1502 C 0.79585 0.43995 0.73969 0.0
C1503 C 0.78719 0.44329 0.773 0.0
N1504 N 0.76216 0.47534 0.81125 0.0
N1505 N 0.80361 0.46434 0.68441 0.0
C1506 C 0.76799 0.47072 0.77869 0.0
C1507 C 0.78941 0.4654 0.71377 0.0
N1508 N 0.73123 0.51676 0.75329 0.0
N1509 N 0.80946 0.41218 0.73251 0.0
H1510 H 0.79879 0.48192 0.66457 0.0
H1511 H 0.82186 0.44687 0.6806 0.0
H1512 H 0.81455 0.39328 0.75077 0.0
H1513 H 0.81285 0.40716 0.70782 0.0
H1514 H 0.71803 0.51771 0.77415 0.0
H1515 H 0.7209 0.53296 0.73262 0.0
H1516 H 0.7519 0.49614 0.81786 0.0
H1517 H 0.77034 0.45921 0.83244 0.0
C1518 C 0.69385 0.71132 0.37502 0.0
C1519 C 0.68659 0.68072 0.38146 0.0
C1520 C 0.67251 0.69417 0.43848 0.0
C1521 C 0.67671 0.72547 0.4304 0.0
N1522 N 0.68206 0.76407 0.38518 0.0
N1523 N 0.66238 0.64478 0.41745 0.0
C1524 C 0.68465 0.734 0.39698 0.0
C1525 C 0.67403 0.67269 0.41271 0.0
N1526 N 0.71106 0.71879 0.34854 0.0
N1527 N 0.66867 0.6844 0.47123 0.0
H1528 H 0.66276 0.62877 0.39942 0.0
H1529 H 0.64948 0.63858 0.43763 0.0
H1530 H 0.6678 0.69892 0.49071 0.0
H1531 H 0.66956 0.66152 0.47994 0.0
H1532 H 0.72056 0.73984 0.3449 0.0
H1533 H 0.71928 0.70298 0.33254 0.0
H1534 H 0.68381 0.77149 0.35982 0.0
H1535 H 0.674 0.78159 0.39913 0.0
C1536 C 0.16212 0.29766 0.18067 0.0
C1537 C 0.16355 0.32101 0.15436 0.0
C1538 C 0.09855 0.33084 0.14682 0.0
C1539 C 0.09768 0.31051 0.17659 0.0
N1540 N 0.13258 0.27895 0.22579 0.0
N1541 N 0.13266 0.36302 0.11552 0.0
C1542 C 0.13052 0.295 0.19442 0.0
C1543 C 0.13158 0.33845 0.1383 0.0
N1544 N 0.19087 0.27715 0.19215 0.0
N1545 N 0.06784 0.34182 0.12545 0.0
H1546 H 0.15597 0.36929 0.10867 0.0
H1547 H 0.11094 0.37863 0.10585 0.0
H1548 H 0.04351 0.33559 0.12946 0.0
H1549 H 0.06682 0.35428 0.1017 0.0
H1550 H 0.19028 0.25752 0.2083 0.0
H1551 H 0.21428 0.27799 0.18269 0.0
H1552 H 0.1563 0.2708 0.24175 0.0
H1553 H 0.11126 0.27633 0.23779 0.0
C1554 C 0.75683 0.20603 0.89017 0.0
C1555 C 0.75937 0.23826 0.88824 0.0
C1556 C 0.70255 0.24405 0.84642 0.0
C1557 C 0.69811 0.21212 0.85115 0.0
N1558 N 0.7209 0.16365 0.88181 0.0
N1559 N 0.72922 0.28789 0.86894 0.0
C1560 C 0.72512 0.19357 0.87461 0.0
C1561 C 0.73077 0.25713 0.86742 0.0
N1562 N 0.78581 0.18687 0.90509 0.0
N1563 N 0.67993 0.26242 0.82138 0.0
H1564 H 0.7485 0.29841 0.88404 0.0
H1565 H 0.7072 0.30275 0.85797 0.0
H1566 H 0.6575 0.2554 0.80718 0.0
H1567 H 0.68464 0.28434 0.81316 0.0
H1568 H 0.78736 0.16336 0.90451 0.0
H1569 H 0.80981 0.1946 0.91464 0.0
H1570 H 0.73729 0.14951 0.90143 0.0
H1571 H 0.69929 0.15359 0.86998 0.0
C1572 C 0.89351 0.85228 0.37796 0.0
C1573 C 0.88746 0.82529 0.39703 0.0
C1574 C 0.94433 0.80118 0.38872 0.0
C1575 C 0.94788 0.8262 0.36516 0.0
N1576 N 0.92457 0.87553 0.336 0.0
N1577 N 0.90532 0.77263 0.41727 0.0
C1578 C 0.92234 0.85196 0.35971 0.0
C1579 C 0.9125 0.79941 0.40168 0.0
N1580 N 0.87207 0.87843 0.3779 0.0
N1581 N 0.97196 0.77941 0.39958 0.0
H1582 H 0.88231 0.77029 0.42706 0.0
H1583 H 0.92071 0.7521 0.4178 0.0
H1584 H 0.99604 0.78043 0.39152 0.0
H1585 H 0.97236 0.76229 0.41933 0.0
H1586 H 0.87709 0.89962 0.36769 0.0
H1587 H 0.85072 0.87945 0.39076 0.0
H1588 H 0.90454 0.89301 0.32761 0.0
H1589 H 0.94546 0.87673 0.32279 0.0
C1590 C 0.32654 0.76007 0.69536 0.0
C1591 C 0.33296 0.73046 0.71385 0.0
C1592 C 0.27375 0.7198 0.68654 0.0
C1593 C 0.267 0.74937 0.66791 0.0
N1594 N 0.28526 0.79927 0.65902 0.0
N1595 N 0.30652 0.68806 0.73647 0.0
C1596 C 0.29293 0.77002 0.67378 0.0
C1597 C 0.30481 0.71202 0.71206 0.0
N1598 N 0.35256 0.77896 0.69884 0.0
N1599 N 0.25038 0.69874 0.68011 0.0
H1600 H 0.32731 0.68329 0.7572 0.0
H1601 H 0.28553 0.67545 0.73883 0.0
H1602 H 0.22582 0.70364 0.66449 0.0
H1603 H 0.25623 0.6758 0.689 0.0
H1604 H 0.35204 0.79913 0.68333 0.0
H1605 H 0.37553 0.77396 0.71699 0.0
H1606 H 0.30123 0.81658 0.66422 0.0
H1607 H 0.26146 0.8069 0.64289 0.0
C1608 C 0.87364 0.93539 0.68292 0.0
C1609 C 0.841 0.92372 0.68431 0.0
C1610 C 0.87262 0.87878 0.72122 0.0
C1611 C 0.90396 0.89343 0.72531 0.0
N1612 N 0.93443 0.93617 0.71019 0.0
N1613 N 0.81355 0.87771 0.6892 0.0
C1614 C 0.90459 0.92173 0.70587 0.0
C1615 C 0.84175 0.89332 0.69898 0.0
N1616 N 0.87586 0.95732 0.6574 0.0
N1617 N 0.87201 0.85142 0.73955 0.0
H1618 H 0.79289 0.88709 0.66976 0.0
H1619 H 0.81261 0.85479 0.69652 0.0
H1620 H 0.8943 0.83956 0.75497 0.0
H1621 H 0.84914 0.84123 0.74107 0.0
H1622 H 0.89943 0.96516 0.65329 0.0
H1623 H 0.85495 0.96439 0.63727 0.0
H1624 H 0.93524 0.95847 0.70011 0.0
H1625 H 0.95776 0.92659 0.72593 0.0
C1626 C 0.75066 0.09689 0.17437 0.0
C1627 C 0.7398 0.07237 0.19415 0.0
C1628 C 0.71865 0.10961 0.23139 0.0
C1629 C 0.72424 0.13476 0.20897 0.0
N1630 N 0.7684 0.14773 0.17574 0.0
N1631 N 0.7045 0.05778 0.23605 0.0
C1632 C 0.74614 0.12744 0.18427 0.0
C1633 C 0.72064 0.07971 0.22058 0.0
N1634 N 0.76593 0.09132 0.14645 0.0
N1635 N 0.71899 0.11283 0.2656 0.0
H1636 H 0.70391 0.03608 0.22754 0.0
H1637 H 0.68862 0.06247 0.25426 0.0
H1638 H 0.72683 0.13235 0.27666 0.0
H1639 H 0.71788 0.09455 0.28358 0.0
H1640 H 0.77092 0.10864 0.1291 0.0
H1641 H 0.77049 0.06966 0.13868 0.0
H1642 H 0.78666 0.14335 0.15977 0.0
H1643 H 0.77289 0.16657 0.1896 0.0
C1644 C 0.46928 0.64508 0.41563 0.0
C1645 C 0.44622 0.65368 0.38361 0.0
C1646 C 0.42563 0.60351 0.38326 0.0
C1647 C 0.4459 0.59566 0.41683 0.0
N1648 N 0.48991 0.60638 0.46393 0.0
N1649 N 0.40531 0.6408 0.33487 0.0
C1650 C 0.46902 0.6156 0.43258 0.0
C1651 C 0.42569 0.6327 0.36667 0.0
N1652 N 0.49063 0.66552 0.42984 0.0
N1653 N 0.40527 0.58374 0.3666 0.0
H1654 H 0.40452 0.66215 0.32146 0.0
H1655 H 0.38963 0.62588 0.3218 0.0
H1656 H 0.40359 0.56149 0.37648 0.0
H1657 H 0.40359 0.56149 0.37648 0.0
H1658 H 0.50761 0.6616 0.45347 0.0
H1659 H 0.49191 0.68693 0.41743 0.0
H1660 H 0.50756 0.6194 0.4774 0.0
H1661 H 0.49007 0.58488 0.47675 0.0
C1662 C 0.18475 0.40355 0.85646 0.0
C1663 C 0.17952 0.39146 0.8236 0.0
C1664 C 0.22182 0.42516 0.80549 0.0
C1665 C 0.23047 0.43478 0.8396 0.0
N1666 N 0.22378 0.42703 0.89941 0.0
N1667 N 0.20029 0.38612 0.76995 0.0
C1668 C 0.21276 0.42239 0.86559 0.0
C1669 C 0.2002 0.40095 0.79913 0.0
N1670 N 0.16238 0.39775 0.87883 0.0
N1671 N 0.2328 0.44008 0.77831 0.0
H1672 H 0.18554 0.36797 0.76451 0.0
H1673 H 0.21781 0.38967 0.7531 0.0
H1674 H 0.24712 0.4587 0.78087 0.0
H1675 H 0.22416 0.43629 0.75259 0.0
H1676 H 0.16231 0.40845 0.90147 0.0
H1677 H 0.14179 0.38433 0.87316 0.0
H1678 H 0.21442 0.41608 0.91983 0.0
H1679 H 0.24484 0.43929 0.90744 0.0
C1680 C 0.67231 0.79861 0.88113 0.0
C1681 C 0.6704 0.80423 0.916 0.0
C1682 C 0.67822 0.8582 0.90142 0.0
C1683 C 0.68447 0.85147 0.86811 0.0
N1684 N 0.69096 0.81445 0.82734 0.0
N1685 N 0.6749 0.83918 0.96026 0.0
C1686 C 0.68222 0.82148 0.85824 0.0
C1687 C 0.67376 0.83411 0.9263 0.0
N1688 N 0.66392 0.77142 0.86954 0.0
N1689 N 0.67628 0.88774 0.90917 0.0
H1690 H 0.6718 0.8224 0.97919 0.0
H1691 H 0.68169 0.85932 0.97033 0.0
H1692 H 0.68018 0.90566 0.89192 0.0
H1693 H 0.66816 0.8948 0.93143 0.0
H1694 H 0.66055 0.76724 0.84357 0.0
H1695 H 0.65709 0.75376 0.88527 0.0
H1696 H 0.69442 0.79229 0.82055 0.0
H1697 H 0.69744 0.83054 0.80938 0.0
C1698 C 0.84702 0.15423 0.30584 0.0
C1699 C 0.86196 0.12639 0.29635 0.0
C1700 C 0.91517 0.14965 0.28884 0.0
C1701 C 0.90311 0.17391 0.30618 0.0
N1702 N 0.85264 0.20817 0.30861 0.0
N1703 N 0.90332 0.10171 0.26539 0.0
C1704 C 0.86684 0.17949 0.30575 0.0
C1705 C 0.89358 0.12571 0.28261 0.0
N1706 N 0.81607 0.15594 0.31789 0.0
N1707 N 0.94877 0.14809 0.28294 0.0
H1708 H 0.88788 0.08379 0.26126 0.0
H1709 H 0.9251 0.10063 0.25324 0.0
H1710 H 0.96417 0.16589 0.28844 0.0
H1711 H 0.96121 0.12956 0.27356 0.0
H1712 H 0.80636 0.17507 0.32845 0.0
H1713 H 0.80113 0.13769 0.31951 0.0
H1714 H 0.82581 0.21391 0.30701 0.0
H1715 H 0.86768 0.22655 0.30882 0.0
C1716 C 0.26177 0.55778 0.2843 0.0
C1717 C 0.27438 0.58656 0.2893 0.0
C1718 C 0.30416 0.56614 0.34862 0.0
C1719 C 0.29284 0.53692 0.34294 0.0
N1720 N 0.26683 0.50374 0.30222 0.0
N1721 N 0.31169 0.617 0.32452 0.0
C1722 C 0.27321 0.53252 0.30991 0.0
C1723 C 0.29697 0.59029 0.32094 0.0
N1724 N 0.23839 0.55451 0.255 0.0
N1725 N 0.3202 0.57138 0.38101 0.0
H1726 H 0.30581 0.63546 0.3057 0.0
H1727 H 0.33132 0.62029 0.34501 0.0
H1728 H 0.32571 0.55462 0.40177 0.0
H1729 H 0.32586 0.59277 0.38814 0.0
H1730 H 0.22441 0.53564 0.25177 0.0
H1731 H 0.231 0.57155 0.23465 0.0
H1732 H 0.25654 0.49831 0.27753 0.0
H1733 H 0.27496 0.48456 0.31965 0.0
C1734 C 0.41188 0.33649 0.68097 0.0
C1735 C 0.37969 0.35499 0.68011 0.0
C1736 C 0.35439 0.33065 0.62772 0.0
C1737 C 0.38673 0.31226 0.62813 0.0
N1738 N 0.44819 0.30239 0.65232 0.0
N1739 N 0.32187 0.37265 0.6491 0.0
C1740 C 0.41604 0.31676 0.65387 0.0
C1741 C 0.35149 0.35281 0.65241 0.0
N1742 N 0.4384 0.33709 0.70847 0.0
N1743 N 0.32593 0.32691 0.60346 0.0
H1744 H 0.31797 0.38799 0.66722 0.0
H1745 H 0.30201 0.37545 0.62744 0.0
H1746 H 0.32784 0.31447 0.58246 0.0
H1747 H 0.30035 0.3354 0.60444 0.0
H1748 H 0.46104 0.32193 0.71342 0.0
H1749 H 0.43666 0.35156 0.72793 0.0
H1750 H 0.47144 0.30695 0.66749 0.0
H1751 H 0.45206 0.28725 0.63404 0.0
C1752 C 0.92873 0.74139 0.8626 0.0
C1753 C 0.96018 0.72297 0.87873 0.0
C1754 C 0.92391 0.69359 0.91297 0.0
C1755 C 0.89347 0.71407 0.89952 0.0
N1756 N 0.86913 0.76105 0.86592 0.0
N1757 N 0.98748 0.68439 0.92432 0.0
C1758 C 0.89662 0.73899 0.87563 0.0
C1759 C 0.95761 0.6998 0.90524 0.0
N1760 N 0.92871 0.7601 0.83337 0.0
N1761 N 0.92054 0.66741 0.93225 0.0
H1762 H 1.01251 0.6881 0.92005 0.0
H1763 H 0.98764 0.66995 0.9465 0.0
H1764 H 0.89663 0.66196 0.93839 0.0
H1765 H 0.94069 0.64984 0.93945 0.0
H1766 H 0.90596 0.77143 0.8183 0.0
H1767 H 0.95074 0.7618 0.82193 0.0
H1768 H 0.871 0.78149 0.85177 0.0
H1769 H 0.8454 0.76022 0.87479 0.0
C1770 C 0.29727 0.82469 0.19011 0.0
C1771 C 0.30154 0.79472 0.17897 0.0
C1772 C 0.36616 0.79527 0.19863 0.0
C1773 C 0.36173 0.82414 0.21226 0.0
N1774 N 0.32132 0.86423 0.22449 0.0
N1775 N 0.34092 0.75035 0.17684 0.0
C1776 C 0.32673 0.83828 0.20872 0.0
C1777 C 0.33629 0.77975 0.18468 0.0
N1778 N 0.26473 0.84051 0.1827 0.0
N1779 N 0.39942 0.78316 0.19753 0.0
H1780 H 0.3202 0.73875 0.1659 0.0
H1781 H 0.36462 0.73665 0.18369 0.0
H1782 H 0.42138 0.79424 0.20611 0.0
H1783 H 0.40516 0.764 0.18502 0.0
H1784 H 0.26008 0.86353 0.18579 0.0
H1785 H 0.24241 0.83087 0.17175 0.0
H1786 H 0.29663 0.874 0.2269 0.0
H1787 H 0.34191 0.87503 0.2372 0.0
C1788 C 0.16922 0.23722 0.68565 0.0
C1789 C 0.16953 0.21941 0.65743 0.0
C1790 C 0.11025 0.20595 0.6629 0.0
C1791 C 0.11224 0.2202 0.69426 0.0
N1792 N 0.14909 0.24351 0.73925 0.0
N1793 N 0.14188 0.18402 0.6209 0.0
C1794 C 0.14311 0.23443 0.70652 0.0
C1795 C 0.14043 0.20298 0.64648 0.0
N1796 N 0.19381 0.25722 0.69245 0.0
N1797 N 0.07919 0.19659 0.64784 0.0
H1798 H 0.16314 0.18179 0.60798 0.0
H1799 H 0.12326 0.16897 0.6143 0.0
H1800 H 0.05638 0.19937 0.65835 0.0
H1801 H 0.07517 0.18884 0.6233 0.0
H1802 H 0.19245 0.27329 0.71029 0.0
H1803 H 0.21347 0.25999 0.67779 0.0
H1804 H 0.17283 0.25072 0.75051 0.0
H1805 H 0.13263 0.24015 0.75704 0.0
C1806 C 0.73777 0.27042 0.36725 0.0
C1807 C 0.72752 0.30102 0.35211 0.0
C1808 C 0.78515 0.31469 0.38049 0.0
C1809 C 0.7959 0.28403 0.39519 0.0
N1810 N 0.78494 0.23159 0.39425 0.0
N1811 N 0.74906 0.34739 0.33326 0.0
C1812 C 0.773 0.26155 0.38586 0.0
C1813 C 0.7533 0.32184 0.35579 0.0
N1814 N 0.71361 0.24977 0.36467 0.0
N1815 N 0.8055 0.33738 0.38955 0.0
H1816 H 0.72862 0.35102 0.3121 0.0
H1817 H 0.76824 0.3623 0.33242 0.0
H1818 H 0.83039 0.33349 0.40466 0.0
H1819 H 0.79672 0.36035 0.38328 0.0
H1820 H 0.71787 0.22838 0.37843 0.0
H1821 H 0.68824 0.25476 0.3507 0.0
H1822 H 0.77118 0.21385 0.38517 0.0
H1823 H 0.81012 0.22446 0.40784 0.0
C1824 C 0.92163 0.31365 0.09937 0.0
C1825 C 0.95051 0.29231 0.11603 0.0
C1826 C 0.95069 0.27214 0.05826 0.0
C1827 C 0.92176 0.2936 0.04161 0.0
N1828 N 0.89004 0.34173 0.04595 0.0
N1829 N 0.99757 0.25618 0.10775 0.0
C1830 C 0.91035 0.31641 0.0621 0.0
C1831 C 0.96629 0.27286 0.09439 0.0
N1832 N 0.9038 0.33083 0.11937 0.0
N1833 N 0.96387 0.25098 0.03912 0.0
H1834 H 1.00999 0.25626 0.13337 0.0
H1835 H 1.01283 0.24426 0.09292 0.0
H1836 H 0.95716 0.25235 1.01219 0.0
H1837 H 0.9807 0.2318 0.04988 0.0
H1838 H 0.88078 0.34481 0.10956 0.0
H1839 H 0.91001 0.32877 0.14633 0.0
H1840 H 0.88308 0.36044 0.05872 0.0
H1841 H 0.88448 0.34583 1.01914 0.0
C1842 C 0.48812 0.75593 0.65791 0.0
C1843 C 0.51869 0.7715 0.66357 0.0
C1844 C 0.50634 0.78208 0.72141 0.0
C1845 C 0.47676 0.76526 0.71622 0.0
N1846 N 0.43325 0.74557 0.67552 0.0
N1847 N 0.55428 0.80351 0.6982 0.0
C1848 C 0.46578 0.75514 0.68314 0.0
C1849 C 0.52688 0.78601 0.69458 0.0
N1850 N 0.48093 0.74096 0.62882 0.0
N1851 N 0.51458 0.79416 0.75225 0.0
H1852 H 0.57006 0.80614 0.67945 0.0
H1853 H 0.56071 0.81647 0.71885 0.0
H1854 H 0.49755 0.79434 0.77009 0.0
H1855 H 0.53755 0.80402 0.76016 0.0
H1856 H 0.46178 0.72594 0.62526 0.0
H1857 H 0.49573 0.74184 0.60909 0.0
H1858 H 0.42191 0.74033 0.65106 0.0
H1859 H 0.41605 0.74648 0.69293 0.0
C1860 C 0.56453 0.25497 0.90328 0.0
C1861 C 0.52763 0.26115 0.90073 0.0
C1862 C 0.51991 0.24944 0.83969 0.0
C1863 C 0.55706 0.2442 0.84156 0.0
N1864 N 0.61461 0.24866 0.87441 0.0
N1865 N 0.471 0.2712 0.86416 0.0
C1866 C 0.57927 0.24936 0.87301 0.0
C1867 C 0.50564 0.26051 0.86817 0.0
N1868 N 0.58558 0.2527 0.93513 0.0
N1869 N 0.49789 0.24302 0.81089 0.0
H1870 H 0.45972 0.27941 0.88431 0.0
H1871 H 0.45423 0.27461 0.84028 0.0
H1872 H 0.50678 0.23688 0.78874 0.0
H1873 H 0.47105 0.24209 0.80966 0.0
H1874 H 0.61201 0.24444 0.93965 0.0
H1875 H 0.57604 0.25658 0.95778 0.0
H1876 H 0.63163 0.25564 0.89503 0.0
H1877 H 0.62676 0.24388 0.85373 0.0
C1878 C 0.08299 0.79077 0.47084 0.0
C1879 C 0.11535 0.77197 0.48143 0.0
C1880 C 0.11065 0.76022 0.41923 0.0
C1881 C 0.08112 0.78219 0.40826 0.0
N1882 N 0.04306 0.8222 0.4251 0.0
N1883 N 0.16306 0.74318 0.46173 0.0
C1884 C 0.06866 0.79857 0.43455 0.0
C1885 C 0.12978 0.75762 0.45453 0.0
N1886 N 0.06439 0.79994 0.49535 0.0
N1887 N 0.12096 0.74183 0.39575 0.0
H1888 H 0.17939 0.74237 0.48568 0.0
H1889 H 0.17629 0.73518 0.44281 0.0
H1890 H 0.1087 0.74388 0.36985 0.0
H1891 H 0.13949 0.72297 0.40258 0.0
H1892 H 0.03898 0.81086 0.4893 0.0
H1893 H 0.07239 0.79344 0.5217 0.0
H1894 H 0.03593 0.83739 0.44223 0.0
H1895 H 1.03089 0.82806 0.39961 0.0
C1896 C 0.24802 0.97068 0.32077 0.0
C1897 C 0.2414 1.00258 0.32011 0.0
C1898 C 0.17834 0.99831 0.30205 0.0
C1899 C 0.18482 0.96626 0.31056 0.0
N1900 N 0.22611 0.92157 0.32763 0.0
N1901 N 0.20192 0.04761 0.29985 0.0
C1902 C 0.2198 0.95226 0.31911 0.0
C1903 C 0.20699 1.01676 0.30716 0.0
N1904 N 0.28154 0.9583 0.32177 0.0
N1905 N 0.14469 1.01085 0.28985 0.0
H1906 H 0.22245 0.06128 0.30229 0.0
H1907 H 0.17781 0.05996 0.29039 0.0
H1908 H 0.1237 0.99771 0.28513 0.0
H1909 H 0.13716 0.03393 0.28352 0.0
H1910 H 0.28812 0.93547 0.31895 0.0
H1911 H 0.30196 0.972 0.32105 0.0
H1912 H 0.25092 0.91069 0.33806 0.0
H1913 H 0.20623 0.90716 0.32643 0.0
C1914 C 0.39822 0.12055 0.84894 0.0
C1915 C 0.42319 0.10007 0.83757 0.0
C1916 C 0.37816 0.06407 0.82728 0.0
C1917 C 0.35263 0.08524 0.83715 0.0
N1918 N 0.33675 0.13707 0.84742 0.0
N1919 N 0.43368 0.05602 0.80714 0.0
C1920 C 0.36225 0.11456 0.84484 0.0
C1921 C 0.41207 0.073 0.82397 0.0
N1922 N 0.409 0.14511 0.86522 0.0
N1923 N 0.37118 0.03479 0.82307 0.0
H1924 H 0.45837 0.06193 0.80389 0.0
H1925 H 0.42572 0.0379 0.79342 0.0
H1926 H 0.34737 0.02668 0.82558 0.0
H1927 H 0.39022 1.01765 0.82004 0.0
H1928 H 0.39277 0.15892 0.87744 0.0
H1929 H 0.43501 0.15007 0.86938 0.0
H1930 H 0.34156 0.15963 0.84983 0.0
H1931 H 0.31015 0.13387 0.84317 0.0
C1932 C 0.66821 0.64037 0.67072 0.0
C1933 C 0.69026 0.61885 0.69509 0.0
C1934 C 0.6459 0.61959 0.73243 0.0
C1935 C 0.62165 0.63624 0.70489 0.0
N1936 N 0.60889 0.66224 0.64731 0.0
N1937 N 0.703 0.59052 0.7509 0.0
C1938 C 0.63269 0.64704 0.67408 0.0
C1939 C 0.68006 0.60949 0.72675 0.0
N1940 N 0.68143 0.65452 0.64453 0.0
N1941 N 0.63618 0.61376 0.76387 0.0
H1942 H 0.72898 0.58498 0.74817 0.0
H1943 H 0.69639 0.57986 0.77301 0.0
H1944 H 0.61135 0.62103 0.76865 0.0
H1945 H 0.65321 0.60373 0.78588 0.0
H1946 H 0.66771 0.67233 0.62743 0.0
H1947 H 0.70774 0.65074 0.64265 0.0
H1948 H 0.61451 0.6675 0.62275 0.0
H1949 H 0.5826 0.66782 0.64877 0.0
C1950 C 0.85483 0.44426 0.29006 0.0
C1951 C 0.88599 0.45824 0.28825 0.0
C1952 C 0.85583 0.50776 0.29451 0.0
C1953 C 0.82382 0.49491 0.28666 0.0
N1954 N 0.79263 0.45154 0.29316 0.0
N1955 N 0.91945 0.50053 0.29903 0.0
C1956 C 0.82357 0.46308 0.29082 0.0
C1957 C 0.88768 0.48913 0.29476 0.0
N1958 N 0.85467 0.41366 0.28797 0.0
N1959 N 0.85516 0.53779 0.29999 0.0
H1960 H 0.94271 0.48662 0.29972 0.0
H1961 H 0.92305 0.5231 0.30265 0.0
H1962 H 0.83167 0.55098 0.30034 0.0
H1963 H 0.87738 0.54914 0.30602 0.0
H1964 H 0.83217 0.40237 0.28576 0.0
H1965 H 0.87746 0.39937 0.28816 0.0
H1966 H 0.78982 0.42851 0.2974 0.0
H1967 H 0.7701 0.46604 0.29345 0.0
C1968 C 0.29917 0.2526 1.01347 0.0
C1969 C 0.33572 0.2522 1.02605 0.0
C1970 C 0.3459 0.2012 1.00753 0.0
C1971 C 0.30938 0.20009 0.99866 0.0
N1972 N 0.25039 0.22321 0.995 0.0
N1973 N 0.39235 0.22191 0.04101 0.0
C1974 C 0.28564 0.22546 1.00194 0.0
C1975 C 0.35853 0.22569 1.02442 0.0
N1976 N 0.27772 0.279 1.01168 0.0
N1977 N 0.36904 0.17796 1.00153 0.0
H1978 H 0.40328 0.23702 0.05757 0.0
H1979 H 0.40328 0.23702 0.05757 0.0
H1980 H 0.36134 0.15929 0.98866 0.0
H1981 H 0.39619 0.17821 1.00799 0.0
H1982 H 0.25144 0.28159 0.99989 0.0
H1983 H 0.28693 0.29916 1.01973 0.0
H1984 H 0.23165 0.23957 1.00032 0.0
H1985 H 0.23997 0.20393 0.98559 0.0
C1986 C 0.80601 0.31775 0.05893 0.0
C1987 C 0.80963 0.32423 1.02361 0.0
C1988 C 0.79906 0.3793 1.03166 0.0
C1989 C 0.80101 0.37294 0.06773 0.0
N1990 N 0.80968 0.33539 0.1166 0.0
N1991 N 0.82021 0.36383 0.98132 0.0
C1992 C 0.80541 0.3419 0.08161 0.0
C1993 C 0.80854 0.35574 1.01118 0.0
N1994 N 0.8015 0.28884 0.07063 0.0
N1995 N 0.78846 0.40817 1.0166 0.0
H1996 H 0.8334 0.34846 0.96832 0.0
H1997 H 0.82257 0.38627 0.9728 0.0
H1998 H 0.78177 0.42619 1.03057 0.0
H1999 H 0.78282 0.4134 0.98984 0.0
H2000 H 0.79559 0.28317 0.09499 0.0
H2001 H 0.7999 0.2711 0.05474 0.0
H2002 H 0.81702 0.31356 0.12887 0.0
H2003 H 0.80849 0.3523 0.13353 0.0
C2004 C 0.7441 0.69334 0.53732 0.0
C2005 C 0.73936 0.71904 0.55637 0.0
C2006 C 0.75672 0.68464 0.61055 0.0
C2007 C 0.75512 0.65856 0.59132 0.0
N2008 N 0.74653 0.63843 0.53574 0.0
N2009 N 0.74248 0.7391 0.61171 0.0
C2010 C 0.74864 0.6631 0.55451 0.0
C2011 C 0.7464 0.71457 0.59318 0.0
N2012 N 0.7453 0.69767 0.50286 0.0
N2013 N 0.76804 0.68102 0.64557 0.0
H2014 H 0.73849 0.76144 0.60024 0.0
H2015 H 0.74186 0.73739 0.63811 0.0
H2016 H 0.77376 0.65994 0.65985 0.0
H2017 H 0.77413 0.69892 0.6604 0.0
H2018 H 0.75178 0.68023 0.4881 0.0
H2019 H 0.74371 0.71908 0.48968 0.0
H2020 H 0.7372 0.64 0.50919 0.0
H2021 H 0.7523 0.6161 0.54702 0.0
C2022 C 0.21855 0.82605 0.49775 0.0
C2023 C 0.23458 0.81057 0.53038 0.0
C2024 C 0.27604 0.85006 0.53736 0.0
C2025 C 0.25939 0.86593 0.50505 0.0
N2026 N 0.22082 0.86441 0.45067 0.0
N2027 N 0.2843 0.80344 0.57633 0.0
C2028 C 0.2326 0.85234 0.48404 0.0
C2029 C 0.26537 0.82118 0.54837 0.0
N2030 N 0.18872 0.81637 0.48053 0.0
N2031 N 0.30065 0.86338 0.5586 0.0
H2032 H 0.27696 0.78232 0.5844 0.0
H2033 H 0.30866 0.80807 0.58922 0.0
H2034 H 0.30908 0.88429 0.55167 0.0
H2035 H 0.3109 0.85484 0.58401 0.0
H2036 H 0.17265 0.82853 0.45913 0.0
H2037 H 0.17959 0.79631 0.48892 0.0
H2038 H 0.20377 0.85418 0.4328 0.0
H2039 H 0.23065 0.88336 0.43988 0.0
C2040 C 0.09807 0.72911 0.97662 0.0
C2041 C 0.10977 0.74472 0.94797 0.0
C2042 C 0.15359 0.76517 0.99179 0.0
C2043 C 0.14515 0.74644 1.02048 0.0
N2044 N 0.11089 0.70698 0.03683 0.0
N2045 N 0.15696 0.7701 0.93054 0.0
C2046 C 0.11819 0.72704 1.01164 0.0
C2047 C 0.13991 0.76047 0.95633 0.0
N2048 N 0.06621 0.71792 0.97101 0.0
N2049 N 0.17373 0.78864 0.99744 0.0
H2050 H 0.14895 0.76635 0.90471 0.0
H2051 H 0.18136 0.77851 0.93545 0.0
H2052 H 0.18415 0.79478 1.02154 0.0
H2053 H 0.17691 0.80456 0.97761 0.0
H2054 H 0.05448 0.70881 0.99082 0.0
H2055 H 0.04959 0.72123 0.94705 0.0
H2056 H 0.09432 0.69003 1.03164 0.0
H2057 H 0.12361 0.70577 0.06252 0.0
C2058 C 0.59959 0.27753 0.37951 0.0
C2059 C 0.58789 0.26849 0.34598 0.0
C2060 C 0.53803 0.24723 0.36782 0.0
C2061 C 0.54701 0.26052 0.39955 0.0
N2062 N 0.58598 0.28934 0.43532 0.0
N2063 N 0.54779 0.24238 0.30865 0.0
C2064 C 0.57794 0.27565 0.40541 0.0
C2065 C 0.55777 0.2523 0.34048 0.0
N2066 N 0.63187 0.2877 0.38666 0.0
N2067 N 0.51064 0.22974 0.36394 0.0
H2068 H 0.56347 0.24372 0.28963 0.0
H2069 H 0.52421 0.23339 0.3008 0.0
H2070 H 0.49542 0.22629 0.38304 0.0
H2071 H 0.50401 0.2173 0.34287 0.0
H2072 H 0.64391 0.29208 0.41123 0.0
H2073 H 0.64809 0.28869 0.36833 0.0
H2074 H 0.60539 0.30406 0.43945 0.0
H2075 H 0.57169 0.28762 0.4554 0.0
C2076 C 0.55028 0.80464 0.18132 0.0
C2077 C 0.54338 0.77691 0.16697 0.0
C2078 C 0.50506 0.76675 0.21011 0.0
C2079 C 0.51182 0.7947 0.22401 0.0
N2080 N 0.54953 0.83494 0.22976 0.0
N2081 N 0.51993 0.72863 0.17192 0.0
C2082 C 0.53734 0.81178 0.21181 0.0
C2083 C 0.52259 0.75698 0.18283 0.0
N2084 N 0.56745 0.82523 0.16468 0.0
N2085 N 0.48093 0.75017 0.22211 0.0
H2086 H 0.53235 0.72106 0.15219 0.0
H2087 H 0.50779 0.7119 0.18397 0.0
H2088 H 0.46937 0.75608 0.24305 0.0
H2089 H 0.47142 0.73143 0.21071 0.0
H2090 H 0.56929 0.84739 0.17134 0.0
H2091 H 0.57734 0.82123 0.14225 0.0
H2092 H 0.5705 0.84648 0.22446 0.0
H2093 H 0.54124 0.8402 0.25249 0.0
C2094 C 0.97438 0.28146 0.59363 0.0
C2095 C 0.94973 0.26144 0.57919 0.0
C2096 C 0.95132 0.23939 0.64 0.0
C2097 C 0.97875 0.25676 0.65414 0.0
N2098 N 1.02016 0.29128 0.64123 0.0
N2099 N 0.92253 0.21566 0.59093 0.0
C2100 C 0.99106 0.27717 0.63004 0.0
C2101 C 0.94079 0.23869 0.60306 0.0
N2102 N 0.98278 0.30442 0.5724 0.0
N2103 N 0.9337 0.22433 0.66211 0.0
H2104 H 0.91267 0.21431 0.56492 0.0
H2105 H 0.91935 0.19653 0.60676 0.0
H2106 H 0.9386 0.22591 0.68878 0.0
H2107 H 0.91152 0.21346 0.65374 0.0
H2108 H 0.99658 0.32212 0.58155 0.0
H2109 H 0.97462 0.30651 0.54563 0.0
H2110 H 0.03327 0.30344 0.62465 0.0
H2111 H 0.03289 0.28886 0.66694 0.0
C2112 C 0.83878 0.03627 0.76595 0.0
C2113 C 0.83602 0.02376 0.73345 0.0
C2114 C 0.89271 0.04224 0.72663 0.0
C2115 C 0.89166 0.05968 0.75497 0.0
N2116 N 0.86383 0.07397 0.80217 0.0
N2117 N 0.85963 0.01917 0.68066 0.0
C2118 C 0.86493 0.05662 0.77513 0.0
C2119 C 0.86302 0.02764 0.71347 0.0
N2120 N 0.81621 0.02923 0.78767 0.0
N2121 N 0.92197 0.03997 0.71161 0.0
H2122 H 0.8393 1.00762 0.66983 0.0
H2123 H 0.8756 0.02571 0.66322 0.0
H2124 H 0.94406 0.05104 0.71968 0.0
H2125 H 0.92567 0.02463 0.69345 0.0
H2126 H 0.81863 0.03554 0.81283 0.0
H2127 H 0.79653 1.01504 0.78141 0.0
H2128 H 0.84297 0.07558 0.81559 0.0
H2129 H 0.88328 0.08805 0.80998 0.0
C2130 C 0.69451 0.92095 0.21762 0.0
C2131 C 0.70754 0.94571 0.23485 0.0
C2132 C 0.65058 0.9567 0.25346 0.0
C2133 C 0.6364 0.93402 0.23303 0.0
N2134 N 0.64473 0.89333 0.19711 0.0
N2135 N 0.69944 0.9864 0.27064 0.0
C2136 C 0.65848 0.91565 0.21571 0.0
C2137 C 0.68615 0.96296 0.2538 0.0
N2138 N 0.71715 0.90219 0.20371 0.0
N2139 N 0.62976 0.97259 0.27211 0.0
H2140 H 0.72552 0.99081 0.27243 0.0
H2141 H 0.68483 1.00225 0.28197 0.0
H2142 H 0.60302 0.9706 0.27029 0.0
H2143 H 0.63883 0.98701 0.29049 0.0
H2144 H 0.71077 0.88245 0.19257 0.0
H2145 H 0.7437 0.90526 0.2056 0.0
H2146 H 0.65775 0.88108 0.18078 0.0
H2147 H 0.61935 0.88742 0.19711 0.0
C2148 C 0.41297 0.37779 0.35779 0.0
C2149 C 0.43259 0.40076 0.34598 0.0
C2150 C 0.38035 0.43773 0.33762 0.0
C2151 C 0.36338 0.41661 0.3559 0.0
N2152 N 0.36002 0.36578 0.37929 0.0
N2153 N 0.4353 0.45263 0.32383 0.0
C2154 C 0.37846 0.38613 0.36405 0.0
C2155 C 0.41612 0.43062 0.33487 0.0
N2156 N 0.42767 0.34827 0.36338 0.0
N2157 N 0.36231 0.46494 0.3239 0.0
H2158 H 0.46147 0.44831 0.32126 0.0
H2159 H 0.42608 0.47558 0.31916 0.0
H2160 H 0.33613 0.47022 0.32584 0.0
H2161 H 0.37188 0.48081 0.30799 0.0
H2162 H 0.41453 0.32997 0.37033 0.0
H2163 H 0.45286 0.34174 0.35899 0.0
H2164 H 0.3698 0.34359 0.38866 0.0
H2165 H 0.33429 0.3716 0.38269 0.0
C2166 C 0.24436 0.58173 0.77663 0.0
C2167 C 0.24435 0.54996 0.77558 0.0
C2168 C 0.18073 0.55447 0.76684 0.0
C2169 C 0.18137 0.58468 0.77614 0.0
N2170 N 0.21068 0.63036 0.77834 0.0
N2171 N 0.21373 0.51124 0.74875 0.0
C2172 C 0.21216 0.59966 0.77635 0.0
C2173 C 0.21273 0.538 0.76343 0.0
N2174 N 0.27574 0.59368 0.78076 0.0
N2175 N 0.15011 0.54125 0.76331 0.0
H2176 H 0.23738 0.50104 0.74382 0.0
H2177 H 0.1914 0.50161 0.73794 0.0
H2178 H 0.12623 0.55348 0.76459 0.0
H2179 H 0.14873 0.51823 0.76022 0.0
H2180 H 0.2791 0.61631 0.78427 0.0
H2181 H 0.29872 0.57995 0.78007 0.0
H2182 H 0.23198 0.64294 0.77811 0.0
H2183 H 0.18721 0.64368 0.77831 0.0
C2184 C 0.74251 0.78591 0.07245 0.0
C2185 C 0.74027 0.78307 0.03657 0.0
C2186 C 0.7619 0.83334 1.03006 0.0
C2187 C 0.75576 0.83856 0.06369 0.0
N2188 N 0.73894 0.81999 0.11714 0.0
N2189 N 0.75072 0.80415 0.98081 0.0
C2190 C 0.74618 0.81476 0.08521 0.0
C2191 C 0.7515 0.80649 1.01531 0.0
N2192 N 0.74187 0.76066 0.0943 0.0
N2193 N 0.77823 0.85392 1.01246 0.0
H2194 H 0.74712 0.78431 0.96894 0.0
H2195 H 0.75282 0.82249 0.96336 0.0
H2196 H 0.78623 0.87375 1.02262 0.0
H2197 H 0.78691 0.85002 0.98943 0.0
H2198 H 0.74585 0.76061 0.12115 0.0
H2199 H 0.74191 0.7391 0.08539 0.0
H2200 H 0.72815 0.80432 0.13225 0.0
H2201 H 0.74112 0.84086 0.12743 0.0
C2202 C 0.25981 0.6541 1.03144 0.0
C2203 C 0.25893 0.66078 0.99558 0.0
C2204 C 0.25519 0.71587 1.00548 0.0
C2205 C 0.25133 0.7091 0.04071 0.0
N2206 N 0.23783 0.66945 0.08133 0.0
N2207 N 0.25137 0.69894 0.9474 0.0
C2208 C 0.25059 0.67757 0.05213 0.0
C2209 C 0.25533 0.69199 0.9823 0.0
N2210 N 0.26946 0.62501 0.04623 0.0
N2211 N 0.26019 0.74479 0.99429 0.0
H2212 H 0.25216 0.68224 0.93017 0.0
H2213 H 0.24469 0.72096 0.93548 0.0
H2214 H 0.26165 0.76238 1.0104 0.0
H2215 H 0.26632 0.75066 0.97007 0.0
H2216 H 0.27428 0.6195 0.07296 0.0
H2217 H 0.27621 0.60703 1.03221 0.0
H2218 H 0.23391 0.64712 0.0888 0.0
H2219 H 0.22588 0.68493 0.09508 0.0
C2220 C 0.30506 0.33029 0.50508 0.0
C2221 C 0.3357 0.31239 0.49954 0.0
C2222 C 0.35643 0.35898 0.47504 0.0
C2223 C 0.32561 0.37676 0.47917 0.0
N2224 N 0.26818 0.37878 0.49427 0.0
N2225 N 0.37891 0.30985 0.46173 0.0
C2226 C 0.29924 0.36219 0.49319 0.0
C2227 C 0.3582 0.32668 0.47956 0.0
N2228 N 0.28068 0.31659 0.52026 0.0
N2229 N 0.38403 0.37278 0.46605 0.0
H2230 H 0.37546 0.28737 0.45734 0.0
H2231 H 0.39473 0.31948 0.44591 0.0
H2232 H 0.38412 0.39632 0.46332 0.0
H2233 H 0.40819 0.36084 0.46538 0.0
H2234 H 0.26076 0.32843 0.52999 0.0
H2235 H 0.2802 0.29307 0.52279 0.0
H2236 H 0.24613 0.3694 0.50032 0.0
H2237 H 0.26401 0.40223 0.48768 0.0
C2238 C 0.83258 0.21587 0.56684 0.0
C2239 C 0.82368 0.22501 0.5309 0.0
C2240 C 0.78607 0.18258 0.52467 0.0
C2241 C 0.80103 0.16984 0.5588 0.0
N2242 N 0.83808 0.17511 0.61321 0.0
N2243 N 0.78742 0.22003 0.47641 0.0
C2244 C 0.82365 0.18703 0.58035 0.0
C2245 C 0.79861 0.20936 0.51027 0.0
N2246 N 0.84902 0.2351 0.58806 0.0
N2247 N 0.75951 0.16914 0.5062 0.0
H2248 H 0.7936 0.24096 0.46651 0.0
H2249 H 0.77259 0.20834 0.45825 0.0
H2250 H 0.74977 0.14977 0.51609 0.0
H2251 H 0.74519 0.17823 0.48231 0.0
H2252 H 0.85337 0.23153 0.61496 0.0
H2253 H 0.85547 0.25607 0.57843 0.0
H2254 H 0.85765 0.18473 0.62899 0.0
H2255 H 0.83182 0.15451 0.62398 0.0
loop_
_geom_bond_atom_site_label_1
_geom_bond_atom_site_label_2
_geom_bond_distance
_geom_bond_site_symmetry_2
_ccdc_geom_bond_type
Tb0 C9 2.764 . S
Tb0 O10 2.325 . S
Tb0 O13 2.303 . S
Tb0 O17 2.322 1_455 S
Tb0 O18 2.349 1_455 S
Tb0 O21 2.415 . S
Tb0 O22 2.399 . S
Tb1 O11 2.322 1_655 S
Tb1 O12 2.349 1_655 S
Tb1 O14 2.415 . S
Tb1 O15 2.399 . S
Tb1 O16 2.325 . S
Tb1 O19 2.303 . S
Tb1 C30 2.764 . S
C2 O18 1.261 . S
C2 O19 1.257 . S
C3 C6 1.358 . S
C3 C7 1.332 . S
C3 C9 1.504 . S
C4 C5 1.373 . S
C4 C8 1.308 . S
C5 C4 1.373 . S
C5 C6 1.429 . S
C5 H32 0.932 . S
C6 C3 1.358 . S
C6 C5 1.429 . S
C6 H33 0.930 . S
C7 C3 1.332 . S
C7 C8 1.394 . S
C7 H34 0.932 . S
C8 C4 1.308 . S
C8 C7 1.394 . S
C8 H35 0.929 . S
C9 Tb0 2.764 . S
C9 C3 1.504 . S
C9 O21 1.239 . S
C9 O22 1.263 . S
O10 Tb0 2.325 . S
O10 C20 1.236 . S
O11 Tb1 2.322 1_455 S
O11 C20 1.257 . S
O12 Tb1 2.349 1_455 S
O12 C23 1.261 . S
O13 Tb0 2.303 . S
O13 C23 1.257 . S
O14 Tb1 2.415 . S
O14 C30 1.239 . S
O15 Tb1 2.399 . S
O15 C30 1.263 . S
O16 Tb1 2.325 . S
O16 C31 1.236 . S
O17 Tb0 2.322 1_655 S
O17 C31 1.257 . S
O18 Tb0 2.349 1_655 S
O18 C2 1.261 . S
O19 Tb1 2.303 . S
O19 C2 1.257 . S
C20 O10 1.236 . S
C20 O11 1.257 . S
O21 Tb0 2.415 . S
O21 C9 1.239 . S
O22 Tb0 2.399 . S
O22 C9 1.263 . S
C23 O12 1.261 . S
C23 O13 1.257 . S
C24 C27 1.358 . S
C24 C28 1.332 . S
C24 C30 1.504 . S
C25 C26 1.373 . S
C25 C29 1.308 . S
C26 C25 1.373 . S
C26 C27 1.429 . S
C26 H36 0.932 . S
C27 C24 1.358 . S
C27 C26 1.429 . S
C27 H37 0.930 . S
C28 C24 1.332 . S
C28 C29 1.394 . S
C28 H38 0.932 . S
C29 C25 1.308 . S
C29 C28 1.394 . S
C29 H39 0.929 . S
C30 Tb1 2.764 . S
C30 O14 1.239 . S
C30 O15 1.263 . S
C30 C24 1.504 . S
C31 O16 1.236 . S
C31 O17 1.257 . S
H32 C5 0.932 . S
H33 C6 0.930 . S
H34 C7 0.932 . S
H35 C8 0.929 . S
H36 C26 0.932 . S
H37 C27 0.930 . S
H38 C28 0.932 . S
H39 C29 0.929 . S
Tb40 C49 2.764 . S
Tb40 O50 2.325 . S
Tb40 O53 2.303 . S
Tb40 O57 2.322 . S
Tb40 O58 2.349 . S
Tb40 O61 2.415 . S
Tb40 O62 2.399 . S
Tb41 O51 2.322 . S
Tb41 O52 2.349 . S
Tb41 O54 2.415 . S
Tb41 O55 2.399 . S
Tb41 O56 2.325 . S
Tb41 O59 2.303 . S
Tb41 C70 2.764 . S
C42 O58 1.261 . S
C42 O59 1.257 . S
C43 C46 1.358 . S
C43 C47 1.332 . S
C43 C49 1.504 . S
C44 C45 1.373 . S
C44 C48 1.308 . S
C45 C44 1.373 . S
C45 C46 1.429 . S
C45 H72 0.932 . S
C46 C43 1.358 . S
C46 C45 1.429 . S
C46 H73 0.930 . S
C47 C43 1.332 . S
C47 C48 1.394 . S
C47 H74 0.932 . S
C48 C44 1.308 . S
C48 C47 1.394 . S
C48 H75 0.929 . S
C49 Tb40 2.764 . S
C49 C43 1.504 . S
C49 O61 1.239 . S
C49 O62 1.263 . S
O50 Tb40 2.325 . S
O50 C60 1.236 . S
O51 Tb41 2.322 . S
O51 C60 1.257 . S
O52 Tb41 2.349 . S
O52 C63 1.261 . S
O53 Tb40 2.303 . S
O53 C63 1.257 . S
O54 Tb41 2.415 . S
O54 C70 1.239 . S
O55 Tb41 2.399 . S
O55 C70 1.263 . S
O56 Tb41 2.325 . S
O56 C71 1.236 . S
O57 Tb40 2.322 . S
O57 C71 1.257 . S
O58 Tb40 2.349 . S
O58 C42 1.261 . S
O59 Tb41 2.303 . S
O59 C42 1.257 . S
C60 O50 1.236 . S
C60 O51 1.257 . S
O61 Tb40 2.415 . S
O61 C49 1.239 . S
O62 Tb40 2.399 . S
O62 C49 1.263 . S
C63 O52 1.261 . S
C63 O53 1.257 . S
C64 C67 1.358 . S
C64 C68 1.332 . S
C64 C70 1.504 . S
C65 C66 1.373 . S
C65 C69 1.308 . S
C66 C65 1.373 . S
C66 C67 1.429 . S
C66 H76 0.932 . S
C67 C64 1.358 . S
C67 C66 1.429 . S
C67 H77 0.930 . S
C68 C64 1.332 . S
C68 C69 1.394 . S
C68 H78 0.932 . S
C69 C65 1.308 . S
C69 C68 1.394 . S
C69 H79 0.929 . S
C70 Tb41 2.764 . S
C70 O54 1.239 . S
C70 O55 1.263 . S
C70 C64 1.504 . S
C71 O56 1.236 . S
C71 O57 1.257 . S
H72 C45 0.932 . S
H73 C46 0.930 . S
H74 C47 0.932 . S
H75 C48 0.929 . S
H76 C66 0.932 . S
H77 C67 0.930 . S
H78 C68 0.932 . S
H79 C69 0.929 . S
Tb80 C89 2.764 . S
Tb80 O90 2.325 . S
Tb80 O93 2.303 . S
Tb80 O97 2.322 . S
Tb80 O98 2.349 . S
Tb80 O101 2.415 . S
Tb80 O102 2.399 . S
Tb81 O91 2.322 . S
Tb81 O92 2.349 . S
Tb81 O94 2.415 . S
Tb81 O95 2.399 . S
Tb81 O96 2.325 . S
Tb81 O99 2.303 . S
Tb81 C110 2.764 . S
C82 O98 1.261 . S
C82 O99 1.257 . S
C83 C86 1.358 . S
C83 C87 1.332 . S
C83 C89 1.504 . S
C84 C85 1.373 . S
C84 C88 1.308 . S
C85 C84 1.373 . S
C85 C86 1.429 . S
C85 H112 0.932 . S
C86 C83 1.358 . S
C86 C85 1.429 . S
C86 H113 0.930 . S
C87 C83 1.332 . S
C87 C88 1.394 . S
C87 H114 0.932 . S
C88 C84 1.308 . S
C88 C87 1.394 . S
C88 H115 0.929 . S
C89 Tb80 2.764 . S
C89 C83 1.504 . S
C89 O101 1.239 . S
C89 O102 1.263 . S
O90 Tb80 2.325 . S
O90 C100 1.236 . S
O91 Tb81 2.322 . S
O91 C100 1.257 . S
O92 Tb81 2.349 . S
O92 C103 1.261 . S
O93 Tb80 2.303 . S
O93 C103 1.257 . S
O94 Tb81 2.415 . S
O94 C110 1.239 . S
O95 Tb81 2.399 . S
O95 C110 1.263 . S
O96 Tb81 2.325 . S
O96 C111 1.236 . S
O97 Tb80 2.322 . S
O97 C111 1.257 . S
O98 Tb80 2.349 . S
O98 C82 1.261 . S
O99 Tb81 2.303 . S
O99 C82 1.257 . S
C100 O90 1.236 . S
C100 O91 1.257 . S
O101 Tb80 2.415 . S
O101 C89 1.239 . S
O102 Tb80 2.399 . S
O102 C89 1.263 . S
C103 O92 1.261 . S
C103 O93 1.257 . S
C104 C107 1.358 . S
C104 C108 1.332 . S
C104 C110 1.504 . S
C105 C106 1.373 . S
C105 C109 1.308 . S
C106 C105 1.373 . S
C106 C107 1.429 . S
C106 H116 0.932 . S
C107 C104 1.358 . S
C107 C106 1.429 . S
C107 H117 0.930 . S
C108 C104 1.332 . S
C108 C109 1.394 . S
C108 H118 0.932 . S
C109 C105 1.308 . S
C109 C108 1.394 . S
C109 H119 0.929 . S
C110 Tb81 2.764 . S
C110 O94 1.239 . S
C110 O95 1.263 . S
C110 C104 1.504 . S
C111 O96 1.236 . S
C111 O97 1.257 . S
H112 C85 0.932 . S
H113 C86 0.930 . S
H114 C87 0.932 . S
H115 C88 0.929 . S
H116 C106 0.932 . S
H117 C107 0.930 . S
H118 C108 0.932 . S
H119 C109 0.929 . S
Tb120 C129 2.764 . S
Tb120 O130 2.325 . S
Tb120 O133 2.303 . S
Tb120 O137 2.322 1_655 S
Tb120 O138 2.349 1_655 S
Tb120 O141 2.415 . S
Tb120 O142 2.399 . S
Tb121 O131 2.322 1_455 S
Tb121 O132 2.349 1_455 S
Tb121 O134 2.415 . S
Tb121 O135 2.399 . S
Tb121 O136 2.325 . S
Tb121 O139 2.303 . S
Tb121 C150 2.764 . S
C122 O138 1.261 . S
C122 O139 1.257 . S
C123 C126 1.358 . S
C123 C127 1.332 . S
C123 C129 1.504 . S
C124 C125 1.373 . S
C124 C128 1.308 . S
C125 C124 1.373 . S
C125 C126 1.429 . S
C125 H152 0.932 . S
C126 C123 1.358 . S
C126 C125 1.429 . S
C126 H153 0.930 . S
C127 C123 1.332 . S
C127 C128 1.394 . S
C127 H154 0.932 . S
C128 C124 1.308 . S
C128 C127 1.394 . S
C128 H155 0.929 . S
C129 Tb120 2.764 . S
C129 C123 1.504 . S
C129 O141 1.239 . S
C129 O142 1.263 . S
O130 Tb120 2.325 . S
O130 C140 1.236 . S
O131 Tb121 2.322 1_655 S
O131 C140 1.257 . S
O132 Tb121 2.349 1_655 S
O132 C143 1.261 . S
O133 Tb120 2.303 . S
O133 C143 1.257 . S
O134 Tb121 2.415 . S
O134 C150 1.239 . S
O135 Tb121 2.399 . S
O135 C150 1.263 . S
O136 Tb121 2.325 . S
O136 C151 1.236 . S
O137 Tb120 2.322 1_455 S
O137 C151 1.257 . S
O138 Tb120 2.349 1_455 S
O138 C122 1.261 . S
O139 Tb121 2.303 . S
O139 C122 1.257 . S
C140 O130 1.236 . S
C140 O131 1.257 . S
O141 Tb120 2.415 . S
O141 C129 1.239 . S
O142 Tb120 2.399 . S
O142 C129 1.263 . S
C143 O132 1.261 . S
C143 O133 1.257 . S
C144 C147 1.358 . S
C144 C148 1.332 . S
C144 C150 1.504 . S
C145 C146 1.373 . S
C145 C149 1.308 . S
C146 C145 1.373 . S
C146 C147 1.429 . S
C146 H156 0.932 . S
C147 C144 1.358 . S
C147 C146 1.429 . S
C147 H157 0.930 . S
C148 C144 1.332 . S
C148 C149 1.394 . S
C148 H158 0.932 . S
C149 C145 1.308 . S
C149 C148 1.394 . S
C149 H159 0.929 . S
C150 Tb121 2.764 . S
C150 O134 1.239 . S
C150 O135 1.263 . S
C150 C144 1.504 . S
C151 O136 1.236 . S
C151 O137 1.257 . S
H152 C125 0.932 . S
H153 C126 0.930 . S
H154 C127 0.932 . S
H155 C128 0.929 . S
H156 C146 0.932 . S
H157 C147 0.930 . S
H158 C148 0.932 . S
H159 C149 0.929 . S
Tb160 C169 2.764 . S
Tb160 O170 2.325 . S
Tb160 O173 2.303 . S
Tb160 O177 2.322 1_545 S
Tb160 O178 2.349 1_545 S
Tb160 O181 2.415 . S
Tb160 O182 2.399 . S
Tb161 O171 2.322 1_565 S
Tb161 O172 2.349 1_565 S
Tb161 O174 2.415 . S
Tb161 O175 2.399 . S
Tb161 O176 2.325 . S
Tb161 O179 2.303 . S
Tb161 C190 2.764 . S
C162 O178 1.261 . S
C162 O179 1.257 . S
C163 C166 1.358 . S
C163 C167 1.332 . S
C163 C169 1.504 . S
C164 C165 1.373 . S
C164 C168 1.308 . S
C165 C164 1.373 . S
C165 C166 1.429 . S
C165 H192 0.932 . S
C166 C163 1.358 . S
C166 C165 1.429 . S
C166 H193 0.930 . S
C167 C163 1.332 . S
C167 C168 1.394 . S
C167 H194 0.932 . S
C168 C164 1.308 . S
C168 C167 1.394 . S
C168 H195 0.929 . S
C169 Tb160 2.764 . S
C169 C163 1.504 . S
C169 O181 1.239 . S
C169 O182 1.263 . S
O170 Tb160 2.325 . S
O170 C180 1.236 . S
O171 Tb161 2.322 1_545 S
O171 C180 1.257 . S
O172 Tb161 2.349 1_545 S
O172 C183 1.261 . S
O173 Tb160 2.303 . S
O173 C183 1.257 . S
O174 Tb161 2.415 . S
O174 C190 1.239 . S
O175 Tb161 2.399 . S
O175 C190 1.263 . S
O176 Tb161 2.325 . S
O176 C191 1.236 . S
O177 Tb160 2.322 1_565 S
O177 C191 1.257 . S
O178 Tb160 2.349 1_565 S
O178 C162 1.261 . S
O179 Tb161 2.303 . S
O179 C162 1.257 . S
C180 O170 1.236 . S
C180 O171 1.257 . S
O181 Tb160 2.415 . S
O181 C169 1.239 . S
O182 Tb160 2.399 . S
O182 C169 1.263 . S
C183 O172 1.261 . S
C183 O173 1.257 . S
C184 C187 1.358 . S
C184 C188 1.332 . S
C184 C190 1.504 . S
C185 C186 1.373 . S
C185 C189 1.308 . S
C186 C185 1.373 . S
C186 C187 1.429 . S
C186 H196 0.932 . S
C187 C184 1.358 . S
C187 C186 1.429 . S
C187 H197 0.930 . S
C188 C184 1.332 . S
C188 C189 1.394 . S
C188 H198 0.932 . S
C189 C185 1.308 . S
C189 C188 1.394 . S
C189 H199 0.929 . S
C190 Tb161 2.764 . S
C190 O174 1.239 . S
C190 O175 1.263 . S
C190 C184 1.504 . S
C191 O176 1.236 . S
C191 O177 1.257 . S
H192 C165 0.932 . S
H193 C166 0.930 . S
H194 C167 0.932 . S
H195 C168 0.929 . S
H196 C186 0.932 . S
H197 C187 0.930 . S
H198 C188 0.932 . S
H199 C189 0.929 . S
Tb200 C209 2.764 . S
Tb200 O210 2.325 . S
Tb200 O213 2.303 . S
Tb200 O217 2.322 1_565 S
Tb200 O218 2.349 1_565 S
Tb200 O221 2.415 . S
Tb200 O222 2.399 . S
Tb201 O211 2.322 1_545 S
Tb201 O212 2.349 1_545 S
Tb201 O214 2.415 . S
Tb201 O215 2.399 . S
Tb201 O216 2.325 . S
Tb201 O219 2.303 . S
Tb201 C230 2.764 . S
C202 O218 1.261 . S
C202 O219 1.257 . S
C203 C206 1.358 . S
C203 C207 1.332 . S
C203 C209 1.504 . S
C204 C205 1.373 . S
C204 C208 1.308 . S
C205 C204 1.373 . S
C205 C206 1.429 . S
C205 H232 0.932 . S
C206 C203 1.358 . S
C206 C205 1.429 . S
C206 H233 0.930 . S
C207 C203 1.332 . S
C207 C208 1.394 . S
C207 H234 0.932 . S
C208 C204 1.308 . S
C208 C207 1.394 . S
C208 H235 0.929 . S
C209 Tb200 2.764 . S
C209 C203 1.504 . S
C209 O221 1.239 . S
C209 O222 1.263 . S
O210 Tb200 2.325 . S
O210 C220 1.236 . S
O211 Tb201 2.322 1_565 S
O211 C220 1.257 . S
O212 Tb201 2.349 1_565 S
O212 C223 1.261 . S
O213 Tb200 2.303 . S
O213 C223 1.257 . S
O214 Tb201 2.415 . S
O214 C230 1.239 . S
O215 Tb201 2.399 . S
O215 C230 1.263 . S
O216 Tb201 2.325 . S
O216 C231 1.236 . S
O217 Tb200 2.322 1_545 S
O217 C231 1.257 . S
O218 Tb200 2.349 1_545 S
O218 C202 1.261 . S
O219 Tb201 2.303 . S
O219 C202 1.257 . S
C220 O210 1.236 . S
C220 O211 1.257 . S
O221 Tb200 2.415 . S
O221 C209 1.239 . S
O222 Tb200 2.399 . S
O222 C209 1.263 . S
C223 O212 1.261 . S
C223 O213 1.257 . S
C224 C227 1.358 . S
C224 C228 1.332 . S
C224 C230 1.504 . S
C225 C226 1.373 . S
C225 C229 1.308 . S
C226 C225 1.373 . S
C226 C227 1.429 . S
C226 H236 0.932 1_556 S
C227 C224 1.358 . S
C227 C226 1.429 . S
C227 H237 0.930 . S
C228 C224 1.332 . S
C228 C229 1.394 . S
C228 H238 0.932 . S
C229 C225 1.308 . S
C229 C228 1.394 . S
C229 H239 0.929 . S
C230 Tb201 2.764 . S
C230 O214 1.239 . S
C230 O215 1.263 . S
C230 C224 1.504 . S
C231 O216 1.236 . S
C231 O217 1.257 . S
H232 C205 0.932 . S
H233 C206 0.930 . S
H234 C207 0.932 . S
H235 C208 0.929 . S
H236 C226 0.932 1_554 S
H237 C227 0.930 . S
H238 C228 0.932 . S
H239 C229 0.929 . S
Tb240 C249 2.764 . S
Tb240 O250 2.325 . S
Tb240 O253 2.303 . S
Tb240 O257 2.322 . S
Tb240 O258 2.349 . S
Tb240 O261 2.415 . S
Tb240 O262 2.399 . S
Tb241 O251 2.322 . S
Tb241 O252 2.349 . S
Tb241 O254 2.415 . S
Tb241 O255 2.399 . S
Tb241 O256 2.325 . S
Tb241 O259 2.303 . S
Tb241 C270 2.764 . S
C242 O258 1.261 . S
C242 O259 1.257 . S
C243 C246 1.358 . S
C243 C247 1.332 . S
C243 C249 1.504 . S
C244 C245 1.373 . S
C244 C248 1.308 . S
C245 C244 1.373 . S
C245 C246 1.429 . S
C245 H272 0.932 . S
C246 C243 1.358 . S
C246 C245 1.429 . S
C246 H273 0.930 . S
C247 C243 1.332 . S
C247 C248 1.394 . S
C247 H274 0.932 . S
C248 C244 1.308 . S
C248 C247 1.394 . S
C248 H275 0.929 . S
C249 Tb240 2.764 . S
C249 C243 1.504 . S
C249 O261 1.239 . S
C249 O262 1.263 . S
O250 Tb240 2.325 . S
O250 C260 1.236 . S
O251 Tb241 2.322 . S
O251 C260 1.257 . S
O252 Tb241 2.349 . S
O252 C263 1.261 . S
O253 Tb240 2.303 . S
O253 C263 1.257 . S
O254 Tb241 2.415 . S
O254 C270 1.239 . S
O255 Tb241 2.399 . S
O255 C270 1.263 . S
O256 Tb241 2.325 . S
O256 C271 1.236 . S
O257 Tb240 2.322 . S
O257 C271 1.257 . S
O258 Tb240 2.349 . S
O258 C242 1.261 . S
O259 Tb241 2.303 . S
O259 C242 1.257 . S
C260 O250 1.236 . S
C260 O251 1.257 . S
O261 Tb240 2.415 . S
O261 C249 1.239 . S
O262 Tb240 2.399 . S
O262 C249 1.263 . S
C263 O252 1.261 . S
C263 O253 1.257 . S
C264 C267 1.358 . S
C264 C268 1.332 . S
C264 C270 1.504 . S
C265 C266 1.373 . S
C265 C269 1.308 . S
C266 C265 1.373 . S
C266 C267 1.429 . S
C266 H276 0.932 . S
C267 C264 1.358 . S
C267 C266 1.429 . S
C267 H277 0.930 . S
C268 C264 1.332 . S
C268 C269 1.394 . S
C268 H278 0.932 . S
C269 C265 1.308 . S
C269 C268 1.394 . S
C269 H279 0.929 . S
C270 Tb241 2.764 . S
C270 O254 1.239 . S
C270 O255 1.263 . S
C270 C264 1.504 . S
C271 O256 1.236 . S
C271 O257 1.257 . S
H272 C245 0.932 . S
H273 C246 0.930 . S
H274 C247 0.932 . S
H275 C248 0.929 . S
H276 C266 0.932 . S
H277 C267 0.930 . S
H278 C268 0.932 . S
H279 C269 0.929 . S
Tb280 C289 2.764 . S
Tb280 O290 2.325 . S
Tb280 O293 2.303 . S
Tb280 O297 2.322 . S
Tb280 O298 2.349 . S
Tb280 O301 2.415 . S
Tb280 O302 2.399 . S
Tb281 O291 2.322 . S
Tb281 O292 2.349 . S
Tb281 O294 2.415 . S
Tb281 O295 2.399 . S
Tb281 O296 2.325 . S
Tb281 O299 2.303 . S
Tb281 C310 2.764 . S
C282 O298 1.261 . S
C282 O299 1.257 . S
C283 C286 1.358 . S
C283 C287 1.332 . S
C283 C289 1.504 . S
C284 C285 1.373 . S
C284 C288 1.308 . S
C285 C284 1.373 . S
C285 C286 1.429 . S
C285 H312 0.932 . S
C286 C283 1.358 . S
C286 C285 1.429 . S
C286 H313 0.930 . S
C287 C283 1.332 . S
C287 C288 1.394 . S
C287 H314 0.932 . S
C288 C284 1.308 . S
C288 C287 1.394 . S
C288 H315 0.929 . S
C289 Tb280 2.764 . S
C289 C283 1.504 . S
C289 O301 1.239 . S
C289 O302 1.263 . S
O290 Tb280 2.325 . S
O290 C300 1.236 . S
O291 Tb281 2.322 . S
O291 C300 1.257 . S
O292 Tb281 2.349 . S
O292 C303 1.261 . S
O293 Tb280 2.303 . S
O293 C303 1.257 . S
O294 Tb281 2.415 . S
O294 C310 1.239 . S
O295 Tb281 2.399 . S
O295 C310 1.263 . S
O296 Tb281 2.325 . S
O296 C311 1.236 . S
O297 Tb280 2.322 . S
O297 C311 1.257 . S
O298 Tb280 2.349 . S
O298 C282 1.261 . S
O299 Tb281 2.303 . S
O299 C282 1.257 . S
C300 O290 1.236 . S
C300 O291 1.257 . S
O301 Tb280 2.415 . S
O301 C289 1.239 . S
O302 Tb280 2.399 . S
O302 C289 1.263 . S
C303 O292 1.261 . S
C303 O293 1.257 . S
C304 C307 1.358 . S
C304 C308 1.332 . S
C304 C310 1.504 . S
C305 C306 1.373 . S
C305 C309 1.308 . S
C306 C305 1.373 . S
C306 C307 1.429 . S
C306 H316 0.932 1_554 S
C307 C304 1.358 . S
C307 C306 1.429 . S
C307 H317 0.930 . S
C308 C304 1.332 . S
C308 C309 1.394 . S
C308 H318 0.932 . S
C309 C305 1.308 . S
C309 C308 1.394 . S
C309 H319 0.929 . S
C310 Tb281 2.764 . S
C310 O294 1.239 . S
C310 O295 1.263 . S
C310 C304 1.504 . S
C311 O296 1.236 . S
C311 O297 1.257 . S
H312 C285 0.932 . S
H313 C286 0.930 . S
H314 C287 0.932 . S
H315 C288 0.929 . S
H316 C306 0.932 1_556 S
H317 C307 0.930 . S
H318 C308 0.932 . S
H319 C309 0.929 . S
Tb320 C329 2.764 . S
Tb320 O330 2.325 . S
Tb320 O333 2.303 . S
Tb320 O337 2.322 . S
Tb320 O338 2.349 . S
Tb320 O341 2.415 . S
Tb320 O342 2.399 . S
Tb321 O331 2.322 . S
Tb321 O332 2.349 . S
Tb321 O334 2.415 1_554 S
Tb321 O335 2.399 . S
Tb321 O336 2.325 . S
Tb321 O339 2.303 . S
Tb321 C350 2.764 1_554 S
C322 O338 1.261 . S
C322 O339 1.257 . S
C323 C326 1.358 . S
C323 C327 1.332 . S
C323 C329 1.504 . S
C324 C325 1.373 . S
C324 C328 1.308 . S
C325 C324 1.373 . S
C325 C326 1.429 . S
C325 H352 0.932 . S
C326 C323 1.358 . S
C326 C325 1.429 . S
C326 H353 0.930 . S
C327 C323 1.332 . S
C327 C328 1.394 . S
C327 H354 0.932 . S
C328 C324 1.308 . S
C328 C327 1.394 . S
C328 H355 0.929 . S
C329 Tb320 2.764 . S
C329 C323 1.504 . S
C329 O341 1.239 . S
C329 O342 1.263 . S
O330 Tb320 2.325 . S
O330 C340 1.236 . S
O331 Tb321 2.322 . S
O331 C340 1.257 . S
O332 Tb321 2.349 . S
O332 C343 1.261 . S
O333 Tb320 2.303 . S
O333 C343 1.257 . S
O334 Tb321 2.415 1_556 S
O334 C350 1.239 . S
O335 Tb321 2.399 . S
O335 C350 1.263 1_554 S
O336 Tb321 2.325 . S
O336 C351 1.236 1_554 S
O337 Tb320 2.322 . S
O337 C351 1.257 1_554 S
O338 Tb320 2.349 . S
O338 C322 1.261 . S
O339 Tb321 2.303 . S
O339 C322 1.257 . S
C340 O330 1.236 . S
C340 O331 1.257 . S
O341 Tb320 2.415 . S
O341 C329 1.239 . S
O342 Tb320 2.399 . S
O342 C329 1.263 . S
C343 O332 1.261 . S
C343 O333 1.257 . S
C344 C347 1.358 . S
C344 C348 1.332 . S
C344 C350 1.504 . S
C345 C346 1.373 . S
C345 C349 1.308 . S
C346 C345 1.373 . S
C346 C347 1.429 . S
C346 H356 0.932 . S
C347 C344 1.358 . S
C347 C346 1.429 . S
C347 H357 0.930 . S
C348 C344 1.332 . S
C348 C349 1.394 . S
C348 H358 0.932 . S
C349 C345 1.308 . S
C349 C348 1.394 . S
C349 H359 0.929 . S
C350 Tb321 2.764 1_556 S
C350 O334 1.239 . S
C350 O335 1.263 1_556 S
C350 C344 1.504 . S
C351 O336 1.236 1_556 S
C351 O337 1.257 1_556 S
H352 C325 0.932 . S
H353 C326 0.930 . S
H354 C327 0.932 . S
H355 C328 0.929 . S
H356 C346 0.932 . S
H357 C347 0.930 . S
H358 C348 0.932 . S
H359 C349 0.929 . S
Tb360 C369 2.764 1_556 S
Tb360 O370 2.325 . S
Tb360 O373 2.303 . S
Tb360 O377 2.322 . S
Tb360 O378 2.349 . S
Tb360 O381 2.415 1_556 S
Tb360 O382 2.399 . S
Tb361 O371 2.322 . S
Tb361 O372 2.349 . S
Tb361 O374 2.415 . S
Tb361 O375 2.399 . S
Tb361 O376 2.325 . S
Tb361 O379 2.303 . S
Tb361 C390 2.764 . S
C362 O378 1.261 . S
C362 O379 1.257 . S
C363 C366 1.358 . S
C363 C367 1.332 . S
C363 C369 1.504 . S
C364 C365 1.373 . S
C364 C368 1.308 . S
C365 C364 1.373 . S
C365 C366 1.429 . S
C365 H392 0.932 . S
C366 C363 1.358 . S
C366 C365 1.429 . S
C366 H393 0.930 . S
C367 C363 1.332 . S
C367 C368 1.394 . S
C367 H394 0.932 . S
C368 C364 1.308 . S
C368 C367 1.394 . S
C368 H395 0.929 . S
C369 Tb360 2.764 1_554 S
C369 C363 1.504 . S
C369 O381 1.239 . S
C369 O382 1.263 1_554 S
O370 Tb360 2.325 . S
O370 C380 1.236 . S
O371 Tb361 2.322 . S
O371 C380 1.257 . S
O372 Tb361 2.349 . S
O372 C383 1.261 . S
O373 Tb360 2.303 . S
O373 C383 1.257 . S
O374 Tb361 2.415 . S
O374 C390 1.239 . S
O375 Tb361 2.399 . S
O375 C390 1.263 . S
O376 Tb361 2.325 . S
O376 C391 1.236 . S
O377 Tb360 2.322 . S
O377 C391 1.257 . S
O378 Tb360 2.349 . S
O378 C362 1.261 . S
O379 Tb361 2.303 . S
O379 C362 1.257 . S
C380 O370 1.236 . S
C380 O371 1.257 . S
O381 Tb360 2.415 1_554 S
O381 C369 1.239 . S
O382 Tb360 2.399 . S
O382 C369 1.263 1_556 S
C383 O372 1.261 . S
C383 O373 1.257 . S
C384 C387 1.358 . S
C384 C388 1.332 . S
C384 C390 1.504 . S
C385 C386 1.373 . S
C385 C389 1.308 . S
C386 C385 1.373 . S
C386 C387 1.429 . S
C386 H396 0.932 . S
C387 C384 1.358 . S
C387 C386 1.429 . S
C387 H397 0.930 . S
C388 C384 1.332 . S
C388 C389 1.394 . S
C388 H398 0.932 . S
C389 C385 1.308 . S
C389 C388 1.394 . S
C389 H399 0.929 . S
C390 Tb361 2.764 . S
C390 O374 1.239 . S
C390 O375 1.263 . S
C390 C384 1.504 . S
C391 O376 1.236 . S
C391 O377 1.257 . S
H392 C365 0.932 . S
H393 C366 0.930 . S
H394 C367 0.932 . S
H395 C368 0.929 . S
H396 C386 0.932 . S
H397 C387 0.930 . S
H398 C388 0.932 . S
H399 C389 0.929 . S
Tb400 C409 2.764 . S
Tb400 O410 2.325 . S
Tb400 O413 2.303 . S
Tb400 O417 2.322 . S
Tb400 O418 2.349 . S
Tb400 O421 2.415 . S
Tb400 O422 2.399 . S
Tb401 O411 2.322 . S
Tb401 O412 2.349 . S
Tb401 O414 2.415 . S
Tb401 O415 2.399 . S
Tb401 O416 2.325 . S
Tb401 O419 2.303 . S
Tb401 C430 2.764 . S
C402 O418 1.261 . S
C402 O419 1.257 . S
C403 C406 1.358 . S
C403 C407 1.332 . S
C403 C409 1.504 . S
C404 C405 1.373 . S
C404 C408 1.308 . S
C405 C404 1.373 . S
C405 C406 1.429 . S
C405 H432 0.932 . S
C406 C403 1.358 . S
C406 C405 1.429 . S
C406 H433 0.930 . S
C407 C403 1.332 . S
C407 C408 1.394 . S
C407 H434 0.932 . S
C408 C404 1.308 . S
C408 C407 1.394 . S
C408 H435 0.929 . S
C409 Tb400 2.764 . S
C409 C403 1.504 . S
C409 O421 1.239 . S
C409 O422 1.263 . S
O410 Tb400 2.325 . S
O410 C420 1.236 . S
O411 Tb401 2.322 . S
O411 C420 1.257 . S
O412 Tb401 2.349 . S
O412 C423 1.261 . S
O413 Tb400 2.303 . S
O413 C423 1.257 . S
O414 Tb401 2.415 . S
O414 C430 1.239 . S
O415 Tb401 2.399 . S
O415 C430 1.263 . S
O416 Tb401 2.325 . S
O416 C431 1.236 . S
O417 Tb400 2.322 . S
O417 C431 1.257 . S
O418 Tb400 2.349 . S
O418 C402 1.261 . S
O419 Tb401 2.303 . S
O419 C402 1.257 . S
C420 O410 1.236 . S
C420 O411 1.257 . S
O421 Tb400 2.415 . S
O421 C409 1.239 . S
O422 Tb400 2.399 . S
O422 C409 1.263 . S
C423 O412 1.261 . S
C423 O413 1.257 . S
C424 C427 1.358 . S
C424 C428 1.332 . S
C424 C430 1.504 . S
C425 C426 1.373 . S
C425 C429 1.308 . S
C426 C425 1.373 . S
C426 C427 1.429 . S
C426 H436 0.932 . S
C427 C424 1.358 . S
C427 C426 1.429 . S
C427 H437 0.930 . S
C428 C424 1.332 . S
C428 C429 1.394 . S
C428 H438 0.932 . S
C429 C425 1.308 . S
C429 C428 1.394 . S
C429 H439 0.929 . S
C430 Tb401 2.764 . S
C430 O414 1.239 . S
C430 O415 1.263 . S
C430 C424 1.504 . S
C431 O416 1.236 . S
C431 O417 1.257 . S
H432 C405 0.932 . S
H433 C406 0.930 . S
H434 C407 0.932 . S
H435 C408 0.929 . S
H436 C426 0.932 . S
H437 C427 0.930 . S
H438 C428 0.932 . S
H439 C429 0.929 . S
Tb440 C449 2.764 . S
Tb440 O450 2.325 . S
Tb440 O453 2.303 . S
Tb440 O457 2.322 . S
Tb440 O458 2.349 . S
Tb440 O461 2.415 . S
Tb440 O462 2.399 . S
Tb441 O451 2.322 . S
Tb441 O452 2.349 . S
Tb441 O454 2.415 . S
Tb441 O455 2.399 . S
Tb441 O456 2.325 . S
Tb441 O459 2.303 . S
Tb441 C470 2.764 . S
C442 O458 1.261 . S
C442 O459 1.257 . S
C443 C446 1.358 . S
C443 C447 1.332 . S
C443 C449 1.504 . S
C444 C445 1.373 . S
C444 C448 1.308 . S
C445 C444 1.373 . S
C445 C446 1.429 . S
C445 H472 0.932 . S
C446 C443 1.358 . S
C446 C445 1.429 . S
C446 H473 0.930 . S
C447 C443 1.332 . S
C447 C448 1.394 . S
C447 H474 0.932 . S
C448 C444 1.308 . S
C448 C447 1.394 . S
C448 H475 0.929 . S
C449 Tb440 2.764 . S
C449 C443 1.504 . S
C449 O461 1.239 . S
C449 O462 1.263 . S
O450 Tb440 2.325 . S
O450 C460 1.236 . S
O451 Tb441 2.322 . S
O451 C460 1.257 . S
O452 Tb441 2.349 . S
O452 C463 1.261 . S
O453 Tb440 2.303 . S
O453 C463 1.257 . S
O454 Tb441 2.415 . S
O454 C470 1.239 . S
O455 Tb441 2.399 . S
O455 C470 1.263 . S
O456 Tb441 2.325 . S
O456 C471 1.236 . S
O457 Tb440 2.322 . S
O457 C471 1.257 . S
O458 Tb440 2.349 . S
O458 C442 1.261 . S
O459 Tb441 2.303 . S
O459 C442 1.257 . S
C460 O450 1.236 . S
C460 O451 1.257 . S
O461 Tb440 2.415 . S
O461 C449 1.239 . S
O462 Tb440 2.399 . S
O462 C449 1.263 . S
C463 O452 1.261 . S
C463 O453 1.257 . S
C464 C467 1.358 . S
C464 C468 1.332 . S
C464 C470 1.504 . S
C465 C466 1.373 . S
C465 C469 1.308 . S
C466 C465 1.373 . S
C466 C467 1.429 . S
C466 H476 0.932 . S
C467 C464 1.358 . S
C467 C466 1.429 . S
C467 H477 0.930 . S
C468 C464 1.332 . S
C468 C469 1.394 . S
C468 H478 0.932 . S
C469 C465 1.308 . S
C469 C468 1.394 . S
C469 H479 0.929 . S
C470 Tb441 2.764 . S
C470 O454 1.239 . S
C470 O455 1.263 . S
C470 C464 1.504 . S
C471 O456 1.236 . S
C471 O457 1.257 . S
H472 C445 0.932 . S
H473 C446 0.930 . S
H474 C447 0.932 . S
H475 C448 0.929 . S
H476 C466 0.932 . S
H477 C467 0.930 . S
H478 C468 0.932 . S
H479 C469 0.929 . S
Tb480 C489 2.764 . S
Tb480 O490 2.325 . S
Tb480 O493 2.303 . S
Tb480 O497 2.322 1_455 S
Tb480 O498 2.349 1_455 S
Tb480 O501 2.415 . S
Tb480 O502 2.399 . S
Tb481 O491 2.322 1_655 S
Tb481 O492 2.349 1_655 S
Tb481 O494 2.415 . S
Tb481 O495 2.399 . S
Tb481 O496 2.325 . S
Tb481 O499 2.303 . S
Tb481 C510 2.764 . S
C482 O498 1.261 . S
C482 O499 1.257 . S
C483 C486 1.358 . S
C483 C487 1.332 . S
C483 C489 1.504 . S
C484 C485 1.373 . S
C484 C488 1.308 . S
C485 C484 1.373 . S
C485 C486 1.429 . S
C485 H512 0.932 . S
C486 C483 1.358 . S
C486 C485 1.429 . S
C486 H513 0.930 . S
C487 C483 1.332 . S
C487 C488 1.394 . S
C487 H514 0.932 . S
C488 C484 1.308 . S
C488 C487 1.394 . S
C488 H515 0.929 . S
C489 Tb480 2.764 . S
C489 C483 1.504 . S
C489 O501 1.239 . S
C489 O502 1.263 . S
O490 Tb480 2.325 . S
O490 C500 1.236 . S
O491 Tb481 2.322 1_455 S
O491 C500 1.257 . S
O492 Tb481 2.349 1_455 S
O492 C503 1.261 . S
O493 Tb480 2.303 . S
O493 C503 1.257 . S
O494 Tb481 2.415 . S
O494 C510 1.239 . S
O495 Tb481 2.399 . S
O495 C510 1.263 . S
O496 Tb481 2.325 . S
O496 C511 1.236 . S
O497 Tb480 2.322 1_655 S
O497 C511 1.257 . S
O498 Tb480 2.349 1_655 S
O498 C482 1.261 . S
O499 Tb481 2.303 . S
O499 C482 1.257 . S
C500 O490 1.236 . S
C500 O491 1.257 . S
O501 Tb480 2.415 . S
O501 C489 1.239 . S
O502 Tb480 2.399 . S
O502 C489 1.263 . S
C503 O492 1.261 . S
C503 O493 1.257 . S
C504 C507 1.358 . S
C504 C508 1.332 . S
C504 C510 1.504 . S
C505 C506 1.373 . S
C505 C509 1.308 . S
C506 C505 1.373 . S
C506 C507 1.429 . S
C506 H516 0.932 . S
C507 C504 1.358 . S
C507 C506 1.429 . S
C507 H517 0.930 . S
C508 C504 1.332 . S
C508 C509 1.394 . S
C508 H518 0.932 . S
C509 C505 1.308 . S
C509 C508 1.394 . S
C509 H519 0.929 . S
C510 Tb481 2.764 . S
C510 O494 1.239 . S
C510 O495 1.263 . S
C510 C504 1.504 . S
C511 O496 1.236 . S
C511 O497 1.257 . S
H512 C485 0.932 . S
H513 C486 0.930 . S
H514 C487 0.932 . S
H515 C488 0.929 . S
H516 C506 0.932 . S
H517 C507 0.930 . S
H518 C508 0.932 . S
H519 C509 0.929 . S
Tb520 C529 2.764 . S
Tb520 O530 2.325 . S
Tb520 O533 2.303 . S
Tb520 O537 2.322 . S
Tb520 O538 2.349 . S
Tb520 O541 2.415 . S
Tb520 O542 2.399 . S
Tb521 O531 2.322 . S
Tb521 O532 2.349 . S
Tb521 O534 2.415 . S
Tb521 O535 2.399 . S
Tb521 O536 2.325 . S
Tb521 O539 2.303 . S
Tb521 C550 2.764 . S
C522 O538 1.261 . S
C522 O539 1.257 . S
C523 C526 1.358 . S
C523 C527 1.332 . S
C523 C529 1.504 . S
C524 C525 1.373 . S
C524 C528 1.308 . S
C525 C524 1.373 . S
C525 C526 1.429 . S
C525 H552 0.932 . S
C526 C523 1.358 . S
C526 C525 1.429 . S
C526 H553 0.930 . S
C527 C523 1.332 . S
C527 C528 1.394 . S
C527 H554 0.932 . S
C528 C524 1.308 . S
C528 C527 1.394 . S
C528 H555 0.929 . S
C529 Tb520 2.764 . S
C529 C523 1.504 . S
C529 O541 1.239 . S
C529 O542 1.263 . S
O530 Tb520 2.325 . S
O530 C540 1.236 . S
O531 Tb521 2.322 . S
O531 C540 1.257 . S
O532 Tb521 2.349 . S
O532 C543 1.261 . S
O533 Tb520 2.303 . S
O533 C543 1.257 . S
O534 Tb521 2.415 . S
O534 C550 1.239 . S
O535 Tb521 2.399 . S
O535 C550 1.263 . S
O536 Tb521 2.325 . S
O536 C551 1.236 . S
O537 Tb520 2.322 . S
O537 C551 1.257 . S
O538 Tb520 2.349 . S
O538 C522 1.261 . S
O539 Tb521 2.303 . S
O539 C522 1.257 . S
C540 O530 1.236 . S
C540 O531 1.257 . S
O541 Tb520 2.415 . S
O541 C529 1.239 . S
O542 Tb520 2.399 . S
O542 C529 1.263 . S
C543 O532 1.261 . S
C543 O533 1.257 . S
C544 C547 1.358 . S
C544 C548 1.332 . S
C544 C550 1.504 . S
C545 C546 1.373 . S
C545 C549 1.308 . S
C546 C545 1.373 . S
C546 C547 1.429 . S
C546 H556 0.932 . S
C547 C544 1.358 . S
C547 C546 1.429 . S
C547 H557 0.930 . S
C548 C544 1.332 . S
C548 C549 1.394 . S
C548 H558 0.932 . S
C549 C545 1.308 . S
C549 C548 1.394 . S
C549 H559 0.929 . S
C550 Tb521 2.764 . S
C550 O534 1.239 . S
C550 O535 1.263 . S
C550 C544 1.504 . S
C551 O536 1.236 . S
C551 O537 1.257 . S
H552 C525 0.932 . S
H553 C526 0.930 . S
H554 C527 0.932 . S
H555 C528 0.929 . S
H556 C546 0.932 . S
H557 C547 0.930 . S
H558 C548 0.932 . S
H559 C549 0.929 . S
Tb560 C569 2.764 . S
Tb560 O570 2.325 . S
Tb560 O573 2.303 . S
Tb560 O577 2.322 . S
Tb560 O578 2.349 . S
Tb560 O581 2.415 . S
Tb560 O582 2.399 . S
Tb561 O571 2.322 . S
Tb561 O572 2.349 . S
Tb561 O574 2.415 . S
Tb561 O575 2.399 . S
Tb561 O576 2.325 . S
Tb561 O579 2.303 . S
Tb561 C590 2.764 . S
C562 O578 1.261 . S
C562 O579 1.257 . S
C563 C566 1.358 . S
C563 C567 1.332 . S
C563 C569 1.504 . S
C564 C565 1.373 . S
C564 C568 1.308 . S
C565 C564 1.373 . S
C565 C566 1.429 . S
C565 H592 0.932 . S
C566 C563 1.358 . S
C566 C565 1.429 . S
C566 H593 0.930 . S
C567 C563 1.332 . S
C567 C568 1.394 . S
C567 H594 0.932 . S
C568 C564 1.308 . S
C568 C567 1.394 . S
C568 H595 0.929 . S
C569 Tb560 2.764 . S
C569 C563 1.504 . S
C569 O581 1.239 . S
C569 O582 1.263 . S
O570 Tb560 2.325 . S
O570 C580 1.236 . S
O571 Tb561 2.322 . S
O571 C580 1.257 . S
O572 Tb561 2.349 . S
O572 C583 1.261 . S
O573 Tb560 2.303 . S
O573 C583 1.257 . S
O574 Tb561 2.415 . S
O574 C590 1.239 . S
O575 Tb561 2.399 . S
O575 C590 1.263 . S
O576 Tb561 2.325 . S
O576 C591 1.236 . S
O577 Tb560 2.322 . S
O577 C591 1.257 . S
O578 Tb560 2.349 . S
O578 C562 1.261 . S
O579 Tb561 2.303 . S
O579 C562 1.257 . S
C580 O570 1.236 . S
C580 O571 1.257 . S
O581 Tb560 2.415 . S
O581 C569 1.239 . S
O582 Tb560 2.399 . S
O582 C569 1.263 . S
C583 O572 1.261 . S
C583 O573 1.257 . S
C584 C587 1.358 . S
C584 C588 1.332 . S
C584 C590 1.504 . S
C585 C586 1.373 . S
C585 C589 1.308 . S
C586 C585 1.373 . S
C586 C587 1.429 . S
C586 H596 0.932 . S
C587 C584 1.358 . S
C587 C586 1.429 . S
C587 H597 0.930 . S
C588 C584 1.332 . S
C588 C589 1.394 . S
C588 H598 0.932 . S
C589 C585 1.308 . S
C589 C588 1.394 . S
C589 H599 0.929 . S
C590 Tb561 2.764 . S
C590 O574 1.239 . S
C590 O575 1.263 . S
C590 C584 1.504 . S
C591 O576 1.236 . S
C591 O577 1.257 . S
H592 C565 0.932 . S
H593 C566 0.930 . S
H594 C567 0.932 . S
H595 C568 0.929 . S
H596 C586 0.932 . S
H597 C587 0.930 . S
H598 C588 0.932 . S
H599 C589 0.929 . S
Tb600 C609 2.764 . S
Tb600 O610 2.325 . S
Tb600 O613 2.303 . S
Tb600 O617 2.322 1_655 S
Tb600 O618 2.349 1_655 S
Tb600 O621 2.415 . S
Tb600 O622 2.399 . S
Tb601 O611 2.322 1_455 S
Tb601 O612 2.349 1_455 S
Tb601 O614 2.415 . S
Tb601 O615 2.399 . S
Tb601 O616 2.325 . S
Tb601 O619 2.303 . S
Tb601 C630 2.764 . S
C602 O618 1.261 . S
C602 O619 1.257 . S
C603 C606 1.358 . S
C603 C607 1.332 . S
C603 C609 1.504 . S
C604 C605 1.373 . S
C604 C608 1.308 . S
C605 C604 1.373 . S
C605 C606 1.429 . S
C605 H632 0.932 . S
C606 C603 1.358 . S
C606 C605 1.429 . S
C606 H633 0.930 . S
C607 C603 1.332 . S
C607 C608 1.394 . S
C607 H634 0.932 . S
C608 C604 1.308 . S
C608 C607 1.394 . S
C608 H635 0.929 . S
C609 Tb600 2.764 . S
C609 C603 1.504 . S
C609 O621 1.239 . S
C609 O622 1.263 . S
O610 Tb600 2.325 . S
O610 C620 1.236 . S
O611 Tb601 2.322 1_655 S
O611 C620 1.257 . S
O612 Tb601 2.349 1_655 S
O612 C623 1.261 . S
O613 Tb600 2.303 . S
O613 C623 1.257 . S
O614 Tb601 2.415 . S
O614 C630 1.239 . S
O615 Tb601 2.399 . S
O615 C630 1.263 . S
O616 Tb601 2.325 . S
O616 C631 1.236 . S
O617 Tb600 2.322 1_455 S
O617 C631 1.257 . S
O618 Tb600 2.349 1_455 S
O618 C602 1.261 . S
O619 Tb601 2.303 . S
O619 C602 1.257 . S
C620 O610 1.236 . S
C620 O611 1.257 . S
O621 Tb600 2.415 . S
O621 C609 1.239 . S
O622 Tb600 2.399 . S
O622 C609 1.263 . S
C623 O612 1.261 . S
C623 O613 1.257 . S
C624 C627 1.358 . S
C624 C628 1.332 . S
C624 C630 1.504 . S
C625 C626 1.373 . S
C625 C629 1.308 . S
C626 C625 1.373 . S
C626 C627 1.429 . S
C626 H636 0.932 . S
C627 C624 1.358 . S
C627 C626 1.429 . S
C627 H637 0.930 . S
C628 C624 1.332 . S
C628 C629 1.394 . S
C628 H638 0.932 . S
C629 C625 1.308 . S
C629 C628 1.394 . S
C629 H639 0.929 . S
C630 Tb601 2.764 . S
C630 O614 1.239 . S
C630 O615 1.263 . S
C630 C624 1.504 . S
C631 O616 1.236 . S
C631 O617 1.257 . S
H632 C605 0.932 . S
H633 C606 0.930 . S
H634 C607 0.932 . S
H635 C608 0.929 . S
H636 C626 0.932 . S
H637 C627 0.930 . S
H638 C628 0.932 . S
H639 C629 0.929 . S
Tb640 C649 2.764 . S
Tb640 O650 2.325 . S
Tb640 O653 2.303 . S
Tb640 O657 2.322 1_545 S
Tb640 O658 2.349 1_545 S
Tb640 O661 2.415 . S
Tb640 O662 2.399 . S
Tb641 O651 2.322 1_565 S
Tb641 O652 2.349 1_565 S
Tb641 O654 2.415 . S
Tb641 O655 2.399 . S
Tb641 O656 2.325 . S
Tb641 O659 2.303 . S
Tb641 C670 2.764 . S
C642 O658 1.261 . S
C642 O659 1.257 . S
C643 C646 1.358 . S
C643 C647 1.332 . S
C643 C649 1.504 . S
C644 C645 1.373 . S
C644 C648 1.308 . S
C645 C644 1.373 . S
C645 C646 1.429 . S
C645 H672 0.932 . S
C646 C643 1.358 . S
C646 C645 1.429 . S
C646 H673 0.930 . S
C647 C643 1.332 . S
C647 C648 1.394 . S
C647 H674 0.932 . S
C648 C644 1.308 . S
C648 C647 1.394 . S
C648 H675 0.929 . S
C649 Tb640 2.764 . S
C649 C643 1.504 . S
C649 O661 1.239 . S
C649 O662 1.263 . S
O650 Tb640 2.325 . S
O650 C660 1.236 . S
O651 Tb641 2.322 1_545 S
O651 C660 1.257 . S
O652 Tb641 2.349 1_545 S
O652 C663 1.261 . S
O653 Tb640 2.303 . S
O653 C663 1.257 . S
O654 Tb641 2.415 . S
O654 C670 1.239 . S
O655 Tb641 2.399 . S
O655 C670 1.263 . S
O656 Tb641 2.325 . S
O656 C671 1.236 . S
O657 Tb640 2.322 1_565 S
O657 C671 1.257 . S
O658 Tb640 2.349 1_565 S
O658 C642 1.261 . S
O659 Tb641 2.303 . S
O659 C642 1.257 . S
C660 O650 1.236 . S
C660 O651 1.257 . S
O661 Tb640 2.415 . S
O661 C649 1.239 . S
O662 Tb640 2.399 . S
O662 C649 1.263 . S
C663 O652 1.261 . S
C663 O653 1.257 . S
C664 C667 1.358 . S
C664 C668 1.332 . S
C664 C670 1.504 . S
C665 C666 1.373 . S
C665 C669 1.308 . S
C666 C665 1.373 . S
C666 C667 1.429 . S
C666 H676 0.932 . S
C667 C664 1.358 . S
C667 C666 1.429 . S
C667 H677 0.930 . S
C668 C664 1.332 . S
C668 C669 1.394 . S
C668 H678 0.932 . S
C669 C665 1.308 . S
C669 C668 1.394 . S
C669 H679 0.929 . S
C670 Tb641 2.764 . S
C670 O654 1.239 . S
C670 O655 1.263 . S
C670 C664 1.504 . S
C671 O656 1.236 . S
C671 O657 1.257 . S
H672 C645 0.932 . S
H673 C646 0.930 . S
H674 C647 0.932 . S
H675 C648 0.929 . S
H676 C666 0.932 . S
H677 C667 0.930 . S
H678 C668 0.932 . S
H679 C669 0.929 . S
Tb680 C689 2.764 . S
Tb680 O690 2.325 . S
Tb680 O693 2.303 . S
Tb680 O697 2.322 1_565 S
Tb680 O698 2.349 1_565 S
Tb680 O701 2.415 . S
Tb680 O702 2.399 . S
Tb681 O691 2.322 1_545 S
Tb681 O692 2.349 1_545 S
Tb681 O694 2.415 . S
Tb681 O695 2.399 . S
Tb681 O696 2.325 . S
Tb681 O699 2.303 . S
Tb681 C710 2.764 . S
C682 O698 1.261 . S
C682 O699 1.257 . S
C683 C686 1.358 . S
C683 C687 1.332 . S
C683 C689 1.504 . S
C684 C685 1.373 . S
C684 C688 1.308 . S
C685 C684 1.373 . S
C685 C686 1.429 . S
C685 H712 0.932 1_554 S
C686 C683 1.358 . S
C686 C685 1.429 . S
C686 H713 0.930 . S
C687 C683 1.332 . S
C687 C688 1.394 . S
C687 H714 0.932 . S
C688 C684 1.308 . S
C688 C687 1.394 . S
C688 H715 0.929 . S
C689 Tb680 2.764 . S
C689 C683 1.504 . S
C689 O701 1.239 . S
C689 O702 1.263 . S
O690 Tb680 2.325 . S
O690 C700 1.236 . S
O691 Tb681 2.322 1_565 S
O691 C700 1.257 . S
O692 Tb681 2.349 1_565 S
O692 C703 1.261 . S
O693 Tb680 2.303 . S
O693 C703 1.257 . S
O694 Tb681 2.415 . S
O694 C710 1.239 . S
O695 Tb681 2.399 . S
O695 C710 1.263 . S
O696 Tb681 2.325 . S
O696 C711 1.236 . S
O697 Tb680 2.322 1_545 S
O697 C711 1.257 . S
O698 Tb680 2.349 1_545 S
O698 C682 1.261 . S
O699 Tb681 2.303 . S
O699 C682 1.257 . S
C700 O690 1.236 . S
C700 O691 1.257 . S
O701 Tb680 2.415 . S
O701 C689 1.239 . S
O702 Tb680 2.399 . S
O702 C689 1.263 . S
C703 O692 1.261 . S
C703 O693 1.257 . S
C704 C707 1.358 . S
C704 C708 1.332 . S
C704 C710 1.504 . S
C705 C706 1.373 . S
C705 C709 1.308 . S
C706 C705 1.373 . S
C706 C707 1.429 . S
C706 H716 0.932 . S
C707 C704 1.358 . S
C707 C706 1.429 . S
C707 H717 0.930 . S
C708 C704 1.332 . S
C708 C709 1.394 . S
C708 H718 0.932 . S
C709 C705 1.308 . S
C709 C708 1.394 . S
C709 H719 0.929 . S
C710 Tb681 2.764 . S
C710 O694 1.239 . S
C710 O695 1.263 . S
C710 C704 1.504 . S
C711 O696 1.236 . S
C711 O697 1.257 . S
H712 C685 0.932 1_556 S
H713 C686 0.930 . S
H714 C687 0.932 . S
H715 C688 0.929 . S
H716 C706 0.932 . S
H717 C707 0.930 . S
H718 C708 0.932 . S
H719 C709 0.929 . S
Tb720 C729 2.764 . S
Tb720 O730 2.325 . S
Tb720 O733 2.303 . S
Tb720 O737 2.322 . S
Tb720 O738 2.349 . S
Tb720 O741 2.415 . S
Tb720 O742 2.399 . S
Tb721 O731 2.322 . S
Tb721 O732 2.349 . S
Tb721 O734 2.415 . S
Tb721 O735 2.399 . S
Tb721 O736 2.325 . S
Tb721 O739 2.303 . S
Tb721 C750 2.764 . S
C722 O738 1.261 . S
C722 O739 1.257 . S
C723 C726 1.358 . S
C723 C727 1.332 . S
C723 C729 1.504 . S
C724 C725 1.373 . S
C724 C728 1.308 . S
C725 C724 1.373 . S
C725 C726 1.429 . S
C725 H752 0.932 . S
C726 C723 1.358 . S
C726 C725 1.429 . S
C726 H753 0.930 . S
C727 C723 1.332 . S
C727 C728 1.394 . S
C727 H754 0.932 . S
C728 C724 1.308 . S
C728 C727 1.394 . S
C728 H755 0.929 . S
C729 Tb720 2.764 . S
C729 C723 1.504 . S
C729 O741 1.239 . S
C729 O742 1.263 . S
O730 Tb720 2.325 . S
O730 C740 1.236 . S
O731 Tb721 2.322 . S
O731 C740 1.257 . S
O732 Tb721 2.349 . S
O732 C743 1.261 . S
O733 Tb720 2.303 . S
O733 C743 1.257 . S
O734 Tb721 2.415 . S
O734 C750 1.239 . S
O735 Tb721 2.399 . S
O735 C750 1.263 . S
O736 Tb721 2.325 . S
O736 C751 1.236 . S
O737 Tb720 2.322 . S
O737 C751 1.257 . S
O738 Tb720 2.349 . S
O738 C722 1.261 . S
O739 Tb721 2.303 . S
O739 C722 1.257 . S
C740 O730 1.236 . S
C740 O731 1.257 . S
O741 Tb720 2.415 . S
O741 C729 1.239 . S
O742 Tb720 2.399 . S
O742 C729 1.263 . S
C743 O732 1.261 . S
C743 O733 1.257 . S
C744 C747 1.358 . S
C744 C748 1.332 . S
C744 C750 1.504 . S
C745 C746 1.373 . S
C745 C749 1.308 . S
C746 C745 1.373 . S
C746 C747 1.429 . S
C746 H756 0.932 . S
C747 C744 1.358 . S
C747 C746 1.429 . S
C747 H757 0.930 . S
C748 C744 1.332 . S
C748 C749 1.394 . S
C748 H758 0.932 . S
C749 C745 1.308 . S
C749 C748 1.394 . S
C749 H759 0.929 . S
C750 Tb721 2.764 . S
C750 O734 1.239 . S
C750 O735 1.263 . S
C750 C744 1.504 . S
C751 O736 1.236 . S
C751 O737 1.257 . S
H752 C725 0.932 . S
H753 C726 0.930 . S
H754 C727 0.932 . S
H755 C728 0.929 . S
H756 C746 0.932 . S
H757 C747 0.930 . S
H758 C748 0.932 . S
H759 C749 0.929 . S
Tb760 C769 2.764 . S
Tb760 O770 2.325 . S
Tb760 O773 2.303 . S
Tb760 O777 2.322 . S
Tb760 O778 2.349 . S
Tb760 O781 2.415 . S
Tb760 O782 2.399 . S
Tb761 O771 2.322 . S
Tb761 O772 2.349 . S
Tb761 O774 2.415 . S
Tb761 O775 2.399 . S
Tb761 O776 2.325 . S
Tb761 O779 2.303 . S
Tb761 C790 2.764 . S
C762 O778 1.261 . S
C762 O779 1.257 . S
C763 C766 1.358 . S
C763 C767 1.332 . S
C763 C769 1.504 . S
C764 C765 1.373 . S
C764 C768 1.308 . S
C765 C764 1.373 . S
C765 C766 1.429 . S
C765 H792 0.932 1_556 S
C766 C763 1.358 . S
C766 C765 1.429 . S
C766 H793 0.930 . S
C767 C763 1.332 . S
C767 C768 1.394 . S
C767 H794 0.932 . S
C768 C764 1.308 . S
C768 C767 1.394 . S
C768 H795 0.929 . S
C769 Tb760 2.764 . S
C769 C763 1.504 . S
C769 O781 1.239 . S
C769 O782 1.263 . S
O770 Tb760 2.325 . S
O770 C780 1.236 . S
O771 Tb761 2.322 . S
O771 C780 1.257 . S
O772 Tb761 2.349 . S
O772 C783 1.261 . S
O773 Tb760 2.303 . S
O773 C783 1.257 . S
O774 Tb761 2.415 . S
O774 C790 1.239 . S
O775 Tb761 2.399 . S
O775 C790 1.263 . S
O776 Tb761 2.325 . S
O776 C791 1.236 . S
O777 Tb760 2.322 . S
O777 C791 1.257 . S
O778 Tb760 2.349 . S
O778 C762 1.261 . S
O779 Tb761 2.303 . S
O779 C762 1.257 . S
C780 O770 1.236 . S
C780 O771 1.257 . S
O781 Tb760 2.415 . S
O781 C769 1.239 . S
O782 Tb760 2.399 . S
O782 C769 1.263 . S
C783 O772 1.261 . S
C783 O773 1.257 . S
C784 C787 1.358 . S
C784 C788 1.332 . S
C784 C790 1.504 . S
C785 C786 1.373 . S
C785 C789 1.308 . S
C786 C785 1.373 . S
C786 C787 1.429 . S
C786 H796 0.932 . S
C787 C784 1.358 . S
C787 C786 1.429 . S
C787 H797 0.930 . S
C788 C784 1.332 . S
C788 C789 1.394 . S
C788 H798 0.932 . S
C789 C785 1.308 . S
C789 C788 1.394 . S
C789 H799 0.929 . S
C790 Tb761 2.764 . S
C790 O774 1.239 . S
C790 O775 1.263 . S
C790 C784 1.504 . S
C791 O776 1.236 . S
C791 O777 1.257 . S
H792 C765 0.932 1_554 S
H793 C766 0.930 . S
H794 C767 0.932 . S
H795 C768 0.929 . S
H796 C786 0.932 . S
H797 C787 0.930 . S
H798 C788 0.932 . S
H799 C789 0.929 . S
Tb800 C809 2.764 1_556 S
Tb800 O810 2.325 . S
Tb800 O813 2.303 . S
Tb800 O817 2.322 . S
Tb800 O818 2.349 . S
Tb800 O821 2.415 1_556 S
Tb800 O822 2.399 . S
Tb801 O811 2.322 . S
Tb801 O812 2.349 . S
Tb801 O814 2.415 . S
Tb801 O815 2.399 . S
Tb801 O816 2.325 . S
Tb801 O819 2.303 . S
Tb801 C830 2.764 . S
C802 O818 1.261 . S
C802 O819 1.257 . S
C803 C806 1.358 . S
C803 C807 1.332 . S
C803 C809 1.504 . S
C804 C805 1.373 . S
C804 C808 1.308 . S
C805 C804 1.373 . S
C805 C806 1.429 . S
C805 H832 0.932 . S
C806 C803 1.358 . S
C806 C805 1.429 . S
C806 H833 0.930 . S
C807 C803 1.332 . S
C807 C808 1.394 . S
C807 H834 0.932 . S
C808 C804 1.308 . S
C808 C807 1.394 . S
C808 H835 0.929 . S
C809 Tb800 2.764 1_554 S
C809 C803 1.504 . S
C809 O821 1.239 . S
C809 O822 1.263 1_554 S
O810 Tb800 2.325 . S
O810 C820 1.236 1_556 S
O811 Tb801 2.322 . S
O811 C820 1.257 1_556 S
O812 Tb801 2.349 . S
O812 C823 1.261 . S
O813 Tb800 2.303 . S
O813 C823 1.257 . S
O814 Tb801 2.415 . S
O814 C830 1.239 . S
O815 Tb801 2.399 . S
O815 C830 1.263 . S
O816 Tb801 2.325 . S
O816 C831 1.236 . S
O817 Tb800 2.322 . S
O817 C831 1.257 . S
O818 Tb800 2.349 . S
O818 C802 1.261 . S
O819 Tb801 2.303 . S
O819 C802 1.257 . S
C820 O810 1.236 1_554 S
C820 O811 1.257 1_554 S
O821 Tb800 2.415 1_554 S
O821 C809 1.239 . S
O822 Tb800 2.399 . S
O822 C809 1.263 1_556 S
C823 O812 1.261 . S
C823 O813 1.257 . S
C824 C827 1.358 . S
C824 C828 1.332 . S
C824 C830 1.504 . S
C825 C826 1.373 . S
C825 C829 1.308 . S
C826 C825 1.373 . S
C826 C827 1.429 . S
C826 H836 0.932 . S
C827 C824 1.358 . S
C827 C826 1.429 . S
C827 H837 0.930 . S
C828 C824 1.332 . S
C828 C829 1.394 . S
C828 H838 0.932 . S
C829 C825 1.308 . S
C829 C828 1.394 . S
C829 H839 0.929 . S
C830 Tb801 2.764 . S
C830 O814 1.239 . S
C830 O815 1.263 . S
C830 C824 1.504 . S
C831 O816 1.236 . S
C831 O817 1.257 . S
H832 C805 0.932 . S
H833 C806 0.930 . S
H834 C807 0.932 . S
H835 C808 0.929 . S
H836 C826 0.932 . S
H837 C827 0.930 . S
H838 C828 0.932 . S
H839 C829 0.929 . S
Tb840 C849 2.764 . S
Tb840 O850 2.325 . S
Tb840 O853 2.303 . S
Tb840 O857 2.322 . S
Tb840 O858 2.349 . S
Tb840 O861 2.415 . S
Tb840 O862 2.399 . S
Tb841 O851 2.322 . S
Tb841 O852 2.349 . S
Tb841 O854 2.415 1_554 S
Tb841 O855 2.399 . S
Tb841 O856 2.325 . S
Tb841 O859 2.303 . S
Tb841 C870 2.764 1_554 S
C842 O858 1.261 . S
C842 O859 1.257 . S
C843 C846 1.358 . S
C843 C847 1.332 . S
C843 C849 1.504 . S
C844 C845 1.373 . S
C844 C848 1.308 . S
C845 C844 1.373 . S
C845 C846 1.429 . S
C845 H872 0.932 . S
C846 C843 1.358 . S
C846 C845 1.429 . S
C846 H873 0.930 . S
C847 C843 1.332 . S
C847 C848 1.394 . S
C847 H874 0.932 . S
C848 C844 1.308 . S
C848 C847 1.394 . S
C848 H875 0.929 . S
C849 Tb840 2.764 . S
C849 C843 1.504 . S
C849 O861 1.239 . S
C849 O862 1.263 . S
O850 Tb840 2.325 . S
O850 C860 1.236 . S
O851 Tb841 2.322 . S
O851 C860 1.257 . S
O852 Tb841 2.349 . S
O852 C863 1.261 . S
O853 Tb840 2.303 . S
O853 C863 1.257 . S
O854 Tb841 2.415 1_556 S
O854 C870 1.239 . S
O855 Tb841 2.399 . S
O855 C870 1.263 1_554 S
O856 Tb841 2.325 . S
O856 C871 1.236 . S
O857 Tb840 2.322 . S
O857 C871 1.257 . S
O858 Tb840 2.349 . S
O858 C842 1.261 . S
O859 Tb841 2.303 . S
O859 C842 1.257 . S
C860 O850 1.236 . S
C860 O851 1.257 . S
O861 Tb840 2.415 . S
O861 C849 1.239 . S
O862 Tb840 2.399 . S
O862 C849 1.263 . S
C863 O852 1.261 . S
C863 O853 1.257 . S
C864 C867 1.358 . S
C864 C868 1.332 . S
C864 C870 1.504 . S
C865 C866 1.373 . S
C865 C869 1.308 . S
C866 C865 1.373 . S
C866 C867 1.429 . S
C866 H876 0.932 . S
C867 C864 1.358 . S
C867 C866 1.429 . S
C867 H877 0.930 . S
C868 C864 1.332 . S
C868 C869 1.394 . S
C868 H878 0.932 . S
C869 C865 1.308 . S
C869 C868 1.394 . S
C869 H879 0.929 . S
C870 Tb841 2.764 1_556 S
C870 O854 1.239 . S
C870 O855 1.263 1_556 S
C870 C864 1.504 . S
C871 O856 1.236 . S
C871 O857 1.257 . S
H872 C845 0.932 . S
H873 C846 0.930 . S
H874 C847 0.932 . S
H875 C848 0.929 . S
H876 C866 0.932 . S
H877 C867 0.930 . S
H878 C868 0.932 . S
H879 C869 0.929 . S
Tb880 C889 2.764 . S
Tb880 O890 2.325 . S
Tb880 O893 2.303 . S
Tb880 O897 2.322 . S
Tb880 O898 2.349 . S
Tb880 O901 2.415 . S
Tb880 O902 2.399 . S
Tb881 O891 2.322 . S
Tb881 O892 2.349 . S
Tb881 O894 2.415 . S
Tb881 O895 2.399 . S
Tb881 O896 2.325 . S
Tb881 O899 2.303 . S
Tb881 C910 2.764 . S
C882 O898 1.261 . S
C882 O899 1.257 . S
C883 C886 1.358 . S
C883 C887 1.332 . S
C883 C889 1.504 . S
C884 C885 1.373 . S
C884 C888 1.308 . S
C885 C884 1.373 . S
C885 C886 1.429 . S
C885 H912 0.932 . S
C886 C883 1.358 . S
C886 C885 1.429 . S
C886 H913 0.930 . S
C887 C883 1.332 . S
C887 C888 1.394 . S
C887 H914 0.932 . S
C888 C884 1.308 . S
C888 C887 1.394 . S
C888 H915 0.929 . S
C889 Tb880 2.764 . S
C889 C883 1.504 . S
C889 O901 1.239 . S
C889 O902 1.263 . S
O890 Tb880 2.325 . S
O890 C900 1.236 . S
O891 Tb881 2.322 . S
O891 C900 1.257 . S
O892 Tb881 2.349 . S
O892 C903 1.261 . S
O893 Tb880 2.303 . S
O893 C903 1.257 . S
O894 Tb881 2.415 . S
O894 C910 1.239 . S
O895 Tb881 2.399 . S
O895 C910 1.263 . S
O896 Tb881 2.325 . S
O896 C911 1.236 . S
O897 Tb880 2.322 . S
O897 C911 1.257 . S
O898 Tb880 2.349 . S
O898 C882 1.261 . S
O899 Tb881 2.303 . S
O899 C882 1.257 . S
C900 O890 1.236 . S
C900 O891 1.257 . S
O901 Tb880 2.415 . S
O901 C889 1.239 . S
O902 Tb880 2.399 . S
O902 C889 1.263 . S
C903 O892 1.261 . S
C903 O893 1.257 . S
C904 C907 1.358 . S
C904 C908 1.332 . S
C904 C910 1.504 . S
C905 C906 1.373 . S
C905 C909 1.308 . S
C906 C905 1.373 . S
C906 C907 1.429 . S
C906 H916 0.932 . S
C907 C904 1.358 . S
C907 C906 1.429 . S
C907 H917 0.930 . S
C908 C904 1.332 . S
C908 C909 1.394 . S
C908 H918 0.932 . S
C909 C905 1.308 . S
C909 C908 1.394 . S
C909 H919 0.929 . S
C910 Tb881 2.764 . S
C910 O894 1.239 . S
C910 O895 1.263 . S
C910 C904 1.504 . S
C911 O896 1.236 . S
C911 O897 1.257 . S
H912 C885 0.932 . S
H913 C886 0.930 . S
H914 C887 0.932 . S
H915 C888 0.929 . S
H916 C906 0.932 . S
H917 C907 0.930 . S
H918 C908 0.932 . S
H919 C909 0.929 . S
Tb920 C929 2.764 . S
Tb920 O930 2.325 . S
Tb920 O933 2.303 . S
Tb920 O937 2.322 . S
Tb920 O938 2.349 . S
Tb920 O941 2.415 . S
Tb920 O942 2.399 . S
Tb921 O931 2.322 . S
Tb921 O932 2.349 . S
Tb921 O934 2.415 . S
Tb921 O935 2.399 . S
Tb921 O936 2.325 . S
Tb921 O939 2.303 . S
Tb921 C950 2.764 . S
C922 O938 1.261 . S
C922 O939 1.257 . S
C923 C926 1.358 . S
C923 C927 1.332 . S
C923 C929 1.504 . S
C924 C925 1.373 . S
C924 C928 1.308 . S
C925 C924 1.373 . S
C925 C926 1.429 . S
C925 H952 0.932 . S
C926 C923 1.358 . S
C926 C925 1.429 . S
C926 H953 0.930 . S
C927 C923 1.332 . S
C927 C928 1.394 . S
C927 H954 0.932 . S
C928 C924 1.308 . S
C928 C927 1.394 . S
C928 H955 0.929 . S
C929 Tb920 2.764 . S
C929 C923 1.504 . S
C929 O941 1.239 . S
C929 O942 1.263 . S
O930 Tb920 2.325 . S
O930 C940 1.236 . S
O931 Tb921 2.322 . S
O931 C940 1.257 . S
O932 Tb921 2.349 . S
O932 C943 1.261 . S
O933 Tb920 2.303 . S
O933 C943 1.257 . S
O934 Tb921 2.415 . S
O934 C950 1.239 . S
O935 Tb921 2.399 . S
O935 C950 1.263 . S
O936 Tb921 2.325 . S
O936 C951 1.236 . S
O937 Tb920 2.322 . S
O937 C951 1.257 . S
O938 Tb920 2.349 . S
O938 C922 1.261 . S
O939 Tb921 2.303 . S
O939 C922 1.257 . S
C940 O930 1.236 . S
C940 O931 1.257 . S
O941 Tb920 2.415 . S
O941 C929 1.239 . S
O942 Tb920 2.399 . S
O942 C929 1.263 . S
C943 O932 1.261 . S
C943 O933 1.257 . S
C944 C947 1.358 . S
C944 C948 1.332 . S
C944 C950 1.504 . S
C945 C946 1.373 . S
C945 C949 1.308 . S
C946 C945 1.373 . S
C946 C947 1.429 . S
C946 H956 0.932 . S
C947 C944 1.358 . S
C947 C946 1.429 . S
C947 H957 0.930 . S
C948 C944 1.332 . S
C948 C949 1.394 . S
C948 H958 0.932 . S
C949 C945 1.308 . S
C949 C948 1.394 . S
C949 H959 0.929 . S
C950 Tb921 2.764 . S
C950 O934 1.239 . S
C950 O935 1.263 . S
C950 C944 1.504 . S
C951 O936 1.236 . S
C951 O937 1.257 . S
H952 C925 0.932 . S
H953 C926 0.930 . S
H954 C927 0.932 . S
H955 C928 0.929 . S
H956 C946 0.932 . S
H957 C947 0.930 . S
H958 C948 0.932 . S
H959 C949 0.929 . S
C960 C961 1.363 . S
C960 C966 1.379 . S
C960 N968 1.356 . S
C961 C960 1.363 . S
C961 C967 1.363 . S
C962 C963 1.363 . S
C962 C967 1.379 . S
C962 N969 1.356 . S
C963 C962 1.363 . S
C963 C966 1.363 . S
N964 C966 1.356 . S
N964 H976 0.984 . S
N964 H977 0.985 . S
N965 C967 1.356 . S
N965 H970 0.984 . S
N965 H971 0.985 . S
C966 C960 1.379 . S
C966 C963 1.363 . S
C966 N964 1.356 . S
C967 C961 1.363 . S
C967 C962 1.379 . S
C967 N965 1.356 . S
N968 C960 1.356 . S
N968 H974 0.984 . S
N968 H975 0.984 . S
N969 C962 1.356 . S
N969 H972 0.984 . S
N969 H973 0.985 . S
H970 N965 0.984 . S
H971 N965 0.985 . S
H972 N969 0.984 . S
H973 N969 0.985 . S
H974 N968 0.984 . S
H975 N968 0.984 . S
H976 N964 0.984 . S
H977 N964 0.985 . S
C978 C979 1.363 . S
C978 C984 1.379 . S
C978 N986 1.356 . S
C979 C978 1.363 . S
C979 C985 1.363 . S
C980 C981 1.363 . S
C980 C985 1.379 . S
C980 N987 1.356 . S
C981 C980 1.363 . S
C981 C984 1.363 . S
N982 C984 1.356 . S
N982 H994 0.984 . S
N982 H995 0.985 . S
N983 C985 1.356 . S
N983 H988 0.984 . S
N983 H989 0.985 . S
C984 C978 1.379 . S
C984 C981 1.363 . S
C984 N982 1.356 . S
C985 C979 1.363 . S
C985 C980 1.379 . S
C985 N983 1.356 . S
N986 C978 1.356 . S
N986 H992 0.984 . S
N986 H993 0.984 . S
N987 C980 1.356 . S
N987 H990 0.984 . S
N987 H991 0.985 . S
H988 N983 0.984 . S
H989 N983 0.985 . S
H990 N987 0.984 . S
H991 N987 0.985 . S
H992 N986 0.984 . S
H993 N986 0.984 . S
H994 N982 0.984 . S
H995 N982 0.985 . S
C996 C997 1.363 . S
C996 C1002 1.379 . S
C996 N1004 1.356 . S
C997 C996 1.363 . S
C997 C1003 1.363 . S
C998 C999 1.363 . S
C998 C1003 1.379 . S
C998 N1005 1.356 . S
C999 C998 1.363 . S
C999 C1002 1.363 . S
N1000 C1002 1.356 . S
N1000 H1012 0.984 . S
N1000 H1013 0.985 . S
N1001 C1003 1.356 . S
N1001 H1006 0.984 . S
N1001 H1007 0.985 . S
C1002 C996 1.379 . S
C1002 C999 1.363 . S
C1002 N1000 1.356 . S
C1003 C997 1.363 . S
C1003 C998 1.379 . S
C1003 N1001 1.356 . S
N1004 C996 1.356 . S
N1004 H1010 0.984 . S
N1004 H1011 0.984 . S
N1005 C998 1.356 . S
N1005 H1008 0.984 . S
N1005 H1009 0.985 . S
H1006 N1001 0.984 . S
H1007 N1001 0.985 . S
H1008 N1005 0.984 . S
H1009 N1005 0.985 . S
H1010 N1004 0.984 . S
H1011 N1004 0.984 . S
H1012 N1000 0.984 . S
H1013 N1000 0.985 . S
C1014 C1015 1.363 . S
C1014 C1020 1.379 . S
C1014 N1022 1.356 . S
C1015 C1014 1.363 . S
C1015 C1021 1.363 . S
C1016 C1017 1.363 . S
C1016 C1021 1.379 . S
C1016 N1023 1.356 . S
C1017 C1016 1.363 . S
C1017 C1020 1.363 . S
N1018 C1020 1.356 . S
N1018 H1030 0.984 . S
N1018 H1031 0.985 . S
N1019 C1021 1.356 . S
N1019 H1024 0.984 . S
N1019 H1025 0.985 . S
C1020 C1014 1.379 . S
C1020 C1017 1.363 . S
C1020 N1018 1.356 . S
C1021 C1015 1.363 . S
C1021 C1016 1.379 . S
C1021 N1019 1.356 . S
N1022 C1014 1.356 . S
N1022 H1028 0.984 . S
N1022 H1029 0.984 . S
N1023 C1016 1.356 . S
N1023 H1026 0.984 . S
N1023 H1027 0.985 . S
H1024 N1019 0.984 . S
H1025 N1019 0.985 . S
H1026 N1023 0.984 . S
H1027 N1023 0.985 . S
H1028 N1022 0.984 . S
H1029 N1022 0.984 . S
H1030 N1018 0.984 . S
H1031 N1018 0.985 . S
C1032 C1033 1.363 . S
C1032 C1038 1.379 . S
C1032 N1040 1.356 . S
C1033 C1032 1.363 . S
C1033 C1039 1.363 . S
C1034 C1035 1.363 . S
C1034 C1039 1.379 . S
C1034 N1041 1.356 . S
C1035 C1034 1.363 . S
C1035 C1038 1.363 . S
N1036 C1038 1.356 . S
N1036 H1048 0.984 . S
N1036 H1049 0.985 . S
N1037 C1039 1.356 . S
N1037 H1042 0.984 . S
N1037 H1043 0.985 . S
C1038 C1032 1.379 . S
C1038 C1035 1.363 . S
C1038 N1036 1.356 . S
C1039 C1033 1.363 . S
C1039 C1034 1.379 . S
C1039 N1037 1.356 . S
N1040 C1032 1.356 . S
N1040 H1046 0.984 . S
N1040 H1047 0.984 . S
N1041 C1034 1.356 . S
N1041 H1044 0.984 . S
N1041 H1045 0.985 . S
H1042 N1037 0.984 . S
H1043 N1037 0.985 . S
H1044 N1041 0.984 . S
H1045 N1041 0.985 . S
H1046 N1040 0.984 . S
H1047 N1040 0.984 . S
H1048 N1036 0.984 . S
H1049 N1036 0.985 . S
C1050 C1051 1.363 . S
C1050 C1056 1.379 . S
C1050 N1058 1.356 . S
C1051 C1050 1.363 . S
C1051 C1057 1.363 . S
C1052 C1053 1.363 . S
C1052 C1057 1.379 . S
C1052 N1059 1.356 . S
C1053 C1052 1.363 . S
C1053 C1056 1.363 . S
N1054 C1056 1.356 . S
N1054 H1066 0.984 . S
N1054 H1067 0.985 . S
N1055 C1057 1.356 . S
N1055 H1060 0.984 . S
N1055 H1061 0.985 . S
C1056 C1050 1.379 . S
C1056 C1053 1.363 . S
C1056 N1054 1.356 . S
C1057 C1051 1.363 . S
C1057 C1052 1.379 . S
C1057 N1055 1.356 . S
N1058 C1050 1.356 . S
N1058 H1064 0.984 . S
N1058 H1065 0.984 . S
N1059 C1052 1.356 . S
N1059 H1062 0.984 . S
N1059 H1063 0.985 . S
H1060 N1055 0.984 . S
H1061 N1055 0.985 . S
H1062 N1059 0.984 . S
H1063 N1059 0.985 . S
H1064 N1058 0.984 . S
H1065 N1058 0.984 . S
H1066 N1054 0.984 . S
H1067 N1054 0.985 . S
C1068 C1069 1.363 . S
C1068 C1074 1.379 . S
C1068 N1076 1.356 . S
C1069 C1068 1.363 . S
C1069 C1075 1.363 . S
C1070 C1071 1.363 . S
C1070 C1075 1.379 . S
C1070 N1077 1.356 . S
C1071 C1070 1.363 . S
C1071 C1074 1.363 . S
N1072 C1074 1.356 . S
N1072 H1084 0.984 . S
N1072 H1085 0.985 . S
N1073 C1075 1.356 . S
N1073 H1078 0.984 . S
N1073 H1079 0.985 . S
C1074 C1068 1.379 . S
C1074 C1071 1.363 . S
C1074 N1072 1.356 . S
C1075 C1069 1.363 . S
C1075 C1070 1.379 . S
C1075 N1073 1.356 . S
N1076 C1068 1.356 . S
N1076 H1082 0.984 . S
N1076 H1083 0.984 . S
N1077 C1070 1.356 . S
N1077 H1080 0.984 . S
N1077 H1081 0.985 . S
H1078 N1073 0.984 . S
H1079 N1073 0.985 . S
H1080 N1077 0.984 . S
H1081 N1077 0.985 . S
H1082 N1076 0.984 . S
H1083 N1076 0.984 . S
H1084 N1072 0.984 . S
H1085 N1072 0.985 . S
C1086 C1087 1.363 . S
C1086 C1092 1.379 . S
C1086 N1094 1.356 . S
C1087 C1086 1.363 . S
C1087 C1093 1.363 . S
C1088 C1089 1.363 . S
C1088 C1093 1.379 . S
C1088 N1095 1.356 . S
C1089 C1088 1.363 . S
C1089 C1092 1.363 . S
N1090 C1092 1.356 . S
N1090 H1102 0.984 . S
N1090 H1103 0.985 . S
N1091 C1093 1.356 . S
N1091 H1096 0.984 . S
N1091 H1097 0.985 . S
C1092 C1086 1.379 . S
C1092 C1089 1.363 . S
C1092 N1090 1.356 . S
C1093 C1087 1.363 . S
C1093 C1088 1.379 . S
C1093 N1091 1.356 . S
N1094 C1086 1.356 . S
N1094 H1100 0.984 . S
N1094 H1101 0.984 . S
N1095 C1088 1.356 . S
N1095 H1098 0.991 . S
N1095 H1099 0.979 1_554 S
H1096 N1091 0.984 . S
H1097 N1091 0.985 . S
H1098 N1095 0.991 . S
H1099 N1095 0.979 1_556 S
H1100 N1094 0.984 . S
H1101 N1094 0.984 . S
H1102 N1090 0.984 . S
H1103 N1090 0.985 . S
C1104 C1105 1.363 . S
C1104 C1110 1.379 . S
C1104 N1112 1.356 . S
C1105 C1104 1.363 . S
C1105 C1111 1.363 . S
C1106 C1107 1.363 . S
C1106 C1111 1.379 . S
C1106 N1113 1.356 . S
C1107 C1106 1.363 . S
C1107 C1110 1.363 . S
N1108 C1110 1.356 . S
N1108 H1120 0.984 . S
N1108 H1121 0.985 . S
N1109 C1111 1.356 . S
N1109 H1114 0.984 . S
N1109 H1115 0.985 . S
C1110 C1104 1.379 . S
C1110 C1107 1.363 . S
C1110 N1108 1.356 . S
C1111 C1105 1.363 . S
C1111 C1106 1.379 . S
C1111 N1109 1.356 . S
N1112 C1104 1.356 . S
N1112 H1118 0.984 . S
N1112 H1119 0.984 . S
N1113 C1106 1.356 . S
N1113 H1116 0.984 . S
N1113 H1117 0.985 . S
H1114 N1109 0.984 . S
H1115 N1109 0.985 . S
H1116 N1113 0.984 . S
H1117 N1113 0.985 . S
H1118 N1112 0.984 . S
H1119 N1112 0.984 . S
H1120 N1108 0.984 . S
H1121 N1108 0.985 . S
C1122 C1123 1.363 . S
C1122 C1128 1.379 . S
C1122 N1130 1.356 . S
C1123 C1122 1.363 . S
C1123 C1129 1.363 . S
C1124 C1125 1.363 . S
C1124 C1129 1.379 . S
C1124 N1131 1.356 . S
C1125 C1124 1.363 . S
C1125 C1128 1.363 . S
N1126 C1128 1.356 . S
N1126 H1138 0.984 . S
N1126 H1139 0.985 . S
N1127 C1129 1.356 . S
N1127 H1132 0.984 . S
N1127 H1133 0.985 . S
C1128 C1122 1.379 . S
C1128 C1125 1.363 . S
C1128 N1126 1.356 . S
C1129 C1123 1.363 . S
C1129 C1124 1.379 . S
C1129 N1127 1.356 . S
N1130 C1122 1.356 . S
N1130 H1136 0.984 . S
N1130 H1137 0.984 . S
N1131 C1124 1.356 . S
N1131 H1134 0.984 . S
N1131 H1135 0.985 . S
H1132 N1127 0.984 . S
H1133 N1127 0.985 . S
H1134 N1131 0.984 . S
H1135 N1131 0.985 . S
H1136 N1130 0.984 . S
H1137 N1130 0.984 . S
H1138 N1126 0.984 . S
H1139 N1126 0.985 . S
C1140 C1141 1.363 . S
C1140 C1146 1.379 . S
C1140 N1148 1.356 . S
C1141 C1140 1.363 . S
C1141 C1147 1.363 . S
C1142 C1143 1.363 . S
C1142 C1147 1.379 . S
C1142 N1149 1.356 . S
C1143 C1142 1.363 . S
C1143 C1146 1.363 . S
N1144 C1146 1.356 . S
N1144 H1156 0.984 . S
N1144 H1157 0.985 . S
N1145 C1147 1.356 . S
N1145 H1150 0.984 . S
N1145 H1151 0.985 . S
C1146 C1140 1.379 . S
C1146 C1143 1.363 . S
C1146 N1144 1.356 . S
C1147 C1141 1.363 . S
C1147 C1142 1.379 . S
C1147 N1145 1.356 . S
N1148 C1140 1.356 . S
N1148 H1154 0.984 . S
N1148 H1155 0.984 . S
N1149 C1142 1.356 . S
N1149 H1152 0.984 . S
N1149 H1153 0.985 . S
H1150 N1145 0.984 . S
H1151 N1145 0.985 . S
H1152 N1149 0.984 . S
H1153 N1149 0.985 . S
H1154 N1148 0.984 . S
H1155 N1148 0.984 . S
H1156 N1144 0.984 . S
H1157 N1144 0.985 . S
C1158 C1159 1.363 . S
C1158 C1164 1.379 . S
C1158 N1166 1.356 . S
C1159 C1158 1.363 . S
C1159 C1165 1.363 . S
C1160 C1161 1.363 . S
C1160 C1165 1.379 . S
C1160 N1167 1.356 . S
C1161 C1160 1.363 . S
C1161 C1164 1.363 . S
N1162 C1164 1.356 . S
N1162 H1174 0.984 . S
N1162 H1175 0.985 . S
N1163 C1165 1.356 . S
N1163 H1168 0.984 . S
N1163 H1169 0.985 . S
C1164 C1158 1.379 . S
C1164 C1161 1.363 . S
C1164 N1162 1.356 . S
C1165 C1159 1.363 . S
C1165 C1160 1.379 . S
C1165 N1163 1.356 . S
N1166 C1158 1.356 . S
N1166 H1172 0.984 . S
N1166 H1173 0.984 . S
N1167 C1160 1.356 . S
N1167 H1170 0.984 . S
N1167 H1171 0.985 . S
H1168 N1163 0.984 . S
H1169 N1163 0.985 . S
H1170 N1167 0.984 . S
H1171 N1167 0.985 . S
H1172 N1166 0.984 . S
H1173 N1166 0.984 . S
H1174 N1162 0.984 . S
H1175 N1162 0.985 . S
C1176 C1177 1.363 . S
C1176 C1182 1.379 . S
C1176 N1184 1.356 . S
C1177 C1176 1.363 . S
C1177 C1183 1.363 . S
C1178 C1179 1.363 . S
C1178 C1183 1.379 . S
C1178 N1185 1.356 . S
C1179 C1178 1.363 . S
C1179 C1182 1.363 . S
N1180 C1182 1.356 . S
N1180 H1192 0.984 . S
N1180 H1193 0.985 . S
N1181 C1183 1.356 . S
N1181 H1186 0.984 . S
N1181 H1187 0.985 . S
C1182 C1176 1.379 . S
C1182 C1179 1.363 . S
C1182 N1180 1.356 . S
C1183 C1177 1.363 . S
C1183 C1178 1.379 . S
C1183 N1181 1.356 . S
N1184 C1176 1.356 . S
N1184 H1190 0.984 . S
N1184 H1191 0.984 . S
N1185 C1178 1.356 . S
N1185 H1188 0.984 . S
N1185 H1189 0.985 . S
H1186 N1181 0.984 . S
H1187 N1181 0.985 . S
H1188 N1185 0.984 . S
H1189 N1185 0.985 . S
H1190 N1184 0.984 . S
H1191 N1184 0.984 . S
H1192 N1180 0.984 . S
H1193 N1180 0.985 . S
C1194 C1195 1.363 . S
C1194 C1200 1.379 . S
C1194 N1202 1.356 . S
C1195 C1194 1.363 . S
C1195 C1201 1.363 . S
C1196 C1197 1.363 . S
C1196 C1201 1.379 . S
C1196 N1203 1.356 . S
C1197 C1196 1.363 . S
C1197 C1200 1.363 . S
N1198 C1200 1.356 . S
N1198 H1210 0.984 . S
N1198 H1211 0.985 . S
N1199 C1201 1.356 . S
N1199 H1204 0.984 . S
N1199 H1205 0.985 . S
C1200 C1194 1.379 . S
C1200 C1197 1.363 . S
C1200 N1198 1.356 . S
C1201 C1195 1.363 . S
C1201 C1196 1.379 . S
C1201 N1199 1.356 . S
N1202 C1194 1.356 . S
N1202 H1208 0.984 . S
N1202 H1209 0.984 . S
N1203 C1196 1.356 . S
N1203 H1206 0.984 . S
N1203 H1207 0.985 . S
H1204 N1199 0.984 . S
H1205 N1199 0.985 . S
H1206 N1203 0.984 . S
H1207 N1203 0.985 . S
H1208 N1202 0.984 . S
H1209 N1202 0.984 . S
H1210 N1198 0.984 . S
H1211 N1198 0.985 . S
C1212 C1213 1.363 . S
C1212 C1218 1.379 . S
C1212 N1220 1.356 . S
C1213 C1212 1.363 . S
C1213 C1219 1.363 . S
C1214 C1215 1.363 . S
C1214 C1219 1.379 . S
C1214 N1221 1.356 . S
C1215 C1214 1.363 . S
C1215 C1218 1.363 . S
N1216 C1218 1.356 . S
N1216 H1228 0.984 . S
N1216 H1229 0.985 . S
N1217 C1219 1.356 . S
N1217 H1222 0.984 . S
N1217 H1223 0.985 . S
C1218 C1212 1.379 . S
C1218 C1215 1.363 . S
C1218 N1216 1.356 . S
C1219 C1213 1.363 . S
C1219 C1214 1.379 . S
C1219 N1217 1.356 . S
N1220 C1212 1.356 . S
N1220 H1226 0.984 . S
N1220 H1227 0.984 . S
N1221 C1214 1.356 . S
N1221 H1224 0.984 . S
N1221 H1225 0.985 . S
H1222 N1217 0.984 . S
H1223 N1217 0.985 . S
H1224 N1221 0.984 . S
H1225 N1221 0.985 . S
H1226 N1220 0.984 . S
H1227 N1220 0.984 . S
H1228 N1216 0.984 . S
H1229 N1216 0.985 . S
C1230 C1231 1.363 . S
C1230 C1236 1.379 . S
C1230 N1238 1.356 . S
C1231 C1230 1.363 . S
C1231 C1237 1.363 . S
C1232 C1233 1.363 . S
C1232 C1237 1.379 . S
C1232 N1239 1.356 . S
C1233 C1232 1.363 . S
C1233 C1236 1.363 . S
N1234 C1236 1.356 . S
N1234 H1246 0.984 . S
N1234 H1247 0.985 . S
N1235 C1237 1.356 . S
N1235 H1240 0.984 . S
N1235 H1241 0.985 . S
C1236 C1230 1.379 . S
C1236 C1233 1.363 . S
C1236 N1234 1.356 . S
C1237 C1231 1.363 . S
C1237 C1232 1.379 . S
C1237 N1235 1.356 . S
N1238 C1230 1.356 . S
N1238 H1244 0.984 . S
N1238 H1245 0.984 . S
N1239 C1232 1.356 . S
N1239 H1242 0.984 . S
N1239 H1243 0.985 . S
H1240 N1235 0.984 . S
H1241 N1235 0.985 . S
H1242 N1239 0.984 . S
H1243 N1239 0.985 . S
H1244 N1238 0.984 . S
H1245 N1238 0.984 . S
H1246 N1234 0.984 . S
H1247 N1234 0.985 . S
C1248 C1249 1.363 . S
C1248 C1254 1.379 . S
C1248 N1256 1.356 . S
C1249 C1248 1.363 . S
C1249 C1255 1.363 . S
C1250 C1251 1.363 . S
C1250 C1255 1.379 . S
C1250 N1257 1.356 . S
C1251 C1250 1.363 . S
C1251 C1254 1.363 . S
N1252 C1254 1.356 . S
N1252 H1264 0.984 . S
N1252 H1265 0.985 . S
N1253 C1255 1.356 . S
N1253 H1258 0.984 . S
N1253 H1259 0.985 . S
C1254 C1248 1.379 . S
C1254 C1251 1.363 . S
C1254 N1252 1.356 . S
C1255 C1249 1.363 . S
C1255 C1250 1.379 . S
C1255 N1253 1.356 . S
N1256 C1248 1.356 . S
N1256 H1262 0.984 . S
N1256 H1263 0.984 . S
N1257 C1250 1.356 . S
N1257 H1260 0.984 . S
N1257 H1261 0.985 . S
H1258 N1253 0.984 . S
H1259 N1253 0.985 . S
H1260 N1257 0.984 . S
H1261 N1257 0.985 . S
H1262 N1256 0.984 . S
H1263 N1256 0.984 . S
H1264 N1252 0.984 . S
H1265 N1252 0.985 . S
C1266 C1267 1.363 . S
C1266 C1272 1.379 . S
C1266 N1274 1.356 . S
C1267 C1266 1.363 . S
C1267 C1273 1.363 . S
C1268 C1269 1.363 . S
C1268 C1273 1.379 . S
C1268 N1275 1.356 . S
C1269 C1268 1.363 . S
C1269 C1272 1.363 . S
N1270 C1272 1.356 . S
N1270 H1282 0.984 . S
N1270 H1283 0.985 . S
N1271 C1273 1.356 . S
N1271 H1276 0.984 . S
N1271 H1277 0.985 . S
C1272 C1266 1.379 . S
C1272 C1269 1.363 . S
C1272 N1270 1.356 . S
C1273 C1267 1.363 . S
C1273 C1268 1.379 . S
C1273 N1271 1.356 . S
N1274 C1266 1.356 . S
N1274 H1280 0.984 . S
N1274 H1281 0.984 . S
N1275 C1268 1.356 . S
N1275 H1278 0.984 . S
N1275 H1279 0.985 . S
H1276 N1271 0.984 . S
H1277 N1271 0.985 . S
H1278 N1275 0.984 . S
H1279 N1275 0.985 . S
H1280 N1274 0.984 . S
H1281 N1274 0.984 . S
H1282 N1270 0.984 . S
H1283 N1270 0.985 . S
C1284 C1285 1.363 . S
C1284 C1290 1.379 . S
C1284 N1292 1.356 . S
C1285 C1284 1.363 . S
C1285 C1291 1.363 . S
C1286 C1287 1.363 . S
C1286 C1291 1.379 . S
C1286 N1293 1.356 . S
C1287 C1286 1.363 . S
C1287 C1290 1.363 . S
N1288 C1290 1.356 . S
N1288 H1300 0.984 . S
N1288 H1301 0.985 . S
N1289 C1291 1.356 . S
N1289 H1294 0.984 . S
N1289 H1295 0.985 . S
C1290 C1284 1.379 . S
C1290 C1287 1.363 . S
C1290 N1288 1.356 . S
C1291 C1285 1.363 . S
C1291 C1286 1.379 . S
C1291 N1289 1.356 . S
N1292 C1284 1.356 . S
N1292 H1298 0.984 . S
N1292 H1299 0.984 . S
N1293 C1286 1.356 . S
N1293 H1296 0.984 . S
N1293 H1297 0.985 . S
H1294 N1289 0.984 . S
H1295 N1289 0.985 . S
H1296 N1293 0.984 . S
H1297 N1293 0.985 . S
H1298 N1292 0.984 . S
H1299 N1292 0.984 . S
H1300 N1288 0.984 . S
H1301 N1288 0.985 . S
C1302 C1303 1.363 . S
C1302 C1308 1.379 . S
C1302 N1310 1.356 . S
C1303 C1302 1.363 . S
C1303 C1309 1.363 . S
C1304 C1305 1.363 . S
C1304 C1309 1.379 . S
C1304 N1311 1.356 . S
C1305 C1304 1.363 . S
C1305 C1308 1.363 . S
N1306 C1308 1.356 . S
N1306 H1318 0.984 . S
N1306 H1319 0.985 . S
N1307 C1309 1.356 . S
N1307 H1312 0.984 . S
N1307 H1313 0.985 . S
C1308 C1302 1.379 . S
C1308 C1305 1.363 . S
C1308 N1306 1.356 . S
C1309 C1303 1.363 . S
C1309 C1304 1.379 . S
C1309 N1307 1.356 . S
N1310 C1302 1.356 . S
N1310 H1316 0.984 . S
N1310 H1317 0.984 . S
N1311 C1304 1.356 . S
N1311 H1314 0.984 . S
N1311 H1315 0.985 . S
H1312 N1307 0.984 . S
H1313 N1307 0.985 . S
H1314 N1311 0.984 . S
H1315 N1311 0.985 . S
H1316 N1310 0.984 . S
H1317 N1310 0.984 . S
H1318 N1306 0.984 . S
H1319 N1306 0.985 . S
C1320 C1321 1.363 . S
C1320 C1326 1.379 . S
C1320 N1328 1.356 . S
C1321 C1320 1.363 . S
C1321 C1327 1.363 . S
C1322 C1323 1.363 . S
C1322 C1327 1.379 . S
C1322 N1329 1.356 . S
C1323 C1322 1.363 . S
C1323 C1326 1.363 . S
N1324 C1326 1.356 . S
N1324 H1336 0.984 . S
N1324 H1337 0.985 . S
N1325 C1327 1.356 . S
N1325 H1330 0.984 . S
N1325 H1331 0.985 . S
C1326 C1320 1.379 . S
C1326 C1323 1.363 . S
C1326 N1324 1.356 . S
C1327 C1321 1.363 . S
C1327 C1322 1.379 . S
C1327 N1325 1.356 . S
N1328 C1320 1.356 . S
N1328 H1334 0.984 . S
N1328 H1335 0.984 . S
N1329 C1322 1.356 . S
N1329 H1332 0.984 . S
N1329 H1333 0.985 . S
H1330 N1325 0.984 . S
H1331 N1325 0.985 . S
H1332 N1329 0.984 . S
H1333 N1329 0.985 . S
H1334 N1328 0.984 . S
H1335 N1328 0.984 . S
H1336 N1324 0.984 . S
H1337 N1324 0.985 . S
C1338 C1339 1.363 . S
C1338 C1344 1.379 . S
C1338 N1346 1.356 . S
C1339 C1338 1.363 . S
C1339 C1345 1.363 . S
C1340 C1341 1.363 . S
C1340 C1345 1.379 . S
C1340 N1347 1.356 . S
C1341 C1340 1.363 . S
C1341 C1344 1.363 . S
N1342 C1344 1.356 . S
N1342 H1354 0.984 . S
N1342 H1355 0.985 . S
N1343 C1345 1.356 . S
N1343 H1348 0.984 . S
N1343 H1349 0.985 . S
C1344 C1338 1.379 . S
C1344 C1341 1.363 . S
C1344 N1342 1.356 . S
C1345 C1339 1.363 . S
C1345 C1340 1.379 . S
C1345 N1343 1.356 . S
N1346 C1338 1.356 . S
N1346 H1352 0.984 . S
N1346 H1353 0.984 . S
N1347 C1340 1.356 . S
N1347 H1350 0.984 . S
N1347 H1351 0.985 . S
H1348 N1343 0.984 . S
H1349 N1343 0.985 . S
H1350 N1347 0.984 . S
H1351 N1347 0.985 . S
H1352 N1346 0.984 . S
H1353 N1346 0.984 . S
H1354 N1342 0.984 . S
H1355 N1342 0.985 . S
C1356 C1357 1.363 . S
C1356 C1362 1.379 . S
C1356 N1364 1.356 . S
C1357 C1356 1.363 . S
C1357 C1363 1.363 . S
C1358 C1359 1.363 . S
C1358 C1363 1.379 . S
C1358 N1365 1.356 . S
C1359 C1358 1.363 . S
C1359 C1362 1.363 . S
N1360 C1362 1.356 . S
N1360 H1372 0.984 . S
N1360 H1373 0.985 . S
N1361 C1363 1.356 . S
N1361 H1366 0.984 . S
N1361 H1367 0.985 . S
C1362 C1356 1.379 . S
C1362 C1359 1.363 . S
C1362 N1360 1.356 . S
C1363 C1357 1.363 . S
C1363 C1358 1.379 . S
C1363 N1361 1.356 . S
N1364 C1356 1.356 . S
N1364 H1370 0.984 . S
N1364 H1371 0.984 . S
N1365 C1358 1.356 . S
N1365 H1368 0.984 . S
N1365 H1369 0.985 . S
H1366 N1361 0.984 . S
H1367 N1361 0.985 . S
H1368 N1365 0.984 . S
H1369 N1365 0.985 . S
H1370 N1364 0.984 . S
H1371 N1364 0.984 . S
H1372 N1360 0.984 . S
H1373 N1360 0.985 . S
C1374 C1375 1.363 . S
C1374 C1380 1.379 . S
C1374 N1382 1.356 . S
C1375 C1374 1.363 . S
C1375 C1381 1.363 . S
C1376 C1377 1.363 . S
C1376 C1381 1.379 . S
C1376 N1383 1.356 . S
C1377 C1376 1.363 . S
C1377 C1380 1.363 . S
N1378 C1380 1.356 . S
N1378 H1390 0.984 . S
N1378 H1391 0.985 . S
N1379 C1381 1.356 . S
N1379 H1384 0.984 . S
N1379 H1385 0.985 . S
C1380 C1374 1.379 . S
C1380 C1377 1.363 . S
C1380 N1378 1.356 . S
C1381 C1375 1.363 . S
C1381 C1376 1.379 . S
C1381 N1379 1.356 . S
N1382 C1374 1.356 . S
N1382 H1388 0.984 . S
N1382 H1389 0.984 . S
N1383 C1376 1.356 . S
N1383 H1386 0.984 . S
N1383 H1387 0.985 . S
H1384 N1379 0.984 . S
H1385 N1379 0.985 . S
H1386 N1383 0.984 . S
H1387 N1383 0.985 . S
H1388 N1382 0.984 . S
H1389 N1382 0.984 . S
H1390 N1378 0.984 . S
H1391 N1378 0.985 . S
C1392 C1393 1.363 . S
C1392 C1398 1.379 . S
C1392 N1400 1.356 . S
C1393 C1392 1.363 . S
C1393 C1399 1.363 . S
C1394 C1395 1.363 . S
C1394 C1399 1.379 . S
C1394 N1401 1.356 . S
C1395 C1394 1.363 . S
C1395 C1398 1.363 . S
N1396 C1398 1.356 . S
N1396 H1408 0.984 . S
N1396 H1409 0.985 . S
N1397 C1399 1.356 . S
N1397 H1402 0.984 . S
N1397 H1403 0.985 . S
C1398 C1392 1.379 . S
C1398 C1395 1.363 . S
C1398 N1396 1.356 . S
C1399 C1393 1.363 . S
C1399 C1394 1.379 . S
C1399 N1397 1.356 . S
N1400 C1392 1.356 . S
N1400 H1406 0.984 . S
N1400 H1407 0.984 . S
N1401 C1394 1.356 . S
N1401 H1404 0.984 . S
N1401 H1405 0.985 . S
H1402 N1397 0.984 . S
H1403 N1397 0.985 . S
H1404 N1401 0.984 . S
H1405 N1401 0.985 . S
H1406 N1400 0.984 . S
H1407 N1400 0.984 . S
H1408 N1396 0.984 . S
H1409 N1396 0.985 . S
C1410 C1411 1.363 . S
C1410 C1416 1.379 . S
C1410 N1418 1.356 . S
C1411 C1410 1.363 . S
C1411 C1417 1.363 . S
C1412 C1413 1.363 . S
C1412 C1417 1.379 . S
C1412 N1419 1.356 . S
C1413 C1412 1.363 . S
C1413 C1416 1.363 . S
N1414 C1416 1.356 . S
N1414 H1426 0.984 . S
N1414 H1427 0.985 . S
N1415 C1417 1.356 . S
N1415 H1420 0.984 . S
N1415 H1421 0.985 . S
C1416 C1410 1.379 . S
C1416 C1413 1.363 . S
C1416 N1414 1.356 . S
C1417 C1411 1.363 . S
C1417 C1412 1.379 . S
C1417 N1415 1.356 . S
N1418 C1410 1.356 . S
N1418 H1424 0.984 . S
N1418 H1425 0.984 . S
N1419 C1412 1.356 . S
N1419 H1422 0.984 . S
N1419 H1423 0.985 . S
H1420 N1415 0.984 . S
H1421 N1415 0.985 . S
H1422 N1419 0.984 . S
H1423 N1419 0.985 . S
H1424 N1418 0.984 . S
H1425 N1418 0.984 . S
H1426 N1414 0.984 . S
H1427 N1414 0.985 . S
C1428 C1429 1.363 . S
C1428 C1434 1.379 . S
C1428 N1436 1.356 . S
C1429 C1428 1.363 . S
C1429 C1435 1.363 . S
C1430 C1431 1.363 . S
C1430 C1435 1.379 . S
C1430 N1437 1.356 . S
C1431 C1430 1.363 . S
C1431 C1434 1.363 . S
N1432 C1434 1.356 . S
N1432 H1444 0.984 . S
N1432 H1445 0.985 . S
N1433 C1435 1.356 . S
N1433 H1438 0.984 . S
N1433 H1439 0.985 . S
C1434 C1428 1.379 . S
C1434 C1431 1.363 . S
C1434 N1432 1.356 . S
C1435 C1429 1.363 . S
C1435 C1430 1.379 . S
C1435 N1433 1.356 . S
N1436 C1428 1.356 . S
N1436 H1442 0.984 . S
N1436 H1443 0.984 . S
N1437 C1430 1.356 . S
N1437 H1440 0.984 . S
N1437 H1441 0.985 . S
H1438 N1433 0.984 . S
H1439 N1433 0.985 . S
H1440 N1437 0.984 . S
H1441 N1437 0.985 . S
H1442 N1436 0.984 . S
H1443 N1436 0.984 . S
H1444 N1432 0.984 . S
H1445 N1432 0.985 . S
C1446 C1447 1.363 . S
C1446 C1452 1.379 . S
C1446 N1454 1.356 . S
C1447 C1446 1.363 . S
C1447 C1453 1.363 . S
C1448 C1449 1.363 . S
C1448 C1453 1.379 . S
C1448 N1455 1.356 . S
C1449 C1448 1.363 . S
C1449 C1452 1.363 . S
N1450 C1452 1.356 . S
N1450 H1462 0.984 . S
N1450 H1463 0.985 . S
N1451 C1453 1.356 . S
N1451 H1456 0.984 . S
N1451 H1457 0.985 . S
C1452 C1446 1.379 . S
C1452 C1449 1.363 . S
C1452 N1450 1.356 . S
C1453 C1447 1.363 . S
C1453 C1448 1.379 . S
C1453 N1451 1.356 . S
N1454 C1446 1.356 . S
N1454 H1460 0.984 . S
N1454 H1461 0.984 . S
N1455 C1448 1.356 . S
N1455 H1458 0.984 . S
N1455 H1459 0.985 . S
H1456 N1451 0.984 . S
H1457 N1451 0.985 . S
H1458 N1455 0.984 . S
H1459 N1455 0.985 . S
H1460 N1454 0.984 . S
H1461 N1454 0.984 . S
H1462 N1450 0.984 . S
H1463 N1450 0.985 . S
C1464 C1465 1.363 . S
C1464 C1470 1.379 . S
C1464 N1472 1.356 . S
C1465 C1464 1.363 . S
C1465 C1471 1.363 . S
C1466 C1467 1.363 . S
C1466 C1471 1.379 . S
C1466 N1473 1.356 . S
C1467 C1466 1.363 . S
C1467 C1470 1.363 . S
N1468 C1470 1.356 . S
N1468 H1480 0.984 . S
N1468 H1481 0.985 . S
N1469 C1471 1.356 . S
N1469 H1474 0.984 . S
N1469 H1475 0.985 . S
C1470 C1464 1.379 . S
C1470 C1467 1.363 . S
C1470 N1468 1.356 . S
C1471 C1465 1.363 . S
C1471 C1466 1.379 . S
C1471 N1469 1.356 . S
N1472 C1464 1.356 . S
N1472 H1478 0.984 . S
N1472 H1479 0.984 . S
N1473 C1466 1.356 . S
N1473 H1476 0.984 . S
N1473 H1477 0.985 . S
H1474 N1469 0.984 . S
H1475 N1469 0.985 . S
H1476 N1473 0.984 . S
H1477 N1473 0.985 . S
H1478 N1472 0.984 . S
H1479 N1472 0.984 . S
H1480 N1468 0.984 . S
H1481 N1468 0.985 . S
C1482 C1483 1.363 . S
C1482 C1488 1.379 . S
C1482 N1490 1.356 . S
C1483 C1482 1.363 . S
C1483 C1489 1.363 . S
C1484 C1485 1.363 . S
C1484 C1489 1.379 . S
C1484 N1491 1.356 . S
C1485 C1484 1.363 . S
C1485 C1488 1.363 . S
N1486 C1488 1.356 . S
N1486 H1498 0.984 . S
N1486 H1499 0.985 . S
N1487 C1489 1.356 . S
N1487 H1492 0.984 . S
N1487 H1493 0.985 . S
C1488 C1482 1.379 . S
C1488 C1485 1.363 . S
C1488 N1486 1.356 . S
C1489 C1483 1.363 . S
C1489 C1484 1.379 . S
C1489 N1487 1.356 . S
N1490 C1482 1.356 . S
N1490 H1496 0.984 . S
N1490 H1497 0.984 . S
N1491 C1484 1.356 . S
N1491 H1494 0.984 . S
N1491 H1495 0.985 . S
H1492 N1487 0.984 . S
H1493 N1487 0.985 . S
H1494 N1491 0.984 . S
H1495 N1491 0.985 . S
H1496 N1490 0.984 . S
H1497 N1490 0.984 . S
H1498 N1486 0.984 . S
H1499 N1486 0.985 . S
C1500 C1501 1.363 . S
C1500 C1506 1.379 . S
C1500 N1508 1.356 . S
C1501 C1500 1.363 . S
C1501 C1507 1.363 . S
C1502 C1503 1.363 . S
C1502 C1507 1.379 . S
C1502 N1509 1.356 . S
C1503 C1502 1.363 . S
C1503 C1506 1.363 . S
N1504 C1506 1.356 . S
N1504 H1516 0.984 . S
N1504 H1517 0.985 . S
N1505 C1507 1.356 . S
N1505 H1510 0.984 . S
N1505 H1511 0.985 . S
C1506 C1500 1.379 . S
C1506 C1503 1.363 . S
C1506 N1504 1.356 . S
C1507 C1501 1.363 . S
C1507 C1502 1.379 . S
C1507 N1505 1.356 . S
N1508 C1500 1.356 . S
N1508 H1514 0.984 . S
N1508 H1515 0.984 . S
N1509 C1502 1.356 . S
N1509 H1512 0.984 . S
N1509 H1513 0.985 . S
H1510 N1505 0.984 . S
H1511 N1505 0.985 . S
H1512 N1509 0.984 . S
H1513 N1509 0.985 . S
H1514 N1508 0.984 . S
H1515 N1508 0.984 . S
H1516 N1504 0.984 . S
H1517 N1504 0.985 . S
C1518 C1519 1.363 . S
C1518 C1524 1.379 . S
C1518 N1526 1.356 . S
C1519 C1518 1.363 . S
C1519 C1525 1.363 . S
C1520 C1521 1.363 . S
C1520 C1525 1.379 . S
C1520 N1527 1.356 . S
C1521 C1520 1.363 . S
C1521 C1524 1.363 . S
N1522 C1524 1.356 . S
N1522 H1534 0.984 . S
N1522 H1535 0.985 . S
N1523 C1525 1.356 . S
N1523 H1528 0.984 . S
N1523 H1529 0.985 . S
C1524 C1518 1.379 . S
C1524 C1521 1.363 . S
C1524 N1522 1.356 . S
C1525 C1519 1.363 . S
C1525 C1520 1.379 . S
C1525 N1523 1.356 . S
N1526 C1518 1.356 . S
N1526 H1532 0.984 . S
N1526 H1533 0.984 . S
N1527 C1520 1.356 . S
N1527 H1530 0.984 . S
N1527 H1531 0.985 . S
H1528 N1523 0.984 . S
H1529 N1523 0.985 . S
H1530 N1527 0.984 . S
H1531 N1527 0.985 . S
H1532 N1526 0.984 . S
H1533 N1526 0.984 . S
H1534 N1522 0.984 . S
H1535 N1522 0.985 . S
C1536 C1537 1.363 . S
C1536 C1542 1.379 . S
C1536 N1544 1.356 . S
C1537 C1536 1.363 . S
C1537 C1543 1.363 . S
C1538 C1539 1.363 . S
C1538 C1543 1.379 . S
C1538 N1545 1.356 . S
C1539 C1538 1.363 . S
C1539 C1542 1.363 . S
N1540 C1542 1.356 . S
N1540 H1552 0.984 . S
N1540 H1553 0.985 . S
N1541 C1543 1.356 . S
N1541 H1546 0.984 . S
N1541 H1547 0.985 . S
C1542 C1536 1.379 . S
C1542 C1539 1.363 . S
C1542 N1540 1.356 . S
C1543 C1537 1.363 . S
C1543 C1538 1.379 . S
C1543 N1541 1.356 . S
N1544 C1536 1.356 . S
N1544 H1550 0.984 . S
N1544 H1551 0.984 . S
N1545 C1538 1.356 . S
N1545 H1548 0.984 . S
N1545 H1549 0.985 . S
H1546 N1541 0.984 . S
H1547 N1541 0.985 . S
H1548 N1545 0.984 . S
H1549 N1545 0.985 . S
H1550 N1544 0.984 . S
H1551 N1544 0.984 . S
H1552 N1540 0.984 . S
H1553 N1540 0.985 . S
C1554 C1555 1.363 . S
C1554 C1560 1.379 . S
C1554 N1562 1.356 . S
C1555 C1554 1.363 . S
C1555 C1561 1.363 . S
C1556 C1557 1.363 . S
C1556 C1561 1.379 . S
C1556 N1563 1.356 . S
C1557 C1556 1.363 . S
C1557 C1560 1.363 . S
N1558 C1560 1.356 . S
N1558 H1570 0.984 . S
N1558 H1571 0.985 . S
N1559 C1561 1.356 . S
N1559 H1564 0.984 . S
N1559 H1565 0.985 . S
C1560 C1554 1.379 . S
C1560 C1557 1.363 . S
C1560 N1558 1.356 . S
C1561 C1555 1.363 . S
C1561 C1556 1.379 . S
C1561 N1559 1.356 . S
N1562 C1554 1.356 . S
N1562 H1568 0.984 . S
N1562 H1569 0.984 . S
N1563 C1556 1.356 . S
N1563 H1566 0.984 . S
N1563 H1567 0.985 . S
H1564 N1559 0.984 . S
H1565 N1559 0.985 . S
H1566 N1563 0.984 . S
H1567 N1563 0.985 . S
H1568 N1562 0.984 . S
H1569 N1562 0.984 . S
H1570 N1558 0.984 . S
H1571 N1558 0.985 . S
C1572 C1573 1.363 . S
C1572 C1578 1.379 . S
C1572 N1580 1.356 . S
C1573 C1572 1.363 . S
C1573 C1579 1.363 . S
C1574 C1575 1.363 . S
C1574 C1579 1.379 . S
C1574 N1581 1.356 . S
C1575 C1574 1.363 . S
C1575 C1578 1.363 . S
N1576 C1578 1.356 . S
N1576 H1588 0.984 . S
N1576 H1589 0.985 . S
N1577 C1579 1.356 . S
N1577 H1582 0.984 . S
N1577 H1583 0.985 . S
C1578 C1572 1.379 . S
C1578 C1575 1.363 . S
C1578 N1576 1.356 . S
C1579 C1573 1.363 . S
C1579 C1574 1.379 . S
C1579 N1577 1.356 . S
N1580 C1572 1.356 . S
N1580 H1586 0.984 . S
N1580 H1587 0.984 . S
N1581 C1574 1.356 . S
N1581 H1584 0.984 . S
N1581 H1585 0.985 . S
H1582 N1577 0.984 . S
H1583 N1577 0.985 . S
H1584 N1581 0.984 . S
H1585 N1581 0.985 . S
H1586 N1580 0.984 . S
H1587 N1580 0.984 . S
H1588 N1576 0.984 . S
H1589 N1576 0.985 . S
C1590 C1591 1.363 . S
C1590 C1596 1.379 . S
C1590 N1598 1.356 . S
C1591 C1590 1.363 . S
C1591 C1597 1.363 . S
C1592 C1593 1.363 . S
C1592 C1597 1.379 . S
C1592 N1599 1.356 . S
C1593 C1592 1.363 . S
C1593 C1596 1.363 . S
N1594 C1596 1.356 . S
N1594 H1606 0.984 . S
N1594 H1607 0.985 . S
N1595 C1597 1.356 . S
N1595 H1600 0.984 . S
N1595 H1601 0.985 . S
C1596 C1590 1.379 . S
C1596 C1593 1.363 . S
C1596 N1594 1.356 . S
C1597 C1591 1.363 . S
C1597 C1592 1.379 . S
C1597 N1595 1.356 . S
N1598 C1590 1.356 . S
N1598 H1604 0.984 . S
N1598 H1605 0.984 . S
N1599 C1592 1.356 . S
N1599 H1602 0.984 . S
N1599 H1603 0.985 . S
H1600 N1595 0.984 . S
H1601 N1595 0.985 . S
H1602 N1599 0.984 . S
H1603 N1599 0.985 . S
H1604 N1598 0.984 . S
H1605 N1598 0.984 . S
H1606 N1594 0.984 . S
H1607 N1594 0.985 . S
C1608 C1609 1.363 . S
C1608 C1614 1.379 . S
C1608 N1616 1.356 . S
C1609 C1608 1.363 . S
C1609 C1615 1.363 . S
C1610 C1611 1.363 . S
C1610 C1615 1.379 . S
C1610 N1617 1.356 . S
C1611 C1610 1.363 . S
C1611 C1614 1.363 . S
N1612 C1614 1.356 . S
N1612 H1624 0.984 . S
N1612 H1625 0.985 . S
N1613 C1615 1.356 . S
N1613 H1618 0.984 . S
N1613 H1619 0.985 . S
C1614 C1608 1.379 . S
C1614 C1611 1.363 . S
C1614 N1612 1.356 . S
C1615 C1609 1.363 . S
C1615 C1610 1.379 . S
C1615 N1613 1.356 . S
N1616 C1608 1.356 . S
N1616 H1622 0.984 . S
N1616 H1623 0.984 . S
N1617 C1610 1.356 . S
N1617 H1620 0.984 . S
N1617 H1621 0.985 . S
H1618 N1613 0.984 . S
H1619 N1613 0.985 . S
H1620 N1617 0.984 . S
H1621 N1617 0.985 . S
H1622 N1616 0.984 . S
H1623 N1616 0.984 . S
H1624 N1612 0.984 . S
H1625 N1612 0.985 . S
C1626 C1627 1.363 . S
C1626 C1632 1.379 . S
C1626 N1634 1.356 . S
C1627 C1626 1.363 . S
C1627 C1633 1.363 . S
C1628 C1629 1.363 . S
C1628 C1633 1.379 . S
C1628 N1635 1.356 . S
C1629 C1628 1.363 . S
C1629 C1632 1.363 . S
N1630 C1632 1.356 . S
N1630 H1642 0.984 . S
N1630 H1643 0.985 . S
N1631 C1633 1.356 . S
N1631 H1636 0.984 . S
N1631 H1637 0.985 . S
C1632 C1626 1.379 . S
C1632 C1629 1.363 . S
C1632 N1630 1.356 . S
C1633 C1627 1.363 . S
C1633 C1628 1.379 . S
C1633 N1631 1.356 . S
N1634 C1626 1.356 . S
N1634 H1640 0.984 . S
N1634 H1641 0.984 . S
N1635 C1628 1.356 . S
N1635 H1638 0.984 . S
N1635 H1639 0.985 . S
H1636 N1631 0.984 . S
H1637 N1631 0.985 . S
H1638 N1635 0.984 . S
H1639 N1635 0.985 . S
H1640 N1634 0.984 . S
H1641 N1634 0.984 . S
H1642 N1630 0.984 . S
H1643 N1630 0.985 . S
C1644 C1645 1.363 . S
C1644 C1650 1.379 . S
C1644 N1652 1.356 . S
C1645 C1644 1.363 . S
C1645 C1651 1.363 . S
C1646 C1647 1.363 . S
C1646 C1651 1.379 . S
C1646 N1653 1.356 . S
C1647 C1646 1.363 . S
C1647 C1650 1.363 . S
N1648 C1650 1.356 . S
N1648 H1660 0.984 . S
N1648 H1661 0.985 . S
N1649 C1651 1.356 . S
N1649 H1654 0.984 . S
N1649 H1655 0.985 . S
C1650 C1644 1.379 . S
C1650 C1647 1.363 . S
C1650 N1648 1.356 . S
C1651 C1645 1.363 . S
C1651 C1646 1.379 . S
C1651 N1649 1.356 . S
N1652 C1644 1.356 . S
N1652 H1658 0.984 . S
N1652 H1659 0.984 . S
N1653 C1646 1.356 . S
N1653 H1656 0.984 . S
N1653 H1657 0.985 . S
H1654 N1649 0.984 . S
H1655 N1649 0.985 . S
H1656 N1653 0.984 . S
H1657 N1653 0.985 . S
H1658 N1652 0.984 . S
H1659 N1652 0.984 . S
H1660 N1648 0.984 . S
H1661 N1648 0.985 . S
C1662 C1663 1.363 . S
C1662 C1668 1.379 . S
C1662 N1670 1.356 . S
C1663 C1662 1.363 . S
C1663 C1669 1.363 . S
C1664 C1665 1.363 . S
C1664 C1669 1.379 . S
C1664 N1671 1.356 . S
C1665 C1664 1.363 . S
C1665 C1668 1.363 . S
N1666 C1668 1.356 . S
N1666 H1678 0.984 . S
N1666 H1679 0.985 . S
N1667 C1669 1.356 . S
N1667 H1672 0.984 . S
N1667 H1673 0.985 . S
C1668 C1662 1.379 . S
C1668 C1665 1.363 . S
C1668 N1666 1.356 . S
C1669 C1663 1.363 . S
C1669 C1664 1.379 . S
C1669 N1667 1.356 . S
N1670 C1662 1.356 . S
N1670 H1676 0.984 . S
N1670 H1677 0.984 . S
N1671 C1664 1.356 . S
N1671 H1674 0.984 . S
N1671 H1675 0.985 . S
H1672 N1667 0.984 . S
H1673 N1667 0.985 . S
H1674 N1671 0.984 . S
H1675 N1671 0.985 . S
H1676 N1670 0.984 . S
H1677 N1670 0.984 . S
H1678 N1666 0.984 . S
H1679 N1666 0.985 . S
C1680 C1681 1.363 . S
C1680 C1686 1.379 . S
C1680 N1688 1.356 . S
C1681 C1680 1.363 . S
C1681 C1687 1.363 . S
C1682 C1683 1.363 . S
C1682 C1687 1.379 . S
C1682 N1689 1.356 . S
C1683 C1682 1.363 . S
C1683 C1686 1.363 . S
N1684 C1686 1.356 . S
N1684 H1696 0.984 . S
N1684 H1697 0.985 . S
N1685 C1687 1.356 . S
N1685 H1690 0.984 . S
N1685 H1691 0.985 . S
C1686 C1680 1.379 . S
C1686 C1683 1.363 . S
C1686 N1684 1.356 . S
C1687 C1681 1.363 . S
C1687 C1682 1.379 . S
C1687 N1685 1.356 . S
N1688 C1680 1.356 . S
N1688 H1694 0.984 . S
N1688 H1695 0.984 . S
N1689 C1682 1.356 . S
N1689 H1692 0.984 . S
N1689 H1693 0.985 . S
H1690 N1685 0.984 . S
H1691 N1685 0.985 . S
H1692 N1689 0.984 . S
H1693 N1689 0.985 . S
H1694 N1688 0.984 . S
H1695 N1688 0.984 . S
H1696 N1684 0.984 . S
H1697 N1684 0.985 . S
C1698 C1699 1.363 . S
C1698 C1704 1.379 . S
C1698 N1706 1.356 . S
C1699 C1698 1.363 . S
C1699 C1705 1.363 . S
C1700 C1701 1.363 . S
C1700 C1705 1.379 . S
C1700 N1707 1.356 . S
C1701 C1700 1.363 . S
C1701 C1704 1.363 . S
N1702 C1704 1.356 . S
N1702 H1714 0.984 . S
N1702 H1715 0.985 . S
N1703 C1705 1.356 . S
N1703 H1708 0.984 . S
N1703 H1709 0.985 . S
C1704 C1698 1.379 . S
C1704 C1701 1.363 . S
C1704 N1702 1.356 . S
C1705 C1699 1.363 . S
C1705 C1700 1.379 . S
C1705 N1703 1.356 . S
N1706 C1698 1.356 . S
N1706 H1712 0.984 . S
N1706 H1713 0.984 . S
N1707 C1700 1.356 . S
N1707 H1710 0.984 . S
N1707 H1711 0.985 . S
H1708 N1703 0.984 . S
H1709 N1703 0.985 . S
H1710 N1707 0.984 . S
H1711 N1707 0.985 . S
H1712 N1706 0.984 . S
H1713 N1706 0.984 . S
H1714 N1702 0.984 . S
H1715 N1702 0.985 . S
C1716 C1717 1.363 . S
C1716 C1722 1.379 . S
C1716 N1724 1.356 . S
C1717 C1716 1.363 . S
C1717 C1723 1.363 . S
C1718 C1719 1.363 . S
C1718 C1723 1.379 . S
C1718 N1725 1.356 . S
C1719 C1718 1.363 . S
C1719 C1722 1.363 . S
N1720 C1722 1.356 . S
N1720 H1732 0.984 . S
N1720 H1733 0.985 . S
N1721 C1723 1.356 . S
N1721 H1726 0.984 . S
N1721 H1727 0.985 . S
C1722 C1716 1.379 . S
C1722 C1719 1.363 . S
C1722 N1720 1.356 . S
C1723 C1717 1.363 . S
C1723 C1718 1.379 . S
C1723 N1721 1.356 . S
N1724 C1716 1.356 . S
N1724 H1730 0.984 . S
N1724 H1731 0.984 . S
N1725 C1718 1.356 . S
N1725 H1728 0.984 . S
N1725 H1729 0.985 . S
H1726 N1721 0.984 . S
H1727 N1721 0.985 . S
H1728 N1725 0.984 . S
H1729 N1725 0.985 . S
H1730 N1724 0.984 . S
H1731 N1724 0.984 . S
H1732 N1720 0.984 . S
H1733 N1720 0.985 . S
C1734 C1735 1.363 . S
C1734 C1740 1.379 . S
C1734 N1742 1.356 . S
C1735 C1734 1.363 . S
C1735 C1741 1.363 . S
C1736 C1737 1.363 . S
C1736 C1741 1.379 . S
C1736 N1743 1.356 . S
C1737 C1736 1.363 . S
C1737 C1740 1.363 . S
N1738 C1740 1.356 . S
N1738 H1750 0.984 . S
N1738 H1751 0.985 . S
N1739 C1741 1.356 . S
N1739 H1744 0.984 . S
N1739 H1745 0.985 . S
C1740 C1734 1.379 . S
C1740 C1737 1.363 . S
C1740 N1738 1.356 . S
C1741 C1735 1.363 . S
C1741 C1736 1.379 . S
C1741 N1739 1.356 . S
N1742 C1734 1.356 . S
N1742 H1748 0.984 . S
N1742 H1749 0.984 . S
N1743 C1736 1.356 . S
N1743 H1746 0.984 . S
N1743 H1747 0.985 . S
H1744 N1739 0.984 . S
H1745 N1739 0.985 . S
H1746 N1743 0.984 . S
H1747 N1743 0.985 . S
H1748 N1742 0.984 . S
H1749 N1742 0.984 . S
H1750 N1738 0.984 . S
H1751 N1738 0.985 . S
C1752 C1753 1.363 . S
C1752 C1758 1.379 . S
C1752 N1760 1.356 . S
C1753 C1752 1.363 . S
C1753 C1759 1.363 . S
C1754 C1755 1.363 . S
C1754 C1759 1.379 . S
C1754 N1761 1.356 . S
C1755 C1754 1.363 . S
C1755 C1758 1.363 . S
N1756 C1758 1.356 . S
N1756 H1768 0.984 . S
N1756 H1769 0.985 . S
N1757 C1759 1.356 . S
N1757 H1762 0.984 . S
N1757 H1763 0.985 . S
C1758 C1752 1.379 . S
C1758 C1755 1.363 . S
C1758 N1756 1.356 . S
C1759 C1753 1.363 . S
C1759 C1754 1.379 . S
C1759 N1757 1.356 . S
N1760 C1752 1.356 . S
N1760 H1766 0.984 . S
N1760 H1767 0.984 . S
N1761 C1754 1.356 . S
N1761 H1764 0.984 . S
N1761 H1765 0.985 . S
H1762 N1757 0.984 . S
H1763 N1757 0.985 . S
H1764 N1761 0.984 . S
H1765 N1761 0.985 . S
H1766 N1760 0.984 . S
H1767 N1760 0.984 . S
H1768 N1756 0.984 . S
H1769 N1756 0.985 . S
C1770 C1771 1.363 . S
C1770 C1776 1.379 . S
C1770 N1778 1.356 . S
C1771 C1770 1.363 . S
C1771 C1777 1.363 . S
C1772 C1773 1.363 . S
C1772 C1777 1.379 . S
C1772 N1779 1.356 . S
C1773 C1772 1.363 . S
C1773 C1776 1.363 . S
N1774 C1776 1.356 . S
N1774 H1786 0.984 . S
N1774 H1787 0.985 . S
N1775 C1777 1.356 . S
N1775 H1780 0.984 . S
N1775 H1781 0.985 . S
C1776 C1770 1.379 . S
C1776 C1773 1.363 . S
C1776 N1774 1.356 . S
C1777 C1771 1.363 . S
C1777 C1772 1.379 . S
C1777 N1775 1.356 . S
N1778 C1770 1.356 . S
N1778 H1784 0.984 . S
N1778 H1785 0.984 . S
N1779 C1772 1.356 . S
N1779 H1782 0.984 . S
N1779 H1783 0.985 . S
H1780 N1775 0.984 . S
H1781 N1775 0.985 . S
H1782 N1779 0.984 . S
H1783 N1779 0.985 . S
H1784 N1778 0.984 . S
H1785 N1778 0.984 . S
H1786 N1774 0.984 . S
H1787 N1774 0.985 . S
C1788 C1789 1.363 . S
C1788 C1794 1.379 . S
C1788 N1796 1.356 . S
C1789 C1788 1.363 . S
C1789 C1795 1.363 . S
C1790 C1791 1.363 . S
C1790 C1795 1.379 . S
C1790 N1797 1.356 . S
C1791 C1790 1.363 . S
C1791 C1794 1.363 . S
N1792 C1794 1.356 . S
N1792 H1804 0.984 . S
N1792 H1805 0.985 . S
N1793 C1795 1.356 . S
N1793 H1798 0.984 . S
N1793 H1799 0.985 . S
C1794 C1788 1.379 . S
C1794 C1791 1.363 . S
C1794 N1792 1.356 . S
C1795 C1789 1.363 . S
C1795 C1790 1.379 . S
C1795 N1793 1.356 . S
N1796 C1788 1.356 . S
N1796 H1802 0.984 . S
N1796 H1803 0.984 . S
N1797 C1790 1.356 . S
N1797 H1800 0.984 . S
N1797 H1801 0.985 . S
H1798 N1793 0.984 . S
H1799 N1793 0.985 . S
H1800 N1797 0.984 . S
H1801 N1797 0.985 . S
H1802 N1796 0.984 . S
H1803 N1796 0.984 . S
H1804 N1792 0.984 . S
H1805 N1792 0.985 . S
C1806 C1807 1.363 . S
C1806 C1812 1.379 . S
C1806 N1814 1.356 . S
C1807 C1806 1.363 . S
C1807 C1813 1.363 . S
C1808 C1809 1.363 . S
C1808 C1813 1.379 . S
C1808 N1815 1.356 . S
C1809 C1808 1.363 . S
C1809 C1812 1.363 . S
N1810 C1812 1.356 . S
N1810 H1822 0.984 . S
N1810 H1823 0.985 . S
N1811 C1813 1.356 . S
N1811 H1816 0.984 . S
N1811 H1817 0.985 . S
C1812 C1806 1.379 . S
C1812 C1809 1.363 . S
C1812 N1810 1.356 . S
C1813 C1807 1.363 . S
C1813 C1808 1.379 . S
C1813 N1811 1.356 . S
N1814 C1806 1.356 . S
N1814 H1820 0.984 . S
N1814 H1821 0.984 . S
N1815 C1808 1.356 . S
N1815 H1818 0.984 . S
N1815 H1819 0.985 . S
H1816 N1811 0.984 . S
H1817 N1811 0.985 . S
H1818 N1815 0.984 . S
H1819 N1815 0.985 . S
H1820 N1814 0.984 . S
H1821 N1814 0.984 . S
H1822 N1810 0.984 . S
H1823 N1810 0.985 . S
C1824 C1825 1.363 . S
C1824 C1830 1.379 . S
C1824 N1832 1.356 . S
C1825 C1824 1.363 . S
C1825 C1831 1.363 . S
C1826 C1827 1.363 . S
C1826 C1831 1.379 . S
C1826 N1833 1.356 . S
C1827 C1826 1.363 . S
C1827 C1830 1.363 . S
N1828 C1830 1.356 . S
N1828 H1840 0.984 . S
N1828 H1841 0.985 . S
N1829 C1831 1.356 . S
N1829 H1834 0.984 . S
N1829 H1835 0.985 . S
C1830 C1824 1.379 . S
C1830 C1827 1.363 . S
C1830 N1828 1.356 . S
C1831 C1825 1.363 . S
C1831 C1826 1.379 . S
C1831 N1829 1.356 . S
N1832 C1824 1.356 . S
N1832 H1838 0.984 . S
N1832 H1839 0.984 . S
N1833 C1826 1.356 . S
N1833 H1836 0.984 . S
N1833 H1837 0.985 . S
H1834 N1829 0.984 . S
H1835 N1829 0.985 . S
H1836 N1833 0.984 . S
H1837 N1833 0.985 . S
H1838 N1832 0.984 . S
H1839 N1832 0.984 . S
H1840 N1828 0.984 . S
H1841 N1828 0.985 . S
C1842 C1843 1.363 . S
C1842 C1848 1.379 . S
C1842 N1850 1.356 . S
C1843 C1842 1.363 . S
C1843 C1849 1.363 . S
C1844 C1845 1.363 . S
C1844 C1849 1.379 . S
C1844 N1851 1.356 . S
C1845 C1844 1.363 . S
C1845 C1848 1.363 . S
N1846 C1848 1.356 . S
N1846 H1858 0.984 . S
N1846 H1859 0.985 . S
N1847 C1849 1.356 . S
N1847 H1852 0.984 . S
N1847 H1853 0.985 . S
C1848 C1842 1.379 . S
C1848 C1845 1.363 . S
C1848 N1846 1.356 . S
C1849 C1843 1.363 . S
C1849 C1844 1.379 . S
C1849 N1847 1.356 . S
N1850 C1842 1.356 . S
N1850 H1856 0.984 . S
N1850 H1857 0.984 . S
N1851 C1844 1.356 . S
N1851 H1854 0.984 . S
N1851 H1855 0.985 . S
H1852 N1847 0.984 . S
H1853 N1847 0.985 . S
H1854 N1851 0.984 . S
H1855 N1851 0.985 . S
H1856 N1850 0.984 . S
H1857 N1850 0.984 . S
H1858 N1846 0.984 . S
H1859 N1846 0.985 . S
C1860 C1861 1.363 . S
C1860 C1866 1.379 . S
C1860 N1868 1.356 . S
C1861 C1860 1.363 . S
C1861 C1867 1.363 . S
C1862 C1863 1.363 . S
C1862 C1867 1.379 . S
C1862 N1869 1.356 . S
C1863 C1862 1.363 . S
C1863 C1866 1.363 . S
N1864 C1866 1.356 . S
N1864 H1876 0.984 . S
N1864 H1877 0.985 . S
N1865 C1867 1.356 . S
N1865 H1870 0.984 . S
N1865 H1871 0.985 . S
C1866 C1860 1.379 . S
C1866 C1863 1.363 . S
C1866 N1864 1.356 . S
C1867 C1861 1.363 . S
C1867 C1862 1.379 . S
C1867 N1865 1.356 . S
N1868 C1860 1.356 . S
N1868 H1874 0.984 . S
N1868 H1875 0.984 . S
N1869 C1862 1.356 . S
N1869 H1872 0.984 . S
N1869 H1873 0.985 . S
H1870 N1865 0.984 . S
H1871 N1865 0.985 . S
H1872 N1869 0.984 . S
H1873 N1869 0.985 . S
H1874 N1868 0.984 . S
H1875 N1868 0.984 . S
H1876 N1864 0.984 . S
H1877 N1864 0.985 . S
C1878 C1879 1.363 . S
C1878 C1884 1.379 . S
C1878 N1886 1.356 . S
C1879 C1878 1.363 . S
C1879 C1885 1.363 . S
C1880 C1881 1.363 . S
C1880 C1885 1.379 . S
C1880 N1887 1.356 . S
C1881 C1880 1.363 . S
C1881 C1884 1.363 . S
N1882 C1884 1.356 . S
N1882 H1894 0.984 . S
N1882 H1895 0.985 . S
N1883 C1885 1.356 . S
N1883 H1888 0.984 . S
N1883 H1889 0.985 . S
C1884 C1878 1.379 . S
C1884 C1881 1.363 . S
C1884 N1882 1.356 . S
C1885 C1879 1.363 . S
C1885 C1880 1.379 . S
C1885 N1883 1.356 . S
N1886 C1878 1.356 . S
N1886 H1892 0.984 . S
N1886 H1893 0.984 . S
N1887 C1880 1.356 . S
N1887 H1890 0.984 . S
N1887 H1891 0.985 . S
H1888 N1883 0.984 . S
H1889 N1883 0.985 . S
H1890 N1887 0.984 . S
H1891 N1887 0.985 . S
H1892 N1886 0.984 . S
H1893 N1886 0.984 . S
H1894 N1882 0.984 . S
H1895 N1882 0.985 . S
C1896 C1897 1.363 . S
C1896 C1902 1.379 . S
C1896 N1904 1.356 . S
C1897 C1896 1.363 . S
C1897 C1903 1.363 . S
C1898 C1899 1.363 . S
C1898 C1903 1.379 . S
C1898 N1905 1.356 . S
C1899 C1898 1.363 . S
C1899 C1902 1.363 . S
N1900 C1902 1.356 . S
N1900 H1912 0.984 . S
N1900 H1913 0.985 . S
N1901 C1903 1.356 . S
N1901 H1906 0.984 . S
N1901 H1907 0.985 . S
C1902 C1896 1.379 . S
C1902 C1899 1.363 . S
C1902 N1900 1.356 . S
C1903 C1897 1.363 . S
C1903 C1898 1.379 . S
C1903 N1901 1.356 . S
N1904 C1896 1.356 . S
N1904 H1910 0.984 . S
N1904 H1911 0.984 . S
N1905 C1898 1.356 . S
N1905 H1908 0.984 . S
N1905 H1909 0.985 . S
H1906 N1901 0.984 . S
H1907 N1901 0.985 . S
H1908 N1905 0.984 . S
H1909 N1905 0.985 . S
H1910 N1904 0.984 . S
H1911 N1904 0.984 . S
H1912 N1900 0.984 . S
H1913 N1900 0.985 . S
C1914 C1915 1.363 . S
C1914 C1920 1.379 . S
C1914 N1922 1.356 . S
C1915 C1914 1.363 . S
C1915 C1921 1.363 . S
C1916 C1917 1.363 . S
C1916 C1921 1.379 . S
C1916 N1923 1.356 . S
C1917 C1916 1.363 . S
C1917 C1920 1.363 . S
N1918 C1920 1.356 . S
N1918 H1930 0.984 . S
N1918 H1931 0.985 . S
N1919 C1921 1.356 . S
N1919 H1924 0.984 . S
N1919 H1925 0.985 1_545 S
C1920 C1914 1.379 . S
C1920 C1917 1.363 . S
C1920 N1918 1.356 . S
C1921 C1915 1.363 . S
C1921 C1916 1.379 . S
C1921 N1919 1.356 . S
N1922 C1914 1.356 . S
N1922 H1928 0.984 . S
N1922 H1929 0.984 . S
N1923 C1916 1.356 . S
N1923 H1926 0.984 . S
N1923 H1927 0.985 1_545 S
H1924 N1919 0.984 . S
H1925 N1919 0.985 1_565 S
H1926 N1923 0.984 . S
H1927 N1923 0.985 1_565 S
H1928 N1922 0.984 . S
H1929 N1922 0.984 . S
H1930 N1918 0.984 . S
H1931 N1918 0.985 . S
C1932 C1933 1.363 . S
C1932 C1938 1.379 . S
C1932 N1940 1.356 . S
C1933 C1932 1.363 . S
C1933 C1939 1.363 . S
C1934 C1935 1.363 . S
C1934 C1939 1.379 . S
C1934 N1941 1.356 . S
C1935 C1934 1.363 . S
C1935 C1938 1.363 . S
N1936 C1938 1.356 . S
N1936 H1948 0.984 . S
N1936 H1949 0.985 . S
N1937 C1939 1.356 . S
N1937 H1942 0.984 . S
N1937 H1943 0.985 . S
C1938 C1932 1.379 . S
C1938 C1935 1.363 . S
C1938 N1936 1.356 . S
C1939 C1933 1.363 . S
C1939 C1934 1.379 . S
C1939 N1937 1.356 . S
N1940 C1932 1.356 . S
N1940 H1946 0.984 . S
N1940 H1947 0.984 . S
N1941 C1934 1.356 . S
N1941 H1944 0.984 . S
N1941 H1945 0.985 . S
H1942 N1937 0.984 . S
H1943 N1937 0.985 . S
H1944 N1941 0.984 . S
H1945 N1941 0.985 . S
H1946 N1940 0.984 . S
H1947 N1940 0.984 . S
H1948 N1936 0.984 . S
H1949 N1936 0.985 . S
C1950 C1951 1.363 . S
C1950 C1956 1.379 . S
C1950 N1958 1.356 . S
C1951 C1950 1.363 . S
C1951 C1957 1.363 . S
C1952 C1953 1.363 . S
C1952 C1957 1.379 . S
C1952 N1959 1.356 . S
C1953 C1952 1.363 . S
C1953 C1956 1.363 . S
N1954 C1956 1.356 . S
N1954 H1966 0.984 . S
N1954 H1967 0.985 . S
N1955 C1957 1.356 . S
N1955 H1960 0.984 . S
N1955 H1961 0.985 . S
C1956 C1950 1.379 . S
C1956 C1953 1.363 . S
C1956 N1954 1.356 . S
C1957 C1951 1.363 . S
C1957 C1952 1.379 . S
C1957 N1955 1.356 . S
N1958 C1950 1.356 . S
N1958 H1964 0.984 . S
N1958 H1965 0.984 . S
N1959 C1952 1.356 . S
N1959 H1962 0.984 . S
N1959 H1963 0.985 . S
H1960 N1955 0.984 . S
H1961 N1955 0.985 . S
H1962 N1959 0.984 . S
H1963 N1959 0.985 . S
H1964 N1958 0.984 . S
H1965 N1958 0.984 . S
H1966 N1954 0.984 . S
H1967 N1954 0.985 . S
C1968 C1969 1.363 . S
C1968 C1974 1.379 . S
C1968 N1976 1.356 . S
C1969 C1968 1.363 . S
C1969 C1975 1.363 1_556 S
C1970 C1971 1.363 1_554 S
C1970 C1975 1.379 . S
C1970 N1977 1.356 . S
C1971 C1970 1.363 1_556 S
C1971 C1974 1.363 . S
N1972 C1974 1.356 . S
N1972 H1984 0.984 . S
N1972 H1985 0.985 . S
N1973 C1975 1.356 . S
N1973 H1978 0.984 . S
N1973 H1979 0.985 . S
C1974 C1968 1.379 . S
C1974 C1971 1.363 . S
C1974 N1972 1.356 . S
C1975 C1969 1.363 1_554 S
C1975 C1970 1.379 . S
C1975 N1973 1.356 . S
N1976 C1968 1.356 . S
N1976 H1982 0.984 . S
N1976 H1983 0.984 . S
N1977 C1970 1.356 . S
N1977 H1980 0.984 . S
N1977 H1981 0.985 . S
H1978 N1973 0.984 . S
H1979 N1973 0.985 . S
H1980 N1977 0.984 . S
H1981 N1977 0.985 . S
H1982 N1976 0.984 . S
H1983 N1976 0.984 . S
H1984 N1972 0.984 . S
H1985 N1972 0.985 . S
C1986 C1987 1.363 1_554 S
C1986 C1992 1.379 . S
C1986 N1994 1.356 . S
C1987 C1986 1.363 1_556 S
C1987 C1993 1.363 . S
C1988 C1989 1.363 1_556 S
C1988 C1993 1.379 . S
C1988 N1995 1.356 . S
C1989 C1988 1.363 1_554 S
C1989 C1992 1.363 . S
N1990 C1992 1.356 . S
N1990 H2002 0.984 . S
N1990 H2003 0.985 . S
N1991 C1993 1.356 . S
N1991 H1996 0.984 . S
N1991 H1997 0.985 . S
C1992 C1986 1.379 . S
C1992 C1989 1.363 . S
C1992 N1990 1.356 . S
C1993 C1987 1.363 . S
C1993 C1988 1.379 . S
C1993 N1991 1.356 . S
N1994 C1986 1.356 . S
N1994 H2000 0.984 . S
N1994 H2001 0.972 1_554 S
N1995 C1988 1.356 . S
N1995 H1998 0.984 . S
N1995 H1999 0.985 . S
H1996 N1991 0.984 . S
H1997 N1991 0.985 . S
H1998 N1995 0.984 . S
H1999 N1995 0.985 . S
H2000 N1994 0.984 . S
H2001 N1994 0.972 1_556 S
H2002 N1990 0.984 . S
H2003 N1990 0.985 . S
C2004 C2005 1.363 . S
C2004 C2010 1.379 . S
C2004 N2012 1.356 . S
C2005 C2004 1.363 . S
C2005 C2011 1.363 . S
C2006 C2007 1.363 . S
C2006 C2011 1.379 . S
C2006 N2013 1.356 . S
C2007 C2006 1.363 . S
C2007 C2010 1.363 . S
N2008 C2010 1.356 . S
N2008 H2020 0.984 . S
N2008 H2021 0.985 . S
N2009 C2011 1.356 . S
N2009 H2014 0.984 . S
N2009 H2015 0.985 . S
C2010 C2004 1.379 . S
C2010 C2007 1.363 . S
C2010 N2008 1.356 . S
C2011 C2005 1.363 . S
C2011 C2006 1.379 . S
C2011 N2009 1.356 . S
N2012 C2004 1.356 . S
N2012 H2018 0.984 . S
N2012 H2019 0.984 . S
N2013 C2006 1.356 . S
N2013 H2016 0.984 . S
N2013 H2017 0.985 . S
H2014 N2009 0.984 . S
H2015 N2009 0.985 . S
H2016 N2013 0.984 . S
H2017 N2013 0.985 . S
H2018 N2012 0.984 . S
H2019 N2012 0.984 . S
H2020 N2008 0.984 . S
H2021 N2008 0.985 . S
C2022 C2023 1.363 . S
C2022 C2028 1.379 . S
C2022 N2030 1.356 . S
C2023 C2022 1.363 . S
C2023 C2029 1.363 . S
C2024 C2025 1.363 . S
C2024 C2029 1.379 . S
C2024 N2031 1.356 . S
C2025 C2024 1.363 . S
C2025 C2028 1.363 . S
N2026 C2028 1.356 . S
N2026 H2038 0.984 . S
N2026 H2039 0.985 . S
N2027 C2029 1.356 . S
N2027 H2032 0.984 . S
N2027 H2033 0.985 . S
C2028 C2022 1.379 . S
C2028 C2025 1.363 . S
C2028 N2026 1.356 . S
C2029 C2023 1.363 . S
C2029 C2024 1.379 . S
C2029 N2027 1.356 . S
N2030 C2022 1.356 . S
N2030 H2036 0.984 . S
N2030 H2037 0.984 . S
N2031 C2024 1.356 . S
N2031 H2034 0.984 . S
N2031 H2035 0.985 . S
H2032 N2027 0.984 . S
H2033 N2027 0.985 . S
H2034 N2031 0.984 . S
H2035 N2031 0.985 . S
H2036 N2030 0.984 . S
H2037 N2030 0.984 . S
H2038 N2026 0.984 . S
H2039 N2026 0.985 . S
C2040 C2041 1.363 . S
C2040 C2046 1.379 . S
C2040 N2048 1.356 . S
C2041 C2040 1.363 . S
C2041 C2047 1.363 . S
C2042 C2043 1.363 . S
C2042 C2047 1.379 . S
C2042 N2049 1.356 . S
C2043 C2042 1.363 . S
C2043 C2046 1.363 . S
N2044 C2046 1.356 . S
N2044 H2056 0.984 . S
N2044 H2057 0.985 . S
N2045 C2047 1.356 . S
N2045 H2050 0.984 . S
N2045 H2051 0.985 . S
C2046 C2040 1.379 . S
C2046 C2043 1.363 . S
C2046 N2044 1.356 . S
C2047 C2041 1.363 . S
C2047 C2042 1.379 . S
C2047 N2045 1.356 . S
N2048 C2040 1.356 . S
N2048 H2054 0.984 . S
N2048 H2055 0.984 . S
N2049 C2042 1.356 . S
N2049 H2052 0.984 . S
N2049 H2053 0.985 . S
H2050 N2045 0.984 . S
H2051 N2045 0.985 . S
H2052 N2049 0.984 . S
H2053 N2049 0.985 . S
H2054 N2048 0.984 . S
H2055 N2048 0.984 . S
H2056 N2044 0.984 . S
H2057 N2044 0.985 . S
C2058 C2059 1.363 . S
C2058 C2064 1.379 . S
C2058 N2066 1.356 . S
C2059 C2058 1.363 . S
C2059 C2065 1.363 . S
C2060 C2061 1.363 . S
C2060 C2065 1.379 . S
C2060 N2067 1.356 . S
C2061 C2060 1.363 . S
C2061 C2064 1.363 . S
N2062 C2064 1.356 . S
N2062 H2074 0.984 . S
N2062 H2075 0.985 . S
N2063 C2065 1.356 . S
N2063 H2068 0.984 . S
N2063 H2069 0.985 . S
C2064 C2058 1.379 . S
C2064 C2061 1.363 . S
C2064 N2062 1.356 . S
C2065 C2059 1.363 . S
C2065 C2060 1.379 . S
C2065 N2063 1.356 . S
N2066 C2058 1.356 . S
N2066 H2072 0.984 . S
N2066 H2073 0.984 . S
N2067 C2060 1.356 . S
N2067 H2070 0.984 . S
N2067 H2071 0.985 . S
H2068 N2063 0.984 . S
H2069 N2063 0.985 . S
H2070 N2067 0.984 . S
H2071 N2067 0.985 . S
H2072 N2066 0.984 . S
H2073 N2066 0.984 . S
H2074 N2062 0.984 . S
H2075 N2062 0.985 . S
C2076 C2077 1.363 . S
C2076 C2082 1.379 . S
C2076 N2084 1.356 . S
C2077 C2076 1.363 . S
C2077 C2083 1.363 . S
C2078 C2079 1.363 . S
C2078 C2083 1.379 . S
C2078 N2085 1.356 . S
C2079 C2078 1.363 . S
C2079 C2082 1.363 . S
N2080 C2082 1.356 . S
N2080 H2092 0.984 . S
N2080 H2093 0.985 . S
N2081 C2083 1.356 . S
N2081 H2086 0.984 . S
N2081 H2087 0.985 . S
C2082 C2076 1.379 . S
C2082 C2079 1.363 . S
C2082 N2080 1.356 . S
C2083 C2077 1.363 . S
C2083 C2078 1.379 . S
C2083 N2081 1.356 . S
N2084 C2076 1.356 . S
N2084 H2090 0.984 . S
N2084 H2091 0.984 . S
N2085 C2078 1.356 . S
N2085 H2088 0.984 . S
N2085 H2089 0.985 . S
H2086 N2081 0.984 . S
H2087 N2081 0.985 . S
H2088 N2085 0.984 . S
H2089 N2085 0.985 . S
H2090 N2084 0.984 . S
H2091 N2084 0.984 . S
H2092 N2080 0.984 . S
H2093 N2080 0.985 . S
C2094 C2095 1.363 . S
C2094 C2100 1.379 . S
C2094 N2102 1.356 . S
C2095 C2094 1.363 . S
C2095 C2101 1.363 . S
C2096 C2097 1.363 . S
C2096 C2101 1.379 . S
C2096 N2103 1.356 . S
C2097 C2096 1.363 . S
C2097 C2100 1.363 . S
N2098 C2100 1.356 . S
N2098 H2110 0.984 . S
N2098 H2111 0.985 . S
N2099 C2101 1.356 . S
N2099 H2104 0.984 . S
N2099 H2105 0.985 . S
C2100 C2094 1.379 . S
C2100 C2097 1.363 . S
C2100 N2098 1.356 . S
C2101 C2095 1.363 . S
C2101 C2096 1.379 . S
C2101 N2099 1.356 . S
N2102 C2094 1.356 . S
N2102 H2108 0.984 . S
N2102 H2109 0.984 . S
N2103 C2096 1.356 . S
N2103 H2106 0.984 . S
N2103 H2107 0.985 . S
H2104 N2099 0.984 . S
H2105 N2099 0.985 . S
H2106 N2103 0.984 . S
H2107 N2103 0.985 . S
H2108 N2102 0.984 . S
H2109 N2102 0.984 . S
H2110 N2098 0.984 . S
H2111 N2098 0.985 . S
C2112 C2113 1.363 . S
C2112 C2118 1.379 . S
C2112 N2120 1.356 . S
C2113 C2112 1.363 . S
C2113 C2119 1.363 . S
C2114 C2115 1.363 . S
C2114 C2119 1.379 . S
C2114 N2121 1.356 . S
C2115 C2114 1.363 . S
C2115 C2118 1.363 . S
N2116 C2118 1.356 . S
N2116 H2128 0.984 . S
N2116 H2129 0.985 . S
N2117 C2119 1.356 . S
N2117 H2122 0.984 . S
N2117 H2123 0.985 . S
C2118 C2112 1.379 . S
C2118 C2115 1.363 . S
C2118 N2116 1.356 . S
C2119 C2113 1.363 . S
C2119 C2114 1.379 . S
C2119 N2117 1.356 . S
N2120 C2112 1.356 . S
N2120 H2126 0.984 . S
N2120 H2127 0.984 . S
N2121 C2114 1.356 . S
N2121 H2124 0.984 . S
N2121 H2125 0.985 . S
H2122 N2117 0.984 . S
H2123 N2117 0.985 . S
H2124 N2121 0.984 . S
H2125 N2121 0.985 . S
H2126 N2120 0.984 . S
H2127 N2120 0.984 . S
H2128 N2116 0.984 . S
H2129 N2116 0.985 . S
C2130 C2131 1.363 . S
C2130 C2136 1.379 . S
C2130 N2138 1.356 . S
C2131 C2130 1.363 . S
C2131 C2137 1.363 . S
C2132 C2133 1.363 . S
C2132 C2137 1.379 . S
C2132 N2139 1.356 . S
C2133 C2132 1.363 . S
C2133 C2136 1.363 . S
N2134 C2136 1.356 . S
N2134 H2146 0.984 . S
N2134 H2147 0.985 . S
N2135 C2137 1.356 . S
N2135 H2140 0.984 . S
N2135 H2141 0.985 1_565 S
C2136 C2130 1.379 . S
C2136 C2133 1.363 . S
C2136 N2134 1.356 . S
C2137 C2131 1.363 . S
C2137 C2132 1.379 . S
C2137 N2135 1.356 . S
N2138 C2130 1.356 . S
N2138 H2144 0.984 . S
N2138 H2145 0.984 . S
N2139 C2132 1.356 . S
N2139 H2142 0.984 . S
N2139 H2143 0.985 1_565 S
H2140 N2135 0.984 . S
H2141 N2135 0.985 1_545 S
H2142 N2139 0.984 . S
H2143 N2139 0.985 1_545 S
H2144 N2138 0.984 . S
H2145 N2138 0.984 . S
H2146 N2134 0.984 . S
H2147 N2134 0.985 . S
C2148 C2149 1.363 . S
C2148 C2154 1.379 . S
C2148 N2156 1.356 . S
C2149 C2148 1.363 . S
C2149 C2155 1.363 . S
C2150 C2151 1.363 . S
C2150 C2155 1.379 . S
C2150 N2157 1.356 . S
C2151 C2150 1.363 . S
C2151 C2154 1.363 . S
N2152 C2154 1.356 . S
N2152 H2164 0.984 . S
N2152 H2165 0.985 . S
N2153 C2155 1.356 . S
N2153 H2158 0.984 . S
N2153 H2159 0.985 . S
C2154 C2148 1.379 . S
C2154 C2151 1.363 . S
C2154 N2152 1.356 . S
C2155 C2149 1.363 . S
C2155 C2150 1.379 . S
C2155 N2153 1.356 . S
N2156 C2148 1.356 . S
N2156 H2162 0.984 . S
N2156 H2163 0.984 . S
N2157 C2150 1.356 . S
N2157 H2160 0.984 . S
N2157 H2161 0.985 . S
H2158 N2153 0.984 . S
H2159 N2153 0.985 . S
H2160 N2157 0.984 . S
H2161 N2157 0.985 . S
H2162 N2156 0.984 . S
H2163 N2156 0.984 . S
H2164 N2152 0.984 . S
H2165 N2152 0.985 . S
C2166 C2167 1.363 . S
C2166 C2172 1.379 . S
C2166 N2174 1.356 . S
C2167 C2166 1.363 . S
C2167 C2173 1.363 . S
C2168 C2169 1.363 . S
C2168 C2173 1.379 . S
C2168 N2175 1.356 . S
C2169 C2168 1.363 . S
C2169 C2172 1.363 . S
N2170 C2172 1.356 . S
N2170 H2182 0.984 . S
N2170 H2183 0.985 . S
N2171 C2173 1.356 . S
N2171 H2176 0.984 . S
N2171 H2177 0.985 . S
C2172 C2166 1.379 . S
C2172 C2169 1.363 . S
C2172 N2170 1.356 . S
C2173 C2167 1.363 . S
C2173 C2168 1.379 . S
C2173 N2171 1.356 . S
N2174 C2166 1.356 . S
N2174 H2180 0.984 . S
N2174 H2181 0.984 . S
N2175 C2168 1.356 . S
N2175 H2178 0.984 . S
N2175 H2179 0.985 . S
H2176 N2171 0.984 . S
H2177 N2171 0.985 . S
H2178 N2175 0.984 . S
H2179 N2175 0.985 . S
H2180 N2174 0.984 . S
H2181 N2174 0.984 . S
H2182 N2170 0.984 . S
H2183 N2170 0.985 . S
C2184 C2185 1.363 . S
C2184 C2190 1.379 . S
C2184 N2192 1.356 . S
C2185 C2184 1.363 . S
C2185 C2191 1.363 1_554 S
C2186 C2187 1.363 1_556 S
C2186 C2191 1.379 . S
C2186 N2193 1.356 . S
C2187 C2186 1.363 1_554 S
C2187 C2190 1.363 . S
N2188 C2190 1.356 . S
N2188 H2200 0.984 . S
N2188 H2201 0.985 . S
N2189 C2191 1.356 . S
N2189 H2194 0.984 . S
N2189 H2195 0.985 . S
C2190 C2184 1.379 . S
C2190 C2187 1.363 . S
C2190 N2188 1.356 . S
C2191 C2185 1.363 1_556 S
C2191 C2186 1.379 . S
C2191 N2189 1.356 . S
N2192 C2184 1.356 . S
N2192 H2198 0.984 . S
N2192 H2199 0.984 . S
N2193 C2186 1.356 . S
N2193 H2196 0.984 . S
N2193 H2197 0.985 . S
H2194 N2189 0.984 . S
H2195 N2189 0.985 . S
H2196 N2193 0.984 . S
H2197 N2193 0.985 . S
H2198 N2192 0.984 . S
H2199 N2192 0.984 . S
H2200 N2188 0.984 . S
H2201 N2188 0.985 . S
C2202 C2203 1.363 1_554 S
C2202 C2208 1.379 . S
C2202 N2210 1.356 . S
C2203 C2202 1.363 1_556 S
C2203 C2209 1.363 . S
C2204 C2205 1.363 1_556 S
C2204 C2209 1.379 . S
C2204 N2211 1.356 . S
C2205 C2204 1.363 1_554 S
C2205 C2208 1.363 . S
N2206 C2208 1.356 . S
N2206 H2218 0.984 . S
N2206 H2219 0.985 . S
N2207 C2209 1.356 . S
N2207 H2212 0.984 . S
N2207 H2213 0.985 . S
C2208 C2202 1.379 . S
C2208 C2205 1.363 . S
C2208 N2206 1.356 . S
C2209 C2203 1.363 . S
C2209 C2204 1.379 . S
C2209 N2207 1.356 . S
N2210 C2202 1.356 . S
N2210 H2216 0.984 . S
N2210 H2217 0.984 . S
N2211 C2204 1.356 . S
N2211 H2214 0.984 . S
N2211 H2215 0.985 . S
H2212 N2207 0.984 . S
H2213 N2207 0.985 . S
H2214 N2211 0.984 . S
H2215 N2211 0.985 . S
H2216 N2210 0.984 . S
H2217 N2210 0.984 . S
H2218 N2206 0.984 . S
H2219 N2206 0.985 . S
C2220 C2221 1.363 . S
C2220 C2226 1.379 . S
C2220 N2228 1.356 . S
C2221 C2220 1.363 . S
C2221 C2227 1.363 . S
C2222 C2223 1.363 . S
C2222 C2227 1.379 . S
C2222 N2229 1.356 . S
C2223 C2222 1.363 . S
C2223 C2226 1.363 . S
N2224 C2226 1.356 . S
N2224 H2236 0.984 . S
N2224 H2237 0.985 . S
N2225 C2227 1.356 . S
N2225 H2230 0.984 . S
N2225 H2231 0.985 . S
C2226 C2220 1.379 . S
C2226 C2223 1.363 . S
C2226 N2224 1.356 . S
C2227 C2221 1.363 . S
C2227 C2222 1.379 . S
C2227 N2225 1.356 . S
N2228 C2220 1.356 . S
N2228 H2234 0.984 . S
N2228 H2235 0.984 . S
N2229 C2222 1.356 . S
N2229 H2232 0.984 . S
N2229 H2233 0.985 . S
H2230 N2225 0.984 . S
H2231 N2225 0.985 . S
H2232 N2229 0.984 . S
H2233 N2229 0.985 . S
H2234 N2228 0.984 . S
H2235 N2228 0.984 . S
H2236 N2224 0.984 . S
H2237 N2224 0.985 . S
C2238 C2239 1.363 . S
C2238 C2244 1.379 . S
C2238 N2246 1.356 . S
C2239 C2238 1.363 . S
C2239 C2245 1.363 . S
C2240 C2241 1.363 . S
C2240 C2245 1.379 . S
C2240 N2247 1.356 . S
C2241 C2240 1.363 . S
C2241 C2244 1.363 . S
N2242 C2244 1.356 . S
N2242 H2254 0.984 . S
N2242 H2255 0.985 . S
N2243 C2245 1.356 . S
N2243 H2248 0.984 . S
N2243 H2249 0.985 . S
C2244 C2238 1.379 . S
C2244 C2241 1.363 . S
C2244 N2242 1.356 . S
C2245 C2239 1.363 . S
C2245 C2240 1.379 . S
C2245 N2243 1.356 . S
N2246 C2238 1.356 . S
N2246 H2252 0.984 . S
N2246 H2253 0.984 . S
N2247 C2240 1.356 . S
N2247 H2250 0.984 . S
N2247 H2251 0.985 . S
H2248 N2243 0.984 . S
H2249 N2243 0.985 . S
H2250 N2247 0.984 . S
H2251 N2247 0.985 . S
H2252 N2246 0.984 . S
H2253 N2246 0.984 . S
H2254 N2242 0.984 . S
H2255 N2242 0.985 . S
C961 C23 0.346 . S
C963 C745 0.557 . S
C979 C780 2.929 . S
C981 C63 2.726 . S
C997 C103 2.115 . S
C999 C660 2.213 . S
C1015 C143 2.207 . S
C1017 C700 2.395 . S
C1033 C900 3.130 . S
C1035 C183 2.977 . S
C1051 C223 0.849 . S
C1053 C865 0.836 . S
C1069 C945 1.058 . S
C1071 C242 1.072 . S
C1087 C303 2.179 . S
C1089 C820 2.439 . S
C1105 C343 1.786 . S
C1107 C540 1.968 . S
C1123 C362 2.333 . S
C1125 C620 2.337 . S
C1141 C580 1.493 . S
C1143 C423 1.379 . S
C1159 C442 2.664 . S
C1161 C500 2.622 . S
C1177 C482 0.346 . S
C1179 C244 0.557 . S
C1195 C522 2.726 . S
C1197 C311 2.929 . S
C1213 C562 2.115 . S
C1215 C191 2.213 . S
C1231 C231 2.391 . S
C1233 C602 2.210 . S
C1249 C642 2.981 . S
C1251 C431 3.127 . S
C1267 C364 0.840 . S
C1269 C682 0.845 . S
C1285 C444 1.058 . S
C1287 C743 1.072 . S
C1303 C351 2.439 . S
C1305 C762 2.179 . S
C1321 C71 1.968 . S
C1323 C802 1.786 . S
C1339 C151 2.337 . S
C1341 C863 2.333 . S
C1357 C111 1.493 . S
C1359 C882 1.379 . S
C1375 C943 2.664 . S
C1377 C31 2.622 . S
C1393 C180 1.039 . S
C1395 C4 1.043 . S
C1411 C220 1.928 . S
C1413 C44 1.909 . S
C1429 C265 0.883 . S
C1431 C84 0.924 . S
C1447 C300 1.837 . S
C1449 C124 1.841 . S
C1465 C164 1.461 . S
C1467 C340 1.438 . S
C1483 C204 0.675 . S
C1485 C465 0.604 . S
C1501 C271 1.227 . S
C1503 C385 1.220 . S
C1519 C284 1.928 . S
C1521 C420 1.924 . S
C1537 C324 1.695 . S
C1539 C20 1.740 . S
C1555 C391 3.065 . S
C1557 C100 3.120 . S
C1573 C404 1.566 . S
C1575 C140 1.574 . S
C1591 C60 2.567 . S
C1593 C471 2.523 . S
C1609 C671 1.039 . S
C1611 C505 1.043 . S
C1627 C711 1.928 . S
C1629 C545 1.909 . S
C1645 C585 0.924 . S
C1647 C724 0.883 . S
C1663 C625 1.841 . S
C1665 C791 1.837 . S
C1681 C831 1.440 . S
C1683 C665 1.458 . S
C1699 C705 0.675 . S
C1701 C924 0.604 . S
C1717 C844 1.220 . S
C1719 C740 1.227 . S
C1735 C785 1.928 . S
C1737 C911 1.924 . S
C1753 C511 1.744 . S
C1755 C825 1.692 . S
C1771 C860 3.065 . S
C1773 C591 3.120 . S
C1789 C905 1.566 . S
C1791 C631 1.574 . S
C1807 C551 2.567 . S
C1809 C940 2.523 . S
C1825 C2 3.374 . S
C1827 C380 3.449 1_554 S
C1843 C425 1.750 . S
C1845 C42 1.756 . S
C1861 C345 1.975 . S
C1863 C82 1.973 . S
C1879 C460 2.952 . S
C1881 C122 2.887 . S
C1897 C162 1.461 . S
C1899 C145 1.487 . S
C1915 C105 1.828 . S
C1917 C202 1.817 . S
C1933 C263 1.294 . S
C1935 C65 1.469 . S
C1951 C25 1.207 . S
C1953 C282 1.200 . S
C1969 C322 1.520 1_556 S
C1971 C225 1.579 . S
C1987 C383 1.692 . S
C1989 C305 1.852 . S
C2005 C402 2.482 . S
C2007 C260 2.555 . S
C2023 C463 1.915 . S
C2025 C185 2.089 . S
C2041 C503 3.374 . S
C2043 C871 3.449 1_556 S
C2059 C543 1.756 . S
C2061 C884 1.750 . S
C2077 C804 1.975 . S
C2079 C583 1.973 . S
C2095 C951 2.952 . S
C2097 C623 2.887 . S
C2113 C663 1.461 . S
C2115 C604 1.487 . S
C2131 C703 1.816 . S
C2133 C564 1.829 . S
C2149 C524 1.469 . S
C2151 C722 1.294 . S
C2167 C783 1.197 . S
C2169 C484 1.210 . S
C2185 C823 1.520 1_554 S
C2187 C684 1.579 . S
C2203 C764 1.853 . S
C2205 C842 1.692 . S
C2221 C903 2.482 . S
C2223 C751 2.555 . S
C2239 C922 1.915 . S
C2241 C644 2.089 . S
