# Generated by pormake.
# Topology wjd, (6)-cn, num edge types: 1
# Building blocks:
#     Node 0, Type 0, BuildingBlock: PAMTUU_clean_sbu_0, # of connection points: 6
#     Node 1, Type 0, BuildingBlock: PAMTUU_clean_sbu_0, # of connection points: 6
#     Node 2, Type 0, BuildingBlock: PAMTUU_clean_sbu_0, # of connection points: 6
#     Node 3, Type 0, BuildingBlock: PAMTUU_clean_sbu_0, # of connection points: 6
#     Node 4, Type 0, BuildingBlock: PAMTUU_clean_sbu_0, # of connection points: 6
#     Node 5, Type 0, BuildingBlock: PAMTUU_clean_sbu_0, # of connection points: 6
#     Node 6, Type 0, BuildingBlock: PAMTUU_clean_sbu_0, # of connection points: 6
#     Node 7, Type 0, BuildingBlock: PAMTUU_clean_sbu_0, # of connection points: 6
#     Node 8, Type 0, BuildingBlock: PAMTUU_clean_sbu_0, # of connection points: 6
#     Node 9, Type 0, BuildingBlock: PAMTUU_clean_sbu_0, # of connection points: 6
#     Node 10, Type 0, BuildingBlock: PAMTUU_clean_sbu_0, # of connection points: 6
#     Node 11, Type 0, BuildingBlock: PAMTUU_clean_sbu_0, # of connection points: 6
#     Edge 12, Type (0, 0), BuildingBlock: MIFKUJ_clean_linker_0, # of connection points: 2
#     Edge 13, Type (0, 0), BuildingBlock: MIFKUJ_clean_linker_0, # of connection points: 2
#     Edge 14, Type (0, 0), BuildingBlock: MIFKUJ_clean_linker_0, # of connection points: 2
#     Edge 15, Type (0, 0), BuildingBlock: MIFKUJ_clean_linker_0, # of connection points: 2
#     Edge 16, Type (0, 0), BuildingBlock: MIFKUJ_clean_linker_0, # of connection points: 2
#     Edge 17, Type (0, 0), BuildingBlock: MIFKUJ_clean_linker_0, # of connection points: 2
#     Edge 18, Type (0, 0), BuildingBlock: MIFKUJ_clean_linker_0, # of connection points: 2
#     Edge 19, Type (0, 0), BuildingBlock: MIFKUJ_clean_linker_0, # of connection points: 2
#     Edge 20, Type (0, 0), BuildingBlock: MIFKUJ_clean_linker_0, # of connection points: 2
#     Edge 21, Type (0, 0), BuildingBlock: MIFKUJ_clean_linker_0, # of connection points: 2
#     Edge 22, Type (0, 0), BuildingBlock: MIFKUJ_clean_linker_0, # of connection points: 2
#     Edge 23, Type (0, 0), BuildingBlock: MIFKUJ_clean_linker_0, # of connection points: 2
#     Edge 24, Type (0, 0), BuildingBlock: MIFKUJ_clean_linker_0, # of connection points: 2
#     Edge 25, Type (0, 0), BuildingBlock: MIFKUJ_clean_linker_0, # of connection points: 2
#     Edge 26, Type (0, 0), BuildingBlock: MIFKUJ_clean_linker_0, # of connection points: 2
#     Edge 27, Type (0, 0), BuildingBlock: MIFKUJ_clean_linker_0, # of connection points: 2
#     Edge 28, Type (0, 0), BuildingBlock: MIFKUJ_clean_linker_0, # of connection points: 2
#     Edge 29, Type (0, 0), BuildingBlock: MIFKUJ_clean_linker_0, # of connection points: 2
#     Edge 30, Type (0, 0), BuildingBlock: MIFKUJ_clean_linker_0, # of connection points: 2
#     Edge 31, Type (0, 0), BuildingBlock: MIFKUJ_clean_linker_0, # of connection points: 2
#     Edge 32, Type (0, 0), BuildingBlock: MIFKUJ_clean_linker_0, # of connection points: 2
#     Edge 33, Type (0, 0), BuildingBlock: MIFKUJ_clean_linker_0, # of connection points: 2
#     Edge 34, Type (0, 0), BuildingBlock: MIFKUJ_clean_linker_0, # of connection points: 2
#     Edge 35, Type (0, 0), BuildingBlock: MIFKUJ_clean_linker_0, # of connection points: 2
#     Edge 36, Type (0, 0), BuildingBlock: MIFKUJ_clean_linker_0, # of connection points: 2
#     Edge 37, Type (0, 0), BuildingBlock: MIFKUJ_clean_linker_0, # of connection points: 2
#     Edge 38, Type (0, 0), BuildingBlock: MIFKUJ_clean_linker_0, # of connection points: 2
#     Edge 39, Type (0, 0), BuildingBlock: MIFKUJ_clean_linker_0, # of connection points: 2
#     Edge 40, Type (0, 0), BuildingBlock: MIFKUJ_clean_linker_0, # of connection points: 2
#     Edge 41, Type (0, 0), BuildingBlock: MIFKUJ_clean_linker_0, # of connection points: 2
#     Edge 42, Type (0, 0), BuildingBlock: MIFKUJ_clean_linker_0, # of connection points: 2
#     Edge 43, Type (0, 0), BuildingBlock: MIFKUJ_clean_linker_0, # of connection points: 2
#     Edge 44, Type (0, 0), BuildingBlock: MIFKUJ_clean_linker_0, # of connection points: 2
#     Edge 45, Type (0, 0), BuildingBlock: MIFKUJ_clean_linker_0, # of connection points: 2
#     Edge 46, Type (0, 0), BuildingBlock: MIFKUJ_clean_linker_0, # of connection points: 2
#     Edge 47, Type (0, 0), BuildingBlock: MIFKUJ_clean_linker_0, # of connection points: 2
# Relax obj value: 0.083
# Max RMSD: 0.198
# Mean RMSD: 0.198
data_MOF--net-wjd--node1-PAMTUU_clean_sbu_0--edge1-MIFKUJ_clean_linker_0
_symmetry_space_group_name_H-M    P1
_symmetry_Int_Tables_number       1
_symmetry_cell_setting            triclinic
loop_
_symmetry_equiv_pos_as_xyz
'x, y, z'
_cell_length_a     48.987749
_cell_length_b     49.028472
_cell_length_c     70.993796
_cell_angle_alpha  89.824683
_cell_angle_beta   90.17408
_cell_angle_gamma 119.96503
loop_
_atom_site_label
_atom_site_type_symbol
_atom_site_fract_x
_atom_site_fract_y
_atom_site_fract_z
_atom_type_partial_charge
Tb0 Tb 0.32858 0.10307 0.13349 0.0
Tb1 Tb 0.37409 0.17225 0.11319 0.0
C2 C 0.36765 0.16458 0.15678 0.0
C3 C 0.25768 0.02726 0.14469 0.0
C4 C 0.19328 0.98342 0.13837 0.0
C5 C 0.21053 0.97778 0.15223 0.0
C6 C 0.2424 0.99956 0.15539 0.0
C7 C 0.24073 0.03284 0.13069 0.0
C8 C 0.20882 1.0112 0.1276 0.0
C9 C 0.29076 0.05089 0.14872 0.0
O10 O 0.29691 0.11635 0.12021 0.0
O11 O 0.32984 0.16974 0.12073 0.0
O12 O 0.34602 0.14138 0.08988 0.0
O13 O 0.33002 0.09313 0.10397 0.0
O14 O 0.38477 0.21898 0.10893 0.0
O15 O 0.41365 0.20221 0.09662 0.0
O16 O 0.39747 0.14476 0.11171 0.0
O17 O 0.3774 0.11417 0.13806 0.0
O18 O 0.33981 0.13989 0.15396 0.0
O19 O 0.38794 0.17722 0.14291 0.0
C20 C 0.30141 0.14505 0.11976 0.0
O21 O 0.31142 0.05433 0.13602 0.0
O22 O 0.29529 0.078 0.15453 0.0
C23 C 0.33325 0.11042 0.08906 0.0
C24 C 0.43882 0.25631 0.10489 0.0
C25 C 0.49149 0.31542 0.11437 0.0
C26 C 0.48237 0.3073 0.09545 0.0
C27 C 0.45636 0.27812 0.0908 0.0
C28 C 0.44804 0.26391 0.1238 0.0
C29 C 0.47409 0.29323 0.12849 0.0
C30 C 0.41033 0.22658 0.0995 0.0
C31 C 0.39988 0.12811 0.12542 0.0
H32 H 0.19922 0.9568 0.1609 0.0
H33 H 0.25503 0.99494 0.16634 0.0
H34 H 0.25213 0.05407 0.12225 0.0
H35 H 0.19639 0.01611 0.11667 0.0
H36 H 0.49488 0.32383 0.08421 0.0
H37 H 0.44958 0.2728 0.07614 0.0
H38 H 0.43489 0.24736 0.13492 0.0
H39 H 0.48066 0.29849 0.14317 0.0
Tb40 Tb 0.82757 0.65912 0.40401 0.0
Tb41 Tb 0.79662 0.70094 0.38789 0.0
C42 C 0.79462 0.6854 0.42953 0.0
C43 C 0.85191 0.59822 0.41449 0.0
C44 C 0.85885 0.54482 0.40914 0.0
C45 C 0.86556 0.56017 0.42668 0.0
C46 C 0.86216 0.58656 0.42929 0.0
C47 C 0.84425 0.58255 0.39708 0.0
C48 C 0.84765 0.55605 0.39444 0.0
C49 C 0.85179 0.62797 0.41725 0.0
O50 O 0.77808 0.62521 0.39953 0.0
O51 O 0.76064 0.65251 0.38095 0.0
O52 O 0.82404 0.69702 0.36526 0.0
O53 O 0.82158 0.65057 0.37355 0.0
O54 O 0.77316 0.7252 0.39523 0.0
O55 O 0.78691 0.72493 0.36647 0.0
O56 O 0.8429 0.735 0.39929 0.0
O57 O 0.86698 0.70519 0.39761 0.0
O58 O 0.82077 0.68438 0.42755 0.0
O59 O 0.7767 0.68041 0.41486 0.0
C60 C 0.75678 0.62619 0.38862 0.0
O61 O 0.86429 0.64888 0.40388 0.0
O62 O 0.82611 0.62621 0.4238 0.0
C63 C 0.82538 0.67175 0.36077 0.0
C64 C 0.79102 0.77218 0.37809 0.0
C65 C 0.81542 0.83797 0.37869 0.0
C66 C 0.79382 0.81922 0.36469 0.0
C67 C 0.78162 0.78658 0.36445 0.0
C68 C 0.81339 0.79101 0.39173 0.0
C69 C 0.82533 0.82354 0.39208 0.0
C70 C 0.77651 0.73756 0.37855 0.0
C71 C 0.86844 0.73254 0.39899 0.0
H72 H 0.87364 0.55187 0.43841 0.0
H73 H 0.86818 0.59831 0.44283 0.0
H74 H 0.83638 0.59124 0.38543 0.0
H75 H 0.84243 0.54496 0.38072 0.0
H76 H 0.7856 0.82967 0.35427 0.0
H77 H 0.76441 0.77251 0.35383 0.0
H78 H 0.82124 0.78053 0.40235 0.0
H79 H 0.8422 0.8374 0.4029 0.0
Tb80 Tb 0.92944 0.23142 0.12712 0.0
Tb81 Tb 0.85511 0.19805 0.11355 0.0
C82 C 0.87412 0.20471 0.15648 0.0
C83 C 1.00818 0.23978 0.13493 0.0
C84 C 0.05126 0.2173 0.13401 0.0
C85 C 0.0569 0.24298 0.14552 0.0
C86 C 0.03561 0.25415 0.14592 0.0
C87 C 1.00183 0.21345 0.12395 0.0
C88 C 0.02317 0.20239 0.12345 0.0
C89 C 0.98736 0.25345 0.13407 0.0
O90 O 0.91614 0.18379 0.11771 0.0
O91 O 0.86267 0.15988 0.12175 0.0
O92 O 0.88548 0.20257 0.08941 0.0
O93 O 0.92488 0.24868 0.10002 0.0
O94 O 0.80836 0.16105 0.11506 0.0
O95 O 0.82193 0.19818 0.09457 0.0
O96 O 0.87 0.2475 0.11723 0.0
O97 O 0.91727 0.26766 0.13356 0.0
O98 O 0.90132 0.20761 0.15163 0.0
O99 O 0.85457 0.20545 0.14393 0.0
C100 C 0.88845 0.15831 0.11998 0.0
O101 O 0.97598 0.25345 0.11748 0.0
O102 O 0.96594 0.24489 0.14713 0.0
C103 C 0.91178 0.22905 0.08615 0.0
C104 C 0.76957 0.17402 0.10632 0.0
C105 C 0.71145 0.17096 0.11424 0.0
C106 C 0.71767 0.16342 0.09623 0.0
C107 C 0.74638 0.16491 0.09234 0.0
C108 C 0.76385 0.18218 0.12424 0.0
C109 C 0.73502 0.18058 0.12818 0.0
C110 C 0.79862 0.17308 0.10211 0.0
C111 C 0.89335 0.27007 0.12686 0.0
H112 H 0.07794 0.25468 0.15413 0.0
H113 H 0.04086 0.2744 0.15453 0.0
H114 H 0.9808 0.20197 0.11532 0.0
H115 H 1.01811 0.18283 0.11426 0.0
H116 H 0.7 0.1555 0.08522 0.0
H117 H 0.75023 0.15834 0.07846 0.0
H118 H 0.78147 0.18935 0.13525 0.0
H119 H 0.73121 0.18692 0.14213 0.0
Tb120 Tb 0.37012 0.17215 0.39859 0.0
Tb121 Tb 0.32813 0.10061 0.38077 0.0
C122 C 0.33645 0.11139 0.42387 0.0
C123 C 0.4293 0.25822 0.4081 0.0
C124 C 0.48135 0.31864 0.40038 0.0
C125 C 0.45947 0.31442 0.41451 0.0
C126 C 0.4338 0.28458 0.4183 0.0
C127 C 0.45111 0.26204 0.39409 0.0
C128 C 0.477 0.29199 0.39031 0.0
C129 C 0.40093 0.22751 0.41193 0.0
O130 O 0.40064 0.15194 0.39819 0.0
O131 O 0.3773 0.11308 0.37563 0.0
O132 O 0.33844 0.13413 0.35815 0.0
O133 O 0.38407 0.17657 0.36894 0.0
O134 O 0.3106 0.0517 0.38216 0.0
O135 O 0.29576 0.07161 0.36013 0.0
O136 O 0.29507 0.11301 0.39322 0.0
O137 O 0.32535 0.16598 0.38892 0.0
O138 O 0.34241 0.14064 0.4219 0.0
O139 O 0.33926 0.09621 0.40959 0.0
C140 C 0.40181 0.13216 0.38617 0.0
O141 O 0.37805 0.21835 0.39982 0.0
O142 O 0.40496 0.20428 0.41719 0.0
C143 C 0.36479 0.16057 0.35508 0.0
C144 C 0.25669 0.02259 0.37242 0.0
C145 C 0.19192 0.97946 0.37909 0.0
C146 C 0.20237 0.99323 0.36123 0.0
C147 C 0.23434 0.01439 0.35793 0.0
C148 C 0.24631 1.00886 0.39032 0.0
C149 C 0.21432 0.98746 0.39358 0.0
C150 C 0.29034 0.04584 0.36865 0.0
C151 C 0.29772 0.14087 0.39141 0.0
H152 H 0.46228 0.33421 0.42276 0.0
H153 H 0.41722 0.28214 0.42916 0.0
H154 H 0.44791 0.24199 0.38595 0.0
H155 H 0.49323 0.29439 0.37925 0.0
H156 H 0.18586 0.98728 0.34968 0.0
H157 H 0.24163 0.02449 0.34399 0.0
H158 H 0.26281 0.01474 0.40187 0.0
H159 H 0.20707 0.9775 0.40754 0.0
Tb160 Tb 0.80018 0.70132 0.1334 0.0
Tb161 Tb 0.83241 0.66124 0.11684 0.0
C162 C 0.82864 0.67123 0.15997 0.0
C163 C 0.79342 0.77159 0.14402 0.0
C164 C 0.81719 0.83742 0.14253 0.0
C165 C 0.79254 0.81812 0.15494 0.0
C166 C 0.78078 0.78555 0.15565 0.0
C167 C 0.81849 0.79079 0.13195 0.0
C168 C 0.83025 0.82331 0.13122 0.0
C169 C 0.77949 0.73701 0.14381 0.0
O170 O 0.84598 0.73613 0.12182 0.0
O171 O 0.87079 0.70725 0.12441 0.0
O172 O 0.82634 0.68724 0.09329 0.0
O173 O 0.78218 0.68387 0.10562 0.0
O174 O 0.87007 0.6523 0.11746 0.0
O175 O 0.8323 0.62874 0.09742 0.0
O176 O 0.78236 0.62805 0.11838 0.0
O177 O 0.76462 0.65192 0.13923 0.0
O178 O 0.82812 0.697 0.15567 0.0
O179 O 0.82414 0.65024 0.14699 0.0
C180 C 0.87188 0.73439 0.1227 0.0
O181 O 0.77498 0.72442 0.12717 0.0
O182 O 0.79157 0.72511 0.15532 0.0
C183 C 0.80054 0.689 0.09118 0.0
C184 C 0.85908 0.60201 0.10748 0.0
C185 C 0.86465 0.54813 0.11448 0.0
C186 C 0.88371 0.57058 0.10094 0.0
C187 C 0.88093 0.59718 0.0975 0.0
C188 C 0.83967 0.57962 0.12088 0.0
C189 C 0.84236 0.55282 0.12431 0.0
C190 C 0.85825 0.63129 0.10417 0.0
C191 C 0.76057 0.62701 0.12964 0.0
H192 H 0.78222 0.82818 0.16408 0.0
H193 H 0.76149 0.77119 0.16508 0.0
H194 H 0.8285 0.78054 0.12274 0.0
H195 H 0.84895 0.83723 0.12135 0.0
H196 H 0.90072 0.56752 0.09287 0.0
H197 H 0.89614 0.61421 0.08711 0.0
H198 H 0.82279 0.58307 0.12883 0.0
H199 H 0.82746 0.53614 0.13492 0.0
Tb200 Tb 0.85869 0.20233 0.39988 0.0
Tb201 Tb 0.93135 0.23333 0.38407 0.0
C202 C 0.9176 0.22303 0.42641 0.0
C203 C 0.7725 0.17732 0.40668 0.0
C204 C 0.71251 0.16991 0.39814 0.0
C205 C 0.72389 0.17496 0.41678 0.0
C206 C 0.75347 0.17859 0.42097 0.0
C207 C 0.76158 0.17281 0.38797 0.0
C208 C 0.73187 0.16907 0.38376 0.0
C209 C 0.80273 0.17924 0.41189 0.0
O210 O 0.87052 0.24771 0.38833 0.0
O211 O 0.92415 0.27251 0.39231 0.0
O212 O 0.90463 0.23538 0.36045 0.0
O213 O 0.85543 0.19557 0.36913 0.0
O214 O 0.97961 0.26402 0.38883 0.0
O215 O 0.96344 0.23597 0.36356 0.0
O216 O 0.90829 0.18261 0.37958 0.0
O217 O 0.87203 0.16646 0.40339 0.0
O218 O 0.89155 0.22422 0.42377 0.0
O219 O 0.93069 0.21679 0.41234 0.0
C220 C 0.8979 0.27349 0.39005 0.0
O221 O 0.81248 0.16407 0.40136 0.0
O222 O 0.82584 0.20677 0.41682 0.0
C223 C 0.8756 0.214 0.35616 0.0
C224 C 1.01022 0.24287 0.37724 0.0
C225 C 0.05284 0.22047 0.38275 0.0
C226 C 0.05732 0.24167 0.36803 0.0
C227 C 0.03624 0.25277 0.36534 0.0
C228 C 1.00539 0.22153 0.39184 0.0
C229 C 0.02653 0.21052 0.39461 0.0
C230 C 0.98774 0.25409 0.374 0.0
C231 C 0.8884 0.16063 0.39107 0.0
H232 H 0.70961 0.17536 0.42827 0.0
H233 H 0.76129 0.18188 0.4355 0.0
H234 H 0.77586 0.17187 0.37665 0.0
H235 H 0.72411 0.16566 0.36922 0.0
H236 H 0.07691 0.24941 0.35839 0.0
H237 H 0.04014 0.26894 0.35387 0.0
H238 H 0.98527 0.21339 0.40111 0.0
H239 H 0.02244 0.19451 0.40619 0.0
Tb240 Tb 0.17793 0.36639 0.61681 0.0
Tb241 Tb 0.10449 0.32541 0.63159 0.0
C242 C 0.11995 0.34049 0.59012 0.0
C243 C 0.2637 0.42628 0.6081 0.0
C244 C 0.32422 0.47954 0.61363 0.0
C245 C 0.30865 0.47435 0.5962 0.0
C246 C 0.2788 0.44797 0.59346 0.0
C247 C 0.27879 0.43188 0.62572 0.0
C248 C 0.30875 0.45818 0.62843 0.0
C249 C 0.23364 0.39695 0.60421 0.0
O250 O 0.1636 0.40127 0.62107 0.0
O251 O 0.11538 0.3739 0.63642 0.0
O252 O 0.13406 0.33389 0.6562 0.0
O253 O 0.18051 0.37732 0.64684 0.0
O254 O 0.05716 0.29994 0.62332 0.0
O255 O 0.06988 0.30225 0.65256 0.0
O256 O 0.11832 0.29157 0.62199 0.0
O257 O 0.17139 0.3218 0.62669 0.0
O258 O 0.14645 0.34049 0.59309 0.0
O259 O 0.10609 0.34544 0.60424 0.0
C260 C 0.13956 0.4002 0.63001 0.0
O261 O 0.22415 0.3744 0.61662 0.0
O262 O 0.2103 0.3998 0.59763 0.0
C263 C 0.16144 0.3588 0.66012 0.0
C264 C 0.027 0.25436 0.64144 0.0
C265 C 0.98489 0.18871 0.64185 0.0
C266 C 0.98013 0.20879 0.65383 0.0
C267 C 1.00095 0.24134 0.65355 0.0
C268 C 0.03243 0.23428 0.62993 0.0
C269 C 1.0115 0.2018 0.63008 0.0
C270 C 0.04736 0.28886 0.64016 0.0
C271 C 0.14611 0.29419 0.62468 0.0
H272 H 0.31997 0.49014 0.58445 0.0
H273 H 0.2678 0.44408 0.57972 0.0
H274 H 0.26776 0.41567 0.63734 0.0
H275 H 0.31987 0.46172 0.64211 0.0
H276 H 0.95973 0.19943 0.66296 0.0
H277 H 0.99634 0.25643 0.66252 0.0
H278 H 0.0525 0.24376 0.62054 0.0
H279 H 1.01603 0.18691 0.62088 0.0
Tb280 Tb 0.24404 0.92206 0.88537 0.0
Tb281 Tb 0.21277 0.84874 0.90068 0.0
C282 C 0.21566 0.8648 0.85762 0.0
C283 C 0.25019 0.99945 0.87514 0.0
C284 C 0.2267 0.04175 0.87532 0.0
C285 C 0.25478 0.04929 0.86575 0.0
C286 C 0.26642 0.02837 0.86571 0.0
C287 C 0.22163 0.9913 0.88416 0.0
C288 C 0.21 1.01222 0.88427 0.0
C289 C 0.26439 0.97915 0.87673 0.0
O290 O 0.19769 0.90902 0.89696 0.0
O291 O 0.1739 0.85566 0.89311 0.0
O292 O 0.21974 0.88024 0.92459 0.0
O293 O 0.26401 0.92013 0.91207 0.0
O294 O 0.17494 0.8024 0.90082 0.0
O295 O 0.21496 0.81592 0.91908 0.0
O296 O 0.26205 0.86408 0.89601 0.0
O297 O 0.28059 0.91024 0.8787 0.0
O298 O 0.21723 0.8915 0.86221 0.0
O299 O 0.21921 0.84709 0.87029 0.0
C300 C 0.17218 0.88126 0.89532 0.0
O301 O 0.26493 0.96921 0.89368 0.0
O302 O 0.25585 0.95674 0.86433 0.0
C303 C 0.24598 0.90731 0.92668 0.0
C304 C 0.18814 0.76298 0.9079 0.0
C305 C 0.18126 0.70311 0.90029 0.0
C306 C 0.1881 0.71571 0.91861 0.0
C307 C 0.19139 0.74524 0.92236 0.0
C308 C 0.1822 0.7509 0.88945 0.0
C309 C 0.17869 0.72125 0.88571 0.0
C310 C 0.18865 0.79266 0.91264 0.0
C311 C 0.28381 0.88697 0.88572 0.0
H312 H 0.26798 0.07153 0.85842 0.0
H313 H 0.28849 0.0351 0.85866 0.0
H314 H 0.2088 0.96916 0.89162 0.0
H315 H 0.1885 1.00567 0.89193 0.0
H316 H 0.18993 0.70231 0.93021 0.0
H317 H 0.19576 0.75393 0.93671 0.0
H318 H 0.17969 0.76408 0.87797 0.0
H319 H 0.17387 0.71247 0.8714 0.0
Tb320 Tb 0.66662 0.82482 0.61544 0.0
Tb321 Tb 0.70758 0.79328 0.63255 0.0
C322 C 0.70697 0.8056 0.58988 0.0
C323 C 0.60629 0.85101 0.6092 0.0
C324 C 0.55356 0.85816 0.61785 0.0
C325 C 0.55614 0.84662 0.6002 0.0
C326 C 0.5822 0.8432 0.59593 0.0
C327 C 0.60355 0.86198 0.62701 0.0
C328 C 0.57754 0.86559 0.63125 0.0
C329 C 0.6347 0.8493 0.60373 0.0
O330 O 0.63206 0.7777 0.62383 0.0
O331 O 0.66215 0.75356 0.62346 0.0
O332 O 0.67546 0.78792 0.65486 0.0
O333 O 0.6665 0.82815 0.64639 0.0
O334 O 0.72581 0.76299 0.62851 0.0
O335 O 0.73699 0.79142 0.65359 0.0
O336 O 0.73313 0.84367 0.63854 0.0
O337 O 0.71608 0.8605 0.61344 0.0
O338 O 0.67996 0.80526 0.59148 0.0
O339 O 0.72495 0.81069 0.60462 0.0
C340 C 0.6346 0.75233 0.62297 0.0
O341 O 0.65956 0.86368 0.61447 0.0
O342 O 0.63033 0.82214 0.59804 0.0
C343 C 0.66638 0.80824 0.65903 0.0
C344 C 0.77796 0.78485 0.64073 0.0
C345 C 0.84337 0.80765 0.63624 0.0
C346 C 0.83061 0.80647 0.65416 0.0
C347 C 0.79829 0.79509 0.65637 0.0
C348 C 0.79066 0.78591 0.62279 0.0
C349 C 0.82295 0.79712 0.6206 0.0
C350 C 0.74389 0.77364 0.64336 0.0
C351 C 0.73663 0.86603 0.62687 0.0
H352 H 0.5384 0.841 0.58944 0.0
H353 H 0.58379 0.83493 0.58207 0.0
H354 H 0.62165 0.86816 0.6376 0.0
H355 H 0.5762 0.87415 0.64506 0.0
H356 H 0.84555 0.81398 0.66654 0.0
H357 H 0.78916 0.79439 0.67035 0.0
H358 H 0.77574 0.77829 0.6104 0.0
H359 H 0.83202 0.79797 0.60658 0.0
Tb360 Tb 0.10815 0.31836 0.88489 0.0
Tb361 Tb 0.18112 0.36147 0.90165 0.0
C362 C 0.1662 0.35696 0.85838 0.0
C363 C 0.02868 0.24989 0.87686 0.0
C364 C 0.98346 0.18608 0.88354 0.0
C365 C 0.97873 0.20338 0.8693 0.0
C366 C 1.00116 0.23496 0.86599 0.0
C367 C 0.03343 0.23296 0.89125 0.0
C368 C 1.01103 0.20136 0.89456 0.0
C369 C 0.05309 0.28244 0.87243 0.0
O370 O 0.12199 0.28498 0.89499 0.0
O371 O 0.17549 0.31678 0.8924 0.0
O372 O 0.15233 0.33257 0.92547 0.0
O373 O 0.10327 0.32146 0.91488 0.0
O374 O 0.22853 0.37323 0.9002 0.0
O375 O 0.2135 0.39511 0.92079 0.0
O376 O 0.15888 0.39 0.90367 0.0
O377 O 0.12011 0.36751 0.88105 0.0
O378 O 0.14068 0.32995 0.86171 0.0
O379 O 0.18293 0.37588 0.87219 0.0
C380 C 0.15039 0.28871 0.89359 0.0
O381 O 0.05968 0.30332 0.88559 0.0
O382 O 0.07856 0.28541 0.86482 0.0
C383 C 0.12208 0.32236 0.9283 0.0
C384 C 0.26661 0.42463 0.91 0.0
C385 C 0.32616 0.47889 0.90338 0.0
C386 C 0.31828 0.46457 0.92128 0.0
C387 C 0.28892 0.43779 0.92452 0.0
C388 C 0.27379 0.43935 0.89225 0.0
C389 C 0.30326 0.46627 0.88899 0.0
C390 C 0.23741 0.3943 0.91344 0.0
C391 C 0.13876 0.3914 0.89198 0.0
H392 H 0.95805 0.1923 0.86036 0.0
H393 H 0.99725 0.24757 0.85472 0.0
H394 H 0.05463 0.2441 0.89975 0.0
H395 H 1.01528 0.18894 0.90579 0.0
H396 H 0.33496 0.47391 0.93282 0.0
H397 H 0.28391 0.42687 0.93832 0.0
H398 H 0.25697 0.42958 0.8808 0.0
H399 H 0.30847 0.47651 0.87501 0.0
Tb400 Tb 0.20854 0.85536 0.61527 0.0
Tb401 Tb 0.23856 0.92701 0.63373 0.0
C402 C 0.23672 0.91668 0.59072 0.0
C403 C 0.18546 0.77055 0.60518 0.0
C404 C 0.17955 0.71086 0.61194 0.0
C405 C 0.1685 0.71707 0.59505 0.0
C406 C 0.17142 0.74655 0.59174 0.0
C407 C 0.19735 0.76493 0.62187 0.0
C408 C 0.1945 0.73536 0.6252 0.0
C409 C 0.18514 0.80016 0.60199 0.0
O410 O 0.25908 0.87451 0.61696 0.0
O411 O 0.27423 0.91335 0.63952 0.0
O412 O 0.2102 0.89282 0.65497 0.0
O413 O 0.21544 0.85116 0.64542 0.0
O414 O 0.26652 0.97594 0.63012 0.0
O415 O 0.242 0.9568 0.65611 0.0
O416 O 0.19299 0.91606 0.62198 0.0
O417 O 0.16888 0.86202 0.62135 0.0
O418 O 0.21334 0.88746 0.59216 0.0
O419 O 0.2549 0.93093 0.60514 0.0
C420 C 0.27957 0.89392 0.62935 0.0
O421 O 0.17213 0.8083 0.61513 0.0
O422 O 0.21083 0.82431 0.59563 0.0
C423 C 0.21 0.86653 0.65868 0.0
C424 C 0.24504 1.00377 0.64505 0.0
C425 C 0.22209 0.04648 0.64242 0.0
C426 C 0.24562 0.0512 0.65562 0.0
C427 C 0.25696 0.03007 0.6569 0.0
C428 C 0.22129 0.99866 0.63203 0.0
C429 C 0.20992 0.01975 0.63074 0.0
C430 C 0.25787 0.98219 0.64607 0.0
C431 C 0.16756 0.8881 0.62099 0.0
H432 H 0.15742 0.69904 0.58437 0.0
H433 H 0.16208 0.7504 0.57878 0.0
H434 H 0.20815 0.78314 0.63248 0.0
H435 H 0.20313 0.7314 0.6384 0.0
H436 H 0.25521 0.07119 0.66506 0.0
H437 H 0.27519 0.03438 0.66708 0.0
H438 H 0.21181 0.97856 0.62268 0.0
H439 H 0.19209 0.01547 0.62028 0.0
Tb440 Tb 0.71303 0.79031 0.88198 0.0
Tb441 Tb 0.66804 0.81676 0.90058 0.0
C442 C 0.67102 0.80918 0.85642 0.0
C443 C 0.78556 0.78616 0.8733 0.0
C444 C 0.84975 0.80667 0.88053 0.0
C445 C 0.83408 0.78709 0.86504 0.0
C446 C 0.80233 0.77696 0.86148 0.0
C447 C 0.80088 0.80553 0.88885 0.0
C448 C 0.83269 0.81569 0.89244 0.0
C449 C 0.75276 0.77696 0.86863 0.0
O450 O 0.74356 0.83651 0.89442 0.0
O451 O 0.71096 0.85651 0.89001 0.0
O452 O 0.69503 0.81155 0.92391 0.0
O453 O 0.70631 0.77541 0.9109 0.0
O454 O 0.66058 0.85499 0.90471 0.0
O455 O 0.63118 0.8106 0.91849 0.0
O456 O 0.63629 0.76694 0.89606 0.0
O457 O 0.66516 0.75079 0.87795 0.0
O458 O 0.69555 0.8053 0.85838 0.0
O459 O 0.65515 0.8113 0.87077 0.0
C460 C 0.73925 0.8607 0.89253 0.0
O461 O 0.73133 0.75956 0.88093 0.0
O462 O 0.74861 0.79962 0.86238 0.0
C463 C 0.70485 0.79096 0.92541 0.0
C464 C 0.60804 0.84178 0.91054 0.0
C465 C 0.55632 0.85024 0.90175 0.0
C466 C 0.58062 0.87138 0.91373 0.0
C467 C 0.60614 0.86718 0.91804 0.0
C468 C 0.58387 0.82042 0.89863 0.0
C469 C 0.55817 0.82456 0.89433 0.0
C470 C 0.63581 0.83874 0.91513 0.0
C471 C 0.63869 0.74593 0.88582 0.0
H472 H 0.84654 0.78011 0.85537 0.0
H473 H 0.791 0.76233 0.8493 0.0
H474 H 0.78832 0.81303 0.89808 0.0
H475 H 0.84387 0.83047 0.90458 0.0
H476 H 0.57977 0.89106 0.91999 0.0
H477 H 0.62452 0.88389 0.92728 0.0
H478 H 0.58494 0.80071 0.89259 0.0
H479 H 0.54001 0.80793 0.88497 0.0
H480 H 0.11561 0.25435 0.13342 0.0
H481 H 0.15474 0.23802 0.1296 0.0
H482 H 0.08077 0.14105 0.1257 0.0
H483 H 0.04134 0.15705 0.13055 0.0
H484 H 0.12721 0.14458 0.1461 0.0
H485 H 0.12007 0.18357 0.0861 0.0
H486 H 0.11899 0.22085 0.06313 0.0
H487 H 0.21372 0.28984 0.0782 0.0
H488 H 0.21524 0.25314 0.10147 0.0
H489 H 0.23892 0.10043 0.11559 0.0
H490 H 0.19359 0.10866 0.11576 0.0
H491 H 0.25597 0.20846 0.12299 0.0
H492 H 0.3013 0.20059 0.12238 0.0
H493 H 0.21102 0.19787 0.09809 0.0
H494 H 0.21415 0.15746 0.16054 0.0
H495 H 0.21384 0.11767 0.18204 0.0
H496 H 0.12417 0.04787 0.15995 0.0
H497 H 0.12411 0.08721 0.13818 0.0
C498 C 0.10755 0.22947 0.13208 0.0
C499 C 0.07519 0.20706 0.13228 0.0
C500 C 0.13002 0.22019 0.12961 0.0
C501 C 0.12075 0.18834 0.12696 0.0
C502 C 0.08853 0.16579 0.12756 0.0
C503 C 0.06599 0.17504 0.13018 0.0
C504 C 0.14481 0.17879 0.12364 0.0
C505 C 0.14523 0.1559 0.1354 0.0
C506 C 0.16841 0.19349 0.10969 0.0
C507 C 0.16767 0.21566 0.09565 0.0
C508 C 0.1406 0.20677 0.08462 0.0
C509 C 0.13992 0.22779 0.07153 0.0
C510 C 0.16624 0.25771 0.06924 0.0
C511 C 0.19333 0.26665 0.08001 0.0
C512 C 0.19414 0.24574 0.09313 0.0
C513 C 0.24301 0.12416 0.11712 0.0
C514 C 0.2738 0.14983 0.11906 0.0
C515 C 0.21703 0.1288 0.1173 0.0
C516 C 0.22129 0.15915 0.11966 0.0
C517 C 0.25204 0.18483 0.12116 0.0
C518 C 0.27798 0.18025 0.12086 0.0
C519 C 0.19397 0.16444 0.12092 0.0
C520 C 0.19285 0.18644 0.1087 0.0
C521 C 0.16951 0.14859 0.13425 0.0
C522 C 0.16926 0.12519 0.14763 0.0
C523 C 0.19443 0.1336 0.16022 0.0
C524 C 0.19432 0.11113 0.17246 0.0
C525 C 0.16904 0.08025 0.17232 0.0
C526 C 0.14374 0.0718 0.16002 0.0
C527 C 0.14375 0.09417 0.14775 0.0
H528 H 0.16902 0.06288 0.18178 0.0
H529 H 0.16567 0.27393 0.0591 0.0
H530 H 0.1662 0.92355 0.39838 0.0
H531 H 0.11039 0.88486 0.40271 0.0
H532 H 0.08456 0.94429 0.37163 0.0
H533 H 0.14045 0.98333 0.3674 0.0
H534 H 0.04667 0.91713 0.40358 0.0
H535 H 0.08177 0.88412 0.34982 0.0
H536 H 0.1166 0.87035 0.33231 0.0
H537 H 0.09541 0.79522 0.37129 0.0
H538 H 0.06079 0.80884 0.3892 0.0
H539 H 0.88586 0.7933 0.38854 0.0
H540 H 0.93968 0.83815 0.38586 0.0
H541 H 0.97642 0.78092 0.40821 0.0
H542 H 0.9232 0.73612 0.41023 0.0
H543 H 1.0083 0.80943 0.37894 0.0
H544 H 0.97455 0.84309 0.43352 0.0
H545 H 0.93969 0.85662 0.45121 0.0
H546 H 0.95795 0.92982 0.41134 0.0
H547 H 0.99265 0.91647 0.39329 0.0
C548 C 0.14868 0.9286 0.39265 0.0
C549 C 0.15786 0.9565 0.38244 0.0
C550 C 0.11675 0.90637 0.39505 0.0
C551 C 0.09322 0.91151 0.38736 0.0
C552 C 0.10225 0.93976 0.37767 0.0
C553 C 0.13422 0.96192 0.37512 0.0
C554 C 0.05935 0.88679 0.3888 0.0
C555 C 0.03814 0.89365 0.39802 0.0
C556 C 0.04824 0.85605 0.38174 0.0
C557 C 0.06892 0.8477 0.37095 0.0
C558 C 0.08473 0.86482 0.35474 0.0
C559 C 0.1044 0.85702 0.34473 0.0
C560 C 0.10828 0.83198 0.35071 0.0
C561 C 0.09242 0.81464 0.36669 0.0
C562 C 0.07275 0.82237 0.37677 0.0
C563 C 0.90543 0.79049 0.39311 0.0
C564 C 0.90024 0.76109 0.3995 0.0
C565 C 0.93624 0.81618 0.39161 0.0
C566 C 0.96235 0.8131 0.39685 0.0
C567 C 0.95689 0.784 0.40389 0.0
C568 C 0.92633 0.75835 0.40511 0.0
C569 C 0.9955 0.83932 0.39422 0.0
C570 C 1.01666 0.83282 0.3846 0.0
C571 C 1.00648 0.87027 0.401 0.0
C572 C 0.98594 0.87857 0.41195 0.0
C573 C 0.97098 0.86194 0.42847 0.0
C574 C 0.95127 0.8696 0.43857 0.0
C575 C 0.94654 0.894 0.43237 0.0
C576 C 0.96161 0.91089 0.41611 0.0
C577 C 0.98132 0.90331 0.40595 0.0
H578 H 0.93125 0.89988 0.4402 0.0
H579 H 0.12351 0.82597 0.34294 0.0
H580 H 0.93548 0.14264 0.11881 0.0
H581 H 0.92939 0.09007 0.12298 0.0
H582 H 0.82892 0.05015 0.12852 0.0
H583 H 0.83463 0.10191 0.12445 0.0
H584 H 0.85233 0.02983 0.15625 0.0
H585 H 0.86113 0.04143 0.08835 0.0
H586 H 0.88767 0.06746 0.05873 0.0
H587 H 0.96644 0.0559 0.07331 0.0
H588 H 0.94051 0.03014 0.10315 0.0
H589 H 0.78189 0.86661 0.14312 0.0
H590 H 0.79991 0.92263 0.14 0.0
H591 H 0.89579 0.94257 0.13452 0.0
H592 H 0.87796 0.88637 0.13785 0.0
H593 H 0.88272 0.97571 0.10886 0.0
H594 H 0.87188 0.95941 0.17519 0.0
H595 H 0.84572 0.93348 0.20489 0.0
H596 H 0.77204 0.95465 0.19387 0.0
H597 H 0.79752 0.98032 0.16395 0.0
C598 C 0.91209 0.12262 0.12078 0.0
C599 C 0.88559 0.12667 0.12132 0.0
C600 C 0.90864 0.09257 0.12315 0.0
C601 C 0.87865 0.06611 0.12611 0.0
C602 C 0.85229 0.07016 0.1264 0.0
C603 C 0.85567 0.09993 0.12398 0.0
C604 C 0.87416 0.03407 0.1293 0.0
C605 C 0.85882 0.01795 0.14583 0.0
C606 C 0.88354 0.01886 0.11602 0.0
C607 C 0.89906 0.03422 0.09807 0.0
C608 C 0.88423 0.04468 0.08531 0.0
C609 C 0.89913 0.05934 0.06847 0.0
C610 C 0.92877 0.06343 0.06417 0.0
C611 C 0.94351 0.05278 0.07668 0.0
C612 C 0.92872 0.03813 0.09355 0.0
C613 C 0.80688 0.88286 0.14154 0.0
C614 C 0.82845 0.87184 0.14091 0.0
C615 C 0.81716 0.91496 0.13967 0.0
C616 C 0.84929 0.93695 0.13724 0.0
C617 C 0.8709 0.92609 0.13638 0.0
C618 C 0.86062 0.89391 0.13826 0.0
C619 C 0.86 0.97117 0.13557 0.0
C620 C 0.87658 0.98771 0.11939 0.0
C621 C 0.85187 0.98689 0.14921 0.0
C622 C 0.83651 0.9716 0.16725 0.0
C623 C 0.84998 0.95835 0.17903 0.0
C624 C 0.83529 0.94372 0.19592 0.0
C625 C 0.8072 0.94236 0.20125 0.0
C626 C 0.79379 0.9557 0.18972 0.0
C627 C 0.80837 0.97033 0.1728 0.0
H628 H 0.79587 0.93103 0.21433 0.0
H629 H 0.94027 0.07478 0.05113 0.0
H630 H 0.29532 0.19424 0.38435 0.0
H631 H 0.24999 0.20176 0.38552 0.0
H632 H 0.1904 0.10431 0.40094 0.0
H633 H 0.23606 0.09628 0.3994 0.0
H634 H 0.16125 0.12249 0.37553 0.0
H635 H 0.21266 0.16145 0.43414 0.0
H636 H 0.25716 0.19159 0.45581 0.0
H637 H 0.27435 0.27802 0.42994 0.0
H638 H 0.23023 0.24838 0.40792 0.0
H639 H 0.04033 0.1613 0.39341 0.0
H640 H 0.07784 0.14272 0.398 0.0
H641 H 0.15423 0.23459 0.38284 0.0
H642 H 0.11713 0.25366 0.37904 0.0
H643 H 0.16987 0.21214 0.41257 0.0
H644 H 0.12126 0.17041 0.35144 0.0
H645 H 0.07526 0.13928 0.33092 0.0
H646 H 0.05087 0.05634 0.36356 0.0
H647 H 0.09658 0.08708 0.3844 0.0
C648 C 0.27266 0.17428 0.38803 0.0
C649 C 0.26947 0.14467 0.39195 0.0
C650 C 0.24669 0.17869 0.38876 0.0
C651 C 0.21683 0.1538 0.3937 0.0
C652 C 0.21326 0.12394 0.39722 0.0
C653 C 0.23938 0.11941 0.39639 0.0
C654 C 0.18975 0.15951 0.39509 0.0
C655 C 0.16288 0.14171 0.38391 0.0
C656 C 0.19177 0.18463 0.40598 0.0
C657 C 0.21821 0.20265 0.4193 0.0
C658 C 0.22604 0.18687 0.43299 0.0
C659 C 0.25119 0.20387 0.44535 0.0
C660 C 0.2686 0.2367 0.44423 0.0
C661 C 0.26084 0.25259 0.43079 0.0
C662 C 0.23573 0.2357 0.41838 0.0
C663 C 0.06513 0.17766 0.39124 0.0
C664 C 0.07559 0.20896 0.3857 0.0
C665 C 0.08656 0.16689 0.3937 0.0
C666 C 0.11889 0.18712 0.39052 0.0
C667 C 0.12941 0.21847 0.3853 0.0
C668 C 0.10807 0.22927 0.38293 0.0
C669 C 0.14201 0.17596 0.39246 0.0
C670 C 0.16809 0.19269 0.40436 0.0
C671 C 0.13906 0.14969 0.3824 0.0
C672 C 0.11216 0.13108 0.36955 0.0
C673 C 0.10602 0.14555 0.35427 0.0
C674 C 0.08001 0.12798 0.34259 0.0
C675 C 0.06013 0.09587 0.34596 0.0
C676 C 0.06629 0.08122 0.36097 0.0
C677 C 0.09226 0.09869 0.37271 0.0
H678 H 0.03999 0.08231 0.33691 0.0
H679 H 0.28807 0.24982 0.45381 0.0
H680 H 0.14496 0.99564 0.13248 0.0
H681 H 0.08905 0.95763 0.12738 0.0
H682 H 0.10857 0.88132 0.13228 0.0
H683 H 0.16449 0.91913 0.137 0.0
H684 H 0.06972 0.87306 0.10259 0.0
H685 H 0.0763 0.90089 0.16867 0.0
H686 H 0.08953 0.93829 0.19493 0.0
H687 H 0.02744 0.96831 0.17223 0.0
H688 H 1.01415 0.93133 0.14569 0.0
H689 H 0.92899 0.73764 0.12387 0.0
H690 H 0.981 0.78398 0.12407 0.0
H691 H 0.93972 0.84363 0.12066 0.0
H692 H 0.88679 0.79676 0.12079 0.0
H693 H 0.98745 0.86605 0.14618 0.0
H694 H 0.97568 0.83431 0.08228 0.0
H695 H 0.9624 0.79781 0.05556 0.0
H696 H 0.03398 0.77681 0.07283 0.0
H697 H 0.0474 0.81284 0.09983 0.0
C698 C 0.13738 0.97077 0.13232 0.0
C699 C 0.15923 0.96043 0.1352 0.0
C700 C 0.10536 0.94906 0.12954 0.0
C701 C 0.09452 0.91657 0.12959 0.0
C702 C 0.11634 0.90625 0.13222 0.0
C703 C 0.14828 0.92789 0.13507 0.0
C704 C 0.0605 0.89312 0.12698 0.0
C705 C 0.05176 0.8714 0.11219 0.0
C706 C 0.03682 0.8917 0.13904 0.0
C707 C 0.04451 0.91362 0.1551 0.0
C708 C 0.06564 0.91563 0.16921 0.0
C709 C 0.07312 0.93672 0.18415 0.0
C710 C 0.05941 0.95574 0.18521 0.0
C711 C 0.03809 0.95361 0.17137 0.0
C712 C 0.03055 0.93257 0.15639 0.0
C713 C 0.93069 0.7605 0.12308 0.0
C714 C 0.90348 0.76332 0.12222 0.0
C715 C 0.96065 0.7871 0.1231 0.0
C716 C 0.96443 0.81737 0.12205 0.0
C717 C 0.93741 0.82049 0.12136 0.0
C718 C 0.90717 0.79368 0.12136 0.0
C719 C 0.99681 0.84534 0.12211 0.0
C720 C 1.00527 0.86796 0.13638 0.0
C721 C 0.02026 0.84779 0.10946 0.0
C722 C 1.01242 0.82618 0.09316 0.0
C723 C 0.98845 0.82176 0.08046 0.0
C724 C 0.98092 0.80116 0.06525 0.0
C725 C 0.9973 0.78496 0.06251 0.0
C726 C 0.02131 0.78937 0.07497 0.0
C727 C 0.02892 0.80992 0.09022 0.0
H728 H 0.99143 0.76903 0.05073 0.0
H729 H 0.06525 0.97207 0.19678 0.0
H730 H 0.81877 0.87185 0.4099 0.0
H731 H 0.83471 0.92772 0.41168 0.0
H732 H 0.85309 0.93744 0.35197 0.0
H733 H 0.83705 0.88139 0.35007 0.0
H734 H 0.9007 0.98816 0.37508 0.0
H735 H 0.78828 0.93126 0.36466 0.0
H736 H 0.73372 0.88983 0.37146 0.0
H737 H 0.74084 0.92734 0.42698 0.0
H738 H 0.79564 0.96873 0.4206 0.0
H739 H 0.90526 0.13485 0.36238 0.0
H740 H 0.89626 0.08123 0.36021 0.0
H741 H 0.85426 0.06067 0.41554 0.0
H742 H 0.8621 0.11383 0.41745 0.0
H743 H 0.8195 0.01495 0.39397 0.0
H744 H 0.9307 0.07212 0.40538 0.0
H745 H 0.98635 0.11228 0.40033 0.0
H746 H 0.98366 0.07461 0.3454 0.0
H747 H 0.92783 0.03446 0.35001 0.0
C748 C 0.82656 0.88596 0.39718 0.0
C749 C 0.82659 0.87223 0.37982 0.0
C750 C 0.83555 0.91783 0.39822 0.0
C751 C 0.84496 0.93666 0.38195 0.0
C752 C 0.84593 0.9233 0.36468 0.0
C753 C 0.83655 0.89128 0.3636 0.0
C754 C 0.85224 0.96988 0.38288 0.0
C755 C 0.88295 0.99416 0.37897 0.0
C756 C 0.82921 0.97756 0.38843 0.0
C757 C 0.79615 0.9529 0.39221 0.0
C758 C 0.77829 0.93052 0.37837 0.0
C759 C 0.74731 0.90707 0.38214 0.0
C760 C 0.73385 0.90591 0.39966 0.0
C761 C 0.75131 0.92825 0.41343 0.0
C762 C 0.78232 0.95172 0.40974 0.0
C763 C 0.89429 0.11896 0.37414 0.0
C764 C 0.88434 0.1286 0.39008 0.0
C765 C 0.88933 0.08831 0.37293 0.0
C766 C 0.87491 0.06685 0.38781 0.0
C767 C 0.86537 0.07666 0.40384 0.0
C768 C 0.86989 0.10712 0.40493 0.0
C769 C 0.86827 0.03373 0.38637 0.0
C770 C 0.8375 1.00927 0.39011 0.0
C771 C 0.89144 0.02602 0.38089 0.0
C772 C 0.92493 0.05045 0.37797 0.0
C773 C 0.94187 0.07258 0.39215 0.0
C774 C 0.97349 0.09531 0.38937 0.0
C775 C 0.98854 0.09604 0.37253 0.0
C776 C 0.97198 0.07403 0.35843 0.0
C777 C 0.94035 0.05127 0.36112 0.0
H778 H 1.01304 0.11358 0.37042 0.0
H779 H 0.70986 0.88773 0.40255 0.0
H780 H 0.25701 0.11088 0.64426 0.0
H781 H 0.23872 0.14879 0.64167 0.0
H782 H 0.14349 0.07299 0.63351 0.0
H783 H 0.16159 0.03471 0.63626 0.0
H784 H 0.15726 0.12114 0.60929 0.0
H785 H 0.16551 0.11038 0.67551 0.0
H786 H 0.19084 0.10867 0.70521 0.0
H787 H 0.26378 0.2046 0.69701 0.0
H788 H 0.23915 0.20675 0.66711 0.0
H789 H 0.10039 0.2313 0.62174 0.0
H790 H 0.10774 0.1854 0.62492 0.0
H791 H 0.20733 0.24729 0.63365 0.0
H792 H 0.20033 0.29274 0.63063 0.0
H793 H 0.18396 0.20103 0.65931 0.0
H794 H 0.17804 0.20973 0.59165 0.0
H795 H 0.15274 0.2113 0.5619 0.0
H796 H 0.07473 0.11901 0.57316 0.0
H797 H 0.0994 0.11708 0.60312 0.0
C798 C 0.2321 0.10214 0.64214 0.0
C799 C 0.21078 0.06962 0.64065 0.0
C800 C 0.22167 0.12392 0.64059 0.0
C801 C 0.18962 0.11379 0.63764 0.0
C802 C 0.16831 0.08141 0.63579 0.0
C803 C 0.17874 0.05955 0.63734 0.0
C804 C 0.17862 0.13718 0.63658 0.0
C805 C 0.16261 0.13826 0.62038 0.0
C806 C 0.18576 0.15976 0.65095 0.0
C807 C 0.20059 0.15864 0.66899 0.0
C808 C 0.18708 0.13104 0.67997 0.0
C809 C 0.20129 0.13001 0.69685 0.0
C810 C 0.22894 0.15649 0.70297 0.0
C811 C 0.24238 0.1841 0.69224 0.0
C812 C 0.22828 0.18525 0.67533 0.0
C813 C 0.12384 0.23508 0.62426 0.0
C814 C 0.14972 0.26582 0.62592 0.0
C815 C 0.12803 0.20882 0.62604 0.0
C816 C 0.15814 0.21285 0.62951 0.0
C817 C 0.18386 0.24349 0.63108 0.0
C818 C 0.17976 0.26956 0.62926 0.0
C819 C 0.16341 0.18557 0.6318 0.0
C820 C 0.17829 0.18369 0.6483 0.0
C821 C 0.15516 0.1623 0.61774 0.0
C822 C 0.14037 0.16342 0.59973 0.0
C823 C 0.15536 0.18989 0.58786 0.0
C824 C 0.14116 0.19082 0.57094 0.0
C825 C 0.1121 0.16531 0.56567 0.0
C826 C 0.09721 0.13878 0.57728 0.0
C827 C 0.1113 0.13774 0.59422 0.0
H828 H 0.10115 0.16608 0.55257 0.0
H829 H 0.23991 0.15564 0.71605 0.0
H830 H 0.15558 0.92626 0.90338 0.0
H831 H 0.10255 0.91996 0.90193 0.0
H832 H 0.06429 0.82305 0.88536 0.0
H833 H 0.11652 0.82901 0.88669 0.0
H834 H 0.04333 0.85384 0.86284 0.0
H835 H 0.05524 0.84122 0.92958 0.0
H836 H 0.08112 0.85839 0.96056 0.0
H837 H 0.06716 0.93815 0.9592 0.0
H838 H 0.04151 0.92163 0.92807 0.0
H839 H 0.88063 0.77334 0.87683 0.0
H840 H 0.93688 0.79243 0.88024 0.0
H841 H 0.95264 0.88415 0.89573 0.0
H842 H 0.89619 0.86534 0.89206 0.0
H843 H 0.9876 0.86527 0.91784 0.0
H844 H 0.97027 0.87438 0.85262 0.0
H845 H 0.94424 0.85693 0.82171 0.0
H846 H 0.96924 0.7846 0.81986 0.0
H847 H 0.99498 0.80127 0.85091 0.0
C848 C 0.13584 0.90364 0.89945 0.0
C849 C 0.14042 0.87819 0.89513 0.0
C850 C 0.10555 0.90004 0.89869 0.0
C851 C 0.07943 0.871 0.89353 0.0
C852 C 0.08405 0.84569 0.8893 0.0
C853 C 0.11405 0.84917 0.89016 0.0
C854 C 0.04712 0.86646 0.89213 0.0
C855 C 0.03112 0.85622 0.87489 0.0
C856 C 0.03149 0.87052 0.90769 0.0
C857 C 0.0468 0.8804 0.92641 0.0
C858 C 0.05793 0.86257 0.93581 0.0
C859 C 0.07249 0.87214 0.95341 0.0
C860 C 0.07583 0.89937 0.96183 0.0
C861 C 0.06458 0.91707 0.95266 0.0
C862 C 0.05001 0.90761 0.93504 0.0
C863 C 0.89599 0.79764 0.88087 0.0
C864 C 0.88382 0.81787 0.88394 0.0
C865 C 0.92818 0.80849 0.88289 0.0
C866 C 0.94907 0.83985 0.88799 0.0
C867 C 0.93697 0.85987 0.89177 0.0
C868 C 0.90467 0.84903 0.8897 0.0
C869 C 0.98356 0.85164 0.88869 0.0
C870 C 0.99996 0.86333 0.90572 0.0
C871 C 0.9997 0.84899 0.87291 0.0
C872 C 0.98436 0.83894 0.85418 0.0
C873 C 0.97001 0.8546 0.84569 0.0
C874 C 0.95533 0.84486 0.82813 0.0
C875 C 0.95503 0.81963 0.81884 0.0
C876 C 0.96947 0.80412 0.82708 0.0
C877 C 0.98413 0.81372 0.84465 0.0
H878 H 0.94366 0.81214 0.80524 0.0
H879 H 0.08707 0.90671 0.97547 0.0
H880 H 0.76311 0.91219 0.60016 0.0
H881 H 0.80795 0.96558 0.60391 0.0
H882 H 0.8164 0.94614 0.66223 0.0
H883 H 0.77201 0.89241 0.6585 0.0
H884 H 0.81524 1.00462 0.65425 0.0
H885 H 0.86873 0.94903 0.63657 0.0
H886 H 0.87878 0.91366 0.61686 0.0
H887 H 0.89775 0.97492 0.56932 0.0
H888 H 0.88735 1.01044 0.58869 0.0
H889 H 0.95688 0.14798 0.67135 0.0
H890 H 0.91708 0.09204 0.66989 0.0
H891 H 0.91973 0.0964 0.60915 0.0
H892 H 0.96003 0.15208 0.61058 0.0
H893 H 0.91601 0.04384 0.61977 0.0
H894 H 0.86005 0.09767 0.63577 0.0
H895 H 0.84806 0.13291 0.65424 0.0
H896 H 0.83134 0.07523 0.7033 0.0
H897 H 0.84366 0.03986 0.68517 0.0
C898 C 0.77458 0.91924 0.61376 0.0
C899 C 0.76406 0.89811 0.62903 0.0
C900 C 0.80023 0.94969 0.61586 0.0
C901 C 0.81549 0.95972 0.63333 0.0
C902 C 0.80494 0.93878 0.64864 0.0
C903 C 0.77968 0.9081 0.64645 0.0
C904 C 0.84199 0.99235 0.63564 0.0
C905 C 0.83751 0.01315 0.64698 0.0
C906 C 0.87061 1.00352 0.62573 0.0
C907 C 0.87694 0.98224 0.61404 0.0
C908 C 0.87474 0.95481 0.62187 0.0
C909 C 0.88057 0.93477 0.61077 0.0
C910 C 0.88882 0.942 0.59184 0.0
C911 C 0.89132 0.96933 0.58398 0.0
C912 C 0.88549 0.98944 0.59502 0.0
C913 C 0.94895 0.13697 0.6577 0.0
C914 C 0.96152 0.15446 0.64109 0.0
C915 C 0.92615 0.105 0.65686 0.0
C916 C 0.91495 0.09 0.63939 0.0
C917 C 0.92795 0.10734 0.6228 0.0
C918 C 0.95102 0.13918 0.62363 0.0
C919 C 0.88934 0.05646 0.63834 0.0
C920 C 0.89389 0.03542 0.62718 0.0
C921 C 0.86057 0.04513 0.64825 0.0
C922 C 0.85312 0.06633 0.65917 0.0
C923 C 0.85406 0.09264 0.65054 0.0
C924 C 0.84716 0.11261 0.66094 0.0
C925 C 0.83904 0.10637 0.67995 0.0
C926 C 0.8377 0.08008 0.68858 0.0
C927 C 0.84462 0.06005 0.67825 0.0
H928 H 0.8337 0.12185 0.68797 0.0
H929 H 0.89334 0.92646 0.58327 0.0
H930 H 0.10488 0.22604 0.89088 0.0
H931 H 0.11315 0.18093 0.88726 0.0
H932 H 0.21369 0.24321 0.8905 0.0
H933 H 0.20576 0.28813 0.8938 0.0
H934 H 0.19959 0.20396 0.86187 0.0
H935 H 0.17018 0.19466 0.92758 0.0
H936 H 0.13521 0.18933 0.95397 0.0
H937 H 0.062 0.10252 0.93081 0.0
H938 H 0.09643 0.10755 0.90414 0.0
H939 H 0.26244 0.10549 0.88038 0.0
H940 H 0.24475 0.14384 0.88265 0.0
H941 H 0.1483 0.06968 0.87618 0.0
H942 H 0.16588 0.03098 0.87364 0.0
H943 H 0.15434 0.1108 0.9041 0.0
H944 H 0.18515 0.1179 0.83979 0.0
H945 H 0.21995 0.12315 0.81333 0.0
H946 H 0.29 0.21411 0.83351 0.0
H947 H 0.2558 0.20921 0.86026 0.0
C948 C 0.12873 0.23008 0.89095 0.0
C949 C 0.15465 0.26079 0.89257 0.0
C950 C 0.13342 0.20424 0.88892 0.0
C951 C 0.16408 0.20862 0.88865 0.0
C952 C 0.18983 0.23919 0.89055 0.0
C953 C 0.18521 0.26492 0.8925 0.0
C954 C 0.16982 0.18178 0.8859 0.0
C955 C 0.1899 0.18374 0.87123 0.0
C956 C 0.15635 0.15482 0.89767 0.0
C957 C 0.13575 0.15166 0.91377 0.0
C958 C 0.14654 0.17455 0.92805 0.0
C959 C 0.12684 0.17157 0.94307 0.0
C960 C 0.09637 0.14565 0.94404 0.0
C961 C 0.08558 0.12261 0.93002 0.0
C962 C 0.10519 0.1255 0.91496 0.0
C963 C 0.23748 0.09727 0.87915 0.0
C964 C 0.21565 0.06509 0.87661 0.0
C965 C 0.22737 0.11927 0.88056 0.0
C966 C 0.1952 0.10973 0.87936 0.0
C967 C 0.17324 0.0776 0.87713 0.0
C968 C 0.18335 0.0555 0.87571 0.0
C969 C 0.18482 0.13352 0.88041 0.0
C970 C 0.16381 0.13091 0.89467 0.0
C971 C 0.19739 0.15995 0.86825 0.0
C972 C 0.21799 0.16307 0.85212 0.0
C973 C 0.20807 0.13893 0.83867 0.0
C974 C 0.22767 0.14186 0.8236 0.0
C975 C 0.25719 0.16892 0.82176 0.0
C976 C 0.26714 0.19315 0.83496 0.0
C977 C 0.24764 0.19032 0.85007 0.0
H978 H 0.27234 0.17114 0.81009 0.0
H979 H 0.08114 0.14339 0.95568 0.0
H980 H 0.15 0.92997 0.63372 0.0
H981 H 0.09632 0.92191 0.63523 0.0
H982 H 0.06039 0.83201 0.60784 0.0
H983 H 0.11359 0.83956 0.60662 0.0
H984 H 0.03426 0.86988 0.59412 0.0
H985 H 0.05463 0.83098 0.65243 0.0
H986 H 0.08489 0.83651 0.68139 0.0
H987 H 0.06973 0.91107 0.70018 0.0
H988 H 0.03979 0.9063 0.67116 0.0
H989 H 0.87188 0.78318 0.61435 0.0
H990 H 0.92818 0.8024 0.61076 0.0
H991 H 0.94926 0.87839 0.64922 0.0
H992 H 0.89283 0.85908 0.65299 0.0
H993 H 0.98514 0.8542 0.6572 0.0
H994 H 0.96094 0.89107 0.60124 0.0
H995 H 0.9317 0.88801 0.57227 0.0
H996 H 0.95522 0.82179 0.54875 0.0
H997 H 0.98422 0.82407 0.57773 0.0
C998 C 0.1307 0.9087 0.62781 0.0
C999 C 0.136 0.88531 0.62015 0.0
C1000 C 0.10006 0.90408 0.62873 0.0
C1001 C 0.07436 0.87628 0.62172 0.0
C1002 C 0.07986 0.85363 0.61332 0.0
C1003 C 0.11028 0.85793 0.61271 0.0
C1004 C 0.04146 0.86971 0.62402 0.0
C1005 C 0.02341 0.86628 0.60789 0.0
C1006 C 0.02763 0.8659 0.642 0.0
C1007 C 0.04531 0.86854 0.65953 0.0
C1008 C 0.05799 0.84874 0.66266 0.0
C1009 C 0.07504 0.8517 0.6791 0.0
C1010 C 0.07931 0.87419 0.69259 0.0
C1011 C 0.06645 0.8937 0.6897 0.0
C1012 C 0.04944 0.89087 0.67326 0.0
C1013 C 0.88849 0.80418 0.6219 0.0
C1014 C 0.87779 0.81963 0.63391 0.0
C1015 C 0.92074 0.81518 0.61983 0.0
C1016 C 0.94314 0.84217 0.62951 0.0
C1017 C 0.93252 0.85755 0.6416 0.0
C1018 C 0.90023 0.84643 0.64377 0.0
C1019 C 0.97752 0.85383 0.62724 0.0
C1020 C 0.99593 0.85818 0.64339 0.0
C1021 C 0.9918 0.8589 0.60926 0.0
C1022 C 0.97455 0.85756 0.59174 0.0
C1023 C 0.95969 0.87568 0.58995 0.0
C1024 C 0.94318 0.87411 0.57352 0.0
C1025 C 0.94155 0.85467 0.55869 0.0
C1026 C 0.95649 0.83681 0.56026 0.0
C1027 C 0.97299 0.83826 0.57668 0.0
H1028 H 0.92875 0.85348 0.54598 0.0
H1029 H 0.09252 0.87645 0.70531 0.0
H1030 H 0.91898 0.15752 0.88262 0.0
H1031 H 0.8806 0.10168 0.8864 0.0
H1032 H 0.95598 0.08178 0.89567 0.0
H1033 H 0.99466 0.13757 0.89123 0.0
H1034 H 0.91319 0.03961 0.87218 0.0
H1035 H 0.91029 0.08124 0.93223 0.0
H1036 H 0.90618 0.11737 0.95462 0.0
H1037 H 0.81283 0.08839 0.93461 0.0
H1038 H 0.81655 0.05244 0.91188 0.0
H1039 H 0.80202 0.88019 0.89823 0.0
H1040 H 0.8462 0.93447 0.89932 0.0
H1041 H 0.78199 0.96916 0.88938 0.0
H1042 H 0.73795 0.91542 0.88862 0.0
H1043 H 0.82302 1.00278 0.91616 0.0
H1044 H 0.82889 0.96553 0.85392 0.0
H1045 H 0.83311 0.92923 0.8317 0.0
H1046 H 0.92134 0.94976 0.85662 0.0
H1047 H 0.91745 0.98595 0.87913 0.0
C1048 C 0.92747 0.14129 0.88536 0.0
C1049 C 0.95997 0.15214 0.88662 0.0
C1050 C 0.90544 0.10935 0.88772 0.0
C1051 C 0.91533 0.08749 0.89156 0.0
C1052 C 0.94775 0.09818 0.89281 0.0
C1053 C 0.96983 0.13017 0.89043 0.0
C1054 C 0.89176 0.05343 0.8938 0.0
C1055 C 0.89379 0.0315 0.88205 0.0
C1056 C 0.86619 0.04277 0.90651 0.0
C1057 C 0.8638 0.0643 0.92024 0.0
C1058 C 0.88897 0.08273 0.9325 0.0
C1059 C 0.8867 0.10317 0.94527 0.0
C1060 C 0.85928 0.10521 0.94601 0.0
C1061 C 0.83406 0.0868 0.93401 0.0
C1062 C 0.83622 0.06636 0.92119 0.0
C1063 C 0.79733 0.8994 0.8963 0.0
C1064 C 0.76639 0.89337 0.89328 0.0
C1065 C 0.82263 0.93043 0.89687 0.0
C1066 C 0.8175 0.95598 0.89428 0.0
C1067 C 0.7866 0.94993 0.89146 0.0
C1068 C 0.7614 0.91906 0.89095 0.0
C1069 C 0.84405 0.98913 0.89424 0.0
C1070 C 0.84262 1.01088 0.90645 0.0
C1071 C 0.87019 0.99959 0.88199 0.0
C1072 C 0.87272 0.97817 0.86832 0.0
C1073 C 0.84909 0.96215 0.85473 0.0
C1074 C 0.85144 0.94163 0.84207 0.0
C1075 C 0.87743 0.93712 0.84279 0.0
C1076 C 0.9012 0.95324 0.85611 0.0
C1077 C 0.89895 0.97378 0.8688 0.0
H1078 H 0.87919 0.9212 0.83299 0.0
H1079 H 0.85755 0.12102 0.95591 0.0
H1080 H 0.42277 0.20102 0.33909 0.0
H1081 H 0.43438 0.21147 0.3052 0.0
H1082 H 0.33536 0.15405 0.2926 0.0
H1083 H 0.32377 0.1435 0.32591 0.0
H1084 H 0.37017 0.1359 0.27259 0.0
H1085 H 0.37387 0.23418 0.28881 0.0
H1086 H 0.39502 0.28449 0.30587 0.0
H1087 H 0.48678 0.31531 0.28269 0.0
H1088 H 0.46621 0.26497 0.26566 0.0
H1089 H 0.32714 0.15675 0.18489 0.0
H1090 H 0.33863 0.16678 0.21832 0.0
H1091 H 0.43798 0.2085 0.20708 0.0
H1092 H 0.42659 0.19851 0.17313 0.0
H1093 H 0.41709 0.23807 0.23869 0.0
H1094 H 0.41079 0.14129 0.21927 0.0
H1095 H 0.38766 0.09159 0.20141 0.0
H1096 H 0.3002 0.05792 0.23092 0.0
H1097 H 0.32263 0.10768 0.24872 0.0
C1098 C 0.40351 0.19112 0.32906 0.0
C1099 C 0.37239 0.17115 0.3352 0.0
C1100 C 0.41016 0.19705 0.30972 0.0
C1101 C 0.38574 0.18326 0.29632 0.0
C1102 C 0.35465 0.16463 0.30261 0.0
C1103 C 0.34806 0.15865 0.32173 0.0
C1104 C 0.39185 0.1862 0.27566 0.0
C1105 C 0.38058 0.1583 0.26524 0.0
C1106 C 0.40635 0.21544 0.26601 0.0
C1107 C 0.41861 0.24568 0.27616 0.0
C1108 C 0.39861 0.25158 0.28748 0.0
C1109 C 0.41048 0.28012 0.29712 0.0
C1110 C 0.44225 0.30304 0.29542 0.0
C1111 C 0.46219 0.29751 0.28403 0.0
C1112 C 0.45044 0.26899 0.27437 0.0
C1113 C 0.35155 0.16861 0.18939 0.0
C1114 C 0.37593 0.17641 0.17637 0.0
C1115 C 0.35806 0.17445 0.20854 0.0
C1116 C 0.38909 0.18807 0.21521 0.0
C1117 C 0.41386 0.19802 0.20219 0.0
C1118 C 0.40732 0.19226 0.18283 0.0
C1119 C 0.3943 0.18769 0.23581 0.0
C1120 C 0.40758 0.21584 0.24615 0.0
C1121 C 0.38169 0.15866 0.24552 0.0
C1122 C 0.36837 0.12829 0.23526 0.0
C1123 C 0.38657 0.12335 0.22189 0.0
C1124 C 0.37359 0.09517 0.21177 0.0
C1125 C 0.34247 0.07163 0.21502 0.0
C1126 C 0.32431 0.07618 0.22843 0.0
C1127 C 0.33716 0.10435 0.23855 0.0
H1128 H 0.33244 0.04984 0.20715 0.0
H1129 H 0.4514 0.32511 0.3029 0.0
H1130 H 0.81263 0.61696 0.34242 0.0
H1131 H 0.8138 0.60946 0.30823 0.0
H1132 H 0.84895 0.70858 0.29941 0.0
H1133 H 0.84748 0.71609 0.33313 0.0
H1134 H 0.79969 0.67469 0.27743 0.0
H1135 H 0.89543 0.67392 0.2941 0.0
H1136 H 0.92615 0.65392 0.31077 0.0
H1137 H 0.8695 0.56311 0.28542 0.0
H1138 H 0.83817 0.58248 0.26878 0.0
H1139 H 0.85562 0.71563 0.18718 0.0
H1140 H 0.85584 0.70784 0.22101 0.0
H1141 H 0.81106 0.60748 0.21286 0.0
H1142 H 0.81106 0.61519 0.17852 0.0
H1143 H 0.85768 0.63148 0.24299 0.0
H1144 H 0.76534 0.6341 0.22395 0.0
H1145 H 0.73598 0.65499 0.20665 0.0
H1146 H 0.78617 0.74231 0.2367 0.0
H1147 H 0.81623 0.72214 0.25397 0.0
C1148 C 0.82107 0.63719 0.33318 0.0
C1149 C 0.82972 0.66708 0.34054 0.0
C1150 C 0.82172 0.63288 0.31364 0.0
C1151 C 0.83132 0.65844 0.30117 0.0
C1152 C 0.84114 0.68841 0.30865 0.0
C1153 C 0.84035 0.69267 0.32802 0.0
C1154 C 0.82965 0.65439 0.28028 0.0
C1155 C 0.81253 0.66536 0.26996 0.0
C1156 C 0.84536 0.64112 0.27043 0.0
C1157 C 0.86423 0.62953 0.28039 0.0
C1158 C 0.88936 0.64961 0.29221 0.0
C1159 C 0.90691 0.6384 0.30163 0.0
C1160 C 0.89971 0.60723 0.29921 0.0
C1161 C 0.875 0.58723 0.28732 0.0
C1162 C 0.85736 0.59831 0.27788 0.0
C1163 C 0.84618 0.69186 0.19247 0.0
C1164 C 0.83292 0.66598 0.18013 0.0
C1165 C 0.84636 0.68746 0.21187 0.0
C1166 C 0.83295 0.65706 0.21953 0.0
C1167 C 0.82144 0.63115 0.20725 0.0
C1168 C 0.82144 0.63559 0.18765 0.0
C1169 C 0.82877 0.65294 0.24032 0.0
C1170 C 0.84452 0.64035 0.25055 0.0
C1171 C 0.81173 0.66466 0.25021 0.0
C1172 C 0.79316 0.67664 0.24018 0.0
C1173 C 0.77023 0.65781 0.22681 0.0
C1174 C 0.75346 0.66953 0.217 0.0
C1175 C 0.75923 0.69997 0.22056 0.0
C1176 C 0.78172 0.71873 0.23397 0.0
C1177 C 0.7986 0.70715 0.24378 0.0
H1178 H 0.74626 0.70902 0.21294 0.0
H1179 H 0.91333 0.5986 0.30651 0.0
H1180 H 0.81672 0.18605 0.17359 0.0
H1181 H 0.80538 0.18027 0.20756 0.0
H1182 H 0.90308 0.21113 0.21919 0.0
H1183 H 0.91419 0.2159 0.18574 0.0
H1184 H 0.86923 0.16399 0.2405 0.0
H1185 H 0.86806 0.25953 0.2236 0.0
H1186 H 0.8487 0.29024 0.20627 0.0
H1187 H 0.75597 0.23137 0.22879 0.0
H1188 H 0.77474 0.20007 0.24608 0.0
H1189 H 0.91397 0.24256 0.32616 0.0
H1190 H 0.90122 0.2337 0.29285 0.0
H1191 H 0.80425 0.16807 0.30623 0.0
H1192 H 0.81689 0.17643 0.34011 0.0
H1193 H 0.82374 0.22133 0.27328 0.0
H1194 H 0.83116 0.13122 0.29444 0.0
H1195 H 0.85597 0.10657 0.31279 0.0
H1196 H 0.94237 0.16098 0.28237 0.0
H1197 H 0.91823 0.18638 0.26407 0.0
C1198 C 0.8357 0.19152 0.18343 0.0
C1199 C 0.86632 0.20128 0.17688 0.0
C1200 C 0.82923 0.18831 0.20286 0.0
C1201 C 0.85339 0.19534 0.21605 0.0
C1202 C 0.88389 0.20522 0.20941 0.0
C1203 C 0.89024 0.20803 0.19016 0.0
C1204 C 0.84776 0.19282 0.23681 0.0
C1205 C 0.85907 0.17641 0.24758 0.0
C1206 C 0.8339 0.20837 0.24623 0.0
C1207 C 0.82269 0.22724 0.23592 0.0
C1208 C 0.84349 0.25301 0.22474 0.0
C1209 C 0.83264 0.27053 0.21495 0.0
C1210 C 0.8011 0.26269 0.21638 0.0
C1211 C 0.78037 0.23737 0.22766 0.0
C1212 C 0.7911 0.21973 0.23745 0.0
C1213 C 0.88977 0.22643 0.3222 0.0
C1214 C 0.86647 0.21007 0.33593 0.0
C1215 C 0.88256 0.22146 0.30307 0.0
C1216 C 0.85186 0.20025 0.2971 0.0
C1217 C 0.8281 0.18464 0.31061 0.0
C1218 C 0.83539 0.18935 0.32993 0.0
C1219 C 0.84598 0.19329 0.27669 0.0
C1220 C 0.83282 0.20805 0.26606 0.0
C1221 C 0.85857 0.17665 0.26733 0.0
C1222 C 0.87292 0.16082 0.27796 0.0
C1223 C 0.8555 0.13807 0.29175 0.0
C1224 C 0.86944 0.12395 0.30214 0.0
C1225 C 0.90074 0.13224 0.29877 0.0
C1226 C 0.91813 0.15458 0.28496 0.0
C1227 C 0.90431 0.16882 0.27457 0.0
H1228 H 0.9115 0.12131 0.30684 0.0
H1229 H 0.79274 0.27629 0.20879 0.0
H1230 H 0.21926 0.4006 0.67581 0.0
H1231 H 0.23167 0.41239 0.70949 0.0
H1232 H 0.13508 0.34615 0.72353 0.0
H1233 H 0.12264 0.33411 0.69037 0.0
H1234 H 0.15817 0.40354 0.74218 0.0
H1235 H 0.18952 0.32549 0.72835 0.0
H1236 H 0.22103 0.30646 0.71184 0.0
H1237 H 0.30626 0.3858 0.73229 0.0
H1238 H 0.2752 0.40551 0.74872 0.0
H1239 H 0.12916 0.32947 0.82788 0.0
H1240 H 0.14099 0.34298 0.79491 0.0
H1241 H 0.23395 0.41777 0.80951 0.0
H1242 H 0.22211 0.40449 0.84322 0.0
H1243 H 0.22709 0.37307 0.77679 0.0
H1244 H 0.19385 0.44427 0.79656 0.0
H1245 H 0.16097 0.46053 0.81406 0.0
H1246 H 0.07949 0.39441 0.78277 0.0
H1247 H 0.11176 0.37729 0.76533 0.0
C1248 C 0.20073 0.38855 0.68611 0.0
C1249 C 0.16998 0.36628 0.68033 0.0
C1250 C 0.20785 0.39531 0.70533 0.0
C1251 C 0.18426 0.3802 0.71904 0.0
C1252 C 0.15363 0.35823 0.71323 0.0
C1253 C 0.14662 0.35122 0.69419 0.0
C1254 C 0.1908 0.38642 0.73955 0.0
C1255 C 0.17348 0.39717 0.74973 0.0
C1256 C 0.2115 0.37906 0.74939 0.0
C1257 C 0.23009 0.3672 0.73953 0.0
C1258 C 0.21499 0.33903 0.72917 0.0
C1259 C 0.23276 0.32809 0.71986 0.0
C1260 C 0.26563 0.34498 0.72095 0.0
C1261 C 0.2808 0.37279 0.73141 0.0
C1262 C 0.26313 0.38385 0.74073 0.0
C1263 C 0.15228 0.34876 0.82427 0.0
C1264 C 0.17473 0.36586 0.83831 0.0
C1265 C 0.15894 0.35647 0.80532 0.0
C1266 C 0.18827 0.38138 0.79975 0.0
C1267 C 0.21116 0.3984 0.81356 0.0
C1268 C 0.20432 0.39088 0.83277 0.0
C1269 C 0.19367 0.3892 0.77937 0.0
C1270 C 0.21287 0.38077 0.7692 0.0
C1271 C 0.17479 0.39883 0.76948 0.0
C1272 C 0.15526 0.40942 0.77966 0.0
C1273 C 0.16889 0.43305 0.79348 0.0
C1274 C 0.15035 0.44244 0.80339 0.0
C1275 C 0.11816 0.4285 0.79953 0.0
C1276 C 0.10444 0.4052 0.78573 0.0
C1277 C 0.12286 0.39568 0.7758 0.0
H1278 H 0.10384 0.43578 0.80723 0.0
H1279 H 0.27935 0.33646 0.71375 0.0
H1280 H 0.19604 0.88914 0.82964 0.0
H1281 H 0.19043 0.87664 0.79623 0.0
H1282 H 0.21806 0.80694 0.80599 0.0
H1283 H 0.2239 0.81947 0.83982 0.0
H1284 H 0.24931 0.84649 0.77533 0.0
H1285 H 0.14333 0.78199 0.79556 0.0
H1286 H 0.09454 0.76928 0.81253 0.0
H1287 H 0.08576 0.83855 0.78007 0.0
H1288 H 0.13476 0.85204 0.76309 0.0
H1289 H 0.22126 0.82208 0.67539 0.0
H1290 H 0.21708 0.80869 0.70908 0.0
H1291 H 0.18342 0.87325 0.72034 0.0
H1292 H 0.18695 0.88617 0.68708 0.0
H1293 H 0.15144 0.82163 0.74072 0.0
H1294 H 0.26211 0.89367 0.72628 0.0
H1295 H 0.31172 0.90893 0.70945 0.0
H1296 H 0.31176 0.82703 0.73103 0.0
H1297 H 0.26192 0.81112 0.74782 0.0
C1298 C 0.20077 0.87097 0.82481 0.0
C1299 C 0.2104 0.85528 0.83748 0.0
C1300 C 0.1974 0.86375 0.80564 0.0
C1301 C 0.20352 0.84064 0.79858 0.0
C1302 C 0.21309 0.82478 0.81114 0.0
C1303 C 0.21625 0.83185 0.83047 0.0
C1304 C 0.20067 0.83418 0.77797 0.0
C1305 C 0.22768 0.84024 0.76778 0.0
C1306 C 0.17258 0.82638 0.76806 0.0
C1307 C 0.14284 0.8181 0.77809 0.0
C1308 C 0.13111 0.79464 0.79211 0.0
C1309 C 0.10339 0.78729 0.80172 0.0
C1310 C 0.08708 0.80312 0.7974 0.0
C1311 C 0.09842 0.8263 0.7834 0.0
C1312 C 0.12614 0.83377 0.77375 0.0
C1313 C 0.21254 0.83302 0.68504 0.0
C1314 C 0.20471 0.8554 0.67853 0.0
C1315 C 0.21033 0.82549 0.70431 0.0
C1316 C 0.20026 0.84023 0.71733 0.0
C1317 C 0.19124 0.86152 0.71065 0.0
C1318 C 0.19347 0.86904 0.69155 0.0
C1319 C 0.20038 0.83519 0.73805 0.0
C1320 C 0.17283 0.82699 0.74828 0.0
C1321 C 0.22801 0.84124 0.74796 0.0
C1322 C 0.25816 0.85104 0.73812 0.0
C1323 C 0.27263 0.87885 0.72735 0.0
C1324 C 0.30079 0.88762 0.71783 0.0
C1325 C 0.31485 0.86893 0.71914 0.0
C1326 C 0.30082 0.84147 0.73002 0.0
C1327 C 0.27263 0.83257 0.73954 0.0
H1328 H 0.33663 0.87575 0.71175 0.0
H1329 H 0.06564 0.79741 0.80487 0.0
H1330 H 0.65365 0.85139 0.67594 0.0
H1331 H 0.64327 0.85453 0.70947 0.0
H1332 H 0.649 0.77094 0.72046 0.0
H1333 H 0.65862 0.76729 0.68731 0.0
H1334 H 0.60314 0.76897 0.74051 0.0
H1335 H 0.71227 0.84706 0.7274 0.0
H1336 H 0.7543 0.89406 0.71147 0.0
H1337 H 0.71619 0.94984 0.73301 0.0
H1338 H 0.67366 0.90301 0.74886 0.0
H1339 H 0.67428 0.77648 0.82688 0.0
H1340 H 0.66206 0.77959 0.79394 0.0
H1341 H 0.63359 0.84718 0.80815 0.0
H1342 H 0.64532 0.84363 0.84166 0.0
H1343 H 0.68018 0.86334 0.77613 0.0
H1344 H 0.57797 0.78393 0.79574 0.0
H1345 H 0.53999 0.73578 0.8126 0.0
H1346 H 0.56828 0.68112 0.77938 0.0
H1347 H 0.60685 0.72903 0.76254 0.0
C1348 C 0.6523 0.83349 0.68548 0.0
C1349 C 0.65729 0.80927 0.67889 0.0
C1350 C 0.64649 0.83538 0.70467 0.0
C1351 C 0.64568 0.81316 0.7176 0.0
C1352 C 0.64944 0.78837 0.71085 0.0
C1353 C 0.65516 0.78644 0.6918 0.0
C1354 C 0.64269 0.81607 0.73831 0.0
C1355 C 0.61987 0.7897 0.74827 0.0
C1356 C 0.66397 0.84337 0.74852 0.0
C1357 C 0.68958 0.8715 0.73909 0.0
C1358 C 0.71273 0.86931 0.72862 0.0
C1359 C 0.73665 0.89591 0.71962 0.0
C1360 C 0.73785 0.92489 0.72117 0.0
C1361 C 0.71518 0.92735 0.73177 0.0
C1362 C 0.69116 0.9008 0.74076 0.0
C1363 C 0.66519 0.79187 0.82308 0.0
C1364 C 0.66086 0.80991 0.83684 0.0
C1365 C 0.65814 0.79355 0.80424 0.0
C1366 C 0.64693 0.81359 0.79859 0.0
C1367 C 0.64222 0.83154 0.81226 0.0
C1368 C 0.64873 0.82938 0.83135 0.0
C1369 C 0.64136 0.81589 0.77821 0.0
C1370 C 0.66269 0.84309 0.76833 0.0
C1371 C 0.61901 0.7892 0.76806 0.0
C1372 C 0.59542 0.76016 0.7779 0.0
C1373 C 0.57624 0.76168 0.79209 0.0
C1374 C 0.55459 0.73442 0.80165 0.0
C1375 C 0.55174 0.70542 0.79708 0.0
C1376 C 0.5705 0.70361 0.7829 0.0
C1377 C 0.59223 0.73081 0.77332 0.0
H1378 H 0.53498 0.68434 0.8045 0.0
H1379 H 0.75639 0.94546 0.7142 0.0
H1380 H 0.2118 0.89467 0.9598 0.0
H1381 H 0.22485 0.92931 0.98737 0.0
H1382 H 0.31108 0.99782 0.96045 0.0
H1383 H 0.29893 0.96332 0.93355 0.0
H1384 H 0.32344 0.99616 0.99502 0.0
H1385 H 0.24249 1.00449 0.9622 0.0
H1386 H 0.19044 0.98508 0.94738 0.0
H1387 H 0.14522 0.94767 1.00049 0.0
H1388 H 0.19706 0.96652 0.0156 0.0
H1389 H 0.35735 0.1283 0.05315 0.0
H1390 H 0.34065 0.09487 0.02479 0.0
H1391 H 0.26531 0.0199 0.05632 0.0
H1392 H 0.28196 0.05277 0.08447 0.0
H1393 H 0.24694 0.02561 0.01948 0.0
H1394 H 0.33124 0.01891 0.05138 0.0
H1395 H 0.38464 0.0415 0.06487 0.0
H1396 H 0.42501 0.08011 0.01089 0.0
H1397 H 0.3718 0.05812 0.99715 0.0
C1398 C 0.23371 0.91693 0.95991 0.0
C1399 C 0.25419 0.92611 0.94438 0.0
C1400 C 0.24104 0.93691 0.97561 0.0
C1401 C 0.26881 0.96659 0.97597 0.0
C1402 C 0.28955 0.9752 0.96066 0.0
C1403 C 0.28242 0.9553 0.94517 0.0
C1404 C 0.27652 0.9891 0.992 0.0
C1405 C 0.30673 1.00279 1.00015 0.0
C1406 C 0.25485 0.99784 0.99896 0.0
C1407 C 0.22364 0.98663 0.98999 0.0
C1408 C 0.22144 0.99193 0.9707 0.0
C1409 C 0.19199 0.98106 0.96225 0.0
C1410 C 0.16455 0.9651 0.97298 0.0
C1411 C 0.16651 0.96002 0.9922 0.0
C1412 C 0.19593 0.97081 1.00072 0.0
C1413 C 0.33688 0.10493 0.05387 0.0
C1414 C 0.32114 0.09309 0.07106 0.0
C1415 C 0.32743 0.08578 0.03772 0.0
C1416 C 0.30184 0.0547 0.03846 0.0
C1417 C 0.28507 0.04368 0.05535 0.0
C1418 C 0.29475 0.06251 0.07147 0.0
C1419 C 0.29381 0.03266 0.02224 0.0
C1420 C 0.26357 0.01899 0.01419 0.0
C1421 C 0.3156 0.02433 0.0151 0.0
C1422 C 0.34756 0.03716 0.0233 0.0
C1423 C 0.35151 0.0324 0.04243 0.0
C1424 C 0.38173 0.04507 0.05011 0.0
C1425 C 0.4082 0.0623 0.03875 0.0
C1426 C 0.40449 0.0668 0.01968 0.0
C1427 C 0.37431 0.05423 0.01193 0.0
H1428 H 0.43159 0.0721 0.04473 0.0
H1429 H 0.14179 0.95677 0.96641 0.0
H1430 H 0.74017 0.68531 0.43707 0.0
H1431 H 0.72765 0.70741 0.46404 0.0
H1432 H 0.8169 0.73154 0.48949 0.0
H1433 H 0.8299 0.70929 0.46216 0.0
H1434 H 0.76741 0.70757 0.51557 0.0
H1435 H 0.80968 0.78764 0.46884 0.0
H1436 H 0.81576 0.81031 0.43706 0.0
H1437 H 0.72027 0.79146 0.43852 0.0
H1438 H 0.71342 0.76815 0.47023 0.0
H1439 H 0.7642 0.8117 0.5821 0.0
H1440 H 0.77971 0.7931 0.5547 0.0
H1441 H 0.6893 0.76325 0.52901 0.0
H1442 H 0.67329 0.78197 0.55673 0.0
H1443 H 0.74135 0.79172 0.50312 0.0
H1444 H 0.69997 0.70963 0.55022 0.0
H1445 H 0.69645 0.68935 0.58248 0.0
H1446 H 0.79407 0.71527 0.58053 0.0
H1447 H 0.79827 0.73607 0.54831 0.0
C1448 C 0.75722 0.69507 0.4484 0.0
C1449 C 0.78625 0.69568 0.4473 0.0
C1450 C 0.74998 0.70784 0.46385 0.0
C1451 C 0.7715 0.7217 0.47869 0.0
C1452 C 0.79996 0.72114 0.47815 0.0
C1453 C 0.80735 0.70837 0.46254 0.0
C1454 C 0.76419 0.73731 0.49436 0.0
C1455 C 0.76219 0.72628 0.51286 0.0
C1456 C 0.75686 0.76147 0.49086 0.0
C1457 C 0.76094 0.77585 0.47187 0.0
C1458 C 0.78988 0.78808 0.46234 0.0
C1459 C 0.79348 0.80108 0.44434 0.0
C1460 C 0.76839 0.80224 0.43575 0.0
C1461 C 0.73968 0.7905 0.44518 0.0
C1462 C 0.73592 0.77741 0.46319 0.0
C1463 C 0.74754 0.80153 0.5706 0.0
C1464 C 0.71726 0.79814 0.57178 0.0
C1465 C 0.75654 0.79082 0.55489 0.0
C1466 C 0.73556 0.77628 0.53988 0.0
C1467 C 0.70588 0.77429 0.54046 0.0
C1468 C 0.69675 0.78503 0.55631 0.0
C1469 C 0.74428 0.76174 0.52425 0.0
C1470 C 0.74657 0.77301 0.50578 0.0
C1471 C 0.75221 0.73803 0.52779 0.0
C1472 C 0.74949 0.7246 0.54691 0.0
C1473 C 0.72072 0.71111 0.5567 0.0
C1474 C 0.7186 0.69952 0.57497 0.0
C1475 C 0.74504 0.70108 0.58356 0.0
C1476 C 0.77362 0.71409 0.57386 0.0
C1477 C 0.77587 0.72573 0.55557 0.0
H1478 H 0.74337 0.69217 0.59773 0.0
H1479 H 0.77122 0.8123 0.4218 0.0
H1480 H 0.13093 0.35226 0.96225 0.0
H1481 H 0.09577 0.33211 0.98965 0.0
H1482 H 0.04239 0.24187 0.96232 0.0
H1483 H 0.07672 0.26251 0.9348 0.0
H1484 H 1.00331 0.25673 0.97425 0.0
H1485 H 0.08948 0.25478 1.00395 0.0
H1486 H 0.14406 0.27437 0.01473 0.0
H1487 H 0.14028 0.34587 0.04749 0.0
H1488 H 0.08577 0.32691 0.03677 0.0
H1489 H 0.90555 0.18811 0.05742 0.0
H1490 H 0.9416 0.19941 0.03066 0.0
H1491 H 0.99577 0.29628 0.04831 0.0
H1492 H 0.96034 0.28527 0.07476 0.0
H1493 H 0.03379 0.27257 0.04165 0.0
H1494 H 0.94621 0.27308 0.00955 0.0
H1495 H 0.89093 0.24966 0.99915 0.0
H1496 H 0.89731 0.17553 0.97116 0.0
H1497 H 0.9525 0.19827 0.98162 0.0
C1498 C 0.11232 0.32786 0.96244 0.0
C1499 C 0.10681 0.30877 0.94658 0.0
C1500 C 0.09208 0.31628 0.97809 0.0
C1501 C 0.06623 0.28526 0.97825 0.0
C1502 C 0.06189 0.26586 0.96266 0.0
C1503 C 0.08175 0.27755 0.94699 0.0
C1504 C 0.04226 0.27381 0.99377 0.0
C1505 C 1.0101 0.25974 0.98899 0.0
C1506 C 0.0507 0.27784 0.0131 0.0
C1507 C 0.08363 0.28961 0.0194 0.0
C1508 C 0.10038 0.27486 0.01332 0.0
C1509 C 0.13128 0.28581 0.01945 0.0
C1510 C 0.14566 0.31142 0.03173 0.0
C1511 C 0.12913 0.32607 0.03795 0.0
C1512 C 0.09822 0.31521 0.03187 0.0
C1513 C 0.9248 0.2119 0.05535 0.0
C1514 C 0.93 0.23572 0.06829 0.0
C1515 C 0.94551 0.21835 0.04009 0.0
C1516 C 0.97165 0.24874 0.03746 0.0
C1517 C 0.97609 0.2726 0.05006 0.0
C1518 C 0.95558 0.26624 0.06518 0.0
C1519 C 0.99514 0.25606 0.02206 0.0
C1520 C 0.02716 0.26935 0.02689 0.0
C1521 C 0.98654 0.25081 1.0028 0.0
C1522 C 0.95336 0.23717 0.99656 0.0
C1523 C 0.93573 0.25163 1.00133 0.0
C1524 C 0.90443 0.2385 0.99539 0.0
C1525 C 0.89058 0.21106 0.98456 0.0
C1526 C 0.90803 0.19673 0.97959 0.0
C1527 C 0.93932 0.20973 0.98551 0.0
H1528 H 0.86635 0.20095 0.97997 0.0
H1529 H 0.16959 0.31987 0.03645 0.0
H1530 H 0.33269 0.13289 0.45943 0.0
H1531 H 0.31267 0.10125 0.48844 0.0
H1532 H 0.29323 0.01784 0.45755 0.0
H1533 H 0.31274 0.04863 0.42898 0.0
H1534 H 0.24471 1.00608 0.48036 0.0
H1535 H 0.3585 0.05598 0.48517 0.0
H1536 H 0.4125 0.10145 0.48651 0.0
H1537 H 0.38815 0.13638 0.53527 0.0
H1538 H 0.33387 0.09128 0.53407 0.0
H1539 H 0.22747 0.89725 0.55351 0.0
H1540 H 0.24174 0.93109 0.52538 0.0
H1541 H 0.27166 0.01248 0.56093 0.0
H1542 H 0.25888 0.97925 0.58871 0.0
H1543 H 0.31339 0.02742 0.53621 0.0
H1544 H 0.20072 0.977 0.53308 0.0
H1545 H 0.1462 0.93246 0.53196 0.0
H1546 H 0.16666 0.89989 0.48073 0.0
H1547 H 0.22145 0.944 0.48168 0.0
C1548 C 0.32416 0.10784 0.45888 0.0
C1549 C 0.32468 0.09352 0.44185 0.0
C1550 C 0.31274 0.08976 0.47545 0.0
C1551 C 0.3015 0.05708 0.47521 0.0
C1552 C 0.30163 0.04288 0.45816 0.0
C1553 C 0.31311 0.06077 0.44178 0.0
C1554 C 0.29013 0.03727 0.49256 0.0
C1555 C 0.25976 1.01065 0.49257 0.0
C1556 C 0.30944 0.04347 0.50865 0.0
C1557 C 0.34207 0.07048 0.5094 0.0
C1558 C 0.36461 0.07349 0.49609 0.0
C1559 C 0.39527 0.09917 0.49684 0.0
C1560 C 0.40372 0.12184 0.51093 0.0
C1561 C 0.38155 0.11883 0.52434 0.0
C1562 C 0.35085 0.09322 0.52364 0.0
C1563 C 0.23688 0.92232 0.55522 0.0
C1564 C 0.24234 0.93559 0.5733 0.0
C1565 C 0.24494 0.94171 0.53915 0.0
C1566 C 0.25776 0.97456 0.54091 0.0
C1567 C 0.2622 0.98742 0.55904 0.0
C1568 C 0.2548 0.96829 0.57497 0.0
C1569 C 0.26779 0.99597 0.52413 0.0
C1570 C 0.29804 0.02289 0.52417 0.0
C1571 C 0.24821 0.99017 0.50816 0.0
C1572 C 0.21527 0.96364 0.50755 0.0
C1573 C 0.19366 0.9602 0.52165 0.0
C1574 C 0.1627 0.93506 0.52103 0.0
C1575 C 0.15299 0.91331 0.50631 0.0
C1576 C 0.17422 0.91672 0.49214 0.0
C1577 C 0.20522 0.9418 0.4927 0.0
H1578 H 0.12901 0.89386 0.50586 0.0
H1579 H 0.42747 0.1417 0.51149 0.0
H1580 H 0.74844 0.69369 0.0843 0.0
H1581 H 0.7348 0.71262 0.05634 0.0
H1582 H 0.81873 0.72557 0.02869 0.0
H1583 H 0.83334 0.7072 0.05733 0.0
H1584 H 0.81066 0.77478 0.02178 0.0
H1585 H 0.7446 0.66391 0.01689 0.0
H1586 H 0.70671 0.61002 0.02738 0.0
H1587 H 0.63717 0.63729 0.03707 0.0
H1588 H 0.6748 0.69149 0.02689 0.0
H1589 H 0.75508 0.78288 0.92985 0.0
H1590 H 0.77302 0.76861 0.95835 0.0
H1591 H 0.69999 0.77192 0.99027 0.0
H1592 H 0.68213 0.78696 0.96152 0.0
H1593 H 0.70324 0.71463 0.99442 0.0
H1594 H 0.77157 0.82655 0.99831 0.0
H1595 H 0.81019 0.87909 0.98624 0.0
H1596 H 0.87635 0.84751 0.97625 0.0
H1597 H 0.83793 0.79462 0.98802 0.0
C1598 C 0.76412 0.70029 0.07231 0.0
C1599 C 0.79202 0.69864 0.07314 0.0
C1600 C 0.75609 0.71105 0.05619 0.0
C1601 C 0.77535 0.72009 0.04018 0.0
C1602 C 0.80334 0.71858 0.04083 0.0
C1603 C 0.81158 0.70788 0.05716 0.0
C1604 C 0.7661 0.73158 0.0231 0.0
C1605 C 0.78734 0.76135 0.01563 0.0
C1606 C 0.73543 0.71447 0.01519 0.0
C1607 C 0.71264 0.68186 0.02127 0.0
C1608 C 0.72131 0.65849 0.02139 0.0
C1609 C 0.69986 0.62787 0.02726 0.0
C1610 C 0.66958 0.62026 0.03293 0.0
C1611 C 0.66065 0.64323 0.03269 0.0
C1612 C 0.68202 0.6739 0.02685 0.0
C1613 C 0.74303 0.78099 0.94299 0.0
C1614 C 0.71712 0.78598 0.94346 0.0
C1615 C 0.75341 0.77291 0.95929 0.0
C1616 C 0.73792 0.76919 0.97647 0.0
C1617 C 0.71233 0.77471 0.97714 0.0
C1618 C 0.70226 0.78348 0.96079 0.0
C1619 C 0.74764 0.75785 0.99332 0.0
C1620 C 0.72651 0.72802 1.00065 0.0
C1621 C 0.77852 0.77468 1.00087 0.0
C1622 C 0.80175 0.80652 0.99389 0.0
C1623 C 0.79425 0.83072 0.99339 0.0
C1624 C 0.81612 0.86059 0.98663 0.0
C1625 C 0.84567 0.86661 0.98043 0.0
C1626 C 0.85344 0.8428 0.98104 0.0
C1627 C 0.83163 0.81288 0.98777 0.0
H1628 H 0.86258 0.88975 0.9752 0.0
H1629 H 0.65301 0.59654 0.03747 0.0
H1630 H 0.12566 0.30663 0.56083 0.0
H1631 H 0.09152 0.28609 0.53292 0.0
H1632 H 0.04151 0.3334 0.55027 0.0
H1633 H 0.07483 0.35322 0.57812 0.0
H1634 H 1.00065 0.27592 0.54119 0.0
H1635 H 0.09431 0.35834 0.51187 0.0
H1636 H 0.15069 0.38729 0.50352 0.0
H1637 H 0.14141 0.30482 0.47651 0.0
H1638 H 0.08504 0.27525 0.48491 0.0
H1639 H 0.91265 0.25654 0.45613 0.0
H1640 H 0.94698 0.27619 0.48397 0.0
H1641 H 0.99599 0.22835 0.46572 0.0
H1642 H 0.96245 0.20935 0.43792 0.0
H1643 H 0.0374 0.28539 0.47527 0.0
H1644 H 0.94388 0.20304 0.50431 0.0
H1645 H 0.88751 0.17382 0.51267 0.0
H1646 H 0.89654 0.25578 0.54023 0.0
H1647 H 0.95289 0.28562 0.53183 0.0
C1648 C 0.10775 0.31308 0.55848 0.0
C1649 C 0.103 0.33155 0.57174 0.0
C1650 C 0.08816 0.30128 0.54252 0.0
C1651 C 0.06375 0.30812 0.53938 0.0
C1652 C 0.05985 0.32746 0.55234 0.0
C1653 C 0.07912 0.33895 0.56827 0.0
C1654 C 0.04137 0.29438 0.52313 0.0
C1655 C 1.00876 0.27838 0.52675 0.0
C1656 C 0.05167 0.29674 0.50427 0.0
C1657 C 0.08554 0.3145 0.49919 0.0
C1658 C 0.10435 0.34631 0.50428 0.0
C1659 C 0.13629 0.36284 0.49951 0.0
C1660 C 0.14964 0.34788 0.48954 0.0
C1661 C 0.13105 0.31637 0.48426 0.0
C1662 C 0.0991 0.29972 0.48901 0.0
C1663 C 0.93036 0.24976 0.45826 0.0
C1664 C 0.93472 0.23136 0.44476 0.0
C1665 C 0.95006 0.26105 0.47419 0.0
C1666 C 0.97424 0.2538 0.47706 0.0
C1667 C 0.97781 0.23457 0.46386 0.0
C1668 C 0.9584 0.22354 0.44796 0.0
C1669 C 0.99669 0.26705 0.49332 0.0
C1670 C 0.02929 0.28292 0.48971 0.0
C1671 C 0.98639 0.26455 0.51219 0.0
C1672 C 0.95253 0.24665 0.51727 0.0
C1673 C 0.93379 0.2149 0.51203 0.0
C1674 C 0.90185 0.19821 0.5168 0.0
C1675 C 0.88843 0.21295 0.52693 0.0
C1676 C 0.90695 0.2444 0.53236 0.0
C1677 C 0.93889 0.2612 0.52761 0.0
H1678 H 0.8637 0.19999 0.53061 0.0
H1679 H 0.17437 0.36072 0.48586 0.0
H1680 H 0.67544 0.14756 0.14623 0.0
H1681 H 0.62295 0.14019 0.15221 0.0
H1682 H 0.62371 0.17926 0.09758 0.0
H1683 H 0.67645 0.18758 0.09175 0.0
H1684 H 0.59963 0.20095 0.12329 0.0
H1685 H 0.58437 0.09904 0.10577 0.0
H1686 H 0.59189 0.05308 0.10871 0.0
H1687 H 0.55388 0.03602 0.1647 0.0
H1688 H 0.54651 0.08216 0.16218 0.0
H1689 H 0.44377 0.14387 0.09799 0.0
H1690 H 0.49602 0.15009 0.10056 0.0
H1691 H 0.47723 0.11751 0.15807 0.0
H1692 H 0.42416 0.11121 0.15565 0.0
H1693 H 0.51061 0.09368 0.13649 0.0
H1694 H 0.51937 0.19229 0.15187 0.0
H1695 H 0.50975 0.23671 0.14755 0.0
H1696 H 0.55929 0.25972 0.0949 0.0
H1697 H 0.56868 0.21503 0.09871 0.0
C1698 C 0.66464 0.15502 0.13559 0.0
C1699 C 0.68018 0.168 0.11844 0.0
C1700 C 0.63446 0.1505 0.13897 0.0
C1701 C 0.61909 0.15876 0.12526 0.0
C1702 C 0.63495 0.17257 0.10837 0.0
C1703 C 0.66505 0.17706 0.10499 0.0
C1704 C 0.58626 0.15247 0.12814 0.0
C1705 C 0.5802 0.17747 0.12611 0.0
C1706 C 0.56087 0.12199 0.13236 0.0
C1707 C 0.56525 0.09426 0.13388 0.0
C1708 C 0.57786 0.08564 0.11877 0.0
C1709 C 0.58205 0.05953 0.12034 0.0
C1710 C 0.57347 0.0417 0.1369 0.0
C1711 C 0.56058 0.04989 0.1519 0.0
C1712 C 0.55638 0.07601 0.1504 0.0
C1713 C 0.45045 0.13772 0.1112 0.0
C1714 C 0.42978 0.12734 0.1267 0.0
C1715 C 0.48047 0.14137 0.11264 0.0
C1716 C 0.4908 0.13487 0.1296 0.0
C1717 C 0.46978 0.12286 0.14487 0.0
C1718 C 0.43946 0.1192 0.14345 0.0
C1719 C 0.52403 0.14201 0.13121 0.0
C1720 C 0.53016 0.11725 0.13405 0.0
C1721 C 0.54951 0.17271 0.12769 0.0
C1722 C 0.54456 0.20013 0.12553 0.0
C1723 C 0.52806 0.20669 0.13931 0.0
C1724 C 0.52264 0.23193 0.13695 0.0
C1725 C 0.53386 0.251 0.12095 0.0
C1726 C 0.55061 0.24492 0.10729 0.0
C1727 C 0.55601 0.21964 0.10955 0.0
H1728 H 0.5296 0.2705 0.11914 0.0
H1729 H 0.57672 0.02149 0.1381 0.0
H1730 H 0.69681 0.61595 0.38238 0.0
H1731 H 0.6477 0.56476 0.381 0.0
H1732 H 0.70118 0.51705 0.38632 0.0
H1733 H 0.74991 0.56772 0.38796 0.0
H1734 H 0.65199 0.48891 0.35956 0.0
H1735 H 0.66912 0.52617 0.42401 0.0
H1736 H 0.67772 0.56459 0.44894 0.0
H1737 H 0.58977 0.55912 0.43496 0.0
H1738 H 0.58089 0.52098 0.40974 0.0
H1739 H 0.54307 0.33597 0.39323 0.0
H1740 H 0.58753 0.38899 0.38794 0.0
H1741 H 0.52543 0.42723 0.39294 0.0
H1742 H 0.48098 0.37435 0.39836 0.0
H1743 H 0.57648 0.46218 0.41227 0.0
H1744 H 0.55622 0.42187 0.34976 0.0
H1745 H 0.54703 0.38417 0.32427 0.0
H1746 H 0.63907 0.39604 0.33324 0.0
H1747 H 0.64865 0.43349 0.35898 0.0
C1748 C 0.69805 0.59453 0.38296 0.0
C1749 C 0.72721 0.59589 0.38541 0.0
C1750 C 0.67001 0.56531 0.38225 0.0
C1751 C 0.67074 0.53703 0.38368 0.0
C1752 C 0.69998 0.53847 0.38519 0.0
C1753 C 0.72782 0.56751 0.38621 0.0
C1754 C 0.64122 0.50588 0.38478 0.0
C1755 C 0.63552 0.48296 0.37112 0.0
C1756 C 0.61934 0.49832 0.39961 0.0
C1757 C 0.62454 0.52104 0.41485 0.0
C1758 C 0.65175 0.53337 0.42615 0.0
C1759 C 0.65665 0.55506 0.44035 0.0
C1760 C 0.63435 0.56437 0.44349 0.0
C1761 C 0.60705 0.55193 0.43248 0.0
C1762 C 0.60207 0.53028 0.41824 0.0
C1763 C 0.53879 0.3556 0.39296 0.0
C1764 C 0.50838 0.35079 0.39627 0.0
C1765 C 0.56428 0.38599 0.38992 0.0
C1766 C 0.55994 0.41229 0.38984 0.0
C1767 C 0.52954 0.40748 0.39298 0.0
C1768 C 0.50411 0.37715 0.39613 0.0
C1769 C 0.5872 0.44484 0.3871 0.0
C1770 C 0.5926 0.46807 0.40052 0.0
C1771 C 0.60864 0.45274 0.37193 0.0
C1772 C 0.60304 0.43029 0.35642 0.0
C1773 C 0.57441 0.41627 0.3464 0.0
C1774 C 0.56914 0.39497 0.33189 0.0
C1775 C 0.59242 0.38766 0.32717 0.0
C1776 C 0.62105 0.4017 0.33692 0.0
C1777 C 0.62642 0.42299 0.35146 0.0
H1778 H 0.5883 0.37116 0.31593 0.0
H1779 H 0.63818 0.58116 0.45449 0.0
H1780 H 0.84116 0.27564 0.12968 0.0
H1781 H 0.838 0.32366 0.1303 0.0
H1782 H 0.93949 0.37939 0.12994 0.0
H1783 H 0.94277 0.33092 0.13 0.0
H1784 H 0.91564 0.40677 0.15162 0.0
H1785 H 0.89543 0.36546 0.08897 0.0
H1786 H 0.86963 0.32475 0.06452 0.0
H1787 H 0.77998 0.31483 0.0788 0.0
H1788 H 0.8052 0.35519 0.10352 0.0
H1789 H 0.91937 0.54591 0.11721 0.0
H1790 H 0.92534 0.49971 0.12159 0.0
H1791 H 0.8244 0.44066 0.125 0.0
H1792 H 0.8182 0.48676 0.12014 0.0
H1793 H 0.84969 0.41601 0.10162 0.0
H1794 H 0.87133 0.45872 0.1643 0.0
H1795 H 0.89832 0.50002 0.18829 0.0
H1796 H 0.98704 0.50868 0.17297 0.0
H1797 H 0.96063 0.46771 0.1487 0.0
C1798 C 0.86287 0.2981 0.12992 0.0
C1799 C 0.89224 0.2995 0.12955 0.0
C1800 C 0.86102 0.3256 0.13019 0.0
C1801 C 0.88847 0.35526 0.12961 0.0
C1802 C 0.91794 0.3568 0.13023 0.0
C1803 C 0.91982 0.32912 0.13028 0.0
C1804 C 0.88608 0.38433 0.12754 0.0
C1805 C 0.90158 0.40897 0.14053 0.0
C1806 C 0.86736 0.38716 0.11323 0.0
C1807 C 0.85218 0.36317 0.0982 0.0
C1808 C 0.87019 0.35447 0.08696 0.0
C1809 C 0.85567 0.33147 0.07305 0.0
C1810 C 0.82318 0.31716 0.07014 0.0
C1811 C 0.80515 0.32591 0.08109 0.0
C1812 C 0.81954 0.34887 0.09504 0.0
C1813 C 0.89839 0.52309 0.11884 0.0
C1814 C 0.86827 0.52009 0.11824 0.0
C1815 C 0.90188 0.4967 0.12154 0.0
C1816 C 0.87535 0.46666 0.1238 0.0
C1817 C 0.84525 0.46359 0.12336 0.0
C1818 C 0.84173 0.49001 0.12071 0.0
C1819 C 0.87892 0.4383 0.12583 0.0
C1820 C 0.86373 0.41382 0.11273 0.0
C1821 C 0.89814 0.43582 0.13992 0.0
C1822 C 0.91403 0.46035 0.15456 0.0
C1823 C 0.89663 0.4696 0.16595 0.0
C1824 C 0.91182 0.49292 0.17961 0.0
C1825 C 0.94439 0.50702 0.18212 0.0
C1826 C 0.96182 0.49776 0.171 0.0
C1827 C 0.94675 0.47447 0.1573 0.0
H1828 H 0.9561 0.52507 0.1927 0.0
H1829 H 0.81197 0.29934 0.05937 0.0
H1830 H 0.41807 0.09612 0.36366 0.0
H1831 H 0.46995 0.09963 0.36161 0.0
H1832 H 0.50656 0.17315 0.40341 0.0
H1833 H 0.45582 0.17008 0.40546 0.0
H1834 H 0.54655 0.18914 0.37478 0.0
H1835 H 0.48682 0.09686 0.414 0.0
H1836 H 0.44289 0.04356 0.42093 0.0
H1837 H 0.46936 1.00662 0.37405 0.0
H1838 H 0.51323 0.05983 0.36671 0.0
H1839 H 0.68401 0.20068 0.41348 0.0
H1840 H 0.63092 0.19138 0.40772 0.0
H1841 H 0.61506 0.11961 0.36716 0.0
H1842 H 0.668 0.12807 0.37334 0.0
H1843 H 0.56423 0.10019 0.38945 0.0
H1844 H 0.62821 0.19195 0.35277 0.0
H1845 H 0.67251 0.24526 0.34638 0.0
H1846 H 0.6381 0.28347 0.38832 0.0
H1847 H 0.59383 0.23032 0.39517 0.0
C1848 C 0.43718 0.11294 0.37243 0.0
C1849 C 0.43251 0.13274 0.38472 0.0
C1850 C 0.46683 0.1149 0.37127 0.0
C1851 C 0.4923 0.13669 0.38238 0.0
C1852 C 0.4875 0.15629 0.3946 0.0
C1853 C 0.45817 0.15433 0.39579 0.0
C1854 C 0.52421 0.13977 0.38154 0.0
C1855 C 0.55037 0.16968 0.37806 0.0
C1856 C 0.52935 0.11428 0.38525 0.0
C1857 C 0.50303 0.08235 0.38966 0.0
C1858 C 0.4831 0.07741 0.40507 0.0
C1859 C 0.45825 0.04721 0.4091 0.0
C1860 C 0.45327 0.02173 0.3979 0.0
C1861 C 0.47319 0.02639 0.38269 0.0
C1862 C 0.49806 0.05655 0.37859 0.0
C1863 C 0.66925 0.18276 0.4034 0.0
C1864 C 0.68045 0.16514 0.39389 0.0
C1865 C 0.6389 0.17767 0.39997 0.0
C1866 C 0.61895 0.15503 0.38681 0.0
C1867 C 0.62996 0.1373 0.37732 0.0
C1868 C 0.6604 0.1424 0.38074 0.0
C1869 C 0.58657 0.1498 0.38327 0.0
C1870 C 0.56039 0.11955 0.38588 0.0
C1871 C 0.58135 0.175 0.37876 0.0
C1872 C 0.6078 0.20709 0.37457 0.0
C1873 C 0.63019 0.21169 0.36072 0.0
C1874 C 0.65529 0.24189 0.35701 0.0
C1875 C 0.65815 0.26773 0.36696 0.0
C1876 C 0.63586 0.26343 0.38062 0.0
C1877 C 0.61073 0.23327 0.38441 0.0
H1878 H 0.6776 0.29109 0.36407 0.0
H1879 H 0.43403 0.99837 0.40104 0.0
H1880 H 0.54816 0.34816 0.09613 0.0
H1881 H 0.59149 0.40102 0.10284 0.0
H1882 H 0.54045 0.40763 0.15033 0.0
H1883 H 0.4964 0.35485 0.14335 0.0
H1884 H 0.56722 0.46195 0.12979 0.0
H1885 H 0.60231 0.39583 0.15728 0.0
H1886 H 0.61349 0.35208 0.15829 0.0
H1887 H 0.68013 0.39446 0.11328 0.0
H1888 H 0.66899 0.43823 0.11178 0.0
H1889 H 0.71041 0.60768 0.15455 0.0
H1890 H 0.66287 0.55516 0.15642 0.0
H1891 H 0.69589 0.52455 0.1092 0.0
H1892 H 0.74274 0.57584 0.10737 0.0
H1893 H 0.67652 0.48176 0.13588 0.0
H1894 H 0.63616 0.54329 0.10545 0.0
H1895 H 0.62436 0.58658 0.1034 0.0
H1896 H 0.56795 0.55287 0.15342 0.0
H1897 H 0.57976 0.50957 0.15589 0.0
C1898 C 0.546 0.36084 0.10797 0.0
C1899 C 0.51867 0.34713 0.11918 0.0
C1900 C 0.57097 0.39104 0.11189 0.0
C1901 C 0.56948 0.40833 0.12723 0.0
C1902 C 0.54225 0.39479 0.13846 0.0
C1903 C 0.5172 0.36446 0.13455 0.0
C1904 C 0.59635 0.44055 0.13126 0.0
C1905 C 0.59106 0.46623 0.13149 0.0
C1906 C 0.62757 0.44633 0.13333 0.0
C1907 C 0.63465 0.42023 0.13435 0.0
C1908 C 0.61921 0.39574 0.14752 0.0
C1909 C 0.62555 0.37094 0.14819 0.0
C1910 C 0.64747 0.37047 0.13584 0.0
C1911 C 0.66315 0.39485 0.12283 0.0
C1912 C 0.65686 0.41968 0.12208 0.0
C1913 C 0.70738 0.58975 0.14454 0.0
C1914 C 0.73065 0.59615 0.1309 0.0
C1915 C 0.68019 0.55973 0.1456 0.0
C1916 C 0.67573 0.5357 0.13296 0.0
C1917 C 0.69876 0.54239 0.11925 0.0
C1918 C 0.72569 0.57202 0.11822 0.0
C1919 C 0.6476 0.50332 0.13372 0.0
C1920 C 0.65264 0.4775 0.13448 0.0
C1921 C 0.61626 0.4975 0.13248 0.0
C1922 C 0.60916 0.52346 0.13099 0.0
C1923 C 0.62146 0.54528 0.1161 0.0
C1924 C 0.61473 0.56978 0.11484 0.0
C1925 C 0.59551 0.57254 0.12831 0.0
C1926 C 0.5829 0.55074 0.14303 0.0
C1927 C 0.58959 0.52622 0.14436 0.0
H1928 H 0.59031 0.59152 0.12731 0.0
H1929 H 0.65234 0.35124 0.13637 0.0
H1930 H 0.90826 0.53846 0.42187 0.0
H1931 H 0.91683 0.49388 0.41774 0.0
H1932 H 0.83124 0.44569 0.38512 0.0
H1933 H 0.82198 0.48991 0.3897 0.0
H1934 H 0.83488 0.40658 0.4102 0.0
H1935 H 0.90397 0.48017 0.36406 0.0
H1936 H 0.94627 0.53138 0.35243 0.0
H1937 H 1.01246 0.52537 0.38953 0.0
H1938 H 0.97044 0.47429 0.40158 0.0
H1939 H 0.85457 0.2853 0.37389 0.0
H1940 H 0.85098 0.33296 0.37598 0.0
H1941 H 0.93743 0.3781 0.40799 0.0
H1942 H 0.94167 0.33032 0.40545 0.0
H1943 H 0.93432 0.41919 0.38391 0.0
H1944 H 0.86498 0.34515 0.42986 0.0
H1945 H 0.82277 0.29332 0.44077 0.0
H1946 H 0.75686 0.30009 0.4038 0.0
H1947 H 0.79881 0.35178 0.39246 0.0
C1948 C 0.89108 0.5183 0.41393 0.0
C1949 C 0.86433 0.51779 0.40618 0.0
C1950 C 0.89622 0.49293 0.41141 0.0
C1951 C 0.87488 0.4665 0.40094 0.0
C1952 C 0.84812 0.46585 0.3932 0.0
C1953 C 0.84296 0.49126 0.39571 0.0
C1954 C 0.88014 0.43929 0.39843 0.0
C1955 C 0.85646 0.40931 0.40422 0.0
C1956 C 0.90865 0.44288 0.3911 0.0
C1957 C 0.93398 0.47355 0.38386 0.0
C1958 C 0.92749 0.48989 0.36985 0.0
C1959 C 0.95143 0.51887 0.36316 0.0
C1960 C 0.98201 0.53166 0.37027 0.0
C1961 C 0.98875 0.51545 0.38406 0.0
C1962 C 0.96488 0.48647 0.39081 0.0
C1963 C 0.87303 0.30543 0.38126 0.0
C1964 C 0.89824 0.3039 0.38971 0.0
C1965 C 0.87085 0.33268 0.3825 0.0
C1966 C 0.89345 0.3589 0.39258 0.0
C1967 C 0.91955 0.35807 0.40027 0.0
C1968 C 0.92198 0.3308 0.3988 0.0
C1969 C 0.88898 0.3865 0.39557 0.0
C1970 C 0.91279 0.41652 0.38993 0.0
C1971 C 0.86058 0.38298 0.40305 0.0
C1972 C 0.83511 0.35224 0.41021 0.0
C1973 C 0.84152 0.33553 0.424 0.0
C1974 C 0.81764 0.30617 0.43026 0.0
C1975 C 0.78717 0.29338 0.42295 0.0
C1976 C 0.78048 0.31001 0.40944 0.0
C1977 C 0.80429 0.33936 0.4031 0.0
H1978 H 0.76873 0.27061 0.42778 0.0
H1979 H 1.00052 0.5541 0.36508 0.0
H1980 H 0.12717 0.65386 0.60444 0.0
H1981 H 0.1195 0.60127 0.60978 0.0
H1982 H 0.21261 0.64197 0.63387 0.0
H1983 H 0.2208 0.69487 0.62811 0.0
H1984 H 0.20166 0.59552 0.60921 0.0
H1985 H 0.14674 0.60736 0.66171 0.0
H1986 H 0.10837 0.61858 0.67711 0.0
H1987 H 0.03277 0.54231 0.64699 0.0
H1988 H 0.07075 0.5309 0.6312 0.0
H1989 H 0.18938 0.45508 0.64153 0.0
H1990 H 0.19452 0.50726 0.64158 0.0
H1991 H 0.09814 0.46677 0.62277 0.0
H1992 H 0.09247 0.41402 0.62384 0.0
H1993 H 0.11073 0.51349 0.64513 0.0
H1994 H 0.16437 0.5024 0.59173 0.0
H1995 H 0.20179 0.49035 0.57581 0.0
H1996 H 0.27863 0.56478 0.60626 0.0
H1997 H 0.24161 0.57702 0.62255 0.0
C1998 C 0.14615 0.65171 0.61077 0.0
C1999 C 0.17469 0.67873 0.61577 0.0
C2000 C 0.14158 0.62153 0.614 0.0
C2001 C 0.16533 0.61753 0.62242 0.0
C2002 C 0.19387 0.64441 0.62743 0.0
C2003 C 0.19844 0.67466 0.62424 0.0
C2004 C 0.16065 0.58534 0.62551 0.0
C2005 C 0.18204 0.57774 0.61731 0.0
C2006 C 0.13452 0.56175 0.63559 0.0
C2007 C 0.11163 0.56846 0.64515 0.0
C2008 C 0.12196 0.59312 0.65826 0.0
C2009 C 0.10028 0.59949 0.66708 0.0
C2010 C 0.06816 0.58121 0.663 0.0
C2011 C 0.05766 0.55647 0.65012 0.0
C2012 C 0.07925 0.55002 0.64125 0.0
C2013 C 0.16912 0.45729 0.63774 0.0
C2014 C 0.14058 0.43061 0.63259 0.0
C2015 C 0.17215 0.48717 0.63759 0.0
C2016 C 0.14708 0.49128 0.63155 0.0
C2017 C 0.11796 0.46437 0.62733 0.0
C2018 C 0.11467 0.43423 0.62797 0.0
C2019 C 0.15181 0.52364 0.62887 0.0
C2020 C 0.1304 0.53126 0.63707 0.0
C2021 C 0.17777 0.54723 0.61861 0.0
C2022 C 0.20018 0.54045 0.60846 0.0
C2023 C 0.18923 0.51613 0.59507 0.0
C2024 C 0.21037 0.50926 0.58599 0.0
C2025 C 0.24256 0.52674 0.59005 0.0
C2026 C 0.25369 0.55124 0.60314 0.0
C2027 C 0.23265 0.55818 0.61228 0.0
H2028 H 0.25888 0.52133 0.58305 0.0
H2029 H 0.05141 0.58618 0.66984 0.0
H2030 H 0.28928 0.83482 0.88362 0.0
H2031 H 0.33725 0.83157 0.88343 0.0
H2032 H 0.39315 0.93286 0.88128 0.0
H2033 H 0.34462 0.93627 0.88108 0.0
H2034 H 0.41912 0.9042 0.85982 0.0
H2035 H 0.3816 0.89609 0.92288 0.0
H2036 H 0.34189 0.87555 0.94818 0.0
H2037 H 0.32827 0.78282 0.93999 0.0
H2038 H 0.36759 0.80273 0.91443 0.0
H2039 H 0.55751 0.90581 0.89435 0.0
H2040 H 0.51288 0.91412 0.88914 0.0
H2041 H 0.44905 0.81408 0.89331 0.0
H2042 H 0.49356 0.80565 0.89915 0.0
H2043 H 0.42886 0.84558 0.91412 0.0
H2044 H 0.46622 0.85391 0.85064 0.0
H2045 H 0.50561 0.87468 0.82516 0.0
H2046 H 0.52013 0.96754 0.83434 0.0
H2047 H 0.48111 0.94739 0.86007 0.0
C2048 C 0.31174 0.85648 0.88288 0.0
C2049 C 0.31317 0.88585 0.88264 0.0
C2050 C 0.33919 0.85456 0.8828 0.0
C2051 C 0.36887 0.88196 0.88283 0.0
C2052 C 0.3705 0.91139 0.88141 0.0
C2053 C 0.3428 0.91333 0.88127 0.0
C2054 C 0.39772 0.87944 0.88553 0.0
C2055 C 0.42152 0.89182 0.87183 0.0
C2056 C 0.40068 0.86284 0.90106 0.0
C2057 C 0.37738 0.85087 0.91664 0.0
C2058 C 0.37001 0.87129 0.9264 0.0
C2059 C 0.34758 0.85976 0.9408 0.0
C2060 C 0.33252 0.82789 0.94567 0.0
C2061 C 0.33994 0.8075 0.93619 0.0
C2062 C 0.36233 0.8189 0.92177 0.0
C2063 C 0.53397 0.88553 0.89421 0.0
C2064 C 0.52919 0.85504 0.89728 0.0
C2065 C 0.50846 0.89032 0.89102 0.0
C2066 C 0.47753 0.86473 0.89066 0.0
C2067 C 0.47268 0.83422 0.89347 0.0
C2068 C 0.4982 0.8294 0.89666 0.0
C2069 C 0.45013 0.86983 0.88823 0.0
C2070 C 0.42659 0.85802 0.90209 0.0
C2071 C 0.44758 0.88705 0.8729 0.0
C2072 C 0.47097 0.89919 0.85741 0.0
C2073 C 0.47799 0.8788 0.84733 0.0
C2074 C 0.50022 0.89046 0.83283 0.0
C2075 C 0.51542 0.92242 0.82817 0.0
C2076 C 0.50836 0.94279 0.83798 0.0
C2077 C 0.48618 0.93126 0.85252 0.0
H2078 H 0.53262 0.9314 0.81693 0.0
H2079 H 0.31514 0.819 0.95681 0.0
H2080 H 0.5793 0.74197 0.60812 0.0
H2081 H 0.52875 0.69346 0.60795 0.0
H2082 H 0.57098 0.64471 0.63516 0.0
H2083 H 0.62251 0.69358 0.63479 0.0
H2084 H 0.52861 0.60753 0.60937 0.0
H2085 H 0.52721 0.66937 0.66054 0.0
H2086 H 0.53463 0.71738 0.67627 0.0
H2087 H 0.46505 0.71892 0.64004 0.0
H2088 H 0.45753 0.67115 0.6239 0.0
H2089 H 0.37419 0.47998 0.63148 0.0
H2090 H 0.4281 0.52406 0.63473 0.0
H2091 H 0.40222 0.58411 0.60436 0.0
H2092 H 0.34815 0.54034 0.60139 0.0
H2093 H 0.43767 0.61322 0.63539 0.0
H2094 H 0.4426 0.55296 0.58296 0.0
H2095 H 0.43589 0.50497 0.56754 0.0
H2096 H 0.49907 0.49983 0.60757 0.0
H2097 H 0.50583 0.54759 0.62338 0.0
C2098 C 0.57799 0.72094 0.61403 0.0
C2099 C 0.60486 0.72173 0.62171 0.0
C2100 C 0.54895 0.69318 0.61399 0.0
C2101 C 0.54574 0.66556 0.62204 0.0
C2102 C 0.57279 0.66581 0.62903 0.0
C2103 C 0.6022 0.69369 0.62881 0.0
C2104 C 0.5139 0.63695 0.62335 0.0
C2105 C 0.50885 0.60861 0.61539 0.0
C2106 C 0.48792 0.63832 0.63103 0.0
C2107 C 0.49194 0.66676 0.64094 0.0
C2108 C 0.51359 0.68002 0.65586 0.0
C2109 C 0.51781 0.7072 0.66486 0.0
C2110 C 0.50035 0.72122 0.65914 0.0
C2111 C 0.47856 0.70803 0.64446 0.0
C2112 C 0.47427 0.68087 0.6354 0.0
C2113 C 0.37988 0.50266 0.62566 0.0
C2114 C 0.35682 0.50659 0.61613 0.0
C2115 C 0.41081 0.52777 0.62739 0.0
C2116 C 0.41934 0.55734 0.61961 0.0
C2117 C 0.39624 0.56149 0.61041 0.0
C2118 C 0.36538 0.53638 0.60861 0.0
C2119 C 0.45228 0.58408 0.62101 0.0
C2120 C 0.4575 0.61205 0.62956 0.0
C2121 C 0.47838 0.58223 0.61403 0.0
C2122 C 0.47444 0.55363 0.60447 0.0
C2123 C 0.45487 0.54145 0.58856 0.0
C2124 C 0.45109 0.51432 0.57974 0.0
C2125 C 0.46697 0.49931 0.58661 0.0
C2126 C 0.48674 0.51145 0.60229 0.0
C2127 C 0.49057 0.53856 0.61118 0.0
H2128 H 0.46402 0.47831 0.57976 0.0
H2129 H 0.50369 0.74228 0.6661 0.0
H2130 H 0.13549 0.65676 0.8783 0.0
H2131 H 0.1255 0.60312 0.87332 0.0
H2132 H 0.20434 0.62243 0.90917 0.0
H2133 H 0.21481 0.67623 0.91394 0.0
H2134 H 0.20331 0.59007 0.87783 0.0
H2135 H 0.12945 0.58166 0.92553 0.0
H2136 H 0.08655 0.58829 0.93861 0.0
H2137 H 0.02497 0.53168 0.89405 0.0
H2138 H 0.06769 0.52508 0.88055 0.0
H2139 H 0.17725 0.4455 0.91098 0.0
H2140 H 0.18057 0.4964 0.90836 0.0
H2141 H 0.1047 0.45862 0.86792 0.0
H2142 H 0.10115 0.40679 0.87036 0.0
H2143 H 0.10066 0.49867 0.89663 0.0
H2144 H 0.17336 0.50224 0.85097 0.0
H2145 H 0.21594 0.49395 0.83918 0.0
H2146 H 0.27951 0.55885 0.88028 0.0
H2147 H 0.23714 0.56718 0.89252 0.0
C2148 C 0.15096 0.64973 0.88494 0.0
C2149 C 0.17592 0.67083 0.89658 0.0
C2150 C 0.14504 0.61894 0.8822 0.0
C2151 C 0.16397 0.60857 0.891 0.0
C2152 C 0.18936 0.62982 0.90225 0.0
C2153 C 0.19518 0.66052 0.90508 0.0
C2154 C 0.15711 0.57547 0.88888 0.0
C2155 C 0.1809 0.57014 0.88201 0.0
C2156 C 0.12755 0.54927 0.89381 0.0
C2157 C 0.10187 0.55321 0.9019 0.0
C2158 C 0.10685 0.57087 0.91842 0.0
C2159 C 0.08255 0.57457 0.92593 0.0
C2160 C 0.05309 0.5605 0.91713 0.0
C2161 C 0.04783 0.54263 0.90083 0.0
C2162 C 0.07207 0.53888 0.89325 0.0
C2163 C 0.16102 0.44766 0.90154 0.0
C2164 C 0.13893 0.42183 0.89082 0.0
C2165 C 0.16308 0.47698 0.90004 0.0
C2166 C 0.14315 0.48145 0.88781 0.0
C2167 C 0.12039 0.45567 0.87742 0.0
C2168 C 0.11842 0.42611 0.87881 0.0
C2169 C 0.14704 0.51345 0.88592 0.0
C2170 C 0.1228 0.51859 0.89208 0.0
C2171 C 0.17617 0.53951 0.88033 0.0
C2172 C 0.20199 0.5352 0.87274 0.0
C2173 C 0.19637 0.51463 0.85756 0.0
C2174 C 0.22047 0.50993 0.85079 0.0
C2175 C 0.2504 0.52583 0.859 0.0
C2176 C 0.25631 0.54655 0.87394 0.0
C2177 C 0.23227 0.55131 0.88078 0.0
H2178 H 0.26902 0.52212 0.85376 0.0
H2179 H 0.0343 0.56338 0.92297 0.0
H2180 H 0.29146 0.84881 0.61623 0.0
H2181 H 0.33956 0.84631 0.6185 0.0
H2182 H 0.38396 0.93329 0.64969 0.0
H2183 H 0.33521 0.93616 0.6474 0.0
H2184 H 0.42257 0.93126 0.62109 0.0
H2185 H 0.36325 0.86673 0.67265 0.0
H2186 H 0.31605 0.8252 0.68864 0.0
H2187 H 0.3154 0.75564 0.65178 0.0
H2188 H 0.3623 0.79679 0.63534 0.0
H2189 H 0.55408 0.90765 0.63637 0.0
H2190 H 0.50973 0.9163 0.64219 0.0
H2191 H 0.4471 0.82886 0.61429 0.0
H2192 H 0.49116 0.81972 0.60881 0.0
H2193 H 0.42023 0.83532 0.64579 0.0
H2194 H 0.47461 0.89993 0.59205 0.0
H2195 H 0.52041 0.94105 0.57481 0.0
H2196 H 0.52954 1.01008 0.61525 0.0
H2197 H 0.484 0.96925 0.63289 0.0
C2198 C 0.31131 0.86757 0.62362 0.0
C2199 C 0.30931 0.89281 0.63159 0.0
C2200 C 0.33888 0.86594 0.62499 0.0
C2201 C 0.36539 0.8894 0.63442 0.0
C2202 C 0.36376 0.91482 0.64239 0.0
C2203 C 0.33585 0.91638 0.64113 0.0
C2204 C 0.39465 0.88709 0.63542 0.0
C2205 C 0.4223 0.91064 0.62691 0.0
C2206 C 0.39419 0.85987 0.64263 0.0
C2207 C 0.36624 0.83492 0.65268 0.0
C2208 C 0.35295 0.84261 0.66787 0.0
C2209 C 0.32626 0.81913 0.67703 0.0
C2210 C 0.31273 0.78782 0.67123 0.0
C2211 C 0.32592 0.77991 0.65627 0.0
C2212 C 0.35259 0.8033 0.64704 0.0
C2213 C 0.53081 0.89005 0.63166 0.0
C2214 C 0.52632 0.86301 0.62203 0.0
C2215 C 0.50547 0.89518 0.63486 0.0
C2216 C 0.475 0.87342 0.62852 0.0
C2217 C 0.47033 0.84608 0.6193 0.0
C2218 C 0.49565 0.841 0.61603 0.0
C2219 C 0.44801 0.87921 0.63114 0.0
C2220 C 0.42073 0.85623 0.6403 0.0
C2221 C 0.44881 0.90692 0.62449 0.0
C2222 C 0.47616 0.93147 0.61391 0.0
C2223 C 0.48656 0.92383 0.59736 0.0
C2224 C 0.51243 0.94709 0.58749 0.0
C2225 C 0.52794 0.97814 0.59396 0.0
C2226 C 0.51754 0.98601 0.61028 0.0
C2227 C 0.4917 0.96282 0.62021 0.0
H2228 H 0.54796 0.99612 0.5863 0.0
H2229 H 0.29205 0.76969 0.67833 0.0
H2230 H 0.58753 0.73813 0.86679 0.0
H2231 H 0.53491 0.69141 0.86634 0.0
H2232 H 0.56963 0.64065 0.89901 0.0
H2233 H 0.62279 0.68718 0.8986 0.0
H2234 H 0.52645 0.60167 0.87523 0.0
H2235 H 0.53174 0.67883 0.91927 0.0
H2236 H 0.54291 0.73194 0.92841 0.0
H2237 H 0.47339 0.72593 0.88906 0.0
H2238 H 0.46214 0.67294 0.87948 0.0
H2239 H 0.38268 0.48726 0.91627 0.0
H2240 H 0.43544 0.5316 0.91077 0.0
H2241 H 0.39645 0.57629 0.8762 0.0
H2242 H 0.34323 0.53225 0.88215 0.0
H2243 H 0.44105 0.61842 0.89948 0.0
H2244 H 0.43416 0.54019 0.85649 0.0
H2245 H 0.42412 0.48771 0.8468 0.0
H2246 H 0.49683 0.49586 0.88424 0.0
H2247 H 0.50702 0.54823 0.89435 0.0
C2248 C 0.58401 0.71667 0.87342 0.0
C2249 C 0.60911 0.71605 0.88261 0.0
C2250 C 0.55387 0.69008 0.87336 0.0
C2251 C 0.54791 0.66263 0.88312 0.0
C2252 C 0.57346 0.66151 0.89147 0.0
C2253 C 0.60385 0.68801 0.89119 0.0
C2254 C 0.51493 0.63594 0.88551 0.0
C2255 C 0.5079 0.60532 0.88074 0.0
C2256 C 0.49034 0.64062 0.89232 0.0
C2257 C 0.49628 0.67201 0.89855 0.0
C2258 C 0.51889 0.68886 0.91253 0.0
C2259 C 0.52526 0.71896 0.91778 0.0
C2260 C 0.50892 0.73233 0.90929 0.0
C2261 C 0.48605 0.71556 0.89561 0.0
C2262 C 0.47965 0.68548 0.89028 0.0
C2263 C 0.38517 0.50661 0.90764 0.0
C2264 C 0.3585 0.50608 0.89972 0.0
C2265 C 0.41551 0.53188 0.90432 0.0
C2266 C 0.42013 0.55725 0.89286 0.0
C2267 C 0.3936 0.55698 0.88503 0.0
C2268 C 0.36315 0.53163 0.88833 0.0
C2269 C 0.45263 0.58411 0.88931 0.0
C2270 C 0.45957 0.61477 0.89391 0.0
C2271 C 0.47714 0.57946 0.88241 0.0
C2272 C 0.47116 0.54802 0.8763 0.0
C2273 C 0.44785 0.53069 0.86276 0.0
C2274 C 0.44216 0.50098 0.85717 0.0
C2275 C 0.45977 0.48842 0.86493 0.0
C2276 C 0.48318 0.5056 0.87825 0.0
C2277 C 0.48895 0.53531 0.88391 0.0
H2278 H 0.45533 0.46542 0.86059 0.0
H2279 H 0.51394 0.75566 0.91333 0.0
loop_
_geom_bond_atom_site_label_1
_geom_bond_atom_site_label_2
_geom_bond_distance
_geom_bond_site_symmetry_2
_ccdc_geom_bond_type
Tb0 C9 2.764 . S
Tb0 O10 2.325 . S
Tb0 O13 2.303 . S
Tb0 O17 2.322 . S
Tb0 O18 2.349 . S
Tb0 O21 2.415 . S
Tb0 O22 2.399 . S
Tb1 O11 2.322 . S
Tb1 O12 2.349 . S
Tb1 O14 2.415 . S
Tb1 O15 2.399 . S
Tb1 O16 2.325 . S
Tb1 O19 2.303 . S
Tb1 C30 2.764 . S
C2 O18 1.261 . S
C2 O19 1.257 . S
C3 C6 1.358 . S
C3 C7 1.332 . S
C3 C9 1.504 . S
C4 C5 1.373 . S
C4 C8 1.308 . S
C5 C4 1.373 . S
C5 C6 1.429 1_565 S
C5 H32 0.932 . S
C6 C3 1.358 . S
C6 C5 1.429 1_545 S
C6 H33 0.930 . S
C7 C3 1.332 . S
C7 C8 1.394 1_545 S
C7 H34 0.932 . S
C8 C4 1.308 . S
C8 C7 1.394 1_565 S
C8 H35 0.929 . S
C9 Tb0 2.764 . S
C9 C3 1.504 . S
C9 O21 1.239 . S
C9 O22 1.263 . S
O10 Tb0 2.325 . S
O10 C20 1.236 . S
O11 Tb1 2.322 . S
O11 C20 1.257 . S
O12 Tb1 2.349 . S
O12 C23 1.261 . S
O13 Tb0 2.303 . S
O13 C23 1.257 . S
O14 Tb1 2.415 . S
O14 C30 1.239 . S
O15 Tb1 2.399 . S
O15 C30 1.263 . S
O16 Tb1 2.325 . S
O16 C31 1.236 . S
O17 Tb0 2.322 . S
O17 C31 1.257 . S
O18 Tb0 2.349 . S
O18 C2 1.261 . S
O19 Tb1 2.303 . S
O19 C2 1.257 . S
C20 O10 1.236 . S
C20 O11 1.257 . S
O21 Tb0 2.415 . S
O21 C9 1.239 . S
O22 Tb0 2.399 . S
O22 C9 1.263 . S
C23 O12 1.261 . S
C23 O13 1.257 . S
C24 C27 1.358 . S
C24 C28 1.332 . S
C24 C30 1.504 . S
C25 C26 1.373 . S
C25 C29 1.308 . S
C26 C25 1.373 . S
C26 C27 1.429 . S
C26 H36 0.932 . S
C27 C24 1.358 . S
C27 C26 1.429 . S
C27 H37 0.930 . S
C28 C24 1.332 . S
C28 C29 1.394 . S
C28 H38 0.932 . S
C29 C25 1.308 . S
C29 C28 1.394 . S
C29 H39 0.929 . S
C30 Tb1 2.764 . S
C30 O14 1.239 . S
C30 O15 1.263 . S
C30 C24 1.504 . S
C31 O16 1.236 . S
C31 O17 1.257 . S
H32 C5 0.932 . S
H33 C6 0.930 . S
H34 C7 0.932 . S
H35 C8 0.929 . S
H36 C26 0.932 . S
H37 C27 0.930 . S
H38 C28 0.932 . S
H39 C29 0.929 . S
Tb40 C49 2.764 . S
Tb40 O50 2.325 . S
Tb40 O53 2.303 . S
Tb40 O57 2.322 . S
Tb40 O58 2.349 . S
Tb40 O61 2.415 . S
Tb40 O62 2.399 . S
Tb41 O51 2.322 . S
Tb41 O52 2.349 . S
Tb41 O54 2.415 . S
Tb41 O55 2.399 . S
Tb41 O56 2.325 . S
Tb41 O59 2.303 . S
Tb41 C70 2.764 . S
C42 O58 1.261 . S
C42 O59 1.257 . S
C43 C46 1.358 . S
C43 C47 1.332 . S
C43 C49 1.504 . S
C44 C45 1.373 . S
C44 C48 1.308 . S
C45 C44 1.373 . S
C45 C46 1.429 . S
C45 H72 0.932 . S
C46 C43 1.358 . S
C46 C45 1.429 . S
C46 H73 0.930 . S
C47 C43 1.332 . S
C47 C48 1.394 . S
C47 H74 0.932 . S
C48 C44 1.308 . S
C48 C47 1.394 . S
C48 H75 0.929 . S
C49 Tb40 2.764 . S
C49 C43 1.504 . S
C49 O61 1.239 . S
C49 O62 1.263 . S
O50 Tb40 2.325 . S
O50 C60 1.236 . S
O51 Tb41 2.322 . S
O51 C60 1.257 . S
O52 Tb41 2.349 . S
O52 C63 1.261 . S
O53 Tb40 2.303 . S
O53 C63 1.257 . S
O54 Tb41 2.415 . S
O54 C70 1.239 . S
O55 Tb41 2.399 . S
O55 C70 1.263 . S
O56 Tb41 2.325 . S
O56 C71 1.236 . S
O57 Tb40 2.322 . S
O57 C71 1.257 . S
O58 Tb40 2.349 . S
O58 C42 1.261 . S
O59 Tb41 2.303 . S
O59 C42 1.257 . S
C60 O50 1.236 . S
C60 O51 1.257 . S
O61 Tb40 2.415 . S
O61 C49 1.239 . S
O62 Tb40 2.399 . S
O62 C49 1.263 . S
C63 O52 1.261 . S
C63 O53 1.257 . S
C64 C67 1.358 . S
C64 C68 1.332 . S
C64 C70 1.504 . S
C65 C66 1.373 . S
C65 C69 1.308 . S
C66 C65 1.373 . S
C66 C67 1.429 . S
C66 H76 0.932 . S
C67 C64 1.358 . S
C67 C66 1.429 . S
C67 H77 0.930 . S
C68 C64 1.332 . S
C68 C69 1.394 . S
C68 H78 0.932 . S
C69 C65 1.308 . S
C69 C68 1.394 . S
C69 H79 0.929 . S
C70 Tb41 2.764 . S
C70 O54 1.239 . S
C70 O55 1.263 . S
C70 C64 1.504 . S
C71 O56 1.236 . S
C71 O57 1.257 . S
H72 C45 0.932 . S
H73 C46 0.930 . S
H74 C47 0.932 . S
H75 C48 0.929 . S
H76 C66 0.932 . S
H77 C67 0.930 . S
H78 C68 0.932 . S
H79 C69 0.929 . S
Tb80 C89 2.764 . S
Tb80 O90 2.325 . S
Tb80 O93 2.303 . S
Tb80 O97 2.322 . S
Tb80 O98 2.349 . S
Tb80 O101 2.415 . S
Tb80 O102 2.399 . S
Tb81 O91 2.322 . S
Tb81 O92 2.349 . S
Tb81 O94 2.415 . S
Tb81 O95 2.399 . S
Tb81 O96 2.325 . S
Tb81 O99 2.303 . S
Tb81 C110 2.764 . S
C82 O98 1.261 . S
C82 O99 1.257 . S
C83 C86 1.358 . S
C83 C87 1.332 . S
C83 C89 1.504 . S
C84 C85 1.373 . S
C84 C88 1.308 . S
C85 C84 1.373 . S
C85 C86 1.429 1_455 S
C85 H112 0.932 . S
C86 C83 1.358 . S
C86 C85 1.429 1_655 S
C86 H113 0.930 . S
C87 C83 1.332 . S
C87 C88 1.394 1_655 S
C87 H114 0.932 . S
C88 C84 1.308 . S
C88 C87 1.394 1_455 S
C88 H115 0.929 . S
C89 Tb80 2.764 . S
C89 C83 1.504 . S
C89 O101 1.239 . S
C89 O102 1.263 . S
O90 Tb80 2.325 . S
O90 C100 1.236 . S
O91 Tb81 2.322 . S
O91 C100 1.257 . S
O92 Tb81 2.349 . S
O92 C103 1.261 . S
O93 Tb80 2.303 . S
O93 C103 1.257 . S
O94 Tb81 2.415 . S
O94 C110 1.239 . S
O95 Tb81 2.399 . S
O95 C110 1.263 . S
O96 Tb81 2.325 . S
O96 C111 1.236 . S
O97 Tb80 2.322 . S
O97 C111 1.257 . S
O98 Tb80 2.349 . S
O98 C82 1.261 . S
O99 Tb81 2.303 . S
O99 C82 1.257 . S
C100 O90 1.236 . S
C100 O91 1.257 . S
O101 Tb80 2.415 . S
O101 C89 1.239 . S
O102 Tb80 2.399 . S
O102 C89 1.263 . S
C103 O92 1.261 . S
C103 O93 1.257 . S
C104 C107 1.358 . S
C104 C108 1.332 . S
C104 C110 1.504 . S
C105 C106 1.373 . S
C105 C109 1.308 . S
C106 C105 1.373 . S
C106 C107 1.429 . S
C106 H116 0.932 . S
C107 C104 1.358 . S
C107 C106 1.429 . S
C107 H117 0.930 . S
C108 C104 1.332 . S
C108 C109 1.394 . S
C108 H118 0.932 . S
C109 C105 1.308 . S
C109 C108 1.394 . S
C109 H119 0.929 . S
C110 Tb81 2.764 . S
C110 O94 1.239 . S
C110 O95 1.263 . S
C110 C104 1.504 . S
C111 O96 1.236 . S
C111 O97 1.257 . S
H112 C85 0.932 . S
H113 C86 0.930 . S
H114 C87 0.932 . S
H115 C88 0.929 . S
H116 C106 0.932 . S
H117 C107 0.930 . S
H118 C108 0.932 . S
H119 C109 0.929 . S
Tb120 C129 2.764 . S
Tb120 O130 2.325 . S
Tb120 O133 2.303 . S
Tb120 O137 2.322 . S
Tb120 O138 2.349 . S
Tb120 O141 2.415 . S
Tb120 O142 2.399 . S
Tb121 O131 2.322 . S
Tb121 O132 2.349 . S
Tb121 O134 2.415 . S
Tb121 O135 2.399 . S
Tb121 O136 2.325 . S
Tb121 O139 2.303 . S
Tb121 C150 2.764 . S
C122 O138 1.261 . S
C122 O139 1.257 . S
C123 C126 1.358 . S
C123 C127 1.332 . S
C123 C129 1.504 . S
C124 C125 1.373 . S
C124 C128 1.308 . S
C125 C124 1.373 . S
C125 C126 1.429 . S
C125 H152 0.932 . S
C126 C123 1.358 . S
C126 C125 1.429 . S
C126 H153 0.930 . S
C127 C123 1.332 . S
C127 C128 1.394 . S
C127 H154 0.932 . S
C128 C124 1.308 . S
C128 C127 1.394 . S
C128 H155 0.929 . S
C129 Tb120 2.764 . S
C129 C123 1.504 . S
C129 O141 1.239 . S
C129 O142 1.263 . S
O130 Tb120 2.325 . S
O130 C140 1.236 . S
O131 Tb121 2.322 . S
O131 C140 1.257 . S
O132 Tb121 2.349 . S
O132 C143 1.261 . S
O133 Tb120 2.303 . S
O133 C143 1.257 . S
O134 Tb121 2.415 . S
O134 C150 1.239 . S
O135 Tb121 2.399 . S
O135 C150 1.263 . S
O136 Tb121 2.325 . S
O136 C151 1.236 . S
O137 Tb120 2.322 . S
O137 C151 1.257 . S
O138 Tb120 2.349 . S
O138 C122 1.261 . S
O139 Tb121 2.303 . S
O139 C122 1.257 . S
C140 O130 1.236 . S
C140 O131 1.257 . S
O141 Tb120 2.415 . S
O141 C129 1.239 . S
O142 Tb120 2.399 . S
O142 C129 1.263 . S
C143 O132 1.261 . S
C143 O133 1.257 . S
C144 C147 1.358 . S
C144 C148 1.332 . S
C144 C150 1.504 . S
C145 C146 1.373 . S
C145 C149 1.308 . S
C146 C145 1.373 . S
C146 C147 1.429 1_565 S
C146 H156 0.932 . S
C147 C144 1.358 . S
C147 C146 1.429 1_545 S
C147 H157 0.930 . S
C148 C144 1.332 . S
C148 C149 1.394 1_545 S
C148 H158 0.932 . S
C149 C145 1.308 . S
C149 C148 1.394 1_565 S
C149 H159 0.929 . S
C150 Tb121 2.764 . S
C150 O134 1.239 . S
C150 O135 1.263 . S
C150 C144 1.504 . S
C151 O136 1.236 . S
C151 O137 1.257 . S
H152 C125 0.932 . S
H153 C126 0.930 . S
H154 C127 0.932 . S
H155 C128 0.929 . S
H156 C146 0.932 . S
H157 C147 0.930 . S
H158 C148 0.932 . S
H159 C149 0.929 . S
Tb160 C169 2.764 . S
Tb160 O170 2.325 . S
Tb160 O173 2.303 . S
Tb160 O177 2.322 . S
Tb160 O178 2.349 . S
Tb160 O181 2.415 . S
Tb160 O182 2.399 . S
Tb161 O171 2.322 . S
Tb161 O172 2.349 . S
Tb161 O174 2.415 . S
Tb161 O175 2.399 . S
Tb161 O176 2.325 . S
Tb161 O179 2.303 . S
Tb161 C190 2.764 . S
C162 O178 1.261 . S
C162 O179 1.257 . S
C163 C166 1.358 . S
C163 C167 1.332 . S
C163 C169 1.504 . S
C164 C165 1.373 . S
C164 C168 1.308 . S
C165 C164 1.373 . S
C165 C166 1.429 . S
C165 H192 0.932 . S
C166 C163 1.358 . S
C166 C165 1.429 . S
C166 H193 0.930 . S
C167 C163 1.332 . S
C167 C168 1.394 . S
C167 H194 0.932 . S
C168 C164 1.308 . S
C168 C167 1.394 . S
C168 H195 0.929 . S
C169 Tb160 2.764 . S
C169 C163 1.504 . S
C169 O181 1.239 . S
C169 O182 1.263 . S
O170 Tb160 2.325 . S
O170 C180 1.236 . S
O171 Tb161 2.322 . S
O171 C180 1.257 . S
O172 Tb161 2.349 . S
O172 C183 1.261 . S
O173 Tb160 2.303 . S
O173 C183 1.257 . S
O174 Tb161 2.415 . S
O174 C190 1.239 . S
O175 Tb161 2.399 . S
O175 C190 1.263 . S
O176 Tb161 2.325 . S
O176 C191 1.236 . S
O177 Tb160 2.322 . S
O177 C191 1.257 . S
O178 Tb160 2.349 . S
O178 C162 1.261 . S
O179 Tb161 2.303 . S
O179 C162 1.257 . S
C180 O170 1.236 . S
C180 O171 1.257 . S
O181 Tb160 2.415 . S
O181 C169 1.239 . S
O182 Tb160 2.399 . S
O182 C169 1.263 . S
C183 O172 1.261 . S
C183 O173 1.257 . S
C184 C187 1.358 . S
C184 C188 1.332 . S
C184 C190 1.504 . S
C185 C186 1.373 . S
C185 C189 1.308 . S
C186 C185 1.373 . S
C186 C187 1.429 . S
C186 H196 0.932 . S
C187 C184 1.358 . S
C187 C186 1.429 . S
C187 H197 0.930 . S
C188 C184 1.332 . S
C188 C189 1.394 . S
C188 H198 0.932 . S
C189 C185 1.308 . S
C189 C188 1.394 . S
C189 H199 0.929 . S
C190 Tb161 2.764 . S
C190 O174 1.239 . S
C190 O175 1.263 . S
C190 C184 1.504 . S
C191 O176 1.236 . S
C191 O177 1.257 . S
H192 C165 0.932 . S
H193 C166 0.930 . S
H194 C167 0.932 . S
H195 C168 0.929 . S
H196 C186 0.932 . S
H197 C187 0.930 . S
H198 C188 0.932 . S
H199 C189 0.929 . S
Tb200 C209 2.764 . S
Tb200 O210 2.325 . S
Tb200 O213 2.303 . S
Tb200 O217 2.322 . S
Tb200 O218 2.349 . S
Tb200 O221 2.415 . S
Tb200 O222 2.399 . S
Tb201 O211 2.322 . S
Tb201 O212 2.349 . S
Tb201 O214 2.415 . S
Tb201 O215 2.399 . S
Tb201 O216 2.325 . S
Tb201 O219 2.303 . S
Tb201 C230 2.764 . S
C202 O218 1.261 . S
C202 O219 1.257 . S
C203 C206 1.358 . S
C203 C207 1.332 . S
C203 C209 1.504 . S
C204 C205 1.373 . S
C204 C208 1.308 . S
C205 C204 1.373 . S
C205 C206 1.429 . S
C205 H232 0.932 . S
C206 C203 1.358 . S
C206 C205 1.429 . S
C206 H233 0.930 . S
C207 C203 1.332 . S
C207 C208 1.394 . S
C207 H234 0.932 . S
C208 C204 1.308 . S
C208 C207 1.394 . S
C208 H235 0.929 . S
C209 Tb200 2.764 . S
C209 C203 1.504 . S
C209 O221 1.239 . S
C209 O222 1.263 . S
O210 Tb200 2.325 . S
O210 C220 1.236 . S
O211 Tb201 2.322 . S
O211 C220 1.257 . S
O212 Tb201 2.349 . S
O212 C223 1.261 . S
O213 Tb200 2.303 . S
O213 C223 1.257 . S
O214 Tb201 2.415 . S
O214 C230 1.239 . S
O215 Tb201 2.399 . S
O215 C230 1.263 . S
O216 Tb201 2.325 . S
O216 C231 1.236 . S
O217 Tb200 2.322 . S
O217 C231 1.257 . S
O218 Tb200 2.349 . S
O218 C202 1.261 . S
O219 Tb201 2.303 . S
O219 C202 1.257 . S
C220 O210 1.236 . S
C220 O211 1.257 . S
O221 Tb200 2.415 . S
O221 C209 1.239 . S
O222 Tb200 2.399 . S
O222 C209 1.263 . S
C223 O212 1.261 . S
C223 O213 1.257 . S
C224 C227 1.358 . S
C224 C228 1.332 . S
C224 C230 1.504 . S
C225 C226 1.373 . S
C225 C229 1.308 . S
C226 C225 1.373 . S
C226 C227 1.429 1_455 S
C226 H236 0.932 . S
C227 C224 1.358 . S
C227 C226 1.429 1_655 S
C227 H237 0.930 . S
C228 C224 1.332 . S
C228 C229 1.394 1_655 S
C228 H238 0.932 . S
C229 C225 1.308 . S
C229 C228 1.394 1_455 S
C229 H239 0.929 . S
C230 Tb201 2.764 . S
C230 O214 1.239 . S
C230 O215 1.263 . S
C230 C224 1.504 . S
C231 O216 1.236 . S
C231 O217 1.257 . S
H232 C205 0.932 . S
H233 C206 0.930 . S
H234 C207 0.932 . S
H235 C208 0.929 . S
H236 C226 0.932 . S
H237 C227 0.930 . S
H238 C228 0.932 . S
H239 C229 0.929 . S
Tb240 C249 2.764 . S
Tb240 O250 2.325 . S
Tb240 O253 2.303 . S
Tb240 O257 2.322 . S
Tb240 O258 2.349 . S
Tb240 O261 2.415 . S
Tb240 O262 2.399 . S
Tb241 O251 2.322 . S
Tb241 O252 2.349 . S
Tb241 O254 2.415 . S
Tb241 O255 2.399 . S
Tb241 O256 2.325 . S
Tb241 O259 2.303 . S
Tb241 C270 2.764 . S
C242 O258 1.261 . S
C242 O259 1.257 . S
C243 C246 1.358 . S
C243 C247 1.332 . S
C243 C249 1.504 . S
C244 C245 1.373 . S
C244 C248 1.308 . S
C245 C244 1.373 . S
C245 C246 1.429 . S
C245 H272 0.932 . S
C246 C243 1.358 . S
C246 C245 1.429 . S
C246 H273 0.930 . S
C247 C243 1.332 . S
C247 C248 1.394 . S
C247 H274 0.932 . S
C248 C244 1.308 . S
C248 C247 1.394 . S
C248 H275 0.929 . S
C249 Tb240 2.764 . S
C249 C243 1.504 . S
C249 O261 1.239 . S
C249 O262 1.263 . S
O250 Tb240 2.325 . S
O250 C260 1.236 . S
O251 Tb241 2.322 . S
O251 C260 1.257 . S
O252 Tb241 2.349 . S
O252 C263 1.261 . S
O253 Tb240 2.303 . S
O253 C263 1.257 . S
O254 Tb241 2.415 . S
O254 C270 1.239 . S
O255 Tb241 2.399 . S
O255 C270 1.263 . S
O256 Tb241 2.325 . S
O256 C271 1.236 . S
O257 Tb240 2.322 . S
O257 C271 1.257 . S
O258 Tb240 2.349 . S
O258 C242 1.261 . S
O259 Tb241 2.303 . S
O259 C242 1.257 . S
C260 O250 1.236 . S
C260 O251 1.257 . S
O261 Tb240 2.415 . S
O261 C249 1.239 . S
O262 Tb240 2.399 . S
O262 C249 1.263 . S
C263 O252 1.261 . S
C263 O253 1.257 . S
C264 C267 1.358 . S
C264 C268 1.332 . S
C264 C270 1.504 . S
C265 C266 1.373 . S
C265 C269 1.308 . S
C266 C265 1.373 . S
C266 C267 1.429 1_655 S
C266 H276 0.932 . S
C267 C264 1.358 . S
C267 C266 1.429 1_455 S
C267 H277 0.930 . S
C268 C264 1.332 . S
C268 C269 1.394 1_455 S
C268 H278 0.932 . S
C269 C265 1.308 . S
C269 C268 1.394 1_655 S
C269 H279 0.929 . S
C270 Tb241 2.764 . S
C270 O254 1.239 . S
C270 O255 1.263 . S
C270 C264 1.504 . S
C271 O256 1.236 . S
C271 O257 1.257 . S
H272 C245 0.932 . S
H273 C246 0.930 . S
H274 C247 0.932 . S
H275 C248 0.929 . S
H276 C266 0.932 . S
H277 C267 0.930 . S
H278 C268 0.932 . S
H279 C269 0.929 . S
Tb280 C289 2.764 . S
Tb280 O290 2.325 . S
Tb280 O293 2.303 . S
Tb280 O297 2.322 . S
Tb280 O298 2.349 . S
Tb280 O301 2.415 . S
Tb280 O302 2.399 . S
Tb281 O291 2.322 . S
Tb281 O292 2.349 . S
Tb281 O294 2.415 . S
Tb281 O295 2.399 . S
Tb281 O296 2.325 . S
Tb281 O299 2.303 . S
Tb281 C310 2.764 . S
C282 O298 1.261 . S
C282 O299 1.257 . S
C283 C286 1.358 . S
C283 C287 1.332 . S
C283 C289 1.504 . S
C284 C285 1.373 . S
C284 C288 1.308 . S
C285 C284 1.373 . S
C285 C286 1.429 1_545 S
C285 H312 0.932 . S
C286 C283 1.358 . S
C286 C285 1.429 1_565 S
C286 H313 0.930 . S
C287 C283 1.332 . S
C287 C288 1.394 1_565 S
C287 H314 0.932 . S
C288 C284 1.308 . S
C288 C287 1.394 1_545 S
C288 H315 0.929 . S
C289 Tb280 2.764 . S
C289 C283 1.504 . S
C289 O301 1.239 . S
C289 O302 1.263 . S
O290 Tb280 2.325 . S
O290 C300 1.236 . S
O291 Tb281 2.322 . S
O291 C300 1.257 . S
O292 Tb281 2.349 . S
O292 C303 1.261 . S
O293 Tb280 2.303 . S
O293 C303 1.257 . S
O294 Tb281 2.415 . S
O294 C310 1.239 . S
O295 Tb281 2.399 . S
O295 C310 1.263 . S
O296 Tb281 2.325 . S
O296 C311 1.236 . S
O297 Tb280 2.322 . S
O297 C311 1.257 . S
O298 Tb280 2.349 . S
O298 C282 1.261 . S
O299 Tb281 2.303 . S
O299 C282 1.257 . S
C300 O290 1.236 . S
C300 O291 1.257 . S
O301 Tb280 2.415 . S
O301 C289 1.239 . S
O302 Tb280 2.399 . S
O302 C289 1.263 . S
C303 O292 1.261 . S
C303 O293 1.257 . S
C304 C307 1.358 . S
C304 C308 1.332 . S
C304 C310 1.504 . S
C305 C306 1.373 . S
C305 C309 1.308 . S
C306 C305 1.373 . S
C306 C307 1.429 . S
C306 H316 0.932 . S
C307 C304 1.358 . S
C307 C306 1.429 . S
C307 H317 0.930 . S
C308 C304 1.332 . S
C308 C309 1.394 . S
C308 H318 0.932 . S
C309 C305 1.308 . S
C309 C308 1.394 . S
C309 H319 0.929 . S
C310 Tb281 2.764 . S
C310 O294 1.239 . S
C310 O295 1.263 . S
C310 C304 1.504 . S
C311 O296 1.236 . S
C311 O297 1.257 . S
H312 C285 0.932 . S
H313 C286 0.930 . S
H314 C287 0.932 . S
H315 C288 0.929 . S
H316 C306 0.932 . S
H317 C307 0.930 . S
H318 C308 0.932 . S
H319 C309 0.929 . S
Tb320 C329 2.764 . S
Tb320 O330 2.325 . S
Tb320 O333 2.303 . S
Tb320 O337 2.322 . S
Tb320 O338 2.349 . S
Tb320 O341 2.415 . S
Tb320 O342 2.399 . S
Tb321 O331 2.322 . S
Tb321 O332 2.349 . S
Tb321 O334 2.415 . S
Tb321 O335 2.399 . S
Tb321 O336 2.325 . S
Tb321 O339 2.303 . S
Tb321 C350 2.764 . S
C322 O338 1.261 . S
C322 O339 1.257 . S
C323 C326 1.358 . S
C323 C327 1.332 . S
C323 C329 1.504 . S
C324 C325 1.373 . S
C324 C328 1.308 . S
C325 C324 1.373 . S
C325 C326 1.429 . S
C325 H352 0.932 . S
C326 C323 1.358 . S
C326 C325 1.429 . S
C326 H353 0.930 . S
C327 C323 1.332 . S
C327 C328 1.394 . S
C327 H354 0.932 . S
C328 C324 1.308 . S
C328 C327 1.394 . S
C328 H355 0.929 . S
C329 Tb320 2.764 . S
C329 C323 1.504 . S
C329 O341 1.239 . S
C329 O342 1.263 . S
O330 Tb320 2.325 . S
O330 C340 1.236 . S
O331 Tb321 2.322 . S
O331 C340 1.257 . S
O332 Tb321 2.349 . S
O332 C343 1.261 . S
O333 Tb320 2.303 . S
O333 C343 1.257 . S
O334 Tb321 2.415 . S
O334 C350 1.239 . S
O335 Tb321 2.399 . S
O335 C350 1.263 . S
O336 Tb321 2.325 . S
O336 C351 1.236 . S
O337 Tb320 2.322 . S
O337 C351 1.257 . S
O338 Tb320 2.349 . S
O338 C322 1.261 . S
O339 Tb321 2.303 . S
O339 C322 1.257 . S
C340 O330 1.236 . S
C340 O331 1.257 . S
O341 Tb320 2.415 . S
O341 C329 1.239 . S
O342 Tb320 2.399 . S
O342 C329 1.263 . S
C343 O332 1.261 . S
C343 O333 1.257 . S
C344 C347 1.358 . S
C344 C348 1.332 . S
C344 C350 1.504 . S
C345 C346 1.373 . S
C345 C349 1.308 . S
C346 C345 1.373 . S
C346 C347 1.429 . S
C346 H356 0.932 . S
C347 C344 1.358 . S
C347 C346 1.429 . S
C347 H357 0.930 . S
C348 C344 1.332 . S
C348 C349 1.394 . S
C348 H358 0.932 . S
C349 C345 1.308 . S
C349 C348 1.394 . S
C349 H359 0.929 . S
C350 Tb321 2.764 . S
C350 O334 1.239 . S
C350 O335 1.263 . S
C350 C344 1.504 . S
C351 O336 1.236 . S
C351 O337 1.257 . S
H352 C325 0.932 . S
H353 C326 0.930 . S
H354 C327 0.932 . S
H355 C328 0.929 . S
H356 C346 0.932 . S
H357 C347 0.930 . S
H358 C348 0.932 . S
H359 C349 0.929 . S
Tb360 C369 2.764 . S
Tb360 O370 2.325 . S
Tb360 O373 2.303 . S
Tb360 O377 2.322 . S
Tb360 O378 2.349 . S
Tb360 O381 2.415 . S
Tb360 O382 2.399 . S
Tb361 O371 2.322 . S
Tb361 O372 2.349 . S
Tb361 O374 2.415 . S
Tb361 O375 2.399 . S
Tb361 O376 2.325 . S
Tb361 O379 2.303 . S
Tb361 C390 2.764 . S
C362 O378 1.261 . S
C362 O379 1.257 . S
C363 C366 1.358 . S
C363 C367 1.332 . S
C363 C369 1.504 . S
C364 C365 1.373 . S
C364 C368 1.308 . S
C365 C364 1.373 . S
C365 C366 1.429 1_655 S
C365 H392 0.932 . S
C366 C363 1.358 . S
C366 C365 1.429 1_455 S
C366 H393 0.930 . S
C367 C363 1.332 . S
C367 C368 1.394 1_455 S
C367 H394 0.932 . S
C368 C364 1.308 . S
C368 C367 1.394 1_655 S
C368 H395 0.929 . S
C369 Tb360 2.764 . S
C369 C363 1.504 . S
C369 O381 1.239 . S
C369 O382 1.263 . S
O370 Tb360 2.325 . S
O370 C380 1.236 . S
O371 Tb361 2.322 . S
O371 C380 1.257 . S
O372 Tb361 2.349 . S
O372 C383 1.261 . S
O373 Tb360 2.303 . S
O373 C383 1.257 . S
O374 Tb361 2.415 . S
O374 C390 1.239 . S
O375 Tb361 2.399 . S
O375 C390 1.263 . S
O376 Tb361 2.325 . S
O376 C391 1.236 . S
O377 Tb360 2.322 . S
O377 C391 1.257 . S
O378 Tb360 2.349 . S
O378 C362 1.261 . S
O379 Tb361 2.303 . S
O379 C362 1.257 . S
C380 O370 1.236 . S
C380 O371 1.257 . S
O381 Tb360 2.415 . S
O381 C369 1.239 . S
O382 Tb360 2.399 . S
O382 C369 1.263 . S
C383 O372 1.261 . S
C383 O373 1.257 . S
C384 C387 1.358 . S
C384 C388 1.332 . S
C384 C390 1.504 . S
C385 C386 1.373 . S
C385 C389 1.308 . S
C386 C385 1.373 . S
C386 C387 1.429 . S
C386 H396 0.932 . S
C387 C384 1.358 . S
C387 C386 1.429 . S
C387 H397 0.930 . S
C388 C384 1.332 . S
C388 C389 1.394 . S
C388 H398 0.932 . S
C389 C385 1.308 . S
C389 C388 1.394 . S
C389 H399 0.929 . S
C390 Tb361 2.764 . S
C390 O374 1.239 . S
C390 O375 1.263 . S
C390 C384 1.504 . S
C391 O376 1.236 . S
C391 O377 1.257 . S
H392 C365 0.932 . S
H393 C366 0.930 . S
H394 C367 0.932 . S
H395 C368 0.929 . S
H396 C386 0.932 . S
H397 C387 0.930 . S
H398 C388 0.932 . S
H399 C389 0.929 . S
Tb400 C409 2.764 . S
Tb400 O410 2.325 . S
Tb400 O413 2.303 . S
Tb400 O417 2.322 . S
Tb400 O418 2.349 . S
Tb400 O421 2.415 . S
Tb400 O422 2.399 . S
Tb401 O411 2.322 . S
Tb401 O412 2.349 . S
Tb401 O414 2.415 . S
Tb401 O415 2.399 . S
Tb401 O416 2.325 . S
Tb401 O419 2.303 . S
Tb401 C430 2.764 . S
C402 O418 1.261 . S
C402 O419 1.257 . S
C403 C406 1.358 . S
C403 C407 1.332 . S
C403 C409 1.504 . S
C404 C405 1.373 . S
C404 C408 1.308 . S
C405 C404 1.373 . S
C405 C406 1.429 . S
C405 H432 0.932 . S
C406 C403 1.358 . S
C406 C405 1.429 . S
C406 H433 0.930 . S
C407 C403 1.332 . S
C407 C408 1.394 . S
C407 H434 0.932 . S
C408 C404 1.308 . S
C408 C407 1.394 . S
C408 H435 0.929 . S
C409 Tb400 2.764 . S
C409 C403 1.504 . S
C409 O421 1.239 . S
C409 O422 1.263 . S
O410 Tb400 2.325 . S
O410 C420 1.236 . S
O411 Tb401 2.322 . S
O411 C420 1.257 . S
O412 Tb401 2.349 . S
O412 C423 1.261 . S
O413 Tb400 2.303 . S
O413 C423 1.257 . S
O414 Tb401 2.415 . S
O414 C430 1.239 . S
O415 Tb401 2.399 . S
O415 C430 1.263 . S
O416 Tb401 2.325 . S
O416 C431 1.236 . S
O417 Tb400 2.322 . S
O417 C431 1.257 . S
O418 Tb400 2.349 . S
O418 C402 1.261 . S
O419 Tb401 2.303 . S
O419 C402 1.257 . S
C420 O410 1.236 . S
C420 O411 1.257 . S
O421 Tb400 2.415 . S
O421 C409 1.239 . S
O422 Tb400 2.399 . S
O422 C409 1.263 . S
C423 O412 1.261 . S
C423 O413 1.257 . S
C424 C427 1.358 . S
C424 C428 1.332 . S
C424 C430 1.504 . S
C425 C426 1.373 . S
C425 C429 1.308 . S
C426 C425 1.373 . S
C426 C427 1.429 1_545 S
C426 H436 0.932 . S
C427 C424 1.358 . S
C427 C426 1.429 1_565 S
C427 H437 0.930 . S
C428 C424 1.332 . S
C428 C429 1.394 1_565 S
C428 H438 0.932 . S
C429 C425 1.308 . S
C429 C428 1.394 1_545 S
C429 H439 0.929 . S
C430 Tb401 2.764 . S
C430 O414 1.239 . S
C430 O415 1.263 . S
C430 C424 1.504 . S
C431 O416 1.236 . S
C431 O417 1.257 . S
H432 C405 0.932 . S
H433 C406 0.930 . S
H434 C407 0.932 . S
H435 C408 0.929 . S
H436 C426 0.932 . S
H437 C427 0.930 . S
H438 C428 0.932 . S
H439 C429 0.929 . S
Tb440 C449 2.764 . S
Tb440 O450 2.325 . S
Tb440 O453 2.303 . S
Tb440 O457 2.322 . S
Tb440 O458 2.349 . S
Tb440 O461 2.415 . S
Tb440 O462 2.399 . S
Tb441 O451 2.322 . S
Tb441 O452 2.349 . S
Tb441 O454 2.415 . S
Tb441 O455 2.399 . S
Tb441 O456 2.325 . S
Tb441 O459 2.303 . S
Tb441 C470 2.764 . S
C442 O458 1.261 . S
C442 O459 1.257 . S
C443 C446 1.358 . S
C443 C447 1.332 . S
C443 C449 1.504 . S
C444 C445 1.373 . S
C444 C448 1.308 . S
C445 C444 1.373 . S
C445 C446 1.429 . S
C445 H472 0.932 . S
C446 C443 1.358 . S
C446 C445 1.429 . S
C446 H473 0.930 . S
C447 C443 1.332 . S
C447 C448 1.394 . S
C447 H474 0.932 . S
C448 C444 1.308 . S
C448 C447 1.394 . S
C448 H475 0.929 . S
C449 Tb440 2.764 . S
C449 C443 1.504 . S
C449 O461 1.239 . S
C449 O462 1.263 . S
O450 Tb440 2.325 . S
O450 C460 1.236 . S
O451 Tb441 2.322 . S
O451 C460 1.257 . S
O452 Tb441 2.349 . S
O452 C463 1.261 . S
O453 Tb440 2.303 . S
O453 C463 1.257 . S
O454 Tb441 2.415 . S
O454 C470 1.239 . S
O455 Tb441 2.399 . S
O455 C470 1.263 . S
O456 Tb441 2.325 . S
O456 C471 1.236 . S
O457 Tb440 2.322 . S
O457 C471 1.257 . S
O458 Tb440 2.349 . S
O458 C442 1.261 . S
O459 Tb441 2.303 . S
O459 C442 1.257 . S
C460 O450 1.236 . S
C460 O451 1.257 . S
O461 Tb440 2.415 . S
O461 C449 1.239 . S
O462 Tb440 2.399 . S
O462 C449 1.263 . S
C463 O452 1.261 . S
C463 O453 1.257 . S
C464 C467 1.358 . S
C464 C468 1.332 . S
C464 C470 1.504 . S
C465 C466 1.373 . S
C465 C469 1.308 . S
C466 C465 1.373 . S
C466 C467 1.429 . S
C466 H476 0.932 . S
C467 C464 1.358 . S
C467 C466 1.429 . S
C467 H477 0.930 . S
C468 C464 1.332 . S
C468 C469 1.394 . S
C468 H478 0.932 . S
C469 C465 1.308 . S
C469 C468 1.394 . S
C469 H479 0.929 . S
C470 Tb441 2.764 . S
C470 O454 1.239 . S
C470 O455 1.263 . S
C470 C464 1.504 . S
C471 O456 1.236 . S
C471 O457 1.257 . S
H472 C445 0.932 . S
H473 C446 0.930 . S
H474 C447 0.932 . S
H475 C448 0.929 . S
H476 C466 0.932 . S
H477 C467 0.930 . S
H478 C468 0.932 . S
H479 C469 0.929 . S
H480 C498 0.951 . S
H481 C500 0.951 . S
H482 C502 0.950 . S
H483 C503 0.950 . S
H484 C505 0.950 . S
H485 C508 0.950 . S
H486 C509 0.950 . S
H487 C511 0.950 . S
H488 C512 0.950 . S
H489 C513 0.951 . S
H490 C515 0.951 . S
H491 C517 0.950 . S
H492 C518 0.950 . S
H493 C520 0.950 . S
H494 C523 0.950 . S
H495 C524 0.950 . S
H496 C526 0.950 . S
H497 C527 0.950 . S
C498 H480 0.951 . S
C498 C499 1.366 . S
C498 C500 1.388 . S
C499 C498 1.366 . S
C499 C503 1.385 . S
C500 H481 0.951 . S
C500 C498 1.388 . S
C500 C501 1.366 . S
C501 C500 1.366 . S
C501 C502 1.414 . S
C501 C504 1.499 . S
C502 H482 0.950 . S
C502 C501 1.414 . S
C502 C503 1.374 . S
C503 H483 0.950 . S
C503 C499 1.385 . S
C503 C502 1.374 . S
C504 C501 1.499 . S
C504 C505 1.373 . S
C504 C506 1.389 . S
C505 H484 0.950 . S
C505 C504 1.373 . S
C505 C521 1.377 . S
C506 C504 1.389 . S
C506 C507 1.524 . S
C506 C520 1.377 . S
C507 C506 1.524 . S
C507 C508 1.397 . S
C507 C512 1.363 . S
C508 H485 0.950 . S
C508 C507 1.397 . S
C508 C509 1.334 . S
C509 H486 0.950 . S
C509 C508 1.334 . S
C509 C510 1.287 . S
C510 C509 1.287 . S
C510 C511 1.524 . S
C510 H529 0.913 . S
C511 H487 0.950 . S
C511 C510 1.524 . S
C511 C512 1.415 . S
C512 H488 0.950 . S
C512 C507 1.363 . S
C512 C511 1.415 . S
C513 H489 0.951 . S
C513 C514 1.366 . S
C513 C515 1.388 . S
C514 C513 1.366 . S
C514 C518 1.385 . S
C515 H490 0.951 . S
C515 C513 1.388 . S
C515 C516 1.366 . S
C516 C515 1.366 . S
C516 C517 1.414 . S
C516 C519 1.499 . S
C517 H491 0.950 . S
C517 C516 1.414 . S
C517 C518 1.374 . S
C518 H492 0.950 . S
C518 C514 1.385 . S
C518 C517 1.374 . S
C519 C516 1.499 . S
C519 C520 1.373 . S
C519 C521 1.389 . S
C520 H493 0.950 . S
C520 C506 1.377 . S
C520 C519 1.373 . S
C521 C505 1.377 . S
C521 C519 1.389 . S
C521 C522 1.524 . S
C522 C521 1.524 . S
C522 C523 1.397 . S
C522 C527 1.363 . S
C523 H494 0.950 . S
C523 C522 1.397 . S
C523 C524 1.334 . S
C524 H495 0.950 . S
C524 C523 1.334 . S
C524 C525 1.287 . S
C525 C524 1.287 . S
C525 C526 1.524 . S
C525 H528 0.999 . S
C526 H496 0.950 . S
C526 C525 1.524 . S
C526 C527 1.415 . S
C527 H497 0.950 . S
C527 C522 1.363 . S
C527 C526 1.415 . S
H528 C525 0.999 . S
H529 C510 0.913 . S
H530 C548 0.951 . S
H531 C550 0.951 . S
H532 C552 0.950 . S
H533 C553 0.950 . S
H534 C555 0.950 . S
H535 C558 0.950 . S
H536 C559 0.950 . S
H537 C561 0.950 . S
H538 C562 0.950 . S
H539 C563 0.951 . S
H540 C565 0.951 . S
H541 C567 0.950 . S
H542 C568 0.950 . S
H543 C570 0.950 1_655 S
H544 C573 0.950 . S
H545 C574 0.950 . S
H546 C576 0.950 . S
H547 C577 0.950 . S
C548 H530 0.951 . S
C548 C549 1.366 . S
C548 C550 1.388 . S
C549 C548 1.366 . S
C549 C553 1.385 . S
C550 H531 0.951 . S
C550 C548 1.388 . S
C550 C551 1.366 . S
C551 C550 1.366 . S
C551 C552 1.414 . S
C551 C554 1.499 . S
C552 H532 0.950 . S
C552 C551 1.414 . S
C552 C553 1.374 . S
C553 H533 0.950 . S
C553 C549 1.385 . S
C553 C552 1.374 . S
C554 C551 1.499 . S
C554 C555 1.373 . S
C554 C556 1.389 . S
C555 H534 0.950 . S
C555 C554 1.373 . S
C555 C571 1.377 1_455 S
C556 C554 1.389 . S
C556 C557 1.524 . S
C556 C570 1.377 . S
C557 C556 1.524 . S
C557 C558 1.397 . S
C557 C562 1.363 . S
C558 H535 0.950 . S
C558 C557 1.397 . S
C558 C559 1.334 . S
C559 H536 0.950 . S
C559 C558 1.334 . S
C559 C560 1.287 . S
C560 C559 1.287 . S
C560 C561 1.524 . S
C560 H579 0.913 . S
C561 H537 0.950 . S
C561 C560 1.524 . S
C561 C562 1.415 . S
C562 H538 0.950 . S
C562 C557 1.363 . S
C562 C561 1.415 . S
C563 H539 0.951 . S
C563 C564 1.366 . S
C563 C565 1.388 . S
C564 C563 1.366 . S
C564 C568 1.385 . S
C565 H540 0.951 . S
C565 C563 1.388 . S
C565 C566 1.366 . S
C566 C565 1.366 . S
C566 C567 1.414 . S
C566 C569 1.499 . S
C567 H541 0.950 . S
C567 C566 1.414 . S
C567 C568 1.374 . S
C568 H542 0.950 . S
C568 C564 1.385 . S
C568 C567 1.374 . S
C569 C566 1.499 . S
C569 C570 1.373 1_655 S
C569 C571 1.389 . S
C570 H543 0.950 1_455 S
C570 C556 1.377 . S
C570 C569 1.373 1_455 S
C571 C555 1.377 1_655 S
C571 C569 1.389 . S
C571 C572 1.524 . S
C572 C571 1.524 . S
C572 C573 1.397 . S
C572 C577 1.363 . S
C573 H544 0.950 . S
C573 C572 1.397 . S
C573 C574 1.334 . S
C574 H545 0.950 . S
C574 C573 1.334 . S
C574 C575 1.287 . S
C575 C574 1.287 . S
C575 C576 1.524 . S
C575 H578 0.999 . S
C576 H546 0.950 . S
C576 C575 1.524 . S
C576 C577 1.415 . S
C577 H547 0.950 . S
C577 C572 1.363 . S
C577 C576 1.415 . S
H578 C575 0.999 . S
H579 C560 0.913 . S
H580 C598 0.951 . S
H581 C600 0.951 . S
H582 C602 0.950 . S
H583 C603 0.950 . S
H584 C605 0.950 . S
H585 C608 0.950 . S
H586 C609 0.950 . S
H587 C611 0.950 . S
H588 C612 0.950 . S
H589 C613 0.951 . S
H590 C615 0.951 . S
H591 C617 0.950 . S
H592 C618 0.950 . S
H593 C620 0.950 . S
H594 C623 0.950 . S
H595 C624 0.950 . S
H596 C626 0.950 . S
H597 C627 0.950 . S
C598 H580 0.951 . S
C598 C599 1.366 . S
C598 C600 1.388 . S
C599 C598 1.366 . S
C599 C603 1.385 . S
C600 H581 0.951 . S
C600 C598 1.388 . S
C600 C601 1.366 . S
C601 C600 1.366 . S
C601 C602 1.414 . S
C601 C604 1.499 . S
C602 H582 0.950 . S
C602 C601 1.414 . S
C602 C603 1.374 . S
C603 H583 0.950 . S
C603 C599 1.385 . S
C603 C602 1.374 . S
C604 C601 1.499 . S
C604 C605 1.373 . S
C604 C606 1.389 . S
C605 H584 0.950 . S
C605 C604 1.373 . S
C605 C621 1.377 1_545 S
C606 C604 1.389 . S
C606 C607 1.524 . S
C606 C620 1.377 1_545 S
C607 C606 1.524 . S
C607 C608 1.397 . S
C607 C612 1.363 . S
C608 H585 0.950 . S
C608 C607 1.397 . S
C608 C609 1.334 . S
C609 H586 0.950 . S
C609 C608 1.334 . S
C609 C610 1.287 . S
C610 C609 1.287 . S
C610 C611 1.524 . S
C610 H629 0.913 . S
C611 H587 0.950 . S
C611 C610 1.524 . S
C611 C612 1.415 . S
C612 H588 0.950 . S
C612 C607 1.363 . S
C612 C611 1.415 . S
C613 H589 0.951 . S
C613 C614 1.366 . S
C613 C615 1.388 . S
C614 C613 1.366 . S
C614 C618 1.385 . S
C615 H590 0.951 . S
C615 C613 1.388 . S
C615 C616 1.366 . S
C616 C615 1.366 . S
C616 C617 1.414 . S
C616 C619 1.499 . S
C617 H591 0.950 . S
C617 C616 1.414 . S
C617 C618 1.374 . S
C618 H592 0.950 . S
C618 C614 1.385 . S
C618 C617 1.374 . S
C619 C616 1.499 . S
C619 C620 1.373 . S
C619 C621 1.389 . S
C620 H593 0.950 . S
C620 C606 1.377 1_565 S
C620 C619 1.373 . S
C621 C605 1.377 1_565 S
C621 C619 1.389 . S
C621 C622 1.524 . S
C622 C621 1.524 . S
C622 C623 1.397 . S
C622 C627 1.363 . S
C623 H594 0.950 . S
C623 C622 1.397 . S
C623 C624 1.334 . S
C624 H595 0.950 . S
C624 C623 1.334 . S
C624 C625 1.287 . S
C625 C624 1.287 . S
C625 C626 1.524 . S
C625 H628 0.999 . S
C626 H596 0.950 . S
C626 C625 1.524 . S
C626 C627 1.415 . S
C627 H597 0.950 . S
C627 C622 1.363 . S
C627 C626 1.415 . S
H628 C625 0.999 . S
H629 C610 0.913 . S
H630 C648 0.951 . S
H631 C650 0.951 . S
H632 C652 0.950 . S
H633 C653 0.950 . S
H634 C655 0.950 . S
H635 C658 0.950 . S
H636 C659 0.950 . S
H637 C661 0.950 . S
H638 C662 0.950 . S
H639 C663 0.951 . S
H640 C665 0.951 . S
H641 C667 0.950 . S
H642 C668 0.950 . S
H643 C670 0.950 . S
H644 C673 0.950 . S
H645 C674 0.950 . S
H646 C676 0.950 . S
H647 C677 0.950 . S
C648 H630 0.951 . S
C648 C649 1.366 . S
C648 C650 1.388 . S
C649 C648 1.366 . S
C649 C653 1.385 . S
C650 H631 0.951 . S
C650 C648 1.388 . S
C650 C651 1.366 . S
C651 C650 1.366 . S
C651 C652 1.414 . S
C651 C654 1.499 . S
C652 H632 0.950 . S
C652 C651 1.414 . S
C652 C653 1.374 . S
C653 H633 0.950 . S
C653 C649 1.385 . S
C653 C652 1.374 . S
C654 C651 1.499 . S
C654 C655 1.373 . S
C654 C656 1.389 . S
C655 H634 0.950 . S
C655 C654 1.373 . S
C655 C671 1.377 . S
C656 C654 1.389 . S
C656 C657 1.524 . S
C656 C670 1.377 . S
C657 C656 1.524 . S
C657 C658 1.397 . S
C657 C662 1.363 . S
C658 H635 0.950 . S
C658 C657 1.397 . S
C658 C659 1.334 . S
C659 H636 0.950 . S
C659 C658 1.334 . S
C659 C660 1.287 . S
C660 C659 1.287 . S
C660 C661 1.524 . S
C660 H679 0.913 . S
C661 H637 0.950 . S
C661 C660 1.524 . S
C661 C662 1.415 . S
C662 H638 0.950 . S
C662 C657 1.363 . S
C662 C661 1.415 . S
C663 H639 0.951 . S
C663 C664 1.366 . S
C663 C665 1.388 . S
C664 C663 1.366 . S
C664 C668 1.385 . S
C665 H640 0.951 . S
C665 C663 1.388 . S
C665 C666 1.366 . S
C666 C665 1.366 . S
C666 C667 1.414 . S
C666 C669 1.499 . S
C667 H641 0.950 . S
C667 C666 1.414 . S
C667 C668 1.374 . S
C668 H642 0.950 . S
C668 C664 1.385 . S
C668 C667 1.374 . S
C669 C666 1.499 . S
C669 C670 1.373 . S
C669 C671 1.389 . S
C670 H643 0.950 . S
C670 C656 1.377 . S
C670 C669 1.373 . S
C671 C655 1.377 . S
C671 C669 1.389 . S
C671 C672 1.524 . S
C672 C671 1.524 . S
C672 C673 1.397 . S
C672 C677 1.363 . S
C673 H644 0.950 . S
C673 C672 1.397 . S
C673 C674 1.334 . S
C674 H645 0.950 . S
C674 C673 1.334 . S
C674 C675 1.287 . S
C675 C674 1.287 . S
C675 C676 1.524 . S
C675 H678 0.999 . S
C676 H646 0.950 . S
C676 C675 1.524 . S
C676 C677 1.415 . S
C677 H647 0.950 . S
C677 C672 1.363 . S
C677 C676 1.415 . S
H678 C675 0.999 . S
H679 C660 0.913 . S
H680 C698 0.951 . S
H681 C700 0.951 . S
H682 C702 0.950 . S
H683 C703 0.950 . S
H684 C705 0.950 . S
H685 C708 0.950 . S
H686 C709 0.950 . S
H687 C711 0.950 1_655 S
H688 C712 0.950 1_655 S
H689 C713 0.951 . S
H690 C715 0.951 . S
H691 C717 0.950 . S
H692 C718 0.950 . S
H693 C720 0.950 . S
H694 C723 0.950 . S
H695 C724 0.950 . S
H696 C726 0.950 . S
H697 C727 0.950 . S
C698 H680 0.951 . S
C698 C699 1.366 . S
C698 C700 1.388 . S
C699 C698 1.366 . S
C699 C703 1.385 . S
C700 H681 0.951 . S
C700 C698 1.388 . S
C700 C701 1.366 . S
C701 C700 1.366 . S
C701 C702 1.414 . S
C701 C704 1.499 . S
C702 H682 0.950 . S
C702 C701 1.414 . S
C702 C703 1.374 . S
C703 H683 0.950 . S
C703 C699 1.385 . S
C703 C702 1.374 . S
C704 C701 1.499 . S
C704 C705 1.373 . S
C704 C706 1.389 . S
C705 H684 0.950 . S
C705 C704 1.373 . S
C705 C721 1.377 . S
C706 C704 1.389 . S
C706 C707 1.524 . S
C706 C720 1.377 1_455 S
C707 C706 1.524 . S
C707 C708 1.397 . S
C707 C712 1.363 . S
C708 H685 0.950 . S
C708 C707 1.397 . S
C708 C709 1.334 . S
C709 H686 0.950 . S
C709 C708 1.334 . S
C709 C710 1.287 . S
C710 C709 1.287 . S
C710 C711 1.524 . S
C710 H729 0.913 . S
C711 H687 0.950 1_455 S
C711 C710 1.524 . S
C711 C712 1.415 . S
C712 H688 0.950 1_455 S
C712 C707 1.363 . S
C712 C711 1.415 . S
C713 H689 0.951 . S
C713 C714 1.366 . S
C713 C715 1.388 . S
C714 C713 1.366 . S
C714 C718 1.385 . S
C715 H690 0.951 . S
C715 C713 1.388 . S
C715 C716 1.366 . S
C716 C715 1.366 . S
C716 C717 1.414 . S
C716 C719 1.499 . S
C717 H691 0.950 . S
C717 C716 1.414 . S
C717 C718 1.374 . S
C718 H692 0.950 . S
C718 C714 1.385 . S
C718 C717 1.374 . S
C719 C716 1.499 . S
C719 C720 1.373 . S
C719 C721 1.389 1_655 S
C720 H693 0.950 . S
C720 C706 1.377 1_655 S
C720 C719 1.373 . S
C721 C705 1.377 . S
C721 C719 1.389 1_455 S
C721 C722 1.524 1_455 S
C722 C721 1.524 1_655 S
C722 C723 1.397 . S
C722 C727 1.363 1_655 S
C723 H694 0.950 . S
C723 C722 1.397 . S
C723 C724 1.334 . S
C724 H695 0.950 . S
C724 C723 1.334 . S
C724 C725 1.287 . S
C725 C724 1.287 . S
C725 C726 1.524 1_655 S
C725 H728 0.999 . S
C726 H696 0.950 . S
C726 C725 1.524 1_455 S
C726 C727 1.415 . S
C727 H697 0.950 . S
C727 C722 1.363 1_455 S
C727 C726 1.415 . S
H728 C725 0.999 . S
H729 C710 0.913 . S
H730 C748 0.951 . S
H731 C750 0.951 . S
H732 C752 0.950 . S
H733 C753 0.950 . S
H734 C755 0.950 . S
H735 C758 0.950 . S
H736 C759 0.950 . S
H737 C761 0.950 . S
H738 C762 0.950 . S
H739 C763 0.951 . S
H740 C765 0.951 . S
H741 C767 0.950 . S
H742 C768 0.950 . S
H743 C770 0.950 1_545 S
H744 C773 0.950 . S
H745 C774 0.950 . S
H746 C776 0.950 . S
H747 C777 0.950 . S
C748 H730 0.951 . S
C748 C749 1.366 . S
C748 C750 1.388 . S
C749 C748 1.366 . S
C749 C753 1.385 . S
C750 H731 0.951 . S
C750 C748 1.388 . S
C750 C751 1.366 . S
C751 C750 1.366 . S
C751 C752 1.414 . S
C751 C754 1.499 . S
C752 H732 0.950 . S
C752 C751 1.414 . S
C752 C753 1.374 . S
C753 H733 0.950 . S
C753 C749 1.385 . S
C753 C752 1.374 . S
C754 C751 1.499 . S
C754 C755 1.373 . S
C754 C756 1.389 . S
C755 H734 0.950 . S
C755 C754 1.373 . S
C755 C771 1.377 1_565 S
C756 C754 1.389 . S
C756 C757 1.524 . S
C756 C770 1.377 . S
C757 C756 1.524 . S
C757 C758 1.397 . S
C757 C762 1.363 . S
C758 H735 0.950 . S
C758 C757 1.397 . S
C758 C759 1.334 . S
C759 H736 0.950 . S
C759 C758 1.334 . S
C759 C760 1.287 . S
C760 C759 1.287 . S
C760 C761 1.524 . S
C760 H779 0.913 . S
C761 H737 0.950 . S
C761 C760 1.524 . S
C761 C762 1.415 . S
C762 H738 0.950 . S
C762 C757 1.363 . S
C762 C761 1.415 . S
C763 H739 0.951 . S
C763 C764 1.366 . S
C763 C765 1.388 . S
C764 C763 1.366 . S
C764 C768 1.385 . S
C765 H740 0.951 . S
C765 C763 1.388 . S
C765 C766 1.366 . S
C766 C765 1.366 . S
C766 C767 1.414 . S
C766 C769 1.499 . S
C767 H741 0.950 . S
C767 C766 1.414 . S
C767 C768 1.374 . S
C768 H742 0.950 . S
C768 C764 1.385 . S
C768 C767 1.374 . S
C769 C766 1.499 . S
C769 C770 1.373 1_545 S
C769 C771 1.389 . S
C770 H743 0.950 1_565 S
C770 C756 1.377 . S
C770 C769 1.373 1_565 S
C771 C755 1.377 1_545 S
C771 C769 1.389 . S
C771 C772 1.524 . S
C772 C771 1.524 . S
C772 C773 1.397 . S
C772 C777 1.363 . S
C773 H744 0.950 . S
C773 C772 1.397 . S
C773 C774 1.334 . S
C774 H745 0.950 . S
C774 C773 1.334 . S
C774 C775 1.287 . S
C775 C774 1.287 . S
C775 C776 1.524 . S
C775 H778 0.999 . S
C776 H746 0.950 . S
C776 C775 1.524 . S
C776 C777 1.415 . S
C777 H747 0.950 . S
C777 C772 1.363 . S
C777 C776 1.415 . S
H778 C775 0.999 . S
H779 C760 0.913 . S
H780 C798 0.951 . S
H781 C800 0.951 . S
H782 C802 0.950 . S
H783 C803 0.950 . S
H784 C805 0.950 . S
H785 C808 0.950 . S
H786 C809 0.950 . S
H787 C811 0.950 . S
H788 C812 0.950 . S
H789 C813 0.951 . S
H790 C815 0.951 . S
H791 C817 0.950 . S
H792 C818 0.950 . S
H793 C820 0.950 . S
H794 C823 0.950 . S
H795 C824 0.950 . S
H796 C826 0.950 . S
H797 C827 0.950 . S
C798 H780 0.951 . S
C798 C799 1.366 . S
C798 C800 1.388 . S
C799 C798 1.366 . S
C799 C803 1.385 . S
C800 H781 0.951 . S
C800 C798 1.388 . S
C800 C801 1.366 . S
C801 C800 1.366 . S
C801 C802 1.414 . S
C801 C804 1.499 . S
C802 H782 0.950 . S
C802 C801 1.414 . S
C802 C803 1.374 . S
C803 H783 0.950 . S
C803 C799 1.385 . S
C803 C802 1.374 . S
C804 C801 1.499 . S
C804 C805 1.373 . S
C804 C806 1.389 . S
C805 H784 0.950 . S
C805 C804 1.373 . S
C805 C821 1.377 . S
C806 C804 1.389 . S
C806 C807 1.524 . S
C806 C820 1.377 . S
C807 C806 1.524 . S
C807 C808 1.397 . S
C807 C812 1.363 . S
C808 H785 0.950 . S
C808 C807 1.397 . S
C808 C809 1.334 . S
C809 H786 0.950 . S
C809 C808 1.334 . S
C809 C810 1.287 . S
C810 C809 1.287 . S
C810 C811 1.524 . S
C810 H829 0.913 . S
C811 H787 0.950 . S
C811 C810 1.524 . S
C811 C812 1.415 . S
C812 H788 0.950 . S
C812 C807 1.363 . S
C812 C811 1.415 . S
C813 H789 0.951 . S
C813 C814 1.366 . S
C813 C815 1.388 . S
C814 C813 1.366 . S
C814 C818 1.385 . S
C815 H790 0.951 . S
C815 C813 1.388 . S
C815 C816 1.366 . S
C816 C815 1.366 . S
C816 C817 1.414 . S
C816 C819 1.499 . S
C817 H791 0.950 . S
C817 C816 1.414 . S
C817 C818 1.374 . S
C818 H792 0.950 . S
C818 C814 1.385 . S
C818 C817 1.374 . S
C819 C816 1.499 . S
C819 C820 1.373 . S
C819 C821 1.389 . S
C820 H793 0.950 . S
C820 C806 1.377 . S
C820 C819 1.373 . S
C821 C805 1.377 . S
C821 C819 1.389 . S
C821 C822 1.524 . S
C822 C821 1.524 . S
C822 C823 1.397 . S
C822 C827 1.363 . S
C823 H794 0.950 . S
C823 C822 1.397 . S
C823 C824 1.334 . S
C824 H795 0.950 . S
C824 C823 1.334 . S
C824 C825 1.287 . S
C825 C824 1.287 . S
C825 C826 1.524 . S
C825 H828 0.999 . S
C826 H796 0.950 . S
C826 C825 1.524 . S
C826 C827 1.415 . S
C827 H797 0.950 . S
C827 C822 1.363 . S
C827 C826 1.415 . S
H828 C825 0.999 . S
H829 C810 0.913 . S
H830 C848 0.951 . S
H831 C850 0.951 . S
H832 C852 0.950 . S
H833 C853 0.950 . S
H834 C855 0.950 . S
H835 C858 0.950 . S
H836 C859 0.950 . S
H837 C861 0.950 . S
H838 C862 0.950 1_655 S
H839 C863 0.951 . S
H840 C865 0.951 . S
H841 C867 0.950 . S
H842 C868 0.950 . S
H843 C870 0.950 . S
H844 C873 0.950 . S
H845 C874 0.950 . S
H846 C876 0.950 . S
H847 C877 0.950 . S
C848 H830 0.951 . S
C848 C849 1.366 . S
C848 C850 1.388 . S
C849 C848 1.366 . S
C849 C853 1.385 . S
C850 H831 0.951 . S
C850 C848 1.388 . S
C850 C851 1.366 . S
C851 C850 1.366 . S
C851 C852 1.414 . S
C851 C854 1.499 . S
C852 H832 0.950 . S
C852 C851 1.414 . S
C852 C853 1.374 . S
C853 H833 0.950 . S
C853 C849 1.385 . S
C853 C852 1.374 . S
C854 C851 1.499 . S
C854 C855 1.373 . S
C854 C856 1.392 1_455 S
C855 H834 0.950 . S
C855 C854 1.373 . S
C855 C871 1.377 1_455 S
C856 C854 1.392 1_655 S
C856 C857 1.526 1_655 S
C856 C870 1.372 . S
C857 C856 1.526 1_455 S
C857 C858 1.397 . S
C857 C862 1.363 . S
C858 H835 0.950 . S
C858 C857 1.397 . S
C858 C859 1.334 . S
C859 H836 0.950 . S
C859 C858 1.334 . S
C859 C860 1.287 . S
C860 C859 1.287 . S
C860 C861 1.524 . S
C860 H879 0.913 . S
C861 H837 0.950 . S
C861 C860 1.524 . S
C861 C862 1.415 . S
C862 H838 0.950 1_455 S
C862 C857 1.363 . S
C862 C861 1.415 . S
C863 H839 0.951 . S
C863 C864 1.366 . S
C863 C865 1.388 . S
C864 C863 1.366 . S
C864 C868 1.385 . S
C865 H840 0.951 . S
C865 C863 1.388 . S
C865 C866 1.366 . S
C866 C865 1.366 . S
C866 C867 1.414 . S
C866 C869 1.499 . S
C867 H841 0.950 . S
C867 C866 1.414 . S
C867 C868 1.374 . S
C868 H842 0.950 . S
C868 C864 1.385 . S
C868 C867 1.374 . S
C869 C866 1.499 . S
C869 C870 1.373 . S
C869 C871 1.389 . S
C870 H843 0.950 . S
C870 C856 1.372 . S
C870 C869 1.373 . S
C871 C855 1.377 1_655 S
C871 C869 1.389 . S
C871 C872 1.524 . S
C872 C871 1.524 . S
C872 C873 1.397 . S
C872 C877 1.363 . S
C873 H844 0.950 . S
C873 C872 1.397 . S
C873 C874 1.334 . S
C874 H845 0.950 . S
C874 C873 1.334 . S
C874 C875 1.287 . S
C875 C874 1.287 . S
C875 C876 1.524 . S
C875 H878 0.999 . S
C876 H846 0.950 . S
C876 C875 1.524 . S
C876 C877 1.415 . S
C877 H847 0.950 . S
C877 C872 1.363 . S
C877 C876 1.415 . S
H878 C875 0.999 . S
H879 C860 0.913 . S
H880 C898 0.951 . S
H881 C900 0.951 . S
H882 C902 0.950 . S
H883 C903 0.950 . S
H884 C905 0.950 . S
H885 C908 0.950 . S
H886 C909 0.950 . S
H887 C911 0.950 . S
H888 C912 0.950 . S
H889 C913 0.951 . S
H890 C915 0.951 . S
H891 C917 0.950 . S
H892 C918 0.950 . S
H893 C920 0.950 . S
H894 C923 0.950 . S
H895 C924 0.950 . S
H896 C926 0.950 . S
H897 C927 0.950 . S
C898 H880 0.951 . S
C898 C899 1.366 . S
C898 C900 1.388 . S
C899 C898 1.366 . S
C899 C903 1.385 . S
C900 H881 0.951 . S
C900 C898 1.388 . S
C900 C901 1.366 . S
C901 C900 1.366 . S
C901 C902 1.414 . S
C901 C904 1.499 . S
C902 H882 0.950 . S
C902 C901 1.414 . S
C902 C903 1.374 . S
C903 H883 0.950 . S
C903 C899 1.385 . S
C903 C902 1.374 . S
C904 C901 1.499 . S
C904 C905 1.373 . S
C904 C906 1.389 . S
C905 H884 0.950 . S
C905 C904 1.373 . S
C905 C921 1.377 1_565 S
C906 C904 1.389 . S
C906 C907 1.524 . S
C906 C920 1.377 1_565 S
C907 C906 1.524 . S
C907 C908 1.397 . S
C907 C912 1.363 . S
C908 H885 0.950 . S
C908 C907 1.397 . S
C908 C909 1.334 . S
C909 H886 0.950 . S
C909 C908 1.334 . S
C909 C910 1.287 . S
C910 C909 1.287 . S
C910 C911 1.524 . S
C910 H929 0.913 . S
C911 H887 0.950 . S
C911 C910 1.524 . S
C911 C912 1.415 . S
C912 H888 0.950 . S
C912 C907 1.363 . S
C912 C911 1.415 . S
C913 H889 0.951 . S
C913 C914 1.366 . S
C913 C915 1.388 . S
C914 C913 1.366 . S
C914 C918 1.385 . S
C915 H890 0.951 . S
C915 C913 1.388 . S
C915 C916 1.366 . S
C916 C915 1.366 . S
C916 C917 1.414 . S
C916 C919 1.499 . S
C917 H891 0.950 . S
C917 C916 1.414 . S
C917 C918 1.374 . S
C918 H892 0.950 . S
C918 C914 1.385 . S
C918 C917 1.374 . S
C919 C916 1.499 . S
C919 C920 1.373 . S
C919 C921 1.389 . S
C920 H893 0.950 . S
C920 C906 1.377 1_545 S
C920 C919 1.373 . S
C921 C905 1.377 1_545 S
C921 C919 1.389 . S
C921 C922 1.524 . S
C922 C921 1.524 . S
C922 C923 1.397 . S
C922 C927 1.363 . S
C923 H894 0.950 . S
C923 C922 1.397 . S
C923 C924 1.334 . S
C924 H895 0.950 . S
C924 C923 1.334 . S
C924 C925 1.287 . S
C925 C924 1.287 . S
C925 C926 1.524 . S
C925 H928 0.999 . S
C926 H896 0.950 . S
C926 C925 1.524 . S
C926 C927 1.415 . S
C927 H897 0.950 . S
C927 C922 1.363 . S
C927 C926 1.415 . S
H928 C925 0.999 . S
H929 C910 0.913 . S
H930 C948 0.951 . S
H931 C950 0.951 . S
H932 C952 0.950 . S
H933 C953 0.950 . S
H934 C955 0.950 . S
H935 C958 0.950 . S
H936 C959 0.950 . S
H937 C961 0.950 . S
H938 C962 0.950 . S
H939 C963 0.951 . S
H940 C965 0.951 . S
H941 C967 0.950 . S
H942 C968 0.950 . S
H943 C970 0.950 . S
H944 C973 0.950 . S
H945 C974 0.950 . S
H946 C976 0.950 . S
H947 C977 0.950 . S
C948 H930 0.951 . S
C948 C949 1.366 . S
C948 C950 1.388 . S
C949 C948 1.366 . S
C949 C953 1.385 . S
C950 H931 0.951 . S
C950 C948 1.388 . S
C950 C951 1.366 . S
C951 C950 1.366 . S
C951 C952 1.414 . S
C951 C954 1.499 . S
C952 H932 0.950 . S
C952 C951 1.414 . S
C952 C953 1.374 . S
C953 H933 0.950 . S
C953 C949 1.385 . S
C953 C952 1.374 . S
C954 C951 1.499 . S
C954 C955 1.373 . S
C954 C956 1.389 . S
C955 H934 0.950 . S
C955 C954 1.373 . S
C955 C971 1.377 . S
C956 C954 1.389 . S
C956 C957 1.524 . S
C956 C970 1.377 . S
C957 C956 1.524 . S
C957 C958 1.397 . S
C957 C962 1.363 . S
C958 H935 0.950 . S
C958 C957 1.397 . S
C958 C959 1.334 . S
C959 H936 0.950 . S
C959 C958 1.334 . S
C959 C960 1.287 . S
C960 C959 1.287 . S
C960 C961 1.524 . S
C960 H979 0.913 . S
C961 H937 0.950 . S
C961 C960 1.524 . S
C961 C962 1.415 . S
C962 H938 0.950 . S
C962 C957 1.363 . S
C962 C961 1.415 . S
C963 H939 0.951 . S
C963 C964 1.366 . S
C963 C965 1.388 . S
C964 C963 1.366 . S
C964 C968 1.385 . S
C965 H940 0.951 . S
C965 C963 1.388 . S
C965 C966 1.366 . S
C966 C965 1.366 . S
C966 C967 1.414 . S
C966 C969 1.499 . S
C967 H941 0.950 . S
C967 C966 1.414 . S
C967 C968 1.374 . S
C968 H942 0.950 . S
C968 C964 1.385 . S
C968 C967 1.374 . S
C969 C966 1.499 . S
C969 C970 1.373 . S
C969 C971 1.389 . S
C970 H943 0.950 . S
C970 C956 1.377 . S
C970 C969 1.373 . S
C971 C955 1.377 . S
C971 C969 1.389 . S
C971 C972 1.524 . S
C972 C971 1.524 . S
C972 C973 1.397 . S
C972 C977 1.363 . S
C973 H944 0.950 . S
C973 C972 1.397 . S
C973 C974 1.334 . S
C974 H945 0.950 . S
C974 C973 1.334 . S
C974 C975 1.287 . S
C975 C974 1.287 . S
C975 C976 1.524 . S
C975 H978 0.999 . S
C976 H946 0.950 . S
C976 C975 1.524 . S
C976 C977 1.415 . S
C977 H947 0.950 . S
C977 C972 1.363 . S
C977 C976 1.415 . S
H978 C975 0.999 . S
H979 C960 0.913 . S
H980 C998 0.951 . S
H981 C1000 0.951 . S
H982 C1002 0.950 . S
H983 C1003 0.950 . S
H984 C1005 0.950 . S
H985 C1008 0.950 . S
H986 C1009 0.950 . S
H987 C1011 0.950 . S
H988 C1012 0.950 . S
H989 C1013 0.951 . S
H990 C1015 0.951 . S
H991 C1017 0.950 . S
H992 C1018 0.950 . S
H993 C1020 0.950 . S
H994 C1023 0.950 . S
H995 C1024 0.950 . S
H996 C1026 0.950 . S
H997 C1027 0.950 . S
C998 H980 0.951 . S
C998 C999 1.366 . S
C998 C1000 1.388 . S
C999 C998 1.366 . S
C999 C1003 1.385 . S
C1000 H981 0.951 . S
C1000 C998 1.388 . S
C1000 C1001 1.366 . S
C1001 C1000 1.366 . S
C1001 C1002 1.414 . S
C1001 C1004 1.499 . S
C1002 H982 0.950 . S
C1002 C1001 1.414 . S
C1002 C1003 1.374 . S
C1003 H983 0.950 . S
C1003 C999 1.385 . S
C1003 C1002 1.374 . S
C1004 C1001 1.499 . S
C1004 C1005 1.373 . S
C1004 C1006 1.389 . S
C1005 H984 0.950 . S
C1005 C1004 1.373 . S
C1005 C1021 1.377 1_455 S
C1006 C1004 1.389 . S
C1006 C1007 1.524 . S
C1006 C1020 1.377 1_455 S
C1007 C1006 1.524 . S
C1007 C1008 1.397 . S
C1007 C1012 1.363 . S
C1008 H985 0.950 . S
C1008 C1007 1.397 . S
C1008 C1009 1.334 . S
C1009 H986 0.950 . S
C1009 C1008 1.334 . S
C1009 C1010 1.287 . S
C1010 C1009 1.287 . S
C1010 C1011 1.524 . S
C1010 H1029 0.913 . S
C1011 H987 0.950 . S
C1011 C1010 1.524 . S
C1011 C1012 1.415 . S
C1012 H988 0.950 . S
C1012 C1007 1.363 . S
C1012 C1011 1.415 . S
C1013 H989 0.951 . S
C1013 C1014 1.366 . S
C1013 C1015 1.388 . S
C1014 C1013 1.366 . S
C1014 C1018 1.385 . S
C1015 H990 0.951 . S
C1015 C1013 1.388 . S
C1015 C1016 1.366 . S
C1016 C1015 1.366 . S
C1016 C1017 1.414 . S
C1016 C1019 1.499 . S
C1017 H991 0.950 . S
C1017 C1016 1.414 . S
C1017 C1018 1.374 . S
C1018 H992 0.950 . S
C1018 C1014 1.385 . S
C1018 C1017 1.374 . S
C1019 C1016 1.499 . S
C1019 C1020 1.373 . S
C1019 C1021 1.389 . S
C1020 H993 0.950 . S
C1020 C1006 1.377 1_655 S
C1020 C1019 1.373 . S
C1021 C1005 1.377 1_655 S
C1021 C1019 1.389 . S
C1021 C1022 1.524 . S
C1022 C1021 1.524 . S
C1022 C1023 1.397 . S
C1022 C1027 1.363 . S
C1023 H994 0.950 . S
C1023 C1022 1.397 . S
C1023 C1024 1.334 . S
C1024 H995 0.950 . S
C1024 C1023 1.334 . S
C1024 C1025 1.287 . S
C1025 C1024 1.287 . S
C1025 C1026 1.524 . S
C1025 H1028 0.999 . S
C1026 H996 0.950 . S
C1026 C1025 1.524 . S
C1026 C1027 1.415 . S
C1027 H997 0.950 . S
C1027 C1022 1.363 . S
C1027 C1026 1.415 . S
H1028 C1025 0.999 . S
H1029 C1010 0.913 . S
H1030 C1048 0.951 . S
H1031 C1050 0.951 . S
H1032 C1052 0.950 . S
H1033 C1053 0.950 . S
H1034 C1055 0.950 . S
H1035 C1058 0.950 . S
H1036 C1059 0.950 . S
H1037 C1061 0.950 . S
H1038 C1062 0.950 . S
H1039 C1063 0.951 . S
H1040 C1065 0.951 . S
H1041 C1067 0.950 . S
H1042 C1068 0.950 . S
H1043 C1070 0.950 1_565 S
H1044 C1073 0.950 . S
H1045 C1074 0.950 . S
H1046 C1076 0.950 . S
H1047 C1077 0.950 . S
C1048 H1030 0.951 . S
C1048 C1049 1.366 . S
C1048 C1050 1.388 . S
C1049 C1048 1.366 . S
C1049 C1053 1.385 . S
C1050 H1031 0.951 . S
C1050 C1048 1.388 . S
C1050 C1051 1.366 . S
C1051 C1050 1.366 . S
C1051 C1052 1.414 . S
C1051 C1054 1.499 . S
C1052 H1032 0.950 . S
C1052 C1051 1.414 . S
C1052 C1053 1.374 . S
C1053 H1033 0.950 . S
C1053 C1049 1.385 . S
C1053 C1052 1.374 . S
C1054 C1051 1.499 . S
C1054 C1055 1.373 . S
C1054 C1056 1.389 . S
C1055 H1034 0.950 . S
C1055 C1054 1.373 . S
C1055 C1071 1.377 1_545 S
C1056 C1054 1.389 . S
C1056 C1057 1.524 . S
C1056 C1070 1.377 . S
C1057 C1056 1.524 . S
C1057 C1058 1.397 . S
C1057 C1062 1.363 . S
C1058 H1035 0.950 . S
C1058 C1057 1.397 . S
C1058 C1059 1.334 . S
C1059 H1036 0.950 . S
C1059 C1058 1.334 . S
C1059 C1060 1.287 . S
C1060 C1059 1.287 . S
C1060 C1061 1.524 . S
C1060 H1079 0.913 . S
C1061 H1037 0.950 . S
C1061 C1060 1.524 . S
C1061 C1062 1.415 . S
C1062 H1038 0.950 . S
C1062 C1057 1.363 . S
C1062 C1061 1.415 . S
C1063 H1039 0.951 . S
C1063 C1064 1.366 . S
C1063 C1065 1.388 . S
C1064 C1063 1.366 . S
C1064 C1068 1.385 . S
C1065 H1040 0.951 . S
C1065 C1063 1.388 . S
C1065 C1066 1.366 . S
C1066 C1065 1.366 . S
C1066 C1067 1.414 . S
C1066 C1069 1.499 . S
C1067 H1041 0.950 . S
C1067 C1066 1.414 . S
C1067 C1068 1.374 . S
C1068 H1042 0.950 . S
C1068 C1064 1.385 . S
C1068 C1067 1.374 . S
C1069 C1066 1.499 . S
C1069 C1070 1.373 1_565 S
C1069 C1071 1.389 . S
C1070 H1043 0.950 1_545 S
C1070 C1056 1.377 . S
C1070 C1069 1.373 1_545 S
C1071 C1055 1.377 1_565 S
C1071 C1069 1.389 . S
C1071 C1072 1.524 . S
C1072 C1071 1.524 . S
C1072 C1073 1.397 . S
C1072 C1077 1.363 . S
C1073 H1044 0.950 . S
C1073 C1072 1.397 . S
C1073 C1074 1.334 . S
C1074 H1045 0.950 . S
C1074 C1073 1.334 . S
C1074 C1075 1.287 . S
C1075 C1074 1.287 . S
C1075 C1076 1.524 . S
C1075 H1078 0.999 . S
C1076 H1046 0.950 . S
C1076 C1075 1.524 . S
C1076 C1077 1.415 . S
C1077 H1047 0.950 . S
C1077 C1072 1.363 . S
C1077 C1076 1.415 . S
H1078 C1075 0.999 . S
H1079 C1060 0.913 . S
H1080 C1098 0.951 . S
H1081 C1100 0.951 . S
H1082 C1102 0.950 . S
H1083 C1103 0.950 . S
H1084 C1105 0.950 . S
H1085 C1108 0.950 . S
H1086 C1109 0.950 . S
H1087 C1111 0.950 . S
H1088 C1112 0.950 . S
H1089 C1113 0.951 . S
H1090 C1115 0.951 . S
H1091 C1117 0.950 . S
H1092 C1118 0.950 . S
H1093 C1120 0.950 . S
H1094 C1123 0.950 . S
H1095 C1124 0.950 . S
H1096 C1126 0.950 . S
H1097 C1127 0.950 . S
C1098 H1080 0.951 . S
C1098 C1099 1.366 . S
C1098 C1100 1.388 . S
C1099 C1098 1.366 . S
C1099 C1103 1.385 . S
C1100 H1081 0.951 . S
C1100 C1098 1.388 . S
C1100 C1101 1.366 . S
C1101 C1100 1.366 . S
C1101 C1102 1.414 . S
C1101 C1104 1.499 . S
C1102 H1082 0.950 . S
C1102 C1101 1.414 . S
C1102 C1103 1.374 . S
C1103 H1083 0.950 . S
C1103 C1099 1.385 . S
C1103 C1102 1.374 . S
C1104 C1101 1.499 . S
C1104 C1105 1.373 . S
C1104 C1106 1.389 . S
C1105 H1084 0.950 . S
C1105 C1104 1.373 . S
C1105 C1121 1.377 . S
C1106 C1104 1.389 . S
C1106 C1107 1.524 . S
C1106 C1120 1.377 . S
C1107 C1106 1.524 . S
C1107 C1108 1.397 . S
C1107 C1112 1.363 . S
C1108 H1085 0.950 . S
C1108 C1107 1.397 . S
C1108 C1109 1.334 . S
C1109 H1086 0.950 . S
C1109 C1108 1.334 . S
C1109 C1110 1.287 . S
C1110 C1109 1.287 . S
C1110 C1111 1.524 . S
C1110 H1129 0.913 . S
C1111 H1087 0.950 . S
C1111 C1110 1.524 . S
C1111 C1112 1.415 . S
C1112 H1088 0.950 . S
C1112 C1107 1.363 . S
C1112 C1111 1.415 . S
C1113 H1089 0.951 . S
C1113 C1114 1.366 . S
C1113 C1115 1.388 . S
C1114 C1113 1.366 . S
C1114 C1118 1.385 . S
C1115 H1090 0.951 . S
C1115 C1113 1.388 . S
C1115 C1116 1.366 . S
C1116 C1115 1.366 . S
C1116 C1117 1.414 . S
C1116 C1119 1.499 . S
C1117 H1091 0.950 . S
C1117 C1116 1.414 . S
C1117 C1118 1.374 . S
C1118 H1092 0.950 . S
C1118 C1114 1.385 . S
C1118 C1117 1.374 . S
C1119 C1116 1.499 . S
C1119 C1120 1.373 . S
C1119 C1121 1.389 . S
C1120 H1093 0.950 . S
C1120 C1106 1.377 . S
C1120 C1119 1.373 . S
C1121 C1105 1.377 . S
C1121 C1119 1.389 . S
C1121 C1122 1.524 . S
C1122 C1121 1.524 . S
C1122 C1123 1.397 . S
C1122 C1127 1.363 . S
C1123 H1094 0.950 . S
C1123 C1122 1.397 . S
C1123 C1124 1.334 . S
C1124 H1095 0.950 . S
C1124 C1123 1.334 . S
C1124 C1125 1.287 . S
C1125 C1124 1.287 . S
C1125 C1126 1.524 . S
C1125 H1128 0.999 . S
C1126 H1096 0.950 . S
C1126 C1125 1.524 . S
C1126 C1127 1.415 . S
C1127 H1097 0.950 . S
C1127 C1122 1.363 . S
C1127 C1126 1.415 . S
H1128 C1125 0.999 . S
H1129 C1110 0.913 . S
H1130 C1148 0.951 . S
H1131 C1150 0.951 . S
H1132 C1152 0.950 . S
H1133 C1153 0.950 . S
H1134 C1155 0.950 . S
H1135 C1158 0.950 . S
H1136 C1159 0.950 . S
H1137 C1161 0.950 . S
H1138 C1162 0.950 . S
H1139 C1163 0.951 . S
H1140 C1165 0.951 . S
H1141 C1167 0.950 . S
H1142 C1168 0.950 . S
H1143 C1170 0.950 . S
H1144 C1173 0.950 . S
H1145 C1174 0.950 . S
H1146 C1176 0.950 . S
H1147 C1177 0.950 . S
C1148 H1130 0.951 . S
C1148 C1149 1.366 . S
C1148 C1150 1.388 . S
C1149 C1148 1.366 . S
C1149 C1153 1.385 . S
C1150 H1131 0.951 . S
C1150 C1148 1.388 . S
C1150 C1151 1.366 . S
C1151 C1150 1.366 . S
C1151 C1152 1.414 . S
C1151 C1154 1.499 . S
C1152 H1132 0.950 . S
C1152 C1151 1.414 . S
C1152 C1153 1.374 . S
C1153 H1133 0.950 . S
C1153 C1149 1.385 . S
C1153 C1152 1.374 . S
C1154 C1151 1.499 . S
C1154 C1155 1.373 . S
C1154 C1156 1.389 . S
C1155 H1134 0.950 . S
C1155 C1154 1.373 . S
C1155 C1171 1.377 . S
C1156 C1154 1.389 . S
C1156 C1157 1.524 . S
C1156 C1170 1.377 . S
C1157 C1156 1.524 . S
C1157 C1158 1.397 . S
C1157 C1162 1.363 . S
C1158 H1135 0.950 . S
C1158 C1157 1.397 . S
C1158 C1159 1.334 . S
C1159 H1136 0.950 . S
C1159 C1158 1.334 . S
C1159 C1160 1.287 . S
C1160 C1159 1.287 . S
C1160 C1161 1.524 . S
C1160 H1179 0.913 . S
C1161 H1137 0.950 . S
C1161 C1160 1.524 . S
C1161 C1162 1.415 . S
C1162 H1138 0.950 . S
C1162 C1157 1.363 . S
C1162 C1161 1.415 . S
C1163 H1139 0.951 . S
C1163 C1164 1.366 . S
C1163 C1165 1.388 . S
C1164 C1163 1.366 . S
C1164 C1168 1.385 . S
C1165 H1140 0.951 . S
C1165 C1163 1.388 . S
C1165 C1166 1.366 . S
C1166 C1165 1.366 . S
C1166 C1167 1.414 . S
C1166 C1169 1.499 . S
C1167 H1141 0.950 . S
C1167 C1166 1.414 . S
C1167 C1168 1.374 . S
C1168 H1142 0.950 . S
C1168 C1164 1.385 . S
C1168 C1167 1.374 . S
C1169 C1166 1.499 . S
C1169 C1170 1.373 . S
C1169 C1171 1.389 . S
C1170 H1143 0.950 . S
C1170 C1156 1.377 . S
C1170 C1169 1.373 . S
C1171 C1155 1.377 . S
C1171 C1169 1.389 . S
C1171 C1172 1.524 . S
C1172 C1171 1.524 . S
C1172 C1173 1.397 . S
C1172 C1177 1.363 . S
C1173 H1144 0.950 . S
C1173 C1172 1.397 . S
C1173 C1174 1.334 . S
C1174 H1145 0.950 . S
C1174 C1173 1.334 . S
C1174 C1175 1.287 . S
C1175 C1174 1.287 . S
C1175 C1176 1.524 . S
C1175 H1178 0.999 . S
C1176 H1146 0.950 . S
C1176 C1175 1.524 . S
C1176 C1177 1.415 . S
C1177 H1147 0.950 . S
C1177 C1172 1.363 . S
C1177 C1176 1.415 . S
H1178 C1175 0.999 . S
H1179 C1160 0.913 . S
H1180 C1198 0.951 . S
H1181 C1200 0.951 . S
H1182 C1202 0.950 . S
H1183 C1203 0.950 . S
H1184 C1205 0.950 . S
H1185 C1208 0.950 . S
H1186 C1209 0.950 . S
H1187 C1211 0.950 . S
H1188 C1212 0.950 . S
H1189 C1213 0.951 . S
H1190 C1215 0.951 . S
H1191 C1217 0.950 . S
H1192 C1218 0.950 . S
H1193 C1220 0.950 . S
H1194 C1223 0.950 . S
H1195 C1224 0.950 . S
H1196 C1226 0.950 . S
H1197 C1227 0.950 . S
C1198 H1180 0.951 . S
C1198 C1199 1.366 . S
C1198 C1200 1.388 . S
C1199 C1198 1.366 . S
C1199 C1203 1.385 . S
C1200 H1181 0.951 . S
C1200 C1198 1.388 . S
C1200 C1201 1.366 . S
C1201 C1200 1.366 . S
C1201 C1202 1.414 . S
C1201 C1204 1.499 . S
C1202 H1182 0.950 . S
C1202 C1201 1.414 . S
C1202 C1203 1.374 . S
C1203 H1183 0.950 . S
C1203 C1199 1.385 . S
C1203 C1202 1.374 . S
C1204 C1201 1.499 . S
C1204 C1205 1.373 . S
C1204 C1206 1.389 . S
C1205 H1184 0.950 . S
C1205 C1204 1.373 . S
C1205 C1221 1.377 . S
C1206 C1204 1.389 . S
C1206 C1207 1.524 . S
C1206 C1220 1.377 . S
C1207 C1206 1.524 . S
C1207 C1208 1.397 . S
C1207 C1212 1.363 . S
C1208 H1185 0.950 . S
C1208 C1207 1.397 . S
C1208 C1209 1.334 . S
C1209 H1186 0.950 . S
C1209 C1208 1.334 . S
C1209 C1210 1.287 . S
C1210 C1209 1.287 . S
C1210 C1211 1.524 . S
C1210 H1229 0.913 . S
C1211 H1187 0.950 . S
C1211 C1210 1.524 . S
C1211 C1212 1.415 . S
C1212 H1188 0.950 . S
C1212 C1207 1.363 . S
C1212 C1211 1.415 . S
C1213 H1189 0.951 . S
C1213 C1214 1.366 . S
C1213 C1215 1.388 . S
C1214 C1213 1.366 . S
C1214 C1218 1.385 . S
C1215 H1190 0.951 . S
C1215 C1213 1.388 . S
C1215 C1216 1.366 . S
C1216 C1215 1.366 . S
C1216 C1217 1.414 . S
C1216 C1219 1.499 . S
C1217 H1191 0.950 . S
C1217 C1216 1.414 . S
C1217 C1218 1.374 . S
C1218 H1192 0.950 . S
C1218 C1214 1.385 . S
C1218 C1217 1.374 . S
C1219 C1216 1.499 . S
C1219 C1220 1.373 . S
C1219 C1221 1.389 . S
C1220 H1193 0.950 . S
C1220 C1206 1.377 . S
C1220 C1219 1.373 . S
C1221 C1205 1.377 . S
C1221 C1219 1.389 . S
C1221 C1222 1.524 . S
C1222 C1221 1.524 . S
C1222 C1223 1.397 . S
C1222 C1227 1.363 . S
C1223 H1194 0.950 . S
C1223 C1222 1.397 . S
C1223 C1224 1.334 . S
C1224 H1195 0.950 . S
C1224 C1223 1.334 . S
C1224 C1225 1.287 . S
C1225 C1224 1.287 . S
C1225 C1226 1.524 . S
C1225 H1228 0.999 . S
C1226 H1196 0.950 . S
C1226 C1225 1.524 . S
C1226 C1227 1.415 . S
C1227 H1197 0.950 . S
C1227 C1222 1.363 . S
C1227 C1226 1.415 . S
H1228 C1225 0.999 . S
H1229 C1210 0.913 . S
H1230 C1248 0.951 . S
H1231 C1250 0.951 . S
H1232 C1252 0.950 . S
H1233 C1253 0.950 . S
H1234 C1255 0.950 . S
H1235 C1258 0.950 . S
H1236 C1259 0.950 . S
H1237 C1261 0.950 . S
H1238 C1262 0.950 . S
H1239 C1263 0.951 . S
H1240 C1265 0.951 . S
H1241 C1267 0.950 . S
H1242 C1268 0.950 . S
H1243 C1270 0.950 . S
H1244 C1273 0.950 . S
H1245 C1274 0.950 . S
H1246 C1276 0.950 . S
H1247 C1277 0.950 . S
C1248 H1230 0.951 . S
C1248 C1249 1.366 . S
C1248 C1250 1.388 . S
C1249 C1248 1.366 . S
C1249 C1253 1.385 . S
C1250 H1231 0.951 . S
C1250 C1248 1.388 . S
C1250 C1251 1.366 . S
C1251 C1250 1.366 . S
C1251 C1252 1.414 . S
C1251 C1254 1.499 . S
C1252 H1232 0.950 . S
C1252 C1251 1.414 . S
C1252 C1253 1.374 . S
C1253 H1233 0.950 . S
C1253 C1249 1.385 . S
C1253 C1252 1.374 . S
C1254 C1251 1.499 . S
C1254 C1255 1.373 . S
C1254 C1256 1.389 . S
C1255 H1234 0.950 . S
C1255 C1254 1.373 . S
C1255 C1271 1.377 . S
C1256 C1254 1.389 . S
C1256 C1257 1.524 . S
C1256 C1270 1.377 . S
C1257 C1256 1.524 . S
C1257 C1258 1.397 . S
C1257 C1262 1.363 . S
C1258 H1235 0.950 . S
C1258 C1257 1.397 . S
C1258 C1259 1.334 . S
C1259 H1236 0.950 . S
C1259 C1258 1.334 . S
C1259 C1260 1.287 . S
C1260 C1259 1.287 . S
C1260 C1261 1.524 . S
C1260 H1279 0.913 . S
C1261 H1237 0.950 . S
C1261 C1260 1.524 . S
C1261 C1262 1.415 . S
C1262 H1238 0.950 . S
C1262 C1257 1.363 . S
C1262 C1261 1.415 . S
C1263 H1239 0.951 . S
C1263 C1264 1.366 . S
C1263 C1265 1.388 . S
C1264 C1263 1.366 . S
C1264 C1268 1.385 . S
C1265 H1240 0.951 . S
C1265 C1263 1.388 . S
C1265 C1266 1.366 . S
C1266 C1265 1.366 . S
C1266 C1267 1.414 . S
C1266 C1269 1.499 . S
C1267 H1241 0.950 . S
C1267 C1266 1.414 . S
C1267 C1268 1.374 . S
C1268 H1242 0.950 . S
C1268 C1264 1.385 . S
C1268 C1267 1.374 . S
C1269 C1266 1.499 . S
C1269 C1270 1.373 . S
C1269 C1271 1.389 . S
C1270 H1243 0.950 . S
C1270 C1256 1.377 . S
C1270 C1269 1.373 . S
C1271 C1255 1.377 . S
C1271 C1269 1.389 . S
C1271 C1272 1.524 . S
C1272 C1271 1.524 . S
C1272 C1273 1.397 . S
C1272 C1277 1.363 . S
C1273 H1244 0.950 . S
C1273 C1272 1.397 . S
C1273 C1274 1.334 . S
C1274 H1245 0.950 . S
C1274 C1273 1.334 . S
C1274 C1275 1.287 . S
C1275 C1274 1.287 . S
C1275 C1276 1.524 . S
C1275 H1278 0.999 . S
C1276 H1246 0.950 . S
C1276 C1275 1.524 . S
C1276 C1277 1.415 . S
C1277 H1247 0.950 . S
C1277 C1272 1.363 . S
C1277 C1276 1.415 . S
H1278 C1275 0.999 . S
H1279 C1260 0.913 . S
H1280 C1298 0.951 . S
H1281 C1300 0.951 . S
H1282 C1302 0.950 . S
H1283 C1303 0.950 . S
H1284 C1305 0.950 . S
H1285 C1308 0.950 . S
H1286 C1309 0.950 . S
H1287 C1311 0.950 . S
H1288 C1312 0.950 . S
H1289 C1313 0.951 . S
H1290 C1315 0.951 . S
H1291 C1317 0.950 . S
H1292 C1318 0.950 . S
H1293 C1320 0.950 . S
H1294 C1323 0.950 . S
H1295 C1324 0.950 . S
H1296 C1326 0.950 . S
H1297 C1327 0.950 . S
C1298 H1280 0.951 . S
C1298 C1299 1.366 . S
C1298 C1300 1.388 . S
C1299 C1298 1.366 . S
C1299 C1303 1.385 . S
C1300 H1281 0.951 . S
C1300 C1298 1.388 . S
C1300 C1301 1.366 . S
C1301 C1300 1.366 . S
C1301 C1302 1.414 . S
C1301 C1304 1.499 . S
C1302 H1282 0.950 . S
C1302 C1301 1.414 . S
C1302 C1303 1.374 . S
C1303 H1283 0.950 . S
C1303 C1299 1.385 . S
C1303 C1302 1.374 . S
C1304 C1301 1.499 . S
C1304 C1305 1.373 . S
C1304 C1306 1.389 . S
C1305 H1284 0.950 . S
C1305 C1304 1.373 . S
C1305 C1321 1.377 . S
C1306 C1304 1.389 . S
C1306 C1307 1.524 . S
C1306 C1320 1.377 . S
C1307 C1306 1.524 . S
C1307 C1308 1.397 . S
C1307 C1312 1.363 . S
C1308 H1285 0.950 . S
C1308 C1307 1.397 . S
C1308 C1309 1.334 . S
C1309 H1286 0.950 . S
C1309 C1308 1.334 . S
C1309 C1310 1.287 . S
C1310 C1309 1.287 . S
C1310 C1311 1.524 . S
C1310 H1329 0.913 . S
C1311 H1287 0.950 . S
C1311 C1310 1.524 . S
C1311 C1312 1.415 . S
C1312 H1288 0.950 . S
C1312 C1307 1.363 . S
C1312 C1311 1.415 . S
C1313 H1289 0.951 . S
C1313 C1314 1.366 . S
C1313 C1315 1.388 . S
C1314 C1313 1.366 . S
C1314 C1318 1.385 . S
C1315 H1290 0.951 . S
C1315 C1313 1.388 . S
C1315 C1316 1.366 . S
C1316 C1315 1.366 . S
C1316 C1317 1.414 . S
C1316 C1319 1.499 . S
C1317 H1291 0.950 . S
C1317 C1316 1.414 . S
C1317 C1318 1.374 . S
C1318 H1292 0.950 . S
C1318 C1314 1.385 . S
C1318 C1317 1.374 . S
C1319 C1316 1.499 . S
C1319 C1320 1.373 . S
C1319 C1321 1.389 . S
C1320 H1293 0.950 . S
C1320 C1306 1.377 . S
C1320 C1319 1.373 . S
C1321 C1305 1.377 . S
C1321 C1319 1.389 . S
C1321 C1322 1.524 . S
C1322 C1321 1.524 . S
C1322 C1323 1.397 . S
C1322 C1327 1.363 . S
C1323 H1294 0.950 . S
C1323 C1322 1.397 . S
C1323 C1324 1.334 . S
C1324 H1295 0.950 . S
C1324 C1323 1.334 . S
C1324 C1325 1.287 . S
C1325 C1324 1.287 . S
C1325 C1326 1.524 . S
C1325 H1328 0.999 . S
C1326 H1296 0.950 . S
C1326 C1325 1.524 . S
C1326 C1327 1.415 . S
C1327 H1297 0.950 . S
C1327 C1322 1.363 . S
C1327 C1326 1.415 . S
H1328 C1325 0.999 . S
H1329 C1310 0.913 . S
H1330 C1348 0.951 . S
H1331 C1350 0.951 . S
H1332 C1352 0.950 . S
H1333 C1353 0.950 . S
H1334 C1355 0.950 . S
H1335 C1358 0.950 . S
H1336 C1359 0.950 . S
H1337 C1361 0.950 . S
H1338 C1362 0.950 . S
H1339 C1363 0.951 . S
H1340 C1365 0.951 . S
H1341 C1367 0.950 . S
H1342 C1368 0.950 . S
H1343 C1370 0.950 . S
H1344 C1373 0.950 . S
H1345 C1374 0.950 . S
H1346 C1376 0.950 . S
H1347 C1377 0.950 . S
C1348 H1330 0.951 . S
C1348 C1349 1.366 . S
C1348 C1350 1.388 . S
C1349 C1348 1.366 . S
C1349 C1353 1.385 . S
C1350 H1331 0.951 . S
C1350 C1348 1.388 . S
C1350 C1351 1.366 . S
C1351 C1350 1.366 . S
C1351 C1352 1.414 . S
C1351 C1354 1.499 . S
C1352 H1332 0.950 . S
C1352 C1351 1.414 . S
C1352 C1353 1.374 . S
C1353 H1333 0.950 . S
C1353 C1349 1.385 . S
C1353 C1352 1.374 . S
C1354 C1351 1.499 . S
C1354 C1355 1.373 . S
C1354 C1356 1.389 . S
C1355 H1334 0.950 . S
C1355 C1354 1.373 . S
C1355 C1371 1.377 . S
C1356 C1354 1.389 . S
C1356 C1357 1.524 . S
C1356 C1370 1.377 . S
C1357 C1356 1.524 . S
C1357 C1358 1.397 . S
C1357 C1362 1.363 . S
C1358 H1335 0.950 . S
C1358 C1357 1.397 . S
C1358 C1359 1.334 . S
C1359 H1336 0.950 . S
C1359 C1358 1.334 . S
C1359 C1360 1.287 . S
C1360 C1359 1.287 . S
C1360 C1361 1.524 . S
C1360 H1379 0.913 . S
C1361 H1337 0.950 . S
C1361 C1360 1.524 . S
C1361 C1362 1.415 . S
C1362 H1338 0.950 . S
C1362 C1357 1.363 . S
C1362 C1361 1.415 . S
C1363 H1339 0.951 . S
C1363 C1364 1.366 . S
C1363 C1365 1.388 . S
C1364 C1363 1.366 . S
C1364 C1368 1.385 . S
C1365 H1340 0.951 . S
C1365 C1363 1.388 . S
C1365 C1366 1.366 . S
C1366 C1365 1.366 . S
C1366 C1367 1.414 . S
C1366 C1369 1.499 . S
C1367 H1341 0.950 . S
C1367 C1366 1.414 . S
C1367 C1368 1.374 . S
C1368 H1342 0.950 . S
C1368 C1364 1.385 . S
C1368 C1367 1.374 . S
C1369 C1366 1.499 . S
C1369 C1370 1.373 . S
C1369 C1371 1.389 . S
C1370 H1343 0.950 . S
C1370 C1356 1.377 . S
C1370 C1369 1.373 . S
C1371 C1355 1.377 . S
C1371 C1369 1.389 . S
C1371 C1372 1.524 . S
C1372 C1371 1.524 . S
C1372 C1373 1.397 . S
C1372 C1377 1.363 . S
C1373 H1344 0.950 . S
C1373 C1372 1.397 . S
C1373 C1374 1.334 . S
C1374 H1345 0.950 . S
C1374 C1373 1.334 . S
C1374 C1375 1.287 . S
C1375 C1374 1.287 . S
C1375 C1376 1.524 . S
C1375 H1378 0.999 . S
C1376 H1346 0.950 . S
C1376 C1375 1.524 . S
C1376 C1377 1.415 . S
C1377 H1347 0.950 . S
C1377 C1372 1.363 . S
C1377 C1376 1.415 . S
H1378 C1375 0.999 . S
H1379 C1360 0.913 . S
H1380 C1398 0.951 . S
H1381 C1400 0.951 . S
H1382 C1402 0.950 . S
H1383 C1403 0.950 . S
H1384 C1405 0.950 . S
H1385 C1408 0.950 . S
H1386 C1409 0.950 . S
H1387 C1411 0.950 . S
H1388 C1412 0.950 . S
H1389 C1413 0.951 . S
H1390 C1415 0.951 . S
H1391 C1417 0.950 . S
H1392 C1418 0.950 . S
H1393 C1420 0.950 . S
H1394 C1423 0.950 . S
H1395 C1424 0.950 . S
H1396 C1426 0.950 . S
H1397 C1427 0.950 . S
C1398 H1380 0.951 . S
C1398 C1399 1.366 . S
C1398 C1400 1.388 . S
C1399 C1398 1.366 . S
C1399 C1403 1.385 . S
C1400 H1381 0.951 . S
C1400 C1398 1.388 . S
C1400 C1401 1.366 . S
C1401 C1400 1.366 . S
C1401 C1402 1.414 . S
C1401 C1404 1.499 . S
C1402 H1382 0.950 . S
C1402 C1401 1.414 . S
C1402 C1403 1.374 . S
C1403 H1383 0.950 . S
C1403 C1399 1.385 . S
C1403 C1402 1.374 . S
C1404 C1401 1.499 . S
C1404 C1405 1.373 1_565 S
C1404 C1406 1.389 1_556 S
C1405 H1384 0.950 . S
C1405 C1404 1.373 1_545 S
C1405 C1421 1.377 . S
C1406 C1404 1.389 1_554 S
C1406 C1407 1.524 . S
C1406 C1420 1.377 . S
C1407 C1406 1.524 . S
C1407 C1408 1.397 1_554 S
C1407 C1412 1.363 . S
C1408 H1385 0.950 . S
C1408 C1407 1.397 1_556 S
C1408 C1409 1.334 . S
C1409 H1386 0.950 . S
C1409 C1408 1.334 . S
C1409 C1410 1.287 1_556 S
C1410 C1409 1.287 1_554 S
C1410 C1411 1.524 . S
C1410 H1429 0.913 . S
C1411 H1387 0.950 . S
C1411 C1410 1.524 . S
C1411 C1412 1.415 . S
C1412 H1388 0.950 . S
C1412 C1407 1.363 . S
C1412 C1411 1.415 . S
C1413 H1389 0.951 . S
C1413 C1414 1.366 . S
C1413 C1415 1.388 . S
C1414 C1413 1.366 . S
C1414 C1418 1.385 . S
C1415 H1390 0.951 . S
C1415 C1413 1.388 . S
C1415 C1416 1.366 . S
C1416 C1415 1.366 . S
C1416 C1417 1.414 . S
C1416 C1419 1.499 . S
C1417 H1391 0.950 . S
C1417 C1416 1.414 . S
C1417 C1418 1.374 . S
C1418 H1392 0.950 . S
C1418 C1414 1.385 . S
C1418 C1417 1.374 . S
C1419 C1416 1.499 . S
C1419 C1420 1.373 1_545 S
C1419 C1421 1.389 1_554 S
C1420 H1393 0.950 . S
C1420 C1406 1.377 . S
C1420 C1419 1.373 1_565 S
C1421 C1405 1.377 . S
C1421 C1419 1.389 1_556 S
C1421 C1422 1.524 . S
C1422 C1421 1.524 . S
C1422 C1423 1.397 1_556 S
C1422 C1427 1.363 . S
C1423 H1394 0.950 . S
C1423 C1422 1.397 1_554 S
C1423 C1424 1.334 . S
C1424 H1395 0.950 . S
C1424 C1423 1.334 . S
C1424 C1425 1.287 1_554 S
C1425 C1424 1.287 1_556 S
C1425 C1426 1.524 . S
C1425 H1428 0.999 . S
C1426 H1396 0.950 . S
C1426 C1425 1.524 . S
C1426 C1427 1.415 . S
C1427 H1397 0.950 . S
C1427 C1422 1.363 . S
C1427 C1426 1.415 . S
H1428 C1425 0.999 . S
H1429 C1410 0.913 . S
H1430 C1448 0.951 . S
H1431 C1450 0.951 . S
H1432 C1452 0.950 . S
H1433 C1453 0.950 . S
H1434 C1455 0.950 . S
H1435 C1458 0.950 . S
H1436 C1459 0.950 . S
H1437 C1461 0.950 . S
H1438 C1462 0.950 . S
H1439 C1463 0.951 . S
H1440 C1465 0.951 . S
H1441 C1467 0.950 . S
H1442 C1468 0.950 . S
H1443 C1470 0.950 . S
H1444 C1473 0.950 . S
H1445 C1474 0.950 . S
H1446 C1476 0.950 . S
H1447 C1477 0.950 . S
C1448 H1430 0.951 . S
C1448 C1449 1.366 . S
C1448 C1450 1.388 . S
C1449 C1448 1.366 . S
C1449 C1453 1.385 . S
C1450 H1431 0.951 . S
C1450 C1448 1.388 . S
C1450 C1451 1.366 . S
C1451 C1450 1.366 . S
C1451 C1452 1.414 . S
C1451 C1454 1.499 . S
C1452 H1432 0.950 . S
C1452 C1451 1.414 . S
C1452 C1453 1.374 . S
C1453 H1433 0.950 . S
C1453 C1449 1.385 . S
C1453 C1452 1.374 . S
C1454 C1451 1.499 . S
C1454 C1455 1.373 . S
C1454 C1456 1.389 . S
C1455 H1434 0.950 . S
C1455 C1454 1.373 . S
C1455 C1471 1.377 . S
C1456 C1454 1.389 . S
C1456 C1457 1.524 . S
C1456 C1470 1.377 . S
C1457 C1456 1.524 . S
C1457 C1458 1.397 . S
C1457 C1462 1.363 . S
C1458 H1435 0.950 . S
C1458 C1457 1.397 . S
C1458 C1459 1.334 . S
C1459 H1436 0.950 . S
C1459 C1458 1.334 . S
C1459 C1460 1.287 . S
C1460 C1459 1.287 . S
C1460 C1461 1.524 . S
C1460 H1479 0.913 . S
C1461 H1437 0.950 . S
C1461 C1460 1.524 . S
C1461 C1462 1.415 . S
C1462 H1438 0.950 . S
C1462 C1457 1.363 . S
C1462 C1461 1.415 . S
C1463 H1439 0.951 . S
C1463 C1464 1.366 . S
C1463 C1465 1.388 . S
C1464 C1463 1.366 . S
C1464 C1468 1.385 . S
C1465 H1440 0.951 . S
C1465 C1463 1.388 . S
C1465 C1466 1.366 . S
C1466 C1465 1.366 . S
C1466 C1467 1.414 . S
C1466 C1469 1.499 . S
C1467 H1441 0.950 . S
C1467 C1466 1.414 . S
C1467 C1468 1.374 . S
C1468 H1442 0.950 . S
C1468 C1464 1.385 . S
C1468 C1467 1.374 . S
C1469 C1466 1.499 . S
C1469 C1470 1.373 . S
C1469 C1471 1.389 . S
C1470 H1443 0.950 . S
C1470 C1456 1.377 . S
C1470 C1469 1.373 . S
C1471 C1455 1.377 . S
C1471 C1469 1.389 . S
C1471 C1472 1.524 . S
C1472 C1471 1.524 . S
C1472 C1473 1.397 . S
C1472 C1477 1.363 . S
C1473 H1444 0.950 . S
C1473 C1472 1.397 . S
C1473 C1474 1.334 . S
C1474 H1445 0.950 . S
C1474 C1473 1.334 . S
C1474 C1475 1.287 . S
C1475 C1474 1.287 . S
C1475 C1476 1.524 . S
C1475 H1478 0.999 . S
C1476 H1446 0.950 . S
C1476 C1475 1.524 . S
C1476 C1477 1.415 . S
C1477 H1447 0.950 . S
C1477 C1472 1.363 . S
C1477 C1476 1.415 . S
H1478 C1475 0.999 . S
H1479 C1460 0.913 . S
H1480 C1498 0.951 . S
H1481 C1500 0.951 . S
H1482 C1502 0.950 . S
H1483 C1503 0.950 . S
H1484 C1505 0.950 . S
H1485 C1508 0.950 1_556 S
H1486 C1509 0.950 . S
H1487 C1511 0.950 . S
H1488 C1512 0.950 . S
H1489 C1513 0.951 . S
H1490 C1515 0.951 . S
H1491 C1517 0.950 . S
H1492 C1518 0.950 . S
H1493 C1520 0.950 . S
H1494 C1523 0.950 1_554 S
H1495 C1524 0.950 . S
H1496 C1526 0.950 . S
H1497 C1527 0.950 . S
C1498 H1480 0.951 . S
C1498 C1499 1.366 . S
C1498 C1500 1.388 . S
C1499 C1498 1.366 . S
C1499 C1503 1.385 . S
C1500 H1481 0.951 . S
C1500 C1498 1.388 . S
C1500 C1501 1.366 . S
C1501 C1500 1.366 . S
C1501 C1502 1.414 . S
C1501 C1504 1.499 . S
C1502 H1482 0.950 . S
C1502 C1501 1.414 . S
C1502 C1503 1.374 . S
C1503 H1483 0.950 . S
C1503 C1499 1.385 . S
C1503 C1502 1.374 . S
C1504 C1501 1.499 . S
C1504 C1505 1.373 1_455 S
C1504 C1506 1.389 1_556 S
C1505 H1484 0.950 . S
C1505 C1504 1.373 1_655 S
C1505 C1521 1.377 . S
C1506 C1504 1.389 1_554 S
C1506 C1507 1.524 . S
C1506 C1520 1.377 . S
C1507 C1506 1.524 . S
C1507 C1508 1.397 . S
C1507 C1512 1.363 . S
C1508 H1485 0.950 1_554 S
C1508 C1507 1.397 . S
C1508 C1509 1.334 . S
C1509 H1486 0.950 . S
C1509 C1508 1.334 . S
C1509 C1510 1.287 . S
C1510 C1509 1.287 . S
C1510 C1511 1.524 . S
C1510 H1529 0.913 . S
C1511 H1487 0.950 . S
C1511 C1510 1.524 . S
C1511 C1512 1.415 . S
C1512 H1488 0.950 . S
C1512 C1507 1.363 . S
C1512 C1511 1.415 . S
C1513 H1489 0.951 . S
C1513 C1514 1.366 . S
C1513 C1515 1.388 . S
C1514 C1513 1.366 . S
C1514 C1518 1.385 . S
C1515 H1490 0.951 . S
C1515 C1513 1.388 . S
C1515 C1516 1.366 . S
C1516 C1515 1.366 . S
C1516 C1517 1.414 . S
C1516 C1519 1.499 . S
C1517 H1491 0.950 . S
C1517 C1516 1.414 . S
C1517 C1518 1.374 . S
C1518 H1492 0.950 . S
C1518 C1514 1.385 . S
C1518 C1517 1.374 . S
C1519 C1516 1.499 . S
C1519 C1520 1.373 1_655 S
C1519 C1521 1.389 1_554 S
C1520 H1493 0.950 . S
C1520 C1506 1.377 . S
C1520 C1519 1.373 1_455 S
C1521 C1505 1.377 . S
C1521 C1519 1.389 1_556 S
C1521 C1522 1.524 . S
C1522 C1521 1.524 . S
C1522 C1523 1.397 . S
C1522 C1527 1.363 . S
C1523 H1494 0.950 1_556 S
C1523 C1522 1.397 . S
C1523 C1524 1.334 . S
C1524 H1495 0.950 . S
C1524 C1523 1.334 . S
C1524 C1525 1.287 . S
C1525 C1524 1.287 . S
C1525 C1526 1.524 . S
C1525 H1528 0.999 . S
C1526 H1496 0.950 . S
C1526 C1525 1.524 . S
C1526 C1527 1.415 . S
C1527 H1497 0.950 . S
C1527 C1522 1.363 . S
C1527 C1526 1.415 . S
H1528 C1525 0.999 . S
H1529 C1510 0.913 . S
H1530 C1548 0.951 . S
H1531 C1550 0.951 . S
H1532 C1552 0.950 . S
H1533 C1553 0.950 . S
H1534 C1555 0.950 . S
H1535 C1558 0.950 . S
H1536 C1559 0.950 . S
H1537 C1561 0.950 . S
H1538 C1562 0.950 . S
H1539 C1563 0.951 . S
H1540 C1565 0.951 . S
H1541 C1567 0.950 . S
H1542 C1568 0.950 . S
H1543 C1570 0.950 . S
H1544 C1573 0.950 . S
H1545 C1574 0.950 . S
H1546 C1576 0.950 . S
H1547 C1577 0.950 . S
C1548 H1530 0.951 . S
C1548 C1549 1.366 . S
C1548 C1550 1.388 . S
C1549 C1548 1.366 . S
C1549 C1553 1.385 . S
C1550 H1531 0.951 . S
C1550 C1548 1.388 . S
C1550 C1551 1.366 . S
C1551 C1550 1.366 . S
C1551 C1552 1.414 . S
C1551 C1554 1.499 . S
C1552 H1532 0.950 . S
C1552 C1551 1.414 . S
C1552 C1553 1.374 . S
C1553 H1533 0.950 . S
C1553 C1549 1.385 . S
C1553 C1552 1.374 . S
C1554 C1551 1.499 . S
C1554 C1555 1.373 1_545 S
C1554 C1556 1.389 . S
C1555 H1534 0.950 . S
C1555 C1554 1.373 1_565 S
C1555 C1571 1.377 . S
C1556 C1554 1.389 . S
C1556 C1557 1.524 . S
C1556 C1570 1.377 . S
C1557 C1556 1.524 . S
C1557 C1558 1.397 . S
C1557 C1562 1.363 . S
C1558 H1535 0.950 . S
C1558 C1557 1.397 . S
C1558 C1559 1.334 . S
C1559 H1536 0.950 . S
C1559 C1558 1.334 . S
C1559 C1560 1.287 . S
C1560 C1559 1.287 . S
C1560 C1561 1.524 . S
C1560 H1579 0.913 . S
C1561 H1537 0.950 . S
C1561 C1560 1.524 . S
C1561 C1562 1.415 . S
C1562 H1538 0.950 . S
C1562 C1557 1.363 . S
C1562 C1561 1.415 . S
C1563 H1539 0.951 . S
C1563 C1564 1.366 . S
C1563 C1565 1.388 . S
C1564 C1563 1.366 . S
C1564 C1568 1.385 . S
C1565 H1540 0.951 . S
C1565 C1563 1.388 . S
C1565 C1566 1.366 . S
C1566 C1565 1.366 . S
C1566 C1567 1.414 . S
C1566 C1569 1.499 . S
C1567 H1541 0.950 . S
C1567 C1566 1.414 . S
C1567 C1568 1.374 . S
C1568 H1542 0.950 . S
C1568 C1564 1.385 . S
C1568 C1567 1.374 . S
C1569 C1566 1.499 . S
C1569 C1570 1.373 1_565 S
C1569 C1571 1.389 . S
C1570 H1543 0.950 . S
C1570 C1556 1.377 . S
C1570 C1569 1.373 1_545 S
C1571 C1555 1.377 . S
C1571 C1569 1.389 . S
C1571 C1572 1.524 . S
C1572 C1571 1.524 . S
C1572 C1573 1.397 . S
C1572 C1577 1.363 . S
C1573 H1544 0.950 . S
C1573 C1572 1.397 . S
C1573 C1574 1.334 . S
C1574 H1545 0.950 . S
C1574 C1573 1.334 . S
C1574 C1575 1.287 . S
C1575 C1574 1.287 . S
C1575 C1576 1.524 . S
C1575 H1578 0.999 . S
C1576 H1546 0.950 . S
C1576 C1575 1.524 . S
C1576 C1577 1.415 . S
C1577 H1547 0.950 . S
C1577 C1572 1.363 . S
C1577 C1576 1.415 . S
H1578 C1575 0.999 . S
H1579 C1560 0.913 . S
H1580 C1598 0.951 . S
H1581 C1600 0.951 . S
H1582 C1602 0.950 . S
H1583 C1603 0.950 . S
H1584 C1605 0.950 . S
H1585 C1608 0.950 . S
H1586 C1609 0.950 . S
H1587 C1611 0.950 . S
H1588 C1612 0.950 . S
H1589 C1613 0.951 . S
H1590 C1615 0.951 . S
H1591 C1617 0.950 . S
H1592 C1618 0.950 . S
H1593 C1620 0.950 . S
H1594 C1623 0.950 . S
H1595 C1624 0.950 . S
H1596 C1626 0.950 . S
H1597 C1627 0.950 . S
C1598 H1580 0.951 . S
C1598 C1599 1.366 . S
C1598 C1600 1.388 . S
C1599 C1598 1.366 . S
C1599 C1603 1.385 . S
C1600 H1581 0.951 . S
C1600 C1598 1.388 . S
C1600 C1601 1.366 . S
C1601 C1600 1.366 . S
C1601 C1602 1.414 . S
C1601 C1604 1.499 . S
C1602 H1582 0.950 . S
C1602 C1601 1.414 . S
C1602 C1603 1.374 . S
C1603 H1583 0.950 . S
C1603 C1599 1.385 . S
C1603 C1602 1.374 . S
C1604 C1601 1.499 . S
C1604 C1605 1.373 . S
C1604 C1606 1.389 . S
C1605 H1584 0.950 . S
C1605 C1604 1.373 . S
C1605 C1621 1.377 1_554 S
C1606 C1604 1.389 . S
C1606 C1607 1.524 . S
C1606 C1620 1.377 1_554 S
C1607 C1606 1.524 . S
C1607 C1608 1.397 . S
C1607 C1612 1.363 . S
C1608 H1585 0.950 . S
C1608 C1607 1.397 . S
C1608 C1609 1.334 . S
C1609 H1586 0.950 . S
C1609 C1608 1.334 . S
C1609 C1610 1.287 . S
C1610 C1609 1.287 . S
C1610 C1611 1.524 . S
C1610 H1629 0.913 . S
C1611 H1587 0.950 . S
C1611 C1610 1.524 . S
C1611 C1612 1.415 . S
C1612 H1588 0.950 . S
C1612 C1607 1.363 . S
C1612 C1611 1.415 . S
C1613 H1589 0.951 . S
C1613 C1614 1.366 . S
C1613 C1615 1.388 . S
C1614 C1613 1.366 . S
C1614 C1618 1.385 . S
C1615 H1590 0.951 . S
C1615 C1613 1.388 . S
C1615 C1616 1.366 . S
C1616 C1615 1.366 . S
C1616 C1617 1.414 . S
C1616 C1619 1.499 . S
C1617 H1591 0.950 . S
C1617 C1616 1.414 . S
C1617 C1618 1.374 . S
C1618 H1592 0.950 . S
C1618 C1614 1.385 . S
C1618 C1617 1.374 . S
C1619 C1616 1.499 . S
C1619 C1620 1.373 . S
C1619 C1621 1.389 . S
C1620 H1593 0.950 . S
C1620 C1606 1.377 1_556 S
C1620 C1619 1.373 . S
C1621 C1605 1.377 1_556 S
C1621 C1619 1.389 . S
C1621 C1622 1.524 . S
C1622 C1621 1.524 . S
C1622 C1623 1.397 . S
C1622 C1627 1.363 . S
C1623 H1594 0.950 . S
C1623 C1622 1.397 . S
C1623 C1624 1.334 . S
C1624 H1595 0.950 . S
C1624 C1623 1.334 . S
C1624 C1625 1.287 . S
C1625 C1624 1.287 . S
C1625 C1626 1.524 . S
C1625 H1628 0.999 . S
C1626 H1596 0.950 . S
C1626 C1625 1.524 . S
C1626 C1627 1.415 . S
C1627 H1597 0.950 . S
C1627 C1622 1.363 . S
C1627 C1626 1.415 . S
H1628 C1625 0.999 . S
H1629 C1610 0.913 . S
H1630 C1648 0.951 . S
H1631 C1650 0.951 . S
H1632 C1652 0.950 . S
H1633 C1653 0.950 . S
H1634 C1655 0.951 . S
H1635 C1658 0.950 . S
H1636 C1659 0.950 . S
H1637 C1661 0.950 . S
H1638 C1662 0.950 . S
H1639 C1663 0.951 . S
H1640 C1665 0.951 . S
H1641 C1667 0.950 . S
H1642 C1668 0.950 . S
H1643 C1670 0.951 . S
H1644 C1673 0.950 . S
H1645 C1674 0.950 . S
H1646 C1676 0.950 . S
H1647 C1677 0.950 . S
C1648 H1630 0.951 . S
C1648 C1649 1.366 . S
C1648 C1650 1.388 . S
C1649 C1648 1.366 . S
C1649 C1653 1.385 . S
C1650 H1631 0.951 . S
C1650 C1648 1.388 . S
C1650 C1651 1.366 . S
C1651 C1650 1.366 . S
C1651 C1652 1.414 . S
C1651 C1654 1.499 . S
C1652 H1632 0.950 . S
C1652 C1651 1.414 . S
C1652 C1653 1.374 . S
C1653 H1633 0.950 . S
C1653 C1649 1.385 . S
C1653 C1652 1.374 . S
C1654 C1651 1.499 . S
C1654 C1655 1.389 . S
C1654 C1656 1.389 . S
C1655 H1634 0.951 . S
C1655 C1654 1.389 . S
C1655 C1671 1.366 1_455 S
C1656 C1654 1.389 . S
C1656 C1657 1.524 . S
C1656 C1670 1.366 1_455 S
C1657 C1656 1.524 . S
C1657 C1658 1.397 . S
C1657 C1662 1.363 . S
C1658 H1635 0.950 . S
C1658 C1657 1.397 . S
C1658 C1659 1.334 . S
C1659 H1636 0.950 . S
C1659 C1658 1.334 . S
C1659 C1660 1.287 . S
C1660 C1659 1.287 . S
C1660 C1661 1.524 . S
C1660 H1679 0.913 . S
C1661 H1637 0.950 . S
C1661 C1660 1.524 . S
C1661 C1662 1.415 . S
C1662 H1638 0.950 . S
C1662 C1657 1.363 . S
C1662 C1661 1.415 . S
C1663 H1639 0.951 . S
C1663 C1664 1.366 . S
C1663 C1665 1.388 . S
C1664 C1663 1.366 . S
C1664 C1668 1.385 . S
C1665 H1640 0.951 . S
C1665 C1663 1.388 . S
C1665 C1666 1.366 . S
C1666 C1665 1.366 . S
C1666 C1667 1.414 . S
C1666 C1669 1.499 . S
C1667 H1641 0.950 . S
C1667 C1666 1.414 . S
C1667 C1668 1.374 . S
C1668 H1642 0.950 . S
C1668 C1664 1.385 . S
C1668 C1667 1.374 . S
C1669 C1666 1.499 . S
C1669 C1670 1.389 . S
C1669 C1671 1.389 . S
C1670 H1643 0.951 . S
C1670 C1656 1.366 1_655 S
C1670 C1669 1.389 . S
C1671 C1655 1.366 1_655 S
C1671 C1669 1.389 . S
C1671 C1672 1.524 . S
C1672 C1671 1.524 . S
C1672 C1673 1.397 . S
C1672 C1677 1.363 . S
C1673 H1644 0.950 . S
C1673 C1672 1.397 . S
C1673 C1674 1.334 . S
C1674 H1645 0.950 . S
C1674 C1673 1.334 . S
C1674 C1675 1.287 . S
C1675 C1674 1.287 . S
C1675 C1676 1.524 . S
C1675 H1678 0.999 . S
C1676 H1646 0.950 . S
C1676 C1675 1.524 . S
C1676 C1677 1.415 . S
C1677 H1647 0.950 . S
C1677 C1672 1.363 . S
C1677 C1676 1.415 . S
H1678 C1675 0.999 . S
H1679 C1660 0.913 . S
H1680 C1698 0.951 . S
H1681 C1700 0.951 . S
H1682 C1702 0.950 . S
H1683 C1703 0.950 . S
H1684 C1705 0.950 . S
H1685 C1708 0.950 . S
H1686 C1709 0.950 . S
H1687 C1711 0.950 . S
H1688 C1712 0.950 . S
H1689 C1713 0.951 . S
H1690 C1715 0.951 . S
H1691 C1717 0.950 . S
H1692 C1718 0.950 . S
H1693 C1720 0.950 . S
H1694 C1723 0.950 . S
H1695 C1724 0.950 . S
H1696 C1726 0.950 . S
H1697 C1727 0.950 . S
C1698 H1680 0.951 . S
C1698 C1699 1.366 . S
C1698 C1700 1.388 . S
C1699 C1698 1.366 . S
C1699 C1703 1.385 . S
C1700 H1681 0.951 . S
C1700 C1698 1.388 . S
C1700 C1701 1.366 . S
C1701 C1700 1.366 . S
C1701 C1702 1.414 . S
C1701 C1704 1.499 . S
C1702 H1682 0.950 . S
C1702 C1701 1.414 . S
C1702 C1703 1.374 . S
C1703 H1683 0.950 . S
C1703 C1699 1.385 . S
C1703 C1702 1.374 . S
C1704 C1701 1.499 . S
C1704 C1705 1.373 . S
C1704 C1706 1.389 . S
C1705 H1684 0.950 . S
C1705 C1704 1.373 . S
C1705 C1721 1.377 . S
C1706 C1704 1.389 . S
C1706 C1707 1.524 . S
C1706 C1720 1.377 . S
C1707 C1706 1.524 . S
C1707 C1708 1.397 . S
C1707 C1712 1.363 . S
C1708 H1685 0.950 . S
C1708 C1707 1.397 . S
C1708 C1709 1.334 . S
C1709 H1686 0.950 . S
C1709 C1708 1.334 . S
C1709 C1710 1.287 . S
C1710 C1709 1.287 . S
C1710 C1711 1.524 . S
C1710 H1729 0.913 . S
C1711 H1687 0.950 . S
C1711 C1710 1.524 . S
C1711 C1712 1.415 . S
C1712 H1688 0.950 . S
C1712 C1707 1.363 . S
C1712 C1711 1.415 . S
C1713 H1689 0.951 . S
C1713 C1714 1.366 . S
C1713 C1715 1.388 . S
C1714 C1713 1.366 . S
C1714 C1718 1.385 . S
C1715 H1690 0.951 . S
C1715 C1713 1.388 . S
C1715 C1716 1.366 . S
C1716 C1715 1.366 . S
C1716 C1717 1.414 . S
C1716 C1719 1.499 . S
C1717 H1691 0.950 . S
C1717 C1716 1.414 . S
C1717 C1718 1.374 . S
C1718 H1692 0.950 . S
C1718 C1714 1.385 . S
C1718 C1717 1.374 . S
C1719 C1716 1.499 . S
C1719 C1720 1.373 . S
C1719 C1721 1.389 . S
C1720 H1693 0.950 . S
C1720 C1706 1.377 . S
C1720 C1719 1.373 . S
C1721 C1705 1.377 . S
C1721 C1719 1.389 . S
C1721 C1722 1.524 . S
C1722 C1721 1.524 . S
C1722 C1723 1.397 . S
C1722 C1727 1.363 . S
C1723 H1694 0.950 . S
C1723 C1722 1.397 . S
C1723 C1724 1.334 . S
C1724 H1695 0.950 . S
C1724 C1723 1.334 . S
C1724 C1725 1.287 . S
C1725 C1724 1.287 . S
C1725 C1726 1.524 . S
C1725 H1728 0.999 . S
C1726 H1696 0.950 . S
C1726 C1725 1.524 . S
C1726 C1727 1.415 . S
C1727 H1697 0.950 . S
C1727 C1722 1.363 . S
C1727 C1726 1.415 . S
H1728 C1725 0.999 . S
H1729 C1710 0.913 . S
H1730 C1748 0.951 . S
H1731 C1750 0.951 . S
H1732 C1752 0.950 . S
H1733 C1753 0.950 . S
H1734 C1755 0.950 . S
H1735 C1758 0.950 . S
H1736 C1759 0.950 . S
H1737 C1761 0.950 . S
H1738 C1762 0.950 . S
H1739 C1763 0.951 . S
H1740 C1765 0.951 . S
H1741 C1767 0.950 . S
H1742 C1768 0.950 . S
H1743 C1770 0.950 . S
H1744 C1773 0.950 . S
H1745 C1774 0.950 . S
H1746 C1776 0.950 . S
H1747 C1777 0.950 . S
C1748 H1730 0.951 . S
C1748 C1749 1.366 . S
C1748 C1750 1.388 . S
C1749 C1748 1.366 . S
C1749 C1753 1.385 . S
C1750 H1731 0.951 . S
C1750 C1748 1.388 . S
C1750 C1751 1.366 . S
C1751 C1750 1.366 . S
C1751 C1752 1.414 . S
C1751 C1754 1.499 . S
C1752 H1732 0.950 . S
C1752 C1751 1.414 . S
C1752 C1753 1.374 . S
C1753 H1733 0.950 . S
C1753 C1749 1.385 . S
C1753 C1752 1.374 . S
C1754 C1751 1.499 . S
C1754 C1755 1.373 . S
C1754 C1756 1.389 . S
C1755 H1734 0.950 . S
C1755 C1754 1.373 . S
C1755 C1771 1.377 . S
C1756 C1754 1.389 . S
C1756 C1757 1.524 . S
C1756 C1770 1.377 . S
C1757 C1756 1.524 . S
C1757 C1758 1.397 . S
C1757 C1762 1.363 . S
C1758 H1735 0.950 . S
C1758 C1757 1.397 . S
C1758 C1759 1.334 . S
C1759 H1736 0.950 . S
C1759 C1758 1.334 . S
C1759 C1760 1.287 . S
C1760 C1759 1.287 . S
C1760 C1761 1.524 . S
C1760 H1779 0.913 . S
C1761 H1737 0.950 . S
C1761 C1760 1.524 . S
C1761 C1762 1.415 . S
C1762 H1738 0.950 . S
C1762 C1757 1.363 . S
C1762 C1761 1.415 . S
C1763 H1739 0.951 . S
C1763 C1764 1.366 . S
C1763 C1765 1.388 . S
C1764 C1763 1.366 . S
C1764 C1768 1.385 . S
C1765 H1740 0.951 . S
C1765 C1763 1.388 . S
C1765 C1766 1.366 . S
C1766 C1765 1.366 . S
C1766 C1767 1.414 . S
C1766 C1769 1.499 . S
C1767 H1741 0.950 . S
C1767 C1766 1.414 . S
C1767 C1768 1.374 . S
C1768 H1742 0.950 . S
C1768 C1764 1.385 . S
C1768 C1767 1.374 . S
C1769 C1766 1.499 . S
C1769 C1770 1.373 . S
C1769 C1771 1.389 . S
C1770 H1743 0.950 . S
C1770 C1756 1.377 . S
C1770 C1769 1.373 . S
C1771 C1755 1.377 . S
C1771 C1769 1.389 . S
C1771 C1772 1.524 . S
C1772 C1771 1.524 . S
C1772 C1773 1.397 . S
C1772 C1777 1.363 . S
C1773 H1744 0.950 . S
C1773 C1772 1.397 . S
C1773 C1774 1.334 . S
C1774 H1745 0.950 . S
C1774 C1773 1.334 . S
C1774 C1775 1.287 . S
C1775 C1774 1.287 . S
C1775 C1776 1.524 . S
C1775 H1778 0.999 . S
C1776 H1746 0.950 . S
C1776 C1775 1.524 . S
C1776 C1777 1.415 . S
C1777 H1747 0.950 . S
C1777 C1772 1.363 . S
C1777 C1776 1.415 . S
H1778 C1775 0.999 . S
H1779 C1760 0.913 . S
H1780 C1798 0.951 . S
H1781 C1800 0.951 . S
H1782 C1802 0.950 . S
H1783 C1803 0.950 . S
H1784 C1805 0.950 . S
H1785 C1808 0.950 . S
H1786 C1809 0.950 . S
H1787 C1811 0.950 . S
H1788 C1812 0.950 . S
H1789 C1813 0.951 . S
H1790 C1815 0.951 . S
H1791 C1817 0.950 . S
H1792 C1818 0.950 . S
H1793 C1820 0.950 . S
H1794 C1823 0.950 . S
H1795 C1824 0.950 . S
H1796 C1826 0.950 . S
H1797 C1827 0.950 . S
C1798 H1780 0.951 . S
C1798 C1799 1.366 . S
C1798 C1800 1.388 . S
C1799 C1798 1.366 . S
C1799 C1803 1.385 . S
C1800 H1781 0.951 . S
C1800 C1798 1.388 . S
C1800 C1801 1.366 . S
C1801 C1800 1.366 . S
C1801 C1802 1.414 . S
C1801 C1804 1.499 . S
C1802 H1782 0.950 . S
C1802 C1801 1.414 . S
C1802 C1803 1.374 . S
C1803 H1783 0.950 . S
C1803 C1799 1.385 . S
C1803 C1802 1.374 . S
C1804 C1801 1.499 . S
C1804 C1805 1.373 . S
C1804 C1806 1.389 . S
C1805 H1784 0.950 . S
C1805 C1804 1.373 . S
C1805 C1821 1.377 . S
C1806 C1804 1.389 . S
C1806 C1807 1.524 . S
C1806 C1820 1.377 . S
C1807 C1806 1.524 . S
C1807 C1808 1.397 . S
C1807 C1812 1.363 . S
C1808 H1785 0.950 . S
C1808 C1807 1.397 . S
C1808 C1809 1.334 . S
C1809 H1786 0.950 . S
C1809 C1808 1.334 . S
C1809 C1810 1.287 . S
C1810 C1809 1.287 . S
C1810 C1811 1.524 . S
C1810 H1829 0.913 . S
C1811 H1787 0.950 . S
C1811 C1810 1.524 . S
C1811 C1812 1.415 . S
C1812 H1788 0.950 . S
C1812 C1807 1.363 . S
C1812 C1811 1.415 . S
C1813 H1789 0.951 . S
C1813 C1814 1.366 . S
C1813 C1815 1.388 . S
C1814 C1813 1.366 . S
C1814 C1818 1.385 . S
C1815 H1790 0.951 . S
C1815 C1813 1.388 . S
C1815 C1816 1.366 . S
C1816 C1815 1.366 . S
C1816 C1817 1.414 . S
C1816 C1819 1.499 . S
C1817 H1791 0.950 . S
C1817 C1816 1.414 . S
C1817 C1818 1.374 . S
C1818 H1792 0.950 . S
C1818 C1814 1.385 . S
C1818 C1817 1.374 . S
C1819 C1816 1.499 . S
C1819 C1820 1.373 . S
C1819 C1821 1.389 . S
C1820 H1793 0.950 . S
C1820 C1806 1.377 . S
C1820 C1819 1.373 . S
C1821 C1805 1.377 . S
C1821 C1819 1.389 . S
C1821 C1822 1.524 . S
C1822 C1821 1.524 . S
C1822 C1823 1.397 . S
C1822 C1827 1.363 . S
C1823 H1794 0.950 . S
C1823 C1822 1.397 . S
C1823 C1824 1.334 . S
C1824 H1795 0.950 . S
C1824 C1823 1.334 . S
C1824 C1825 1.287 . S
C1825 C1824 1.287 . S
C1825 C1826 1.524 . S
C1825 H1828 0.999 . S
C1826 H1796 0.950 . S
C1826 C1825 1.524 . S
C1826 C1827 1.415 . S
C1827 H1797 0.950 . S
C1827 C1822 1.363 . S
C1827 C1826 1.415 . S
H1828 C1825 0.999 . S
H1829 C1810 0.913 . S
H1830 C1848 0.951 . S
H1831 C1850 0.951 . S
H1832 C1852 0.950 . S
H1833 C1853 0.950 . S
H1834 C1855 0.950 . S
H1835 C1858 0.950 . S
H1836 C1859 0.950 . S
H1837 C1861 0.950 . S
H1838 C1862 0.950 . S
H1839 C1863 0.951 . S
H1840 C1865 0.951 . S
H1841 C1867 0.950 . S
H1842 C1868 0.950 . S
H1843 C1870 0.950 . S
H1844 C1873 0.950 . S
H1845 C1874 0.950 . S
H1846 C1876 0.950 . S
H1847 C1877 0.950 . S
C1848 H1830 0.951 . S
C1848 C1849 1.366 . S
C1848 C1850 1.388 . S
C1849 C1848 1.366 . S
C1849 C1853 1.385 . S
C1850 H1831 0.951 . S
C1850 C1848 1.388 . S
C1850 C1851 1.366 . S
C1851 C1850 1.366 . S
C1851 C1852 1.414 . S
C1851 C1854 1.499 . S
C1852 H1832 0.950 . S
C1852 C1851 1.414 . S
C1852 C1853 1.374 . S
C1853 H1833 0.950 . S
C1853 C1849 1.385 . S
C1853 C1852 1.374 . S
C1854 C1851 1.499 . S
C1854 C1855 1.373 . S
C1854 C1856 1.389 . S
C1855 H1834 0.950 . S
C1855 C1854 1.373 . S
C1855 C1871 1.377 . S
C1856 C1854 1.389 . S
C1856 C1857 1.524 . S
C1856 C1870 1.377 . S
C1857 C1856 1.524 . S
C1857 C1858 1.397 . S
C1857 C1862 1.363 . S
C1858 H1835 0.950 . S
C1858 C1857 1.397 . S
C1858 C1859 1.334 . S
C1859 H1836 0.950 . S
C1859 C1858 1.334 . S
C1859 C1860 1.287 . S
C1860 C1859 1.287 . S
C1860 C1861 1.524 . S
C1860 H1879 0.913 . S
C1861 H1837 0.950 . S
C1861 C1860 1.524 . S
C1861 C1862 1.415 . S
C1862 H1838 0.950 . S
C1862 C1857 1.363 . S
C1862 C1861 1.415 . S
C1863 H1839 0.951 . S
C1863 C1864 1.366 . S
C1863 C1865 1.388 . S
C1864 C1863 1.366 . S
C1864 C1868 1.385 . S
C1865 H1840 0.951 . S
C1865 C1863 1.388 . S
C1865 C1866 1.366 . S
C1866 C1865 1.366 . S
C1866 C1867 1.414 . S
C1866 C1869 1.499 . S
C1867 H1841 0.950 . S
C1867 C1866 1.414 . S
C1867 C1868 1.374 . S
C1868 H1842 0.950 . S
C1868 C1864 1.385 . S
C1868 C1867 1.374 . S
C1869 C1866 1.499 . S
C1869 C1870 1.373 . S
C1869 C1871 1.389 . S
C1870 H1843 0.950 . S
C1870 C1856 1.377 . S
C1870 C1869 1.373 . S
C1871 C1855 1.377 . S
C1871 C1869 1.389 . S
C1871 C1872 1.524 . S
C1872 C1871 1.524 . S
C1872 C1873 1.397 . S
C1872 C1877 1.363 . S
C1873 H1844 0.950 . S
C1873 C1872 1.397 . S
C1873 C1874 1.334 . S
C1874 H1845 0.950 . S
C1874 C1873 1.334 . S
C1874 C1875 1.287 . S
C1875 C1874 1.287 . S
C1875 C1876 1.524 . S
C1875 H1878 0.999 . S
C1876 H1846 0.950 . S
C1876 C1875 1.524 . S
C1876 C1877 1.415 . S
C1877 H1847 0.950 . S
C1877 C1872 1.363 . S
C1877 C1876 1.415 . S
H1878 C1875 0.999 . S
H1879 C1860 0.913 . S
H1880 C1898 0.951 . S
H1881 C1900 0.951 . S
H1882 C1902 0.950 . S
H1883 C1903 0.950 . S
H1884 C1905 0.950 . S
H1885 C1908 0.950 . S
H1886 C1909 0.950 . S
H1887 C1911 0.950 . S
H1888 C1912 0.950 . S
H1889 C1913 0.951 . S
H1890 C1915 0.951 . S
H1891 C1917 0.950 . S
H1892 C1918 0.950 . S
H1893 C1920 0.950 . S
H1894 C1923 0.950 . S
H1895 C1924 0.950 . S
H1896 C1926 0.950 . S
H1897 C1927 0.950 . S
C1898 H1880 0.951 . S
C1898 C1899 1.366 . S
C1898 C1900 1.388 . S
C1899 C1898 1.366 . S
C1899 C1903 1.385 . S
C1900 H1881 0.951 . S
C1900 C1898 1.388 . S
C1900 C1901 1.366 . S
C1901 C1900 1.366 . S
C1901 C1902 1.414 . S
C1901 C1904 1.499 . S
C1902 H1882 0.950 . S
C1902 C1901 1.414 . S
C1902 C1903 1.374 . S
C1903 H1883 0.950 . S
C1903 C1899 1.385 . S
C1903 C1902 1.374 . S
C1904 C1901 1.499 . S
C1904 C1905 1.373 . S
C1904 C1906 1.389 . S
C1905 H1884 0.950 . S
C1905 C1904 1.373 . S
C1905 C1921 1.377 . S
C1906 C1904 1.389 . S
C1906 C1907 1.524 . S
C1906 C1920 1.377 . S
C1907 C1906 1.524 . S
C1907 C1908 1.397 . S
C1907 C1912 1.363 . S
C1908 H1885 0.950 . S
C1908 C1907 1.397 . S
C1908 C1909 1.334 . S
C1909 H1886 0.950 . S
C1909 C1908 1.334 . S
C1909 C1910 1.287 . S
C1910 C1909 1.287 . S
C1910 C1911 1.524 . S
C1910 H1929 0.913 . S
C1911 H1887 0.950 . S
C1911 C1910 1.524 . S
C1911 C1912 1.415 . S
C1912 H1888 0.950 . S
C1912 C1907 1.363 . S
C1912 C1911 1.415 . S
C1913 H1889 0.951 . S
C1913 C1914 1.366 . S
C1913 C1915 1.388 . S
C1914 C1913 1.366 . S
C1914 C1918 1.385 . S
C1915 H1890 0.951 . S
C1915 C1913 1.388 . S
C1915 C1916 1.366 . S
C1916 C1915 1.366 . S
C1916 C1917 1.414 . S
C1916 C1919 1.499 . S
C1917 H1891 0.950 . S
C1917 C1916 1.414 . S
C1917 C1918 1.374 . S
C1918 H1892 0.950 . S
C1918 C1914 1.385 . S
C1918 C1917 1.374 . S
C1919 C1916 1.499 . S
C1919 C1920 1.373 . S
C1919 C1921 1.389 . S
C1920 H1893 0.950 . S
C1920 C1906 1.377 . S
C1920 C1919 1.373 . S
C1921 C1905 1.377 . S
C1921 C1919 1.389 . S
C1921 C1922 1.524 . S
C1922 C1921 1.524 . S
C1922 C1923 1.397 . S
C1922 C1927 1.363 . S
C1923 H1894 0.950 . S
C1923 C1922 1.397 . S
C1923 C1924 1.334 . S
C1924 H1895 0.950 . S
C1924 C1923 1.334 . S
C1924 C1925 1.287 . S
C1925 C1924 1.287 . S
C1925 C1926 1.524 . S
C1925 H1928 0.999 . S
C1926 H1896 0.950 . S
C1926 C1925 1.524 . S
C1926 C1927 1.415 . S
C1927 H1897 0.950 . S
C1927 C1922 1.363 . S
C1927 C1926 1.415 . S
H1928 C1925 0.999 . S
H1929 C1910 0.913 . S
H1930 C1948 0.951 . S
H1931 C1950 0.951 . S
H1932 C1952 0.950 . S
H1933 C1953 0.950 . S
H1934 C1955 0.950 . S
H1935 C1958 0.950 . S
H1936 C1959 0.950 . S
H1937 C1961 0.950 . S
H1938 C1962 0.950 . S
H1939 C1963 0.951 . S
H1940 C1965 0.951 . S
H1941 C1967 0.950 . S
H1942 C1968 0.950 . S
H1943 C1970 0.950 . S
H1944 C1973 0.950 . S
H1945 C1974 0.950 . S
H1946 C1976 0.950 . S
H1947 C1977 0.950 . S
C1948 H1930 0.951 . S
C1948 C1949 1.366 . S
C1948 C1950 1.388 . S
C1949 C1948 1.366 . S
C1949 C1953 1.385 . S
C1950 H1931 0.951 . S
C1950 C1948 1.388 . S
C1950 C1951 1.366 . S
C1951 C1950 1.366 . S
C1951 C1952 1.414 . S
C1951 C1954 1.499 . S
C1952 H1932 0.950 . S
C1952 C1951 1.414 . S
C1952 C1953 1.374 . S
C1953 H1933 0.950 . S
C1953 C1949 1.385 . S
C1953 C1952 1.374 . S
C1954 C1951 1.499 . S
C1954 C1955 1.373 . S
C1954 C1956 1.389 . S
C1955 H1934 0.950 . S
C1955 C1954 1.373 . S
C1955 C1971 1.377 . S
C1956 C1954 1.389 . S
C1956 C1957 1.524 . S
C1956 C1970 1.377 . S
C1957 C1956 1.524 . S
C1957 C1958 1.397 . S
C1957 C1962 1.363 . S
C1958 H1935 0.950 . S
C1958 C1957 1.397 . S
C1958 C1959 1.334 . S
C1959 H1936 0.950 . S
C1959 C1958 1.334 . S
C1959 C1960 1.287 . S
C1960 C1959 1.287 . S
C1960 C1961 1.524 . S
C1960 H1979 0.913 . S
C1961 H1937 0.950 . S
C1961 C1960 1.524 . S
C1961 C1962 1.415 . S
C1962 H1938 0.950 . S
C1962 C1957 1.363 . S
C1962 C1961 1.415 . S
C1963 H1939 0.951 . S
C1963 C1964 1.366 . S
C1963 C1965 1.388 . S
C1964 C1963 1.366 . S
C1964 C1968 1.385 . S
C1965 H1940 0.951 . S
C1965 C1963 1.388 . S
C1965 C1966 1.366 . S
C1966 C1965 1.366 . S
C1966 C1967 1.414 . S
C1966 C1969 1.499 . S
C1967 H1941 0.950 . S
C1967 C1966 1.414 . S
C1967 C1968 1.374 . S
C1968 H1942 0.950 . S
C1968 C1964 1.385 . S
C1968 C1967 1.374 . S
C1969 C1966 1.499 . S
C1969 C1970 1.373 . S
C1969 C1971 1.389 . S
C1970 H1943 0.950 . S
C1970 C1956 1.377 . S
C1970 C1969 1.373 . S
C1971 C1955 1.377 . S
C1971 C1969 1.389 . S
C1971 C1972 1.524 . S
C1972 C1971 1.524 . S
C1972 C1973 1.397 . S
C1972 C1977 1.363 . S
C1973 H1944 0.950 . S
C1973 C1972 1.397 . S
C1973 C1974 1.334 . S
C1974 H1945 0.950 . S
C1974 C1973 1.334 . S
C1974 C1975 1.287 . S
C1975 C1974 1.287 . S
C1975 C1976 1.524 . S
C1975 H1978 0.999 . S
C1976 H1946 0.950 . S
C1976 C1975 1.524 . S
C1976 C1977 1.415 . S
C1977 H1947 0.950 . S
C1977 C1972 1.363 . S
C1977 C1976 1.415 . S
H1978 C1975 0.999 . S
H1979 C1960 0.913 . S
H1980 C1998 0.951 . S
H1981 C2000 0.951 . S
H1982 C2002 0.950 . S
H1983 C2003 0.950 . S
H1984 C2005 0.950 . S
H1985 C2008 0.950 . S
H1986 C2009 0.950 . S
H1987 C2011 0.950 . S
H1988 C2012 0.950 . S
H1989 C2013 0.951 . S
H1990 C2015 0.951 . S
H1991 C2017 0.950 . S
H1992 C2018 0.950 . S
H1993 C2020 0.950 . S
H1994 C2023 0.950 . S
H1995 C2024 0.950 . S
H1996 C2026 0.950 . S
H1997 C2027 0.950 . S
C1998 H1980 0.951 . S
C1998 C1999 1.366 . S
C1998 C2000 1.388 . S
C1999 C1998 1.366 . S
C1999 C2003 1.385 . S
C2000 H1981 0.951 . S
C2000 C1998 1.388 . S
C2000 C2001 1.366 . S
C2001 C2000 1.366 . S
C2001 C2002 1.414 . S
C2001 C2004 1.499 . S
C2002 H1982 0.950 . S
C2002 C2001 1.414 . S
C2002 C2003 1.374 . S
C2003 H1983 0.950 . S
C2003 C1999 1.385 . S
C2003 C2002 1.374 . S
C2004 C2001 1.499 . S
C2004 C2005 1.373 . S
C2004 C2006 1.389 . S
C2005 H1984 0.950 . S
C2005 C2004 1.373 . S
C2005 C2021 1.377 . S
C2006 C2004 1.389 . S
C2006 C2007 1.524 . S
C2006 C2020 1.377 . S
C2007 C2006 1.524 . S
C2007 C2008 1.397 . S
C2007 C2012 1.363 . S
C2008 H1985 0.950 . S
C2008 C2007 1.397 . S
C2008 C2009 1.334 . S
C2009 H1986 0.950 . S
C2009 C2008 1.334 . S
C2009 C2010 1.287 . S
C2010 C2009 1.287 . S
C2010 C2011 1.524 . S
C2010 H2029 0.913 . S
C2011 H1987 0.950 . S
C2011 C2010 1.524 . S
C2011 C2012 1.415 . S
C2012 H1988 0.950 . S
C2012 C2007 1.363 . S
C2012 C2011 1.415 . S
C2013 H1989 0.951 . S
C2013 C2014 1.366 . S
C2013 C2015 1.388 . S
C2014 C2013 1.366 . S
C2014 C2018 1.385 . S
C2015 H1990 0.951 . S
C2015 C2013 1.388 . S
C2015 C2016 1.366 . S
C2016 C2015 1.366 . S
C2016 C2017 1.414 . S
C2016 C2019 1.499 . S
C2017 H1991 0.950 . S
C2017 C2016 1.414 . S
C2017 C2018 1.374 . S
C2018 H1992 0.950 . S
C2018 C2014 1.385 . S
C2018 C2017 1.374 . S
C2019 C2016 1.499 . S
C2019 C2020 1.373 . S
C2019 C2021 1.389 . S
C2020 H1993 0.950 . S
C2020 C2006 1.377 . S
C2020 C2019 1.373 . S
C2021 C2005 1.377 . S
C2021 C2019 1.389 . S
C2021 C2022 1.524 . S
C2022 C2021 1.524 . S
C2022 C2023 1.397 . S
C2022 C2027 1.363 . S
C2023 H1994 0.950 . S
C2023 C2022 1.397 . S
C2023 C2024 1.334 . S
C2024 H1995 0.950 . S
C2024 C2023 1.334 . S
C2024 C2025 1.287 . S
C2025 C2024 1.287 . S
C2025 C2026 1.524 . S
C2025 H2028 0.999 . S
C2026 H1996 0.950 . S
C2026 C2025 1.524 . S
C2026 C2027 1.415 . S
C2027 H1997 0.950 . S
C2027 C2022 1.363 . S
C2027 C2026 1.415 . S
H2028 C2025 0.999 . S
H2029 C2010 0.913 . S
H2030 C2048 0.951 . S
H2031 C2050 0.951 . S
H2032 C2052 0.950 . S
H2033 C2053 0.950 . S
H2034 C2055 0.950 . S
H2035 C2058 0.950 . S
H2036 C2059 0.950 . S
H2037 C2061 0.950 . S
H2038 C2062 0.950 . S
H2039 C2063 0.951 . S
H2040 C2065 0.951 . S
H2041 C2067 0.950 . S
H2042 C2068 0.950 . S
H2043 C2070 0.950 . S
H2044 C2073 0.950 . S
H2045 C2074 0.950 . S
H2046 C2076 0.950 . S
H2047 C2077 0.950 . S
C2048 H2030 0.951 . S
C2048 C2049 1.366 . S
C2048 C2050 1.388 . S
C2049 C2048 1.366 . S
C2049 C2053 1.385 . S
C2050 H2031 0.951 . S
C2050 C2048 1.388 . S
C2050 C2051 1.366 . S
C2051 C2050 1.366 . S
C2051 C2052 1.414 . S
C2051 C2054 1.499 . S
C2052 H2032 0.950 . S
C2052 C2051 1.414 . S
C2052 C2053 1.374 . S
C2053 H2033 0.950 . S
C2053 C2049 1.385 . S
C2053 C2052 1.374 . S
C2054 C2051 1.499 . S
C2054 C2055 1.373 . S
C2054 C2056 1.389 . S
C2055 H2034 0.950 . S
C2055 C2054 1.373 . S
C2055 C2071 1.377 . S
C2056 C2054 1.389 . S
C2056 C2057 1.524 . S
C2056 C2070 1.377 . S
C2057 C2056 1.524 . S
C2057 C2058 1.397 . S
C2057 C2062 1.363 . S
C2058 H2035 0.950 . S
C2058 C2057 1.397 . S
C2058 C2059 1.334 . S
C2059 H2036 0.950 . S
C2059 C2058 1.334 . S
C2059 C2060 1.287 . S
C2060 C2059 1.287 . S
C2060 C2061 1.524 . S
C2060 H2079 0.913 . S
C2061 H2037 0.950 . S
C2061 C2060 1.524 . S
C2061 C2062 1.415 . S
C2062 H2038 0.950 . S
C2062 C2057 1.363 . S
C2062 C2061 1.415 . S
C2063 H2039 0.951 . S
C2063 C2064 1.366 . S
C2063 C2065 1.388 . S
C2064 C2063 1.366 . S
C2064 C2068 1.385 . S
C2065 H2040 0.951 . S
C2065 C2063 1.388 . S
C2065 C2066 1.366 . S
C2066 C2065 1.366 . S
C2066 C2067 1.414 . S
C2066 C2069 1.499 . S
C2067 H2041 0.950 . S
C2067 C2066 1.414 . S
C2067 C2068 1.374 . S
C2068 H2042 0.950 . S
C2068 C2064 1.385 . S
C2068 C2067 1.374 . S
C2069 C2066 1.499 . S
C2069 C2070 1.373 . S
C2069 C2071 1.389 . S
C2070 H2043 0.950 . S
C2070 C2056 1.377 . S
C2070 C2069 1.373 . S
C2071 C2055 1.377 . S
C2071 C2069 1.389 . S
C2071 C2072 1.524 . S
C2072 C2071 1.524 . S
C2072 C2073 1.397 . S
C2072 C2077 1.363 . S
C2073 H2044 0.950 . S
C2073 C2072 1.397 . S
C2073 C2074 1.334 . S
C2074 H2045 0.950 . S
C2074 C2073 1.334 . S
C2074 C2075 1.287 . S
C2075 C2074 1.287 . S
C2075 C2076 1.524 . S
C2075 H2078 0.999 . S
C2076 H2046 0.950 . S
C2076 C2075 1.524 . S
C2076 C2077 1.415 . S
C2077 H2047 0.950 . S
C2077 C2072 1.363 . S
C2077 C2076 1.415 . S
H2078 C2075 0.999 . S
H2079 C2060 0.913 . S
H2080 C2098 0.951 . S
H2081 C2100 0.951 . S
H2082 C2102 0.950 . S
H2083 C2103 0.950 . S
H2084 C2105 0.950 . S
H2085 C2108 0.950 . S
H2086 C2109 0.950 . S
H2087 C2111 0.950 . S
H2088 C2112 0.950 . S
H2089 C2113 0.951 . S
H2090 C2115 0.951 . S
H2091 C2117 0.950 . S
H2092 C2118 0.950 . S
H2093 C2120 0.950 . S
H2094 C2123 0.950 . S
H2095 C2124 0.950 . S
H2096 C2126 0.950 . S
H2097 C2127 0.950 . S
C2098 H2080 0.951 . S
C2098 C2099 1.366 . S
C2098 C2100 1.388 . S
C2099 C2098 1.366 . S
C2099 C2103 1.385 . S
C2100 H2081 0.951 . S
C2100 C2098 1.388 . S
C2100 C2101 1.366 . S
C2101 C2100 1.366 . S
C2101 C2102 1.414 . S
C2101 C2104 1.499 . S
C2102 H2082 0.950 . S
C2102 C2101 1.414 . S
C2102 C2103 1.374 . S
C2103 H2083 0.950 . S
C2103 C2099 1.385 . S
C2103 C2102 1.374 . S
C2104 C2101 1.499 . S
C2104 C2105 1.373 . S
C2104 C2106 1.389 . S
C2105 H2084 0.950 . S
C2105 C2104 1.373 . S
C2105 C2121 1.377 . S
C2106 C2104 1.389 . S
C2106 C2107 1.524 . S
C2106 C2120 1.377 . S
C2107 C2106 1.524 . S
C2107 C2108 1.397 . S
C2107 C2112 1.363 . S
C2108 H2085 0.950 . S
C2108 C2107 1.397 . S
C2108 C2109 1.334 . S
C2109 H2086 0.950 . S
C2109 C2108 1.334 . S
C2109 C2110 1.287 . S
C2110 C2109 1.287 . S
C2110 C2111 1.524 . S
C2110 H2129 0.913 . S
C2111 H2087 0.950 . S
C2111 C2110 1.524 . S
C2111 C2112 1.415 . S
C2112 H2088 0.950 . S
C2112 C2107 1.363 . S
C2112 C2111 1.415 . S
C2113 H2089 0.951 . S
C2113 C2114 1.366 . S
C2113 C2115 1.388 . S
C2114 C2113 1.366 . S
C2114 C2118 1.385 . S
C2115 H2090 0.951 . S
C2115 C2113 1.388 . S
C2115 C2116 1.366 . S
C2116 C2115 1.366 . S
C2116 C2117 1.414 . S
C2116 C2119 1.499 . S
C2117 H2091 0.950 . S
C2117 C2116 1.414 . S
C2117 C2118 1.374 . S
C2118 H2092 0.950 . S
C2118 C2114 1.385 . S
C2118 C2117 1.374 . S
C2119 C2116 1.499 . S
C2119 C2120 1.373 . S
C2119 C2121 1.389 . S
C2120 H2093 0.950 . S
C2120 C2106 1.377 . S
C2120 C2119 1.373 . S
C2121 C2105 1.377 . S
C2121 C2119 1.389 . S
C2121 C2122 1.524 . S
C2122 C2121 1.524 . S
C2122 C2123 1.397 . S
C2122 C2127 1.363 . S
C2123 H2094 0.950 . S
C2123 C2122 1.397 . S
C2123 C2124 1.334 . S
C2124 H2095 0.950 . S
C2124 C2123 1.334 . S
C2124 C2125 1.287 . S
C2125 C2124 1.287 . S
C2125 C2126 1.524 . S
C2125 H2128 0.999 . S
C2126 H2096 0.950 . S
C2126 C2125 1.524 . S
C2126 C2127 1.415 . S
C2127 H2097 0.950 . S
C2127 C2122 1.363 . S
C2127 C2126 1.415 . S
H2128 C2125 0.999 . S
H2129 C2110 0.913 . S
H2130 C2148 0.951 . S
H2131 C2150 0.951 . S
H2132 C2152 0.950 . S
H2133 C2153 0.950 . S
H2134 C2155 0.950 . S
H2135 C2158 0.950 . S
H2136 C2159 0.950 . S
H2137 C2161 0.950 . S
H2138 C2162 0.950 . S
H2139 C2163 0.951 . S
H2140 C2165 0.951 . S
H2141 C2167 0.950 . S
H2142 C2168 0.950 . S
H2143 C2170 0.950 . S
H2144 C2173 0.950 . S
H2145 C2174 0.950 . S
H2146 C2176 0.950 . S
H2147 C2177 0.950 . S
C2148 H2130 0.951 . S
C2148 C2149 1.366 . S
C2148 C2150 1.388 . S
C2149 C2148 1.366 . S
C2149 C2153 1.385 . S
C2150 H2131 0.951 . S
C2150 C2148 1.388 . S
C2150 C2151 1.366 . S
C2151 C2150 1.366 . S
C2151 C2152 1.414 . S
C2151 C2154 1.499 . S
C2152 H2132 0.950 . S
C2152 C2151 1.414 . S
C2152 C2153 1.374 . S
C2153 H2133 0.950 . S
C2153 C2149 1.385 . S
C2153 C2152 1.374 . S
C2154 C2151 1.499 . S
C2154 C2155 1.373 . S
C2154 C2156 1.389 . S
C2155 H2134 0.950 . S
C2155 C2154 1.373 . S
C2155 C2171 1.377 . S
C2156 C2154 1.389 . S
C2156 C2157 1.524 . S
C2156 C2170 1.377 . S
C2157 C2156 1.524 . S
C2157 C2158 1.397 . S
C2157 C2162 1.363 . S
C2158 H2135 0.950 . S
C2158 C2157 1.397 . S
C2158 C2159 1.334 . S
C2159 H2136 0.950 . S
C2159 C2158 1.334 . S
C2159 C2160 1.287 . S
C2160 C2159 1.287 . S
C2160 C2161 1.524 . S
C2160 H2179 0.913 . S
C2161 H2137 0.950 . S
C2161 C2160 1.524 . S
C2161 C2162 1.415 . S
C2162 H2138 0.950 . S
C2162 C2157 1.363 . S
C2162 C2161 1.415 . S
C2163 H2139 0.951 . S
C2163 C2164 1.366 . S
C2163 C2165 1.388 . S
C2164 C2163 1.366 . S
C2164 C2168 1.385 . S
C2165 H2140 0.951 . S
C2165 C2163 1.388 . S
C2165 C2166 1.366 . S
C2166 C2165 1.366 . S
C2166 C2167 1.414 . S
C2166 C2169 1.499 . S
C2167 H2141 0.950 . S
C2167 C2166 1.414 . S
C2167 C2168 1.374 . S
C2168 H2142 0.950 . S
C2168 C2164 1.385 . S
C2168 C2167 1.374 . S
C2169 C2166 1.499 . S
C2169 C2170 1.373 . S
C2169 C2171 1.389 . S
C2170 H2143 0.950 . S
C2170 C2156 1.377 . S
C2170 C2169 1.373 . S
C2171 C2155 1.377 . S
C2171 C2169 1.389 . S
C2171 C2172 1.524 . S
C2172 C2171 1.524 . S
C2172 C2173 1.397 . S
C2172 C2177 1.363 . S
C2173 H2144 0.950 . S
C2173 C2172 1.397 . S
C2173 C2174 1.334 . S
C2174 H2145 0.950 . S
C2174 C2173 1.334 . S
C2174 C2175 1.287 . S
C2175 C2174 1.287 . S
C2175 C2176 1.524 . S
C2175 H2178 0.999 . S
C2176 H2146 0.950 . S
C2176 C2175 1.524 . S
C2176 C2177 1.415 . S
C2177 H2147 0.950 . S
C2177 C2172 1.363 . S
C2177 C2176 1.415 . S
H2178 C2175 0.999 . S
H2179 C2160 0.913 . S
H2180 C2198 0.951 . S
H2181 C2200 0.951 . S
H2182 C2202 0.950 . S
H2183 C2203 0.950 . S
H2184 C2205 0.950 . S
H2185 C2208 0.950 . S
H2186 C2209 0.950 . S
H2187 C2211 0.950 . S
H2188 C2212 0.950 . S
H2189 C2213 0.951 . S
H2190 C2215 0.951 . S
H2191 C2217 0.950 . S
H2192 C2218 0.950 . S
H2193 C2220 0.950 . S
H2194 C2223 0.950 . S
H2195 C2224 0.950 . S
H2196 C2226 0.950 . S
H2197 C2227 0.950 . S
C2198 H2180 0.951 . S
C2198 C2199 1.366 . S
C2198 C2200 1.388 . S
C2199 C2198 1.366 . S
C2199 C2203 1.385 . S
C2200 H2181 0.951 . S
C2200 C2198 1.388 . S
C2200 C2201 1.366 . S
C2201 C2200 1.366 . S
C2201 C2202 1.414 . S
C2201 C2204 1.499 . S
C2202 H2182 0.950 . S
C2202 C2201 1.414 . S
C2202 C2203 1.374 . S
C2203 H2183 0.950 . S
C2203 C2199 1.385 . S
C2203 C2202 1.374 . S
C2204 C2201 1.499 . S
C2204 C2205 1.373 . S
C2204 C2206 1.389 . S
C2205 H2184 0.950 . S
C2205 C2204 1.373 . S
C2205 C2221 1.377 . S
C2206 C2204 1.389 . S
C2206 C2207 1.524 . S
C2206 C2220 1.377 . S
C2207 C2206 1.524 . S
C2207 C2208 1.397 . S
C2207 C2212 1.363 . S
C2208 H2185 0.950 . S
C2208 C2207 1.397 . S
C2208 C2209 1.334 . S
C2209 H2186 0.950 . S
C2209 C2208 1.334 . S
C2209 C2210 1.287 . S
C2210 C2209 1.287 . S
C2210 C2211 1.524 . S
C2210 H2229 0.913 . S
C2211 H2187 0.950 . S
C2211 C2210 1.524 . S
C2211 C2212 1.415 . S
C2212 H2188 0.950 . S
C2212 C2207 1.363 . S
C2212 C2211 1.415 . S
C2213 H2189 0.951 . S
C2213 C2214 1.366 . S
C2213 C2215 1.388 . S
C2214 C2213 1.366 . S
C2214 C2218 1.385 . S
C2215 H2190 0.951 . S
C2215 C2213 1.388 . S
C2215 C2216 1.366 . S
C2216 C2215 1.366 . S
C2216 C2217 1.414 . S
C2216 C2219 1.499 . S
C2217 H2191 0.950 . S
C2217 C2216 1.414 . S
C2217 C2218 1.374 . S
C2218 H2192 0.950 . S
C2218 C2214 1.385 . S
C2218 C2217 1.374 . S
C2219 C2216 1.499 . S
C2219 C2220 1.373 . S
C2219 C2221 1.389 . S
C2220 H2193 0.950 . S
C2220 C2206 1.377 . S
C2220 C2219 1.373 . S
C2221 C2205 1.377 . S
C2221 C2219 1.389 . S
C2221 C2222 1.524 . S
C2222 C2221 1.524 . S
C2222 C2223 1.397 . S
C2222 C2227 1.363 . S
C2223 H2194 0.950 . S
C2223 C2222 1.397 . S
C2223 C2224 1.334 . S
C2224 H2195 0.950 . S
C2224 C2223 1.334 . S
C2224 C2225 1.287 . S
C2225 C2224 1.287 . S
C2225 C2226 1.524 . S
C2225 H2228 0.999 . S
C2226 H2196 0.950 . S
C2226 C2225 1.524 . S
C2226 C2227 1.415 . S
C2227 H2197 0.950 . S
C2227 C2222 1.363 . S
C2227 C2226 1.415 . S
H2228 C2225 0.999 . S
H2229 C2210 0.913 . S
H2230 C2248 0.951 . S
H2231 C2250 0.951 . S
H2232 C2252 0.950 . S
H2233 C2253 0.950 . S
H2234 C2255 0.950 . S
H2235 C2258 0.950 . S
H2236 C2259 0.950 . S
H2237 C2261 0.950 . S
H2238 C2262 0.950 . S
H2239 C2263 0.951 . S
H2240 C2265 0.951 . S
H2241 C2267 0.950 . S
H2242 C2268 0.950 . S
H2243 C2270 0.950 . S
H2244 C2273 0.950 . S
H2245 C2274 0.950 . S
H2246 C2276 0.950 . S
H2247 C2277 0.950 . S
C2248 H2230 0.951 . S
C2248 C2249 1.366 . S
C2248 C2250 1.388 . S
C2249 C2248 1.366 . S
C2249 C2253 1.385 . S
C2250 H2231 0.951 . S
C2250 C2248 1.388 . S
C2250 C2251 1.366 . S
C2251 C2250 1.366 . S
C2251 C2252 1.414 . S
C2251 C2254 1.499 . S
C2252 H2232 0.950 . S
C2252 C2251 1.414 . S
C2252 C2253 1.374 . S
C2253 H2233 0.950 . S
C2253 C2249 1.385 . S
C2253 C2252 1.374 . S
C2254 C2251 1.499 . S
C2254 C2255 1.373 . S
C2254 C2256 1.389 . S
C2255 H2234 0.950 . S
C2255 C2254 1.373 . S
C2255 C2271 1.377 . S
C2256 C2254 1.389 . S
C2256 C2257 1.524 . S
C2256 C2270 1.377 . S
C2257 C2256 1.524 . S
C2257 C2258 1.397 . S
C2257 C2262 1.363 . S
C2258 H2235 0.950 . S
C2258 C2257 1.397 . S
C2258 C2259 1.334 . S
C2259 H2236 0.950 . S
C2259 C2258 1.334 . S
C2259 C2260 1.287 . S
C2260 C2259 1.287 . S
C2260 C2261 1.524 . S
C2260 H2279 0.913 . S
C2261 H2237 0.950 . S
C2261 C2260 1.524 . S
C2261 C2262 1.415 . S
C2262 H2238 0.950 . S
C2262 C2257 1.363 . S
C2262 C2261 1.415 . S
C2263 H2239 0.951 . S
C2263 C2264 1.366 . S
C2263 C2265 1.388 . S
C2264 C2263 1.366 . S
C2264 C2268 1.385 . S
C2265 H2240 0.951 . S
C2265 C2263 1.388 . S
C2265 C2266 1.366 . S
C2266 C2265 1.366 . S
C2266 C2267 1.414 . S
C2266 C2269 1.499 . S
C2267 H2241 0.950 . S
C2267 C2266 1.414 . S
C2267 C2268 1.374 . S
C2268 H2242 0.950 . S
C2268 C2264 1.385 . S
C2268 C2267 1.374 . S
C2269 C2266 1.499 . S
C2269 C2270 1.373 . S
C2269 C2271 1.389 . S
C2270 H2243 0.950 . S
C2270 C2256 1.377 . S
C2270 C2269 1.373 . S
C2271 C2255 1.377 . S
C2271 C2269 1.389 . S
C2271 C2272 1.524 . S
C2272 C2271 1.524 . S
C2272 C2273 1.397 . S
C2272 C2277 1.363 . S
C2273 H2244 0.950 . S
C2273 C2272 1.397 . S
C2273 C2274 1.334 . S
C2274 H2245 0.950 . S
C2274 C2273 1.334 . S
C2274 C2275 1.287 . S
C2275 C2274 1.287 . S
C2275 C2276 1.524 . S
C2275 H2278 0.999 . S
C2276 H2246 0.950 . S
C2276 C2275 1.524 . S
C2276 C2277 1.415 . S
C2277 H2247 0.950 . S
C2277 C2272 1.363 . S
C2277 C2276 1.415 . S
H2278 C2275 0.999 . S
H2279 C2260 0.913 . S
C499 C84 1.116 . S
C514 C20 1.111 . S
C549 C145 1.116 . S
C564 C71 1.111 . S
C599 C100 1.111 . S
C614 C164 1.116 . S
C649 C151 1.111 . S
C664 C225 1.116 . S
C699 C4 1.116 . S
C714 C180 1.111 . S
C749 C65 1.116 . S
C764 C231 1.111 . S
C799 C425 1.116 . S
C814 C271 1.111 . S
C849 C300 1.111 . S
C864 C444 1.116 . S
C899 C351 1.111 . S
C914 C265 1.116 . S
C949 C380 1.110 . S
C964 C284 1.116 . S
C999 C431 1.112 . S
C1014 C345 1.116 . S
C1049 C364 1.117 . S
C1064 C460 1.112 . S
C1099 C143 1.773 . S
C1114 C2 1.774 . S
C1149 C63 1.773 . S
C1164 C162 1.774 . S
C1199 C82 1.773 . S
C1214 C223 1.774 . S
C1249 C263 1.774 . S
C1264 C362 1.774 . S
C1299 C282 1.774 . S
C1314 C423 1.774 . S
C1349 C343 1.774 . S
C1364 C442 1.773 . S
C1399 C303 2.265 . S
C1414 C23 2.265 . S
C1449 C42 2.265 . S
C1464 C322 2.265 . S
C1499 C383 2.265 . S
C1514 C103 2.265 . S
C1549 C122 2.266 . S
C1564 C402 2.265 . S
C1599 C183 2.265 . S
C1614 C463 2.265 . S
C1649 C242 2.265 . S
C1664 C202 2.265 . S
C1699 C105 1.529 . S
C1714 C31 1.523 . S
C1749 C60 1.522 . S
C1764 C124 1.528 . S
C1799 C111 1.523 . S
C1814 C185 1.529 . S
C1849 C140 1.522 . S
C1864 C204 1.528 . S
C1899 C25 1.528 . S
C1914 C191 1.522 . S
C1949 C44 1.529 . S
C1964 C220 1.523 . S
C1999 C404 1.529 . S
C2014 C260 1.523 . S
C2049 C311 1.523 . S
C2064 C465 1.529 . S
C2099 C340 1.522 . S
C2114 C244 1.528 . S
C2149 C305 1.529 . S
C2164 C391 1.522 . S
C2199 C420 1.522 . S
C2214 C324 1.529 . S
C2249 C471 1.522 . S
C2264 C385 1.528 . S
