# Generated by pormake.
# Topology yfl, (5)-cn, num edge types: 1
# Building blocks:
#     Node 0, Type 0, BuildingBlock: XOMCOT_clean_sbu_0, # of connection points: 5
#     Node 1, Type 0, BuildingBlock: XOMCOT_clean_sbu_0, # of connection points: 5
#     Node 2, Type 0, BuildingBlock: XOMCOT_clean_sbu_0, # of connection points: 5
#     Node 3, Type 0, BuildingBlock: XOMCOT_clean_sbu_0, # of connection points: 5
#     Node 4, Type 0, BuildingBlock: XOMCOT_clean_sbu_0, # of connection points: 5
#     Node 5, Type 0, BuildingBlock: XOMCOT_clean_sbu_0, # of connection points: 5
#     Node 6, Type 0, BuildingBlock: XOMCOT_clean_sbu_0, # of connection points: 5
#     Node 7, Type 0, BuildingBlock: XOMCOT_clean_sbu_0, # of connection points: 5
#     Node 8, Type 0, BuildingBlock: XOMCOT_clean_sbu_0, # of connection points: 5
#     Node 9, Type 0, BuildingBlock: XOMCOT_clean_sbu_0, # of connection points: 5
#     Node 10, Type 0, BuildingBlock: XOMCOT_clean_sbu_0, # of connection points: 5
#     Node 11, Type 0, BuildingBlock: XOMCOT_clean_sbu_0, # of connection points: 5
#     Node 12, Type 0, BuildingBlock: XOMCOT_clean_sbu_0, # of connection points: 5
#     Node 13, Type 0, BuildingBlock: XOMCOT_clean_sbu_0, # of connection points: 5
#     Node 14, Type 0, BuildingBlock: XOMCOT_clean_sbu_0, # of connection points: 5
#     Node 15, Type 0, BuildingBlock: XOMCOT_clean_sbu_0, # of connection points: 5
#     Edge 16, Type (0, 0), BuildingBlock: OJICUG_clean_linker_0, # of connection points: 2
#     Edge 17, Type (0, 0), BuildingBlock: OJICUG_clean_linker_0, # of connection points: 2
#     Edge 18, Type (0, 0), BuildingBlock: OJICUG_clean_linker_0, # of connection points: 2
#     Edge 19, Type (0, 0), BuildingBlock: OJICUG_clean_linker_0, # of connection points: 2
#     Edge 20, Type (0, 0), BuildingBlock: OJICUG_clean_linker_0, # of connection points: 2
#     Edge 21, Type (0, 0), BuildingBlock: OJICUG_clean_linker_0, # of connection points: 2
#     Edge 22, Type (0, 0), BuildingBlock: OJICUG_clean_linker_0, # of connection points: 2
#     Edge 23, Type (0, 0), BuildingBlock: OJICUG_clean_linker_0, # of connection points: 2
#     Edge 24, Type (0, 0), BuildingBlock: OJICUG_clean_linker_0, # of connection points: 2
#     Edge 25, Type (0, 0), BuildingBlock: OJICUG_clean_linker_0, # of connection points: 2
#     Edge 26, Type (0, 0), BuildingBlock: OJICUG_clean_linker_0, # of connection points: 2
#     Edge 27, Type (0, 0), BuildingBlock: OJICUG_clean_linker_0, # of connection points: 2
#     Edge 28, Type (0, 0), BuildingBlock: OJICUG_clean_linker_0, # of connection points: 2
#     Edge 29, Type (0, 0), BuildingBlock: OJICUG_clean_linker_0, # of connection points: 2
#     Edge 30, Type (0, 0), BuildingBlock: OJICUG_clean_linker_0, # of connection points: 2
#     Edge 31, Type (0, 0), BuildingBlock: OJICUG_clean_linker_0, # of connection points: 2
#     Edge 32, Type (0, 0), BuildingBlock: OJICUG_clean_linker_0, # of connection points: 2
#     Edge 33, Type (0, 0), BuildingBlock: OJICUG_clean_linker_0, # of connection points: 2
#     Edge 34, Type (0, 0), BuildingBlock: OJICUG_clean_linker_0, # of connection points: 2
#     Edge 35, Type (0, 0), BuildingBlock: OJICUG_clean_linker_0, # of connection points: 2
#     Edge 36, Type (0, 0), BuildingBlock: OJICUG_clean_linker_0, # of connection points: 2
#     Edge 37, Type (0, 0), BuildingBlock: OJICUG_clean_linker_0, # of connection points: 2
#     Edge 38, Type (0, 0), BuildingBlock: OJICUG_clean_linker_0, # of connection points: 2
#     Edge 39, Type (0, 0), BuildingBlock: OJICUG_clean_linker_0, # of connection points: 2
#     Edge 40, Type (0, 0), BuildingBlock: OJICUG_clean_linker_0, # of connection points: 2
#     Edge 41, Type (0, 0), BuildingBlock: OJICUG_clean_linker_0, # of connection points: 2
#     Edge 42, Type (0, 0), BuildingBlock: OJICUG_clean_linker_0, # of connection points: 2
#     Edge 43, Type (0, 0), BuildingBlock: OJICUG_clean_linker_0, # of connection points: 2
#     Edge 44, Type (0, 0), BuildingBlock: OJICUG_clean_linker_0, # of connection points: 2
#     Edge 45, Type (0, 0), BuildingBlock: OJICUG_clean_linker_0, # of connection points: 2
#     Edge 46, Type (0, 0), BuildingBlock: OJICUG_clean_linker_0, # of connection points: 2
#     Edge 47, Type (0, 0), BuildingBlock: OJICUG_clean_linker_0, # of connection points: 2
#     Edge 48, Type (0, 0), BuildingBlock: OJICUG_clean_linker_0, # of connection points: 2
#     Edge 49, Type (0, 0), BuildingBlock: OJICUG_clean_linker_0, # of connection points: 2
#     Edge 50, Type (0, 0), BuildingBlock: OJICUG_clean_linker_0, # of connection points: 2
#     Edge 51, Type (0, 0), BuildingBlock: OJICUG_clean_linker_0, # of connection points: 2
#     Edge 52, Type (0, 0), BuildingBlock: OJICUG_clean_linker_0, # of connection points: 2
#     Edge 53, Type (0, 0), BuildingBlock: OJICUG_clean_linker_0, # of connection points: 2
#     Edge 54, Type (0, 0), BuildingBlock: OJICUG_clean_linker_0, # of connection points: 2
#     Edge 55, Type (0, 0), BuildingBlock: OJICUG_clean_linker_0, # of connection points: 2
# Relax obj value: 0.329
# Max RMSD: 0.259
# Mean RMSD: 0.259
data_MOF--net-yfl--node1-XOMCOT_clean_sbu_0--edge1-OJICUG_clean_linker_0
_symmetry_space_group_name_H-M    P1
_symmetry_Int_Tables_number       1
_symmetry_cell_setting            triclinic
loop_
_symmetry_equiv_pos_as_xyz
'x, y, z'
_cell_length_a     23.186207
_cell_length_b     23.207962
_cell_length_c     79.000698
_cell_angle_alpha  90.065889
_cell_angle_beta   89.937711
_cell_angle_gamma 89.8347
loop_
_atom_site_label
_atom_site_type_symbol
_atom_site_fract_x
_atom_site_fract_y
_atom_site_fract_z
_atom_type_partial_charge
Co0 Co 0.04045 0.33926 0.31706 0.0
C1 C 0.1347 0.30727 0.34046 0.0
C2 C 0.16473 0.35815 0.31966 0.0
C3 C 0.20797 0.35484 0.33153 0.0
N4 N 0.11868 0.32801 0.32517 0.0
N5 N 0.18891 0.32277 0.34455 0.0
H6 H 0.10545 0.288 0.34942 0.0
H7 H 0.16478 0.38596 0.30869 0.0
C8 C 0.10808 0.31785 0.28443 0.0
O9 O 0.13985 0.27667 0.29103 0.0
N10 N 0.96214 0.35157 0.309 0.0
C11 C 0.9131 0.35449 0.31821 0.0
C12 C 0.86689 0.36174 0.30739 0.0
C13 C 0.94482 0.35622 0.29275 0.0
N14 N 0.88717 0.36224 0.2914 0.0
C15 C 0.01888 0.22755 0.33127 0.0
C16 C 0.00509 0.17065 0.3008 0.0
C17 C 0.00069 0.1393 0.31586 0.0
C18 C 0.00682 0.16858 0.33127 0.0
C19 C 0.01677 0.22945 0.30138 0.0
N20 N 0.0261 0.25682 0.31645 0.0
H21 H 0.02108 0.2498 0.34323 0.0
H22 H 0.01649 0.25284 0.28963 0.0
H23 H 0.91063 0.35082 0.33183 0.0
H24 H 0.97339 0.35511 0.28198 0.0
O25 O 0.01597 0.35826 0.3401 0.0
O26 O 0.04931 0.41963 0.3209 0.0
O27 O 0.06851 0.34221 0.29306 0.0
C28 C 0.03048 0.4108 0.33612 0.0
H29 H 0.24818 0.37844 0.33134 0.0
H30 H 0.82191 0.36507 0.31095 0.0
H31 H -0.00178 0.15018 0.28864 0.0
H32 H 0.0026 0.14615 0.34322 0.0
Co33 Co 0.33509 0.93022 0.68855 0.0
C34 C 0.30953 0.83727 0.66402 0.0
C35 C 0.36043 0.8076 0.6849 0.0
C36 C 0.36049 0.7656 0.67261 0.0
N37 N 0.32817 0.85261 0.67961 0.0
N38 N 0.32859 0.78445 0.65951 0.0
H39 H 0.28877 0.86636 0.65529 0.0
H40 H 0.38705 0.80769 0.69613 0.0
C41 C 0.30922 0.85845 0.71993 0.0
O42 O 0.27342 0.82496 0.71164 0.0
N43 N 0.34338 0.00785 0.69717 0.0
C44 C 0.32717 0.0572 0.68949 0.0
C45 C 0.33735 0.10274 0.70035 0.0
C46 C 0.36345 0.02391 0.71244 0.0
N47 N 0.35957 0.08137 0.7148 0.0
C48 C 0.22759 0.9547 0.6726 0.0
C49 C 0.16315 0.96476 0.70186 0.0
C50 C 0.13678 0.97715 0.6863 0.0
C51 C 0.17022 0.97224 0.67154 0.0
C52 C 0.22123 0.94951 0.70238 0.0
N53 N 0.25239 0.94267 0.68784 0.0
H54 H 0.25273 0.9538 0.66113 0.0
H55 H 0.24111 0.94593 0.71463 0.0
H56 H 0.30791 0.05978 0.67706 0.0
H57 H 0.38057 0.99438 0.72169 0.0
O58 O 0.35598 0.95793 0.66619 0.0
O59 O 0.41661 0.92444 0.68564 0.0
O60 O 0.33378 0.90071 0.71255 0.0
C61 C 0.40858 0.94556 0.67061 0.0
H62 H 0.3859 0.72638 0.67269 0.0
H63 H 0.327 0.1476 0.69811 0.0
H64 H 0.13973 0.96757 0.71368 0.0
H65 H 0.15318 0.98358 0.65924 0.0
Co66 Co 0.95226 0.69014 0.31397 0.0
C67 C 0.85148 0.69913 0.33705 0.0
C68 C 0.83485 0.64436 0.3158 0.0
C69 C 0.79037 0.63845 0.32718 0.0
N70 N 0.87309 0.68301 0.32184 0.0
N71 N 0.80105 0.67283 0.34054 0.0
H72 H 0.87497 0.72367 0.34634 0.0
H73 H 0.84147 0.61795 0.30468 0.0
C74 C 0.88256 0.69796 0.28164 0.0
O75 O 0.84552 0.73359 0.28871 0.0
N76 N 0.0311 0.69574 0.30615 0.0
C77 C 0.07208 0.73227 0.31169 0.0
C78 C 0.11873 0.72929 0.30084 0.0
C79 C 0.05363 0.67026 0.2923 0.0
N80 N 0.10691 0.69022 0.2887 0.0
C81 C 0.9466 0.80313 0.32845 0.0
C82 C 0.95826 0.86309 0.29847 0.0
C83 C 0.95716 0.89386 0.31375 0.0
C84 C 0.95076 0.86305 0.32887 0.0
C85 C 0.95426 0.80312 0.29863 0.0
N86 N 0.94726 0.77378 0.31347 0.0
H87 H 0.94656 0.78035 0.3403 0.0
H88 H 0.96006 0.78047 0.28683 0.0
H89 H 0.06727 0.76111 0.32237 0.0
H90 H 0.03023 0.64014 0.28443 0.0
O91 O 0.97955 0.67829 0.33707 0.0
O92 O 0.96212 0.60988 0.31801 0.0
O93 O 0.92691 0.681 0.28977 0.0
C94 C 0.97728 0.62369 0.33327 0.0
H95 H 0.75528 0.60791 0.32631 0.0
H96 H 0.1576 0.7549 0.30156 0.0
H97 H 0.96372 0.88495 0.28647 0.0
H98 H 0.95195 0.88467 0.34102 0.0
Co99 Co 0.69052 0.05232 0.68842 0.0
C100 C 0.71437 0.13858 0.66232 0.0
C101 C 0.6745 0.17745 0.68406 0.0
C102 C 0.67997 0.21861 0.6716 0.0
N103 N 0.69602 0.12741 0.67816 0.0
N104 N 0.70461 0.19393 0.65787 0.0
H105 H 0.73221 0.10598 0.65402 0.0
H106 H 0.65337 0.18292 0.69617 0.0
C107 C 0.7156 0.07418 0.72529 0.0
O108 O 0.75572 0.03405 0.72504 0.0
N109 N 0.68365 0.97557 0.6986 0.0
C110 C 0.69947 0.92434 0.69184 0.0
C111 C 0.68963 0.88123 0.7034 0.0
C112 C 0.66015 0.96161 0.71374 0.0
N113 N 0.66551 0.90485 0.71725 0.0
C114 C 0.79744 0.00626 0.67675 0.0
C115 C 0.86844 0.0807 0.69418 0.0
C116 C 0.89344 0.0355 0.68482 0.0
C117 C 0.85672 -0.0014 0.67583 0.0
C118 C 0.80843 0.08557 0.69514 0.0
N119 N 0.77379 0.04627 0.68731 0.0
H120 H 0.77078 0.98043 0.66866 0.0
H121 H 0.7899 0.12127 0.70205 0.0
H122 H 0.71544 0.91739 0.67921 0.0
H123 H 0.6401 0.99231 0.72219 0.0
O124 O 0.67119 0.01922 0.6666 0.0
O125 O 0.60898 0.05456 0.68545 0.0
O126 O 0.69066 0.08913 0.71157 0.0
C127 C 0.61813 0.03081 0.67078 0.0
H128 H 0.66339 0.2622 0.67222 0.0
H129 H 0.69891 0.83587 0.70166 0.0
H130 H 0.8947 0.11232 0.70062 0.0
H131 H 0.87304 0.96341 0.66821 0.0
Co132 Co 0.06185 0.18067 0.94198 0.0
C133 C 0.14642 0.19556 0.91465 0.0
C134 C 0.18877 0.17957 0.93832 0.0
C135 C 0.22996 0.18438 0.92582 0.0
N136 N 0.13647 0.18654 0.93126 0.0
N137 N 0.20332 0.19407 0.91086 0.0
H138 H 0.11229 0.2012 0.9055 0.0
H139 H 0.19666 0.17045 0.95153 0.0
C140 C 0.08033 0.21367 0.97855 0.0
O141 O 0.03554 0.24849 0.978 0.0
N142 N 0.98566 0.17421 0.95244 0.0
C143 C 0.93499 0.19334 0.94613 0.0
C144 C 0.89188 0.18318 0.95767 0.0
C145 C 0.97156 0.14935 0.96735 0.0
N146 N 0.915 0.15624 0.97113 0.0
C147 C 0.01521 0.27998 0.92573 0.0
C148 C 0.06596 0.36132 0.94634 0.0
C149 C 0.023 0.37858 0.93492 0.0
C150 C -0.00055 0.33746 0.92401 0.0
C151 C 0.08057 0.30306 0.94756 0.0
N152 N 0.05118 0.26276 0.93842 0.0
H153 H -0.00342 0.2491 0.91716 0.0
H154 H 0.11477 0.29066 0.95605 0.0
H155 H 0.92865 0.21287 0.93393 0.0
H156 H 0.00247 0.12859 0.9756 0.0
O157 O 0.02881 0.1518 0.92113 0.0
O158 O 0.06797 0.09854 0.94148 0.0
O159 O 0.09888 0.18986 0.96499 0.0
C160 C 0.04238 0.1011 0.92689 0.0
H161 H 0.27595 0.18022 0.92773 0.0
H162 H 0.84693 0.19484 0.95624 0.0
H163 H 0.08759 0.39239 0.95434 0.0
H164 H 0.96735 0.34904 0.91465 0.0
Co165 Co 0.16403 0.94607 0.06693 0.0
C166 C 0.20565 0.8572 0.0903 0.0
C167 C 0.14373 0.82311 0.07288 0.0
C168 C 0.15349 0.78279 0.08527 0.0
N169 N 0.17745 0.86934 0.07576 0.0
N170 N 0.19184 0.80455 0.09636 0.0
H171 H 0.23138 0.88843 0.09709 0.0
H172 H 0.11034 0.82105 0.06335 0.0
C173 C 0.17471 0.87197 0.03459 0.0
O174 O 0.19978 0.82819 0.04209 0.0
N175 N 0.14851 0.02387 0.05847 0.0
C176 C 0.1325 0.07042 0.06765 0.0
C177 C 0.12283 0.11612 0.05696 0.0
C178 C 0.14868 0.04259 0.04224 0.0
N179 N 0.13284 0.09861 0.04096 0.0
C180 C 0.26573 0.01218 0.07385 0.0
C181 C 0.3438 0.93498 0.0602 0.0
C182 C 0.36438 0.98758 0.0665 0.0
C183 C 0.32428 0.02629 0.07353 0.0
C184 C 0.28489 0.92323 0.06046 0.0
N185 N 0.24637 0.96203 0.06686 0.0
H186 H 0.23594 0.04177 0.07975 0.0
H187 H 0.27086 0.88216 0.05592 0.0
H188 H 0.12856 0.07185 0.08124 0.0
H189 H 0.15881 0.01573 0.03146 0.0
O190 O 0.14457 0.97007 0.0899 0.0
O191 O 0.08367 0.93513 0.07074 0.0
O192 O 0.16387 0.91869 0.04258 0.0
C193 C 0.09237 0.95389 0.08601 0.0
H194 H 0.1296 0.7432 0.08698 0.0
H195 H 0.10958 0.15901 0.06073 0.0
H196 H 0.37292 0.90239 0.05533 0.0
H197 H 0.33765 0.06743 0.07863 0.0
Co198 Co 0.91574 0.81205 0.94225 0.0
C199 C 0.82932 0.79897 0.91544 0.0
C200 C 0.79549 0.84586 0.93674 0.0
C201 C 0.75606 0.84865 0.92372 0.0
N202 N 0.8414 0.81499 0.93146 0.0
N203 N 0.77752 0.81912 0.91041 0.0
H204 H 0.85982 0.77749 0.90717 0.0
H205 H 0.79279 0.86835 0.94871 0.0
C206 C 0.8915 0.78061 0.97873 0.0
O207 O 0.93444 0.74352 0.97879 0.0
N208 N 0.99162 0.81049 0.95288 0.0
C209 C 0.04048 0.78694 0.9466 0.0
C210 C 0.08487 0.79633 0.95774 0.0
C211 C 0.00805 0.83653 0.96743 0.0
N212 N 0.06442 0.82708 0.97092 0.0
C213 C 0.95213 0.70931 0.92557 0.0
C214 C 0.89554 0.63229 0.94628 0.0
C215 C 0.93648 0.61167 0.93467 0.0
C216 C 0.96284 0.65077 0.92368 0.0
C217 C 0.88584 0.69156 0.94762 0.0
N218 N 0.91812 0.72937 0.9384 0.0
H219 H 0.9735 0.73857 0.91706 0.0
H220 H 0.85315 0.7066 0.95628 0.0
H221 H 0.04488 0.7655 0.93458 0.0
H222 H 0.979 0.86064 0.97551 0.0
O223 O 0.95189 0.83791 0.92148 0.0
O224 O 0.91836 0.89436 0.94203 0.0
O225 O 0.87665 0.80572 0.96501 0.0
C226 C 0.9433 0.88951 0.92738 0.0
H227 H 0.71616 0.87299 0.9237 0.0
H228 H 0.12902 0.782 0.95618 0.0
H229 H 0.87201 0.60303 0.9544 0.0
H230 H 0.99376 0.63671 0.91424 0.0
Co231 Co 0.81562 0.03923 0.06762 0.0
C232 C 0.7988 0.13669 0.09145 0.0
C233 C 0.85705 0.15719 0.07129 0.0
C234 C 0.86015 0.20007 0.08326 0.0
N235 N 0.81821 0.11745 0.07631 0.0
N236 N 0.82335 0.18711 0.09585 0.0
H237 H 0.77302 0.11153 0.10007 0.0
H238 H 0.88571 0.15237 0.06057 0.0
C239 C 0.809 0.11244 0.03571 0.0
O240 O 0.77237 0.14903 0.04254 0.0
N241 N 0.81477 0.96101 0.0589 0.0
C242 C 0.80243 0.91198 0.06733 0.0
C243 C 0.80846 0.86583 0.05637 0.0
C244 C 0.82748 0.94405 0.04299 0.0
N245 N 0.82369 0.88649 0.04109 0.0
C246 C 0.70156 0.03555 0.08131 0.0
C247 C 0.64346 0.03378 0.05082 0.0
C248 C 0.61146 0.0301 0.06588 0.0
C249 C 0.6416 0.03083 0.08127 0.0
C250 C 0.70354 0.03724 0.05144 0.0
N251 N 0.73186 0.04009 0.06657 0.0
H252 H 0.72363 0.03301 0.09327 0.0
H253 H 0.72691 0.03544 0.03966 0.0
H254 H 0.79001 0.90973 0.08051 0.0
H255 H 0.84027 0.97273 0.03292 0.0
O256 O 0.82687 0.00983 0.09051 0.0
O257 O 0.89596 0.03261 0.07217 0.0
O258 O 0.82584 0.06824 0.04387 0.0
C259 C 0.88161 0.01448 0.08711 0.0
H260 H 0.89065 0.23531 0.08345 0.0
H261 H 0.80146 0.82085 0.05932 0.0
H262 H 0.62262 0.03304 0.03857 0.0
H263 H 0.61949 0.02557 0.09324 0.0
Co264 Co 0.54755 0.80512 0.81352 0.0
C265 C 0.64345 0.79272 0.83794 0.0
C266 C 0.66267 0.85333 0.81831 0.0
C267 C 0.70387 0.85832 0.83075 0.0
N268 N 0.62473 0.81199 0.82276 0.0
N269 N 0.69165 0.82005 0.84301 0.0
H270 H 0.61909 0.76473 0.84613 0.0
H271 H 0.65749 0.88198 0.80763 0.0
C272 C 0.62369 0.80073 0.78212 0.0
O273 O 0.66247 0.76782 0.78947 0.0
N274 N 0.47061 0.79964 0.80434 0.0
C275 C 0.42815 0.76341 0.80902 0.0
C276 C 0.38375 0.76764 0.79744 0.0
C277 C 0.45121 0.82614 0.7903 0.0
N278 N 0.39852 0.80715 0.78572 0.0
C279 C 0.54547 0.69268 0.82806 0.0
C280 C 0.54817 0.63171 0.79804 0.0
C281 C 0.54061 0.60152 0.81325 0.0
C282 C 0.53976 0.63296 0.82841 0.0
C283 C 0.55267 0.69165 0.79824 0.0
N284 N 0.55244 0.72149 0.81316 0.0
H285 H 0.54054 0.71585 0.83979 0.0
H286 H 0.55302 0.71368 0.78626 0.0
H287 H 0.43029 0.7342 0.81965 0.0
H288 H 0.4765 0.85646 0.78304 0.0
O289 O 0.5152 0.81733 0.83605 0.0
O290 O 0.5369 0.8854 0.81732 0.0
O291 O 0.57736 0.81446 0.78981 0.0
C292 C 0.51795 0.87181 0.83222 0.0
H293 H 0.7374 0.89062 0.83141 0.0
H294 H 0.34438 0.74268 0.79742 0.0
H295 H 0.54892 0.60957 0.78597 0.0
H296 H 0.53177 0.61217 0.84044 0.0
Co297 Co 0.81775 0.43108 0.19135 0.0
C298 C 0.80743 0.34 0.16566 0.0
C299 C 0.85524 0.31121 0.18736 0.0
C300 C 0.85777 0.269 0.17511 0.0
N301 N 0.82392 0.35563 0.18136 0.0
N302 N 0.82769 0.28728 0.16152 0.0
H303 H 0.78475 0.36823 0.15701 0.0
H304 H 0.8775 0.31099 0.19939 0.0
C305 C 0.78252 0.41024 0.22748 0.0
O306 O 0.74302 0.45075 0.22622 0.0
N307 N 0.81327 0.50793 0.20143 0.0
C308 C 0.78874 0.55619 0.1951 0.0
C309 C 0.7968 0.60093 0.20626 0.0
C310 C 0.83855 0.52527 0.216 0.0
N311 N 0.82781 0.58138 0.21945 0.0
C312 C 0.71265 0.46411 0.17534 0.0
C313 C 0.64058 0.39428 0.19397 0.0
C314 C 0.61621 0.4368 0.18353 0.0
C315 C 0.65338 0.47023 0.17357 0.0
C316 C 0.70045 0.39068 0.1956 0.0
N317 N 0.73525 0.42907 0.18746 0.0
H318 H 0.74033 0.48903 0.16721 0.0
H319 H 0.71854 0.35759 0.20359 0.0
H320 H 0.76781 0.56028 0.18303 0.0
H321 H 0.86342 0.49698 0.22407 0.0
O322 O 0.84249 0.46558 0.17022 0.0
O323 O 0.89988 0.43695 0.19116 0.0
O324 O 0.81158 0.39488 0.21446 0.0
C325 C 0.89434 0.45961 0.17623 0.0
H326 H 0.88178 0.229 0.17584 0.0
H327 H 0.78188 0.6448 0.20461 0.0
H328 H 0.61386 0.36479 0.2011 0.0
H329 H 0.63747 0.5028 0.16496 0.0
Co330 Co 0.44225 0.15855 0.81422 0.0
C331 C 0.35866 0.19252 0.8402 0.0
C332 C 0.31525 0.16276 0.81788 0.0
C333 C 0.27476 0.1723 0.83042 0.0
N334 N 0.36777 0.17547 0.82411 0.0
N335 N 0.30237 0.19033 0.84449 0.0
H336 H 0.393 0.20353 0.84888 0.0
H337 H 0.30721 0.14449 0.80551 0.0
C338 C 0.41954 0.19083 0.77741 0.0
O339 O 0.46068 0.22966 0.77748 0.0
N340 N 0.51852 0.13973 0.80471 0.0
C341 C 0.56792 0.13341 0.81366 0.0
C342 C 0.61259 0.12029 0.80289 0.0
C343 C 0.5342 0.12721 0.78859 0.0
N344 N 0.59145 0.11702 0.78709 0.0
C345 C 0.50985 0.25883 0.82222 0.0
C346 C 0.43372 0.33795 0.80863 0.0
C347 C 0.4866 0.35756 0.81504 0.0
C348 C 0.52451 0.31704 0.82213 0.0
C349 C 0.42132 0.27919 0.8087 0.0
N350 N 0.46028 0.24017 0.81478 0.0
H351 H 0.53837 0.22907 0.82842 0.0
H352 H 0.38049 0.26491 0.80366 0.0
H353 H 0.572 0.13802 0.8272 0.0
H354 H 0.50478 0.12309 0.77814 0.0
O355 O 0.46978 0.13507 0.83645 0.0
O356 O 0.42767 0.07857 0.8174 0.0
O357 O 0.40733 0.16307 0.7909 0.0
C358 C 0.45054 0.08423 0.83229 0.0
H359 H 0.22919 0.16267 0.82961 0.0
H360 H 0.65736 0.11469 0.8064 0.0
H361 H 0.40187 0.36762 0.80366 0.0
H362 H 0.56555 0.3298 0.82744 0.0
Co363 Co 0.18363 0.56919 0.19288 0.0
C364 C 0.21356 0.65872 0.16809 0.0
C365 C 0.16111 0.69296 0.18804 0.0
C366 C 0.16653 0.73427 0.17563 0.0
N367 N 0.19138 0.64579 0.18343 0.0
N368 N 0.19904 0.71234 0.16299 0.0
H369 H 0.23594 0.62809 0.16018 0.0
H370 H 0.13327 0.69552 0.19901 0.0
C371 C 0.2093 0.64329 0.22419 0.0
O372 O 0.24105 0.68045 0.21583 0.0
N373 N 0.17545 0.49224 0.20188 0.0
C374 C 0.19691 0.44306 0.19526 0.0
C375 C 0.18696 0.3987 0.20646 0.0
C376 C 0.15161 0.47703 0.21674 0.0
N377 N 0.15865 0.42027 0.21999 0.0
C378 C 0.28604 0.53597 0.17549 0.0
C379 C 0.35838 0.53529 0.20318 0.0
C380 C 0.37912 0.51409 0.18768 0.0
C381 C 0.34199 0.51504 0.1737 0.0
C382 C 0.30144 0.55413 0.20456 0.0
N383 N 0.26597 0.55497 0.19077 0.0
H384 H 0.25795 0.53356 0.16467 0.0
H385 H 0.28602 0.56521 0.21696 0.0
H386 H 0.21937 0.43975 0.18331 0.0
H387 H 0.13101 0.50724 0.22522 0.0
O388 O 0.15759 0.54076 0.17106 0.0
O389 O 0.10169 0.57668 0.19134 0.0
O390 O 0.18878 0.59889 0.21683 0.0
C391 C 0.10613 0.55398 0.17638 0.0
H392 H 0.14391 0.77511 0.17524 0.0
H393 H 0.20004 0.35423 0.20485 0.0
H394 H 0.38532 0.53635 0.21436 0.0
H395 H 0.35489 0.49769 0.16155 0.0
Co396 Co 0.56805 0.67292 0.43898 0.0
C397 C 0.65949 0.68813 0.41347 0.0
C398 C 0.67961 0.62069 0.43105 0.0
C399 C 0.71789 0.61751 0.41782 0.0
N400 N 0.64325 0.66538 0.42848 0.0
N401 N 0.70496 0.65964 0.40674 0.0
H402 H 0.63473 0.72034 0.40672 0.0
H403 H 0.67562 0.58958 0.44116 0.0
C404 C 0.65137 0.6819 0.46902 0.0
O405 O 0.69782 0.68636 0.45963 0.0
N406 N 0.49189 0.67867 0.44929 0.0
C407 C 0.44182 0.69576 0.44213 0.0
C408 C 0.39846 0.69311 0.45406 0.0
C409 C 0.47765 0.66407 0.46531 0.0
N410 N 0.42114 0.67311 0.46861 0.0
C411 C 0.53142 0.77534 0.42232 0.0
C412 C 0.58885 0.85251 0.44275 0.0
C413 C 0.54622 0.87346 0.43169 0.0
C414 C 0.51903 0.83382 0.42092 0.0
C415 C 0.5984 0.79327 0.44414 0.0
N416 N 0.56732 0.75531 0.43465 0.0
H417 H 0.50945 0.7459 0.41399 0.0
H418 H 0.62993 0.77858 0.45311 0.0
H419 H 0.43623 0.70788 0.42906 0.0
H420 H 0.50788 0.64678 0.4744 0.0
O421 O 0.53383 0.64555 0.41806 0.0
O422 O 0.56224 0.59078 0.4396 0.0
O423 O 0.60106 0.68237 0.46246 0.0
C424 C 0.54022 0.59446 0.42453 0.0
H425 H 0.75008 0.58427 0.41587 0.0
H426 H 0.35342 0.70339 0.45205 0.0
H427 H 0.61369 0.88126 0.45068 0.0
H428 H 0.48612 0.84685 0.41202 0.0
Co429 Co 0.6629 0.43306 0.5624 0.0
C430 C 0.70349 0.3452 0.58635 0.0
C431 C 0.64499 0.30974 0.56814 0.0
C432 C 0.65517 0.26899 0.58038 0.0
N433 N 0.67628 0.3571 0.57166 0.0
N434 N 0.69151 0.29149 0.59194 0.0
H435 H 0.72785 0.37683 0.59341 0.0
H436 H 0.61346 0.30666 0.5581 0.0
C437 C 0.68553 0.35941 0.53047 0.0
O438 O 0.70881 0.31569 0.53849 0.0
N439 N 0.6483 0.50966 0.5532 0.0
C440 C 0.61753 0.55335 0.56005 0.0
C441 C 0.61677 0.59892 0.54893 0.0
C442 C 0.66675 0.53005 0.53812 0.0
N443 N 0.64771 0.58415 0.53514 0.0
C444 C 0.75858 0.50367 0.57182 0.0
C445 C 0.84374 0.43292 0.55877 0.0
C446 C 0.85939 0.48707 0.5652 0.0
C447 C 0.8159 0.52219 0.5721 0.0
C448 C 0.78594 0.41654 0.55853 0.0
N449 N 0.744 0.4524 0.56453 0.0
H450 H 0.72547 0.5313 0.57706 0.0
H451 H 0.77526 0.37487 0.5536 0.0
H452 H 0.59672 0.55279 0.57224 0.0
H453 H 0.69238 0.50535 0.52924 0.0
O454 O 0.63461 0.45702 0.58459 0.0
O455 O 0.58194 0.41916 0.56393 0.0
O456 O 0.67166 0.40567 0.53826 0.0
C457 C 0.5845 0.43878 0.57931 0.0
H458 H 0.63324 0.22806 0.5815 0.0
H459 H 0.59473 0.63961 0.5508 0.0
H460 H 0.87585 0.40319 0.55393 0.0
H461 H 0.82564 0.56426 0.57727 0.0
Co462 Co 0.4246 0.30807 0.44055 0.0
C463 C 0.32935 0.29308 0.41615 0.0
C464 C 0.30689 0.35064 0.43636 0.0
C465 C 0.26536 0.35476 0.42401 0.0
N466 N 0.34703 0.31174 0.4315 0.0
N467 N 0.27968 0.31859 0.41134 0.0
H468 H 0.35524 0.26691 0.40777 0.0
H469 H 0.31048 0.37822 0.44736 0.0
C470 C 0.34795 0.29124 0.47146 0.0
O471 O 0.30895 0.26268 0.46283 0.0
N472 N 0.50234 0.30572 0.44931 0.0
C473 C 0.54783 0.2772 0.4427 0.0
C474 C 0.59427 0.28354 0.4534 0.0
C475 C 0.52189 0.33009 0.46367 0.0
N476 N 0.57779 0.31682 0.46655 0.0
C477 C 0.4415 0.20213 0.42294 0.0
C478 C 0.44004 0.13135 0.45096 0.0
C479 C 0.45849 0.10834 0.43542 0.0
C480 C 0.45779 0.14458 0.42122 0.0
C481 C 0.4262 0.18968 0.45226 0.0
N482 N 0.42715 0.22461 0.43836 0.0
H483 H 0.44493 0.22949 0.41198 0.0
H484 H 0.4184 0.20656 0.46472 0.0
H485 H 0.54719 0.25272 0.43105 0.0
H486 H 0.49533 0.35559 0.47209 0.0
O487 O 0.4553 0.33023 0.41858 0.0
O488 O 0.42839 0.38998 0.43916 0.0
O489 O 0.39502 0.30682 0.46449 0.0
C490 C 0.44886 0.3828 0.42402 0.0
H491 H 0.22996 0.38526 0.42371 0.0
H492 H 0.63668 0.26477 0.45172 0.0
H493 H 0.43831 0.1053 0.4623 0.0
H494 H 0.47279 0.12999 0.40897 0.0
Co495 Co 0.30507 0.54999 0.56255 0.0
C496 C 0.29959 0.64537 0.58751 0.0
C497 C 0.3625 0.66036 0.56813 0.0
C498 C 0.36969 0.70103 0.58064 0.0
N499 N 0.31829 0.6255 0.57236 0.0
N500 N 0.33009 0.69144 0.59278 0.0
H501 H 0.26893 0.62336 0.59546 0.0
H502 H 0.39092 0.65357 0.55745 0.0
C503 C 0.30602 0.62966 0.53191 0.0
O504 O 0.27669 0.67018 0.53977 0.0
N505 N 0.29314 0.47446 0.5529 0.0
C506 C 0.25559 0.4339 0.5581 0.0
C507 C 0.25745 0.38837 0.54686 0.0
C508 C 0.31799 0.45289 0.53883 0.0
N509 N 0.2968 0.40048 0.5348 0.0
C510 C 0.1932 0.55324 0.57781 0.0
C511 C 0.13098 0.56167 0.54813 0.0
C512 C 0.10116 0.55203 0.56333 0.0
C513 C 0.13319 0.54903 0.57835 0.0
C514 C 0.19111 0.5648 0.54812 0.0
N515 N 0.22171 0.56088 0.56285 0.0
H516 H 0.21678 0.546 0.58936 0.0
H517 H 0.21256 0.56649 0.53605 0.0
H518 H 0.22792 0.43761 0.56907 0.0
H519 H 0.34951 0.47595 0.53136 0.0
O520 O 0.31697 0.51468 0.58472 0.0
O521 O 0.38478 0.53293 0.56558 0.0
O522 O 0.31522 0.58116 0.53898 0.0
C523 C 0.37117 0.51313 0.58037 0.0
H524 H 0.40384 0.73266 0.58133 0.0
H525 H 0.23169 0.3496 0.54745 0.0
H526 H 0.10834 0.56445 0.53618 0.0
H527 H 0.11261 0.53985 0.59035 0.0
C528 C 0.08558 0.38616 0.26095 0.0
C529 C 0.119 0.33997 0.26712 0.0
H530 H 0.07111 0.44672 0.2411 0.0
C531 C 0.16379 0.31817 0.25696 0.0
H532 H 0.05075 0.40445 0.26835 0.0
C533 C 0.17584 0.34328 0.24121 0.0
C534 C 0.14339 0.3907 0.23538 0.0
H535 H 0.19038 0.28276 0.26133 0.0
H536 H 0.21182 0.32689 0.2339 0.0
C537 C 0.09752 0.411 0.24531 0.0
C538 C 0.3743 0.87686 0.76341 0.0
C539 C 0.36866 0.82155 0.77031 0.0
H540 H 0.3583 0.93219 0.7425 0.0
C541 C 0.33749 0.7797 0.76125 0.0
H542 H 0.39701 0.91026 0.77026 0.0
C543 C 0.31552 0.79214 0.74511 0.0
C544 C 0.32428 0.84667 0.73783 0.0
H545 H 0.33266 0.73658 0.76625 0.0
H546 H 0.29408 0.75838 0.73806 0.0
C547 C 0.35218 0.88931 0.74744 0.0
C548 C 0.89297 0.59834 0.24368 0.0
C549 C 0.84341 0.61314 0.23447 0.0
H550 H 0.94467 0.61399 0.26552 0.0
C551 C 0.80829 0.65847 0.24043 0.0
H552 H 0.92127 0.56422 0.23934 0.0
C553 C 0.82161 0.68725 0.2555 0.0
C554 C 0.87058 0.6716 0.2649 0.0
H555 H 0.76945 0.67055 0.23371 0.0
H556 H 0.79292 0.72092 0.25996 0.0
C557 C 0.90653 0.62734 0.25865 0.0
C558 C 0.67521 0.07525 0.77185 0.0
C559 C 0.62399 0.10791 0.77173 0.0
H560 H 0.74482 0.03947 0.75736 0.0
C561 C 0.60583 0.13293 0.75646 0.0
H562 H 0.69021 0.05523 0.78341 0.0
C563 C 0.63746 0.12458 0.74158 0.0
C564 C 0.6878 0.09046 0.74156 0.0
H565 H 0.56721 0.1592 0.756 0.0
H566 H 0.62139 0.14365 0.73 0.0
C567 C 0.70666 0.06645 0.75692 0.0
C568 C 0.15436 0.11788 0.01077 0.0
C569 C 0.12423 0.13168 0.02568 0.0
H570 H 0.16542 0.13391 0.98431 0.0
C571 C 0.08385 0.17708 0.02526 0.0
H572 H 0.18644 0.08392 0.0107 0.0
C573 C 0.07201 0.20614 0.01014 0.0
C574 C 0.1003 0.1906 0.99507 0.0
H575 H 0.05945 0.18864 0.03644 0.0
H576 H 0.03884 0.23911 0.01016 0.0
C577 C 0.14267 0.14706 0.99566 0.0
C578 C 0.07995 0.89006 0.99582 0.0
C579 C 0.09526 0.84147 0.98619 0.0
H580 H 0.09373 0.93853 0.0185 0.0
C581 C 0.13994 0.80551 0.99204 0.0
H582 H 0.04615 0.91885 0.99157 0.0
C583 C 0.16727 0.81665 0.00745 0.0
C584 C 0.15095 0.86433 0.01732 0.0
H585 H 0.1524 0.76737 0.98504 0.0
H586 H 0.20024 0.78705 0.01181 0.0
C587 C 0.10773 0.90158 0.01118 0.0
C588 C 0.83176 0.8514 0.99498 0.0
C589 C 0.8669 0.80186 0.99493 0.0
H590 H 0.79079 0.91707 0.0098 0.0
C591 C 0.88299 0.7774 0.01053 0.0
H592 H 0.81837 0.87152 0.98325 0.0
C593 C 0.86639 0.80351 0.02581 0.0
C594 C 0.83433 0.85496 0.02571 0.0
H595 H 0.91004 0.73931 0.01094 0.0
H596 H 0.88102 0.78524 0.03766 0.0
C597 C 0.81614 0.87783 0.01017 0.0
C598 C 0.8137 0.16709 0.00825 0.0
C599 C 0.83409 0.12268 0.01871 0.0
H600 H 0.82355 0.21269 0.98492 0.0
C601 C 0.88059 0.08851 0.013 0.0
H602 H 0.77819 0.19428 0.01228 0.0
C603 C 0.90654 0.09896 0.99735 0.0
C604 C 0.88652 0.1436 0.98694 0.0
H605 H 0.89784 0.05408 0.02074 0.0
H606 H 0.9423 0.07202 0.99341 0.0
C607 C 0.83951 0.17731 0.99251 0.0
C608 C 0.59896 0.87127 0.75934 0.0
C609 C 0.63356 0.82521 0.76504 0.0
H610 H 0.58175 0.93235 0.7397 0.0
C611 C 0.67776 0.80461 0.75448 0.0
H612 H 0.5647 0.88864 0.76717 0.0
C613 C 0.68726 0.82978 0.73861 0.0
C614 C 0.65323 0.87651 0.73308 0.0
H615 H 0.70516 0.76933 0.75849 0.0
H616 H 0.72233 0.81372 0.73086 0.0
C617 C 0.60887 0.89675 0.74361 0.0
C618 C 0.78081 0.41615 0.25928 0.0
C619 C 0.80225 0.39063 0.24437 0.0
H620 H 0.79138 0.42699 0.2861 0.0
C621 C 0.84809 0.35107 0.2456 0.0
H622 H 0.74562 0.4469 0.25879 0.0
C623 C 0.87432 0.34019 0.26115 0.0
C624 C 0.85517 0.36819 0.27589 0.0
H625 H 0.86549 0.3302 0.23442 0.0
H626 H 0.91063 0.31079 0.26158 0.0
C627 C 0.80694 0.40483 0.27493 0.0
C628 C 0.35441 0.08755 0.74579 0.0
C629 C 0.37067 0.11195 0.73029 0.0
H630 H 0.35508 0.09411 0.77268 0.0
C631 C 0.39855 0.16562 0.73023 0.0
H632 H 0.33196 0.04671 0.74614 0.0
C633 C 0.41264 0.19293 0.74554 0.0
C634 C 0.39793 0.16747 0.76111 0.0
H635 H 0.41132 0.18522 0.71838 0.0
H636 H 0.43634 0.23306 0.74517 0.0
C637 C 0.3673 0.11516 0.76099 0.0
C638 C 0.19569 0.70937 0.24926 0.0
C639 C 0.19188 0.65416 0.24201 0.0
H640 H 0.17134 0.76423 0.27002 0.0
C641 C 0.1653 0.60999 0.25136 0.0
H642 H 0.21586 0.74436 0.24242 0.0
C643 C 0.13932 0.62151 0.26694 0.0
C644 C 0.14014 0.67727 0.27375 0.0
H645 H 0.16292 0.5666 0.24645 0.0
H646 H 0.11742 0.58702 0.27353 0.0
C647 C 0.17021 0.72076 0.26505 0.0
C648 C 0.70141 0.60869 0.50905 0.0
C649 C 0.65307 0.61616 0.5196 0.0
H650 H 0.73957 0.62516 0.4848 0.0
C651 C 0.60798 0.65221 0.51415 0.0
H652 H 0.73715 0.58182 0.51302 0.0
C653 C 0.60939 0.67704 0.49807 0.0
C654 C 0.65611 0.66676 0.48713 0.0
H655 H 0.57004 0.65867 0.52192 0.0
H656 H 0.5727 0.70233 0.49393 0.0
C657 C 0.70311 0.63409 0.49299 0.0
C658 C 0.65035 0.29074 0.48817 0.0
C659 C 0.61072 0.33058 0.48145 0.0
H660 H 0.70542 0.26853 0.50894 0.0
C661 C 0.60103 0.38255 0.4901 0.0
H662 H 0.65846 0.25019 0.4818 0.0
C663 C 0.62828 0.39339 0.50552 0.0
C664 C 0.66529 0.35206 0.5128 0.0
H665 H 0.5714 0.41435 0.48508 0.0
H666 H 0.6182 0.4332 0.51207 0.0
C667 C 0.67715 0.30122 0.50373 0.0
C668 C 0.26831 0.33451 0.51159 0.0
C669 C 0.31076 0.36696 0.51999 0.0
H670 H 0.24656 0.28485 0.48957 0.0
C671 C 0.36655 0.36893 0.51318 0.0
H672 H 0.22484 0.33242 0.51655 0.0
C673 C 0.37912 0.34143 0.49791 0.0
C674 C 0.33601 0.31175 0.48892 0.0
H675 H 0.40035 0.39263 0.51955 0.0
H676 H 0.4224 0.34514 0.49293 0.0
C677 C 0.28076 0.3073 0.49615 0.0
C678 C 0.37898 0.60474 0.50974 0.0
C679 C 0.33355 0.6406 0.51525 0.0
H680 H 0.4424 0.58719 0.49071 0.0
C681 C 0.31691 0.68719 0.50499 0.0
H682 H 0.39335 0.56866 0.51735 0.0
C683 C 0.34505 0.69742 0.48955 0.0
C684 C 0.39105 0.66197 0.48425 0.0
H685 H 0.28224 0.71565 0.50888 0.0
H686 H 0.33169 0.73377 0.48191 0.0
C687 C 0.40759 0.61556 0.49452 0.0
C688 C 0.01851 0.04122 0.30377 0.0
C689 C 0.98902 0.07659 0.31535 0.0
H690 H 0.03242 0.95599 0.29439 0.0
C691 C 0.94827 0.05171 0.32628 0.0
H692 H 0.05074 0.0591 0.29536 0.0
C693 C 0.93722 0.99257 0.3256 0.0
C694 C 0.96695 0.95708 0.31406 0.0
H695 H 0.92434 0.07809 0.33518 0.0
H696 H 0.90508 0.97473 0.33404 0.0
C697 C 0.00775 0.98215 0.30316 0.0
C698 C 0.04163 0.98361 0.67115 0.0
C699 C 0.07532 -0.00415 0.68549 0.0
H700 H 0.95991 0.98996 0.65913 0.0
C701 C 0.04939 0.02539 0.69911 0.0
H702 H 0.05929 0.96056 0.66042 0.0
C703 C 0.99082 0.03927 0.69878 0.0
C704 C 0.95691 0.02573 0.68459 0.0
H705 H 0.07394 0.03755 0.71018 0.0
H706 H 0.97208 0.05917 0.7099 0.0
C707 C 0.98369 -0.00058 0.67057 0.0
C708 C 0.9666 0.52266 0.95002 0.0
C709 C 0.95488 0.55068 0.93465 0.0
H710 H -0.00224 0.4463 0.96211 0.0
C711 C 0.96576 0.52177 0.91934 0.0
H712 H 0.95944 0.54426 0.96201 0.0
C713 C 0.98867 0.46617 0.9194 0.0
C714 C 0.00107 0.43841 0.93477 0.0
H715 H 0.95692 0.54229 0.90731 0.0
H716 H -0.00275 0.44517 0.9074 0.0
C717 C 0.98955 0.46707 0.95008 0.0
C718 C 0.51265 0.04425 0.07864 0.0
C719 C 0.54765 0.02206 0.06558 0.0
H720 H 0.42844 0.04961 0.08951 0.0
C721 C 0.52132 0.99031 0.05255 0.0
H722 H 0.53097 0.06979 0.08875 0.0
C723 C 0.46195 0.98054 0.05265 0.0
C724 C 0.42721 0.00108 0.06598 0.0
H725 H 0.54655 0.97165 0.04238 0.0
H726 H 0.44346 0.95651 0.04224 0.0
C727 C 0.45337 0.03347 0.07891 0.0
C728 C 0.48403 0.45417 0.80072 0.0
C729 C 0.50185 0.41976 0.8144 0.0
H730 H 0.48078 0.53808 0.7898 0.0
C731 C 0.53436 0.44532 0.82741 0.0
H732 H 0.45988 0.43593 0.7903 0.0
C733 C 0.54838 0.50373 0.82678 0.0
C734 C 0.52936 0.53843 0.8133 0.0
H735 H 0.5483 0.42057 0.83827 0.0
H736 H 0.57395 0.52166 0.83696 0.0
C737 C 0.49713 0.51278 0.80025 0.0
C738 C 0.52187 0.44359 0.19901 0.0
C739 C 0.55333 0.44954 0.18389 0.0
H740 H 0.44221 0.45685 0.2119 0.0
C741 C 0.52551 0.47318 0.16968 0.0
H742 H 0.54161 0.42612 0.2103 0.0
C743 C 0.46924 0.49404 0.17089 0.0
C744 C 0.43841 0.48992 0.18618 0.0
H745 H 0.54749 0.47706 0.15765 0.0
H746 H 0.45078 0.51481 0.1599 0.0
C747 C 0.46495 0.46276 0.20006 0.0
C748 C 0.50201 0.96144 0.41798 0.0
C749 C 0.52722 0.93496 0.4322 0.0
H750 H 0.4577 0.03439 0.408 0.0
C751 C 0.53047 0.96668 0.44736 0.0
H752 H 0.49965 0.93948 0.40592 0.0
C753 C 0.50908 0.02279 0.44828 0.0
C754 C 0.48181 0.04844 0.43427 0.0
H755 H 0.5484 0.94809 0.45875 0.0
H756 H 0.51431 0.04582 0.46009 0.0
C757 C 0.4787 0.01686 0.41908 0.0
C758 C 0.00275 0.55593 0.57702 0.0
C759 C 0.03814 0.53938 0.56335 0.0
H760 H 0.91931 0.55164 0.58855 0.0
C761 C 0.0135 0.50737 0.55009 0.0
H762 H 0.01996 0.58115 0.58738 0.0
C763 C 0.9555 0.4916 0.55058 0.0
C764 C 0.92052 0.50657 0.56447 0.0
H765 H 0.0393 0.49288 0.53947 0.0
H766 H 0.93822 0.46731 0.54004 0.0
C767 C 0.94473 0.53955 0.5776 0.0
C768 C 0.94818 0.53646 0.34826 0.0
C769 C 0.99133 0.57747 0.34511 0.0
H770 H 0.92822 0.44657 0.34887 0.0
C771 C 0.04929 0.56127 0.34652 0.0
H772 H 0.90308 0.54832 0.34714 0.0
C773 C 0.06366 0.50288 0.34743 0.0
C774 C 0.02 0.46104 0.34689 0.0
H775 H 0.08316 0.59222 0.34401 0.0
H776 H 0.10834 0.49044 0.34561 0.0
C777 C 0.96259 0.47807 0.3493 0.0
C778 C 0.46597 0.02359 0.65866 0.0
C779 C 0.4585 0.96423 0.66089 0.0
H780 H 0.52649 0.09283 0.66008 0.0
C781 C 0.50635 0.92724 0.65997 0.0
H782 H 0.42944 0.05272 0.65947 0.0
C783 C 0.56186 0.95014 0.65983 0.0
C784 C 0.56907 0.00986 0.6611 0.0
H785 H 0.50108 0.88124 0.66174 0.0
H786 H 0.59824 0.92127 0.66152 0.0
C787 C 0.52144 0.04654 0.65905 0.0
C788 C 0.96036 0.04373 0.91703 0.0
C789 C 0.02007 0.04841 0.91934 0.0
H790 H 0.88792 0.98674 0.91793 0.0
C791 C 0.05457 -0.00129 0.9194 0.0
H792 H 0.9331 0.08175 0.91721 0.0
C793 C 0.02887 0.94451 0.91924 0.0
C794 C 0.96866 0.9402 0.91958 0.0
H795 H 0.10073 0.00182 0.92135 0.0
H796 H 0.05566 0.9067 0.92114 0.0
C797 C 0.93455 0.98959 0.91748 0.0
C798 C 0.97022 0.03492 0.10256 0.0
C799 C 0.92721 0.99486 0.09842 0.0
H800 H 0.06088 0.05147 0.10279 0.0
C801 C 0.94141 0.93628 0.09756 0.0
H802 H 0.95985 0.08044 0.10331 0.0
C803 C -0.00072 0.91995 0.09673 0.0
C804 C 0.04251 0.96218 0.09714 0.0
H805 H 0.9088 0.90473 0.09435 0.0
H806 H 0.00969 0.87609 0.09307 0.0
C807 C 0.02818 0.01837 0.10212 0.0
C808 C 0.42025 0.98809 0.84173 0.0
C809 C 0.4613 0.03241 0.84235 0.0
H810 H 0.4073 0.89736 0.83908 0.0
C811 C 0.5182 0.01935 0.84692 0.0
H812 H 0.37595 -0.00247 0.83832 0.0
C813 C 0.53618 0.96187 0.8472 0.0
C814 C 0.49701 0.9179 0.84318 0.0
H815 H 0.55051 0.05293 0.84748 0.0
H816 H 0.582 0.95265 0.84782 0.0
C817 C 0.43808 0.93068 0.84231 0.0
C818 C 0.95014 0.54444 0.16793 0.0
C819 C 0.94472 0.48437 0.16801 0.0
H820 H 0.00879 0.615 0.17042 0.0
C821 C 0.99353 0.44958 0.16556 0.0
H822 H 0.91282 0.57173 0.1701 0.0
C823 C 0.04823 0.4744 0.1652 0.0
C824 C 0.05405 0.53376 0.16795 0.0
H825 H 0.98987 0.40304 0.16582 0.0
H826 H 0.08574 0.44641 0.16529 0.0
C827 C 0.00489 0.56912 0.16813 0.0
C828 C 0.45992 0.53626 0.41372 0.0
C829 C 0.51932 0.54254 0.41621 0.0
H830 H 0.38953 0.47678 0.41395 0.0
C831 C 0.55552 0.49408 0.41557 0.0
H832 H 0.43146 0.57333 0.4144 0.0
C833 C 0.53173 0.43906 0.41475 0.0
C834 C 0.47173 0.43265 0.41515 0.0
H835 H 0.60154 0.49849 0.41759 0.0
H836 H 0.5598 0.40206 0.41641 0.0
C837 C 0.43602 0.48118 0.4134 0.0
C838 C 0.42796 0.42774 0.58669 0.0
C839 C 0.41638 0.48564 0.59038 0.0
H840 H 0.49355 0.36649 0.58035 0.0
C841 C 0.46105 0.52075 0.59646 0.0
H842 H 0.39417 0.40014 0.58181 0.0
C843 C 0.51817 0.50116 0.59592 0.0
C844 C 0.53044 0.4472 0.58874 0.0
H845 H 0.45292 0.5658 0.59924 0.0
H846 H 0.55252 0.53127 0.59865 0.0
C847 C 0.48498 0.40869 0.5857 0.0
C848 C 0.24324 0.26744 0.38615 0.0
C849 C 0.25642 0.31915 0.39451 0.0
H850 H 0.20976 0.2284 0.36347 0.0
C851 C 0.24812 0.37173 0.38609 0.0
H852 H 0.24959 0.22654 0.39247 0.0
C853 C 0.22723 0.37267 0.36953 0.0
C854 C 0.21316 0.32111 0.36124 0.0
H855 H 0.25866 0.41202 0.39226 0.0
H856 H 0.22096 0.41369 0.36326 0.0
C857 C 0.22075 0.26848 0.36969 0.0
C858 C 0.38052 0.74392 0.63504 0.0
C859 C 0.32844 0.76077 0.64269 0.0
H860 H 0.42174 0.70943 0.61293 0.0
C861 C 0.27678 0.75539 0.63358 0.0
H862 H 0.42091 0.74834 0.64178 0.0
C863 C 0.27713 0.73221 0.61718 0.0
C864 C 0.32938 0.71594 0.6095 0.0
H865 H 0.23627 0.76836 0.63928 0.0
H866 H 0.23686 0.72752 0.6104 0.0
C867 C 0.38106 0.72229 0.61854 0.0
C868 C 0.76574 0.72068 0.36656 0.0
C869 C 0.77341 0.67046 0.35684 0.0
H870 H 0.73633 0.75654 0.39021 0.0
C871 C 0.75659 0.61721 0.36361 0.0
H872 H 0.77853 0.76215 0.36156 0.0
C873 C 0.73386 0.61396 0.37993 0.0
C874 C 0.72654 0.66397 0.38973 0.0
H875 H 0.76275 0.57781 0.35648 0.0
H876 H 0.72195 0.57224 0.38495 0.0
C877 C 0.74166 0.71754 0.38283 0.0
C878 C 0.71169 0.27864 0.63892 0.0
C879 C 0.70927 0.21856 0.64114 0.0
H880 H 0.70808 0.34917 0.62152 0.0
C881 C 0.70713 0.18313 0.62669 0.0
H882 H 0.71422 0.30715 0.64974 0.0
C883 C 0.7043 0.2072 0.61053 0.0
C884 C 0.7035 0.26724 0.60836 0.0
H885 H 0.70484 0.13677 0.62781 0.0
H886 H 0.70092 0.17874 0.59971 0.0
C887 C 0.70889 0.30274 0.62271 0.0
C888 C 0.28698 0.17942 0.89165 0.0
C889 C 0.22942 0.19693 0.8942 0.0
H890 H 0.35496 0.1633 0.87398 0.0
C891 C 0.19731 0.21507 0.88 0.0
H892 H 0.31331 0.16451 0.90204 0.0
C893 C 0.22145 0.21381 0.86375 0.0
C894 C 0.27849 0.19525 0.86129 0.0
H895 H 0.15334 0.22997 0.88131 0.0
H896 H 0.19547 0.22728 0.85307 0.0
C897 C 0.31117 0.17879 0.87546 0.0
C898 C 0.20552 0.79585 0.14361 0.0
C899 C 0.20513 0.73591 0.14618 0.0
H900 H 0.20225 0.86495 0.12566 0.0
C901 C 0.20627 0.69936 0.13195 0.0
H902 H 0.20507 0.82505 0.1543 0.0
C903 C 0.20484 0.72215 0.11561 0.0
C904 C 0.20264 0.78194 0.11304 0.0
H905 H 0.20531 0.65303 0.13339 0.0
H906 H 0.20355 0.69294 0.10491 0.0
C907 C 0.20456 0.81867 0.1272 0.0
C908 C 0.73624 0.87045 0.886 0.0
C909 C 0.7555 0.81895 0.89342 0.0
H910 H 0.70183 0.91107 0.8638 0.0
C911 C 0.75435 0.76779 0.88392 0.0
H912 H 0.73733 0.91044 0.89306 0.0
C913 C 0.73308 0.768 0.86733 0.0
C914 C 0.71463 0.8197 0.85987 0.0
H915 H 0.76909 0.72772 0.88945 0.0
H916 H 0.73148 0.7281 0.86023 0.0
C917 C 0.71659 0.87093 0.8693 0.0
C918 C 0.87479 0.2116 0.12199 0.0
C919 C 0.82376 0.21178 0.11248 0.0
H920 H 0.91565 0.23502 0.1453 0.0
C921 C 0.7735 0.23592 0.1194 0.0
H922 H 0.9138 0.19271 0.11683 0.0
C923 C 0.7747 0.26101 0.13554 0.0
C924 C 0.82578 0.26063 0.1451 0.0
H925 H 0.73381 0.23613 0.11219 0.0
H926 H 0.73579 0.28025 0.14064 0.0
C927 C 0.87566 0.23528 0.13823 0.0
loop_
_geom_bond_atom_site_label_1
_geom_bond_atom_site_label_2
_geom_bond_distance
_geom_bond_site_symmetry_2
_ccdc_geom_bond_type
Co0 N4 2.148 . S
Co0 N10 2.128 1_455 S
Co0 N20 2.194 . S
Co0 O25 2.351 1_455 S
Co0 O26 2.155 . S
Co0 O27 2.096 . S
C1 N4 1.301 . S
C1 N5 1.328 . S
C1 H6 0.930 . S
C2 C3 1.333 . S
C2 N4 1.317 . S
C2 H7 0.930 . S
C3 C2 1.333 . S
C3 N5 1.350 . S
C3 H29 0.931 . S
N4 Co0 2.148 . S
N4 C1 1.301 . S
N4 C2 1.317 . S
N5 C1 1.328 . S
N5 C3 1.350 . S
H6 C1 0.930 . S
H7 C2 0.930 . S
C8 O9 1.224 . S
C8 O27 1.247 . S
O9 C8 1.224 . S
N10 Co0 2.128 1_655 S
N10 C11 1.355 . S
N10 C13 1.311 . S
C11 N10 1.355 . S
C11 C12 1.363 . S
C11 H23 0.929 . S
C12 C11 1.363 . S
C12 N14 1.375 . S
C12 H30 0.931 . S
C13 N10 1.311 . S
C13 N14 1.347 . S
C13 H24 0.929 . S
N14 C12 1.375 . S
N14 C13 1.347 . S
C15 C18 1.365 . S
C15 N20 1.328 1_655 S
C15 H21 0.929 . S
C16 C17 1.362 1_455 S
C16 C19 1.378 . S
C16 H31 0.929 . S
C17 C16 1.362 1_655 S
C17 C18 1.366 . S
C18 C15 1.365 . S
C18 C17 1.366 . S
C18 H32 0.930 . S
C19 C16 1.378 . S
C19 N20 1.315 . S
C19 H22 0.930 . S
N20 Co0 2.194 . S
N20 C15 1.328 1_455 S
N20 C19 1.315 . S
H21 C15 0.929 . S
H22 C19 0.930 . S
H23 C11 0.929 . S
H24 C13 0.929 . S
O25 Co0 2.351 1_655 S
O25 C28 1.244 . S
O26 Co0 2.155 . S
O26 C28 1.240 1_455 S
O27 Co0 2.096 . S
O27 C8 1.247 . S
C28 O25 1.244 . S
C28 O26 1.240 1_655 S
H29 C3 0.931 . S
H30 C12 0.931 . S
H31 C16 0.929 . S
H32 C18 0.930 . S
Co33 N37 2.148 . S
Co33 N43 2.128 1_565 S
Co33 N53 2.194 . S
Co33 O58 2.351 1_565 S
Co33 O59 2.155 . S
Co33 O60 2.096 . S
C34 N37 1.301 . S
C34 N38 1.328 . S
C34 H39 0.930 . S
C35 C36 1.333 . S
C35 N37 1.317 . S
C35 H40 0.930 . S
C36 C35 1.333 . S
C36 N38 1.350 . S
C36 H62 0.931 . S
N37 Co33 2.148 . S
N37 C34 1.301 . S
N37 C35 1.317 . S
N38 C34 1.328 . S
N38 C36 1.350 . S
H39 C34 0.930 . S
H40 C35 0.930 . S
C41 O42 1.224 . S
C41 O60 1.247 . S
O42 C41 1.224 . S
N43 Co33 2.128 1_545 S
N43 C44 1.355 . S
N43 C46 1.311 . S
C44 N43 1.355 . S
C44 C45 1.363 . S
C44 H56 0.929 . S
C45 C44 1.363 . S
C45 N47 1.375 . S
C45 H63 0.931 . S
C46 N43 1.311 . S
C46 N47 1.347 . S
C46 H57 0.929 . S
N47 C45 1.375 . S
N47 C46 1.347 . S
C48 C51 1.365 . S
C48 N53 1.328 1_545 S
C48 H54 0.929 . S
C49 C50 1.362 1_565 S
C49 C52 1.378 . S
C49 H64 0.929 . S
C50 C49 1.362 1_545 S
C50 C51 1.366 . S
C51 C48 1.365 . S
C51 C50 1.366 . S
C51 H65 0.930 . S
C52 C49 1.378 . S
C52 N53 1.315 . S
C52 H55 0.930 . S
N53 Co33 2.194 . S
N53 C48 1.328 1_565 S
N53 C52 1.315 . S
H54 C48 0.929 . S
H55 C52 0.930 . S
H56 C44 0.929 . S
H57 C46 0.929 . S
O58 Co33 2.351 1_545 S
O58 C61 1.244 . S
O59 Co33 2.155 . S
O59 C61 1.240 1_565 S
O60 Co33 2.096 . S
O60 C41 1.247 . S
C61 O58 1.244 . S
C61 O59 1.240 1_545 S
H62 C36 0.931 . S
H63 C45 0.931 . S
H64 C49 0.929 . S
H65 C51 0.930 . S
Co66 N70 2.148 . S
Co66 N76 2.128 1_655 S
Co66 N86 2.194 . S
Co66 O91 2.351 1_655 S
Co66 O92 2.155 . S
Co66 O93 2.096 . S
C67 N70 1.301 . S
C67 N71 1.328 . S
C67 H72 0.930 . S
C68 C69 1.333 . S
C68 N70 1.317 . S
C68 H73 0.930 . S
C69 C68 1.333 . S
C69 N71 1.350 . S
C69 H95 0.931 . S
N70 Co66 2.148 . S
N70 C67 1.301 . S
N70 C68 1.317 . S
N71 C67 1.328 . S
N71 C69 1.350 . S
H72 C67 0.930 . S
H73 C68 0.930 . S
C74 O75 1.224 . S
C74 O93 1.247 . S
O75 C74 1.224 . S
N76 Co66 2.128 1_455 S
N76 C77 1.355 . S
N76 C79 1.311 . S
C77 N76 1.355 . S
C77 C78 1.363 . S
C77 H89 0.929 . S
C78 C77 1.363 . S
C78 N80 1.375 . S
C78 H96 0.931 . S
C79 N76 1.311 . S
C79 N80 1.347 . S
C79 H90 0.929 . S
N80 C78 1.375 . S
N80 C79 1.347 . S
C81 C84 1.365 . S
C81 N86 1.328 1_455 S
C81 H87 0.929 . S
C82 C83 1.362 1_655 S
C82 C85 1.378 . S
C82 H97 0.929 . S
C83 C82 1.362 1_455 S
C83 C84 1.366 . S
C84 C81 1.365 . S
C84 C83 1.366 . S
C84 H98 0.930 . S
C85 C82 1.378 . S
C85 N86 1.315 . S
C85 H88 0.930 . S
N86 Co66 2.194 . S
N86 C81 1.328 1_655 S
N86 C85 1.315 . S
H87 C81 0.929 . S
H88 C85 0.930 . S
H89 C77 0.929 . S
H90 C79 0.929 . S
O91 Co66 2.351 1_455 S
O91 C94 1.244 . S
O92 Co66 2.155 . S
O92 C94 1.240 1_655 S
O93 Co66 2.096 . S
O93 C74 1.247 . S
C94 O91 1.244 . S
C94 O92 1.240 1_455 S
H95 C69 0.931 . S
H96 C78 0.931 . S
H97 C82 0.929 . S
H98 C84 0.930 . S
Co99 N103 2.148 . S
Co99 N109 2.128 1_545 S
Co99 N119 2.194 . S
Co99 O124 2.351 1_545 S
Co99 O125 2.155 . S
Co99 O126 2.096 . S
C100 N103 1.301 . S
C100 N104 1.328 . S
C100 H105 0.930 . S
C101 C102 1.333 . S
C101 N103 1.317 . S
C101 H106 0.930 . S
C102 C101 1.333 . S
C102 N104 1.350 . S
C102 H128 0.931 . S
N103 Co99 2.148 . S
N103 C100 1.301 . S
N103 C101 1.317 . S
N104 C100 1.328 . S
N104 C102 1.350 . S
H105 C100 0.930 . S
H106 C101 0.930 . S
C107 O108 1.224 . S
C107 O126 1.247 . S
O108 C107 1.224 . S
N109 Co99 2.128 1_565 S
N109 C110 1.355 . S
N109 C112 1.311 . S
C110 N109 1.355 . S
C110 C111 1.363 . S
C110 H122 0.929 . S
C111 C110 1.363 . S
C111 N113 1.375 . S
C111 H129 0.931 . S
C112 N109 1.311 . S
C112 N113 1.347 . S
C112 H123 0.929 . S
N113 C111 1.375 . S
N113 C112 1.347 . S
C114 C117 1.365 . S
C114 N119 1.328 1_565 S
C114 H120 0.929 . S
C115 C116 1.362 1_545 S
C115 C118 1.378 . S
C115 H130 0.929 . S
C116 C115 1.362 1_565 S
C116 C117 1.366 . S
C117 C114 1.365 . S
C117 C116 1.366 . S
C117 H131 0.930 . S
C118 C115 1.378 . S
C118 N119 1.315 . S
C118 H121 0.930 . S
N119 Co99 2.194 . S
N119 C114 1.328 1_545 S
N119 C118 1.315 . S
H120 C114 0.929 . S
H121 C118 0.930 . S
H122 C110 0.929 . S
H123 C112 0.929 . S
O124 Co99 2.351 1_565 S
O124 C127 1.244 . S
O125 Co99 2.155 . S
O125 C127 1.240 1_545 S
O126 Co99 2.096 . S
O126 C107 1.247 . S
C127 O124 1.244 . S
C127 O125 1.240 1_565 S
H128 C102 0.931 . S
H129 C111 0.931 . S
H130 C115 0.929 . S
H131 C117 0.930 . S
Co132 N136 2.148 . S
Co132 N142 2.128 1_455 S
Co132 N152 2.194 . S
Co132 O157 2.351 1_455 S
Co132 O158 2.155 . S
Co132 O159 2.096 . S
C133 N136 1.301 . S
C133 N137 1.328 . S
C133 H138 0.930 . S
C134 C135 1.333 . S
C134 N136 1.317 . S
C134 H139 0.930 . S
C135 C134 1.333 . S
C135 N137 1.350 . S
C135 H161 0.931 . S
N136 Co132 2.148 . S
N136 C133 1.301 . S
N136 C134 1.317 . S
N137 C133 1.328 . S
N137 C135 1.350 . S
H138 C133 0.930 . S
H139 C134 0.930 . S
C140 O141 1.224 . S
C140 O159 1.247 . S
O141 C140 1.224 . S
N142 Co132 2.128 1_655 S
N142 C143 1.355 . S
N142 C145 1.311 . S
C143 N142 1.355 . S
C143 C144 1.363 . S
C143 H155 0.929 . S
C144 C143 1.363 . S
C144 N146 1.375 . S
C144 H162 0.931 . S
C145 N142 1.311 . S
C145 N146 1.347 . S
C145 H156 0.929 . S
N146 C144 1.375 . S
N146 C145 1.347 . S
C147 C150 1.365 . S
C147 N152 1.328 1_655 S
C147 H153 0.929 . S
C148 C149 1.362 1_455 S
C148 C151 1.378 . S
C148 H163 0.929 . S
C149 C148 1.362 1_655 S
C149 C150 1.366 . S
C150 C147 1.365 . S
C150 C149 1.366 . S
C150 H164 0.930 . S
C151 C148 1.378 . S
C151 N152 1.315 . S
C151 H154 0.930 . S
N152 Co132 2.194 . S
N152 C147 1.328 1_455 S
N152 C151 1.315 . S
H153 C147 0.929 . S
H154 C151 0.930 . S
H155 C143 0.929 . S
H156 C145 0.929 . S
O157 Co132 2.351 1_655 S
O157 C160 1.244 . S
O158 Co132 2.155 . S
O158 C160 1.240 1_455 S
O159 Co132 2.096 . S
O159 C140 1.247 . S
C160 O157 1.244 . S
C160 O158 1.240 1_655 S
H161 C135 0.931 . S
H162 C144 0.931 . S
H163 C148 0.929 . S
H164 C150 0.930 . S
Co165 N169 2.148 . S
Co165 N175 2.128 1_565 S
Co165 N185 2.194 . S
Co165 O190 2.351 1_565 S
Co165 O191 2.155 . S
Co165 O192 2.096 . S
C166 N169 1.301 . S
C166 N170 1.328 . S
C166 H171 0.930 . S
C167 C168 1.333 . S
C167 N169 1.317 . S
C167 H172 0.930 . S
C168 C167 1.333 . S
C168 N170 1.350 . S
C168 H194 0.931 . S
N169 Co165 2.148 . S
N169 C166 1.301 . S
N169 C167 1.317 . S
N170 C166 1.328 . S
N170 C168 1.350 . S
H171 C166 0.930 . S
H172 C167 0.930 . S
C173 O174 1.224 . S
C173 O192 1.247 . S
O174 C173 1.224 . S
N175 Co165 2.128 1_545 S
N175 C176 1.355 . S
N175 C178 1.311 . S
C176 N175 1.355 . S
C176 C177 1.363 . S
C176 H188 0.929 . S
C177 C176 1.363 . S
C177 N179 1.375 . S
C177 H195 0.931 . S
C178 N175 1.311 . S
C178 N179 1.347 . S
C178 H189 0.929 . S
N179 C177 1.375 . S
N179 C178 1.347 . S
C180 C183 1.365 . S
C180 N185 1.328 1_545 S
C180 H186 0.929 . S
C181 C182 1.362 1_565 S
C181 C184 1.378 . S
C181 H196 0.929 . S
C182 C181 1.362 1_545 S
C182 C183 1.366 . S
C183 C180 1.365 . S
C183 C182 1.366 . S
C183 H197 0.930 . S
C184 C181 1.378 . S
C184 N185 1.315 . S
C184 H187 0.930 . S
N185 Co165 2.194 . S
N185 C180 1.328 1_565 S
N185 C184 1.315 . S
H186 C180 0.929 . S
H187 C184 0.930 . S
H188 C176 0.929 . S
H189 C178 0.929 . S
O190 Co165 2.351 1_545 S
O190 C193 1.244 . S
O191 Co165 2.155 . S
O191 C193 1.240 1_565 S
O192 Co165 2.096 . S
O192 C173 1.247 . S
C193 O190 1.244 . S
C193 O191 1.240 1_545 S
H194 C168 0.931 . S
H195 C177 0.931 . S
H196 C181 0.929 . S
H197 C183 0.930 . S
Co198 N202 2.148 . S
Co198 N208 2.128 1_655 S
Co198 N218 2.194 . S
Co198 O223 2.351 1_655 S
Co198 O224 2.155 . S
Co198 O225 2.096 . S
C199 N202 1.301 . S
C199 N203 1.328 . S
C199 H204 0.930 . S
C200 C201 1.333 . S
C200 N202 1.317 . S
C200 H205 0.930 . S
C201 C200 1.333 . S
C201 N203 1.350 . S
C201 H227 0.931 . S
N202 Co198 2.148 . S
N202 C199 1.301 . S
N202 C200 1.317 . S
N203 C199 1.328 . S
N203 C201 1.350 . S
H204 C199 0.930 . S
H205 C200 0.930 . S
C206 O207 1.224 . S
C206 O225 1.247 . S
O207 C206 1.224 . S
N208 Co198 2.128 1_455 S
N208 C209 1.355 . S
N208 C211 1.311 . S
C209 N208 1.355 . S
C209 C210 1.363 . S
C209 H221 0.929 . S
C210 C209 1.363 . S
C210 N212 1.375 . S
C210 H228 0.931 . S
C211 N208 1.311 . S
C211 N212 1.347 . S
C211 H222 0.929 . S
N212 C210 1.375 . S
N212 C211 1.347 . S
C213 C216 1.365 . S
C213 N218 1.328 1_455 S
C213 H219 0.929 . S
C214 C215 1.362 1_655 S
C214 C217 1.378 . S
C214 H229 0.929 . S
C215 C214 1.362 1_455 S
C215 C216 1.366 . S
C216 C213 1.365 . S
C216 C215 1.366 . S
C216 H230 0.930 . S
C217 C214 1.378 . S
C217 N218 1.315 . S
C217 H220 0.930 . S
N218 Co198 2.194 . S
N218 C213 1.328 1_655 S
N218 C217 1.315 . S
H219 C213 0.929 . S
H220 C217 0.930 . S
H221 C209 0.929 . S
H222 C211 0.929 . S
O223 Co198 2.351 1_455 S
O223 C226 1.244 . S
O224 Co198 2.155 . S
O224 C226 1.240 1_655 S
O225 Co198 2.096 . S
O225 C206 1.247 . S
C226 O223 1.244 . S
C226 O224 1.240 1_455 S
H227 C201 0.931 . S
H228 C210 0.931 . S
H229 C214 0.929 . S
H230 C216 0.930 . S
Co231 N235 2.148 . S
Co231 N241 2.128 1_545 S
Co231 N251 2.194 . S
Co231 O256 2.351 1_545 S
Co231 O257 2.155 . S
Co231 O258 2.096 . S
C232 N235 1.301 . S
C232 N236 1.328 . S
C232 H237 0.930 . S
C233 C234 1.333 . S
C233 N235 1.317 . S
C233 H238 0.930 . S
C234 C233 1.333 . S
C234 N236 1.350 . S
C234 H260 0.931 . S
N235 Co231 2.148 . S
N235 C232 1.301 . S
N235 C233 1.317 . S
N236 C232 1.328 . S
N236 C234 1.350 . S
H237 C232 0.930 . S
H238 C233 0.930 . S
C239 O240 1.224 . S
C239 O258 1.247 . S
O240 C239 1.224 . S
N241 Co231 2.128 1_565 S
N241 C242 1.355 . S
N241 C244 1.311 . S
C242 N241 1.355 . S
C242 C243 1.363 . S
C242 H254 0.929 . S
C243 C242 1.363 . S
C243 N245 1.375 . S
C243 H261 0.931 . S
C244 N241 1.311 . S
C244 N245 1.347 . S
C244 H255 0.929 . S
N245 C243 1.375 . S
N245 C244 1.347 . S
C246 C249 1.365 . S
C246 N251 1.328 1_565 S
C246 H252 0.929 . S
C247 C248 1.362 1_545 S
C247 C250 1.378 . S
C247 H262 0.929 . S
C248 C247 1.362 1_565 S
C248 C249 1.366 . S
C249 C246 1.365 . S
C249 C248 1.366 . S
C249 H263 0.930 . S
C250 C247 1.378 . S
C250 N251 1.315 . S
C250 H253 0.930 . S
N251 Co231 2.194 . S
N251 C246 1.328 1_545 S
N251 C250 1.315 . S
H252 C246 0.929 . S
H253 C250 0.930 . S
H254 C242 0.929 . S
H255 C244 0.929 . S
O256 Co231 2.351 1_565 S
O256 C259 1.244 . S
O257 Co231 2.155 . S
O257 C259 1.240 1_545 S
O258 Co231 2.096 . S
O258 C239 1.247 . S
C259 O256 1.244 . S
C259 O257 1.240 1_565 S
H260 C234 0.931 . S
H261 C243 0.931 . S
H262 C247 0.929 . S
H263 C249 0.930 . S
Co264 N268 2.148 . S
Co264 N274 2.128 . S
Co264 N284 2.194 . S
Co264 O289 2.351 . S
Co264 O290 2.155 . S
Co264 O291 2.096 . S
C265 N268 1.301 . S
C265 N269 1.328 . S
C265 H270 0.930 . S
C266 C267 1.333 . S
C266 N268 1.317 . S
C266 H271 0.930 . S
C267 C266 1.333 . S
C267 N269 1.350 . S
C267 H293 0.931 . S
N268 Co264 2.148 . S
N268 C265 1.301 . S
N268 C266 1.317 . S
N269 C265 1.328 . S
N269 C267 1.350 . S
H270 C265 0.930 . S
H271 C266 0.930 . S
C272 O273 1.224 . S
C272 O291 1.247 . S
O273 C272 1.224 . S
N274 Co264 2.128 . S
N274 C275 1.355 . S
N274 C277 1.311 . S
C275 N274 1.355 . S
C275 C276 1.363 . S
C275 H287 0.929 . S
C276 C275 1.363 . S
C276 N278 1.375 . S
C276 H294 0.931 . S
C277 N274 1.311 . S
C277 N278 1.347 . S
C277 H288 0.929 . S
N278 C276 1.375 . S
N278 C277 1.347 . S
C279 C282 1.365 . S
C279 N284 1.328 . S
C279 H285 0.929 . S
C280 C281 1.362 . S
C280 C283 1.378 . S
C280 H295 0.929 . S
C281 C280 1.362 . S
C281 C282 1.366 . S
C282 C279 1.365 . S
C282 C281 1.366 . S
C282 H296 0.930 . S
C283 C280 1.378 . S
C283 N284 1.315 . S
C283 H286 0.930 . S
N284 Co264 2.194 . S
N284 C279 1.328 . S
N284 C283 1.315 . S
H285 C279 0.929 . S
H286 C283 0.930 . S
H287 C275 0.929 . S
H288 C277 0.929 . S
O289 Co264 2.351 . S
O289 C292 1.244 . S
O290 Co264 2.155 . S
O290 C292 1.240 . S
O291 Co264 2.096 . S
O291 C272 1.247 . S
C292 O289 1.244 . S
C292 O290 1.240 . S
H293 C267 0.931 . S
H294 C276 0.931 . S
H295 C280 0.929 . S
H296 C282 0.930 . S
Co297 N301 2.148 . S
Co297 N307 2.128 . S
Co297 N317 2.194 . S
Co297 O322 2.351 . S
Co297 O323 2.155 . S
Co297 O324 2.096 . S
C298 N301 1.301 . S
C298 N302 1.328 . S
C298 H303 0.930 . S
C299 C300 1.333 . S
C299 N301 1.317 . S
C299 H304 0.930 . S
C300 C299 1.333 . S
C300 N302 1.350 . S
C300 H326 0.931 . S
N301 Co297 2.148 . S
N301 C298 1.301 . S
N301 C299 1.317 . S
N302 C298 1.328 . S
N302 C300 1.350 . S
H303 C298 0.930 . S
H304 C299 0.930 . S
C305 O306 1.224 . S
C305 O324 1.247 . S
O306 C305 1.224 . S
N307 Co297 2.128 . S
N307 C308 1.355 . S
N307 C310 1.311 . S
C308 N307 1.355 . S
C308 C309 1.363 . S
C308 H320 0.929 . S
C309 C308 1.363 . S
C309 N311 1.375 . S
C309 H327 0.931 . S
C310 N307 1.311 . S
C310 N311 1.347 . S
C310 H321 0.929 . S
N311 C309 1.375 . S
N311 C310 1.347 . S
C312 C315 1.365 . S
C312 N317 1.328 . S
C312 H318 0.929 . S
C313 C314 1.362 . S
C313 C316 1.378 . S
C313 H328 0.929 . S
C314 C313 1.362 . S
C314 C315 1.366 . S
C315 C312 1.365 . S
C315 C314 1.366 . S
C315 H329 0.930 . S
C316 C313 1.378 . S
C316 N317 1.315 . S
C316 H319 0.930 . S
N317 Co297 2.194 . S
N317 C312 1.328 . S
N317 C316 1.315 . S
H318 C312 0.929 . S
H319 C316 0.930 . S
H320 C308 0.929 . S
H321 C310 0.929 . S
O322 Co297 2.351 . S
O322 C325 1.244 . S
O323 Co297 2.155 . S
O323 C325 1.240 . S
O324 Co297 2.096 . S
O324 C305 1.247 . S
C325 O322 1.244 . S
C325 O323 1.240 . S
H326 C300 0.931 . S
H327 C309 0.931 . S
H328 C313 0.929 . S
H329 C315 0.930 . S
Co330 N334 2.148 . S
Co330 N340 2.128 . S
Co330 N350 2.194 . S
Co330 O355 2.351 . S
Co330 O356 2.155 . S
Co330 O357 2.096 . S
C331 N334 1.301 . S
C331 N335 1.328 . S
C331 H336 0.930 . S
C332 C333 1.333 . S
C332 N334 1.317 . S
C332 H337 0.930 . S
C333 C332 1.333 . S
C333 N335 1.350 . S
C333 H359 0.931 . S
N334 Co330 2.148 . S
N334 C331 1.301 . S
N334 C332 1.317 . S
N335 C331 1.328 . S
N335 C333 1.350 . S
H336 C331 0.930 . S
H337 C332 0.930 . S
C338 O339 1.224 . S
C338 O357 1.247 . S
O339 C338 1.224 . S
N340 Co330 2.128 . S
N340 C341 1.355 . S
N340 C343 1.311 . S
C341 N340 1.355 . S
C341 C342 1.363 . S
C341 H353 0.929 . S
C342 C341 1.363 . S
C342 N344 1.375 . S
C342 H360 0.931 . S
C343 N340 1.311 . S
C343 N344 1.347 . S
C343 H354 0.929 . S
N344 C342 1.375 . S
N344 C343 1.347 . S
C345 C348 1.365 . S
C345 N350 1.328 . S
C345 H351 0.929 . S
C346 C347 1.362 . S
C346 C349 1.378 . S
C346 H361 0.929 . S
C347 C346 1.362 . S
C347 C348 1.366 . S
C348 C345 1.365 . S
C348 C347 1.366 . S
C348 H362 0.930 . S
C349 C346 1.378 . S
C349 N350 1.315 . S
C349 H352 0.930 . S
N350 Co330 2.194 . S
N350 C345 1.328 . S
N350 C349 1.315 . S
H351 C345 0.929 . S
H352 C349 0.930 . S
H353 C341 0.929 . S
H354 C343 0.929 . S
O355 Co330 2.351 . S
O355 C358 1.244 . S
O356 Co330 2.155 . S
O356 C358 1.240 . S
O357 Co330 2.096 . S
O357 C338 1.247 . S
C358 O355 1.244 . S
C358 O356 1.240 . S
H359 C333 0.931 . S
H360 C342 0.931 . S
H361 C346 0.929 . S
H362 C348 0.930 . S
Co363 N367 2.148 . S
Co363 N373 2.128 . S
Co363 N383 2.194 . S
Co363 O388 2.351 . S
Co363 O389 2.155 . S
Co363 O390 2.096 . S
C364 N367 1.301 . S
C364 N368 1.328 . S
C364 H369 0.930 . S
C365 C366 1.333 . S
C365 N367 1.317 . S
C365 H370 0.930 . S
C366 C365 1.333 . S
C366 N368 1.350 . S
C366 H392 0.931 . S
N367 Co363 2.148 . S
N367 C364 1.301 . S
N367 C365 1.317 . S
N368 C364 1.328 . S
N368 C366 1.350 . S
H369 C364 0.930 . S
H370 C365 0.930 . S
C371 O372 1.224 . S
C371 O390 1.247 . S
O372 C371 1.224 . S
N373 Co363 2.128 . S
N373 C374 1.355 . S
N373 C376 1.311 . S
C374 N373 1.355 . S
C374 C375 1.363 . S
C374 H386 0.929 . S
C375 C374 1.363 . S
C375 N377 1.375 . S
C375 H393 0.931 . S
C376 N373 1.311 . S
C376 N377 1.347 . S
C376 H387 0.929 . S
N377 C375 1.375 . S
N377 C376 1.347 . S
C378 C381 1.365 . S
C378 N383 1.328 . S
C378 H384 0.929 . S
C379 C380 1.362 . S
C379 C382 1.378 . S
C379 H394 0.929 . S
C380 C379 1.362 . S
C380 C381 1.366 . S
C381 C378 1.365 . S
C381 C380 1.366 . S
C381 H395 0.930 . S
C382 C379 1.378 . S
C382 N383 1.315 . S
C382 H385 0.930 . S
N383 Co363 2.194 . S
N383 C378 1.328 . S
N383 C382 1.315 . S
H384 C378 0.929 . S
H385 C382 0.930 . S
H386 C374 0.929 . S
H387 C376 0.929 . S
O388 Co363 2.351 . S
O388 C391 1.244 . S
O389 Co363 2.155 . S
O389 C391 1.240 . S
O390 Co363 2.096 . S
O390 C371 1.247 . S
C391 O388 1.244 . S
C391 O389 1.240 . S
H392 C366 0.931 . S
H393 C375 0.931 . S
H394 C379 0.929 . S
H395 C381 0.930 . S
Co396 N400 2.148 . S
Co396 N406 2.128 . S
Co396 N416 2.194 . S
Co396 O421 2.351 . S
Co396 O422 2.155 . S
Co396 O423 2.096 . S
C397 N400 1.301 . S
C397 N401 1.328 . S
C397 H402 0.930 . S
C398 C399 1.333 . S
C398 N400 1.317 . S
C398 H403 0.930 . S
C399 C398 1.333 . S
C399 N401 1.350 . S
C399 H425 0.931 . S
N400 Co396 2.148 . S
N400 C397 1.301 . S
N400 C398 1.317 . S
N401 C397 1.328 . S
N401 C399 1.350 . S
H402 C397 0.930 . S
H403 C398 0.930 . S
C404 O405 1.224 . S
C404 O423 1.247 . S
O405 C404 1.224 . S
N406 Co396 2.128 . S
N406 C407 1.355 . S
N406 C409 1.311 . S
C407 N406 1.355 . S
C407 C408 1.363 . S
C407 H419 0.929 . S
C408 C407 1.363 . S
C408 N410 1.375 . S
C408 H426 0.931 . S
C409 N406 1.311 . S
C409 N410 1.347 . S
C409 H420 0.929 . S
N410 C408 1.375 . S
N410 C409 1.347 . S
C411 C414 1.365 . S
C411 N416 1.328 . S
C411 H417 0.929 . S
C412 C413 1.362 . S
C412 C415 1.378 . S
C412 H427 0.929 . S
C413 C412 1.362 . S
C413 C414 1.366 . S
C414 C411 1.365 . S
C414 C413 1.366 . S
C414 H428 0.930 . S
C415 C412 1.378 . S
C415 N416 1.315 . S
C415 H418 0.930 . S
N416 Co396 2.194 . S
N416 C411 1.328 . S
N416 C415 1.315 . S
H417 C411 0.929 . S
H418 C415 0.930 . S
H419 C407 0.929 . S
H420 C409 0.929 . S
O421 Co396 2.351 . S
O421 C424 1.244 . S
O422 Co396 2.155 . S
O422 C424 1.240 . S
O423 Co396 2.096 . S
O423 C404 1.247 . S
C424 O421 1.244 . S
C424 O422 1.240 . S
H425 C399 0.931 . S
H426 C408 0.931 . S
H427 C412 0.929 . S
H428 C414 0.930 . S
Co429 N433 2.148 . S
Co429 N439 2.128 . S
Co429 N449 2.194 . S
Co429 O454 2.351 . S
Co429 O455 2.155 . S
Co429 O456 2.096 . S
C430 N433 1.301 . S
C430 N434 1.328 . S
C430 H435 0.930 . S
C431 C432 1.333 . S
C431 N433 1.317 . S
C431 H436 0.930 . S
C432 C431 1.333 . S
C432 N434 1.350 . S
C432 H458 0.931 . S
N433 Co429 2.148 . S
N433 C430 1.301 . S
N433 C431 1.317 . S
N434 C430 1.328 . S
N434 C432 1.350 . S
H435 C430 0.930 . S
H436 C431 0.930 . S
C437 O438 1.224 . S
C437 O456 1.247 . S
O438 C437 1.224 . S
N439 Co429 2.128 . S
N439 C440 1.355 . S
N439 C442 1.311 . S
C440 N439 1.355 . S
C440 C441 1.363 . S
C440 H452 0.929 . S
C441 C440 1.363 . S
C441 N443 1.375 . S
C441 H459 0.931 . S
C442 N439 1.311 . S
C442 N443 1.347 . S
C442 H453 0.929 . S
N443 C441 1.375 . S
N443 C442 1.347 . S
C444 C447 1.365 . S
C444 N449 1.328 . S
C444 H450 0.929 . S
C445 C446 1.362 . S
C445 C448 1.378 . S
C445 H460 0.929 . S
C446 C445 1.362 . S
C446 C447 1.366 . S
C447 C444 1.365 . S
C447 C446 1.366 . S
C447 H461 0.930 . S
C448 C445 1.378 . S
C448 N449 1.315 . S
C448 H451 0.930 . S
N449 Co429 2.194 . S
N449 C444 1.328 . S
N449 C448 1.315 . S
H450 C444 0.929 . S
H451 C448 0.930 . S
H452 C440 0.929 . S
H453 C442 0.929 . S
O454 Co429 2.351 . S
O454 C457 1.244 . S
O455 Co429 2.155 . S
O455 C457 1.240 . S
O456 Co429 2.096 . S
O456 C437 1.247 . S
C457 O454 1.244 . S
C457 O455 1.240 . S
H458 C432 0.931 . S
H459 C441 0.931 . S
H460 C445 0.929 . S
H461 C447 0.930 . S
Co462 N466 2.148 . S
Co462 N472 2.128 . S
Co462 N482 2.194 . S
Co462 O487 2.351 . S
Co462 O488 2.155 . S
Co462 O489 2.096 . S
C463 N466 1.301 . S
C463 N467 1.328 . S
C463 H468 0.930 . S
C464 C465 1.333 . S
C464 N466 1.317 . S
C464 H469 0.930 . S
C465 C464 1.333 . S
C465 N467 1.350 . S
C465 H491 0.931 . S
N466 Co462 2.148 . S
N466 C463 1.301 . S
N466 C464 1.317 . S
N467 C463 1.328 . S
N467 C465 1.350 . S
H468 C463 0.930 . S
H469 C464 0.930 . S
C470 O471 1.224 . S
C470 O489 1.247 . S
O471 C470 1.224 . S
N472 Co462 2.128 . S
N472 C473 1.355 . S
N472 C475 1.311 . S
C473 N472 1.355 . S
C473 C474 1.363 . S
C473 H485 0.929 . S
C474 C473 1.363 . S
C474 N476 1.375 . S
C474 H492 0.931 . S
C475 N472 1.311 . S
C475 N476 1.347 . S
C475 H486 0.929 . S
N476 C474 1.375 . S
N476 C475 1.347 . S
C477 C480 1.365 . S
C477 N482 1.328 . S
C477 H483 0.929 . S
C478 C479 1.362 . S
C478 C481 1.378 . S
C478 H493 0.929 . S
C479 C478 1.362 . S
C479 C480 1.366 . S
C480 C477 1.365 . S
C480 C479 1.366 . S
C480 H494 0.930 . S
C481 C478 1.378 . S
C481 N482 1.315 . S
C481 H484 0.930 . S
N482 Co462 2.194 . S
N482 C477 1.328 . S
N482 C481 1.315 . S
H483 C477 0.929 . S
H484 C481 0.930 . S
H485 C473 0.929 . S
H486 C475 0.929 . S
O487 Co462 2.351 . S
O487 C490 1.244 . S
O488 Co462 2.155 . S
O488 C490 1.240 . S
O489 Co462 2.096 . S
O489 C470 1.247 . S
C490 O487 1.244 . S
C490 O488 1.240 . S
H491 C465 0.931 . S
H492 C474 0.931 . S
H493 C478 0.929 . S
H494 C480 0.930 . S
Co495 N499 2.148 . S
Co495 N505 2.128 . S
Co495 N515 2.194 . S
Co495 O520 2.351 . S
Co495 O521 2.155 . S
Co495 O522 2.096 . S
C496 N499 1.301 . S
C496 N500 1.328 . S
C496 H501 0.930 . S
C497 C498 1.333 . S
C497 N499 1.317 . S
C497 H502 0.930 . S
C498 C497 1.333 . S
C498 N500 1.350 . S
C498 H524 0.931 . S
N499 Co495 2.148 . S
N499 C496 1.301 . S
N499 C497 1.317 . S
N500 C496 1.328 . S
N500 C498 1.350 . S
H501 C496 0.930 . S
H502 C497 0.930 . S
C503 O504 1.224 . S
C503 O522 1.247 . S
O504 C503 1.224 . S
N505 Co495 2.128 . S
N505 C506 1.355 . S
N505 C508 1.311 . S
C506 N505 1.355 . S
C506 C507 1.363 . S
C506 H518 0.929 . S
C507 C506 1.363 . S
C507 N509 1.375 . S
C507 H525 0.931 . S
C508 N505 1.311 . S
C508 N509 1.347 . S
C508 H519 0.929 . S
N509 C507 1.375 . S
N509 C508 1.347 . S
C510 C513 1.365 . S
C510 N515 1.328 . S
C510 H516 0.929 . S
C511 C512 1.362 . S
C511 C514 1.378 . S
C511 H526 0.929 . S
C512 C511 1.362 . S
C512 C513 1.366 . S
C513 C510 1.365 . S
C513 C512 1.366 . S
C513 H527 0.930 . S
C514 C511 1.378 . S
C514 N515 1.315 . S
C514 H517 0.930 . S
N515 Co495 2.194 . S
N515 C510 1.328 . S
N515 C514 1.315 . S
H516 C510 0.929 . S
H517 C514 0.930 . S
H518 C506 0.929 . S
H519 C508 0.929 . S
O520 Co495 2.351 . S
O520 C523 1.244 . S
O521 Co495 2.155 . S
O521 C523 1.240 . S
O522 Co495 2.096 . S
O522 C503 1.247 . S
C523 O520 1.244 . S
C523 O521 1.240 . S
H524 C498 0.931 . S
H525 C507 0.931 . S
H526 C511 0.929 . S
H527 C513 0.930 . S
C528 C529 1.387 . S
C528 H532 0.950 . S
C528 C537 1.390 . S
C529 C528 1.387 . S
C529 C531 1.387 . S
H530 C537 0.950 . S
C531 C529 1.387 . S
C531 C533 1.390 . S
C531 H535 0.950 . S
H532 C528 0.950 . S
C533 C531 1.390 . S
C533 C534 1.387 . S
C533 H536 0.950 . S
C534 C533 1.387 . S
C534 C537 1.387 . S
H535 C531 0.950 . S
H536 C533 0.950 . S
C537 C528 1.390 . S
C537 H530 0.950 . S
C537 C534 1.387 . S
C538 C539 1.387 . S
C538 H542 0.950 . S
C538 C547 1.390 . S
C539 C538 1.387 . S
C539 C541 1.387 . S
H540 C547 0.950 . S
C541 C539 1.387 . S
C541 C543 1.390 . S
C541 H545 0.950 . S
H542 C538 0.950 . S
C543 C541 1.390 . S
C543 C544 1.387 . S
C543 H546 0.950 . S
C544 C543 1.387 . S
C544 C547 1.387 . S
H545 C541 0.950 . S
H546 C543 0.950 . S
C547 C538 1.390 . S
C547 H540 0.950 . S
C547 C544 1.387 . S
C548 C549 1.387 . S
C548 H552 0.950 . S
C548 C557 1.390 . S
C549 C548 1.387 . S
C549 C551 1.387 . S
H550 C557 0.950 . S
C551 C549 1.387 . S
C551 C553 1.390 . S
C551 H555 0.950 . S
H552 C548 0.950 . S
C553 C551 1.390 . S
C553 C554 1.387 . S
C553 H556 0.950 . S
C554 C553 1.387 . S
C554 C557 1.387 . S
H555 C551 0.950 . S
H556 C553 0.950 . S
C557 C548 1.390 . S
C557 H550 0.950 . S
C557 C554 1.387 . S
C558 C559 1.387 . S
C558 H562 0.950 . S
C558 C567 1.390 . S
C559 C558 1.387 . S
C559 C561 1.387 . S
H560 C567 0.950 . S
C561 C559 1.387 . S
C561 C563 1.390 . S
C561 H565 0.950 . S
H562 C558 0.950 . S
C563 C561 1.390 . S
C563 C564 1.387 . S
C563 H566 0.950 . S
C564 C563 1.387 . S
C564 C567 1.387 . S
H565 C561 0.950 . S
H566 C563 0.950 . S
C567 C558 1.390 . S
C567 H560 0.950 . S
C567 C564 1.387 . S
C568 C569 1.387 . S
C568 H572 0.950 . S
C568 C577 1.390 1_554 S
C569 C568 1.387 . S
C569 C571 1.387 . S
H570 C577 0.950 . S
C571 C569 1.387 . S
C571 C573 1.390 1_554 S
C571 H575 0.950 . S
H572 C568 0.950 . S
C573 C571 1.390 1_556 S
C573 C574 1.387 . S
C573 H576 0.950 . S
C574 C573 1.387 . S
C574 C577 1.387 . S
H575 C571 0.950 . S
H576 C573 0.950 . S
C577 C568 1.390 1_556 S
C577 H570 0.950 . S
C577 C574 1.387 . S
C578 C579 1.387 . S
C578 H582 0.950 . S
C578 C587 1.390 1_556 S
C579 C578 1.387 . S
C579 C581 1.387 1_556 S
H580 C587 0.950 . S
C581 C579 1.387 1_554 S
C581 C583 1.390 . S
C581 H585 0.950 1_554 S
H582 C578 0.950 . S
C583 C581 1.390 . S
C583 C584 1.387 . S
C583 H586 0.950 . S
C584 C583 1.387 . S
C584 C587 1.387 . S
H585 C581 0.950 1_556 S
H586 C583 0.950 . S
C587 C578 1.390 1_554 S
C587 H580 0.950 . S
C587 C584 1.387 . S
C588 C589 1.387 . S
C588 H592 0.950 . S
C588 C597 1.390 1_556 S
C589 C588 1.387 . S
C589 C591 1.387 . S
H590 C597 0.950 . S
C591 C589 1.387 . S
C591 C593 1.390 1_556 S
C591 H595 0.950 . S
H592 C588 0.950 . S
C593 C591 1.390 1_554 S
C593 C594 1.387 . S
C593 H596 0.950 . S
C594 C593 1.387 . S
C594 C597 1.387 . S
H595 C591 0.950 . S
H596 C593 0.950 . S
C597 C588 1.390 1_554 S
C597 H590 0.950 . S
C597 C594 1.387 . S
C598 C599 1.387 . S
C598 H602 0.950 . S
C598 C607 1.360 1_554 S
C599 C598 1.387 . S
C599 C601 1.387 . S
H600 C607 0.960 . S
C601 C599 1.387 . S
C601 C603 1.390 1_554 S
C601 H605 0.950 . S
H602 C598 0.950 . S
C603 C601 1.390 1_556 S
C603 C604 1.387 . S
C603 H606 0.950 . S
C604 C603 1.387 . S
C604 C607 1.408 . S
H605 C601 0.950 . S
H606 C603 0.950 . S
C607 C598 1.360 1_556 S
C607 H600 0.960 . S
C607 C604 1.408 . S
C608 C609 1.387 . S
C608 H612 0.950 . S
C608 C617 1.390 . S
C609 C608 1.387 . S
C609 C611 1.387 . S
H610 C617 0.950 . S
C611 C609 1.387 . S
C611 C613 1.390 . S
C611 H615 0.950 . S
H612 C608 0.950 . S
C613 C611 1.390 . S
C613 C614 1.387 . S
C613 H616 0.950 . S
C614 C613 1.387 . S
C614 C617 1.387 . S
H615 C611 0.950 . S
H616 C613 0.950 . S
C617 C608 1.390 . S
C617 H610 0.950 . S
C617 C614 1.387 . S
C618 C619 1.387 . S
C618 H622 0.950 . S
C618 C627 1.390 . S
C619 C618 1.387 . S
C619 C621 1.387 . S
H620 C627 0.950 . S
C621 C619 1.387 . S
C621 C623 1.390 . S
C621 H625 0.950 . S
H622 C618 0.950 . S
C623 C621 1.390 . S
C623 C624 1.387 . S
C623 H626 0.950 . S
C624 C623 1.387 . S
C624 C627 1.387 . S
H625 C621 0.950 . S
H626 C623 0.950 . S
C627 C618 1.390 . S
C627 H620 0.950 . S
C627 C624 1.387 . S
C628 C629 1.387 . S
C628 H632 0.950 . S
C628 C637 1.390 . S
C629 C628 1.387 . S
C629 C631 1.387 . S
H630 C637 0.950 . S
C631 C629 1.387 . S
C631 C633 1.390 . S
C631 H635 0.950 . S
H632 C628 0.950 . S
C633 C631 1.390 . S
C633 C634 1.387 . S
C633 H636 0.950 . S
C634 C633 1.387 . S
C634 C637 1.387 . S
H635 C631 0.950 . S
H636 C633 0.950 . S
C637 C628 1.390 . S
C637 H630 0.950 . S
C637 C634 1.387 . S
C638 C639 1.387 . S
C638 H642 0.950 . S
C638 C647 1.390 . S
C639 C638 1.387 . S
C639 C641 1.387 . S
H640 C647 0.950 . S
C641 C639 1.387 . S
C641 C643 1.390 . S
C641 H645 0.950 . S
H642 C638 0.950 . S
C643 C641 1.390 . S
C643 C644 1.387 . S
C643 H646 0.950 . S
C644 C643 1.387 . S
C644 C647 1.387 . S
H645 C641 0.950 . S
H646 C643 0.950 . S
C647 C638 1.390 . S
C647 H640 0.950 . S
C647 C644 1.387 . S
C648 C649 1.387 . S
C648 H652 0.950 . S
C648 C657 1.390 . S
C649 C648 1.387 . S
C649 C651 1.387 . S
H650 C657 0.950 . S
C651 C649 1.387 . S
C651 C653 1.390 . S
C651 H655 0.950 . S
H652 C648 0.950 . S
C653 C651 1.390 . S
C653 C654 1.387 . S
C653 H656 0.950 . S
C654 C653 1.387 . S
C654 C657 1.387 . S
H655 C651 0.950 . S
H656 C653 0.950 . S
C657 C648 1.390 . S
C657 H650 0.950 . S
C657 C654 1.387 . S
C658 C659 1.387 . S
C658 H662 0.950 . S
C658 C667 1.390 . S
C659 C658 1.387 . S
C659 C661 1.387 . S
H660 C667 0.950 . S
C661 C659 1.387 . S
C661 C663 1.390 . S
C661 H665 0.950 . S
H662 C658 0.950 . S
C663 C661 1.390 . S
C663 C664 1.387 . S
C663 H666 0.950 . S
C664 C663 1.387 . S
C664 C667 1.387 . S
H665 C661 0.950 . S
H666 C663 0.950 . S
C667 C658 1.390 . S
C667 H660 0.950 . S
C667 C664 1.387 . S
C668 C669 1.387 . S
C668 H672 0.950 . S
C668 C677 1.390 . S
C669 C668 1.387 . S
C669 C671 1.387 . S
H670 C677 0.950 . S
C671 C669 1.387 . S
C671 C673 1.390 . S
C671 H675 0.950 . S
H672 C668 0.950 . S
C673 C671 1.390 . S
C673 C674 1.387 . S
C673 H676 0.950 . S
C674 C673 1.387 . S
C674 C677 1.387 . S
H675 C671 0.950 . S
H676 C673 0.950 . S
C677 C668 1.390 . S
C677 H670 0.950 . S
C677 C674 1.387 . S
C678 C679 1.387 . S
C678 H682 0.950 . S
C678 C687 1.390 . S
C679 C678 1.387 . S
C679 C681 1.387 . S
H680 C687 0.950 . S
C681 C679 1.387 . S
C681 C683 1.390 . S
C681 H685 0.950 . S
H682 C678 0.950 . S
C683 C681 1.390 . S
C683 C684 1.387 . S
C683 H686 0.950 . S
C684 C683 1.387 . S
C684 C687 1.387 . S
H685 C681 0.950 . S
H686 C683 0.950 . S
C687 C678 1.390 . S
C687 H680 0.950 . S
C687 C684 1.387 . S
C688 C689 1.387 . S
C688 H692 0.950 . S
C688 C697 1.390 1_645 S
C689 C688 1.387 . S
C689 C691 1.387 . S
H690 C697 0.950 . S
C691 C689 1.387 . S
C691 C693 1.390 1_645 S
C691 H695 0.950 . S
H692 C688 0.950 . S
C693 C691 1.390 1_465 S
C693 C694 1.387 . S
C693 H696 0.950 . S
C694 C693 1.387 . S
C694 C697 1.387 . S
H695 C691 0.950 . S
H696 C693 0.950 . S
C697 C688 1.390 1_465 S
C697 H690 0.950 . S
C697 C694 1.387 . S
C698 C699 1.387 . S
C698 H702 0.950 . S
C698 C707 1.390 1_445 S
C699 C698 1.387 . S
C699 C701 1.387 . S
H700 C707 0.950 . S
C701 C699 1.387 . S
C701 C703 1.390 1_445 S
C701 H705 0.950 . S
H702 C698 0.950 . S
C703 C701 1.390 1_665 S
C703 C704 1.387 . S
C703 H706 0.950 . S
C704 C703 1.387 . S
C704 C707 1.387 . S
H705 C701 0.950 . S
H706 C703 0.950 . S
C707 C698 1.390 1_665 S
C707 H700 0.950 . S
C707 C704 1.387 . S
C708 C709 1.387 . S
C708 H712 0.950 . S
C708 C717 1.390 1_455 S
C709 C708 1.387 . S
C709 C711 1.387 . S
H710 C717 0.950 . S
C711 C709 1.387 . S
C711 C713 1.390 1_455 S
C711 H715 0.950 . S
H712 C708 0.950 . S
C713 C711 1.390 1_655 S
C713 C714 1.387 . S
C713 H716 0.950 . S
C714 C713 1.387 . S
C714 C717 1.387 . S
H715 C711 0.950 . S
H716 C713 0.950 . S
C717 C708 1.390 1_655 S
C717 H710 0.950 . S
C717 C714 1.387 . S
C718 C719 1.387 . S
C718 H722 0.950 . S
C718 C727 1.390 1_565 S
C719 C718 1.387 . S
C719 C721 1.387 . S
H720 C727 0.950 . S
C721 C719 1.387 . S
C721 C723 1.390 1_565 S
C721 H725 0.950 . S
H722 C718 0.950 . S
C723 C721 1.390 1_545 S
C723 C724 1.387 . S
C723 H726 0.950 . S
C724 C723 1.387 . S
C724 C727 1.387 . S
H725 C721 0.950 . S
H726 C723 0.950 . S
C727 C718 1.390 1_545 S
C727 H720 0.950 . S
C727 C724 1.387 . S
C728 C729 1.387 . S
C728 H732 0.950 . S
C728 C737 1.390 . S
C729 C728 1.387 . S
C729 C731 1.387 . S
H730 C737 0.950 . S
C731 C729 1.387 . S
C731 C733 1.390 . S
C731 H735 0.950 . S
H732 C728 0.950 . S
C733 C731 1.390 . S
C733 C734 1.387 . S
C733 H736 0.950 . S
C734 C733 1.387 . S
C734 C737 1.387 . S
H735 C731 0.950 . S
H736 C733 0.950 . S
C737 C728 1.390 . S
C737 H730 0.950 . S
C737 C734 1.387 . S
C738 C739 1.387 . S
C738 H742 0.950 . S
C738 C747 1.390 . S
C739 C738 1.387 . S
C739 C741 1.387 . S
H740 C747 0.950 . S
C741 C739 1.387 . S
C741 C743 1.390 . S
C741 H745 0.950 . S
H742 C738 0.950 . S
C743 C741 1.390 . S
C743 C744 1.387 . S
C743 H746 0.950 . S
C744 C743 1.387 . S
C744 C747 1.387 . S
H745 C741 0.950 . S
H746 C743 0.950 . S
C747 C738 1.390 . S
C747 H740 0.950 . S
C747 C744 1.387 . S
C748 C749 1.387 . S
C748 H752 0.950 . S
C748 C757 1.390 1_565 S
C749 C748 1.387 . S
C749 C751 1.387 . S
H750 C757 0.950 . S
C751 C749 1.387 . S
C751 C753 1.390 1_565 S
C751 H755 0.950 . S
H752 C748 0.950 . S
C753 C751 1.390 1_545 S
C753 C754 1.387 . S
C753 H756 0.950 . S
C754 C753 1.387 . S
C754 C757 1.387 . S
H755 C751 0.950 . S
H756 C753 0.950 . S
C757 C748 1.390 1_545 S
C757 H750 0.950 . S
C757 C754 1.387 . S
C758 C759 1.387 . S
C758 H762 0.950 . S
C758 C767 1.390 1_455 S
C759 C758 1.387 . S
C759 C761 1.387 . S
H760 C767 0.950 . S
C761 C759 1.387 . S
C761 C763 1.390 1_455 S
C761 H765 0.950 . S
H762 C758 0.950 . S
C763 C761 1.390 1_655 S
C763 C764 1.387 . S
C763 H766 0.950 . S
C764 C763 1.387 . S
C764 C767 1.387 . S
H765 C761 0.950 . S
H766 C763 0.950 . S
C767 C758 1.390 1_655 S
C767 H760 0.950 . S
C767 C764 1.387 . S
C768 C769 1.387 . S
C768 H772 0.950 . S
C768 C777 1.390 1_455 S
C769 C768 1.387 . S
C769 C771 1.387 . S
H770 C777 0.950 . S
C771 C769 1.387 . S
C771 C773 1.390 1_455 S
C771 H775 0.950 . S
H772 C768 0.950 . S
C773 C771 1.390 1_655 S
C773 C774 1.387 . S
C773 H776 0.950 . S
C774 C773 1.387 . S
C774 C777 1.387 . S
H775 C771 0.950 . S
H776 C773 0.950 . S
C777 C768 1.390 1_655 S
C777 H770 0.950 . S
C777 C774 1.387 . S
C778 C779 1.387 . S
C778 H782 0.950 . S
C778 C787 1.390 1_545 S
C779 C778 1.387 . S
C779 C781 1.387 . S
H780 C787 0.950 . S
C781 C779 1.387 . S
C781 C783 1.390 1_545 S
C781 H785 0.950 . S
H782 C778 0.950 . S
C783 C781 1.390 1_565 S
C783 C784 1.387 . S
C783 H786 0.950 . S
C784 C783 1.387 . S
C784 C787 1.387 . S
H785 C781 0.950 . S
H786 C783 0.950 . S
C787 C778 1.390 1_565 S
C787 H780 0.950 . S
C787 C784 1.387 . S
C788 C789 1.387 . S
C788 H792 0.950 . S
C788 C797 1.390 1_645 S
C789 C788 1.387 . S
C789 C791 1.387 . S
H790 C797 0.950 . S
C791 C789 1.387 . S
C791 C793 1.390 1_645 S
C791 H795 0.950 . S
H792 C788 0.950 . S
C793 C791 1.390 1_465 S
C793 C794 1.387 . S
C793 H796 0.950 . S
C794 C793 1.387 . S
C794 C797 1.387 . S
H795 C791 0.950 . S
H796 C793 0.950 . S
C797 C788 1.390 1_465 S
C797 H790 0.950 . S
C797 C794 1.387 . S
C798 C799 1.387 . S
C798 H802 0.950 . S
C798 C807 1.390 1_665 S
C799 C798 1.387 . S
C799 C801 1.387 . S
H800 C807 0.950 . S
C801 C799 1.387 . S
C801 C803 1.390 1_665 S
C801 H805 0.950 . S
H802 C798 0.950 . S
C803 C801 1.390 1_445 S
C803 C804 1.387 . S
C803 H806 0.950 . S
C804 C803 1.387 . S
C804 C807 1.387 . S
H805 C801 0.950 . S
H806 C803 0.950 . S
C807 C798 1.390 1_445 S
C807 H800 0.950 . S
C807 C804 1.387 . S
C808 C809 1.387 . S
C808 H812 0.950 . S
C808 C817 1.390 1_545 S
C809 C808 1.387 . S
C809 C811 1.387 . S
H810 C817 0.950 . S
C811 C809 1.387 . S
C811 C813 1.390 1_545 S
C811 H815 0.950 . S
H812 C808 0.950 . S
C813 C811 1.390 1_565 S
C813 C814 1.387 . S
C813 H816 0.950 . S
C814 C813 1.387 . S
C814 C817 1.387 . S
H815 C811 0.950 . S
H816 C813 0.950 . S
C817 C808 1.390 1_565 S
C817 H810 0.950 . S
C817 C814 1.387 . S
C818 C819 1.387 . S
C818 H822 0.950 . S
C818 C827 1.390 1_655 S
C819 C818 1.387 . S
C819 C821 1.387 . S
H820 C827 0.950 . S
C821 C819 1.387 . S
C821 C823 1.390 1_655 S
C821 H825 0.950 . S
H822 C818 0.950 . S
C823 C821 1.390 1_455 S
C823 C824 1.387 . S
C823 H826 0.950 . S
C824 C823 1.387 . S
C824 C827 1.387 . S
H825 C821 0.950 . S
H826 C823 0.950 . S
C827 C818 1.390 1_455 S
C827 H820 0.950 . S
C827 C824 1.387 . S
C828 C829 1.387 . S
C828 H832 0.950 . S
C828 C837 1.390 . S
C829 C828 1.387 . S
C829 C831 1.387 . S
H830 C837 0.950 . S
C831 C829 1.387 . S
C831 C833 1.390 . S
C831 H835 0.950 . S
H832 C828 0.950 . S
C833 C831 1.390 . S
C833 C834 1.387 . S
C833 H836 0.950 . S
C834 C833 1.387 . S
C834 C837 1.387 . S
H835 C831 0.950 . S
H836 C833 0.950 . S
C837 C828 1.390 . S
C837 H830 0.950 . S
C837 C834 1.387 . S
C838 C839 1.387 . S
C838 H842 0.950 . S
C838 C847 1.390 . S
C839 C838 1.387 . S
C839 C841 1.387 . S
H840 C847 0.950 . S
C841 C839 1.387 . S
C841 C843 1.390 . S
C841 H845 0.950 . S
H842 C838 0.950 . S
C843 C841 1.390 . S
C843 C844 1.387 . S
C843 H846 0.950 . S
C844 C843 1.387 . S
C844 C847 1.387 . S
H845 C841 0.950 . S
H846 C843 0.950 . S
C847 C838 1.390 . S
C847 H840 0.950 . S
C847 C844 1.387 . S
C848 C849 1.387 . S
C848 H852 0.950 . S
C848 C857 1.390 . S
C849 C848 1.387 . S
C849 C851 1.387 . S
H850 C857 0.950 . S
C851 C849 1.387 . S
C851 C853 1.390 . S
C851 H855 0.950 . S
H852 C848 0.950 . S
C853 C851 1.390 . S
C853 C854 1.387 . S
C853 H856 0.950 . S
C854 C853 1.387 . S
C854 C857 1.387 . S
H855 C851 0.950 . S
H856 C853 0.950 . S
C857 C848 1.390 . S
C857 H850 0.950 . S
C857 C854 1.387 . S
C858 C859 1.387 . S
C858 H862 0.950 . S
C858 C867 1.390 . S
C859 C858 1.387 . S
C859 C861 1.387 . S
H860 C867 0.950 . S
C861 C859 1.387 . S
C861 C863 1.390 . S
C861 H865 0.950 . S
H862 C858 0.950 . S
C863 C861 1.390 . S
C863 C864 1.387 . S
C863 H866 0.950 . S
C864 C863 1.387 . S
C864 C867 1.387 . S
H865 C861 0.950 . S
H866 C863 0.950 . S
C867 C858 1.390 . S
C867 H860 0.950 . S
C867 C864 1.387 . S
C868 C869 1.387 . S
C868 H872 0.950 . S
C868 C877 1.390 . S
C869 C868 1.387 . S
C869 C871 1.387 . S
H870 C877 0.950 . S
C871 C869 1.387 . S
C871 C873 1.390 . S
C871 H875 0.950 . S
H872 C868 0.950 . S
C873 C871 1.390 . S
C873 C874 1.387 . S
C873 H876 0.950 . S
C874 C873 1.387 . S
C874 C877 1.387 . S
H875 C871 0.950 . S
H876 C873 0.950 . S
C877 C868 1.390 . S
C877 H870 0.950 . S
C877 C874 1.387 . S
C878 C879 1.387 . S
C878 H882 0.950 . S
C878 C887 1.390 . S
C879 C878 1.387 . S
C879 C881 1.387 . S
H880 C887 0.950 . S
C881 C879 1.387 . S
C881 C883 1.390 . S
C881 H885 0.950 . S
H882 C878 0.950 . S
C883 C881 1.390 . S
C883 C884 1.387 . S
C883 H886 0.950 . S
C884 C883 1.387 . S
C884 C887 1.387 . S
H885 C881 0.950 . S
H886 C883 0.950 . S
C887 C878 1.390 . S
C887 H880 0.950 . S
C887 C884 1.387 . S
C888 C889 1.387 . S
C888 H892 0.950 . S
C888 C897 1.390 . S
C889 C888 1.387 . S
C889 C891 1.387 . S
H890 C897 0.950 . S
C891 C889 1.387 . S
C891 C893 1.390 . S
C891 H895 0.950 . S
H892 C888 0.950 . S
C893 C891 1.390 . S
C893 C894 1.387 . S
C893 H896 0.950 . S
C894 C893 1.387 . S
C894 C897 1.387 . S
H895 C891 0.950 . S
H896 C893 0.950 . S
C897 C888 1.390 . S
C897 H890 0.950 . S
C897 C894 1.387 . S
C898 C899 1.387 . S
C898 H902 0.950 . S
C898 C907 1.390 . S
C899 C898 1.387 . S
C899 C901 1.387 . S
H900 C907 0.950 . S
C901 C899 1.387 . S
C901 C903 1.390 . S
C901 H905 0.950 . S
H902 C898 0.950 . S
C903 C901 1.390 . S
C903 C904 1.387 . S
C903 H906 0.950 . S
C904 C903 1.387 . S
C904 C907 1.387 . S
H905 C901 0.950 . S
H906 C903 0.950 . S
C907 C898 1.390 . S
C907 H900 0.950 . S
C907 C904 1.387 . S
C908 C909 1.387 . S
C908 H912 0.950 . S
C908 C917 1.390 . S
C909 C908 1.387 . S
C909 C911 1.387 . S
H910 C917 0.950 . S
C911 C909 1.387 . S
C911 C913 1.390 . S
C911 H915 0.950 . S
H912 C908 0.950 . S
C913 C911 1.390 . S
C913 C914 1.387 . S
C913 H916 0.950 . S
C914 C913 1.387 . S
C914 C917 1.387 . S
H915 C911 0.950 . S
H916 C913 0.950 . S
C917 C908 1.390 . S
C917 H910 0.950 . S
C917 C914 1.387 . S
C918 C919 1.387 . S
C918 H922 0.950 . S
C918 C927 1.390 . S
C919 C918 1.387 . S
C919 C921 1.387 . S
H920 C927 0.950 . S
C921 C919 1.387 . S
C921 C923 1.390 . S
C921 H925 0.950 . S
H922 C918 0.950 . S
C923 C921 1.390 . S
C923 C924 1.387 . S
C923 H926 0.950 . S
C924 C923 1.387 . S
C924 C927 1.387 . S
H925 C921 0.950 . S
H926 C923 0.950 . S
C927 C918 1.390 . S
C927 H920 0.950 . S
C927 C924 1.387 . S
C529 C8 1.175 . S
C534 N377 1.186 . S
C539 N278 1.185 . S
C544 C41 1.177 . S
C549 N311 1.186 . S
C554 C74 1.175 . S
C559 N344 1.186 . S
C564 C107 1.175 . S
C569 N179 1.186 . S
C574 C140 1.175 . S
C579 N212 1.186 . S
C584 C173 1.176 . S
C589 C206 1.175 . S
C594 N245 1.186 . S
C599 C239 1.175 . S
C604 N146 1.186 . S
C609 C272 1.175 . S
C614 N113 1.186 . S
C619 C305 1.175 . S
C624 N14 1.186 . S
C629 N47 1.186 . S
C634 C338 1.175 . S
C639 C371 1.176 . S
C644 N80 1.185 . S
C649 N443 1.187 . S
C654 C404 1.175 . S
C659 N476 1.186 . S
C664 C437 1.175 . S
C669 N509 1.185 . S
C674 C470 1.177 . S
C679 C503 1.177 . S
C684 N410 1.186 . S
C689 C17 1.602 . S
C694 C83 1.602 . S
C699 C50 1.602 . S
C704 C116 1.602 . S
C709 C215 1.602 . S
C714 C149 1.602 . S
C719 C248 1.602 . S
C724 C182 1.602 . S
C729 C347 1.602 . S
C734 C281 1.602 . S
C739 C314 1.599 . S
C744 C380 1.599 . S
C749 C413 1.599 . S
C754 C479 1.599 . S
C759 C512 1.602 . S
C764 C446 1.602 . S
C769 C94 0.994 . S
C774 C28 0.994 . S
C779 C61 0.999 . S
C784 C127 0.999 . S
C789 C160 0.994 . S
C794 C226 0.994 . S
C799 C259 0.994 . S
C804 C193 0.994 . S
C809 C358 0.994 . S
C814 C292 0.994 . S
C819 C325 0.999 . S
C824 C391 0.999 . S
C829 C424 0.999 . S
C834 C490 0.999 . S
C839 C523 0.999 . S
C844 C457 0.999 . S
C849 N467 1.482 . S
C854 N5 1.482 . S
C859 N38 1.482 . S
C864 N500 1.482 . S
C869 N71 1.482 . S
C874 N401 1.482 . S
C879 N104 1.482 . S
C884 N434 1.482 . S
C889 N137 1.479 . S
C894 N335 1.479 . S
C899 N368 1.482 . S
C904 N170 1.482 . S
C909 N203 1.479 . S
C914 N269 1.479 . S
C919 N236 1.482 . S
C924 N302 1.482 . S
