# Generated by pormake.
# Topology tfs, (6)-cn, num edge types: 1
# Building blocks:
#     Node 0, Type 0, BuildingBlock: CUWYAW_clean_sbu_0, # of connection points: 6
#     Node 1, Type 0, BuildingBlock: CUWYAW_clean_sbu_0, # of connection points: 6
#     Node 2, Type 0, BuildingBlock: CUWYAW_clean_sbu_0, # of connection points: 6
#     Node 3, Type 0, BuildingBlock: CUWYAW_clean_sbu_0, # of connection points: 6
#     Node 4, Type 0, BuildingBlock: CUWYAW_clean_sbu_0, # of connection points: 6
#     Node 5, Type 0, BuildingBlock: CUWYAW_clean_sbu_0, # of connection points: 6
#     Edge 6, Type (0, 0), BuildingBlock: CIFDUS_clean_linker_0, # of connection points: 2
#     Edge 7, Type (0, 0), BuildingBlock: CIFDUS_clean_linker_0, # of connection points: 2
#     Edge 8, Type (0, 0), BuildingBlock: CIFDUS_clean_linker_0, # of connection points: 2
#     Edge 9, Type (0, 0), BuildingBlock: CIFDUS_clean_linker_0, # of connection points: 2
#     Edge 10, Type (0, 0), BuildingBlock: CIFDUS_clean_linker_0, # of connection points: 2
#     Edge 11, Type (0, 0), BuildingBlock: CIFDUS_clean_linker_0, # of connection points: 2
#     Edge 12, Type (0, 0), BuildingBlock: CIFDUS_clean_linker_0, # of connection points: 2
#     Edge 13, Type (0, 0), BuildingBlock: CIFDUS_clean_linker_0, # of connection points: 2
#     Edge 14, Type (0, 0), BuildingBlock: CIFDUS_clean_linker_0, # of connection points: 2
#     Edge 15, Type (0, 0), BuildingBlock: CIFDUS_clean_linker_0, # of connection points: 2
#     Edge 16, Type (0, 0), BuildingBlock: CIFDUS_clean_linker_0, # of connection points: 2
#     Edge 17, Type (0, 0), BuildingBlock: CIFDUS_clean_linker_0, # of connection points: 2
#     Edge 18, Type (0, 0), BuildingBlock: CIFDUS_clean_linker_0, # of connection points: 2
#     Edge 19, Type (0, 0), BuildingBlock: CIFDUS_clean_linker_0, # of connection points: 2
#     Edge 20, Type (0, 0), BuildingBlock: CIFDUS_clean_linker_0, # of connection points: 2
#     Edge 21, Type (0, 0), BuildingBlock: CIFDUS_clean_linker_0, # of connection points: 2
#     Edge 22, Type (0, 0), BuildingBlock: CIFDUS_clean_linker_0, # of connection points: 2
#     Edge 23, Type (0, 0), BuildingBlock: CIFDUS_clean_linker_0, # of connection points: 2
# Relax obj value: 0.549
# Max RMSD: 0.291
# Mean RMSD: 0.291
data_MOF--net-tfs--node1-CUWYAW_clean_sbu_0--edge1-CIFDUS_clean_linker_0
_symmetry_space_group_name_H-M    P1
_symmetry_Int_Tables_number       1
_symmetry_cell_setting            triclinic
loop_
_symmetry_equiv_pos_as_xyz
'x, y, z'
_cell_length_a     50.292803
_cell_length_b     50.399916
_cell_length_c     12.684295
_cell_angle_alpha  89.955906
_cell_angle_beta   90.037025
_cell_angle_gamma 120.07966
loop_
_atom_site_label
_atom_site_type_symbol
_atom_site_fract_x
_atom_site_fract_y
_atom_site_fract_z
_atom_type_partial_charge
C0 C 0.1956 0.35198 0.98617 0.0
Eu1 Eu 0.18927 0.3987 0.03688 0.0
C2 C 0.22019 0.34412 0.99182 0.0
C3 C 0.25112 0.36639 0.97551 0.0
C4 C 0.27413 0.35858 0.9829 0.0
C5 C 0.2668 0.32839 1.00777 0.0
C6 C 0.23573 0.30621 0.02427 0.0
C7 C 0.21272 0.31402 0.01621 0.0
C8 C 0.18744 0.41607 0.23727 0.0
C9 C 0.11909 0.38534 0.0389 0.0
C10 C 0.17276 0.49928 0.11632 0.0
Eu11 Eu 0.17662 0.45161 0.05918 0.0
C12 C 0.18688 0.53258 0.09476 0.0
C13 C 0.17934 0.54325 1.00333 0.0
C14 C 0.19056 0.5746 0.98841 0.0
C15 C 0.20953 0.59604 0.06452 0.0
C16 C 0.21761 0.58541 0.15481 0.0
C17 C 0.2063 0.55404 0.16992 0.0
C18 C 0.18032 0.43608 0.85737 0.0
C19 C 0.24786 0.46573 0.05954 0.0
O20 O 0.18433 0.35425 0.07635 0.0
O21 O 0.19953 0.37352 0.91954 0.0
O22 O 0.2064 0.40737 0.20553 0.0
O23 O 0.16956 0.41385 0.16405 0.0
O24 O 0.13825 0.37748 0.99661 0.0
O25 O 0.12963 0.4116 0.08927 0.0
O26 O 0.1893 0.48995 0.16707 0.0
O27 O 0.15605 0.48036 0.04153 0.0
O28 O 0.16241 0.4462 0.88734 0.0
O29 O 0.19699 0.43705 0.93272 0.0
O30 O 0.22846 0.47563 0.07972 0.0
O31 O 0.23833 0.43706 0.03193 0.0
H32 H 0.25752 0.38985 0.95714 0.0
H33 H 0.29768 0.37621 0.96814 0.0
H34 H 0.22919 0.28289 0.04518 0.0
H35 H 0.18902 0.29654 0.02991 0.0
H36 H 0.16432 0.5274 0.94391 0.0
H37 H 0.18421 0.58204 0.91741 0.0
H38 H 0.23187 0.60126 0.21559 0.0
H39 H 0.2122 0.54651 0.24174 0.0
C40 C 0.8447 0.20086 0.90135 0.0
Eu41 Eu 0.79047 0.18968 0.96258 0.0
C42 C 0.87779 0.22289 0.9131 0.0
C43 C 0.89032 0.23795 0.00891 0.0
C44 C 0.92216 0.25698 0.01971 0.0
C45 C 0.94202 0.26132 0.93487 0.0
C46 C 0.92918 0.24665 0.8385 0.0
C47 C 0.89741 0.22763 0.8279 0.0
C48 C 0.77167 0.18331 0.16579 0.0
C49 C 0.741 0.11702 0.95927 0.0
C50 C 0.66787 0.15459 0.0473 0.0
Eu51 Eu 0.7226 0.16679 0.99017 0.0
C52 C 0.64593 0.16504 0.02077 0.0
C53 C 0.63084 0.1582 0.92263 0.0
C54 C 0.60938 0.16733 0.90033 0.0
C55 C 0.6026 0.18357 0.97539 0.0
C56 C 0.61788 0.19063 0.07309 0.0
C57 C 0.63921 0.18135 0.09564 0.0
C58 C 0.74169 0.17501 0.78603 0.0
C59 C 0.77198 0.24057 1.00505 0.0
O60 O 0.83033 0.18416 0.98365 0.0
O61 O 0.82826 0.20992 0.84893 0.0
O62 O 0.79823 0.20506 0.1334 0.0
O63 O 0.75723 0.16504 0.09178 0.0
O64 O 0.7655 0.13929 0.91193 0.0
O65 O 0.72348 0.12351 0.01814 0.0
O66 O 0.6929 0.174 0.09767 0.0
O67 O 0.67297 0.13916 0.9751 0.0
O68 O 0.71493 0.1536 0.81689 0.0
O69 O 0.75598 0.19227 0.86209 0.0
O70 O 0.74402 0.21752 0.02427 0.0
O71 O 0.79421 0.23613 0.96995 0.0
H72 H 0.87559 0.2346 0.07584 0.0
H73 H 0.93125 0.2677 0.0953 0.0
H74 H 0.94368 0.24989 0.77099 0.0
H75 H 0.88817 0.21623 0.75327 0.0
H76 H 0.63543 0.14563 0.86305 0.0
H77 H 0.59816 0.16178 0.82408 0.0
H78 H 0.61283 0.20274 0.13313 0.0
H79 H 0.65027 0.18668 0.17218 0.0
C80 C 0.64637 0.8406 0.92084 0.0
Eu81 Eu 0.60323 0.7863 0.98089 0.0
C82 C 0.65473 0.87294 0.93012 0.0
C83 C 0.6323 0.8815 0.94134 0.0
C84 C 0.64099 0.91246 0.95116 0.0
C85 C 0.67226 0.93537 0.95066 0.0
C86 C 0.69457 0.92653 0.93947 0.0
C87 C 0.68585 0.89561 0.92918 0.0
C88 C 0.58746 0.77293 0.18818 0.0
C89 C 0.63031 0.74052 1.00459 0.0
C90 C 0.51886 0.66749 0.08521 0.0
Eu91 Eu 0.5613 0.72118 0.01797 0.0
C92 C 0.48518 0.64692 0.07839 0.0
C93 C 0.47311 0.62065 0.01457 0.0
C94 C 0.44148 0.60019 0.01095 0.0
C95 C 0.42116 0.60534 0.07203 0.0
C96 C 0.43326 0.63176 0.13548 0.0
C97 C 0.46491 0.65232 0.13866 0.0
C98 C 0.57637 0.73445 0.80987 0.0
C99 C 0.53291 0.76686 0.99124 0.0
O100 O 0.64773 0.82732 1.00744 0.0
O101 O 0.62228 0.82282 0.86354 0.0
O102 O 0.58995 0.7967 0.13951 0.0
O103 O 0.59411 0.75743 0.12619 0.0
O104 O 0.63227 0.76398 0.95159 0.0
O105 O 0.60522 0.72235 0.05768 0.0
O106 O 0.529 0.69277 0.13979 0.0
O107 O 0.53468 0.67152 0.99907 0.0
O108 O 0.57345 0.71044 0.85785 0.0
O109 O 0.57018 0.75011 0.87267 0.0
O110 O 0.52847 0.73978 0.02057 0.0
O111 O 0.56029 0.78909 0.96249 0.0
H112 H 0.60812 0.86429 0.94261 0.0
H113 H 0.62319 0.91845 0.95839 0.0
H114 H 0.71883 0.94344 0.94054 0.0
H115 H 0.70348 0.88937 0.92124 0.0
H116 H 0.48818 0.61577 0.96783 0.0
H117 H 0.43295 0.58035 0.95996 0.0
H118 H 0.41836 0.63625 0.18466 0.0
H119 H 0.47344 0.6722 0.18947 0.0
C120 C 0.82043 0.65558 0.98186 0.0
Eu121 Eu 0.82703 0.60942 0.03738 0.0
C122 C 0.7963 0.66381 0.99356 0.0
C123 C 0.77727 0.65481 0.08287 0.0
C124 C 0.75413 0.66235 0.09204 0.0
C125 C 0.74931 0.67876 0.01156 0.0
C126 C 0.76844 0.68761 0.92206 0.0
C127 C 0.79173 0.68024 0.91336 0.0
C128 C 0.82932 0.59311 0.23927 0.0
C129 C 0.89687 0.62298 0.0376 0.0
C130 C 0.84561 0.5105 0.12315 0.0
Eu131 Eu 0.83948 0.5566 0.06274 0.0
C132 C 0.83572 0.47837 0.09641 0.0
C133 C 0.8389 0.46984 0.99368 0.0
C134 C 0.83268 0.44002 0.97282 0.0
C135 C 0.82296 0.41811 0.05399 0.0
C136 C 0.8189 0.42647 0.15593 0.0
C137 C 0.82534 0.45634 0.17692 0.0
C138 C 0.83502 0.57084 0.85946 0.0
C139 C 0.76825 0.54277 0.06854 0.0
O140 O 0.83446 0.65513 0.06821 0.0
O141 O 0.81386 0.63237 0.91977 0.0
O142 O 0.81064 0.60213 0.2071 0.0
O143 O 0.84689 0.59476 0.16585 0.0
O144 O 0.87758 0.63026 0.99309 0.0
O145 O 0.88638 0.59726 0.09142 0.0
O146 O 0.82518 0.51639 0.16382 0.0
O147 O 0.86399 0.53148 0.0564 0.0
O148 O 0.8526 0.56037 0.88981 0.0
O149 O 0.81883 0.57056 0.9352 0.0
O150 O 0.78753 0.53256 0.08736 0.0
O151 O 0.77794 0.57135 0.03927 0.0
H152 H 0.78024 0.6419 0.14555 0.0
H153 H 0.74015 0.65547 0.16265 0.0
H154 H 0.76511 0.69977 0.85769 0.0
H155 H 0.80601 0.68715 0.84341 0.0
H156 H 0.84679 0.48634 0.92985 0.0
H157 H 0.8356 0.43412 0.89323 0.0
H158 H 0.81168 0.41017 0.2203 0.0
H159 H 0.82296 0.46247 0.25682 0.0
C160 C 0.17081 0.81464 0.93126 0.0
Eu161 Eu 0.22366 0.82141 0.99071 0.0
C162 C 0.13764 0.79223 0.93829 0.0
C163 C 0.12469 0.77426 0.02887 0.0
C164 C 0.09291 0.75431 0.03544 0.0
C165 C 0.07344 0.75182 0.95139 0.0
C166 C 0.08671 0.76949 0.86013 0.0
C167 C 0.11844 0.7895 0.85385 0.0
C168 C 0.23595 0.81616 0.19727 0.0
C169 C 0.27417 0.89204 0.02618 0.0
C170 C 0.34061 0.84644 0.08909 0.0
Eu171 Eu 0.2875 0.83822 0.02614 0.0
C172 C 0.36432 0.83854 0.06263 0.0
C173 C 0.39509 0.85997 0.08444 0.0
C174 C 0.41831 0.85332 0.06204 0.0
C175 C 0.41126 0.82501 0.0172 0.0
C176 C 0.3803 0.80354 0.99485 0.0
C177 C 0.357 0.81028 0.01713 0.0
C178 C 0.27499 0.84203 0.81793 0.0
C179 C 0.23626 0.76575 0.99875 0.0
O180 O 0.18479 0.82823 0.01859 0.0
O181 O 0.18738 0.80724 0.87219 0.0
O182 O 0.21105 0.79686 0.14825 0.0
O183 O 0.25312 0.83794 0.13627 0.0
O184 O 0.25073 0.8733 0.96635 0.0
O185 O 0.28881 0.88112 0.08061 0.0
O186 O 0.31422 0.82453 0.12437 0.0
O187 O 0.33759 0.86487 0.02418 0.0
O188 O 0.30021 0.86102 0.86539 0.0
O189 O 0.25789 0.82091 0.8809 0.0
O190 O 0.26428 0.78628 0.02924 0.0
O191 O 0.21617 0.7739 0.97 0.0
H192 H 0.13908 0.77594 0.09508 0.0
H193 H 0.08353 0.74133 0.10734 0.0
H194 H 0.07258 0.76781 0.79314 0.0
H195 H 0.12799 0.80308 0.7831 0.0
H196 H 0.40117 0.88187 0.11975 0.0
H197 H 0.44177 0.87018 0.08188 0.0
H198 H 0.37412 0.78165 0.95946 0.0
H199 H 0.33337 0.79346 0.99911 0.0
C200 C 0.38611 0.16499 0.9005 0.0
Eu201 Eu 0.41437 0.22217 0.96204 0.0
C202 C 0.36205 0.13296 0.92106 0.0
C203 C 0.35699 0.12013 0.02253 0.0
C204 C 0.33851 0.08839 0.03652 0.0
C205 C 0.32482 0.06887 0.94934 0.0
C206 C 0.3286 0.08212 0.84878 0.0
C207 C 0.34704 0.11381 0.83493 0.0
C208 C 0.42667 0.24175 0.16411 0.0
C209 C 0.38439 0.26459 0.99286 0.0
C210 C 0.4939 0.34819 0.04283 0.0
Eu211 Eu 0.45873 0.29121 0.98672 0.0
C212 C 0.52733 0.36905 0.05587 0.0
C213 C 0.54131 0.39793 1.00735 0.0
C214 C 0.57309 0.4176 0.01428 0.0
C215 C 0.59167 0.40895 0.07076 0.0
C216 C 0.57748 0.38001 0.12021 0.0
C217 C 0.54569 0.36022 0.11247 0.0
C218 C 0.44678 0.27048 0.78489 0.0
C219 C 0.4883 0.24996 0.95144 0.0
O220 O 0.37811 0.18471 0.86884 0.0
O221 O 0.40981 0.17706 0.96372 0.0
O222 O 0.40035 0.21918 0.13348 0.0
O223 O 0.44561 0.25104 0.08917 0.0
O224 O 0.37942 0.23766 0.95867 0.0
O225 O 0.41225 0.28698 0.0187 0.0
O226 O 0.48017 0.32562 0.11035 0.0
O227 O 0.48438 0.3398 0.94614 0.0
O228 O 0.47346 0.29211 0.81658 0.0
O229 O 0.42769 0.26207 0.85907 0.0
O230 O 0.49219 0.27457 1.00117 0.0
O231 O 0.46131 0.22997 0.91075 0.0
H232 H 0.36833 0.13444 0.09035 0.0
H233 H 0.33568 0.07903 0.11528 0.0
H234 H 0.31873 0.06788 0.77969 0.0
H235 H 0.35086 0.12318 0.75586 0.0
H236 H 0.52767 0.40513 0.96255 0.0
H237 H 0.58312 0.43937 0.97334 0.0
H238 H 0.5909 0.37265 0.16542 0.0
H239 H 0.53556 0.33796 0.15021 0.0
H240 H 0.38496 0.31564 0.06735 0.0
H241 H 0.32527 0.22758 0.92441 0.0
H242 H 0.2837 0.23928 0.91784 0.0
H243 H 0.26493 0.27542 0.94528 0.0
H244 H 0.32439 0.3629 0.09235 0.0
H245 H 0.36543 0.35062 0.10273 0.0
C246 C 0.36283 0.29887 0.0352 0.0
C247 C 0.35842 0.27078 0.99608 0.0
C248 C 0.33899 0.30577 0.03122 0.0
C249 C 0.32945 0.24937 0.95521 0.0
C250 C 0.30562 0.25609 0.95106 0.0
C251 C 0.28669 0.29168 0.98095 0.0
C252 C 0.29146 0.32021 0.01707 0.0
C253 C 0.31022 0.28434 0.98789 0.0
C254 C 0.32011 0.34105 0.06174 0.0
C255 C 0.34359 0.33395 0.06854 0.0
H256 H 0.08764 0.3298 0.939 0.0
H257 H 0.07436 0.39464 0.12103 0.0
H258 H 0.01892 0.36214 0.10583 0.0
H259 H 0.97396 0.31594 0.038 0.0
H260 H 0.98662 0.25042 0.85841 0.0
H261 H 0.0423 0.28268 0.87453 0.0
C262 C 0.07263 0.33678 0.97561 0.0
C263 C 0.08532 0.36471 0.03092 0.0
C264 C 0.04053 0.31794 0.9665 0.0
C265 C 0.0654 0.37333 0.07779 0.0
C266 C 0.03358 0.35474 0.06917 0.0
C267 C 0.98885 0.30851 1.00335 0.0
C268 C 0.976 0.2808 0.94675 0.0
C269 C 0.02088 0.32706 0.01344 0.0
C270 C 0.9958 0.27185 0.90104 0.0
C271 C 0.02769 0.2902 0.91076 0.0
H272 H 0.6954 0.06754 0.05907 0.0
H273 H 0.76782 0.09344 0.83024 0.0
H274 H 0.75285 0.03952 0.80689 0.0
H275 H 0.71853 0.98498 0.84952 0.0
H276 H 0.64716 0.95986 0.08221 0.0
H277 H 0.66212 0.0136 0.1044 0.0
C278 C 0.70799 0.0615 1.004 0.0
C279 C 0.73268 0.08455 0.94632 0.0
C280 C 0.69928 0.03055 0.99105 0.0
C281 C 0.74875 0.07619 0.87575 0.0
C282 C 0.74016 0.04535 0.86222 0.0
C283 C 0.70643 0.99126 0.90586 0.0
C284 C 0.68161 0.96827 0.96368 0.0
C285 C 0.7154 0.02233 0.91931 0.0
C286 C 0.66595 0.9769 0.03521 0.0
C287 C 0.67464 0.00769 0.04861 0.0
H288 H 0.75032 0.73131 0.95056 0.0
H289 H 0.69143 0.64273 0.09175 0.0
H290 H 0.65014 0.65455 0.10599 0.0
H291 H 0.63015 0.68939 0.07463 0.0
H292 H 0.68811 0.77698 0.92598 0.0
H293 H 0.7301 0.76592 0.91698 0.0
C294 C 0.72837 0.71442 0.98349 0.0
C295 C 0.72417 0.68618 0.02022 0.0
C296 C 0.70445 0.72113 0.98985 0.0
C297 C 0.69563 0.66487 0.06438 0.0
C298 C 0.67186 0.6715 0.07188 0.0
C299 C 0.65199 0.70614 0.04059 0.0
C300 C 0.65593 0.73399 1.00113 0.0
C301 C 0.67597 0.69951 0.03464 0.0
C302 C 0.68437 0.75532 0.95675 0.0
C303 C 0.70844 0.74903 0.95161 0.0
H304 H 0.04212 0.69461 0.03868 0.0
H305 H 0.02811 0.76263 0.88152 0.0
H306 H 0.97255 0.72886 0.89232 0.0
H307 H 0.92768 0.68003 0.94778 0.0
H308 H 0.94213 0.61285 0.10942 0.0
H309 H 0.99753 0.64645 0.0968 0.0
C310 C 0.02697 0.70225 1.00774 0.0
C311 C 0.03947 0.73118 0.95907 0.0
C312 C 0.99497 0.68284 0.01519 0.0
C313 C 0.01929 0.74033 0.91793 0.0
C314 C 0.98743 0.72109 0.92469 0.0
C315 C 0.94293 0.67273 0.98025 0.0
C316 C 0.9306 0.64389 0.02947 0.0
C317 C 0.97498 0.69227 0.9731 0.0
C318 C 0.95083 0.6349 0.07122 0.0
C319 C 0.98262 0.65411 0.06401 0.0
H320 H 0.25155 0.92378 0.91906 0.0
H321 H 0.3215 0.93553 0.14235 0.0
H322 H 0.34193 0.99068 0.14293 0.0
H323 H 0.34211 0.03596 0.07288 0.0
H324 H 0.27238 0.02509 0.85054 0.0
H325 H 0.24989 0.9694 0.85659 0.0
C326 C 0.27112 0.93838 0.96837 0.0
C327 C 0.28502 0.92539 0.03001 0.0
C328 C 0.28297 0.97034 0.9682 0.0
C329 C 0.31036 0.94475 0.09362 0.0
C330 C 0.32212 0.9764 0.09411 0.0
C331 C 0.3216 0.02146 0.02733 0.0
C332 C 0.30905 0.03485 0.96124 0.0
C333 C 0.30886 0.98948 0.03087 0.0
C334 C 0.28279 0.01552 0.90123 0.0
C335 C 0.26985 0.98362 0.90482 0.0
H336 H 0.27122 0.7405 0.05369 0.0
H337 H 0.1805 0.71667 0.94519 0.0
H338 H 0.16468 0.66235 0.95282 0.0
H339 H 0.17591 0.62148 0.99647 0.0
H340 H 0.26651 0.6452 0.10501 0.0
H341 H 0.28293 0.69967 0.09191 0.0
C342 C 0.248 0.72348 0.03127 0.0
C343 C 0.22709 0.73279 0.99918 0.0
C344 C 0.23895 0.69221 0.03639 0.0
C345 C 0.19712 0.71029 0.97031 0.0
C346 C 0.18801 0.67915 0.97474 0.0
C347 C 0.19938 0.63855 0.0159 0.0
C348 C 0.21992 0.62921 0.05183 0.0
C349 C 0.20865 0.66984 0.00836 0.0
C350 C 0.2501 0.65171 0.07836 0.0
C351 C 0.25955 0.68287 0.07048 0.0
H352 H 0.48721 0.19819 0.88208 0.0
H353 H 0.54735 0.28747 0.01636 0.0
H354 H 0.58834 0.27527 0.03115 0.0
H355 H 0.60629 0.23828 0.01583 0.0
H356 H 0.54609 0.14867 0.88519 0.0
H357 H 0.50618 0.16213 0.85801 0.0
C358 C 0.50939 0.21513 0.9134 0.0
C359 C 0.51404 0.24362 0.94864 0.0
C360 C 0.53287 0.20787 0.9229 0.0
C361 C 0.54298 0.26528 0.98907 0.0
C362 C 0.56649 0.25832 0.99785 0.0
C363 C 0.58441 0.2217 0.98153 0.0
C364 C 0.57911 0.19247 0.95327 0.0
C365 C 0.5615 0.22949 0.9669 0.0
C366 C 0.55085 0.17141 0.90704 0.0
C367 C 0.52795 0.17903 0.89197 0.0
H368 H 0.39279 0.54292 0.06738 0.0
H369 H 0.37384 0.61751 0.07414 0.0
H370 H 0.31875 0.58093 0.07482 0.0
H371 H 0.27599 0.5279 0.07077 0.0
H372 H 0.2949 0.45332 0.0561 0.0
H373 H 0.35002 0.48988 0.0596 0.0
C374 C 0.37666 0.55124 0.06768 0.0
C375 C 0.38756 0.58299 0.07081 0.0
C376 C 0.34499 0.53009 0.06653 0.0
C377 C 0.36619 0.59324 0.07326 0.0
C378 C 0.33465 0.57233 0.073 0.0
C379 C 0.29213 0.51958 0.06876 0.0
C380 C 0.28127 0.48788 0.06344 0.0
C381 C 0.3238 0.54072 0.06965 0.0
C382 C 0.30258 0.47759 0.06003 0.0
C383 C 0.33413 0.49848 0.06208 0.0
H384 H 0.77514 0.3639 0.12021 0.0
H385 H 0.85925 0.40225 0.94125 0.0
H386 H 0.85138 0.35086 0.91099 0.0
H387 H 0.82062 0.29482 0.93696 0.0
H388 H 0.73615 0.25712 0.11476 0.0
H389 H 0.74436 0.30834 0.14464 0.0
C390 C 0.79183 0.36101 0.07509 0.0
C391 C 0.81774 0.38684 0.03325 0.0
C392 C 0.78716 0.33146 0.058 0.0
C393 C 0.83893 0.38269 0.97347 0.0
C394 C 0.83454 0.35333 0.95667 0.0
C395 C 0.8041 0.29785 0.98254 0.0
C396 C 0.77785 0.27209 0.02353 0.0
C397 C 0.80876 0.32751 0.99881 0.0
C398 C 0.75653 0.27645 0.0818 0.0
C399 C 0.76118 0.30578 0.09916 0.0
H400 H 0.41051 0.77129 0.05372 0.0
H401 H 0.46833 0.863 0.93473 0.0
H402 H 0.51077 0.853 0.91378 0.0
H403 H 0.53216 0.81888 0.93548 0.0
H404 H 0.47403 0.72697 0.05337 0.0
H405 H 0.4311 0.73632 0.06689 0.0
C406 C 0.43223 0.78894 0.02165 0.0
C407 C 0.43621 0.81793 0.99661 0.0
C408 C 0.45661 0.78306 0.00984 0.0
C409 C 0.46472 0.84064 0.95633 0.0
C410 C 0.489 0.83491 0.94389 0.0
C411 C 0.51007 0.80082 0.9636 0.0
C412 C 0.50651 0.77232 0.99374 0.0
C413 C 0.48535 0.80633 0.97165 0.0
C414 C 0.4776 0.74919 0.02975 0.0
C415 C 0.45295 0.75449 0.03767 0.0
H416 H 0.73749 0.48006 0.07151 0.0
H417 H 0.72329 0.55769 0.08336 0.0
H418 H 0.66785 0.52332 0.08938 0.0
H419 H 0.62328 0.47142 0.08782 0.0
H420 H 0.63695 0.39359 0.06551 0.0
H421 H 0.69251 0.42778 0.06945 0.0
C422 C 0.72228 0.48945 0.07611 0.0
C423 C 0.73463 0.52146 0.07675 0.0
C424 C 0.69023 0.4695 0.078 0.0
C425 C 0.7145 0.53318 0.08207 0.0
C426 C 0.68273 0.51353 0.08567 0.0
C427 C 0.63832 0.46184 0.08276 0.0
C428 C 0.62569 0.42984 0.07619 0.0
C429 C 0.67032 0.48167 0.08266 0.0
C430 C 0.6458 0.41802 0.07214 0.0
C431 C 0.67768 0.43761 0.07354 0.0
H432 H 0.15014 0.43964 0.68653 0.0
H433 H 0.22243 0.42218 0.7801 0.0
H434 H 0.23149 0.41497 0.59566 0.0
H435 H 0.2187 0.41357 0.40762 0.0
H436 H 0.14673 0.43162 0.31464 0.0
H437 H 0.13793 0.43906 0.49891 0.0
C438 C 0.16784 0.43422 0.66641 0.0
C439 C 0.18546 0.43123 0.74646 0.0
C440 C 0.17309 0.43042 0.56037 0.0
C441 C 0.2084 0.42432 0.71965 0.0
C442 C 0.21367 0.42033 0.61427 0.0
C443 C 0.20119 0.41924 0.42788 0.0
C444 C 0.18332 0.42196 0.34808 0.0
C445 C 0.19616 0.42334 0.53398 0.0
C446 C 0.16072 0.42934 0.37498 0.0
C447 C 0.15564 0.43355 0.48023 0.0
H448 H 0.7112 0.14114 0.61544 0.0
H449 H 0.79464 0.22273 0.70768 0.0
H450 H 0.81134 0.23269 0.5236 0.0
H451 H 0.80216 0.21804 0.33595 0.0
H452 H 0.71826 0.13676 0.2443 0.0
H453 H 0.70166 0.12697 0.42821 0.0
C454 C 0.73303 0.1611 0.59512 0.0
C455 C 0.75177 0.18107 0.67491 0.0
C456 C 0.74233 0.16677 0.48915 0.0
C457 C 0.77995 0.20688 0.64764 0.0
C458 C 0.78945 0.21264 0.54239 0.0
C459 C 0.78024 0.19823 0.35641 0.0
C460 C 0.76151 0.17808 0.27689 0.0
C461 C 0.77084 0.19272 0.46245 0.0
C462 C 0.73312 0.15255 0.30424 0.0
C463 C 0.72362 0.14692 0.40936 0.0
H464 H 0.57236 0.77713 0.68511 0.0
H465 H 0.58783 0.70045 0.67081 0.0
H466 H 0.59212 0.70483 0.47911 0.0
H467 H 0.59138 0.73033 0.31312 0.0
H468 H 0.57589 0.80699 0.32704 0.0
H469 H 0.57158 0.80263 0.51885 0.0
C470 C 0.57673 0.76145 0.63999 0.0
C471 C 0.57971 0.73845 0.69291 0.0
C472 C 0.57908 0.764 0.5287 0.0
C473 C 0.58536 0.71833 0.63268 0.0
C474 C 0.5878 0.72079 0.52262 0.0
C475 C 0.58699 0.74602 0.35816 0.0
C476 C 0.58402 0.76899 0.30514 0.0
C477 C 0.58463 0.74347 0.4694 0.0
C478 C 0.57835 0.78911 0.36527 0.0
C479 C 0.5759 0.78667 0.47539 0.0
H480 H 0.86536 0.56756 0.68854 0.0
H481 H 0.79293 0.58478 0.78178 0.0
H482 H 0.78444 0.59289 0.59757 0.0
H483 H 0.79781 0.59523 0.40964 0.0
H484 H 0.86976 0.57718 0.3169 0.0
H485 H 0.87802 0.5689 0.50094 0.0
C486 C 0.84773 0.5731 0.66839 0.0
C487 C 0.82997 0.57584 0.74841 0.0
C488 C 0.8428 0.57742 0.56238 0.0
C489 C 0.80713 0.5829 0.72148 0.0
C490 C 0.80217 0.58739 0.61618 0.0
C491 C 0.81522 0.5894 0.42991 0.0
C492 C 0.83324 0.58694 0.35016 0.0
C493 C 0.81989 0.58474 0.53596 0.0
C494 C 0.85567 0.5793 0.37714 0.0
C495 C 0.86043 0.5746 0.4823 0.0
H496 H 0.28126 0.8603 0.32111 0.0
H497 H 0.19838 0.77217 0.33676 0.0
H498 H 0.20239 0.77222 0.52887 0.0
H499 H 0.22941 0.79747 0.69458 0.0
H500 H 0.31229 0.88562 0.67796 0.0
H501 H 0.30821 0.88546 0.48615 0.0
C502 C 0.26413 0.84108 0.36658 0.0
C503 C 0.23953 0.81628 0.31414 0.0
C504 C 0.2665 0.8413 0.47773 0.0
C505 C 0.21755 0.79159 0.37469 0.0
C506 C 0.2198 0.79161 0.48489 0.0
C507 C 0.2465 0.81665 0.6489 0.0
C508 C 0.27115 0.84151 0.70109 0.0
C509 C 0.24411 0.81638 0.53762 0.0
C510 C 0.29311 0.86614 0.64029 0.0
C511 C 0.29082 0.86608 0.53023 0.0
H512 H 0.48402 0.29157 0.61357 0.0
H513 H 0.39068 0.22868 0.70787 0.0
H514 H 0.37608 0.21433 0.52396 0.0
H515 H 0.38971 0.22014 0.33578 0.0
H516 H 0.48307 0.28298 0.24137 0.0
H517 H 0.49774 0.29713 0.42533 0.0
C518 C 0.46053 0.27466 0.5937 0.0
C519 C 0.43847 0.26116 0.67395 0.0
C520 C 0.45226 0.2667 0.48767 0.0
C521 C 0.40809 0.23931 0.64736 0.0
C522 C 0.39971 0.23117 0.54222 0.0
C523 C 0.41324 0.23696 0.35563 0.0
C524 C 0.43523 0.25063 0.27525 0.0
C525 C 0.42156 0.24481 0.46167 0.0
C526 C 0.46566 0.27232 0.30188 0.0
C527 C 0.4741 0.28033 0.40709 0.0
loop_
_geom_bond_atom_site_label_1
_geom_bond_atom_site_label_2
_geom_bond_distance
_geom_bond_site_symmetry_2
_ccdc_geom_bond_type
C0 Eu1 2.835 1_556 S
C0 C2 1.500 . S
C0 O20 1.257 . S
C0 O21 1.260 1_556 S
Eu1 C0 2.835 1_554 S
Eu1 O20 2.473 1_554 S
Eu1 O21 2.480 . S
Eu1 O22 2.430 . S
Eu1 O23 2.670 . S
Eu1 O24 2.394 . S
Eu1 O29 2.355 1_554 S
Eu1 O31 2.374 . S
C2 C0 1.500 . S
C2 C3 1.377 1_556 S
C2 C7 1.377 . S
C3 C2 1.377 1_554 S
C3 C4 1.395 . S
C3 H32 0.931 . S
C4 C3 1.395 . S
C4 C5 1.383 1_554 S
C4 H33 0.931 . S
C5 C4 1.383 1_556 S
C5 C6 1.394 . S
C6 C5 1.394 . S
C6 C7 1.378 . S
C6 H34 0.931 . S
C7 C2 1.377 . S
C7 C6 1.378 . S
C7 H35 0.931 . S
C8 O22 1.259 . S
C8 O23 1.270 . S
C9 O24 1.251 . S
C9 O25 1.251 . S
C10 Eu11 2.835 1_554 S
C10 C12 1.500 . S
C10 O26 1.257 . S
C10 O27 1.260 1_554 S
Eu11 C10 2.835 1_556 S
Eu11 O23 2.355 1_556 S
Eu11 O25 2.374 1_556 S
Eu11 O26 2.473 1_556 S
Eu11 O27 2.480 . S
Eu11 O28 2.430 . S
Eu11 O29 2.670 . S
Eu11 O30 2.394 . S
C12 C10 1.500 . S
C12 C13 1.377 1_554 S
C12 C17 1.377 . S
C13 C12 1.377 1_556 S
C13 C14 1.395 . S
C13 H36 0.931 . S
C14 C13 1.395 . S
C14 C15 1.383 1_556 S
C14 H37 0.931 . S
C15 C14 1.383 1_554 S
C15 C16 1.394 . S
C16 C15 1.394 . S
C16 C17 1.378 . S
C16 H38 0.931 . S
C17 C12 1.377 . S
C17 C16 1.378 . S
C17 H39 0.931 . S
C18 O28 1.259 . S
C18 O29 1.270 . S
C19 O30 1.251 . S
C19 O31 1.251 1_556 S
O20 C0 1.257 . S
O20 Eu1 2.473 1_556 S
O21 C0 1.260 1_554 S
O21 Eu1 2.480 . S
O22 Eu1 2.430 . S
O22 C8 1.259 . S
O23 Eu1 2.670 . S
O23 C8 1.270 . S
O23 Eu11 2.355 1_554 S
O24 Eu1 2.394 . S
O24 C9 1.251 . S
O25 C9 1.251 . S
O25 Eu11 2.374 1_554 S
O26 C10 1.257 . S
O26 Eu11 2.473 1_554 S
O27 C10 1.260 1_556 S
O27 Eu11 2.480 . S
O28 Eu11 2.430 . S
O28 C18 1.259 . S
O29 Eu1 2.355 1_556 S
O29 Eu11 2.670 . S
O29 C18 1.270 . S
O30 Eu11 2.394 . S
O30 C19 1.251 . S
O31 Eu1 2.374 . S
O31 C19 1.251 1_554 S
H32 C3 0.931 . S
H33 C4 0.931 . S
H34 C6 0.931 . S
H35 C7 0.931 . S
H36 C13 0.931 . S
H37 C14 0.931 . S
H38 C16 0.931 . S
H39 C17 0.931 . S
C40 Eu41 2.835 1_556 S
C40 C42 1.500 . S
C40 O60 1.257 . S
C40 O61 1.260 1_556 S
Eu41 C40 2.835 1_554 S
Eu41 O60 2.473 1_554 S
Eu41 O61 2.480 . S
Eu41 O62 2.430 . S
Eu41 O63 2.670 . S
Eu41 O64 2.394 . S
Eu41 O69 2.355 1_554 S
Eu41 O71 2.374 . S
C42 C40 1.500 . S
C42 C43 1.377 1_556 S
C42 C47 1.377 . S
C43 C42 1.377 1_554 S
C43 C44 1.395 . S
C43 H72 0.931 . S
C44 C43 1.395 . S
C44 C45 1.383 1_554 S
C44 H73 0.931 . S
C45 C44 1.383 1_556 S
C45 C46 1.394 . S
C46 C45 1.394 . S
C46 C47 1.378 . S
C46 H74 0.931 . S
C47 C42 1.377 . S
C47 C46 1.378 . S
C47 H75 0.931 . S
C48 O62 1.259 . S
C48 O63 1.270 . S
C49 O64 1.251 . S
C49 O65 1.251 . S
C50 Eu51 2.835 1_554 S
C50 C52 1.500 . S
C50 O66 1.257 . S
C50 O67 1.260 1_554 S
Eu51 C50 2.835 1_556 S
Eu51 O63 2.355 1_556 S
Eu51 O65 2.374 1_556 S
Eu51 O66 2.473 1_556 S
Eu51 O67 2.480 . S
Eu51 O68 2.430 . S
Eu51 O69 2.670 . S
Eu51 O70 2.394 . S
C52 C50 1.500 . S
C52 C53 1.377 1_554 S
C52 C57 1.377 . S
C53 C52 1.377 1_556 S
C53 C54 1.395 . S
C53 H76 0.931 . S
C54 C53 1.395 . S
C54 C55 1.383 1_556 S
C54 H77 0.931 . S
C55 C54 1.383 1_554 S
C55 C56 1.394 . S
C56 C55 1.394 . S
C56 C57 1.378 . S
C56 H78 0.931 . S
C57 C52 1.377 . S
C57 C56 1.378 . S
C57 H79 0.931 . S
C58 O68 1.259 . S
C58 O69 1.270 . S
C59 O70 1.251 . S
C59 O71 1.251 1_556 S
O60 C40 1.257 . S
O60 Eu41 2.473 1_556 S
O61 C40 1.260 1_554 S
O61 Eu41 2.480 . S
O62 Eu41 2.430 . S
O62 C48 1.259 . S
O63 Eu41 2.670 . S
O63 C48 1.270 . S
O63 Eu51 2.355 1_554 S
O64 Eu41 2.394 . S
O64 C49 1.251 . S
O65 C49 1.251 . S
O65 Eu51 2.374 1_554 S
O66 C50 1.257 . S
O66 Eu51 2.473 1_554 S
O67 C50 1.260 1_556 S
O67 Eu51 2.480 . S
O68 Eu51 2.430 . S
O68 C58 1.259 . S
O69 Eu41 2.355 1_556 S
O69 Eu51 2.670 . S
O69 C58 1.270 . S
O70 Eu51 2.394 . S
O70 C59 1.251 . S
O71 Eu41 2.374 . S
O71 C59 1.251 1_554 S
H72 C43 0.931 . S
H73 C44 0.931 . S
H74 C46 0.931 . S
H75 C47 0.931 . S
H76 C53 0.931 . S
H77 C54 0.931 . S
H78 C56 0.931 . S
H79 C57 0.931 . S
C80 Eu81 2.835 1_556 S
C80 C82 1.500 . S
C80 O100 1.257 . S
C80 O101 1.260 1_556 S
Eu81 C80 2.835 1_554 S
Eu81 O100 2.473 1_554 S
Eu81 O101 2.480 . S
Eu81 O102 2.430 . S
Eu81 O103 2.670 . S
Eu81 O104 2.394 . S
Eu81 O109 2.355 1_554 S
Eu81 O111 2.374 . S
C82 C80 1.500 . S
C82 C83 1.377 1_556 S
C82 C87 1.377 . S
C83 C82 1.377 1_554 S
C83 C84 1.395 . S
C83 H112 0.931 . S
C84 C83 1.395 . S
C84 C85 1.383 1_554 S
C84 H113 0.931 . S
C85 C84 1.383 1_556 S
C85 C86 1.394 . S
C86 C85 1.394 . S
C86 C87 1.378 . S
C86 H114 0.931 . S
C87 C82 1.377 . S
C87 C86 1.378 . S
C87 H115 0.931 . S
C88 O102 1.259 . S
C88 O103 1.270 . S
C89 O104 1.251 . S
C89 O105 1.251 . S
C90 Eu91 2.835 1_554 S
C90 C92 1.500 . S
C90 O106 1.257 . S
C90 O107 1.260 1_554 S
Eu91 C90 2.835 1_556 S
Eu91 O103 2.355 1_556 S
Eu91 O105 2.374 1_556 S
Eu91 O106 2.473 1_556 S
Eu91 O107 2.480 . S
Eu91 O108 2.430 . S
Eu91 O109 2.670 . S
Eu91 O110 2.394 . S
C92 C90 1.500 . S
C92 C93 1.377 1_554 S
C92 C97 1.377 . S
C93 C92 1.377 1_556 S
C93 C94 1.395 . S
C93 H116 0.931 . S
C94 C93 1.395 . S
C94 C95 1.383 1_556 S
C94 H117 0.931 . S
C95 C94 1.383 1_554 S
C95 C96 1.394 . S
C96 C95 1.394 . S
C96 C97 1.378 . S
C96 H118 0.931 . S
C97 C92 1.377 . S
C97 C96 1.378 . S
C97 H119 0.931 . S
C98 O108 1.259 . S
C98 O109 1.270 . S
C99 O110 1.251 . S
C99 O111 1.251 1_556 S
O100 C80 1.257 . S
O100 Eu81 2.473 1_556 S
O101 C80 1.260 1_554 S
O101 Eu81 2.480 . S
O102 Eu81 2.430 . S
O102 C88 1.259 . S
O103 Eu81 2.670 . S
O103 C88 1.270 . S
O103 Eu91 2.355 1_554 S
O104 Eu81 2.394 . S
O104 C89 1.251 . S
O105 C89 1.251 . S
O105 Eu91 2.374 1_554 S
O106 C90 1.257 . S
O106 Eu91 2.473 1_554 S
O107 C90 1.260 1_556 S
O107 Eu91 2.480 . S
O108 Eu91 2.430 . S
O108 C98 1.259 . S
O109 Eu81 2.355 1_556 S
O109 Eu91 2.670 . S
O109 C98 1.270 . S
O110 Eu91 2.394 . S
O110 C99 1.251 . S
O111 Eu81 2.374 . S
O111 C99 1.251 1_554 S
H112 C83 0.931 . S
H113 C84 0.931 . S
H114 C86 0.931 . S
H115 C87 0.931 . S
H116 C93 0.931 . S
H117 C94 0.931 . S
H118 C96 0.931 . S
H119 C97 0.931 . S
C120 Eu121 2.835 1_556 S
C120 C122 1.500 . S
C120 O140 1.257 . S
C120 O141 1.260 1_556 S
Eu121 C120 2.835 1_554 S
Eu121 O140 2.473 1_554 S
Eu121 O141 2.480 . S
Eu121 O142 2.430 . S
Eu121 O143 2.670 . S
Eu121 O144 2.394 . S
Eu121 O149 2.355 1_554 S
Eu121 O151 2.374 . S
C122 C120 1.500 . S
C122 C123 1.377 1_556 S
C122 C127 1.377 . S
C123 C122 1.377 1_554 S
C123 C124 1.395 . S
C123 H152 0.931 . S
C124 C123 1.395 . S
C124 C125 1.383 1_554 S
C124 H153 0.931 . S
C125 C124 1.383 1_556 S
C125 C126 1.394 . S
C126 C125 1.394 . S
C126 C127 1.378 . S
C126 H154 0.931 . S
C127 C122 1.377 . S
C127 C126 1.378 . S
C127 H155 0.931 . S
C128 O142 1.259 . S
C128 O143 1.270 . S
C129 O144 1.251 . S
C129 O145 1.251 . S
C130 Eu131 2.835 1_554 S
C130 C132 1.500 . S
C130 O146 1.257 . S
C130 O147 1.260 1_554 S
Eu131 C130 2.835 1_556 S
Eu131 O143 2.355 1_556 S
Eu131 O145 2.374 1_556 S
Eu131 O146 2.473 1_556 S
Eu131 O147 2.480 . S
Eu131 O148 2.430 . S
Eu131 O149 2.670 . S
Eu131 O150 2.394 . S
C132 C130 1.500 . S
C132 C133 1.377 1_554 S
C132 C137 1.377 . S
C133 C132 1.377 1_556 S
C133 C134 1.395 . S
C133 H156 0.931 . S
C134 C133 1.395 . S
C134 C135 1.383 1_556 S
C134 H157 0.931 . S
C135 C134 1.383 1_554 S
C135 C136 1.394 . S
C136 C135 1.394 . S
C136 C137 1.378 . S
C136 H158 0.931 . S
C137 C132 1.377 . S
C137 C136 1.378 . S
C137 H159 0.931 . S
C138 O148 1.259 . S
C138 O149 1.270 . S
C139 O150 1.251 . S
C139 O151 1.251 1_556 S
O140 C120 1.257 . S
O140 Eu121 2.473 1_556 S
O141 C120 1.260 1_554 S
O141 Eu121 2.480 . S
O142 Eu121 2.430 . S
O142 C128 1.259 . S
O143 Eu121 2.670 . S
O143 C128 1.270 . S
O143 Eu131 2.355 1_554 S
O144 Eu121 2.394 . S
O144 C129 1.251 . S
O145 C129 1.251 . S
O145 Eu131 2.374 1_554 S
O146 C130 1.257 . S
O146 Eu131 2.473 1_554 S
O147 C130 1.260 1_556 S
O147 Eu131 2.480 . S
O148 Eu131 2.430 . S
O148 C138 1.259 . S
O149 Eu121 2.355 1_556 S
O149 Eu131 2.670 . S
O149 C138 1.270 . S
O150 Eu131 2.394 . S
O150 C139 1.251 . S
O151 Eu121 2.374 . S
O151 C139 1.251 1_554 S
H152 C123 0.931 . S
H153 C124 0.931 . S
H154 C126 0.931 . S
H155 C127 0.931 . S
H156 C133 0.931 . S
H157 C134 0.931 . S
H158 C136 0.931 . S
H159 C137 0.931 . S
C160 Eu161 2.835 1_556 S
C160 C162 1.500 . S
C160 O180 1.257 . S
C160 O181 1.260 1_556 S
Eu161 C160 2.835 1_554 S
Eu161 O180 2.473 1_554 S
Eu161 O181 2.480 . S
Eu161 O182 2.430 . S
Eu161 O183 2.670 . S
Eu161 O184 2.394 . S
Eu161 O189 2.355 1_554 S
Eu161 O191 2.374 . S
C162 C160 1.500 . S
C162 C163 1.377 1_556 S
C162 C167 1.377 . S
C163 C162 1.377 1_554 S
C163 C164 1.395 . S
C163 H192 0.931 . S
C164 C163 1.395 . S
C164 C165 1.383 1_554 S
C164 H193 0.931 . S
C165 C164 1.383 1_556 S
C165 C166 1.394 . S
C166 C165 1.394 . S
C166 C167 1.378 . S
C166 H194 0.931 . S
C167 C162 1.377 . S
C167 C166 1.378 . S
C167 H195 0.931 . S
C168 O182 1.259 . S
C168 O183 1.270 . S
C169 O184 1.251 . S
C169 O185 1.251 . S
C170 Eu171 2.835 1_554 S
C170 C172 1.500 . S
C170 O186 1.257 . S
C170 O187 1.260 1_554 S
Eu171 C170 2.835 1_556 S
Eu171 O183 2.355 1_556 S
Eu171 O185 2.374 1_556 S
Eu171 O186 2.473 1_556 S
Eu171 O187 2.480 . S
Eu171 O188 2.430 . S
Eu171 O189 2.670 . S
Eu171 O190 2.394 . S
C172 C170 1.500 . S
C172 C173 1.377 1_554 S
C172 C177 1.377 . S
C173 C172 1.377 1_556 S
C173 C174 1.395 . S
C173 H196 0.931 . S
C174 C173 1.395 . S
C174 C175 1.383 1_556 S
C174 H197 0.931 . S
C175 C174 1.383 1_554 S
C175 C176 1.394 . S
C176 C175 1.394 . S
C176 C177 1.378 . S
C176 H198 0.931 . S
C177 C172 1.377 . S
C177 C176 1.378 . S
C177 H199 0.931 . S
C178 O188 1.259 . S
C178 O189 1.270 . S
C179 O190 1.251 . S
C179 O191 1.251 1_556 S
O180 C160 1.257 . S
O180 Eu161 2.473 1_556 S
O181 C160 1.260 1_554 S
O181 Eu161 2.480 . S
O182 Eu161 2.430 . S
O182 C168 1.259 . S
O183 Eu161 2.670 . S
O183 C168 1.270 . S
O183 Eu171 2.355 1_554 S
O184 Eu161 2.394 . S
O184 C169 1.251 . S
O185 C169 1.251 . S
O185 Eu171 2.374 1_554 S
O186 C170 1.257 . S
O186 Eu171 2.473 1_554 S
O187 C170 1.260 1_556 S
O187 Eu171 2.480 . S
O188 Eu171 2.430 . S
O188 C178 1.259 . S
O189 Eu161 2.355 1_556 S
O189 Eu171 2.670 . S
O189 C178 1.270 . S
O190 Eu171 2.394 . S
O190 C179 1.251 . S
O191 Eu161 2.374 . S
O191 C179 1.251 1_554 S
H192 C163 0.931 . S
H193 C164 0.931 . S
H194 C166 0.931 . S
H195 C167 0.931 . S
H196 C173 0.931 . S
H197 C174 0.931 . S
H198 C176 0.931 . S
H199 C177 0.931 . S
C200 Eu201 2.835 1_556 S
C200 C202 1.500 . S
C200 O220 1.257 . S
C200 O221 1.260 1_556 S
Eu201 C200 2.835 1_554 S
Eu201 O220 2.473 1_554 S
Eu201 O221 2.480 . S
Eu201 O222 2.430 . S
Eu201 O223 2.670 . S
Eu201 O224 2.394 . S
Eu201 O229 2.355 1_554 S
Eu201 O231 2.374 . S
C202 C200 1.500 . S
C202 C203 1.377 1_556 S
C202 C207 1.377 . S
C203 C202 1.377 1_554 S
C203 C204 1.395 . S
C203 H232 0.931 . S
C204 C203 1.395 . S
C204 C205 1.383 1_554 S
C204 H233 0.931 . S
C205 C204 1.383 1_556 S
C205 C206 1.394 . S
C206 C205 1.394 . S
C206 C207 1.378 . S
C206 H234 0.931 . S
C207 C202 1.377 . S
C207 C206 1.378 . S
C207 H235 0.931 . S
C208 O222 1.259 . S
C208 O223 1.270 . S
C209 O224 1.251 . S
C209 O225 1.251 . S
C210 Eu211 2.835 1_554 S
C210 C212 1.500 . S
C210 O226 1.257 . S
C210 O227 1.260 1_554 S
Eu211 C210 2.835 1_556 S
Eu211 O223 2.355 1_556 S
Eu211 O225 2.374 1_556 S
Eu211 O226 2.473 1_556 S
Eu211 O227 2.480 . S
Eu211 O228 2.430 . S
Eu211 O229 2.670 . S
Eu211 O230 2.394 . S
C212 C210 1.500 . S
C212 C213 1.377 1_554 S
C212 C217 1.377 . S
C213 C212 1.377 1_556 S
C213 C214 1.395 . S
C213 H236 0.931 . S
C214 C213 1.395 . S
C214 C215 1.383 1_556 S
C214 H237 0.931 . S
C215 C214 1.383 1_554 S
C215 C216 1.394 . S
C216 C215 1.394 . S
C216 C217 1.378 . S
C216 H238 0.931 . S
C217 C212 1.377 . S
C217 C216 1.378 . S
C217 H239 0.931 . S
C218 O228 1.259 . S
C218 O229 1.270 . S
C219 O230 1.251 . S
C219 O231 1.251 1_556 S
O220 C200 1.257 . S
O220 Eu201 2.473 1_556 S
O221 C200 1.260 1_554 S
O221 Eu201 2.480 . S
O222 Eu201 2.430 . S
O222 C208 1.259 . S
O223 Eu201 2.670 . S
O223 C208 1.270 . S
O223 Eu211 2.355 1_554 S
O224 Eu201 2.394 . S
O224 C209 1.251 . S
O225 C209 1.251 . S
O225 Eu211 2.374 1_554 S
O226 C210 1.257 . S
O226 Eu211 2.473 1_554 S
O227 C210 1.260 1_556 S
O227 Eu211 2.480 . S
O228 Eu211 2.430 . S
O228 C218 1.259 . S
O229 Eu201 2.355 1_556 S
O229 Eu211 2.670 . S
O229 C218 1.270 . S
O230 Eu211 2.394 . S
O230 C219 1.251 . S
O231 Eu201 2.374 . S
O231 C219 1.251 1_554 S
H232 C203 0.931 . S
H233 C204 0.931 . S
H234 C206 0.931 . S
H235 C207 0.931 . S
H236 C213 0.931 . S
H237 C214 0.931 . S
H238 C216 0.931 . S
H239 C217 0.931 . S
H240 C246 0.930 . S
H241 C249 0.930 . S
H242 C250 0.930 . S
H243 C251 0.930 . S
H244 C254 0.930 . S
H245 C255 0.930 . S
C246 H240 0.930 . S
C246 C247 1.355 1_554 S
C246 C248 1.415 . S
C247 C246 1.355 1_556 S
C247 C249 1.419 . S
C248 C246 1.415 . S
C248 C253 1.425 1_554 S
C248 C255 1.409 . S
C249 H241 0.930 . S
C249 C247 1.419 . S
C249 C250 1.362 . S
C250 H242 0.930 . S
C250 C249 1.362 . S
C250 C253 1.409 . S
C251 H243 0.930 . S
C251 C252 1.355 . S
C251 C253 1.415 . S
C252 C251 1.355 . S
C252 C254 1.419 1_556 S
C253 C248 1.425 1_556 S
C253 C250 1.409 . S
C253 C251 1.415 . S
C254 H244 0.930 . S
C254 C252 1.419 1_554 S
C254 C255 1.362 . S
C255 H245 0.930 . S
C255 C248 1.409 . S
C255 C254 1.362 . S
H256 C262 0.930 . S
H257 C265 0.930 . S
H258 C266 0.930 . S
H259 C267 0.930 . S
H260 C270 0.930 . S
H261 C271 0.930 . S
C262 H256 0.930 . S
C262 C263 1.355 1_556 S
C262 C264 1.415 . S
C263 C262 1.355 1_554 S
C263 C265 1.419 . S
C264 C262 1.415 . S
C264 C269 1.425 1_556 S
C264 C271 1.409 . S
C265 H257 0.930 . S
C265 C263 1.419 . S
C265 C266 1.362 . S
C266 H258 0.930 . S
C266 C265 1.362 . S
C266 C269 1.409 . S
C267 H259 0.930 . S
C267 C268 1.355 1_554 S
C267 C269 1.415 . S
C268 C267 1.355 1_556 S
C268 C270 1.419 . S
C269 C264 1.425 1_554 S
C269 C266 1.409 . S
C269 C267 1.415 . S
C270 H260 0.930 . S
C270 C268 1.419 . S
C270 C271 1.362 . S
C271 H261 0.930 . S
C271 C264 1.409 . S
C271 C270 1.362 . S
H272 C278 0.930 . S
H273 C281 0.930 . S
H274 C282 0.930 . S
H275 C283 0.930 . S
H276 C286 0.930 . S
H277 C287 0.930 . S
C278 H272 0.930 . S
C278 C279 1.355 1_554 S
C278 C280 1.415 . S
C279 C278 1.355 1_556 S
C279 C281 1.419 . S
C280 C278 1.415 . S
C280 C285 1.425 1_554 S
C280 C287 1.409 . S
C281 H273 0.930 . S
C281 C279 1.419 . S
C281 C282 1.362 . S
C282 H274 0.930 . S
C282 C281 1.362 . S
C282 C285 1.409 . S
C283 H275 0.930 . S
C283 C284 1.355 . S
C283 C285 1.415 . S
C284 C283 1.355 . S
C284 C286 1.419 1_556 S
C285 C280 1.425 1_556 S
C285 C282 1.409 . S
C285 C283 1.415 . S
C286 H276 0.930 . S
C286 C284 1.419 1_554 S
C286 C287 1.362 . S
C287 H277 0.930 . S
C287 C280 1.409 . S
C287 C286 1.362 . S
H288 C294 0.930 . S
H289 C297 0.930 1_554 S
H290 C298 0.930 . S
H291 C299 0.930 . S
H292 C302 0.930 . S
H293 C303 0.930 . S
C294 H288 0.930 . S
C294 C295 1.355 . S
C294 C296 1.415 . S
C295 C294 1.355 . S
C295 C297 1.419 . S
C296 C294 1.415 . S
C296 C301 1.425 . S
C296 C303 1.409 . S
C297 H289 0.930 1_556 S
C297 C295 1.419 . S
C297 C298 1.362 1_556 S
C298 H290 0.930 . S
C298 C297 1.362 1_554 S
C298 C301 1.409 1_554 S
C299 H291 0.930 . S
C299 C300 1.355 1_554 S
C299 C301 1.415 1_554 S
C300 C299 1.355 1_556 S
C300 C302 1.419 . S
C301 C296 1.425 . S
C301 C298 1.409 1_556 S
C301 C299 1.415 1_556 S
C302 H292 0.930 . S
C302 C300 1.419 . S
C302 C303 1.362 . S
C303 H293 0.930 . S
C303 C296 1.409 . S
C303 C302 1.362 . S
H304 C310 0.930 . S
H305 C313 0.930 . S
H306 C314 0.930 . S
H307 C315 0.930 . S
H308 C318 0.930 . S
H309 C319 0.930 . S
C310 H304 0.930 . S
C310 C311 1.355 1_554 S
C310 C312 1.415 . S
C311 C310 1.355 1_556 S
C311 C313 1.419 . S
C312 C310 1.415 . S
C312 C317 1.425 1_554 S
C312 C319 1.409 . S
C313 H305 0.930 . S
C313 C311 1.419 . S
C313 C314 1.362 . S
C314 H306 0.930 . S
C314 C313 1.362 . S
C314 C317 1.409 . S
C315 H307 0.930 . S
C315 C316 1.355 1_556 S
C315 C317 1.415 . S
C316 C315 1.355 1_554 S
C316 C318 1.419 . S
C317 C312 1.425 1_556 S
C317 C314 1.409 . S
C317 C315 1.415 . S
C318 H308 0.930 . S
C318 C316 1.419 . S
C318 C319 1.362 . S
C319 H309 0.930 . S
C319 C312 1.409 . S
C319 C318 1.362 . S
H320 C326 0.930 . S
H321 C329 0.930 . S
H322 C330 0.930 . S
H323 C331 0.941 . S
H324 C334 0.930 . S
H325 C335 0.930 . S
C326 H320 0.930 . S
C326 C327 1.355 . S
C326 C328 1.415 . S
C327 C326 1.355 . S
C327 C329 1.419 1_556 S
C328 C326 1.415 . S
C328 C333 1.425 . S
C328 C335 1.409 . S
C329 H321 0.930 . S
C329 C327 1.419 1_554 S
C329 C330 1.362 . S
C330 H322 0.930 . S
C330 C329 1.362 . S
C330 C333 1.409 1_554 S
C331 H323 0.941 . S
C331 C332 1.352 1_554 S
C331 C333 1.415 1_554 S
C332 C331 1.352 1_556 S
C332 C334 1.419 . S
C333 C328 1.425 . S
C333 C330 1.409 1_556 S
C333 C331 1.415 1_556 S
C334 H324 0.930 . S
C334 C332 1.419 . S
C334 C335 1.362 . S
C335 H325 0.930 . S
C335 C328 1.409 . S
C335 C334 1.362 . S
H336 C342 0.930 . S
H337 C345 0.930 . S
H338 C346 0.930 . S
H339 C347 0.930 1_556 S
H340 C350 0.930 . S
H341 C351 0.930 . S
C342 H336 0.930 . S
C342 C343 1.355 1_554 S
C342 C344 1.415 . S
C343 C342 1.355 1_556 S
C343 C345 1.419 . S
C344 C342 1.415 . S
C344 C349 1.429 . S
C344 C351 1.409 . S
C345 H337 0.930 . S
C345 C343 1.419 . S
C345 C346 1.362 . S
C346 H338 0.930 . S
C346 C345 1.362 . S
C346 C349 1.405 1_556 S
C347 H339 0.930 1_554 S
C347 C348 1.355 . S
C347 C349 1.415 . S
C348 C347 1.355 . S
C348 C350 1.419 . S
C349 C344 1.429 . S
C349 C346 1.405 1_554 S
C349 C347 1.415 . S
C350 H340 0.930 . S
C350 C348 1.419 . S
C350 C351 1.362 . S
C351 H341 0.930 . S
C351 C344 1.409 . S
C351 C350 1.362 . S
H352 C358 0.930 . S
H353 C361 0.930 . S
H354 C362 0.930 . S
H355 C363 0.930 . S
H356 C366 0.930 . S
H357 C367 0.930 . S
C358 H352 0.930 . S
C358 C359 1.355 1_556 S
C358 C360 1.415 . S
C359 C358 1.355 1_554 S
C359 C361 1.419 . S
C360 C358 1.415 . S
C360 C365 1.425 1_556 S
C360 C367 1.409 . S
C361 H353 0.930 . S
C361 C359 1.419 . S
C361 C362 1.362 . S
C362 H354 0.930 . S
C362 C361 1.362 . S
C362 C365 1.409 . S
C363 H355 0.930 . S
C363 C364 1.355 . S
C363 C365 1.415 . S
C364 C363 1.355 . S
C364 C366 1.419 1_554 S
C365 C360 1.425 1_554 S
C365 C362 1.409 . S
C365 C363 1.415 . S
C366 H356 0.930 . S
C366 C364 1.419 1_556 S
C366 C367 1.362 . S
C367 H357 0.930 . S
C367 C360 1.409 . S
C367 C366 1.362 . S
H368 C374 0.930 . S
H369 C377 0.930 . S
H370 C378 0.930 . S
H371 C379 0.930 . S
H372 C382 0.930 . S
H373 C383 0.930 . S
C374 H368 0.930 . S
C374 C375 1.355 . S
C374 C376 1.415 . S
C375 C374 1.355 . S
C375 C377 1.419 . S
C376 C374 1.415 . S
C376 C381 1.425 . S
C376 C383 1.409 . S
C377 H369 0.930 . S
C377 C375 1.419 . S
C377 C378 1.362 . S
C378 H370 0.930 . S
C378 C377 1.362 . S
C378 C381 1.409 . S
C379 H371 0.930 . S
C379 C380 1.355 . S
C379 C381 1.415 . S
C380 C379 1.355 . S
C380 C382 1.419 . S
C381 C376 1.425 . S
C381 C378 1.409 . S
C381 C379 1.415 . S
C382 H372 0.930 . S
C382 C380 1.419 . S
C382 C383 1.362 . S
C383 H373 0.930 . S
C383 C376 1.409 . S
C383 C382 1.362 . S
H384 C390 0.930 . S
H385 C393 0.930 . S
H386 C394 0.930 . S
H387 C395 0.930 . S
H388 C398 0.930 . S
H389 C399 0.930 . S
C390 H384 0.930 . S
C390 C391 1.355 . S
C390 C392 1.415 . S
C391 C390 1.355 . S
C391 C393 1.419 1_554 S
C392 C390 1.415 . S
C392 C397 1.425 1_554 S
C392 C399 1.409 . S
C393 H385 0.930 . S
C393 C391 1.419 1_556 S
C393 C394 1.362 . S
C394 H386 0.930 . S
C394 C393 1.362 . S
C394 C397 1.409 . S
C395 H387 0.930 . S
C395 C396 1.355 1_556 S
C395 C397 1.415 . S
C396 C395 1.355 1_554 S
C396 C398 1.419 . S
C397 C392 1.425 1_556 S
C397 C394 1.409 . S
C397 C395 1.415 . S
C398 H388 0.930 . S
C398 C396 1.419 . S
C398 C399 1.362 . S
C399 H389 0.930 . S
C399 C392 1.409 . S
C399 C398 1.362 . S
H400 C406 0.930 . S
H401 C409 0.930 . S
H402 C410 0.930 . S
H403 C411 0.930 . S
H404 C414 0.930 . S
H405 C415 0.930 . S
C406 H400 0.930 . S
C406 C407 1.355 . S
C406 C408 1.415 . S
C407 C406 1.355 . S
C407 C409 1.419 1_554 S
C408 C406 1.415 . S
C408 C413 1.425 1_554 S
C408 C415 1.409 . S
C409 H401 0.930 . S
C409 C407 1.419 1_556 S
C409 C410 1.362 . S
C410 H402 0.930 . S
C410 C409 1.362 . S
C410 C413 1.409 . S
C411 H403 0.930 . S
C411 C412 1.355 1_556 S
C411 C413 1.415 . S
C412 C411 1.355 1_554 S
C412 C414 1.419 . S
C413 C408 1.425 1_556 S
C413 C410 1.409 . S
C413 C411 1.415 . S
C414 H404 0.930 . S
C414 C412 1.419 . S
C414 C415 1.362 . S
C415 H405 0.930 . S
C415 C408 1.409 . S
C415 C414 1.362 . S
H416 C422 0.930 . S
H417 C425 0.930 . S
H418 C426 0.930 . S
H419 C427 0.930 . S
H420 C430 0.930 . S
H421 C431 0.930 . S
C422 H416 0.930 . S
C422 C423 1.355 1_554 S
C422 C424 1.415 . S
C423 C422 1.355 1_556 S
C423 C425 1.419 . S
C424 C422 1.415 . S
C424 C429 1.425 1_554 S
C424 C431 1.409 . S
C425 H417 0.930 . S
C425 C423 1.419 . S
C425 C426 1.362 . S
C426 H418 0.930 . S
C426 C425 1.362 . S
C426 C429 1.409 . S
C427 H419 0.930 . S
C427 C428 1.355 1_556 S
C427 C429 1.415 . S
C428 C427 1.355 1_554 S
C428 C430 1.419 . S
C429 C424 1.425 1_556 S
C429 C426 1.409 . S
C429 C427 1.415 . S
C430 H420 0.930 . S
C430 C428 1.419 . S
C430 C431 1.362 . S
C431 H421 0.930 . S
C431 C424 1.409 . S
C431 C430 1.362 . S
H432 C438 0.930 . S
H433 C441 0.930 . S
H434 C442 0.930 . S
H435 C443 0.930 . S
H436 C446 0.930 . S
H437 C447 0.930 . S
C438 H432 0.930 . S
C438 C439 1.355 . S
C438 C440 1.415 . S
C439 C438 1.355 . S
C439 C441 1.419 . S
C440 C438 1.415 . S
C440 C445 1.425 . S
C440 C447 1.409 . S
C441 H433 0.930 . S
C441 C439 1.419 . S
C441 C442 1.362 . S
C442 H434 0.930 . S
C442 C441 1.362 . S
C442 C445 1.409 . S
C443 H435 0.930 . S
C443 C444 1.355 . S
C443 C445 1.415 . S
C444 C443 1.355 . S
C444 C446 1.419 . S
C445 C440 1.425 . S
C445 C442 1.409 . S
C445 C443 1.415 . S
C446 H436 0.930 . S
C446 C444 1.419 . S
C446 C447 1.362 . S
C447 H437 0.930 . S
C447 C440 1.409 . S
C447 C446 1.362 . S
H448 C454 0.930 . S
H449 C457 0.930 . S
H450 C458 0.930 . S
H451 C459 0.930 . S
H452 C462 0.930 . S
H453 C463 0.930 . S
C454 H448 0.930 . S
C454 C455 1.355 . S
C454 C456 1.415 . S
C455 C454 1.355 . S
C455 C457 1.419 . S
C456 C454 1.415 . S
C456 C461 1.425 . S
C456 C463 1.409 . S
C457 H449 0.930 . S
C457 C455 1.419 . S
C457 C458 1.362 . S
C458 H450 0.930 . S
C458 C457 1.362 . S
C458 C461 1.409 . S
C459 H451 0.930 . S
C459 C460 1.355 . S
C459 C461 1.415 . S
C460 C459 1.355 . S
C460 C462 1.419 . S
C461 C456 1.425 . S
C461 C458 1.409 . S
C461 C459 1.415 . S
C462 H452 0.930 . S
C462 C460 1.419 . S
C462 C463 1.362 . S
C463 H453 0.930 . S
C463 C456 1.409 . S
C463 C462 1.362 . S
H464 C470 0.930 . S
H465 C473 0.930 . S
H466 C474 0.930 . S
H467 C475 0.930 . S
H468 C478 0.930 . S
H469 C479 0.930 . S
C470 H464 0.930 . S
C470 C471 1.355 . S
C470 C472 1.415 . S
C471 C470 1.355 . S
C471 C473 1.419 . S
C472 C470 1.415 . S
C472 C477 1.425 . S
C472 C479 1.409 . S
C473 H465 0.930 . S
C473 C471 1.419 . S
C473 C474 1.362 . S
C474 H466 0.930 . S
C474 C473 1.362 . S
C474 C477 1.409 . S
C475 H467 0.930 . S
C475 C476 1.355 . S
C475 C477 1.415 . S
C476 C475 1.355 . S
C476 C478 1.419 . S
C477 C472 1.425 . S
C477 C474 1.409 . S
C477 C475 1.415 . S
C478 H468 0.930 . S
C478 C476 1.419 . S
C478 C479 1.362 . S
C479 H469 0.930 . S
C479 C472 1.409 . S
C479 C478 1.362 . S
H480 C486 0.930 . S
H481 C489 0.930 . S
H482 C490 0.930 . S
H483 C491 0.930 . S
H484 C494 0.930 . S
H485 C495 0.930 . S
C486 H480 0.930 . S
C486 C487 1.355 . S
C486 C488 1.415 . S
C487 C486 1.355 . S
C487 C489 1.419 . S
C488 C486 1.415 . S
C488 C493 1.425 . S
C488 C495 1.409 . S
C489 H481 0.930 . S
C489 C487 1.419 . S
C489 C490 1.362 . S
C490 H482 0.930 . S
C490 C489 1.362 . S
C490 C493 1.409 . S
C491 H483 0.930 . S
C491 C492 1.355 . S
C491 C493 1.415 . S
C492 C491 1.355 . S
C492 C494 1.419 . S
C493 C488 1.425 . S
C493 C490 1.409 . S
C493 C491 1.415 . S
C494 H484 0.930 . S
C494 C492 1.419 . S
C494 C495 1.362 . S
C495 H485 0.930 . S
C495 C488 1.409 . S
C495 C494 1.362 . S
H496 C502 0.930 . S
H497 C505 0.930 . S
H498 C506 0.930 . S
H499 C507 0.930 . S
H500 C510 0.930 . S
H501 C511 0.930 . S
C502 H496 0.930 . S
C502 C503 1.355 . S
C502 C504 1.415 . S
C503 C502 1.355 . S
C503 C505 1.419 . S
C504 C502 1.415 . S
C504 C509 1.425 . S
C504 C511 1.409 . S
C505 H497 0.930 . S
C505 C503 1.419 . S
C505 C506 1.362 . S
C506 H498 0.930 . S
C506 C505 1.362 . S
C506 C509 1.409 . S
C507 H499 0.930 . S
C507 C508 1.355 . S
C507 C509 1.415 . S
C508 C507 1.355 . S
C508 C510 1.419 . S
C509 C504 1.425 . S
C509 C506 1.409 . S
C509 C507 1.415 . S
C510 H500 0.930 . S
C510 C508 1.419 . S
C510 C511 1.362 . S
C511 H501 0.930 . S
C511 C504 1.409 . S
C511 C510 1.362 . S
H512 C518 0.930 . S
H513 C521 0.930 . S
H514 C522 0.930 . S
H515 C523 0.930 . S
H516 C526 0.930 . S
H517 C527 0.930 . S
C518 H512 0.930 . S
C518 C519 1.355 . S
C518 C520 1.415 . S
C519 C518 1.355 . S
C519 C521 1.419 . S
C520 C518 1.415 . S
C520 C525 1.425 . S
C520 C527 1.409 . S
C521 H513 0.930 . S
C521 C519 1.419 . S
C521 C522 1.362 . S
C522 H514 0.930 . S
C522 C521 1.362 . S
C522 C525 1.409 . S
C523 H515 0.930 . S
C523 C524 1.355 . S
C523 C525 1.415 . S
C524 C523 1.355 . S
C524 C526 1.419 . S
C525 C520 1.425 . S
C525 C522 1.409 . S
C525 C523 1.415 . S
C526 H516 0.930 . S
C526 C524 1.419 . S
C526 C527 1.362 . S
C527 H517 0.930 . S
C527 C520 1.409 . S
C527 C526 1.362 . S
C247 C209 2.033 1_556 S
C252 C5 1.794 . S
C263 C9 2.016 . S
C268 C45 1.838 1_455 S
C279 C49 2.023 1_556 S
C284 C85 1.829 1_545 S
C295 C125 1.759 . S
C300 C89 2.039 1_556 S
C311 C165 1.819 1_655 S
C316 C129 2.020 . S
C327 C169 2.015 1_556 S
C332 C205 1.850 1_565 S
C343 C179 1.863 . S
C348 C15 1.875 . S
C359 C219 1.878 1_554 S
C364 C55 1.850 . S
C375 C95 1.862 . S
C380 C19 1.868 1_554 S
C391 C135 1.854 . S
C396 C59 1.878 1_554 S
C407 C175 1.850 . S
C412 C99 1.878 1_554 S
C423 C139 1.863 . S
C428 C215 1.875 . S
C439 C18 1.422 . S
C444 C8 1.422 . S
C455 C58 1.457 . S
C460 C48 1.457 . S
C471 C98 1.409 . S
C476 C88 1.409 . S
C487 C138 1.471 . S
C492 C128 1.471 . S
C503 C168 1.433 . S
C508 C178 1.433 . S
C519 C218 1.393 . S
C524 C208 1.393 . S
