# Generated by pormake.
# Topology rkf, (6)-cn, num edge types: 1
# Building blocks:
#     Node 0, Type 0, BuildingBlock: NUHQIS_clean_sbu_0, # of connection points: 6
#     Node 1, Type 0, BuildingBlock: NUHQIS_clean_sbu_0, # of connection points: 6
#     Node 2, Type 0, BuildingBlock: NUHQIS_clean_sbu_0, # of connection points: 6
#     Node 3, Type 0, BuildingBlock: NUHQIS_clean_sbu_0, # of connection points: 6
#     Node 4, Type 0, BuildingBlock: NUHQIS_clean_sbu_0, # of connection points: 6
#     Node 5, Type 0, BuildingBlock: NUHQIS_clean_sbu_0, # of connection points: 6
#     Edge 6, Type (0, 0), BuildingBlock: CIFDUS_clean_linker_0, # of connection points: 2
#     Edge 7, Type (0, 0), BuildingBlock: CIFDUS_clean_linker_0, # of connection points: 2
#     Edge 8, Type (0, 0), BuildingBlock: CIFDUS_clean_linker_0, # of connection points: 2
#     Edge 9, Type (0, 0), BuildingBlock: CIFDUS_clean_linker_0, # of connection points: 2
#     Edge 10, Type (0, 0), BuildingBlock: CIFDUS_clean_linker_0, # of connection points: 2
#     Edge 11, Type (0, 0), BuildingBlock: CIFDUS_clean_linker_0, # of connection points: 2
#     Edge 12, Type (0, 0), BuildingBlock: CIFDUS_clean_linker_0, # of connection points: 2
#     Edge 13, Type (0, 0), BuildingBlock: CIFDUS_clean_linker_0, # of connection points: 2
#     Edge 14, Type (0, 0), BuildingBlock: CIFDUS_clean_linker_0, # of connection points: 2
#     Edge 15, Type (0, 0), BuildingBlock: CIFDUS_clean_linker_0, # of connection points: 2
#     Edge 16, Type (0, 0), BuildingBlock: CIFDUS_clean_linker_0, # of connection points: 2
#     Edge 17, Type (0, 0), BuildingBlock: CIFDUS_clean_linker_0, # of connection points: 2
#     Edge 18, Type (0, 0), BuildingBlock: CIFDUS_clean_linker_0, # of connection points: 2
#     Edge 19, Type (0, 0), BuildingBlock: CIFDUS_clean_linker_0, # of connection points: 2
#     Edge 20, Type (0, 0), BuildingBlock: CIFDUS_clean_linker_0, # of connection points: 2
#     Edge 21, Type (0, 0), BuildingBlock: CIFDUS_clean_linker_0, # of connection points: 2
#     Edge 22, Type (0, 0), BuildingBlock: CIFDUS_clean_linker_0, # of connection points: 2
#     Edge 23, Type (0, 0), BuildingBlock: CIFDUS_clean_linker_0, # of connection points: 2
# Relax obj value: 0.823
# Max RMSD: 0.254
# Mean RMSD: 0.254
data_MOF--net-rkf--node1-NUHQIS_clean_sbu_0--edge1-CIFDUS_clean_linker_0
_symmetry_space_group_name_H-M    P1
_symmetry_Int_Tables_number       1
_symmetry_cell_setting            triclinic
loop_
_symmetry_equiv_pos_as_xyz
'x, y, z'
_cell_length_a     23.278737
_cell_length_b     22.647495
_cell_length_c     37.778167
_cell_angle_alpha  90.527691
_cell_angle_beta   89.98567
_cell_angle_gamma 119.8929
loop_
_atom_site_label
_atom_site_type_symbol
_atom_site_fract_x
_atom_site_fract_y
_atom_site_fract_z
_atom_type_partial_charge
Tb0 Tb 0.31521 0.12708 0.2546 0.0
Eu1 Eu 0.42314 0.27021 0.21732 0.0
C2 C 0.27156 0.20933 0.20854 0.0
C3 C 0.33814 0.13144 1.16856 0.0
C4 C 0.15488 0.96413 0.2733 0.0
C5 C 0.03887 0.90478 0.28979 0.0
C6 C 0.1006 0.96395 0.2895 0.0
C7 C 0.14459 0.90616 0.25408 0.0
C8 C 0.08249 0.847 0.25406 0.0
C9 C 0.0302 0.84419 0.27407 0.0
C10 C 0.22241 0.02019 0.28129 0.0
O11 O 0.40533 0.12284 0.26076 0.0
O12 O 0.48448 0.22711 0.23964 0.0
O13 O 0.38801 0.29339 0.26999 0.0
O14 O 0.35979 0.19625 0.30029 0.0
C15 C 0.46708 0.16763 0.25364 0.0
O16 O 0.50656 0.33656 1.18346 0.0
O17 O 0.47059 0.38025 0.22283 0.0
O18 O 0.32635 0.24362 1.19075 0.0
O19 O 0.27519 0.19226 0.241 0.0
O20 O 0.30549 0.09992 1.19754 0.0
O21 O 0.38766 0.19539 1.16984 0.0
C22 C 0.37334 0.26013 0.30019 0.0
O23 O 0.27139 0.02218 0.26364 0.0
O24 O 0.23006 0.08066 0.28621 0.0
C25 C 0.52035 0.44653 1.17294 0.0
C26 C 0.52136 0.54883 1.13105 0.0
C27 C 0.54613 0.56376 1.16577 0.0
C28 C 0.54597 0.51296 1.1865 0.0
C29 C 0.49854 0.43233 1.13772 0.0
C30 C 0.49938 0.48322 1.11689 0.0
C31 C 0.51194 0.39237 1.19701 0.0
H32 H 0.00025 0.90515 0.3056 0.0
H33 H 0.10694 0.00793 0.3044 0.0
H34 H 0.1853 0.90496 0.24087 0.0
H35 H 0.07709 0.80183 0.24087 0.0
H36 H 0.56321 0.61386 1.17723 0.0
H37 H 0.56318 0.52476 0.21368 0.0
H38 H 0.47823 0.38138 1.12677 0.0
H39 H 0.47882 0.46995 1.09037 0.0
Tb40 Tb 0.34847 0.39624 0.57908 0.0
Eu41 Eu 0.25131 0.44981 0.54957 0.0
C42 C 0.20845 0.29398 0.55365 0.0
C43 C 0.32146 0.38844 0.49505 0.0
C44 C 0.44475 0.32365 0.62619 0.0
C45 C 0.41894 0.21494 0.65112 0.0
C46 C 0.40064 0.25379 0.63059 0.0
C47 C 0.50657 0.35428 0.64333 0.0
C48 C 0.52468 0.31546 0.66413 0.0
C49 C 0.48142 0.24524 0.6677 0.0
C50 C 0.4313 0.36345 0.60042 0.0
O51 O 0.40596 0.49485 0.55555 0.0
O52 O 0.34222 0.53651 0.57521 0.0
O53 O 0.21513 0.41474 0.60593 0.0
O54 O 0.30751 0.41565 0.62811 0.0
C55 C 0.40047 0.54615 0.56678 0.0
O56 O 0.24529 0.53142 0.52271 0.0
O57 O 0.15757 0.44922 0.5472 0.0
O58 O 0.20322 0.3393 0.53469 0.0
O59 O 0.24846 0.31211 0.58106 0.0
O60 O 0.34038 0.36813 0.52306 0.0
O61 O 0.29361 0.42728 0.49842 0.0
C62 C 0.24932 0.41187 0.63306 0.0
O63 O 0.38544 0.32934 0.5768 0.0
O64 O 0.43052 0.41777 0.6116 0.0
C65 C 0.1416 0.50659 0.49911 0.0
C66 C 0.07166 0.51333 0.44004 0.0
C67 C 0.11855 0.57327 0.45736 0.0
C68 C 0.15304 0.56983 0.4868 0.0
C69 C 0.09288 0.44657 0.48277 0.0
C70 C 0.05805 0.44994 0.45357 0.0
C71 C 0.18188 0.50487 0.52856 0.0
H72 H 0.38402 0.16114 0.65417 0.0
H73 H 0.35268 0.22882 0.61758 0.0
H74 H 0.54158 0.40796 0.63986 0.0
H75 H 0.57295 0.33998 0.67681 0.0
H76 H 0.13008 0.62266 0.44739 0.0
H77 H 0.19012 0.6167 0.49936 0.0
H78 H 0.08314 0.39717 0.4918 0.0
H79 H 0.02321 0.40285 0.44032 0.0
Tb80 Tb 0.08227 0.3705 0.90578 0.0
Eu81 Eu 0.93522 0.25923 0.87907 0.0
C82 C 0.05714 0.22992 0.87342 0.0
C83 C 0.05008 0.34189 0.82059 0.0
C84 C 0.23038 0.52945 0.94535 0.0
C85 C 0.27456 0.56231 1.00467 0.0
C86 C 0.22359 0.51833 0.98189 0.0
C87 C 0.28386 0.58946 0.93234 0.0
C88 C 0.33495 0.63331 0.95505 0.0
C89 C 0.33292 0.61716 0.99097 0.0
C90 C 0.19132 0.47455 0.92004 0.0
O91 O 0.00739 0.39311 0.92405 0.0
O92 O -0.04766 0.36592 0.87309 0.0
O93 O 0.93672 0.24093 0.93892 0.0
O94 O 0.04691 0.30834 0.954 0.0
C95 C -0.02573 0.40593 0.90072 0.0
O96 O 0.83196 0.23254 0.88538 0.0
O97 O 0.85652 0.16999 0.85208 0.0
O98 O -0.00774 0.20324 0.87354 0.0
O99 O 0.09834 0.29242 0.8839 0.0
O100 O 0.08991 0.37708 0.84716 0.0
O101 O -0.01215 0.29486 0.82618 0.0
C102 C -0.0146 0.26213 0.96243 0.0
O103 O 0.17609 0.41272 0.92896 0.0
O104 O 0.14369 0.47675 0.90293 0.0
C105 C 0.76985 0.18678 0.83346 0.0
C106 C 0.69927 0.18304 0.77215 0.0
C107 C 0.7643 0.23704 0.7782 0.0
C108 C 0.79916 0.2388 0.80854 0.0
C109 C 0.7035 0.13608 0.82931 0.0
C110 C 0.66828 0.13444 0.79897 0.0
C111 C 0.81032 0.18313 0.86209 0.0
H112 H 0.27161 0.54835 1.03224 0.0
H113 H 0.18222 0.47245 0.99239 0.0
H114 H 0.2894 0.59897 0.90413 0.0
H115 H 0.37912 0.67547 0.94393 0.0
H116 H 0.79075 0.27502 0.75825 0.0
H117 H 0.85039 0.27867 0.81155 0.0
H118 H 0.67997 0.09596 0.84863 0.0
H119 H 0.61832 0.09264 0.79555 0.0
Tb120 Tb 0.90106 0.09671 0.23754 0.0
Eu121 Eu 0.76944 0.9576 0.21277 0.0
C122 C 0.9109 -0.01694 1.19924 0.0
C123 C 0.854 0.0824 1.15598 0.0
C124 C 0.02637 0.27678 0.24792 0.0
C125 C 0.1009 0.3938 0.26494 0.0
C126 C 0.08795 0.32699 0.26079 0.0
C127 C -0.01871 0.29543 0.23475 0.0
C128 C -0.00604 0.36221 0.23916 0.0
C129 C 0.0517 0.41067 0.25689 0.0
C130 C 0.00457 0.20508 0.2546 0.0
O131 O 0.82336 0.123 0.23284 0.0
O132 O 0.73733 0.01858 0.24631 0.0
O133 O 0.79995 0.93126 0.26583 0.0
O134 O 0.86764 0.03937 0.28762 0.0
C135 C 0.76205 0.08438 0.24315 0.0
O136 O 0.66637 0.9072 1.19532 0.0
O137 O 0.71438 0.84755 0.20423 0.0
O138 O 0.85554 0.96443 1.18247 0.0
O139 O 0.92139 0.01405 0.22986 0.0
O140 O 0.90098 0.1131 1.1801 0.0
O141 O 0.79724 0.027 1.1639 0.0
C142 C 0.83439 0.97266 0.29233 0.0
O143 O -0.04769 0.1746 0.27466 0.0
O144 O 0.001 0.16783 0.22727 0.0
C145 C 0.64014 0.81676 1.15535 0.0
C146 C 0.61752 0.78773 1.08229 0.0
C147 C 0.57779 0.80683 1.10177 0.0
C148 C 0.58894 0.82109 1.13803 0.0
C149 C 0.67481 0.79054 1.13673 0.0
C150 C 0.66371 0.77632 1.10063 0.0
C151 C 0.66294 0.84826 1.19077 0.0
H152 H 0.14592 0.42964 0.27874 0.0
H153 H 0.12343 0.31342 0.27078 0.0
H154 H 0.93364 0.2571 0.2243 0.0
H155 H -0.04453 0.37384 0.23243 0.0
H156 H 0.54065 0.81443 1.08865 0.0
H157 H 0.56051 0.83988 1.152 0.0
H158 H 0.71396 0.78558 1.14932 0.0
H159 H 0.69572 0.76205 1.08673 0.0
Tb160 Tb 0.90941 0.92742 0.57887 0.0
Eu161 Eu 0.90103 0.78596 0.55651 0.0
C162 C 0.03206 0.92239 0.55079 0.0
C163 C 0.88675 0.88473 0.49697 0.0
C164 C 0.86193 0.05866 0.59017 0.0
C165 C 0.82135 0.13251 0.61076 0.0
C166 C 0.87374 0.12006 0.60555 0.0
C167 C 0.79898 0.01349 0.57609 0.0
C168 C 0.74634 0.0257 0.58145 0.0
C169 C 0.75612 0.08307 0.6011 0.0
C170 C 0.91034 0.03604 0.59544 0.0
O171 O 0.80523 0.85277 0.57136 0.0
O172 O 0.81743 0.76709 0.59264 0.0
O173 O -0.04691 0.81161 0.61164 0.0
O174 O 0.9215 0.88831 0.62966 0.0
C175 C 0.77989 0.79355 0.58661 0.0
O176 O 0.8347 0.68053 0.54094 0.0
O177 O 0.93959 0.71669 0.54773 0.0
O178 O -0.00653 0.86798 0.53229 0.0
O179 O 0.00876 0.9415 0.57745 0.0
O180 O 0.91135 0.93315 0.52127 0.0
O181 O 0.86972 0.82127 0.5056 0.0
C182 C 0.94775 0.84979 0.63692 0.0
O183 O 0.88998 -0.01617 0.61618 0.0
O184 O 0.93922 0.02962 0.56733 0.0
C185 C 0.88365 0.63893 0.50031 0.0
C186 C 0.89055 0.61187 0.4279 0.0
C187 C 0.82921 0.59367 0.4435 0.0
C188 C 0.82576 0.60696 0.4794 0.0
C189 C 0.94348 0.64964 0.48568 0.0
C190 C 0.94695 0.63641 0.44984 0.0
C191 C 0.88291 0.66774 0.53555 0.0
H192 H 0.83103 0.17714 0.62617 0.0
H193 H 0.92207 0.15548 0.6165 0.0
H194 H 0.78918 0.96589 0.56386 0.0
H195 H 0.69695 -0.01296 0.57336 0.0
H196 H 0.78462 0.57327 0.42751 0.0
H197 H 0.77841 0.59619 0.49017 0.0
H198 H -0.0113 0.67271 0.50125 0.0
H199 H -0.00478 0.65121 0.4389 0.0
Tb200 Tb 0.11584 0.93746 0.91078 0.0
Eu201 Eu 0.23381 0.90697 0.89086 0.0
C202 C 0.23933 0.04023 0.87107 0.0
C203 C 0.11757 0.88152 0.83181 0.0
C204 C -0.03921 0.94596 0.91668 0.0
C205 C 0.85972 0.94293 0.93444 0.0
C206 C 0.92865 0.97692 0.93303 0.0
C207 C 0.92375 0.88466 0.89783 0.0
C208 C 0.8545 0.85064 0.89898 0.0
C209 C 0.82185 0.87705 0.91959 0.0
C210 C 0.03081 0.97196 0.92472 0.0
O211 O 0.06957 0.82696 0.90874 0.0
O212 O 0.16212 0.82629 0.92735 0.0
O213 O 0.26745 0.97328 0.94155 0.0
O214 O 0.16528 0.94761 0.96232 0.0
C215 C 0.09798 0.79499 0.92244 0.0
O216 O 0.26528 0.83431 0.87548 0.0
O217 O 0.33863 0.93857 0.88923 0.0
O218 O 0.24595 -0.00789 0.85609 0.0
O219 O 0.21074 0.02852 0.90195 0.0
O220 O 0.09315 0.90796 0.85453 0.0
O221 O 0.16725 0.87168 0.84096 0.0
C222 C 0.22956 0.97364 0.96761 0.0
O223 O 0.04286 0.93272 0.94479 0.0
O224 O 0.07193 -0.0037 0.89832 0.0
C225 C 0.3651 0.88788 0.84284 0.0
C226 C 0.43779 0.94403 0.78098 0.0
C227 C 0.36889 0.90021 0.77911 0.0
C228 C 0.33265 0.87276 0.8099 0.0
C229 C 0.43456 0.92344 0.84407 0.0
C230 C 0.47083 0.95143 0.81325 0.0
C231 C 0.32808 0.88081 0.87549 0.0
H232 H 0.83714 0.96541 0.95065 0.0
H233 H -0.04322 0.02459 0.94744 0.0
H234 H 0.94824 0.86059 0.88467 0.0
H235 H 0.82695 0.80093 0.88649 0.0
H236 H 0.34204 0.89393 0.75465 0.0
H237 H 0.27904 0.84549 0.80822 0.0
H238 H 0.46043 0.93539 0.86926 0.0
H239 H 0.52394 -0.0154 0.81528 0.0
H240 H -0.01714 0.08109 1.15263 0.0
H241 H -0.02752 0.90993 0.20719 0.0
H242 H 0.09301 0.96576 0.20797 0.0
H243 H 0.19307 0.07532 0.21322 0.0
H244 H 0.20774 0.25239 1.16304 0.0
H245 H 0.09173 0.18404 1.14303 0.0
C246 C 0.00724 0.05503 1.16331 0.0
C247 C -0.03037 -0.00745 1.18066 0.0
C248 C 0.07636 0.09052 1.16699 0.0
C249 C 0.00086 0.95819 1.19384 0.0
C250 C 0.06965 -0.00902 1.19527 0.0
C251 C 0.17215 0.09863 1.19662 0.0
C252 C 0.20811 0.16877 1.18997 0.0
C253 C 0.10694 0.05924 1.1851 0.0
C254 C 0.18026 0.19845 1.1687 0.0
C255 C 0.11428 0.15936 1.15726 0.0
H256 H 0.04172 -0.00246 0.49567 0.0
H257 H 0.15666 0.96787 0.57532 0.0
H258 H 0.23262 0.09053 0.57902 0.0
H259 H 0.2429 0.20208 0.57339 0.0
H260 H 0.11435 0.23109 0.50196 0.0
H261 H 0.06469 0.11249 0.48213 0.0
C262 C 0.08563 0.01815 0.51234 0.0
C263 C 0.09337 0.9752 0.53587 0.0
C264 C 0.1233 0.08848 0.51755 0.0
C265 C 0.15017 0.0009 0.55717 0.0
C266 C 0.19223 0.07098 0.56001 0.0
C267 C 0.20403 0.18265 0.55344 0.0
C268 C 0.17991 0.22399 0.54031 0.0
C269 C 0.17521 0.11476 0.54282 0.0
C270 C 0.13185 0.19915 0.51333 0.0
C271 C 0.10409 0.13177 0.50172 0.0
H272 H 0.14402 0.02122 0.82531 0.0
H273 H 0.32545 0.17588 0.87299 0.0
H274 H 0.28418 0.25607 0.87198 0.0
H275 H 0.18706 0.26887 0.87448 0.0
H276 H -0.00367 0.10436 0.84026 0.0
H277 H 0.04883 0.03894 0.82103 0.0
C278 C 0.17517 0.0732 0.8343 0.0
C279 C 0.23663 0.09246 0.85015 0.0
C280 C 0.14747 0.11527 0.83821 0.0
C281 C 0.27783 0.16025 0.86075 0.0
C282 C 0.25339 0.20528 0.86111 0.0
C283 C 0.15659 0.21895 0.86253 0.0
C284 C 0.08744 0.19062 0.85976 0.0
C285 C 0.1865 0.18114 0.85285 0.0
C286 C 0.04936 0.12648 0.84356 0.0
C287 C 0.07947 0.0895 0.83222 0.0
H288 H 0.5501 0.58528 1.06256 0.0
H289 H 0.46126 0.61808 1.15525 0.0
H290 H 0.40525 0.66243 1.11861 0.0
H291 H 0.35935 0.66152 1.05965 0.0
H292 H 0.44501 0.62264 0.96729 0.0
H293 H 0.52419 0.61141 1.00409 0.0
C294 C 0.52001 0.60412 1.07473 0.0
C295 C 0.50817 0.59675 1.11123 0.0
C296 C 0.48611 0.62705 1.05344 0.0
C297 C 0.47061 0.62277 1.12704 0.0
C298 C 0.43794 0.6474 1.10607 0.0
C299 C 0.39744 0.65378 1.04761 0.0
C300 C 0.39533 0.64136 1.01101 0.0
C301 C 0.44203 0.64554 1.06909 0.0
C302 C 0.44529 0.63219 0.99546 0.0
C303 C 0.49013 0.62468 1.01656 0.0
H304 H 0.14094 0.59097 0.38474 0.0
H305 H 0.94399 0.43922 0.41602 0.0
H306 H 0.91178 0.41075 0.35401 0.0
H307 H -0.04879 0.40322 0.29555 0.0
H308 H 0.15306 0.54292 0.26598 0.0
H309 H 0.17091 0.60471 0.32194 0.0
C310 C 0.09012 0.55392 0.37793 0.0
C311 C 0.0454 0.51563 0.40475 0.0
C312 C 0.07328 0.53508 0.34235 0.0
C313 C -0.02035 0.46792 0.39567 0.0
C314 C -0.03865 0.45159 0.36024 0.0
C315 C -0.00188 0.44934 0.30041 0.0
C316 C 0.0517 0.46683 0.2774 0.0
C317 C 0.00942 0.48083 0.33373 0.0
C318 C 0.11165 0.52745 0.28381 0.0
C319 C 0.12209 0.56213 0.31606 0.0
H320 H 0.62681 0.06032 0.73869 0.0
H321 H 0.70889 0.27584 0.72209 0.0
H322 H 0.71493 0.25889 0.65862 0.0
H323 H 0.73328 0.18907 0.6142 0.0
H324 H 0.65329 0.97461 0.63319 0.0
H325 H 0.60558 -0.01561 0.68836 0.0
C326 C 0.64304 0.10351 0.7213 0.0
C327 C 0.6718 0.16999 0.73546 0.0
C328 C 0.64738 0.09357 0.68499 0.0
C329 C 0.6901 0.22449 0.71204 0.0
C330 C 0.69352 0.21485 0.67568 0.0
C331 C 0.7028 0.14394 0.62966 0.0
C332 C 0.70019 0.08221 0.62059 0.0
C333 C 0.67831 0.15055 0.66255 0.0
C334 C 0.65799 0.02343 0.6399 0.0
C335 C 0.63136 0.02908 0.67194 0.0
H336 H 0.63693 0.70663 1.03572 0.0
H337 H 0.60657 0.87965 1.04021 0.0
H338 H 0.64979 0.91104 0.98059 0.0
H339 H 0.72463 0.90777 0.93582 0.0
H340 H 0.76653 0.74219 0.93646 0.0
H341 H 0.68722 0.68769 0.98344 0.0
C342 C 0.63794 0.75011 1.02333 0.0
C343 C 0.62039 0.79171 1.04299 0.0
C344 C 0.66549 0.76964 0.9896 0.0
C345 C 0.62007 0.84665 1.02601 0.0
C346 C 0.6455 0.86519 0.99188 0.0
C347 C 0.71503 0.85879 0.94558 0.0
C348 C 0.7543 0.83129 0.93378 0.0
C349 C 0.67285 0.82993 0.97463 0.0
C350 C 0.73853 0.76593 0.94532 0.0
C351 C 0.69371 0.73492 0.9728 0.0
H352 H 0.83128 0.65759 0.38234 0.0
H353 H -0.02904 0.58517 0.38584 0.0
H354 H 0.01595 0.63759 0.32899 0.0
H355 H 0.03619 0.73052 0.28977 0.0
H356 H 0.90019 0.80806 0.28757 0.0
H357 H 0.8317 0.72515 0.33196 0.0
C358 C 0.86944 0.65038 0.37001 0.0
C359 C 0.89915 0.61911 0.38889 0.0
C360 C 0.89678 0.6831 0.33795 0.0
C361 C 0.94833 0.6102 0.37224 0.0
C362 C -0.02568 0.64061 0.33978 0.0
C363 C -0.01001 0.72756 0.29752 0.0
C364 C -0.02486 0.77779 0.28654 0.0
C365 C -0.04778 0.68148 0.32392 0.0
C366 C 0.91428 0.77179 0.29667 0.0
C367 C 0.8752 0.72456 0.32221 0.0
H368 H 0.50534 0.07918 0.79071 0.0
H369 H 0.43633 0.92423 0.7091 0.0
H370 H 0.45491 0.00961 0.66438 0.0
H371 H 0.4695 0.12271 0.65129 0.0
H372 H 0.53331 0.2749 0.73425 0.0
H373 H 0.54021 0.19657 0.77568 0.0
C374 C 0.49715 0.06451 0.76295 0.0
C375 C 0.46945 -0.00436 0.75311 0.0
C376 C 0.50556 0.11311 0.73787 0.0
C377 C 0.45769 0.9771 0.71716 0.0
C378 C 0.46767 0.02572 0.69173 0.0
C379 C 0.48591 0.13886 0.67832 0.0
C380 C 0.49922 0.20359 0.69008 0.0
C381 C 0.4881 0.09301 0.70217 0.0
C382 C 0.52224 0.22502 0.72477 0.0
C383 C 0.52568 0.18013 0.7485 0.0
H384 H 0.59996 0.24001 0.23865 0.0
H385 H 0.44906 0.04852 0.28122 0.0
H386 H 0.52791 0.00792 0.28378 0.0
H387 H 0.63691 0.02254 0.26972 0.0
H388 H 0.78871 0.21343 0.22741 0.0
H389 H 0.71257 0.25826 0.22934 0.0
C390 C 0.58445 0.18972 0.24892 0.0
C391 C 0.51816 0.14736 0.25935 0.0
C392 C 0.63016 0.16614 0.25018 0.0
C393 C 0.4994 0.08239 0.27273 0.0
C394 C 0.54452 0.05885 0.27417 0.0
C395 C 0.65365 0.07419 0.2612 0.0
C396 C 0.7183 0.11414 0.24808 0.0
C397 C 0.60957 0.09965 0.26225 0.0
C398 C 0.73917 0.18126 0.23751 0.0
C399 C 0.69555 0.20697 0.23851 0.0
H400 H 0.49148 0.55934 0.61326 0.0
H401 H 0.44669 0.67212 0.53789 0.0
H402 H 0.56189 0.76647 0.54117 0.0
H403 H 0.67869 0.80687 0.55845 0.0
H404 H 0.72095 0.68795 0.63168 0.0
H405 H 0.60335 0.60628 0.6367 0.0
C406 C 0.50674 0.60552 0.59835 0.0
C407 C 0.46162 0.60941 0.57537 0.0
C408 C 0.57276 0.6578 0.59963 0.0
C409 C 0.48107 0.66886 0.55599 0.0
C410 C 0.54692 0.72223 0.55761 0.0
C411 C 0.66187 0.76385 0.57605 0.0
C412 C 0.70842 0.75263 0.5941 0.0
C413 C 0.59385 0.71592 0.57825 0.0
C414 C 0.68613 0.69697 0.61699 0.0
C415 C 0.61889 0.65023 0.61993 0.0
H416 H 0.01891 0.49569 0.95518 0.0
H417 H 0.93208 0.46398 0.85092 0.0
H418 H -0.04754 0.58115 0.85126 0.0
H419 H 0.01029 0.69719 0.8778 0.0
H420 H 0.10617 0.72867 0.97936 0.0
H421 H 0.06616 0.60675 0.98382 0.0
C422 C 0.00343 0.51389 0.93267 0.0
C423 C -0.02508 0.47153 0.90284 0.0
C424 C 0.01725 0.58152 0.93262 0.0
C425 C -0.04547 0.49577 0.87412 0.0
C426 C -0.03356 0.56283 0.87426 0.0
C427 C 0.02042 0.6767 0.90132 0.0
C428 C 0.06063 0.72121 0.92836 0.0
C429 C -0.00015 0.60687 0.90288 0.0
C430 C 0.075 0.6949 0.95839 0.0
C431 C 0.05252 0.62542 0.96081 0.0
H432 H 0.33686 0.20771 0.36802 0.0
H433 H 0.3939 0.39034 0.30876 0.0
H434 H 0.38002 0.4454 0.36147 0.0
H435 H 0.3525 0.44337 0.42605 0.0
H436 H 0.29817 0.26028 0.48448 0.0
H437 H 0.30935 0.20529 0.43144 0.0
C438 C 0.34662 0.25968 0.36649 0.0
C439 C 0.36691 0.2942 0.3338 0.0
C440 C 0.33852 0.29169 0.3973 0.0
C441 C 0.37862 0.36172 0.33309 0.0
C442 C 0.37043 0.39357 0.36348 0.0
C443 C 0.34252 0.3913 0.42712 0.0
C444 C 0.32447 0.35668 0.45992 0.0
C445 C 0.3503 0.35929 0.39596 0.0
C446 C 0.31258 0.28911 0.46018 0.0
C447 C 0.31901 0.25718 0.4296 0.0
H448 H 0.11952 0.3665 0.65464 0.0
H449 H 0.31593 0.43849 0.69656 0.0
H450 H 0.27346 0.42647 0.75685 0.0
H451 H 0.18015 0.39431 0.79876 0.0
H452 H -0.01753 0.315 0.7572 0.0
H453 H 0.02542 0.33106 0.69672 0.0
C454 C 0.1533 0.37989 0.67689 0.0
C455 C 0.22159 0.40402 0.67035 0.0
C456 C 0.12802 0.37148 0.71208 0.0
C457 C 0.26352 0.41994 0.70011 0.0
C458 C 0.23909 0.41311 0.73489 0.0
C459 C 0.14631 0.38099 0.77654 0.0
C460 C 0.07765 0.35403 0.78317 0.0
C461 C 0.1714 0.38888 0.74137 0.0
C462 C 0.03524 0.33603 0.7535 0.0
C463 C 0.05997 0.34524 0.71865 0.0
H464 H 0.86679 0.15946 0.99113 0.0
H465 H 0.06948 0.3017 1.02001 0.0
H466 H 0.04726 0.26085 1.08082 0.0
H467 H -0.02927 0.18503 1.12698 0.0
H468 H 0.76859 0.04062 1.09842 0.0
H469 H 0.79023 0.08178 1.03745 0.0
C470 C 0.90635 0.18173 1.0106 0.0
C471 C -0.0298 0.23438 1.00011 0.0
C472 C 0.89322 0.1575 1.04621 0.0
C473 C 0.02003 0.2615 1.02646 0.0
C474 C 0.00725 0.23806 1.06162 0.0
C475 C 0.931 0.16246 1.1076 0.0
C476 C 0.86751 0.10944 1.11819 0.0
C477 C 0.94405 0.18618 1.072 0.0
C478 C 0.81772 0.08133 1.09185 0.0
C479 C 0.83021 0.105 1.05664 0.0
H480 H 0.89622 0.04138 0.35435 0.0
H481 H 0.78037 0.83747 0.31248 0.0
H482 H 0.78619 0.79102 0.36996 0.0
H483 H 0.82396 0.80789 0.43404 0.0
H484 H 0.93941 0.01451 0.4735 0.0
H485 H 0.93385 0.05816 0.41633 0.0
C486 C 0.87194 -0.01335 0.35754 0.0
C487 C 0.83742 0.94367 0.32833 0.0
C488 C 0.87544 0.95984 0.39101 0.0
C489 C 0.80699 0.8727 0.33392 0.0
C490 C 0.81047 0.8458 0.3671 0.0
C491 C 0.84806 0.86243 0.43021 0.0
C492 C 0.88194 0.90697 0.45931 0.0
C493 C 0.84451 0.88872 0.39619 0.0
C494 C 0.91248 -0.0223 0.45271 0.0
C495 C 0.90947 0.00342 0.41954 0.0
H496 H 0.04008 0.8158 0.66591 0.0
H497 H 0.9083 0.89039 0.69544 0.0
H498 H 0.94665 0.90495 0.7563 0.0
H499 H 0.01958 0.90096 0.80221 0.0
H500 H 0.15374 0.82861 0.77484 0.0
H501 H 0.1129 0.80914 0.71355 0.0
C502 C 0.01915 0.83451 0.68567 0.0
C503 C -0.02935 0.8518 0.6751 0.0
C504 C 0.04231 0.84376 0.72168 0.0
C505 C 0.94548 0.87668 0.70181 0.0
C506 C -0.03247 0.88518 0.73708 0.0
C507 C 0.03992 0.88043 0.78308 0.0
C508 C 0.0901 0.86625 0.79402 0.0
C509 C 0.01632 0.86961 0.74745 0.0
C510 C 0.11519 0.84005 0.76797 0.0
C511 C 0.09172 0.8289 0.73256 0.0
H512 H 0.17245 0.95028 1.0343 0.0
H513 H 0.35724 0.07595 0.98102 0.0
H514 H 0.40707 0.1366 1.03662 0.0
H515 H 0.39845 0.15623 1.10148 0.0
H516 H 0.21576 0.02182 1.15485 0.0
H517 H 0.16628 0.96413 1.09922 0.0
C518 C 0.22374 -0.00923 1.03475 0.0
C519 C 0.26047 0.00807 1.00285 0.0
C520 C 0.25305 0.02478 1.06739 0.0
C521 C 0.32723 0.06066 1.0047 0.0
C522 C 0.35595 0.09583 1.03673 0.0
C523 C 0.34792 0.11418 1.10106 0.0
C524 C 0.31137 0.09475 1.13314 0.0
C525 C 0.31946 0.07871 1.06844 0.0
C526 C 0.24591 0.03921 1.13128 0.0
C527 C 0.21709 0.00563 1.09913 0.0
loop_
_geom_bond_atom_site_label_1
_geom_bond_atom_site_label_2
_geom_bond_distance
_geom_bond_site_symmetry_2
_ccdc_geom_bond_type
Tb0 C10 2.825 . S
Tb0 O11 2.347 . S
Tb0 O14 2.366 . S
Tb0 O19 2.418 . S
Tb0 O20 2.384 1_554 S
Tb0 O23 2.479 . S
Tb0 O24 2.471 . S
Eu1 O12 2.420 . S
Eu1 O13 2.384 1_556 S
Eu1 O16 2.479 . S
Eu1 O17 2.471 . S
Eu1 O18 2.347 1_556 S
Eu1 O21 2.366 . S
Eu1 C31 2.825 . S
C2 O18 1.259 . S
C2 O19 1.265 . S
C3 O20 1.255 . S
C3 O21 1.265 . S
C4 C6 1.380 . S
C4 C7 1.374 . S
C4 C10 1.507 . S
C5 C6 1.384 . S
C5 C9 1.387 . S
C5 H32 0.930 . S
C6 C4 1.380 . S
C6 C5 1.384 . S
C6 H33 0.931 . S
C7 C4 1.374 . S
C7 C8 1.390 . S
C7 H34 0.930 . S
C8 C7 1.390 . S
C8 C9 1.391 . S
C8 H35 0.930 . S
C9 C5 1.387 . S
C9 C8 1.391 . S
C10 Tb0 2.825 . S
C10 C4 1.507 . S
C10 O23 1.238 . S
C10 O24 1.247 . S
O11 Tb0 2.347 . S
O11 C15 1.259 . S
O12 Eu1 2.420 . S
O12 C15 1.249 1_556 S
O13 Eu1 2.384 1_554 S
O13 C22 1.255 . S
O14 Tb0 2.366 . S
O14 C22 1.265 . S
C15 O11 1.259 . S
C15 O12 1.249 1_554 S
O16 Eu1 2.479 . S
O16 C31 1.238 . S
O17 Eu1 2.471 . S
O17 C31 1.247 . S
O18 Eu1 2.347 1_554 S
O18 C2 1.259 . S
O19 Tb0 2.418 . S
O19 C2 1.265 . S
O20 Tb0 2.384 1_556 S
O20 C3 1.255 . S
O21 Eu1 2.366 . S
O21 C3 1.265 . S
C22 O13 1.255 . S
C22 O14 1.265 . S
O23 Tb0 2.479 . S
O23 C10 1.238 . S
O24 Tb0 2.471 . S
O24 C10 1.247 . S
C25 C28 1.380 . S
C25 C29 1.374 . S
C25 C31 1.507 . S
C26 C27 1.387 . S
C26 C30 1.391 . S
C27 C26 1.387 . S
C27 C28 1.384 . S
C27 H36 0.930 . S
C28 C25 1.380 . S
C28 C27 1.384 . S
C28 H37 0.931 . S
C29 C25 1.374 . S
C29 C30 1.390 . S
C29 H38 0.930 . S
C30 C26 1.391 . S
C30 C29 1.390 . S
C30 H39 0.930 . S
C31 Eu1 2.825 . S
C31 O16 1.238 . S
C31 O17 1.247 . S
C31 C25 1.507 . S
H32 C5 0.930 . S
H33 C6 0.931 . S
H34 C7 0.930 . S
H35 C8 0.930 . S
H36 C27 0.930 . S
H37 C28 0.931 . S
H38 C29 0.930 . S
H39 C30 0.930 . S
Tb40 C50 2.825 . S
Tb40 O51 2.347 . S
Tb40 O54 2.366 . S
Tb40 O59 2.418 . S
Tb40 O60 2.384 . S
Tb40 O63 2.479 . S
Tb40 O64 2.471 . S
Eu41 O52 2.418 . S
Eu41 O53 2.384 . S
Eu41 O56 2.479 . S
Eu41 O57 2.471 . S
Eu41 O58 2.347 . S
Eu41 O61 2.366 . S
Eu41 C71 2.825 . S
C42 O58 1.259 . S
C42 O59 1.265 . S
C43 O60 1.255 . S
C43 O61 1.265 . S
C44 C46 1.380 . S
C44 C47 1.374 . S
C44 C50 1.507 . S
C45 C46 1.384 . S
C45 C49 1.387 . S
C45 H72 0.930 . S
C46 C44 1.380 . S
C46 C45 1.384 . S
C46 H73 0.931 . S
C47 C44 1.374 . S
C47 C48 1.390 . S
C47 H74 0.930 . S
C48 C47 1.390 . S
C48 C49 1.391 . S
C48 H75 0.930 . S
C49 C45 1.387 . S
C49 C48 1.391 . S
C50 Tb40 2.825 . S
C50 C44 1.507 . S
C50 O63 1.238 . S
C50 O64 1.247 . S
O51 Tb40 2.347 . S
O51 C55 1.259 . S
O52 Eu41 2.418 . S
O52 C55 1.265 . S
O53 Eu41 2.384 . S
O53 C62 1.255 . S
O54 Tb40 2.366 . S
O54 C62 1.265 . S
C55 O51 1.259 . S
C55 O52 1.265 . S
O56 Eu41 2.479 . S
O56 C71 1.238 . S
O57 Eu41 2.471 . S
O57 C71 1.247 . S
O58 Eu41 2.347 . S
O58 C42 1.259 . S
O59 Tb40 2.418 . S
O59 C42 1.265 . S
O60 Tb40 2.384 . S
O60 C43 1.255 . S
O61 Eu41 2.366 . S
O61 C43 1.265 . S
C62 O53 1.255 . S
C62 O54 1.265 . S
O63 Tb40 2.479 . S
O63 C50 1.238 . S
O64 Tb40 2.471 . S
O64 C50 1.247 . S
C65 C68 1.380 . S
C65 C69 1.374 . S
C65 C71 1.507 . S
C66 C67 1.387 . S
C66 C70 1.391 . S
C67 C66 1.387 . S
C67 C68 1.384 . S
C67 H76 0.930 . S
C68 C65 1.380 . S
C68 C67 1.384 . S
C68 H77 0.931 . S
C69 C65 1.374 . S
C69 C70 1.390 . S
C69 H78 0.930 . S
C70 C66 1.391 . S
C70 C69 1.390 . S
C70 H79 0.930 . S
C71 Eu41 2.825 . S
C71 O56 1.238 . S
C71 O57 1.247 . S
C71 C65 1.507 . S
H72 C45 0.930 . S
H73 C46 0.931 . S
H74 C47 0.930 . S
H75 C48 0.930 . S
H76 C67 0.930 . S
H77 C68 0.931 . S
H78 C69 0.930 . S
H79 C70 0.930 . S
Tb80 C90 2.825 . S
Tb80 O91 2.347 . S
Tb80 O94 2.366 . S
Tb80 O99 2.418 . S
Tb80 O100 2.384 . S
Tb80 O103 2.479 . S
Tb80 O104 2.471 . S
Eu81 O92 2.418 . S
Eu81 O93 2.384 . S
Eu81 O96 2.479 . S
Eu81 O97 2.471 . S
Eu81 O98 2.347 . S
Eu81 O101 2.370 . S
Eu81 C111 2.825 . S
C82 O98 1.259 1_455 S
C82 O99 1.265 . S
C83 O100 1.255 . S
C83 O101 1.259 1_455 S
C84 C86 1.380 . S
C84 C87 1.374 . S
C84 C90 1.507 . S
C85 C86 1.384 . S
C85 C89 1.387 . S
C85 H112 0.930 . S
C86 C84 1.380 . S
C86 C85 1.384 . S
C86 H113 0.931 . S
C87 C84 1.374 . S
C87 C88 1.390 . S
C87 H114 0.930 . S
C88 C87 1.390 . S
C88 C89 1.391 . S
C88 H115 0.930 . S
C89 C85 1.387 . S
C89 C88 1.391 . S
C90 Tb80 2.825 . S
C90 C84 1.507 . S
C90 O103 1.238 . S
C90 O104 1.247 . S
O91 Tb80 2.347 . S
O91 C95 1.259 1_455 S
O92 Eu81 2.418 . S
O92 C95 1.265 . S
O93 Eu81 2.384 . S
O93 C102 1.255 . S
O94 Tb80 2.366 . S
O94 C102 1.265 1_455 S
C95 O91 1.259 1_655 S
C95 O92 1.265 . S
O96 Eu81 2.479 . S
O96 C111 1.238 . S
O97 Eu81 2.471 . S
O97 C111 1.247 . S
O98 Eu81 2.347 . S
O98 C82 1.259 1_655 S
O99 Tb80 2.418 . S
O99 C82 1.265 . S
O100 Tb80 2.384 . S
O100 C83 1.255 . S
O101 Eu81 2.370 . S
O101 C83 1.259 1_655 S
C102 O93 1.255 . S
C102 O94 1.265 1_655 S
O103 Tb80 2.479 . S
O103 C90 1.238 . S
O104 Tb80 2.471 . S
O104 C90 1.247 . S
C105 C108 1.380 . S
C105 C109 1.374 . S
C105 C111 1.507 . S
C106 C107 1.387 . S
C106 C110 1.391 . S
C107 C106 1.387 . S
C107 C108 1.384 . S
C107 H116 0.930 . S
C108 C105 1.380 . S
C108 C107 1.384 . S
C108 H117 0.931 . S
C109 C105 1.374 . S
C109 C110 1.390 . S
C109 H118 0.930 . S
C110 C106 1.391 . S
C110 C109 1.390 . S
C110 H119 0.930 . S
C111 Eu81 2.825 . S
C111 O96 1.238 . S
C111 O97 1.247 . S
C111 C105 1.507 . S
H112 C85 0.930 . S
H113 C86 0.931 . S
H114 C87 0.930 . S
H115 C88 0.930 . S
H116 C107 0.930 . S
H117 C108 0.931 . S
H118 C109 0.930 . S
H119 C110 0.930 . S
Tb120 C130 2.825 . S
Tb120 O131 2.347 . S
Tb120 O134 2.366 . S
Tb120 O139 2.418 . S
Tb120 O140 2.384 1_554 S
Tb120 O143 2.479 . S
Tb120 O144 2.471 . S
Eu121 O132 2.420 . S
Eu121 O133 2.384 1_556 S
Eu121 O136 2.479 . S
Eu121 O137 2.471 . S
Eu121 O138 2.347 1_566 S
Eu121 O141 2.366 1_565 S
Eu121 C151 2.825 . S
C122 O138 1.259 . S
C122 O139 1.265 . S
C123 O140 1.255 . S
C123 O141 1.265 . S
C124 C126 1.380 . S
C124 C127 1.374 . S
C124 C130 1.507 . S
C125 C126 1.384 . S
C125 C129 1.387 . S
C125 H152 0.930 . S
C126 C124 1.380 . S
C126 C125 1.384 . S
C126 H153 0.931 . S
C127 C124 1.374 . S
C127 C128 1.390 . S
C127 H154 0.930 . S
C128 C127 1.390 . S
C128 C129 1.391 . S
C128 H155 0.930 . S
C129 C125 1.387 . S
C129 C128 1.391 . S
C130 Tb120 2.825 . S
C130 C124 1.507 . S
C130 O143 1.238 . S
C130 O144 1.247 . S
O131 Tb120 2.347 . S
O131 C135 1.259 1_545 S
O132 Eu121 2.420 . S
O132 C135 1.248 1_556 S
O133 Eu121 2.384 1_554 S
O133 C142 1.255 . S
O134 Tb120 2.366 . S
O134 C142 1.265 1_545 S
C135 O131 1.259 1_565 S
C135 O132 1.248 1_554 S
O136 Eu121 2.479 . S
O136 C151 1.238 . S
O137 Eu121 2.471 . S
O137 C151 1.247 . S
O138 Eu121 2.347 1_544 S
O138 C122 1.259 . S
O139 Tb120 2.418 . S
O139 C122 1.265 . S
O140 Tb120 2.384 1_556 S
O140 C123 1.255 . S
O141 Eu121 2.366 1_545 S
O141 C123 1.265 . S
C142 O133 1.255 . S
C142 O134 1.265 1_565 S
O143 Tb120 2.479 . S
O143 C130 1.238 . S
O144 Tb120 2.471 . S
O144 C130 1.247 . S
C145 C148 1.380 . S
C145 C149 1.374 . S
C145 C151 1.507 . S
C146 C147 1.387 . S
C146 C150 1.391 . S
C147 C146 1.387 . S
C147 C148 1.384 . S
C147 H156 0.930 . S
C148 C145 1.380 . S
C148 C147 1.384 . S
C148 H157 0.931 . S
C149 C145 1.374 . S
C149 C150 1.390 . S
C149 H158 0.930 . S
C150 C146 1.391 . S
C150 C149 1.390 . S
C150 H159 0.930 . S
C151 Eu121 2.825 . S
C151 O136 1.238 . S
C151 O137 1.247 . S
C151 C145 1.507 . S
H152 C125 0.930 . S
H153 C126 0.931 . S
H154 C127 0.930 . S
H155 C128 0.930 . S
H156 C147 0.930 . S
H157 C148 0.931 . S
H158 C149 0.930 . S
H159 C150 0.930 . S
Tb160 C170 2.825 . S
Tb160 O171 2.347 . S
Tb160 O174 2.366 . S
Tb160 O179 2.418 1_655 S
Tb160 O180 2.384 . S
Tb160 O183 2.479 . S
Tb160 O184 2.471 . S
Eu161 O172 2.418 1_455 S
Eu161 O173 2.384 . S
Eu161 O176 2.479 . S
Eu161 O177 2.471 . S
Eu161 O178 2.347 . S
Eu161 O181 2.366 1_455 S
Eu161 C191 2.825 . S
C162 O178 1.259 . S
C162 O179 1.265 . S
C163 O180 1.255 . S
C163 O181 1.265 . S
C164 C166 1.380 . S
C164 C167 1.374 . S
C164 C170 1.507 . S
C165 C166 1.384 . S
C165 C169 1.387 . S
C165 H192 0.942 . S
C166 C164 1.380 . S
C166 C165 1.384 . S
C166 H193 0.931 1_565 S
C167 C164 1.374 . S
C167 C168 1.390 . S
C167 H194 0.930 . S
C168 C167 1.390 . S
C168 C169 1.391 . S
C168 H195 0.930 . S
C169 C165 1.387 . S
C169 C168 1.391 . S
C170 Tb160 2.825 . S
C170 C164 1.507 . S
C170 O183 1.238 . S
C170 O184 1.247 . S
O171 Tb160 2.347 . S
O171 C175 1.259 . S
O172 Eu161 2.418 1_655 S
O172 C175 1.265 . S
O173 Eu161 2.384 . S
O173 C182 1.255 . S
O174 Tb160 2.366 . S
O174 C182 1.265 1_655 S
C175 O171 1.259 . S
C175 O172 1.265 . S
O176 Eu161 2.479 . S
O176 C191 1.238 . S
O177 Eu161 2.471 . S
O177 C191 1.247 . S
O178 Eu161 2.347 . S
O178 C162 1.259 . S
O179 Tb160 2.418 1_455 S
O179 C162 1.265 . S
O180 Tb160 2.384 . S
O180 C163 1.255 . S
O181 Eu161 2.366 1_655 S
O181 C163 1.265 . S
C182 O173 1.255 . S
C182 O174 1.265 1_455 S
O183 Tb160 2.479 . S
O183 C170 1.238 . S
O184 Tb160 2.471 . S
O184 C170 1.247 . S
C185 C188 1.380 . S
C185 C189 1.374 . S
C185 C191 1.507 . S
C186 C187 1.387 . S
C186 C190 1.391 . S
C187 C186 1.387 . S
C187 C188 1.384 . S
C187 H196 0.930 . S
C188 C185 1.380 . S
C188 C187 1.384 . S
C188 H197 0.931 . S
C189 C185 1.374 . S
C189 C190 1.390 . S
C189 H198 0.930 . S
C190 C186 1.391 . S
C190 C189 1.390 . S
C190 H199 0.930 . S
C191 Eu161 2.825 . S
C191 O176 1.238 . S
C191 O177 1.247 . S
C191 C185 1.507 . S
H192 C165 0.942 . S
H193 C166 0.931 1_545 S
H194 C167 0.930 . S
H195 C168 0.930 . S
H196 C187 0.930 . S
H197 C188 0.931 . S
H198 C189 0.930 . S
H199 C190 0.930 . S
Tb200 C210 2.825 . S
Tb200 O211 2.347 . S
Tb200 O214 2.366 . S
Tb200 O219 2.418 1_565 S
Tb200 O220 2.384 . S
Tb200 O223 2.479 . S
Tb200 O224 2.471 . S
Eu201 O212 2.418 1_545 S
Eu201 O213 2.384 . S
Eu201 O216 2.479 . S
Eu201 O217 2.471 . S
Eu201 O218 2.347 . S
Eu201 O221 2.366 1_545 S
Eu201 C231 2.825 . S
C202 O218 1.259 . S
C202 O219 1.265 . S
C203 O220 1.255 . S
C203 O221 1.265 . S
C204 C206 1.380 . S
C204 C207 1.374 . S
C204 C210 1.507 . S
C205 C206 1.384 . S
C205 C209 1.387 . S
C205 H232 0.930 1_455 S
C206 C204 1.380 . S
C206 C205 1.384 . S
C206 H233 0.931 . S
C207 C204 1.374 . S
C207 C208 1.390 . S
C207 H234 0.930 . S
C208 C207 1.390 . S
C208 C209 1.391 . S
C208 H235 0.930 . S
C209 C205 1.387 . S
C209 C208 1.391 . S
C210 Tb200 2.825 . S
C210 C204 1.507 . S
C210 O223 1.238 . S
C210 O224 1.247 . S
O211 Tb200 2.347 . S
O211 C215 1.259 . S
O212 Eu201 2.418 1_565 S
O212 C215 1.265 . S
O213 Eu201 2.384 . S
O213 C222 1.255 . S
O214 Tb200 2.366 . S
O214 C222 1.265 1_565 S
C215 O211 1.259 . S
C215 O212 1.265 . S
O216 Eu201 2.479 . S
O216 C231 1.238 . S
O217 Eu201 2.471 . S
O217 C231 1.247 . S
O218 Eu201 2.347 . S
O218 C202 1.259 . S
O219 Tb200 2.418 1_545 S
O219 C202 1.265 . S
O220 Tb200 2.384 . S
O220 C203 1.255 . S
O221 Eu201 2.366 1_565 S
O221 C203 1.265 . S
C222 O213 1.255 . S
C222 O214 1.265 1_545 S
O223 Tb200 2.479 . S
O223 C210 1.238 . S
O224 Tb200 2.471 . S
O224 C210 1.247 . S
C225 C228 1.380 . S
C225 C229 1.374 . S
C225 C231 1.507 . S
C226 C227 1.387 . S
C226 C230 1.391 . S
C227 C226 1.387 . S
C227 C228 1.384 . S
C227 H236 0.930 . S
C228 C225 1.380 . S
C228 C227 1.384 . S
C228 H237 0.931 . S
C229 C225 1.374 . S
C229 C230 1.390 . S
C229 H238 0.930 . S
C230 C226 1.391 . S
C230 C229 1.390 . S
C230 H239 0.930 . S
C231 Eu201 2.825 . S
C231 O216 1.238 . S
C231 O217 1.247 . S
C231 C225 1.507 . S
H232 C205 0.930 1_655 S
H233 C206 0.931 . S
H234 C207 0.930 . S
H235 C208 0.930 . S
H236 C227 0.930 . S
H237 C228 0.931 . S
H238 C229 0.930 . S
H239 C230 0.930 . S
H240 C246 0.930 1_556 S
H241 C249 0.930 1_655 S
H242 C250 0.930 . S
H243 C251 0.930 . S
H244 C254 0.930 . S
H245 C255 0.930 . S
C246 H240 0.930 1_554 S
C246 C247 1.355 . S
C246 C248 1.415 . S
C247 C246 1.355 . S
C247 C249 1.419 . S
C248 C246 1.415 . S
C248 C253 1.425 . S
C248 C255 1.409 1_554 S
C249 H241 0.930 1_455 S
C249 C247 1.419 . S
C249 C250 1.362 . S
C250 H242 0.930 . S
C250 C249 1.362 . S
C250 C253 1.409 . S
C251 H243 0.930 . S
C251 C252 1.355 . S
C251 C253 1.415 . S
C252 C251 1.355 . S
C252 C254 1.419 1_554 S
C253 C248 1.425 . S
C253 C250 1.409 . S
C253 C251 1.415 . S
C254 H244 0.930 . S
C254 C252 1.419 1_556 S
C254 C255 1.362 . S
C255 H245 0.930 . S
C255 C248 1.409 1_556 S
C255 C254 1.362 . S
H256 C262 0.930 . S
H257 C265 0.930 1_565 S
H258 C266 0.930 . S
H259 C267 0.930 . S
H260 C270 0.930 . S
H261 C271 0.930 . S
C262 H256 0.930 . S
C262 C263 1.355 . S
C262 C264 1.415 . S
C263 C262 1.355 . S
C263 C265 1.419 . S
C264 C262 1.415 . S
C264 C269 1.425 . S
C264 C271 1.409 . S
C265 H257 0.930 1_545 S
C265 C263 1.419 . S
C265 C266 1.362 . S
C266 H258 0.930 . S
C266 C265 1.362 . S
C266 C269 1.409 . S
C267 H259 0.930 . S
C267 C268 1.355 . S
C267 C269 1.415 . S
C268 C267 1.355 . S
C268 C270 1.419 . S
C269 C264 1.425 . S
C269 C266 1.409 . S
C269 C267 1.415 . S
C270 H260 0.930 . S
C270 C268 1.419 . S
C270 C271 1.362 . S
C271 H261 0.930 . S
C271 C264 1.409 . S
C271 C270 1.362 . S
H272 C278 0.930 . S
H273 C281 0.930 . S
H274 C282 0.930 . S
H275 C283 0.930 . S
H276 C286 0.930 . S
H277 C287 0.930 . S
C278 H272 0.930 . S
C278 C279 1.355 . S
C278 C280 1.415 . S
C279 C278 1.355 . S
C279 C281 1.419 . S
C280 C278 1.415 . S
C280 C285 1.425 . S
C280 C287 1.409 . S
C281 H273 0.930 . S
C281 C279 1.419 . S
C281 C282 1.362 . S
C282 H274 0.930 . S
C282 C281 1.362 . S
C282 C285 1.409 . S
C283 H275 0.930 . S
C283 C284 1.355 . S
C283 C285 1.415 . S
C284 C283 1.355 . S
C284 C286 1.419 . S
C285 C280 1.425 . S
C285 C282 1.409 . S
C285 C283 1.415 . S
C286 H276 0.930 . S
C286 C284 1.419 . S
C286 C287 1.362 . S
C287 H277 0.930 . S
C287 C280 1.409 . S
C287 C286 1.362 . S
H288 C294 0.930 . S
H289 C297 0.930 . S
H290 C298 0.930 . S
H291 C299 0.930 . S
H292 C302 0.930 . S
H293 C303 0.930 . S
C294 H288 0.930 . S
C294 C295 1.355 . S
C294 C296 1.415 . S
C295 C294 1.355 . S
C295 C297 1.419 . S
C296 C294 1.415 . S
C296 C301 1.425 . S
C296 C303 1.409 . S
C297 H289 0.930 . S
C297 C295 1.419 . S
C297 C298 1.362 . S
C298 H290 0.930 . S
C298 C297 1.362 . S
C298 C301 1.409 . S
C299 H291 0.930 . S
C299 C300 1.355 . S
C299 C301 1.415 . S
C300 C299 1.355 . S
C300 C302 1.419 . S
C301 C296 1.425 . S
C301 C298 1.409 . S
C301 C299 1.415 . S
C302 H292 0.930 . S
C302 C300 1.419 . S
C302 C303 1.362 . S
C303 H293 0.930 . S
C303 C296 1.409 . S
C303 C302 1.362 . S
H304 C310 0.930 . S
H305 C313 0.930 . S
H306 C314 0.930 . S
H307 C315 0.930 . S
H308 C318 0.930 . S
H309 C319 0.930 . S
C310 H304 0.930 . S
C310 C311 1.355 . S
C310 C312 1.415 . S
C311 C310 1.355 . S
C311 C313 1.419 . S
C312 C310 1.415 . S
C312 C317 1.425 1_455 S
C312 C319 1.409 1_455 S
C313 H305 0.930 . S
C313 C311 1.419 . S
C313 C314 1.362 . S
C314 H306 0.930 . S
C314 C313 1.362 . S
C314 C317 1.409 1_455 S
C315 H307 0.930 . S
C315 C316 1.355 . S
C315 C317 1.415 . S
C316 C315 1.355 . S
C316 C318 1.419 . S
C317 C312 1.425 1_655 S
C317 C314 1.409 1_655 S
C317 C315 1.415 . S
C318 H308 0.930 . S
C318 C316 1.419 . S
C318 C319 1.362 . S
C319 H309 0.930 . S
C319 C312 1.409 1_655 S
C319 C318 1.362 . S
H320 C326 0.930 . S
H321 C329 0.930 . S
H322 C330 0.930 1_565 S
H323 C331 0.930 . S
H324 C334 0.930 . S
H325 C335 0.930 . S
C326 H320 0.930 . S
C326 C327 1.355 . S
C326 C328 1.415 . S
C327 C326 1.355 . S
C327 C329 1.419 . S
C328 C326 1.415 . S
C328 C333 1.425 1_545 S
C328 C335 1.409 . S
C329 H321 0.930 . S
C329 C327 1.419 . S
C329 C330 1.362 . S
C330 H322 0.930 1_545 S
C330 C329 1.362 . S
C330 C333 1.409 1_545 S
C331 H323 0.930 . S
C331 C332 1.355 . S
C331 C333 1.415 . S
C332 C331 1.355 . S
C332 C334 1.419 . S
C333 C328 1.425 1_565 S
C333 C330 1.409 1_565 S
C333 C331 1.415 . S
C334 H324 0.930 . S
C334 C332 1.419 . S
C334 C335 1.362 1_565 S
C335 H325 0.930 . S
C335 C328 1.409 . S
C335 C334 1.362 1_545 S
H336 C342 0.930 . S
H337 C345 0.930 . S
H338 C346 0.930 . S
H339 C347 0.930 . S
H340 C350 0.930 . S
H341 C351 0.930 . S
C342 H336 0.930 . S
C342 C343 1.355 . S
C342 C344 1.415 . S
C343 C342 1.355 . S
C343 C345 1.419 . S
C344 C342 1.415 . S
C344 C349 1.425 . S
C344 C351 1.409 . S
C345 H337 0.930 . S
C345 C343 1.419 . S
C345 C346 1.362 . S
C346 H338 0.930 . S
C346 C345 1.362 . S
C346 C349 1.409 . S
C347 H339 0.930 . S
C347 C348 1.355 1_655 S
C347 C349 1.415 . S
C348 C347 1.355 1_455 S
C348 C350 1.419 . S
C349 C344 1.425 . S
C349 C346 1.409 . S
C349 C347 1.415 . S
C350 H340 0.930 . S
C350 C348 1.419 . S
C350 C351 1.362 1_455 S
C351 H341 0.930 . S
C351 C344 1.409 . S
C351 C350 1.362 1_655 S
H352 C358 0.930 . S
H353 C361 0.930 . S
H354 C362 0.930 . S
H355 C363 0.930 . S
H356 C366 0.930 . S
H357 C367 0.930 . S
C358 H352 0.930 . S
C358 C359 1.355 . S
C358 C360 1.415 . S
C359 C358 1.355 . S
C359 C361 1.419 . S
C360 C358 1.415 . S
C360 C365 1.425 . S
C360 C367 1.409 . S
C361 H353 0.930 . S
C361 C359 1.419 . S
C361 C362 1.362 . S
C362 H354 0.930 . S
C362 C361 1.362 . S
C362 C365 1.409 . S
C363 H355 0.930 . S
C363 C364 1.355 . S
C363 C365 1.415 1_545 S
C364 C363 1.355 . S
C364 C366 1.419 . S
C365 C360 1.425 . S
C365 C362 1.409 . S
C365 C363 1.415 1_565 S
C366 H356 0.930 . S
C366 C364 1.419 . S
C366 C367 1.362 1_545 S
C367 H357 0.930 . S
C367 C360 1.409 . S
C367 C366 1.362 1_565 S
H368 C374 0.930 . S
H369 C377 0.930 . S
H370 C378 0.930 . S
H371 C379 0.930 . S
H372 C382 0.930 . S
H373 C383 0.930 . S
C374 H368 0.930 . S
C374 C375 1.355 . S
C374 C376 1.415 . S
C375 C374 1.355 . S
C375 C377 1.419 . S
C376 C374 1.415 . S
C376 C381 1.425 . S
C376 C383 1.409 . S
C377 H369 0.930 . S
C377 C375 1.419 . S
C377 C378 1.362 . S
C378 H370 0.930 . S
C378 C377 1.362 . S
C378 C381 1.409 . S
C379 H371 0.930 . S
C379 C380 1.355 . S
C379 C381 1.415 . S
C380 C379 1.355 . S
C380 C382 1.419 . S
C381 C376 1.425 . S
C381 C378 1.409 . S
C381 C379 1.415 . S
C382 H372 0.930 . S
C382 C380 1.419 . S
C382 C383 1.362 . S
C383 H373 0.930 . S
C383 C376 1.409 . S
C383 C382 1.362 . S
H384 C390 0.930 . S
H385 C393 0.930 . S
H386 C394 0.930 . S
H387 C395 0.930 . S
H388 C398 0.930 . S
H389 C399 0.930 . S
C390 H384 0.930 . S
C390 C391 1.355 . S
C390 C392 1.415 . S
C391 C390 1.355 . S
C391 C393 1.419 . S
C392 C390 1.415 . S
C392 C397 1.425 . S
C392 C399 1.409 . S
C393 H385 0.930 . S
C393 C391 1.419 . S
C393 C394 1.362 . S
C394 H386 0.930 . S
C394 C393 1.362 . S
C394 C397 1.409 . S
C395 H387 0.930 . S
C395 C396 1.355 . S
C395 C397 1.415 . S
C396 C395 1.355 . S
C396 C398 1.419 . S
C397 C392 1.425 . S
C397 C394 1.409 . S
C397 C395 1.415 . S
C398 H388 0.930 . S
C398 C396 1.419 . S
C398 C399 1.362 . S
C399 H389 0.930 . S
C399 C392 1.409 . S
C399 C398 1.362 . S
H400 C406 0.930 . S
H401 C409 0.930 . S
H402 C410 0.930 . S
H403 C411 0.930 . S
H404 C414 0.930 . S
H405 C415 0.930 . S
C406 H400 0.930 . S
C406 C407 1.355 . S
C406 C408 1.415 . S
C407 C406 1.355 . S
C407 C409 1.419 . S
C408 C406 1.415 . S
C408 C413 1.425 . S
C408 C415 1.409 . S
C409 H401 0.930 . S
C409 C407 1.419 . S
C409 C410 1.362 . S
C410 H402 0.930 . S
C410 C409 1.362 . S
C410 C413 1.409 . S
C411 H403 0.930 . S
C411 C412 1.355 . S
C411 C413 1.415 . S
C412 C411 1.355 . S
C412 C414 1.419 . S
C413 C408 1.425 . S
C413 C410 1.409 . S
C413 C411 1.415 . S
C414 H404 0.930 . S
C414 C412 1.419 . S
C414 C415 1.362 . S
C415 H405 0.930 . S
C415 C408 1.409 . S
C415 C414 1.362 . S
H416 C422 0.930 . S
H417 C425 0.930 1_655 S
H418 C426 0.930 . S
H419 C427 0.930 . S
H420 C430 0.930 . S
H421 C431 0.930 . S
C422 H416 0.930 . S
C422 C423 1.355 . S
C422 C424 1.415 . S
C423 C422 1.355 . S
C423 C425 1.419 . S
C424 C422 1.415 . S
C424 C429 1.425 . S
C424 C431 1.409 . S
C425 H417 0.930 1_455 S
C425 C423 1.419 . S
C425 C426 1.362 . S
C426 H418 0.930 . S
C426 C425 1.362 . S
C426 C429 1.409 . S
C427 H419 0.930 . S
C427 C428 1.355 . S
C427 C429 1.415 . S
C428 C427 1.355 . S
C428 C430 1.419 . S
C429 C424 1.425 . S
C429 C426 1.409 . S
C429 C427 1.415 . S
C430 H420 0.930 . S
C430 C428 1.419 . S
C430 C431 1.362 . S
C431 H421 0.930 . S
C431 C424 1.409 . S
C431 C430 1.362 . S
H432 C438 0.930 . S
H433 C441 0.930 . S
H434 C442 0.930 . S
H435 C443 0.930 . S
H436 C446 0.930 . S
H437 C447 0.930 . S
C438 H432 0.930 . S
C438 C439 1.355 . S
C438 C440 1.415 . S
C439 C438 1.355 . S
C439 C441 1.419 . S
C440 C438 1.415 . S
C440 C445 1.425 . S
C440 C447 1.409 . S
C441 H433 0.930 . S
C441 C439 1.419 . S
C441 C442 1.362 . S
C442 H434 0.930 . S
C442 C441 1.362 . S
C442 C445 1.409 . S
C443 H435 0.930 . S
C443 C444 1.355 . S
C443 C445 1.415 . S
C444 C443 1.355 . S
C444 C446 1.419 . S
C445 C440 1.425 . S
C445 C442 1.409 . S
C445 C443 1.415 . S
C446 H436 0.930 . S
C446 C444 1.419 . S
C446 C447 1.362 . S
C447 H437 0.930 . S
C447 C440 1.409 . S
C447 C446 1.362 . S
H448 C454 0.930 . S
H449 C457 0.930 . S
H450 C458 0.930 . S
H451 C459 0.930 . S
H452 C462 0.930 . S
H453 C463 0.930 . S
C454 H448 0.930 . S
C454 C455 1.355 . S
C454 C456 1.415 . S
C455 C454 1.355 . S
C455 C457 1.419 . S
C456 C454 1.415 . S
C456 C461 1.425 . S
C456 C463 1.409 . S
C457 H449 0.930 . S
C457 C455 1.419 . S
C457 C458 1.362 . S
C458 H450 0.930 . S
C458 C457 1.362 . S
C458 C461 1.409 . S
C459 H451 0.930 . S
C459 C460 1.355 . S
C459 C461 1.415 . S
C460 C459 1.355 . S
C460 C462 1.419 . S
C461 C456 1.425 . S
C461 C458 1.409 . S
C461 C459 1.415 . S
C462 H452 0.930 . S
C462 C460 1.419 . S
C462 C463 1.362 . S
C463 H453 0.930 . S
C463 C456 1.409 . S
C463 C462 1.362 . S
H464 C470 0.930 . S
H465 C473 0.930 1_455 S
H466 C474 0.930 1_455 S
H467 C475 0.930 . S
H468 C478 0.930 . S
H469 C479 0.930 . S
C470 H464 0.930 . S
C470 C471 1.355 . S
C470 C472 1.415 . S
C471 C470 1.355 . S
C471 C473 1.419 . S
C472 C470 1.415 . S
C472 C477 1.425 . S
C472 C479 1.409 . S
C473 H465 0.930 1_655 S
C473 C471 1.419 . S
C473 C474 1.362 . S
C474 H466 0.930 1_655 S
C474 C473 1.362 . S
C474 C477 1.409 . S
C475 H467 0.930 . S
C475 C476 1.355 . S
C475 C477 1.415 . S
C476 C475 1.355 . S
C476 C478 1.419 . S
C477 C472 1.425 . S
C477 C474 1.409 . S
C477 C475 1.415 . S
C478 H468 0.930 . S
C478 C476 1.419 . S
C478 C479 1.362 . S
C479 H469 0.930 . S
C479 C472 1.409 . S
C479 C478 1.362 . S
H480 C486 0.930 . S
H481 C489 0.930 . S
H482 C490 0.930 . S
H483 C491 0.930 . S
H484 C494 0.930 . S
H485 C495 0.930 . S
C486 H480 0.930 . S
C486 C487 1.355 . S
C486 C488 1.415 . S
C487 C486 1.355 . S
C487 C489 1.419 . S
C488 C486 1.415 . S
C488 C493 1.425 . S
C488 C495 1.409 . S
C489 H481 0.930 . S
C489 C487 1.419 . S
C489 C490 1.362 . S
C490 H482 0.930 . S
C490 C489 1.362 . S
C490 C493 1.409 . S
C491 H483 0.930 . S
C491 C492 1.355 . S
C491 C493 1.415 . S
C492 C491 1.355 . S
C492 C494 1.419 . S
C493 C488 1.425 . S
C493 C490 1.409 . S
C493 C491 1.415 . S
C494 H484 0.930 . S
C494 C492 1.419 . S
C494 C495 1.362 . S
C495 H485 0.930 . S
C495 C488 1.409 . S
C495 C494 1.362 . S
H496 C502 0.930 . S
H497 C505 0.930 . S
H498 C506 0.930 . S
H499 C507 0.930 . S
H500 C510 0.930 . S
H501 C511 0.930 . S
C502 H496 0.930 . S
C502 C503 1.355 . S
C502 C504 1.415 . S
C503 C502 1.355 . S
C503 C505 1.419 . S
C504 C502 1.415 . S
C504 C509 1.425 . S
C504 C511 1.409 . S
C505 H497 0.930 . S
C505 C503 1.419 . S
C505 C506 1.362 . S
C506 H498 0.930 . S
C506 C505 1.362 . S
C506 C509 1.409 . S
C507 H499 0.930 . S
C507 C508 1.355 . S
C507 C509 1.415 . S
C508 C507 1.355 . S
C508 C510 1.419 . S
C509 C504 1.425 . S
C509 C506 1.409 . S
C509 C507 1.415 . S
C510 H500 0.930 . S
C510 C508 1.419 . S
C510 C511 1.362 . S
C511 H501 0.930 . S
C511 C504 1.409 . S
C511 C510 1.362 . S
H512 C518 0.930 . S
H513 C521 0.930 . S
H514 C522 0.930 . S
H515 C523 0.930 . S
H516 C526 0.930 . S
H517 C527 0.930 . S
C518 H512 0.930 . S
C518 C519 1.355 . S
C518 C520 1.415 . S
C519 C518 1.355 . S
C519 C521 1.419 . S
C520 C518 1.415 . S
C520 C525 1.425 . S
C520 C527 1.409 . S
C521 H513 0.930 . S
C521 C519 1.419 . S
C521 C522 1.362 . S
C522 H514 0.930 . S
C522 C521 1.362 . S
C522 C525 1.409 . S
C523 H515 0.930 . S
C523 C524 1.355 . S
C523 C525 1.415 . S
C524 C523 1.355 . S
C524 C526 1.419 . S
C525 C520 1.425 . S
C525 C522 1.409 . S
C525 C523 1.415 . S
C526 H516 0.930 . S
C526 C524 1.419 . S
C526 C527 1.362 . S
C527 H517 0.930 . S
C527 C520 1.409 . S
C527 C526 1.362 . S
C247 C122 0.889 1_455 S
C252 C2 0.930 . S
C263 C162 0.929 1_545 S
C268 C42 0.981 . S
C279 C202 0.929 . S
C284 C82 0.981 . S
C295 C26 0.844 . S
C300 C89 0.826 . S
C311 C66 0.832 . S
C316 C129 0.834 . S
C327 C106 1.026 . S
C332 C169 0.985 . S
C343 C146 1.001 . S
C348 C209 1.029 . S
C359 C186 0.882 . S
C364 C9 0.834 . S
C375 C226 0.932 . S
C380 C49 0.868 . S
C391 C15 1.734 . S
C396 C135 1.750 1_545 S
C407 C55 1.803 . S
C412 C175 1.802 . S
C423 C95 1.780 1_455 S
C428 C215 1.802 . S
C439 C22 4.122 . S
C444 C43 4.158 . S
C455 C62 4.119 . S
C460 C83 4.153 . S
C471 C102 4.119 . S
C476 C123 4.154 . S
C487 C142 4.126 . S
C492 C163 4.158 . S
C503 C182 4.118 . S
C508 C203 4.155 . S
C519 C222 4.135 . S
C524 C3 4.154 . S
