# Generated by pormake.
# Topology pem, (4)-cn, num edge types: 1
# Building blocks:
#     Node 0, Type 0, BuildingBlock: QUQFOY_clean_sbu_1, # of connection points: 4
#     Node 1, Type 0, BuildingBlock: QUQFOY_clean_sbu_1, # of connection points: 4
#     Node 2, Type 0, BuildingBlock: QUQFOY_clean_sbu_1, # of connection points: 4
#     Node 3, Type 0, BuildingBlock: QUQFOY_clean_sbu_1, # of connection points: 4
#     Node 4, Type 0, BuildingBlock: QUQFOY_clean_sbu_1, # of connection points: 4
#     Node 5, Type 0, BuildingBlock: QUQFOY_clean_sbu_1, # of connection points: 4
#     Node 6, Type 0, BuildingBlock: QUQFOY_clean_sbu_1, # of connection points: 4
#     Node 7, Type 0, BuildingBlock: QUQFOY_clean_sbu_1, # of connection points: 4
#     Node 8, Type 0, BuildingBlock: QUQFOY_clean_sbu_1, # of connection points: 4
#     Node 9, Type 0, BuildingBlock: QUQFOY_clean_sbu_1, # of connection points: 4
#     Node 10, Type 0, BuildingBlock: QUQFOY_clean_sbu_1, # of connection points: 4
#     Node 11, Type 0, BuildingBlock: QUQFOY_clean_sbu_1, # of connection points: 4
#     Node 12, Type 0, BuildingBlock: QUQFOY_clean_sbu_1, # of connection points: 4
#     Node 13, Type 0, BuildingBlock: QUQFOY_clean_sbu_1, # of connection points: 4
#     Node 14, Type 0, BuildingBlock: QUQFOY_clean_sbu_1, # of connection points: 4
#     Node 15, Type 0, BuildingBlock: QUQFOY_clean_sbu_1, # of connection points: 4
#     Node 16, Type 0, BuildingBlock: QUQFOY_clean_sbu_1, # of connection points: 4
#     Node 17, Type 0, BuildingBlock: QUQFOY_clean_sbu_1, # of connection points: 4
#     Node 18, Type 0, BuildingBlock: QUQFOY_clean_sbu_1, # of connection points: 4
#     Node 19, Type 0, BuildingBlock: QUQFOY_clean_sbu_1, # of connection points: 4
#     Node 20, Type 0, BuildingBlock: QUQFOY_clean_sbu_1, # of connection points: 4
#     Node 21, Type 0, BuildingBlock: QUQFOY_clean_sbu_1, # of connection points: 4
#     Node 22, Type 0, BuildingBlock: QUQFOY_clean_sbu_1, # of connection points: 4
#     Node 23, Type 0, BuildingBlock: QUQFOY_clean_sbu_1, # of connection points: 4
#     Node 24, Type 0, BuildingBlock: QUQFOY_clean_sbu_1, # of connection points: 4
#     Node 25, Type 0, BuildingBlock: QUQFOY_clean_sbu_1, # of connection points: 4
#     Node 26, Type 0, BuildingBlock: QUQFOY_clean_sbu_1, # of connection points: 4
#     Node 27, Type 0, BuildingBlock: QUQFOY_clean_sbu_1, # of connection points: 4
#     Node 28, Type 0, BuildingBlock: QUQFOY_clean_sbu_1, # of connection points: 4
#     Node 29, Type 0, BuildingBlock: QUQFOY_clean_sbu_1, # of connection points: 4
#     Node 30, Type 0, BuildingBlock: QUQFOY_clean_sbu_1, # of connection points: 4
#     Node 31, Type 0, BuildingBlock: QUQFOY_clean_sbu_1, # of connection points: 4
#     Edge 32, Type (0, 0), BuildingBlock: CIFDUS_clean_linker_0, # of connection points: 2
#     Edge 33, Type (0, 0), BuildingBlock: CIFDUS_clean_linker_0, # of connection points: 2
#     Edge 34, Type (0, 0), BuildingBlock: CIFDUS_clean_linker_0, # of connection points: 2
#     Edge 35, Type (0, 0), BuildingBlock: CIFDUS_clean_linker_0, # of connection points: 2
#     Edge 36, Type (0, 0), BuildingBlock: CIFDUS_clean_linker_0, # of connection points: 2
#     Edge 37, Type (0, 0), BuildingBlock: CIFDUS_clean_linker_0, # of connection points: 2
#     Edge 38, Type (0, 0), BuildingBlock: CIFDUS_clean_linker_0, # of connection points: 2
#     Edge 39, Type (0, 0), BuildingBlock: CIFDUS_clean_linker_0, # of connection points: 2
#     Edge 40, Type (0, 0), BuildingBlock: CIFDUS_clean_linker_0, # of connection points: 2
#     Edge 41, Type (0, 0), BuildingBlock: CIFDUS_clean_linker_0, # of connection points: 2
#     Edge 42, Type (0, 0), BuildingBlock: CIFDUS_clean_linker_0, # of connection points: 2
#     Edge 43, Type (0, 0), BuildingBlock: CIFDUS_clean_linker_0, # of connection points: 2
#     Edge 44, Type (0, 0), BuildingBlock: CIFDUS_clean_linker_0, # of connection points: 2
#     Edge 45, Type (0, 0), BuildingBlock: CIFDUS_clean_linker_0, # of connection points: 2
#     Edge 46, Type (0, 0), BuildingBlock: CIFDUS_clean_linker_0, # of connection points: 2
#     Edge 47, Type (0, 0), BuildingBlock: CIFDUS_clean_linker_0, # of connection points: 2
#     Edge 48, Type (0, 0), BuildingBlock: CIFDUS_clean_linker_0, # of connection points: 2
#     Edge 49, Type (0, 0), BuildingBlock: CIFDUS_clean_linker_0, # of connection points: 2
#     Edge 50, Type (0, 0), BuildingBlock: CIFDUS_clean_linker_0, # of connection points: 2
#     Edge 51, Type (0, 0), BuildingBlock: CIFDUS_clean_linker_0, # of connection points: 2
#     Edge 52, Type (0, 0), BuildingBlock: CIFDUS_clean_linker_0, # of connection points: 2
#     Edge 53, Type (0, 0), BuildingBlock: CIFDUS_clean_linker_0, # of connection points: 2
#     Edge 54, Type (0, 0), BuildingBlock: CIFDUS_clean_linker_0, # of connection points: 2
#     Edge 55, Type (0, 0), BuildingBlock: CIFDUS_clean_linker_0, # of connection points: 2
#     Edge 56, Type (0, 0), BuildingBlock: CIFDUS_clean_linker_0, # of connection points: 2
#     Edge 57, Type (0, 0), BuildingBlock: CIFDUS_clean_linker_0, # of connection points: 2
#     Edge 58, Type (0, 0), BuildingBlock: CIFDUS_clean_linker_0, # of connection points: 2
#     Edge 59, Type (0, 0), BuildingBlock: CIFDUS_clean_linker_0, # of connection points: 2
#     Edge 60, Type (0, 0), BuildingBlock: CIFDUS_clean_linker_0, # of connection points: 2
#     Edge 61, Type (0, 0), BuildingBlock: CIFDUS_clean_linker_0, # of connection points: 2
#     Edge 62, Type (0, 0), BuildingBlock: CIFDUS_clean_linker_0, # of connection points: 2
#     Edge 63, Type (0, 0), BuildingBlock: CIFDUS_clean_linker_0, # of connection points: 2
#     Edge 64, Type (0, 0), BuildingBlock: CIFDUS_clean_linker_0, # of connection points: 2
#     Edge 65, Type (0, 0), BuildingBlock: CIFDUS_clean_linker_0, # of connection points: 2
#     Edge 66, Type (0, 0), BuildingBlock: CIFDUS_clean_linker_0, # of connection points: 2
#     Edge 67, Type (0, 0), BuildingBlock: CIFDUS_clean_linker_0, # of connection points: 2
#     Edge 68, Type (0, 0), BuildingBlock: CIFDUS_clean_linker_0, # of connection points: 2
#     Edge 69, Type (0, 0), BuildingBlock: CIFDUS_clean_linker_0, # of connection points: 2
#     Edge 70, Type (0, 0), BuildingBlock: CIFDUS_clean_linker_0, # of connection points: 2
#     Edge 71, Type (0, 0), BuildingBlock: CIFDUS_clean_linker_0, # of connection points: 2
#     Edge 72, Type (0, 0), BuildingBlock: CIFDUS_clean_linker_0, # of connection points: 2
#     Edge 73, Type (0, 0), BuildingBlock: CIFDUS_clean_linker_0, # of connection points: 2
#     Edge 74, Type (0, 0), BuildingBlock: CIFDUS_clean_linker_0, # of connection points: 2
#     Edge 75, Type (0, 0), BuildingBlock: CIFDUS_clean_linker_0, # of connection points: 2
#     Edge 76, Type (0, 0), BuildingBlock: CIFDUS_clean_linker_0, # of connection points: 2
#     Edge 77, Type (0, 0), BuildingBlock: CIFDUS_clean_linker_0, # of connection points: 2
#     Edge 78, Type (0, 0), BuildingBlock: CIFDUS_clean_linker_0, # of connection points: 2
#     Edge 79, Type (0, 0), BuildingBlock: CIFDUS_clean_linker_0, # of connection points: 2
#     Edge 80, Type (0, 0), BuildingBlock: CIFDUS_clean_linker_0, # of connection points: 2
#     Edge 81, Type (0, 0), BuildingBlock: CIFDUS_clean_linker_0, # of connection points: 2
#     Edge 82, Type (0, 0), BuildingBlock: CIFDUS_clean_linker_0, # of connection points: 2
#     Edge 83, Type (0, 0), BuildingBlock: CIFDUS_clean_linker_0, # of connection points: 2
#     Edge 84, Type (0, 0), BuildingBlock: CIFDUS_clean_linker_0, # of connection points: 2
#     Edge 85, Type (0, 0), BuildingBlock: CIFDUS_clean_linker_0, # of connection points: 2
#     Edge 86, Type (0, 0), BuildingBlock: CIFDUS_clean_linker_0, # of connection points: 2
#     Edge 87, Type (0, 0), BuildingBlock: CIFDUS_clean_linker_0, # of connection points: 2
#     Edge 88, Type (0, 0), BuildingBlock: CIFDUS_clean_linker_0, # of connection points: 2
#     Edge 89, Type (0, 0), BuildingBlock: CIFDUS_clean_linker_0, # of connection points: 2
#     Edge 90, Type (0, 0), BuildingBlock: CIFDUS_clean_linker_0, # of connection points: 2
#     Edge 91, Type (0, 0), BuildingBlock: CIFDUS_clean_linker_0, # of connection points: 2
#     Edge 92, Type (0, 0), BuildingBlock: CIFDUS_clean_linker_0, # of connection points: 2
#     Edge 93, Type (0, 0), BuildingBlock: CIFDUS_clean_linker_0, # of connection points: 2
#     Edge 94, Type (0, 0), BuildingBlock: CIFDUS_clean_linker_0, # of connection points: 2
#     Edge 95, Type (0, 0), BuildingBlock: CIFDUS_clean_linker_0, # of connection points: 2
# Relax obj value: 0.277
# Max RMSD: 0.272
# Mean RMSD: 0.234
data_MOF--net-pem--node1-QUQFOY_clean_sbu_1--edge1-CIFDUS_clean_linker_0
_symmetry_space_group_name_H-M    P1
_symmetry_Int_Tables_number       1
_symmetry_cell_setting            triclinic
loop_
_symmetry_equiv_pos_as_xyz
'x, y, z'
_cell_length_a     39.238384
_cell_length_b     39.349891
_cell_length_c     38.872974
_cell_angle_alpha  89.428353
_cell_angle_beta   89.490833
_cell_angle_gamma 95.505939
loop_
_atom_site_label
_atom_site_type_symbol
_atom_site_fract_x
_atom_site_fract_y
_atom_site_fract_z
_atom_type_partial_charge
O0 O 0.17087 0.05773 0.11548 0.0
Cd1 Cd 0.15067 0.06771 0.06728 0.0
Cd2 Cd 0.10147 0.09995 0.11814 0.0
O3 O 0.13821 0.08345 0.15213 0.0
O4 O 0.17901 0.04093 0.03619 0.0
O5 O 0.17479 0.09573 0.02827 0.0
C6 C 0.18652 0.06803 0.01789 0.0
C7 C 0.07189 0.14975 0.1242 0.0
C8 C 0.16303 0.06538 0.14621 0.0
C9 C 0.07437 0.04329 0.07128 0.0
O10 O 0.06947 0.06147 0.09726 0.0
O11 O 0.1033 0.04448 0.05631 0.0
O12 O 0.06765 0.12436 0.14551 0.0
O13 O 0.09519 0.14836 0.10069 0.0
O14 O 0.16402 0.93181 0.30811 0.0
Cd15 Cd 0.14385 0.88405 0.32503 0.0
Cd16 Cd 0.22406 0.90029 0.35729 0.0
O17 O 0.21847 0.94277 0.3247 0.0
O18 O 0.10476 0.87265 0.29244 0.0
O19 O 0.09735 0.87602 0.3484 0.0
C20 C 0.08437 0.86934 0.31856 0.0
C21 C 0.24806 0.90255 0.41467 0.0
C22 C 0.19218 0.95087 0.30829 0.0
C23 C 0.19942 0.83309 0.32189 0.0
O24 O 0.22242 0.85252 0.33657 0.0
O25 O 0.16978 0.84214 0.31634 0.0
O26 O 0.26686 0.90238 0.38716 0.0
O27 O 0.21592 0.90359 0.40797 0.0
O28 O 0.46698 0.93165 0.60924 0.0
Cd29 Cd 0.46943 0.90777 0.56234 0.0
Cd30 Cd 0.53905 0.88756 0.61598 0.0
O31 O 0.50854 0.91811 0.64477 0.0
O32 O 0.45216 0.93451 0.52279 0.0
O33 O 0.42393 0.88865 0.54736 0.0
C34 C 0.42476 0.91362 0.52531 0.0
C35 C 0.55814 0.83621 0.6327 0.0
C36 C 0.48211 0.93375 0.63818 0.0
C37 C 0.53658 0.89931 0.54544 0.0
O38 O 0.55732 0.90689 0.56952 0.0
O39 O 0.5098 0.88025 0.55329 0.0
O40 O 0.5743 0.86479 0.64198 0.0
O41 O 0.53007 0.83687 0.61562 0.0
O42 O 0.40402 0.08752 0.75794 0.0
Cd43 Cd 0.39486 0.13243 0.78052 0.0
Cd44 Cd 0.32821 0.09392 0.79226 0.0
O45 O 0.35428 0.05705 0.76736 0.0
O46 O 0.43823 0.16187 0.77154 0.0
O47 O 0.41958 0.14833 0.82387 0.0
C48 C 0.44164 0.16547 0.80419 0.0
C49 C 0.29951 0.09004 0.84521 0.0
C50 C 0.38457 0.06009 0.75474 0.0
C51 C 0.3285 0.15785 0.75218 0.0
O52 O 0.31098 0.13072 0.76204 0.0
O53 O 0.36047 0.16274 0.75782 0.0
O54 O 0.28791 0.07213 0.81946 0.0
O55 O 0.32836 0.10849 0.8415 0.0
O56 O 0.10606 0.95128 0.4148 0.0
Cd57 Cd 0.11577 0.92154 0.45615 0.0
Cd58 Cd 0.06217 0.88021 0.43281 0.0
O59 O 0.06311 0.91796 0.39357 0.0
O60 O 0.16193 0.93956 0.47077 0.0
O61 O 0.14852 0.88607 0.45425 0.0
C62 C 0.17096 0.9095 0.4653 0.0
C63 C 0.04319 0.82239 0.42131 0.0
C64 C 0.08311 0.94545 0.39228 0.0
C65 C 0.05575 0.91497 0.5015 0.0
O66 O 0.04237 0.89527 0.4787 0.0
O67 O 0.08648 0.92767 0.49828 0.0
O68 O 0.02289 0.846 0.42312 0.0
O69 O 0.07546 0.83138 0.42465 0.0
O70 O 0.41048 0.81235 0.64018 0.0
Cd71 Cd 0.36343 0.83319 0.63902 0.0
Cd72 Cd 0.39428 0.86217 0.70741 0.0
O73 O 0.43227 0.83378 0.68896 0.0
O74 O 0.34174 0.82552 0.59227 0.0
O75 O 0.3546 0.87654 0.61477 0.0
C76 C 0.34084 0.85814 0.59027 0.0
C77 C 0.40474 0.91057 0.74229 0.0
C78 C 0.43406 0.81479 0.66271 0.0
C79 C 0.32585 0.81846 0.70693 0.0
O80 O 0.35015 0.83496 0.72269 0.0
O81 O 0.32654 0.81507 0.67445 0.0
O82 O 0.41258 0.88115 0.75249 0.0
O83 O 0.393 0.91305 0.71158 0.0
O84 O 0.36182 0.18749 0.93916 0.0
Cd85 Cd 0.40966 0.18772 0.91575 0.0
Cd86 Cd 0.38106 0.11256 0.90629 0.0
O87 O 0.3398 0.13432 0.92816 0.0
O88 O 0.43392 0.23489 0.90685 0.0
O89 O 0.41624 0.19963 0.86584 0.0
C90 C 0.43401 0.22743 0.8746 0.0
C91 C 0.37803 0.06449 0.86939 0.0
C92 C 0.33756 0.16349 0.94177 0.0
C93 C 0.44298 0.13046 0.95095 0.0
O94 O 0.41885 0.10956 0.94045 0.0
O95 O 0.44566 0.16182 0.94208 0.0
O96 O 0.36357 0.0627 0.89927 0.0
O97 O 0.39235 0.09378 0.85946 0.0
O98 O 0.13825 0.19412 0.15935 0.0
Cd99 Cd 0.17164 0.15723 0.14968 0.0
Cd100 Cd 0.11794 0.12617 0.21004 0.0
O101 O 0.10036 0.17273 0.19893 0.0
O102 O 0.20638 0.18181 0.1169 0.0
O103 O 0.17832 0.13222 0.10521 0.0
C104 C 0.20172 0.15615 0.09674 0.0
C105 C 0.08428 0.08259 0.24097 0.0
C106 C 0.11264 0.1971 0.17926 0.0
C107 C 0.1964 0.13729 0.22022 0.0
O108 O 0.16588 0.13024 0.23089 0.0
O109 O 0.20291 0.14646 0.1893 0.0
O110 O 0.09333 0.11191 0.254 0.0
O111 O 0.09057 0.07906 0.20867 0.0
O112 O 0.62526 0.4387 0.95187 0.0
Cd113 Cd 0.62042 0.41683 1.00019 0.0
Cd114 Cd 0.5762 0.36365 0.96111 0.0
O115 O 0.59262 0.39994 0.92314 0.0
O116 O 0.65732 0.44207 0.02823 0.0
O117 O 0.6531 0.38623 0.01991 0.0
C118 C 0.66917 0.41302 0.03338 0.0
C119 C 0.55527 0.31062 0.93613 0.0
C120 C 0.61108 0.42841 0.92408 0.0
C121 C 0.54584 0.40468 0.01866 0.0
O122 O 0.54271 0.38053 0.99708 0.0
O123 O 0.57461 0.42147 0.02373 0.0
O124 O 0.54048 0.33815 0.93315 0.0
O125 O 0.5824 0.31203 0.95464 0.0
O126 O 0.93461 0.30427 0.08176 0.0
Cd127 Cd 0.88549 0.31981 0.07475 0.0
Cd128 Cd 0.90548 0.34597 0.15354 0.0
O129 O 0.94703 0.32028 0.13585 0.0
O130 O 0.8671 0.33029 0.02663 0.0
O131 O 0.88056 0.36834 0.0661 0.0
C132 C 0.86734 0.36166 0.03629 0.0
C133 C 0.90612 0.3854 0.20091 0.0
C134 C 0.95426 0.30519 0.10797 0.0
C135 C 0.84163 0.29586 0.13676 0.0
O136 O 0.86165 0.31435 0.15583 0.0
O137 O 0.8463 0.29424 0.10437 0.0
O138 O 0.91322 0.35437 0.20504 0.0
O139 O 0.90103 0.39503 0.16978 0.0
O140 O 0.87998 0.6374 0.43559 0.0
Cd141 Cd 0.92734 0.64733 0.41106 0.0
Cd142 Cd 0.88897 0.56989 0.38728 0.0
O143 O 0.85258 0.5871 0.42122 0.0
O144 O 0.94353 0.69766 0.41958 0.0
O145 O 0.93352 0.67799 0.36987 0.0
C146 C 0.94161 0.70639 0.38696 0.0
C147 C 0.87737 0.52799 0.34343 0.0
C148 C 0.85437 0.61482 0.43841 0.0
C149 C 0.96232 0.5839 0.42181 0.0
O150 O 0.93627 0.56742 0.40862 0.0
O151 O 0.96455 0.61626 0.42458 0.0
O152 O 0.87815 0.51932 0.37543 0.0
O153 O 0.88043 0.56025 0.33655 0.0
O154 O 0.86823 0.64758 0.25079 0.0
Cd155 Cd 0.85705 0.69154 0.27233 0.0
Cd156 Cd 0.8129 0.64955 0.31122 0.0
O157 O 0.85221 0.61965 0.29863 0.0
O158 O 0.89976 0.72124 0.27971 0.0
O159 O 0.8668 0.69494 0.32114 0.0
C160 C 0.894 0.7139 0.31183 0.0
C161 C 0.7876 0.64481 0.36606 0.0
C162 C 0.86916 0.62198 0.27054 0.0
C163 C 0.78608 0.69741 0.25918 0.0
O164 O 0.78122 0.66862 0.27453 0.0
O165 O 0.8154 0.71394 0.25804 0.0
O166 O 0.78137 0.62145 0.34332 0.0
O167 O 0.8094 0.67044 0.3582 0.0
O168 O 0.6846 0.42492 0.79601 0.0
Cd169 Cd 0.67041 0.37882 0.82047 0.0
Cd170 Cd 0.75126 0.40536 0.83071 0.0
O171 O 0.73741 0.44854 0.80486 0.0
O172 O 0.64467 0.35151 0.78437 0.0
O173 O 0.62047 0.36774 0.83217 0.0
C174 C 0.61778 0.35128 0.80364 0.0
C175 C 0.77039 0.39821 0.88695 0.0
C176 C 0.70808 0.44917 0.79101 0.0
C177 C 0.72559 0.3374 0.81698 0.0
O178 O 0.74538 0.3613 0.80355 0.0
O179 O 0.70287 0.34444 0.83838 0.0
O180 O 0.79214 0.40611 0.86224 0.0
O181 O 0.73813 0.39733 0.87982 0.0
O182 O 0.83689 0.90654 0.9572 0.0
Cd183 Cd 0.87459 0.92529 0.92201 0.0
Cd184 Cd 0.89856 0.86509 0.95397 0.0
O185 O 0.84696 0.85233 0.96248 0.0
O186 O 0.86395 0.97348 0.9153 0.0
O187 O 0.86058 0.93617 0.87319 0.0
C188 C 0.85827 0.96695 0.88344 0.0
C189 C 0.93819 0.82944 0.9331 0.0
C190 C 0.82774 0.87613 0.96735 0.0
C191 C 0.93549 0.92921 0.96551 0.0
O192 O 0.92095 0.90425 0.98249 0.0
O193 O 0.92528 0.93574 0.93555 0.0
O194 O 0.92613 0.82606 0.96409 0.0
O195 O 0.92577 0.85157 0.9131 0.0
O196 O 0.8588 0.17638 0.68036 0.0
Cd197 Cd 0.81584 0.14532 0.69684 0.0
Cd198 Cd 0.7932 0.17052 0.62933 0.0
O199 O 0.84329 0.19267 0.62852 0.0
O200 O 0.83156 0.12984 0.74268 0.0
O201 O 0.81011 0.09381 0.70371 0.0
C202 C 0.82177 0.09897 0.73434 0.0
C203 C 0.76502 0.15784 0.57714 0.0
C204 C 0.86498 0.1937 0.65275 0.0
C205 C 0.75765 0.18974 0.69515 0.0
O206 O 0.76119 0.19253 0.66275 0.0
O207 O 0.77612 0.17132 0.71248 0.0
O208 O 0.77531 0.18854 0.58567 0.0
O209 O 0.77258 0.13351 0.59734 0.0
O210 O 0.62235 0.06892 0.41994 0.0
Cd211 Cd 0.58369 0.05042 0.38628 0.0
Cd212 Cd 0.56813 0.12436 0.40933 0.0
O213 O 0.61968 0.1252 0.41847 0.0
O214 O 0.58338 0.99968 0.38199 0.0
O215 O 0.59493 0.03564 0.33844 0.0
C216 C 0.5897 0.00457 0.34963 0.0
C217 C 0.54001 0.17226 0.39632 0.0
C218 C 0.63445 0.09915 0.42783 0.0
C219 C 0.5267 0.06258 0.42887 0.0
O220 O 0.54013 0.09049 0.44054 0.0
O221 O 0.53324 0.05559 0.39792 0.0
O222 O 0.55338 0.16827 0.42605 0.0
O223 O 0.54483 0.15014 0.37285 0.0
O224 O 0.53908 0.79841 0.14054 0.0
Cd225 Cd 0.58396 0.82242 0.1605 0.0
Cd226 Cd 0.6064 0.79504 0.09628 0.0
O227 O 0.55487 0.78625 0.08754 0.0
O228 O 0.5694 0.84072 0.20574 0.0
O229 O 0.59784 0.8729 0.16623 0.0
C230 C 0.585 0.8698 0.19694 0.0
C231 C 0.64731 0.81483 0.05497 0.0
C232 C 0.53209 0.78582 0.11104 0.0
C233 C 0.63122 0.7663 0.16103 0.0
O234 O 0.62595 0.76125 0.12932 0.0
O235 O 0.61921 0.79085 0.1764 0.0
O236 O 0.63018 0.78536 0.05246 0.0
O237 O 0.63904 0.83451 0.07949 0.0
O238 O 0.89725 0.07987 0.66671 0.0
Cd239 Cd 0.92474 0.10515 0.62736 0.0
Cd240 Cd 0.87389 0.06774 0.58878 0.0
O241 O 0.85761 0.04964 0.63682 0.0
O242 O 0.95956 0.13262 0.65511 0.0
O243 O 0.93061 0.1553 0.6138 0.0
C244 C 0.95418 0.1588 0.63674 0.0
C245 C 0.83562 0.07945 0.54468 0.0
C246 C 0.87243 0.05666 0.66524 0.0
C247 C 0.94659 0.05052 0.58192 0.0
O248 O 0.91574 0.04467 0.57242 0.0
O249 O 0.95539 0.07425 0.6027 0.0
O250 O 0.838 0.04894 0.55604 0.0
O251 O 0.85391 0.10402 0.55953 0.0
O252 O 0.66709 0.10803 0.3101 0.0
Cd253 Cd 0.69881 0.1465 0.33249 0.0
Cd254 Cd 0.64618 0.18595 0.30226 0.0
O255 O 0.62583 0.13727 0.28996 0.0
O256 O 0.73343 0.12045 0.35645 0.0
O257 O 0.70429 0.1578 0.38307 0.0
C258 C 0.72755 0.13675 0.38405 0.0
C259 C 0.60857 0.22652 0.31804 0.0
C260 C 0.63918 0.1093 0.29391 0.0
C261 C 0.71924 0.19782 0.27576 0.0
O262 O 0.68839 0.20479 0.27335 0.0
O263 O 0.72793 0.1766 0.2981 0.0
O264 O 0.61067 0.21594 0.28694 0.0
O265 O 0.62746 0.21352 0.34079 0.0
O266 O 0.56817 0.95633 0.15029 0.0
Cd267 Cd 0.53848 0.93804 0.1096 0.0
Cd268 Cd 0.59607 0.96251 0.07194 0.0
O269 O 0.6141 0.97568 0.12003 0.0
O270 O 0.49787 0.91131 0.13164 0.0
O271 O 0.52953 0.88995 0.09144 0.0
C272 C 0.5031 0.88642 0.11164 0.0
C273 C 0.63005 0.93551 0.03287 0.0
C274 C 0.59795 0.97226 0.14854 0.0
C275 C 0.53248 0.99699 0.06078 0.0
O276 O 0.5635 0.99541 0.05183 0.0
O277 O 0.51817 0.9761 0.0828 0.0
O278 O 0.63719 0.96705 0.041 0.0
O279 O 0.60378 0.91885 0.04757 0.0
O280 O 0.80367 0.88571 0.80467 0.0
Cd281 Cd 0.79199 0.85441 0.8477 0.0
Cd282 Cd 0.85268 0.83751 0.82332 0.0
O283 O 0.86003 0.88736 0.80648 0.0
O284 O 0.74579 0.86428 0.86465 0.0
O285 O 0.79359 0.87785 0.89337 0.0
C286 C 0.76073 0.87776 0.8913 0.0
C287 C 0.88737 0.80103 0.84959 0.0
C288 C 0.83315 0.89912 0.79511 0.0
C289 C 0.79894 0.78874 0.81716 0.0
O290 O 0.81791 0.80736 0.79672 0.0
O291 O 0.78898 0.80159 0.84484 0.0
O292 O 0.89334 0.81153 0.81831 0.0
O293 O 0.86502 0.81556 0.86757 0.0
O294 O 0.3407 0.54648 0.14941 0.0
Cd295 Cd 0.36647 0.57313 0.10953 0.0
Cd296 Cd 0.32351 0.52795 0.07302 0.0
O297 O 0.30356 0.51239 0.12044 0.0
O298 O 0.39908 0.60328 0.13707 0.0
O299 O 0.36765 0.62361 0.09653 0.0
C300 C 0.39118 0.62894 0.11931 0.0
C301 C 0.28944 0.54797 0.03004 0.0
C302 C 0.31642 0.52267 0.14878 0.0
C303 C 0.39751 0.51927 0.06794 0.0
O304 O 0.36778 0.50671 0.05944 0.0
O305 O 0.40138 0.546 0.08593 0.0
O306 O 0.28848 0.51583 0.03742 0.0
O307 O 0.30965 0.56901 0.04757 0.0
O308 O 0.14133 0.61764 0.80277 0.0
Cd309 Cd 0.1565 0.65575 0.83716 0.0
Cd310 Cd 0.0977 0.67658 0.80775 0.0
O311 O 0.08749 0.62635 0.79286 0.0
O312 O 0.20138 0.64103 0.85283 0.0
O313 O 0.1576 0.64561 0.88797 0.0
C314 C 0.18868 0.63853 0.88339 0.0
C315 C 0.06058 0.71132 0.83418 0.0
C316 C 0.11254 0.60835 0.78929 0.0
C317 C 0.16269 0.71542 0.79031 0.0
O318 O 0.13407 0.70418 0.77808 0.0
O319 O 0.17303 0.70315 0.81818 0.0
O320 O 0.05722 0.70278 0.80232 0.0
O321 O 0.08333 0.69757 0.85215 0.0
O322 O 0.04488 0.4378 0.6517 0.0
Cd323 Cd 0.03276 0.4068 0.60952 0.0
Cd324 Cd 0.09857 0.43649 0.59074 0.0
O325 O 0.09972 0.45235 0.64075 0.0
O326 O 0.98821 0.38072 0.62293 0.0
O327 O 0.03405 0.35546 0.60812 0.0
C328 C 0.00217 0.35303 0.61719 0.0
C329 C 0.14544 0.41818 0.56155 0.0
C330 C 0.07351 0.45344 0.66003 0.0
C331 C 0.03991 0.45516 0.54901 0.0
O332 O 0.07047 0.46343 0.5581 0.0
O333 O 0.02156 0.43126 0.56444 0.0
O334 O 0.14557 0.44906 0.57222 0.0
O335 O 0.11976 0.39667 0.57025 0.0
O336 O 0.11012 0.32052 0.66007 0.0
Cd337 Cd 0.15295 0.34348 0.68361 0.0
Cd338 Cd 0.18191 0.31854 0.6174 0.0
O339 O 0.13035 0.30391 0.61024 0.0
O340 O 0.13199 0.36341 0.72486 0.0
O341 O 0.16484 0.3946 0.68773 0.0
C342 C 0.14659 0.39276 0.71559 0.0
C343 C 0.21804 0.32922 0.56934 0.0
C344 C 0.10558 0.30584 0.63126 0.0
C345 C 0.20548 0.29322 0.68763 0.0
O346 O 0.2069 0.29395 0.65501 0.0
O347 O 0.18546 0.31081 0.70413 0.0
O348 O 0.20352 0.29919 0.57612 0.0
O349 O 0.2104 0.3539 0.58873 0.0
O350 O 0.35862 0.70872 0.1649 0.0
Cd351 Cd 0.32413 0.66811 0.17971 0.0
Cd352 Cd 0.29012 0.69667 0.12269 0.0
O353 O 0.33623 0.72736 0.11703 0.0
O354 O 0.3492 0.64694 0.21774 0.0
O355 O 0.32887 0.61771 0.17298 0.0
C356 C 0.34441 0.61832 0.2021 0.0
C357 C 0.25821 0.67204 0.07711 0.0
C358 C 0.35975 0.7295 0.13951 0.0
C359 C 0.2596 0.69997 0.1943 0.0
O360 O 0.25925 0.70899 0.16285 0.0
O361 O 0.28239 0.68213 0.2056 0.0
O362 O 0.2615 0.7046 0.08158 0.0
O363 O 0.27525 0.65353 0.09709 0.0
O364 O 0.64179 0.57106 0.62002 0.0
Cd365 Cd 0.62727 0.5982 0.5771 0.0
Cd366 Cd 0.57655 0.6117 0.62888 0.0
O367 O 0.6105 0.591 0.66149 0.0
O368 O 0.66071 0.63069 0.54896 0.0
O369 O 0.65325 0.57526 0.54127 0.0
C370 C 0.66771 0.60444 0.53159 0.0
C371 C 0.55312 0.66381 0.63282 0.0
C372 C 0.63379 0.57276 0.65167 0.0
C373 C 0.55184 0.57364 0.5699 0.0
O374 O 0.54671 0.57637 0.60191 0.0
O375 O 0.57983 0.58581 0.55604 0.0
O376 O 0.54502 0.63952 0.65484 0.0
O377 O 0.57649 0.65939 0.61005 0.0
O378 O 0.95506 0.47266 0.14743 0.0
Cd379 Cd 0.93499 0.43369 0.11819 0.0
Cd380 Cd 0.9954 0.41125 0.17697 0.0
O381 O 0.96603 0.44834 0.19756 0.0
O382 O 0.92158 0.45208 0.0735 0.0
O383 O 0.88417 0.42503 0.10973 0.0
C384 C 0.89066 0.43948 0.08015 0.0
C385 C 0.01161 0.36168 0.20008 0.0
C386 C 0.95432 0.47227 0.18 0.0
C387 C 0.99801 0.41489 0.10397 0.0
O388 O 0.01697 0.42123 0.12971 0.0
O389 O 0.96885 0.39894 0.10967 0.0
O390 O 0.02964 0.39042 0.20541 0.0
O391 O 0.98251 0.36189 0.18483 0.0
O392 O 0.6636 0.65881 0.65951 0.0
Cd393 Cd 0.70272 0.62661 0.65585 0.0
Cd394 Cd 0.66152 0.60751 0.73216 0.0
O395 O 0.63934 0.64889 0.71138 0.0
O396 O 0.73013 0.64648 0.61491 0.0
O397 O 0.71045 0.59245 0.61792 0.0
C398 C 0.72823 0.61667 0.60144 0.0
C399 C 0.6364 0.57565 0.77969 0.0
C400 C 0.64265 0.66591 0.68318 0.0
C401 C 0.73962 0.62666 0.72505 0.0
O402 O 0.71284 0.61458 0.74112 0.0
O403 O 0.73921 0.63334 0.69305 0.0
O404 O 0.64824 0.60705 0.78265 0.0
O405 O 0.63517 0.56347 0.74918 0.0
O406 O 0.36521 0.41584 0.41444 0.0
Cd407 Cd 0.39883 0.44184 0.37979 0.0
Cd408 Cd 0.43642 0.38769 0.41013 0.0
O409 O 0.38899 0.36908 0.42934 0.0
O410 O 0.36882 0.4777 0.36543 0.0
O411 O 0.39393 0.44644 0.32793 0.0
C412 C 0.37496 0.47073 0.33396 0.0
C413 C 0.47833 0.35173 0.39406 0.0
C414 C 0.36436 0.38779 0.43116 0.0
C415 C 0.45604 0.46218 0.42654 0.0
O416 O 0.45657 0.43088 0.43443 0.0
O417 O 0.43777 0.47167 0.40221 0.0
O418 O 0.46876 0.35438 0.42559 0.0
O419 O 0.46274 0.36818 0.37103 0.0
O420 O 0.11332 0.59031 0.92837 0.0
Cd421 Cd 0.07957 0.5595 0.8987 0.0
Cd422 Cd 0.03536 0.61093 0.92095 0.0
O423 O 0.08101 0.6315 0.94218 0.0
O424 O 0.10889 0.52495 0.88001 0.0
O425 O 0.07693 0.55506 0.8472 0.0
C426 C 0.09695 0.53104 0.85013 0.0
C427 C 0.99844 0.64776 0.89607 0.0
C428 C 0.10918 0.61801 0.94386 0.0
C429 C 0.01847 0.53732 0.94332 0.0
O430 O 0.01193 0.56821 0.94563 0.0
O431 O 0.04346 0.5291 0.92543 0.0
O432 O 0.00221 0.64577 0.92888 0.0
O433 O 0.01622 0.62918 0.87702 0.0
O434 O 0.29422 0.37612 0.31321 0.0
Cd435 Cd 0.28179 0.34234 0.35381 0.0
Cd436 Cd 0.35199 0.32098 0.33008 0.0
O437 O 0.34808 0.36592 0.30331 0.0
O438 O 0.23564 0.35211 0.37073 0.0
O439 O 0.28241 0.35963 0.40219 0.0
C440 C 0.24968 0.35987 0.39975 0.0
C441 C 0.40508 0.30027 0.33857 0.0
C442 C 0.32273 0.38303 0.29753 0.0
C443 C 0.28929 0.26991 0.33114 0.0
O444 O 0.31925 0.27899 0.3202 0.0
O445 O 0.27187 0.29078 0.34639 0.0
O446 O 0.39301 0.30394 0.30828 0.0
O447 O 0.38869 0.31192 0.36416 0.0
H448 H 0.06608 0.02466 0.00536 0.0
H449 H 0.01881 0.01239 0.10591 0.0
H450 H 0.972 0.97437 0.08207 0.0
H451 H 0.94466 0.94504 0.03238 0.0
H452 H 0.99004 0.96135 0.93136 0.0
H453 H 0.03784 0.99742 0.95568 0.0
C454 C 0.04559 0.01352 0.02206 0.0
C455 C 0.04586 0.02093 0.05729 0.0
C456 C 0.01861 0.9925 0.00811 0.0
C457 C 0.01897 0.00695 0.07865 0.0
C458 C 0.99234 0.98521 0.06508 0.0
C459 C 0.96517 0.95641 0.01584 0.0
C460 C 0.96421 0.95053 0.9803 0.0
C461 C 0.99194 0.97783 0.02984 0.0
C462 C 0.99043 0.9657 0.95884 0.0
C463 C 0.01768 0.98622 0.97269 0.0
H464 H 0.27288 0.71341 0.26084 0.0
H465 H 0.19712 0.72257 0.18236 0.0
H466 H 0.16756 0.76069 0.2191 0.0
H467 H 0.16958 0.79884 0.26848 0.0
H468 H 0.24992 0.79502 0.34317 0.0
H469 H 0.27132 0.74703 0.31311 0.0
C470 C 0.24934 0.72297 0.25217 0.0
C471 C 0.23727 0.71555 0.21892 0.0
C472 C 0.23375 0.74628 0.27252 0.0
C473 C 0.20695 0.72825 0.20783 0.0
C474 C 0.1902 0.75014 0.22873 0.0
C475 C 0.1913 0.787 0.27861 0.0
C476 C 0.20849 0.80063 0.30766 0.0
C477 C 0.20433 0.76055 0.26037 0.0
C478 C 0.23663 0.78517 0.32052 0.0
C479 C 0.24884 0.75779 0.30337 0.0
H480 H 0.52902 0.96522 0.55595 0.0
H481 H 0.53438 0.89049 0.47638 0.0
H482 H 0.52631 0.93408 0.43226 0.0
H483 H 0.5214 0.99414 0.41691 0.0
H484 H 0.51426 0.06807 0.49746 0.0
H485 H 0.51761 0.02354 0.54092 0.0
C486 C 0.52883 0.95874 0.52886 0.0
C487 C 0.53347 0.92537 0.51894 0.0
C488 C 0.52306 0.98346 0.50409 0.0
C489 C 0.53169 0.91647 0.48415 0.0
C490 C 0.52675 0.94121 0.45913 0.0
C491 C 0.51995 1.00043 0.44394 0.0
C492 C 0.51854 0.03453 0.45393 0.0
C493 C 0.52275 0.97488 0.46883 0.0
C494 C 0.51591 0.04209 0.48909 0.0
C495 C 0.51818 0.01675 0.51398 0.0
H496 H 0.26896 0.1791 0.77335 0.0
H497 H 0.34915 0.19829 0.69717 0.0
H498 H 0.31835 0.24316 0.67084 0.0
H499 H 0.26753 0.27517 0.66862 0.0
H500 H 0.18961 0.25886 0.74764 0.0
H501 H 0.2209 0.21477 0.77432 0.0
C502 C 0.27954 0.19313 0.75092 0.0
C503 C 0.31076 0.18523 0.73663 0.0
C504 C 0.26228 0.21939 0.73675 0.0
C505 C 0.32492 0.20396 0.70823 0.0
C506 C 0.30737 0.22951 0.69328 0.0
C507 C 0.2576 0.26211 0.69185 0.0
C508 C 0.22626 0.26989 0.70607 0.0
C509 C 0.27591 0.23723 0.7072 0.0
C510 C 0.21378 0.25327 0.73638 0.0
C511 C 0.23151 0.22796 0.75146 0.0
H512 H 0.07112 0.97132 0.53954 0.0
H513 H 0.98922 0.89337 0.51779 0.0
H514 H 0.94764 0.92892 0.5422 0.0
H515 H 0.93407 0.9852 0.56153 0.0
H516 H 0.01591 0.0639 0.58072 0.0
H517 H 0.05815 0.0251 0.5645 0.0
C518 C 0.04431 0.96163 0.54096 0.0
C519 C 0.03316 0.93008 0.52626 0.0
C520 C 0.02048 0.9828 0.55336 0.0
C521 C 0.99837 0.91777 0.52864 0.0
C522 C 0.97455 0.93825 0.54216 0.0
C523 C 0.96116 0.99387 0.56197 0.0
C524 C 0.97195 0.0275 0.57142 0.0
C525 C 0.9852 0.97142 0.55294 0.0
C526 C 0.00708 0.0382 0.57297 0.0
C527 C 0.03119 0.01601 0.56396 0.0
H528 H 0.26391 0.79175 0.68336 0.0
H529 H 0.3215 0.81183 0.77647 0.0
H530 H 0.27395 0.78534 0.81072 0.0
H531 H 0.21825 0.75282 0.8141 0.0
H532 H 0.16017 0.73138 0.72177 0.0
H533 H 0.20544 0.76292 0.68739 0.0
C534 C 0.266 0.79033 0.71113 0.0
C535 C 0.29636 0.80324 0.72725 0.0
C536 C 0.23849 0.77509 0.73083 0.0
C537 C 0.29851 0.80181 0.76333 0.0
C538 C 0.27133 0.78674 0.78301 0.0
C539 C 0.21529 0.75538 0.78649 0.0
C540 C 0.18627 0.73947 0.77039 0.0
C541 C 0.24151 0.77282 0.76699 0.0
C542 C 0.18242 0.74343 0.73471 0.0
C543 C 0.20839 0.76117 0.71503 0.0
H544 H 0.42562 0.09229 0.00583 0.0
H545 H 0.51324 0.13649 0.94799 0.0
H546 H 0.55013 0.09966 0.97906 0.0
H547 H 0.55516 0.04966 0.01732 0.0
H548 H 0.46534 0.00469 0.07226 0.0
H549 H 0.43142 0.04689 0.04731 0.0
C550 C 0.453 0.09439 1.00068 0.0
C551 C 0.46692 0.11675 0.97486 0.0
C552 C 0.47336 0.07244 0.01748 0.0
C553 C 0.50225 0.1196 0.96818 0.0
C554 C 0.52311 0.0982 0.98554 0.0
C555 C 0.52821 0.04921 0.0239 0.0
C556 C 0.51272 0.02366 0.04618 0.0
C557 C 0.50862 0.0736 0.0093 0.0
C558 C 0.47788 0.02374 0.05488 0.0
C559 C 0.45842 0.04796 0.04076 0.0
H560 H 0.31255 0.2251 0.28623 0.0
H561 H 0.23067 0.23721 0.35873 0.0
H562 H 0.19839 0.18618 0.33654 0.0
H563 H 0.18782 0.14846 0.28792 0.0
H564 H 0.26583 0.14294 0.20975 0.0
H565 H 0.30607 0.17948 0.24389 0.0
C566 C 0.28799 0.21614 0.29773 0.0
C567 C 0.27342 0.23548 0.32322 0.0
C568 C 0.26892 0.18782 0.28376 0.0
C569 C 0.24193 0.22324 0.33836 0.0
C570 C 0.22352 0.19402 0.32577 0.0
C571 C 0.21401 0.15418 0.27888 0.0
C572 C 0.22353 0.14426 0.24579 0.0
C573 C 0.23587 0.17749 0.2971 0.0
C574 C 0.25773 0.15108 0.23483 0.0
C575 C 0.28058 0.17232 0.25413 0.0
H576 H 0.40017 0.45387 0.04578 0.0
H577 H 0.46374 0.54529 0.07294 0.0
H578 H 0.51485 0.51598 0.06485 0.0
H579 H 0.54171 0.46565 0.04856 0.0
H580 H 0.47975 0.37445 0.01822 0.0
H581 H 0.42774 0.40216 0.0302 0.0
C582 C 0.42523 0.4674 0.04959 0.0
C583 C 0.4281 0.50175 0.05975 0.0
C584 C 0.45477 0.45033 0.04502 0.0
C585 C 0.46075 0.51886 0.06503 0.0
C586 C 0.49005 0.5021 0.06061 0.0
C587 C 0.51689 0.45146 0.04513 0.0
C588 C 0.51466 0.41802 0.03254 0.0
C589 C 0.48735 0.4679 0.05067 0.0
C590 C 0.48219 0.40023 0.02801 0.0
C591 C 0.45246 0.41617 0.03452 0.0
H592 H 0.84913 0.26081 0.19425 0.0
H593 H 0.7736 0.28299 0.11961 0.0
H594 H 0.72808 0.25422 0.15661 0.0
H595 H 0.71019 0.22614 0.21237 0.0
H596 H 0.7877 0.20484 0.28572 0.0
H597 H 0.83222 0.23045 0.24709 0.0
C598 C 0.82268 0.25901 0.18591 0.0
C599 C 0.81446 0.27399 0.15456 0.0
C600 C 0.79713 0.24313 0.2073 0.0
C601 C 0.78035 0.2713 0.14364 0.0
C602 C 0.75443 0.25524 0.16494 0.0
C603 C 0.73683 0.22726 0.21984 0.0
C604 C 0.74564 0.21393 0.25201 0.0
C605 C 0.76252 0.24172 0.19721 0.0
C606 C 0.78025 0.21499 0.26119 0.0
C607 C 0.80575 0.22956 0.23911 0.0
H608 H 0.05894 0.52005 0.52734 0.0
H609 H 0.98888 0.4314 0.50642 0.0
H610 H 0.96302 0.46249 0.46043 0.0
H611 H 0.95688 0.51551 0.43032 0.0
H612 H 0.02184 0.60676 0.45505 0.0
H613 H 0.05411 0.57354 0.49474 0.0
C614 C 0.03823 0.50752 0.51244 0.0
C615 C 0.02558 0.47362 0.52032 0.0
C616 C 0.0228 0.52588 0.48672 0.0
C617 C 0.99869 0.45762 0.50104 0.0
C618 C 0.98404 0.4753 0.47468 0.0
C619 C 0.97841 0.52828 0.4439 0.0
C620 C 0.98669 0.56373 0.43993 0.0
C621 C 0.99543 0.50958 0.46786 0.0
C622 C 0.01483 0.57955 0.4577 0.0
C623 C 0.03309 0.56062 0.4806 0.0
H624 H 0.73596 0.66872 0.2183 0.0
H625 H 0.77194 0.76182 0.26961 0.0
H626 H 0.72433 0.79021 0.24652 0.0
H627 H 0.67484 0.78952 0.20951 0.0
H628 H 0.64198 0.69929 0.15205 0.0
H629 H 0.68594 0.66842 0.17985 0.0
C630 C 0.73304 0.69513 0.2244 0.0
C631 C 0.75704 0.71339 0.24539 0.0
C632 C 0.70636 0.71163 0.20999 0.0
C633 C 0.75365 0.74761 0.25316 0.0
C634 C 0.72649 0.76375 0.24012 0.0
C635 C 0.67699 0.76293 0.20347 0.0
C636 C 0.65524 0.74643 0.17921 0.0
C637 C 0.703 0.74612 0.21824 0.0
C638 C 0.6586 0.71229 0.17086 0.0
C639 C 0.68367 0.69476 0.18665 0.0
H640 H 0.74601 0.19228 0.76399 0.0
H641 H 0.72368 0.24091 0.66771 0.0
H642 H 0.7071 0.29039 0.69856 0.0
H643 H 0.71049 0.32401 0.75143 0.0
H644 H 0.73408 0.27657 0.8475 0.0
H645 H 0.73889 0.22223 0.81819 0.0
C646 C 0.73668 0.21331 0.74977 0.0
C647 C 0.73718 0.21343 0.71358 0.0
C648 C 0.72827 0.24213 0.76756 0.0
C649 C 0.72416 0.24044 0.69557 0.0
C650 C 0.71495 0.2689 0.71315 0.0
C651 C 0.71611 0.30149 0.76586 0.0
C652 C 0.72284 0.30391 0.80109 0.0
C653 C 0.71887 0.27075 0.74887 0.0
C654 C 0.7293 0.27489 0.82013 0.0
C655 C 0.73204 0.24402 0.80341 0.0
H656 H 0.82721 0.75321 0.76703 0.0
H657 H 0.75647 0.74169 0.85305 0.0
H658 H 0.74087 0.68222 0.8377 0.0
H659 H 0.73855 0.63898 0.7934 0.0
H660 H 0.80307 0.65415 0.70293 0.0
H661 H 0.83204 0.70558 0.72796 0.0
C662 C 0.80854 0.73764 0.7826 0.0
C663 C 0.79196 0.75208 0.8103 0.0
C664 C 0.79915 0.70391 0.77315 0.0
C665 C 0.76881 0.73133 0.83099 0.0
C666 C 0.76009 0.69731 0.82238 0.0
C667 C 0.75973 0.65283 0.77954 0.0
C668 C 0.76749 0.64383 0.74559 0.0
C669 C 0.77387 0.68395 0.79255 0.0
C670 C 0.79593 0.66118 0.7287 0.0
C671 C 0.81207 0.69094 0.74273 0.0
H672 H 0.45835 0.46034 0.49522 0.0
H673 H 0.49223 0.52172 0.40667 0.0
H674 H 0.523 0.56381 0.44415 0.0
H675 H 0.54268 0.5808 0.50175 0.0
H676 H 0.5063 0.52063 0.59042 0.0
H677 H 0.47304 0.4805 0.55316 0.0
C678 C 0.4726 0.48294 0.48424 0.0
C679 C 0.47396 0.48785 0.44847 0.0
C680 C 0.48926 0.50717 0.50587 0.0
C681 C 0.49142 0.51751 0.43426 0.0
C682 C 0.50883 0.54146 0.45561 0.0
C683 C 0.52709 0.55912 0.51289 0.0
C684 C 0.52712 0.55329 0.54858 0.0
C685 C 0.50823 0.53628 0.4914 0.0
C686 C 0.50652 0.52554 0.56295 0.0
C687 C 0.48781 0.50248 0.54168 0.0
H688 H 0.01397 0.54606 0.01049 0.0
H689 H 0.9922 0.47171 0.93123 0.0
H690 H 0.98115 0.4264 0.97502 0.0
H691 H 0.98442 0.40753 0.03595 0.0
H692 H 0.01596 0.48243 0.11266 0.0
H693 H 0.01697 0.52785 0.06996 0.0
C694 C 0.00574 0.52008 0.00295 0.0
C695 C 0.00316 0.51205 0.96809 0.0
C696 C 0.00227 0.49416 0.02783 0.0
C697 C 0.99372 0.47826 0.95821 0.0
C698 C 0.98791 0.45243 0.98314 0.0
C699 C 0.99167 0.43381 0.04304 0.0
C700 C 0.00045 0.44159 0.07716 0.0
C701 C 0.99337 0.45992 0.018 0.0
C702 C 0.00958 0.47571 0.08639 0.0
C703 C 0.00988 0.5018 0.06209 0.0
H704 H 0.14983 0.06909 0.2153 0.0
H705 H 0.21521 0.02354 0.14318 0.0
H706 H 0.23499 0.98772 0.18911 0.0
H707 H 0.22687 0.96309 0.24801 0.0
H708 H 0.1578 0.00634 0.31829 0.0
H709 H 0.1471 0.04995 0.27548 0.0
C710 C 0.16866 0.05185 0.20959 0.0
C711 C 0.18022 0.04891 0.17545 0.0
C712 C 0.17933 0.03074 0.23608 0.0
C713 C 0.20534 0.02639 0.16899 0.0
C714 C 0.21666 0.0057 0.19532 0.0
C715 C 0.21041 0.98284 0.25423 0.0
C716 C 0.19369 0.982 0.28648 0.0
C717 C 0.20291 0.00677 0.22873 0.0
C718 C 0.17149 0.00695 0.29391 0.0
C719 C 0.16495 0.03154 0.26923 0.0
H720 H 0.36866 0.91775 0.55215 0.0
H721 H 0.41774 0.93236 0.45829 0.0
H722 H 0.3652 0.93586 0.42814 0.0
H723 H 0.3096 0.92567 0.42005 0.0
H724 H 0.22033 0.87183 0.52052 0.0
H725 H 0.26385 0.8781 0.56138 0.0
C726 C 0.36239 0.91672 0.52511 0.0
C727 C 0.39319 0.91974 0.50671 0.0
C728 C 0.32718 0.90966 0.51074 0.0
C729 C 0.3937 0.9278 0.4723 0.0
C730 C 0.36325 0.92929 0.45529 0.0
C731 C 0.30226 0.91586 0.44542 0.0
C732 C 0.26445 0.90138 0.45258 0.0
C733 C 0.33113 0.91907 0.47091 0.0
C734 C 0.24493 0.88285 0.50949 0.0
C735 C 0.27277 0.88671 0.53551 0.0
H736 H 0.44993 0.04426 0.74749 0.0
H737 H 0.34697 0.01537 0.71359 0.0
H738 H 0.36835 0.97472 0.67334 0.0
H739 H 0.4165 0.94808 0.64728 0.0
H740 H 0.51837 0.97128 0.68676 0.0
H741 H 0.49726 0.0133 0.72569 0.0
C742 C 0.43218 0.02886 0.73142 0.0
C743 C 0.39693 0.03279 0.73343 0.0
C744 C 0.44451 0.00467 0.70934 0.0
C745 C 0.37415 0.01254 0.71274 0.0
C746 C 0.3864 0.98951 0.68957 0.0
C747 C 0.43406 0.96224 0.66454 0.0
C748 C 0.46897 0.95667 0.66409 0.0
C749 C 0.42155 0.98546 0.6876 0.0
C750 C 0.49135 0.97489 0.68684 0.0
C751 C 0.47933 0.99908 0.70888 0.0
H752 H 0.2753 0.03716 0.88692 0.0
H753 H 0.27764 0.1462 0.87433 0.0
H754 H 0.24111 0.14923 0.92548 0.0
H755 H 0.20914 0.12079 0.97441 0.0
H756 H 0.21126 0.01221 0.98954 0.0
H757 H 0.24557 0.00912 0.93729 0.0
C758 C 0.26796 0.06154 0.89561 0.0
C759 C 0.27908 0.09142 0.87711 0.0
C760 C 0.2479 0.06319 0.92566 0.0
C761 C 0.26945 0.12291 0.88844 0.0
C762 C 0.24849 0.12462 0.91756 0.0
C763 C 0.21716 0.09647 0.96631 0.0
C764 C 0.20762 0.06683 0.98603 0.0
C765 C 0.23768 0.09494 0.93652 0.0
C766 C 0.21827 0.03552 0.97504 0.0
C767 C 0.23795 0.03367 0.94509 0.0
H768 H 0.07873 0.08296 0.31014 0.0
H769 H 0.0687 0.01503 0.2237 0.0
H770 H 0.06417 0.96562 0.2631 0.0
H771 H 0.06922 0.94182 0.3226 0.0
H772 H 0.08545 0.01195 0.40681 0.0
H773 H 0.08156 0.06013 0.36794 0.0
C774 C 0.07482 0.05741 0.29976 0.0
C775 C 0.07391 0.05285 0.26394 0.0
C776 C 0.07394 0.02932 0.32234 0.0
C777 C 0.06918 0.01939 0.25117 0.0
C778 C 0.06696 0.99108 0.27371 0.0
C779 C 0.07148 0.96764 0.33231 0.0
C780 C 0.07778 0.97331 0.36754 0.0
C781 C 0.07027 0.9957 0.30941 0.0
C782 C 0.08091 0.00693 0.37979 0.0
C783 C 0.0786 0.03455 0.3576 0.0
H784 H 0.32002 0.82427 0.52219 0.0
H785 H 0.31873 0.92774 0.59521 0.0
H786 H 0.28437 0.96823 0.55166 0.0
H787 H 0.22373 0.95975 0.4958 0.0
H788 H 0.19694 0.84191 0.45117 0.0
H789 H 0.259 0.816 0.46445 0.0
C790 C 0.31501 0.85081 0.52263 0.0
C791 C 0.32335 0.87425 0.56176 0.0
C792 C 0.29283 0.8674 0.48702 0.0
C793 C 0.31248 0.91742 0.57012 0.0
C794 C 0.29196 0.94452 0.54165 0.0
C795 C 0.23444 0.93661 0.48824 0.0
C796 C 0.20632 0.90252 0.47087 0.0
C797 C 0.27711 0.93142 0.50058 0.0
C798 C 0.21715 0.85963 0.46113 0.0
C799 C 0.2575 0.84303 0.46804 0.0
H800 H 0.43255 0.03751 0.84041 0.0
H801 H 0.3227 0.02272 0.8496 0.0
H802 H 0.32107 0.97505 0.8095 0.0
H803 H 0.35106 0.93822 0.7706 0.0
H804 H 0.46122 0.94623 0.76897 0.0
H805 H 0.46297 0.99525 0.80785 0.0
C806 C 0.40834 0.02367 0.83365 0.0
C807 C 0.37763 0.03423 0.847 0.0
C808 C 0.40782 0.99493 0.81217 0.0
C809 C 0.3465 0.01556 0.83898 0.0
C810 C 0.34561 0.9882 0.81618 0.0
C811 C 0.37539 0.95083 0.77881 0.0
C812 C 0.40601 0.93953 0.76627 0.0
C813 C 0.37608 0.97789 0.8023 0.0
C814 C 0.4374 0.95504 0.77792 0.0
C815 C 0.43836 0.98293 0.80021 0.0
H816 H 0.30712 0.11531 0.98467 0.0
H817 H 0.30561 0.22104 0.95529 0.0
H818 H 0.26261 0.22823 1.00025 0.0
H819 H 0.22685 0.20458 0.04965 0.0
H820 H 0.2311 0.09938 0.07976 0.0
H821 H 0.27228 0.09205 0.03354 0.0
C822 C 0.29704 0.13984 0.98779 0.0
C823 C 0.30905 0.16746 0.96626 0.0
C824 C 0.27324 0.14398 0.01428 0.0
C825 C 0.2964 0.19929 0.97124 0.0
C826 C 0.27196 0.20342 0.99705 0.0
C827 C 0.23661 0.18002 0.04574 0.0
C828 C 0.22534 0.15227 0.06746 0.0
C829 C 0.26037 0.17599 0.01895 0.0
C830 C 0.23878 0.12083 0.0628 0.0
C831 C 0.26248 0.1167 0.03652 0.0
H832 H 0.96455 0.25665 0.1551 0.0
H833 H 0.00588 0.30133 0.06028 0.0
H834 H 0.04776 0.25872 0.05788 0.0
H835 H 0.07022 0.20607 0.0812 0.0
H836 H 0.02296 0.15837 0.17248 0.0
H837 H 0.98553 0.20397 0.17727 0.0
C838 C 0.98312 0.25738 0.13419 0.0
C839 C 0.98256 0.28253 0.10824 0.0
C840 C 0.00568 0.23164 0.13198 0.0
C841 C 0.00611 0.28253 0.0808 0.0
C842 C 0.02989 0.258 0.07935 0.0
C843 C 0.05188 0.20577 0.10224 0.0
C844 C 0.04984 0.17871 0.1266 0.0
C845 C 0.02958 0.23199 0.10452 0.0
C846 C 0.02538 0.17866 0.15334 0.0
C847 C 0.00384 0.20485 0.15616 0.0
H848 H 0.53916 0.31621 0.87469 0.0
H849 H 0.54872 0.24172 0.95208 0.0
H850 H 0.52088 0.19457 0.91896 0.0
H851 H 0.48352 0.16802 0.8675 0.0
H852 H 0.44432 0.22792 0.76888 0.0
H853 H 0.47553 0.28942 0.78344 0.0
C854 C 0.53266 0.28969 0.88138 0.0
C855 C 0.54326 0.28108 0.91429 0.0
C856 C 0.51305 0.26619 0.85946 0.0
C857 C 0.53966 0.24715 0.92656 0.0
C858 C 0.52336 0.21996 0.90772 0.0
C859 C 0.48531 0.19281 0.85493 0.0
C860 C 0.4631 0.19523 0.817 0.0
C861 C 0.50859 0.22534 0.87584 0.0
C862 C 0.45973 0.23003 0.79184 0.0
C863 C 0.47926 0.26865 0.80159 0.0
H864 H 0.95237 0.771 0.2996 0.0
H865 H 0.92824 0.81265 0.39467 0.0
H866 H 0.97043 0.85825 0.38551 0.0
H867 H 0.02975 0.8751 0.36155 0.0
H868 H 0.05752 0.8295 0.2663 0.0
H869 H 0.0033 0.79301 0.26745 0.0
C870 C 0.95951 0.78581 0.32226 0.0
C871 C 0.94923 0.77434 0.35794 0.0
C872 C 0.98687 0.81121 0.31677 0.0
C873 C 0.94622 0.80808 0.37436 0.0
C874 C 0.96998 0.83652 0.36856 0.0
C875 C 0.0242 0.85739 0.341 0.0
C876 C 0.04855 0.85403 0.31488 0.0
C877 C 0.99387 0.83547 0.34223 0.0
C878 C 0.03962 0.83217 0.28724 0.0
C879 C 0.00864 0.8112 0.2879 0.0
H880 H 0.06939 0.34726 0.16998 0.0
H881 H 0.98715 0.30373 0.23542 0.0
H882 H 0.01221 0.24873 0.236 0.0
H883 H 0.05716 0.21327 0.21665 0.0
H884 H 0.1346 0.25588 0.14456 0.0
H885 H 0.11174 0.31113 0.14773 0.0
C886 C 0.05738 0.32581 0.18486 0.0
C887 C 0.0273 0.32949 0.20363 0.0
C888 C 0.07088 0.29417 0.18352 0.0
C889 C 0.01088 0.30141 0.22159 0.0
C890 C 0.02509 0.27008 0.22171 0.0
C891 C 0.06901 0.23459 0.20153 0.0
C892 C 0.09761 0.23027 0.18037 0.0
C893 C 0.05504 0.26615 0.20258 0.0
C894 C 0.11253 0.25827 0.16097 0.0
C895 C 0.09952 0.28996 0.16279 0.0
H896 H 0.63584 0.70387 0.62497 0.0
H897 H 0.60815 0.69828 0.73274 0.0
H898 H 0.58111 0.75139 0.72735 0.0
H899 H 0.56492 0.7998 0.69175 0.0
H900 H 0.58678 0.8013 0.58299 0.0
H901 H 0.61625 0.74948 0.58887 0.0
C902 C 0.62376 0.71412 0.64728 0.0
C903 C 0.62401 0.69687 0.67916 0.0
C904 C 0.60731 0.74416 0.64382 0.0
C905 C 0.60814 0.7107 0.70775 0.0
C906 C 0.59283 0.74126 0.70479 0.0
C907 C 0.5762 0.78862 0.66949 0.0
C908 C 0.57399 0.80411 0.63704 0.0
C909 C 0.59221 0.75824 0.67294 0.0
C910 C 0.58825 0.78951 0.60817 0.0
C911 C 0.60518 0.76004 0.61156 0.0
H912 H 0.97452 0.71406 0.31074 0.0
H913 H 0.87267 0.74385 0.37975 0.0
H914 H 0.91736 0.76665 0.43486 0.0
H915 H 0.98564 0.78992 0.44701 0.0
H916 H 0.06993 0.77938 0.37697 0.0
H917 H 0.03847 0.73689 0.34154 0.0
C918 C 0.96372 0.72333 0.33417 0.0
C919 C 0.91745 0.72677 0.33795 0.0
C920 C 0.99116 0.73836 0.36889 0.0
C921 C 0.89998 0.74256 0.37711 0.0
C922 C 0.92779 0.75589 0.41198 0.0
C923 C 0.99618 0.77616 0.42604 0.0
C924 C 0.02896 0.78727 0.41254 0.0
C925 C 0.97372 0.75476 0.40701 0.0
C926 C 0.04416 0.77031 0.38516 0.0
C927 C 0.02614 0.7458 0.3643 0.0
H928 H 0.52528 0.20841 0.80952 0.0
H929 H 0.44042 0.30101 0.86837 0.0
H930 H 0.49026 0.34472 0.84047 0.0
H931 H 0.55104 0.35949 0.81779 0.0
H932 H 0.61878 0.29097 0.77387 0.0
H933 H 0.57765 0.24168 0.7798 0.0
C934 C 0.51502 0.23255 0.81583 0.0
C935 C 0.46025 0.24692 0.8504 0.0
C936 C 0.53935 0.26868 0.80395 0.0
C937 C 0.46043 0.29057 0.85367 0.0
C938 C 0.49219 0.31791 0.83581 0.0
C939 C 0.5547 0.33413 0.80872 0.0
C940 C 0.58744 0.32717 0.7969 0.0
C941 C 0.52827 0.30796 0.81388 0.0
C942 C 0.59365 0.29499 0.78395 0.0
C943 C 0.57032 0.26634 0.78752 0.0
H944 H 0.86325 0.09806 0.7892 0.0
H945 H 0.78221 0.03773 0.73734 0.0
H946 H 0.78434 0.99199 0.78039 0.0
H947 H 0.8125 0.96753 0.83077 0.0
H948 H 0.89261 0.02938 0.88244 0.0
H949 H 0.88812 0.07582 0.84117 0.0
C950 C 0.84607 0.07487 0.78727 0.0
C951 C 0.82306 0.07097 0.75981 0.0
C952 C 0.84768 0.04872 0.81181 0.0
C953 C 0.80061 0.04103 0.75793 0.0
C954 C 0.8017 0.01497 0.78263 0.0
C955 C 0.82878 0.99127 0.8329 0.0
C956 C 0.85315 0.995 0.8592 0.0
C957 C 0.82571 0.01819 0.80926 0.0
C958 C 0.87375 0.02599 0.86225 0.0
C959 C 0.87127 0.0525 0.83864 0.0
H960 H 0.66621 0.15907 0.45046 0.0
H961 H 0.66579 0.04987 0.46268 0.0
H962 H 0.70599 0.05808 0.51021 0.0
H963 H 0.7395 0.09651 0.55013 0.0
H964 H 0.74072 0.20558 0.53558 0.0
H965 H 0.70177 0.197 0.48753 0.0
C966 C 0.67508 0.13697 0.46322 0.0
C967 C 0.66279 0.10392 0.45294 0.0
C968 C 0.69803 0.14181 0.49059 0.0
C969 C 0.67483 0.07567 0.46986 0.0
C970 C 0.69761 0.08031 0.49731 0.0
C971 C 0.73133 0.11835 0.53634 0.0
C972 C 0.74309 0.15162 0.54656 0.0
C973 C 0.70908 0.1133 0.5082 0.0
C974 C 0.73226 0.17966 0.52832 0.0
C975 C 0.70984 0.17483 0.50082 0.0
H976 H 0.5464 0.87987 0.2537 0.0
H977 H 0.63791 0.91979 0.19915 0.0
H978 H 0.64977 0.96275 0.24367 0.0
H979 H 0.63064 0.99345 0.29456 0.0
H980 H 0.54133 0.95096 0.35105 0.0
H981 H 0.53106 0.90602 0.30833 0.0
C982 C 0.56857 0.89847 0.25117 0.0
C983 C 0.5906 0.89739 0.22252 0.0
C984 C 0.57495 0.92354 0.27649 0.0
C985 C 0.61985 0.92087 0.22026 0.0
C986 C 0.62665 0.94549 0.24566 0.0
C987 C 0.60915 0.97414 0.29753 0.0
C988 C 0.58658 0.97562 0.32561 0.0
C989 C 0.60381 0.94784 0.27326 0.0
C990 C 0.55907 0.95024 0.32959 0.0
C991 C 0.55305 0.92467 0.30508 0.0
H992 H 0.77962 0.82226 0.96033 0.0
H993 H 0.80266 0.91544 0.01639 0.0
H994 H 0.74823 0.90566 0.04772 0.0
H995 H 0.69423 0.87035 0.05952 0.0
H996 H 0.66975 0.77859 0.00124 0.0
H997 H 0.72397 0.78855 0.96989 0.0
C998 C 0.77271 0.84018 0.97962 0.0
C999 C 0.7951 0.86928 0.9864 0.0
C1000 C 0.74093 0.8349 0.99684 0.0
C1001 C 0.78575 0.89276 0.01092 0.0
C1002 C 0.75467 0.88721 0.02881 0.0
C1003 C 0.70061 0.85267 0.03978 0.0
C1004 C 0.67798 0.82368 0.03294 0.0
C1005 C 0.73199 0.85841 0.02192 0.0
C1006 C 0.68667 0.80112 0.00713 0.0
C1007 C 0.71781 0.80665 0.98929 0.0
H1008 H 0.82164 0.00459 0.67338 0.0
H1009 H 0.91098 0.05364 0.72314 0.0
H1010 H 0.90856 0.00787 0.76593 0.0
H1011 H 0.88213 0.95273 0.7886 0.0
H1012 H 0.78921 0.90718 0.7429 0.0
H1013 H 0.7924 0.9522 0.69895 0.0
C1014 C 0.84036 0.0055 0.69379 0.0
C1015 C 0.86646 0.03258 0.6948 0.0
C1016 C 0.83874 0.97917 0.71864 0.0
C1017 C 0.89042 0.03329 0.72165 0.0
C1018 C 0.88938 0.00685 0.74598 0.0
C1019 C 0.86276 0.95264 0.76885 0.0
C1020 C 0.83562 0.92665 0.76883 0.0
C1021 C 0.86395 0.9794 0.74447 0.0
C1022 C 0.81029 0.92708 0.74352 0.0
C1023 C 0.81211 0.95275 0.71834 0.0
H1024 H 0.82139 0.14046 0.51581 0.0
H1025 H 0.80124 0.03129 0.50507 0.0
H1026 H 0.76739 0.0394 0.45401 0.0
H1027 H 0.74298 0.07722 0.41217 0.0
H1028 H 0.75824 0.18613 0.42507 0.0
H1029 H 0.79482 0.17854 0.47493 0.0
C1030 C 0.80963 0.11847 0.50226 0.0
C1031 C 0.81397 0.08531 0.51439 0.0
C1032 C 0.78954 0.12328 0.47299 0.0
C1033 C 0.7983 0.05713 0.49655 0.0
C1034 C 0.779 0.06169 0.46716 0.0
C1035 C 0.75434 0.09923 0.42601 0.0
C1036 C 0.74797 0.13214 0.41518 0.0
C1037 C 0.77439 0.09459 0.45517 0.0
C1038 C 0.76262 0.16053 0.43324 0.0
C1039 C 0.78367 0.15618 0.46158 0.0
H1040 H 0.56134 0.99916 0.19919 0.0
H1041 H 0.66471 0.99208 0.16313 0.0
H1042 H 0.68659 0.03109 0.20816 0.0
H1043 H 0.67607 0.06986 0.25529 0.0
H1044 H 0.57244 0.08427 0.28499 0.0
H1045 H 0.55075 0.03904 0.24559 0.0
C1046 C 0.5887 0.00563 0.20163 0.0
C1047 C 0.61146 0.99224 0.17828 0.0
C1048 C 0.60094 0.02931 0.22651 0.0
C1049 C 0.64675 0.00179 0.181 0.0
C1050 C 0.65924 0.02418 0.20664 0.0
C1051 C 0.64876 0.06258 0.25356 0.0
C1052 C 0.62583 0.07961 0.27355 0.0
C1053 C 0.63654 0.03835 0.22928 0.0
C1054 C 0.59048 0.07104 0.27017 0.0
C1055 C 0.57815 0.04537 0.24756 0.0
H1056 H 0.69312 0.959 0.00861 0.0
H1057 H 0.61344 0.87636 0.99796 0.0
H1058 H 0.64637 0.8519 0.95226 0.0
H1059 H 0.69781 0.85416 0.9151 0.0
H1060 H 0.77879 0.93491 0.92815 0.0
H1061 H 0.74523 0.96024 0.97291 0.0
C1062 C 0.68292 0.93565 0.99627 0.0
C1063 C 0.65077 0.91964 0.00654 0.0
C1064 C 0.70212 0.92159 0.97026 0.0
C1065 C 0.6381 0.8892 0.99054 0.0
C1066 C 0.65684 0.8753 0.96428 0.0
C1067 C 0.70795 0.87739 0.92771 0.0
C1068 C 0.74061 0.89276 0.91847 0.0
C1069 C 0.68882 0.89132 0.95388 0.0
C1070 C 0.75376 0.92259 0.93511 0.0
C1071 C 0.73454 0.93711 0.96054 0.0
H1072 H 0.96521 0.82693 0.86849 0.0
H1073 H 0.97216 0.78432 0.97057 0.0
H1074 H 0.01324 0.74615 0.94985 0.0
H1075 H 0.04387 0.72155 0.90161 0.0
H1076 H 0.03181 0.76072 0.79885 0.0
H1077 H 0.99639 0.80339 0.82088 0.0
C1078 C 0.97594 0.80954 0.8863 0.0
C1079 C 0.96521 0.80827 0.92094 0.0
C1080 C 0.9987 0.78685 0.87401 0.0
C1081 C 0.97962 0.78565 0.94367 0.0
C1082 C 0.00316 0.76377 0.93184 0.0
C1083 C 0.0337 0.73965 0.88416 0.0
C1084 C 0.04019 0.73771 0.84862 0.0
C1085 C 0.01234 0.76359 0.89689 0.0
C1086 C 0.02682 0.76132 0.82627 0.0
C1087 C 0.00668 0.78589 0.83886 0.0
H1088 H 0.41317 0.67508 0.06951 0.0
H1089 H 0.41508 0.65617 0.17887 0.0
H1090 H 0.45564 0.70649 0.18622 0.0
H1091 H 0.4946 0.75214 0.16121 0.0
H1092 H 0.49905 0.76738 0.05119 0.0
H1093 H 0.4518 0.72254 0.04432 0.0
C1094 C 0.42198 0.68253 0.09495 0.0
C1095 C 0.41091 0.66233 0.12369 0.0
C1096 C 0.44677 0.71053 0.09875 0.0
C1097 C 0.42316 0.67152 0.15645 0.0
C1098 C 0.44649 0.70014 0.16063 0.0
C1099 C 0.48483 0.74618 0.13573 0.0
C1100 C 0.49997 0.76342 0.10678 0.0
C1101 C 0.45905 0.71933 0.13191 0.0
C1102 C 0.48758 0.75468 0.0739 0.0
C1103 C 0.46073 0.72892 0.06997 0.0
H1104 H 0.97712 0.31786 0.67355 0.0
H1105 H 0.97913 0.3155 0.56289 0.0
H1106 H 0.9371 0.26513 0.56354 0.0
H1107 H 0.89734 0.22365 0.59588 0.0
H1108 H 0.89898 0.22369 0.70687 0.0
H1109 H 0.94195 0.27273 0.70589 0.0
C1110 C 0.96861 0.30591 0.64969 0.0
C1111 C 0.98106 0.32003 0.61823 0.0
C1112 C 0.94485 0.27674 0.65035 0.0
C1113 C 0.96996 0.30466 0.58738 0.0
C1114 C 0.94578 0.27609 0.58777 0.0
C1115 C 0.90743 0.23415 0.61982 0.0
C1116 C 0.89486 0.21993 0.65137 0.0
C1117 C 0.93268 0.26215 0.61912 0.0
C1118 C 0.90833 0.23382 0.68218 0.0
C1119 C 0.93273 0.26213 0.68169 0.0
H1120 H 0.95302 0.68378 0.93004 0.0
H1121 H 0.99126 0.66486 0.82827 0.0
H1122 H 0.95912 0.70982 0.8047 0.0
H1123 H 0.92498 0.75826 0.81403 0.0
H1124 H 0.88339 0.77449 0.91503 0.0
H1125 H 0.91198 0.72667 0.93783 0.0
C1126 C 0.95406 0.68919 0.90262 0.0
C1127 C 0.97531 0.67159 0.88109 0.0
C1128 C 0.93525 0.71485 0.88919 0.0
C1129 C 0.97558 0.67836 0.84552 0.0
C1130 C 0.9572 0.7041 0.83202 0.0
C1131 C 0.92212 0.75137 0.84105 0.0
C1132 C 0.90337 0.771 0.86315 0.0
C1133 C 0.93788 0.72326 0.8538 0.0
C1134 C 0.89865 0.76063 0.8977 0.0
C1135 C 0.91481 0.73311 0.91072 0.0
H1136 H 0.43229 0.28119 0.39919 0.0
H1137 H 0.44177 0.27077 0.28917 0.0
H1138 H 0.48396 0.22988 0.29711 0.0
H1139 H 0.51736 0.19586 0.33532 0.0
H1140 H 0.51058 0.20917 0.44515 0.0
H1141 H 0.46851 0.2502 0.43718 0.0
C1142 C 0.4439 0.27032 0.37694 0.0
C1143 C 0.43392 0.27919 0.34368 0.0
C1144 C 0.46854 0.24708 0.38162 0.0
C1145 C 0.44909 0.26462 0.31513 0.0
C1146 C 0.47309 0.24101 0.3196 0.0
C1147 C 0.50677 0.20788 0.35746 0.0
C1148 C 0.51704 0.19941 0.39073 0.0
C1149 C 0.48289 0.2319 0.35273 0.0
C1150 C 0.50328 0.21536 0.4192 0.0
C1151 C 0.47901 0.23869 0.41472 0.0
H1152 H 0.98436 0.19941 0.58616 0.0
H1153 H 0.97508 0.18808 0.69632 0.0
H1154 H 0.01791 0.23666 0.70398 0.0
H1155 H 0.06155 0.27833 0.67965 0.0
H1156 H 0.07678 0.28563 0.5697 0.0
H1157 H 0.02761 0.24316 0.56145 0.0
C1158 C 0.9914 0.20811 0.61175 0.0
C1159 C 0.97642 0.19072 0.6407 0.0
C1160 C 0.01718 0.23512 0.61591 0.0
C1161 C 0.98623 0.20139 0.67377 0.0
C1162 C 0.01072 0.22904 0.67813 0.0
C1163 C 0.05374 0.2712 0.65379 0.0
C1164 C 0.0727 0.28517 0.6253 0.0
C1165 C 0.02683 0.24561 0.64941 0.0
C1166 C 0.06256 0.27521 0.59203 0.0
C1167 C 0.03463 0.25079 0.58735 0.0
H1168 H 0.38824 0.76582 0.08374 0.0
H1169 H 0.39221 0.75855 0.19445 0.0
H1170 H 0.43618 0.80649 0.19573 0.0
H1171 H 0.47398 0.85073 0.16572 0.0
H1172 H 0.47546 0.85478 0.05501 0.0
H1173 H 0.42909 0.80828 0.05327 0.0
C1174 C 0.39868 0.77488 0.10807 0.0
C1175 C 0.38691 0.75852 0.13891 0.0
C1176 C 0.42498 0.80202 0.10864 0.0
C1177 C 0.40096 0.77039 0.17027 0.0
C1178 C 0.42609 0.79794 0.1711 0.0
C1179 C 0.46426 0.84117 0.14126 0.0
C1180 C 0.47799 0.85598 0.11057 0.0
C1181 C 0.43842 0.81386 0.14049 0.0
C1182 C 0.46541 0.84343 0.07897 0.0
C1183 C 0.4387 0.81711 0.078 0.0
H1184 H 0.64878 0.45448 0.75762 0.0
H1185 H 0.75097 0.50471 0.76703 0.0
H1186 H 0.73831 0.54627 0.72242 0.0
H1187 H 0.6971 0.56867 0.68127 0.0
H1188 H 0.59483 0.51825 0.67532 0.0
H1189 H 0.60917 0.47537 0.71717 0.0
C1190 C 0.66855 0.4744 0.75009 0.0
C1191 C 0.70084 0.47639 0.76592 0.0
C1192 C 0.66122 0.49773 0.72443 0.0
C1193 C 0.72581 0.50264 0.75557 0.0
C1194 C 0.71864 0.52625 0.72985 0.0
C1195 C 0.67819 0.54816 0.68898 0.0
C1196 C 0.64479 0.54676 0.67563 0.0
C1197 C 0.68638 0.52405 0.71404 0.0
C1198 C 0.62049 0.51997 0.68569 0.0
C1199 C 0.62868 0.49549 0.70956 0.0
H1200 H 0.81053 0.42827 0.08152 0.0
H1201 H 0.91639 0.42907 0.01165 0.0
H1202 H 0.88821 0.40482 0.95286 0.0
H1203 H 0.83583 0.39554 0.91124 0.0
H1204 H 0.72936 0.38019 0.9404 0.0
H1205 H 0.73853 0.38163 0.99866 0.0
C1206 C 0.82202 0.42334 0.05654 0.0
C1207 C 0.86758 0.43216 0.0513 0.0
C1208 C 0.79457 0.39742 0.99687 0.0
C1209 C 0.88884 0.42392 0.0122 0.0
C1210 C 0.8706 0.40659 0.97418 0.0
C1211 C 0.81654 0.39258 0.93141 0.0
C1212 C 0.78153 0.39155 0.92287 0.0
C1213 C 0.82718 0.39498 0.96565 0.0
C1214 C 0.75584 0.38492 0.94817 0.0
C1215 C 0.76149 0.38659 0.98339 0.0
H1216 H 0.85628 0.58284 0.21637 0.0
H1217 H 0.92652 0.6014 0.29992 0.0
H1218 H 0.95884 0.55425 0.28103 0.0
H1219 H 0.96705 0.50809 0.23936 0.0
H1220 H 0.89646 0.49264 0.15509 0.0
H1221 H 0.86436 0.5382 0.17542 0.0
C1222 C 0.8787 0.57641 0.2303 0.0
C1223 C 0.88874 0.59434 0.25978 0.0
C1224 C 0.89716 0.55009 0.21898 0.0
C1225 C 0.91807 0.58679 0.27756 0.0
C1226 C 0.93654 0.56012 0.2667 0.0
C1227 C 0.94448 0.51467 0.22586 0.0
C1228 C 0.93421 0.49744 0.19579 0.0
C1229 C 0.92622 0.54144 0.23742 0.0
C1230 C 0.90504 0.50605 0.17814 0.0
C1231 C 0.88668 0.53209 0.18961 0.0
H1232 H 0.75425 0.58879 0.39619 0.0
H1233 H 0.77819 0.69699 0.41009 0.0
H1234 H 0.7427 0.69457 0.46238 0.0
H1235 H 0.70391 0.66151 0.50379 0.0
H1236 H 0.68228 0.55287 0.48981 0.0
H1237 H 0.71778 0.55574 0.43817 0.0
C1238 C 0.75179 0.61184 0.41071 0.0
C1239 C 0.76867 0.64301 0.39921 0.0
C1240 C 0.73159 0.61023 0.44074 0.0
C1241 C 0.76549 0.67262 0.41847 0.0
C1242 C 0.74501 0.6713 0.44823 0.0
C1243 C 0.70696 0.63853 0.48939 0.0
C1244 C 0.69033 0.60707 0.50073 0.0
C1245 C 0.72777 0.64023 0.45956 0.0
C1246 C 0.6947 0.57747 0.4818 0.0
C1247 C 0.71503 0.57903 0.45216 0.0
H1248 H 0.63665 0.49522 0.92071 0.0
H1249 H 0.58874 0.41426 0.85862 0.0
H1250 H 0.59183 0.45244 0.80843 0.0
H1251 H 0.60773 0.5094 0.78231 0.0
H1252 H 0.65118 0.59117 0.8463 0.0
H1253 H 0.64887 0.55252 0.89581 0.0
C1254 C 0.62708 0.48574 0.89618 0.0
C1255 C 0.61365 0.45138 0.89325 0.0
C1256 C 0.62735 0.50833 0.86788 0.0
C1257 C 0.60048 0.44008 0.86137 0.0
C1258 C 0.60174 0.46211 0.83274 0.0
C1259 C 0.61641 0.51883 0.80715 0.0
C1260 C 0.62971 0.5532 0.81044 0.0
C1261 C 0.61505 0.49636 0.83571 0.0
C1262 C 0.64061 0.56497 0.84294 0.0
C1263 C 0.6396 0.54278 0.87129 0.0
H1264 H 0.80405 0.34033 0.05839 0.0
H1265 H 0.83741 0.42818 0.00728 0.0
H1266 H 0.78367 0.47855 0.00807 0.0
H1267 H 0.72403 0.45936 0.02901 0.0
H1268 H 0.68709 0.36236 0.07415 0.0
H1269 H 0.74361 0.34381 0.08003 0.0
C1270 C 0.80387 0.36556 0.047 0.0
C1271 C 0.83909 0.38325 0.02456 0.0
C1272 C 0.76943 0.38711 0.05367 0.0
C1273 C 0.83034 0.44361 0.00372 0.0
C1274 C 0.79143 0.45416 0.01639 0.0
C1275 C 0.72983 0.43564 0.04099 0.0
C1276 C 0.70281 0.41072 0.04956 0.0
C1277 C 0.76361 0.42724 0.03948 0.0
C1278 C 0.70873 0.37998 0.06622 0.0
C1279 C 0.74126 0.36898 0.06933 0.0
H1280 H 0.91186 0.47106 0.33937 0.0
H1281 H 0.8403 0.52699 0.28414 0.0
H1282 H 0.84143 0.48721 0.23603 0.0
H1283 H 0.86641 0.43895 0.20741 0.0
H1284 H 0.9386 0.38358 0.2626 0.0
H1285 H 0.93457 0.42109 0.31204 0.0
C1286 C 0.89632 0.47436 0.31688 0.0
C1287 C 0.87596 0.50205 0.31544 0.0
C1288 C 0.89805 0.45198 0.28871 0.0
C1289 C 0.85621 0.50603 0.28596 0.0
C1290 C 0.85698 0.4833 0.25835 0.0
C1291 C 0.88126 0.4351 0.23027 0.0
C1292 C 0.90313 0.40858 0.23098 0.0
C1293 C 0.87849 0.45669 0.25898 0.0
C1294 C 0.92172 0.40376 0.26113 0.0
C1295 C 0.91941 0.42528 0.28949 0.0
H1296 H 0.80923 0.56728 0.4718 0.0
H1297 H 0.84113 0.67531 0.46607 0.0
H1298 H 0.80481 0.68523 0.51526 0.0
H1299 H 0.76603 0.6635 0.5616 0.0
H1300 H 0.73382 0.55575 0.56889 0.0
H1301 H 0.76799 0.54559 0.51761 0.0
C1302 C 0.80784 0.59302 0.48102 0.0
C1303 C 0.82811 0.62045 0.46515 0.0
C1304 C 0.78711 0.59864 0.50995 0.0
C1305 C 0.82611 0.65362 0.47778 0.0
C1306 C 0.8054 0.65937 0.50608 0.0
C1307 C 0.76636 0.63775 0.552 0.0
C1308 C 0.74738 0.61045 0.56923 0.0
C1309 C 0.78619 0.63208 0.52268 0.0
C1310 C 0.74817 0.57729 0.55623 0.0
C1311 C 0.76779 0.57144 0.52689 0.0
H1312 H 0.52732 0.69533 0.68761 0.0
H1313 H 0.53714 0.70176 0.57724 0.0
H1314 H 0.50166 0.74976 0.57607 0.0
H1315 H 0.46482 0.7879 0.60669 0.0
H1316 H 0.46229 0.78588 0.71768 0.0
H1317 H 0.4983 0.73878 0.7184 0.0
C1318 C 0.52186 0.70742 0.66335 0.0
C1319 C 0.53453 0.69486 0.63256 0.0
C1320 C 0.50269 0.73585 0.663 0.0
C1321 C 0.52769 0.71104 0.60131 0.0
C1322 C 0.50732 0.73841 0.60063 0.0
C1323 C 0.47259 0.77743 0.63098 0.0
C1324 C 0.46062 0.7903 0.66205 0.0
C1325 C 0.49428 0.7508 0.63132 0.0
C1326 C 0.47124 0.77668 0.69335 0.0
C1327 C 0.4916 0.74947 0.69384 0.0
H1328 H 0.30388 0.57402 0.24069 0.0
H1329 H 0.40731 0.59478 0.20298 0.0
H1330 H 0.42508 0.54708 0.23721 0.0
H1331 H 0.41222 0.50318 0.28254 0.0
H1332 H 0.31021 0.48719 0.3252 0.0
H1333 H 0.29061 0.52902 0.28463 0.0
C1334 C 0.33013 0.56755 0.23962 0.0
C1335 C 0.35415 0.58709 0.21884 0.0
C1336 C 0.34041 0.54126 0.26071 0.0
C1337 C 0.38828 0.57935 0.21811 0.0
C1338 C 0.39848 0.55235 0.23798 0.0
C1339 C 0.38561 0.50852 0.28238 0.0
C1340 C 0.36249 0.49203 0.30634 0.0
C1341 C 0.37494 0.53361 0.25996 0.0
C1342 C 0.32827 0.49957 0.3067 0.0
C1343 C 0.31714 0.52354 0.28367 0.0
H1344 H 0.22161 0.7047 0.03 0.0
H1345 H 0.23736 0.60433 0.06889 0.0
H1346 H 0.19248 0.579 0.03131 0.0
H1347 H 0.14888 0.58521 0.98707 0.0
H1348 H 0.13085 0.68559 0.95048 0.0
H1349 H 0.17692 0.71107 0.98701 0.0
C1350 C 0.21551 0.67723 0.03001 0.0
C1351 C 0.23318 0.65644 0.05202 0.0
C1352 C 0.18938 0.66284 0.00858 0.0
C1353 C 0.22449 0.62095 0.05202 0.0
C1354 C 0.19864 0.60644 0.03067 0.0
C1355 C 0.15514 0.61267 0.98711 0.0
C1356 C 0.13689 0.63354 0.96587 0.0
C1357 C 0.18102 0.6271 0.00876 0.0
C1358 C 0.14473 0.66908 0.96653 0.0
C1359 C 0.17106 0.68359 0.98735 0.0
H1360 H 0.15548 0.51817 0.81646 0.0
H1361 H 0.04694 0.489 0.82267 0.0
H1362 H 0.05265 0.44285 0.78193 0.0
H1363 H 0.08879 0.40977 0.74587 0.0
H1364 H 0.19613 0.44264 0.73358 0.0
H1365 H 0.19082 0.48871 0.77487 0.0
C1366 C 0.13317 0.50187 0.80843 0.0
C1367 C 0.10082 0.50683 0.82218 0.0
C1368 C 0.13652 0.47605 0.78413 0.0
C1369 C 0.07197 0.48571 0.81192 0.0
C1370 C 0.07527 0.45922 0.7889 0.0
C1371 C 0.11093 0.4272 0.75216 0.0
C1372 C 0.14284 0.42282 0.73712 0.0
C1373 C 0.10742 0.45404 0.77501 0.0
C1374 C 0.1713 0.44575 0.74486 0.0
C1375 C 0.1683 0.47185 0.76863 0.0
H1376 H 0.2575 0.38763 0.55285 0.0
H1377 H 0.23781 0.28209 0.52393 0.0
H1378 H 0.28289 0.28982 0.48002 0.0
H1379 H 0.32822 0.32703 0.44937 0.0
H1380 H 0.34195 0.43402 0.47408 0.0
H1381 H 0.29977 0.42514 0.52045 0.0
C1382 C 0.26292 0.36635 0.53684 0.0
C1383 C 0.24417 0.33445 0.54159 0.0
C1384 C 0.28829 0.37114 0.51109 0.0
C1385 C 0.25171 0.30707 0.5207 0.0
C1386 C 0.27759 0.3114 0.49562 0.0
C1387 C 0.32175 0.34828 0.46491 0.0
C1388 C 0.33785 0.38113 0.45818 0.0
C1389 C 0.29607 0.34337 0.49052 0.0
C1390 C 0.32941 0.40857 0.47843 0.0
C1391 C 0.30543 0.40352 0.50506 0.0
H1392 H 0.27281 0.41912 0.27001 0.0
H1393 H 0.38134 0.40846 0.26473 0.0
H1394 H 0.3885 0.45232 0.22016 0.0
H1395 H 0.36444 0.49304 0.18203 0.0
H1396 H 0.25582 0.50119 0.18212 0.0
H1397 H 0.24816 0.45953 0.22997 0.0
C1398 C 0.29804 0.42655 0.25926 0.0
C1399 C 0.32653 0.4106 0.27105 0.0
C1400 C 0.30199 0.45152 0.23293 0.0
C1401 C 0.35895 0.42024 0.25636 0.0
C1402 C 0.36312 0.44532 0.23077 0.0
C1403 C 0.33912 0.48595 0.19287 0.0
C1404 C 0.31078 0.50049 0.17935 0.0
C1405 C 0.33491 0.46112 0.21895 0.0
C1406 C 0.27799 0.49058 0.1927 0.0
C1407 C 0.27368 0.46668 0.21981 0.0
H1408 H 0.29223 0.61175 0.00125 0.0
H1409 H 0.23829 0.51105 0.99604 0.0
H1410 H 0.2022 0.53027 0.95044 0.0
H1411 H 0.18546 0.5758 0.91203 0.0
H1412 H 0.2385 0.67652 0.91732 0.0
H1413 H 0.27528 0.65742 0.96299 0.0
C1414 C 0.27267 0.594 0.99005 0.0
C1415 C 0.26796 0.56003 0.00213 0.0
C1416 C 0.25184 0.60525 0.96382 0.0
C1417 C 0.24249 0.53734 0.98728 0.0
C1418 C 0.22178 0.54829 0.96118 0.0
C1419 C 0.20505 0.59344 0.9234 0.0
C1420 C 0.20932 0.62744 0.91191 0.0
C1421 C 0.22614 0.58217 0.94931 0.0
C1422 C 0.23484 0.65024 0.92623 0.0
C1423 C 0.25589 0.63929 0.95212 0.0
H1424 H 0.12998 0.49021 0.68454 0.0
H1425 H 0.02066 0.4723 0.70011 0.0
H1426 H 0.02257 0.51916 0.7411 0.0
H1427 H 0.05526 0.56724 0.7707 0.0
H1428 H 0.16487 0.58252 0.75594 0.0
H1429 H 0.16262 0.53527 0.71603 0.0
C1430 C 0.10652 0.49628 0.69704 0.0
C1431 C 0.07522 0.47776 0.68904 0.0
C1432 C 0.10773 0.52335 0.72032 0.0
C1433 C 0.04519 0.48597 0.70582 0.0
C1434 C 0.04619 0.51304 0.72904 0.0
C1435 C 0.07857 0.56013 0.75874 0.0
C1436 C 0.11013 0.57845 0.76632 0.0
C1437 C 0.07728 0.53225 0.73614 0.0
C1438 C 0.14022 0.56877 0.75081 0.0
C1439 C 0.139 0.5418 0.72781 0.0
H1440 H 0.14384 0.36154 0.52201 0.0
H1441 H 0.20461 0.45624 0.5429 0.0
H1442 H 0.24233 0.44688 0.49435 0.0
H1443 H 0.25712 0.41251 0.44448 0.0
H1444 H 0.19458 0.3195 0.42221 0.0
H1445 H 0.15874 0.32718 0.47284 0.0
C1446 C 0.16568 0.37983 0.51633 0.0
C1447 C 0.17142 0.40947 0.53613 0.0
C1448 C 0.18684 0.37469 0.4879 0.0
C1449 C 0.19964 0.43312 0.52814 0.0
C1450 C 0.22109 0.42796 0.50019 0.0
C1451 C 0.2356 0.39407 0.45088 0.0
C1452 C 0.22831 0.36555 0.42996 0.0
C1453 C 0.21471 0.39904 0.47962 0.0
C1454 C 0.20037 0.34177 0.43807 0.0
C1455 C 0.18001 0.34607 0.46702 0.0
H1456 H 0.50001 0.33472 0.33008 0.0
H1457 H 0.51995 0.3211 0.43807 0.0
H1458 H 0.56363 0.28316 0.42422 0.0
H1459 H 0.59348 0.25047 0.38166 0.0
H1460 H 0.57132 0.26197 0.27385 0.0
H1461 H 0.53154 0.30392 0.28743 0.0
C1462 C 0.51416 0.32374 0.35056 0.0
C1463 C 0.50638 0.33052 0.38505 0.0
C1464 C 0.5389 0.30134 0.34247 0.0
C1465 C 0.5251 0.31611 0.41127 0.0
C1466 C 0.55019 0.29439 0.40339 0.0
C1467 C 0.58017 0.26236 0.36113 0.0
C1468 C 0.58533 0.25286 0.32681 0.0
C1469 C 0.55682 0.28623 0.36912 0.0
C1470 C 0.56775 0.26854 0.30054 0.0
C1471 C 0.54503 0.2927 0.30824 0.0
loop_
_geom_bond_atom_site_label_1
_geom_bond_atom_site_label_2
_geom_bond_distance
_geom_bond_site_symmetry_2
_ccdc_geom_bond_type
O0 Cd1 2.223 . S
O0 C8 1.315 . S
Cd1 O0 2.223 . S
Cd1 O4 2.297 . S
Cd1 O5 2.439 . S
Cd1 O11 2.240 . S
Cd2 O3 2.240 . S
Cd2 O10 2.226 . S
Cd2 O12 2.297 1_455 S
Cd2 O13 2.439 . S
O3 Cd2 2.240 . S
O3 C8 1.279 . S
O4 Cd1 2.297 . S
O4 C6 1.247 . S
O5 Cd1 2.439 . S
O5 C6 1.208 . S
C6 O4 1.247 . S
C6 O5 1.208 . S
C7 O12 1.247 1_455 S
C7 O13 1.208 . S
C8 O0 1.315 . S
C8 O3 1.279 . S
C9 O10 1.316 . S
C9 O11 1.279 . S
O10 Cd2 2.226 . S
O10 C9 1.316 . S
O11 Cd1 2.240 . S
O11 C9 1.279 . S
O12 Cd2 2.297 1_655 S
O12 C7 1.247 1_655 S
O13 Cd2 2.439 . S
O13 C7 1.208 . S
O14 Cd15 2.223 . S
O14 C22 1.315 . S
Cd15 O14 2.223 . S
Cd15 O18 2.297 . S
Cd15 O19 2.439 . S
Cd15 O25 2.240 . S
Cd16 O17 2.240 . S
Cd16 O24 2.223 . S
Cd16 O26 2.297 . S
Cd16 O27 2.439 . S
O17 Cd16 2.240 . S
O17 C22 1.279 . S
O18 Cd15 2.297 . S
O18 C20 1.247 . S
O19 Cd15 2.439 . S
O19 C20 1.208 . S
C20 O18 1.247 . S
C20 O19 1.208 . S
C21 O26 1.247 . S
C21 O27 1.208 . S
C22 O14 1.315 . S
C22 O17 1.279 . S
C23 O24 1.315 . S
C23 O25 1.279 . S
O24 Cd16 2.223 . S
O24 C23 1.315 . S
O25 Cd15 2.240 . S
O25 C23 1.279 . S
O26 Cd16 2.297 . S
O26 C21 1.247 . S
O27 Cd16 2.439 . S
O27 C21 1.208 . S
O28 Cd29 2.223 . S
O28 C36 1.315 . S
Cd29 O28 2.223 . S
Cd29 O32 2.297 . S
Cd29 O33 2.439 . S
Cd29 O39 2.240 . S
Cd30 O31 2.240 . S
Cd30 O38 2.223 . S
Cd30 O40 2.297 . S
Cd30 O41 2.439 . S
O31 Cd30 2.240 . S
O31 C36 1.279 . S
O32 Cd29 2.297 . S
O32 C34 1.247 . S
O33 Cd29 2.439 . S
O33 C34 1.208 . S
C34 O32 1.247 . S
C34 O33 1.208 . S
C35 O40 1.247 . S
C35 O41 1.208 . S
C36 O28 1.315 . S
C36 O31 1.279 . S
C37 O38 1.315 . S
C37 O39 1.279 . S
O38 Cd30 2.223 . S
O38 C37 1.315 . S
O39 Cd29 2.240 . S
O39 C37 1.279 . S
O40 Cd30 2.297 . S
O40 C35 1.247 . S
O41 Cd30 2.439 . S
O41 C35 1.208 . S
O42 Cd43 2.223 . S
O42 C50 1.315 . S
Cd43 O42 2.223 . S
Cd43 O46 2.297 . S
Cd43 O47 2.439 . S
Cd43 O53 2.240 . S
Cd44 O45 2.240 . S
Cd44 O52 2.223 . S
Cd44 O54 2.297 . S
Cd44 O55 2.439 . S
O45 Cd44 2.240 . S
O45 C50 1.279 . S
O46 Cd43 2.297 . S
O46 C48 1.247 . S
O47 Cd43 2.439 . S
O47 C48 1.208 . S
C48 O46 1.247 . S
C48 O47 1.208 . S
C49 O54 1.247 . S
C49 O55 1.208 . S
C50 O42 1.315 . S
C50 O45 1.279 . S
C51 O52 1.315 . S
C51 O53 1.279 . S
O52 Cd44 2.223 . S
O52 C51 1.315 . S
O53 Cd43 2.240 . S
O53 C51 1.279 . S
O54 Cd44 2.297 . S
O54 C49 1.247 . S
O55 Cd44 2.439 . S
O55 C49 1.208 . S
O56 Cd57 2.223 . S
O56 C64 1.315 . S
Cd57 O56 2.223 . S
Cd57 O60 2.297 . S
Cd57 O61 2.439 . S
Cd57 O67 2.240 . S
Cd58 O59 2.240 . S
Cd58 O66 2.223 . S
Cd58 O68 2.297 . S
Cd58 O69 2.439 . S
O59 Cd58 2.240 . S
O59 C64 1.279 . S
O60 Cd57 2.297 . S
O60 C62 1.247 . S
O61 Cd57 2.439 . S
O61 C62 1.208 . S
C62 O60 1.247 . S
C62 O61 1.208 . S
C63 O68 1.247 . S
C63 O69 1.208 . S
C64 O56 1.315 . S
C64 O59 1.279 . S
C65 O66 1.315 . S
C65 O67 1.279 . S
O66 Cd58 2.223 . S
O66 C65 1.315 . S
O67 Cd57 2.240 . S
O67 C65 1.279 . S
O68 Cd58 2.297 . S
O68 C63 1.247 . S
O69 Cd58 2.439 . S
O69 C63 1.208 . S
O70 Cd71 2.223 . S
O70 C78 1.315 . S
Cd71 O70 2.223 . S
Cd71 O74 2.297 . S
Cd71 O75 2.439 . S
Cd71 O81 2.240 . S
Cd72 O73 2.240 . S
Cd72 O80 2.223 . S
Cd72 O82 2.297 . S
Cd72 O83 2.439 . S
O73 Cd72 2.240 . S
O73 C78 1.279 . S
O74 Cd71 2.297 . S
O74 C76 1.247 . S
O75 Cd71 2.439 . S
O75 C76 1.208 . S
C76 O74 1.247 . S
C76 O75 1.208 . S
C77 O82 1.247 . S
C77 O83 1.208 . S
C78 O70 1.315 . S
C78 O73 1.279 . S
C79 O80 1.315 . S
C79 O81 1.279 . S
O80 Cd72 2.223 . S
O80 C79 1.315 . S
O81 Cd71 2.240 . S
O81 C79 1.279 . S
O82 Cd72 2.297 . S
O82 C77 1.247 . S
O83 Cd72 2.439 . S
O83 C77 1.208 . S
O84 Cd85 2.223 . S
O84 C92 1.315 . S
Cd85 O84 2.223 . S
Cd85 O88 2.297 . S
Cd85 O89 2.439 . S
Cd85 O95 2.240 . S
Cd86 O87 2.240 . S
Cd86 O94 2.223 . S
Cd86 O96 2.297 . S
Cd86 O97 2.439 . S
O87 Cd86 2.240 . S
O87 C92 1.279 . S
O88 Cd85 2.297 . S
O88 C90 1.247 . S
O89 Cd85 2.439 . S
O89 C90 1.208 . S
C90 O88 1.247 . S
C90 O89 1.208 . S
C91 O96 1.247 . S
C91 O97 1.208 . S
C92 O84 1.315 . S
C92 O87 1.279 . S
C93 O94 1.315 . S
C93 O95 1.279 . S
O94 Cd86 2.223 . S
O94 C93 1.315 . S
O95 Cd85 2.240 . S
O95 C93 1.279 . S
O96 Cd86 2.297 . S
O96 C91 1.247 . S
O97 Cd86 2.439 . S
O97 C91 1.208 . S
O98 Cd99 2.223 . S
O98 C106 1.315 . S
Cd99 O98 2.223 . S
Cd99 O102 2.297 . S
Cd99 O103 2.439 . S
Cd99 O109 2.240 . S
Cd100 O101 2.240 . S
Cd100 O108 2.223 . S
Cd100 O110 2.297 . S
Cd100 O111 2.439 . S
O101 Cd100 2.240 . S
O101 C106 1.279 . S
O102 Cd99 2.297 . S
O102 C104 1.247 . S
O103 Cd99 2.439 . S
O103 C104 1.208 . S
C104 O102 1.247 . S
C104 O103 1.208 . S
C105 O110 1.247 . S
C105 O111 1.208 . S
C106 O98 1.315 . S
C106 O101 1.279 . S
C107 O108 1.315 . S
C107 O109 1.279 . S
O108 Cd100 2.223 . S
O108 C107 1.315 . S
O109 Cd99 2.240 . S
O109 C107 1.279 . S
O110 Cd100 2.297 . S
O110 C105 1.247 . S
O111 Cd100 2.439 . S
O111 C105 1.208 . S
O112 Cd113 2.223 . S
O112 C120 1.315 . S
Cd113 O112 2.223 . S
Cd113 O116 2.297 . S
Cd113 O117 2.439 . S
Cd113 O123 2.240 . S
Cd114 O115 2.240 . S
Cd114 O122 2.223 . S
Cd114 O124 2.297 . S
Cd114 O125 2.439 . S
O115 Cd114 2.240 . S
O115 C120 1.279 . S
O116 Cd113 2.297 . S
O116 C118 1.247 . S
O117 Cd113 2.439 . S
O117 C118 1.208 . S
C118 O116 1.247 . S
C118 O117 1.208 . S
C119 O124 1.247 . S
C119 O125 1.208 . S
C120 O112 1.315 . S
C120 O115 1.279 . S
C121 O122 1.315 . S
C121 O123 1.279 . S
O122 Cd114 2.223 . S
O122 C121 1.315 . S
O123 Cd113 2.240 . S
O123 C121 1.279 . S
O124 Cd114 2.297 . S
O124 C119 1.247 . S
O125 Cd114 2.439 . S
O125 C119 1.208 . S
O126 Cd127 2.223 . S
O126 C134 1.315 . S
Cd127 O126 2.223 . S
Cd127 O130 2.297 . S
Cd127 O131 2.439 . S
Cd127 O137 2.240 . S
Cd128 O129 2.240 . S
Cd128 O136 2.223 . S
Cd128 O138 2.297 . S
Cd128 O139 2.439 . S
O129 Cd128 2.240 . S
O129 C134 1.279 . S
O130 Cd127 2.297 . S
O130 C132 1.247 . S
O131 Cd127 2.439 . S
O131 C132 1.208 . S
C132 O130 1.247 . S
C132 O131 1.208 . S
C133 O138 1.247 . S
C133 O139 1.208 . S
C134 O126 1.315 . S
C134 O129 1.279 . S
C135 O136 1.315 . S
C135 O137 1.279 . S
O136 Cd128 2.223 . S
O136 C135 1.315 . S
O137 Cd127 2.240 . S
O137 C135 1.279 . S
O138 Cd128 2.297 . S
O138 C133 1.247 . S
O139 Cd128 2.439 . S
O139 C133 1.208 . S
O140 Cd141 2.223 . S
O140 C148 1.315 . S
Cd141 O140 2.223 . S
Cd141 O144 2.297 . S
Cd141 O145 2.439 . S
Cd141 O151 2.240 . S
Cd142 O143 2.240 . S
Cd142 O150 2.223 . S
Cd142 O152 2.297 . S
Cd142 O153 2.439 . S
O143 Cd142 2.240 . S
O143 C148 1.279 . S
O144 Cd141 2.297 . S
O144 C146 1.247 . S
O145 Cd141 2.439 . S
O145 C146 1.208 . S
C146 O144 1.247 . S
C146 O145 1.208 . S
C147 O152 1.247 . S
C147 O153 1.208 . S
C148 O140 1.315 . S
C148 O143 1.279 . S
C149 O150 1.315 . S
C149 O151 1.279 . S
O150 Cd142 2.223 . S
O150 C149 1.315 . S
O151 Cd141 2.240 . S
O151 C149 1.279 . S
O152 Cd142 2.297 . S
O152 C147 1.247 . S
O153 Cd142 2.439 . S
O153 C147 1.208 . S
O154 Cd155 2.223 . S
O154 C162 1.315 . S
Cd155 O154 2.223 . S
Cd155 O158 2.297 . S
Cd155 O159 2.439 . S
Cd155 O165 2.240 . S
Cd156 O157 2.240 . S
Cd156 O164 2.223 . S
Cd156 O166 2.297 . S
Cd156 O167 2.439 . S
O157 Cd156 2.240 . S
O157 C162 1.279 . S
O158 Cd155 2.297 . S
O158 C160 1.247 . S
O159 Cd155 2.439 . S
O159 C160 1.208 . S
C160 O158 1.247 . S
C160 O159 1.208 . S
C161 O166 1.247 . S
C161 O167 1.208 . S
C162 O154 1.315 . S
C162 O157 1.279 . S
C163 O164 1.315 . S
C163 O165 1.279 . S
O164 Cd156 2.223 . S
O164 C163 1.315 . S
O165 Cd155 2.240 . S
O165 C163 1.279 . S
O166 Cd156 2.297 . S
O166 C161 1.247 . S
O167 Cd156 2.439 . S
O167 C161 1.208 . S
O168 Cd169 2.223 . S
O168 C176 1.315 . S
Cd169 O168 2.223 . S
Cd169 O172 2.297 . S
Cd169 O173 2.439 . S
Cd169 O179 2.240 . S
Cd170 O171 2.240 . S
Cd170 O178 2.223 . S
Cd170 O180 2.297 . S
Cd170 O181 2.439 . S
O171 Cd170 2.240 . S
O171 C176 1.279 . S
O172 Cd169 2.297 . S
O172 C174 1.247 . S
O173 Cd169 2.439 . S
O173 C174 1.208 . S
C174 O172 1.247 . S
C174 O173 1.208 . S
C175 O180 1.247 . S
C175 O181 1.208 . S
C176 O168 1.315 . S
C176 O171 1.279 . S
C177 O178 1.315 . S
C177 O179 1.279 . S
O178 Cd170 2.223 . S
O178 C177 1.315 . S
O179 Cd169 2.240 . S
O179 C177 1.279 . S
O180 Cd170 2.297 . S
O180 C175 1.247 . S
O181 Cd170 2.439 . S
O181 C175 1.208 . S
O182 Cd183 2.223 . S
O182 C190 1.315 . S
Cd183 O182 2.223 . S
Cd183 O186 2.297 . S
Cd183 O187 2.439 . S
Cd183 O193 2.240 . S
Cd184 O185 2.240 . S
Cd184 O192 2.223 . S
Cd184 O194 2.297 . S
Cd184 O195 2.439 . S
O185 Cd184 2.240 . S
O185 C190 1.279 . S
O186 Cd183 2.297 . S
O186 C188 1.247 . S
O187 Cd183 2.439 . S
O187 C188 1.208 . S
C188 O186 1.247 . S
C188 O187 1.208 . S
C189 O194 1.247 . S
C189 O195 1.208 . S
C190 O182 1.315 . S
C190 O185 1.279 . S
C191 O192 1.315 . S
C191 O193 1.279 . S
O192 Cd184 2.223 . S
O192 C191 1.315 . S
O193 Cd183 2.240 . S
O193 C191 1.279 . S
O194 Cd184 2.297 . S
O194 C189 1.247 . S
O195 Cd184 2.439 . S
O195 C189 1.208 . S
O196 Cd197 2.223 . S
O196 C204 1.315 . S
Cd197 O196 2.223 . S
Cd197 O200 2.297 . S
Cd197 O201 2.439 . S
Cd197 O207 2.240 . S
Cd198 O199 2.240 . S
Cd198 O206 2.223 . S
Cd198 O208 2.297 . S
Cd198 O209 2.439 . S
O199 Cd198 2.240 . S
O199 C204 1.279 . S
O200 Cd197 2.297 . S
O200 C202 1.247 . S
O201 Cd197 2.439 . S
O201 C202 1.208 . S
C202 O200 1.247 . S
C202 O201 1.208 . S
C203 O208 1.247 . S
C203 O209 1.208 . S
C204 O196 1.315 . S
C204 O199 1.279 . S
C205 O206 1.315 . S
C205 O207 1.279 . S
O206 Cd198 2.223 . S
O206 C205 1.315 . S
O207 Cd197 2.240 . S
O207 C205 1.279 . S
O208 Cd198 2.297 . S
O208 C203 1.247 . S
O209 Cd198 2.439 . S
O209 C203 1.208 . S
O210 Cd211 2.223 . S
O210 C218 1.315 . S
Cd211 O210 2.223 . S
Cd211 O214 2.297 . S
Cd211 O215 2.439 . S
Cd211 O221 2.240 . S
Cd212 O213 2.240 . S
Cd212 O220 2.223 . S
Cd212 O222 2.297 . S
Cd212 O223 2.439 . S
O213 Cd212 2.240 . S
O213 C218 1.279 . S
O214 Cd211 2.297 . S
O214 C216 1.247 . S
O215 Cd211 2.439 . S
O215 C216 1.208 . S
C216 O214 1.247 . S
C216 O215 1.208 . S
C217 O222 1.247 . S
C217 O223 1.208 . S
C218 O210 1.315 . S
C218 O213 1.279 . S
C219 O220 1.315 . S
C219 O221 1.279 . S
O220 Cd212 2.223 . S
O220 C219 1.315 . S
O221 Cd211 2.240 . S
O221 C219 1.279 . S
O222 Cd212 2.297 . S
O222 C217 1.247 . S
O223 Cd212 2.439 . S
O223 C217 1.208 . S
O224 Cd225 2.223 . S
O224 C232 1.315 . S
Cd225 O224 2.223 . S
Cd225 O228 2.297 . S
Cd225 O229 2.439 . S
Cd225 O235 2.240 . S
Cd226 O227 2.240 . S
Cd226 O234 2.223 . S
Cd226 O236 2.297 . S
Cd226 O237 2.439 . S
O227 Cd226 2.240 . S
O227 C232 1.279 . S
O228 Cd225 2.297 . S
O228 C230 1.247 . S
O229 Cd225 2.439 . S
O229 C230 1.208 . S
C230 O228 1.247 . S
C230 O229 1.208 . S
C231 O236 1.247 . S
C231 O237 1.208 . S
C232 O224 1.315 . S
C232 O227 1.279 . S
C233 O234 1.315 . S
C233 O235 1.279 . S
O234 Cd226 2.223 . S
O234 C233 1.315 . S
O235 Cd225 2.240 . S
O235 C233 1.279 . S
O236 Cd226 2.297 . S
O236 C231 1.247 . S
O237 Cd226 2.439 . S
O237 C231 1.208 . S
O238 Cd239 2.223 . S
O238 C246 1.315 . S
Cd239 O238 2.223 . S
Cd239 O242 2.297 . S
Cd239 O243 2.439 . S
Cd239 O249 2.240 . S
Cd240 O241 2.240 . S
Cd240 O248 2.223 . S
Cd240 O250 2.297 . S
Cd240 O251 2.439 . S
O241 Cd240 2.240 . S
O241 C246 1.279 . S
O242 Cd239 2.297 . S
O242 C244 1.247 . S
O243 Cd239 2.439 . S
O243 C244 1.208 . S
C244 O242 1.247 . S
C244 O243 1.208 . S
C245 O250 1.247 . S
C245 O251 1.208 . S
C246 O238 1.315 . S
C246 O241 1.279 . S
C247 O248 1.315 . S
C247 O249 1.279 . S
O248 Cd240 2.223 . S
O248 C247 1.315 . S
O249 Cd239 2.240 . S
O249 C247 1.279 . S
O250 Cd240 2.297 . S
O250 C245 1.247 . S
O251 Cd240 2.439 . S
O251 C245 1.208 . S
O252 Cd253 2.223 . S
O252 C260 1.315 . S
Cd253 O252 2.223 . S
Cd253 O256 2.297 . S
Cd253 O257 2.439 . S
Cd253 O263 2.240 . S
Cd254 O255 2.240 . S
Cd254 O262 2.223 . S
Cd254 O264 2.297 . S
Cd254 O265 2.439 . S
O255 Cd254 2.240 . S
O255 C260 1.279 . S
O256 Cd253 2.297 . S
O256 C258 1.247 . S
O257 Cd253 2.439 . S
O257 C258 1.208 . S
C258 O256 1.247 . S
C258 O257 1.208 . S
C259 O264 1.247 . S
C259 O265 1.208 . S
C260 O252 1.315 . S
C260 O255 1.279 . S
C261 O262 1.315 . S
C261 O263 1.279 . S
O262 Cd254 2.223 . S
O262 C261 1.315 . S
O263 Cd253 2.240 . S
O263 C261 1.279 . S
O264 Cd254 2.297 . S
O264 C259 1.247 . S
O265 Cd254 2.439 . S
O265 C259 1.208 . S
O266 Cd267 2.223 . S
O266 C274 1.315 . S
Cd267 O266 2.223 . S
Cd267 O270 2.297 . S
Cd267 O271 2.439 . S
Cd267 O277 2.240 . S
Cd268 O269 2.240 . S
Cd268 O276 2.223 . S
Cd268 O278 2.297 . S
Cd268 O279 2.439 . S
O269 Cd268 2.240 . S
O269 C274 1.279 . S
O270 Cd267 2.297 . S
O270 C272 1.247 . S
O271 Cd267 2.439 . S
O271 C272 1.208 . S
C272 O270 1.247 . S
C272 O271 1.208 . S
C273 O278 1.247 . S
C273 O279 1.208 . S
C274 O266 1.315 . S
C274 O269 1.279 . S
C275 O276 1.315 . S
C275 O277 1.279 . S
O276 Cd268 2.223 . S
O276 C275 1.315 . S
O277 Cd267 2.240 . S
O277 C275 1.279 . S
O278 Cd268 2.297 . S
O278 C273 1.247 . S
O279 Cd268 2.439 . S
O279 C273 1.208 . S
O280 Cd281 2.223 . S
O280 C288 1.315 . S
Cd281 O280 2.223 . S
Cd281 O284 2.297 . S
Cd281 O285 2.439 . S
Cd281 O291 2.240 . S
Cd282 O283 2.240 . S
Cd282 O290 2.223 . S
Cd282 O292 2.297 . S
Cd282 O293 2.439 . S
O283 Cd282 2.240 . S
O283 C288 1.279 . S
O284 Cd281 2.297 . S
O284 C286 1.247 . S
O285 Cd281 2.439 . S
O285 C286 1.208 . S
C286 O284 1.247 . S
C286 O285 1.208 . S
C287 O292 1.247 . S
C287 O293 1.208 . S
C288 O280 1.315 . S
C288 O283 1.279 . S
C289 O290 1.315 . S
C289 O291 1.279 . S
O290 Cd282 2.223 . S
O290 C289 1.315 . S
O291 Cd281 2.240 . S
O291 C289 1.279 . S
O292 Cd282 2.297 . S
O292 C287 1.247 . S
O293 Cd282 2.439 . S
O293 C287 1.208 . S
O294 Cd295 2.223 . S
O294 C302 1.315 . S
Cd295 O294 2.223 . S
Cd295 O298 2.297 . S
Cd295 O299 2.439 . S
Cd295 O305 2.240 . S
Cd296 O297 2.240 . S
Cd296 O304 2.223 . S
Cd296 O306 2.297 . S
Cd296 O307 2.439 . S
O297 Cd296 2.240 . S
O297 C302 1.279 . S
O298 Cd295 2.297 . S
O298 C300 1.247 . S
O299 Cd295 2.439 . S
O299 C300 1.208 . S
C300 O298 1.247 . S
C300 O299 1.208 . S
C301 O306 1.247 . S
C301 O307 1.208 . S
C302 O294 1.315 . S
C302 O297 1.279 . S
C303 O304 1.315 . S
C303 O305 1.279 . S
O304 Cd296 2.223 . S
O304 C303 1.315 . S
O305 Cd295 2.240 . S
O305 C303 1.279 . S
O306 Cd296 2.297 . S
O306 C301 1.247 . S
O307 Cd296 2.439 . S
O307 C301 1.208 . S
O308 Cd309 2.223 . S
O308 C316 1.315 . S
Cd309 O308 2.223 . S
Cd309 O312 2.297 . S
Cd309 O313 2.439 . S
Cd309 O319 2.240 . S
Cd310 O311 2.240 . S
Cd310 O318 2.223 . S
Cd310 O320 2.297 . S
Cd310 O321 2.439 . S
O311 Cd310 2.240 . S
O311 C316 1.279 . S
O312 Cd309 2.297 . S
O312 C314 1.247 . S
O313 Cd309 2.439 . S
O313 C314 1.208 . S
C314 O312 1.247 . S
C314 O313 1.208 . S
C315 O320 1.247 . S
C315 O321 1.208 . S
C316 O308 1.315 . S
C316 O311 1.279 . S
C317 O318 1.315 . S
C317 O319 1.279 . S
O318 Cd310 2.223 . S
O318 C317 1.315 . S
O319 Cd309 2.240 . S
O319 C317 1.279 . S
O320 Cd310 2.297 . S
O320 C315 1.247 . S
O321 Cd310 2.439 . S
O321 C315 1.208 . S
O322 Cd323 2.223 . S
O322 C330 1.315 . S
Cd323 O322 2.223 . S
Cd323 O326 2.297 . S
Cd323 O327 2.439 . S
Cd323 O333 2.240 . S
Cd324 O325 2.240 . S
Cd324 O332 2.223 . S
Cd324 O334 2.297 . S
Cd324 O335 2.439 . S
O325 Cd324 2.240 . S
O325 C330 1.279 . S
O326 Cd323 2.297 . S
O326 C328 1.247 . S
O327 Cd323 2.439 . S
O327 C328 1.208 . S
C328 O326 1.247 . S
C328 O327 1.208 . S
C329 O334 1.247 . S
C329 O335 1.208 . S
C330 O322 1.315 . S
C330 O325 1.279 . S
C331 O332 1.315 . S
C331 O333 1.279 . S
O332 Cd324 2.223 . S
O332 C331 1.315 . S
O333 Cd323 2.240 . S
O333 C331 1.279 . S
O334 Cd324 2.297 . S
O334 C329 1.247 . S
O335 Cd324 2.439 . S
O335 C329 1.208 . S
O336 Cd337 2.223 . S
O336 C344 1.315 . S
Cd337 O336 2.223 . S
Cd337 O340 2.297 . S
Cd337 O341 2.439 . S
Cd337 O347 2.240 . S
Cd338 O339 2.240 . S
Cd338 O346 2.223 . S
Cd338 O348 2.297 . S
Cd338 O349 2.439 . S
O339 Cd338 2.240 . S
O339 C344 1.279 . S
O340 Cd337 2.297 . S
O340 C342 1.247 . S
O341 Cd337 2.439 . S
O341 C342 1.208 . S
C342 O340 1.247 . S
C342 O341 1.208 . S
C343 O348 1.247 . S
C343 O349 1.208 . S
C344 O336 1.315 . S
C344 O339 1.279 . S
C345 O346 1.315 . S
C345 O347 1.279 . S
O346 Cd338 2.223 . S
O346 C345 1.315 . S
O347 Cd337 2.240 . S
O347 C345 1.279 . S
O348 Cd338 2.297 . S
O348 C343 1.247 . S
O349 Cd338 2.439 . S
O349 C343 1.208 . S
O350 Cd351 2.223 . S
O350 C358 1.315 . S
Cd351 O350 2.223 . S
Cd351 O354 2.297 . S
Cd351 O355 2.439 . S
Cd351 O361 2.240 . S
Cd352 O353 2.240 . S
Cd352 O360 2.223 . S
Cd352 O362 2.297 . S
Cd352 O363 2.439 . S
O353 Cd352 2.240 . S
O353 C358 1.279 . S
O354 Cd351 2.297 . S
O354 C356 1.247 . S
O355 Cd351 2.439 . S
O355 C356 1.208 . S
C356 O354 1.247 . S
C356 O355 1.208 . S
C357 O362 1.247 . S
C357 O363 1.208 . S
C358 O350 1.315 . S
C358 O353 1.279 . S
C359 O360 1.315 . S
C359 O361 1.279 . S
O360 Cd352 2.223 . S
O360 C359 1.315 . S
O361 Cd351 2.240 . S
O361 C359 1.279 . S
O362 Cd352 2.297 . S
O362 C357 1.247 . S
O363 Cd352 2.439 . S
O363 C357 1.208 . S
O364 Cd365 2.223 . S
O364 C372 1.315 . S
Cd365 O364 2.223 . S
Cd365 O368 2.297 . S
Cd365 O369 2.439 . S
Cd365 O375 2.240 . S
Cd366 O367 2.240 . S
Cd366 O374 2.223 . S
Cd366 O376 2.297 . S
Cd366 O377 2.439 . S
O367 Cd366 2.240 . S
O367 C372 1.279 . S
O368 Cd365 2.297 . S
O368 C370 1.247 . S
O369 Cd365 2.439 . S
O369 C370 1.208 . S
C370 O368 1.247 . S
C370 O369 1.208 . S
C371 O376 1.247 . S
C371 O377 1.208 . S
C372 O364 1.315 . S
C372 O367 1.279 . S
C373 O374 1.315 . S
C373 O375 1.279 . S
O374 Cd366 2.223 . S
O374 C373 1.315 . S
O375 Cd365 2.240 . S
O375 C373 1.279 . S
O376 Cd366 2.297 . S
O376 C371 1.247 . S
O377 Cd366 2.439 . S
O377 C371 1.208 . S
O378 Cd379 2.223 . S
O378 C386 1.315 . S
Cd379 O378 2.223 . S
Cd379 O382 2.297 . S
Cd379 O383 2.439 . S
Cd379 O389 2.240 . S
Cd380 O381 2.240 . S
Cd380 O388 2.223 . S
Cd380 O390 2.297 1_655 S
Cd380 O391 2.439 . S
O381 Cd380 2.240 . S
O381 C386 1.279 . S
O382 Cd379 2.297 . S
O382 C384 1.247 . S
O383 Cd379 2.439 . S
O383 C384 1.208 . S
C384 O382 1.247 . S
C384 O383 1.208 . S
C385 O390 1.238 1_655 S
C385 O391 1.229 . S
C386 O378 1.315 . S
C386 O381 1.279 . S
C387 O388 1.315 . S
C387 O389 1.279 . S
O388 Cd380 2.223 . S
O388 C387 1.315 . S
O389 Cd379 2.240 . S
O389 C387 1.279 . S
O390 Cd380 2.297 1_455 S
O390 C385 1.238 1_455 S
O391 Cd380 2.439 . S
O391 C385 1.229 . S
O392 Cd393 2.223 . S
O392 C400 1.315 . S
Cd393 O392 2.223 . S
Cd393 O396 2.297 . S
Cd393 O397 2.439 . S
Cd393 O403 2.240 . S
Cd394 O395 2.240 . S
Cd394 O402 2.223 . S
Cd394 O404 2.297 . S
Cd394 O405 2.439 . S
O395 Cd394 2.240 . S
O395 C400 1.279 . S
O396 Cd393 2.297 . S
O396 C398 1.247 . S
O397 Cd393 2.439 . S
O397 C398 1.208 . S
C398 O396 1.247 . S
C398 O397 1.208 . S
C399 O404 1.247 . S
C399 O405 1.208 . S
C400 O392 1.315 . S
C400 O395 1.279 . S
C401 O402 1.315 . S
C401 O403 1.279 . S
O402 Cd394 2.223 . S
O402 C401 1.315 . S
O403 Cd393 2.240 . S
O403 C401 1.279 . S
O404 Cd394 2.297 . S
O404 C399 1.247 . S
O405 Cd394 2.439 . S
O405 C399 1.208 . S
O406 Cd407 2.223 . S
O406 C414 1.315 . S
Cd407 O406 2.223 . S
Cd407 O410 2.297 . S
Cd407 O411 2.439 . S
Cd407 O417 2.240 . S
Cd408 O409 2.240 . S
Cd408 O416 2.223 . S
Cd408 O418 2.297 . S
Cd408 O419 2.439 . S
O409 Cd408 2.240 . S
O409 C414 1.279 . S
O410 Cd407 2.297 . S
O410 C412 1.247 . S
O411 Cd407 2.439 . S
O411 C412 1.208 . S
C412 O410 1.247 . S
C412 O411 1.208 . S
C413 O418 1.247 . S
C413 O419 1.208 . S
C414 O406 1.315 . S
C414 O409 1.279 . S
C415 O416 1.315 . S
C415 O417 1.279 . S
O416 Cd408 2.223 . S
O416 C415 1.315 . S
O417 Cd407 2.240 . S
O417 C415 1.279 . S
O418 Cd408 2.297 . S
O418 C413 1.247 . S
O419 Cd408 2.439 . S
O419 C413 1.208 . S
O420 Cd421 2.223 . S
O420 C428 1.315 . S
Cd421 O420 2.223 . S
Cd421 O424 2.297 . S
Cd421 O425 2.439 . S
Cd421 O431 2.240 . S
Cd422 O423 2.240 . S
Cd422 O430 2.223 . S
Cd422 O432 2.297 . S
Cd422 O433 2.439 . S
O423 Cd422 2.240 . S
O423 C428 1.279 . S
O424 Cd421 2.297 . S
O424 C426 1.247 . S
O425 Cd421 2.439 . S
O425 C426 1.208 . S
C426 O424 1.247 . S
C426 O425 1.208 . S
C427 O432 1.247 . S
C427 O433 1.208 . S
C428 O420 1.315 . S
C428 O423 1.279 . S
C429 O430 1.315 . S
C429 O431 1.279 . S
O430 Cd422 2.223 . S
O430 C429 1.315 . S
O431 Cd421 2.240 . S
O431 C429 1.279 . S
O432 Cd422 2.297 . S
O432 C427 1.247 . S
O433 Cd422 2.439 . S
O433 C427 1.208 . S
O434 Cd435 2.223 . S
O434 C442 1.315 . S
Cd435 O434 2.223 . S
Cd435 O438 2.297 . S
Cd435 O439 2.439 . S
Cd435 O445 2.240 . S
Cd436 O437 2.240 . S
Cd436 O444 2.223 . S
Cd436 O446 2.297 . S
Cd436 O447 2.439 . S
O437 Cd436 2.240 . S
O437 C442 1.279 . S
O438 Cd435 2.297 . S
O438 C440 1.247 . S
O439 Cd435 2.439 . S
O439 C440 1.208 . S
C440 O438 1.247 . S
C440 O439 1.208 . S
C441 O446 1.247 . S
C441 O447 1.208 . S
C442 O434 1.315 . S
C442 O437 1.279 . S
C443 O444 1.315 . S
C443 O445 1.279 . S
O444 Cd436 2.223 . S
O444 C443 1.315 . S
O445 Cd435 2.240 . S
O445 C443 1.279 . S
O446 Cd436 2.297 . S
O446 C441 1.247 . S
O447 Cd436 2.439 . S
O447 C441 1.208 . S
H448 C454 0.930 . S
H449 C457 0.930 . S
H450 C458 0.930 . S
H451 C459 0.930 . S
H452 C462 0.930 . S
H453 C463 0.930 . S
C454 H448 0.930 . S
C454 C455 1.355 1_655 S
C454 C456 1.415 1_545 S
C455 C454 1.355 1_455 S
C455 C457 1.419 1_545 S
C456 C454 1.415 1_565 S
C456 C461 1.425 . S
C456 C463 1.409 . S
C457 H449 0.930 . S
C457 C455 1.419 1_565 S
C457 C458 1.362 . S
C458 H450 0.930 . S
C458 C457 1.362 . S
C458 C461 1.409 1_455 S
C459 H451 0.930 . S
C459 C460 1.355 1_554 S
C459 C461 1.415 . S
C460 C459 1.355 1_556 S
C460 C462 1.419 . S
C461 C456 1.425 . S
C461 C458 1.409 1_655 S
C461 C459 1.415 . S
C462 H452 0.930 . S
C462 C460 1.419 . S
C462 C463 1.362 1_556 S
C463 H453 0.930 . S
C463 C456 1.409 . S
C463 C462 1.362 1_554 S
H464 C470 0.930 . S
H465 C473 0.930 . S
H466 C474 0.930 . S
H467 C475 0.930 . S
H468 C478 0.930 . S
H469 C479 0.930 . S
C470 H464 0.930 . S
C470 C471 1.355 . S
C470 C472 1.415 . S
C471 C470 1.355 . S
C471 C473 1.419 . S
C472 C470 1.415 . S
C472 C477 1.425 . S
C472 C479 1.409 . S
C473 H465 0.930 . S
C473 C471 1.419 . S
C473 C474 1.362 . S
C474 H466 0.930 . S
C474 C473 1.362 . S
C474 C477 1.409 . S
C475 H467 0.930 . S
C475 C476 1.355 . S
C475 C477 1.415 . S
C476 C475 1.355 . S
C476 C478 1.419 . S
C477 C472 1.425 . S
C477 C474 1.409 . S
C477 C475 1.415 . S
C478 H468 0.930 . S
C478 C476 1.419 . S
C478 C479 1.362 . S
C479 H469 0.930 . S
C479 C472 1.409 . S
C479 C478 1.362 . S
H480 C486 0.930 . S
H481 C489 0.930 . S
H482 C490 0.930 . S
H483 C491 0.930 . S
H484 C494 0.930 . S
H485 C495 0.930 . S
C486 H480 0.930 . S
C486 C487 1.355 1_545 S
C486 C488 1.415 . S
C487 C486 1.355 1_565 S
C487 C489 1.419 . S
C488 C486 1.415 . S
C488 C493 1.425 . S
C488 C495 1.409 . S
C489 H481 0.930 . S
C489 C487 1.419 . S
C489 C490 1.362 1_565 S
C490 H482 0.930 . S
C490 C489 1.362 1_545 S
C490 C493 1.409 . S
C491 H483 0.930 . S
C491 C492 1.355 . S
C491 C493 1.415 . S
C492 C491 1.355 . S
C492 C494 1.419 . S
C493 C488 1.425 . S
C493 C490 1.409 . S
C493 C491 1.415 . S
C494 H484 0.930 . S
C494 C492 1.419 . S
C494 C495 1.362 . S
C495 H485 0.930 . S
C495 C488 1.409 . S
C495 C494 1.362 . S
H496 C502 0.930 . S
H497 C505 0.930 . S
H498 C506 0.930 . S
H499 C507 0.930 . S
H500 C510 0.930 . S
H501 C511 0.930 . S
C502 H496 0.930 . S
C502 C503 1.355 . S
C502 C504 1.415 . S
C503 C502 1.355 . S
C503 C505 1.419 . S
C504 C502 1.415 . S
C504 C509 1.425 . S
C504 C511 1.409 . S
C505 H497 0.930 . S
C505 C503 1.419 . S
C505 C506 1.362 . S
C506 H498 0.930 . S
C506 C505 1.362 . S
C506 C509 1.409 . S
C507 H499 0.930 . S
C507 C508 1.355 . S
C507 C509 1.415 . S
C508 C507 1.355 . S
C508 C510 1.419 . S
C509 C504 1.425 . S
C509 C506 1.409 . S
C509 C507 1.415 . S
C510 H500 0.930 . S
C510 C508 1.419 . S
C510 C511 1.362 . S
C511 H501 0.930 . S
C511 C504 1.409 . S
C511 C510 1.362 . S
H512 C518 0.930 . S
H513 C521 0.930 . S
H514 C522 0.930 . S
H515 C523 0.930 . S
H516 C526 0.930 1_545 S
H517 C527 0.930 1_455 S
C518 H512 0.930 . S
C518 C519 1.355 . S
C518 C520 1.415 1_455 S
C519 C518 1.355 . S
C519 C521 1.419 1_455 S
C520 C518 1.415 1_655 S
C520 C525 1.425 . S
C520 C527 1.409 . S
C521 H513 0.930 . S
C521 C519 1.419 1_655 S
C521 C522 1.362 . S
C522 H514 0.930 . S
C522 C521 1.362 . S
C522 C525 1.409 . S
C523 H515 0.930 . S
C523 C524 1.355 . S
C523 C525 1.415 . S
C524 C523 1.355 . S
C524 C526 1.419 . S
C525 C520 1.425 . S
C525 C522 1.409 . S
C525 C523 1.415 . S
C526 H516 0.930 1_565 S
C526 C524 1.419 . S
C526 C527 1.362 . S
C527 H517 0.930 1_655 S
C527 C520 1.409 . S
C527 C526 1.362 . S
H528 C534 0.930 . S
H529 C537 0.930 . S
H530 C538 0.930 . S
H531 C539 0.930 . S
H532 C542 0.930 . S
H533 C543 0.930 . S
C534 H528 0.930 . S
C534 C535 1.355 . S
C534 C536 1.415 . S
C535 C534 1.355 . S
C535 C537 1.419 . S
C536 C534 1.415 . S
C536 C541 1.425 . S
C536 C543 1.409 . S
C537 H529 0.930 . S
C537 C535 1.419 . S
C537 C538 1.362 . S
C538 H530 0.930 . S
C538 C537 1.362 . S
C538 C541 1.409 . S
C539 H531 0.930 . S
C539 C540 1.355 . S
C539 C541 1.415 . S
C540 C539 1.355 . S
C540 C542 1.419 . S
C541 C536 1.425 . S
C541 C538 1.409 . S
C541 C539 1.415 . S
C542 H532 0.930 . S
C542 C540 1.419 . S
C542 C543 1.362 . S
C543 H533 0.930 . S
C543 C536 1.409 . S
C543 C542 1.362 . S
H544 C550 0.930 . S
H545 C553 0.930 . S
H546 C554 0.930 . S
H547 C555 0.930 . S
H548 C558 0.930 . S
H549 C559 0.930 . S
C550 H544 0.930 . S
C550 C551 1.355 . S
C550 C552 1.415 1_556 S
C551 C550 1.355 . S
C551 C553 1.419 . S
C552 C550 1.415 1_554 S
C552 C557 1.425 . S
C552 C559 1.409 1_545 S
C553 H545 0.930 . S
C553 C551 1.419 . S
C553 C554 1.362 . S
C554 H546 0.930 . S
C554 C553 1.362 . S
C554 C557 1.409 1_556 S
C555 H547 0.930 . S
C555 C556 1.355 1_545 S
C555 C557 1.415 . S
C556 C555 1.355 1_565 S
C556 C558 1.419 . S
C557 C552 1.425 . S
C557 C554 1.409 1_554 S
C557 C555 1.415 . S
C558 H548 0.930 . S
C558 C556 1.419 . S
C558 C559 1.362 . S
C559 H549 0.930 . S
C559 C552 1.409 1_565 S
C559 C558 1.362 . S
H560 C566 0.930 . S
H561 C569 0.930 . S
H562 C570 0.930 . S
H563 C571 0.930 . S
H564 C574 0.930 . S
H565 C575 0.930 . S
C566 H560 0.930 . S
C566 C567 1.355 . S
C566 C568 1.415 . S
C567 C566 1.355 . S
C567 C569 1.419 . S
C568 C566 1.415 . S
C568 C573 1.425 . S
C568 C575 1.409 . S
C569 H561 0.930 . S
C569 C567 1.419 . S
C569 C570 1.362 . S
C570 H562 0.930 . S
C570 C569 1.362 . S
C570 C573 1.409 . S
C571 H563 0.930 . S
C571 C572 1.355 . S
C571 C573 1.415 . S
C572 C571 1.355 . S
C572 C574 1.419 . S
C573 C568 1.425 . S
C573 C570 1.409 . S
C573 C571 1.415 . S
C574 H564 0.930 . S
C574 C572 1.419 . S
C574 C575 1.362 . S
C575 H565 0.930 . S
C575 C568 1.409 . S
C575 C574 1.362 . S
H576 C582 0.930 . S
H577 C585 0.930 . S
H578 C586 0.930 . S
H579 C587 0.930 . S
H580 C590 0.930 . S
H581 C591 0.930 . S
C582 H576 0.930 . S
C582 C583 1.355 . S
C582 C584 1.415 1_554 S
C583 C582 1.355 . S
C583 C585 1.419 . S
C584 C582 1.415 1_556 S
C584 C589 1.425 . S
C584 C591 1.409 . S
C585 H577 0.930 . S
C585 C583 1.419 . S
C585 C586 1.362 . S
C586 H578 0.930 . S
C586 C585 1.362 . S
C586 C589 1.409 1_554 S
C587 H579 0.930 . S
C587 C588 1.355 . S
C587 C589 1.415 . S
C588 C587 1.355 . S
C588 C590 1.419 . S
C589 C584 1.425 . S
C589 C586 1.409 1_556 S
C589 C587 1.415 . S
C590 H580 0.930 . S
C590 C588 1.419 . S
C590 C591 1.362 . S
C591 H581 0.930 . S
C591 C584 1.409 . S
C591 C590 1.362 . S
H592 C598 0.930 . S
H593 C601 0.930 . S
H594 C602 0.930 . S
H595 C603 0.930 . S
H596 C606 0.930 . S
H597 C607 0.930 . S
C598 H592 0.930 . S
C598 C599 1.355 . S
C598 C600 1.415 . S
C599 C598 1.355 . S
C599 C601 1.419 . S
C600 C598 1.415 . S
C600 C605 1.425 . S
C600 C607 1.409 . S
C601 H593 0.930 . S
C601 C599 1.419 . S
C601 C602 1.362 . S
C602 H594 0.930 . S
C602 C601 1.362 . S
C602 C605 1.409 . S
C603 H595 0.930 . S
C603 C604 1.355 . S
C603 C605 1.415 . S
C604 C603 1.355 . S
C604 C606 1.419 . S
C605 C600 1.425 . S
C605 C602 1.409 . S
C605 C603 1.415 . S
C606 H596 0.930 . S
C606 C604 1.419 . S
C606 C607 1.362 . S
C607 H597 0.930 . S
C607 C600 1.409 . S
C607 C606 1.362 . S
H608 C614 0.930 . S
H609 C617 0.930 . S
H610 C618 0.930 . S
H611 C619 0.930 . S
H612 C622 0.930 . S
H613 C623 0.930 . S
C614 H608 0.930 . S
C614 C615 1.355 . S
C614 C616 1.415 . S
C615 C614 1.355 . S
C615 C617 1.419 . S
C616 C614 1.415 . S
C616 C621 1.425 1_455 S
C616 C623 1.409 . S
C617 H609 0.930 . S
C617 C615 1.419 . S
C617 C618 1.362 1_455 S
C618 H610 0.930 . S
C618 C617 1.362 1_655 S
C618 C621 1.409 . S
C619 H611 0.930 . S
C619 C620 1.355 . S
C619 C621 1.415 . S
C620 C619 1.355 . S
C620 C622 1.419 . S
C621 C616 1.425 1_655 S
C621 C618 1.409 . S
C621 C619 1.415 . S
C622 H612 0.930 . S
C622 C620 1.419 . S
C622 C623 1.362 1_655 S
C623 H613 0.930 . S
C623 C616 1.409 . S
C623 C622 1.362 1_455 S
H624 C630 0.930 . S
H625 C633 0.930 . S
H626 C634 0.930 . S
H627 C635 0.930 . S
H628 C638 0.930 . S
H629 C639 0.930 . S
C630 H624 0.930 . S
C630 C631 1.355 . S
C630 C632 1.415 . S
C631 C630 1.355 . S
C631 C633 1.419 . S
C632 C630 1.415 . S
C632 C637 1.425 . S
C632 C639 1.409 . S
C633 H625 0.930 . S
C633 C631 1.419 . S
C633 C634 1.362 . S
C634 H626 0.930 . S
C634 C633 1.362 . S
C634 C637 1.409 . S
C635 H627 0.930 . S
C635 C636 1.355 . S
C635 C637 1.415 . S
C636 C635 1.355 . S
C636 C638 1.419 . S
C637 C632 1.425 . S
C637 C634 1.409 . S
C637 C635 1.415 . S
C638 H628 0.930 . S
C638 C636 1.419 . S
C638 C639 1.362 . S
C639 H629 0.930 . S
C639 C632 1.409 . S
C639 C638 1.362 . S
H640 C646 0.930 . S
H641 C649 0.930 . S
H642 C650 0.930 . S
H643 C651 0.930 . S
H644 C654 0.930 . S
H645 C655 0.930 . S
C646 H640 0.930 . S
C646 C647 1.355 . S
C646 C648 1.415 . S
C647 C646 1.355 . S
C647 C649 1.419 . S
C648 C646 1.415 . S
C648 C653 1.425 . S
C648 C655 1.409 . S
C649 H641 0.930 . S
C649 C647 1.419 . S
C649 C650 1.362 . S
C650 H642 0.930 . S
C650 C649 1.362 . S
C650 C653 1.409 . S
C651 H643 0.930 . S
C651 C652 1.355 . S
C651 C653 1.415 . S
C652 C651 1.355 . S
C652 C654 1.419 . S
C653 C648 1.425 . S
C653 C650 1.409 . S
C653 C651 1.415 . S
C654 H644 0.930 . S
C654 C652 1.419 . S
C654 C655 1.362 . S
C655 H645 0.930 . S
C655 C648 1.409 . S
C655 C654 1.362 . S
H656 C662 0.930 . S
H657 C665 0.930 . S
H658 C666 0.930 . S
H659 C667 0.930 . S
H660 C670 0.930 . S
H661 C671 0.930 . S
C662 H656 0.930 . S
C662 C663 1.355 . S
C662 C664 1.415 . S
C663 C662 1.355 . S
C663 C665 1.419 . S
C664 C662 1.415 . S
C664 C669 1.425 . S
C664 C671 1.409 . S
C665 H657 0.930 . S
C665 C663 1.419 . S
C665 C666 1.362 . S
C666 H658 0.930 . S
C666 C665 1.362 . S
C666 C669 1.409 . S
C667 H659 0.930 . S
C667 C668 1.355 . S
C667 C669 1.415 . S
C668 C667 1.355 . S
C668 C670 1.419 . S
C669 C664 1.425 . S
C669 C666 1.409 . S
C669 C667 1.415 . S
C670 H660 0.930 . S
C670 C668 1.419 . S
C670 C671 1.362 . S
C671 H661 0.930 . S
C671 C664 1.409 . S
C671 C670 1.362 . S
H672 C678 0.930 . S
H673 C681 0.930 . S
H674 C682 0.930 . S
H675 C683 0.930 . S
H676 C686 0.930 . S
H677 C687 0.930 . S
C678 H672 0.930 . S
C678 C679 1.355 . S
C678 C680 1.415 . S
C679 C678 1.355 . S
C679 C681 1.419 . S
C680 C678 1.415 . S
C680 C685 1.425 . S
C680 C687 1.409 . S
C681 H673 0.930 . S
C681 C679 1.419 . S
C681 C682 1.362 . S
C682 H674 0.930 . S
C682 C681 1.362 . S
C682 C685 1.409 . S
C683 H675 0.930 . S
C683 C684 1.355 . S
C683 C685 1.415 . S
C684 C683 1.355 . S
C684 C686 1.419 . S
C685 C680 1.425 . S
C685 C682 1.409 . S
C685 C683 1.415 . S
C686 H676 0.930 . S
C686 C684 1.419 . S
C686 C687 1.362 . S
C687 H677 0.930 . S
C687 C680 1.409 . S
C687 C686 1.362 . S
H688 C694 0.930 . S
H689 C697 0.930 . S
H690 C698 0.930 . S
H691 C699 0.930 . S
H692 C702 0.930 . S
H693 C703 0.930 . S
C694 H688 0.930 . S
C694 C695 1.355 1_554 S
C694 C696 1.415 . S
C695 C694 1.355 1_556 S
C695 C697 1.419 . S
C696 C694 1.415 . S
C696 C701 1.425 . S
C696 C703 1.409 1_455 S
C697 H689 0.930 . S
C697 C695 1.419 . S
C697 C698 1.362 1_556 S
C698 H690 0.930 . S
C698 C697 1.362 1_554 S
C698 C701 1.409 . S
C699 H691 0.930 . S
C699 C700 1.355 1_455 S
C699 C701 1.415 . S
C700 C699 1.355 1_655 S
C700 C702 1.419 . S
C701 C696 1.425 . S
C701 C698 1.409 . S
C701 C699 1.415 . S
C702 H692 0.930 . S
C702 C700 1.419 . S
C702 C703 1.362 . S
C703 H693 0.930 . S
C703 C696 1.409 1_655 S
C703 C702 1.362 . S
H704 C710 0.930 . S
H705 C713 0.930 . S
H706 C714 0.930 . S
H707 C715 0.930 . S
H708 C718 0.930 . S
H709 C719 0.930 . S
C710 H704 0.930 . S
C710 C711 1.355 . S
C710 C712 1.415 . S
C711 C710 1.355 . S
C711 C713 1.419 1_565 S
C712 C710 1.415 . S
C712 C717 1.425 . S
C712 C719 1.409 . S
C713 H705 0.930 . S
C713 C711 1.419 1_545 S
C713 C714 1.362 . S
C714 H706 0.930 . S
C714 C713 1.362 . S
C714 C717 1.409 1_545 S
C715 H707 0.930 . S
C715 C716 1.355 . S
C715 C717 1.415 . S
C716 C715 1.355 . S
C716 C718 1.419 . S
C717 C712 1.425 . S
C717 C714 1.409 1_565 S
C717 C715 1.415 . S
C718 H708 0.930 . S
C718 C716 1.419 . S
C718 C719 1.362 . S
C719 H709 0.930 . S
C719 C712 1.409 . S
C719 C718 1.362 . S
H720 C726 0.930 . S
H721 C729 0.930 . S
H722 C730 0.930 . S
H723 C731 0.930 . S
H724 C734 0.930 . S
H725 C735 0.930 . S
C726 H720 0.930 . S
C726 C727 1.355 . S
C726 C728 1.415 . S
C727 C726 1.355 . S
C727 C729 1.419 . S
C728 C726 1.415 . S
C728 C733 1.425 . S
C728 C735 1.409 . S
C729 H721 0.930 . S
C729 C727 1.419 . S
C729 C730 1.362 . S
C730 H722 0.930 . S
C730 C729 1.362 . S
C730 C733 1.409 . S
C731 H723 0.930 . S
C731 C732 1.355 . S
C731 C733 1.415 . S
C732 C731 1.355 . S
C732 C734 1.419 . S
C733 C728 1.425 . S
C733 C730 1.409 . S
C733 C731 1.415 . S
C734 H724 0.930 . S
C734 C732 1.419 . S
C734 C735 1.362 . S
C735 H725 0.930 . S
C735 C728 1.409 . S
C735 C734 1.362 . S
H736 C742 0.930 . S
H737 C745 0.930 . S
H738 C746 0.930 1_565 S
H739 C747 0.930 . S
H740 C750 0.930 . S
H741 C751 0.930 . S
C742 H736 0.930 . S
C742 C743 1.355 . S
C742 C744 1.415 . S
C743 C742 1.355 . S
C743 C745 1.419 . S
C744 C742 1.415 . S
C744 C749 1.425 . S
C744 C751 1.409 . S
C745 H737 0.930 . S
C745 C743 1.419 . S
C745 C746 1.362 . S
C746 H738 0.930 1_545 S
C746 C745 1.362 . S
C746 C749 1.409 . S
C747 H739 0.930 . S
C747 C748 1.355 1_565 S
C747 C749 1.415 1_565 S
C748 C747 1.355 1_545 S
C748 C750 1.419 . S
C749 C744 1.425 . S
C749 C746 1.409 . S
C749 C747 1.415 1_545 S
C750 H740 0.930 . S
C750 C748 1.419 . S
C750 C751 1.362 . S
C751 H741 0.930 . S
C751 C744 1.409 . S
C751 C750 1.362 . S
H752 C758 0.930 . S
H753 C761 0.930 . S
H754 C762 0.930 . S
H755 C763 0.930 . S
H756 C766 0.930 . S
H757 C767 0.930 . S
C758 H752 0.930 . S
C758 C759 1.355 . S
C758 C760 1.415 . S
C759 C758 1.355 . S
C759 C761 1.419 . S
C760 C758 1.415 . S
C760 C765 1.425 . S
C760 C767 1.409 1_556 S
C761 H753 0.930 . S
C761 C759 1.419 . S
C761 C762 1.362 . S
C762 H754 0.930 . S
C762 C761 1.362 . S
C762 C765 1.409 . S
C763 H755 0.930 . S
C763 C764 1.355 . S
C763 C765 1.415 1_554 S
C764 C763 1.355 . S
C764 C766 1.419 . S
C765 C760 1.425 . S
C765 C762 1.409 . S
C765 C763 1.415 1_556 S
C766 H756 0.930 . S
C766 C764 1.419 . S
C766 C767 1.362 . S
C767 H757 0.930 . S
C767 C760 1.409 1_554 S
C767 C766 1.362 . S
H768 C774 0.930 . S
H769 C777 0.930 . S
H770 C778 0.930 1_565 S
H771 C779 0.930 . S
H772 C782 0.929 1_565 S
H773 C783 0.930 . S
C774 H768 0.930 . S
C774 C775 1.355 . S
C774 C776 1.415 . S
C775 C774 1.355 . S
C775 C777 1.419 . S
C776 C774 1.415 . S
C776 C781 1.425 . S
C776 C783 1.409 . S
C777 H769 0.930 . S
C777 C775 1.419 . S
C777 C778 1.362 . S
C778 H770 0.930 1_545 S
C778 C777 1.362 . S
C778 C781 1.409 . S
C779 H771 0.930 . S
C779 C780 1.355 . S
C779 C781 1.415 1_565 S
C780 C779 1.355 . S
C780 C782 1.416 1_565 S
C781 C776 1.425 . S
C781 C778 1.409 . S
C781 C779 1.415 1_545 S
C782 H772 0.929 1_545 S
C782 C780 1.416 1_545 S
C782 C783 1.366 . S
C783 H773 0.930 . S
C783 C776 1.409 . S
C783 C782 1.366 . S
H784 C790 0.930 . S
H785 C793 0.930 . S
H786 C794 0.930 . S
H787 C795 0.930 . S
H788 C798 0.930 . S
H789 C799 0.930 . S
C790 H784 0.930 . S
C790 C791 1.355 . S
C790 C792 1.415 . S
C791 C790 1.355 . S
C791 C793 1.419 . S
C792 C790 1.415 . S
C792 C797 1.425 . S
C792 C799 1.409 . S
C793 H785 0.930 . S
C793 C791 1.419 . S
C793 C794 1.362 . S
C794 H786 0.930 . S
C794 C793 1.362 . S
C794 C797 1.409 . S
C795 H787 0.930 . S
C795 C796 1.355 . S
C795 C797 1.415 . S
C796 C795 1.355 . S
C796 C798 1.419 . S
C797 C792 1.425 . S
C797 C794 1.409 . S
C797 C795 1.415 . S
C798 H788 0.930 . S
C798 C796 1.419 . S
C798 C799 1.362 . S
C799 H789 0.930 . S
C799 C792 1.409 . S
C799 C798 1.362 . S
H800 C806 0.930 . S
H801 C809 0.930 . S
H802 C810 0.930 . S
H803 C811 0.930 . S
H804 C814 0.930 . S
H805 C815 0.930 . S
C806 H800 0.930 . S
C806 C807 1.355 . S
C806 C808 1.415 . S
C807 C806 1.355 . S
C807 C809 1.419 1_545 S
C808 C806 1.415 . S
C808 C813 1.425 1_545 S
C808 C815 1.409 . S
C809 H801 0.930 . S
C809 C807 1.419 1_565 S
C809 C810 1.362 . S
C810 H802 0.930 . S
C810 C809 1.362 . S
C810 C813 1.409 . S
C811 H803 0.930 . S
C811 C812 1.355 . S
C811 C813 1.415 . S
C812 C811 1.355 . S
C812 C814 1.419 . S
C813 C808 1.425 1_565 S
C813 C810 1.409 . S
C813 C811 1.415 . S
C814 H804 0.930 . S
C814 C812 1.419 . S
C814 C815 1.362 1_565 S
C815 H805 0.930 . S
C815 C808 1.409 . S
C815 C814 1.362 1_545 S
H816 C822 0.930 . S
H817 C825 0.930 . S
H818 C826 0.930 . S
H819 C827 0.930 . S
H820 C830 0.930 . S
H821 C831 0.930 . S
C822 H816 0.930 . S
C822 C823 1.355 . S
C822 C824 1.415 1_556 S
C823 C822 1.355 . S
C823 C825 1.419 . S
C824 C822 1.415 1_554 S
C824 C829 1.425 . S
C824 C831 1.409 . S
C825 H817 0.930 . S
C825 C823 1.419 . S
C825 C826 1.362 . S
C826 H818 0.930 . S
C826 C825 1.362 . S
C826 C829 1.409 1_556 S
C827 H819 0.930 . S
C827 C828 1.355 . S
C827 C829 1.415 . S
C828 C827 1.355 . S
C828 C830 1.419 . S
C829 C824 1.425 . S
C829 C826 1.409 1_554 S
C829 C827 1.415 . S
C830 H820 0.930 . S
C830 C828 1.419 . S
C830 C831 1.362 . S
C831 H821 0.930 . S
C831 C824 1.409 . S
C831 C830 1.362 . S
H832 C838 0.930 . S
H833 C841 0.930 . S
H834 C842 0.930 . S
H835 C843 0.930 . S
H836 C846 0.930 1_455 S
H837 C847 0.930 . S
C838 H832 0.930 . S
C838 C839 1.355 . S
C838 C840 1.415 . S
C839 C838 1.355 . S
C839 C841 1.419 . S
C840 C838 1.415 . S
C840 C845 1.425 . S
C840 C847 1.409 . S
C841 H833 0.930 . S
C841 C839 1.419 . S
C841 C842 1.362 . S
C842 H834 0.930 . S
C842 C841 1.362 . S
C842 C845 1.409 . S
C843 H835 0.930 . S
C843 C844 1.355 . S
C843 C845 1.415 . S
C844 C843 1.355 . S
C844 C846 1.419 . S
C845 C840 1.425 . S
C845 C842 1.409 . S
C845 C843 1.415 . S
C846 H836 0.930 1_655 S
C846 C844 1.419 . S
C846 C847 1.362 . S
C847 H837 0.930 . S
C847 C840 1.409 . S
C847 C846 1.362 . S
H848 C854 0.930 . S
H849 C857 0.930 . S
H850 C858 0.930 . S
H851 C859 0.930 . S
H852 C862 0.930 . S
H853 C863 0.930 . S
C854 H848 0.930 . S
C854 C855 1.355 . S
C854 C856 1.415 . S
C855 C854 1.355 . S
C855 C857 1.419 . S
C856 C854 1.415 . S
C856 C861 1.425 . S
C856 C863 1.409 . S
C857 H849 0.930 . S
C857 C855 1.419 . S
C857 C858 1.362 . S
C858 H850 0.930 . S
C858 C857 1.362 . S
C858 C861 1.409 . S
C859 H851 0.930 . S
C859 C860 1.355 . S
C859 C861 1.415 . S
C860 C859 1.355 . S
C860 C862 1.419 . S
C861 C856 1.425 . S
C861 C858 1.409 . S
C861 C859 1.415 . S
C862 H852 0.930 . S
C862 C860 1.419 . S
C862 C863 1.362 . S
C863 H853 0.930 . S
C863 C856 1.409 . S
C863 C862 1.362 . S
H864 C870 0.930 1_455 S
H865 C873 0.930 . S
H866 C874 0.930 . S
H867 C875 0.930 . S
H868 C878 0.930 . S
H869 C879 0.930 . S
C870 H864 0.930 1_655 S
C870 C871 1.355 . S
C870 C872 1.415 1_655 S
C871 C870 1.355 . S
C871 C873 1.419 . S
C872 C870 1.415 1_455 S
C872 C877 1.425 . S
C872 C879 1.409 . S
C873 H865 0.930 . S
C873 C871 1.419 . S
C873 C874 1.362 . S
C874 H866 0.930 . S
C874 C873 1.362 . S
C874 C877 1.409 1_655 S
C875 H867 0.930 . S
C875 C876 1.355 . S
C875 C877 1.415 . S
C876 C875 1.355 . S
C876 C878 1.419 . S
C877 C872 1.425 . S
C877 C874 1.409 1_455 S
C877 C875 1.415 . S
C878 H868 0.930 . S
C878 C876 1.419 . S
C878 C879 1.362 . S
C879 H869 0.930 . S
C879 C872 1.409 . S
C879 C878 1.362 . S
H880 C886 0.930 . S
H881 C889 0.930 . S
H882 C890 0.930 . S
H883 C891 0.930 . S
H884 C894 0.930 . S
H885 C895 0.930 . S
C886 H880 0.930 . S
C886 C887 1.355 . S
C886 C888 1.415 . S
C887 C886 1.355 . S
C887 C889 1.419 . S
C888 C886 1.415 . S
C888 C893 1.425 . S
C888 C895 1.409 . S
C889 H881 0.930 . S
C889 C887 1.419 . S
C889 C890 1.362 . S
C890 H882 0.930 . S
C890 C889 1.362 . S
C890 C893 1.409 . S
C891 H883 0.930 . S
C891 C892 1.355 . S
C891 C893 1.415 . S
C892 C891 1.355 . S
C892 C894 1.419 . S
C893 C888 1.425 . S
C893 C890 1.409 . S
C893 C891 1.415 . S
C894 H884 0.930 . S
C894 C892 1.419 . S
C894 C895 1.362 . S
C895 H885 0.930 . S
C895 C888 1.409 . S
C895 C894 1.362 . S
H896 C902 0.930 . S
H897 C905 0.930 . S
H898 C906 0.930 . S
H899 C907 0.930 . S
H900 C910 0.930 . S
H901 C911 0.930 . S
C902 H896 0.930 . S
C902 C903 1.355 . S
C902 C904 1.415 . S
C903 C902 1.355 . S
C903 C905 1.419 . S
C904 C902 1.415 . S
C904 C909 1.425 . S
C904 C911 1.409 . S
C905 H897 0.930 . S
C905 C903 1.419 . S
C905 C906 1.362 . S
C906 H898 0.930 . S
C906 C905 1.362 . S
C906 C909 1.409 . S
C907 H899 0.930 . S
C907 C908 1.355 . S
C907 C909 1.415 . S
C908 C907 1.355 . S
C908 C910 1.419 . S
C909 C904 1.425 . S
C909 C906 1.409 . S
C909 C907 1.415 . S
C910 H900 0.930 . S
C910 C908 1.419 . S
C910 C911 1.362 . S
C911 H901 0.930 . S
C911 C904 1.409 . S
C911 C910 1.362 . S
H912 C918 0.930 . S
H913 C921 0.930 . S
H914 C922 0.930 . S
H915 C923 0.930 . S
H916 C926 0.930 . S
H917 C927 0.930 . S
C918 H912 0.930 . S
C918 C919 1.355 . S
C918 C920 1.415 . S
C919 C918 1.355 . S
C919 C921 1.419 . S
C920 C918 1.415 . S
C920 C925 1.425 . S
C920 C927 1.409 1_655 S
C921 H913 0.930 . S
C921 C919 1.419 . S
C921 C922 1.362 . S
C922 H914 0.930 . S
C922 C921 1.362 . S
C922 C925 1.409 . S
C923 H915 0.930 . S
C923 C924 1.355 1_655 S
C923 C925 1.415 . S
C924 C923 1.355 1_455 S
C924 C926 1.419 . S
C925 C920 1.425 . S
C925 C922 1.409 . S
C925 C923 1.415 . S
C926 H916 0.930 . S
C926 C924 1.419 . S
C926 C927 1.362 . S
C927 H917 0.930 . S
C927 C920 1.409 1_455 S
C927 C926 1.362 . S
H928 C934 0.930 . S
H929 C937 0.930 . S
H930 C938 0.930 . S
H931 C939 0.930 . S
H932 C942 0.930 . S
H933 C943 0.930 . S
C934 H928 0.930 . S
C934 C935 1.355 . S
C934 C936 1.415 . S
C935 C934 1.355 . S
C935 C937 1.419 . S
C936 C934 1.415 . S
C936 C941 1.425 . S
C936 C943 1.409 . S
C937 H929 0.930 . S
C937 C935 1.419 . S
C937 C938 1.362 . S
C938 H930 0.930 . S
C938 C937 1.362 . S
C938 C941 1.409 . S
C939 H931 0.930 . S
C939 C940 1.355 . S
C939 C941 1.415 . S
C940 C939 1.355 . S
C940 C942 1.419 . S
C941 C936 1.425 . S
C941 C938 1.409 . S
C941 C939 1.415 . S
C942 H932 0.930 . S
C942 C940 1.419 . S
C942 C943 1.362 . S
C943 H933 0.930 . S
C943 C936 1.409 . S
C943 C942 1.362 . S
H944 C950 0.930 . S
H945 C953 0.930 . S
H946 C954 0.933 . S
H947 C955 0.930 . S
H948 C958 0.930 . S
H949 C959 0.930 . S
C950 H944 0.930 . S
C950 C951 1.355 . S
C950 C952 1.415 . S
C951 C950 1.355 . S
C951 C953 1.419 . S
C952 C950 1.415 . S
C952 C957 1.425 1_545 S
C952 C959 1.409 . S
C953 H945 0.930 . S
C953 C951 1.419 . S
C953 C954 1.359 1_545 S
C954 H946 0.933 . S
C954 C953 1.359 1_565 S
C954 C957 1.410 . S
C955 H947 0.930 . S
C955 C956 1.355 . S
C955 C957 1.415 . S
C956 C955 1.355 . S
C956 C958 1.419 . S
C957 C952 1.425 1_565 S
C957 C954 1.410 . S
C957 C955 1.415 . S
C958 H948 0.930 . S
C958 C956 1.419 . S
C958 C959 1.362 1_565 S
C959 H949 0.930 . S
C959 C952 1.409 . S
C959 C958 1.362 1_545 S
H960 C966 0.930 . S
H961 C969 0.930 . S
H962 C970 0.930 . S
H963 C971 0.930 . S
H964 C974 0.930 . S
H965 C975 0.930 . S
C966 H960 0.930 . S
C966 C967 1.355 . S
C966 C968 1.415 . S
C967 C966 1.355 . S
C967 C969 1.419 . S
C968 C966 1.415 . S
C968 C973 1.425 . S
C968 C975 1.409 . S
C969 H961 0.930 . S
C969 C967 1.419 . S
C969 C970 1.362 . S
C970 H962 0.930 . S
C970 C969 1.362 . S
C970 C973 1.409 . S
C971 H963 0.930 . S
C971 C972 1.355 . S
C971 C973 1.415 . S
C972 C971 1.355 . S
C972 C974 1.419 . S
C973 C968 1.425 . S
C973 C970 1.409 . S
C973 C971 1.415 . S
C974 H964 0.930 . S
C974 C972 1.419 . S
C974 C975 1.362 . S
C975 H965 0.930 . S
C975 C968 1.409 . S
C975 C974 1.362 . S
H976 C982 0.930 . S
H977 C985 0.930 . S
H978 C986 0.930 1_545 S
H979 C987 0.930 . S
H980 C990 0.930 . S
H981 C991 0.930 . S
C982 H976 0.930 . S
C982 C983 1.355 . S
C982 C984 1.415 . S
C983 C982 1.355 . S
C983 C985 1.419 . S
C984 C982 1.415 . S
C984 C989 1.439 . S
C984 C991 1.409 . S
C985 H977 0.930 . S
C985 C983 1.419 . S
C985 C986 1.362 . S
C986 H978 0.930 1_565 S
C986 C985 1.362 . S
C986 C989 1.412 . S
C987 H979 0.930 . S
C987 C988 1.355 . S
C987 C989 1.399 1_545 S
C988 C987 1.355 . S
C988 C990 1.419 . S
C989 C984 1.439 . S
C989 C986 1.412 . S
C989 C987 1.399 1_565 S
C990 H980 0.930 . S
C990 C988 1.419 . S
C990 C991 1.362 1_545 S
C991 H981 0.930 . S
C991 C984 1.409 . S
C991 C990 1.362 1_565 S
H992 C998 0.930 . S
H993 C1001 0.930 . S
H994 C1002 0.930 . S
H995 C1003 0.930 . S
H996 C1006 0.930 . S
H997 C1007 0.930 . S
C998 H992 0.930 . S
C998 C999 1.355 . S
C998 C1000 1.415 1_556 S
C999 C998 1.355 . S
C999 C1001 1.419 1_556 S
C1000 C998 1.415 1_554 S
C1000 C1005 1.425 . S
C1000 C1007 1.409 . S
C1001 H993 0.930 . S
C1001 C999 1.419 1_554 S
C1001 C1002 1.362 . S
C1002 H994 0.930 . S
C1002 C1001 1.362 . S
C1002 C1005 1.409 . S
C1003 H995 0.930 . S
C1003 C1004 1.355 . S
C1003 C1005 1.415 . S
C1004 C1003 1.355 . S
C1004 C1006 1.419 . S
C1005 C1000 1.425 . S
C1005 C1002 1.409 . S
C1005 C1003 1.415 . S
C1006 H996 0.930 . S
C1006 C1004 1.419 . S
C1006 C1007 1.362 . S
C1007 H997 0.930 . S
C1007 C1000 1.409 . S
C1007 C1006 1.362 . S
H1008 C1014 0.930 . S
H1009 C1017 0.930 . S
H1010 C1018 0.930 . S
H1011 C1019 0.930 . S
H1012 C1022 0.930 . S
H1013 C1023 0.930 . S
C1014 H1008 0.930 . S
C1014 C1015 1.355 1_565 S
C1014 C1016 1.415 . S
C1015 C1014 1.355 1_545 S
C1015 C1017 1.419 . S
C1016 C1014 1.415 . S
C1016 C1021 1.425 . S
C1016 C1023 1.409 . S
C1017 H1009 0.930 . S
C1017 C1015 1.419 . S
C1017 C1018 1.362 . S
C1018 H1010 0.930 . S
C1018 C1017 1.362 . S
C1018 C1021 1.409 1_545 S
C1019 H1011 0.930 . S
C1019 C1020 1.355 . S
C1019 C1021 1.415 . S
C1020 C1019 1.355 . S
C1020 C1022 1.419 . S
C1021 C1016 1.425 . S
C1021 C1018 1.409 1_565 S
C1021 C1019 1.415 . S
C1022 H1012 0.930 . S
C1022 C1020 1.419 . S
C1022 C1023 1.362 . S
C1023 H1013 0.930 . S
C1023 C1016 1.409 . S
C1023 C1022 1.362 . S
H1024 C1030 0.930 . S
H1025 C1033 0.930 . S
H1026 C1034 0.930 . S
H1027 C1035 0.930 . S
H1028 C1038 0.930 . S
H1029 C1039 0.930 . S
C1030 H1024 0.930 . S
C1030 C1031 1.355 . S
C1030 C1032 1.415 . S
C1031 C1030 1.355 . S
C1031 C1033 1.419 . S
C1032 C1030 1.415 . S
C1032 C1037 1.425 . S
C1032 C1039 1.409 . S
C1033 H1025 0.930 . S
C1033 C1031 1.419 . S
C1033 C1034 1.362 . S
C1034 H1026 0.930 . S
C1034 C1033 1.362 . S
C1034 C1037 1.409 . S
C1035 H1027 0.930 . S
C1035 C1036 1.355 . S
C1035 C1037 1.415 . S
C1036 C1035 1.355 . S
C1036 C1038 1.419 . S
C1037 C1032 1.425 . S
C1037 C1034 1.409 . S
C1037 C1035 1.415 . S
C1038 H1028 0.930 . S
C1038 C1036 1.419 . S
C1038 C1039 1.362 . S
C1039 H1029 0.930 . S
C1039 C1032 1.409 . S
C1039 C1038 1.362 . S
H1040 C1046 0.930 1_565 S
H1041 C1049 0.930 . S
H1042 C1050 0.930 . S
H1043 C1051 0.930 . S
H1044 C1054 0.930 . S
H1045 C1055 0.930 . S
C1046 H1040 0.930 1_545 S
C1046 C1047 1.355 1_545 S
C1046 C1048 1.415 . S
C1047 C1046 1.355 1_565 S
C1047 C1049 1.419 . S
C1048 C1046 1.415 . S
C1048 C1053 1.425 . S
C1048 C1055 1.409 . S
C1049 H1041 0.930 . S
C1049 C1047 1.419 . S
C1049 C1050 1.362 1_565 S
C1050 H1042 0.930 . S
C1050 C1049 1.362 1_545 S
C1050 C1053 1.409 . S
C1051 H1043 0.930 . S
C1051 C1052 1.355 . S
C1051 C1053 1.415 . S
C1052 C1051 1.355 . S
C1052 C1054 1.419 . S
C1053 C1048 1.425 . S
C1053 C1050 1.409 . S
C1053 C1051 1.415 . S
C1054 H1044 0.930 . S
C1054 C1052 1.419 . S
C1054 C1055 1.362 . S
C1055 H1045 0.930 . S
C1055 C1048 1.409 . S
C1055 C1054 1.362 . S
H1056 C1062 0.930 . S
H1057 C1065 0.930 . S
H1058 C1066 0.930 . S
H1059 C1067 0.930 . S
H1060 C1070 0.930 . S
H1061 C1071 0.930 . S
C1062 H1056 0.930 . S
C1062 C1063 1.355 . S
C1062 C1064 1.415 . S
C1063 C1062 1.355 . S
C1063 C1065 1.419 1_554 S
C1064 C1062 1.415 . S
C1064 C1069 1.425 1_554 S
C1064 C1071 1.409 . S
C1065 H1057 0.930 . S
C1065 C1063 1.419 1_556 S
C1065 C1066 1.362 . S
C1066 H1058 0.930 . S
C1066 C1065 1.362 . S
C1066 C1069 1.409 . S
C1067 H1059 0.930 . S
C1067 C1068 1.355 . S
C1067 C1069 1.415 . S
C1068 C1067 1.355 . S
C1068 C1070 1.419 . S
C1069 C1064 1.425 1_556 S
C1069 C1066 1.409 . S
C1069 C1067 1.415 . S
C1070 H1060 0.930 . S
C1070 C1068 1.419 . S
C1070 C1071 1.362 1_556 S
C1071 H1061 0.930 . S
C1071 C1064 1.409 . S
C1071 C1070 1.362 1_554 S
H1072 C1078 0.930 . S
H1073 C1081 0.930 . S
H1074 C1082 0.930 . S
H1075 C1083 0.930 . S
H1076 C1086 0.930 . S
H1077 C1087 0.930 . S
C1078 H1072 0.930 . S
C1078 C1079 1.355 1_455 S
C1078 C1080 1.415 . S
C1079 C1078 1.355 1_655 S
C1079 C1081 1.419 . S
C1080 C1078 1.415 . S
C1080 C1085 1.425 . S
C1080 C1087 1.409 . S
C1081 H1073 0.930 . S
C1081 C1079 1.419 . S
C1081 C1082 1.362 1_655 S
C1082 H1074 0.930 . S
C1082 C1081 1.362 1_455 S
C1082 C1085 1.409 . S
C1083 H1075 0.930 . S
C1083 C1084 1.355 . S
C1083 C1085 1.415 . S
C1084 C1083 1.355 . S
C1084 C1086 1.419 . S
C1085 C1080 1.425 . S
C1085 C1082 1.409 . S
C1085 C1083 1.415 . S
C1086 H1076 0.930 . S
C1086 C1084 1.419 . S
C1086 C1087 1.362 . S
C1087 H1077 0.930 . S
C1087 C1080 1.409 . S
C1087 C1086 1.362 . S
H1088 C1094 0.930 . S
H1089 C1097 0.930 . S
H1090 C1098 0.930 . S
H1091 C1099 0.930 . S
H1092 C1102 0.930 . S
H1093 C1103 0.930 . S
C1094 H1088 0.930 . S
C1094 C1095 1.355 . S
C1094 C1096 1.415 . S
C1095 C1094 1.355 . S
C1095 C1097 1.419 . S
C1096 C1094 1.415 . S
C1096 C1101 1.425 . S
C1096 C1103 1.409 . S
C1097 H1089 0.930 . S
C1097 C1095 1.419 . S
C1097 C1098 1.362 . S
C1098 H1090 0.930 . S
C1098 C1097 1.362 . S
C1098 C1101 1.409 . S
C1099 H1091 0.930 . S
C1099 C1100 1.355 . S
C1099 C1101 1.415 . S
C1100 C1099 1.355 . S
C1100 C1102 1.419 . S
C1101 C1096 1.425 . S
C1101 C1098 1.409 . S
C1101 C1099 1.415 . S
C1102 H1092 0.930 . S
C1102 C1100 1.419 . S
C1102 C1103 1.362 . S
C1103 H1093 0.930 . S
C1103 C1096 1.409 . S
C1103 C1102 1.362 . S
H1104 C1110 0.930 . S
H1105 C1113 0.930 . S
H1106 C1114 0.930 . S
H1107 C1115 0.930 . S
H1108 C1118 0.930 . S
H1109 C1119 0.930 1_455 S
C1110 H1104 0.930 . S
C1110 C1111 1.355 . S
C1110 C1112 1.415 1_455 S
C1111 C1110 1.355 . S
C1111 C1113 1.419 1_455 S
C1112 C1110 1.415 1_655 S
C1112 C1117 1.425 . S
C1112 C1119 1.409 . S
C1113 H1105 0.930 . S
C1113 C1111 1.419 1_655 S
C1113 C1114 1.362 . S
C1114 H1106 0.930 . S
C1114 C1113 1.362 . S
C1114 C1117 1.409 . S
C1115 H1107 0.930 . S
C1115 C1116 1.355 . S
C1115 C1117 1.415 . S
C1116 C1115 1.355 . S
C1116 C1118 1.419 . S
C1117 C1112 1.425 . S
C1117 C1114 1.409 . S
C1117 C1115 1.415 . S
C1118 H1108 0.930 . S
C1118 C1116 1.419 . S
C1118 C1119 1.362 . S
C1119 H1109 0.930 1_655 S
C1119 C1112 1.409 . S
C1119 C1118 1.362 . S
H1120 C1126 0.930 . S
H1121 C1129 0.930 . S
H1122 C1130 0.930 . S
H1123 C1131 0.930 . S
H1124 C1134 0.930 . S
H1125 C1135 0.930 . S
C1126 H1120 0.930 . S
C1126 C1127 1.355 1_655 S
C1126 C1128 1.415 . S
C1127 C1126 1.355 1_455 S
C1127 C1129 1.419 . S
C1128 C1126 1.415 . S
C1128 C1133 1.425 . S
C1128 C1135 1.409 . S
C1129 H1121 0.930 . S
C1129 C1127 1.419 . S
C1129 C1130 1.362 . S
C1130 H1122 0.930 . S
C1130 C1129 1.362 . S
C1130 C1133 1.409 1_455 S
C1131 H1123 0.930 . S
C1131 C1132 1.355 . S
C1131 C1133 1.415 . S
C1132 C1131 1.355 . S
C1132 C1134 1.419 . S
C1133 C1128 1.425 . S
C1133 C1130 1.409 1_655 S
C1133 C1131 1.415 . S
C1134 H1124 0.930 . S
C1134 C1132 1.419 . S
C1134 C1135 1.362 . S
C1135 H1125 0.930 . S
C1135 C1128 1.409 . S
C1135 C1134 1.362 . S
H1136 C1142 0.930 . S
H1137 C1145 0.930 . S
H1138 C1146 0.930 . S
H1139 C1147 0.930 . S
H1140 C1150 0.930 . S
H1141 C1151 0.930 . S
C1142 H1136 0.930 . S
C1142 C1143 1.355 . S
C1142 C1144 1.415 . S
C1143 C1142 1.355 . S
C1143 C1145 1.419 . S
C1144 C1142 1.415 . S
C1144 C1149 1.425 . S
C1144 C1151 1.409 . S
C1145 H1137 0.930 . S
C1145 C1143 1.419 . S
C1145 C1146 1.362 . S
C1146 H1138 0.930 . S
C1146 C1145 1.362 . S
C1146 C1149 1.409 . S
C1147 H1139 0.930 . S
C1147 C1148 1.355 . S
C1147 C1149 1.415 . S
C1148 C1147 1.355 . S
C1148 C1150 1.419 . S
C1149 C1144 1.425 . S
C1149 C1146 1.409 . S
C1149 C1147 1.415 . S
C1150 H1140 0.930 . S
C1150 C1148 1.419 . S
C1150 C1151 1.362 . S
C1151 H1141 0.930 . S
C1151 C1144 1.409 . S
C1151 C1150 1.362 . S
H1152 C1158 0.930 . S
H1153 C1161 0.930 . S
H1154 C1162 0.930 . S
H1155 C1163 0.930 . S
H1156 C1166 0.930 . S
H1157 C1167 0.930 . S
C1158 H1152 0.930 . S
C1158 C1159 1.355 . S
C1158 C1160 1.431 . S
C1159 C1158 1.355 . S
C1159 C1161 1.419 . S
C1160 C1158 1.431 . S
C1160 C1165 1.419 1_655 S
C1160 C1167 1.400 1_655 S
C1161 H1153 0.930 . S
C1161 C1159 1.419 . S
C1161 C1162 1.362 . S
C1162 H1154 0.930 . S
C1162 C1161 1.362 . S
C1162 C1165 1.409 1_655 S
C1163 H1155 0.930 . S
C1163 C1164 1.355 . S
C1163 C1165 1.415 . S
C1164 C1163 1.355 . S
C1164 C1166 1.419 . S
C1165 C1160 1.419 1_455 S
C1165 C1162 1.409 1_455 S
C1165 C1163 1.415 . S
C1166 H1156 0.930 . S
C1166 C1164 1.419 . S
C1166 C1167 1.362 . S
C1167 H1157 0.930 . S
C1167 C1160 1.400 1_455 S
C1167 C1166 1.362 . S
H1168 C1174 0.930 . S
H1169 C1177 0.930 . S
H1170 C1178 0.930 . S
H1171 C1179 0.930 . S
H1172 C1182 0.930 . S
H1173 C1183 0.930 . S
C1174 H1168 0.930 . S
C1174 C1175 1.355 . S
C1174 C1176 1.415 . S
C1175 C1174 1.355 . S
C1175 C1177 1.419 . S
C1176 C1174 1.415 . S
C1176 C1181 1.425 . S
C1176 C1183 1.409 . S
C1177 H1169 0.930 . S
C1177 C1175 1.419 . S
C1177 C1178 1.362 . S
C1178 H1170 0.930 . S
C1178 C1177 1.362 . S
C1178 C1181 1.409 . S
C1179 H1171 0.930 . S
C1179 C1180 1.355 . S
C1179 C1181 1.415 . S
C1180 C1179 1.355 . S
C1180 C1182 1.419 . S
C1181 C1176 1.425 . S
C1181 C1178 1.409 . S
C1181 C1179 1.415 . S
C1182 H1172 0.930 . S
C1182 C1180 1.419 . S
C1182 C1183 1.362 . S
C1183 H1173 0.930 . S
C1183 C1176 1.409 . S
C1183 C1182 1.362 . S
H1184 C1190 0.930 . S
H1185 C1193 0.930 . S
H1186 C1194 0.930 . S
H1187 C1195 0.930 . S
H1188 C1198 0.930 . S
H1189 C1199 0.930 . S
C1190 H1184 0.930 . S
C1190 C1191 1.355 . S
C1190 C1192 1.415 . S
C1191 C1190 1.355 . S
C1191 C1193 1.419 . S
C1192 C1190 1.415 . S
C1192 C1197 1.425 . S
C1192 C1199 1.409 . S
C1193 H1185 0.930 . S
C1193 C1191 1.419 . S
C1193 C1194 1.362 . S
C1194 H1186 0.930 . S
C1194 C1193 1.362 . S
C1194 C1197 1.409 . S
C1195 H1187 0.930 . S
C1195 C1196 1.355 . S
C1195 C1197 1.415 . S
C1196 C1195 1.355 . S
C1196 C1198 1.419 . S
C1197 C1192 1.425 . S
C1197 C1194 1.409 . S
C1197 C1195 1.415 . S
C1198 H1188 0.930 . S
C1198 C1196 1.419 . S
C1198 C1199 1.362 . S
C1199 H1189 0.930 . S
C1199 C1192 1.409 . S
C1199 C1198 1.362 . S
H1200 C1206 0.930 . S
H1201 C1209 0.930 . S
H1202 C1210 0.930 . S
H1203 C1211 0.930 . S
H1204 C1214 0.930 . S
H1205 C1215 0.930 . S
C1206 H1200 0.930 . S
C1206 C1207 1.355 . S
C1206 C1208 1.415 1_554 S
C1207 C1206 1.355 . S
C1207 C1209 1.419 . S
C1208 C1206 1.415 1_556 S
C1208 C1213 1.425 . S
C1208 C1215 1.409 . S
C1209 H1201 0.930 . S
C1209 C1207 1.419 . S
C1209 C1210 1.362 1_554 S
C1210 H1202 0.930 . S
C1210 C1209 1.362 1_556 S
C1210 C1213 1.409 . S
C1211 H1203 0.930 . S
C1211 C1212 1.355 . S
C1211 C1213 1.415 . S
C1212 C1211 1.355 . S
C1212 C1214 1.419 . S
C1213 C1208 1.425 . S
C1213 C1210 1.409 . S
C1213 C1211 1.415 . S
C1214 H1204 0.930 . S
C1214 C1212 1.419 . S
C1214 C1215 1.362 . S
C1215 H1205 0.930 . S
C1215 C1208 1.409 . S
C1215 C1214 1.362 . S
H1216 C1222 0.930 . S
H1217 C1225 0.930 . S
H1218 C1226 0.930 . S
H1219 C1227 0.930 . S
H1220 C1230 0.930 . S
H1221 C1231 0.930 . S
C1222 H1216 0.930 . S
C1222 C1223 1.355 . S
C1222 C1224 1.415 . S
C1223 C1222 1.355 . S
C1223 C1225 1.419 . S
C1224 C1222 1.415 . S
C1224 C1229 1.425 . S
C1224 C1231 1.409 . S
C1225 H1217 0.930 . S
C1225 C1223 1.419 . S
C1225 C1226 1.362 . S
C1226 H1218 0.930 . S
C1226 C1225 1.362 . S
C1226 C1229 1.409 . S
C1227 H1219 0.930 . S
C1227 C1228 1.355 . S
C1227 C1229 1.415 . S
C1228 C1227 1.355 . S
C1228 C1230 1.419 . S
C1229 C1224 1.425 . S
C1229 C1226 1.409 . S
C1229 C1227 1.415 . S
C1230 H1220 0.930 . S
C1230 C1228 1.419 . S
C1230 C1231 1.362 . S
C1231 H1221 0.930 . S
C1231 C1224 1.409 . S
C1231 C1230 1.362 . S
H1232 C1238 0.930 . S
H1233 C1241 0.930 . S
H1234 C1242 0.930 . S
H1235 C1243 0.930 . S
H1236 C1246 0.930 . S
H1237 C1247 0.930 . S
C1238 H1232 0.930 . S
C1238 C1239 1.355 . S
C1238 C1240 1.415 . S
C1239 C1238 1.355 . S
C1239 C1241 1.419 . S
C1240 C1238 1.415 . S
C1240 C1245 1.425 . S
C1240 C1247 1.409 . S
C1241 H1233 0.930 . S
C1241 C1239 1.419 . S
C1241 C1242 1.362 . S
C1242 H1234 0.930 . S
C1242 C1241 1.362 . S
C1242 C1245 1.409 . S
C1243 H1235 0.930 . S
C1243 C1244 1.355 . S
C1243 C1245 1.415 . S
C1244 C1243 1.355 . S
C1244 C1246 1.419 . S
C1245 C1240 1.425 . S
C1245 C1242 1.409 . S
C1245 C1243 1.415 . S
C1246 H1236 0.930 . S
C1246 C1244 1.419 . S
C1246 C1247 1.362 . S
C1247 H1237 0.930 . S
C1247 C1240 1.409 . S
C1247 C1246 1.362 . S
H1248 C1254 0.930 . S
H1249 C1257 0.930 . S
H1250 C1258 0.930 . S
H1251 C1259 0.930 . S
H1252 C1262 0.930 . S
H1253 C1263 0.930 . S
C1254 H1248 0.930 . S
C1254 C1255 1.355 . S
C1254 C1256 1.415 . S
C1255 C1254 1.355 . S
C1255 C1257 1.419 . S
C1256 C1254 1.415 . S
C1256 C1261 1.425 . S
C1256 C1263 1.409 . S
C1257 H1249 0.930 . S
C1257 C1255 1.419 . S
C1257 C1258 1.362 . S
C1258 H1250 0.930 . S
C1258 C1257 1.362 . S
C1258 C1261 1.409 . S
C1259 H1251 0.930 . S
C1259 C1260 1.355 . S
C1259 C1261 1.415 . S
C1260 C1259 1.355 . S
C1260 C1262 1.419 . S
C1261 C1256 1.425 . S
C1261 C1258 1.409 . S
C1261 C1259 1.415 . S
C1262 H1252 0.930 . S
C1262 C1260 1.419 . S
C1262 C1263 1.362 . S
C1263 H1253 0.930 . S
C1263 C1256 1.409 . S
C1263 C1262 1.362 . S
H1264 C1270 0.930 . S
H1265 C1273 0.930 . S
H1266 C1274 0.930 . S
H1267 C1275 0.930 . S
H1268 C1278 0.930 . S
H1269 C1279 0.930 . S
C1270 H1264 0.930 . S
C1270 C1271 1.355 . S
C1270 C1272 1.415 1_554 S
C1271 C1270 1.355 . S
C1271 C1273 1.419 1_554 S
C1272 C1270 1.415 1_556 S
C1272 C1277 1.425 . S
C1272 C1279 1.409 . S
C1273 H1265 0.930 . S
C1273 C1271 1.419 1_556 S
C1273 C1274 1.362 . S
C1274 H1266 0.930 . S
C1274 C1273 1.362 . S
C1274 C1277 1.409 . S
C1275 H1267 0.930 . S
C1275 C1276 1.355 . S
C1275 C1277 1.415 . S
C1276 C1275 1.355 . S
C1276 C1278 1.419 . S
C1277 C1272 1.425 . S
C1277 C1274 1.409 . S
C1277 C1275 1.415 . S
C1278 H1268 0.930 . S
C1278 C1276 1.419 . S
C1278 C1279 1.362 . S
C1279 H1269 0.930 . S
C1279 C1272 1.409 . S
C1279 C1278 1.362 . S
H1280 C1286 0.930 . S
H1281 C1289 0.930 . S
H1282 C1290 0.930 . S
H1283 C1291 0.930 . S
H1284 C1294 0.930 . S
H1285 C1295 0.930 . S
C1286 H1280 0.930 . S
C1286 C1287 1.355 . S
C1286 C1288 1.415 . S
C1287 C1286 1.355 . S
C1287 C1289 1.419 . S
C1288 C1286 1.415 . S
C1288 C1293 1.425 . S
C1288 C1295 1.409 . S
C1289 H1281 0.930 . S
C1289 C1287 1.419 . S
C1289 C1290 1.362 . S
C1290 H1282 0.930 . S
C1290 C1289 1.362 . S
C1290 C1293 1.409 . S
C1291 H1283 0.930 . S
C1291 C1292 1.355 . S
C1291 C1293 1.415 . S
C1292 C1291 1.355 . S
C1292 C1294 1.419 . S
C1293 C1288 1.425 . S
C1293 C1290 1.409 . S
C1293 C1291 1.415 . S
C1294 H1284 0.930 . S
C1294 C1292 1.419 . S
C1294 C1295 1.362 . S
C1295 H1285 0.930 . S
C1295 C1288 1.409 . S
C1295 C1294 1.362 . S
H1296 C1302 0.930 . S
H1297 C1305 0.930 . S
H1298 C1306 0.930 . S
H1299 C1307 0.930 . S
H1300 C1310 0.930 . S
H1301 C1311 0.930 . S
C1302 H1296 0.930 . S
C1302 C1303 1.355 . S
C1302 C1304 1.415 . S
C1303 C1302 1.355 . S
C1303 C1305 1.419 . S
C1304 C1302 1.415 . S
C1304 C1309 1.425 . S
C1304 C1311 1.409 . S
C1305 H1297 0.930 . S
C1305 C1303 1.419 . S
C1305 C1306 1.362 . S
C1306 H1298 0.930 . S
C1306 C1305 1.362 . S
C1306 C1309 1.409 . S
C1307 H1299 0.930 . S
C1307 C1308 1.355 . S
C1307 C1309 1.415 . S
C1308 C1307 1.355 . S
C1308 C1310 1.419 . S
C1309 C1304 1.425 . S
C1309 C1306 1.409 . S
C1309 C1307 1.415 . S
C1310 H1300 0.930 . S
C1310 C1308 1.419 . S
C1310 C1311 1.362 . S
C1311 H1301 0.930 . S
C1311 C1304 1.409 . S
C1311 C1310 1.362 . S
H1312 C1318 0.930 . S
H1313 C1321 0.930 . S
H1314 C1322 0.930 . S
H1315 C1323 0.930 . S
H1316 C1326 0.930 . S
H1317 C1327 0.930 . S
C1318 H1312 0.930 . S
C1318 C1319 1.355 . S
C1318 C1320 1.415 . S
C1319 C1318 1.355 . S
C1319 C1321 1.419 . S
C1320 C1318 1.415 . S
C1320 C1325 1.425 . S
C1320 C1327 1.409 . S
C1321 H1313 0.930 . S
C1321 C1319 1.419 . S
C1321 C1322 1.362 . S
C1322 H1314 0.930 . S
C1322 C1321 1.362 . S
C1322 C1325 1.409 . S
C1323 H1315 0.930 . S
C1323 C1324 1.355 . S
C1323 C1325 1.415 . S
C1324 C1323 1.355 . S
C1324 C1326 1.419 . S
C1325 C1320 1.425 . S
C1325 C1322 1.409 . S
C1325 C1323 1.415 . S
C1326 H1316 0.930 . S
C1326 C1324 1.419 . S
C1326 C1327 1.362 . S
C1327 H1317 0.930 . S
C1327 C1320 1.409 . S
C1327 C1326 1.362 . S
H1328 C1334 0.930 . S
H1329 C1337 0.930 . S
H1330 C1338 0.930 . S
H1331 C1339 0.930 . S
H1332 C1342 0.930 . S
H1333 C1343 0.930 . S
C1334 H1328 0.930 . S
C1334 C1335 1.355 . S
C1334 C1336 1.415 . S
C1335 C1334 1.355 . S
C1335 C1337 1.419 . S
C1336 C1334 1.415 . S
C1336 C1341 1.425 . S
C1336 C1343 1.409 . S
C1337 H1329 0.930 . S
C1337 C1335 1.419 . S
C1337 C1338 1.362 . S
C1338 H1330 0.930 . S
C1338 C1337 1.362 . S
C1338 C1341 1.409 . S
C1339 H1331 0.930 . S
C1339 C1340 1.355 . S
C1339 C1341 1.415 . S
C1340 C1339 1.355 . S
C1340 C1342 1.419 . S
C1341 C1336 1.425 . S
C1341 C1338 1.409 . S
C1341 C1339 1.415 . S
C1342 H1332 0.930 . S
C1342 C1340 1.419 . S
C1342 C1343 1.362 . S
C1343 H1333 0.930 . S
C1343 C1336 1.409 . S
C1343 C1342 1.362 . S
H1344 C1350 0.930 . S
H1345 C1353 0.930 . S
H1346 C1354 0.930 . S
H1347 C1355 0.930 . S
H1348 C1358 0.930 . S
H1349 C1359 0.930 . S
C1350 H1344 0.930 . S
C1350 C1351 1.355 . S
C1350 C1352 1.415 . S
C1351 C1350 1.355 . S
C1351 C1353 1.419 . S
C1352 C1350 1.415 . S
C1352 C1357 1.425 . S
C1352 C1359 1.409 . S
C1353 H1345 0.930 . S
C1353 C1351 1.419 . S
C1353 C1354 1.362 . S
C1354 H1346 0.930 . S
C1354 C1353 1.362 . S
C1354 C1357 1.409 . S
C1355 H1347 0.930 . S
C1355 C1356 1.355 . S
C1355 C1357 1.415 1_556 S
C1356 C1355 1.355 . S
C1356 C1358 1.419 1_556 S
C1357 C1352 1.425 . S
C1357 C1354 1.409 . S
C1357 C1355 1.415 1_554 S
C1358 H1348 0.930 . S
C1358 C1356 1.419 1_554 S
C1358 C1359 1.362 . S
C1359 H1349 0.930 . S
C1359 C1352 1.409 . S
C1359 C1358 1.362 . S
H1360 C1366 0.930 . S
H1361 C1369 0.930 . S
H1362 C1370 0.930 . S
H1363 C1371 0.930 . S
H1364 C1374 0.930 . S
H1365 C1375 0.930 . S
C1366 H1360 0.930 . S
C1366 C1367 1.355 . S
C1366 C1368 1.415 . S
C1367 C1366 1.355 . S
C1367 C1369 1.419 . S
C1368 C1366 1.415 . S
C1368 C1373 1.425 . S
C1368 C1375 1.409 . S
C1369 H1361 0.930 . S
C1369 C1367 1.419 . S
C1369 C1370 1.362 . S
C1370 H1362 0.930 . S
C1370 C1369 1.362 . S
C1370 C1373 1.409 . S
C1371 H1363 0.930 . S
C1371 C1372 1.355 . S
C1371 C1373 1.415 . S
C1372 C1371 1.355 . S
C1372 C1374 1.419 . S
C1373 C1368 1.425 . S
C1373 C1370 1.409 . S
C1373 C1371 1.415 . S
C1374 H1364 0.930 . S
C1374 C1372 1.419 . S
C1374 C1375 1.362 . S
C1375 H1365 0.930 . S
C1375 C1368 1.409 . S
C1375 C1374 1.362 . S
H1376 C1382 0.930 . S
H1377 C1385 0.930 . S
H1378 C1386 0.930 . S
H1379 C1387 0.930 . S
H1380 C1390 0.930 . S
H1381 C1391 0.930 . S
C1382 H1376 0.930 . S
C1382 C1383 1.355 . S
C1382 C1384 1.415 . S
C1383 C1382 1.355 . S
C1383 C1385 1.419 . S
C1384 C1382 1.415 . S
C1384 C1389 1.425 . S
C1384 C1391 1.409 . S
C1385 H1377 0.930 . S
C1385 C1383 1.419 . S
C1385 C1386 1.362 . S
C1386 H1378 0.930 . S
C1386 C1385 1.362 . S
C1386 C1389 1.409 . S
C1387 H1379 0.930 . S
C1387 C1388 1.355 . S
C1387 C1389 1.415 . S
C1388 C1387 1.355 . S
C1388 C1390 1.419 . S
C1389 C1384 1.425 . S
C1389 C1386 1.409 . S
C1389 C1387 1.415 . S
C1390 H1380 0.930 . S
C1390 C1388 1.419 . S
C1390 C1391 1.362 . S
C1391 H1381 0.930 . S
C1391 C1384 1.409 . S
C1391 C1390 1.362 . S
H1392 C1398 0.930 . S
H1393 C1401 0.930 . S
H1394 C1402 0.930 . S
H1395 C1403 0.930 . S
H1396 C1406 0.930 . S
H1397 C1407 0.930 . S
C1398 H1392 0.930 . S
C1398 C1399 1.355 . S
C1398 C1400 1.415 . S
C1399 C1398 1.355 . S
C1399 C1401 1.419 . S
C1400 C1398 1.415 . S
C1400 C1405 1.425 . S
C1400 C1407 1.409 . S
C1401 H1393 0.930 . S
C1401 C1399 1.419 . S
C1401 C1402 1.362 . S
C1402 H1394 0.930 . S
C1402 C1401 1.362 . S
C1402 C1405 1.409 . S
C1403 H1395 0.930 . S
C1403 C1404 1.355 . S
C1403 C1405 1.415 . S
C1404 C1403 1.355 . S
C1404 C1406 1.419 . S
C1405 C1400 1.425 . S
C1405 C1402 1.409 . S
C1405 C1403 1.415 . S
C1406 H1396 0.930 . S
C1406 C1404 1.419 . S
C1406 C1407 1.362 . S
C1407 H1397 0.930 . S
C1407 C1400 1.409 . S
C1407 C1406 1.362 . S
H1408 C1414 0.930 . S
H1409 C1417 0.930 . S
H1410 C1418 0.930 . S
H1411 C1419 0.930 . S
H1412 C1422 0.930 . S
H1413 C1423 0.930 1_554 S
C1414 H1408 0.930 . S
C1414 C1415 1.355 . S
C1414 C1416 1.415 1_554 S
C1415 C1414 1.355 . S
C1415 C1417 1.419 1_554 S
C1416 C1414 1.415 1_556 S
C1416 C1421 1.425 . S
C1416 C1423 1.409 . S
C1417 H1409 0.930 . S
C1417 C1415 1.419 1_556 S
C1417 C1418 1.362 . S
C1418 H1410 0.930 . S
C1418 C1417 1.362 . S
C1418 C1421 1.409 . S
C1419 H1411 0.930 . S
C1419 C1420 1.355 . S
C1419 C1421 1.415 . S
C1420 C1419 1.355 . S
C1420 C1422 1.419 . S
C1421 C1416 1.425 . S
C1421 C1418 1.409 . S
C1421 C1419 1.415 . S
C1422 H1412 0.930 . S
C1422 C1420 1.419 . S
C1422 C1423 1.362 . S
C1423 H1413 0.930 1_556 S
C1423 C1416 1.409 . S
C1423 C1422 1.362 . S
H1424 C1430 0.930 . S
H1425 C1433 0.930 . S
H1426 C1434 0.930 . S
H1427 C1435 0.930 . S
H1428 C1438 0.930 . S
H1429 C1439 0.930 . S
C1430 H1424 0.930 . S
C1430 C1431 1.355 . S
C1430 C1432 1.415 . S
C1431 C1430 1.355 . S
C1431 C1433 1.419 . S
C1432 C1430 1.415 . S
C1432 C1437 1.425 . S
C1432 C1439 1.409 . S
C1433 H1425 0.930 . S
C1433 C1431 1.419 . S
C1433 C1434 1.362 . S
C1434 H1426 0.930 . S
C1434 C1433 1.362 . S
C1434 C1437 1.409 . S
C1435 H1427 0.930 . S
C1435 C1436 1.355 . S
C1435 C1437 1.415 . S
C1436 C1435 1.355 . S
C1436 C1438 1.419 . S
C1437 C1432 1.425 . S
C1437 C1434 1.409 . S
C1437 C1435 1.415 . S
C1438 H1428 0.930 . S
C1438 C1436 1.419 . S
C1438 C1439 1.362 . S
C1439 H1429 0.930 . S
C1439 C1432 1.409 . S
C1439 C1438 1.362 . S
H1440 C1446 0.930 . S
H1441 C1449 0.930 . S
H1442 C1450 0.930 . S
H1443 C1451 0.930 . S
H1444 C1454 0.930 . S
H1445 C1455 0.930 . S
C1446 H1440 0.930 . S
C1446 C1447 1.355 . S
C1446 C1448 1.415 . S
C1447 C1446 1.355 . S
C1447 C1449 1.419 . S
C1448 C1446 1.415 . S
C1448 C1453 1.425 . S
C1448 C1455 1.409 . S
C1449 H1441 0.930 . S
C1449 C1447 1.419 . S
C1449 C1450 1.362 . S
C1450 H1442 0.930 . S
C1450 C1449 1.362 . S
C1450 C1453 1.409 . S
C1451 H1443 0.930 . S
C1451 C1452 1.355 . S
C1451 C1453 1.415 . S
C1452 C1451 1.355 . S
C1452 C1454 1.419 . S
C1453 C1448 1.425 . S
C1453 C1450 1.409 . S
C1453 C1451 1.415 . S
C1454 H1444 0.930 . S
C1454 C1452 1.419 . S
C1454 C1455 1.362 . S
C1455 H1445 0.930 . S
C1455 C1448 1.409 . S
C1455 C1454 1.362 . S
H1456 C1462 0.930 . S
H1457 C1465 0.930 . S
H1458 C1466 0.930 . S
H1459 C1467 0.930 . S
H1460 C1470 0.930 . S
H1461 C1471 0.930 . S
C1462 H1456 0.930 . S
C1462 C1463 1.355 . S
C1462 C1464 1.415 . S
C1463 C1462 1.355 . S
C1463 C1465 1.419 . S
C1464 C1462 1.415 . S
C1464 C1469 1.425 . S
C1464 C1471 1.409 . S
C1465 H1457 0.930 . S
C1465 C1463 1.419 . S
C1465 C1466 1.362 . S
C1466 H1458 0.930 . S
C1466 C1465 1.362 . S
C1466 C1469 1.409 . S
C1467 H1459 0.930 . S
C1467 C1468 1.355 . S
C1467 C1469 1.415 . S
C1468 C1467 1.355 . S
C1468 C1470 1.419 . S
C1469 C1464 1.425 . S
C1469 C1466 1.409 . S
C1469 C1467 1.415 . S
C1470 H1460 0.930 . S
C1470 C1468 1.419 . S
C1470 C1471 1.362 . S
C1471 H1461 0.930 . S
C1471 C1464 1.409 . S
C1471 C1470 1.362 . S
C455 C9 0.598 . S
C460 C191 0.564 . S
C471 C359 1.640 . S
C476 C23 1.631 . S
C487 C37 0.541 . S
C492 C219 0.539 . S
C503 C51 1.656 . S
C508 C345 1.671 . S
C519 C65 2.311 . S
C524 C247 2.319 1_565 S
C535 C79 1.643 . S
C540 C317 1.652 . S
C551 C93 2.238 . S
C556 C275 2.225 . S
C567 C443 0.922 . S
C572 C107 0.903 . S
C583 C303 2.315 . S
C588 C121 2.308 . S
C599 C135 1.628 . S
C604 C261 1.629 . S
C615 C331 2.235 . S
C620 C149 2.232 . S
C631 C163 1.642 . S
C636 C233 1.663 . S
C647 C205 1.635 . S
C652 C177 1.614 . S
C663 C289 0.909 . S
C668 C401 0.911 . S
C679 C415 0.559 . S
C684 C373 0.563 . S
C695 C429 0.507 . S
C700 C387 0.524 . S
C711 C8 1.570 1_565 S
C716 C22 1.546 . S
C727 C34 1.641 . S
C732 C21 1.877 . S
C743 C50 1.664 . S
C748 C36 1.656 1_545 S
C759 C49 1.559 . S
C764 C6 1.443 . S
C775 C105 1.902 . S
C780 C64 1.940 . S
C791 C76 1.208 . S
C796 C62 1.338 . S
C807 C91 1.675 . S
C812 C77 1.690 . S
C823 C92 1.541 . S
C828 C104 1.400 . S
C839 C134 1.768 . S
C844 C7 1.764 1_655 S
C855 C119 1.319 . S
C860 C48 1.123 . S
C871 C146 1.277 . S
C876 C20 1.191 . S
C887 C385 2.093 1_455 S
C892 C106 2.155 . S
C903 C400 2.160 . S
C908 C35 2.107 . S
C919 C160 1.160 . S
C924 C63 1.300 . S
C935 C90 1.282 . S
C940 C174 1.195 . S
C951 C202 1.682 . S
C956 C188 1.604 . S
C967 C218 1.474 . S
C972 C203 1.441 . S
C983 C230 1.807 . S
C988 C216 1.733 . S
C999 C190 1.518 . S
C1004 C231 1.443 . S
C1015 C246 1.726 . S
C1020 C288 1.725 . S
C1031 C245 1.273 . S
C1036 C258 1.255 . S
C1047 C274 1.696 . S
C1052 C260 1.697 . S
C1063 C273 1.502 . S
C1068 C286 1.468 . S
C1079 C189 1.428 . S
C1084 C315 1.451 . S
C1095 C300 1.712 . S
C1100 C232 1.889 . S
C1111 C328 1.444 . S
C1116 C204 1.606 . S
C1127 C427 1.416 . S
C1132 C287 1.450 . S
C1143 C441 1.402 . S
C1148 C217 1.430 . S
C1159 C244 1.758 . S
C1164 C344 1.910 . S
C1175 C358 1.629 . S
C1180 C272 1.474 . S
C1191 C176 1.572 . S
C1196 C372 1.569 . S
C1207 C384 1.633 . S
C1212 C175 1.879 . S
C1223 C162 1.645 . S
C1228 C386 1.638 . S
C1239 C161 1.574 . S
C1244 C370 1.376 . S
C1255 C120 1.956 . S
C1260 C399 1.892 . S
C1271 C132 1.320 . S
C1276 C118 1.312 . S
C1287 C147 1.706 . S
C1292 C133 1.646 . S
C1303 C148 1.536 . S
C1308 C398 1.451 . S
C1319 C371 1.785 . S
C1324 C78 1.754 . S
C1335 C356 1.674 . S
C1340 C412 1.689 . S
C1351 C357 1.428 . S
C1356 C428 1.475 . S
C1367 C426 1.750 . S
C1372 C342 1.758 . S
C1383 C343 1.443 . S
C1388 C414 1.519 . S
C1399 C442 1.734 . S
C1404 C302 1.734 . S
C1415 C301 1.253 . S
C1420 C314 1.230 . S
C1431 C330 1.696 . S
C1436 C316 1.695 . S
C1447 C329 1.443 . S
C1452 C440 1.381 . S
C1463 C413 1.435 . S
C1468 C259 1.461 . S
