# Generated by pormake.
# Topology ume, (4)-cn, num edge types: 1
# Building blocks:
#     Node 0, Type 0, BuildingBlock: CEKHIL_clean_sbu_0, # of connection points: 4
#     Node 1, Type 0, BuildingBlock: CEKHIL_clean_sbu_0, # of connection points: 4
#     Node 2, Type 0, BuildingBlock: CEKHIL_clean_sbu_0, # of connection points: 4
#     Node 3, Type 0, BuildingBlock: CEKHIL_clean_sbu_0, # of connection points: 4
#     Node 4, Type 0, BuildingBlock: CEKHIL_clean_sbu_0, # of connection points: 4
#     Node 5, Type 0, BuildingBlock: CEKHIL_clean_sbu_0, # of connection points: 4
#     Node 6, Type 0, BuildingBlock: CEKHIL_clean_sbu_0, # of connection points: 4
#     Node 7, Type 0, BuildingBlock: CEKHIL_clean_sbu_0, # of connection points: 4
#     Node 8, Type 0, BuildingBlock: CEKHIL_clean_sbu_0, # of connection points: 4
#     Node 9, Type 0, BuildingBlock: CEKHIL_clean_sbu_0, # of connection points: 4
#     Node 10, Type 0, BuildingBlock: CEKHIL_clean_sbu_0, # of connection points: 4
#     Node 11, Type 0, BuildingBlock: CEKHIL_clean_sbu_0, # of connection points: 4
#     Node 12, Type 0, BuildingBlock: CEKHIL_clean_sbu_0, # of connection points: 4
#     Node 13, Type 0, BuildingBlock: CEKHIL_clean_sbu_0, # of connection points: 4
#     Node 14, Type 0, BuildingBlock: CEKHIL_clean_sbu_0, # of connection points: 4
#     Node 15, Type 0, BuildingBlock: CEKHIL_clean_sbu_0, # of connection points: 4
#     Edge 16, Type (0, 0), BuildingBlock: EZIPEK_clean_linker_0, # of connection points: 2
#     Edge 17, Type (0, 0), BuildingBlock: EZIPEK_clean_linker_0, # of connection points: 2
#     Edge 18, Type (0, 0), BuildingBlock: EZIPEK_clean_linker_0, # of connection points: 2
#     Edge 19, Type (0, 0), BuildingBlock: EZIPEK_clean_linker_0, # of connection points: 2
#     Edge 20, Type (0, 0), BuildingBlock: EZIPEK_clean_linker_0, # of connection points: 2
#     Edge 21, Type (0, 0), BuildingBlock: EZIPEK_clean_linker_0, # of connection points: 2
#     Edge 22, Type (0, 0), BuildingBlock: EZIPEK_clean_linker_0, # of connection points: 2
#     Edge 23, Type (0, 0), BuildingBlock: EZIPEK_clean_linker_0, # of connection points: 2
#     Edge 24, Type (0, 0), BuildingBlock: EZIPEK_clean_linker_0, # of connection points: 2
#     Edge 25, Type (0, 0), BuildingBlock: EZIPEK_clean_linker_0, # of connection points: 2
#     Edge 26, Type (0, 0), BuildingBlock: EZIPEK_clean_linker_0, # of connection points: 2
#     Edge 27, Type (0, 0), BuildingBlock: EZIPEK_clean_linker_0, # of connection points: 2
#     Edge 28, Type (0, 0), BuildingBlock: EZIPEK_clean_linker_0, # of connection points: 2
#     Edge 29, Type (0, 0), BuildingBlock: EZIPEK_clean_linker_0, # of connection points: 2
#     Edge 30, Type (0, 0), BuildingBlock: EZIPEK_clean_linker_0, # of connection points: 2
#     Edge 31, Type (0, 0), BuildingBlock: EZIPEK_clean_linker_0, # of connection points: 2
#     Edge 32, Type (0, 0), BuildingBlock: EZIPEK_clean_linker_0, # of connection points: 2
#     Edge 33, Type (0, 0), BuildingBlock: EZIPEK_clean_linker_0, # of connection points: 2
#     Edge 34, Type (0, 0), BuildingBlock: EZIPEK_clean_linker_0, # of connection points: 2
#     Edge 35, Type (0, 0), BuildingBlock: EZIPEK_clean_linker_0, # of connection points: 2
#     Edge 36, Type (0, 0), BuildingBlock: EZIPEK_clean_linker_0, # of connection points: 2
#     Edge 37, Type (0, 0), BuildingBlock: EZIPEK_clean_linker_0, # of connection points: 2
#     Edge 38, Type (0, 0), BuildingBlock: EZIPEK_clean_linker_0, # of connection points: 2
#     Edge 39, Type (0, 0), BuildingBlock: EZIPEK_clean_linker_0, # of connection points: 2
#     Edge 40, Type (0, 0), BuildingBlock: EZIPEK_clean_linker_0, # of connection points: 2
#     Edge 41, Type (0, 0), BuildingBlock: EZIPEK_clean_linker_0, # of connection points: 2
#     Edge 42, Type (0, 0), BuildingBlock: EZIPEK_clean_linker_0, # of connection points: 2
#     Edge 43, Type (0, 0), BuildingBlock: EZIPEK_clean_linker_0, # of connection points: 2
#     Edge 44, Type (0, 0), BuildingBlock: EZIPEK_clean_linker_0, # of connection points: 2
#     Edge 45, Type (0, 0), BuildingBlock: EZIPEK_clean_linker_0, # of connection points: 2
#     Edge 46, Type (0, 0), BuildingBlock: EZIPEK_clean_linker_0, # of connection points: 2
#     Edge 47, Type (0, 0), BuildingBlock: EZIPEK_clean_linker_0, # of connection points: 2
# Relax obj value: 0.096
# Max RMSD: 0.134
# Mean RMSD: 0.134
data_MOF--net-ume--node1-CEKHIL_clean_sbu_0--edge1-EZIPEK_clean_linker_0
_symmetry_space_group_name_H-M    P1
_symmetry_Int_Tables_number       1
_symmetry_cell_setting            triclinic
loop_
_symmetry_equiv_pos_as_xyz
'x, y, z'
_cell_length_a     20.249165
_cell_length_b     20.253775
_cell_length_c     79.400053
_cell_angle_alpha  89.999618
_cell_angle_beta   90.040044
_cell_angle_gamma 89.977871
loop_
_atom_site_label
_atom_site_type_symbol
_atom_site_fract_x
_atom_site_fract_y
_atom_site_fract_z
_atom_type_partial_charge
Co0 Co 0.23084 0.0953 0.3035 0.0
O1 O 0.13626 0.10538 0.30181 0.0
O2 O 0.18738 0.01364 0.30974 0.0
C3 C 0.25694 0.14165 0.27869 0.0
O4 O 0.32763 0.06534 0.30602 0.0
Co5 Co 0.32221 0.21758 0.30566 0.0
O6 O 0.39533 0.15352 0.3067 0.0
C7 C 0.25646 0.17063 0.33638 0.0
C8 C 0.13226 0.04434 0.30665 0.0
C9 C 0.38588 0.09144 0.30685 0.0
O10 O 0.22752 0.1259 0.32762 0.0
O11 O 0.29597 0.21284 0.32993 0.0
O12 O 0.23677 0.08084 0.27935 0.0
O13 O 0.25313 0.17472 0.29262 0.0
Co14 Co 0.89966 0.73726 0.55522 0.0
O15 O 0.87819 0.64481 0.55351 0.0
O16 O 0.97475 0.6841 0.562 0.0
C17 C 0.85857 0.76572 0.52971 0.0
O18 O 0.94042 0.82898 0.55823 0.0
Co19 Co 0.78971 0.84293 0.55561 0.0
O20 O 0.86393 0.90574 0.55223 0.0
C21 C 0.81847 0.76816 0.58658 0.0
C22 C 0.938 0.63315 0.55855 0.0
C23 C 0.92323 0.88942 0.55567 0.0
O24 O 0.86723 0.73992 0.57914 0.0
O25 O 0.77776 0.80657 0.57904 0.0
O26 O 0.9174 0.74086 0.53106 0.0
O27 O 0.82429 0.76741 0.54346 0.0
Co28 Co 0.27591 0.40959 0.80282 0.0
O29 O 0.36952 0.39245 0.80076 0.0
O30 O 0.326 0.48874 0.80797 0.0
C31 C 0.24613 0.36066 0.77824 0.0
O32 O 0.1827 0.44744 0.80557 0.0
Co33 Co 0.17639 0.29647 0.80666 0.0
O34 O 0.10873 0.36597 0.80954 0.0
C35 C 0.24992 0.33929 0.83635 0.0
C36 C 0.3785 0.45363 0.805 0.0
C37 C 0.12346 0.42666 0.80823 0.0
O38 O 0.27892 0.3832 0.82732 0.0
O39 O 0.20895 0.29757 0.83035 0.0
O40 O 0.26794 0.42092 0.77857 0.0
O41 O 0.24788 0.32956 0.79252 0.0
Co42 Co 0.59943 0.76638 0.05465 0.0
O43 O 0.61798 0.85997 0.05368 0.0
O44 O 0.52304 0.81654 0.06196 0.0
C45 C 0.641 0.74212 0.02898 0.0
O46 O 0.56049 0.67333 0.05679 0.0
Co47 Co 0.71097 0.66147 0.05365 0.0
O48 O 0.63736 0.59903 0.04923 0.0
C49 C 0.68388 0.73279 0.0853 0.0
C50 C 0.55798 0.86902 0.0589 0.0
C51 C 0.57816 0.61387 0.05314 0.0
O52 O 0.63386 0.76143 0.07844 0.0
O53 O 0.72368 0.69496 0.0773 0.0
O54 O 0.58165 0.76569 0.03044 0.0
O55 O 0.67506 0.73911 0.04272 0.0
Co56 Co 0.23521 0.39316 0.94232 0.0
O57 O 0.14085 0.37976 0.94136 0.0
O58 O 0.19028 0.47595 0.93746 0.0
C59 C 0.24916 0.33388 0.9664 0.0
O60 O 0.33043 0.42773 0.943 0.0
Co61 Co 0.33451 0.27906 0.94015 0.0
O62 O 0.4025 0.34416 0.94629 0.0
C63 C 0.27596 0.33109 0.90895 0.0
C64 C 0.1356 0.44244 0.93831 0.0
C65 C 0.38939 0.40536 0.94531 0.0
O66 O 0.24312 0.37368 0.91756 0.0
O67 O 0.31387 0.28784 0.9156 0.0
O68 O 0.23182 0.39568 0.96677 0.0
O69 O 0.25484 0.30903 0.95148 0.0
Co70 Co 0.61198 0.74476 0.18845 0.0
O71 O 0.63389 0.65206 0.19041 0.0
O72 O 0.53727 0.69094 0.18185 0.0
C73 C 0.65308 0.77434 0.21397 0.0
O74 O 0.56832 0.83491 0.18544 0.0
Co75 Co 0.71869 0.85273 0.18758 0.0
O76 O 0.64366 0.91589 0.18745 0.0
C77 C 0.69382 0.7754 0.15709 0.0
C78 C 0.57398 0.64024 0.18545 0.0
C79 C 0.58414 0.89638 0.18589 0.0
O80 O 0.64474 0.74724 0.16447 0.0
O81 O 0.7341 0.81396 0.16466 0.0
O82 O 0.59441 0.74932 0.21255 0.0
O83 O 0.68746 0.77658 0.20023 0.0
Co84 Co 0.2686 0.10102 0.44129 0.0
O85 O 0.36204 0.11834 0.44089 0.0
O86 O 0.31592 0.02213 0.43464 0.0
C87 C 0.24687 0.14669 0.46639 0.0
O88 O 0.1746 0.0642 0.44115 0.0
Co89 Co 0.16972 0.21797 0.44057 0.0
O90 O 0.10182 0.14774 0.43957 0.0
C91 C 0.23243 0.17733 0.40914 0.0
C92 C 0.36937 0.05688 0.43666 0.0
C93 C 0.115 0.08625 0.4401 0.0
O94 O 0.26022 0.12917 0.41701 0.0
O95 O 0.19742 0.22137 0.41643 0.0
O96 O 0.27175 0.08775 0.46553 0.0
O97 O 0.24431 0.17931 0.45239 0.0
Co98 Co 0.901 0.77343 0.69022 0.0
O99 O 0.88546 0.86761 0.68877 0.0
O100 O 0.98143 0.81947 0.68374 0.0
C101 C 0.84912 0.7618 0.71543 0.0
O102 O 0.93707 0.67871 0.69126 0.0
Co103 Co 0.78667 0.67275 0.69103 0.0
O104 O 0.85518 0.60673 0.69676 0.0
C105 C 0.82467 0.73381 0.65881 0.0
C106 C 0.94734 0.87375 0.68496 0.0
C107 C 0.91606 0.61999 0.69469 0.0
O108 O 0.87427 0.7619 0.66597 0.0
O109 O 0.78126 0.70002 0.66673 0.0
O110 O 0.91048 0.78011 0.71445 0.0
O111 O 0.82048 0.75356 0.70104 0.0
Co112 Co 0.74432 0.61322 0.80523 0.0
O113 O 0.65003 0.62597 0.80273 0.0
O114 O 0.69712 0.53182 0.81008 0.0
C115 C 0.77342 0.66367 0.7807 0.0
O116 O 0.83854 0.57829 0.80809 0.0
Co117 Co 0.83997 0.72838 0.80942 0.0
O118 O 0.91124 0.66165 0.81044 0.0
C119 C 0.75484 0.69385 0.83781 0.0
C120 C 0.64324 0.56419 0.80673 0.0
C121 C 0.89778 0.60055 0.80964 0.0
O122 O 0.73891 0.64071 0.82982 0.0
O123 O 0.7919 0.7375 0.83117 0.0
O124 O 0.75382 0.60262 0.78096 0.0
O125 O 0.76983 0.6944 0.79499 0.0
Co126 Co 0.39504 0.23142 0.05468 0.0
O127 O 0.38268 0.13697 0.05561 0.0
O128 O 0.47859 0.18741 0.05922 0.0
C129 C 0.33497 0.24554 0.03072 0.0
O130 O 0.42805 0.32685 0.05388 0.0
Co131 Co 0.27806 0.32746 0.05759 0.0
O132 O 0.34282 0.39805 0.0532 0.0
C133 C 0.33021 0.26583 0.08816 0.0
C134 C 0.44563 0.13239 0.05835 0.0
C135 C 0.40444 0.38591 0.05307 0.0
O136 O 0.37713 0.23949 0.07957 0.0
O137 O 0.28275 0.29859 0.08163 0.0
O138 O 0.39675 0.22832 0.03024 0.0
O139 O 0.31031 0.25006 0.04569 0.0
Co140 Co 0.76497 0.8908 0.30671 0.0
O141 O 0.8576 0.87052 0.30382 0.0
O142 O 0.8187 0.96569 0.31321 0.0
C143 C 0.73291 0.85195 0.28121 0.0
O144 O 0.67446 0.93303 0.31078 0.0
Co145 Co 0.65822 0.78416 0.30789 0.0
O146 O 0.59386 0.85778 0.30799 0.0
C147 C 0.74449 0.802 0.33743 0.0
C148 C 0.86952 0.93026 0.30893 0.0
C149 C 0.61297 0.91709 0.31006 0.0
O150 O 0.76755 0.85447 0.3304 0.0
O151 O 0.70202 0.76537 0.33006 0.0
O152 O 0.75688 0.91099 0.28283 0.0
O153 O 0.73278 0.81609 0.29473 0.0
Co154 Co 0.09808 0.27188 0.55393 0.0
O155 O 0.10819 0.36642 0.55378 0.0
O156 O 0.01681 0.31363 0.56123 0.0
C157 C 0.14159 0.25215 0.52847 0.0
O158 O 0.06976 0.17494 0.55495 0.0
Co159 Co 0.22354 0.18272 0.5536 0.0
O160 O 0.15938 0.10909 0.55317 0.0
C161 C 0.18138 0.24382 0.58527 0.0
C162 C 0.04731 0.36933 0.55874 0.0
C163 C 0.09716 0.11736 0.55425 0.0
O164 O 0.13003 0.26737 0.5779 0.0
O165 O 0.22739 0.21254 0.57765 0.0
O166 O 0.08107 0.27246 0.52983 0.0
O167 O 0.17626 0.25307 0.54217 0.0
Co168 Co 0.73176 0.89758 0.43955 0.0
O169 O 0.63789 0.88194 0.44075 0.0
O170 O 0.68434 0.97413 0.43144 0.0
C171 C 0.75555 0.86043 0.46579 0.0
O172 O 0.82546 0.93335 0.43688 0.0
Co173 Co 0.83348 0.78368 0.44181 0.0
O174 O 0.89838 0.85605 0.44493 0.0
C175 C 0.7668 0.81111 0.40944 0.0
C176 C 0.63089 0.94146 0.43498 0.0
C177 C 0.8846 0.91495 0.44052 0.0
O178 O 0.736 0.86026 0.41603 0.0
O179 O 0.80511 0.77262 0.4177 0.0
O180 O 0.73316 0.91976 0.46349 0.0
O181 O 0.75718 0.8234 0.45251 0.0
Co182 Co 0.10486 0.23985 0.68979 0.0
O183 O 0.11995 0.14559 0.68892 0.0
O184 O 0.02349 0.19303 0.68417 0.0
C185 C 0.16035 0.25379 0.71451 0.0
O186 O 0.06998 0.33541 0.69039 0.0
Co187 Co 0.22107 0.33879 0.68902 0.0
O188 O 0.15413 0.4046 0.69612 0.0
C189 C 0.17851 0.27383 0.65758 0.0
C190 C 0.05778 0.13887 0.68549 0.0
C191 C 0.09282 0.3933 0.69404 0.0
O192 O 0.12853 0.24862 0.66524 0.0
O193 O 0.22388 0.30682 0.66503 0.0
O194 O 0.09875 0.23583 0.71419 0.0
O195 O 0.18678 0.2601 0.69981 0.0
Co196 Co 0.7704 0.59649 0.94128 0.0
O197 O 0.86391 0.61474 0.93989 0.0
O198 O 0.81804 0.51788 0.93439 0.0
C199 C 0.75243 0.64298 0.96664 0.0
O200 O 0.67636 0.55878 0.94237 0.0
Co201 Co 0.66931 0.71258 0.9419 0.0
O202 O 0.60227 0.64176 0.94359 0.0
C203 C 0.7311 0.67496 0.90992 0.0
C204 C 0.87143 0.55311 0.93591 0.0
C205 C 0.61641 0.58046 0.94339 0.0
O206 O 0.75737 0.624 0.91695 0.0
O207 O 0.69938 0.71948 0.91796 0.0
O208 O 0.77844 0.58465 0.96555 0.0
O209 O 0.74661 0.67456 0.95256 0.0
Co210 Co 0.41296 0.27835 0.19277 0.0
O211 O 0.40179 0.3727 0.19337 0.0
O212 O 0.49443 0.32175 0.18615 0.0
C213 C 0.36684 0.25578 0.2179 0.0
O214 O 0.44187 0.18176 0.19131 0.0
Co215 Co 0.28652 0.18986 0.1918 0.0
O216 O 0.35127 0.11678 0.19067 0.0
C217 C 0.33338 0.25204 0.16071 0.0
C218 C 0.46296 0.37693 0.1887 0.0
C219 C 0.41372 0.12462 0.19049 0.0
O220 O 0.38385 0.27516 0.16854 0.0
O221 O 0.2861 0.22112 0.16789 0.0
O222 O 0.42729 0.27677 0.21706 0.0
O223 O 0.33396 0.25787 0.20394 0.0
C224 C 0.96368 0.99047 0.32321 0.0
C225 C 0.93774 0.958 0.30875 0.0
C226 C 0.04399 0.97283 0.29425 0.0
C227 C 0.06725 0.01104 0.30797 0.0
N228 N 0.04797 0.06263 0.33485 0.0
N229 N 0.94884 0.93128 0.27919 0.0
C230 C 0.02665 0.02178 0.32226 0.0
C231 C 0.97687 0.95218 0.29394 0.0
N232 N 0.92947 0.98915 0.33804 0.0
N233 N 0.08601 0.95636 0.28145 0.0
H234 H 0.89903 0.91924 0.27803 0.0
H235 H 0.97311 0.93269 0.26764 0.0
H236 H 0.13496 0.97225 0.28096 0.0
H237 H 0.07404 0.92239 0.27208 0.0
H238 H 0.94891 0.00538 0.34945 0.0
H239 H 0.88354 0.96658 0.33932 0.0
H240 H 0.01779 0.07895 0.34462 0.0
H241 H 0.09497 0.0837 0.33498 0.0
C242 C 0.99025 0.53825 0.57429 0.0
C243 C 0.96404 0.56459 0.5591 0.0
C244 C 0.97985 0.45754 0.54518 0.0
C245 C 0.01303 0.43381 0.55968 0.0
N246 N 0.05545 0.45207 0.58763 0.0
N247 N 0.94477 0.55299 0.5292 0.0
C248 C 0.01986 0.47434 0.57415 0.0
C249 C 0.96128 0.52508 0.54433 0.0
N250 N 0.98439 0.5731 0.58896 0.0
N251 N 0.96593 0.41542 0.5322 0.0
H252 H 0.93318 0.60283 0.5278 0.0
H253 H 0.94896 0.52844 0.51773 0.0
H254 H 0.97969 0.3658 0.53224 0.0
H255 H 0.93556 0.42801 0.5221 0.0
H256 H 0.99643 0.55387 0.60073 0.0
H257 H 0.96204 0.61944 0.58958 0.0
H258 H 0.0689 0.48185 0.59776 0.0
H259 H 0.07485 0.40439 0.58824 0.0
C260 C 0.55091 0.49985 0.82082 0.0
C261 C 0.57701 0.53174 0.80632 0.0
C262 C 0.47099 0.51696 0.79167 0.0
C263 C 0.44598 0.48224 0.80578 0.0
N264 N 0.464 0.43182 0.83288 0.0
N265 N 0.56822 0.55307 0.77656 0.0
C266 C 0.48663 0.4709 0.82008 0.0
C267 C 0.53865 0.53569 0.79137 0.0
N268 N 0.58644 0.49926 0.83545 0.0
N269 N 0.43011 0.53209 0.77851 0.0
H270 H 0.61885 0.56142 0.77564 0.0
H271 H 0.54461 0.55125 0.76491 0.0
H272 H 0.38084 0.5172 0.77798 0.0
H273 H 0.44355 0.56373 0.76876 0.0
H274 H 0.56735 0.48392 0.84697 0.0
H275 H 0.63407 0.51831 0.8364 0.0
H276 H 0.49352 0.4152 0.84275 0.0
H277 H 0.41633 0.41234 0.83311 0.0
C278 C 0.47851 0.02812 0.04376 0.0
C279 C 0.47844 0.06669 0.05866 0.0
C280 C 0.53474 0.97674 0.07377 0.0
C281 C 0.52858 0.93618 0.05926 0.0
N282 N 0.48539 0.9193 0.03127 0.0
N283 N 0.49995 0.07643 0.0884 0.0
C284 C 0.49761 0.96072 0.04451 0.0
C285 C 0.50512 0.04081 0.07384 0.0
N286 N 0.46329 0.05691 0.02867 0.0
N287 N 0.56949 0.95422 0.08737 0.0
H288 H 0.47934 0.12362 0.08881 0.0
H289 H 0.51194 0.05775 0.10023 0.0
H290 H 0.5893 0.90672 0.08793 0.0
H291 H 0.58209 0.98363 0.09763 0.0
H292 H 0.46864 0.03328 0.0171 0.0
H293 H 0.45217 0.10695 0.02755 0.0
H294 H 0.4563 0.9324 0.02097 0.0
H295 H 0.49945 0.8698 0.03119 0.0
C296 C 0.02825 0.47181 0.9519 0.0
C297 C 0.06945 0.47437 0.93749 0.0
C298 C 0.98153 0.53211 0.92194 0.0
C299 C 0.93828 0.52279 0.93582 0.0
N300 N 0.91733 0.47482 0.96315 0.0
N301 N 0.08402 0.50052 0.90812 0.0
C302 C 0.96065 0.48963 0.9505 0.0
C303 C 0.0459 0.50311 0.92231 0.0
N304 N 0.05478 0.45592 0.96721 0.0
N305 N 0.96121 0.56908 0.9085 0.0
H306 H 0.13141 0.48032 0.90803 0.0
H307 H 0.06718 0.51415 0.89623 0.0
H308 H 0.9136 0.58848 0.90756 0.0
H309 H 0.99249 0.58383 0.8988 0.0
H310 H 0.02895 0.45942 0.97851 0.0
H311 H 0.10498 0.44664 0.96885 0.0
H312 H 0.92926 0.44422 0.97325 0.0
H313 H 0.86769 0.48826 0.96289 0.0
C314 C 0.51971 0.4671 0.17214 0.0
C315 C 0.49585 0.44236 0.18773 0.0
C316 C 0.51831 0.54907 0.2012 0.0
C317 C 0.54639 0.57242 0.18596 0.0
N318 N 0.5814 0.55252 0.15744 0.0
N319 N 0.48499 0.45461 0.21782 0.0
C320 C 0.54952 0.53095 0.17157 0.0
C321 C 0.49863 0.48197 0.20246 0.0
N322 N 0.51107 0.43092 0.15777 0.0
N323 N 0.50881 0.59151 0.21437 0.0
H324 H 0.47183 0.40522 0.21936 0.0
H325 H 0.493 0.47885 0.22921 0.0
H326 H 0.52339 0.64082 0.21408 0.0
H327 H 0.48148 0.57949 0.22504 0.0
H328 H 0.52077 0.44894 0.14574 0.0
H329 H 0.48958 0.38413 0.15773 0.0
H330 H 0.59199 0.5224 0.14717 0.0
H331 H 0.60102 0.59995 0.15643 0.0
C332 C 0.47871 0.03263 0.45002 0.0
C333 C 0.43618 0.02677 0.43587 0.0
C334 C 0.52094 0.96196 0.42111 0.0
C335 C 0.56513 0.97336 0.43467 0.0
N336 N 0.59054 0.02927 0.46072 0.0
N337 N 0.41986 0.99483 0.40689 0.0
C338 C 0.54543 0.01196 0.44868 0.0
C339 C 0.45797 0.99361 0.42111 0.0
N340 N 0.45444 0.0543 0.46512 0.0
N341 N 0.53895 0.92047 0.40833 0.0
H342 H 0.37408 0.01833 0.40636 0.0
H343 H 0.43585 0.97746 0.39524 0.0
H344 H 0.58559 0.89871 0.40764 0.0
H345 H 0.50647 0.90432 0.39903 0.0
H346 H 0.4813 0.0527 0.47631 0.0
H347 H 0.40519 0.06732 0.46697 0.0
H348 H 0.58077 0.06362 0.47016 0.0
H349 H 0.63965 0.0139 0.46046 0.0
C350 C 0.99987 0.04596 0.66994 0.0
C351 C 0.02712 0.07183 0.68505 0.0
C352 C 0.01076 0.96457 0.69898 0.0
C353 C 0.97867 0.94025 0.68435 0.0
N354 N 0.93595 0.95896 0.65645 0.0
N355 N 0.04559 0.06037 0.71489 0.0
C356 C 0.9711 0.98143 0.66998 0.0
C357 C 0.02926 0.03223 0.69981 0.0
N358 N 0.00383 0.08198 0.65542 0.0
N359 N 0.02386 0.92291 0.71212 0.0
H360 H 0.05655 0.11035 0.71612 0.0
H361 H 0.04145 0.03621 0.72642 0.0
H362 H 0.00946 0.87352 0.71228 0.0
H363 H 0.05381 0.93572 0.72228 0.0
H364 H 0.9914 0.06346 0.6436 0.0
H365 H 0.02415 0.12928 0.655 0.0
H366 H 0.92209 0.98867 0.64635 0.0
H367 H 0.91735 0.911 0.65577 0.0
C368 C 0.55692 0.01806 0.29792 0.0
C369 C 0.56109 0.9693 0.31078 0.0
C370 C 0.45181 1.00205 0.32148 0.0
C371 C 0.44574 0.04839 0.30807 0.0
N372 N 0.49474 0.10574 0.28443 0.0
N373 N 0.52121 0.92455 0.33688 0.0
C374 C 0.49917 0.05808 0.29662 0.0
C375 C 0.5107 0.96391 0.32311 0.0
N376 N 0.60697 0.02428 0.28646 0.0
N377 N 0.40161 0.9954 0.33285 0.0
H378 H 0.56501 0.89836 0.33873 0.0
H379 H 0.4897 0.92151 0.34718 0.0
H380 H 0.36207 0.02801 0.33346 0.0
H381 H 0.39797 0.95709 0.34152 0.0
H382 H 0.6035 0.05053 0.27524 0.0
H383 H 0.65256 1.00122 0.28771 0.0
H384 H 0.53439 0.1227 0.27733 0.0
H385 H 0.45139 0.13081 0.28152 0.0
C386 C 0.02984 0.94377 0.54632 0.0
C387 C 0.97328 0.94341 0.55693 0.0
C388 C 0.00673 0.05173 0.56812 0.0
C389 C 0.05504 0.05721 0.55527 0.0
N390 N 0.10603 0.01059 0.53036 0.0
N391 N 0.90653 0.99965 0.57778 0.0
C392 C 0.06511 0.0037 0.54394 0.0
C393 C 0.96121 0.99835 0.56772 0.0
N394 N 0.05107 0.8873 0.53861 0.0
N395 N 0.00667 0.09513 0.58133 0.0
H396 H 0.875 0.95957 0.57918 0.0
H397 H 0.89067 0.04193 0.58407 0.0
H398 H 0.04123 0.13288 0.58266 0.0
H399 H 0.97714 0.08923 0.59196 0.0
H400 H 0.09607 0.88416 0.53229 0.0
H401 H 0.02815 0.84172 0.53989 0.0
H402 H 0.10827 0.9762 0.52061 0.0
H403 H 0.13302 0.05312 0.52786 0.0
C404 C 0.04388 0.50121 0.79345 0.0
C405 C 0.06824 0.47434 0.80875 0.0
C406 C 0.9756 0.52338 0.8243 0.0
C407 C 0.95392 0.55392 0.80921 0.0
N408 N 0.96887 0.57746 0.77967 0.0
N409 N 0.0629 0.4642 0.83894 0.0
C410 C 0.98859 0.54447 0.79385 0.0
C411 C 0.03552 0.48654 0.82425 0.0
N412 N 0.07178 0.48288 0.77846 0.0
N413 N 0.93818 0.52886 0.83857 0.0
H414 H 0.10636 0.43658 0.83929 0.0
H415 H 0.04561 0.47674 0.85085 0.0
H416 H 0.89478 0.55657 0.83906 0.0
H417 H 0.94727 0.50256 0.84958 0.0
H418 H 0.05159 0.49407 0.76674 0.0
H419 H 0.11316 0.45238 0.77764 0.0
H420 H 0.99654 0.57958 0.76864 0.0
H421 H 0.92594 0.60584 0.77914 0.0
C422 C 0.54326 0.5043 0.06528 0.0
C423 C 0.52964 0.55865 0.05443 0.0
C424 C 0.44026 0.4953 0.04133 0.0
C425 C 0.45016 0.44335 0.05306 0.0
N426 N 0.50033 0.4069 0.0791 0.0
N427 N 0.4506 0.61213 0.03602 0.0
C428 C 0.49886 0.44994 0.06583 0.0
C429 C 0.47356 0.55632 0.04369 0.0
N430 N 0.59814 0.50469 0.0753 0.0
N431 N 0.40098 0.4857 0.02754 0.0
H432 H 0.4708 0.65866 0.03804 0.0
H433 H 0.40655 0.6134 0.02923 0.0
H434 H 0.37794 0.44077 0.02496 0.0
H435 H 0.39738 0.51984 0.01776 0.0
H436 H 0.6151 0.46303 0.08169 0.0
H437 H 0.62877 0.54561 0.07658 0.0
H438 H 0.52986 0.41391 0.0897 0.0
H439 H 0.46739 0.3678 0.08047 0.0
C440 C 0.45909 0.49359 0.95868 0.0
C441 C 0.44605 0.45155 0.94486 0.0
C442 C 0.54956 0.48603 0.93136 0.0
C443 C 0.56009 0.53293 0.94446 0.0
N444 N 0.51952 0.58684 0.96974 0.0
N445 N 0.4711 0.4165 0.91659 0.0
C446 C 0.51316 0.53843 0.95784 0.0
C447 C 0.48925 0.45006 0.93082 0.0
N448 N 0.42126 0.4889 0.9729 0.0
N449 N 0.59673 0.4755 0.91934 0.0
H450 H 0.42702 0.39013 0.91561 0.0
H451 H 0.49635 0.4199 0.9052 0.0
H452 H 0.64027 0.50237 0.91847 0.0
H453 H 0.59509 0.43629 0.91087 0.0
H454 H 0.43311 0.51205 0.98422 0.0
H455 H 0.38055 0.45755 0.97382 0.0
H456 H 0.4824 0.59883 0.97828 0.0
H457 H 0.56017 0.61797 0.9706 0.0
C458 C 0.53488 0.9975 0.17296 0.0
C459 C 0.53156 0.94787 0.18552 0.0
C460 C 0.44589 0.01095 0.20047 0.0
C461 C 0.45497 0.06411 0.18891 0.0
N462 N 0.50564 0.10776 0.16369 0.0
N463 N 0.47927 0.90244 0.21027 0.0
C464 C 0.49887 0.05732 0.17503 0.0
C465 C 0.48483 0.95264 0.19883 0.0
N466 N 0.56974 0.98519 0.15856 0.0
N467 N 0.40002 0.01635 0.21307 0.0
H468 H 0.50136 0.8565 0.20874 0.0
H469 H 0.4542 0.90587 0.22165 0.0
H470 H 0.37541 0.05998 0.21596 0.0
H471 H 0.38408 0.97736 0.22054 0.0
H472 H 0.57049 0.01605 0.14809 0.0
H473 H 0.59293 0.94004 0.15639 0.0
H474 H 0.54291 0.10997 0.1547 0.0
H475 H 0.47529 0.14928 0.16351 0.0
C476 C 0.94119 0.02233 0.44808 0.0
C477 C 0.9406 0.96229 0.43889 0.0
C478 C 0.05575 0.98195 0.43001 0.0
C479 C 0.05757 0.03968 0.44034 0.0
N480 N 0.00723 0.1019 0.46302 0.0
N481 N 0.99058 0.89305 0.41782 0.0
C482 C 1.00165 0.05636 0.45036 0.0
C483 C 0.99642 0.94396 0.42908 0.0
N484 N 0.88399 0.04896 0.45421 0.0
N485 N 0.11074 0.96217 0.42138 0.0
H486 H 0.94736 0.86576 0.41632 0.0
H487 H 0.0257 0.88109 0.40877 0.0
H488 H 0.15378 0.98957 0.42044 0.0
H489 H 0.11589 0.91609 0.41575 0.0
H490 H 0.88136 0.09646 0.45922 0.0
H491 H 0.83766 0.02783 0.45268 0.0
H492 H 0.97067 0.1095 0.47204 0.0
H493 H 0.05087 0.12657 0.46587 0.0
C494 C 0.00518 0.46215 0.70836 0.0
C495 C 0.04733 0.45124 0.69436 0.0
C496 C 1.00158 0.54946 0.68037 0.0
C497 C 0.96353 0.56373 0.69492 0.0
N498 N 0.93768 0.54031 0.72396 0.0
N499 N 0.09577 0.49265 0.66864 0.0
C500 C 0.96752 0.52173 0.70926 0.0
C501 C 0.04869 0.4975 0.68089 0.0
N502 N 1.0013 0.41574 0.72082 0.0
N503 N 0.99038 0.58305 0.66569 0.0
H504 H 0.13086 0.45523 0.66844 0.0
H505 H 0.10384 0.52908 0.65961 0.0
H506 H 0.9554 0.62051 0.66452 0.0
H507 H 0.01115 0.5694 0.6542 0.0
H508 H 0.96644 0.41724 0.73044 0.0
H509 H 0.03022 0.3731 0.72092 0.0
H510 H 0.94409 0.51552 0.73533 0.0
H511 H 0.91123 0.58426 0.72518 0.0
C512 C 0.23611 0.11365 0.36442 0.0
C513 C 0.24492 0.17279 0.35493 0.0
C514 C 0.25071 0.23533 0.38136 0.0
C515 C 0.23508 0.17735 0.3905 0.0
N516 N 0.18756 0.06814 0.38953 0.0
N517 N 0.23648 0.29226 0.35492 0.0
C518 C 0.22003 0.11852 0.38168 0.0
C519 C 0.24513 0.23453 0.36354 0.0
N520 N 0.24602 0.05264 0.35753 0.0
N521 N 0.27263 0.29052 0.3895 0.0
H522 H 0.22543 0.29377 0.3421 0.0
H523 H 0.23142 0.33776 0.36093 0.0
H524 H 0.27965 0.29241 0.4025 0.0
H525 H 0.29018 0.3319 0.3831 0.0
H526 H 0.24567 0.0096 0.36474 0.0
H527 H 0.26208 0.04463 0.34529 0.0
H528 H 0.17076 0.02638 0.38315 0.0
H529 H 0.16966 0.07246 0.40177 0.0
C530 C 0.81214 0.69449 0.61198 0.0
C531 C 0.81258 0.75918 0.60509 0.0
C532 C 0.80841 0.80572 0.63361 0.0
C533 C 0.81717 0.74169 0.64039 0.0
N534 N 0.83646 0.62527 0.63608 0.0
N535 N 0.82355 0.87694 0.60962 0.0
C536 C 0.82114 0.68592 0.62961 0.0
C537 C 0.81352 0.81507 0.61596 0.0
N538 N 0.80139 0.64135 0.60172 0.0
N539 N 0.79377 0.85754 0.644 0.0
H540 H 0.82918 0.8864 0.59684 0.0
H541 H 0.83269 0.91807 0.61715 0.0
H542 H 0.78915 0.85257 0.65703 0.0
H543 H 0.78007 0.90398 0.63956 0.0
H544 H 0.7943 0.59357 0.60622 0.0
H545 H 0.79297 0.64593 0.5888 0.0
H546 H 0.84761 0.58447 0.62862 0.0
H547 H 0.84358 0.61686 0.64891 0.0
C548 C 0.26089 0.39751 0.86436 0.0
C549 C 0.26195 0.33815 0.85479 0.0
C550 C 0.26389 0.27426 0.88092 0.0
C551 C 0.27143 0.3334 0.89032 0.0
N552 N 0.29747 0.4501 0.88998 0.0
N553 N 0.28418 0.22083 0.85425 0.0
C554 C 0.2761 0.39478 0.88177 0.0
C555 C 0.26955 0.27666 0.86315 0.0
N556 N 0.24193 0.45599 0.85726 0.0
N557 N 0.24816 0.21629 0.88875 0.0
H558 H 0.29274 0.22119 0.8413 0.0
H559 H 0.29552 0.17602 0.86004 0.0
H560 H 0.23904 0.21289 0.90165 0.0
H561 H 0.23658 0.17336 0.88214 0.0
H562 H 0.23467 0.49876 0.86434 0.0
H563 H 0.22603 0.4605 0.84484 0.0
H564 H 0.30695 0.49443 0.88376 0.0
H565 H 0.31333 0.44976 0.90248 0.0
C566 C 0.69362 0.68875 0.11488 0.0
C567 C 0.69491 0.74317 0.10357 0.0
C568 C 0.69993 0.81971 0.12741 0.0
C569 C 0.70154 0.76507 0.13869 0.0
N570 N 0.71842 0.6485 0.1429 0.0
N571 N 0.71651 0.85869 0.09887 0.0
C572 C 0.70421 0.69981 0.13232 0.0
C573 C 0.70343 0.80816 0.10979 0.0
N574 N 0.67862 0.62696 0.10915 0.0
N575 N 0.69145 0.88247 0.13336 0.0
H576 H 0.7203 0.85185 0.08588 0.0
H577 H 0.72988 0.90592 0.10279 0.0
H578 H 0.68945 0.89409 0.14611 0.0
H579 H 0.68118 0.92265 0.1256 0.0
H580 H 0.66943 0.5871 0.1171 0.0
H581 H 0.66944 0.61672 0.09652 0.0
H582 H 0.72733 0.60059 0.1387 0.0
H583 H 0.7278 0.65513 0.15572 0.0
C584 C 0.68836 0.65871 0.86337 0.0
C585 C 0.73657 0.70086 0.85613 0.0
C586 C 0.77673 0.73002 0.88432 0.0
C587 C 0.73441 0.68192 0.89139 0.0
N588 N 0.64819 0.60093 0.8881 0.0
N589 N 0.79427 0.80393 0.861 0.0
C590 C 0.68941 0.64656 0.88104 0.0
C591 C 0.77189 0.74466 0.8669 0.0
N592 N 0.63731 0.63662 0.85363 0.0
N593 N 0.82263 0.76094 0.89418 0.0
H594 H 0.7799 0.82305 0.84938 0.0
H595 H 0.81659 0.83928 0.86864 0.0
H596 H 0.82738 0.75184 0.90706 0.0
H597 H 0.85974 0.79093 0.88927 0.0
H598 H 0.59694 0.61076 0.85832 0.0
H599 H 0.63081 0.65203 0.8412 0.0
H600 H 0.62038 0.56737 0.88114 0.0
H601 H 0.64444 0.59424 0.90108 0.0
C602 C 0.33203 0.3181 0.13405 0.0
C603 C 0.33313 0.25581 0.14215 0.0
C604 C 0.33004 0.19962 0.11482 0.0
C605 C 0.33309 0.26185 0.10671 0.0
N606 N 0.35169 0.3795 0.10838 0.0
N607 N 0.34857 0.13762 0.14043 0.0
C608 C 0.33823 0.32097 0.11626 0.0
C609 C 0.33646 0.19655 0.13259 0.0
N610 N 0.32296 0.37433 0.1433 0.0
N611 N 0.31863 0.14368 0.10562 0.0
H612 H 0.35438 0.13309 0.15343 0.0
H613 H 0.35905 0.09417 0.13394 0.0
H614 H 0.31351 0.14383 0.09254 0.0
H615 H 0.30864 0.09795 0.11104 0.0
H616 H 0.31458 0.42049 0.13793 0.0
H617 H 0.31819 0.37413 0.15638 0.0
H618 H 0.36322 0.42277 0.11482 0.0
H619 H 0.35753 0.38367 0.09537 0.0
C620 C 0.81293 0.82597 0.36331 0.0
C621 C 0.76204 0.78868 0.35558 0.0
C622 C 0.72073 0.75692 0.38354 0.0
C623 C 0.76452 0.80306 0.39095 0.0
N624 N 0.84989 0.88544 0.38797 0.0
N625 N 0.69521 0.69068 0.35903 0.0
C626 C 0.81036 0.8383 0.38088 0.0
C627 C 0.7234 0.74583 0.36584 0.0
N628 N 0.86682 0.84428 0.35409 0.0
N629 N 0.67529 0.72518 0.39335 0.0
H630 H 0.70646 0.67416 0.34695 0.0
H631 H 0.66999 0.65544 0.36607 0.0
H632 H 0.67294 0.73132 0.40639 0.0
H633 H 0.63679 0.697 0.38846 0.0
H634 H 0.90854 0.86621 0.35934 0.0
H635 H 0.8736 0.82886 0.34167 0.0
H636 H 0.87885 0.91772 0.38092 0.0
H637 H 0.84948 0.89621 0.40081 0.0
C638 C 0.18428 0.32255 0.62847 0.0
C639 C 0.18282 0.26587 0.63904 0.0
C640 C 0.1789 0.19434 0.61417 0.0
C641 C 0.18554 0.25085 0.60372 0.0
N642 N 0.20669 0.36729 0.60075 0.0
N643 N 0.19161 0.14762 0.64208 0.0
C644 C 0.1919 0.31456 0.61083 0.0
C645 C 0.18378 0.20161 0.63192 0.0
N646 N 0.1749 0.38395 0.63515 0.0
N647 N 0.16513 0.13417 0.60718 0.0
H648 H 0.19653 0.15098 0.65513 0.0
H649 H 0.19946 0.10011 0.63747 0.0
H650 H 0.16151 0.12653 0.59422 0.0
H651 H 0.15191 0.09292 0.61425 0.0
H652 H 0.16736 0.42614 0.6279 0.0
H653 H 0.16871 0.39195 0.64797 0.0
H654 H 0.21887 0.41378 0.60542 0.0
H655 H 0.21251 0.36323 0.58774 0.0
C656 C 0.25508 0.22807 0.25597 0.0
C657 C 0.28438 0.17055 0.26302 0.0
C658 C 0.37055 0.17235 0.24132 0.0
C659 C 0.33907 0.22729 0.23359 0.0
N660 N 0.25007 0.3065 0.23284 0.0
N661 N 0.3629 0.08086 0.26069 0.0
C662 C 0.28081 0.25477 0.2407 0.0
C663 C 0.33987 0.1406 0.25519 0.0
N664 N 0.20245 0.25707 0.26385 0.0
N665 N 0.4307 0.15081 0.23572 0.0
H666 H 0.34698 0.05787 0.27167 0.0
H667 H 0.39601 0.05202 0.25386 0.0
H668 H 0.45322 0.1676 0.22477 0.0
H669 H 0.46039 0.11816 0.24247 0.0
H670 H 0.18407 0.30351 0.26079 0.0
H671 H 0.1779 0.23575 0.27402 0.0
H672 H 0.20317 0.3235 0.23596 0.0
H673 H 0.27038 0.33156 0.22262 0.0
C674 C 0.83582 0.86933 0.48996 0.0
C675 C 0.78048 0.83768 0.48247 0.0
C676 C 0.77853 0.75665 0.50556 0.0
C677 C 0.83234 0.78979 0.51331 0.0
N678 N 0.91135 0.87859 0.51342 0.0
N679 N 0.692 0.75856 0.48435 0.0
C680 C 0.86093 0.84612 0.50558 0.0
C681 C 0.74999 0.78314 0.49058 0.0
N682 N 0.86593 0.92053 0.48186 0.0
N683 N 0.75667 0.69817 0.51212 0.0
H684 H 0.66935 0.77711 0.47353 0.0
H685 H 0.66323 0.72374 0.49059 0.0
H686 H 0.77652 0.67716 0.523 0.0
H687 H 0.72276 0.66756 0.50611 0.0
H688 H 0.91223 0.9392 0.48495 0.0
H689 H 0.84536 0.9434 0.47146 0.0
H690 H 0.92796 0.92548 0.51015 0.0
H691 H 0.93561 0.85921 0.52378 0.0
C692 C 0.25363 0.30734 0.73201 0.0
C693 C 0.1951 0.26834 0.73083 0.0
C694 C 0.17318 0.28672 0.76062 0.0
C695 C 0.23011 0.32694 0.76204 0.0
N696 N 0.33618 0.35641 0.75033 0.0
N697 N 0.12626 0.19291 0.74645 0.0
C698 C 0.27377 0.33212 0.74806 0.0
C699 C 0.16344 0.24903 0.74592 0.0
N700 N 0.29133 0.3195 0.71813 0.0
N701 N 0.12582 0.28728 0.77275 0.0
H702 H 0.12508 0.15973 0.73642 0.0
H703 H 0.10557 0.17488 0.75757 0.0
H704 H 0.12773 0.32 0.78274 0.0
H705 H 0.08106 0.26225 0.77154 0.0
H706 H 0.32578 0.35763 0.71758 0.0
H707 H 0.29057 0.28972 0.70748 0.0
H708 H 0.37237 0.35572 0.74101 0.0
H709 H 0.35455 0.37064 0.76204 0.0
C710 C 0.67655 0.631 0.99152 0.0
C711 C 0.72492 0.66837 0.98272 0.0
C712 C 0.72054 0.75345 0.00483 0.0
C713 C 0.6679 0.71876 0.01263 0.0
N714 N 0.58585 0.63281 0.01113 0.0
N715 N 0.79109 0.76711 0.98035 0.0
C716 C 0.64312 0.65997 0.00533 0.0
C717 C 0.74613 0.73042 0.98915 0.0
N718 N 0.66202 0.56763 0.98685 0.0
N719 N 0.74641 0.80813 0.0125 0.0
H720 H 0.81556 0.74966 0.9697 0.0
H721 H 0.8023 0.81605 0.98314 0.0
H722 H 0.7263 0.82886 0.02337 0.0
H723 H 0.78974 0.83122 0.00864 0.0
H724 H 0.63486 0.53552 0.9944 0.0
H725 H 0.67915 0.54522 0.97593 0.0
H726 H 0.5615 0.59379 0.00526 0.0
H727 H 0.55881 0.65389 0.0208 0.0
C728 C 0.24284 0.29879 0.01309 0.0
C729 C 0.29584 0.25322 0.01479 0.0
C730 C 0.30044 0.24057 0.98405 0.0
C731 C 0.2561 0.2947 0.98236 0.0
N732 N 0.16052 0.34631 0.99455 0.0
N733 N 0.34592 0.15695 0.00256 0.0
C734 C 0.22002 0.31559 0.99671 0.0
C735 C 0.3163 0.21702 0.00043 0.0
N736 N 0.21303 0.32518 0.0269 0.0
N737 N 0.32677 0.21052 0.97026 0.0
H738 H 0.35035 0.1351 0.01441 0.0
H739 H 0.35775 0.12521 0.9927 0.0
H740 H 0.30388 0.21119 0.95857 0.0
H741 H 0.369 0.18114 0.97078 0.0
H742 H 0.18454 0.36803 0.02646 0.0
H743 H 0.21291 0.30151 0.03848 0.0
H744 H 0.12898 0.35879 0.00439 0.0
H745 H 0.13874 0.35082 0.9827 0.0
C746 C 0.65742 0.85802 0.25638 0.0
C747 C 0.71126 0.82694 0.26447 0.0
C748 C 0.72825 0.75865 0.23919 0.0
C749 C 0.67889 0.79575 0.23066 0.0
N750 N 0.61055 0.89281 0.23015 0.0
N751 N 0.80459 0.75316 0.2628 0.0
C752 C 0.64757 0.84883 0.239 0.0
C753 C 0.74865 0.77853 0.25568 0.0
N754 N 0.61348 0.89424 0.26545 0.0
N755 N 0.75414 0.70352 0.23181 0.0
H756 H 0.82039 0.76591 0.27488 0.0
H757 H 0.83772 0.7232 0.25631 0.0
H758 H 0.74119 0.68832 0.21969 0.0
H759 H 0.78485 0.67046 0.23811 0.0
H760 H 0.56955 0.91286 0.26051 0.0
H761 H 0.61723 0.89795 0.27839 0.0
H762 H 0.59164 0.93628 0.23527 0.0
H763 H 0.60657 0.88966 0.21721 0.0
C764 C 0.25034 0.23007 0.48971 0.0
C765 C 0.22052 0.17352 0.48235 0.0
C766 C 0.13702 0.17102 0.50464 0.0
C767 C 0.16791 0.22611 0.51241 0.0
N768 N 0.24653 0.3153 0.51127 0.0
N769 N 0.14571 0.08095 0.48491 0.0
C770 C 0.22302 0.25736 0.50472 0.0
C771 C 0.16684 0.14141 0.49039 0.0
N772 N 0.30702 0.25513 0.48283 0.0
N773 N 0.07773 0.14795 0.51042 0.0
H774 H 0.16302 0.05806 0.47406 0.0
H775 H 0.11363 0.05107 0.49176 0.0
H776 H 0.05535 0.16402 0.52146 0.0
H777 H 0.04832 0.11507 0.50367 0.0
H778 H 0.33558 0.29187 0.48836 0.0
H779 H 0.32882 0.23588 0.472 0.0
H780 H 0.2821 0.34461 0.50552 0.0
H781 H 0.22696 0.33734 0.52204 0.0
C782 C 0.75863 0.71149 0.73437 0.0
C783 C 0.81659 0.75056 0.73219 0.0
C784 C 0.84124 0.74053 0.76219 0.0
C785 C 0.78583 0.69861 0.76442 0.0
N786 N 0.67804 0.66859 0.7541 0.0
N787 N 0.8861 0.83072 0.74605 0.0
C788 C 0.74048 0.69081 0.7509 0.0
C789 C 0.84945 0.77418 0.74675 0.0
N790 N 0.71956 0.69532 0.721 0.0
N791 N 0.88819 0.7462 0.77436 0.0
H792 H 0.88695 0.86084 0.73539 0.0
H793 H 0.9072 0.85231 0.75669 0.0
H794 H 0.8857 0.72005 0.78549 0.0
H795 H 0.93265 0.77116 0.77252 0.0
H796 H 0.68522 0.65701 0.72142 0.0
H797 H 0.71899 0.7218 0.7098 0.0
H798 H 0.64073 0.6668 0.74508 0.0
H799 H 0.66109 0.66025 0.7663 0.0
loop_
_geom_bond_atom_site_label_1
_geom_bond_atom_site_label_2
_geom_bond_distance
_geom_bond_site_symmetry_2
_ccdc_geom_bond_type
Co0 O1 2.216 . S
Co0 O2 2.091 . S
Co0 O4 2.004 . S
Co0 O10 2.021 . S
Co0 O12 2.137 . S
Co0 O13 2.244 . S
O1 Co0 2.216 . S
O1 C8 1.247 . S
O2 Co0 2.091 . S
O2 C8 1.261 . S
C3 O12 1.247 . S
C3 O13 1.272 . S
O4 Co0 2.004 . S
O4 C9 1.259 . S
Co5 O6 2.061 . S
Co5 O11 2.052 . S
Co5 O13 2.135 . S
O6 Co5 2.061 . S
O6 C9 1.235 . S
C7 O10 1.238 . S
C7 O11 1.241 . S
C8 O1 1.247 . S
C8 O2 1.261 . S
C9 O4 1.259 . S
C9 O6 1.235 . S
O10 Co0 2.021 . S
O10 C7 1.238 . S
O11 Co5 2.052 . S
O11 C7 1.241 . S
O12 Co0 2.137 . S
O12 C3 1.247 . S
O13 Co0 2.244 . S
O13 C3 1.272 . S
O13 Co5 2.135 . S
Co14 O15 2.216 . S
Co14 O16 2.091 . S
Co14 O18 2.004 . S
Co14 O24 2.021 . S
Co14 O26 2.137 . S
Co14 O27 2.244 . S
O15 Co14 2.216 . S
O15 C22 1.247 . S
O16 Co14 2.091 . S
O16 C22 1.261 . S
C17 O26 1.247 . S
C17 O27 1.272 . S
O18 Co14 2.004 . S
O18 C23 1.259 . S
Co19 O20 2.061 . S
Co19 O25 2.052 . S
Co19 O27 2.135 . S
O20 Co19 2.061 . S
O20 C23 1.235 . S
C21 O24 1.238 . S
C21 O25 1.241 . S
C22 O15 1.247 . S
C22 O16 1.261 . S
C23 O18 1.259 . S
C23 O20 1.235 . S
O24 Co14 2.021 . S
O24 C21 1.238 . S
O25 Co19 2.052 . S
O25 C21 1.241 . S
O26 Co14 2.137 . S
O26 C17 1.247 . S
O27 Co14 2.244 . S
O27 C17 1.272 . S
O27 Co19 2.135 . S
Co28 O29 2.216 . S
Co28 O30 2.091 . S
Co28 O32 2.004 . S
Co28 O38 2.021 . S
Co28 O40 2.137 . S
Co28 O41 2.244 . S
O29 Co28 2.216 . S
O29 C36 1.247 . S
O30 Co28 2.091 . S
O30 C36 1.261 . S
C31 O40 1.247 . S
C31 O41 1.272 . S
O32 Co28 2.004 . S
O32 C37 1.259 . S
Co33 O34 2.061 . S
Co33 O39 2.052 . S
Co33 O41 2.135 . S
O34 Co33 2.061 . S
O34 C37 1.235 . S
C35 O38 1.238 . S
C35 O39 1.241 . S
C36 O29 1.247 . S
C36 O30 1.261 . S
C37 O32 1.259 . S
C37 O34 1.235 . S
O38 Co28 2.021 . S
O38 C35 1.238 . S
O39 Co33 2.052 . S
O39 C35 1.241 . S
O40 Co28 2.137 . S
O40 C31 1.247 . S
O41 Co28 2.244 . S
O41 C31 1.272 . S
O41 Co33 2.135 . S
Co42 O43 2.216 . S
Co42 O44 2.091 . S
Co42 O46 2.004 . S
Co42 O52 2.021 . S
Co42 O54 2.137 . S
Co42 O55 2.244 . S
O43 Co42 2.216 . S
O43 C50 1.247 . S
O44 Co42 2.091 . S
O44 C50 1.261 . S
C45 O54 1.247 . S
C45 O55 1.272 . S
O46 Co42 2.004 . S
O46 C51 1.259 . S
Co47 O48 2.061 . S
Co47 O53 2.052 . S
Co47 O55 2.135 . S
O48 Co47 2.061 . S
O48 C51 1.235 . S
C49 O52 1.238 . S
C49 O53 1.241 . S
C50 O43 1.247 . S
C50 O44 1.261 . S
C51 O46 1.259 . S
C51 O48 1.235 . S
O52 Co42 2.021 . S
O52 C49 1.238 . S
O53 Co47 2.052 . S
O53 C49 1.241 . S
O54 Co42 2.137 . S
O54 C45 1.247 . S
O55 Co42 2.244 . S
O55 C45 1.272 . S
O55 Co47 2.135 . S
Co56 O57 2.216 . S
Co56 O58 2.091 . S
Co56 O60 2.004 . S
Co56 O66 2.021 . S
Co56 O68 2.137 . S
Co56 O69 2.244 . S
O57 Co56 2.216 . S
O57 C64 1.247 . S
O58 Co56 2.091 . S
O58 C64 1.261 . S
C59 O68 1.247 . S
C59 O69 1.272 . S
O60 Co56 2.004 . S
O60 C65 1.259 . S
Co61 O62 2.061 . S
Co61 O67 2.052 . S
Co61 O69 2.135 . S
O62 Co61 2.061 . S
O62 C65 1.235 . S
C63 O66 1.238 . S
C63 O67 1.241 . S
C64 O57 1.247 . S
C64 O58 1.261 . S
C65 O60 1.259 . S
C65 O62 1.235 . S
O66 Co56 2.021 . S
O66 C63 1.238 . S
O67 Co61 2.052 . S
O67 C63 1.241 . S
O68 Co56 2.137 . S
O68 C59 1.247 . S
O69 Co56 2.244 . S
O69 C59 1.272 . S
O69 Co61 2.135 . S
Co70 O71 2.216 . S
Co70 O72 2.091 . S
Co70 O74 2.004 . S
Co70 O80 2.021 . S
Co70 O82 2.137 . S
Co70 O83 2.244 . S
O71 Co70 2.216 . S
O71 C78 1.247 . S
O72 Co70 2.091 . S
O72 C78 1.261 . S
C73 O82 1.247 . S
C73 O83 1.272 . S
O74 Co70 2.004 . S
O74 C79 1.259 . S
Co75 O76 2.061 . S
Co75 O81 2.052 . S
Co75 O83 2.135 . S
O76 Co75 2.061 . S
O76 C79 1.235 . S
C77 O80 1.238 . S
C77 O81 1.241 . S
C78 O71 1.247 . S
C78 O72 1.261 . S
C79 O74 1.259 . S
C79 O76 1.235 . S
O80 Co70 2.021 . S
O80 C77 1.238 . S
O81 Co75 2.052 . S
O81 C77 1.241 . S
O82 Co70 2.137 . S
O82 C73 1.247 . S
O83 Co70 2.244 . S
O83 C73 1.272 . S
O83 Co75 2.135 . S
Co84 O85 2.216 . S
Co84 O86 2.091 . S
Co84 O88 2.004 . S
Co84 O94 2.021 . S
Co84 O96 2.137 . S
Co84 O97 2.244 . S
O85 Co84 2.216 . S
O85 C92 1.247 . S
O86 Co84 2.091 . S
O86 C92 1.261 . S
C87 O96 1.247 . S
C87 O97 1.272 . S
O88 Co84 2.004 . S
O88 C93 1.259 . S
Co89 O90 2.061 . S
Co89 O95 2.052 . S
Co89 O97 2.135 . S
O90 Co89 2.061 . S
O90 C93 1.235 . S
C91 O94 1.238 . S
C91 O95 1.241 . S
C92 O85 1.247 . S
C92 O86 1.261 . S
C93 O88 1.259 . S
C93 O90 1.235 . S
O94 Co84 2.021 . S
O94 C91 1.238 . S
O95 Co89 2.052 . S
O95 C91 1.241 . S
O96 Co84 2.137 . S
O96 C87 1.247 . S
O97 Co84 2.244 . S
O97 C87 1.272 . S
O97 Co89 2.135 . S
Co98 O99 2.216 . S
Co98 O100 2.091 . S
Co98 O102 2.004 . S
Co98 O108 2.021 . S
Co98 O110 2.137 . S
Co98 O111 2.244 . S
O99 Co98 2.216 . S
O99 C106 1.247 . S
O100 Co98 2.091 . S
O100 C106 1.261 . S
C101 O110 1.247 . S
C101 O111 1.272 . S
O102 Co98 2.004 . S
O102 C107 1.259 . S
Co103 O104 2.061 . S
Co103 O109 2.052 . S
Co103 O111 2.135 . S
O104 Co103 2.061 . S
O104 C107 1.235 . S
C105 O108 1.238 . S
C105 O109 1.241 . S
C106 O99 1.247 . S
C106 O100 1.261 . S
C107 O102 1.259 . S
C107 O104 1.235 . S
O108 Co98 2.021 . S
O108 C105 1.238 . S
O109 Co103 2.052 . S
O109 C105 1.241 . S
O110 Co98 2.137 . S
O110 C101 1.247 . S
O111 Co98 2.244 . S
O111 C101 1.272 . S
O111 Co103 2.135 . S
Co112 O113 2.216 . S
Co112 O114 2.091 . S
Co112 O116 2.004 . S
Co112 O122 2.021 . S
Co112 O124 2.137 . S
Co112 O125 2.244 . S
O113 Co112 2.216 . S
O113 C120 1.247 . S
O114 Co112 2.091 . S
O114 C120 1.261 . S
C115 O124 1.247 . S
C115 O125 1.272 . S
O116 Co112 2.004 . S
O116 C121 1.259 . S
Co117 O118 2.061 . S
Co117 O123 2.052 . S
Co117 O125 2.135 . S
O118 Co117 2.061 . S
O118 C121 1.235 . S
C119 O122 1.238 . S
C119 O123 1.241 . S
C120 O113 1.247 . S
C120 O114 1.261 . S
C121 O116 1.259 . S
C121 O118 1.235 . S
O122 Co112 2.021 . S
O122 C119 1.238 . S
O123 Co117 2.052 . S
O123 C119 1.241 . S
O124 Co112 2.137 . S
O124 C115 1.247 . S
O125 Co112 2.244 . S
O125 C115 1.272 . S
O125 Co117 2.135 . S
Co126 O127 2.216 . S
Co126 O128 2.091 . S
Co126 O130 2.004 . S
Co126 O136 2.021 . S
Co126 O138 2.137 . S
Co126 O139 2.244 . S
O127 Co126 2.216 . S
O127 C134 1.247 . S
O128 Co126 2.091 . S
O128 C134 1.261 . S
C129 O138 1.247 . S
C129 O139 1.272 . S
O130 Co126 2.004 . S
O130 C135 1.259 . S
Co131 O132 2.061 . S
Co131 O137 2.052 . S
Co131 O139 2.135 . S
O132 Co131 2.061 . S
O132 C135 1.235 . S
C133 O136 1.238 . S
C133 O137 1.241 . S
C134 O127 1.247 . S
C134 O128 1.261 . S
C135 O130 1.259 . S
C135 O132 1.235 . S
O136 Co126 2.021 . S
O136 C133 1.238 . S
O137 Co131 2.052 . S
O137 C133 1.241 . S
O138 Co126 2.137 . S
O138 C129 1.247 . S
O139 Co126 2.244 . S
O139 C129 1.272 . S
O139 Co131 2.135 . S
Co140 O141 2.216 . S
Co140 O142 2.091 . S
Co140 O144 2.004 . S
Co140 O150 2.021 . S
Co140 O152 2.137 . S
Co140 O153 2.244 . S
O141 Co140 2.216 . S
O141 C148 1.247 . S
O142 Co140 2.091 . S
O142 C148 1.261 . S
C143 O152 1.247 . S
C143 O153 1.272 . S
O144 Co140 2.004 . S
O144 C149 1.259 . S
Co145 O146 2.061 . S
Co145 O151 2.052 . S
Co145 O153 2.135 . S
O146 Co145 2.061 . S
O146 C149 1.235 . S
C147 O150 1.238 . S
C147 O151 1.241 . S
C148 O141 1.247 . S
C148 O142 1.261 . S
C149 O144 1.259 . S
C149 O146 1.235 . S
O150 Co140 2.021 . S
O150 C147 1.238 . S
O151 Co145 2.052 . S
O151 C147 1.241 . S
O152 Co140 2.137 . S
O152 C143 1.247 . S
O153 Co140 2.244 . S
O153 C143 1.272 . S
O153 Co145 2.135 . S
Co154 O155 2.216 . S
Co154 O156 2.091 . S
Co154 O158 2.004 . S
Co154 O164 2.021 . S
Co154 O166 2.137 . S
Co154 O167 2.244 . S
O155 Co154 2.216 . S
O155 C162 1.247 . S
O156 Co154 2.091 . S
O156 C162 1.261 . S
C157 O166 1.247 . S
C157 O167 1.272 . S
O158 Co154 2.004 . S
O158 C163 1.259 . S
Co159 O160 2.061 . S
Co159 O165 2.052 . S
Co159 O167 2.135 . S
O160 Co159 2.061 . S
O160 C163 1.235 . S
C161 O164 1.238 . S
C161 O165 1.241 . S
C162 O155 1.247 . S
C162 O156 1.261 . S
C163 O158 1.259 . S
C163 O160 1.235 . S
O164 Co154 2.021 . S
O164 C161 1.238 . S
O165 Co159 2.052 . S
O165 C161 1.241 . S
O166 Co154 2.137 . S
O166 C157 1.247 . S
O167 Co154 2.244 . S
O167 C157 1.272 . S
O167 Co159 2.135 . S
Co168 O169 2.216 . S
Co168 O170 2.091 . S
Co168 O172 2.004 . S
Co168 O178 2.021 . S
Co168 O180 2.137 . S
Co168 O181 2.244 . S
O169 Co168 2.216 . S
O169 C176 1.247 . S
O170 Co168 2.091 . S
O170 C176 1.261 . S
C171 O180 1.247 . S
C171 O181 1.272 . S
O172 Co168 2.004 . S
O172 C177 1.259 . S
Co173 O174 2.061 . S
Co173 O179 2.052 . S
Co173 O181 2.135 . S
O174 Co173 2.061 . S
O174 C177 1.235 . S
C175 O178 1.238 . S
C175 O179 1.241 . S
C176 O169 1.247 . S
C176 O170 1.261 . S
C177 O172 1.259 . S
C177 O174 1.235 . S
O178 Co168 2.021 . S
O178 C175 1.238 . S
O179 Co173 2.052 . S
O179 C175 1.241 . S
O180 Co168 2.137 . S
O180 C171 1.247 . S
O181 Co168 2.244 . S
O181 C171 1.272 . S
O181 Co173 2.135 . S
Co182 O183 2.216 . S
Co182 O184 2.091 . S
Co182 O186 2.004 . S
Co182 O192 2.021 . S
Co182 O194 2.137 . S
Co182 O195 2.244 . S
O183 Co182 2.216 . S
O183 C190 1.247 . S
O184 Co182 2.091 . S
O184 C190 1.261 . S
C185 O194 1.247 . S
C185 O195 1.272 . S
O186 Co182 2.004 . S
O186 C191 1.259 . S
Co187 O188 2.061 . S
Co187 O193 2.052 . S
Co187 O195 2.135 . S
O188 Co187 2.061 . S
O188 C191 1.235 . S
C189 O192 1.238 . S
C189 O193 1.241 . S
C190 O183 1.247 . S
C190 O184 1.261 . S
C191 O186 1.259 . S
C191 O188 1.235 . S
O192 Co182 2.021 . S
O192 C189 1.238 . S
O193 Co187 2.052 . S
O193 C189 1.241 . S
O194 Co182 2.137 . S
O194 C185 1.247 . S
O195 Co182 2.244 . S
O195 C185 1.272 . S
O195 Co187 2.135 . S
Co196 O197 2.216 . S
Co196 O198 2.091 . S
Co196 O200 2.004 . S
Co196 O206 2.021 . S
Co196 O208 2.137 . S
Co196 O209 2.244 . S
O197 Co196 2.216 . S
O197 C204 1.247 . S
O198 Co196 2.091 . S
O198 C204 1.261 . S
C199 O208 1.247 . S
C199 O209 1.272 . S
O200 Co196 2.004 . S
O200 C205 1.259 . S
Co201 O202 2.061 . S
Co201 O207 2.052 . S
Co201 O209 2.135 . S
O202 Co201 2.061 . S
O202 C205 1.235 . S
C203 O206 1.238 . S
C203 O207 1.241 . S
C204 O197 1.247 . S
C204 O198 1.261 . S
C205 O200 1.259 . S
C205 O202 1.235 . S
O206 Co196 2.021 . S
O206 C203 1.238 . S
O207 Co201 2.052 . S
O207 C203 1.241 . S
O208 Co196 2.137 . S
O208 C199 1.247 . S
O209 Co196 2.244 . S
O209 C199 1.272 . S
O209 Co201 2.135 . S
Co210 O211 2.216 . S
Co210 O212 2.091 . S
Co210 O214 2.004 . S
Co210 O220 2.021 . S
Co210 O222 2.137 . S
Co210 O223 2.244 . S
O211 Co210 2.216 . S
O211 C218 1.247 . S
O212 Co210 2.091 . S
O212 C218 1.261 . S
C213 O222 1.247 . S
C213 O223 1.272 . S
O214 Co210 2.004 . S
O214 C219 1.259 . S
Co215 O216 2.061 . S
Co215 O221 2.052 . S
Co215 O223 2.135 . S
O216 Co215 2.061 . S
O216 C219 1.235 . S
C217 O220 1.238 . S
C217 O221 1.241 . S
C218 O211 1.247 . S
C218 O212 1.261 . S
C219 O214 1.259 . S
C219 O216 1.235 . S
O220 Co210 2.021 . S
O220 C217 1.238 . S
O221 Co215 2.052 . S
O221 C217 1.241 . S
O222 Co210 2.137 . S
O222 C213 1.247 . S
O223 Co210 2.244 . S
O223 C213 1.272 . S
O223 Co215 2.135 . S
C224 C225 1.363 1_545 S
C224 C230 1.379 1_655 S
C224 N232 1.358 . S
C225 C224 1.363 1_565 S
C225 C231 1.363 . S
C226 C227 1.363 1_565 S
C226 C231 1.379 1_455 S
C226 N233 1.358 . S
C227 C226 1.363 1_545 S
C227 C230 1.363 . S
N228 C230 1.356 . S
N228 H240 0.984 . S
N228 H241 0.985 . S
N229 C231 1.356 . S
N229 H234 0.984 . S
N229 H235 0.985 . S
C230 C224 1.379 1_455 S
C230 C227 1.363 . S
C230 N228 1.356 . S
C231 C225 1.363 . S
C231 C226 1.379 1_655 S
C231 N229 1.356 . S
N232 C224 1.358 . S
N232 H238 0.992 . S
N232 H239 0.976 1_545 S
N233 C226 1.358 . S
N233 H236 0.976 1_565 S
N233 H237 0.992 . S
H234 N229 0.984 . S
H235 N229 0.985 . S
H236 N233 0.976 1_545 S
H237 N233 0.992 . S
H238 N232 0.992 . S
H239 N232 0.976 1_565 S
H240 N228 0.984 . S
H241 N228 0.985 . S
C242 C243 1.363 1_455 S
C242 C248 1.379 . S
C242 N250 1.358 . S
C243 C242 1.363 1_655 S
C243 C249 1.363 . S
C244 C245 1.363 1_655 S
C244 C249 1.379 . S
C244 N251 1.358 . S
C245 C244 1.363 1_455 S
C245 C248 1.363 . S
N246 C248 1.356 . S
N246 H258 0.984 . S
N246 H259 0.985 . S
N247 C249 1.356 . S
N247 H252 0.984 . S
N247 H253 0.985 . S
C248 C242 1.379 . S
C248 C245 1.363 . S
C248 N246 1.356 . S
C249 C243 1.363 . S
C249 C244 1.379 . S
C249 N247 1.356 . S
N250 C242 1.358 . S
N250 H256 0.992 . S
N250 H257 0.976 1_455 S
N251 C244 1.358 . S
N251 H254 0.976 1_655 S
N251 H255 0.992 . S
H252 N247 0.984 . S
H253 N247 0.985 . S
H254 N251 0.976 1_455 S
H255 N251 0.992 . S
H256 N250 0.992 . S
H257 N250 0.976 1_655 S
H258 N246 0.984 . S
H259 N246 0.985 . S
C260 C261 1.363 . S
C260 C266 1.379 . S
C260 N268 1.356 . S
C261 C260 1.363 . S
C261 C267 1.363 . S
C262 C263 1.363 . S
C262 C267 1.379 . S
C262 N269 1.356 . S
C263 C262 1.363 . S
C263 C266 1.363 . S
N264 C266 1.356 . S
N264 H276 0.984 . S
N264 H277 0.985 . S
N265 C267 1.356 . S
N265 H270 0.984 . S
N265 H271 0.985 . S
C266 C260 1.379 . S
C266 C263 1.363 . S
C266 N264 1.356 . S
C267 C261 1.363 . S
C267 C262 1.379 . S
C267 N265 1.356 . S
N268 C260 1.356 . S
N268 H274 0.984 . S
N268 H275 0.984 . S
N269 C262 1.356 . S
N269 H272 0.984 . S
N269 H273 0.985 . S
H270 N265 0.984 . S
H271 N265 0.985 . S
H272 N269 0.984 . S
H273 N269 0.985 . S
H274 N268 0.984 . S
H275 N268 0.984 . S
H276 N264 0.984 . S
H277 N264 0.985 . S
C278 C279 1.363 . S
C278 C284 1.379 1_545 S
C278 N286 1.356 . S
C279 C278 1.363 . S
C279 C285 1.363 . S
C280 C281 1.363 . S
C280 C285 1.379 1_565 S
C280 N287 1.356 . S
C281 C280 1.363 . S
C281 C284 1.363 . S
N282 C284 1.356 . S
N282 H294 0.984 . S
N282 H295 0.985 . S
N283 C285 1.356 . S
N283 H288 0.984 . S
N283 H289 0.985 . S
C284 C278 1.379 1_565 S
C284 C281 1.363 . S
C284 N282 1.356 . S
C285 C279 1.363 . S
C285 C280 1.379 1_545 S
C285 N283 1.356 . S
N286 C278 1.356 . S
N286 H292 0.984 . S
N286 H293 0.984 . S
N287 C280 1.356 . S
N287 H290 0.984 . S
N287 H291 0.985 . S
H288 N283 0.984 . S
H289 N283 0.985 . S
H290 N287 0.984 . S
H291 N287 0.985 . S
H292 N286 0.984 . S
H293 N286 0.984 . S
H294 N282 0.984 . S
H295 N282 0.985 . S
C296 C297 1.363 . S
C296 C302 1.379 1_455 S
C296 N304 1.356 . S
C297 C296 1.363 . S
C297 C303 1.363 . S
C298 C299 1.363 . S
C298 C303 1.379 1_655 S
C298 N305 1.356 . S
C299 C298 1.363 . S
C299 C302 1.363 . S
N300 C302 1.356 . S
N300 H312 0.984 . S
N300 H313 0.985 . S
N301 C303 1.356 . S
N301 H306 0.984 . S
N301 H307 0.985 . S
C302 C296 1.379 1_655 S
C302 C299 1.363 . S
C302 N300 1.356 . S
C303 C297 1.363 . S
C303 C298 1.379 1_455 S
C303 N301 1.356 . S
N304 C296 1.356 . S
N304 H310 0.984 . S
N304 H311 0.984 . S
N305 C298 1.356 . S
N305 H308 0.984 . S
N305 H309 0.985 . S
H306 N301 0.984 . S
H307 N301 0.985 . S
H308 N305 0.984 . S
H309 N305 0.985 . S
H310 N304 0.984 . S
H311 N304 0.984 . S
H312 N300 0.984 . S
H313 N300 0.985 . S
C314 C315 1.363 . S
C314 C320 1.379 . S
C314 N322 1.356 . S
C315 C314 1.363 . S
C315 C321 1.363 . S
C316 C317 1.363 . S
C316 C321 1.379 . S
C316 N323 1.356 . S
C317 C316 1.363 . S
C317 C320 1.363 . S
N318 C320 1.356 . S
N318 H330 0.984 . S
N318 H331 0.985 . S
N319 C321 1.356 . S
N319 H324 0.984 . S
N319 H325 0.985 . S
C320 C314 1.379 . S
C320 C317 1.363 . S
C320 N318 1.356 . S
C321 C315 1.363 . S
C321 C316 1.379 . S
C321 N319 1.356 . S
N322 C314 1.356 . S
N322 H328 0.984 . S
N322 H329 0.984 . S
N323 C316 1.356 . S
N323 H326 0.984 . S
N323 H327 0.985 . S
H324 N319 0.984 . S
H325 N319 0.985 . S
H326 N323 0.984 . S
H327 N323 0.985 . S
H328 N322 0.984 . S
H329 N322 0.984 . S
H330 N318 0.984 . S
H331 N318 0.985 . S
C332 C333 1.363 . S
C332 C338 1.379 . S
C332 N340 1.356 . S
C333 C332 1.363 . S
C333 C339 1.363 1_545 S
C334 C335 1.363 . S
C334 C339 1.379 . S
C334 N341 1.356 . S
C335 C334 1.363 . S
C335 C338 1.363 1_565 S
N336 C338 1.358 . S
N336 H348 0.992 . S
N336 H349 0.976 1_545 S
N337 C339 1.358 . S
N337 H342 0.977 1_565 S
N337 H343 0.991 . S
C338 C332 1.379 . S
C338 C335 1.363 1_545 S
C338 N336 1.358 . S
C339 C333 1.363 1_565 S
C339 C334 1.379 . S
C339 N337 1.358 . S
N340 C332 1.356 . S
N340 H346 0.984 . S
N340 H347 0.984 . S
N341 C334 1.356 . S
N341 H344 0.984 . S
N341 H345 0.985 . S
H342 N337 0.977 1_545 S
H343 N337 0.991 . S
H344 N341 0.984 . S
H345 N341 0.985 . S
H346 N340 0.984 . S
H347 N340 0.984 . S
H348 N336 0.992 . S
H349 N336 0.976 1_565 S
C350 C351 1.363 1_655 S
C350 C356 1.379 1_545 S
C350 N358 1.358 . S
C351 C350 1.363 1_455 S
C351 C357 1.363 . S
C352 C353 1.363 1_455 S
C352 C357 1.379 1_565 S
C352 N359 1.358 . S
C353 C352 1.363 1_655 S
C353 C356 1.363 . S
N354 C356 1.356 . S
N354 H366 0.984 . S
N354 H367 0.985 . S
N355 C357 1.356 . S
N355 H360 0.984 . S
N355 H361 0.985 . S
C356 C350 1.379 1_565 S
C356 C353 1.363 . S
C356 N354 1.356 . S
C357 C351 1.363 . S
C357 C352 1.379 1_545 S
C357 N355 1.356 . S
N358 C350 1.358 . S
N358 H364 0.992 . S
N358 H365 0.976 1_655 S
N359 C352 1.358 . S
N359 H362 0.976 1_455 S
N359 H363 0.991 . S
H360 N355 0.984 . S
H361 N355 0.985 . S
H362 N359 0.976 1_655 S
H363 N359 0.991 . S
H364 N358 0.992 . S
H365 N358 0.976 1_455 S
H366 N354 0.984 . S
H367 N354 0.985 . S
C368 C369 1.363 1_545 S
C368 C374 1.379 . S
C368 N376 1.356 . S
C369 C368 1.363 1_565 S
C369 C375 1.363 . S
C370 C371 1.363 1_565 S
C370 C375 1.379 . S
C370 N377 1.356 . S
C371 C370 1.363 1_545 S
C371 C374 1.363 . S
N372 C374 1.356 . S
N372 H384 0.984 . S
N372 H385 0.985 . S
N373 C375 1.356 . S
N373 H378 0.984 . S
N373 H379 0.985 . S
C374 C368 1.379 . S
C374 C371 1.363 . S
C374 N372 1.356 . S
C375 C369 1.363 . S
C375 C370 1.379 . S
C375 N373 1.356 . S
N376 C368 1.356 . S
N376 H382 0.984 . S
N376 H383 0.984 1_545 S
N377 C370 1.356 . S
N377 H380 0.984 1_565 S
N377 H381 0.985 . S
H378 N373 0.984 . S
H379 N373 0.985 . S
H380 N377 0.984 1_545 S
H381 N377 0.985 . S
H382 N376 0.984 . S
H383 N376 0.984 1_565 S
H384 N372 0.984 . S
H385 N372 0.985 . S
C386 C387 1.363 1_455 S
C386 C392 1.379 1_565 S
C386 N394 1.356 . S
C387 C386 1.363 1_655 S
C387 C393 1.363 . S
C388 C389 1.363 1_655 S
C388 C393 1.379 1_545 S
C388 N395 1.356 . S
C389 C388 1.363 1_455 S
C389 C392 1.363 . S
N390 C392 1.356 . S
N390 H402 0.984 . S
N390 H403 0.985 . S
N391 C393 1.356 . S
N391 H396 0.984 . S
N391 H397 0.985 . S
C392 C386 1.379 1_545 S
C392 C389 1.363 . S
C392 N390 1.356 . S
C393 C387 1.363 . S
C393 C388 1.379 1_565 S
C393 N391 1.356 . S
N394 C386 1.356 . S
N394 H400 0.984 . S
N394 H401 0.984 1_455 S
N395 C388 1.356 . S
N395 H398 0.984 1_655 S
N395 H399 0.985 . S
H396 N391 0.984 . S
H397 N391 0.985 . S
H398 N395 0.984 1_455 S
H399 N395 0.985 . S
H400 N394 0.984 . S
H401 N394 0.984 1_655 S
H402 N390 0.984 . S
H403 N390 0.985 . S
C404 C405 1.363 . S
C404 C410 1.379 1_455 S
C404 N412 1.356 . S
C405 C404 1.363 . S
C405 C411 1.363 . S
C406 C407 1.363 . S
C406 C411 1.379 1_655 S
C406 N413 1.356 . S
C407 C406 1.363 . S
C407 C410 1.363 . S
N408 C410 1.356 . S
N408 H420 0.984 . S
N408 H421 0.985 . S
N409 C411 1.356 . S
N409 H414 0.984 . S
N409 H415 0.985 . S
C410 C404 1.379 1_655 S
C410 C407 1.363 . S
C410 N408 1.356 . S
C411 C405 1.363 . S
C411 C406 1.379 1_455 S
C411 N409 1.356 . S
N412 C404 1.356 . S
N412 H418 0.984 . S
N412 H419 0.984 . S
N413 C406 1.356 . S
N413 H416 0.984 . S
N413 H417 0.985 . S
H414 N409 0.984 . S
H415 N409 0.985 . S
H416 N413 0.984 . S
H417 N413 0.985 . S
H418 N412 0.984 . S
H419 N412 0.984 . S
H420 N408 0.984 . S
H421 N408 0.985 . S
C422 C423 1.363 . S
C422 C428 1.379 . S
C422 N430 1.356 . S
C423 C422 1.363 . S
C423 C429 1.363 . S
C424 C425 1.363 . S
C424 C429 1.379 . S
C424 N431 1.356 . S
C425 C424 1.363 . S
C425 C428 1.363 . S
N426 C428 1.356 . S
N426 H438 0.984 . S
N426 H439 0.985 . S
N427 C429 1.356 . S
N427 H432 0.984 . S
N427 H433 0.985 . S
C428 C422 1.379 . S
C428 C425 1.363 . S
C428 N426 1.356 . S
C429 C423 1.363 . S
C429 C424 1.379 . S
C429 N427 1.356 . S
N430 C422 1.356 . S
N430 H436 0.984 . S
N430 H437 0.984 . S
N431 C424 1.356 . S
N431 H434 0.984 . S
N431 H435 0.985 . S
H432 N427 0.984 . S
H433 N427 0.985 . S
H434 N431 0.984 . S
H435 N431 0.985 . S
H436 N430 0.984 . S
H437 N430 0.984 . S
H438 N426 0.984 . S
H439 N426 0.985 . S
C440 C441 1.363 . S
C440 C446 1.379 . S
C440 N448 1.356 . S
C441 C440 1.363 . S
C441 C447 1.363 . S
C442 C443 1.363 . S
C442 C447 1.379 . S
C442 N449 1.356 . S
C443 C442 1.363 . S
C443 C446 1.363 . S
N444 C446 1.356 . S
N444 H456 0.984 . S
N444 H457 0.985 . S
N445 C447 1.356 . S
N445 H450 0.984 . S
N445 H451 0.985 . S
C446 C440 1.379 . S
C446 C443 1.363 . S
C446 N444 1.356 . S
C447 C441 1.363 . S
C447 C442 1.379 . S
C447 N445 1.356 . S
N448 C440 1.356 . S
N448 H454 0.984 . S
N448 H455 0.984 . S
N449 C442 1.356 . S
N449 H452 0.984 . S
N449 H453 0.985 . S
H450 N445 0.984 . S
H451 N445 0.985 . S
H452 N449 0.984 . S
H453 N449 0.985 . S
H454 N448 0.984 . S
H455 N448 0.984 . S
H456 N444 0.984 . S
H457 N444 0.985 . S
C458 C459 1.363 . S
C458 C464 1.379 1_565 S
C458 N466 1.356 . S
C459 C458 1.363 . S
C459 C465 1.363 . S
C460 C461 1.363 . S
C460 C465 1.379 1_545 S
C460 N467 1.356 . S
C461 C460 1.363 . S
C461 C464 1.363 . S
N462 C464 1.356 . S
N462 H474 0.984 . S
N462 H475 0.985 . S
N463 C465 1.356 . S
N463 H468 0.984 . S
N463 H469 0.985 . S
C464 C458 1.379 1_545 S
C464 C461 1.363 . S
C464 N462 1.356 . S
C465 C459 1.363 . S
C465 C460 1.379 1_565 S
C465 N463 1.356 . S
N466 C458 1.356 . S
N466 H472 0.984 . S
N466 H473 0.984 . S
N467 C460 1.356 . S
N467 H470 0.984 . S
N467 H471 0.985 . S
H468 N463 0.984 . S
H469 N463 0.985 . S
H470 N467 0.984 . S
H471 N467 0.985 . S
H472 N466 0.984 . S
H473 N466 0.984 . S
H474 N462 0.984 . S
H475 N462 0.985 . S
C476 C477 1.363 1_545 S
C476 C482 1.379 1_655 S
C476 N484 1.356 . S
C477 C476 1.363 1_565 S
C477 C483 1.363 . S
C478 C479 1.363 1_565 S
C478 C483 1.379 1_455 S
C478 N485 1.356 . S
C479 C478 1.363 1_545 S
C479 C482 1.363 . S
N480 C482 1.356 . S
N480 H492 0.984 . S
N480 H493 0.985 . S
N481 C483 1.356 . S
N481 H486 0.984 . S
N481 H487 0.985 . S
C482 C476 1.379 1_455 S
C482 C479 1.363 . S
C482 N480 1.356 . S
C483 C477 1.363 . S
C483 C478 1.379 1_655 S
C483 N481 1.356 . S
N484 C476 1.356 . S
N484 H490 0.984 . S
N484 H491 0.984 1_545 S
N485 C478 1.356 . S
N485 H488 0.984 1_565 S
N485 H489 0.985 . S
H486 N481 0.984 . S
H487 N481 0.985 . S
H488 N485 0.984 1_545 S
H489 N485 0.985 . S
H490 N484 0.984 . S
H491 N484 0.984 1_565 S
H492 N480 0.984 . S
H493 N480 0.985 . S
C494 C495 1.363 1_655 S
C494 C500 1.379 . S
C494 N502 1.356 . S
C495 C494 1.363 1_455 S
C495 C501 1.363 . S
C496 C497 1.363 1_455 S
C496 C501 1.379 . S
C496 N503 1.356 . S
C497 C496 1.363 1_655 S
C497 C500 1.363 . S
N498 C500 1.356 . S
N498 H510 0.984 . S
N498 H511 0.985 . S
N499 C501 1.356 . S
N499 H504 0.984 . S
N499 H505 0.985 . S
C500 C494 1.379 . S
C500 C497 1.363 . S
C500 N498 1.356 . S
C501 C495 1.363 . S
C501 C496 1.379 . S
C501 N499 1.356 . S
N502 C494 1.356 . S
N502 H508 0.984 . S
N502 H509 0.984 1_655 S
N503 C496 1.356 . S
N503 H506 0.984 1_455 S
N503 H507 0.985 . S
H504 N499 0.984 . S
H505 N499 0.985 . S
H506 N503 0.984 1_655 S
H507 N503 0.985 . S
H508 N502 0.984 . S
H509 N502 0.984 1_455 S
H510 N498 0.984 . S
H511 N498 0.985 . S
C512 C513 1.363 . S
C512 C518 1.379 . S
C512 N520 1.356 . S
C513 C512 1.363 . S
C513 C519 1.363 . S
C514 C515 1.363 . S
C514 C519 1.379 . S
C514 N521 1.356 . S
C515 C514 1.363 . S
C515 C518 1.363 . S
N516 C518 1.356 . S
N516 H528 0.984 . S
N516 H529 0.985 . S
N517 C519 1.356 . S
N517 H522 0.984 . S
N517 H523 0.985 . S
C518 C512 1.379 . S
C518 C515 1.363 . S
C518 N516 1.356 . S
C519 C513 1.363 . S
C519 C514 1.379 . S
C519 N517 1.356 . S
N520 C512 1.356 . S
N520 H526 0.984 . S
N520 H527 0.984 . S
N521 C514 1.356 . S
N521 H524 0.984 . S
N521 H525 0.985 . S
H522 N517 0.984 . S
H523 N517 0.985 . S
H524 N521 0.984 . S
H525 N521 0.985 . S
H526 N520 0.984 . S
H527 N520 0.984 . S
H528 N516 0.984 . S
H529 N516 0.985 . S
C530 C531 1.363 . S
C530 C536 1.379 . S
C530 N538 1.356 . S
C531 C530 1.363 . S
C531 C537 1.363 . S
C532 C533 1.363 . S
C532 C537 1.379 . S
C532 N539 1.356 . S
C533 C532 1.363 . S
C533 C536 1.363 . S
N534 C536 1.356 . S
N534 H546 0.984 . S
N534 H547 0.985 . S
N535 C537 1.356 . S
N535 H540 0.984 . S
N535 H541 0.985 . S
C536 C530 1.379 . S
C536 C533 1.363 . S
C536 N534 1.356 . S
C537 C531 1.363 . S
C537 C532 1.379 . S
C537 N535 1.356 . S
N538 C530 1.356 . S
N538 H544 0.984 . S
N538 H545 0.984 . S
N539 C532 1.356 . S
N539 H542 0.984 . S
N539 H543 0.985 . S
H540 N535 0.984 . S
H541 N535 0.985 . S
H542 N539 0.984 . S
H543 N539 0.985 . S
H544 N538 0.984 . S
H545 N538 0.984 . S
H546 N534 0.984 . S
H547 N534 0.985 . S
C548 C549 1.363 . S
C548 C554 1.379 . S
C548 N556 1.356 . S
C549 C548 1.363 . S
C549 C555 1.363 . S
C550 C551 1.363 . S
C550 C555 1.379 . S
C550 N557 1.356 . S
C551 C550 1.363 . S
C551 C554 1.363 . S
N552 C554 1.356 . S
N552 H564 0.984 . S
N552 H565 0.985 . S
N553 C555 1.356 . S
N553 H558 0.984 . S
N553 H559 0.985 . S
C554 C548 1.379 . S
C554 C551 1.363 . S
C554 N552 1.356 . S
C555 C549 1.363 . S
C555 C550 1.379 . S
C555 N553 1.356 . S
N556 C548 1.356 . S
N556 H562 0.984 . S
N556 H563 0.984 . S
N557 C550 1.356 . S
N557 H560 0.984 . S
N557 H561 0.985 . S
H558 N553 0.984 . S
H559 N553 0.985 . S
H560 N557 0.984 . S
H561 N557 0.985 . S
H562 N556 0.984 . S
H563 N556 0.984 . S
H564 N552 0.984 . S
H565 N552 0.985 . S
C566 C567 1.363 . S
C566 C572 1.379 . S
C566 N574 1.356 . S
C567 C566 1.363 . S
C567 C573 1.363 . S
C568 C569 1.363 . S
C568 C573 1.379 . S
C568 N575 1.356 . S
C569 C568 1.363 . S
C569 C572 1.363 . S
N570 C572 1.356 . S
N570 H582 0.984 . S
N570 H583 0.985 . S
N571 C573 1.356 . S
N571 H576 0.984 . S
N571 H577 0.985 . S
C572 C566 1.379 . S
C572 C569 1.363 . S
C572 N570 1.356 . S
C573 C567 1.363 . S
C573 C568 1.379 . S
C573 N571 1.356 . S
N574 C566 1.356 . S
N574 H580 0.984 . S
N574 H581 0.984 . S
N575 C568 1.356 . S
N575 H578 0.984 . S
N575 H579 0.985 . S
H576 N571 0.984 . S
H577 N571 0.985 . S
H578 N575 0.984 . S
H579 N575 0.985 . S
H580 N574 0.984 . S
H581 N574 0.984 . S
H582 N570 0.984 . S
H583 N570 0.985 . S
C584 C585 1.363 . S
C584 C590 1.379 . S
C584 N592 1.356 . S
C585 C584 1.363 . S
C585 C591 1.363 . S
C586 C587 1.363 . S
C586 C591 1.379 . S
C586 N593 1.356 . S
C587 C586 1.363 . S
C587 C590 1.363 . S
N588 C590 1.356 . S
N588 H600 0.984 . S
N588 H601 0.985 . S
N589 C591 1.356 . S
N589 H594 0.984 . S
N589 H595 0.985 . S
C590 C584 1.379 . S
C590 C587 1.363 . S
C590 N588 1.356 . S
C591 C585 1.363 . S
C591 C586 1.379 . S
C591 N589 1.356 . S
N592 C584 1.356 . S
N592 H598 0.984 . S
N592 H599 0.984 . S
N593 C586 1.356 . S
N593 H596 0.984 . S
N593 H597 0.985 . S
H594 N589 0.984 . S
H595 N589 0.985 . S
H596 N593 0.984 . S
H597 N593 0.985 . S
H598 N592 0.984 . S
H599 N592 0.984 . S
H600 N588 0.984 . S
H601 N588 0.985 . S
C602 C603 1.363 . S
C602 C608 1.379 . S
C602 N610 1.356 . S
C603 C602 1.363 . S
C603 C609 1.363 . S
C604 C605 1.363 . S
C604 C609 1.379 . S
C604 N611 1.356 . S
C605 C604 1.363 . S
C605 C608 1.363 . S
N606 C608 1.356 . S
N606 H618 0.984 . S
N606 H619 0.985 . S
N607 C609 1.356 . S
N607 H612 0.984 . S
N607 H613 0.985 . S
C608 C602 1.379 . S
C608 C605 1.363 . S
C608 N606 1.356 . S
C609 C603 1.363 . S
C609 C604 1.379 . S
C609 N607 1.356 . S
N610 C602 1.356 . S
N610 H616 0.984 . S
N610 H617 0.984 . S
N611 C604 1.356 . S
N611 H614 0.984 . S
N611 H615 0.985 . S
H612 N607 0.984 . S
H613 N607 0.985 . S
H614 N611 0.984 . S
H615 N611 0.985 . S
H616 N610 0.984 . S
H617 N610 0.984 . S
H618 N606 0.984 . S
H619 N606 0.985 . S
C620 C621 1.363 . S
C620 C626 1.379 . S
C620 N628 1.356 . S
C621 C620 1.363 . S
C621 C627 1.363 . S
C622 C623 1.363 . S
C622 C627 1.379 . S
C622 N629 1.356 . S
C623 C622 1.363 . S
C623 C626 1.363 . S
N624 C626 1.356 . S
N624 H636 0.984 . S
N624 H637 0.985 . S
N625 C627 1.356 . S
N625 H630 0.984 . S
N625 H631 0.985 . S
C626 C620 1.379 . S
C626 C623 1.363 . S
C626 N624 1.356 . S
C627 C621 1.363 . S
C627 C622 1.379 . S
C627 N625 1.356 . S
N628 C620 1.356 . S
N628 H634 0.984 . S
N628 H635 0.984 . S
N629 C622 1.356 . S
N629 H632 0.984 . S
N629 H633 0.985 . S
H630 N625 0.984 . S
H631 N625 0.985 . S
H632 N629 0.984 . S
H633 N629 0.985 . S
H634 N628 0.984 . S
H635 N628 0.984 . S
H636 N624 0.984 . S
H637 N624 0.985 . S
C638 C639 1.363 . S
C638 C644 1.379 . S
C638 N646 1.356 . S
C639 C638 1.363 . S
C639 C645 1.363 . S
C640 C641 1.363 . S
C640 C645 1.379 . S
C640 N647 1.356 . S
C641 C640 1.363 . S
C641 C644 1.363 . S
N642 C644 1.356 . S
N642 H654 0.984 . S
N642 H655 0.985 . S
N643 C645 1.356 . S
N643 H648 0.984 . S
N643 H649 0.985 . S
C644 C638 1.379 . S
C644 C641 1.363 . S
C644 N642 1.356 . S
C645 C639 1.363 . S
C645 C640 1.379 . S
C645 N643 1.356 . S
N646 C638 1.356 . S
N646 H652 0.984 . S
N646 H653 0.984 . S
N647 C640 1.356 . S
N647 H650 0.984 . S
N647 H651 0.985 . S
H648 N643 0.984 . S
H649 N643 0.985 . S
H650 N647 0.984 . S
H651 N647 0.985 . S
H652 N646 0.984 . S
H653 N646 0.984 . S
H654 N642 0.984 . S
H655 N642 0.985 . S
C656 C657 1.363 . S
C656 C662 1.379 . S
C656 N664 1.356 . S
C657 C656 1.363 . S
C657 C663 1.363 . S
C658 C659 1.363 . S
C658 C663 1.379 . S
C658 N665 1.356 . S
C659 C658 1.363 . S
C659 C662 1.363 . S
N660 C662 1.356 . S
N660 H672 0.984 . S
N660 H673 0.985 . S
N661 C663 1.356 . S
N661 H666 0.984 . S
N661 H667 0.985 . S
C662 C656 1.379 . S
C662 C659 1.363 . S
C662 N660 1.356 . S
C663 C657 1.363 . S
C663 C658 1.379 . S
C663 N661 1.356 . S
N664 C656 1.356 . S
N664 H670 0.984 . S
N664 H671 0.984 . S
N665 C658 1.356 . S
N665 H668 0.984 . S
N665 H669 0.985 . S
H666 N661 0.984 . S
H667 N661 0.985 . S
H668 N665 0.984 . S
H669 N665 0.985 . S
H670 N664 0.984 . S
H671 N664 0.984 . S
H672 N660 0.984 . S
H673 N660 0.985 . S
C674 C675 1.363 . S
C674 C680 1.379 . S
C674 N682 1.356 . S
C675 C674 1.363 . S
C675 C681 1.363 . S
C676 C677 1.363 . S
C676 C681 1.379 . S
C676 N683 1.356 . S
C677 C676 1.363 . S
C677 C680 1.363 . S
N678 C680 1.356 . S
N678 H690 0.984 . S
N678 H691 0.985 . S
N679 C681 1.356 . S
N679 H684 0.984 . S
N679 H685 0.985 . S
C680 C674 1.379 . S
C680 C677 1.363 . S
C680 N678 1.356 . S
C681 C675 1.363 . S
C681 C676 1.379 . S
C681 N679 1.356 . S
N682 C674 1.356 . S
N682 H688 0.984 . S
N682 H689 0.984 . S
N683 C676 1.356 . S
N683 H686 0.984 . S
N683 H687 0.985 . S
H684 N679 0.984 . S
H685 N679 0.985 . S
H686 N683 0.984 . S
H687 N683 0.985 . S
H688 N682 0.984 . S
H689 N682 0.984 . S
H690 N678 0.984 . S
H691 N678 0.985 . S
C692 C693 1.363 . S
C692 C698 1.379 . S
C692 N700 1.356 . S
C693 C692 1.363 . S
C693 C699 1.363 . S
C694 C695 1.363 . S
C694 C699 1.379 . S
C694 N701 1.356 . S
C695 C694 1.363 . S
C695 C698 1.363 . S
N696 C698 1.356 . S
N696 H708 0.984 . S
N696 H709 0.985 . S
N697 C699 1.356 . S
N697 H702 0.984 . S
N697 H703 0.985 . S
C698 C692 1.379 . S
C698 C695 1.363 . S
C698 N696 1.356 . S
C699 C693 1.363 . S
C699 C694 1.379 . S
C699 N697 1.356 . S
N700 C692 1.356 . S
N700 H706 0.984 . S
N700 H707 0.984 . S
N701 C694 1.356 . S
N701 H704 0.984 . S
N701 H705 0.985 . S
H702 N697 0.984 . S
H703 N697 0.985 . S
H704 N701 0.984 . S
H705 N701 0.985 . S
H706 N700 0.984 . S
H707 N700 0.984 . S
H708 N696 0.984 . S
H709 N696 0.985 . S
C710 C711 1.363 . S
C710 C716 1.379 1_556 S
C710 N718 1.356 . S
C711 C710 1.363 . S
C711 C717 1.363 . S
C712 C713 1.363 . S
C712 C717 1.379 1_554 S
C712 N719 1.356 . S
C713 C712 1.363 . S
C713 C716 1.363 . S
N714 C716 1.356 . S
N714 H726 0.984 . S
N714 H727 0.985 . S
N715 C717 1.356 . S
N715 H720 0.984 . S
N715 H721 0.985 . S
C716 C710 1.379 1_554 S
C716 C713 1.363 . S
C716 N714 1.356 . S
C717 C711 1.363 . S
C717 C712 1.379 1_556 S
C717 N715 1.356 . S
N718 C710 1.356 . S
N718 H724 0.984 . S
N718 H725 0.984 . S
N719 C712 1.356 . S
N719 H722 0.984 . S
N719 H723 0.985 . S
H720 N715 0.984 . S
H721 N715 0.985 . S
H722 N719 0.984 . S
H723 N719 0.985 . S
H724 N718 0.984 . S
H725 N718 0.984 . S
H726 N714 0.984 . S
H727 N714 0.985 . S
C728 C729 1.363 . S
C728 C734 1.379 1_554 S
C728 N736 1.356 . S
C729 C728 1.363 . S
C729 C735 1.363 . S
C730 C731 1.363 . S
C730 C735 1.379 1_556 S
C730 N737 1.356 . S
C731 C730 1.363 . S
C731 C734 1.363 . S
N732 C734 1.356 . S
N732 H744 0.984 . S
N732 H745 0.985 . S
N733 C735 1.356 . S
N733 H738 0.984 . S
N733 H739 0.985 . S
C734 C728 1.379 1_556 S
C734 C731 1.363 . S
C734 N732 1.356 . S
C735 C729 1.363 . S
C735 C730 1.379 1_554 S
C735 N733 1.356 . S
N736 C728 1.356 . S
N736 H742 0.984 . S
N736 H743 0.984 . S
N737 C730 1.356 . S
N737 H740 0.984 . S
N737 H741 0.985 . S
H738 N733 0.984 . S
H739 N733 0.985 . S
H740 N737 0.984 . S
H741 N737 0.985 . S
H742 N736 0.984 . S
H743 N736 0.984 . S
H744 N732 0.984 . S
H745 N732 0.985 . S
C746 C747 1.363 . S
C746 C752 1.379 . S
C746 N754 1.356 . S
C747 C746 1.363 . S
C747 C753 1.363 . S
C748 C749 1.363 . S
C748 C753 1.379 . S
C748 N755 1.356 . S
C749 C748 1.363 . S
C749 C752 1.363 . S
N750 C752 1.356 . S
N750 H762 0.984 . S
N750 H763 0.985 . S
N751 C753 1.356 . S
N751 H756 0.984 . S
N751 H757 0.985 . S
C752 C746 1.379 . S
C752 C749 1.363 . S
C752 N750 1.356 . S
C753 C747 1.363 . S
C753 C748 1.379 . S
C753 N751 1.356 . S
N754 C746 1.356 . S
N754 H760 0.984 . S
N754 H761 0.984 . S
N755 C748 1.356 . S
N755 H758 0.984 . S
N755 H759 0.985 . S
H756 N751 0.984 . S
H757 N751 0.985 . S
H758 N755 0.984 . S
H759 N755 0.985 . S
H760 N754 0.984 . S
H761 N754 0.984 . S
H762 N750 0.984 . S
H763 N750 0.985 . S
C764 C765 1.363 . S
C764 C770 1.379 . S
C764 N772 1.356 . S
C765 C764 1.363 . S
C765 C771 1.363 . S
C766 C767 1.363 . S
C766 C771 1.379 . S
C766 N773 1.356 . S
C767 C766 1.363 . S
C767 C770 1.363 . S
N768 C770 1.356 . S
N768 H780 0.984 . S
N768 H781 0.985 . S
N769 C771 1.356 . S
N769 H774 0.984 . S
N769 H775 0.985 . S
C770 C764 1.379 . S
C770 C767 1.363 . S
C770 N768 1.356 . S
C771 C765 1.363 . S
C771 C766 1.379 . S
C771 N769 1.356 . S
N772 C764 1.356 . S
N772 H778 0.984 . S
N772 H779 0.984 . S
N773 C766 1.356 . S
N773 H776 0.984 . S
N773 H777 0.985 . S
H774 N769 0.984 . S
H775 N769 0.985 . S
H776 N773 0.984 . S
H777 N773 0.985 . S
H778 N772 0.984 . S
H779 N772 0.984 . S
H780 N768 0.984 . S
H781 N768 0.985 . S
C782 C783 1.363 . S
C782 C788 1.379 . S
C782 N790 1.356 . S
C783 C782 1.363 . S
C783 C789 1.363 . S
C784 C785 1.363 . S
C784 C789 1.379 . S
C784 N791 1.356 . S
C785 C784 1.363 . S
C785 C788 1.363 . S
N786 C788 1.356 . S
N786 H798 0.984 . S
N786 H799 0.985 . S
N787 C789 1.356 . S
N787 H792 0.984 . S
N787 H793 0.985 . S
C788 C782 1.379 . S
C788 C785 1.363 . S
C788 N786 1.356 . S
C789 C783 1.363 . S
C789 C784 1.379 . S
C789 N787 1.356 . S
N790 C782 1.356 . S
N790 H796 0.984 . S
N790 H797 0.984 . S
N791 C784 1.356 . S
N791 H794 0.984 . S
N791 H795 0.985 . S
H792 N787 0.984 . S
H793 N787 0.985 . S
H794 N791 0.984 . S
H795 N791 0.985 . S
H796 N790 0.984 . S
H797 N790 0.984 . S
H798 N786 0.984 . S
H799 N786 0.985 . S
C225 C148 1.579 . S
C227 C8 1.579 . S
C243 C22 1.579 . S
C245 C162 1.579 . S
C261 C120 1.579 . S
C263 C36 1.579 . S
C279 C134 1.579 . S
C281 C50 1.580 . S
C297 C64 1.579 . S
C299 C204 1.579 . S
C315 C218 1.579 . S
C317 C78 1.579 . S
C333 C92 1.579 . S
C335 C176 1.579 . S
C351 C190 1.579 . S
C353 C106 1.579 . S
C369 C149 1.493 . S
C371 C9 1.493 . S
C387 C23 1.493 . S
C389 C163 1.493 . S
C405 C37 1.493 . S
C407 C121 1.493 . S
C423 C51 1.493 . S
C425 C135 1.493 . S
C441 C65 1.493 . S
C443 C205 1.493 . S
C459 C79 1.493 . S
C461 C219 1.493 . S
C477 C177 1.493 . S
C479 C93 1.493 . S
C495 C191 1.493 . S
C497 C107 1.493 . S
C513 C7 1.375 . S
C515 C91 1.375 . S
C531 C21 1.375 . S
C533 C105 1.375 . S
C549 C35 1.375 . S
C551 C63 1.375 . S
C567 C49 1.375 . S
C569 C77 1.375 . S
C585 C119 1.375 . S
C587 C203 1.375 . S
C603 C217 1.375 . S
C605 C133 1.375 . S
C621 C147 1.375 . S
C623 C175 1.375 . S
C639 C189 1.375 . S
C641 C161 1.375 . S
C657 C3 1.350 . S
C659 C213 1.350 . S
C675 C171 1.350 . S
C677 C17 1.350 . S
C693 C185 1.350 . S
C695 C31 1.350 . S
C711 C199 1.350 . S
C713 C45 1.350 . S
C729 C129 1.350 . S
C731 C59 1.350 . S
C747 C143 1.350 . S
C749 C73 1.350 . S
C765 C87 1.350 . S
C767 C157 1.350 . S
C783 C101 1.350 . S
C785 C115 1.350 . S
