# Generated by pormake.
# Topology uma, (4)-cn, num edge types: 1
# Building blocks:
#     Node 0, Type 0, BuildingBlock: QUQFOY_clean_sbu_3, # of connection points: 4
#     Node 1, Type 0, BuildingBlock: QUQFOY_clean_sbu_3, # of connection points: 4
#     Node 2, Type 0, BuildingBlock: QUQFOY_clean_sbu_3, # of connection points: 4
#     Node 3, Type 0, BuildingBlock: QUQFOY_clean_sbu_3, # of connection points: 4
#     Node 4, Type 0, BuildingBlock: QUQFOY_clean_sbu_3, # of connection points: 4
#     Node 5, Type 0, BuildingBlock: QUQFOY_clean_sbu_3, # of connection points: 4
#     Node 6, Type 0, BuildingBlock: QUQFOY_clean_sbu_3, # of connection points: 4
#     Node 7, Type 0, BuildingBlock: QUQFOY_clean_sbu_3, # of connection points: 4
#     Node 8, Type 0, BuildingBlock: QUQFOY_clean_sbu_3, # of connection points: 4
#     Node 9, Type 0, BuildingBlock: QUQFOY_clean_sbu_3, # of connection points: 4
#     Node 10, Type 0, BuildingBlock: QUQFOY_clean_sbu_3, # of connection points: 4
#     Node 11, Type 0, BuildingBlock: QUQFOY_clean_sbu_3, # of connection points: 4
#     Node 12, Type 0, BuildingBlock: QUQFOY_clean_sbu_3, # of connection points: 4
#     Node 13, Type 0, BuildingBlock: QUQFOY_clean_sbu_3, # of connection points: 4
#     Node 14, Type 0, BuildingBlock: QUQFOY_clean_sbu_3, # of connection points: 4
#     Node 15, Type 0, BuildingBlock: QUQFOY_clean_sbu_3, # of connection points: 4
#     Node 16, Type 0, BuildingBlock: QUQFOY_clean_sbu_3, # of connection points: 4
#     Node 17, Type 0, BuildingBlock: QUQFOY_clean_sbu_3, # of connection points: 4
#     Node 18, Type 0, BuildingBlock: QUQFOY_clean_sbu_3, # of connection points: 4
#     Node 19, Type 0, BuildingBlock: QUQFOY_clean_sbu_3, # of connection points: 4
#     Node 20, Type 0, BuildingBlock: QUQFOY_clean_sbu_3, # of connection points: 4
#     Node 21, Type 0, BuildingBlock: QUQFOY_clean_sbu_3, # of connection points: 4
#     Node 22, Type 0, BuildingBlock: QUQFOY_clean_sbu_3, # of connection points: 4
#     Node 23, Type 0, BuildingBlock: QUQFOY_clean_sbu_3, # of connection points: 4
#     Node 24, Type 0, BuildingBlock: QUQFOY_clean_sbu_3, # of connection points: 4
#     Node 25, Type 0, BuildingBlock: QUQFOY_clean_sbu_3, # of connection points: 4
#     Node 26, Type 0, BuildingBlock: QUQFOY_clean_sbu_3, # of connection points: 4
#     Node 27, Type 0, BuildingBlock: QUQFOY_clean_sbu_3, # of connection points: 4
#     Node 28, Type 0, BuildingBlock: QUQFOY_clean_sbu_3, # of connection points: 4
#     Node 29, Type 0, BuildingBlock: QUQFOY_clean_sbu_3, # of connection points: 4
#     Node 30, Type 0, BuildingBlock: QUQFOY_clean_sbu_3, # of connection points: 4
#     Node 31, Type 0, BuildingBlock: QUQFOY_clean_sbu_3, # of connection points: 4
#     Node 32, Type 0, BuildingBlock: QUQFOY_clean_sbu_3, # of connection points: 4
#     Node 33, Type 0, BuildingBlock: QUQFOY_clean_sbu_3, # of connection points: 4
#     Node 34, Type 0, BuildingBlock: QUQFOY_clean_sbu_3, # of connection points: 4
#     Node 35, Type 0, BuildingBlock: QUQFOY_clean_sbu_3, # of connection points: 4
#     Edge 36, Type (0, 0), None
#     Edge 37, Type (0, 0), None
#     Edge 38, Type (0, 0), None
#     Edge 39, Type (0, 0), None
#     Edge 40, Type (0, 0), None
#     Edge 41, Type (0, 0), None
#     Edge 42, Type (0, 0), None
#     Edge 43, Type (0, 0), None
#     Edge 44, Type (0, 0), None
#     Edge 45, Type (0, 0), None
#     Edge 46, Type (0, 0), None
#     Edge 47, Type (0, 0), None
#     Edge 48, Type (0, 0), None
#     Edge 49, Type (0, 0), None
#     Edge 50, Type (0, 0), None
#     Edge 51, Type (0, 0), None
#     Edge 52, Type (0, 0), None
#     Edge 53, Type (0, 0), None
#     Edge 54, Type (0, 0), None
#     Edge 55, Type (0, 0), None
#     Edge 56, Type (0, 0), None
#     Edge 57, Type (0, 0), None
#     Edge 58, Type (0, 0), None
#     Edge 59, Type (0, 0), None
#     Edge 60, Type (0, 0), None
#     Edge 61, Type (0, 0), None
#     Edge 62, Type (0, 0), None
#     Edge 63, Type (0, 0), None
#     Edge 64, Type (0, 0), None
#     Edge 65, Type (0, 0), None
#     Edge 66, Type (0, 0), None
#     Edge 67, Type (0, 0), None
#     Edge 68, Type (0, 0), None
#     Edge 69, Type (0, 0), None
#     Edge 70, Type (0, 0), None
#     Edge 71, Type (0, 0), None
#     Edge 72, Type (0, 0), None
#     Edge 73, Type (0, 0), None
#     Edge 74, Type (0, 0), None
#     Edge 75, Type (0, 0), None
#     Edge 76, Type (0, 0), None
#     Edge 77, Type (0, 0), None
#     Edge 78, Type (0, 0), None
#     Edge 79, Type (0, 0), None
#     Edge 80, Type (0, 0), None
#     Edge 81, Type (0, 0), None
#     Edge 82, Type (0, 0), None
#     Edge 83, Type (0, 0), None
#     Edge 84, Type (0, 0), None
#     Edge 85, Type (0, 0), None
#     Edge 86, Type (0, 0), None
#     Edge 87, Type (0, 0), None
#     Edge 88, Type (0, 0), None
#     Edge 89, Type (0, 0), None
#     Edge 90, Type (0, 0), None
#     Edge 91, Type (0, 0), None
#     Edge 92, Type (0, 0), None
#     Edge 93, Type (0, 0), None
#     Edge 94, Type (0, 0), None
#     Edge 95, Type (0, 0), None
#     Edge 96, Type (0, 0), None
#     Edge 97, Type (0, 0), None
#     Edge 98, Type (0, 0), None
#     Edge 99, Type (0, 0), None
#     Edge 100, Type (0, 0), None
#     Edge 101, Type (0, 0), None
#     Edge 102, Type (0, 0), None
#     Edge 103, Type (0, 0), None
#     Edge 104, Type (0, 0), None
#     Edge 105, Type (0, 0), None
#     Edge 106, Type (0, 0), None
#     Edge 107, Type (0, 0), None
# Relax obj value: 0.180
# Max RMSD: 0.419
# Mean RMSD: 0.415
data_MOF--net-uma--node1-QUQFOY_clean_sbu_3--edge1-none
_symmetry_space_group_name_H-M    P1
_symmetry_Int_Tables_number       1
_symmetry_cell_setting            triclinic
loop_
_symmetry_equiv_pos_as_xyz
'x, y, z'
_cell_length_a     36.710505
_cell_length_b     36.687303
_cell_length_c     17.333965
_cell_angle_alpha  90.137338
_cell_angle_beta   89.862399
_cell_angle_gamma 120.00438
loop_
_atom_site_label
_atom_site_type_symbol
_atom_site_fract_x
_atom_site_fract_y
_atom_site_fract_z
_atom_type_partial_charge
C0 C 0.08872 0.44644 0.10982 0.0
O1 O 0.07205 0.45996 0.06202 0.0
Cd2 Cd 0.03245 0.40899 0.96116 0.0
O3 O 0.09002 0.41329 0.09513 0.0
Cd4 Cd 0.08147 0.35578 0.01503 0.0
C5 C -0.00565 0.31667 0.02288 0.0
O6 O 0.06735 0.37756 0.88737 0.0
O7 O 0.1105 0.35405 0.89104 0.0
O8 O 0.14601 0.3798 0.0787 0.0
C9 C 0.08638 0.36173 0.85123 0.0
O10 O 0.00682 0.35255 0.05244 0.0
C11 C 0.14499 0.34474 0.0743 0.0
O12 O 0.01179 0.29665 0.04689 0.0
O13 O 0.11183 0.31315 0.04821 0.0
C14 C 0.53405 0.63937 0.10206 0.0
O15 O 0.51985 0.61123 0.04983 0.0
Cd16 Cd 0.5723 0.62361 0.95138 0.0
O17 O 0.56827 0.67335 0.09131 0.0
Cd18 Cd 0.62793 0.72503 0.01991 0.0
C19 C 0.66354 0.67304 0.02107 0.0
O20 O 0.60669 0.69302 0.88988 0.0
O21 O 0.63504 0.7602 0.89878 0.0
O22 O 0.60313 0.76404 0.08714 0.0
C23 C 0.6247 0.72854 0.85625 0.0
O24 O 0.62675 0.65006 0.0472 0.0
C25 C 0.63832 0.79803 0.08578 0.0
O26 O 0.68423 0.70984 0.04855 0.0
O27 O 0.67032 0.79662 0.0615 0.0
C28 C 0.34358 0.8914 0.10161 0.0
O29 O 0.3715 0.90485 0.04907 0.0
Cd30 Cd 0.359 0.94499 0.95136 0.0
O31 O 0.30978 0.89198 0.09112 0.0
Cd32 Cd 0.25841 0.90022 0.01978 0.0
C33 C 0.31039 0.98769 0.02101 0.0
O34 O 0.28982 0.91059 0.88869 0.0
O35 O 0.22276 0.87133 0.89963 0.0
O36 O 0.2194 0.8365 0.08721 0.0
C37 C 0.25396 0.89273 0.85629 0.0
O38 O 0.33327 0.97384 0.04724 0.0
C39 C 0.18544 0.83773 0.08608 0.0
O40 O 0.27366 0.97182 0.04863 0.0
O41 O 0.1869 0.87118 0.06205 0.0
C42 C 0.44611 0.10102 0.85759 0.0
O43 O 0.46073 0.08639 0.90745 0.0
Cd44 Cd 0.40871 0.04299 0.00471 0.0
O45 O 0.41128 0.09925 0.86986 0.0
Cd46 Cd 0.35209 0.08655 0.94932 0.0
C47 C 0.31628 0.00036 0.93986 0.0
O48 O 0.37292 0.07307 0.07961 0.0
O49 O 0.34562 0.11301 0.07281 0.0
O50 O 0.37694 0.15116 0.88547 0.0
C51 C 0.35507 0.09064 0.11412 0.0
O52 O 0.35276 0.01443 0.91186 0.0
C53 C 0.34152 0.1494 0.8847 0.0
O54 O 0.2951 0.01625 0.91437 0.0
O55 O 0.30961 0.11605 0.90951 0.0
C56 C 0.88471 0.34426 0.8599 0.0
O57 O 0.89906 0.37288 0.91125 0.0
Cd58 Cd 0.94062 0.36246 0.00943 0.0
O59 O 0.88543 0.31056 0.87114 0.0
Cd60 Cd 0.89536 0.2615 0.9476 0.0
C61 C 0.98166 0.31115 0.9418 0.0
O62 O 0.90793 0.29495 0.07796 0.0
O63 O 0.86842 0.22776 0.07077 0.0
O64 O 0.83103 0.22243 0.88247 0.0
C65 C 0.89048 0.25962 0.11242 0.0
O66 O 0.96804 0.33425 0.91555 0.0
C67 C 0.83281 0.18875 0.88069 0.0
O68 O 0.96572 0.27448 0.91403 0.0
O69 O 0.86615 0.19008 0.90497 0.0
C70 C 0.64057 0.53703 0.85802 0.0
O71 O 0.61135 0.52263 0.90816 0.0
Cd72 Cd 0.62025 0.57473 0.00552 0.0
O73 O 0.67388 0.57172 0.87007 0.0
Cd74 Cd 0.72095 0.63096 0.94913 0.0
C75 C 0.67064 0.66704 0.94008 0.0
O76 O 0.68632 0.61011 0.07908 0.0
O77 O 0.75352 0.63732 0.0729 0.0
O78 O 0.76085 0.60619 0.88503 0.0
C79 C 0.72154 0.62791 0.11395 0.0
O80 O 0.64822 0.63051 0.9122 0.0
C81 C 0.79452 0.64164 0.88443 0.0
O82 O 0.70782 0.68809 0.9148 0.0
O83 O 0.79304 0.67353 0.90941 0.0
C84 C 0.88692 0.53726 0.8651 0.0
O85 O 0.9004 0.52299 0.91775 0.0
Cd86 Cd 0.94071 0.57568 0.01561 0.0
O87 O 0.88751 0.57172 0.87526 0.0
Cd88 Cd 0.89613 0.63132 0.94808 0.0
C89 C 0.98358 0.66707 0.94688 0.0
O90 O 0.90609 0.61015 0.07895 0.0
O91 O 0.86646 0.63752 0.0681 0.0
O92 O 0.83283 0.60684 0.88 0.0
C93 C 0.88797 0.62796 0.11142 0.0
O94 O 0.96961 0.63032 0.9203 0.0
C95 C 0.83404 0.64204 0.88192 0.0
O96 O 0.96764 0.68796 0.91994 0.0
O97 O 0.86733 0.67397 0.90676 0.0
C98 C 0.44521 0.34696 0.8669 0.0
O99 O 0.45957 0.37495 0.9194 0.0
Cd100 Cd 0.40737 0.36251 0.01865 0.0
O101 O 0.41096 0.31301 0.8776 0.0
Cd102 Cd 0.35135 0.26128 0.94864 0.0
C103 C 0.31595 0.31347 0.94806 0.0
O104 O 0.3726 0.29284 0.07907 0.0
O105 O 0.34378 0.22564 0.06942 0.0
O106 O 0.37632 0.22254 0.88115 0.0
C107 C 0.35438 0.25721 0.11234 0.0
O108 O 0.35295 0.33654 0.92293 0.0
C109 C 0.34113 0.18853 0.88225 0.0
O110 O 0.29537 0.2769 0.91957 0.0
O111 O 0.30906 0.18987 0.90635 0.0
C112 C 0.63576 0.0951 0.86732 0.0
O113 O 0.60782 0.08167 0.91986 0.0
Cd114 Cd 0.62074 0.04224 0.01867 0.0
O115 O 0.66957 0.09459 0.87793 0.0
Cd116 Cd 0.72171 0.08682 0.94738 0.0
C117 C 0.66908 -0.00074 0.94783 0.0
O118 O 0.69073 0.07702 0.07803 0.0
O119 O 0.75792 0.11481 0.06793 0.0
O120 O 0.75972 0.15039 0.87923 0.0
C121 C 0.7264 0.09421 0.11109 0.0
O122 O 0.6462 0.01326 0.92231 0.0
C123 C 0.79371 0.14921 0.87879 0.0
O124 O 0.70565 0.01492 0.91948 0.0
O125 O 0.79263 0.11589 0.90251 0.0
C126 C 0.53344 0.88577 0.1111 0.0
O127 O 0.51891 0.90047 0.06121 0.0
Cd128 Cd 0.57107 0.94391 0.96426 0.0
O129 O 0.56825 0.88747 0.09895 0.0
Cd130 Cd 0.62741 0.90013 0.01924 0.0
C131 C 0.66343 0.98641 0.02886 0.0
O132 O 0.60665 0.91374 0.88897 0.0
O133 O 0.63361 0.87349 0.89579 0.0
O134 O 0.60257 0.83547 0.08294 0.0
C135 C 0.62435 0.896 0.8545 0.0
O136 O 0.627 0.97229 0.05717 0.0
C137 C 0.63798 0.8372 0.08349 0.0
O138 O 0.68462 0.97041 0.05374 0.0
O139 O 0.6699 0.87055 0.05872 0.0
C140 C 0.0962 0.64408 0.10885 0.0
O141 O 0.08183 0.61501 0.05839 0.0
Cd142 Cd 0.03883 0.62394 0.96118 0.0
O143 O 0.09472 0.67734 0.097 0.0
Cd144 Cd 0.08302 0.72482 0.01861 0.0
C145 C -0.0035 0.67387 0.02788 0.0
O146 O 0.06935 0.69032 0.88846 0.0
O147 O 0.10857 0.75764 0.89458 0.0
O148 O 0.14793 0.76448 0.08188 0.0
C149 C 0.08642 0.72554 0.85353 0.0
O150 O 0.01056 0.65135 0.05518 0.0
C151 C 0.14625 0.79821 0.0835 0.0
O152 O 0.01258 0.71099 0.05366 0.0
O153 O 0.11286 0.79688 0.0595 0.0
C154 C 0.33758 0.44937 0.11142 0.0
O155 O 0.36695 0.46372 0.06163 0.0
Cd156 Cd 0.35891 0.41122 0.9661 0.0
O157 O 0.30434 0.41465 0.09921 0.0
Cd158 Cd 0.25952 0.35666 0.01554 0.0
C159 C 0.30808 0.31882 0.02894 0.0
O160 O 0.29525 0.37695 0.88538 0.0
O161 O 0.2285 0.3535 0.89222 0.0
O162 O 0.2182 0.38031 0.07738 0.0
C163 C 0.25985 0.36073 0.85118 0.0
O164 O 0.33054 0.355 0.05815 0.0
C165 C 0.18446 0.345 0.07386 0.0
O166 O 0.27044 0.29826 0.052 0.0
O167 O 0.18642 0.31348 0.04824 0.0
C168 C 0.75127 0.74478 0.44757 0.0
O169 O 0.76989 0.77378 0.39753 0.0
Cd170 Cd 0.75914 0.7581 0.25153 0.0
O171 O 0.73305 0.70678 0.42565 0.0
Cd172 Cd 0.75524 0.71489 0.29748 0.0
C173 C 0.67518 0.739 0.29021 0.0
O174 O 0.74295 0.69465 0.16779 0.0
O175 O 0.72405 0.6427 0.24976 0.0
O176 O 0.83344 0.76319 0.28576 0.0
C177 C 0.72818 0.65541 0.18029 0.0
O178 O 0.69364 0.75986 0.23036 0.0
C179 C 0.84021 0.73852 0.32778 0.0
O180 O 0.69234 0.72212 0.32783 0.0
O181 O 0.80845 0.70734 0.35843 0.0
C182 C 0.2379 0.00398 0.44839 0.0
O183 O 0.20902 -0.00636 0.39819 0.0
Cd184 Cd 0.22499 -0.00123 0.25228 0.0
O185 O 0.27591 0.0239 0.42671 0.0
Cd186 Cd 0.2685 0.03839 0.29842 0.0
C187 C 0.24443 0.93414 0.29064 0.0
O188 O 0.28837 0.0459 0.1685 0.0
O189 O 0.34058 0.07875 0.25008 0.0
O190 O 0.22042 0.0685 0.28708 0.0
C191 C 0.32767 0.07016 0.18069 0.0
O192 O 0.2235 0.9316 0.23091 0.0
C193 C 0.2453 0.10014 0.32866 0.0
O194 O 0.26131 0.96827 0.32832 0.0
O195 O 0.27658 0.09967 0.3589 0.0
C196 C 0.98126 0.23346 0.44459 0.0
O197 O -0.01009 0.21315 0.3951 0.0
Cd198 Cd 0.98382 0.22253 0.24973 0.0
O199 O 0.96179 0.25193 0.42282 0.0
Cd200 Cd 0.94328 0.22699 0.29649 0.0
C201 C 0.04827 0.30705 0.28622 0.0
O202 O 0.93627 0.23913 0.16693 0.0
O203 O 0.90129 0.25638 0.24834 0.0
O204 O 0.91367 0.14884 0.28681 0.0
C205 C 0.91092 0.25297 0.17908 0.0
O206 O 0.05262 0.28687 0.23098 0.0
C207 C 0.88237 0.14212 0.32943 0.0
O208 O 0.01291 0.29131 0.31966 0.0
O209 O 0.8829 0.17397 0.35984 0.0
C210 C 0.09123 0.45675 0.19146 0.0
O211 O 0.11989 0.45661 0.23208 0.0
Cd212 Cd 0.09409 0.42918 0.36886 0.0
O213 O 0.05749 0.44814 0.22587 0.0
Cd214 Cd 0.0796 0.44087 0.35357 0.0
C215 C 0.07756 0.35162 0.30193 0.0
O216 O 0.0139 0.39474 0.40093 0.0
O217 O 0.05247 0.43487 0.49124 0.0
O218 O 0.12794 0.51922 0.37006 0.0
C219 C 0.01612 0.40675 0.46974 0.0
O220 O 0.09647 0.36266 0.3661 0.0
C221 C 0.09744 0.52397 0.34655 0.0
O222 O 0.06892 0.37746 0.27079 0.0
O223 O 0.06362 0.4915 0.32586 0.0
C224 C 0.52558 0.62756 0.1828 0.0
O225 O 0.52386 0.65324 0.23047 0.0
Cd226 Cd 0.54901 0.6615 0.37286 0.0
O227 O 0.53819 0.60338 0.20755 0.0
Cd228 Cd 0.54886 0.62645 0.33639 0.0
C229 C 0.63033 0.7222 0.30498 0.0
O230 O 0.56858 0.6187 0.46187 0.0
O231 O 0.59054 0.59336 0.37088 0.0
O232 O 0.47248 0.60216 0.37283 0.0
C233 C 0.58697 0.59836 0.44245 0.0
O234 O 0.61851 0.72479 0.37231 0.0
C235 C 0.4633 0.56609 0.34553 0.0
O236 O 0.6054 0.69025 0.26583 0.0
O237 O 0.49252 0.56202 0.3153 0.0
C238 C 0.3556 0.89508 0.18222 0.0
O239 O 0.32993 0.86803 0.23021 0.0
Cd240 Cd 0.32207 0.88566 0.37245 0.0
O241 O 0.38001 0.93197 0.20653 0.0
Cd242 Cd 0.35705 0.92043 0.33533 0.0
C243 C 0.26124 0.9061 0.30526 0.0
O244 O 0.36539 0.94854 0.4602 0.0
O245 O 0.39014 -0.0045 0.36884 0.0
O246 O 0.38117 0.86838 0.37294 0.0
C247 C 0.38557 0.98719 0.44046 0.0
O248 O 0.25895 0.89206 0.3727 0.0
C249 C 0.41725 0.89506 0.34557 0.0
O250 O 0.29295 0.91279 0.2656 0.0
O251 O 0.42139 0.92818 0.31465 0.0
C252 C 0.52278 0.88472 0.19243 0.0
O253 O 0.52233 0.85668 0.23636 0.0
Cd254 Cd 0.54534 0.86987 0.37877 0.0
O255 O 0.53148 0.91942 0.22253 0.0
Cd256 Cd 0.53726 0.90684 0.35382 0.0
C257 C 0.62844 0.91094 0.30329 0.0
O258 O 0.56245 0.92743 0.48228 0.0
O259 O 0.57181 0.97664 0.4006 0.0
O260 O 0.45875 0.86114 0.37331 0.0
C261 C 0.57532 0.96637 0.46877 0.0
O262 O 0.61707 0.88336 0.35576 0.0
C263 C 0.45588 0.89316 0.35252 0.0
O264 O 0.60309 0.9233 0.28426 0.0
O265 O 0.4894 0.92694 0.33598 0.0
C266 C 0.09634 0.63407 0.19006 0.0
O267 O 0.12517 0.66054 0.23432 0.0
Cd268 Cd 0.11182 0.67132 0.37606 0.0
O269 O 0.06106 0.60945 0.21982 0.0
Cd270 Cd 0.07527 0.62621 0.35121 0.0
C271 C 0.06963 0.71267 0.30245 0.0
O272 O 0.05464 0.63065 0.48016 0.0
O273 O 0.00645 0.58679 0.40063 0.0
O274 O 0.12603 0.59931 0.36928 0.0
C275 C 0.01628 0.60234 0.46786 0.0
O276 O 0.09878 0.7299 0.3519 0.0
C277 C 0.09624 0.56319 0.34742 0.0
O278 O 0.05639 0.67448 0.28553 0.0
O279 O 0.06124 0.55981 0.32929 0.0
C280 C 0.34718 0.45989 0.19275 0.0
O281 O 0.31976 0.46055 0.23707 0.0
Cd282 Cd 0.31027 0.43761 0.37944 0.0
O283 O 0.3731 0.45108 0.22245 0.0
Cd284 Cd 0.35536 0.44581 0.35411 0.0
C285 C 0.26848 0.35437 0.30426 0.0
O286 O 0.35087 0.42076 0.48261 0.0
O287 O 0.39126 0.41204 0.40085 0.0
O288 O 0.38788 0.52435 0.37347 0.0
C289 C 0.3773 0.40832 0.46904 0.0
O290 O 0.25213 0.36581 0.35654 0.0
C291 C 0.42276 0.52738 0.35196 0.0
O292 O 0.30626 0.37969 0.2853 0.0
O293 O 0.4231 0.49394 0.33485 0.0
C294 C 0.23502 0.23191 0.44348 0.0
O295 O 0.20642 0.20991 0.39481 0.0
Cd296 Cd 0.22454 0.22224 0.25171 0.0
O297 O 0.2729 0.2511 0.42144 0.0
Cd298 Cd 0.27042 0.22536 0.29665 0.0
C299 C 0.25257 0.30974 0.28792 0.0
O300 O 0.28871 0.23799 0.16802 0.0
O301 O 0.34081 0.25222 0.24828 0.0
O302 O 0.22127 0.14761 0.28654 0.0
C303 C 0.3277 0.2504 0.17955 0.0
O304 O 0.22239 0.28807 0.24231 0.0
C305 C 0.24574 0.14052 0.3285 0.0
O306 O 0.27327 0.29364 0.3154 0.0
O307 O 0.27735 0.17211 0.35891 0.0
C308 C 0.75001 0.00019 0.44299 0.0
O309 O 0.77287 -0.00576 0.39514 0.0
Cd310 Cd 0.76063 -0.00071 0.2518 0.0
O311 O 0.73039 0.01826 0.42012 0.0
Cd312 Cd 0.75729 0.04206 0.29618 0.0
C313 C 0.67305 0.93973 0.28704 0.0
O314 O 0.74542 0.04776 0.16727 0.0
O315 O 0.7308 0.0857 0.24715 0.0
O316 O 0.83499 0.07051 0.28733 0.0
C317 C 0.73304 0.07444 0.17847 0.0
O318 O 0.69498 0.93103 0.24229 0.0
C319 C 0.84204 0.10211 0.32951 0.0
O320 O 0.68894 0.97668 0.31408 0.0
O321 O 0.81041 0.10216 0.35975 0.0
C322 C 0.9815 0.74711 0.44182 0.0
O323 O 0.98826 0.77602 0.39386 0.0
Cd324 Cd 0.98267 0.75816 0.25058 0.0
O325 O 0.96268 0.70934 0.41903 0.0
Cd326 Cd 0.93973 0.71269 0.29474 0.0
C327 C 0.04129 0.72904 0.28632 0.0
O328 O 0.93423 0.69407 0.16627 0.0
O329 O 0.89558 0.64241 0.24698 0.0
O330 O 0.91162 0.76226 0.28504 0.0
C331 C 0.90732 0.65518 0.17819 0.0
O332 O 0.05047 0.75984 0.24192 0.0
C333 C 0.88006 0.73797 0.3274 0.0
O334 O 0.00427 0.70838 0.3131 0.0
O335 O 0.87988 0.70631 0.35783 0.0
C336 C 0.45664 0.10198 0.77621 0.0
O337 O 0.45707 0.13 0.73224 0.0
Cd338 Cd 0.43393 0.11671 0.5899 0.0
O339 O 0.44785 0.06725 0.74619 0.0
Cd340 Cd 0.44208 0.07975 0.61489 0.0
C341 C 0.35068 0.07541 0.665 0.0
O342 O 0.417 0.05922 0.48635 0.0
O343 O 0.40767 0.01001 0.56802 0.0
O344 O 0.52063 0.12543 0.59541 0.0
C345 C 0.40415 0.02028 0.49985 0.0
O346 O 0.36214 0.10312 0.61274 0.0
C347 C 0.5235 0.09342 0.6163 0.0
O348 O 0.37601 0.06301 0.68403 0.0
O349 O 0.48998 0.05967 0.63292 0.0
C350 C 0.88661 0.35536 0.77885 0.0
O351 O 0.85936 0.32919 0.73177 0.0
Cd352 Cd 0.87717 0.32283 0.58861 0.0
O353 O 0.92263 0.38064 0.75257 0.0
Cd354 Cd 0.91082 0.36134 0.62169 0.0
C355 C 0.90277 0.26742 0.66168 0.0
O356 O 0.94225 0.36286 0.50028 0.0
O357 O 0.9842 0.40243 0.59127 0.0
O358 O 0.86266 0.39084 0.58718 0.0
C359 C 0.97944 0.38989 0.52195 0.0
O360 O 0.88319 0.25936 0.59825 0.0
C361 C 0.88994 0.42477 0.62087 0.0
O362 O 0.91286 0.30238 0.69315 0.0
O363 O 0.92154 0.42532 0.65102 0.0
C364 C 0.63083 0.52655 0.7767 0.0
O365 O 0.65842 0.52638 0.7321 0.0
Cd366 Cd 0.66768 0.54902 0.5893 0.0
O367 O 0.60464 0.53512 0.74739 0.0
Cd368 Cd 0.62352 0.54179 0.61602 0.0
C369 C 0.71199 0.63215 0.66445 0.0
O370 O 0.62704 0.56639 0.48748 0.0
O371 O 0.589 0.57762 0.57075 0.0
O372 O 0.59075 0.46323 0.5952 0.0
C373 C 0.60178 0.58015 0.5019 0.0
O374 O 0.72666 0.6207 0.60922 0.0
C375 C 0.55588 0.46015 0.61697 0.0
O376 O 0.67473 0.60689 0.68635 0.0
O377 O 0.55563 0.49356 0.63474 0.0
C378 C 0.74228 0.75389 0.5248 0.0
O379 O 0.7713 0.77519 0.57326 0.0
Cd380 Cd 0.7546 0.76371 0.71724 0.0
O381 O 0.70449 0.73519 0.54743 0.0
Cd382 Cd 0.70929 0.76082 0.6727 0.0
C383 C 0.72809 0.67686 0.68052 0.0
O384 O 0.69045 0.74762 0.80115 0.0
O385 O 0.63871 0.73386 0.72051 0.0
O386 O 0.75851 0.83874 0.68319 0.0
C387 C 0.65154 0.73534 0.78932 0.0
O388 O 0.75721 0.6981 0.72832 0.0
C389 C 0.73405 0.84587 0.64126 0.0
O390 O 0.70776 0.6931 0.65196 0.0
O391 O 0.70249 0.81428 0.61086 0.0
C392 C 0.22867 0.98564 0.52538 0.0
O393 O 0.20661 0.99251 0.57364 0.0
Cd394 Cd 0.21855 0.98717 0.71708 0.0
O395 O 0.24767 0.96689 0.54795 0.0
Cd396 Cd 0.22148 0.94441 0.67266 0.0
C397 C 0.30603 0.0467 0.68129 0.0
O398 O 0.23402 0.93879 0.80133 0.0
O399 O 0.24818 0.90085 0.72065 0.0
O400 O 0.14365 0.91572 0.68223 0.0
C401 C 0.24639 0.91216 0.78948 0.0
O402 O 0.28433 0.05533 0.72679 0.0
C403 C 0.13667 0.88403 0.64039 0.0
O404 O 0.28992 0.00982 0.65381 0.0
O405 O 0.16834 0.88398 0.61033 0.0
C406 C -0.0004 0.24249 0.52154 0.0
O407 O 0.98868 0.21358 0.57188 0.0
Cd408 Cd -0.00589 0.22982 0.71732 0.0
O409 O 0.02044 0.28051 0.54289 0.0
Cd410 Cd 0.03486 0.27302 0.67126 0.0
C411 C 0.93066 0.2505 0.67725 0.0
O412 O 0.04039 0.29473 0.79941 0.0
O413 O 0.0771 0.34514 0.71623 0.0
O414 O 0.06437 0.22428 0.68671 0.0
C415 C 0.06607 0.33362 0.78568 0.0
O416 O 0.92625 0.22738 0.73473 0.0
C417 C 0.09605 0.24837 0.64448 0.0
O418 O 0.96574 0.26837 0.64257 0.0
O419 O 0.09584 0.2794 0.61244 0.0
C420 C 0.22537 0.24098 0.52029 0.0
O421 O 0.20781 0.21219 0.57104 0.0
Cd422 Cd 0.21854 0.22883 0.71678 0.0
O423 O 0.24251 0.27905 0.5414 0.0
Cd424 Cd 0.22166 0.27162 0.67051 0.0
C425 C 0.30252 0.24836 0.67732 0.0
O426 O 0.23672 0.29326 0.79923 0.0
O427 O 0.25362 0.34421 0.71586 0.0
O428 O 0.14328 0.22366 0.68623 0.0
C429 C 0.25136 0.33236 0.78555 0.0
O430 O 0.28429 0.22761 0.7374 0.0
C431 C 0.13613 0.24812 0.64438 0.0
O432 O 0.28494 0.26474 0.63939 0.0
O433 O 0.16761 0.279 0.61243 0.0
C434 C 0.74104 0.98197 0.52008 0.0
O435 O 0.77008 0.99255 0.57005 0.0
Cd436 Cd 0.75442 0.98762 0.71614 0.0
O437 O 0.70309 0.96191 0.54206 0.0
Cd438 Cd 0.71109 0.94804 0.67042 0.0
C439 C 0.73505 0.0523 0.67785 0.0
O440 O 0.69108 0.94072 0.80022 0.0
O441 O 0.63898 0.90762 0.71857 0.0
O442 O 0.75929 0.91797 0.68243 0.0
C443 C 0.6518 0.9164 0.78796 0.0
O444 O 0.75599 0.05485 0.73757 0.0
C445 C 0.73445 0.88625 0.64098 0.0
O446 O 0.71822 0.01818 0.64015 0.0
O447 O 0.7032 0.88667 0.6105 0.0
C448 C -6e-05 0.75617 0.51871 0.0
O449 O 0.9892 0.77418 0.56958 0.0
Cd450 Cd -0.00608 0.76239 0.7149 0.0
O451 O 0.02006 0.73821 0.53965 0.0
Cd452 Cd 0.03417 0.75911 0.66867 0.0
C453 C 0.93019 0.678 0.67408 0.0
O454 O 0.04126 0.74677 0.79877 0.0
O455 O 0.07439 0.7274 0.71748 0.0
O456 O 0.06444 0.83738 0.68073 0.0
C457 C 0.06566 0.73184 0.78681 0.0
O458 O 0.92724 0.69606 0.73415 0.0
C459 C 0.09629 0.84407 0.63982 0.0
O460 O 0.96446 0.6957 0.63683 0.0
O461 O 0.09591 0.81226 0.60958 0.0
C462 C 0.89034 0.52835 0.78457 0.0
O463 O 0.86338 0.52687 0.7364 0.0
Cd464 Cd 0.88159 0.55104 0.59358 0.0
O465 O 0.92705 0.54019 0.76013 0.0
Cd466 Cd 0.9156 0.55074 0.6307 0.0
C467 C 0.90243 0.6331 0.65865 0.0
O468 O 0.94455 0.56927 0.50668 0.0
O469 O -0.00893 0.59266 0.59866 0.0
O470 O 0.86507 0.474 0.59062 0.0
C471 C 0.98307 0.58805 0.52693 0.0
O472 O 0.88912 0.62123 0.59083 0.0
C473 C 0.89071 0.465 0.62381 0.0
O474 O 0.90823 0.60792 0.69939 0.0
O475 O 0.92231 0.49437 0.65777 0.0
C476 C 0.45342 0.35897 0.78621 0.0
O477 O 0.45447 0.3332 0.73788 0.0
Cd478 Cd 0.4293 0.32592 0.59575 0.0
O479 O 0.44125 0.38366 0.7624 0.0
Cd480 Cd 0.4297 0.36103 0.63329 0.0
C481 C 0.34744 0.26543 0.66239 0.0
O482 O 0.41043 0.36975 0.50841 0.0
O483 O 0.38786 0.39421 0.59998 0.0
O484 O 0.50598 0.3854 0.59558 0.0
C485 C 0.39184 0.38982 0.52831 0.0
O486 O 0.35936 0.26325 0.59492 0.0
C487 C 0.51531 0.42141 0.62344 0.0
O488 O 0.3725 0.29693 0.70246 0.0
O489 O 0.48623 0.42539 0.65455 0.0
C490 C 0.62381 0.09144 0.78665 0.0
O491 O 0.64954 0.11848 0.73872 0.0
Cd492 Cd 0.6574 0.10093 0.59639 0.0
O493 O 0.59937 0.05457 0.76229 0.0
Cd494 Cd 0.62238 0.06616 0.63346 0.0
C495 C 0.71818 0.08032 0.66329 0.0
O496 O 0.61407 0.03811 0.5085 0.0
O497 O 0.58931 0.99111 0.59979 0.0
O498 O 0.59824 0.11821 0.59592 0.0
C499 C 0.59389 -0.00055 0.52818 0.0
O500 O 0.72048 0.09443 0.59591 0.0
C501 C 0.56214 0.09152 0.62324 0.0
O502 O 0.68649 0.07364 0.70302 0.0
O503 O 0.55801 0.05839 0.65411 0.0
loop_
_geom_bond_atom_site_label_1
_geom_bond_atom_site_label_2
_geom_bond_distance
_geom_bond_site_symmetry_2
_ccdc_geom_bond_type
C0 O1 1.306 . S
C0 O3 1.160 . S
O1 C0 1.306 . S
O1 Cd2 2.228 1_554 S
Cd2 O1 2.228 1_556 S
Cd2 O6 2.273 . S
Cd2 O10 2.277 . S
O3 C0 1.160 . S
O3 Cd4 2.203 . S
Cd4 O3 2.203 . S
Cd4 O6 2.411 1_554 S
Cd4 O7 2.333 1_554 S
Cd4 O8 2.352 . S
Cd4 O12 2.277 . S
Cd4 O13 2.356 . S
C5 O10 1.209 1_554 S
C5 O12 1.226 . S
O6 Cd2 2.273 . S
O6 Cd4 2.411 1_556 S
O6 C9 1.320 . S
O7 Cd4 2.333 1_556 S
O7 C9 1.214 . S
O8 Cd4 2.352 . S
O8 C11 1.262 . S
C9 O6 1.320 . S
C9 O7 1.214 . S
O10 Cd2 2.277 . S
O10 C5 1.209 1_556 S
C11 O8 1.262 . S
C11 O13 1.282 . S
O12 Cd4 2.277 . S
O12 C5 1.226 . S
O13 Cd4 2.356 . S
O13 C11 1.282 . S
C14 O15 1.306 . S
C14 O17 1.160 . S
O15 C14 1.306 . S
O15 Cd16 2.228 1_554 S
Cd16 O15 2.228 1_556 S
Cd16 O20 2.273 . S
Cd16 O24 2.277 . S
O17 C14 1.160 . S
O17 Cd18 2.203 . S
Cd18 O17 2.203 . S
Cd18 O20 2.411 1_554 S
Cd18 O21 2.333 1_554 S
Cd18 O22 2.352 . S
Cd18 O26 2.277 . S
Cd18 O27 2.356 . S
C19 O24 1.209 1_554 S
C19 O26 1.226 . S
O20 Cd16 2.273 . S
O20 Cd18 2.411 1_556 S
O20 C23 1.320 . S
O21 Cd18 2.333 1_556 S
O21 C23 1.214 . S
O22 Cd18 2.352 . S
O22 C25 1.262 . S
C23 O20 1.320 . S
C23 O21 1.214 . S
O24 Cd16 2.277 . S
O24 C19 1.209 1_556 S
C25 O22 1.262 . S
C25 O27 1.282 . S
O26 Cd18 2.277 . S
O26 C19 1.226 . S
O27 Cd18 2.356 . S
O27 C25 1.282 . S
C28 O29 1.306 . S
C28 O31 1.160 . S
O29 C28 1.306 . S
O29 Cd30 2.228 1_554 S
Cd30 O29 2.228 1_556 S
Cd30 O34 2.273 . S
Cd30 O38 2.277 . S
O31 C28 1.160 . S
O31 Cd32 2.203 . S
Cd32 O31 2.203 . S
Cd32 O34 2.411 1_554 S
Cd32 O35 2.333 1_554 S
Cd32 O36 2.352 . S
Cd32 O40 2.277 . S
Cd32 O41 2.356 . S
C33 O38 1.209 1_554 S
C33 O40 1.226 . S
O34 Cd30 2.273 . S
O34 Cd32 2.411 1_556 S
O34 C37 1.320 . S
O35 Cd32 2.333 1_556 S
O35 C37 1.214 . S
O36 Cd32 2.352 . S
O36 C39 1.262 . S
C37 O34 1.320 . S
C37 O35 1.214 . S
O38 Cd30 2.277 . S
O38 C33 1.209 1_556 S
C39 O36 1.262 . S
C39 O41 1.282 . S
O40 Cd32 2.277 . S
O40 C33 1.226 . S
O41 Cd32 2.356 . S
O41 C39 1.282 . S
C42 O43 1.306 . S
C42 O45 1.160 . S
O43 C42 1.306 . S
O43 Cd44 2.228 1_556 S
Cd44 O43 2.228 1_554 S
Cd44 O48 2.273 . S
Cd44 O52 2.277 . S
O45 C42 1.160 . S
O45 Cd46 2.203 . S
Cd46 O45 2.203 . S
Cd46 O48 2.411 1_556 S
Cd46 O49 2.333 1_556 S
Cd46 O50 2.352 . S
Cd46 O54 2.277 . S
Cd46 O55 2.356 . S
C47 O52 1.209 1_556 S
C47 O54 1.226 . S
O48 Cd44 2.273 . S
O48 Cd46 2.411 1_554 S
O48 C51 1.320 . S
O49 Cd46 2.333 1_554 S
O49 C51 1.214 . S
O50 Cd46 2.352 . S
O50 C53 1.262 . S
C51 O48 1.320 . S
C51 O49 1.214 . S
O52 Cd44 2.277 . S
O52 C47 1.209 1_554 S
C53 O50 1.262 . S
C53 O55 1.282 . S
O54 Cd46 2.277 . S
O54 C47 1.226 . S
O55 Cd46 2.356 . S
O55 C53 1.282 . S
C56 O57 1.306 . S
C56 O59 1.160 . S
O57 C56 1.306 . S
O57 Cd58 2.228 1_556 S
Cd58 O57 2.228 1_554 S
Cd58 O62 2.273 . S
Cd58 O66 2.277 . S
O59 C56 1.160 . S
O59 Cd60 2.203 . S
Cd60 O59 2.203 . S
Cd60 O62 2.411 1_556 S
Cd60 O63 2.333 1_556 S
Cd60 O64 2.352 . S
Cd60 O68 2.277 . S
Cd60 O69 2.356 . S
C61 O66 1.209 1_556 S
C61 O68 1.226 . S
O62 Cd58 2.273 . S
O62 Cd60 2.411 1_554 S
O62 C65 1.320 . S
O63 Cd60 2.333 1_554 S
O63 C65 1.214 . S
O64 Cd60 2.352 . S
O64 C67 1.262 . S
C65 O62 1.320 . S
C65 O63 1.214 . S
O66 Cd58 2.277 . S
O66 C61 1.209 1_554 S
C67 O64 1.262 . S
C67 O69 1.282 . S
O68 Cd60 2.277 . S
O68 C61 1.226 . S
O69 Cd60 2.356 . S
O69 C67 1.282 . S
C70 O71 1.306 . S
C70 O73 1.160 . S
O71 C70 1.306 . S
O71 Cd72 2.228 1_556 S
Cd72 O71 2.228 1_554 S
Cd72 O76 2.273 . S
Cd72 O80 2.277 . S
O73 C70 1.160 . S
O73 Cd74 2.203 . S
Cd74 O73 2.203 . S
Cd74 O76 2.411 1_556 S
Cd74 O77 2.333 1_556 S
Cd74 O78 2.352 . S
Cd74 O82 2.277 . S
Cd74 O83 2.356 . S
C75 O80 1.209 1_556 S
C75 O82 1.226 . S
O76 Cd72 2.273 . S
O76 Cd74 2.411 1_554 S
O76 C79 1.320 . S
O77 Cd74 2.333 1_554 S
O77 C79 1.214 . S
O78 Cd74 2.352 . S
O78 C81 1.262 . S
C79 O76 1.320 . S
C79 O77 1.214 . S
O80 Cd72 2.277 . S
O80 C75 1.209 1_554 S
C81 O78 1.262 . S
C81 O83 1.282 . S
O82 Cd74 2.277 . S
O82 C75 1.226 . S
O83 Cd74 2.356 . S
O83 C81 1.282 . S
C84 O85 1.306 . S
C84 O87 1.160 . S
O85 C84 1.306 . S
O85 Cd86 2.228 1_556 S
Cd86 O85 2.228 1_554 S
Cd86 O90 2.273 . S
Cd86 O94 2.277 . S
O87 C84 1.160 . S
O87 Cd88 2.203 . S
Cd88 O87 2.203 . S
Cd88 O90 2.411 1_556 S
Cd88 O91 2.333 1_556 S
Cd88 O92 2.352 . S
Cd88 O96 2.277 . S
Cd88 O97 2.356 . S
C89 O94 1.209 1_556 S
C89 O96 1.226 . S
O90 Cd86 2.273 . S
O90 Cd88 2.411 1_554 S
O90 C93 1.320 . S
O91 Cd88 2.333 1_554 S
O91 C93 1.214 . S
O92 Cd88 2.352 . S
O92 C95 1.262 . S
C93 O90 1.320 . S
C93 O91 1.214 . S
O94 Cd86 2.277 . S
O94 C89 1.209 1_554 S
C95 O92 1.262 . S
C95 O97 1.282 . S
O96 Cd88 2.277 . S
O96 C89 1.226 . S
O97 Cd88 2.356 . S
O97 C95 1.282 . S
C98 O99 1.306 . S
C98 O101 1.160 . S
O99 C98 1.306 . S
O99 Cd100 2.228 1_556 S
Cd100 O99 2.228 1_554 S
Cd100 O104 2.273 . S
Cd100 O108 2.277 . S
O101 C98 1.160 . S
O101 Cd102 2.203 . S
Cd102 O101 2.203 . S
Cd102 O104 2.411 1_556 S
Cd102 O105 2.333 1_556 S
Cd102 O106 2.352 . S
Cd102 O110 2.277 . S
Cd102 O111 2.356 . S
C103 O108 1.209 1_556 S
C103 O110 1.226 . S
O104 Cd100 2.273 . S
O104 Cd102 2.411 1_554 S
O104 C107 1.320 . S
O105 Cd102 2.333 1_554 S
O105 C107 1.214 . S
O106 Cd102 2.352 . S
O106 C109 1.262 . S
C107 O104 1.320 . S
C107 O105 1.214 . S
O108 Cd100 2.277 . S
O108 C103 1.209 1_554 S
C109 O106 1.262 . S
C109 O111 1.282 . S
O110 Cd102 2.277 . S
O110 C103 1.226 . S
O111 Cd102 2.356 . S
O111 C109 1.282 . S
C112 O113 1.306 . S
C112 O115 1.160 . S
O113 C112 1.306 . S
O113 Cd114 2.228 1_556 S
Cd114 O113 2.228 1_554 S
Cd114 O118 2.273 . S
Cd114 O122 2.277 . S
O115 C112 1.160 . S
O115 Cd116 2.203 . S
Cd116 O115 2.203 . S
Cd116 O118 2.411 1_556 S
Cd116 O119 2.333 1_556 S
Cd116 O120 2.352 . S
Cd116 O124 2.277 . S
Cd116 O125 2.356 . S
C117 O122 1.209 1_556 S
C117 O124 1.226 . S
O118 Cd114 2.273 . S
O118 Cd116 2.411 1_554 S
O118 C121 1.320 . S
O119 Cd116 2.333 1_554 S
O119 C121 1.214 . S
O120 Cd116 2.352 . S
O120 C123 1.262 . S
C121 O118 1.320 . S
C121 O119 1.214 . S
O122 Cd114 2.277 . S
O122 C117 1.209 1_554 S
C123 O120 1.262 . S
C123 O125 1.282 . S
O124 Cd116 2.277 . S
O124 C117 1.226 . S
O125 Cd116 2.356 . S
O125 C123 1.282 . S
C126 O127 1.306 . S
C126 O129 1.160 . S
O127 C126 1.306 . S
O127 Cd128 2.228 1_554 S
Cd128 O127 2.228 1_556 S
Cd128 O132 2.273 . S
Cd128 O136 2.277 . S
O129 C126 1.160 . S
O129 Cd130 2.203 . S
Cd130 O129 2.203 . S
Cd130 O132 2.411 1_554 S
Cd130 O133 2.333 1_554 S
Cd130 O134 2.352 . S
Cd130 O138 2.277 . S
Cd130 O139 2.356 . S
C131 O136 1.209 1_554 S
C131 O138 1.226 . S
O132 Cd128 2.273 . S
O132 Cd130 2.411 1_556 S
O132 C135 1.320 . S
O133 Cd130 2.333 1_556 S
O133 C135 1.214 . S
O134 Cd130 2.352 . S
O134 C137 1.262 . S
C135 O132 1.320 . S
C135 O133 1.214 . S
O136 Cd128 2.277 . S
O136 C131 1.209 1_556 S
C137 O134 1.262 . S
C137 O139 1.282 . S
O138 Cd130 2.277 . S
O138 C131 1.226 . S
O139 Cd130 2.356 . S
O139 C137 1.282 . S
C140 O141 1.306 . S
C140 O143 1.160 . S
O141 C140 1.306 . S
O141 Cd142 2.228 1_554 S
Cd142 O141 2.228 1_556 S
Cd142 O146 2.273 . S
Cd142 O150 2.277 . S
O143 C140 1.160 . S
O143 Cd144 2.203 . S
Cd144 O143 2.203 . S
Cd144 O146 2.411 1_554 S
Cd144 O147 2.333 1_554 S
Cd144 O148 2.352 . S
Cd144 O152 2.277 . S
Cd144 O153 2.356 . S
C145 O150 1.209 1_554 S
C145 O152 1.226 . S
O146 Cd142 2.273 . S
O146 Cd144 2.411 1_556 S
O146 C149 1.320 . S
O147 Cd144 2.333 1_556 S
O147 C149 1.214 . S
O148 Cd144 2.352 . S
O148 C151 1.262 . S
C149 O146 1.320 . S
C149 O147 1.214 . S
O150 Cd142 2.277 . S
O150 C145 1.209 1_556 S
C151 O148 1.262 . S
C151 O153 1.282 . S
O152 Cd144 2.277 . S
O152 C145 1.226 . S
O153 Cd144 2.356 . S
O153 C151 1.282 . S
C154 O155 1.306 . S
C154 O157 1.160 . S
O155 C154 1.306 . S
O155 Cd156 2.228 1_554 S
Cd156 O155 2.228 1_556 S
Cd156 O160 2.273 . S
Cd156 O164 2.277 . S
O157 C154 1.160 . S
O157 Cd158 2.203 . S
Cd158 O157 2.203 . S
Cd158 O160 2.411 1_554 S
Cd158 O161 2.333 1_554 S
Cd158 O162 2.352 . S
Cd158 O166 2.277 . S
Cd158 O167 2.356 . S
C159 O164 1.209 1_554 S
C159 O166 1.226 . S
O160 Cd156 2.273 . S
O160 Cd158 2.411 1_556 S
O160 C163 1.320 . S
O161 Cd158 2.333 1_556 S
O161 C163 1.214 . S
O162 Cd158 2.352 . S
O162 C165 1.262 . S
C163 O160 1.320 . S
C163 O161 1.214 . S
O164 Cd156 2.277 . S
O164 C159 1.209 1_556 S
C165 O162 1.262 . S
C165 O167 1.282 . S
O166 Cd158 2.277 . S
O166 C159 1.226 . S
O167 Cd158 2.356 . S
O167 C165 1.282 . S
C168 O169 1.306 . S
C168 O171 1.160 . S
O169 C168 1.306 . S
O169 Cd170 2.228 . S
Cd170 O169 2.228 . S
Cd170 O174 2.273 . S
Cd170 O178 2.277 . S
O171 C168 1.160 . S
O171 Cd172 2.203 . S
Cd172 O171 2.203 . S
Cd172 O174 2.411 . S
Cd172 O175 2.333 . S
Cd172 O176 2.352 . S
Cd172 O180 2.277 . S
Cd172 O181 2.356 . S
C173 O178 1.209 . S
C173 O180 1.226 . S
O174 Cd170 2.273 . S
O174 Cd172 2.411 . S
O174 C177 1.320 . S
O175 Cd172 2.333 . S
O175 C177 1.214 . S
O176 Cd172 2.352 . S
O176 C179 1.258 . S
C177 O174 1.320 . S
C177 O175 1.214 . S
O178 Cd170 2.277 . S
O178 C173 1.209 . S
C179 O176 1.258 . S
C179 O181 1.282 . S
O180 Cd172 2.277 . S
O180 C173 1.226 . S
O181 Cd172 2.356 . S
O181 C179 1.282 . S
C182 O183 1.306 . S
C182 O185 1.160 1_565 S
O183 C182 1.306 . S
O183 Cd184 2.228 . S
Cd184 O183 2.228 . S
Cd184 O188 2.273 1_565 S
Cd184 O192 2.277 . S
O185 C182 1.160 1_545 S
O185 Cd186 2.203 . S
Cd186 O185 2.203 . S
Cd186 O188 2.411 . S
Cd186 O189 2.333 . S
Cd186 O190 2.352 . S
Cd186 O194 2.277 . S
Cd186 O195 2.356 . S
C187 O192 1.209 1_545 S
C187 O194 1.226 . S
O188 Cd184 2.273 1_545 S
O188 Cd186 2.411 . S
O188 C191 1.320 . S
O189 Cd186 2.333 . S
O189 C191 1.214 . S
O190 Cd186 2.352 . S
O190 C193 1.258 . S
C191 O188 1.320 . S
C191 O189 1.214 . S
O192 Cd184 2.277 . S
O192 C187 1.209 1_565 S
C193 O190 1.258 . S
C193 O195 1.282 . S
O194 Cd186 2.277 . S
O194 C187 1.226 . S
O195 Cd186 2.356 . S
O195 C193 1.282 . S
C196 O197 1.306 . S
C196 O199 1.160 1_455 S
O197 C196 1.306 . S
O197 Cd198 2.228 . S
Cd198 O197 2.228 . S
Cd198 O202 2.273 1_455 S
Cd198 O206 2.277 . S
O199 C196 1.160 1_655 S
O199 Cd200 2.203 . S
Cd200 O199 2.203 . S
Cd200 O202 2.411 . S
Cd200 O203 2.333 . S
Cd200 O204 2.352 . S
Cd200 O208 2.277 . S
Cd200 O209 2.356 . S
C201 O206 1.209 1_655 S
C201 O208 1.226 . S
O202 Cd198 2.273 1_655 S
O202 Cd200 2.411 . S
O202 C205 1.320 . S
O203 Cd200 2.333 . S
O203 C205 1.214 . S
O204 Cd200 2.352 . S
O204 C207 1.258 . S
C205 O202 1.320 . S
C205 O203 1.214 . S
O206 Cd198 2.277 . S
O206 C201 1.209 1_455 S
C207 O204 1.258 . S
C207 O209 1.282 . S
O208 Cd200 2.277 . S
O208 C201 1.226 . S
O209 Cd200 2.356 . S
O209 C207 1.282 . S
C210 O211 1.306 . S
C210 O213 1.160 . S
O211 C210 1.306 . S
O211 Cd212 2.228 . S
Cd212 O211 2.228 . S
Cd212 O216 2.273 . S
Cd212 O220 2.277 . S
O213 C210 1.160 . S
O213 Cd214 2.203 . S
Cd214 O213 2.203 . S
Cd214 O216 2.411 . S
Cd214 O217 2.333 . S
Cd214 O218 2.352 . S
Cd214 O222 2.277 . S
Cd214 O223 2.356 . S
C215 O220 1.209 . S
C215 O222 1.226 . S
O216 Cd212 2.273 . S
O216 Cd214 2.411 . S
O216 C219 1.320 . S
O217 Cd214 2.333 . S
O217 C219 1.214 . S
O218 Cd214 2.352 . S
O218 C221 1.258 . S
C219 O216 1.320 . S
C219 O217 1.214 . S
O220 Cd212 2.277 . S
O220 C215 1.209 . S
C221 O218 1.258 . S
C221 O223 1.282 . S
O222 Cd214 2.277 . S
O222 C215 1.226 . S
O223 Cd214 2.356 . S
O223 C221 1.282 . S
C224 O225 1.306 . S
C224 O227 1.160 . S
O225 C224 1.306 . S
O225 Cd226 2.228 . S
Cd226 O225 2.228 . S
Cd226 O230 2.273 . S
Cd226 O234 2.277 . S
O227 C224 1.160 . S
O227 Cd228 2.203 . S
Cd228 O227 2.203 . S
Cd228 O230 2.411 . S
Cd228 O231 2.333 . S
Cd228 O232 2.352 . S
Cd228 O236 2.277 . S
Cd228 O237 2.356 . S
C229 O234 1.209 . S
C229 O236 1.226 . S
O230 Cd226 2.273 . S
O230 Cd228 2.411 . S
O230 C233 1.320 . S
O231 Cd228 2.333 . S
O231 C233 1.214 . S
O232 Cd228 2.352 . S
O232 C235 1.258 . S
C233 O230 1.320 . S
C233 O231 1.214 . S
O234 Cd226 2.277 . S
O234 C229 1.209 . S
C235 O232 1.258 . S
C235 O237 1.282 . S
O236 Cd228 2.277 . S
O236 C229 1.226 . S
O237 Cd228 2.356 . S
O237 C235 1.282 . S
C238 O239 1.306 . S
C238 O241 1.160 . S
O239 C238 1.306 . S
O239 Cd240 2.228 . S
Cd240 O239 2.228 . S
Cd240 O244 2.273 . S
Cd240 O248 2.277 . S
O241 C238 1.160 . S
O241 Cd242 2.203 . S
Cd242 O241 2.203 . S
Cd242 O244 2.411 . S
Cd242 O245 2.333 . S
Cd242 O246 2.352 . S
Cd242 O250 2.277 . S
Cd242 O251 2.356 . S
C243 O248 1.209 . S
C243 O250 1.226 . S
O244 Cd240 2.273 . S
O244 Cd242 2.411 . S
O244 C247 1.320 . S
O245 Cd242 2.333 . S
O245 C247 1.214 . S
O246 Cd242 2.352 . S
O246 C249 1.258 . S
C247 O244 1.320 . S
C247 O245 1.214 . S
O248 Cd240 2.277 . S
O248 C243 1.209 . S
C249 O246 1.258 . S
C249 O251 1.282 . S
O250 Cd242 2.277 . S
O250 C243 1.226 . S
O251 Cd242 2.356 . S
O251 C249 1.282 . S
C252 O253 1.306 . S
C252 O255 1.160 . S
O253 C252 1.306 . S
O253 Cd254 2.228 . S
Cd254 O253 2.228 . S
Cd254 O258 2.273 . S
Cd254 O262 2.277 . S
O255 C252 1.160 . S
O255 Cd256 2.203 . S
Cd256 O255 2.203 . S
Cd256 O258 2.411 . S
Cd256 O259 2.333 . S
Cd256 O260 2.352 . S
Cd256 O264 2.277 . S
Cd256 O265 2.356 . S
C257 O262 1.209 . S
C257 O264 1.226 . S
O258 Cd254 2.273 . S
O258 Cd256 2.411 . S
O258 C261 1.320 . S
O259 Cd256 2.333 . S
O259 C261 1.214 . S
O260 Cd256 2.352 . S
O260 C263 1.258 . S
C261 O258 1.320 . S
C261 O259 1.214 . S
O262 Cd254 2.277 . S
O262 C257 1.209 . S
C263 O260 1.258 . S
C263 O265 1.282 . S
O264 Cd256 2.277 . S
O264 C257 1.226 . S
O265 Cd256 2.356 . S
O265 C263 1.282 . S
C266 O267 1.306 . S
C266 O269 1.160 . S
O267 C266 1.306 . S
O267 Cd268 2.228 . S
Cd268 O267 2.228 . S
Cd268 O272 2.273 . S
Cd268 O276 2.277 . S
O269 C266 1.160 . S
O269 Cd270 2.203 . S
Cd270 O269 2.203 . S
Cd270 O272 2.411 . S
Cd270 O273 2.333 . S
Cd270 O274 2.352 . S
Cd270 O278 2.277 . S
Cd270 O279 2.356 . S
C271 O276 1.209 . S
C271 O278 1.226 . S
O272 Cd268 2.273 . S
O272 Cd270 2.411 . S
O272 C275 1.320 . S
O273 Cd270 2.333 . S
O273 C275 1.214 . S
O274 Cd270 2.352 . S
O274 C277 1.258 . S
C275 O272 1.320 . S
C275 O273 1.214 . S
O276 Cd268 2.277 . S
O276 C271 1.209 . S
C277 O274 1.258 . S
C277 O279 1.282 . S
O278 Cd270 2.277 . S
O278 C271 1.226 . S
O279 Cd270 2.356 . S
O279 C277 1.282 . S
C280 O281 1.306 . S
C280 O283 1.160 . S
O281 C280 1.306 . S
O281 Cd282 2.228 . S
Cd282 O281 2.228 . S
Cd282 O286 2.273 . S
Cd282 O290 2.277 . S
O283 C280 1.160 . S
O283 Cd284 2.203 . S
Cd284 O283 2.203 . S
Cd284 O286 2.411 . S
Cd284 O287 2.333 . S
Cd284 O288 2.352 . S
Cd284 O292 2.277 . S
Cd284 O293 2.356 . S
C285 O290 1.209 . S
C285 O292 1.226 . S
O286 Cd282 2.273 . S
O286 Cd284 2.411 . S
O286 C289 1.320 . S
O287 Cd284 2.333 . S
O287 C289 1.214 . S
O288 Cd284 2.352 . S
O288 C291 1.258 . S
C289 O286 1.320 . S
C289 O287 1.214 . S
O290 Cd282 2.277 . S
O290 C285 1.209 . S
C291 O288 1.258 . S
C291 O293 1.282 . S
O292 Cd284 2.277 . S
O292 C285 1.226 . S
O293 Cd284 2.356 . S
O293 C291 1.282 . S
C294 O295 1.306 . S
C294 O297 1.160 . S
O295 C294 1.306 . S
O295 Cd296 2.228 . S
Cd296 O295 2.228 . S
Cd296 O300 2.273 . S
Cd296 O304 2.277 . S
O297 C294 1.160 . S
O297 Cd298 2.203 . S
Cd298 O297 2.203 . S
Cd298 O300 2.411 . S
Cd298 O301 2.333 . S
Cd298 O302 2.352 . S
Cd298 O306 2.277 . S
Cd298 O307 2.356 . S
C299 O304 1.209 . S
C299 O306 1.226 . S
O300 Cd296 2.273 . S
O300 Cd298 2.411 . S
O300 C303 1.320 . S
O301 Cd298 2.333 . S
O301 C303 1.214 . S
O302 Cd298 2.352 . S
O302 C305 1.258 . S
C303 O300 1.320 . S
C303 O301 1.214 . S
O304 Cd296 2.277 . S
O304 C299 1.209 . S
C305 O302 1.258 . S
C305 O307 1.282 . S
O306 Cd298 2.277 . S
O306 C299 1.226 . S
O307 Cd298 2.356 . S
O307 C305 1.282 . S
C308 O309 1.306 . S
C308 O311 1.160 1_565 S
O309 C308 1.306 . S
O309 Cd310 2.228 . S
Cd310 O309 2.228 . S
Cd310 O314 2.273 1_565 S
Cd310 O318 2.277 . S
O311 C308 1.160 1_545 S
O311 Cd312 2.203 . S
Cd312 O311 2.203 . S
Cd312 O314 2.411 . S
Cd312 O315 2.333 . S
Cd312 O316 2.352 . S
Cd312 O320 2.277 . S
Cd312 O321 2.356 . S
C313 O318 1.209 1_545 S
C313 O320 1.226 . S
O314 Cd310 2.273 1_545 S
O314 Cd312 2.411 . S
O314 C317 1.320 . S
O315 Cd312 2.333 . S
O315 C317 1.214 . S
O316 Cd312 2.352 . S
O316 C319 1.258 . S
C317 O314 1.320 . S
C317 O315 1.214 . S
O318 Cd310 2.277 . S
O318 C313 1.209 1_565 S
C319 O316 1.258 . S
C319 O321 1.282 . S
O320 Cd312 2.277 . S
O320 C313 1.226 . S
O321 Cd312 2.356 . S
O321 C319 1.282 . S
C322 O323 1.306 . S
C322 O325 1.160 1_455 S
O323 C322 1.306 . S
O323 Cd324 2.228 . S
Cd324 O323 2.228 . S
Cd324 O328 2.273 1_455 S
Cd324 O332 2.277 . S
O325 C322 1.160 1_655 S
O325 Cd326 2.203 . S
Cd326 O325 2.203 . S
Cd326 O328 2.411 . S
Cd326 O329 2.333 . S
Cd326 O330 2.352 . S
Cd326 O334 2.277 . S
Cd326 O335 2.356 . S
C327 O332 1.209 1_655 S
C327 O334 1.226 . S
O328 Cd324 2.273 1_655 S
O328 Cd326 2.411 . S
O328 C331 1.320 . S
O329 Cd326 2.333 . S
O329 C331 1.214 . S
O330 Cd326 2.352 . S
O330 C333 1.258 . S
C331 O328 1.320 . S
C331 O329 1.214 . S
O332 Cd324 2.277 . S
O332 C327 1.209 1_455 S
C333 O330 1.258 . S
C333 O335 1.282 . S
O334 Cd326 2.277 . S
O334 C327 1.226 . S
O335 Cd326 2.356 . S
O335 C333 1.282 . S
C336 O337 1.306 . S
C336 O339 1.160 . S
O337 C336 1.306 . S
O337 Cd338 2.228 . S
Cd338 O337 2.228 . S
Cd338 O342 2.273 . S
Cd338 O346 2.277 . S
O339 C336 1.160 . S
O339 Cd340 2.203 . S
Cd340 O339 2.203 . S
Cd340 O342 2.411 . S
Cd340 O343 2.333 . S
Cd340 O344 2.352 . S
Cd340 O348 2.277 . S
Cd340 O349 2.356 . S
C341 O346 1.209 . S
C341 O348 1.226 . S
O342 Cd338 2.273 . S
O342 Cd340 2.411 . S
O342 C345 1.320 . S
O343 Cd340 2.333 . S
O343 C345 1.214 . S
O344 Cd340 2.352 . S
O344 C347 1.258 . S
C345 O342 1.320 . S
C345 O343 1.214 . S
O346 Cd338 2.277 . S
O346 C341 1.209 . S
C347 O344 1.258 . S
C347 O349 1.282 . S
O348 Cd340 2.277 . S
O348 C341 1.226 . S
O349 Cd340 2.356 . S
O349 C347 1.282 . S
C350 O351 1.306 . S
C350 O353 1.160 . S
O351 C350 1.306 . S
O351 Cd352 2.228 . S
Cd352 O351 2.228 . S
Cd352 O356 2.273 . S
Cd352 O360 2.277 . S
O353 C350 1.160 . S
O353 Cd354 2.203 . S
Cd354 O353 2.203 . S
Cd354 O356 2.411 . S
Cd354 O357 2.333 . S
Cd354 O358 2.352 . S
Cd354 O362 2.277 . S
Cd354 O363 2.356 . S
C355 O360 1.209 . S
C355 O362 1.226 . S
O356 Cd352 2.273 . S
O356 Cd354 2.411 . S
O356 C359 1.320 . S
O357 Cd354 2.333 . S
O357 C359 1.214 . S
O358 Cd354 2.352 . S
O358 C361 1.258 . S
C359 O356 1.320 . S
C359 O357 1.214 . S
O360 Cd352 2.277 . S
O360 C355 1.209 . S
C361 O358 1.258 . S
C361 O363 1.282 . S
O362 Cd354 2.277 . S
O362 C355 1.226 . S
O363 Cd354 2.356 . S
O363 C361 1.282 . S
C364 O365 1.306 . S
C364 O367 1.160 . S
O365 C364 1.306 . S
O365 Cd366 2.228 . S
Cd366 O365 2.228 . S
Cd366 O370 2.273 . S
Cd366 O374 2.277 . S
O367 C364 1.160 . S
O367 Cd368 2.203 . S
Cd368 O367 2.203 . S
Cd368 O370 2.411 . S
Cd368 O371 2.333 . S
Cd368 O372 2.352 . S
Cd368 O376 2.277 . S
Cd368 O377 2.356 . S
C369 O374 1.209 . S
C369 O376 1.226 . S
O370 Cd366 2.273 . S
O370 Cd368 2.411 . S
O370 C373 1.320 . S
O371 Cd368 2.333 . S
O371 C373 1.214 . S
O372 Cd368 2.352 . S
O372 C375 1.258 . S
C373 O370 1.320 . S
C373 O371 1.214 . S
O374 Cd366 2.277 . S
O374 C369 1.209 . S
C375 O372 1.258 . S
C375 O377 1.282 . S
O376 Cd368 2.277 . S
O376 C369 1.226 . S
O377 Cd368 2.356 . S
O377 C375 1.282 . S
C378 O379 1.306 . S
C378 O381 1.160 . S
O379 C378 1.306 . S
O379 Cd380 2.228 . S
Cd380 O379 2.228 . S
Cd380 O384 2.273 . S
Cd380 O388 2.277 . S
O381 C378 1.160 . S
O381 Cd382 2.203 . S
Cd382 O381 2.203 . S
Cd382 O384 2.411 . S
Cd382 O385 2.333 . S
Cd382 O386 2.352 . S
Cd382 O390 2.277 . S
Cd382 O391 2.356 . S
C383 O388 1.209 . S
C383 O390 1.226 . S
O384 Cd380 2.273 . S
O384 Cd382 2.411 . S
O384 C387 1.320 . S
O385 Cd382 2.333 . S
O385 C387 1.214 . S
O386 Cd382 2.352 . S
O386 C389 1.258 . S
C387 O384 1.320 . S
C387 O385 1.214 . S
O388 Cd380 2.277 . S
O388 C383 1.209 . S
C389 O386 1.258 . S
C389 O391 1.282 . S
O390 Cd382 2.277 . S
O390 C383 1.226 . S
O391 Cd382 2.356 . S
O391 C389 1.282 . S
C392 O393 1.306 . S
C392 O395 1.160 1_545 S
O393 C392 1.306 . S
O393 Cd394 2.228 . S
Cd394 O393 2.228 . S
Cd394 O398 2.273 1_545 S
Cd394 O402 2.277 . S
O395 C392 1.160 1_565 S
O395 Cd396 2.203 . S
Cd396 O395 2.203 . S
Cd396 O398 2.411 . S
Cd396 O399 2.333 . S
Cd396 O400 2.352 . S
Cd396 O404 2.277 . S
Cd396 O405 2.356 . S
C397 O402 1.209 1_565 S
C397 O404 1.226 . S
O398 Cd394 2.273 1_565 S
O398 Cd396 2.411 . S
O398 C401 1.320 . S
O399 Cd396 2.333 . S
O399 C401 1.214 . S
O400 Cd396 2.352 . S
O400 C403 1.258 . S
C401 O398 1.320 . S
C401 O399 1.214 . S
O402 Cd394 2.277 . S
O402 C397 1.209 1_545 S
C403 O400 1.258 . S
C403 O405 1.282 . S
O404 Cd396 2.277 . S
O404 C397 1.226 . S
O405 Cd396 2.356 . S
O405 C403 1.282 . S
C406 O407 1.306 . S
C406 O409 1.160 1_655 S
O407 C406 1.306 . S
O407 Cd408 2.228 . S
Cd408 O407 2.228 . S
Cd408 O412 2.273 1_655 S
Cd408 O416 2.277 . S
O409 C406 1.160 1_455 S
O409 Cd410 2.203 . S
Cd410 O409 2.203 . S
Cd410 O412 2.411 . S
Cd410 O413 2.333 . S
Cd410 O414 2.352 . S
Cd410 O418 2.277 . S
Cd410 O419 2.356 . S
C411 O416 1.209 1_455 S
C411 O418 1.226 . S
O412 Cd408 2.273 1_455 S
O412 Cd410 2.411 . S
O412 C415 1.320 . S
O413 Cd410 2.333 . S
O413 C415 1.214 . S
O414 Cd410 2.352 . S
O414 C417 1.258 . S
C415 O412 1.320 . S
C415 O413 1.214 . S
O416 Cd408 2.277 . S
O416 C411 1.209 1_655 S
C417 O414 1.258 . S
C417 O419 1.282 . S
O418 Cd410 2.277 . S
O418 C411 1.226 . S
O419 Cd410 2.356 . S
O419 C417 1.282 . S
C420 O421 1.306 . S
C420 O423 1.160 . S
O421 C420 1.306 . S
O421 Cd422 2.228 . S
Cd422 O421 2.228 . S
Cd422 O426 2.273 . S
Cd422 O430 2.277 . S
O423 C420 1.160 . S
O423 Cd424 2.203 . S
Cd424 O423 2.203 . S
Cd424 O426 2.411 . S
Cd424 O427 2.333 . S
Cd424 O428 2.352 . S
Cd424 O432 2.277 . S
Cd424 O433 2.356 . S
C425 O430 1.209 . S
C425 O432 1.226 . S
O426 Cd422 2.273 . S
O426 Cd424 2.411 . S
O426 C429 1.320 . S
O427 Cd424 2.333 . S
O427 C429 1.214 . S
O428 Cd424 2.352 . S
O428 C431 1.258 . S
C429 O426 1.320 . S
C429 O427 1.214 . S
O430 Cd422 2.277 . S
O430 C425 1.209 . S
C431 O428 1.258 . S
C431 O433 1.282 . S
O432 Cd424 2.277 . S
O432 C425 1.226 . S
O433 Cd424 2.356 . S
O433 C431 1.282 . S
C434 O435 1.306 . S
C434 O437 1.160 1_545 S
O435 C434 1.306 . S
O435 Cd436 2.228 . S
Cd436 O435 2.228 . S
Cd436 O440 2.273 1_545 S
Cd436 O444 2.277 . S
O437 C434 1.160 1_565 S
O437 Cd438 2.203 . S
Cd438 O437 2.203 . S
Cd438 O440 2.411 . S
Cd438 O441 2.333 . S
Cd438 O442 2.352 . S
Cd438 O446 2.277 . S
Cd438 O447 2.356 . S
C439 O444 1.209 1_565 S
C439 O446 1.226 . S
O440 Cd436 2.273 1_565 S
O440 Cd438 2.411 . S
O440 C443 1.320 . S
O441 Cd438 2.333 . S
O441 C443 1.214 . S
O442 Cd438 2.352 . S
O442 C445 1.258 . S
C443 O440 1.320 . S
C443 O441 1.214 . S
O444 Cd436 2.277 . S
O444 C439 1.209 1_545 S
C445 O442 1.258 . S
C445 O447 1.282 . S
O446 Cd438 2.277 . S
O446 C439 1.226 . S
O447 Cd438 2.356 . S
O447 C445 1.282 . S
C448 O449 1.306 . S
C448 O451 1.160 1_655 S
O449 C448 1.306 . S
O449 Cd450 2.228 . S
Cd450 O449 2.228 . S
Cd450 O454 2.273 1_655 S
Cd450 O458 2.277 . S
O451 C448 1.160 1_455 S
O451 Cd452 2.203 . S
Cd452 O451 2.203 . S
Cd452 O454 2.411 . S
Cd452 O455 2.333 . S
Cd452 O456 2.352 . S
Cd452 O460 2.277 . S
Cd452 O461 2.356 . S
C453 O458 1.209 1_455 S
C453 O460 1.226 . S
O454 Cd450 2.273 1_455 S
O454 Cd452 2.411 . S
O454 C457 1.320 . S
O455 Cd452 2.333 . S
O455 C457 1.214 . S
O456 Cd452 2.352 . S
O456 C459 1.258 . S
C457 O454 1.320 . S
C457 O455 1.214 . S
O458 Cd450 2.277 . S
O458 C453 1.209 1_655 S
C459 O456 1.258 . S
C459 O461 1.282 . S
O460 Cd452 2.277 . S
O460 C453 1.226 . S
O461 Cd452 2.356 . S
O461 C459 1.282 . S
C462 O463 1.306 . S
C462 O465 1.160 . S
O463 C462 1.306 . S
O463 Cd464 2.228 . S
Cd464 O463 2.228 . S
Cd464 O468 2.273 . S
Cd464 O472 2.277 . S
O465 C462 1.160 . S
O465 Cd466 2.203 . S
Cd466 O465 2.203 . S
Cd466 O468 2.411 . S
Cd466 O469 2.333 . S
Cd466 O470 2.352 . S
Cd466 O474 2.277 . S
Cd466 O475 2.356 . S
C467 O472 1.209 . S
C467 O474 1.226 . S
O468 Cd464 2.273 . S
O468 Cd466 2.411 . S
O468 C471 1.320 . S
O469 Cd466 2.333 . S
O469 C471 1.214 . S
O470 Cd466 2.352 . S
O470 C473 1.258 . S
C471 O468 1.320 . S
C471 O469 1.214 . S
O472 Cd464 2.277 . S
O472 C467 1.209 . S
C473 O470 1.258 . S
C473 O475 1.282 . S
O474 Cd466 2.277 . S
O474 C467 1.226 . S
O475 Cd466 2.356 . S
O475 C473 1.282 . S
C476 O477 1.306 . S
C476 O479 1.160 . S
O477 C476 1.306 . S
O477 Cd478 2.228 . S
Cd478 O477 2.228 . S
Cd478 O482 2.273 . S
Cd478 O486 2.277 . S
O479 C476 1.160 . S
O479 Cd480 2.203 . S
Cd480 O479 2.203 . S
Cd480 O482 2.411 . S
Cd480 O483 2.333 . S
Cd480 O484 2.352 . S
Cd480 O488 2.277 . S
Cd480 O489 2.356 . S
C481 O486 1.209 . S
C481 O488 1.226 . S
O482 Cd478 2.273 . S
O482 Cd480 2.411 . S
O482 C485 1.320 . S
O483 Cd480 2.333 . S
O483 C485 1.214 . S
O484 Cd480 2.352 . S
O484 C487 1.258 . S
C485 O482 1.320 . S
C485 O483 1.214 . S
O486 Cd478 2.277 . S
O486 C481 1.209 . S
C487 O484 1.258 . S
C487 O489 1.282 . S
O488 Cd480 2.277 . S
O488 C481 1.226 . S
O489 Cd480 2.356 . S
O489 C487 1.282 . S
C490 O491 1.306 . S
C490 O493 1.160 . S
O491 C490 1.306 . S
O491 Cd492 2.228 . S
Cd492 O491 2.228 . S
Cd492 O496 2.273 . S
Cd492 O500 2.277 . S
O493 C490 1.160 . S
O493 Cd494 2.203 . S
Cd494 O493 2.203 . S
Cd494 O496 2.411 . S
Cd494 O497 2.333 . S
Cd494 O498 2.352 . S
Cd494 O502 2.277 . S
Cd494 O503 2.356 . S
C495 O500 1.209 . S
C495 O502 1.226 . S
O496 Cd492 2.273 . S
O496 Cd494 2.411 . S
O496 C499 1.320 . S
O497 Cd494 2.333 . S
O497 C499 1.214 . S
O498 Cd494 2.352 . S
O498 C501 1.258 . S
C499 O496 1.320 . S
C499 O497 1.214 . S
O500 Cd492 2.277 . S
O500 C495 1.209 . S
C501 O498 1.258 . S
C501 O503 1.282 . S
O502 Cd494 2.277 . S
O502 C495 1.226 . S
O503 Cd494 2.356 . S
O503 C501 1.282 . S
C61 C5 1.285 1_656 S
C75 C19 1.285 1_556 S
C47 C33 1.285 1_546 S
C145 C89 1.285 1_454 S
C103 C159 1.285 1_556 S
C131 C117 1.285 1_564 S
C173 C229 0.961 . S
C243 C187 0.962 1_565 S
C201 C215 0.962 1_655 S
C257 C313 0.962 1_565 S
C327 C271 0.962 1_655 S
C285 C299 0.961 . S
C397 C341 0.962 1_565 S
C355 C411 0.962 1_655 S
C383 C369 0.961 . S
C481 C425 0.961 . S
C439 C495 0.962 1_565 S
C453 C467 0.962 1_455 S
C165 C11 1.441 . S
C25 C137 1.441 . S
C151 C39 1.441 . S
C109 C53 1.441 . S
C67 C123 1.441 . S
C95 C81 1.441 . S
C179 C333 1.463 . S
C305 C193 1.463 . S
C319 C207 1.463 . S
C221 C277 1.440 . S
C235 C291 1.440 . S
C249 C263 1.440 . S
C501 C347 1.440 . S
C361 C473 1.440 . S
C375 C487 1.440 . S
C445 C389 1.463 . S
C459 C403 1.463 . S
C431 C417 1.463 . S
C210 C0 3.149 . S
C224 C14 3.149 . S
C28 C238 3.149 . S
C42 C336 3.149 . S
C56 C350 3.149 . S
C70 C364 3.149 . S
C84 C462 3.149 . S
C98 C476 3.149 . S
C112 C490 3.149 . S
C126 C252 3.149 . S
C266 C140 3.149 . S
C280 C154 3.149 . S
C378 C168 3.335 . S
C182 C392 3.335 1_565 S
C406 C196 3.335 1_655 S
C294 C420 3.335 . S
C434 C308 3.335 1_545 S
C448 C322 3.335 1_655 S
C9 C415 3.999 . S
C23 C387 3.999 . S
C37 C401 3.999 . S
C51 C191 3.999 . S
C205 C65 3.999 . S
C177 C79 3.999 . S
C331 C93 3.999 . S
C303 C107 3.999 . S
C317 C121 3.999 . S
C443 C135 3.999 . S
C457 C149 3.999 . S
C429 C163 3.999 . S
C219 C359 3.950 1_455 S
C373 C233 3.950 . S
C345 C247 3.950 1_545 S
C261 C499 3.950 1_565 S
C471 C275 3.950 1_655 S
C289 C485 3.950 . S
