# Generated by pormake.
# Topology sma, (6)-cn, num edge types: 1
# Building blocks:
#     Node 0, Type 0, BuildingBlock: PAMTUU_clean_sbu_0, # of connection points: 6
#     Node 1, Type 0, BuildingBlock: PAMTUU_clean_sbu_0, # of connection points: 6
#     Node 2, Type 0, BuildingBlock: PAMTUU_clean_sbu_0, # of connection points: 6
#     Edge 3, Type (0, 0), BuildingBlock: MIFKUJ_clean_linker_0, # of connection points: 2
#     Edge 4, Type (0, 0), BuildingBlock: MIFKUJ_clean_linker_0, # of connection points: 2
#     Edge 5, Type (0, 0), BuildingBlock: MIFKUJ_clean_linker_0, # of connection points: 2
#     Edge 6, Type (0, 0), BuildingBlock: MIFKUJ_clean_linker_0, # of connection points: 2
#     Edge 7, Type (0, 0), BuildingBlock: MIFKUJ_clean_linker_0, # of connection points: 2
#     Edge 8, Type (0, 0), BuildingBlock: MIFKUJ_clean_linker_0, # of connection points: 2
#     Edge 9, Type (0, 0), BuildingBlock: MIFKUJ_clean_linker_0, # of connection points: 2
#     Edge 10, Type (0, 0), BuildingBlock: MIFKUJ_clean_linker_0, # of connection points: 2
#     Edge 11, Type (0, 0), BuildingBlock: MIFKUJ_clean_linker_0, # of connection points: 2
# Relax obj value: 0.081
# Max RMSD: 0.187
# Mean RMSD: 0.182
data_MOF--net-sma--node1-PAMTUU_clean_sbu_0--edge1-MIFKUJ_clean_linker_0
_symmetry_space_group_name_H-M    P1
_symmetry_Int_Tables_number       1
_symmetry_cell_setting            triclinic
loop_
_symmetry_equiv_pos_as_xyz
'x, y, z'
_cell_length_a     48.236878
_cell_length_b     48.303415
_cell_length_c     17.693236
_cell_angle_alpha  97.852748
_cell_angle_beta   90.109202
_cell_angle_gamma 120.06333
loop_
_atom_site_label
_atom_site_type_symbol
_atom_site_fract_x
_atom_site_fract_y
_atom_site_fract_z
_atom_type_partial_charge
Tb0 Tb 0.04324 0.53833 0.14844 0.0
Tb1 Tb 0.0871 0.50354 0.18056 0.0
C2 C 0.06446 0.50519 0.02038 0.0
C3 C 0.97579 0.55256 0.08753 0.0
C4 C 0.91643 0.54485 0.03383 0.0
C5 C 0.94152 0.55231 -0.0146 0.0
C6 C 0.97087 0.55627 0.01204 0.0
C7 C 0.95034 0.54408 0.13519 0.0
C8 C 0.92104 0.54021 0.10862 0.0
C9 C 1.0084 0.56162 0.11879 0.0
O10 O 1.0126 0.49554 0.20057 0.0
O11 O 1.03693 0.46544 0.16779 0.0
O12 O 0.0743 0.52023 0.28666 0.0
O13 O 0.0716 0.56351 0.2557 0.0
O14 O 0.0981 0.46695 0.14591 0.0
O15 O 0.12077 0.50099 0.25019 0.0
O16 O 0.12271 0.5537 0.1773 0.0
O17 O 0.09292 0.57491 0.13332 0.0
O18 O 1.0391 0.50431 0.04934 0.0
O19 O 0.08924 0.51128 0.06429 0.0
C20 C 1.01236 0.4679 0.19178 0.0
O21 O 1.01106 0.55371 0.18499 0.0
O22 O 1.0276 0.55821 0.07138 0.0
C23 C 0.07887 0.54958 0.30422 0.0
C24 C 0.15238 0.48414 0.17806 0.0
C25 C 0.21255 0.49479 0.13074 0.0
C26 C 0.18904 0.46424 0.14701 0.0
C27 C 0.15931 0.45903 0.17055 0.0
C28 C 0.17559 0.51459 0.16159 0.0
C29 C 0.2054 0.51992 0.13857 0.0
C30 C 0.12072 0.47814 0.20127 0.0
C31 C 0.12058 0.57736 0.15379 0.0
H32 H 0.939 0.55645 0.92781 0.0
H33 H 0.99011 0.56335 -0.0258 0.0
H34 H 0.95332 0.54136 0.19391 0.0
H35 H 0.90212 0.53403 0.14719 0.0
H36 H 0.19335 0.44413 0.14043 0.0
H37 H 0.14161 0.43527 0.18235 0.0
H38 H 0.17066 0.53427 0.16655 0.0
H39 H 0.22293 0.54387 0.12766 0.0
Tb40 Tb 0.54909 1.01478 0.49673 0.0
Tb41 Tb 0.63024 0.06048 0.52236 0.0
C42 C 0.59345 1.02213 0.36837 0.0
C43 C 0.46305 0.94609 0.43893 0.0
C44 C 0.40851 0.88526 0.38011 0.0
C45 C 0.42982 0.90494 0.33055 0.0
C46 C 0.45672 0.93501 0.35956 0.0
C47 C 0.44225 0.9261 0.48851 0.0
C48 C 0.41541 0.89602 0.45955 0.0
C49 C 0.48878 0.97959 0.47015 0.0
O50 O 0.56484 0.98745 0.55454 0.0
O51 O 0.61819 1.01094 0.52828 0.0
O52 O 0.61047 0.05719 0.6318 0.0
O53 O 0.56046 0.04924 0.5997 0.0
O54 O 0.67466 0.06879 0.48472 0.0
O55 O 0.67245 0.09909 0.58346 0.0
O56 O 0.61515 0.09531 0.51265 0.0
O57 O 0.56119 0.06231 0.46998 0.0
O58 O 0.57013 1.00078 0.40249 0.0
O59 O 0.61386 0.05102 0.40448 0.0
C60 C 0.59197 0.98717 0.55019 0.0
O61 O 0.50415 0.9842 0.53577 0.0
O62 O 0.50794 0.99718 0.42227 0.0
C63 C 0.58609 0.06139 0.6472 0.0
C64 C 0.71466 0.12493 0.50397 0.0
C65 C 0.76109 0.18171 0.44974 0.0
C66 C 0.7574 0.18154 0.52854 0.0
C67 C 0.73457 0.15344 0.55531 0.0
C68 C 0.71814 0.12511 0.42504 0.0
C69 C 0.74117 0.15315 0.39831 0.0
C70 C 0.6908 0.0954 0.53391 0.0
C71 C 0.58727 0.09112 0.48864 0.0
H72 H 0.42513 0.89765 0.26908 0.0
H73 H 0.47198 0.94993 0.31952 0.0
H74 H 0.44627 0.93407 0.54985 0.0
H75 H 0.39988 0.88132 0.49955 0.0
H76 H 0.77259 0.20301 0.56971 0.0
H77 H 0.73253 0.15395 0.6164 0.0
H78 H 0.70312 0.10362 0.38377 0.0
H79 H 0.74317 0.15258 0.33722 0.0
Tb80 Tb 0.55431 0.50442 0.81904 0.0
Tb81 Tb 0.58839 0.58494 0.85978 0.0
C82 C 0.54729 0.54572 0.70945 0.0
C83 C 0.53695 0.4183 0.75491 0.0
C84 C 0.54933 0.36702 0.71543 0.0
C85 C 0.52155 0.36523 0.68414 0.0
C86 C 0.51546 0.39057 0.70375 0.0
C87 C 0.56496 0.42058 0.7859 0.0
C88 C 0.57107 0.39509 0.76631 0.0
C89 C 0.52924 0.44418 0.77381 0.0
O90 O 0.60416 0.52644 0.79021 0.0
O91 O 0.62509 0.57249 0.87869 0.0
O92 O 0.57979 0.56741 0.96816 0.0
O93 O 0.57378 0.51639 0.93662 0.0
O94 O 0.62525 0.62955 0.83444 0.0
O95 O 0.59251 0.62772 0.91919 0.0
O96 O 0.53682 0.56649 0.86255 0.0
O97 O 0.51878 0.51316 0.87687 0.0
O98 O 0.53233 0.51981 0.74145 0.0
O99 O 0.57562 0.56972 0.73768 0.0
C100 C 0.62832 0.54997 0.83605 0.0
O101 O 0.533 0.45718 0.84548 0.0
O102 O 0.53898 0.46577 0.72826 0.0
C103 C 0.5761 0.54036 -0.01324 0.0
C104 C 0.61291 0.67155 0.84957 0.0
C105 C 0.6081 0.72154 0.79488 0.0
C106 C 0.63631 0.72828 0.8363 0.0
C107 C 0.63864 0.70356 0.86335 0.0
C108 C 0.58474 0.66449 0.80775 0.0
C109 C 0.58233 0.68929 0.78085 0.0
C110 C 0.61589 0.64621 0.88051 0.0
C111 C 0.51484 0.53849 0.88112 0.0
H112 H 0.50458 0.34433 0.64372 0.0
H113 H 0.49384 0.3885 0.67875 0.0
H114 H 0.58196 0.4419 0.82529 0.0
H115 H 0.59247 0.39712 0.79195 0.0
H116 H 0.65647 0.75283 0.84908 0.0
H117 H 0.66054 0.70951 0.8957 0.0
H118 H 0.56463 0.63987 0.79619 0.0
H119 H 0.5604 0.68315 0.74842 0.0
H120 H 0.2489 0.47027 0.17925 0.0
H121 H 0.30013 0.47862 0.13599 0.0
H122 H 0.30038 0.54148 -0.01565 0.0
H123 H 0.24824 0.5318 0.02415 0.0
H124 H 0.31908 0.5041 0.91274 0.0
H125 H 0.34828 0.57033 0.15786 0.0
H126 H 0.34747 0.58429 0.29684 0.0
H127 H 0.37614 0.51637 0.33887 0.0
H128 H 0.3766 0.50159 0.20001 0.0
H129 H 0.48668 0.57335 0.85064 0.0
H130 H 0.43536 0.56653 0.89163 0.0
H131 H 0.4225 0.48904 0.00992 0.0
H132 H 0.47352 0.49546 0.96866 0.0
H133 H 0.41145 0.53587 0.09751 0.0
H134 H 0.38081 0.46981 0.84777 0.0
H135 H 0.38447 0.45976 0.70874 0.0
H136 H 0.36127 0.53257 0.67648 0.0
H137 H 0.35799 0.54344 0.81559 0.0
C138 C 0.2596 0.4856 0.13606 0.0
C139 C 0.24427 0.50038 0.10543 0.0
C140 C 0.28921 0.49072 0.11207 0.0
C141 C 0.30452 0.51113 0.0577 0.0
C142 C 0.28922 0.52576 0.02664 0.0
C143 C 0.25947 0.52045 0.05014 0.0
C144 C 0.33614 0.51672 0.03216 0.0
C145 C 0.33936 0.51151 0.95331 0.0
C146 C 0.36267 0.52598 0.0848 0.0
C147 C 0.36208 0.53456 0.16838 0.0
C148 C 0.35408 0.55811 0.19666 0.0
C149 C 0.35374 0.56622 0.27545 0.0
C150 C 0.36164 0.55115 0.32664 0.0
C151 C 0.36995 0.52797 0.29914 0.0
C152 C 0.37025 0.51972 0.22039 0.0
C153 C 0.4729 0.55485 0.88532 0.0
C154 C 0.48403 0.5348 0.90601 0.0
C155 C 0.44353 0.55089 0.90837 0.0
C156 C 0.42503 0.52711 0.95332 0.0
C157 C 0.43633 0.50741 -0.02506 0.0
C158 C 0.46542 0.51103 0.95103 0.0
C159 C 0.39404 0.52298 -0.02132 0.0
C160 C 0.39105 0.52852 0.05733 0.0
C161 C 0.36791 0.51446 0.92595 0.0
C162 C 0.36949 0.50768 0.8422 0.0
C163 C 0.37675 0.48387 0.81112 0.0
C164 C 0.37871 0.47799 0.73229 0.0
C165 C 0.3732 0.49558 0.68383 0.0
C166 C 0.36559 0.519 0.7141 0.0
C167 C 0.36366 0.52502 0.79293 0.0
H168 H 0.37474 0.491 0.62281 0.0
H169 H 0.3614 0.55749 0.38762 0.0
H170 H 0.77554 0.24441 0.49494 0.0
H171 H 0.81692 0.29331 0.4497 0.0
H172 H 0.84399 0.23531 0.29546 0.0
H173 H 0.80286 0.18635 0.34089 0.0
H174 H 0.89658 0.29009 0.37778 0.0
H175 H 0.80063 0.26382 0.22672 0.0
H176 H 0.74475 0.25165 0.20754 0.0
H177 H 0.77038 0.34406 0.33821 0.0
H178 H 0.82635 0.3566 0.35907 0.0
H179 H 0.99683 0.4048 0.15276 0.0
H180 H 0.9527 0.357 0.19425 0.0
H181 H 0.92048 0.41675 0.3225 0.0
H182 H 0.96414 0.46472 0.27903 0.0
H183 H 0.87028 0.36199 0.25748 0.0
H184 H 0.96479 0.38967 0.41014 0.0
H185 H 1.021 0.4036 0.43459 0.0
H186 H 0.9988 0.31101 0.31121 0.0
H187 H 0.94251 0.29667 0.28511 0.0
C188 C 0.79039 0.24208 0.45158 0.0
C189 C 0.78586 0.21146 0.42144 0.0
C190 C 0.81388 0.27003 0.42542 0.0
C191 C 0.83344 0.26797 0.36882 0.0
C192 C 0.82915 0.23748 0.33904 0.0
C193 C 0.80547 0.20949 0.36467 0.0
C194 C 0.85861 0.29761 0.34119 0.0
C195 C 0.89081 0.30559 0.35058 0.0
C196 C 0.8512 0.31844 0.30805 0.0
C197 C 0.8176 0.31101 0.29509 0.0
C198 C 0.79429 0.28144 0.25188 0.0
C199 C 0.76261 0.27449 0.24061 0.0
C200 C 0.754 0.29703 0.27181 0.0
C201 C 0.77707 0.3266 0.31416 0.0
C202 C 0.80878 0.33366 0.32567 0.0
C203 C 0.98028 0.40782 0.18944 0.0
C204 C 0.98419 0.43867 0.21297 0.0
C205 C 0.95508 0.38042 0.21346 0.0
C206 C 0.93359 0.38326 0.26297 0.0
C207 C 0.9368 0.4139 0.2846 0.0
C208 C 0.96181 0.44133 0.25973 0.0
C209 C 0.90832 0.35436 0.29332 0.0
C210 C 0.87613 0.34655 0.28472 0.0
C211 C 0.91578 0.33392 0.32835 0.0
C212 C 0.94948 0.3422 0.34513 0.0
C213 C 0.97193 0.37234 0.38786 0.0
C214 C 1.00381 0.38032 0.40202 0.0
C215 C 1.01349 0.35825 0.37427 0.0
C216 C 0.99127 0.3281 0.33259 0.0
C217 C 0.95936 0.32001 0.31817 0.0
H218 H 1.03819 0.36449 0.38521 0.0
H219 H 0.72945 0.2916 0.26303 0.0
H220 H 0.54428 0.93455 0.60543 0.0
H221 H 0.54704 0.88948 0.64536 0.0
H222 H 0.64491 0.9307 0.58476 0.0
H223 H 0.64244 0.97594 0.54457 0.0
H224 H 0.60984 0.86513 0.53568 0.0
H225 H 0.63116 0.93829 0.76814 0.0
H226 H 0.6209 0.97374 0.86338 0.0
H227 H 0.53112 0.89209 0.90249 0.0
H228 H 0.54073 0.85614 0.80697 0.0
H229 H 0.65413 0.77222 0.73094 0.0
H230 H 0.65085 0.81673 0.6891 0.0
H231 H 0.55339 0.77577 0.75273 0.0
H232 H 0.55675 0.73146 0.79649 0.0
H233 H 0.58817 0.84137 0.80038 0.0
H234 H 0.56837 0.76825 0.56639 0.0
H235 H 0.57974 0.73412 0.46977 0.0
H236 H 0.6686 0.81753 0.43334 0.0
H237 H 0.65796 0.8521 0.53054 0.0
C238 C 0.56641 0.93408 0.6003 0.0
C239 C 0.59321 0.9591 0.57211 0.0
C240 C 0.56797 0.90829 0.62348 0.0
C241 C 0.59629 0.90685 0.6188 0.0
C242 C 0.62282 0.93132 0.589 0.0
C243 C 0.62136 0.95723 0.56619 0.0
C244 C 0.59828 0.87994 0.64564 0.0
C245 C 0.60551 0.86018 0.59382 0.0
C246 C 0.5921 0.87315 0.72117 0.0
C247 C 0.58653 0.89455 0.77988 0.0
C248 C 0.60914 0.9279 0.79673 0.0
C249 C 0.60346 0.94809 0.8508 0.0
C250 C 0.57531 0.93521 0.88867 0.0
C251 C 0.55289 0.90205 0.87297 0.0
C252 C 0.55847 0.88173 0.819 0.0
C253 C 0.63203 0.77273 0.73652 0.0
C254 C 0.60569 0.74817 0.76711 0.0
C255 C 0.63011 0.79811 0.71198 0.0
C256 C 0.60178 0.79953 0.71712 0.0
C257 C 0.57549 0.77519 0.74803 0.0
C258 C 0.57735 0.7497 0.77237 0.0
C259 C 0.59967 0.82642 0.69028 0.0
C260 C 0.59245 0.84625 0.74219 0.0
C261 C 0.6061 0.83344 0.61492 0.0
C262 C 0.6125 0.81271 0.55628 0.0
C263 C 0.59045 0.77927 0.53822 0.0
C264 C 0.59675 0.75986 0.48326 0.0
C265 C 0.62491 0.77363 0.44558 0.0
C266 C 0.64681 0.80688 0.46264 0.0
C267 C 0.64065 0.8264 0.5176 0.0
H268 H 0.62974 0.75856 0.40305 0.0
H269 H 0.57092 0.95092 0.93033 0.0
H270 H 0.65058 0.51595 0.74283 0.0
H271 H 0.69973 0.51403 0.76543 0.0
H272 H 0.7221 0.57872 -0.02058 0.0
H273 H 0.67431 0.58201 0.95517 0.0
H274 H 0.77359 0.59656 0.91835 0.0
H275 H 0.68839 0.49035 0.95539 0.0
H276 H 0.6407 0.43566 0.92319 0.0
H277 H 0.68736 0.41227 0.73993 0.0
H278 H 0.73514 0.46696 0.77025 0.0
H279 H 0.88296 0.56921 0.11509 0.0
H280 H 0.83465 0.56886 0.072 0.0
H281 H 0.83359 0.51849 0.85018 0.0
H282 H 0.88167 0.51807 0.89356 0.0
H283 H 0.77339 0.49318 0.90191 0.0
H284 H 0.86003 0.59861 0.87405 0.0
H285 H 0.90912 0.65126 0.91683 0.0
H286 H 0.85929 0.67489 0.09143 0.0
H287 H 0.81001 0.62218 0.05038 0.0
C288 C 0.66616 0.52994 0.79436 0.0
C289 C 0.65856 0.5493 0.84688 0.0
C290 C 0.69415 0.52858 0.8077 0.0
C291 C 0.71466 0.54585 0.87489 0.0
C292 C 0.70698 0.56523 0.92697 0.0
C293 C 0.6795 0.56711 0.91296 0.0
C294 C 0.7444 0.54451 0.89142 0.0
C295 C 0.77326 0.57382 0.91547 0.0
C296 C 0.74468 0.51503 0.88553 0.0
C297 C 0.71522 0.48287 0.86464 0.0
C298 C 0.68831 0.47371 0.90756 0.0
C299 C 0.66131 0.44266 0.88981 0.0
C300 C 0.66108 0.4205 0.82973 0.0
C301 C 0.68762 0.42946 0.78652 0.0
C302 C 0.71463 0.46046 0.80391 0.0
C303 C 0.87229 0.55767 0.05741 0.0
C304 C 0.88629 0.54364 0.00785 0.0
C305 C 0.8448 0.5578 0.03256 0.0
C306 C 0.83067 0.54403 0.95746 0.0
C307 C 0.84414 0.52941 0.90824 0.0
C308 C 0.87176 0.52938 0.93299 0.0
C309 C 0.8019 0.54503 0.93066 0.0
C310 C 0.77348 0.51579 0.90432 0.0
C311 C 0.80185 0.57448 0.93515 0.0
C312 C 0.83139 0.60633 0.95946 0.0
C313 C 0.85959 0.61494 0.92188 0.0
C314 C 0.88745 0.64481 0.94578 0.0
C315 C 0.88734 0.66638 0.0069 0.0
C316 C 0.85935 0.65816 0.04412 0.0
C317 C 0.83144 0.6283 0.0205 0.0
H318 H 0.90893 0.68949 0.02534 0.0
H319 H 0.64047 0.39628 0.81693 0.0
H320 H 0.34839 0.86054 0.43205 0.0
H321 H 0.2998 0.80925 0.38338 0.0
H322 H 0.35181 0.7885 0.20835 0.0
H323 H 0.40077 0.83966 0.25737 0.0
H324 H 0.29153 0.77271 0.15139 0.0
H325 H 0.33806 0.75353 0.36539 0.0
H326 H 0.35988 0.76384 0.49893 0.0
H327 H 0.26998 0.74833 0.57916 0.0
H328 H 0.24777 0.73838 0.44606 0.0
H329 H 0.18182 0.59065 0.18627 0.0
H330 H 0.23065 0.64336 0.21216 0.0
H331 H 0.17775 0.68942 0.15949 0.0
H332 H 0.12818 0.6364 0.1342 0.0
H333 H 0.23887 0.69237 0.32703 0.0
H334 H 0.23215 0.75824 0.08689 0.0
H335 H 0.21281 0.74614 0.95046 0.0
H336 H 0.22707 0.66454 0.91832 0.0
H337 H 0.2463 0.67606 0.05455 0.0
C338 C 0.34966 0.84499 0.38363 0.0
C339 C 0.3787 0.85417 0.34924 0.0
C340 C 0.32175 0.81574 0.35553 0.0
C341 C 0.32218 0.79489 0.29253 0.0
C342 C 0.35086 0.80426 0.25684 0.0
C343 C 0.37885 0.83354 0.28499 0.0
C344 C 0.29307 0.76277 0.26598 0.0
C345 C 0.27996 0.7552 0.18988 0.0
C346 C 0.27809 0.73969 0.31579 0.0
C347 C 0.29137 0.74554 0.39582 0.0
C348 C 0.32303 0.75257 0.41154 0.0
C349 C 0.33546 0.75831 0.48714 0.0
C350 C 0.31636 0.75683 0.5475 0.0
C351 C 0.28476 0.74952 0.53236 0.0
C352 C 0.27224 0.74381 0.45685 0.0
C353 C 0.18039 0.6118 0.1791 0.0
C354 C 0.15083 0.60913 0.15846 0.0
C355 C 0.20847 0.64201 0.19413 0.0
C356 C 0.20785 0.67033 0.18814 0.0
C357 C 0.17878 0.66783 0.1642 0.0
C358 C 0.15046 0.63749 0.14976 0.0
C359 C 0.2372 0.70239 0.21271 0.0
C360 C 0.2503 0.70998 0.28866 0.0
C361 C 0.2523 0.72522 0.16256 0.0
C362 C 0.24043 0.7179 0.08091 0.0
C363 C 0.23114 0.73772 0.05063 0.0
C364 C 0.22017 0.73094 0.9734 0.0
C365 C 0.21873 0.70459 0.92576 0.0
C366 C 0.2282 0.68494 0.95529 0.0
C367 C 0.23892 0.69145 0.0326 0.0
H368 H 0.21019 0.69935 0.86602 0.0
H369 H 0.32602 0.76127 0.60599 0.0
H370 H 0.60625 0.36967 0.68262 0.0
H371 H 0.6149 0.3242 0.64189 0.0
H372 H 0.51442 0.25696 0.65796 0.0
H373 H 0.50585 0.30212 0.70093 0.0
H374 H 0.55062 0.23603 0.71488 0.0
H375 H 0.54456 0.27666 0.48512 0.0
H376 H 0.56009 0.31831 0.4019 0.0
H377 H 0.65596 0.33399 0.40684 0.0
H378 H 0.6411 0.29272 0.49102 0.0
H379 H 0.53214 0.094 0.49696 0.0
H380 H 0.52779 0.14239 0.53035 0.0
H381 H 0.63052 0.20276 0.53035 0.0
H382 H 0.63518 0.15444 0.49704 0.0
H383 H 0.596 0.22833 0.46655 0.0
H384 H 0.60201 0.18718 0.69391 0.0
H385 H 0.58656 0.14511 0.7758 0.0
H386 H 0.49104 0.13029 0.7748 0.0
H387 H 0.50583 0.17205 0.69204 0.0
C388 C 0.5861 0.3452 0.6785 0.0
C389 C 0.55529 0.33958 0.69448 0.0
C390 C 0.59101 0.31921 0.65446 0.0
C391 C 0.5652 0.2871 0.64567 0.0
C392 C 0.53468 0.28147 0.66385 0.0
C393 C 0.52976 0.30737 0.68782 0.0
C394 C 0.56965 0.25927 0.61644 0.0
C395 C 0.56024 0.23425 0.66021 0.0
C396 C 0.58288 0.25716 0.54587 0.0
C397 C 0.59182 0.28186 0.49502 0.0
C398 C 0.56902 0.28917 0.46894 0.0
C399 C 0.57769 0.31268 0.42153 0.0
C400 C 0.60902 0.32886 0.39928 0.0
C401 C 0.63172 0.32149 0.42423 0.0
C402 C 0.62319 0.29802 0.47176 0.0
C403 C 0.55378 0.11755 0.50234 0.0
C404 C 0.58404 0.1203 0.49451 0.0
C405 C 0.55125 0.1452 0.5219 0.0
C406 C 0.57888 0.17615 0.53391 0.0
C407 C 0.60891 0.17911 0.5216 0.0
C408 C 0.61151 0.15145 0.5027 0.0
C409 C 0.57659 0.20509 0.56458 0.0
C410 C 0.58647 0.23026 0.52126 0.0
C411 C 0.56384 0.2074 0.63562 0.0
C412 C 0.55494 0.18254 0.68617 0.0
C413 C 0.57764 0.17479 0.71067 0.0
C414 C 0.56901 0.15101 0.7573 0.0
C415 C 0.5378 0.13494 0.78026 0.0
C416 C 0.51519 0.14272 0.75686 0.0
C417 C 0.52369 0.16648 0.71017 0.0
H418 H 0.53116 0.11655 0.81639 0.0
H419 H 0.61568 0.34705 0.36255 0.0
H420 H 0.1039 0.49196 0.93431 0.0
H421 H 0.12429 0.51234 0.81518 0.0
H422 H 0.0583 0.54791 0.80929 0.0
H423 H 1.03766 0.52753 0.92802 0.0
H424 H 0.09251 0.50102 0.67091 0.0
H425 H 0.1039 0.62717 0.77227 0.0
H426 H 0.11559 0.66448 0.89334 0.0
H427 H 0.16557 0.62366 -0.00807 0.0
H428 H 0.15499 0.58676 0.8711 0.0
H429 H 0.05754 0.5752 0.41926 0.0
H430 H 0.07797 0.58761 0.55359 0.0
H431 H 0.15896 0.57789 0.48601 0.0
H432 H 0.13817 0.56474 0.35212 0.0
H433 H 0.1364 0.61855 0.66911 0.0
H434 H 0.14325 0.5138 0.52875 0.0
H435 H 0.12596 0.47384 0.40985 0.0
H436 H 1.03506 0.46982 0.39726 0.0
H437 H 0.052 0.50989 0.51578 0.0
C438 C 0.09319 0.50337 0.90634 0.0
C439 C 0.06945 0.50847 0.94013 0.0
C440 C 0.10504 0.5152 0.83908 0.0
C441 C 0.09344 0.53245 0.80586 0.0
C442 C 0.06796 0.53529 0.83599 0.0
C443 C 0.05586 0.52319 0.90282 0.0
C444 C 0.10764 0.54746 0.73901 0.0
C445 C 0.10318 0.52686 0.6709 0.0
C446 C 0.12128 0.58116 0.73992 0.0
C447 C 0.12836 0.60392 0.81253 0.0
C448 C 0.11758 0.62628 0.81955 0.0
C449 C 0.12398 0.64736 0.88827 0.0
C450 C 0.14112 0.64632 0.95048 0.0
C451 C 0.15202 0.62427 0.94402 0.0
C452 C 0.14589 0.60331 0.87533 0.0
C453 C 0.08052 0.57743 0.43324 0.0
C454 C 0.09595 0.56812 0.37735 0.0
C455 C 0.09241 0.58492 0.50956 0.0
C456 C 0.1195 0.58287 0.52894 0.0
C457 C 0.13795 0.57938 0.47158 0.0
C458 C 0.12584 0.57141 0.39559 0.0
C459 C 0.12045 0.5719 0.60139 0.0
C460 C 0.12738 0.59305 0.67023 0.0
C461 C 0.10902 0.53862 0.60178 0.0
C462 C 0.09892 0.5148 0.53049 0.0
C463 C 0.11961 0.50433 0.50045 0.0
C464 C 0.10989 0.48173 0.43321 0.0
C465 C 0.07942 0.46929 0.39611 0.0
C466 C 0.05864 0.47947 0.42607 0.0
C467 C 0.06831 0.50216 0.4931 0.0
H468 H 0.07192 0.45177 0.34414 0.0
H469 H 0.14617 0.66277 0.00344 0.0
H470 H 0.64295 0.03999 0.28024 0.0
H471 H 0.64272 0.0552 0.15428 0.0
H472 H 0.53975 1.01327 0.14789 0.0
H473 H 0.53981 0.99757 0.27358 0.0
H474 H 0.61031 1.02529 0.00969 0.0
H475 H 0.52772 0.07612 0.10965 0.0
H476 H 0.51439 0.09813 0.2292 0.0
H477 H 0.60605 0.12548 0.33842 0.0
H478 H 0.61991 0.10384 0.2198 0.0
H479 H 0.53486 0.04965 0.72928 0.0
H480 H 0.53828 0.06072 0.86851 0.0
H481 H 0.64116 0.12173 0.87389 0.0
H482 H 0.63806 0.11011 0.73471 0.0
H483 H 0.57573 0.10692 0.01988 0.0
H484 H 0.66419 0.07741 0.9052 0.0
H485 H 0.67975 0.05607 0.78817 0.0
H486 H 0.58025 0.988 0.71733 0.0
H487 H 0.56433 1.00916 0.83329 0.0
C488 C 0.62016 0.03261 0.24996 0.0
C489 C 0.59146 1.01801 0.28571 0.0
C490 C 0.62008 0.04155 0.17885 0.0
C491 C 0.59136 0.03619 0.14423 0.0
C492 C 0.56212 1.01802 0.17546 0.0
C493 C 0.56213 1.00865 0.24624 0.0
C494 C 0.59255 0.05221 0.0794 0.0
C495 C 0.60322 0.04346 0.01231 0.0
C496 C 0.58332 0.07593 0.08374 0.0
C497 C 0.57466 0.08801 0.15611 0.0
C498 C 0.54494 0.08673 0.15935 0.0
C499 C 0.53729 0.09914 0.22697 0.0
C500 C 0.55928 0.11309 0.29151 0.0
C501 C 0.58889 0.11447 0.28873 0.0
C502 C 0.59662 0.10203 0.22137 0.0
C503 C 0.55799 0.0667 0.76001 0.0
C504 C 0.58643 0.07759 0.723 0.0
C505 C 0.55986 0.07345 0.83938 0.0
C506 C 0.5901 0.09093 0.88042 0.0
C507 C 0.61773 0.10775 0.84237 0.0
C508 C 0.61599 0.10054 0.76322 0.0
C509 C 0.59351 0.07992 0.95068 0.0
C510 C 0.58339 0.08924 0.01828 0.0
C511 C 0.60374 0.057 0.94779 0.0
C512 C 0.61314 0.04502 0.87697 0.0
C513 C 0.64574 0.05799 0.8642 0.0
C514 C 0.65461 0.04595 0.79813 0.0
C515 C 0.63104 1.02072 0.74514 0.0
C516 C 0.59855 1.00759 0.75798 0.0
C517 C 0.58957 1.01965 0.82373 0.0
H518 H 0.63804 1.01138 0.69435 0.0
H519 H 0.55344 0.12305 0.34336 0.0
H520 H 0.48472 0.50633 0.65459 0.0
H521 H 0.46205 0.50045 0.52618 0.0
H522 H 0.55104 0.5826 0.48121 0.0
H523 H 0.57391 0.5888 0.60956 0.0
H524 H 0.49406 0.56986 0.38952 0.0
H525 H 0.55293 0.51297 0.46719 0.0
H526 H 0.55466 0.47691 0.55126 0.0
H527 H 0.45538 0.40717 0.48281 0.0
H528 H 0.45311 0.44306 0.39892 0.0
H529 H 0.59605 0.58308 0.11877 0.0
H530 H 0.56668 0.57607 0.23338 0.0
H531 H 0.49948 0.47667 0.13623 0.0
H532 H 0.52957 0.48325 0.02255 0.0
H533 H 0.51318 0.4811 0.28055 0.0
H534 H 0.47574 0.53402 0.14288 0.0
H535 H 0.47795 0.57332 0.06401 0.0
H536 H 0.53515 0.6517 0.24485 0.0
H537 H 0.53393 0.61319 0.3246 0.0
C538 C 0.49919 0.52371 0.61803 0.0
C539 C 0.5316 0.54712 0.64025 0.0
C540 C 0.48593 0.52061 0.54532 0.0
C541 C 0.50512 0.54069 0.49431 0.0
C542 C 0.53591 0.56686 0.52017 0.0
C543 C 0.54916 0.57007 0.593 0.0
C544 C 0.49821 0.5294 0.41158 0.0
C545 C 0.49736 0.55002 0.36453 0.0
C546 C 0.50123 0.50266 0.37942 0.0
C547 C 0.50285 0.48056 0.42711 0.0
C548 C 0.53156 0.48986 0.46996 0.0
C549 C 0.53261 0.46953 0.51769 0.0
C550 C 0.50515 0.43976 0.52236 0.0
C551 C 0.47662 0.43023 0.47913 0.0
C552 C 0.47544 0.45053 0.4315 0.0
C553 C 0.5756 0.5595 0.12306 0.0
C554 C 0.56517 0.53368 0.06253 0.0
C555 C 0.55838 0.5557 0.18746 0.0
C556 C 0.53008 0.52627 0.19137 0.0
C557 C 0.52088 0.49974 0.13333 0.0
C558 C 0.53844 0.50338 0.06927 0.0
C559 C 0.51159 0.52318 0.2589 0.0
C560 C 0.50762 0.49967 0.30294 0.0
C561 C 0.50386 0.54713 0.28764 0.0
C562 C 0.50463 0.57057 0.23997 0.0
C563 C 0.48892 0.55963 0.16583 0.0
C564 C 0.48999 0.58177 0.12091 0.0
C565 C 0.50658 0.61489 0.14937 0.0
C566 C 0.5222 0.62601 0.22292 0.0
C567 C 0.52127 0.60402 0.26813 0.0
H568 H 0.50735 0.63194 0.11438 0.0
H569 H 0.50598 0.42409 0.55945 0.0
loop_
_geom_bond_atom_site_label_1
_geom_bond_atom_site_label_2
_geom_bond_distance
_geom_bond_site_symmetry_2
_ccdc_geom_bond_type
Tb0 C9 2.764 1_455 S
Tb0 O10 2.325 1_455 S
Tb0 O13 2.303 . S
Tb0 O17 2.322 . S
Tb0 O18 2.349 . S
Tb0 O21 2.415 1_455 S
Tb0 O22 2.399 1_455 S
Tb1 O11 2.306 1_455 S
Tb1 O12 2.349 . S
Tb1 O14 2.415 . S
Tb1 O15 2.399 . S
Tb1 O16 2.325 . S
Tb1 O19 2.303 . S
Tb1 C30 2.764 . S
C2 O18 1.261 . S
C2 O19 1.257 . S
C3 C6 1.358 . S
C3 C7 1.332 . S
C3 C9 1.504 . S
C4 C5 1.373 . S
C4 C8 1.308 . S
C5 C4 1.373 . S
C5 C6 1.429 . S
C5 H32 0.932 . S
C6 C3 1.358 . S
C6 C5 1.429 . S
C6 H33 0.930 . S
C7 C3 1.332 . S
C7 C8 1.394 . S
C7 H34 0.932 . S
C8 C4 1.308 . S
C8 C7 1.394 . S
C8 H35 0.929 . S
C9 Tb0 2.764 1_655 S
C9 C3 1.504 . S
C9 O21 1.239 . S
C9 O22 1.263 . S
O10 Tb0 2.325 1_655 S
O10 C20 1.236 . S
O11 Tb1 2.306 1_655 S
O11 C20 1.278 . S
O12 Tb1 2.349 . S
O12 C23 1.261 . S
O13 Tb0 2.303 . S
O13 C23 1.257 . S
O14 Tb1 2.415 . S
O14 C30 1.239 . S
O15 Tb1 2.399 . S
O15 C30 1.263 . S
O16 Tb1 2.325 . S
O16 C31 1.236 . S
O17 Tb0 2.322 . S
O17 C31 1.257 . S
O18 Tb0 2.349 . S
O18 C2 1.261 . S
O19 Tb1 2.303 . S
O19 C2 1.257 . S
C20 O10 1.236 . S
C20 O11 1.278 . S
O21 Tb0 2.415 1_655 S
O21 C9 1.239 . S
O22 Tb0 2.399 1_655 S
O22 C9 1.263 . S
C23 O12 1.261 . S
C23 O13 1.257 . S
C24 C27 1.358 . S
C24 C28 1.332 . S
C24 C30 1.504 . S
C25 C26 1.373 . S
C25 C29 1.308 . S
C26 C25 1.373 . S
C26 C27 1.429 . S
C26 H36 0.932 . S
C27 C24 1.358 . S
C27 C26 1.429 . S
C27 H37 0.930 . S
C28 C24 1.332 . S
C28 C29 1.394 . S
C28 H38 0.932 . S
C29 C25 1.308 . S
C29 C28 1.394 . S
C29 H39 0.929 . S
C30 Tb1 2.764 . S
C30 O14 1.239 . S
C30 O15 1.263 . S
C30 C24 1.504 . S
C31 O16 1.236 . S
C31 O17 1.257 . S
H32 C5 0.932 . S
H33 C6 0.930 . S
H34 C7 0.932 . S
H35 C8 0.929 . S
H36 C26 0.932 . S
H37 C27 0.930 . S
H38 C28 0.932 . S
H39 C29 0.929 . S
Tb40 C49 2.764 . S
Tb40 O50 2.325 . S
Tb40 O53 2.303 1_565 S
Tb40 O57 2.322 1_565 S
Tb40 O58 2.349 . S
Tb40 O61 2.415 . S
Tb40 O62 2.399 . S
Tb41 O51 2.322 1_545 S
Tb41 O52 2.349 . S
Tb41 O54 2.415 . S
Tb41 O55 2.399 . S
Tb41 O56 2.325 . S
Tb41 O59 2.303 . S
Tb41 C70 2.764 . S
C42 O58 1.261 1_545 S
C42 O59 1.257 . S
C43 C46 1.358 . S
C43 C47 1.332 . S
C43 C49 1.504 . S
C44 C45 1.373 . S
C44 C48 1.308 . S
C45 C44 1.373 . S
C45 C46 1.429 . S
C45 H72 0.932 . S
C46 C43 1.358 . S
C46 C45 1.429 . S
C46 H73 0.930 . S
C47 C43 1.332 . S
C47 C48 1.394 . S
C47 H74 0.932 . S
C48 C44 1.308 . S
C48 C47 1.394 . S
C48 H75 0.929 . S
C49 Tb40 2.764 . S
C49 C43 1.504 . S
C49 O61 1.239 . S
C49 O62 1.263 . S
O50 Tb40 2.325 . S
O50 C60 1.236 . S
O51 Tb41 2.322 1_565 S
O51 C60 1.257 . S
O52 Tb41 2.349 . S
O52 C63 1.261 . S
O53 Tb40 2.303 1_545 S
O53 C63 1.257 . S
O54 Tb41 2.415 . S
O54 C70 1.239 . S
O55 Tb41 2.399 . S
O55 C70 1.263 . S
O56 Tb41 2.325 . S
O56 C71 1.236 . S
O57 Tb40 2.322 1_545 S
O57 C71 1.257 . S
O58 Tb40 2.349 . S
O58 C42 1.261 1_565 S
O59 Tb41 2.303 . S
O59 C42 1.257 . S
C60 O50 1.236 . S
C60 O51 1.257 . S
O61 Tb40 2.415 . S
O61 C49 1.239 . S
O62 Tb40 2.399 . S
O62 C49 1.263 . S
C63 O52 1.261 . S
C63 O53 1.257 . S
C64 C67 1.358 . S
C64 C68 1.332 . S
C64 C70 1.504 . S
C65 C66 1.373 . S
C65 C69 1.308 . S
C66 C65 1.373 . S
C66 C67 1.429 . S
C66 H76 0.932 . S
C67 C64 1.358 . S
C67 C66 1.429 . S
C67 H77 0.930 . S
C68 C64 1.332 . S
C68 C69 1.394 . S
C68 H78 0.932 . S
C69 C65 1.308 . S
C69 C68 1.394 . S
C69 H79 0.929 . S
C70 Tb41 2.764 . S
C70 O54 1.239 . S
C70 O55 1.263 . S
C70 C64 1.504 . S
C71 O56 1.236 . S
C71 O57 1.257 . S
H72 C45 0.932 . S
H73 C46 0.930 . S
H74 C47 0.932 . S
H75 C48 0.929 . S
H76 C66 0.932 . S
H77 C67 0.930 . S
H78 C68 0.932 . S
H79 C69 0.929 . S
Tb80 C89 2.764 . S
Tb80 O90 2.325 . S
Tb80 O93 2.303 . S
Tb80 O97 2.322 . S
Tb80 O98 2.349 . S
Tb80 O101 2.415 . S
Tb80 O102 2.399 . S
Tb81 O91 2.322 . S
Tb81 O92 2.349 . S
Tb81 O94 2.415 . S
Tb81 O95 2.399 . S
Tb81 O96 2.325 . S
Tb81 O99 2.303 . S
Tb81 C110 2.764 . S
C82 O98 1.261 . S
C82 O99 1.257 . S
C83 C86 1.358 . S
C83 C87 1.332 . S
C83 C89 1.504 . S
C84 C85 1.373 . S
C84 C88 1.308 . S
C85 C84 1.373 . S
C85 C86 1.429 . S
C85 H112 0.932 . S
C86 C83 1.358 . S
C86 C85 1.429 . S
C86 H113 0.930 . S
C87 C83 1.332 . S
C87 C88 1.394 . S
C87 H114 0.932 . S
C88 C84 1.308 . S
C88 C87 1.394 . S
C88 H115 0.929 . S
C89 Tb80 2.764 . S
C89 C83 1.504 . S
C89 O101 1.239 . S
C89 O102 1.263 . S
O90 Tb80 2.325 . S
O90 C100 1.236 . S
O91 Tb81 2.322 . S
O91 C100 1.257 . S
O92 Tb81 2.349 . S
O92 C103 1.261 . S
O93 Tb80 2.303 . S
O93 C103 1.257 . S
O94 Tb81 2.415 . S
O94 C110 1.239 . S
O95 Tb81 2.399 . S
O95 C110 1.263 . S
O96 Tb81 2.325 . S
O96 C111 1.236 . S
O97 Tb80 2.322 . S
O97 C111 1.257 . S
O98 Tb80 2.349 . S
O98 C82 1.261 . S
O99 Tb81 2.303 . S
O99 C82 1.257 . S
C100 O90 1.236 . S
C100 O91 1.257 . S
O101 Tb80 2.415 . S
O101 C89 1.239 . S
O102 Tb80 2.399 . S
O102 C89 1.263 . S
C103 O92 1.261 . S
C103 O93 1.257 . S
C104 C107 1.358 . S
C104 C108 1.332 . S
C104 C110 1.504 . S
C105 C106 1.373 . S
C105 C109 1.308 . S
C106 C105 1.373 . S
C106 C107 1.429 . S
C106 H116 0.932 . S
C107 C104 1.358 . S
C107 C106 1.429 . S
C107 H117 0.930 . S
C108 C104 1.332 . S
C108 C109 1.394 . S
C108 H118 0.932 . S
C109 C105 1.308 . S
C109 C108 1.394 . S
C109 H119 0.929 . S
C110 Tb81 2.764 . S
C110 O94 1.239 . S
C110 O95 1.263 . S
C110 C104 1.504 . S
C111 O96 1.236 . S
C111 O97 1.257 . S
H112 C85 0.932 . S
H113 C86 0.930 . S
H114 C87 0.932 . S
H115 C88 0.929 . S
H116 C106 0.932 . S
H117 C107 0.930 . S
H118 C108 0.932 . S
H119 C109 0.929 . S
H120 C138 0.951 . S
H121 C140 0.951 . S
H122 C142 0.950 . S
H123 C143 0.950 1_556 S
H124 C145 0.950 . S
H125 C148 0.950 . S
H126 C149 0.950 . S
H127 C151 0.950 . S
H128 C152 0.950 . S
H129 C153 0.951 . S
H130 C155 0.951 . S
H131 C157 0.950 1_554 S
H132 C158 0.950 . S
H133 C160 0.950 . S
H134 C163 0.950 . S
H135 C164 0.950 . S
H136 C166 0.950 . S
H137 C167 0.950 . S
C138 H120 0.951 . S
C138 C139 1.366 . S
C138 C140 1.388 . S
C139 C138 1.366 . S
C139 C143 1.385 . S
C140 H121 0.951 . S
C140 C138 1.388 . S
C140 C141 1.366 . S
C141 C140 1.366 . S
C141 C142 1.414 1_554 S
C141 C144 1.499 1_554 S
C142 H122 0.950 . S
C142 C141 1.414 1_556 S
C142 C143 1.374 1_556 S
C143 H123 0.950 1_554 S
C143 C139 1.385 . S
C143 C142 1.374 1_554 S
C144 C141 1.499 1_556 S
C144 C145 1.373 . S
C144 C146 1.389 1_556 S
C145 H124 0.950 . S
C145 C144 1.373 . S
C145 C161 1.377 . S
C146 C144 1.389 1_554 S
C146 C147 1.524 . S
C146 C160 1.377 . S
C147 C146 1.524 . S
C147 C148 1.397 . S
C147 C152 1.363 . S
C148 H125 0.950 . S
C148 C147 1.397 . S
C148 C149 1.334 . S
C149 H126 0.950 . S
C149 C148 1.334 . S
C149 C150 1.287 . S
C150 C149 1.287 . S
C150 C151 1.524 . S
C150 H169 0.913 . S
C151 H127 0.950 . S
C151 C150 1.524 . S
C151 C152 1.415 . S
C152 H128 0.950 . S
C152 C147 1.363 . S
C152 C151 1.415 . S
C153 H129 0.951 . S
C153 C154 1.366 . S
C153 C155 1.388 . S
C154 C153 1.366 . S
C154 C158 1.385 . S
C155 H130 0.951 . S
C155 C153 1.388 . S
C155 C156 1.366 . S
C156 C155 1.366 . S
C156 C157 1.414 . S
C156 C159 1.499 . S
C157 H131 0.950 1_556 S
C157 C156 1.414 . S
C157 C158 1.374 . S
C158 H132 0.950 . S
C158 C154 1.385 . S
C158 C157 1.374 . S
C159 C156 1.499 . S
C159 C160 1.373 1_556 S
C159 C161 1.389 . S
C160 H133 0.950 . S
C160 C146 1.377 . S
C160 C159 1.373 1_554 S
C161 C145 1.377 . S
C161 C159 1.389 . S
C161 C162 1.524 . S
C162 C161 1.524 . S
C162 C163 1.397 . S
C162 C167 1.363 . S
C163 H134 0.950 . S
C163 C162 1.397 . S
C163 C164 1.334 . S
C164 H135 0.950 . S
C164 C163 1.334 . S
C164 C165 1.287 . S
C165 C164 1.287 . S
C165 C166 1.524 . S
C165 H168 0.999 . S
C166 H136 0.950 . S
C166 C165 1.524 . S
C166 C167 1.415 . S
C167 H137 0.950 . S
C167 C162 1.363 . S
C167 C166 1.415 . S
H168 C165 0.999 . S
H169 C150 0.913 . S
H170 C188 0.951 . S
H171 C190 0.951 . S
H172 C192 0.950 . S
H173 C193 0.950 . S
H174 C195 0.950 . S
H175 C198 0.950 . S
H176 C199 0.950 . S
H177 C201 0.950 . S
H178 C202 0.950 . S
H179 C203 0.951 . S
H180 C205 0.951 . S
H181 C207 0.950 . S
H182 C208 0.950 . S
H183 C210 0.950 . S
H184 C213 0.950 . S
H185 C214 0.950 . S
H186 C216 0.950 . S
H187 C217 0.950 . S
C188 H170 0.951 . S
C188 C189 1.366 . S
C188 C190 1.388 . S
C189 C188 1.366 . S
C189 C193 1.385 . S
C190 H171 0.951 . S
C190 C188 1.388 . S
C190 C191 1.366 . S
C191 C190 1.366 . S
C191 C192 1.414 . S
C191 C194 1.499 . S
C192 H172 0.950 . S
C192 C191 1.414 . S
C192 C193 1.374 . S
C193 H173 0.950 . S
C193 C189 1.385 . S
C193 C192 1.374 . S
C194 C191 1.499 . S
C194 C195 1.373 . S
C194 C196 1.389 . S
C195 H174 0.950 . S
C195 C194 1.373 . S
C195 C211 1.377 . S
C196 C194 1.389 . S
C196 C197 1.524 . S
C196 C210 1.377 . S
C197 C196 1.524 . S
C197 C198 1.397 . S
C197 C202 1.363 . S
C198 H175 0.950 . S
C198 C197 1.397 . S
C198 C199 1.334 . S
C199 H176 0.950 . S
C199 C198 1.334 . S
C199 C200 1.287 . S
C200 C199 1.287 . S
C200 C201 1.524 . S
C200 H219 0.913 . S
C201 H177 0.950 . S
C201 C200 1.524 . S
C201 C202 1.415 . S
C202 H178 0.950 . S
C202 C197 1.363 . S
C202 C201 1.415 . S
C203 H179 0.951 . S
C203 C204 1.366 . S
C203 C205 1.388 . S
C204 C203 1.366 . S
C204 C208 1.385 . S
C205 H180 0.951 . S
C205 C203 1.388 . S
C205 C206 1.366 . S
C206 C205 1.366 . S
C206 C207 1.414 . S
C206 C209 1.499 . S
C207 H181 0.950 . S
C207 C206 1.414 . S
C207 C208 1.374 . S
C208 H182 0.950 . S
C208 C204 1.385 . S
C208 C207 1.374 . S
C209 C206 1.499 . S
C209 C210 1.373 . S
C209 C211 1.389 . S
C210 H183 0.950 . S
C210 C196 1.377 . S
C210 C209 1.373 . S
C211 C195 1.377 . S
C211 C209 1.389 . S
C211 C212 1.524 . S
C212 C211 1.524 . S
C212 C213 1.397 . S
C212 C217 1.363 . S
C213 H184 0.950 . S
C213 C212 1.397 . S
C213 C214 1.334 . S
C214 H185 0.950 . S
C214 C213 1.334 . S
C214 C215 1.287 . S
C215 C214 1.287 . S
C215 C216 1.524 . S
C215 H218 0.999 . S
C216 H186 0.950 . S
C216 C215 1.524 . S
C216 C217 1.415 . S
C217 H187 0.950 . S
C217 C212 1.363 . S
C217 C216 1.415 . S
H218 C215 0.999 . S
H219 C200 0.913 . S
H220 C238 0.951 . S
H221 C240 0.951 . S
H222 C242 0.950 . S
H223 C243 0.950 . S
H224 C245 0.950 . S
H225 C248 0.950 . S
H226 C249 0.950 . S
H227 C251 0.950 . S
H228 C252 0.950 . S
H229 C253 0.951 . S
H230 C255 0.951 . S
H231 C257 0.950 . S
H232 C258 0.950 . S
H233 C260 0.950 . S
H234 C263 0.950 . S
H235 C264 0.950 . S
H236 C266 0.950 . S
H237 C267 0.950 . S
C238 H220 0.951 . S
C238 C239 1.366 . S
C238 C240 1.388 . S
C239 C238 1.366 . S
C239 C243 1.385 . S
C240 H221 0.951 . S
C240 C238 1.388 . S
C240 C241 1.366 . S
C241 C240 1.366 . S
C241 C242 1.414 . S
C241 C244 1.499 . S
C242 H222 0.950 . S
C242 C241 1.414 . S
C242 C243 1.374 . S
C243 H223 0.950 . S
C243 C239 1.385 . S
C243 C242 1.374 . S
C244 C241 1.499 . S
C244 C245 1.373 . S
C244 C246 1.389 . S
C245 H224 0.950 . S
C245 C244 1.373 . S
C245 C261 1.377 . S
C246 C244 1.389 . S
C246 C247 1.524 . S
C246 C260 1.377 . S
C247 C246 1.524 . S
C247 C248 1.397 . S
C247 C252 1.363 . S
C248 H225 0.950 . S
C248 C247 1.397 . S
C248 C249 1.334 . S
C249 H226 0.950 . S
C249 C248 1.334 . S
C249 C250 1.287 . S
C250 C249 1.287 . S
C250 C251 1.524 . S
C250 H269 0.913 . S
C251 H227 0.950 . S
C251 C250 1.524 . S
C251 C252 1.415 . S
C252 H228 0.950 . S
C252 C247 1.363 . S
C252 C251 1.415 . S
C253 H229 0.951 . S
C253 C254 1.366 . S
C253 C255 1.388 . S
C254 C253 1.366 . S
C254 C258 1.385 . S
C255 H230 0.951 . S
C255 C253 1.388 . S
C255 C256 1.366 . S
C256 C255 1.366 . S
C256 C257 1.414 . S
C256 C259 1.499 . S
C257 H231 0.950 . S
C257 C256 1.414 . S
C257 C258 1.374 . S
C258 H232 0.950 . S
C258 C254 1.385 . S
C258 C257 1.374 . S
C259 C256 1.499 . S
C259 C260 1.373 . S
C259 C261 1.389 . S
C260 H233 0.950 . S
C260 C246 1.377 . S
C260 C259 1.373 . S
C261 C245 1.377 . S
C261 C259 1.389 . S
C261 C262 1.524 . S
C262 C261 1.524 . S
C262 C263 1.397 . S
C262 C267 1.363 . S
C263 H234 0.950 . S
C263 C262 1.397 . S
C263 C264 1.334 . S
C264 H235 0.950 . S
C264 C263 1.334 . S
C264 C265 1.287 . S
C265 C264 1.287 . S
C265 C266 1.524 . S
C265 H268 0.999 . S
C266 H236 0.950 . S
C266 C265 1.524 . S
C266 C267 1.415 . S
C267 H237 0.950 . S
C267 C262 1.363 . S
C267 C266 1.415 . S
H268 C265 0.999 . S
H269 C250 0.913 . S
H270 C288 0.951 . S
H271 C290 0.951 . S
H272 C292 0.950 . S
H273 C293 0.950 . S
H274 C295 0.950 . S
H275 C298 0.950 . S
H276 C299 0.950 . S
H277 C301 0.950 . S
H278 C302 0.950 . S
H279 C303 0.951 . S
H280 C305 0.951 . S
H281 C307 0.950 . S
H282 C308 0.950 . S
H283 C310 0.950 . S
H284 C313 0.950 . S
H285 C314 0.950 . S
H286 C316 0.950 . S
H287 C317 0.950 . S
C288 H270 0.951 . S
C288 C289 1.366 . S
C288 C290 1.388 . S
C289 C288 1.366 . S
C289 C293 1.385 . S
C290 H271 0.951 . S
C290 C288 1.388 . S
C290 C291 1.366 . S
C291 C290 1.366 . S
C291 C292 1.414 1_556 S
C291 C294 1.499 . S
C292 H272 0.950 . S
C292 C291 1.414 1_554 S
C292 C293 1.374 1_554 S
C293 H273 0.950 . S
C293 C289 1.385 . S
C293 C292 1.374 1_556 S
C294 C291 1.499 . S
C294 C295 1.373 1_556 S
C294 C296 1.389 . S
C295 H274 0.950 . S
C295 C294 1.373 1_554 S
C295 C311 1.377 . S
C296 C294 1.389 . S
C296 C297 1.524 . S
C296 C310 1.377 . S
C297 C296 1.524 . S
C297 C298 1.397 . S
C297 C302 1.363 . S
C298 H275 0.950 . S
C298 C297 1.397 . S
C298 C299 1.334 . S
C299 H276 0.950 . S
C299 C298 1.334 . S
C299 C300 1.287 . S
C300 C299 1.287 . S
C300 C301 1.524 . S
C300 H319 0.913 . S
C301 H277 0.950 . S
C301 C300 1.524 . S
C301 C302 1.415 . S
C302 H278 0.950 . S
C302 C297 1.363 . S
C302 C301 1.415 . S
C303 H279 0.951 . S
C303 C304 1.366 . S
C303 C305 1.388 . S
C304 C303 1.366 . S
C304 C308 1.385 . S
C305 H280 0.951 . S
C305 C303 1.388 . S
C305 C306 1.366 . S
C306 C305 1.366 . S
C306 C307 1.414 . S
C306 C309 1.499 . S
C307 H281 0.950 . S
C307 C306 1.414 . S
C307 C308 1.374 . S
C308 H282 0.950 . S
C308 C304 1.385 . S
C308 C307 1.374 . S
C309 C306 1.499 . S
C309 C310 1.373 1_554 S
C309 C311 1.389 . S
C310 H283 0.950 . S
C310 C296 1.377 . S
C310 C309 1.373 1_556 S
C311 C295 1.377 . S
C311 C309 1.389 . S
C311 C312 1.524 . S
C312 C311 1.524 . S
C312 C313 1.397 . S
C312 C317 1.363 . S
C313 H284 0.950 . S
C313 C312 1.397 . S
C313 C314 1.334 . S
C314 H285 0.950 . S
C314 C313 1.334 . S
C314 C315 1.287 . S
C315 C314 1.287 . S
C315 C316 1.524 . S
C315 H318 0.999 . S
C316 H286 0.950 . S
C316 C315 1.524 . S
C316 C317 1.415 . S
C317 H287 0.950 . S
C317 C312 1.363 . S
C317 C316 1.415 . S
H318 C315 0.999 . S
H319 C300 0.913 . S
H320 C338 0.951 . S
H321 C340 0.951 . S
H322 C342 0.950 . S
H323 C343 0.950 . S
H324 C345 0.950 . S
H325 C348 0.950 . S
H326 C349 0.950 . S
H327 C351 0.950 . S
H328 C352 0.950 . S
H329 C353 0.951 . S
H330 C355 0.951 . S
H331 C357 0.950 . S
H332 C358 0.950 . S
H333 C360 0.950 . S
H334 C363 0.950 . S
H335 C364 0.950 . S
H336 C366 0.947 1_556 S
H337 C367 0.950 . S
C338 H320 0.951 . S
C338 C339 1.366 . S
C338 C340 1.388 . S
C339 C338 1.366 . S
C339 C343 1.385 . S
C340 H321 0.951 . S
C340 C338 1.388 . S
C340 C341 1.366 . S
C341 C340 1.366 . S
C341 C342 1.414 . S
C341 C344 1.499 . S
C342 H322 0.950 . S
C342 C341 1.414 . S
C342 C343 1.374 . S
C343 H323 0.950 . S
C343 C339 1.385 . S
C343 C342 1.374 . S
C344 C341 1.499 . S
C344 C345 1.373 . S
C344 C346 1.389 . S
C345 H324 0.950 . S
C345 C344 1.373 . S
C345 C361 1.377 . S
C346 C344 1.389 . S
C346 C347 1.524 . S
C346 C360 1.377 . S
C347 C346 1.524 . S
C347 C348 1.397 . S
C347 C352 1.363 . S
C348 H325 0.950 . S
C348 C347 1.397 . S
C348 C349 1.334 . S
C349 H326 0.950 . S
C349 C348 1.334 . S
C349 C350 1.287 . S
C350 C349 1.287 . S
C350 C351 1.524 . S
C350 H369 0.913 . S
C351 H327 0.950 . S
C351 C350 1.524 . S
C351 C352 1.415 . S
C352 H328 0.950 . S
C352 C347 1.363 . S
C352 C351 1.415 . S
C353 H329 0.951 . S
C353 C354 1.366 . S
C353 C355 1.388 . S
C354 C353 1.366 . S
C354 C358 1.385 . S
C355 H330 0.951 . S
C355 C353 1.388 . S
C355 C356 1.366 . S
C356 C355 1.366 . S
C356 C357 1.414 . S
C356 C359 1.499 . S
C357 H331 0.950 . S
C357 C356 1.414 . S
C357 C358 1.374 . S
C358 H332 0.950 . S
C358 C354 1.385 . S
C358 C357 1.374 . S
C359 C356 1.499 . S
C359 C360 1.373 . S
C359 C361 1.389 . S
C360 H333 0.950 . S
C360 C346 1.377 . S
C360 C359 1.373 . S
C361 C345 1.377 . S
C361 C359 1.389 . S
C361 C362 1.524 . S
C362 C361 1.524 . S
C362 C363 1.397 . S
C362 C367 1.363 . S
C363 H334 0.950 . S
C363 C362 1.397 . S
C363 C364 1.334 . S
C364 H335 0.950 . S
C364 C363 1.334 . S
C364 C365 1.287 . S
C365 C364 1.287 . S
C365 C366 1.524 . S
C365 H368 0.999 1_554 S
C366 H336 0.947 1_554 S
C366 C365 1.524 . S
C366 C367 1.415 . S
C367 H337 0.950 . S
C367 C362 1.363 . S
C367 C366 1.415 . S
H368 C365 0.999 1_556 S
H369 C350 0.913 . S
H370 C388 0.951 . S
H371 C390 0.951 . S
H372 C392 0.950 . S
H373 C393 0.950 . S
H374 C395 0.950 . S
H375 C398 0.950 . S
H376 C399 0.950 . S
H377 C401 0.950 . S
H378 C402 0.950 . S
H379 C403 0.951 . S
H380 C405 0.951 . S
H381 C407 0.950 . S
H382 C408 0.950 . S
H383 C410 0.950 . S
H384 C413 0.950 . S
H385 C414 0.950 . S
H386 C416 0.950 . S
H387 C417 0.950 . S
C388 H370 0.951 . S
C388 C389 1.366 . S
C388 C390 1.388 . S
C389 C388 1.366 . S
C389 C393 1.385 . S
C390 H371 0.951 . S
C390 C388 1.388 . S
C390 C391 1.366 . S
C391 C390 1.366 . S
C391 C392 1.414 . S
C391 C394 1.499 . S
C392 H372 0.950 . S
C392 C391 1.414 . S
C392 C393 1.374 . S
C393 H373 0.950 . S
C393 C389 1.385 . S
C393 C392 1.374 . S
C394 C391 1.499 . S
C394 C395 1.373 . S
C394 C396 1.389 . S
C395 H374 0.950 . S
C395 C394 1.373 . S
C395 C411 1.377 . S
C396 C394 1.389 . S
C396 C397 1.524 . S
C396 C410 1.377 . S
C397 C396 1.524 . S
C397 C398 1.397 . S
C397 C402 1.363 . S
C398 H375 0.950 . S
C398 C397 1.397 . S
C398 C399 1.334 . S
C399 H376 0.950 . S
C399 C398 1.334 . S
C399 C400 1.287 . S
C400 C399 1.287 . S
C400 C401 1.524 . S
C400 H419 0.913 . S
C401 H377 0.950 . S
C401 C400 1.524 . S
C401 C402 1.415 . S
C402 H378 0.950 . S
C402 C397 1.363 . S
C402 C401 1.415 . S
C403 H379 0.951 . S
C403 C404 1.366 . S
C403 C405 1.388 . S
C404 C403 1.366 . S
C404 C408 1.385 . S
C405 H380 0.951 . S
C405 C403 1.388 . S
C405 C406 1.366 . S
C406 C405 1.366 . S
C406 C407 1.414 . S
C406 C409 1.499 . S
C407 H381 0.950 . S
C407 C406 1.414 . S
C407 C408 1.374 . S
C408 H382 0.950 . S
C408 C404 1.385 . S
C408 C407 1.374 . S
C409 C406 1.499 . S
C409 C410 1.373 . S
C409 C411 1.389 . S
C410 H383 0.950 . S
C410 C396 1.377 . S
C410 C409 1.373 . S
C411 C395 1.377 . S
C411 C409 1.389 . S
C411 C412 1.524 . S
C412 C411 1.524 . S
C412 C413 1.397 . S
C412 C417 1.363 . S
C413 H384 0.950 . S
C413 C412 1.397 . S
C413 C414 1.334 . S
C414 H385 0.950 . S
C414 C413 1.334 . S
C414 C415 1.287 . S
C415 C414 1.287 . S
C415 C416 1.524 . S
C415 H418 0.999 . S
C416 H386 0.950 . S
C416 C415 1.524 . S
C416 C417 1.415 . S
C417 H387 0.950 . S
C417 C412 1.363 . S
C417 C416 1.415 . S
H418 C415 0.999 . S
H419 C400 0.913 . S
H420 C438 0.951 . S
H421 C440 0.951 . S
H422 C442 0.950 1_655 S
H423 C443 0.950 1_655 S
H424 C445 0.950 1_655 S
H425 C448 0.950 . S
H426 C449 0.950 . S
H427 C451 0.950 . S
H428 C452 0.950 . S
H429 C453 0.951 . S
H430 C455 0.978 . S
H431 C457 0.950 . S
H432 C458 0.950 . S
H433 C460 0.950 . S
H434 C463 0.950 1_455 S
H435 C464 0.950 . S
H436 C466 0.950 . S
H437 C467 0.950 . S
C438 H420 0.951 . S
C438 C439 1.366 1_556 S
C438 C440 1.388 . S
C439 C438 1.366 1_554 S
C439 C443 1.385 1_554 S
C440 H421 0.951 . S
C440 C438 1.388 . S
C440 C441 1.366 . S
C441 C440 1.366 . S
C441 C442 1.414 . S
C441 C444 1.499 . S
C442 H422 0.950 1_455 S
C442 C441 1.414 . S
C442 C443 1.374 . S
C443 H423 0.950 1_455 S
C443 C439 1.385 1_556 S
C443 C442 1.374 . S
C444 C441 1.499 . S
C444 C445 1.373 . S
C444 C446 1.389 . S
C445 H424 0.950 1_455 S
C445 C444 1.373 . S
C445 C461 1.377 . S
C446 C444 1.389 . S
C446 C447 1.524 . S
C446 C460 1.377 . S
C447 C446 1.524 . S
C447 C448 1.397 . S
C447 C452 1.363 . S
C448 H425 0.950 . S
C448 C447 1.397 . S
C448 C449 1.334 . S
C449 H426 0.950 . S
C449 C448 1.334 . S
C449 C450 1.287 . S
C450 C449 1.287 . S
C450 C451 1.524 . S
C450 H469 0.913 . S
C451 H427 0.950 . S
C451 C450 1.524 . S
C451 C452 1.415 . S
C452 H428 0.950 . S
C452 C447 1.363 . S
C452 C451 1.415 . S
C453 H429 0.951 . S
C453 C454 1.366 1_655 S
C453 C455 1.390 . S
C454 C453 1.366 1_455 S
C454 C458 1.385 . S
C455 H430 0.978 . S
C455 C453 1.390 . S
C455 C456 1.337 1_655 S
C456 C455 1.337 1_455 S
C456 C457 1.414 . S
C456 C459 1.499 . S
C457 H431 0.950 . S
C457 C456 1.414 . S
C457 C458 1.374 . S
C458 H432 0.950 . S
C458 C454 1.385 . S
C458 C457 1.374 . S
C459 C456 1.499 . S
C459 C460 1.373 . S
C459 C461 1.389 . S
C460 H433 0.950 . S
C460 C446 1.377 . S
C460 C459 1.373 . S
C461 C445 1.377 . S
C461 C459 1.389 . S
C461 C462 1.524 1_455 S
C462 C461 1.524 1_655 S
C462 C463 1.397 . S
C462 C467 1.363 . S
C463 H434 0.950 1_655 S
C463 C462 1.397 . S
C463 C464 1.334 . S
C464 H435 0.950 . S
C464 C463 1.334 . S
C464 C465 1.287 . S
C465 C464 1.287 . S
C465 C466 1.524 . S
C465 H468 0.999 . S
C466 H436 0.950 . S
C466 C465 1.524 . S
C466 C467 1.415 . S
C467 H437 0.950 . S
C467 C462 1.363 . S
C467 C466 1.415 . S
H468 C465 0.999 . S
H469 C450 0.913 . S
H470 C488 0.951 . S
H471 C490 0.951 . S
H472 C492 0.950 . S
H473 C493 0.950 . S
H474 C495 0.950 1_565 S
H475 C498 0.950 1_565 S
H476 C499 0.950 1_565 S
H477 C501 0.950 . S
H478 C502 0.950 . S
H479 C503 0.951 . S
H480 C505 0.951 . S
H481 C507 0.950 . S
H482 C508 0.950 . S
H483 C510 0.950 . S
H484 C513 0.950 . S
H485 C514 0.950 . S
H486 C516 0.950 . S
H487 C517 0.950 . S
C488 H470 0.951 . S
C488 C489 1.366 . S
C488 C490 1.388 . S
C489 C488 1.366 . S
C489 C493 1.385 1_545 S
C490 H471 0.951 . S
C490 C488 1.388 . S
C490 C491 1.366 . S
C491 C490 1.366 . S
C491 C492 1.414 1_545 S
C491 C494 1.499 . S
C492 H472 0.950 . S
C492 C491 1.414 1_565 S
C492 C493 1.374 . S
C493 H473 0.950 . S
C493 C489 1.385 1_565 S
C493 C492 1.374 . S
C494 C491 1.499 . S
C494 C495 1.373 . S
C494 C496 1.389 . S
C495 H474 0.950 1_545 S
C495 C494 1.373 . S
C495 C511 1.377 1_554 S
C496 C494 1.389 . S
C496 C497 1.524 . S
C496 C510 1.377 1_554 S
C497 C496 1.524 . S
C497 C498 1.397 . S
C497 C502 1.363 . S
C498 H475 0.950 1_545 S
C498 C497 1.397 . S
C498 C499 1.334 . S
C499 H476 0.950 1_545 S
C499 C498 1.334 . S
C499 C500 1.287 . S
C500 C499 1.287 . S
C500 C501 1.524 . S
C500 H519 0.913 . S
C501 H477 0.950 . S
C501 C500 1.524 . S
C501 C502 1.415 . S
C502 H478 0.950 . S
C502 C497 1.363 . S
C502 C501 1.415 . S
C503 H479 0.951 . S
C503 C504 1.366 1_565 S
C503 C505 1.388 . S
C504 C503 1.366 1_545 S
C504 C508 1.385 . S
C505 H480 0.951 . S
C505 C503 1.388 . S
C505 C506 1.366 1_565 S
C506 C505 1.366 1_545 S
C506 C507 1.414 . S
C506 C509 1.499 . S
C507 H481 0.950 . S
C507 C506 1.414 . S
C507 C508 1.374 . S
C508 H482 0.950 . S
C508 C504 1.385 . S
C508 C507 1.374 . S
C509 C506 1.499 . S
C509 C510 1.373 . S
C509 C511 1.389 . S
C510 H483 0.950 . S
C510 C496 1.377 1_556 S
C510 C509 1.373 . S
C511 C495 1.377 1_556 S
C511 C509 1.389 . S
C511 C512 1.524 1_545 S
C512 C511 1.524 1_565 S
C512 C513 1.397 1_565 S
C512 C517 1.363 . S
C513 H484 0.950 . S
C513 C512 1.397 1_545 S
C513 C514 1.334 . S
C514 H485 0.950 . S
C514 C513 1.334 . S
C514 C515 1.287 1_545 S
C515 C514 1.287 1_565 S
C515 C516 1.524 . S
C515 H518 0.999 . S
C516 H486 0.950 . S
C516 C515 1.524 . S
C516 C517 1.415 . S
C517 H487 0.950 . S
C517 C512 1.363 . S
C517 C516 1.415 . S
H518 C515 0.999 . S
H519 C500 0.913 . S
H520 C538 0.951 . S
H521 C540 0.951 . S
H522 C542 0.950 . S
H523 C543 0.950 . S
H524 C545 0.950 . S
H525 C548 0.950 . S
H526 C549 0.950 . S
H527 C551 0.950 . S
H528 C552 0.950 . S
H529 C553 0.951 . S
H530 C555 0.951 . S
H531 C557 0.950 . S
H532 C558 0.950 1_556 S
H533 C560 0.950 . S
H534 C563 0.950 . S
H535 C564 0.950 . S
H536 C566 0.950 . S
H537 C567 0.950 . S
C538 H520 0.951 . S
C538 C539 1.366 . S
C538 C540 1.388 . S
C539 C538 1.366 . S
C539 C543 1.385 . S
C540 H521 0.951 . S
C540 C538 1.388 . S
C540 C541 1.366 . S
C541 C540 1.366 . S
C541 C542 1.414 . S
C541 C544 1.499 . S
C542 H522 0.950 . S
C542 C541 1.414 . S
C542 C543 1.374 . S
C543 H523 0.950 . S
C543 C539 1.385 . S
C543 C542 1.374 . S
C544 C541 1.499 . S
C544 C545 1.373 . S
C544 C546 1.389 . S
C545 H524 0.950 . S
C545 C544 1.373 . S
C545 C561 1.377 . S
C546 C544 1.389 . S
C546 C547 1.524 . S
C546 C560 1.377 . S
C547 C546 1.524 . S
C547 C548 1.397 . S
C547 C552 1.363 . S
C548 H525 0.950 . S
C548 C547 1.397 . S
C548 C549 1.334 . S
C549 H526 0.950 . S
C549 C548 1.334 . S
C549 C550 1.287 . S
C550 C549 1.287 . S
C550 C551 1.524 . S
C550 H569 0.913 . S
C551 H527 0.950 . S
C551 C550 1.524 . S
C551 C552 1.415 . S
C552 H528 0.950 . S
C552 C547 1.363 . S
C552 C551 1.415 . S
C553 H529 0.951 . S
C553 C554 1.366 1_554 S
C553 C555 1.388 . S
C554 C553 1.366 1_556 S
C554 C558 1.385 1_556 S
C555 H530 0.951 . S
C555 C553 1.388 . S
C555 C556 1.366 . S
C556 C555 1.366 . S
C556 C557 1.414 . S
C556 C559 1.499 . S
C557 H531 0.950 . S
C557 C556 1.414 . S
C557 C558 1.374 . S
C558 H532 0.950 1_554 S
C558 C554 1.385 1_554 S
C558 C557 1.374 . S
C559 C556 1.499 . S
C559 C560 1.373 . S
C559 C561 1.389 . S
C560 H533 0.950 . S
C560 C546 1.377 . S
C560 C559 1.373 . S
C561 C545 1.377 . S
C561 C559 1.389 . S
C561 C562 1.524 . S
C562 C561 1.524 . S
C562 C563 1.397 . S
C562 C567 1.363 . S
C563 H534 0.950 . S
C563 C562 1.397 . S
C563 C564 1.334 . S
C564 H535 0.950 . S
C564 C563 1.334 . S
C564 C565 1.287 . S
C565 C564 1.287 . S
C565 C566 1.524 . S
C565 H568 0.999 . S
C566 H536 0.950 . S
C566 C565 1.524 . S
C566 C567 1.415 . S
C567 H537 0.950 . S
C567 C562 1.363 . S
C567 C566 1.415 . S
H568 C565 0.999 . S
H569 C550 0.913 . S
C139 C25 1.894 . S
C154 C111 1.849 . S
C189 C65 2.127 . S
C204 C20 2.148 . S
C239 C60 2.146 . S
C254 C105 2.119 . S
C289 C100 2.091 . S
C304 C4 2.049 . S
C339 C44 1.769 . S
C354 C31 1.747 . S
C389 C84 1.776 . S
C404 C71 1.748 . S
C439 C2 0.402 . S
C454 C23 0.402 . S
C489 C42 0.349 . S
C504 C63 0.349 . S
C539 C82 0.365 . S
C554 C103 0.365 . S
