# Generated by pormake.
# Topology smm, (6)-cn, num edge types: 1
# Building blocks:
#     Node 0, Type 0, BuildingBlock: GEDQOX_clean_sbu_0, # of connection points: 6
#     Node 1, Type 0, BuildingBlock: GEDQOX_clean_sbu_0, # of connection points: 6
#     Node 2, Type 0, BuildingBlock: GEDQOX_clean_sbu_0, # of connection points: 6
#     Node 3, Type 0, BuildingBlock: GEDQOX_clean_sbu_0, # of connection points: 6
#     Node 4, Type 0, BuildingBlock: GEDQOX_clean_sbu_0, # of connection points: 6
#     Node 5, Type 0, BuildingBlock: GEDQOX_clean_sbu_0, # of connection points: 6
#     Node 6, Type 0, BuildingBlock: GEDQOX_clean_sbu_0, # of connection points: 6
#     Node 7, Type 0, BuildingBlock: GEDQOX_clean_sbu_0, # of connection points: 6
#     Node 8, Type 0, BuildingBlock: GEDQOX_clean_sbu_0, # of connection points: 6
#     Edge 9, Type (0, 0), BuildingBlock: UVAHIK_clean_linker_0, # of connection points: 2
#     Edge 10, Type (0, 0), BuildingBlock: UVAHIK_clean_linker_0, # of connection points: 2
#     Edge 11, Type (0, 0), BuildingBlock: UVAHIK_clean_linker_0, # of connection points: 2
#     Edge 12, Type (0, 0), BuildingBlock: UVAHIK_clean_linker_0, # of connection points: 2
#     Edge 13, Type (0, 0), BuildingBlock: UVAHIK_clean_linker_0, # of connection points: 2
#     Edge 14, Type (0, 0), BuildingBlock: UVAHIK_clean_linker_0, # of connection points: 2
#     Edge 15, Type (0, 0), BuildingBlock: UVAHIK_clean_linker_0, # of connection points: 2
#     Edge 16, Type (0, 0), BuildingBlock: UVAHIK_clean_linker_0, # of connection points: 2
#     Edge 17, Type (0, 0), BuildingBlock: UVAHIK_clean_linker_0, # of connection points: 2
#     Edge 18, Type (0, 0), BuildingBlock: UVAHIK_clean_linker_0, # of connection points: 2
#     Edge 19, Type (0, 0), BuildingBlock: UVAHIK_clean_linker_0, # of connection points: 2
#     Edge 20, Type (0, 0), BuildingBlock: UVAHIK_clean_linker_0, # of connection points: 2
#     Edge 21, Type (0, 0), BuildingBlock: UVAHIK_clean_linker_0, # of connection points: 2
#     Edge 22, Type (0, 0), BuildingBlock: UVAHIK_clean_linker_0, # of connection points: 2
#     Edge 23, Type (0, 0), BuildingBlock: UVAHIK_clean_linker_0, # of connection points: 2
#     Edge 24, Type (0, 0), BuildingBlock: UVAHIK_clean_linker_0, # of connection points: 2
#     Edge 25, Type (0, 0), BuildingBlock: UVAHIK_clean_linker_0, # of connection points: 2
#     Edge 26, Type (0, 0), BuildingBlock: UVAHIK_clean_linker_0, # of connection points: 2
#     Edge 27, Type (0, 0), BuildingBlock: UVAHIK_clean_linker_0, # of connection points: 2
#     Edge 28, Type (0, 0), BuildingBlock: UVAHIK_clean_linker_0, # of connection points: 2
#     Edge 29, Type (0, 0), BuildingBlock: UVAHIK_clean_linker_0, # of connection points: 2
#     Edge 30, Type (0, 0), BuildingBlock: UVAHIK_clean_linker_0, # of connection points: 2
#     Edge 31, Type (0, 0), BuildingBlock: UVAHIK_clean_linker_0, # of connection points: 2
#     Edge 32, Type (0, 0), BuildingBlock: UVAHIK_clean_linker_0, # of connection points: 2
#     Edge 33, Type (0, 0), BuildingBlock: UVAHIK_clean_linker_0, # of connection points: 2
#     Edge 34, Type (0, 0), BuildingBlock: UVAHIK_clean_linker_0, # of connection points: 2
#     Edge 35, Type (0, 0), BuildingBlock: UVAHIK_clean_linker_0, # of connection points: 2
# Relax obj value: 0.060
# Max RMSD: 0.138
# Mean RMSD: 0.138
data_MOF--net-smm--node1-GEDQOX_clean_sbu_0--edge1-UVAHIK_clean_linker_0
_symmetry_space_group_name_H-M    P1
_symmetry_Int_Tables_number       1
_symmetry_cell_setting            triclinic
loop_
_symmetry_equiv_pos_as_xyz
'x, y, z'
_cell_length_a     86.216231
_cell_length_b     86.587746
_cell_length_c     18.451855
_cell_angle_alpha  89.872104
_cell_angle_beta   90.099384
_cell_angle_gamma 120.01097
loop_
_atom_site_label
_atom_site_type_symbol
_atom_site_fract_x
_atom_site_fract_y
_atom_site_fract_z
_atom_type_partial_charge
Nd0 Nd 0.05705 0.21781 0.00159 0.0
Nd1 Nd 1.02468 0.17933 0.00663 0.0
C2 C 0.0868 0.24954 0.00208 0.0
C3 C 0.09355 0.26802 0.97449 0.0
C4 C 0.10286 0.28263 0.02116 0.0
C5 C 0.11029 0.3002 -0.00467 0.0
C6 C 0.1087 0.30368 0.92178 0.0
C7 C 0.09913 0.28896 0.87534 0.0
C8 C 0.09164 0.2714 0.90131 0.0
C9 C 0.03609 0.20675 0.8794 0.0
C10 C 1.0189 0.21373 0.04483 0.0
C11 C 0.9951 0.14776 -0.00857 0.0
C12 C 0.98837 0.12818 -0.00454 0.0
C13 C 0.98306 0.11781 0.932 0.0
C14 C 0.97536 0.0992 0.93529 0.0
C15 C 0.97263 0.09034 0.00228 0.0
C16 C 0.97818 0.10078 0.06573 0.0
C17 C 0.9859 0.1194 0.06241 0.0
C18 C 0.04521 0.19008 0.12979 0.0
C19 C 0.06351 0.18334 0.98179 0.0
O20 O 0.07517 0.2439 0.0552 0.0
O21 O 0.08334 0.2371 0.95414 0.0
O22 O 0.04325 0.22275 0.90533 0.0
O23 O 0.04073 0.19753 0.91624 0.0
O24 O 0.03645 0.22378 0.05217 0.0
O25 O 1.01151 0.19717 0.01936 0.0
O26 O 1.0055 0.15675 0.93705 0.0
O27 O 0.99975 0.15686 0.05194 0.0
O28 O 0.03758 0.17391 0.10482 0.0
O29 O 0.04098 0.19954 0.09217 0.0
O30 O 0.04626 0.17334 0.96703 0.0
O31 O 0.07026 0.19994 0.0059 0.0
H32 H 0.10456 0.28046 0.07777 0.0
H33 H 0.11723 0.31105 0.03332 0.0
H34 H 0.09774 0.29096 0.81829 0.0
H35 H 0.08457 0.26048 0.86368 0.0
H36 H 0.98463 0.12409 0.8796 0.0
H37 H 0.97155 0.09175 0.88508 0.0
H38 H 0.97612 0.09453 0.11844 0.0
H39 H 0.98962 0.12686 0.11262 0.0
Nd40 Nd 0.85059 0.85703 0.01852 0.0
Nd41 Nd 0.88715 0.85938 -0.01054 0.0
C42 C 0.817 0.84857 0.04785 0.0
C43 C 0.79897 0.83853 0.01275 0.0
C44 C 0.78464 0.82443 0.04984 0.0
C45 C 0.76743 0.81528 0.01901 0.0
C46 C 0.76397 0.81999 0.95007 0.0
C47 C 0.77842 0.83402 0.91269 0.0
C48 C 0.79565 0.84314 0.94349 0.0
C49 C 0.86087 0.86006 0.87719 0.0
C50 C 0.85325 0.8201 0.01353 0.0
C51 C 0.91948 0.86737 0.94148 0.0
C52 C 0.93901 0.88037 0.95108 0.0
C53 C 0.94946 0.88992 0.89109 0.0
C54 C 0.96813 0.90086 0.89726 0.0
C55 C 0.97697 0.90252 0.96367 0.0
C56 C 0.96639 0.89323 0.02412 0.0
C57 C 0.94772 0.88232 0.01794 0.0
C58 C 0.87778 0.85558 0.13149 0.0
C59 C 0.88511 0.89639 0.02041 0.0
O60 O 0.82423 0.83939 0.07196 0.0
O61 O 0.8288 0.86363 0.0181 0.0
O62 O 0.85222 0.86742 0.90278 0.0
O63 O 0.86257 0.85047 0.92361 0.0
O64 O 0.84526 0.8285 0.04028 0.0
O65 O 0.86865 0.82889 0.978 0.0
O66 O 0.90948 0.87274 0.90909 0.0
O67 O 0.91113 0.85629 -0.00534 0.0
O68 O 0.88688 0.84906 0.10203 0.0
O69 O 0.87519 0.8653 0.08786 0.0
O70 O 0.89355 0.88892 -0.01128 0.0
O71 O 0.86902 0.88647 0.04942 0.0
H72 H 0.78674 0.82053 0.10317 0.0
H73 H 0.75685 0.8044 0.04928 0.0
H74 H 0.7764 0.83827 0.86004 0.0
H75 H 0.80632 0.85393 0.91315 0.0
H76 H 0.94321 0.88867 0.83879 0.0
H77 H 0.97564 0.90799 0.84964 0.0
H78 H 0.97257 0.8939 0.07602 0.0
H79 H 0.94017 0.87511 0.06538 0.0
Nd80 Nd 0.21154 1.01211 0.02387 0.0
Nd81 Nd 0.20972 0.04603 -0.01369 0.0
C82 C 0.21899 0.987 0.06506 0.0
C83 C 0.22993 0.97932 0.03775 0.0
C84 C 0.22531 0.96183 0.05683 0.0
C85 C 0.23498 0.95402 0.02955 0.0
C86 C 0.2496 0.9635 0.98225 0.0
C87 C 0.25426 0.98112 0.96362 0.0
C88 C 0.24452 0.98891 -0.00916 0.0
C89 C 0.21007 0.01824 0.87973 0.0
C90 C 0.24886 0.05146 0.01903 0.0
C91 C 0.20277 0.07045 0.93172 0.0
C92 C 0.19031 0.07766 0.93956 0.0
C93 C 0.17938 0.07675 0.88119 0.0
C94 C 0.16881 0.08489 0.88528 0.0
C95 C 0.16898 0.09432 0.94775 0.0
C96 C 0.1797 0.09494 0.00662 0.0
C97 C 0.1902 0.08674 0.00264 0.0
C98 C 0.21014 0.03995 0.13149 0.0
C99 C 0.172 1.00709 0.00958 0.0
O100 O 0.22751 1.00338 0.0895 0.0
O101 O 0.20501 0.98378 0.02634 0.0
O102 O 0.20276 1.00255 0.90826 0.0
O103 O 0.2192 0.03007 0.92542 0.0
O104 O 0.24012 0.03528 0.04762 0.0
O105 O 0.24037 0.05782 0.97996 0.0
O106 O 0.19664 0.05461 0.90308 0.0
O107 O 0.21412 0.0735 0.98434 0.0
O108 O 0.21749 0.05568 0.10263 0.0
O109 O 0.20167 0.02804 0.08505 0.0
O110 O 0.18015 0.02287 0.9768 0.0
O111 O 0.1814 1.00113 0.04483 0.0
H112 H 0.2141 0.95412 0.09277 0.0
H113 H 0.23108 0.94056 0.0462 0.0
H114 H 0.26524 0.98883 0.92676 0.0
H115 H 0.24828 1.00237 0.97466 0.0
H116 H 0.1793 0.07005 0.83154 0.0
H117 H 0.1609 0.08424 0.8385 0.0
H118 H 0.18002 0.10181 0.05606 0.0
H119 H 0.19845 0.08778 0.04879 0.0
Nd120 Nd 0.72403 0.5525 0.35816 0.0
Nd121 Nd 0.68979 0.51617 0.32602 0.0
C122 C 0.74903 0.58582 0.38967 0.0
C123 C 0.75697 0.60383 0.35486 0.0
C124 C 0.75456 0.61726 0.38631 0.0
C125 C 0.76238 0.63439 0.35551 0.0
C126 C 0.77296 0.63869 0.29234 0.0
C127 C 0.77527 0.62516 0.2607 0.0
C128 C 0.76741 0.60802 0.29145 0.0
C129 C 0.71705 0.54296 0.21616 0.0
C130 C 0.6843 0.54992 0.35198 0.0
C131 C 0.66562 0.48427 0.27512 0.0
C132 C 0.65912 0.46482 0.28415 0.0
C133 C 0.65784 0.45443 0.22353 0.0
C134 C 0.65021 0.43584 0.22946 0.0
C135 C 0.64351 0.42705 0.29621 0.0
C136 C 0.64514 0.43754 0.35719 0.0
C137 C 0.65284 0.45614 0.35131 0.0
C138 C 0.69509 0.5249 0.46846 0.0
C139 C 0.72895 0.51803 0.35806 0.0
O140 O 0.73253 0.5785 0.41312 0.0
O141 O 0.75247 0.57415 0.36007 0.0
O142 O 0.73305 0.55146 0.24238 0.0
O143 O 0.70564 0.54102 0.26241 0.0
O144 O 0.70065 0.5577 0.37983 0.0
O145 O 0.67781 0.53475 0.31531 0.0
O146 O 0.6812 0.49431 0.24423 0.0
O147 O 0.66261 0.4924 0.32818 0.0
O148 O 0.67945 0.51577 0.43877 0.0
O149 O 0.7075 0.52768 0.42508 0.0
O150 O 0.71306 0.50977 0.32564 0.0
O151 O 0.73506 0.53396 0.38797 0.0
H152 H 0.74663 0.61452 0.43513 0.0
H153 H 0.76 0.64425 0.38111 0.0
H154 H 0.78347 0.62789 0.21277 0.0
H155 H 0.76969 0.59811 0.26564 0.0
H156 H 0.66238 0.46067 0.17095 0.0
H157 H 0.64906 0.4283 0.18105 0.0
H158 H 0.64043 0.43138 0.40975 0.0
H159 H 0.6536 0.46366 0.3993 0.0
Nd160 Nd 0.51885 0.19341 0.33535 0.0
Nd161 Nd 0.55478 0.19524 0.30183 0.0
C162 C 0.48588 0.18577 0.37209 0.0
C163 C 0.46743 0.17481 0.34256 0.0
C164 C 0.45498 0.18063 0.3511 0.0
C165 C 0.43768 0.17089 0.3216 0.0
C166 C 0.43231 0.15502 0.28262 0.0
C167 C 0.44483 0.14916 0.27456 0.0
C168 C 0.46218 0.15896 0.30392 0.0
C169 C 0.52746 0.19561 0.19216 0.0
C170 C 0.52092 0.15622 0.33005 0.0
C171 C 0.58654 0.20228 0.2506 0.0
C172 C 0.60618 0.21462 0.26044 0.0
C173 C 0.61659 0.22531 0.20241 0.0
C174 C 0.63531 0.23576 0.2085 0.0
C175 C 0.64418 0.23572 0.27269 0.0
C176 C 0.63368 0.22524 0.33119 0.0
C177 C 0.61497 0.21487 0.32522 0.0
C178 C 0.5474 0.19419 0.44641 0.0
C179 C 0.55342 0.23276 0.32608 0.0
O180 O 0.49375 0.17739 0.3985 0.0
O181 O 0.49684 0.19979 0.33427 0.0
O182 O 0.51904 0.20296 0.22007 0.0
O183 O 0.52975 0.18617 0.2378 0.0
O184 O 0.51328 0.16482 0.35799 0.0
O185 O 0.53602 0.1648 0.29269 0.0
O186 O 0.57696 0.20851 0.22092 0.0
O187 O 0.57796 0.19084 0.30244 0.0
O188 O 0.55584 0.18684 0.41805 0.0
O189 O 0.54427 0.2029 0.39981 0.0
O190 O 0.56128 0.22478 0.29371 0.0
O191 O 0.53783 0.22325 0.35959 0.0
H192 H 0.45867 0.1928 0.38051 0.0
H193 H 0.42844 0.17576 0.33003 0.0
H194 H 0.44135 0.13716 0.24427 0.0
H195 H 0.47155 0.15423 0.29581 0.0
H196 H 0.61028 0.22528 0.15155 0.0
H197 H 0.64289 0.24348 0.16197 0.0
H198 H 0.63992 0.22503 0.38186 0.0
H199 H 0.60744 0.20681 0.37117 0.0
Nd200 Nd 0.87967 0.34627 0.35026 0.0
Nd201 Nd 0.8734 0.37864 0.35364 0.0
C202 C 0.88116 0.31627 0.35385 0.0
C203 C 0.89281 0.30904 0.33121 0.0
C204 C 0.88796 0.29146 0.34973 0.0
C205 C 0.89814 0.28391 0.32589 0.0
C206 C 0.91351 0.29374 0.28272 0.0
C207 C 0.91848 0.3115 0.26505 0.0
C208 C 0.90822 0.31904 0.28887 0.0
C209 C 0.88975 0.36712 0.2279 0.0
C210 C 0.91357 0.38428 0.395 0.0
C211 C 0.87125 0.40808 0.33752 0.0
C212 C 0.85827 0.41476 0.34037 0.0
C213 C 0.85366 0.42045 0.27659 0.0
C214 C 0.84266 0.42813 0.27893 0.0
C215 C 0.836 0.43046 0.34527 0.0
C216 C 0.84045 0.42452 0.40902 0.0
C217 C 0.85143 0.41682 0.40664 0.0
C218 C 0.86342 0.35815 0.47686 0.0
C219 C 0.83871 0.34002 0.32668 0.0
O220 O 0.88673 0.32783 0.40698 0.0
O221 O 0.87346 0.32034 0.30203 0.0
O222 O 0.89861 0.35998 0.25457 0.0
O223 O 0.87581 0.36256 0.26427 0.0
O224 O 0.90609 0.3668 0.40225 0.0
O225 O 0.90446 0.39167 0.3681 0.0
O226 O 0.87009 0.3978 0.2833 0.0
O227 O 0.87555 0.40339 0.39849 0.0
O228 O 0.85487 0.36576 0.45124 0.0
O229 O 0.8772 0.36236 0.43973 0.0
O230 O 0.84599 0.35721 0.31215 0.0
O231 O 0.84851 0.33324 0.35193 0.0
H232 H 0.87613 0.28347 0.38229 0.0
H233 H 0.894 0.27034 0.34182 0.0
H234 H 0.93008 0.31948 0.23142 0.0
H235 H 0.91219 0.3326 0.27347 0.0
H236 H 0.85878 0.4192 0.2247 0.0
H237 H 0.83938 0.43224 0.22846 0.0
H238 H 0.83585 0.42626 0.46131 0.0
H239 H 0.85481 0.41279 0.45711 0.0
Nd240 Nd 0.38969 0.88648 0.66562 0.0
Nd241 Nd 0.35742 0.84819 0.67493 0.0
C242 C 0.41959 0.91809 0.66052 0.0
C243 C 0.42652 0.93651 0.63099 0.0
C244 C 0.42314 0.94901 0.66553 0.0
C245 C 0.43053 0.96651 0.63873 0.0
C246 C 0.4416 0.97208 0.57674 0.0
C247 C 0.44485 0.95948 0.54216 0.0
C248 C 0.4375 0.94203 0.569 0.0
C249 C 0.36791 0.87487 0.54567 0.0
C250 C 0.35203 0.88281 0.71453 0.0
C251 C 0.32768 0.81666 0.66227 0.0
C252 C 0.32102 0.79709 0.6643 0.0
C253 C 0.3134 0.78671 0.60191 0.0
C254 C 0.30576 0.76809 0.60397 0.0
C255 C 0.30542 0.75925 0.66872 0.0
C256 C 0.31332 0.76972 0.73095 0.0
C257 C 0.32098 0.78835 0.72882 0.0
C258 C 0.37866 0.85937 0.7962 0.0
C259 C 0.39595 0.85186 0.64653 0.0
O260 O 0.40842 0.91283 0.71529 0.0
O261 O 0.41561 0.90533 0.61362 0.0
O262 O 0.37506 0.89091 0.57106 0.0
O263 O 0.37284 0.86584 0.58224 0.0
O264 O 0.36964 0.8929 0.71874 0.0
O265 O 0.34439 0.8661 0.69045 0.0
O266 O 0.33742 0.8258 0.60669 0.0
O267 O 0.33308 0.82556 0.7231 0.0
O268 O 0.37096 0.84314 0.77169 0.0
O269 O 0.37427 0.86874 0.75872 0.0
O270 O 0.37862 0.84186 0.63354 0.0
O271 O 0.40288 0.86856 0.66958 0.0
H272 H 0.41493 0.94536 0.71384 0.0
H273 H 0.42786 0.97579 0.6677 0.0
H274 H 0.45304 0.96304 0.49381 0.0
H275 H 0.44053 0.93284 0.54126 0.0
H276 H 0.3131 0.79299 0.55147 0.0
H277 H 0.30012 0.76063 0.55456 0.0
H278 H 0.31316 0.7635 0.7821 0.0
H279 H 0.32659 0.79585 0.77821 0.0
Nd280 Nd 0.18486 0.52559 0.69979 0.0
Nd281 Nd 0.22113 0.52839 0.66117 0.0
C282 C 0.15188 0.517 0.74051 0.0
C283 C 0.13334 0.50664 0.71039 0.0
C284 C 0.11972 0.49273 0.751 0.0
C285 C 0.1021 0.48312 0.72435 0.0
C286 C 0.09756 0.48721 0.65634 0.0
C287 C 0.11126 0.50112 0.61563 0.0
C288 C 0.12889 0.51066 0.64213 0.0
C289 C 0.1923 0.52742 0.55548 0.0
C290 C 0.18819 0.48918 0.69432 0.0
C291 C 0.2526 0.53594 0.605 0.0
C292 C 0.27213 0.54885 0.61129 0.0
C293 C 0.28308 0.553 0.5498 0.0
C294 C 0.30175 0.56383 0.55532 0.0
C295 C 0.31004 0.57081 0.62269 0.0
C296 C 0.29894 0.56697 0.68402 0.0
C297 C 0.28023 0.55614 0.6784 0.0
C298 C 0.2147 0.52752 0.8065 0.0
C299 C 0.21877 0.5653 0.68742 0.0
O300 O 0.15967 0.50805 0.76089 0.0
O301 O 0.163 0.53199 0.7084 0.0
O302 O 0.18356 0.53432 0.58436 0.0
O303 O 0.19542 0.5185 0.60086 0.0
O304 O 0.18078 0.49768 0.72527 0.0
O305 O 0.20268 0.49785 0.65335 0.0
O306 O 0.24233 0.54148 0.57632 0.0
O307 O 0.24498 0.52509 0.65955 0.0
O308 O 0.22344 0.52058 0.77727 0.0
O309 O 0.21088 0.5358 0.76038 0.0
O310 O 0.22677 0.55766 0.65361 0.0
O311 O 0.20345 0.55554 0.72249 0.0
H312 H 0.12267 0.48936 0.80386 0.0
H313 H 0.09195 0.47267 0.75781 0.0
H314 H 0.10842 0.50454 0.56268 0.0
H315 H 0.13903 0.52122 0.60902 0.0
H316 H 0.2772 0.54757 0.49743 0.0
H317 H 0.3097 0.5667 0.50655 0.0
H318 H 0.30471 0.5719 0.73696 0.0
H319 H 0.27214 0.55314 0.72685 0.0
Nd320 Nd 0.5445 0.68049 0.66857 0.0
Nd321 Nd 0.54267 0.71452 0.63794 0.0
C322 C 0.55253 0.65531 0.70142 0.0
C323 C 0.56277 0.64733 0.66842 0.0
C324 C 0.57814 0.64916 0.70305 0.0
C325 C 0.58763 0.64132 0.67392 0.0
C326 C 0.58199 0.63131 0.60932 0.0
C327 C 0.56659 0.62953 0.57464 0.0
C328 C 0.55714 0.63742 0.60366 0.0
C329 C 0.54234 0.6875 0.52585 0.0
C330 C 0.58172 0.71985 0.66929 0.0
C331 C 0.53554 0.73927 0.58836 0.0
C332 C 0.52284 0.7462 0.59671 0.0
C333 C 0.51092 0.74415 0.54046 0.0
C334 C 0.50018 0.75211 0.54466 0.0
C335 C 0.50109 0.76248 0.60513 0.0
C336 C 0.51283 0.76426 0.66192 0.0
C337 C 0.52354 0.75628 0.65776 0.0
C338 C 0.5437 0.70766 0.78207 0.0
C339 C 0.50498 0.6755 0.66121 0.0
O340 O 0.56166 0.67168 0.72548 0.0
O341 O 0.53762 0.65211 0.66992 0.0
O342 O 0.53501 0.67166 0.55295 0.0
O343 O 0.55182 0.69904 0.57199 0.0
O344 O 0.57283 0.7035 0.6961 0.0
O345 O 0.57336 0.72649 0.63109 0.0
O346 O 0.5299 0.72387 0.5564 0.0
O347 O 0.54647 0.74178 0.642 0.0
O348 O 0.55116 0.72351 0.75426 0.0
O349 O 0.53492 0.69597 0.73511 0.0
O350 O 0.51297 0.69149 0.63008 0.0
O351 O 0.51455 0.66932 0.69347 0.0
H352 H 0.58278 0.65656 0.75325 0.0
H353 H 0.59924 0.64285 0.70297 0.0
H354 H 0.5619 0.62216 0.52442 0.0
H355 H 0.54538 0.63568 0.57521 0.0
H356 H 0.51013 0.73663 0.49239 0.0
H357 H 0.49116 0.75014 0.5002 0.0
H358 H 0.51421 0.7723 0.70896 0.0
H359 H 0.53267 0.75839 0.70193 0.0
C360 C 0.10876 0.32717 0.83889 0.0
C361 C 0.11711 0.32251 0.8936 0.0
C362 C 0.11663 0.34472 0.81255 0.0
C363 C 0.16004 0.38822 0.80663 0.0
H364 H 0.12919 0.40729 0.7574 0.0
C365 C 0.18797 0.45976 0.68447 0.0
C366 C 0.18011 0.46964 0.70926 0.0
C367 C 0.18046 0.44157 0.7023 0.0
C368 C 0.13808 0.40228 0.77126 0.0
H369 H 0.14071 0.33307 0.96216 0.0
H370 H 0.15406 0.36361 0.91815 0.0
H371 H 0.11606 0.37666 0.79936 0.0
H372 H 0.15797 0.46779 0.7722 0.0
H373 H 0.14521 0.4366 0.80347 0.0
H374 H 0.1821 0.41412 0.78073 0.0
C375 C 0.14149 0.35362 0.89466 0.0
C376 C 0.13049 0.38453 0.79455 0.0
C377 C 0.13365 0.33605 0.92085 0.0
C378 C 0.16446 0.46075 0.75164 0.0
C379 C 0.157 0.44268 0.76932 0.0
C380 C 0.16766 0.40603 0.78341 0.0
C381 C 0.13311 0.35828 0.84013 0.0
C382 C 0.14132 0.3772 0.81316 0.0
C383 C 0.16485 0.43274 0.74519 0.0
C384 C 0.1568 0.41342 0.76601 0.0
H385 H 0.09596 0.31729 0.81678 0.0
H386 H 0.10979 0.34761 0.76998 0.0
H387 H 0.1689 0.3831 0.81931 0.0
H388 H 0.20002 0.46611 0.65185 0.0
H389 H 0.18684 0.43439 0.68199 0.0
C390 C 0.74265 0.80725 0.84276 0.0
C391 C 0.74539 0.81047 0.91791 0.0
C392 C 0.72529 0.79827 0.81312 0.0
C393 C 0.67764 0.76751 0.86431 0.0
H394 H 0.66699 0.78094 0.67813 0.0
C395 C 0.61 0.72285 0.72206 0.0
C396 C 0.60122 0.7309 0.68766 0.0
C397 C 0.62771 0.73301 0.74631 0.0
C398 C 0.66967 0.77706 0.73041 0.0
H399 H 0.73153 0.80701 0.01992 0.0
H400 H 0.7015 0.79135 0.96869 0.0
H401 H 0.69726 0.79787 0.72851 0.0
H402 H 0.60473 0.75618 0.65017 0.0
H403 H 0.63578 0.77402 0.69275 0.0
H404 H 0.65013 0.74689 0.86699 0.0
C405 C 0.71279 0.79551 0.93258 0.0
C406 C 0.68714 0.78668 0.75906 0.0
C407 C 0.73013 0.80451 0.96216 0.0
C408 C 0.611 0.74947 0.67616 0.0
C409 C 0.62885 0.75971 0.7006 0.0
C410 C 0.66027 0.75788 0.83562 0.0
C411 C 0.71005 0.79216 0.8576 0.0
C412 C 0.69141 0.78204 0.82654 0.0
C413 C 0.63737 0.75164 0.73731 0.0
C414 C 0.65598 0.76241 0.76804 0.0
H415 H 0.75394 0.81135 0.80668 0.0
H416 H 0.72381 0.79578 0.75534 0.0
H417 H 0.68032 0.76333 0.91592 0.0
H418 H 0.60309 0.70859 0.73143 0.0
H419 H 0.63382 0.72617 0.77255 0.0
C420 C 0.27851 0.96487 0.94325 0.0
C421 C 0.25979 0.95498 0.95238 0.0
C422 C 0.288 0.95685 0.91595 0.0
C423 C 0.28426 0.91228 0.88482 0.0
H424 H 0.32531 0.9395 0.7604 0.0
C425 C 0.32195 0.88029 0.74179 0.0
C426 C 0.34077 0.89059 0.73853 0.0
C427 C 0.31166 0.88778 0.76603 0.0
C428 C 0.31399 0.9317 0.79566 0.0
H429 H 0.23647 0.92875 0.93779 0.0
H430 H 0.25291 0.91487 0.89017 0.0
H431 H 0.30848 0.95314 0.80584 0.0
H432 H 0.36336 0.91704 0.75844 0.0
H433 H 0.34561 0.92991 0.80047 0.0
H434 H 0.28981 0.89083 0.87435 0.0
C435 C 0.26037 0.92879 0.9055 0.0
C436 C 0.3043 0.93958 0.82198 0.0
C437 C 0.25089 0.9368 0.93293 0.0
C438 C 0.34893 0.9086 0.75982 0.0
C439 C 0.33869 0.91608 0.78364 0.0
C440 C 0.29395 0.90438 0.85831 0.0
C441 C 0.27911 0.93866 0.89658 0.0
C442 C 0.28931 0.93006 0.8674 0.0
C443 C 0.31988 0.90583 0.78729 0.0
C444 C 0.30906 0.914 0.81366 0.0
H445 H 0.28595 0.9788 0.9585 0.0
H446 H 0.30242 0.96491 0.91128 0.0
H447 H 0.273 0.90451 0.92037 0.0
H448 H 0.31513 0.86639 0.72596 0.0
H449 H 0.29722 0.87946 0.7673 0.0
C450 C 0.40423 0.12594 0.25085 0.0
C451 C 0.4138 0.14473 0.25046 0.0
C452 C 0.38687 0.11636 0.22157 0.0
C453 C 0.34767 0.12128 0.16591 0.0
H454 H 0.33243 0.07623 0.06934 0.0
C455 C 0.27783 0.08126 0.02396 0.0
C456 C 0.26846 0.06268 0.03517 0.0
C457 C 0.29587 0.09173 0.04548 0.0
C458 C 0.33637 0.08872 0.09662 0.0
H459 H 0.41243 0.16803 0.21675 0.0
H460 H 0.3824 0.15144 0.16554 0.0
H461 H 0.36285 0.09332 0.11624 0.0
H462 H 0.2711 0.04062 0.07643 0.0
H463 H 0.3022 0.05866 0.11327 0.0
H464 H 0.32111 0.11661 0.14606 0.0
C465 C 0.38813 0.14403 0.18989 0.0
C466 C 0.35389 0.09855 0.12386 0.0
C467 C 0.40546 0.1536 0.21937 0.0
C468 C 0.27777 0.05486 0.06676 0.0
C469 C 0.29576 0.06525 0.08765 0.0
C470 C 0.33014 0.11146 0.13839 0.0
C471 C 0.37849 0.12523 0.19058 0.0
C472 C 0.35983 0.11494 0.15958 0.0
C473 C 0.30508 0.08388 0.07812 0.0
C474 C 0.32414 0.09492 0.10388 0.0
H475 H 0.41 0.11857 0.27514 0.0
H476 H 0.3799 0.10195 0.22456 0.0
H477 H 0.35151 0.13367 0.1938 0.0
H478 H 0.27113 0.0878 0.0001 0.0
H479 H 0.3026 0.10599 0.03648 0.0
C480 C 0.91553 0.26739 0.23427 0.0
C481 C 0.92414 0.2854 0.25609 0.0
C482 C 0.9254 0.25948 0.21042 0.0
C483 C 0.97112 0.26487 0.21741 0.0
H484 H 0.95386 0.23112 0.05846 0.0
C485 C 1.01544 0.23931 0.08981 0.0
C486 C 1.00744 0.22145 0.06668 0.0
C487 C 1.00502 0.24673 0.11194 0.0
C488 C 0.95881 0.24033 0.10356 0.0
H489 H 0.95018 0.30908 0.26947 0.0
H490 H 0.96733 0.29542 0.2271 0.0
H491 H 0.93649 0.2448 0.09803 0.0
H492 H 0.98191 0.19746 0.04864 0.0
H493 H 0.96369 0.21033 0.08806 0.0
H494 H 0.99336 0.26039 0.22338 0.0
C495 C 0.95287 0.28731 0.22912 0.0
C496 C 0.94882 0.24823 0.12631 0.0
C497 C 0.94299 0.29525 0.25272 0.0
C498 C 0.9886 0.21126 0.06587 0.0
C499 C 0.97813 0.2187 0.08823 0.0
C500 C 0.98108 0.25696 0.19482 0.0
C501 C 0.94425 0.26927 0.20774 0.0
C502 C 0.95485 0.2607 0.18343 0.0
C503 C 0.98618 0.23655 0.11207 0.0
C504 C 0.97517 0.24462 0.13722 0.0
H505 H 0.90106 0.25936 0.23504 0.0
H506 H 0.91821 0.24554 0.19513 0.0
H507 H 0.97609 0.2741 0.26247 0.0
H508 H 0.02988 0.24771 0.0909 0.0
H509 H 1.01183 0.26059 0.12831 0.0
C510 C 0.8547 0.79157 0.02502 0.0
C511 C 0.84493 0.80058 0.02938 0.0
C512 C 0.84716 0.77377 0.049 0.0
C513 C 0.81101 0.74109 0.17135 0.0
H514 H 0.82011 0.70619 0.07969 0.0
C515 C 0.78848 0.67234 0.30499 0.0
C516 C 0.78167 0.65717 0.26021 0.0
C517 C 0.79655 0.68959 0.27529 0.0
C518 C 0.81731 0.71571 0.1058 0.0
H519 H 0.81914 0.79741 0.05908 0.0
H520 H 0.80607 0.76668 0.0989 0.0
H521 H 0.83311 0.73621 0.02844 0.0
H522 H 0.7781 0.64862 0.14797 0.0
H523 H 0.79215 0.67859 0.09644 0.0
H524 H 0.79498 0.72065 0.24782 0.0
C525 C 0.81972 0.77338 0.07907 0.0
C526 C 0.82496 0.73305 0.07675 0.0
C527 C 0.82722 0.79107 0.05552 0.0
C528 C 0.78335 0.65988 0.18457 0.0
C529 C 0.79146 0.67716 0.15483 0.0
C530 C 0.80342 0.72383 0.20038 0.0
C531 C 0.82966 0.76452 0.07786 0.0
C532 C 0.82185 0.746 0.10887 0.0
C533 C 0.79813 0.69231 0.1997 0.0
C534 C 0.80641 0.71082 0.16817 0.0
H535 H 0.86838 0.79846 0.00562 0.0
H536 H 0.85531 0.76749 0.0473 0.0
H537 H 0.80846 0.75066 0.19861 0.0
H538 H 0.78783 0.67096 0.3634 0.0
H539 H 0.80179 0.70084 0.31194 0.0
C540 C 0.071 0.48584 0.59071 0.0
C541 C 0.07865 0.47708 0.62824 0.0
C542 C 0.05327 0.47639 0.56514 0.0
C543 C 1.01026 0.43319 0.58907 0.0
H544 H 0.99729 0.44617 0.40697 0.0
C545 C 0.94167 0.38779 0.45268 0.0
C546 C 0.9326 0.39568 0.41943 0.0
C547 C 0.95931 0.39818 0.47751 0.0
C548 C 1.0006 0.44247 0.45836 0.0
H549 H 0.07345 0.45122 0.66633 0.0
H550 H 0.0428 0.4348 0.62141 0.0
H551 H 0.02813 0.46309 0.45062 0.0
H552 H 0.93538 0.42096 0.38592 0.0
H553 H 0.96627 0.43913 0.42924 0.0
H554 H 0.9828 0.41248 0.59648 0.0
C555 C 0.05033 0.44909 0.61306 0.0
C556 C 1.01836 0.45222 0.48359 0.0
C557 C 0.06802 0.45854 0.63888 0.0
C558 C 0.94187 0.41436 0.41115 0.0
C559 C 0.95965 0.4248 0.43575 0.0
C560 C 0.99256 0.42343 0.56373 0.0
C561 C 0.0426 0.45784 0.57598 0.0
C562 C 1.02353 0.44767 0.54923 0.0
C563 C 0.9686 0.41685 0.46984 0.0
C564 C 0.98745 0.42781 0.49774 0.0
H565 H 0.07861 0.50013 0.58223 0.0
H566 H 0.04784 0.48375 0.53799 0.0
H567 H 1.01345 0.42944 0.64059 0.0
H568 H 0.93511 0.37348 0.46006 0.0
H569 H 0.96576 0.39148 0.50221 0.0
C570 C 0.58294 0.60575 0.54603 0.0
C571 C 0.59204 0.62274 0.57861 0.0
C572 C 0.59235 0.59767 0.51838 0.0
C573 C 0.63666 0.59973 0.53077 0.0
H574 H 0.62122 0.57139 0.35529 0.0
C575 C 0.68113 0.57563 0.39617 0.0
C576 C 0.67306 0.55828 0.36722 0.0
C577 C 0.67083 0.58318 0.41811 0.0
C578 C 0.62564 0.57909 0.40481 0.0
H579 H 0.61845 0.64463 0.6052 0.0
H580 H 0.63475 0.63067 0.55716 0.0
H581 H 0.6043 0.58507 0.40087 0.0
H582 H 0.6476 0.53549 0.33699 0.0
H583 H 0.62951 0.54864 0.37578 0.0
H584 H 0.65793 0.59378 0.5351 0.0
C585 C 0.62027 0.62336 0.55424 0.0
C586 C 0.6159 0.58698 0.4311 0.0
C587 C 0.61087 0.63143 0.58194 0.0
C588 C 0.65431 0.5489 0.35869 0.0
C589 C 0.64393 0.55648 0.38098 0.0
C590 C 0.64636 0.59188 0.50457 0.0
C591 C 0.61118 0.6063 0.52232 0.0
C592 C 0.62132 0.59755 0.49431 0.0
C593 C 0.65203 0.57364 0.41235 0.0
C594 C 0.64114 0.58154 0.44081 0.0
H595 H 0.56845 0.59847 0.54318 0.0
H596 H 0.58478 0.58445 0.49526 0.0
H597 H 0.64111 0.60737 0.58044 0.0
H598 H 0.69552 0.58343 0.40302 0.0
H599 H 0.67769 0.59656 0.44003 0.0
C600 C 0.52195 0.12743 0.33577 0.0
C601 C 0.51255 0.13668 0.34553 0.0
C602 C 0.51441 0.10948 0.35756 0.0
C603 C 0.47886 0.07584 0.48013 0.0
H604 H 0.48679 0.04176 0.3747 0.0
C605 C 0.44044 1.00033 0.55134 0.0
C606 C 0.44984 0.9909 0.54865 0.0
C607 C 0.44817 0.0179 0.52526 0.0
C608 C 0.48457 0.05113 0.40534 0.0
H609 H 0.48742 0.13386 0.3832 0.0
H610 H 0.47429 0.10283 0.41919 0.0
H611 H 0.5 0.07239 0.33054 0.0
H612 H 0.47508 0.99309 0.51673 0.0
H613 H 0.48842 0.02353 0.47111 0.0
H614 H 0.46341 0.05463 0.55475 0.0
C615 C 0.48768 0.10945 0.39674 0.0
C616 C 0.49219 0.06877 0.37992 0.0
C617 C 0.49521 0.12732 0.37539 0.0
C618 C 0.46722 0.99967 0.51876 0.0
C619 C 0.47493 0.01723 0.49249 0.0
C620 C 0.47122 0.05823 0.50533 0.0
C621 C 0.49725 0.10028 0.38951 0.0
C622 C 0.48939 0.08142 0.41672 0.0
C623 C 0.46555 0.02666 0.49545 0.0
C624 C 0.47388 0.04554 0.4683 0.0
H625 H 0.53535 0.13419 0.31338 0.0
H626 H 0.5223 0.10301 0.35136 0.0
H627 H 0.47668 0.08517 0.51123 0.0
H628 H 0.42695 0.99404 0.57264 0.0
H629 H 0.44037 0.02454 0.52752 0.0
C630 C 0.14108 0.09616 0.92071 0.0
C631 C 0.15836 0.10379 0.95097 0.0
C632 C 0.13126 0.1051 0.92331 0.0
C633 C 0.12906 0.14223 0.01837 0.0
H634 H 0.09835 0.13799 0.85696 0.0
C635 C 0.09303 0.18404 -0.0 0.0
C636 C 0.07521 0.17519 0.97491 0.0
C637 C 0.10359 0.17586 -0.0039 0.0
C638 C 0.10672 0.13922 0.90292 0.0
H639 H 0.17887 0.12716 0.00666 0.0
H640 H 0.16193 0.14275 0.01066 0.0
H641 H 0.11565 0.12277 0.85252 0.0
H642 H 0.05472 0.15071 0.92521 0.0
H643 H 0.07299 0.1366 0.9185 0.0
H644 H 0.12015 0.15877 0.06849 0.0
C645 C 0.15573 0.12964 -0.01382 0.0
C646 C 0.11666 0.13041 0.90046 0.0
C647 C 0.16551 0.12067 0.98383 0.0
C648 C 0.06837 0.15803 0.94501 0.0
C649 C 0.07893 0.14992 0.94075 0.0
C650 C 0.11916 0.1511 0.02068 0.0
C651 C 0.13842 0.12203 0.95595 0.0
C652 C 0.12794 0.13167 0.95829 0.0
C653 C 0.09668 0.15864 0.96652 0.0
C654 C 0.10775 0.14966 0.96316 0.0
H655 H 0.13497 0.0831 0.89585 0.0
H656 H 0.11789 0.09857 0.90054 0.0
H657 H 0.13732 0.14338 0.06459 0.0
H658 H 0.0988 0.19723 0.02344 0.0
H659 H 0.11724 0.18311 0.01583 0.0
C660 C 0.88557 0.92497 0.05386 0.0
C661 C 0.89414 0.9163 0.02349 0.0
C662 C 0.89396 0.94369 0.05431 0.0
C663 C 0.93873 0.98501 0.03505 0.0
H664 H 0.91054 1.0077 -0.00272 0.0
C665 C 0.96913 0.06186 0.05715 0.0
C666 C 0.9637 0.07034 0.00605 0.0
C667 C 0.96063 0.04318 0.0611 0.0
C668 C 0.91869 1.00163 0.00742 0.0
H669 H 0.91847 0.9208 0.97008 0.0
H670 H 0.93293 0.95317 0.97042 0.0
H671 H 0.89596 0.97525 0.00044 0.0
H672 H 0.94469 0.06539 0.91955 0.0
H673 H 0.93025 0.03301 0.92528 0.0
H674 H 0.96153 1.01136 0.04032 0.0
C675 C 0.91979 0.94558 -0.0052 0.0
C676 C 0.91024 0.98294 0.01019 0.0
C677 C 0.9114 0.9269 -0.00578 0.0
C678 C 0.94948 0.05948 0.95905 0.0
C679 C 0.94098 0.0408 0.96303 0.0
C680 C 0.94717 1.00369 0.03238 0.0
C681 C 0.9112 0.9543 0.02459 0.0
C682 C 0.92014 0.97431 0.02369 0.0
C683 C 0.9464 0.03233 0.01415 0.0
C684 C 0.93731 1.01233 0.0182 0.0
H685 H 0.87229 0.9173 0.07698 0.0
H686 H 0.88697 0.94984 0.0786 0.0
H687 H 0.94683 0.97895 0.04647 0.0
H688 H 0.98011 0.06967 0.09388 0.0
H689 H 0.96512 0.03725 0.10175 0.0
C690 C 1.00813 0.91414 0.91168 0.0
C691 C 0.9971 0.91347 0.96935 0.0
C692 C 0.02688 0.92413 0.91708 0.0
C693 C 0.06436 0.94525 0.05103 0.0
H694 H 0.0922 0.97105 0.88279 0.0
C695 C 0.14251 0.97977 0.04363 0.0
C696 C 0.15196 0.99629 0.00762 0.0
C697 C 0.12368 0.96965 0.04033 0.0
C698 C 0.08469 0.96405 0.93061 0.0
H699 H 0.99764 0.92325 0.07802 0.0
H700 H 0.03021 0.94052 0.08745 0.0
H701 H 0.05965 0.954 0.87486 0.0
H702 H 0.14871 1.01506 0.94023 0.0
H703 H 0.11618 0.99762 0.93499 0.0
H704 H 0.08945 0.95556 0.10704 0.0
C705 C 1.02431 0.93309 0.03817 0.0
C706 C 0.06593 0.95404 0.92578 0.0
C707 C 1.00554 0.92314 0.03271 0.0
C708 C 0.14201 1.00241 0.96857 0.0
C709 C 0.12325 0.99229 0.96511 0.0
C710 C 0.08315 0.95521 0.05578 0.0
C711 C 0.03531 0.93377 0.98041 0.0
C712 C 0.05542 0.94449 -0.01411 0.0
C713 C 0.11375 0.97571 0.00065 0.0
C714 C 0.09364 0.96482 -0.00432 0.0
H715 H 1.0023 0.90665 0.86251 0.0
H716 H 0.03479 0.924 0.8718 0.0
H717 H 0.05683 0.93797 0.09838 0.0
H718 H 0.14964 0.97458 0.07417 0.0
H719 H 0.11694 0.9569 0.06789 0.0
C720 C 0.75708 0.51736 0.39249 0.0
C721 C 0.73988 0.50898 0.36114 0.0
C722 C 0.76744 0.50895 0.39316 0.0
C723 C 0.76407 0.46435 0.37241 0.0
H724 H 0.81523 0.49243 0.33928 0.0
C725 C 0.81057 0.43374 0.39763 0.0
C726 C 0.82483 0.43937 0.34813 0.0
C727 C 0.80031 0.44222 0.40078 0.0
C728 C 0.80094 0.48431 0.3481 0.0
H729 H 0.72018 0.48497 0.30613 0.0
H730 H 0.73815 0.47048 0.30684 0.0
H731 H 0.7973 0.50702 0.34141 0.0
H732 H 0.83943 0.45871 0.2636 0.0
H733 H 0.82137 0.47312 0.26789 0.0
H734 H 0.76763 0.44158 0.37741 0.0
C735 C 0.74363 0.48348 0.33183 0.0
C736 C 0.79065 0.49276 0.35029 0.0
C737 C 0.73331 0.49189 0.33104 0.0
C738 C 0.82846 0.45377 0.30187 0.0
C739 C 0.81821 0.46225 0.30505 0.0
C740 C 0.77437 0.4559 0.37033 0.0
C741 C 0.7609 0.49187 0.36266 0.0
C742 C 0.77202 0.48291 0.36216 0.0
C743 C 0.80396 0.45663 0.35459 0.0
C744 C 0.79297 0.46572 0.35785 0.0
H745 H 0.76263 0.5305 0.41629 0.0
H746 H 0.78054 0.5158 0.41827 0.0
H747 H 0.74983 0.45627 0.38257 0.0
H748 H 0.80717 0.42262 0.43374 0.0
H749 H 0.78962 0.43757 0.44025 0.0
C750 C 0.64096 0.39744 0.26296 0.0
C751 C 0.6345 0.40706 0.30178 0.0
C752 C 0.63231 0.37874 0.26711 0.0
C753 C 0.59926 0.33961 0.37777 0.0
H754 H 0.59688 0.31289 0.20583 0.0
C755 C 0.55553 0.26194 0.36303 0.0
C756 C 0.56265 0.25271 0.32574 0.0
C757 C 0.56423 0.28069 0.36143 0.0
C758 C 0.59756 0.3201 0.25472 0.0
H759 H 0.61356 0.40417 0.37498 0.0
H760 H 0.59848 0.37174 0.38178 0.0
H761 H 0.61205 0.34531 0.20066 0.0
H762 H 0.58472 0.25627 0.25773 0.0
H763 H 0.59978 0.28869 0.25529 0.0
H764 H 0.58461 0.3143 0.43155 0.0
C765 C 0.61047 0.37865 0.34909 0.0
C766 C 0.60633 0.3388 0.25179 0.0
C767 C 0.61916 0.39735 0.34515 0.0
C768 C 0.57874 0.2628 0.28706 0.0
C769 C 0.58736 0.28149 0.28522 0.0
C770 C 0.59042 0.32088 0.38061 0.0
C771 C 0.61686 0.36899 0.30997 0.0
C772 C 0.60739 0.34892 0.3133 0.0
C773 C 0.58024 0.29077 0.32215 0.0
C774 C 0.58947 0.31081 0.31918 0.0
H775 H 0.65287 0.40438 0.22986 0.0
H776 H 0.63793 0.37196 0.2372 0.0
H777 H 0.59996 0.3468 0.42672 0.0
H778 H 0.54318 0.25469 0.39335 0.0
H779 H 0.55819 0.28727 0.39002 0.0
C780 C 0.67415 0.26333 0.24744 0.0
C781 C 0.66426 0.24619 0.2781 0.0
C782 C 0.69293 0.27301 0.252 0.0
C783 C 0.73171 0.27512 0.3532 0.0
H784 H 0.75918 0.30528 0.19257 0.0
C785 C 0.80979 0.31067 0.34315 0.0
C786 C 0.81888 0.3284 0.3179 0.0
C787 C 0.79104 0.30018 0.33736 0.0
C788 C 0.75175 0.29706 0.2383 0.0
H789 H 0.66672 0.22577 0.33665 0.0
H790 H 0.69929 0.24248 0.34402 0.0
H791 H 0.72662 0.28818 0.18478 0.0
H792 H 0.81514 0.34881 0.26585 0.0
H793 H 0.78274 0.33066 0.25583 0.0
H794 H 0.75692 0.28398 0.40644 0.0
C795 C 0.69255 0.24867 0.3177 0.0
C796 C 0.73298 0.28723 0.23391 0.0
C797 C 0.67377 0.23903 0.31341 0.0
C798 C 0.80871 0.33523 0.28588 0.0
C799 C 0.79004 0.32475 0.27971 0.0
C800 C 0.7505 0.28489 0.35743 0.0
C801 C 0.70247 0.26584 0.28705 0.0
C802 C 0.72261 0.27616 0.29144 0.0
C803 C 0.78087 0.30709 0.30564 0.0
C804 C 0.76081 0.29611 0.30022 0.0
H805 H 0.66735 0.26943 0.22071 0.0
H806 H 0.69994 0.28628 0.22882 0.0
H807 H 0.72431 0.26701 0.39921 0.0
H808 H 0.81711 0.30492 0.36819 0.0
H809 H 0.78452 0.2866 0.35731 0.0
C810 C 0.48711 0.77907 0.54544 0.0
C811 C 0.49025 0.77175 0.60829 0.0
C812 C 0.47734 0.78806 0.54855 0.0
C813 C 0.46188 0.81094 0.67675 0.0
H814 H 0.42894 0.80485 0.5216 0.0
C815 C 0.42562 0.85262 0.66076 0.0
C816 C 0.40754 0.84359 0.63893 0.0
C817 C 0.4361 0.84435 0.65606 0.0
C818 C 0.438 0.80667 0.56571 0.0
H819 H 0.48502 0.76805 0.72385 0.0
H820 H 0.46813 0.78371 0.72923 0.0
H821 H 0.44586 0.78924 0.51649 0.0
H822 H 0.38649 0.81867 0.59437 0.0
H823 H 0.40459 0.80441 0.58644 0.0
H824 H 0.45375 0.82815 0.72655 0.0
C825 C 0.47348 0.78273 0.67748 0.0
C826 C 0.4479 0.79783 0.56236 0.0
C827 C 0.48321 0.7737 0.67434 0.0
C828 C 0.40034 0.82614 0.61158 0.0
C829 C 0.41081 0.81794 0.6066 0.0
C830 C 0.45203 0.81986 0.67993 0.0
C831 C 0.47039 0.79008 0.61465 0.0
C832 C 0.45995 0.79974 0.61796 0.0
C833 C 0.42884 0.82686 0.62899 0.0
C834 C 0.43985 0.8178 0.62464 0.0
H835 H 0.49254 0.77822 0.4937 0.0
H836 H 0.47553 0.79373 0.4991 0.0
H837 H 0.47114 0.81297 0.72028 0.0
H838 H 0.43167 0.86603 0.68217 0.0
H839 H 0.44996 0.85176 0.67315 0.0
C840 C 0.24371 0.59567 0.64981 0.0
C841 C 0.22759 0.58521 0.68775 0.0
C842 C 0.25203 0.61434 0.64933 0.0
C843 C 0.24332 0.65186 0.68255 0.0
H844 H 0.29515 0.68023 0.68518 0.0
C845 C 0.28082 0.72841 0.63197 0.0
C846 C 0.29658 0.73925 0.67164 0.0
C847 C 0.27244 0.70973 0.63512 0.0
C848 C 0.28066 0.67258 0.68505 0.0
H849 H 0.2077 0.58644 0.7553 0.0
H850 H 0.22228 0.61896 0.7552 0.0
H851 H 0.28062 0.64784 0.69069 0.0
H852 H 0.31584 0.73855 0.74541 0.0
H853 H 0.30106 0.70613 0.75216 0.0
H854 H 0.24336 0.67662 0.67844 0.0
C855 C 0.2284 0.61271 0.72486 0.0
C856 C 0.27228 0.6539 0.68727 0.0
C857 C 0.22006 0.594 0.72531 0.0
C858 C 0.30366 0.73076 0.71458 0.0
C859 C 0.29527 0.71207 0.71776 0.0
C860 C 0.2517 0.67055 0.68034 0.0
C861 C 0.24453 0.62319 0.68683 0.0
C862 C 0.25347 0.64321 0.68581 0.0
C863 C 0.2795 0.70124 0.67811 0.0
C864 C 0.27052 0.68123 0.68134 0.0
H865 H 0.24993 0.58945 0.61991 0.0
H866 H 0.26425 0.62182 0.61842 0.0
H867 H 0.22884 0.64418 0.68058 0.0
H868 H 0.27476 0.73433 0.59899 0.0
H869 H 0.26048 0.70196 0.60304 0.0
C870 C 0.47577 0.64784 0.69449 0.0
C871 C 0.48495 0.66471 0.66106 0.0
C872 C 0.45695 0.63769 0.69294 0.0
C873 C 0.41605 0.64146 0.66028 0.0
H874 H 0.39266 0.59019 0.63652 0.0
C875 C 0.33848 0.59624 0.67681 0.0
C876 C 0.33013 0.58164 0.62901 0.0
C877 C 0.35724 0.60625 0.6827 0.0
C878 C 0.39892 0.60451 0.64266 0.0
H879 H 0.48124 0.68401 0.59955 0.0
H880 H 0.4487 0.66638 0.59625 0.0
H881 H 0.42524 0.60771 0.6421 0.0
H882 H 0.33537 0.56614 0.55078 0.0
H883 H 0.36785 0.58373 0.55974 0.0
H884 H 0.38976 0.63831 0.65905 0.0
C885 C 0.45596 0.66102 0.62475 0.0
C886 C 0.4177 0.61458 0.64684 0.0
C887 C 0.47474 0.67114 0.62628 0.0
C888 C 0.34118 0.57739 0.5875 0.0
C889 C 0.35992 0.58738 0.59342 0.0
C890 C 0.39728 0.63138 0.65618 0.0
C891 C 0.44673 0.64411 0.65795 0.0
C892 C 0.4266 0.63324 0.65536 0.0
C893 C 0.36829 0.60199 0.64109 0.0
C894 C 0.38838 0.61274 0.64696 0.0
H895 H 0.48312 0.64242 0.72193 0.0
H896 H 0.45042 0.62486 0.71996 0.0
H897 H 0.42229 0.65573 0.66778 0.0
H898 H 0.33053 0.6001 0.70932 0.0
H899 H 0.36307 0.61725 0.72063 0.0
C900 C 0.02756 0.18653 0.77382 0.0
C901 C 0.03104 0.20289 0.80311 0.0
C902 C 0.02774 0.18453 0.69911 0.0
C903 C 0.02956 0.20521 0.52229 0.0
H904 H 0.06203 0.18793 0.47354 0.0
C905 C 0.05431 0.2107 0.23423 0.0
C906 C 0.05053 0.19417 0.20573 0.0
C907 C 0.05443 0.21297 0.30888 0.0
C908 C 0.05293 0.19274 0.48648 0.0
H909 H 0.03519 0.22919 0.77845 0.0
H910 H 0.03566 0.22576 0.6477 0.0
H911 H 0.05309 0.18732 0.59929 0.0
H912 H 0.04621 0.16786 0.2315 0.0
H913 H 0.0463 0.17178 0.36212 0.0
H914 H 0.02939 0.21062 0.40946 0.0
C915 C 0.03289 0.21453 0.68217 0.0
C916 C 0.04766 0.19223 0.5581 0.0
C917 C 0.03266 0.21651 0.75694 0.0
C918 C 0.04894 0.18066 0.25244 0.0
C919 C 0.04905 0.18293 0.32713 0.0
C920 C 0.03483 0.20573 0.45067 0.0
C921 C 0.03138 0.19887 0.65302 0.0
C922 C 0.03589 0.1984 0.57651 0.0
C923 C 0.05083 0.19876 0.35563 0.0
C924 C 0.04656 0.1995 0.43223 0.0
H925 H 1.02601 0.17574 0.80857 0.0
H926 H 1.0261 0.17217 0.67758 0.0
H927 H 1.02043 0.20999 0.5352 0.0
H928 H 0.05586 0.22141 0.199 0.0
H929 H 0.05626 0.22545 0.32989 0.0
C930 C 0.86808 0.87626 0.76067 0.0
C931 C 0.86957 0.8642 0.80682 0.0
C932 C 0.87476 0.87877 0.69057 0.0
C933 C 0.87679 0.85053 0.55798 0.0
H934 H 0.89624 0.89237 0.43425 0.0
C935 C 0.88139 0.84594 0.25225 0.0
C936 C 0.87677 0.85647 0.20981 0.0
C937 C 0.88309 0.84826 0.32656 0.0
C938 C 0.8907 0.88062 0.46845 0.0
H939 H 0.88058 0.84666 0.82013 0.0
H940 H 0.89219 0.851 0.69679 0.0
H941 H 0.8982 0.896 0.56619 0.0
H942 H 0.86943 0.87704 0.21054 0.0
H943 H 0.87181 0.88073 0.34241 0.0
H944 H 0.86841 0.83507 0.46148 0.0
C945 C 0.88579 0.85837 0.71464 0.0
C946 C 0.89202 0.88271 0.54338 0.0
C947 C 0.87905 0.8558 0.78462 0.0
C948 C 0.87303 0.86881 0.24267 0.0
C949 C 0.87462 0.87107 0.31755 0.0
C950 C 0.87535 0.84845 0.48351 0.0
C951 C 0.88293 0.86922 0.6663 0.0
C952 C 0.88482 0.86764 0.58842 0.0
C953 C 0.87994 0.86098 0.35967 0.0
C954 C 0.88206 0.86345 0.43825 0.0
H955 H 0.86105 0.88308 0.7775 0.0
H956 H 0.87227 0.88709 0.65386 0.0
H957 H 0.8707 0.8387 0.59175 0.0
H958 H 0.88427 0.83628 0.22783 0.0
H959 H 0.8873 0.8404 0.35785 0.0
C960 C 0.21504 0.03817 0.77435 0.0
C961 C 0.20512 0.02155 0.80822 0.0
C962 C 0.21101 0.04044 0.70328 0.0
C963 C 0.19361 1.01318 0.54371 0.0
H964 H 0.19817 0.05595 0.45565 0.0
C965 C 0.19339 0.02076 0.23596 0.0
C966 C 0.20689 0.03719 0.20921 0.0
C967 C 0.18956 0.01865 0.30974 0.0
C968 C 0.19686 0.04393 0.47975 0.0
H969 H 0.18224 0.99482 0.79869 0.0
H970 H 0.17509 0.99885 0.67517 0.0
H971 H 0.19728 0.05315 0.58781 0.0
H972 H 0.22714 0.06419 0.23715 0.0
H973 H 0.22092 0.06031 0.36661 0.0
H974 H 0.19407 1.00426 0.43673 0.0
C975 C 0.18621 1.00996 0.70238 0.0
C976 C 0.19631 0.04234 0.55499 0.0
C977 C 0.19036 1.00765 0.77274 0.0
C978 C 0.21663 0.05141 0.25687 0.0
C979 C 0.21292 0.04926 0.33063 0.0
C980 C 0.19424 1.0148 0.46884 0.0
C981 C 0.19692 0.02611 0.66612 0.0
C982 C 0.19503 0.02709 0.5874 0.0
C983 C 0.19933 0.03288 0.35767 0.0
C984 C 0.19628 0.03035 0.43625 0.0
H985 H 0.22634 0.0491 0.80151 0.0
H986 H 0.21952 0.053 0.67614 0.0
H987 H 0.19296 1.00141 0.56742 0.0
H988 H 0.18561 1.00966 0.19987 0.0
H989 H 0.17895 1.00591 0.32927 0.0
C990 C 0.68199 0.52194 0.58905 0.0
C991 C 0.69712 0.5264 0.54664 0.0
C992 C 0.68288 0.52091 0.66362 0.0
C993 C 0.7081 0.51416 0.80624 0.0
H994 H 0.68638 0.53461 0.92805 0.0
C995 C 0.72628 0.53641 0.09904 0.0
C996 C 0.71262 0.53474 0.14502 0.0
C997 C 0.72224 0.53013 0.02845 0.0
C998 C 0.69208 0.52843 0.89465 0.0
H999 H 0.72525 0.53418 0.54741 0.0
H1000 H 0.72696 0.53282 0.67956 0.0
H1001 H 0.68485 0.53655 0.79743 0.0
H1002 H 0.68399 0.52388 0.15733 0.0
H1003 H 0.67693 0.51298 0.03305 0.0
H1004 H 0.71603 0.5068 0.90447 0.0
C1005 C 0.71434 0.52967 0.6546 0.0
C1006 C 0.69134 0.52967 0.82009 0.0
C1007 C 0.71343 0.53066 0.57956 0.0
C1008 C 0.69474 0.52554 0.12197 0.0
C1009 C 0.6907 0.51921 0.05146 0.0
C1010 C 0.70894 0.51301 0.88119 0.0
C1011 C 0.69896 0.52449 0.6968 0.0
C1012 C 0.69953 0.52276 0.77545 0.0
C1013 C 0.70452 0.52218 0.00355 0.0
C1014 C 0.70113 0.52036 0.92564 0.0
H1015 H 0.66929 0.51871 0.56449 0.0
H1016 H 0.67084 0.51682 0.69513 0.0
H1017 H 0.71423 0.50848 0.77245 0.0
H1018 H 0.74014 0.54325 0.11651 0.0
H1019 H 0.73312 0.53268 -0.00799 0.0
C1020 C 0.54571 0.21145 0.55023 0.0
C1021 C 0.54802 0.19755 0.52405 0.0
C1022 C 0.54787 0.21556 0.62374 0.0
C1023 C 0.56622 0.20815 0.79319 0.0
H1024 H 0.52896 0.21418 0.88264 0.0
C1025 C 0.54252 0.19058 0.0875 0.0
C1026 C 0.53616 0.20075 0.1216 0.0
C1027 C 0.54905 0.19471 0.01681 0.0
C1028 C 0.53973 0.21296 0.85843 0.0
H1029 H 0.55401 0.1768 0.55282 0.0
H1030 H 0.55708 0.1835 0.68189 0.0
H1031 H 0.52996 0.21253 0.75199 0.0
H1032 H 0.5333 0.22421 0.11331 0.0
H1033 H 0.54487 0.23153 -0.00958 0.0
H1034 H 0.57534 0.20764 0.90079 0.0
C1035 C 0.55422 0.19161 0.64561 0.0
C1036 C 0.54029 0.21201 0.78354 0.0
C1037 C 0.55222 0.18762 0.57209 0.0
C1038 C 0.53772 0.2159 0.08706 0.0
C1039 C 0.54441 0.22015 0.0171 0.0
C1040 C 0.5656 0.20902 0.86845 0.0
C1041 C 0.55215 0.20567 0.672 0.0
C1042 C 0.55324 0.20914 0.75036 0.0
C1043 C 0.54938 0.20915 0.98032 0.0
C1044 C 0.5521 0.21103 0.90153 0.0
H1045 H 0.54263 0.21939 0.51384 0.0
H1046 H 0.54629 0.22652 0.64274 0.0
H1047 H 0.57653 0.20622 0.76861 0.0
H1048 H 0.54163 0.17898 0.11398 0.0
H1049 H 0.55273 0.18597 -0.0107 0.0
C1050 C 0.85047 0.3549 0.59966 0.0
C1051 C 0.86222 0.35297 0.55305 0.0
C1052 C 0.85271 0.35484 0.6744 0.0
C1053 C 0.88975 0.36815 0.79864 0.0
H1054 H 0.85298 0.35057 0.94668 0.0
C1055 C 0.90274 0.37001 0.10535 0.0
C1056 C 0.89092 0.37201 0.15133 0.0
C1057 C 0.90046 0.36972 0.03052 0.0
C1058 C 0.86335 0.3558 0.90567 0.0
H1059 H 0.8839 0.34715 0.54667 0.0
H1060 H 0.88764 0.3468 0.67758 0.0
H1061 H 0.84455 0.34197 0.82072 0.0
H1062 H 0.86903 0.37753 0.15627 0.0
H1063 H 0.86526 0.37734 0.02525 0.0
H1064 H 0.90855 0.38203 0.88356 0.0
C1065 C 0.87709 0.34887 0.65646 0.0
C1066 C 0.85854 0.35073 0.8339 0.0
C1067 C 0.87487 0.34895 0.58179 0.0
C1068 C 0.87814 0.37571 0.12171 0.0
C1069 C 0.87589 0.37546 0.04696 0.0
C1070 C 0.89457 0.37323 0.87041 0.0
C1071 C 0.86665 0.35275 0.70309 0.0
C1072 C 0.8717 0.35687 0.77983 0.0
C1073 C 0.88641 0.37152 0.0011 0.0
C1074 C 0.8814 0.36714 0.92445 0.0
H1075 H 0.84049 0.35784 0.57857 0.0
H1076 H 0.84444 0.35781 0.70926 0.0
H1077 H 0.90013 0.37341 0.75761 0.0
H1078 H 0.91281 0.36729 0.12708 0.0
H1079 H 0.9088 0.36671 -0.00375 0.0
C1080 C 0.36407 0.88437 0.42323 0.0
C1081 C 0.36272 0.87087 0.46949 0.0
C1082 C 0.36432 0.88238 0.34845 0.0
C1083 C 0.37976 0.86059 0.22477 0.0
H1084 H 0.36136 0.87874 0.0757 0.0
C1085 C 0.38238 0.84992 0.91886 0.0
C1086 C 0.38381 0.86341 0.87238 0.0
C1087 C 0.38214 0.85197 -0.00641 0.0
C1088 C 0.36683 0.87392 0.11703 0.0
H1089 H 0.35813 0.84388 0.47507 0.0
H1090 H 0.35826 0.8403 0.34408 0.0
H1091 H 0.35205 0.87775 0.20114 0.0
H1092 H 0.38854 0.89045 0.86636 0.0
H1093 H 0.38836 0.89411 -0.00268 0.0
H1094 H 0.39454 0.85674 0.14067 0.0
C1095 C 0.35968 0.85258 0.36554 0.0
C1096 C 0.36136 0.87319 0.18849 0.0
C1097 C 0.35947 0.85458 0.44027 0.0
C1098 C 0.38712 0.87975 0.90135 0.0
C1099 C 0.38689 0.8818 0.97605 0.0
C1100 C 0.38524 0.86131 0.15332 0.0
C1101 C 0.36311 0.86684 0.31936 0.0
C1102 C 0.36775 0.86648 0.24289 0.0
C1103 C 0.38342 0.86756 0.02243 0.0
C1104 C 0.37883 0.868 0.0989 0.0
H1105 H 0.36641 0.89699 0.44466 0.0
H1106 H 0.36691 0.89356 0.31394 0.0
H1107 H 0.38524 0.85576 0.26608 0.0
H1108 H 0.38001 0.83727 0.89762 0.0
H1109 H 0.37951 0.8408 0.02826 0.0
C1110 C 0.2202 0.5214 0.93203 0.0
C1111 C 0.21505 0.53062 0.88425 0.0
C1112 C 0.22147 0.52498 0.00589 0.0
C1113 C 0.20364 0.54186 0.14294 0.0
H1114 H 0.24018 0.54129 0.26424 0.0
C1115 C 0.2 0.54634 0.44656 0.0
C1116 C 0.20018 0.53225 0.48339 0.0
C1117 C 0.20626 0.5504 0.37595 0.0
C1118 C 0.22999 0.54156 0.23076 0.0
H1119 H 0.20737 0.55088 0.87474 0.0
H1120 H 0.20978 0.55729 0.00409 0.0
H1121 H 0.24239 0.54035 0.13225 0.0
H1122 H 0.20807 0.51214 0.47867 0.0
H1123 H 0.21847 0.51879 0.35303 0.0
H1124 H 0.19091 0.54249 0.24067 0.0
C1125 C 0.21263 0.54718 0.98467 0.0
C1126 C 0.2312 0.54097 0.15562 0.0
C1127 C 0.21121 0.54349 0.91089 0.0
C1128 C 0.20764 0.52291 0.4505 0.0
C1129 C 0.21376 0.52686 0.37925 0.0
C1130 C 0.20247 0.54251 0.21769 0.0
C1131 C 0.2177 0.53789 0.03277 0.0
C1132 C 0.2178 0.54072 0.11132 0.0
C1133 C 0.21256 0.54026 0.34088 0.0
C1134 C 0.21543 0.542 0.2622 0.0
H1135 H 0.2232 0.5114 0.91236 0.0
H1136 H 0.22504 0.51736 0.04203 0.0
H1137 H 0.19296 0.54136 0.11017 0.0
H1138 H 0.19466 0.554 0.47168 0.0
H1139 H 0.20551 0.56099 0.34773 0.0
C1140 C 0.52114 0.67792 0.42366 0.0
C1141 C 0.53686 0.69123 0.45628 0.0
C1142 C 0.51661 0.68033 0.35405 0.0
C1143 C 0.52845 0.7121 0.20238 0.0
H1144 H 0.52293 0.6719 0.08932 0.0
C1145 C 0.55046 0.71875 0.90778 0.0
C1146 C 0.54017 0.70482 0.85965 0.0
C1147 C 0.54622 0.7169 0.98106 0.0
C1148 C 0.52401 0.68306 0.11989 0.0
H1149 H 0.55939 0.71803 0.44585 0.0
H1150 H 0.55191 0.72204 0.32171 0.0
H1151 H 0.52124 0.66973 0.22014 0.0
H1152 H 0.5175 0.67803 0.84912 0.0
H1153 H 0.50995 0.67479 0.9778 0.0
H1154 H 0.53189 0.72563 0.10144 0.0
C1155 C 0.54293 0.70988 0.35045 0.0
C1156 C 0.52302 0.68183 0.19491 0.0
C1157 C 0.54734 0.70754 0.42084 0.0
C1158 C 0.52571 0.68889 0.88561 0.0
C1159 C 0.52137 0.68708 0.95897 0.0
C1160 C 0.52935 0.71331 0.12703 0.0
C1161 C 0.52791 0.69597 0.31566 0.0
C1162 C 0.52576 0.69651 0.23683 0.0
C1163 C 0.53155 0.70112 0.00721 0.0
C1164 C 0.52772 0.69898 0.08542 0.0
H1165 H 0.51259 0.66539 0.45103 0.0
H1166 H 0.50479 0.66958 0.32878 0.0
H1167 H 0.53043 0.72352 0.23374 0.0
H1168 H 0.56172 0.73113 0.8887 0.0
H1169 H 0.55459 0.72774 0.01733 0.0
loop_
_geom_bond_atom_site_label_1
_geom_bond_atom_site_label_2
_geom_bond_distance
_geom_bond_site_symmetry_2
_ccdc_geom_bond_type
Nd0 C2 2.836 . S
Nd0 O20 2.500 1_556 S
Nd0 O21 2.492 . S
Nd0 O22 2.487 . S
Nd0 O23 2.682 . S
Nd0 O24 2.410 . S
Nd0 O29 2.414 1_556 S
Nd0 O31 2.424 . S
Nd1 C11 2.836 . S
Nd1 O23 2.414 1_654 S
Nd1 O25 2.424 . S
Nd1 O26 2.500 1_554 S
Nd1 O27 2.492 . S
Nd1 O28 2.497 . S
Nd1 O29 2.682 1_655 S
Nd1 O30 2.410 1_655 S
C2 Nd0 2.836 . S
C2 C3 1.498 1_556 S
C2 O20 1.258 1_556 S
C2 O21 1.239 . S
C3 C2 1.498 1_554 S
C3 C4 1.369 . S
C3 C8 1.405 1_554 S
C4 C3 1.369 . S
C4 C5 1.392 . S
C4 H32 0.930 . S
C5 C4 1.392 . S
C5 C6 1.398 . S
C5 H33 0.929 . S
C6 C5 1.398 . S
C6 C7 1.352 1_554 S
C7 C6 1.352 1_556 S
C7 C8 1.384 . S
C7 H34 0.930 . S
C8 C3 1.405 1_556 S
C8 C7 1.384 . S
C8 H35 0.929 . S
C9 O22 1.241 . S
C9 O23 1.273 . S
C10 O24 1.251 1_654 S
C10 O25 1.268 . S
C11 Nd1 2.836 . S
C11 C12 1.498 . S
C11 O26 1.258 1_554 S
C11 O27 1.239 . S
C12 C11 1.498 . S
C12 C13 1.366 1_554 S
C12 C17 1.407 . S
C13 C12 1.366 1_556 S
C13 C14 1.392 . S
C13 H36 0.930 . S
C14 C13 1.392 . S
C14 C15 1.398 1_556 S
C14 H37 0.929 . S
C15 C14 1.398 1_554 S
C15 C16 1.352 . S
C16 C15 1.352 . S
C16 C17 1.384 . S
C16 H38 0.930 . S
C17 C12 1.407 . S
C17 C16 1.384 . S
C17 H39 0.929 . S
C18 O28 1.225 1_455 S
C18 O29 1.273 . S
C19 O30 1.250 1_556 S
C19 O31 1.268 . S
O20 Nd0 2.500 1_554 S
O20 C2 1.258 1_554 S
O21 Nd0 2.492 . S
O21 C2 1.239 . S
O22 Nd0 2.487 . S
O22 C9 1.241 . S
O23 Nd0 2.682 . S
O23 Nd1 2.414 1_456 S
O23 C9 1.273 . S
O24 Nd0 2.410 . S
O24 C10 1.251 1_456 S
O25 Nd1 2.424 . S
O25 C10 1.268 . S
O26 Nd1 2.500 1_556 S
O26 C11 1.258 1_556 S
O27 Nd1 2.492 . S
O27 C11 1.239 . S
O28 Nd1 2.497 . S
O28 C18 1.225 1_655 S
O29 Nd0 2.414 1_554 S
O29 Nd1 2.682 1_455 S
O29 C18 1.273 . S
O30 Nd1 2.410 1_455 S
O30 C19 1.250 1_554 S
O31 Nd0 2.424 . S
O31 C19 1.268 . S
H32 C4 0.930 . S
H33 C5 0.929 . S
H34 C7 0.930 . S
H35 C8 0.929 . S
H36 C13 0.930 . S
H37 C14 0.929 . S
H38 C16 0.930 . S
H39 C17 0.929 . S
Nd40 C42 2.836 . S
Nd40 O60 2.500 1_556 S
Nd40 O61 2.492 . S
Nd40 O62 2.487 . S
Nd40 O63 2.682 . S
Nd40 O64 2.410 . S
Nd40 O69 2.414 1_556 S
Nd40 O71 2.424 . S
Nd41 C51 2.836 . S
Nd41 O63 2.414 1_554 S
Nd41 O65 2.424 . S
Nd41 O66 2.500 1_554 S
Nd41 O67 2.492 . S
Nd41 O68 2.487 . S
Nd41 O69 2.682 . S
Nd41 O70 2.410 . S
C42 Nd40 2.836 . S
C42 C43 1.498 1_556 S
C42 O60 1.258 1_556 S
C42 O61 1.239 . S
C43 C42 1.498 1_554 S
C43 C44 1.370 . S
C43 C48 1.404 1_554 S
C44 C43 1.370 . S
C44 C45 1.392 . S
C44 H72 0.930 . S
C45 C44 1.392 . S
C45 C46 1.398 . S
C45 H73 0.929 . S
C46 C45 1.398 . S
C46 C47 1.352 1_554 S
C47 C46 1.352 1_556 S
C47 C48 1.384 . S
C47 H74 0.930 . S
C48 C43 1.404 1_556 S
C48 C47 1.384 . S
C48 H75 0.929 . S
C49 O62 1.241 . S
C49 O63 1.273 . S
C50 O64 1.251 1_554 S
C50 O65 1.268 . S
C51 Nd41 2.836 . S
C51 C52 1.498 . S
C51 O66 1.258 1_554 S
C51 O67 1.239 . S
C52 C51 1.498 . S
C52 C53 1.366 1_554 S
C52 C57 1.407 . S
C53 C52 1.366 1_556 S
C53 C54 1.392 . S
C53 H76 0.930 . S
C54 C53 1.392 . S
C54 C55 1.398 1_556 S
C54 H77 0.929 . S
C55 C54 1.398 1_554 S
C55 C56 1.352 . S
C56 C55 1.352 . S
C56 C57 1.384 . S
C56 H78 0.930 . S
C57 C52 1.407 . S
C57 C56 1.384 . S
C57 H79 0.929 . S
C58 O68 1.241 . S
C58 O69 1.273 . S
C59 O70 1.251 1_556 S
C59 O71 1.268 . S
O60 Nd40 2.500 1_554 S
O60 C42 1.258 1_554 S
O61 Nd40 2.492 . S
O61 C42 1.239 . S
O62 Nd40 2.487 . S
O62 C49 1.241 . S
O63 Nd40 2.682 . S
O63 Nd41 2.414 1_556 S
O63 C49 1.273 . S
O64 Nd40 2.410 . S
O64 C50 1.251 1_556 S
O65 Nd41 2.424 . S
O65 C50 1.268 . S
O66 Nd41 2.500 1_556 S
O66 C51 1.258 1_556 S
O67 Nd41 2.492 . S
O67 C51 1.239 . S
O68 Nd41 2.487 . S
O68 C58 1.241 . S
O69 Nd40 2.414 1_554 S
O69 Nd41 2.682 . S
O69 C58 1.273 . S
O70 Nd41 2.410 . S
O70 C59 1.251 1_554 S
O71 Nd40 2.424 . S
O71 C59 1.268 . S
H72 C44 0.930 . S
H73 C45 0.929 . S
H74 C47 0.930 . S
H75 C48 0.929 . S
H76 C53 0.930 . S
H77 C54 0.929 . S
H78 C56 0.930 . S
H79 C57 0.929 . S
Nd80 C82 2.836 . S
Nd80 O100 2.500 1_556 S
Nd80 O101 2.492 . S
Nd80 O102 2.487 . S
Nd80 O103 2.682 1_565 S
Nd80 O104 2.410 1_565 S
Nd80 O109 2.414 1_566 S
Nd80 O111 2.424 . S
Nd81 C91 2.836 . S
Nd81 O103 2.414 1_554 S
Nd81 O105 2.424 . S
Nd81 O106 2.500 1_554 S
Nd81 O107 2.492 . S
Nd81 O108 2.487 . S
Nd81 O109 2.682 . S
Nd81 O110 2.410 . S
C82 Nd80 2.836 . S
C82 C83 1.498 1_556 S
C82 O100 1.258 1_556 S
C82 O101 1.239 . S
C83 C82 1.498 1_554 S
C83 C84 1.370 . S
C83 C88 1.404 1_554 S
C84 C83 1.370 . S
C84 C85 1.392 . S
C84 H112 0.930 . S
C85 C84 1.392 . S
C85 C86 1.398 . S
C85 H113 0.929 . S
C86 C85 1.398 . S
C86 C87 1.352 1_554 S
C87 C86 1.352 1_556 S
C87 C88 1.384 . S
C87 H114 0.930 . S
C88 C83 1.404 1_556 S
C88 C87 1.384 . S
C88 H115 0.929 . S
C89 O102 1.243 1_545 S
C89 O103 1.273 . S
C90 O104 1.251 1_554 S
C90 O105 1.268 . S
C91 Nd81 2.836 . S
C91 C92 1.498 . S
C91 O106 1.258 1_554 S
C91 O107 1.239 . S
C92 C91 1.498 . S
C92 C93 1.366 1_554 S
C92 C97 1.407 . S
C93 C92 1.366 1_556 S
C93 C94 1.392 . S
C93 H116 0.930 . S
C94 C93 1.392 . S
C94 C95 1.398 1_556 S
C94 H117 0.929 . S
C95 C94 1.398 1_554 S
C95 C96 1.352 . S
C96 C95 1.352 . S
C96 C97 1.384 . S
C96 H118 0.930 . S
C97 C92 1.407 . S
C97 C96 1.384 . S
C97 H119 0.929 . S
C98 O108 1.241 . S
C98 O109 1.273 . S
C99 O110 1.251 1_566 S
C99 O111 1.268 . S
O100 Nd80 2.500 1_554 S
O100 C82 1.258 1_554 S
O101 Nd80 2.492 . S
O101 C82 1.239 . S
O102 Nd80 2.487 . S
O102 C89 1.243 1_565 S
O103 Nd80 2.682 1_545 S
O103 Nd81 2.414 1_556 S
O103 C89 1.273 . S
O104 Nd80 2.410 1_545 S
O104 C90 1.251 1_556 S
O105 Nd81 2.424 . S
O105 C90 1.268 . S
O106 Nd81 2.500 1_556 S
O106 C91 1.258 1_556 S
O107 Nd81 2.492 . S
O107 C91 1.239 . S
O108 Nd81 2.487 . S
O108 C98 1.241 . S
O109 Nd80 2.414 1_544 S
O109 Nd81 2.682 . S
O109 C98 1.273 . S
O110 Nd81 2.410 . S
O110 C99 1.251 1_544 S
O111 Nd80 2.424 . S
O111 C99 1.268 . S
H112 C84 0.930 . S
H113 C85 0.929 . S
H114 C87 0.930 . S
H115 C88 0.929 . S
H116 C93 0.930 . S
H117 C94 0.929 . S
H118 C96 0.930 . S
H119 C97 0.929 . S
Nd120 C122 2.836 . S
Nd120 O140 2.500 . S
Nd120 O141 2.492 . S
Nd120 O142 2.487 . S
Nd120 O143 2.682 . S
Nd120 O144 2.410 . S
Nd120 O149 2.414 . S
Nd120 O151 2.424 . S
Nd121 C131 2.836 . S
Nd121 O143 2.414 . S
Nd121 O145 2.424 . S
Nd121 O146 2.500 . S
Nd121 O147 2.492 . S
Nd121 O148 2.487 . S
Nd121 O149 2.682 . S
Nd121 O150 2.410 . S
C122 Nd120 2.836 . S
C122 C123 1.498 . S
C122 O140 1.258 . S
C122 O141 1.239 . S
C123 C122 1.498 . S
C123 C124 1.366 . S
C123 C128 1.407 . S
C124 C123 1.366 . S
C124 C125 1.392 . S
C124 H152 0.930 . S
C125 C124 1.392 . S
C125 C126 1.398 . S
C125 H153 0.929 . S
C126 C125 1.398 . S
C126 C127 1.352 . S
C127 C126 1.352 . S
C127 C128 1.384 . S
C127 H154 0.930 . S
C128 C123 1.407 . S
C128 C127 1.384 . S
C128 H155 0.929 . S
C129 O142 1.241 . S
C129 O143 1.273 . S
C130 O144 1.251 . S
C130 O145 1.268 . S
C131 Nd121 2.836 . S
C131 C132 1.498 . S
C131 O146 1.258 . S
C131 O147 1.239 . S
C132 C131 1.498 . S
C132 C133 1.366 . S
C132 C137 1.407 . S
C133 C132 1.366 . S
C133 C134 1.392 . S
C133 H156 0.930 . S
C134 C133 1.392 . S
C134 C135 1.398 . S
C134 H157 0.929 . S
C135 C134 1.398 . S
C135 C136 1.352 . S
C136 C135 1.352 . S
C136 C137 1.384 . S
C136 H158 0.930 . S
C137 C132 1.407 . S
C137 C136 1.384 . S
C137 H159 0.929 . S
C138 O148 1.241 . S
C138 O149 1.273 . S
C139 O150 1.251 . S
C139 O151 1.268 . S
O140 Nd120 2.500 . S
O140 C122 1.258 . S
O141 Nd120 2.492 . S
O141 C122 1.239 . S
O142 Nd120 2.487 . S
O142 C129 1.241 . S
O143 Nd120 2.682 . S
O143 Nd121 2.414 . S
O143 C129 1.273 . S
O144 Nd120 2.410 . S
O144 C130 1.251 . S
O145 Nd121 2.424 . S
O145 C130 1.268 . S
O146 Nd121 2.500 . S
O146 C131 1.258 . S
O147 Nd121 2.492 . S
O147 C131 1.239 . S
O148 Nd121 2.487 . S
O148 C138 1.241 . S
O149 Nd120 2.414 . S
O149 Nd121 2.682 . S
O149 C138 1.273 . S
O150 Nd121 2.410 . S
O150 C139 1.251 . S
O151 Nd120 2.424 . S
O151 C139 1.268 . S
H152 C124 0.930 . S
H153 C125 0.929 . S
H154 C127 0.930 . S
H155 C128 0.929 . S
H156 C133 0.930 . S
H157 C134 0.929 . S
H158 C136 0.930 . S
H159 C137 0.929 . S
Nd160 C162 2.836 . S
Nd160 O180 2.500 . S
Nd160 O181 2.492 . S
Nd160 O182 2.487 . S
Nd160 O183 2.682 . S
Nd160 O184 2.410 . S
Nd160 O189 2.414 . S
Nd160 O191 2.424 . S
Nd161 C171 2.836 . S
Nd161 O183 2.414 . S
Nd161 O185 2.424 . S
Nd161 O186 2.500 . S
Nd161 O187 2.492 . S
Nd161 O188 2.487 . S
Nd161 O189 2.682 . S
Nd161 O190 2.410 . S
C162 Nd160 2.836 . S
C162 C163 1.498 . S
C162 O180 1.258 . S
C162 O181 1.239 . S
C163 C162 1.498 . S
C163 C164 1.366 . S
C163 C168 1.407 . S
C164 C163 1.366 . S
C164 C165 1.392 . S
C164 H192 0.930 . S
C165 C164 1.392 . S
C165 C166 1.398 . S
C165 H193 0.929 . S
C166 C165 1.398 . S
C166 C167 1.352 . S
C167 C166 1.352 . S
C167 C168 1.384 . S
C167 H194 0.930 . S
C168 C163 1.407 . S
C168 C167 1.384 . S
C168 H195 0.929 . S
C169 O182 1.241 . S
C169 O183 1.273 . S
C170 O184 1.251 . S
C170 O185 1.268 . S
C171 Nd161 2.836 . S
C171 C172 1.498 . S
C171 O186 1.258 . S
C171 O187 1.239 . S
C172 C171 1.498 . S
C172 C173 1.366 . S
C172 C177 1.407 . S
C173 C172 1.366 . S
C173 C174 1.392 . S
C173 H196 0.930 . S
C174 C173 1.392 . S
C174 C175 1.398 . S
C174 H197 0.929 . S
C175 C174 1.398 . S
C175 C176 1.352 . S
C176 C175 1.352 . S
C176 C177 1.384 . S
C176 H198 0.930 . S
C177 C172 1.407 . S
C177 C176 1.384 . S
C177 H199 0.929 . S
C178 O188 1.241 . S
C178 O189 1.273 . S
C179 O190 1.251 . S
C179 O191 1.268 . S
O180 Nd160 2.500 . S
O180 C162 1.258 . S
O181 Nd160 2.492 . S
O181 C162 1.239 . S
O182 Nd160 2.487 . S
O182 C169 1.241 . S
O183 Nd160 2.682 . S
O183 Nd161 2.414 . S
O183 C169 1.273 . S
O184 Nd160 2.410 . S
O184 C170 1.251 . S
O185 Nd161 2.424 . S
O185 C170 1.268 . S
O186 Nd161 2.500 . S
O186 C171 1.258 . S
O187 Nd161 2.492 . S
O187 C171 1.239 . S
O188 Nd161 2.487 . S
O188 C178 1.241 . S
O189 Nd160 2.414 . S
O189 Nd161 2.682 . S
O189 C178 1.273 . S
O190 Nd161 2.410 . S
O190 C179 1.251 . S
O191 Nd160 2.424 . S
O191 C179 1.268 . S
H192 C164 0.930 . S
H193 C165 0.929 . S
H194 C167 0.930 . S
H195 C168 0.929 . S
H196 C173 0.930 . S
H197 C174 0.929 . S
H198 C176 0.930 . S
H199 C177 0.929 . S
Nd200 C202 2.836 . S
Nd200 O220 2.500 . S
Nd200 O221 2.492 . S
Nd200 O222 2.487 . S
Nd200 O223 2.682 . S
Nd200 O224 2.410 . S
Nd200 O229 2.414 . S
Nd200 O231 2.424 . S
Nd201 C211 2.836 . S
Nd201 O223 2.414 . S
Nd201 O225 2.424 . S
Nd201 O226 2.500 . S
Nd201 O227 2.492 . S
Nd201 O228 2.487 . S
Nd201 O229 2.682 . S
Nd201 O230 2.410 . S
C202 Nd200 2.836 . S
C202 C203 1.498 . S
C202 O220 1.258 . S
C202 O221 1.239 . S
C203 C202 1.498 . S
C203 C204 1.366 . S
C203 C208 1.407 . S
C204 C203 1.366 . S
C204 C205 1.392 . S
C204 H232 0.930 . S
C205 C204 1.392 . S
C205 C206 1.398 . S
C205 H233 0.929 . S
C206 C205 1.398 . S
C206 C207 1.352 . S
C207 C206 1.352 . S
C207 C208 1.384 . S
C207 H234 0.930 . S
C208 C203 1.407 . S
C208 C207 1.384 . S
C208 H235 0.929 . S
C209 O222 1.241 . S
C209 O223 1.273 . S
C210 O224 1.251 . S
C210 O225 1.268 . S
C211 Nd201 2.836 . S
C211 C212 1.498 . S
C211 O226 1.258 . S
C211 O227 1.239 . S
C212 C211 1.498 . S
C212 C213 1.366 . S
C212 C217 1.407 . S
C213 C212 1.366 . S
C213 C214 1.392 . S
C213 H236 0.930 . S
C214 C213 1.392 . S
C214 C215 1.398 . S
C214 H237 0.929 . S
C215 C214 1.398 . S
C215 C216 1.352 . S
C216 C215 1.352 . S
C216 C217 1.384 . S
C216 H238 0.930 . S
C217 C212 1.407 . S
C217 C216 1.384 . S
C217 H239 0.929 . S
C218 O228 1.241 . S
C218 O229 1.273 . S
C219 O230 1.251 . S
C219 O231 1.268 . S
O220 Nd200 2.500 . S
O220 C202 1.258 . S
O221 Nd200 2.492 . S
O221 C202 1.239 . S
O222 Nd200 2.487 . S
O222 C209 1.241 . S
O223 Nd200 2.682 . S
O223 Nd201 2.414 . S
O223 C209 1.273 . S
O224 Nd200 2.410 . S
O224 C210 1.251 . S
O225 Nd201 2.424 . S
O225 C210 1.268 . S
O226 Nd201 2.500 . S
O226 C211 1.258 . S
O227 Nd201 2.492 . S
O227 C211 1.239 . S
O228 Nd201 2.487 . S
O228 C218 1.241 . S
O229 Nd200 2.414 . S
O229 Nd201 2.682 . S
O229 C218 1.273 . S
O230 Nd201 2.410 . S
O230 C219 1.251 . S
O231 Nd200 2.424 . S
O231 C219 1.268 . S
H232 C204 0.930 . S
H233 C205 0.929 . S
H234 C207 0.930 . S
H235 C208 0.929 . S
H236 C213 0.930 . S
H237 C214 0.929 . S
H238 C216 0.930 . S
H239 C217 0.929 . S
Nd240 C242 2.836 . S
Nd240 O260 2.500 . S
Nd240 O261 2.492 . S
Nd240 O262 2.487 . S
Nd240 O263 2.682 . S
Nd240 O264 2.410 . S
Nd240 O269 2.414 . S
Nd240 O271 2.424 . S
Nd241 C251 2.836 . S
Nd241 O263 2.414 . S
Nd241 O265 2.424 . S
Nd241 O266 2.500 . S
Nd241 O267 2.492 . S
Nd241 O268 2.487 . S
Nd241 O269 2.682 . S
Nd241 O270 2.410 . S
C242 Nd240 2.836 . S
C242 C243 1.498 . S
C242 O260 1.258 . S
C242 O261 1.239 . S
C243 C242 1.498 . S
C243 C244 1.366 . S
C243 C248 1.407 . S
C244 C243 1.366 . S
C244 C245 1.392 . S
C244 H272 0.930 . S
C245 C244 1.392 . S
C245 C246 1.398 . S
C245 H273 0.929 . S
C246 C245 1.398 . S
C246 C247 1.352 . S
C247 C246 1.352 . S
C247 C248 1.384 . S
C247 H274 0.930 . S
C248 C243 1.407 . S
C248 C247 1.384 . S
C248 H275 0.929 . S
C249 O262 1.241 . S
C249 O263 1.273 . S
C250 O264 1.251 . S
C250 O265 1.268 . S
C251 Nd241 2.836 . S
C251 C252 1.498 . S
C251 O266 1.258 . S
C251 O267 1.239 . S
C252 C251 1.498 . S
C252 C253 1.366 . S
C252 C257 1.407 . S
C253 C252 1.366 . S
C253 C254 1.392 . S
C253 H276 0.930 . S
C254 C253 1.392 . S
C254 C255 1.398 . S
C254 H277 0.929 . S
C255 C254 1.398 . S
C255 C256 1.352 . S
C256 C255 1.352 . S
C256 C257 1.384 . S
C256 H278 0.930 . S
C257 C252 1.407 . S
C257 C256 1.384 . S
C257 H279 0.929 . S
C258 O268 1.241 . S
C258 O269 1.273 . S
C259 O270 1.251 . S
C259 O271 1.268 . S
O260 Nd240 2.500 . S
O260 C242 1.258 . S
O261 Nd240 2.492 . S
O261 C242 1.239 . S
O262 Nd240 2.487 . S
O262 C249 1.241 . S
O263 Nd240 2.682 . S
O263 Nd241 2.414 . S
O263 C249 1.273 . S
O264 Nd240 2.410 . S
O264 C250 1.251 . S
O265 Nd241 2.424 . S
O265 C250 1.268 . S
O266 Nd241 2.500 . S
O266 C251 1.258 . S
O267 Nd241 2.492 . S
O267 C251 1.239 . S
O268 Nd241 2.487 . S
O268 C258 1.241 . S
O269 Nd240 2.414 . S
O269 Nd241 2.682 . S
O269 C258 1.273 . S
O270 Nd241 2.410 . S
O270 C259 1.251 . S
O271 Nd240 2.424 . S
O271 C259 1.268 . S
H272 C244 0.930 . S
H273 C245 0.929 . S
H274 C247 0.930 . S
H275 C248 0.929 . S
H276 C253 0.930 . S
H277 C254 0.929 . S
H278 C256 0.930 . S
H279 C257 0.929 . S
Nd280 C282 2.836 . S
Nd280 O300 2.500 . S
Nd280 O301 2.492 . S
Nd280 O302 2.487 . S
Nd280 O303 2.682 . S
Nd280 O304 2.410 . S
Nd280 O309 2.414 . S
Nd280 O311 2.424 . S
Nd281 C291 2.836 . S
Nd281 O303 2.414 . S
Nd281 O305 2.424 . S
Nd281 O306 2.500 . S
Nd281 O307 2.492 . S
Nd281 O308 2.487 . S
Nd281 O309 2.682 . S
Nd281 O310 2.410 . S
C282 Nd280 2.836 . S
C282 C283 1.498 . S
C282 O300 1.258 . S
C282 O301 1.239 . S
C283 C282 1.498 . S
C283 C284 1.366 . S
C283 C288 1.407 . S
C284 C283 1.366 . S
C284 C285 1.392 . S
C284 H312 0.930 . S
C285 C284 1.392 . S
C285 C286 1.398 . S
C285 H313 0.929 . S
C286 C285 1.398 . S
C286 C287 1.352 . S
C287 C286 1.352 . S
C287 C288 1.384 . S
C287 H314 0.930 . S
C288 C283 1.407 . S
C288 C287 1.384 . S
C288 H315 0.929 . S
C289 O302 1.241 . S
C289 O303 1.273 . S
C290 O304 1.251 . S
C290 O305 1.268 . S
C291 Nd281 2.836 . S
C291 C292 1.498 . S
C291 O306 1.258 . S
C291 O307 1.239 . S
C292 C291 1.498 . S
C292 C293 1.366 . S
C292 C297 1.407 . S
C293 C292 1.366 . S
C293 C294 1.392 . S
C293 H316 0.930 . S
C294 C293 1.392 . S
C294 C295 1.398 . S
C294 H317 0.929 . S
C295 C294 1.398 . S
C295 C296 1.352 . S
C296 C295 1.352 . S
C296 C297 1.384 . S
C296 H318 0.930 . S
C297 C292 1.407 . S
C297 C296 1.384 . S
C297 H319 0.929 . S
C298 O308 1.241 . S
C298 O309 1.273 . S
C299 O310 1.251 . S
C299 O311 1.268 . S
O300 Nd280 2.500 . S
O300 C282 1.258 . S
O301 Nd280 2.492 . S
O301 C282 1.239 . S
O302 Nd280 2.487 . S
O302 C289 1.241 . S
O303 Nd280 2.682 . S
O303 Nd281 2.414 . S
O303 C289 1.273 . S
O304 Nd280 2.410 . S
O304 C290 1.251 . S
O305 Nd281 2.424 . S
O305 C290 1.268 . S
O306 Nd281 2.500 . S
O306 C291 1.258 . S
O307 Nd281 2.492 . S
O307 C291 1.239 . S
O308 Nd281 2.487 . S
O308 C298 1.241 . S
O309 Nd280 2.414 . S
O309 Nd281 2.682 . S
O309 C298 1.273 . S
O310 Nd281 2.410 . S
O310 C299 1.251 . S
O311 Nd280 2.424 . S
O311 C299 1.268 . S
H312 C284 0.930 . S
H313 C285 0.929 . S
H314 C287 0.930 . S
H315 C288 0.929 . S
H316 C293 0.930 . S
H317 C294 0.929 . S
H318 C296 0.930 . S
H319 C297 0.929 . S
Nd320 C322 2.836 . S
Nd320 O340 2.500 . S
Nd320 O341 2.492 . S
Nd320 O342 2.487 . S
Nd320 O343 2.682 . S
Nd320 O344 2.410 . S
Nd320 O349 2.414 . S
Nd320 O351 2.424 . S
Nd321 C331 2.836 . S
Nd321 O343 2.414 . S
Nd321 O345 2.424 . S
Nd321 O346 2.500 . S
Nd321 O347 2.492 . S
Nd321 O348 2.487 . S
Nd321 O349 2.682 . S
Nd321 O350 2.410 . S
C322 Nd320 2.836 . S
C322 C323 1.498 . S
C322 O340 1.258 . S
C322 O341 1.239 . S
C323 C322 1.498 . S
C323 C324 1.366 . S
C323 C328 1.407 . S
C324 C323 1.366 . S
C324 C325 1.392 . S
C324 H352 0.930 . S
C325 C324 1.392 . S
C325 C326 1.398 . S
C325 H353 0.929 . S
C326 C325 1.398 . S
C326 C327 1.352 . S
C327 C326 1.352 . S
C327 C328 1.384 . S
C327 H354 0.930 . S
C328 C323 1.407 . S
C328 C327 1.384 . S
C328 H355 0.929 . S
C329 O342 1.241 . S
C329 O343 1.273 . S
C330 O344 1.251 . S
C330 O345 1.268 . S
C331 Nd321 2.836 . S
C331 C332 1.498 . S
C331 O346 1.258 . S
C331 O347 1.239 . S
C332 C331 1.498 . S
C332 C333 1.366 . S
C332 C337 1.407 . S
C333 C332 1.366 . S
C333 C334 1.392 . S
C333 H356 0.930 . S
C334 C333 1.392 . S
C334 C335 1.398 . S
C334 H357 0.929 . S
C335 C334 1.398 . S
C335 C336 1.352 . S
C336 C335 1.352 . S
C336 C337 1.384 . S
C336 H358 0.930 . S
C337 C332 1.407 . S
C337 C336 1.384 . S
C337 H359 0.929 . S
C338 O348 1.241 . S
C338 O349 1.273 . S
C339 O350 1.251 . S
C339 O351 1.268 . S
O340 Nd320 2.500 . S
O340 C322 1.258 . S
O341 Nd320 2.492 . S
O341 C322 1.239 . S
O342 Nd320 2.487 . S
O342 C329 1.241 . S
O343 Nd320 2.682 . S
O343 Nd321 2.414 . S
O343 C329 1.273 . S
O344 Nd320 2.410 . S
O344 C330 1.251 . S
O345 Nd321 2.424 . S
O345 C330 1.268 . S
O346 Nd321 2.500 . S
O346 C331 1.258 . S
O347 Nd321 2.492 . S
O347 C331 1.239 . S
O348 Nd321 2.487 . S
O348 C338 1.241 . S
O349 Nd320 2.414 . S
O349 Nd321 2.682 . S
O349 C338 1.273 . S
O350 Nd321 2.410 . S
O350 C339 1.251 . S
O351 Nd320 2.424 . S
O351 C339 1.268 . S
H352 C324 0.930 . S
H353 C325 0.929 . S
H354 C327 0.930 . S
H355 C328 0.929 . S
H356 C333 0.930 . S
H357 C334 0.929 . S
H358 C336 0.930 . S
H359 C337 0.929 . S
C360 C361 1.349 . S
C360 C362 1.327 . S
C360 H385 0.950 . S
C361 C360 1.349 . S
C361 C377 1.349 1_556 S
C362 C360 1.327 . S
C362 C381 1.429 . S
C362 H386 0.950 . S
C363 C380 1.574 . S
C363 C382 1.368 . S
C363 H387 0.949 . S
H364 C368 0.949 . S
C365 C366 1.349 . S
C365 C367 1.327 . S
C365 H388 0.950 . S
C366 C365 1.349 . S
C366 C378 1.349 . S
C367 C365 1.327 . S
C367 C383 1.429 . S
C367 H389 0.950 . S
C368 H364 0.949 . S
C368 C376 1.574 . S
C368 C384 1.368 . S
H369 C377 0.950 . S
H370 C375 0.950 . S
H371 C376 0.949 . S
H372 C378 0.950 . S
H373 C379 0.950 . S
H374 C380 0.949 . S
C375 H370 0.950 . S
C375 C377 1.327 1_556 S
C375 C381 1.429 . S
C376 C368 1.574 . S
C376 H371 0.949 . S
C376 C382 1.368 . S
C377 C361 1.349 1_554 S
C377 H369 0.950 . S
C377 C375 1.327 1_554 S
C378 C366 1.349 . S
C378 H372 0.950 . S
C378 C379 1.327 . S
C379 H373 0.950 . S
C379 C378 1.327 . S
C379 C383 1.429 . S
C380 C363 1.574 . S
C380 H374 0.949 . S
C380 C384 1.368 . S
C381 C362 1.429 . S
C381 C375 1.429 . S
C381 C382 1.523 . S
C382 C363 1.368 . S
C382 C376 1.368 . S
C382 C381 1.523 . S
C383 C367 1.429 . S
C383 C379 1.429 . S
C383 C384 1.523 . S
C384 C368 1.368 . S
C384 C380 1.368 . S
C384 C383 1.523 . S
H385 C360 0.950 . S
H386 C362 0.950 . S
H387 C363 0.949 . S
H388 C365 0.950 . S
H389 C367 0.950 . S
C390 C391 1.349 . S
C390 C392 1.327 . S
C390 H415 0.950 . S
C391 C390 1.349 . S
C391 C407 1.349 1_556 S
C392 C390 1.327 . S
C392 C411 1.429 . S
C392 H416 0.950 . S
C393 C410 1.574 . S
C393 C412 1.368 . S
C393 H417 0.949 . S
H394 C398 0.949 . S
C395 C396 1.349 . S
C395 C397 1.327 . S
C395 H418 0.950 . S
C396 C395 1.349 . S
C396 C408 1.349 . S
C397 C395 1.327 . S
C397 C413 1.429 . S
C397 H419 0.950 . S
C398 H394 0.949 . S
C398 C406 1.574 . S
C398 C414 1.368 . S
H399 C407 0.950 . S
H400 C405 0.950 1_554 S
H401 C406 0.949 . S
H402 C408 0.950 . S
H403 C409 0.950 . S
H404 C410 0.949 . S
C405 H400 0.950 1_556 S
C405 C407 1.327 1_556 S
C405 C411 1.429 . S
C406 C398 1.574 . S
C406 H401 0.949 . S
C406 C412 1.368 . S
C407 C391 1.349 1_554 S
C407 H399 0.950 . S
C407 C405 1.327 1_554 S
C408 C396 1.349 . S
C408 H402 0.950 . S
C408 C409 1.327 . S
C409 H403 0.950 . S
C409 C408 1.327 . S
C409 C413 1.429 . S
C410 C393 1.574 . S
C410 H404 0.949 . S
C410 C414 1.368 . S
C411 C392 1.429 . S
C411 C405 1.429 . S
C411 C412 1.523 . S
C412 C393 1.368 . S
C412 C406 1.368 . S
C412 C411 1.523 . S
C413 C397 1.429 . S
C413 C409 1.429 . S
C413 C414 1.523 . S
C414 C398 1.368 . S
C414 C410 1.368 . S
C414 C413 1.523 . S
H415 C390 0.950 . S
H416 C392 0.950 . S
H417 C393 0.949 . S
H418 C395 0.950 . S
H419 C397 0.950 . S
C420 C421 1.349 . S
C420 C422 1.327 . S
C420 H445 0.950 . S
C421 C420 1.349 . S
C421 C437 1.349 1_556 S
C422 C420 1.327 . S
C422 C441 1.429 . S
C422 H446 0.950 . S
C423 C440 1.574 . S
C423 C442 1.368 . S
C423 H447 0.949 . S
H424 C428 0.949 . S
C425 C426 1.349 . S
C425 C427 1.327 . S
C425 H448 0.950 . S
C426 C425 1.349 . S
C426 C438 1.349 . S
C427 C425 1.327 . S
C427 C443 1.429 . S
C427 H449 0.950 . S
C428 H424 0.949 . S
C428 C436 1.574 . S
C428 C444 1.368 . S
H429 C437 0.950 . S
H430 C435 0.950 1_554 S
H431 C436 0.949 . S
H432 C438 0.950 . S
H433 C439 0.950 . S
H434 C440 0.949 . S
C435 H430 0.950 1_556 S
C435 C437 1.327 1_556 S
C435 C441 1.429 . S
C436 C428 1.574 . S
C436 H431 0.949 . S
C436 C442 1.368 . S
C437 C421 1.349 1_554 S
C437 H429 0.950 . S
C437 C435 1.327 1_554 S
C438 C426 1.349 . S
C438 H432 0.950 . S
C438 C439 1.327 . S
C439 H433 0.950 . S
C439 C438 1.327 . S
C439 C443 1.429 . S
C440 C423 1.574 . S
C440 H434 0.949 . S
C440 C444 1.368 . S
C441 C422 1.429 . S
C441 C435 1.429 . S
C441 C442 1.523 . S
C442 C423 1.368 . S
C442 C436 1.368 . S
C442 C441 1.523 . S
C443 C427 1.429 . S
C443 C439 1.429 . S
C443 C444 1.523 . S
C444 C428 1.368 . S
C444 C440 1.368 . S
C444 C443 1.523 . S
H445 C420 0.950 . S
H446 C422 0.950 . S
H447 C423 0.949 . S
H448 C425 0.950 . S
H449 C427 0.950 . S
C450 C451 1.349 . S
C450 C452 1.327 . S
C450 H475 0.950 . S
C451 C450 1.349 . S
C451 C467 1.349 . S
C452 C450 1.327 . S
C452 C471 1.429 . S
C452 H476 0.950 . S
C453 C470 1.574 . S
C453 C472 1.368 . S
C453 H477 0.949 . S
H454 C458 0.949 . S
C455 C456 1.349 . S
C455 C457 1.327 . S
C455 H478 0.950 . S
C456 C455 1.349 . S
C456 C468 1.349 . S
C457 C455 1.327 . S
C457 C473 1.429 . S
C457 H479 0.950 . S
C458 H454 0.949 . S
C458 C466 1.574 . S
C458 C474 1.368 . S
H459 C467 0.950 . S
H460 C465 0.950 . S
H461 C466 0.949 . S
H462 C468 0.950 1_556 S
H463 C469 0.950 . S
H464 C470 0.949 . S
C465 H460 0.950 . S
C465 C467 1.327 . S
C465 C471 1.429 . S
C466 C458 1.574 . S
C466 H461 0.949 . S
C466 C472 1.368 . S
C467 C451 1.349 . S
C467 H459 0.950 . S
C467 C465 1.327 . S
C468 C456 1.349 . S
C468 H462 0.950 1_554 S
C468 C469 1.327 . S
C469 H463 0.950 . S
C469 C468 1.327 . S
C469 C473 1.429 . S
C470 C453 1.574 . S
C470 H464 0.949 . S
C470 C474 1.368 . S
C471 C452 1.429 . S
C471 C465 1.429 . S
C471 C472 1.523 . S
C472 C453 1.368 . S
C472 C466 1.368 . S
C472 C471 1.523 . S
C473 C457 1.429 . S
C473 C469 1.429 . S
C473 C474 1.523 . S
C474 C458 1.368 . S
C474 C470 1.368 . S
C474 C473 1.523 . S
H475 C450 0.950 . S
H476 C452 0.950 . S
H477 C453 0.949 . S
H478 C455 0.950 . S
H479 C457 0.950 . S
C480 C481 1.349 . S
C480 C482 1.327 . S
C480 H505 0.950 . S
C481 C480 1.349 . S
C481 C497 1.349 . S
C482 C480 1.327 . S
C482 C501 1.429 . S
C482 H506 0.950 . S
C483 C500 1.574 . S
C483 C502 1.368 . S
C483 H507 0.949 . S
H484 C488 0.949 . S
C485 C486 1.349 . S
C485 C487 1.327 . S
C485 H508 0.950 1_655 S
C486 C485 1.349 . S
C486 C498 1.349 . S
C487 C485 1.327 . S
C487 C503 1.429 . S
C487 H509 0.950 . S
C488 H484 0.949 . S
C488 C496 1.574 . S
C488 C504 1.368 . S
H489 C497 0.950 . S
H490 C495 0.950 . S
H491 C496 0.949 . S
H492 C498 0.950 . S
H493 C499 0.950 . S
H494 C500 0.949 . S
C495 H490 0.950 . S
C495 C497 1.327 . S
C495 C501 1.429 . S
C496 C488 1.574 . S
C496 H491 0.949 . S
C496 C502 1.368 . S
C497 C481 1.349 . S
C497 H489 0.950 . S
C497 C495 1.327 . S
C498 C486 1.349 . S
C498 H492 0.950 . S
C498 C499 1.327 . S
C499 H493 0.950 . S
C499 C498 1.327 . S
C499 C503 1.429 . S
C500 C483 1.574 . S
C500 H494 0.949 . S
C500 C504 1.368 . S
C501 C482 1.429 . S
C501 C495 1.429 . S
C501 C502 1.523 . S
C502 C483 1.368 . S
C502 C496 1.368 . S
C502 C501 1.523 . S
C503 C487 1.429 . S
C503 C499 1.429 . S
C503 C504 1.523 . S
C504 C488 1.368 . S
C504 C500 1.368 . S
C504 C503 1.523 . S
H505 C480 0.950 . S
H506 C482 0.950 . S
H507 C483 0.949 . S
H508 C485 0.950 1_455 S
H509 C487 0.950 . S
C510 C511 1.349 . S
C510 C512 1.327 . S
C510 H535 0.950 1_554 S
C511 C510 1.349 . S
C511 C527 1.349 . S
C512 C510 1.327 . S
C512 C531 1.429 . S
C512 H536 0.950 . S
C513 C530 1.574 . S
C513 C532 1.368 . S
C513 H537 0.949 . S
H514 C518 0.949 . S
C515 C516 1.349 . S
C515 C517 1.327 . S
C515 H538 0.950 . S
C516 C515 1.349 . S
C516 C528 1.349 . S
C517 C515 1.327 . S
C517 C533 1.429 . S
C517 H539 0.950 . S
C518 H514 0.949 . S
C518 C526 1.574 . S
C518 C534 1.368 . S
H519 C527 0.950 . S
H520 C525 0.950 . S
H521 C526 0.949 . S
H522 C528 0.950 . S
H523 C529 0.950 . S
H524 C530 0.949 . S
C525 H520 0.950 . S
C525 C527 1.327 . S
C525 C531 1.429 . S
C526 C518 1.574 . S
C526 H521 0.949 . S
C526 C532 1.368 . S
C527 C511 1.349 . S
C527 H519 0.950 . S
C527 C525 1.327 . S
C528 C516 1.349 . S
C528 H522 0.950 . S
C528 C529 1.327 . S
C529 H523 0.950 . S
C529 C528 1.327 . S
C529 C533 1.429 . S
C530 C513 1.574 . S
C530 H524 0.949 . S
C530 C534 1.368 . S
C531 C512 1.429 . S
C531 C525 1.429 . S
C531 C532 1.523 . S
C532 C513 1.368 . S
C532 C526 1.368 . S
C532 C531 1.523 . S
C533 C517 1.429 . S
C533 C529 1.429 . S
C533 C534 1.523 . S
C534 C518 1.368 . S
C534 C530 1.368 . S
C534 C533 1.523 . S
H535 C510 0.950 1_556 S
H536 C512 0.950 . S
H537 C513 0.949 . S
H538 C515 0.950 . S
H539 C517 0.950 . S
C540 C541 1.349 . S
C540 C542 1.327 . S
C540 H565 0.950 . S
C541 C540 1.349 . S
C541 C557 1.349 . S
C542 C540 1.327 . S
C542 C561 1.429 . S
C542 H566 0.950 . S
C543 C560 1.574 . S
C543 C562 1.368 . S
C543 H567 0.949 . S
H544 C548 0.949 . S
C545 C546 1.349 . S
C545 C547 1.327 . S
C545 H568 0.950 . S
C546 C545 1.349 . S
C546 C558 1.349 . S
C547 C545 1.327 . S
C547 C563 1.429 . S
C547 H569 0.950 . S
C548 H544 0.949 . S
C548 C556 1.574 . S
C548 C564 1.368 . S
H549 C557 0.950 . S
H550 C555 0.950 . S
H551 C556 0.937 1_455 S
H552 C558 0.950 . S
H553 C559 0.950 . S
H554 C560 0.949 . S
C555 H550 0.950 . S
C555 C557 1.327 . S
C555 C561 1.429 . S
C556 C548 1.574 . S
C556 H551 0.937 1_655 S
C556 C562 1.368 . S
C557 C541 1.349 . S
C557 H549 0.950 . S
C557 C555 1.327 . S
C558 C546 1.349 . S
C558 H552 0.950 . S
C558 C559 1.327 . S
C559 H553 0.950 . S
C559 C558 1.327 . S
C559 C563 1.429 . S
C560 C543 1.574 . S
C560 H554 0.949 . S
C560 C564 1.368 . S
C561 C542 1.429 . S
C561 C555 1.429 . S
C561 C562 1.523 1_455 S
C562 C543 1.368 . S
C562 C556 1.368 . S
C562 C561 1.523 1_655 S
C563 C547 1.429 . S
C563 C559 1.429 . S
C563 C564 1.523 . S
C564 C548 1.368 . S
C564 C560 1.368 . S
C564 C563 1.523 . S
H565 C540 0.950 . S
H566 C542 0.950 . S
H567 C543 0.949 . S
H568 C545 0.950 . S
H569 C547 0.950 . S
C570 C571 1.349 . S
C570 C572 1.327 . S
C570 H595 0.950 . S
C571 C570 1.349 . S
C571 C587 1.349 . S
C572 C570 1.327 . S
C572 C591 1.429 . S
C572 H596 0.950 . S
C573 C590 1.574 . S
C573 C592 1.368 . S
C573 H597 0.949 . S
H574 C578 0.949 . S
C575 C576 1.349 . S
C575 C577 1.327 . S
C575 H598 0.950 . S
C576 C575 1.349 . S
C576 C588 1.349 . S
C577 C575 1.327 . S
C577 C593 1.429 . S
C577 H599 0.950 . S
C578 H574 0.949 . S
C578 C586 1.574 . S
C578 C594 1.368 . S
H579 C587 0.950 . S
H580 C585 0.950 . S
H581 C586 0.949 . S
H582 C588 0.950 . S
H583 C589 0.950 . S
H584 C590 0.949 . S
C585 H580 0.950 . S
C585 C587 1.327 . S
C585 C591 1.429 . S
C586 C578 1.574 . S
C586 H581 0.949 . S
C586 C592 1.368 . S
C587 C571 1.349 . S
C587 H579 0.950 . S
C587 C585 1.327 . S
C588 C576 1.349 . S
C588 H582 0.950 . S
C588 C589 1.327 . S
C589 H583 0.950 . S
C589 C588 1.327 . S
C589 C593 1.429 . S
C590 C573 1.574 . S
C590 H584 0.949 . S
C590 C594 1.368 . S
C591 C572 1.429 . S
C591 C585 1.429 . S
C591 C592 1.523 . S
C592 C573 1.368 . S
C592 C586 1.368 . S
C592 C591 1.523 . S
C593 C577 1.429 . S
C593 C589 1.429 . S
C593 C594 1.523 . S
C594 C578 1.368 . S
C594 C590 1.368 . S
C594 C593 1.523 . S
H595 C570 0.950 . S
H596 C572 0.950 . S
H597 C573 0.949 . S
H598 C575 0.950 . S
H599 C577 0.950 . S
C600 C601 1.349 . S
C600 C602 1.327 . S
C600 H625 0.950 . S
C601 C600 1.349 . S
C601 C617 1.349 . S
C602 C600 1.327 . S
C602 C621 1.429 . S
C602 H626 0.950 . S
C603 C620 1.574 . S
C603 C622 1.368 . S
C603 H627 0.949 . S
H604 C608 0.949 . S
C605 C606 1.349 . S
C605 C607 1.327 1_565 S
C605 H628 0.950 . S
C606 C605 1.349 . S
C606 C618 1.349 . S
C607 C605 1.327 1_545 S
C607 C623 1.429 . S
C607 H629 0.950 . S
C608 H604 0.949 . S
C608 C616 1.574 . S
C608 C624 1.368 . S
H609 C617 0.950 . S
H610 C615 0.950 . S
H611 C616 0.949 . S
H612 C618 0.950 . S
H613 C619 0.950 . S
H614 C620 0.949 . S
C615 H610 0.950 . S
C615 C617 1.327 . S
C615 C621 1.429 . S
C616 C608 1.574 . S
C616 H611 0.949 . S
C616 C622 1.368 . S
C617 C601 1.349 . S
C617 H609 0.950 . S
C617 C615 1.327 . S
C618 C606 1.349 . S
C618 H612 0.950 . S
C618 C619 1.327 1_565 S
C619 H613 0.950 . S
C619 C618 1.327 1_545 S
C619 C623 1.429 . S
C620 C603 1.574 . S
C620 H614 0.949 . S
C620 C624 1.368 . S
C621 C602 1.429 . S
C621 C615 1.429 . S
C621 C622 1.523 . S
C622 C603 1.368 . S
C622 C616 1.368 . S
C622 C621 1.523 . S
C623 C607 1.429 . S
C623 C619 1.429 . S
C623 C624 1.523 . S
C624 C608 1.368 . S
C624 C620 1.368 . S
C624 C623 1.523 . S
H625 C600 0.950 . S
H626 C602 0.950 . S
H627 C603 0.949 . S
H628 C605 0.950 . S
H629 C607 0.950 . S
C630 C631 1.349 1_556 S
C630 C632 1.327 . S
C630 H655 0.950 . S
C631 C630 1.349 1_554 S
C631 C647 1.349 . S
C632 C630 1.327 . S
C632 C651 1.434 . S
C632 H656 0.950 . S
C633 C650 1.574 . S
C633 C652 1.368 1_554 S
C633 H657 0.949 . S
H634 C638 0.949 . S
C635 C636 1.349 1_554 S
C635 C637 1.327 . S
C635 H658 0.950 . S
C636 C635 1.349 1_556 S
C636 C648 1.349 . S
C637 C635 1.327 . S
C637 C653 1.429 1_554 S
C637 H659 0.950 . S
C638 H634 0.949 . S
C638 C646 1.574 . S
C638 C654 1.368 . S
H639 C647 0.950 . S
H640 C645 0.950 . S
H641 C646 0.949 . S
H642 C648 0.950 . S
H643 C649 0.950 . S
H644 C650 0.949 . S
C645 H640 0.950 . S
C645 C647 1.327 . S
C645 C651 1.423 1_554 S
C646 C638 1.574 . S
C646 H641 0.949 . S
C646 C652 1.368 . S
C647 C631 1.349 . S
C647 H639 0.950 . S
C647 C645 1.327 . S
C648 C636 1.349 . S
C648 H642 0.950 . S
C648 C649 1.327 . S
C649 H643 0.950 . S
C649 C648 1.327 . S
C649 C653 1.429 . S
C650 C633 1.574 . S
C650 H644 0.949 . S
C650 C654 1.368 1_554 S
C651 C632 1.434 . S
C651 C645 1.423 1_556 S
C651 C652 1.523 . S
C652 C633 1.368 1_556 S
C652 C646 1.368 . S
C652 C651 1.523 . S
C653 C637 1.429 1_556 S
C653 C649 1.429 . S
C653 C654 1.523 . S
C654 C638 1.368 . S
C654 C650 1.368 1_556 S
C654 C653 1.523 . S
H655 C630 0.950 . S
H656 C632 0.950 . S
H657 C633 0.949 . S
H658 C635 0.950 . S
H659 C637 0.950 . S
C660 C661 1.349 . S
C660 C662 1.327 . S
C660 H685 0.950 . S
C661 C660 1.349 . S
C661 C677 1.349 1_556 S
C662 C660 1.327 . S
C662 C681 1.429 . S
C662 H686 0.950 . S
C663 C680 1.574 . S
C663 C682 1.368 1_554 S
C663 H687 0.949 . S
H664 C668 0.949 . S
C665 C666 1.349 . S
C665 C667 1.327 . S
C665 H688 0.950 . S
C666 C665 1.349 . S
C666 C678 1.349 1_554 S
C667 C665 1.327 . S
C667 C683 1.422 1_554 S
C667 H689 0.950 . S
C668 H664 0.949 . S
C668 C676 1.574 . S
C668 C684 1.368 . S
H669 C677 0.950 . S
H670 C675 0.950 . S
H671 C676 0.949 . S
H672 C678 0.950 . S
H673 C679 0.950 . S
H674 C680 0.949 . S
C675 H670 0.950 . S
C675 C677 1.327 . S
C675 C681 1.429 1_554 S
C676 C668 1.574 . S
C676 H671 0.949 . S
C676 C682 1.368 . S
C677 C661 1.349 1_554 S
C677 H669 0.950 . S
C677 C675 1.327 . S
C678 C666 1.349 1_556 S
C678 H672 0.950 . S
C678 C679 1.327 . S
C679 H673 0.950 . S
C679 C678 1.327 . S
C679 C683 1.435 . S
C680 C663 1.574 . S
C680 H674 0.949 . S
C680 C684 1.368 1_554 S
C681 C662 1.429 . S
C681 C675 1.429 1_556 S
C681 C682 1.523 . S
C682 C663 1.368 1_556 S
C682 C676 1.368 . S
C682 C681 1.523 . S
C683 C667 1.422 1_556 S
C683 C679 1.435 . S
C683 C684 1.523 1_545 S
C684 C668 1.368 . S
C684 C680 1.368 1_556 S
C684 C683 1.523 1_565 S
H685 C660 0.950 . S
H686 C662 0.950 . S
H687 C663 0.949 . S
H688 C665 0.950 . S
H689 C667 0.950 . S
C690 C691 1.349 1_556 S
C690 C692 1.327 1_655 S
C690 H715 0.950 . S
C691 C690 1.349 1_554 S
C691 C707 1.349 . S
C692 C690 1.327 1_455 S
C692 C711 1.435 . S
C692 H716 0.950 . S
C693 C710 1.574 . S
C693 C712 1.368 1_554 S
C693 H717 0.949 . S
H694 C698 0.949 . S
C695 C696 1.349 1_554 S
C695 C697 1.327 . S
C695 H718 0.950 . S
C696 C695 1.349 1_556 S
C696 C708 1.349 . S
C697 C695 1.327 . S
C697 C713 1.429 1_554 S
C697 H719 0.950 . S
C698 H694 0.949 . S
C698 C706 1.574 . S
C698 C714 1.368 . S
H699 C707 0.950 . S
H700 C705 0.950 . S
H701 C706 0.949 . S
H702 C708 0.950 . S
H703 C709 0.950 . S
H704 C710 0.949 . S
C705 H700 0.950 . S
C705 C707 1.327 1_455 S
C705 C711 1.422 1_554 S
C706 C698 1.574 . S
C706 H701 0.949 . S
C706 C712 1.368 . S
C707 C691 1.349 . S
C707 H699 0.950 . S
C707 C705 1.327 1_655 S
C708 C696 1.349 . S
C708 H702 0.950 . S
C708 C709 1.327 . S
C709 H703 0.950 . S
C709 C708 1.327 . S
C709 C713 1.429 . S
C710 C693 1.574 . S
C710 H704 0.949 . S
C710 C714 1.368 1_554 S
C711 C692 1.435 . S
C711 C705 1.422 1_556 S
C711 C712 1.523 . S
C712 C693 1.368 1_556 S
C712 C706 1.368 . S
C712 C711 1.523 . S
C713 C697 1.429 1_556 S
C713 C709 1.429 . S
C713 C714 1.523 . S
C714 C698 1.368 . S
C714 C710 1.368 1_556 S
C714 C713 1.523 . S
H715 C690 0.950 . S
H716 C692 0.950 . S
H717 C693 0.949 . S
H718 C695 0.950 . S
H719 C697 0.950 . S
C720 C721 1.349 . S
C720 C722 1.327 . S
C720 H745 0.950 . S
C721 C720 1.349 . S
C721 C737 1.349 . S
C722 C720 1.327 . S
C722 C741 1.429 . S
C722 H746 0.950 . S
C723 C740 1.574 . S
C723 C742 1.368 . S
C723 H747 0.949 . S
H724 C728 0.949 . S
C725 C726 1.349 . S
C725 C727 1.327 . S
C725 H748 0.950 . S
C726 C725 1.349 . S
C726 C738 1.349 . S
C727 C725 1.327 . S
C727 C743 1.429 . S
C727 H749 0.950 . S
C728 H724 0.949 . S
C728 C736 1.574 . S
C728 C744 1.368 . S
H729 C737 0.950 . S
H730 C735 0.950 . S
H731 C736 0.949 . S
H732 C738 0.950 . S
H733 C739 0.950 . S
H734 C740 0.949 . S
C735 H730 0.950 . S
C735 C737 1.327 . S
C735 C741 1.429 . S
C736 C728 1.574 . S
C736 H731 0.949 . S
C736 C742 1.368 . S
C737 C721 1.349 . S
C737 H729 0.950 . S
C737 C735 1.327 . S
C738 C726 1.349 . S
C738 H732 0.950 . S
C738 C739 1.327 . S
C739 H733 0.950 . S
C739 C738 1.327 . S
C739 C743 1.429 . S
C740 C723 1.574 . S
C740 H734 0.949 . S
C740 C744 1.368 . S
C741 C722 1.429 . S
C741 C735 1.429 . S
C741 C742 1.523 . S
C742 C723 1.368 . S
C742 C736 1.368 . S
C742 C741 1.523 . S
C743 C727 1.429 . S
C743 C739 1.429 . S
C743 C744 1.523 . S
C744 C728 1.368 . S
C744 C740 1.368 . S
C744 C743 1.523 . S
H745 C720 0.950 . S
H746 C722 0.950 . S
H747 C723 0.949 . S
H748 C725 0.950 . S
H749 C727 0.950 . S
C750 C751 1.349 . S
C750 C752 1.327 . S
C750 H775 0.950 . S
C751 C750 1.349 . S
C751 C767 1.349 . S
C752 C750 1.327 . S
C752 C771 1.429 . S
C752 H776 0.950 . S
C753 C770 1.574 . S
C753 C772 1.368 . S
C753 H777 0.949 . S
H754 C758 0.949 . S
C755 C756 1.349 . S
C755 C757 1.327 . S
C755 H778 0.950 . S
C756 C755 1.349 . S
C756 C768 1.349 . S
C757 C755 1.327 . S
C757 C773 1.429 . S
C757 H779 0.950 . S
C758 H754 0.949 . S
C758 C766 1.574 . S
C758 C774 1.368 . S
H759 C767 0.950 . S
H760 C765 0.950 . S
H761 C766 0.949 . S
H762 C768 0.950 . S
H763 C769 0.950 . S
H764 C770 0.949 . S
C765 H760 0.950 . S
C765 C767 1.327 . S
C765 C771 1.429 . S
C766 C758 1.574 . S
C766 H761 0.949 . S
C766 C772 1.368 . S
C767 C751 1.349 . S
C767 H759 0.950 . S
C767 C765 1.327 . S
C768 C756 1.349 . S
C768 H762 0.950 . S
C768 C769 1.327 . S
C769 H763 0.950 . S
C769 C768 1.327 . S
C769 C773 1.429 . S
C770 C753 1.574 . S
C770 H764 0.949 . S
C770 C774 1.368 . S
C771 C752 1.429 . S
C771 C765 1.429 . S
C771 C772 1.523 . S
C772 C753 1.368 . S
C772 C766 1.368 . S
C772 C771 1.523 . S
C773 C757 1.429 . S
C773 C769 1.429 . S
C773 C774 1.523 . S
C774 C758 1.368 . S
C774 C770 1.368 . S
C774 C773 1.523 . S
H775 C750 0.950 . S
H776 C752 0.950 . S
H777 C753 0.949 . S
H778 C755 0.950 . S
H779 C757 0.950 . S
C780 C781 1.349 . S
C780 C782 1.327 . S
C780 H805 0.950 . S
C781 C780 1.349 . S
C781 C797 1.349 . S
C782 C780 1.327 . S
C782 C801 1.429 . S
C782 H806 0.950 . S
C783 C800 1.574 . S
C783 C802 1.368 . S
C783 H807 0.949 . S
H784 C788 0.949 . S
C785 C786 1.349 . S
C785 C787 1.327 . S
C785 H808 0.950 . S
C786 C785 1.349 . S
C786 C798 1.349 . S
C787 C785 1.327 . S
C787 C803 1.429 . S
C787 H809 0.950 . S
C788 H784 0.949 . S
C788 C796 1.574 . S
C788 C804 1.368 . S
H789 C797 0.950 . S
H790 C795 0.950 . S
H791 C796 0.949 . S
H792 C798 0.950 . S
H793 C799 0.950 . S
H794 C800 0.949 . S
C795 H790 0.950 . S
C795 C797 1.327 . S
C795 C801 1.429 . S
C796 C788 1.574 . S
C796 H791 0.949 . S
C796 C802 1.368 . S
C797 C781 1.349 . S
C797 H789 0.950 . S
C797 C795 1.327 . S
C798 C786 1.349 . S
C798 H792 0.950 . S
C798 C799 1.327 . S
C799 H793 0.950 . S
C799 C798 1.327 . S
C799 C803 1.429 . S
C800 C783 1.574 . S
C800 H794 0.949 . S
C800 C804 1.368 . S
C801 C782 1.429 . S
C801 C795 1.429 . S
C801 C802 1.523 . S
C802 C783 1.368 . S
C802 C796 1.368 . S
C802 C801 1.523 . S
C803 C787 1.429 . S
C803 C799 1.429 . S
C803 C804 1.523 . S
C804 C788 1.368 . S
C804 C800 1.368 . S
C804 C803 1.523 . S
H805 C780 0.950 . S
H806 C782 0.950 . S
H807 C783 0.949 . S
H808 C785 0.950 . S
H809 C787 0.950 . S
C810 C811 1.349 . S
C810 C812 1.327 . S
C810 H835 0.950 . S
C811 C810 1.349 . S
C811 C827 1.349 . S
C812 C810 1.327 . S
C812 C831 1.429 . S
C812 H836 0.950 . S
C813 C830 1.574 . S
C813 C832 1.368 . S
C813 H837 0.949 . S
H814 C818 0.949 . S
C815 C816 1.349 . S
C815 C817 1.327 . S
C815 H838 0.950 . S
C816 C815 1.349 . S
C816 C828 1.349 . S
C817 C815 1.327 . S
C817 C833 1.429 . S
C817 H839 0.950 . S
C818 H814 0.949 . S
C818 C826 1.574 . S
C818 C834 1.368 . S
H819 C827 0.950 . S
H820 C825 0.950 . S
H821 C826 0.949 . S
H822 C828 0.950 . S
H823 C829 0.950 . S
H824 C830 0.949 . S
C825 H820 0.950 . S
C825 C827 1.327 . S
C825 C831 1.429 . S
C826 C818 1.574 . S
C826 H821 0.949 . S
C826 C832 1.368 . S
C827 C811 1.349 . S
C827 H819 0.950 . S
C827 C825 1.327 . S
C828 C816 1.349 . S
C828 H822 0.950 . S
C828 C829 1.327 . S
C829 H823 0.950 . S
C829 C828 1.327 . S
C829 C833 1.429 . S
C830 C813 1.574 . S
C830 H824 0.949 . S
C830 C834 1.368 . S
C831 C812 1.429 . S
C831 C825 1.429 . S
C831 C832 1.523 . S
C832 C813 1.368 . S
C832 C826 1.368 . S
C832 C831 1.523 . S
C833 C817 1.429 . S
C833 C829 1.429 . S
C833 C834 1.523 . S
C834 C818 1.368 . S
C834 C830 1.368 . S
C834 C833 1.523 . S
H835 C810 0.950 . S
H836 C812 0.950 . S
H837 C813 0.949 . S
H838 C815 0.950 . S
H839 C817 0.950 . S
C840 C841 1.349 . S
C840 C842 1.327 . S
C840 H865 0.950 . S
C841 C840 1.349 . S
C841 C857 1.349 . S
C842 C840 1.327 . S
C842 C861 1.429 . S
C842 H866 0.950 . S
C843 C860 1.574 . S
C843 C862 1.368 . S
C843 H867 0.949 . S
H844 C848 0.949 . S
C845 C846 1.349 . S
C845 C847 1.327 . S
C845 H868 0.950 . S
C846 C845 1.349 . S
C846 C858 1.349 . S
C847 C845 1.327 . S
C847 C863 1.429 . S
C847 H869 0.950 . S
C848 H844 0.949 . S
C848 C856 1.574 . S
C848 C864 1.368 . S
H849 C857 0.950 . S
H850 C855 0.950 . S
H851 C856 0.949 . S
H852 C858 0.950 . S
H853 C859 0.950 . S
H854 C860 0.949 . S
C855 H850 0.950 . S
C855 C857 1.327 . S
C855 C861 1.429 . S
C856 C848 1.574 . S
C856 H851 0.949 . S
C856 C862 1.368 . S
C857 C841 1.349 . S
C857 H849 0.950 . S
C857 C855 1.327 . S
C858 C846 1.349 . S
C858 H852 0.950 . S
C858 C859 1.327 . S
C859 H853 0.950 . S
C859 C858 1.327 . S
C859 C863 1.429 . S
C860 C843 1.574 . S
C860 H854 0.949 . S
C860 C864 1.368 . S
C861 C842 1.429 . S
C861 C855 1.429 . S
C861 C862 1.523 . S
C862 C843 1.368 . S
C862 C856 1.368 . S
C862 C861 1.523 . S
C863 C847 1.429 . S
C863 C859 1.429 . S
C863 C864 1.523 . S
C864 C848 1.368 . S
C864 C860 1.368 . S
C864 C863 1.523 . S
H865 C840 0.950 . S
H866 C842 0.950 . S
H867 C843 0.949 . S
H868 C845 0.950 . S
H869 C847 0.950 . S
C870 C871 1.349 . S
C870 C872 1.327 . S
C870 H895 0.950 . S
C871 C870 1.349 . S
C871 C887 1.349 . S
C872 C870 1.327 . S
C872 C891 1.429 . S
C872 H896 0.950 . S
C873 C890 1.574 . S
C873 C892 1.368 . S
C873 H897 0.949 . S
H874 C878 0.949 . S
C875 C876 1.349 . S
C875 C877 1.327 . S
C875 H898 0.950 . S
C876 C875 1.349 . S
C876 C888 1.349 . S
C877 C875 1.327 . S
C877 C893 1.429 . S
C877 H899 0.950 . S
C878 H874 0.949 . S
C878 C886 1.574 . S
C878 C894 1.368 . S
H879 C887 0.950 . S
H880 C885 0.950 . S
H881 C886 0.949 . S
H882 C888 0.950 . S
H883 C889 0.950 . S
H884 C890 0.949 . S
C885 H880 0.950 . S
C885 C887 1.327 . S
C885 C891 1.429 . S
C886 C878 1.574 . S
C886 H881 0.949 . S
C886 C892 1.368 . S
C887 C871 1.349 . S
C887 H879 0.950 . S
C887 C885 1.327 . S
C888 C876 1.349 . S
C888 H882 0.950 . S
C888 C889 1.327 . S
C889 H883 0.950 . S
C889 C888 1.327 . S
C889 C893 1.429 . S
C890 C873 1.574 . S
C890 H884 0.949 . S
C890 C894 1.368 . S
C891 C872 1.429 . S
C891 C885 1.429 . S
C891 C892 1.523 . S
C892 C873 1.368 . S
C892 C886 1.368 . S
C892 C891 1.523 . S
C893 C877 1.429 . S
C893 C889 1.429 . S
C893 C894 1.523 . S
C894 C878 1.368 . S
C894 C890 1.368 . S
C894 C893 1.523 . S
H895 C870 0.950 . S
H896 C872 0.950 . S
H897 C873 0.949 . S
H898 C875 0.950 . S
H899 C877 0.950 . S
C900 C901 1.349 . S
C900 C902 1.327 . S
C900 H925 0.950 . S
C901 C900 1.349 . S
C901 C917 1.349 1_455 S
C902 C900 1.327 . S
C902 C921 1.429 . S
C902 H926 0.950 . S
C903 C920 1.576 . S
C903 C922 1.368 1_655 S
C903 H927 0.949 . S
H904 C908 0.949 . S
C905 C906 1.349 . S
C905 C907 1.327 . S
C905 H928 0.950 1_455 S
C906 C905 1.349 . S
C906 C918 1.349 . S
C907 C905 1.327 . S
C907 C923 1.429 . S
C907 H929 0.950 1_455 S
C908 H904 0.949 . S
C908 C916 1.574 . S
C908 C924 1.368 . S
H909 C917 0.950 . S
H910 C915 0.950 . S
H911 C916 0.949 . S
H912 C918 0.950 . S
H913 C919 0.950 . S
H914 C920 0.981 . S
C915 H910 0.950 . S
C915 C917 1.327 . S
C915 C921 1.429 1_655 S
C916 C908 1.574 . S
C916 H911 0.949 . S
C916 C922 1.368 . S
C917 C901 1.349 1_655 S
C917 H909 0.950 . S
C917 C915 1.327 . S
C918 C906 1.349 . S
C918 H912 0.950 . S
C918 C919 1.327 . S
C919 H913 0.950 . S
C919 C918 1.327 . S
C919 C923 1.429 . S
C920 C903 1.576 . S
C920 H914 0.981 . S
C920 C924 1.336 1_655 S
C921 C902 1.429 . S
C921 C915 1.429 1_455 S
C921 C922 1.523 . S
C922 C903 1.368 1_455 S
C922 C916 1.368 . S
C922 C921 1.523 . S
C923 C907 1.429 . S
C923 C919 1.429 . S
C923 C924 1.523 . S
C924 C908 1.368 . S
C924 C920 1.336 1_455 S
C924 C923 1.523 . S
H925 C900 0.950 . S
H926 C902 0.950 . S
H927 C903 0.949 . S
H928 C905 0.950 1_655 S
H929 C907 0.950 1_655 S
C930 C931 1.349 . S
C930 C932 1.327 . S
C930 H955 0.950 . S
C931 C930 1.349 . S
C931 C947 1.349 . S
C932 C930 1.327 . S
C932 C951 1.429 . S
C932 H956 0.950 . S
C933 C950 1.574 . S
C933 C952 1.368 . S
C933 H957 0.949 . S
H934 C938 0.949 . S
C935 C936 1.349 . S
C935 C937 1.327 . S
C935 H958 0.950 . S
C936 C935 1.349 . S
C936 C948 1.349 . S
C937 C935 1.327 . S
C937 C953 1.429 . S
C937 H959 0.950 . S
C938 H934 0.949 . S
C938 C946 1.574 . S
C938 C954 1.368 . S
H939 C947 0.950 . S
H940 C945 0.950 . S
H941 C946 0.949 . S
H942 C948 0.950 . S
H943 C949 0.950 . S
H944 C950 0.949 . S
C945 H940 0.950 . S
C945 C947 1.327 . S
C945 C951 1.429 . S
C946 C938 1.574 . S
C946 H941 0.949 . S
C946 C952 1.368 . S
C947 C931 1.349 . S
C947 H939 0.950 . S
C947 C945 1.327 . S
C948 C936 1.349 . S
C948 H942 0.950 . S
C948 C949 1.327 . S
C949 H943 0.950 . S
C949 C948 1.327 . S
C949 C953 1.429 . S
C950 C933 1.574 . S
C950 H944 0.949 . S
C950 C954 1.368 . S
C951 C932 1.429 . S
C951 C945 1.429 . S
C951 C952 1.523 . S
C952 C933 1.368 . S
C952 C946 1.368 . S
C952 C951 1.523 . S
C953 C937 1.429 . S
C953 C949 1.429 . S
C953 C954 1.523 . S
C954 C938 1.368 . S
C954 C950 1.368 . S
C954 C953 1.523 . S
H955 C930 0.950 . S
H956 C932 0.950 . S
H957 C933 0.949 . S
H958 C935 0.950 . S
H959 C937 0.950 . S
C960 C961 1.349 . S
C960 C962 1.327 . S
C960 H985 0.950 . S
C961 C960 1.349 . S
C961 C977 1.349 . S
C962 C960 1.327 . S
C962 C981 1.429 . S
C962 H986 0.950 . S
C963 C980 1.572 . S
C963 C982 1.402 . S
C963 H987 0.927 1_545 S
H964 C968 0.949 . S
C965 C966 1.332 1_565 S
C965 C967 1.326 . S
C965 H988 0.972 . S
C966 C965 1.332 1_545 S
C966 C978 1.349 . S
C967 C965 1.326 . S
C967 C983 1.419 1_565 S
C967 H989 0.959 . S
C968 H964 0.949 . S
C968 C976 1.574 . S
C968 C984 1.368 . S
H969 C977 0.950 1_565 S
H970 C975 0.950 1_565 S
H971 C976 0.949 . S
H972 C978 0.950 . S
H973 C979 0.950 . S
H974 C980 0.944 1_565 S
C975 H970 0.950 1_545 S
C975 C977 1.327 . S
C975 C981 1.429 . S
C976 C968 1.574 . S
C976 H971 0.949 . S
C976 C982 1.368 . S
C977 C961 1.349 . S
C977 H969 0.950 1_545 S
C977 C975 1.327 . S
C978 C966 1.349 . S
C978 H972 0.950 . S
C978 C979 1.327 . S
C979 H973 0.950 . S
C979 C978 1.327 . S
C979 C983 1.429 . S
C980 C963 1.572 . S
C980 H974 0.944 1_545 S
C980 C984 1.373 . S
C981 C962 1.429 . S
C981 C975 1.429 . S
C981 C982 1.523 . S
C982 C963 1.402 . S
C982 C976 1.368 . S
C982 C981 1.523 . S
C983 C967 1.419 1_545 S
C983 C979 1.429 . S
C983 C984 1.523 . S
C984 C968 1.368 . S
C984 C980 1.373 . S
C984 C983 1.523 . S
H985 C960 0.950 . S
H986 C962 0.950 . S
H987 C963 0.927 1_565 S
H988 C965 0.972 . S
H989 C967 0.959 . S
C990 C991 1.349 . S
C990 C992 1.327 . S
C990 H1015 0.950 . S
C991 C990 1.349 . S
C991 C1007 1.349 . S
C992 C990 1.327 . S
C992 C1011 1.429 . S
C992 H1016 0.950 . S
C993 C1010 1.574 . S
C993 C1012 1.368 . S
C993 H1017 0.949 . S
H994 C998 0.949 . S
C995 C996 1.349 . S
C995 C997 1.327 . S
C995 H1018 0.950 . S
C996 C995 1.349 . S
C996 C1008 1.349 . S
C997 C995 1.327 . S
C997 C1013 1.429 1_554 S
C997 H1019 0.950 . S
C998 H994 0.949 . S
C998 C1006 1.574 . S
C998 C1014 1.368 . S
H999 C1007 0.950 . S
H1000 C1005 0.950 . S
H1001 C1006 0.949 . S
H1002 C1008 0.950 . S
H1003 C1009 0.950 . S
H1004 C1010 0.949 . S
C1005 H1000 0.950 . S
C1005 C1007 1.327 . S
C1005 C1011 1.429 . S
C1006 C998 1.574 . S
C1006 H1001 0.949 . S
C1006 C1012 1.368 . S
C1007 C991 1.349 . S
C1007 H999 0.950 . S
C1007 C1005 1.327 . S
C1008 C996 1.349 . S
C1008 H1002 0.950 . S
C1008 C1009 1.327 . S
C1009 H1003 0.950 . S
C1009 C1008 1.327 . S
C1009 C1013 1.429 1_554 S
C1010 C993 1.574 . S
C1010 H1004 0.949 . S
C1010 C1014 1.368 . S
C1011 C992 1.429 . S
C1011 C1005 1.429 . S
C1011 C1012 1.523 . S
C1012 C993 1.368 . S
C1012 C1006 1.368 . S
C1012 C1011 1.523 . S
C1013 C997 1.429 1_556 S
C1013 C1009 1.429 1_556 S
C1013 C1014 1.523 . S
C1014 C998 1.368 . S
C1014 C1010 1.368 . S
C1014 C1013 1.523 . S
H1015 C990 0.950 . S
H1016 C992 0.950 . S
H1017 C993 0.949 . S
H1018 C995 0.950 . S
H1019 C997 0.950 . S
C1020 C1021 1.349 . S
C1020 C1022 1.327 . S
C1020 H1045 0.950 . S
C1021 C1020 1.349 . S
C1021 C1037 1.349 . S
C1022 C1020 1.327 . S
C1022 C1041 1.429 . S
C1022 H1046 0.950 . S
C1023 C1040 1.574 . S
C1023 C1042 1.368 . S
C1023 H1047 0.949 . S
H1024 C1028 0.949 . S
C1025 C1026 1.349 . S
C1025 C1027 1.327 . S
C1025 H1048 0.950 . S
C1026 C1025 1.349 . S
C1026 C1038 1.349 . S
C1027 C1025 1.327 . S
C1027 C1043 1.429 1_554 S
C1027 H1049 0.950 . S
C1028 H1024 0.949 . S
C1028 C1036 1.574 . S
C1028 C1044 1.368 . S
H1029 C1037 0.950 . S
H1030 C1035 0.950 . S
H1031 C1036 0.949 . S
H1032 C1038 0.950 . S
H1033 C1039 0.950 . S
H1034 C1040 0.949 . S
C1035 H1030 0.950 . S
C1035 C1037 1.327 . S
C1035 C1041 1.429 . S
C1036 C1028 1.574 . S
C1036 H1031 0.949 . S
C1036 C1042 1.368 . S
C1037 C1021 1.349 . S
C1037 H1029 0.950 . S
C1037 C1035 1.327 . S
C1038 C1026 1.349 . S
C1038 H1032 0.950 . S
C1038 C1039 1.327 . S
C1039 H1033 0.950 . S
C1039 C1038 1.327 . S
C1039 C1043 1.429 1_554 S
C1040 C1023 1.574 . S
C1040 H1034 0.949 . S
C1040 C1044 1.368 . S
C1041 C1022 1.429 . S
C1041 C1035 1.429 . S
C1041 C1042 1.523 . S
C1042 C1023 1.368 . S
C1042 C1036 1.368 . S
C1042 C1041 1.523 . S
C1043 C1027 1.429 1_556 S
C1043 C1039 1.429 1_556 S
C1043 C1044 1.523 . S
C1044 C1028 1.368 . S
C1044 C1040 1.368 . S
C1044 C1043 1.523 . S
H1045 C1020 0.950 . S
H1046 C1022 0.950 . S
H1047 C1023 0.949 . S
H1048 C1025 0.950 . S
H1049 C1027 0.950 . S
C1050 C1051 1.349 . S
C1050 C1052 1.327 . S
C1050 H1075 0.950 . S
C1051 C1050 1.349 . S
C1051 C1067 1.349 . S
C1052 C1050 1.327 . S
C1052 C1071 1.429 . S
C1052 H1076 0.950 . S
C1053 C1070 1.574 . S
C1053 C1072 1.368 . S
C1053 H1077 0.949 . S
H1054 C1058 0.949 . S
C1055 C1056 1.349 . S
C1055 C1057 1.327 . S
C1055 H1078 0.950 . S
C1056 C1055 1.349 . S
C1056 C1068 1.349 . S
C1057 C1055 1.327 . S
C1057 C1073 1.429 1_554 S
C1057 H1079 0.950 . S
C1058 H1054 0.949 . S
C1058 C1066 1.574 . S
C1058 C1074 1.368 . S
H1059 C1067 0.950 . S
H1060 C1065 0.950 . S
H1061 C1066 0.949 . S
H1062 C1068 0.950 . S
H1063 C1069 0.950 . S
H1064 C1070 0.949 . S
C1065 H1060 0.950 . S
C1065 C1067 1.327 . S
C1065 C1071 1.429 . S
C1066 C1058 1.574 . S
C1066 H1061 0.949 . S
C1066 C1072 1.368 . S
C1067 C1051 1.349 . S
C1067 H1059 0.950 . S
C1067 C1065 1.327 . S
C1068 C1056 1.349 . S
C1068 H1062 0.950 . S
C1068 C1069 1.327 . S
C1069 H1063 0.950 . S
C1069 C1068 1.327 . S
C1069 C1073 1.429 1_554 S
C1070 C1053 1.574 . S
C1070 H1064 0.949 . S
C1070 C1074 1.368 . S
C1071 C1052 1.429 . S
C1071 C1065 1.429 . S
C1071 C1072 1.523 . S
C1072 C1053 1.368 . S
C1072 C1066 1.368 . S
C1072 C1071 1.523 . S
C1073 C1057 1.429 1_556 S
C1073 C1069 1.429 1_556 S
C1073 C1074 1.523 . S
C1074 C1058 1.368 . S
C1074 C1070 1.368 . S
C1074 C1073 1.523 . S
H1075 C1050 0.950 . S
H1076 C1052 0.950 . S
H1077 C1053 0.949 . S
H1078 C1055 0.950 . S
H1079 C1057 0.950 . S
C1080 C1081 1.349 . S
C1080 C1082 1.327 . S
C1080 H1105 0.950 . S
C1081 C1080 1.349 . S
C1081 C1097 1.349 . S
C1082 C1080 1.327 . S
C1082 C1101 1.429 . S
C1082 H1106 0.950 . S
C1083 C1100 1.574 . S
C1083 C1102 1.368 . S
C1083 H1107 0.949 . S
H1084 C1088 0.949 . S
C1085 C1086 1.349 . S
C1085 C1087 1.327 . S
C1085 H1108 0.950 . S
C1086 C1085 1.349 . S
C1086 C1098 1.349 . S
C1087 C1085 1.327 . S
C1087 C1103 1.429 1_556 S
C1087 H1109 0.950 1_556 S
C1088 H1084 0.949 . S
C1088 C1096 1.574 . S
C1088 C1104 1.368 . S
H1089 C1097 0.950 . S
H1090 C1095 0.950 . S
H1091 C1096 0.949 . S
H1092 C1098 0.950 . S
H1093 C1099 0.950 . S
H1094 C1100 0.949 . S
C1095 H1090 0.950 . S
C1095 C1097 1.327 . S
C1095 C1101 1.429 . S
C1096 C1088 1.574 . S
C1096 H1091 0.949 . S
C1096 C1102 1.368 . S
C1097 C1081 1.349 . S
C1097 H1089 0.950 . S
C1097 C1095 1.327 . S
C1098 C1086 1.349 . S
C1098 H1092 0.950 . S
C1098 C1099 1.327 . S
C1099 H1093 0.950 . S
C1099 C1098 1.327 . S
C1099 C1103 1.429 1_556 S
C1100 C1083 1.574 . S
C1100 H1094 0.949 . S
C1100 C1104 1.368 . S
C1101 C1082 1.429 . S
C1101 C1095 1.429 . S
C1101 C1102 1.523 . S
C1102 C1083 1.368 . S
C1102 C1096 1.368 . S
C1102 C1101 1.523 . S
C1103 C1087 1.429 1_554 S
C1103 C1099 1.429 1_554 S
C1103 C1104 1.523 . S
C1104 C1088 1.368 . S
C1104 C1100 1.368 . S
C1104 C1103 1.523 . S
H1105 C1080 0.950 . S
H1106 C1082 0.950 . S
H1107 C1083 0.949 . S
H1108 C1085 0.950 . S
H1109 C1087 0.950 1_554 S
C1110 C1111 1.349 . S
C1110 C1112 1.327 . S
C1110 H1135 0.950 . S
C1111 C1110 1.349 . S
C1111 C1127 1.349 . S
C1112 C1110 1.327 . S
C1112 C1131 1.429 1_556 S
C1112 H1136 0.950 . S
C1113 C1130 1.574 . S
C1113 C1132 1.368 . S
C1113 H1137 0.949 . S
H1114 C1118 0.949 . S
C1115 C1116 1.349 . S
C1115 C1117 1.327 . S
C1115 H1138 0.950 . S
C1116 C1115 1.349 . S
C1116 C1128 1.349 . S
C1117 C1115 1.327 . S
C1117 C1133 1.429 . S
C1117 H1139 0.950 . S
C1118 H1114 0.949 . S
C1118 C1126 1.574 . S
C1118 C1134 1.368 . S
H1119 C1127 0.950 . S
H1120 C1125 0.950 . S
H1121 C1126 0.949 . S
H1122 C1128 0.950 . S
H1123 C1129 0.950 . S
H1124 C1130 0.949 . S
C1125 H1120 0.950 . S
C1125 C1127 1.327 . S
C1125 C1131 1.429 1_556 S
C1126 C1118 1.574 . S
C1126 H1121 0.949 . S
C1126 C1132 1.368 . S
C1127 C1111 1.349 . S
C1127 H1119 0.950 . S
C1127 C1125 1.327 . S
C1128 C1116 1.349 . S
C1128 H1122 0.950 . S
C1128 C1129 1.327 . S
C1129 H1123 0.950 . S
C1129 C1128 1.327 . S
C1129 C1133 1.429 . S
C1130 C1113 1.574 . S
C1130 H1124 0.949 . S
C1130 C1134 1.368 . S
C1131 C1112 1.429 1_554 S
C1131 C1125 1.429 1_554 S
C1131 C1132 1.523 . S
C1132 C1113 1.368 . S
C1132 C1126 1.368 . S
C1132 C1131 1.523 . S
C1133 C1117 1.429 . S
C1133 C1129 1.429 . S
C1133 C1134 1.523 . S
C1134 C1118 1.368 . S
C1134 C1130 1.368 . S
C1134 C1133 1.523 . S
H1135 C1110 0.950 . S
H1136 C1112 0.950 . S
H1137 C1113 0.949 . S
H1138 C1115 0.950 . S
H1139 C1117 0.950 . S
C1140 C1141 1.349 . S
C1140 C1142 1.327 . S
C1140 H1165 0.950 . S
C1141 C1140 1.349 . S
C1141 C1157 1.349 . S
C1142 C1140 1.327 . S
C1142 C1161 1.429 . S
C1142 H1166 0.950 . S
C1143 C1160 1.574 . S
C1143 C1162 1.368 . S
C1143 H1167 0.949 . S
H1144 C1148 0.949 . S
C1145 C1146 1.349 . S
C1145 C1147 1.327 . S
C1145 H1168 0.950 . S
C1146 C1145 1.349 . S
C1146 C1158 1.349 . S
C1147 C1145 1.327 . S
C1147 C1163 1.429 1_556 S
C1147 H1169 0.950 . S
C1148 H1144 0.949 . S
C1148 C1156 1.574 . S
C1148 C1164 1.368 . S
H1149 C1157 0.950 . S
H1150 C1155 0.950 . S
H1151 C1156 0.949 . S
H1152 C1158 0.950 . S
H1153 C1159 0.950 . S
H1154 C1160 0.949 . S
C1155 H1150 0.950 . S
C1155 C1157 1.327 . S
C1155 C1161 1.429 . S
C1156 C1148 1.574 . S
C1156 H1151 0.949 . S
C1156 C1162 1.368 . S
C1157 C1141 1.349 . S
C1157 H1149 0.950 . S
C1157 C1155 1.327 . S
C1158 C1146 1.349 . S
C1158 H1152 0.950 . S
C1158 C1159 1.327 . S
C1159 H1153 0.950 . S
C1159 C1158 1.327 . S
C1159 C1163 1.429 1_556 S
C1160 C1143 1.574 . S
C1160 H1154 0.949 . S
C1160 C1164 1.368 . S
C1161 C1142 1.429 . S
C1161 C1155 1.429 . S
C1161 C1162 1.523 . S
C1162 C1143 1.368 . S
C1162 C1156 1.368 . S
C1162 C1161 1.523 . S
C1163 C1147 1.429 1_554 S
C1163 C1159 1.429 1_554 S
C1163 C1164 1.523 . S
C1164 C1148 1.368 . S
C1164 C1160 1.368 . S
C1164 C1163 1.523 . S
H1165 C1140 0.950 . S
H1166 C1142 0.950 . S
H1167 C1143 0.949 . S
H1168 C1145 0.950 . S
H1169 C1147 0.950 . S
C361 C6 2.060 1_556 S
C366 C290 2.108 . S
C391 C46 2.060 1_556 S
C396 C330 2.108 . S
C421 C86 2.060 1_556 S
C426 C250 2.108 . S
C451 C166 2.060 . S
C456 C90 2.108 . S
C481 C206 2.060 . S
C486 C10 2.108 . S
C511 C50 2.108 . S
C516 C126 2.060 . S
C541 C286 2.060 . S
C546 C210 2.108 . S
C571 C326 2.061 . S
C576 C130 2.108 . S
C601 C170 2.108 . S
C606 C246 2.061 . S
C631 C95 1.730 . S
C636 C19 1.716 . S
C661 C59 1.716 . S
C666 C15 1.730 . S
C691 C55 1.730 . S
C696 C99 1.716 . S
C721 C139 1.716 . S
C726 C215 1.730 . S
C751 C135 1.730 . S
C756 C179 1.716 . S
C781 C175 1.730 . S
C786 C219 1.716 . S
C811 C335 1.729 . S
C816 C259 1.716 . S
C841 C299 1.716 . S
C846 C255 1.730 . S
C871 C339 1.716 . S
C876 C295 1.730 . S
C901 C9 0.820 . S
C906 C18 0.820 . S
C931 C49 0.820 . S
C936 C58 0.820 . S
C961 C89 0.820 . S
C966 C98 0.820 . S
C991 C138 0.820 . S
C996 C129 0.820 . S
C1021 C178 0.820 . S
C1026 C169 0.820 . S
C1051 C218 0.820 . S
C1056 C209 0.820 . S
C1081 C249 0.820 . S
C1086 C258 0.820 . S
C1111 C298 0.820 . S
C1116 C289 0.820 . S
C1141 C329 0.820 . S
C1146 C338 0.820 . S
