# Generated by pormake.
# Topology dft, (4)-cn, num edge types: 1
# Building blocks:
#     Node 0, Type 0, BuildingBlock: KUFVIS_clean_sbu_0, # of connection points: 4
#     Node 1, Type 0, BuildingBlock: KUFVIS_clean_sbu_0, # of connection points: 4
#     Node 2, Type 0, BuildingBlock: KUFVIS_clean_sbu_0, # of connection points: 4
#     Node 3, Type 0, BuildingBlock: KUFVIS_clean_sbu_0, # of connection points: 4
#     Node 4, Type 0, BuildingBlock: KUFVIS_clean_sbu_0, # of connection points: 4
#     Node 5, Type 0, BuildingBlock: KUFVIS_clean_sbu_0, # of connection points: 4
#     Node 6, Type 0, BuildingBlock: KUFVIS_clean_sbu_0, # of connection points: 4
#     Node 7, Type 0, BuildingBlock: KUFVIS_clean_sbu_0, # of connection points: 4
#     Edge 8, Type (0, 0), BuildingBlock: TEMPAE_clean_linker_10, # of connection points: 2
#     Edge 9, Type (0, 0), BuildingBlock: TEMPAE_clean_linker_10, # of connection points: 2
#     Edge 10, Type (0, 0), BuildingBlock: TEMPAE_clean_linker_10, # of connection points: 2
#     Edge 11, Type (0, 0), BuildingBlock: TEMPAE_clean_linker_10, # of connection points: 2
#     Edge 12, Type (0, 0), BuildingBlock: TEMPAE_clean_linker_10, # of connection points: 2
#     Edge 13, Type (0, 0), BuildingBlock: TEMPAE_clean_linker_10, # of connection points: 2
#     Edge 14, Type (0, 0), BuildingBlock: TEMPAE_clean_linker_10, # of connection points: 2
#     Edge 15, Type (0, 0), BuildingBlock: TEMPAE_clean_linker_10, # of connection points: 2
#     Edge 16, Type (0, 0), BuildingBlock: TEMPAE_clean_linker_10, # of connection points: 2
#     Edge 17, Type (0, 0), BuildingBlock: TEMPAE_clean_linker_10, # of connection points: 2
#     Edge 18, Type (0, 0), BuildingBlock: TEMPAE_clean_linker_10, # of connection points: 2
#     Edge 19, Type (0, 0), BuildingBlock: TEMPAE_clean_linker_10, # of connection points: 2
#     Edge 20, Type (0, 0), BuildingBlock: TEMPAE_clean_linker_10, # of connection points: 2
#     Edge 21, Type (0, 0), BuildingBlock: TEMPAE_clean_linker_10, # of connection points: 2
#     Edge 22, Type (0, 0), BuildingBlock: TEMPAE_clean_linker_10, # of connection points: 2
#     Edge 23, Type (0, 0), BuildingBlock: TEMPAE_clean_linker_10, # of connection points: 2
# Relax obj value: 0.171
# Max RMSD: 0.158
# Mean RMSD: 0.158
data_MOF--net-dft--node1-KUFVIS_clean_sbu_0--edge1-TEMPAE_clean_linker_10
_symmetry_space_group_name_H-M    P1
_symmetry_Int_Tables_number       1
_symmetry_cell_setting            triclinic
loop_
_symmetry_equiv_pos_as_xyz
'x, y, z'
_cell_length_a     34.438608
_cell_length_b     34.457225
_cell_length_c     41.062574
_cell_angle_alpha  90.010674
_cell_angle_beta   90.015931
_cell_angle_gamma 90.019387
loop_
_atom_site_label
_atom_site_type_symbol
_atom_site_fract_x
_atom_site_fract_y
_atom_site_fract_z
_atom_type_partial_charge
Mn0 Mn 0.33521 0.06393 0.18342 0.0
Mn1 Mn 0.36164 0.15114 0.15263 0.0
C2 C 0.31461 0.12168 0.20683 0.0
C3 C 0.29344 0.01101 0.19154 0.0
C4 C 0.41682 0.09926 0.18926 0.0
O5 O 0.34978 0.04987 0.13633 0.0
O6 O 0.36683 0.11019 0.11978 0.0
C7 C 0.30005 0.16183 0.10313 0.0
N8 N 0.31957 0.17481 0.12984 0.0
C9 C 0.28921 0.23747 0.12618 0.0
C10 C 0.26857 0.22478 0.09872 0.0
C11 C 0.27371 0.18664 0.08736 0.0
C12 C 0.31397 0.21102 0.14153 0.0
H13 H 0.3049 0.13295 0.09374 0.0
C14 C 0.36229 0.07383 0.1148 0.0
O15 O 0.33031 0.00896 0.19761 0.0
O16 O 0.28109 0.043 0.17835 0.0
N17 N 0.35733 0.19352 0.18238 0.0
C18 C 0.37741 0.20015 0.21041 0.0
C19 C 0.37388 0.23626 0.22602 0.0
C20 C 0.35086 0.26551 0.21201 0.0
C21 C 0.33076 0.258 0.18296 0.0
C22 C 0.33407 0.22097 0.16933 0.0
H23 H 0.39616 0.17812 0.22056 0.0
O24 O 0.3178 0.09054 0.22444 0.0
O25 O 0.32534 0.1186 0.17684 0.0
O26 O 0.39262 0.07208 0.19449 0.0
O27 O 0.40778 0.13067 0.17487 0.0
C28 C 0.3079 0.28588 0.16677 0.0
C29 C 0.28673 0.27549 0.13863 0.0
H30 H 0.24882 0.24408 0.08612 0.0
H31 H 0.25801 0.17666 0.06612 0.0
H32 H 0.38952 0.24183 0.2484 0.0
H33 H 0.34881 0.2936 0.22374 0.0
H34 H 0.30554 0.31512 0.17626 0.0
H35 H 0.26839 0.29689 0.12694 0.0
Mn36 Mn 0.03003 0.32391 0.69006 0.0
Mn37 Mn 0.94965 0.34878 0.64724 0.0
C38 C 0.96822 0.31127 0.70977 0.0
C39 C 0.07957 0.28116 0.70601 0.0
C40 C 0.99845 0.40701 0.68389 0.0
O41 O 0.05147 0.33095 0.64378 0.0
O42 O 0.99521 0.34682 0.61854 0.0
C43 C 0.94399 0.27824 0.60633 0.0
N44 N 0.92774 0.30327 0.62809 0.0
C45 C 0.86659 0.26972 0.6257 0.0
C46 C 0.88259 0.24359 0.60322 0.0
C47 C 0.92156 0.24771 0.59368 0.0
C48 C 0.8906 0.29904 0.63799 0.0
H49 H 0.97377 0.28165 0.59862 0.0
C50 C 0.03172 0.34033 0.61852 0.0
O51 O 0.08265 0.3184 0.70965 0.0
O52 O 0.04836 0.26862 0.69164 0.0
N53 N 0.90289 0.35148 0.67221 0.0
C54 C 0.89237 0.37822 0.69499 0.0
C55 C 0.85452 0.37753 0.70771 0.0
C56 C 0.82765 0.35005 0.69623 0.0
C57 C 0.83901 0.32325 0.67236 0.0
C58 C 0.87731 0.32481 0.66112 0.0
H59 H 0.91271 0.3999 0.70337 0.0
O60 O 0.99734 0.31412 0.72972 0.0
O61 O 0.97603 0.31619 0.67927 0.0
O62 O 0.02303 0.38263 0.6948 0.0
O63 O 0.96963 0.3975 0.66607 0.0
C64 C 0.81376 0.2953 0.65901 0.0
C65 C 0.82768 0.2681 0.63615 0.0
H66 H 0.86524 0.22027 0.59314 0.0
H67 H 0.93414 0.22766 0.57637 0.0
H68 H 0.84594 0.39837 0.72606 0.0
H69 H 0.79838 0.34981 0.70588 0.0
H70 H 0.7836 0.2942 0.66643 0.0
H71 H 0.80818 0.24617 0.62667 0.0
Mn72 Mn 0.78189 0.04037 0.18571 0.0
Mn73 Mn 0.74772 0.95161 0.16525 0.0
C74 C 0.78994 0.98709 0.22034 0.0
C75 C 0.82917 0.08874 0.19238 0.0
C76 C 0.69598 0.01849 0.18478 0.0
O77 O 0.7773 0.04407 0.13543 0.0
O78 O 0.75881 0.98205 0.12597 0.0
C79 C 0.81557 0.91701 0.1319 0.0
N80 N 0.78859 0.91582 0.15611 0.0
C81 C 0.80599 0.85026 0.16986 0.0
C82 C 0.83367 0.85057 0.1448 0.0
C83 C 0.83887 0.8843 0.12607 0.0
C84 C 0.78439 0.88406 0.17509 0.0
H85 H 0.81891 0.94252 0.11691 0.0
C86 C 0.76925 0.01571 0.11611 0.0
O87 O 0.7924 0.0965 0.19227 0.0
O88 O 0.83897 0.05335 0.1851 0.0
N89 N 0.73646 0.91926 0.20185 0.0
C90 C 0.70839 0.92372 0.22493 0.0
C91 C 0.70096 0.89336 0.24688 0.0
C92 C 0.72179 0.85845 0.24435 0.0
C93 C 0.75026 0.85441 0.22018 0.0
C94 C 0.75694 0.88596 0.19944 0.0
H95 H 0.6916 0.95011 0.22643 0.0
O96 O 0.78889 0.02215 0.23186 0.0
O97 O 0.78408 0.98439 0.18938 0.0
O98 O 0.72307 0.04224 0.19122 0.0
O99 O 0.70213 0.98447 0.17397 0.0
C100 C 0.77175 0.8201 0.21545 0.0
C101 C 0.79922 0.81786 0.19005 0.0
H102 H 0.85136 0.82523 0.13998 0.0
H103 H 0.86034 0.88484 0.10683 0.0
H104 H 0.67884 0.89664 0.26538 0.0
H105 H 0.71564 0.8349 0.26105 0.0
H106 H 0.76714 0.79515 0.23103 0.0
H107 H 0.81527 0.79118 0.18645 0.0
Mn108 Mn 0.05541 0.77158 0.68404 0.0
Mn109 Mn 0.14626 0.73819 0.67016 0.0
C110 C 0.10593 0.78494 0.7203 0.0
C111 C 0.00587 0.81819 0.68463 0.0
C112 C 0.07939 0.68646 0.68995 0.0
O113 O 0.05501 0.76168 0.63445 0.0
O114 O 0.11775 0.74343 0.62906 0.0
C115 C 0.18094 0.80237 0.63225 0.0
N116 N 0.18121 0.77908 0.65904 0.0
C117 C 0.24503 0.80102 0.67414 0.0
C118 C 0.24557 0.82506 0.64656 0.0
C119 C 0.21316 0.82614 0.6258 0.0
C120 C 0.21177 0.77866 0.67969 0.0
H121 H 0.15664 0.80224 0.61561 0.0
C122 C 0.08439 0.75141 0.61712 0.0
O123 O 0.99867 0.78141 0.68697 0.0
O124 O 0.04161 0.82789 0.67855 0.0
N125 N 0.1769 0.73224 0.70861 0.0
C126 C 0.1724 0.70621 0.7333 0.0
C127 C 0.20183 0.70227 0.75675 0.0
C128 C 0.23594 0.7244 0.75408 0.0
C129 C 0.24011 0.75061 0.72819 0.0
C130 C 0.20947 0.75388 0.70596 0.0
H131 H 0.14669 0.68837 0.73494 0.0
O132 O 0.07017 0.78379 0.73024 0.0
O133 O 0.11099 0.77587 0.69008 0.0
O134 O 0.05443 0.7133 0.69324 0.0
O135 O 0.1142 0.69281 0.68112 0.0
C136 C 0.27375 0.77309 0.72325 0.0
C137 C 0.27628 0.79818 0.6962 0.0
H138 H 0.27061 0.84299 0.64123 0.0
H139 H 0.21334 0.84467 0.60452 0.0
H140 H 0.19848 0.68183 0.77655 0.0
H141 H 0.25879 0.72096 0.77198 0.0
H142 H 0.29797 0.77095 0.73995 0.0
H143 H 0.30246 0.81504 0.69254 0.0
Mn144 Mn 0.32259 0.04462 0.80735 0.0
Mn145 Mn 0.35209 0.95836 0.83781 0.0
C146 C 0.30209 0.9861 0.78498 0.0
C147 C 0.27875 0.09608 0.80038 0.0
C148 C 0.40494 0.01146 0.79975 0.0
O149 O 0.33897 0.05947 0.85387 0.0
O150 O 0.35748 0.99954 0.87044 0.0
C151 C 0.29244 0.94621 0.88869 0.0
N152 N 0.31133 0.93371 0.86152 0.0
C153 C 0.28262 0.87031 0.86586 0.0
C154 C 0.26263 0.8825 0.8938 0.0
C155 C 0.26723 0.92077 0.90504 0.0
C156 C 0.30613 0.8974 0.84991 0.0
H157 H 0.29697 0.97519 0.89799 0.0
C158 C 0.35269 0.03591 0.87521 0.0
O159 O 0.31519 0.09933 0.79299 0.0
O160 O 0.26818 0.06384 0.81418 0.0
N161 N 0.34781 0.91589 0.80817 0.0
C162 C 0.36735 0.90968 0.77982 0.0
C163 C 0.36447 0.87339 0.76443 0.0
C164 C 0.34263 0.8436 0.77895 0.0
C165 C 0.32293 0.85073 0.80824 0.0
C166 C 0.32559 0.88791 0.82168 0.0
H167 H 0.38529 0.93213 0.7693 0.0
O168 O 0.30388 0.01708 0.76704 0.0
O169 O 0.31428 0.98985 0.8145 0.0
O170 O 0.37988 0.03794 0.79469 0.0
O171 O 0.39692 0.97999 0.8145 0.0
C172 C 0.30127 0.8223 0.82493 0.0
C173 C 0.28079 0.83219 0.85354 0.0
H174 H 0.24382 0.8627 0.90687 0.0
H175 H 0.25203 0.93036 0.92666 0.0
H176 H 0.3798 0.86808 0.74186 0.0
H177 H 0.3414 0.81534 0.76751 0.0
H178 H 0.29936 0.79299 0.81551 0.0
H179 H 0.26342 0.81033 0.86567 0.0
Mn180 Mn 0.05985 0.32775 0.30802 0.0
Mn181 Mn 0.14801 0.36035 0.33198 0.0
C182 C 0.11513 0.31716 0.27643 0.0
C183 C 0.01164 0.28046 0.30059 0.0
C184 C 0.0839 0.41321 0.30813 0.0
O185 O 0.05273 0.33445 0.35776 0.0
O186 O 0.11441 0.3519 0.36983 0.0
C187 C 0.17804 0.29319 0.36911 0.0
N188 N 0.18166 0.31872 0.34398 0.0
C189 C 0.24685 0.2974 0.33306 0.0
C190 C 0.2439 0.27091 0.35889 0.0
C191 C 0.20917 0.26849 0.37673 0.0
C192 C 0.21452 0.32049 0.32606 0.0
H193 H 0.15184 0.29214 0.38354 0.0
C194 C 0.07975 0.34303 0.37823 0.0
O195 O 0.00406 0.31724 0.29893 0.0
O196 O 0.04642 0.27099 0.30989 0.0
N197 N 0.18328 0.3691 0.2968 0.0
C198 C 0.18163 0.39669 0.27306 0.0
C199 C 0.21359 0.40194 0.25229 0.0
C200 C 0.24719 0.37943 0.25662 0.0
C201 C 0.24836 0.35156 0.28148 0.0
C202 C 0.21536 0.34712 0.30104 0.0
H203 H 0.15624 0.41472 0.27014 0.0
O204 O 0.08101 0.31847 0.26307 0.0
O205 O 0.11583 0.32425 0.30725 0.0
O206 O 0.05967 0.38665 0.30108 0.0
O207 O 0.1171 0.40628 0.32038 0.0
C208 C 0.28123 0.32852 0.288 0.0
C209 C 0.28063 0.3018 0.31401 0.0
H210 H 0.26804 0.25218 0.36511 0.0
H211 H 0.20666 0.24811 0.39667 0.0
H212 H 0.21252 0.42363 0.23325 0.0
H213 H 0.27195 0.38385 0.24079 0.0
H214 H 0.30724 0.33138 0.27337 0.0
H215 H 0.30628 0.28467 0.31907 0.0
Mn216 Mn 0.77141 0.0542 0.80343 0.0
Mn217 Mn 0.74321 0.13068 0.84959 0.0
C218 C 0.7804 0.11753 0.78602 0.0
C219 C 0.81661 0.00839 0.78479 0.0
C220 C 0.68678 0.08075 0.81177 0.0
O221 O 0.76698 0.03014 0.84906 0.0
O222 O 0.74894 0.08407 0.87677 0.0
C223 C 0.81447 0.1388 0.88941 0.0
N224 N 0.78801 0.1544 0.86852 0.0
C225 C 0.8191 0.21682 0.87107 0.0
C226 C 0.84664 0.20149 0.89267 0.0
C227 C 0.84444 0.16223 0.90173 0.0
C228 C 0.79029 0.19191 0.85917 0.0
H229 H 0.81268 0.10875 0.89668 0.0
C230 C 0.75771 0.04809 0.87528 0.0
O231 O 0.77953 0.00325 0.78154 0.0
O232 O 0.82765 0.03926 0.80043 0.0
N233 N 0.73718 0.17819 0.82604 0.0
C234 C 0.70926 0.18808 0.80404 0.0
C235 C 0.70797 0.22617 0.79191 0.0
C236 C 0.73484 0.25385 0.80306 0.0
C237 C 0.76292 0.24309 0.82608 0.0
C238 C 0.76317 0.2046 0.83689 0.0
H239 H 0.68818 0.16705 0.7958 0.0
O240 O 0.77853 0.08948 0.76497 0.0
O241 O 0.77644 0.10779 0.81621 0.0
O242 O 0.71223 0.0582 0.79957 0.0
O243 O 0.69514 0.10874 0.83089 0.0
C244 C 0.79051 0.26912 0.8389 0.0
C245 C 0.81893 0.25589 0.86101 0.0
H246 H 0.86961 0.21956 0.90242 0.0
H247 H 0.86561 0.15014 0.91835 0.0
H248 H 0.68616 0.23426 0.7742 0.0
H249 H 0.73365 0.28324 0.79377 0.0
H250 H 0.79035 0.29935 0.8317 0.0
H251 H 0.84048 0.27603 0.87016 0.0
Mn252 Mn 0.05424 0.7776 0.30694 0.0
Mn253 Mn 0.9741 0.75259 0.34987 0.0
C254 C 0.9928 0.79702 0.29074 0.0
C255 C 0.10501 0.81938 0.29194 0.0
C256 C 0.01779 0.69599 0.30752 0.0
O257 O 0.07715 0.7646 0.35169 0.0
O258 O 0.02102 0.74783 0.37679 0.0
C259 C 0.97427 0.81635 0.39823 0.0
N260 N 0.95578 0.7959 0.37444 0.0
C261 C 0.89616 0.83049 0.38368 0.0
C262 C 0.91453 0.85201 0.40825 0.0
C263 C 0.95384 0.84508 0.4154 0.0
C264 C 0.91821 0.80281 0.36698 0.0
H265 H 0.00426 0.81059 0.40419 0.0
C266 C 0.05784 0.7526 0.37639 0.0
O267 O 0.10609 0.78249 0.28576 0.0
O268 O 0.07545 0.83178 0.3086 0.0
N269 N 0.92634 0.75638 0.32641 0.0
C270 C 0.91379 0.73489 0.30063 0.0
C271 C 0.87543 0.73926 0.2896 0.0
C272 C 0.8502 0.76489 0.30572 0.0
C273 C 0.86382 0.78656 0.3323 0.0
C274 C 0.90254 0.78169 0.34167 0.0
H275 H 0.93288 0.71448 0.28871 0.0
O276 O 0.0205 0.79354 0.26948 0.0
O277 O 0.00137 0.78774 0.32036 0.0
O278 O 0.04397 0.71974 0.29833 0.0
O279 O 0.98969 0.70576 0.32592 0.0
C280 C 0.84048 0.81268 0.34999 0.0
C281 C 0.85678 0.83514 0.37528 0.0
H282 H 0.89875 0.8739 0.42179 0.0
H283 H 0.96821 0.86151 0.43436 0.0
H284 H 0.86517 0.72251 0.26903 0.0
H285 H 0.82049 0.76783 0.29741 0.0
H286 H 0.81006 0.81621 0.34396 0.0
H287 H 0.83876 0.85587 0.38811 0.0
C288 C 0.34523 0.03445 0.0656 0.0
C289 C 0.36922 0.06167 0.08091 0.0
C290 C 0.34512 0.0311 0.03146 0.0
C291 C 0.36913 0.05593 0.01262 0.0
C292 C 0.39497 0.08174 0.02817 0.0
C293 C 0.39514 0.08379 0.0621 0.0
C294 C 0.31815 0.00229 0.01548 0.0
C295 C 0.42089 0.10879 0.00899 0.0
C296 C 0.39064 0.02828 0.92564 0.0
C297 C 0.36187 0.04874 0.90851 0.0
C298 C 0.39343 0.03057 0.95947 0.0
C299 C 0.36759 0.0549 0.97659 0.0
C300 C 0.34052 0.07815 0.95929 0.0
C301 C 0.33777 0.07461 0.92524 0.0
C302 C 0.42257 0.00524 0.97698 0.0
C303 C 0.31338 0.10538 0.9769 0.0
H304 H 0.325 0.01756 0.08003 0.0
H305 H 0.41407 0.10464 0.07394 0.0
H306 H 0.29558 0.018 0.00142 0.0
H307 H 0.33445 0.98387 0.99803 0.0
H308 H 0.30354 0.98322 0.03353 0.0
H309 H 0.44014 0.12636 0.02494 0.0
H310 H 0.43924 0.09212 0.99177 0.0
H311 H 0.40276 0.12883 0.99427 0.0
H312 H 0.40958 0.00847 0.91263 0.0
H313 H 0.31536 0.09016 0.91208 0.0
H314 H 0.40704 0.98416 0.99272 0.0
H315 H 0.44132 0.02306 0.99306 0.0
H316 H 0.44142 0.98885 0.95987 0.0
H317 H 0.29304 0.0884 0.99225 0.0
H318 H 0.29618 0.12351 0.9598 0.0
H319 H 0.33005 0.12476 0.99336 0.0
C320 C 0.04227 0.37525 0.56723 0.0
C321 C 0.04979 0.34241 0.58629 0.0
C322 C 0.04725 0.37442 0.53344 0.0
C323 C 0.05989 0.33975 0.51835 0.0
C324 C 0.06943 0.30702 0.5377 0.0
C325 C 0.06425 0.30875 0.57164 0.0
C326 C 0.03744 0.41017 0.51378 0.0
C327 C 0.08338 0.26972 0.52241 0.0
C328 C 0.03773 0.32985 0.42769 0.0
C329 C 0.073 0.34192 0.414 0.0
C330 C 0.03314 0.32814 0.46179 0.0
C331 C 0.06454 0.33863 0.48242 0.0
C332 C 0.10012 0.35047 0.46872 0.0
C333 C 0.10384 0.35211 0.43493 0.0
C334 C 0.99467 0.3155 0.4758 0.0
C335 C 0.13427 0.36205 0.48979 0.0
H336 H 0.03032 0.40099 0.57869 0.0
H337 H 0.06888 0.28304 0.58637 0.0
H338 H 0.06277 0.41908 0.49887 0.0
H339 H 0.01329 0.40361 0.49675 0.0
H340 H 0.02873 0.43502 0.52941 0.0
H341 H 0.0912 0.24755 0.54092 0.0
H342 H 0.0603 0.25768 0.50648 0.0
H343 H 0.10908 0.27533 0.50682 0.0
H344 H 0.01387 0.32174 0.41188 0.0
H345 H 0.13144 0.36151 0.42502 0.0
H346 H 0.98183 0.33955 0.49019 0.0
H347 H 0.99901 0.29072 0.49267 0.0
H348 H 0.97367 0.30677 0.45661 0.0
H349 H 0.12665 0.38798 0.50447 0.0
H350 H 0.16059 0.36885 0.47523 0.0
H351 H 0.14145 0.33838 0.50707 0.0
C352 C 0.72811 0.02866 0.92716 0.0
C353 C 0.76095 0.02926 0.90711 0.0
C354 C 0.73173 0.02568 0.96107 0.0
C355 C 0.7692 0.02399 0.97521 0.0
C356 C 0.80242 0.02249 0.9549 0.0
C357 C 0.79785 0.02499 0.92095 0.0
C358 C 0.69552 0.02639 0.9818 0.0
C359 C 0.84282 0.02067 0.96906 0.0
C360 C 0.77467 0.05547 0.06428 0.0
C361 C 0.77264 0.01951 0.08011 0.0
C362 C 0.77493 0.05749 0.02994 0.0
C363 C 0.77322 0.0228 0.01127 0.0
C364 C 0.77274 0.98657 0.02717 0.0
C365 C 0.77252 0.98539 0.06113 0.0
C366 C 0.77588 0.09668 0.0136 0.0
C367 C 0.77095 0.9489 0.00831 0.0
H368 H 0.6997 0.03315 0.91639 0.0
H369 H 0.82327 0.02695 0.90545 0.0
H370 H 0.69509 0.00101 0.99842 0.0
H371 H 0.69541 0.05287 0.99718 0.0
H372 H 0.66858 0.02605 0.96692 0.0
H373 H 0.86537 0.01688 0.94998 0.0
H374 H 0.84898 0.04788 0.98257 0.0
H375 H 0.84516 0.9964 0.9867 0.0
H376 H 0.775 0.08189 0.0786 0.0
H377 H 0.77153 0.9572 0.07278 0.0
H378 H 0.74816 0.10161 0.00045 0.0
H379 H 0.79953 0.09767 0.99527 0.0
H380 H 0.78019 0.12067 0.03131 0.0
H381 H 0.74313 0.94722 0.99475 0.0
H382 H 0.77319 0.92305 0.02437 0.0
H383 H 0.79472 0.94765 0.99012 0.0
C384 C 0.06587 0.71443 0.42626 0.0
C385 C 0.07649 0.74715 0.40808 0.0
C386 C 0.06896 0.71431 0.4602 0.0
C387 C 0.08326 0.7477 0.47622 0.0
C388 C 0.09721 0.77955 0.45776 0.0
C389 C 0.0936 0.77892 0.42369 0.0
C390 C 0.05423 0.67957 0.47896 0.0
C391 C 0.1134 0.81531 0.47409 0.0
C392 C 0.0501 0.76371 0.56368 0.0
C393 C 0.08206 0.74946 0.58105 0.0
C394 C 0.05017 0.76368 0.52937 0.0
C395 C 0.08298 0.74925 0.51231 0.0
C396 C 0.11508 0.73469 0.5297 0.0
C397 C 0.11413 0.73472 0.56367 0.0
C398 C 0.01522 0.77908 0.51133 0.0
C399 C 0.15056 0.71903 0.51243 0.0
H400 H 0.05212 0.69012 0.41403 0.0
H401 H 0.10092 0.80453 0.40962 0.0
H402 H 0.07641 0.6695 0.49662 0.0
H403 H 0.02807 0.68791 0.4931 0.0
H404 H 0.04649 0.65497 0.46271 0.0
H405 H 0.1265 0.83578 0.45631 0.0
H406 H 0.0898 0.83056 0.48729 0.0
H407 H 0.13575 0.80718 0.49232 0.0
H408 H 0.02535 0.77525 0.57679 0.0
H409 H 0.13908 0.7233 0.57658 0.0
H410 H 0.00277 0.75593 0.4957 0.0
H411 H 0.02404 0.80322 0.49506 0.0
H412 H 0.99226 0.7897 0.5281 0.0
H413 H 0.14243 0.6937 0.49721 0.0
H414 H 0.1737 0.7099 0.52966 0.0
H415 H 0.16266 0.74141 0.49587 0.0
C416 C 0.47004 0.06169 0.21673 0.0
C417 C 0.45845 0.09216 0.19625 0.0
C418 C 0.50931 0.05098 0.2192 0.0
C419 C 0.53741 0.07061 0.20015 0.0
C420 C 0.52613 0.10255 0.18068 0.0
C421 C 0.4869 0.1132 0.17927 0.0
C422 C 0.52043 0.01748 0.24095 0.0
C423 C 0.55504 0.12386 0.15956 0.0
C424 C 0.6461 0.05914 0.21316 0.0
C425 C 0.65532 0.0309 0.1898 0.0
C426 C 0.60756 0.07132 0.21777 0.0
C427 C 0.57782 0.05562 0.19794 0.0
C428 C 0.58699 0.02691 0.17448 0.0
C429 C 0.62554 0.01456 0.171 0.0
C430 C 0.59872 0.10124 0.24358 0.0
C431 C 0.55625 0.01001 0.15237 0.0
H432 H 0.4483 0.04547 0.23012 0.0
H433 H 0.47831 0.13669 0.16326 0.0
H434 H 0.5282 0.99199 0.22579 0.0
H435 H 0.54629 0.02501 0.25579 0.0
H436 H 0.4964 0.00899 0.25754 0.0
H437 H 0.54211 0.14969 0.14755 0.0
H438 H 0.58035 0.13338 0.17422 0.0
H439 H 0.56608 0.104 0.1404 0.0
H440 H 0.66899 0.0715 0.22804 0.0
H441 H 0.63256 0.99283 0.15283 0.0
H442 H 0.57521 0.09065 0.25978 0.0
H443 H 0.5882 0.12834 0.23198 0.0
H444 H 0.62456 0.10828 0.25866 0.0
H445 H 0.53278 0.99662 0.16706 0.0
H446 H 0.56814 0.98769 0.13559 0.0
H447 H 0.54289 0.03346 0.13761 0.0
C448 C 0.02866 0.46074 0.71636 0.0
C449 C 0.0053 0.44877 0.69021 0.0
C450 C 0.03862 0.49997 0.72046 0.0
C451 C 0.02565 0.52766 0.69744 0.0
C452 C 0.0009 0.51596 0.67171 0.0
C453 C 0.9907 0.47672 0.66862 0.0
C454 C 0.06428 0.5115 0.74866 0.0
C455 C 0.98696 0.54447 0.64634 0.0
C456 C 0.03281 0.63655 0.71149 0.0
C457 C 0.06702 0.64562 0.69454 0.0
C458 C 0.01969 0.59801 0.71382 0.0
C459 C 0.04085 0.56806 0.69826 0.0
C460 C 0.0758 0.57697 0.68173 0.0
C461 C 0.08863 0.61553 0.68036 0.0
C462 C 0.98279 0.58944 0.7323 0.0
C463 C 0.09895 0.54598 0.66439 0.0
H464 H 0.0397 0.43933 0.73334 0.0
H465 H 0.97277 0.46771 0.64827 0.0
H466 H 0.09345 0.51965 0.73947 0.0
H467 H 0.05214 0.53724 0.76131 0.0
H468 H 0.06774 0.48762 0.7666 0.0
H469 H 0.96596 0.53121 0.62907 0.0
H470 H 0.97294 0.56979 0.65816 0.0
H471 H 0.01214 0.55555 0.63227 0.0
H472 H 0.01611 0.6596 0.72273 0.0
H473 H 0.11499 0.62224 0.66708 0.0
H474 H 0.98773 0.56568 0.75006 0.0
H475 H 0.95999 0.57947 0.71515 0.0
H476 H 0.97177 0.61529 0.74557 0.0
H477 H 0.10693 0.52252 0.68162 0.0
H478 H 0.12595 0.5576 0.65325 0.0
H479 H 0.08099 0.5327 0.6449 0.0
C480 C 0.63447 0.05222 0.77654 0.0
C481 C 0.6453 0.07325 0.80438 0.0
C482 C 0.59536 0.0431 0.7704 0.0
C483 C 0.56653 0.05447 0.79304 0.0
C484 C 0.5772 0.07652 0.82076 0.0
C485 C 0.61636 0.08598 0.8259 0.0
C486 C 0.58502 0.0204 0.74017 0.0
C487 C 0.54747 0.08871 0.8458 0.0
C488 C 0.45782 0.05375 0.77656 0.0
C489 C 0.44646 0.01938 0.79228 0.0
C490 C 0.49719 0.06451 0.77476 0.0
C491 C 0.52573 0.04069 0.78951 0.0
C492 C 0.51466 0.00497 0.80373 0.0
C493 C 0.47532 0.99458 0.80462 0.0
C494 C 0.50799 0.10232 0.75858 0.0
C495 C 0.54406 0.97883 0.82001 0.0
H496 H 0.65663 0.04268 0.75958 0.0
H497 H 0.62446 0.10215 0.84751 0.0
H498 H 0.57528 0.99084 0.74707 0.0
H499 H 0.56059 0.03454 0.72715 0.0
H500 H 0.60999 0.01767 0.72321 0.0
H501 H 0.56027 0.10698 0.86535 0.0
H502 H 0.52367 0.1052 0.83399 0.0
H503 H 0.53434 0.06258 0.85714 0.0
H504 H 0.4359 0.07302 0.76671 0.0
H505 H 0.46711 0.96787 0.81673 0.0
H506 H 0.53343 0.09829 0.74235 0.0
H507 H 0.51629 0.12386 0.77741 0.0
H508 H 0.48359 0.11447 0.7441 0.0
H509 H 0.56847 0.97253 0.80323 0.0
H510 H 0.53114 0.95088 0.82805 0.0
H511 H 0.55637 0.99375 0.84163 0.0
C512 C 0.09046 0.48337 0.32188 0.0
C513 C 0.07297 0.45433 0.30296 0.0
C514 C 0.07976 0.52239 0.31855 0.0
C515 C 0.05143 0.53291 0.29518 0.0
C516 C 0.03445 0.50393 0.27525 0.0
C517 C 0.04506 0.46485 0.27967 0.0
C518 C 0.09803 0.55222 0.34077 0.0
C519 C 0.00484 0.51419 0.24956 0.0
C520 C 0.99949 0.62646 0.316 0.0
C521 C 0.02216 0.65413 0.29955 0.0
C522 C 0.00738 0.58668 0.31337 0.0
C523 C 0.03827 0.57402 0.2933 0.0
C524 C 0.05934 0.60145 0.27466 0.0
C525 C 0.05128 0.64124 0.27821 0.0
C526 C 0.98445 0.55849 0.33397 0.0
C527 C 0.09186 0.58899 0.25236 0.0
H528 H 0.11188 0.47546 0.34006 0.0
H529 H 0.03173 0.44256 0.26475 0.0
H530 H 0.11241 0.57516 0.32617 0.0
H531 H 0.07522 0.56647 0.35565 0.0
H532 H 0.11987 0.53929 0.35747 0.0
H533 H 0.99677 0.48879 0.23432 0.0
H534 H 0.9782 0.52565 0.26129 0.0
H535 H 0.01632 0.53741 0.2335 0.0
H536 H 0.97678 0.6359 0.33247 0.0
H537 H 0.0687 0.66227 0.2651 0.0
H538 H 0.00355 0.54629 0.35319 0.0
H539 H 0.97391 0.53388 0.31899 0.0
H540 H 0.95911 0.57248 0.3459 0.0
H541 H 0.11725 0.5799 0.26714 0.0
H542 H 0.10115 0.61277 0.23584 0.0
H543 H 0.08286 0.56367 0.23745 0.0
C544 C 0.14141 0.25089 0.27462 0.0
C545 C 0.14336 0.28935 0.26371 0.0
C546 C 0.16888 0.22341 0.2647 0.0
C547 C 0.20032 0.23537 0.24494 0.0
C548 C 0.20206 0.27434 0.23388 0.0
C549 C 0.1727 0.30058 0.24245 0.0
C550 C 0.16431 0.18187 0.27573 0.0
C551 C 0.23508 0.28839 0.21325 0.0
C552 C 0.28774 0.16752 0.24792 0.0
C553 C 0.28763 0.15257 0.21641 0.0
C554 C 0.25977 0.19477 0.25756 0.0
C555 C 0.23068 0.2069 0.23514 0.0
C556 C 0.22997 0.1906 0.20346 0.0
C557 C 0.25876 0.16409 0.19445 0.0
C558 C 0.26163 0.20899 0.29215 0.0
C559 C 0.1985 0.19951 0.1789 0.0
H560 H 0.11819 0.24227 0.29092 0.0
H561 H 0.17341 0.3301 0.23346 0.0
H562 H 0.17157 0.16138 0.25577 0.0
H563 H 0.18439 0.17619 0.2963 0.0
H564 H 0.13428 0.17575 0.28419 0.0
H565 H 0.23444 0.32026 0.20937 0.0
H566 H 0.26307 0.28028 0.22479 0.0
H567 H 0.23323 0.27418 0.18918 0.0
H568 H 0.30958 0.15779 0.26511 0.0
H569 H 0.2577 0.15118 0.17037 0.0
H570 H 0.25718 0.18415 0.30897 0.0
H571 H 0.23969 0.23137 0.29769 0.0
H572 H 0.29107 0.22061 0.2972 0.0
H573 H 0.17244 0.21326 0.18976 0.0
H574 H 0.18924 0.17247 0.16635 0.0
H575 H 0.21039 0.21904 0.15988 0.0
C576 C 0.90968 0.30488 0.74511 0.0
C577 C 0.93274 0.29109 0.71968 0.0
C578 C 0.8769 0.28391 0.75527 0.0
C579 C 0.86904 0.24711 0.74131 0.0
C580 C 0.89171 0.23394 0.71474 0.0
C581 C 0.92308 0.25634 0.70408 0.0
C582 C 0.85142 0.30088 0.78132 0.0
C583 C 0.88427 0.19522 0.69867 0.0
C584 C 0.83474 0.1632 0.79255 0.0
C585 C 0.79955 0.15402 0.77743 0.0
C586 C 0.85645 0.19537 0.78258 0.0
C587 C 0.84202 0.21939 0.75734 0.0
C588 C 0.80469 0.21199 0.74417 0.0
C589 C 0.7845 0.1784 0.75345 0.0
C590 C 0.8959 0.20204 0.79765 0.0
C591 C 0.78637 0.23854 0.71959 0.0
H592 H 0.91704 0.33215 0.75676 0.0
H593 H 0.94116 0.24588 0.68432 0.0
H594 H 0.82069 0.29233 0.77752 0.0
H595 H 0.86118 0.29013 0.80539 0.0
H596 H 0.85325 0.33307 0.78164 0.0
H597 H 0.90469 0.18942 0.67829 0.0
H598 H 0.88711 0.17155 0.71686 0.0
H599 H 0.85426 0.19429 0.68894 0.0
H600 H 0.84618 0.14407 0.81121 0.0
H601 H 0.75691 0.17136 0.74214 0.0
H602 H 0.89753 0.23167 0.80805 0.0
H603 H 0.91873 0.19968 0.77867 0.0
H604 H 0.90245 0.18088 0.81732 0.0
H605 H 0.79677 0.26878 0.7226 0.0
H606 H 0.75422 0.23829 0.72186 0.0
H607 H 0.79369 0.2281 0.69482 0.0
C608 C 0.9392 0.81754 0.25418 0.0
C609 C 0.95891 0.82136 0.2836 0.0
C610 C 0.90946 0.8434 0.24584 0.0
C611 C 0.89923 0.87387 0.26754 0.0
C612 C 0.91929 0.87765 0.29746 0.0
C613 C 0.94901 0.8514 0.30502 0.0
C614 C 0.89092 0.83838 0.21299 0.0
C615 C 0.9113 0.91088 0.32047 0.0
C616 C 0.8561 0.96136 0.22526 0.0
C617 C 0.81722 0.95962 0.23504 0.0
C618 C 0.88328 0.93451 0.23672 0.0
C619 C 0.87087 0.90418 0.25746 0.0
C620 C 0.83144 0.90248 0.26742 0.0
C621 C 0.80527 0.93113 0.25692 0.0
C622 C 0.92502 0.93806 0.22585 0.0
C623 C 0.81665 0.87048 0.28892 0.0
H624 H 0.9475 0.79472 0.23735 0.0
H625 H 0.96558 0.85528 0.32723 0.0
H626 H 0.87877 0.80862 0.21109 0.0
H627 H 0.86784 0.85982 0.20819 0.0
H628 H 0.91337 0.84115 0.19372 0.0
H629 H 0.93002 0.90988 0.3425 0.0
H630 H 0.91624 0.93889 0.30777 0.0
H631 H 0.88058 0.91033 0.3284 0.0
H632 H 0.86522 0.98373 0.20834 0.0
H633 H 0.77535 0.9305 0.26497 0.0
H634 H 0.93178 0.91445 0.20837 0.0
H635 H 0.94496 0.93498 0.24693 0.0
H636 H 0.9309 0.96628 0.21373 0.0
H637 H 0.8295 0.84222 0.28184 0.0
H638 H 0.78455 0.86801 0.28814 0.0
H639 H 0.82489 0.87714 0.31434 0.0
C640 C 0.16002 0.80531 0.75694 0.0
C641 C 0.13153 0.81458 0.73421 0.0
C642 C 0.18802 0.83293 0.76582 0.0
C643 C 0.18584 0.87123 0.75328 0.0
C644 C 0.1546 0.88146 0.73263 0.0
C645 C 0.12849 0.85268 0.7226 0.0
C646 C 0.22068 0.82078 0.78769 0.0
C647 C 0.14919 0.92237 0.72031 0.0
C648 C 0.24606 0.94504 0.7999 0.0
C649 C 0.27446 0.95507 0.77699 0.0
C650 C 0.21666 0.91848 0.7924 0.0
C651 C 0.21638 0.90035 0.76141 0.0
C652 C 0.24511 0.91085 0.73808 0.0
C653 C 0.27354 0.93842 0.7461 0.0
C654 C 0.18566 0.91154 0.81779 0.0
C655 C 0.24612 0.89443 0.70414 0.0
H656 H 0.16135 0.77619 0.76671 0.0
H657 H 0.10582 0.85992 0.70532 0.0
H658 H 0.21942 0.83773 0.81052 0.0
H659 H 0.21954 0.78952 0.79411 0.0
H660 H 0.24864 0.82714 0.77539 0.0
H661 H 0.11883 0.92758 0.71225 0.0
H662 H 0.15672 0.94396 0.73937 0.0
H663 H 0.16854 0.92726 0.69912 0.0
H664 H 0.24586 0.95917 0.8235 0.0
H665 H 0.29505 0.94693 0.72818 0.0
H666 H 0.19856 0.89572 0.8387 0.0
H667 H 0.16032 0.89498 0.80863 0.0
H668 H 0.1751 0.93977 0.8274 0.0
H669 H 0.22459 0.87116 0.70012 0.0
H670 H 0.27566 0.88318 0.69886 0.0
H671 H 0.24048 0.91804 0.68636 0.0
C672 C 0.83469 0.96336 0.73963 0.0
C673 C 0.84474 0.98184 0.76889 0.0
C674 C 0.86104 0.93893 0.7234 0.0
C675 C 0.89792 0.93154 0.73734 0.0
C676 C 0.90817 0.95006 0.76701 0.0
C677 C 0.88173 0.97558 0.7821 0.0
C678 C 0.84931 0.92093 0.69134 0.0
C679 C 0.94664 0.94206 0.78329 0.0
C680 C 0.94581 0.83552 0.71524 0.0
C681 C 0.97628 0.8472 0.69475 0.0
C682 C 0.92046 0.86265 0.72933 0.0
C683 C 0.92465 0.90257 0.72197 0.0
C684 C 0.95438 0.91448 0.70021 0.0
C685 C 0.98031 0.88673 0.68733 0.0
C686 C 0.88997 0.84864 0.75303 0.0
C687 C 0.95901 0.95655 0.69079 0.0
H688 H 0.80634 0.96862 0.72903 0.0
H689 H 0.88959 0.98985 0.80469 0.0
H690 H 0.87188 0.92662 0.67264 0.0
H691 H 0.84688 0.889 0.69404 0.0
H692 H 0.82108 0.93227 0.68235 0.0
H693 H 0.95031 0.95883 0.8062 0.0
H694 H 0.94904 0.91067 0.78898 0.0
H695 H 0.97086 0.9494 0.7666 0.0
H696 H 0.94278 0.80512 0.72156 0.0
H697 H 0.00387 0.89599 0.67165 0.0
H698 H 0.86059 0.85642 0.74413 0.0
H699 H 0.89402 0.86313 0.77693 0.0
H700 H 0.89109 0.81672 0.75677 0.0
H701 H 0.931 0.96823 0.68171 0.0
H702 H 0.98149 0.96069 0.6717 0.0
H703 H 0.96728 0.97389 0.71246 0.0
C704 C 0.22736 0.97973 0.19367 0.0
C705 C 0.26643 0.98037 0.20331 0.0
C706 C 0.20105 0.95287 0.20725 0.0
C707 C 0.21388 0.92666 0.23163 0.0
C708 C 0.25338 0.92701 0.24118 0.0
C709 C 0.27918 0.95347 0.22667 0.0
C710 C 0.15941 0.95283 0.19578 0.0
C711 C 0.26823 0.90016 0.26746 0.0
C712 C 0.13838 0.88426 0.28978 0.0
C713 C 0.13412 0.84639 0.27777 0.0
C714 C 0.16446 0.91055 0.27522 0.0
C715 C 0.18607 0.89907 0.24743 0.0
C716 C 0.18166 0.86092 0.23513 0.0
C717 C 0.15617 0.83496 0.25067 0.0
C718 C 0.16897 0.9506 0.28963 0.0
C719 C 0.20345 0.84767 0.20522 0.0
H720 H 0.21725 0.00042 0.1757 0.0
H721 H 0.30921 0.95396 0.23457 0.0
H722 H 0.15099 0.92328 0.18765 0.0
H723 H 0.13992 0.96081 0.21621 0.0
H724 H 0.1545 0.97347 0.17541 0.0
H725 H 0.29976 0.90408 0.27217 0.0
H726 H 0.25217 0.90548 0.29046 0.0
H727 H 0.26303 0.86951 0.26048 0.0
H728 H 0.12142 0.8933 0.31068 0.0
H729 H 0.1527 0.80591 0.24096 0.0
H730 H 0.16067 0.97285 0.2714 0.0
H731 H 0.19982 0.95582 0.29611 0.0
H732 H 0.15088 0.95472 0.31176 0.0
H733 H 0.19682 0.86717 0.18445 0.0
H734 H 0.19599 0.81745 0.19817 0.0
H735 H 0.23519 0.84934 0.2096 0.0
C736 C 0.11237 0.216 0.7089 0.0
C737 C 0.10907 0.25438 0.71991 0.0
C738 C 0.13987 0.19047 0.72259 0.0
C739 C 0.16389 0.20328 0.74854 0.0
C740 C 0.16017 0.24185 0.76004 0.0
C741 C 0.13324 0.26701 0.74532 0.0
C742 C 0.14353 0.14992 0.70903 0.0
C743 C 0.18445 0.2565 0.7881 0.0
C744 C 0.2119 0.12566 0.80152 0.0
C745 C 0.25 0.12554 0.78944 0.0
C746 C 0.18377 0.15133 0.78895 0.0
C747 C 0.19366 0.17676 0.76308 0.0
C748 C 0.23217 0.17685 0.75098 0.0
C749 C 0.2599 0.15166 0.76455 0.0
C750 C 0.14337 0.15102 0.80317 0.0
C751 C 0.24387 0.20284 0.72304 0.0
H752 H 0.09379 0.20607 0.68928 0.0
H753 H 0.13054 0.29649 0.75426 0.0
H754 H 0.17364 0.14498 0.70035 0.0
H755 H 0.1377 0.12829 0.72842 0.0
H756 H 0.12318 0.1446 0.68851 0.0
H757 H 0.17685 0.2867 0.79511 0.0
H758 H 0.18048 0.23741 0.80961 0.0
H759 H 0.21567 0.2556 0.78153 0.0
H760 H 0.20401 0.10554 0.82069 0.0
H761 H 0.28912 0.15148 0.75476 0.0
H762 H 0.12214 0.14196 0.78433 0.0
H763 H 0.13517 0.18069 0.81113 0.0
H764 H 0.14084 0.13104 0.8243 0.0
H765 H 0.22558 0.19646 0.70143 0.0
H766 H 0.27485 0.19913 0.71617 0.0
H767 H 0.23897 0.23368 0.72957 0.0
C768 C 0.961 0.26237 0.25999 0.0
C769 C 0.98446 0.25152 0.28641 0.0
C770 C 0.9378 0.23514 0.24353 0.0
C771 C 0.93666 0.19618 0.25447 0.0
C772 C 0.95973 0.18515 0.28161 0.0
C773 C 0.98404 0.21277 0.2968 0.0
C774 C 0.9148 0.24805 0.21414 0.0
C775 C 0.9583 0.14435 0.29489 0.0
C776 C 0.84444 0.14165 0.23159 0.0
C777 C 0.85715 0.11686 0.20664 0.0
C778 C 0.87026 0.16643 0.24798 0.0
C779 C 0.90973 0.16779 0.23845 0.0
C780 C 0.92271 0.14329 0.21284 0.0
C781 C 0.89642 0.11745 0.19772 0.0
C782 C 0.85527 0.19088 0.27582 0.0
C783 C 0.96418 0.14483 0.20108 0.0
H784 H 0.96182 0.29209 0.25134 0.0
H785 H 0.00232 0.20419 0.31705 0.0
H786 H 0.92136 0.229 0.19305 0.0
H787 H 0.88327 0.24548 0.21916 0.0
H788 H 0.92116 0.27856 0.20722 0.0
H789 H 0.97724 0.1406 0.31657 0.0
H790 H 0.92803 0.13689 0.30176 0.0
H791 H 0.96748 0.1234 0.27591 0.0
H792 H 0.81428 0.14077 0.23914 0.0
H793 H 0.90643 0.09817 0.17863 0.0
H794 H 0.8575 0.22209 0.26955 0.0
H795 H 0.87326 0.18602 0.29788 0.0
H796 H 0.82452 0.18428 0.28184 0.0
H797 H 0.97141 0.17478 0.19319 0.0
H798 H 0.9695 0.12467 0.18044 0.0
H799 H 0.98425 0.1373 0.22122 0.0
loop_
_geom_bond_atom_site_label_1
_geom_bond_atom_site_label_2
_geom_bond_distance
_geom_bond_site_symmetry_2
_ccdc_geom_bond_type
Mn0 O5 2.095 . S
Mn0 O15 2.148 1_545 S
Mn0 O16 2.297 . S
Mn0 O24 2.385 . S
Mn0 O25 2.209 . S
Mn0 O26 2.094 . S
Mn1 O6 2.121 . S
Mn1 N8 2.257 . S
Mn1 N17 2.282 . S
Mn1 O25 2.215 . S
Mn1 O27 2.117 . S
C2 O24 1.234 . S
C2 O25 1.283 . S
C3 O15 1.279 1_545 S
C3 O16 1.236 . S
C4 O26 1.240 . S
C4 O27 1.264 . S
O5 Mn0 2.095 . S
O5 C14 1.250 . S
O6 Mn1 2.121 . S
O6 C14 1.258 . S
C7 N8 1.326 . S
C7 C11 1.460 . S
C7 H13 0.929 . S
N8 Mn1 2.257 . S
N8 C7 1.326 . S
N8 C12 1.362 . S
C9 C10 1.258 . S
C9 C12 1.431 . S
C9 C29 1.449 . S
C10 C9 1.258 . S
C10 C11 1.477 . S
C10 H30 0.931 . S
C11 C7 1.460 . S
C11 C10 1.477 . S
C11 H31 0.930 . S
C12 N8 1.362 . S
C12 C9 1.431 . S
C12 C22 1.476 . S
H13 C7 0.929 . S
C14 O5 1.250 . S
C14 O6 1.258 . S
O15 Mn0 2.148 1_565 S
O15 C3 1.279 1_565 S
O16 Mn0 2.297 . S
O16 C3 1.236 . S
N17 Mn1 2.282 . S
N17 C18 1.328 . S
N17 C22 1.318 . S
C18 N17 1.328 . S
C18 C19 1.457 . S
C18 H23 0.929 . S
C19 C18 1.457 . S
C19 C20 1.291 . S
C19 H32 0.931 . S
C20 C19 1.291 . S
C20 C21 1.373 . S
C20 H33 0.929 . S
C21 C20 1.373 . S
C21 C22 1.396 . S
C21 C28 1.403 . S
C22 C12 1.476 . S
C22 N17 1.318 . S
C22 C21 1.396 . S
H23 C18 0.929 . S
O24 Mn0 2.385 . S
O24 C2 1.234 . S
O25 Mn0 2.209 . S
O25 Mn1 2.215 . S
O25 C2 1.283 . S
O26 Mn0 2.094 . S
O26 C4 1.240 . S
O27 Mn1 2.117 . S
O27 C4 1.264 . S
C28 C21 1.403 . S
C28 C29 1.399 . S
C28 H34 0.929 . S
C29 C9 1.449 . S
C29 C28 1.399 . S
C29 H35 0.930 . S
H30 C10 0.931 . S
H31 C11 0.930 . S
H32 C19 0.931 . S
H33 C20 0.929 . S
H34 C28 0.929 . S
H35 C29 0.930 . S
Mn36 O41 2.095 . S
Mn36 O51 2.162 . S
Mn36 O52 2.297 . S
Mn36 O60 2.385 . S
Mn36 O61 2.209 1_455 S
Mn36 O62 2.094 . S
Mn37 O42 2.121 . S
Mn37 N44 2.257 . S
Mn37 N53 2.282 . S
Mn37 O61 2.215 . S
Mn37 O63 2.117 . S
C38 O60 1.234 1_655 S
C38 O61 1.283 . S
C39 O51 1.281 . S
C39 O52 1.236 . S
C40 O62 1.240 . S
C40 O63 1.264 1_455 S
O41 Mn36 2.095 . S
O41 C50 1.250 . S
O42 Mn37 2.121 . S
O42 C50 1.258 1_655 S
C43 N44 1.326 . S
C43 C47 1.460 . S
C43 H49 0.929 . S
N44 Mn37 2.257 . S
N44 C43 1.326 . S
N44 C48 1.362 . S
C45 C46 1.258 . S
C45 C48 1.431 . S
C45 C65 1.449 . S
C46 C45 1.258 . S
C46 C47 1.477 . S
C46 H66 0.931 . S
C47 C43 1.460 . S
C47 C46 1.477 . S
C47 H67 0.930 . S
C48 N44 1.362 . S
C48 C45 1.431 . S
C48 C58 1.476 . S
H49 C43 0.929 . S
C50 O41 1.250 . S
C50 O42 1.258 1_455 S
O51 Mn36 2.162 . S
O51 C39 1.281 . S
O52 Mn36 2.297 . S
O52 C39 1.236 . S
N53 Mn37 2.282 . S
N53 C54 1.328 . S
N53 C58 1.318 . S
C54 N53 1.328 . S
C54 C55 1.457 . S
C54 H59 0.929 . S
C55 C54 1.457 . S
C55 C56 1.291 . S
C55 H68 0.931 . S
C56 C55 1.291 . S
C56 C57 1.373 . S
C56 H69 0.929 . S
C57 C56 1.373 . S
C57 C58 1.396 . S
C57 C64 1.403 . S
C58 C48 1.476 . S
C58 N53 1.318 . S
C58 C57 1.396 . S
H59 C54 0.929 . S
O60 Mn36 2.385 . S
O60 C38 1.234 1_455 S
O61 Mn36 2.209 1_655 S
O61 Mn37 2.215 . S
O61 C38 1.283 . S
O62 Mn36 2.094 . S
O62 C40 1.240 . S
O63 Mn37 2.117 . S
O63 C40 1.264 1_655 S
C64 C57 1.403 . S
C64 C65 1.399 . S
C64 H70 0.929 . S
C65 C45 1.449 . S
C65 C64 1.399 . S
C65 H71 0.930 . S
H66 C46 0.931 . S
H67 C47 0.930 . S
H68 C55 0.931 . S
H69 C56 0.929 . S
H70 C64 0.929 . S
H71 C65 0.930 . S
Mn72 O77 2.095 . S
Mn72 O87 2.162 . S
Mn72 O88 2.297 . S
Mn72 O96 2.385 . S
Mn72 O97 2.209 1_545 S
Mn72 O98 2.094 . S
Mn73 O78 2.121 . S
Mn73 N80 2.257 . S
Mn73 N89 2.282 . S
Mn73 O97 2.215 . S
Mn73 O99 2.117 . S
C74 O96 1.234 1_565 S
C74 O97 1.283 . S
C75 O87 1.281 . S
C75 O88 1.236 . S
C76 O98 1.240 . S
C76 O99 1.264 1_545 S
O77 Mn72 2.095 . S
O77 C86 1.250 . S
O78 Mn73 2.121 . S
O78 C86 1.258 1_565 S
C79 N80 1.326 . S
C79 C83 1.460 . S
C79 H85 0.929 . S
N80 Mn73 2.257 . S
N80 C79 1.326 . S
N80 C84 1.362 . S
C81 C82 1.258 . S
C81 C84 1.431 . S
C81 C101 1.449 . S
C82 C81 1.258 . S
C82 C83 1.477 . S
C82 H102 0.931 . S
C83 C79 1.460 . S
C83 C82 1.477 . S
C83 H103 0.930 . S
C84 N80 1.362 . S
C84 C81 1.431 . S
C84 C94 1.476 . S
H85 C79 0.929 . S
C86 O77 1.250 . S
C86 O78 1.258 1_545 S
O87 Mn72 2.162 . S
O87 C75 1.281 . S
O88 Mn72 2.297 . S
O88 C75 1.236 . S
N89 Mn73 2.282 . S
N89 C90 1.328 . S
N89 C94 1.318 . S
C90 N89 1.328 . S
C90 C91 1.457 . S
C90 H95 0.929 . S
C91 C90 1.457 . S
C91 C92 1.291 . S
C91 H104 0.931 . S
C92 C91 1.291 . S
C92 C93 1.373 . S
C92 H105 0.929 . S
C93 C92 1.373 . S
C93 C94 1.396 . S
C93 C100 1.403 . S
C94 C84 1.476 . S
C94 N89 1.318 . S
C94 C93 1.396 . S
H95 C90 0.929 . S
O96 Mn72 2.385 . S
O96 C74 1.234 1_545 S
O97 Mn72 2.209 1_565 S
O97 Mn73 2.215 . S
O97 C74 1.283 . S
O98 Mn72 2.094 . S
O98 C76 1.240 . S
O99 Mn73 2.117 . S
O99 C76 1.264 1_565 S
C100 C93 1.403 . S
C100 C101 1.399 . S
C100 H106 0.929 . S
C101 C81 1.449 . S
C101 C100 1.399 . S
C101 H107 0.930 . S
H102 C82 0.931 . S
H103 C83 0.930 . S
H104 C91 0.931 . S
H105 C92 0.929 . S
H106 C100 0.929 . S
H107 C101 0.930 . S
Mn108 O113 2.095 . S
Mn108 O123 2.148 1_455 S
Mn108 O124 2.297 . S
Mn108 O132 2.385 . S
Mn108 O133 2.209 . S
Mn108 O134 2.094 . S
Mn109 O114 2.121 . S
Mn109 N116 2.257 . S
Mn109 N125 2.282 . S
Mn109 O133 2.215 . S
Mn109 O135 2.117 . S
C110 O132 1.234 . S
C110 O133 1.283 . S
C111 O123 1.279 1_455 S
C111 O124 1.236 . S
C112 O134 1.240 . S
C112 O135 1.264 . S
O113 Mn108 2.095 . S
O113 C122 1.250 . S
O114 Mn109 2.121 . S
O114 C122 1.258 . S
C115 N116 1.326 . S
C115 C119 1.460 . S
C115 H121 0.929 . S
N116 Mn109 2.257 . S
N116 C115 1.326 . S
N116 C120 1.362 . S
C117 C118 1.258 . S
C117 C120 1.431 . S
C117 C137 1.449 . S
C118 C117 1.258 . S
C118 C119 1.477 . S
C118 H138 0.931 . S
C119 C115 1.460 . S
C119 C118 1.477 . S
C119 H139 0.930 . S
C120 N116 1.362 . S
C120 C117 1.431 . S
C120 C130 1.476 . S
H121 C115 0.929 . S
C122 O113 1.250 . S
C122 O114 1.258 . S
O123 Mn108 2.148 1_655 S
O123 C111 1.279 1_655 S
O124 Mn108 2.297 . S
O124 C111 1.236 . S
N125 Mn109 2.282 . S
N125 C126 1.328 . S
N125 C130 1.318 . S
C126 N125 1.328 . S
C126 C127 1.457 . S
C126 H131 0.929 . S
C127 C126 1.457 . S
C127 C128 1.291 . S
C127 H140 0.931 . S
C128 C127 1.291 . S
C128 C129 1.373 . S
C128 H141 0.929 . S
C129 C128 1.373 . S
C129 C130 1.396 . S
C129 C136 1.403 . S
C130 C120 1.476 . S
C130 N125 1.318 . S
C130 C129 1.396 . S
H131 C126 0.929 . S
O132 Mn108 2.385 . S
O132 C110 1.234 . S
O133 Mn108 2.209 . S
O133 Mn109 2.215 . S
O133 C110 1.283 . S
O134 Mn108 2.094 . S
O134 C112 1.240 . S
O135 Mn109 2.117 . S
O135 C112 1.264 . S
C136 C129 1.403 . S
C136 C137 1.399 . S
C136 H142 0.929 . S
C137 C117 1.449 . S
C137 C136 1.399 . S
C137 H143 0.930 . S
H138 C118 0.931 . S
H139 C119 0.930 . S
H140 C127 0.931 . S
H141 C128 0.929 . S
H142 C136 0.929 . S
H143 C137 0.930 . S
Mn144 O149 2.095 . S
Mn144 O159 2.162 . S
Mn144 O160 2.297 . S
Mn144 O168 2.385 . S
Mn144 O169 2.209 1_545 S
Mn144 O170 2.094 . S
Mn145 O150 2.121 . S
Mn145 N152 2.257 . S
Mn145 N161 2.282 . S
Mn145 O169 2.215 . S
Mn145 O171 2.117 . S
C146 O168 1.234 1_565 S
C146 O169 1.283 . S
C147 O159 1.281 . S
C147 O160 1.236 . S
C148 O170 1.240 . S
C148 O171 1.264 1_545 S
O149 Mn144 2.095 . S
O149 C158 1.250 . S
O150 Mn145 2.121 . S
O150 C158 1.258 1_565 S
C151 N152 1.326 . S
C151 C155 1.460 . S
C151 H157 0.929 . S
N152 Mn145 2.257 . S
N152 C151 1.326 . S
N152 C156 1.362 . S
C153 C154 1.258 . S
C153 C156 1.431 . S
C153 C173 1.449 . S
C154 C153 1.258 . S
C154 C155 1.477 . S
C154 H174 0.931 . S
C155 C151 1.460 . S
C155 C154 1.477 . S
C155 H175 0.930 . S
C156 N152 1.362 . S
C156 C153 1.431 . S
C156 C166 1.476 . S
H157 C151 0.929 . S
C158 O149 1.250 . S
C158 O150 1.258 1_545 S
O159 Mn144 2.162 . S
O159 C147 1.281 . S
O160 Mn144 2.297 . S
O160 C147 1.236 . S
N161 Mn145 2.282 . S
N161 C162 1.328 . S
N161 C166 1.318 . S
C162 N161 1.328 . S
C162 C163 1.457 . S
C162 H167 0.929 . S
C163 C162 1.457 . S
C163 C164 1.291 . S
C163 H176 0.931 . S
C164 C163 1.291 . S
C164 C165 1.373 . S
C164 H177 0.929 . S
C165 C164 1.373 . S
C165 C166 1.396 . S
C165 C172 1.403 . S
C166 C156 1.476 . S
C166 N161 1.318 . S
C166 C165 1.396 . S
H167 C162 0.929 . S
O168 Mn144 2.385 . S
O168 C146 1.234 1_545 S
O169 Mn144 2.209 1_565 S
O169 Mn145 2.215 . S
O169 C146 1.283 . S
O170 Mn144 2.094 . S
O170 C148 1.240 . S
O171 Mn145 2.117 . S
O171 C148 1.264 1_565 S
C172 C165 1.403 . S
C172 C173 1.399 . S
C172 H178 0.929 . S
C173 C153 1.449 . S
C173 C172 1.399 . S
C173 H179 0.930 . S
H174 C154 0.931 . S
H175 C155 0.930 . S
H176 C163 0.931 . S
H177 C164 0.929 . S
H178 C172 0.929 . S
H179 C173 0.930 . S
Mn180 O185 2.095 . S
Mn180 O195 2.148 1_455 S
Mn180 O196 2.297 . S
Mn180 O204 2.385 . S
Mn180 O205 2.209 . S
Mn180 O206 2.094 . S
Mn181 O186 2.121 . S
Mn181 N188 2.257 . S
Mn181 N197 2.282 . S
Mn181 O205 2.215 . S
Mn181 O207 2.117 . S
C182 O204 1.234 . S
C182 O205 1.283 . S
C183 O195 1.279 1_455 S
C183 O196 1.236 . S
C184 O206 1.240 . S
C184 O207 1.264 . S
O185 Mn180 2.095 . S
O185 C194 1.250 . S
O186 Mn181 2.121 . S
O186 C194 1.258 . S
C187 N188 1.326 . S
C187 C191 1.460 . S
C187 H193 0.929 . S
N188 Mn181 2.257 . S
N188 C187 1.326 . S
N188 C192 1.362 . S
C189 C190 1.258 . S
C189 C192 1.431 . S
C189 C209 1.449 . S
C190 C189 1.258 . S
C190 C191 1.477 . S
C190 H210 0.931 . S
C191 C187 1.460 . S
C191 C190 1.477 . S
C191 H211 0.930 . S
C192 N188 1.362 . S
C192 C189 1.431 . S
C192 C202 1.476 . S
H193 C187 0.929 . S
C194 O185 1.250 . S
C194 O186 1.258 . S
O195 Mn180 2.148 1_655 S
O195 C183 1.279 1_655 S
O196 Mn180 2.297 . S
O196 C183 1.236 . S
N197 Mn181 2.282 . S
N197 C198 1.328 . S
N197 C202 1.318 . S
C198 N197 1.328 . S
C198 C199 1.457 . S
C198 H203 0.929 . S
C199 C198 1.457 . S
C199 C200 1.291 . S
C199 H212 0.931 . S
C200 C199 1.291 . S
C200 C201 1.373 . S
C200 H213 0.929 . S
C201 C200 1.373 . S
C201 C202 1.396 . S
C201 C208 1.403 . S
C202 C192 1.476 . S
C202 N197 1.318 . S
C202 C201 1.396 . S
H203 C198 0.929 . S
O204 Mn180 2.385 . S
O204 C182 1.234 . S
O205 Mn180 2.209 . S
O205 Mn181 2.215 . S
O205 C182 1.283 . S
O206 Mn180 2.094 . S
O206 C184 1.240 . S
O207 Mn181 2.117 . S
O207 C184 1.264 . S
C208 C201 1.403 . S
C208 C209 1.399 . S
C208 H214 0.929 . S
C209 C189 1.449 . S
C209 C208 1.399 . S
C209 H215 0.930 . S
H210 C190 0.931 . S
H211 C191 0.930 . S
H212 C199 0.931 . S
H213 C200 0.929 . S
H214 C208 0.929 . S
H215 C209 0.930 . S
Mn216 O221 2.095 . S
Mn216 O231 2.148 1_545 S
Mn216 O232 2.297 . S
Mn216 O240 2.385 . S
Mn216 O241 2.209 . S
Mn216 O242 2.094 . S
Mn217 O222 2.121 . S
Mn217 N224 2.257 . S
Mn217 N233 2.282 . S
Mn217 O241 2.215 . S
Mn217 O243 2.117 . S
C218 O240 1.234 . S
C218 O241 1.283 . S
C219 O231 1.279 1_545 S
C219 O232 1.236 . S
C220 O242 1.240 . S
C220 O243 1.264 . S
O221 Mn216 2.095 . S
O221 C230 1.250 . S
O222 Mn217 2.121 . S
O222 C230 1.258 . S
C223 N224 1.326 . S
C223 C227 1.460 . S
C223 H229 0.929 . S
N224 Mn217 2.257 . S
N224 C223 1.326 . S
N224 C228 1.362 . S
C225 C226 1.258 . S
C225 C228 1.431 . S
C225 C245 1.449 . S
C226 C225 1.258 . S
C226 C227 1.477 . S
C226 H246 0.931 . S
C227 C223 1.460 . S
C227 C226 1.477 . S
C227 H247 0.930 . S
C228 N224 1.362 . S
C228 C225 1.431 . S
C228 C238 1.476 . S
H229 C223 0.929 . S
C230 O221 1.250 . S
C230 O222 1.258 . S
O231 Mn216 2.148 1_565 S
O231 C219 1.279 1_565 S
O232 Mn216 2.297 . S
O232 C219 1.236 . S
N233 Mn217 2.282 . S
N233 C234 1.328 . S
N233 C238 1.318 . S
C234 N233 1.328 . S
C234 C235 1.457 . S
C234 H239 0.929 . S
C235 C234 1.457 . S
C235 C236 1.291 . S
C235 H248 0.931 . S
C236 C235 1.291 . S
C236 C237 1.373 . S
C236 H249 0.929 . S
C237 C236 1.373 . S
C237 C238 1.396 . S
C237 C244 1.403 . S
C238 C228 1.476 . S
C238 N233 1.318 . S
C238 C237 1.396 . S
H239 C234 0.929 . S
O240 Mn216 2.385 . S
O240 C218 1.234 . S
O241 Mn216 2.209 . S
O241 Mn217 2.215 . S
O241 C218 1.283 . S
O242 Mn216 2.094 . S
O242 C220 1.240 . S
O243 Mn217 2.117 . S
O243 C220 1.264 . S
C244 C237 1.403 . S
C244 C245 1.399 . S
C244 H250 0.929 . S
C245 C225 1.449 . S
C245 C244 1.399 . S
C245 H251 0.930 . S
H246 C226 0.931 . S
H247 C227 0.930 . S
H248 C235 0.931 . S
H249 C236 0.929 . S
H250 C244 0.929 . S
H251 C245 0.930 . S
Mn252 O257 2.095 . S
Mn252 O267 2.162 . S
Mn252 O268 2.297 . S
Mn252 O276 2.385 . S
Mn252 O277 2.209 1_455 S
Mn252 O278 2.094 . S
Mn253 O258 2.121 . S
Mn253 N260 2.257 . S
Mn253 N269 2.282 . S
Mn253 O277 2.215 . S
Mn253 O279 2.117 . S
C254 O276 1.234 1_655 S
C254 O277 1.283 . S
C255 O267 1.281 . S
C255 O268 1.236 . S
C256 O278 1.240 . S
C256 O279 1.264 1_455 S
O257 Mn252 2.095 . S
O257 C266 1.250 . S
O258 Mn253 2.121 . S
O258 C266 1.258 1_655 S
C259 N260 1.326 . S
C259 C263 1.460 . S
C259 H265 0.929 . S
N260 Mn253 2.257 . S
N260 C259 1.326 . S
N260 C264 1.362 . S
C261 C262 1.258 . S
C261 C264 1.431 . S
C261 C281 1.449 . S
C262 C261 1.258 . S
C262 C263 1.477 . S
C262 H282 0.931 . S
C263 C259 1.460 . S
C263 C262 1.477 . S
C263 H283 0.930 . S
C264 N260 1.362 . S
C264 C261 1.431 . S
C264 C274 1.476 . S
H265 C259 0.929 . S
C266 O257 1.250 . S
C266 O258 1.258 1_455 S
O267 Mn252 2.162 . S
O267 C255 1.281 . S
O268 Mn252 2.297 . S
O268 C255 1.236 . S
N269 Mn253 2.282 . S
N269 C270 1.328 . S
N269 C274 1.318 . S
C270 N269 1.328 . S
C270 C271 1.457 . S
C270 H275 0.929 . S
C271 C270 1.457 . S
C271 C272 1.291 . S
C271 H284 0.931 . S
C272 C271 1.291 . S
C272 C273 1.373 . S
C272 H285 0.929 . S
C273 C272 1.373 . S
C273 C274 1.396 . S
C273 C280 1.403 . S
C274 C264 1.476 . S
C274 N269 1.318 . S
C274 C273 1.396 . S
H275 C270 0.929 . S
O276 Mn252 2.385 . S
O276 C254 1.234 1_455 S
O277 Mn252 2.209 1_655 S
O277 Mn253 2.215 . S
O277 C254 1.283 . S
O278 Mn252 2.094 . S
O278 C256 1.240 . S
O279 Mn253 2.117 . S
O279 C256 1.264 1_655 S
C280 C273 1.403 . S
C280 C281 1.399 . S
C280 H286 0.929 . S
C281 C261 1.449 . S
C281 C280 1.399 . S
C281 H287 0.930 . S
H282 C262 0.931 . S
H283 C263 0.930 . S
H284 C271 0.931 . S
H285 C272 0.929 . S
H286 C280 0.929 . S
H287 C281 0.930 . S
C288 C289 1.391 . S
C288 C290 1.394 . S
C288 H304 0.931 . S
C289 C288 1.391 . S
C289 C293 1.376 . S
C290 C288 1.394 . S
C290 C291 1.369 . S
C290 C294 1.531 1_545 S
C291 C290 1.369 . S
C291 C292 1.410 . S
C291 C299 1.503 1_554 S
C292 C291 1.410 . S
C292 C293 1.392 . S
C292 C295 1.511 . S
C293 C289 1.376 . S
C293 C292 1.392 . S
C293 H305 0.929 . S
C294 C290 1.531 1_565 S
C294 H306 0.959 1_554 S
C294 H307 0.962 . S
C294 H308 0.960 . S
C295 C292 1.511 . S
C295 H309 0.961 . S
C295 H310 0.961 1_554 S
C295 H311 0.961 . S
C296 C297 1.370 . S
C296 C298 1.363 . S
C296 H312 0.931 . S
C297 C296 1.370 . S
C297 C301 1.408 . S
C298 C296 1.363 . S
C298 C299 1.370 . S
C298 C302 1.524 . S
C299 C291 1.503 1_556 S
C299 C298 1.370 . S
C299 C300 1.403 . S
C300 C299 1.403 . S
C300 C301 1.404 . S
C300 C303 1.539 . S
C301 C297 1.408 . S
C301 C300 1.404 . S
C301 H313 0.930 . S
C302 C298 1.524 . S
C302 H314 0.956 . S
C302 H315 0.964 . S
C302 H316 0.961 . S
C303 C300 1.539 . S
C303 H317 0.958 1_545 S
C303 H318 0.961 . S
C303 H319 0.933 1_556 S
H304 C288 0.931 . S
H305 C293 0.929 . S
H306 C294 0.959 1_556 S
H307 C294 0.962 . S
H308 C294 0.960 . S
H309 C295 0.961 . S
H310 C295 0.961 1_556 S
H311 C295 0.961 . S
H312 C296 0.931 . S
H313 C301 0.930 . S
H314 C302 0.956 . S
H315 C302 0.964 . S
H316 C302 0.961 . S
H317 C303 0.958 1_565 S
H318 C303 0.961 . S
H319 C303 0.933 1_554 S
C320 C321 1.391 . S
C320 C322 1.394 . S
C320 H336 0.931 . S
C321 C320 1.391 . S
C321 C325 1.376 . S
C322 C320 1.394 . S
C322 C323 1.369 . S
C322 C326 1.531 . S
C323 C322 1.369 . S
C323 C324 1.410 . S
C323 C331 1.503 . S
C324 C323 1.410 . S
C324 C325 1.392 . S
C324 C327 1.511 . S
C325 C321 1.376 . S
C325 C324 1.392 . S
C325 H337 0.929 . S
C326 C322 1.531 . S
C326 H338 0.960 . S
C326 H339 0.962 . S
C326 H340 0.960 . S
C327 C324 1.511 . S
C327 H341 0.961 . S
C327 H342 0.961 . S
C327 H343 0.961 . S
C328 C329 1.370 . S
C328 C330 1.363 . S
C328 H344 0.951 . S
C329 C328 1.370 . S
C329 C333 1.408 . S
C330 C328 1.363 . S
C330 C331 1.370 . S
C330 C334 1.524 1_455 S
C331 C323 1.503 . S
C331 C330 1.370 . S
C331 C332 1.403 . S
C332 C331 1.403 . S
C332 C333 1.404 . S
C332 C335 1.539 . S
C333 C329 1.408 . S
C333 C332 1.404 . S
C333 H345 0.930 . S
C334 C330 1.524 1_655 S
C334 H346 0.956 . S
C334 H347 0.961 . S
C334 H348 0.961 . S
C335 C332 1.539 . S
C335 H349 0.958 . S
C335 H350 0.961 . S
C335 H351 0.960 . S
H336 C320 0.931 . S
H337 C325 0.929 . S
H338 C326 0.960 . S
H339 C326 0.962 . S
H340 C326 0.960 . S
H341 C327 0.961 . S
H342 C327 0.961 . S
H343 C327 0.961 . S
H344 C328 0.951 . S
H345 C333 0.930 . S
H346 C334 0.956 . S
H347 C334 0.961 . S
H348 C334 0.961 . S
H349 C335 0.958 . S
H350 C335 0.961 . S
H351 C335 0.960 . S
C352 C353 1.391 . S
C352 C354 1.394 . S
C352 H368 0.931 . S
C353 C352 1.391 . S
C353 C357 1.376 . S
C354 C352 1.394 . S
C354 C355 1.369 . S
C354 C358 1.531 . S
C355 C354 1.369 . S
C355 C356 1.410 . S
C355 C363 1.503 1_556 S
C356 C355 1.410 . S
C356 C357 1.392 . S
C356 C359 1.511 . S
C357 C353 1.376 . S
C357 C356 1.392 . S
C357 H369 0.929 . S
C358 C354 1.531 . S
C358 H370 0.960 1_556 S
C358 H371 0.962 . S
C358 H372 0.960 . S
C359 C356 1.511 . S
C359 H373 0.961 . S
C359 H374 0.961 1_556 S
C359 H375 0.961 . S
C360 C361 1.370 . S
C360 C362 1.363 . S
C360 H376 0.931 . S
C361 C360 1.370 . S
C361 C365 1.408 . S
C362 C360 1.363 . S
C362 C363 1.370 . S
C362 C366 1.524 . S
C363 C355 1.503 1_554 S
C363 C362 1.370 . S
C363 C364 1.403 . S
C364 C363 1.403 . S
C364 C365 1.404 . S
C364 C367 1.539 1_545 S
C365 C361 1.408 . S
C365 C364 1.404 . S
C365 H377 0.930 1_545 S
C366 C362 1.524 . S
C366 H378 0.956 . S
C366 H379 0.973 . S
C366 H380 0.961 . S
C367 C364 1.539 1_565 S
C367 H381 0.958 . S
C367 H382 0.961 . S
C367 H383 0.960 1_554 S
H368 C352 0.931 . S
H369 C357 0.929 . S
H370 C358 0.960 1_554 S
H371 C358 0.962 . S
H372 C358 0.960 . S
H373 C359 0.961 . S
H374 C359 0.961 1_554 S
H375 C359 0.961 . S
H376 C360 0.931 . S
H377 C365 0.930 1_565 S
H378 C366 0.956 . S
H379 C366 0.973 . S
H380 C366 0.961 . S
H381 C367 0.958 . S
H382 C367 0.961 . S
H383 C367 0.960 1_556 S
C384 C385 1.391 . S
C384 C386 1.394 . S
C384 H400 0.931 . S
C385 C384 1.391 . S
C385 C389 1.376 . S
C386 C384 1.394 . S
C386 C387 1.369 . S
C386 C390 1.531 . S
C387 C386 1.369 . S
C387 C388 1.410 . S
C387 C395 1.503 . S
C388 C387 1.410 . S
C388 C389 1.392 . S
C388 C391 1.511 . S
C389 C385 1.376 . S
C389 C388 1.392 . S
C389 H401 0.929 . S
C390 C386 1.531 . S
C390 H402 0.960 . S
C390 H403 0.962 . S
C390 H404 0.960 . S
C391 C388 1.511 . S
C391 H405 0.961 . S
C391 H406 0.961 . S
C391 H407 0.961 . S
C392 C393 1.370 . S
C392 C394 1.363 . S
C392 H408 0.921 1_455 S
C393 C392 1.370 . S
C393 C397 1.408 . S
C394 C392 1.363 . S
C394 C395 1.370 . S
C394 C398 1.524 1_455 S
C395 C387 1.503 . S
C395 C394 1.370 . S
C395 C396 1.403 . S
C396 C395 1.403 . S
C396 C397 1.404 . S
C396 C399 1.539 . S
C397 C393 1.408 . S
C397 C396 1.404 . S
C397 H409 0.930 . S
C398 C394 1.524 1_655 S
C398 H410 0.956 . S
C398 H411 0.961 . S
C398 H412 0.961 . S
C399 C396 1.539 . S
C399 H413 0.958 . S
C399 H414 0.961 . S
C399 H415 0.960 . S
H400 C384 0.931 . S
H401 C389 0.929 . S
H402 C390 0.960 . S
H403 C390 0.962 . S
H404 C390 0.960 . S
H405 C391 0.961 . S
H406 C391 0.961 . S
H407 C391 0.961 . S
H408 C392 0.921 1_655 S
H409 C397 0.930 . S
H410 C398 0.956 . S
H411 C398 0.961 . S
H412 C398 0.961 . S
H413 C399 0.958 . S
H414 C399 0.961 . S
H415 C399 0.960 . S
C416 C417 1.391 . S
C416 C418 1.394 . S
C416 H432 0.931 . S
C417 C416 1.391 . S
C417 C421 1.376 . S
C418 C416 1.394 . S
C418 C419 1.369 . S
C418 C422 1.531 . S
C419 C418 1.369 . S
C419 C420 1.410 . S
C419 C427 1.503 . S
C420 C419 1.410 . S
C420 C421 1.392 . S
C420 C423 1.511 . S
C421 C417 1.376 . S
C421 C420 1.392 . S
C421 H433 0.929 . S
C422 C418 1.531 . S
C422 H434 0.960 . S
C422 H435 0.962 . S
C422 H436 0.960 . S
C423 C420 1.511 . S
C423 H437 0.961 . S
C423 H438 0.961 . S
C423 H439 0.961 . S
C424 C425 1.370 . S
C424 C426 1.363 . S
C424 H440 0.931 . S
C425 C424 1.370 . S
C425 C429 1.408 1_545 S
C426 C424 1.363 . S
C426 C427 1.370 . S
C426 C430 1.524 . S
C427 C419 1.503 . S
C427 C426 1.370 . S
C427 C428 1.418 . S
C428 C427 1.418 . S
C428 C429 1.401 1_545 S
C428 C431 1.526 1_545 S
C429 C425 1.408 1_565 S
C429 C428 1.401 1_565 S
C429 H441 0.930 . S
C430 C426 1.524 . S
C430 H442 0.956 . S
C430 H443 0.961 . S
C430 H444 0.961 . S
C431 C428 1.526 1_565 S
C431 H445 0.958 . S
C431 H446 0.961 . S
C431 H447 0.960 . S
H432 C416 0.931 . S
H433 C421 0.929 . S
H434 C422 0.960 . S
H435 C422 0.962 . S
H436 C422 0.960 . S
H437 C423 0.961 . S
H438 C423 0.961 . S
H439 C423 0.961 . S
H440 C424 0.931 . S
H441 C429 0.930 . S
H442 C430 0.956 . S
H443 C430 0.961 . S
H444 C430 0.961 . S
H445 C431 0.958 . S
H446 C431 0.961 . S
H447 C431 0.960 . S
C448 C449 1.391 . S
C448 C450 1.394 . S
C448 H464 0.931 1_455 S
C449 C448 1.391 . S
C449 C453 1.376 . S
C450 C448 1.394 . S
C450 C451 1.369 . S
C450 C454 1.531 . S
C451 C450 1.369 . S
C451 C452 1.410 . S
C451 C459 1.503 . S
C452 C451 1.410 . S
C452 C453 1.392 . S
C452 C455 1.511 . S
C453 C449 1.376 . S
C453 C452 1.392 . S
C453 H465 0.929 . S
C454 C450 1.531 . S
C454 H466 0.960 . S
C454 H467 0.962 1_455 S
C454 H468 0.960 . S
C455 C452 1.511 . S
C455 H469 0.961 . S
C455 H470 0.961 . S
C455 H471 0.961 . S
C456 C457 1.370 . S
C456 C458 1.363 . S
C456 H472 0.931 . S
C457 C456 1.370 . S
C457 C461 1.408 . S
C458 C456 1.363 . S
C458 C459 1.370 . S
C458 C462 1.524 . S
C459 C451 1.503 . S
C459 C458 1.370 . S
C459 C460 1.403 . S
C460 C459 1.403 . S
C460 C461 1.404 . S
C460 C463 1.539 . S
C461 C457 1.408 . S
C461 C460 1.404 . S
C461 H473 0.930 . S
C462 C458 1.524 . S
C462 H474 0.956 1_455 S
C462 H475 0.961 . S
C462 H476 0.961 1_455 S
C463 C460 1.539 . S
C463 H477 0.958 . S
C463 H478 0.961 . S
C463 H479 0.960 . S
H464 C448 0.931 1_655 S
H465 C453 0.929 . S
H466 C454 0.960 . S
H467 C454 0.962 1_655 S
H468 C454 0.960 . S
H469 C455 0.961 . S
H470 C455 0.961 . S
H471 C455 0.961 . S
H472 C456 0.931 . S
H473 C461 0.930 . S
H474 C462 0.956 1_655 S
H475 C462 0.961 . S
H476 C462 0.961 1_655 S
H477 C463 0.958 . S
H478 C463 0.961 . S
H479 C463 0.960 . S
C480 C481 1.391 . S
C480 C482 1.394 . S
C480 H496 0.931 . S
C481 C480 1.391 . S
C481 C485 1.376 . S
C482 C480 1.394 . S
C482 C483 1.369 . S
C482 C486 1.526 1_545 S
C483 C482 1.369 . S
C483 C484 1.410 . S
C483 C491 1.503 . S
C484 C483 1.410 . S
C484 C485 1.392 . S
C484 C487 1.511 . S
C485 C481 1.376 . S
C485 C484 1.392 . S
C485 H497 0.929 . S
C486 C482 1.526 1_565 S
C486 H498 0.964 . S
C486 H499 0.959 1_565 S
C486 H500 0.965 . S
C487 C484 1.511 . S
C487 H501 0.961 . S
C487 H502 0.961 . S
C487 H503 0.961 . S
C488 C489 1.370 . S
C488 C490 1.363 . S
C488 H504 0.931 . S
C489 C488 1.370 . S
C489 C493 1.408 . S
C490 C488 1.363 . S
C490 C491 1.370 . S
C490 C494 1.524 . S
C491 C483 1.503 . S
C491 C490 1.370 . S
C491 C492 1.403 . S
C492 C491 1.403 . S
C492 C493 1.404 . S
C492 C495 1.539 1_545 S
C493 C489 1.408 . S
C493 C492 1.404 . S
C493 H505 0.930 1_545 S
C494 C490 1.524 . S
C494 H506 0.956 . S
C494 H507 0.961 . S
C494 H508 0.961 . S
C495 C492 1.539 1_565 S
C495 H509 0.958 . S
C495 H510 0.961 . S
C495 H511 0.960 1_565 S
H496 C480 0.931 . S
H497 C485 0.929 . S
H498 C486 0.964 . S
H499 C486 0.959 1_545 S
H500 C486 0.965 . S
H501 C487 0.961 . S
H502 C487 0.961 . S
H503 C487 0.961 . S
H504 C488 0.931 . S
H505 C493 0.930 1_565 S
H506 C494 0.956 . S
H507 C494 0.961 . S
H508 C494 0.961 . S
H509 C495 0.958 . S
H510 C495 0.961 . S
H511 C495 0.960 1_545 S
C512 C513 1.391 . S
C512 C514 1.394 . S
C512 H528 0.931 . S
C513 C512 1.391 . S
C513 C517 1.376 . S
C514 C512 1.394 . S
C514 C515 1.369 . S
C514 C518 1.531 . S
C515 C514 1.369 . S
C515 C516 1.410 . S
C515 C523 1.503 . S
C516 C515 1.410 . S
C516 C517 1.392 . S
C516 C519 1.511 . S
C517 C513 1.376 . S
C517 C516 1.392 . S
C517 H529 0.929 . S
C518 C514 1.531 . S
C518 H530 0.960 . S
C518 H531 0.962 1_455 S
C518 H532 0.960 . S
C519 C516 1.511 . S
C519 H533 0.961 . S
C519 H534 0.961 . S
C519 H535 0.961 . S
C520 C521 1.370 . S
C520 C522 1.363 . S
C520 H536 0.931 1_455 S
C521 C520 1.370 . S
C521 C525 1.408 . S
C522 C520 1.363 . S
C522 C523 1.370 . S
C522 C526 1.524 1_455 S
C523 C515 1.503 . S
C523 C522 1.370 . S
C523 C524 1.403 . S
C524 C523 1.403 . S
C524 C525 1.404 . S
C524 C527 1.539 . S
C525 C521 1.408 . S
C525 C524 1.404 . S
C525 H537 0.930 . S
C526 C522 1.524 1_655 S
C526 H538 0.956 . S
C526 H539 0.961 1_655 S
C526 H540 0.961 . S
C527 C524 1.539 . S
C527 H541 0.958 . S
C527 H542 0.961 . S
C527 H543 0.960 . S
H528 C512 0.931 . S
H529 C517 0.929 . S
H530 C518 0.960 . S
H531 C518 0.962 1_655 S
H532 C518 0.960 . S
H533 C519 0.961 . S
H534 C519 0.961 . S
H535 C519 0.961 . S
H536 C520 0.931 1_655 S
H537 C525 0.930 . S
H538 C526 0.956 . S
H539 C526 0.961 1_455 S
H540 C526 0.961 . S
H541 C527 0.958 . S
H542 C527 0.961 . S
H543 C527 0.960 . S
C544 C545 1.391 . S
C544 C546 1.394 . S
C544 H560 0.931 . S
C545 C544 1.391 . S
C545 C549 1.376 . S
C546 C544 1.394 . S
C546 C547 1.369 . S
C546 C550 1.531 . S
C547 C546 1.369 . S
C547 C548 1.410 . S
C547 C555 1.503 . S
C548 C547 1.410 . S
C548 C549 1.392 . S
C548 C551 1.511 . S
C549 C545 1.376 . S
C549 C548 1.392 . S
C549 H561 0.929 . S
C550 C546 1.531 . S
C550 H562 0.960 . S
C550 H563 0.962 . S
C550 H564 0.960 . S
C551 C548 1.511 . S
C551 H565 0.961 . S
C551 H566 0.961 . S
C551 H567 0.961 . S
C552 C553 1.370 . S
C552 C554 1.363 . S
C552 H568 0.931 . S
C553 C552 1.370 . S
C553 C557 1.408 . S
C554 C552 1.363 . S
C554 C555 1.370 . S
C554 C558 1.524 . S
C555 C547 1.503 . S
C555 C554 1.370 . S
C555 C556 1.403 . S
C556 C555 1.403 . S
C556 C557 1.404 . S
C556 C559 1.539 . S
C557 C553 1.408 . S
C557 C556 1.404 . S
C557 H569 0.930 . S
C558 C554 1.524 . S
C558 H570 0.956 . S
C558 H571 0.961 . S
C558 H572 0.961 . S
C559 C556 1.539 . S
C559 H573 0.958 . S
C559 H574 0.961 . S
C559 H575 0.960 . S
H560 C544 0.931 . S
H561 C549 0.929 . S
H562 C550 0.960 . S
H563 C550 0.962 . S
H564 C550 0.960 . S
H565 C551 0.961 . S
H566 C551 0.961 . S
H567 C551 0.961 . S
H568 C552 0.931 . S
H569 C557 0.930 . S
H570 C558 0.956 . S
H571 C558 0.961 . S
H572 C558 0.961 . S
H573 C559 0.958 . S
H574 C559 0.961 . S
H575 C559 0.960 . S
C576 C577 1.391 . S
C576 C578 1.394 . S
C576 H592 0.931 . S
C577 C576 1.391 . S
C577 C581 1.376 . S
C578 C576 1.394 . S
C578 C579 1.369 . S
C578 C582 1.531 . S
C579 C578 1.369 . S
C579 C580 1.410 . S
C579 C587 1.503 . S
C580 C579 1.410 . S
C580 C581 1.392 . S
C580 C583 1.511 . S
C581 C577 1.376 . S
C581 C580 1.392 . S
C581 H593 0.929 . S
C582 C578 1.531 . S
C582 H594 0.960 . S
C582 H595 0.962 . S
C582 H596 0.960 . S
C583 C580 1.511 . S
C583 H597 0.961 . S
C583 H598 0.961 . S
C583 H599 0.961 . S
C584 C585 1.370 . S
C584 C586 1.363 . S
C584 H600 0.931 . S
C585 C584 1.370 . S
C585 C589 1.408 . S
C586 C584 1.363 . S
C586 C587 1.370 . S
C586 C590 1.524 . S
C587 C579 1.503 . S
C587 C586 1.370 . S
C587 C588 1.403 . S
C588 C587 1.403 . S
C588 C589 1.404 . S
C588 C591 1.539 . S
C589 C585 1.408 . S
C589 C588 1.404 . S
C589 H601 0.930 . S
C590 C586 1.524 . S
C590 H602 0.956 . S
C590 H603 0.961 . S
C590 H604 0.961 . S
C591 C588 1.539 . S
C591 H605 0.958 . S
C591 H606 0.961 . S
C591 H607 0.960 . S
H592 C576 0.931 . S
H593 C581 0.929 . S
H594 C582 0.960 . S
H595 C582 0.962 . S
H596 C582 0.960 . S
H597 C583 0.961 . S
H598 C583 0.961 . S
H599 C583 0.961 . S
H600 C584 0.931 . S
H601 C589 0.930 . S
H602 C590 0.956 . S
H603 C590 0.961 . S
H604 C590 0.961 . S
H605 C591 0.958 . S
H606 C591 0.961 . S
H607 C591 0.960 . S
C608 C609 1.391 . S
C608 C610 1.394 . S
C608 H624 0.931 . S
C609 C608 1.391 . S
C609 C613 1.376 . S
C610 C608 1.394 . S
C610 C611 1.369 . S
C610 C614 1.531 . S
C611 C610 1.369 . S
C611 C612 1.410 . S
C611 C619 1.503 . S
C612 C611 1.410 . S
C612 C613 1.392 . S
C612 C615 1.511 . S
C613 C609 1.376 . S
C613 C612 1.392 . S
C613 H625 0.929 . S
C614 C610 1.531 . S
C614 H626 0.960 . S
C614 H627 0.962 . S
C614 H628 0.960 . S
C615 C612 1.511 . S
C615 H629 0.961 . S
C615 H630 0.961 . S
C615 H631 0.961 . S
C616 C617 1.370 . S
C616 C618 1.363 . S
C616 H632 0.931 . S
C617 C616 1.370 . S
C617 C621 1.408 . S
C618 C616 1.363 . S
C618 C619 1.370 . S
C618 C622 1.524 . S
C619 C611 1.503 . S
C619 C618 1.370 . S
C619 C620 1.403 . S
C620 C619 1.403 . S
C620 C621 1.404 . S
C620 C623 1.539 . S
C621 C617 1.408 . S
C621 C620 1.404 . S
C621 H633 0.930 . S
C622 C618 1.524 . S
C622 H634 0.956 . S
C622 H635 0.961 . S
C622 H636 0.961 . S
C623 C620 1.539 . S
C623 H637 0.958 . S
C623 H638 0.961 . S
C623 H639 0.960 . S
H624 C608 0.931 . S
H625 C613 0.929 . S
H626 C614 0.960 . S
H627 C614 0.962 . S
H628 C614 0.960 . S
H629 C615 0.961 . S
H630 C615 0.961 . S
H631 C615 0.961 . S
H632 C616 0.931 . S
H633 C621 0.930 . S
H634 C622 0.956 . S
H635 C622 0.961 . S
H636 C622 0.961 . S
H637 C623 0.958 . S
H638 C623 0.961 . S
H639 C623 0.960 . S
C640 C641 1.391 . S
C640 C642 1.394 . S
C640 H656 0.931 . S
C641 C640 1.391 . S
C641 C645 1.376 . S
C642 C640 1.394 . S
C642 C643 1.369 . S
C642 C646 1.531 . S
C643 C642 1.369 . S
C643 C644 1.410 . S
C643 C651 1.503 . S
C644 C643 1.410 . S
C644 C645 1.392 . S
C644 C647 1.511 . S
C645 C641 1.376 . S
C645 C644 1.392 . S
C645 H657 0.929 . S
C646 C642 1.531 . S
C646 H658 0.960 . S
C646 H659 0.962 . S
C646 H660 0.960 . S
C647 C644 1.511 . S
C647 H661 0.961 . S
C647 H662 0.961 . S
C647 H663 0.961 . S
C648 C649 1.370 . S
C648 C650 1.363 . S
C648 H664 0.931 . S
C649 C648 1.370 . S
C649 C653 1.408 . S
C650 C648 1.363 . S
C650 C651 1.370 . S
C650 C654 1.524 . S
C651 C643 1.503 . S
C651 C650 1.370 . S
C651 C652 1.403 . S
C652 C651 1.403 . S
C652 C653 1.404 . S
C652 C655 1.539 . S
C653 C649 1.408 . S
C653 C652 1.404 . S
C653 H665 0.930 . S
C654 C650 1.524 . S
C654 H666 0.956 . S
C654 H667 0.961 . S
C654 H668 0.961 . S
C655 C652 1.539 . S
C655 H669 0.958 . S
C655 H670 0.961 . S
C655 H671 0.960 . S
H656 C640 0.931 . S
H657 C645 0.929 . S
H658 C646 0.960 . S
H659 C646 0.962 . S
H660 C646 0.960 . S
H661 C647 0.961 . S
H662 C647 0.961 . S
H663 C647 0.961 . S
H664 C648 0.931 . S
H665 C653 0.930 . S
H666 C654 0.956 . S
H667 C654 0.961 . S
H668 C654 0.961 . S
H669 C655 0.958 . S
H670 C655 0.961 . S
H671 C655 0.960 . S
C672 C673 1.391 . S
C672 C674 1.394 . S
C672 H688 0.931 . S
C673 C672 1.391 . S
C673 C677 1.376 . S
C674 C672 1.394 . S
C674 C675 1.369 . S
C674 C678 1.531 . S
C675 C674 1.369 . S
C675 C676 1.410 . S
C675 C683 1.503 . S
C676 C675 1.410 . S
C676 C677 1.392 . S
C676 C679 1.511 . S
C677 C673 1.376 . S
C677 C676 1.392 . S
C677 H689 0.929 . S
C678 C674 1.531 . S
C678 H690 0.960 . S
C678 H691 0.962 . S
C678 H692 0.960 . S
C679 C676 1.511 . S
C679 H693 0.961 . S
C679 H694 0.961 . S
C679 H695 0.961 . S
C680 C681 1.370 . S
C680 C682 1.363 . S
C680 H696 0.931 . S
C681 C680 1.370 . S
C681 C685 1.408 . S
C682 C680 1.363 . S
C682 C683 1.370 . S
C682 C686 1.524 . S
C683 C675 1.503 . S
C683 C682 1.370 . S
C683 C684 1.403 . S
C684 C683 1.403 . S
C684 C685 1.404 . S
C684 C687 1.539 . S
C685 C681 1.408 . S
C685 C684 1.404 . S
C685 H697 0.930 1_655 S
C686 C682 1.524 . S
C686 H698 0.956 . S
C686 H699 0.961 . S
C686 H700 0.961 . S
C687 C684 1.539 . S
C687 H701 0.958 . S
C687 H702 0.961 1_655 S
C687 H703 0.960 . S
H688 C672 0.931 . S
H689 C677 0.929 . S
H690 C678 0.960 . S
H691 C678 0.962 . S
H692 C678 0.960 . S
H693 C679 0.961 . S
H694 C679 0.961 . S
H695 C679 0.961 . S
H696 C680 0.931 . S
H697 C685 0.930 1_455 S
H698 C686 0.956 . S
H699 C686 0.961 . S
H700 C686 0.961 . S
H701 C687 0.958 . S
H702 C687 0.961 1_455 S
H703 C687 0.960 . S
C704 C705 1.391 . S
C704 C706 1.394 . S
C704 H720 0.931 . S
C705 C704 1.391 . S
C705 C709 1.376 . S
C706 C704 1.394 . S
C706 C707 1.369 . S
C706 C710 1.531 . S
C707 C706 1.369 . S
C707 C708 1.410 . S
C707 C715 1.503 . S
C708 C707 1.410 . S
C708 C709 1.392 . S
C708 C711 1.511 . S
C709 C705 1.376 . S
C709 C708 1.392 . S
C709 H721 0.929 . S
C710 C706 1.531 . S
C710 H722 0.960 . S
C710 H723 0.962 . S
C710 H724 0.960 . S
C711 C708 1.511 . S
C711 H725 0.961 . S
C711 H726 0.961 . S
C711 H727 0.961 . S
C712 C713 1.370 . S
C712 C714 1.363 . S
C712 H728 0.931 . S
C713 C712 1.370 . S
C713 C717 1.408 . S
C714 C712 1.363 . S
C714 C715 1.370 . S
C714 C718 1.524 . S
C715 C707 1.503 . S
C715 C714 1.370 . S
C715 C716 1.403 . S
C716 C715 1.403 . S
C716 C717 1.404 . S
C716 C719 1.539 . S
C717 C713 1.408 . S
C717 C716 1.404 . S
C717 H729 0.930 . S
C718 C714 1.524 . S
C718 H730 0.956 . S
C718 H731 0.961 . S
C718 H732 0.961 . S
C719 C716 1.539 . S
C719 H733 0.958 . S
C719 H734 0.961 . S
C719 H735 0.960 . S
H720 C704 0.931 . S
H721 C709 0.929 . S
H722 C710 0.960 . S
H723 C710 0.962 . S
H724 C710 0.960 . S
H725 C711 0.961 . S
H726 C711 0.961 . S
H727 C711 0.961 . S
H728 C712 0.931 . S
H729 C717 0.930 . S
H730 C718 0.956 . S
H731 C718 0.961 . S
H732 C718 0.961 . S
H733 C719 0.958 . S
H734 C719 0.961 . S
H735 C719 0.960 . S
C736 C737 1.391 . S
C736 C738 1.394 . S
C736 H752 0.931 . S
C737 C736 1.391 . S
C737 C741 1.376 . S
C738 C736 1.394 . S
C738 C739 1.369 . S
C738 C742 1.531 . S
C739 C738 1.369 . S
C739 C740 1.410 . S
C739 C747 1.503 . S
C740 C739 1.410 . S
C740 C741 1.392 . S
C740 C743 1.511 . S
C741 C737 1.376 . S
C741 C740 1.392 . S
C741 H753 0.929 . S
C742 C738 1.531 . S
C742 H754 0.960 . S
C742 H755 0.962 . S
C742 H756 0.960 . S
C743 C740 1.511 . S
C743 H757 0.961 . S
C743 H758 0.961 . S
C743 H759 0.961 . S
C744 C745 1.370 . S
C744 C746 1.363 . S
C744 H760 0.931 . S
C745 C744 1.370 . S
C745 C749 1.408 . S
C746 C744 1.363 . S
C746 C747 1.370 . S
C746 C750 1.524 . S
C747 C739 1.503 . S
C747 C746 1.370 . S
C747 C748 1.403 . S
C748 C747 1.403 . S
C748 C749 1.404 . S
C748 C751 1.539 . S
C749 C745 1.408 . S
C749 C748 1.404 . S
C749 H761 0.930 . S
C750 C746 1.524 . S
C750 H762 0.956 . S
C750 H763 0.961 . S
C750 H764 0.961 . S
C751 C748 1.539 . S
C751 H765 0.958 . S
C751 H766 0.961 . S
C751 H767 0.960 . S
H752 C736 0.931 . S
H753 C741 0.929 . S
H754 C742 0.960 . S
H755 C742 0.962 . S
H756 C742 0.960 . S
H757 C743 0.961 . S
H758 C743 0.961 . S
H759 C743 0.961 . S
H760 C744 0.931 . S
H761 C749 0.930 . S
H762 C750 0.956 . S
H763 C750 0.961 . S
H764 C750 0.961 . S
H765 C751 0.958 . S
H766 C751 0.961 . S
H767 C751 0.960 . S
C768 C769 1.391 . S
C768 C770 1.394 . S
C768 H784 0.931 . S
C769 C768 1.391 . S
C769 C773 1.376 . S
C770 C768 1.394 . S
C770 C771 1.369 . S
C770 C774 1.531 . S
C771 C770 1.369 . S
C771 C772 1.410 . S
C771 C779 1.503 . S
C772 C771 1.410 . S
C772 C773 1.392 . S
C772 C775 1.511 . S
C773 C769 1.376 . S
C773 C772 1.392 . S
C773 H785 0.929 1_655 S
C774 C770 1.531 . S
C774 H786 0.960 . S
C774 H787 0.962 . S
C774 H788 0.960 . S
C775 C772 1.511 . S
C775 H789 0.961 . S
C775 H790 0.961 . S
C775 H791 0.961 . S
C776 C777 1.370 . S
C776 C778 1.363 . S
C776 H792 0.931 . S
C777 C776 1.370 . S
C777 C781 1.408 . S
C778 C776 1.363 . S
C778 C779 1.370 . S
C778 C782 1.524 . S
C779 C771 1.503 . S
C779 C778 1.370 . S
C779 C780 1.403 . S
C780 C779 1.403 . S
C780 C781 1.404 . S
C780 C783 1.539 . S
C781 C777 1.408 . S
C781 C780 1.404 . S
C781 H793 0.930 . S
C782 C778 1.524 . S
C782 H794 0.956 . S
C782 H795 0.961 . S
C782 H796 0.961 . S
C783 C780 1.539 . S
C783 H797 0.958 . S
C783 H798 0.961 . S
C783 H799 0.960 . S
H784 C768 0.931 . S
H785 C773 0.929 1_455 S
H786 C774 0.960 . S
H787 C774 0.962 . S
H788 C774 0.960 . S
H789 C775 0.961 . S
H790 C775 0.961 . S
H791 C775 0.961 . S
H792 C776 0.931 . S
H793 C781 0.930 . S
H794 C782 0.956 . S
H795 C782 0.961 . S
H796 C782 0.961 . S
H797 C783 0.958 . S
H798 C783 0.961 . S
H799 C783 0.960 . S
C289 C14 1.528 . S
C297 C158 1.505 . S
C321 C50 1.520 . S
C329 C194 1.492 . S
C353 C230 1.524 . S
C361 C86 1.493 . S
C385 C266 1.523 . S
C393 C122 1.493 . S
C417 C4 1.252 . S
C425 C76 1.270 . S
C449 C40 1.263 . S
C457 C112 1.273 . S
C481 C220 1.244 . S
C489 C148 1.264 . S
C513 C184 1.261 . S
C521 C256 1.259 . S
C545 C182 1.266 . S
C553 C2 1.269 . S
C577 C38 1.284 . S
C585 C218 1.276 . S
C609 C254 1.281 . S
C617 C74 1.275 . S
C641 C110 1.251 . S
C649 C146 1.261 . S
C673 C219 1.326 1_565 S
C681 C111 1.330 1_655 S
C705 C3 1.326 1_565 S
C713 C255 1.330 . S
C737 C39 1.327 . S
C745 C147 1.330 . S
C769 C183 1.325 1_655 S
C777 C75 1.330 . S
