# Generated by pormake.
# Topology yfx, (5)-cn, num edge types: 1
# Building blocks:
#     Node 0, Type 0, BuildingBlock: XOMCOT_clean_sbu_0, # of connection points: 5
#     Node 1, Type 0, BuildingBlock: XOMCOT_clean_sbu_0, # of connection points: 5
#     Node 2, Type 0, BuildingBlock: XOMCOT_clean_sbu_0, # of connection points: 5
#     Node 3, Type 0, BuildingBlock: XOMCOT_clean_sbu_0, # of connection points: 5
#     Node 4, Type 0, BuildingBlock: XOMCOT_clean_sbu_0, # of connection points: 5
#     Node 5, Type 0, BuildingBlock: XOMCOT_clean_sbu_0, # of connection points: 5
#     Node 6, Type 0, BuildingBlock: XOMCOT_clean_sbu_0, # of connection points: 5
#     Node 7, Type 0, BuildingBlock: XOMCOT_clean_sbu_0, # of connection points: 5
#     Edge 8, Type (0, 0), BuildingBlock: UVAHIK_clean_linker_0, # of connection points: 2
#     Edge 9, Type (0, 0), BuildingBlock: UVAHIK_clean_linker_0, # of connection points: 2
#     Edge 10, Type (0, 0), BuildingBlock: UVAHIK_clean_linker_0, # of connection points: 2
#     Edge 11, Type (0, 0), BuildingBlock: UVAHIK_clean_linker_0, # of connection points: 2
#     Edge 12, Type (0, 0), BuildingBlock: UVAHIK_clean_linker_0, # of connection points: 2
#     Edge 13, Type (0, 0), BuildingBlock: UVAHIK_clean_linker_0, # of connection points: 2
#     Edge 14, Type (0, 0), BuildingBlock: UVAHIK_clean_linker_0, # of connection points: 2
#     Edge 15, Type (0, 0), BuildingBlock: UVAHIK_clean_linker_0, # of connection points: 2
#     Edge 16, Type (0, 0), BuildingBlock: UVAHIK_clean_linker_0, # of connection points: 2
#     Edge 17, Type (0, 0), BuildingBlock: UVAHIK_clean_linker_0, # of connection points: 2
#     Edge 18, Type (0, 0), BuildingBlock: UVAHIK_clean_linker_0, # of connection points: 2
#     Edge 19, Type (0, 0), BuildingBlock: UVAHIK_clean_linker_0, # of connection points: 2
#     Edge 20, Type (0, 0), BuildingBlock: UVAHIK_clean_linker_0, # of connection points: 2
#     Edge 21, Type (0, 0), BuildingBlock: UVAHIK_clean_linker_0, # of connection points: 2
#     Edge 22, Type (0, 0), BuildingBlock: UVAHIK_clean_linker_0, # of connection points: 2
#     Edge 23, Type (0, 0), BuildingBlock: UVAHIK_clean_linker_0, # of connection points: 2
#     Edge 24, Type (0, 0), BuildingBlock: UVAHIK_clean_linker_0, # of connection points: 2
#     Edge 25, Type (0, 0), BuildingBlock: UVAHIK_clean_linker_0, # of connection points: 2
#     Edge 26, Type (0, 0), BuildingBlock: UVAHIK_clean_linker_0, # of connection points: 2
#     Edge 27, Type (0, 0), BuildingBlock: UVAHIK_clean_linker_0, # of connection points: 2
# Relax obj value: 0.109
# Max RMSD: 0.108
# Mean RMSD: 0.108
data_MOF--net-yfx--node1-XOMCOT_clean_sbu_0--edge1-UVAHIK_clean_linker_0
_symmetry_space_group_name_H-M    P1
_symmetry_Int_Tables_number       1
_symmetry_cell_setting            triclinic
loop_
_symmetry_equiv_pos_as_xyz
'x, y, z'
_cell_length_a     44.255477
_cell_length_b     44.264661
_cell_length_c     37.155102
_cell_angle_alpha  89.9815
_cell_angle_beta   90.048984
_cell_angle_gamma 90.03131
loop_
_atom_site_label
_atom_site_type_symbol
_atom_site_fract_x
_atom_site_fract_y
_atom_site_fract_z
_atom_type_partial_charge
Co0 Co 0.20512 0.3586 0.03348 0.0
C1 C 0.2688 0.33421 0.02884 0.0
C2 C 0.26247 0.36617 0.07153 0.0
C3 C 0.2917 0.35589 0.07297 0.0
N4 N 0.24782 0.35238 0.04416 0.0
N5 N 0.29557 0.33596 0.04608 0.0
H6 H 0.26509 0.31989 1.00583 0.0
H7 H 0.25259 0.38273 0.08937 0.0
C8 C 0.23762 0.41258 1.00414 0.0
O9 O 0.25872 0.39469 0.9914 0.0
N10 N 0.16284 0.36574 0.02409 0.0
C11 C 0.14245 0.34658 1.00993 0.0
C12 C 0.11501 0.36128 1.00762 0.0
C13 C 0.14769 0.39165 0.03036 0.0
N14 N 0.11834 0.38969 0.02043 0.0
C15 C 0.21233 0.31232 0.98055 0.0
C16 C 0.21733 0.34907 0.92083 0.0
C17 C 0.22357 0.31807 0.91713 0.0
C18 C 0.21932 0.29954 0.94732 0.0
C19 C 0.20962 0.36086 0.95464 0.0
N20 N 0.20983 0.34288 0.98456 0.0
H21 H 0.21079 0.29751 1.00351 0.0
H22 H 0.20415 0.38452 0.95657 0.0
H23 H 0.14722 0.32365 1.00166 0.0
H24 H 0.158 0.4114 0.04232 0.0
O25 O 0.19575 0.32117 0.0581 0.0
O26 O 0.19836 0.36592 0.08424 0.0
O27 O 0.21416 0.4016 0.0193 0.0
C28 C 0.19508 0.33685 0.08763 0.0
H29 H 0.30898 0.36283 0.0919 0.0
H30 H 0.09438 0.35187 0.9967 0.0
H31 H 0.21925 0.36436 0.89822 0.0
H32 H 0.22208 0.27528 0.94569 0.0
Co33 Co 0.65301 0.2082 0.02663 0.0
C34 C 0.68089 0.27025 0.024 0.0
C35 C 0.6402 0.26813 0.05519 0.0
C36 C 0.65119 0.29711 0.05674 0.0
N37 N 0.65858 0.25127 0.03438 0.0
N38 N 0.67676 0.29842 0.03711 0.0
H39 H 0.70026 0.2638 1.00826 0.0
H40 H 0.62008 0.25981 0.06841 0.0
C41 C 0.5986 0.2382 0.99428 0.0
O42 O 0.61623 0.25877 0.9798 0.0
N43 N 0.64653 0.16546 0.02009 0.0
C44 C 0.66624 0.14478 1.0078 0.0
C45 C 0.652 0.11703 1.00703 0.0
C46 C 0.62075 0.1502 0.02679 0.0
N47 N 0.62334 0.12047 0.01893 0.0
C48 C 0.69952 0.21358 0.97373 0.0
C49 C 0.66313 0.21608 0.91349 0.0
C50 C 0.69407 0.22272 0.90984 0.0
C51 C 0.71244 0.21962 0.94036 0.0
C52 C 0.65122 0.20929 0.94753 0.0
N53 N 0.66896 0.2109 0.9776 0.0
H54 H 0.71427 0.21258 0.99678 0.0
H55 H 0.62764 0.20343 0.94947 0.0
H56 H 0.68922 0.14955 0.99973 0.0
H57 H 0.60062 0.16069 0.03755 0.0
O58 O 0.69037 0.20045 0.05199 0.0
O59 O 0.6455 0.20402 0.07778 0.0
O60 O 0.60993 0.21588 1.01144 0.0
C61 C 0.67458 0.20089 0.08142 0.0
H62 H 0.64098 0.31582 0.07098 0.0
H63 H 0.6619 0.0961 0.99774 0.0
H64 H 0.64797 0.21703 0.89065 0.0
H65 H 0.7367 0.22251 0.93884 0.0
Co66 Co 0.80337 0.65255 0.03089 0.0
C67 C 0.74285 0.68094 0.0298 0.0
C68 C 0.7431 0.63878 0.05851 0.0
C69 C 0.71435 0.65052 0.05957 0.0
N70 N 0.76083 0.65782 0.0398 0.0
N71 N 0.71423 0.67697 0.04147 0.0
H72 H 0.75063 0.70035 0.0147 0.0
H73 H 0.7506 0.61785 0.07058 0.0
C74 C 0.80539 0.59085 0.99643 0.0
O75 O 0.82313 0.60114 0.97085 0.0
N76 N 0.84648 0.64628 0.02313 0.0
C77 C 0.86759 0.66547 1.01033 0.0
C78 C 0.89523 0.65111 1.01025 0.0
C79 C 0.86198 0.62101 0.032 0.0
N80 N 0.89164 0.62301 0.02364 0.0
C81 C 0.80672 0.69187 0.96945 0.0
C82 C 0.76709 0.66007 0.92622 0.0
C83 C 0.77803 0.68798 0.91398 0.0
C84 C 0.79833 0.70376 0.93605 0.0
C85 C 0.77606 0.649 0.95987 0.0
N86 N 0.79633 0.66442 0.98081 0.0
H87 H 0.82003 0.70584 0.98707 0.0
H88 H 0.76506 0.62894 0.96987 0.0
H89 H 0.86384 0.68849 1.00217 0.0
H90 H 0.85173 0.60155 0.04469 0.0
O91 O 0.81081 0.69203 0.05164 0.0
O92 O 0.8099 0.64909 0.08218 0.0
O93 O 0.79549 0.60855 0.02087 0.0
C94 C 0.81222 0.6784 0.08266 0.0
H95 H 0.69492 0.64016 0.07226 0.0
H96 H 0.91624 0.6606 1.00058 0.0
H97 H 0.75045 0.6476 0.91082 0.0
H98 H 0.80709 0.72561 0.9281 0.0
Co99 Co 0.36254 0.80395 0.03364 0.0
C100 C 0.33686 0.74193 0.03063 0.0
C101 C 0.37505 0.74532 0.06623 0.0
C102 C 0.36404 0.7163 0.06785 0.0
N103 N 0.35797 0.76134 0.04303 0.0
N104 N 0.34025 0.71431 0.04537 0.0
H105 H 0.31915 0.74789 1.01184 0.0
H106 H 0.39396 0.7543 0.08127 0.0
C107 C 0.42394 0.80689 0.99857 0.0
O108 O 0.41339 0.82479 0.97329 0.0
N109 N 0.36833 0.84709 0.02564 0.0
C110 C 0.34948 0.86792 1.01154 0.0
C111 C 0.36381 0.89558 1.01134 0.0
C112 C 0.39334 0.8628 0.03507 0.0
N113 N 0.39155 0.8923 0.02589 0.0
C114 C 0.32234 0.80697 0.97305 0.0
C115 C 0.35411 0.76822 0.92881 0.0
C116 C 0.32612 0.77927 0.91703 0.0
C117 C 0.31031 0.79906 0.93957 0.0
C118 C 0.36553 0.77704 0.96235 0.0
N119 N 0.35007 0.79686 0.9838 0.0
H120 H 0.30831 0.81972 0.99118 0.0
H121 H 0.38594 0.76635 0.97181 0.0
H122 H 0.32679 0.86396 1.00229 0.0
H123 H 0.41253 0.85271 0.0485 0.0
O124 O 0.32326 0.81092 0.05517 0.0
O125 O 0.36671 0.81055 0.08474 0.0
O126 O 0.40644 0.7965 0.02292 0.0
C127 C 0.33737 0.81217 0.0859 0.0
H128 H 0.3729 0.69795 0.08399 0.0
H129 H 0.35461 0.91636 1.0006 0.0
H130 H 0.3668 0.75234 0.9126 0.0
H131 H 0.28803 0.80714 0.93226 0.0
Co132 Co 0.70824 0.86143 0.53157 0.0
C133 C 0.76992 0.83478 0.53002 0.0
C134 C 0.76602 0.87171 0.5673 0.0
C135 C 0.79484 0.86027 0.56954 0.0
N136 N 0.75044 0.85569 0.54266 0.0
N137 N 0.79716 0.83726 0.546 0.0
H138 H 0.76429 0.81788 0.51007 0.0
H139 H 0.75691 0.89027 0.58279 0.0
C140 C 0.70767 0.92328 0.49762 0.0
O141 O 0.68995 0.9134 0.47176 0.0
N142 N 0.66552 0.86836 0.52191 0.0
C143 C 0.64463 0.85017 0.5067 0.0
C144 C 0.61725 0.86503 0.50602 0.0
C145 C 0.65011 0.8935 0.53144 0.0
N146 N 0.62079 0.89243 0.52134 0.0
C147 C 0.7062 0.82205 0.47024 0.0
C148 C 0.74596 0.854 0.42741 0.0
C149 C 0.73509 0.8261 0.41502 0.0
C150 C 0.71475 0.81024 0.43691 0.0
C151 C 0.73679 0.86502 0.46101 0.0
N152 N 0.71644 0.84952 0.48173 0.0
H153 H 0.69266 0.80809 0.48764 0.0
H154 H 0.74766 0.88511 0.47112 0.0
H155 H 0.64837 0.82757 0.49705 0.0
H156 H 0.66026 0.91226 0.54568 0.0
O157 O 0.69968 0.82202 0.5519 0.0
O158 O 0.70009 0.86487 0.58254 0.0
O159 O 0.71712 0.9053 0.52204 0.0
C160 C 0.69755 0.83559 0.58287 0.0
H161 H 0.81287 0.86841 0.58671 0.0
H162 H 0.59649 0.85643 0.49452 0.0
H163 H 0.76261 0.86653 0.41214 0.0
H164 H 0.70599 0.78843 0.42882 0.0
Co165 Co 0.1543 0.70682 0.53351 0.0
C166 C 0.177 0.77147 0.53016 0.0
C167 C 0.14353 0.76366 0.57078 0.0
C168 C 0.15274 0.79321 0.57314 0.0
N169 N 0.15892 0.74973 0.54414 0.0
N170 N 0.17363 0.798 0.54754 0.0
H171 H 0.19255 0.76855 0.50823 0.0
H172 H 0.12669 0.75297 0.58758 0.0
C173 C 0.09951 0.73677 0.50335 0.0
O174 O 0.11715 0.75724 0.4887 0.0
N175 N 0.14831 0.66432 0.52438 0.0
C176 C 0.16774 0.64437 0.50994 0.0
C177 C 0.15328 0.61681 0.50691 0.0
C178 C 0.12252 0.64881 0.53011 0.0
N179 N 0.12476 0.61968 0.51949 0.0
C180 C 0.19859 0.71768 0.47914 0.0
C181 C 0.16158 0.71165 0.41974 0.0
C182 C 0.19177 0.72053 0.41455 0.0
C183 C 0.2104 0.72287 0.44496 0.0
C184 C 0.1506 0.7068 0.45472 0.0
N185 N 0.1686 0.71183 0.48406 0.0
H186 H 0.21353 0.71987 0.50196 0.0
H187 H 0.12768 0.69896 0.45803 0.0
H188 H 0.19057 0.64961 0.50163 0.0
H189 H 0.10253 0.65875 0.54191 0.0
O190 O 0.19268 0.69883 0.55648 0.0
O191 O 0.14873 0.69967 0.58468 0.0
O192 O 0.11084 0.71445 0.52044 0.0
C193 C 0.178 0.69728 0.58669 0.0
H194 H 0.14453 0.81001 0.5919 0.0
H195 H 0.16285 0.5965 0.49542 0.0
H196 H 0.14662 0.70822 0.39704 0.0
H197 H 0.23386 0.72953 0.4427 0.0
Co198 Co 0.30718 0.15491 0.53239 0.0
C199 C 0.24245 0.17714 0.52812 0.0
C200 C 0.25017 0.14432 0.56954 0.0
C201 C 0.22052 0.15331 0.57134 0.0
N202 N 0.2642 0.15944 0.54274 0.0
N203 N 0.2158 0.17381 0.54524 0.0
H204 H 0.24543 0.19232 0.50581 0.0
H205 H 0.26081 0.12775 0.58677 0.0
C206 C 0.27721 0.10024 0.50218 0.0
O207 O 0.25698 0.118 0.48727 0.0
N208 N 0.34973 0.14911 0.52354 0.0
C209 C 0.36969 0.16874 0.50943 0.0
C210 C 0.39747 0.15463 0.50716 0.0
C211 C 0.36544 0.12356 0.52982 0.0
N212 N 0.39472 0.12615 0.51991 0.0
C213 C 0.29665 0.19935 0.47816 0.0
C214 C 0.30202 0.16242 0.41868 0.0
C215 C 0.29324 0.19264 0.41367 0.0
C216 C 0.29133 0.21126 0.44408 0.0
C217 C 0.30715 0.15138 0.45358 0.0
N218 N 0.30233 0.16932 0.48297 0.0
H219 H 0.29451 0.21423 0.50101 0.0
H220 H 0.31488 0.12841 0.45679 0.0
H221 H 0.36436 0.19151 0.501 0.0
H222 H 0.35557 0.10353 0.54167 0.0
O223 O 0.31493 0.19327 0.55539 0.0
O224 O 0.31416 0.14928 0.58357 0.0
O225 O 0.2996 0.11144 0.5193 0.0
C226 C 0.31635 0.17856 0.58558 0.0
H227 H 0.20361 0.14519 0.59003 0.0
H228 H 0.41789 0.16444 0.49621 0.0
H229 H 0.30506 0.14749 0.39589 0.0
H230 H 0.28476 0.23474 0.44188 0.0
Co231 Co 0.85993 0.30675 0.52503 0.0
C232 C 0.83304 0.24397 0.52284 0.0
C233 C 0.87442 0.24697 0.55262 0.0
C234 C 0.86416 0.21774 0.55446 0.0
N235 N 0.85518 0.26347 0.53246 0.0
N236 N 0.83815 0.21588 0.53572 0.0
H237 H 0.81307 0.24991 0.50792 0.0
H238 H 0.89461 0.25573 0.56531 0.0
C239 C 0.91461 0.27836 0.49226 0.0
O240 O 0.89689 0.25885 0.47594 0.0
N241 N 0.86596 0.34962 0.51896 0.0
C242 C 0.84647 0.37024 0.50598 0.0
C243 C 0.86101 0.39784 0.50444 0.0
C244 C 0.89186 0.36478 0.52531 0.0
N245 N 0.88964 0.39433 0.51648 0.0
C246 C 0.81513 0.29898 0.47056 0.0
C247 C 0.85197 0.30534 0.41117 0.0
C248 C 0.82168 0.2968 0.40606 0.0
C249 C 0.80309 0.29452 0.4364 0.0
C250 C 0.86311 0.30971 0.44618 0.0
N251 N 0.84523 0.30421 0.47547 0.0
H252 H 0.80007 0.29724 0.49324 0.0
H253 H 0.88613 0.31727 0.44953 0.0
H254 H 0.82357 0.36543 0.49754 0.0
H255 H 0.91195 0.35424 0.53615 0.0
O256 O 0.82179 0.31361 0.54867 0.0
O257 O 0.86587 0.31092 0.5766 0.0
O258 O 0.90334 0.29972 0.51106 0.0
C259 C 0.8366 0.31335 0.57883 0.0
H260 H 0.87513 0.19927 0.56836 0.0
H261 H 0.85143 0.41862 0.49421 0.0
H262 H 0.86687 0.30866 0.38841 0.0
H263 H 0.77949 0.28835 0.43408 0.0
C264 C 0.54726 0.22704 0.01879 0.0
C265 C 0.56544 0.24217 0.99353 0.0
C266 C 0.51648 0.23355 0.02139 0.0
C267 C 0.44994 0.26221 0.97669 0.0
H268 H 0.42857 0.29638 0.06927 0.0
C269 C 0.3345 0.32046 1.00248 0.0
C270 C 0.32305 0.32036 0.03764 0.0
C271 C 0.36298 0.30812 0.99526 0.0
C272 C 0.43374 0.28625 0.0435 0.0
H273 H 0.56529 0.27462 0.94978 0.0
H274 H 0.51104 0.28537 0.95381 0.0
H275 H 0.47969 0.27855 0.05902 0.0
H276 H 0.33092 0.30582 0.09232 0.0
H277 H 0.37961 0.28252 0.07969 0.0
H278 H 0.40381 0.26893 0.96135 0.0
C279 C 0.52088 0.26877 0.97176 0.0
C280 C 0.4632 0.27628 0.03761 0.0
C281 C 0.55187 0.26272 0.9696 0.0
C282 C 0.33966 0.30643 0.06511 0.0
C283 C 0.36768 0.2934 0.0578 0.0
C284 C 0.42014 0.27157 0.98282 0.0
C285 C 0.50317 0.2548 0.9983 0.0
C286 C 0.47158 0.26433 1.00418 0.0
C287 C 0.38023 0.29484 0.023 0.0
C288 C 0.41164 0.28385 0.01633 0.0
H289 H 0.55702 0.21112 0.03765 0.0
H290 H 0.50316 0.2225 0.04201 0.0
H291 H 0.456 0.25297 0.95069 0.0
H292 H 0.322 0.33132 0.98101 0.0
H293 H 0.37184 0.31005 0.96822 0.0
C294 C 0.71216 0.32835 0.99969 0.0
C295 C 0.69559 0.32461 0.03167 0.0
C296 C 0.72907 0.35466 0.99384 0.0
C297 C 0.76271 0.42008 0.04172 0.0
H298 H 0.75344 0.46197 0.95067 0.0
C299 C 0.78166 0.5472 0.0282 0.0
C300 C 0.79701 0.55847 0.99793 0.0
C301 C 0.77372 0.51679 0.03036 0.0
C302 C 0.75669 0.4503 0.976 0.0
H303 H 0.6847 0.34503 0.08305 0.0
H304 H 0.71368 0.39084 0.07278 0.0
H305 H 0.7318 0.4115 0.95824 0.0
H306 H 0.81601 0.54652 0.94607 0.0
H307 H 0.8017 0.49305 0.94974 0.0
H308 H 0.7867 0.45918 0.05989 0.0
C309 C 0.71384 0.37348 0.05223 0.0
C310 C 0.74432 0.4214 0.98035 0.0
C311 C 0.69688 0.34736 0.05797 0.0
C312 C 0.80419 0.53853 0.96974 0.0
C313 C 0.79595 0.50798 0.97178 0.0
C314 C 0.77496 0.44891 0.03741 0.0
C315 C 0.72996 0.37759 0.02002 0.0
C316 C 0.74649 0.40634 0.01361 0.0
C317 C 0.78075 0.49681 1.00224 0.0
C318 C 0.77137 0.46468 1.00486 0.0
H319 H 0.71144 0.3113 0.97883 0.0
H320 H 0.74138 0.35709 0.96883 0.0
H321 H 0.76537 0.40881 0.0674 0.0
H322 H 0.77576 0.56185 0.05045 0.0
H323 H 0.76158 0.50901 0.05391 0.0
C324 C 0.6861 0.71388 1.0042 0.0
C325 C 0.68865 0.69648 0.03574 0.0
C326 C 0.66032 0.73148 0.99798 0.0
C327 C 0.5947 0.76557 0.04462 0.0
H328 H 0.5537 0.75743 0.95281 0.0
C329 C 0.4678 0.78338 0.03005 0.0
C330 C 0.45643 0.79901 1.00002 0.0
C331 C 0.49831 0.77594 0.03228 0.0
C332 C 0.56515 0.7604 0.97835 0.0
H333 H 0.66676 0.68476 0.08597 0.0
H334 H 0.62188 0.71507 0.07512 0.0
H335 H 0.60397 0.73545 0.96089 0.0
H336 H 0.46832 0.81905 0.94867 0.0
H337 H 0.52203 0.80557 0.95246 0.0
H338 H 0.55556 0.78954 0.06251 0.0
C339 C 0.63975 0.71531 0.05521 0.0
C340 C 0.59393 0.74783 0.98298 0.0
C341 C 0.66531 0.69763 0.06126 0.0
C342 C 0.47639 0.80698 0.97214 0.0
C343 C 0.50707 0.79924 0.97426 0.0
C344 C 0.56602 0.77804 0.04001 0.0
C345 C 0.6368 0.73227 0.0234 0.0
C346 C 0.60857 0.74947 0.01655 0.0
C347 C 0.51832 0.78377 1.0045 0.0
C348 C 0.55053 0.77477 1.00721 0.0
H349 H 0.70364 0.71326 0.98393 0.0
H350 H 0.65873 0.7444 0.97329 0.0
H351 H 0.60569 0.76779 0.07055 0.0
H352 H 0.45314 0.77685 0.05206 0.0
H353 H 0.50616 0.76354 0.05563 0.0
C354 C 0.26275 0.45877 0.97909 0.0
C355 C 0.24173 0.44568 1.00278 0.0
C356 C 0.26864 0.48981 0.98041 0.0
C357 C 0.27611 0.54865 0.04379 0.0
H358 H 0.2669 0.60681 0.96652 0.0
C359 C 0.30958 0.67197 0.06696 0.0
C360 C 0.32284 0.6877 0.03838 0.0
C361 C 0.29536 0.64428 0.06099 0.0
C362 C 0.27005 0.59084 0.98826 0.0
H363 H 0.20978 0.4549 0.04568 0.0
H364 H 0.22097 0.50894 0.04872 0.0
H365 H 0.25062 0.5545 0.95756 0.0
H366 H 0.33151 0.6877 0.98123 0.0
H367 H 0.30829 0.63835 0.97066 0.0
H368 H 0.29718 0.58367 0.07393 0.0
C369 C 0.23243 0.49519 0.02884 0.0
C370 C 0.26049 0.56098 0.98312 0.0
C371 C 0.22605 0.46433 0.02702 0.0
C372 C 0.32109 0.67584 1.0035 0.0
C373 C 0.30764 0.64765 0.99758 0.0
C374 C 0.2863 0.57817 0.04867 0.0
C375 C 0.25404 0.50806 1.00589 0.0
C376 C 0.26337 0.53977 1.01094 0.0
C377 C 0.29507 0.63116 0.02642 0.0
C378 C 0.28333 0.59983 0.02108 0.0
H379 H 0.27507 0.44496 0.96003 0.0
H380 H 0.28555 0.49934 0.96263 0.0
H381 H 0.27891 0.53246 0.06542 0.0
H382 H 0.31057 0.68106 0.09399 0.0
H383 H 0.28509 0.63298 0.08373 0.0
C384 C 0.05284 0.76063 0.47768 0.0
C385 C 0.06636 0.74062 0.5023 0.0
C386 C 0.02177 0.76634 0.47917 0.0
C387 C 0.96346 0.77506 0.54339 0.0
H388 H 0.90468 0.76397 0.4671 0.0
C389 C 0.84001 0.8072 0.5675 0.0
C390 C 0.82387 0.82002 0.53892 0.0
C391 C 0.86779 0.79324 0.5614 0.0
C392 C 0.92083 0.76763 0.48855 0.0
H393 H 0.0578 0.71019 0.54698 0.0
H394 H 1.00374 0.72105 0.55022 0.0
H395 H 0.95708 0.74803 0.45792 0.0
H396 H 0.82325 0.82801 0.4816 0.0
H397 H 0.87272 0.80518 0.47079 0.0
H398 H 0.9285 0.79626 0.57343 0.0
C399 C 0.01718 0.7319 0.52956 0.0
C400 C 0.95074 0.75829 0.48329 0.0
C401 C 0.04807 0.72571 0.52763 0.0
C402 C 0.83541 0.81797 0.5039 0.0
C403 C 0.86368 0.80475 0.49783 0.0
C404 C 0.93389 0.78502 0.54838 0.0
C405 C 1.00391 0.75256 0.5057 0.0
C406 C 0.97217 0.76182 0.51079 0.0
C407 C 0.88058 0.79272 0.52667 0.0
C408 C 0.91201 0.78133 0.52115 0.0
H409 H 0.06636 0.77232 0.45777 0.0
H410 H 0.01194 0.7825 0.46066 0.0
H411 H 0.9798 0.77839 0.56477 0.0
H412 H 0.83119 0.80836 0.59464 0.0
H413 H 0.87943 0.78335 0.58415 0.0
C414 C 0.28639 0.04901 0.52814 0.0
C415 C 0.27273 0.06717 0.5017 0.0
C416 C 0.27929 0.01834 0.53065 0.0
C417 C 0.25251 0.95187 0.48477 0.0
H418 H 0.21158 0.93172 0.57381 0.0
C419 C 0.19145 0.83726 0.50559 0.0
C420 C 0.18914 0.82587 0.54068 0.0
C421 C 0.20426 0.86572 0.49947 0.0
C422 C 0.22358 0.93655 0.54909 0.0
H423 H 0.24235 0.06716 0.45587 0.0
H424 H 0.23064 0.0131 0.45973 0.0
H425 H 0.23087 0.98253 0.56479 0.0
H426 H 0.19979 0.83393 0.59659 0.0
H427 H 0.22383 0.88263 0.58608 0.0
H428 H 0.24622 0.90574 0.46934 0.0
C429 C 0.2465 0.02286 0.47867 0.0
C430 C 0.23439 0.96582 0.5439 0.0
C431 C 0.2531 0.05373 0.47661 0.0
C432 C 0.20099 0.84262 0.56937 0.0
C433 C 0.21449 0.87064 0.56325 0.0
C434 C 0.2423 0.92227 0.49027 0.0
C435 C 0.25897 1.00516 0.50627 0.0
C436 C 0.24877 0.97375 0.51168 0.0
C437 C 0.21565 0.88301 0.52833 0.0
C438 C 0.22752 0.91422 0.52249 0.0
H439 H 0.30155 0.05873 0.54791 0.0
H440 H 0.28914 1.00502 0.55213 0.0
H441 H 0.26363 0.9576 0.45972 0.0
H442 H 0.18222 0.82465 0.48314 0.0
H443 H 0.2043 0.87447 0.47227 0.0
C444 C 0.17032 0.20042 0.56576 0.0
C445 C 0.18785 0.1889 0.53757 0.0
C446 C 0.14234 0.21369 0.55878 0.0
C447 C 0.09247 0.24193 0.48437 0.0
H448 H 0.03046 0.22977 0.55665 0.0
C449 C 0.96133 0.25447 0.46694 0.0
C450 C 0.94766 0.27368 0.49228 0.0
C451 C 0.99208 0.24745 0.46965 0.0
C452 C 0.04766 0.23346 0.53637 0.0
H453 H 0.19041 0.18229 0.48004 0.0
H454 H 0.1407 0.204 0.46764 0.0
H455 H 0.08098 0.21019 0.56703 0.0
H456 H 0.95565 0.30137 0.53956 0.0
H457 H 0.00908 0.28826 0.5448 0.0
H458 H 0.05797 0.26384 0.45304 0.0
C459 C 0.14882 0.20386 0.49513 0.0
C460 C 0.07675 0.22249 0.54236 0.0
C461 C 0.17722 0.19126 0.50212 0.0
C462 C 0.96552 0.28655 0.51958 0.0
C463 C 0.99604 0.27904 0.52268 0.0
C464 C 0.06306 0.25233 0.47806 0.0
C465 C 0.13079 0.21495 0.52346 0.0
C466 C 0.09972 0.22676 0.51662 0.0
C467 C 0.0094 0.25907 0.4981 0.0
C468 C 0.04056 0.24835 0.50418 0.0
H469 H 0.1784 0.1992 0.59324 0.0
H470 H 0.12974 0.2228 0.58125 0.0
H471 H 0.10952 0.24607 0.46409 0.0
H472 H 0.94814 0.24432 0.44556 0.0
H473 H 1.00199 0.23188 0.45052 0.0
C474 C 0.80219 0.18543 0.49966 0.0
C475 C 0.81973 0.18931 0.53091 0.0
C476 C 0.78551 0.1589 0.49442 0.0
C477 C 0.75422 0.09297 0.54343 0.0
H478 H 0.76013 0.05192 0.45149 0.0
C479 C 0.73309 0.96615 0.52908 0.0
C480 C 0.71674 0.95546 0.49923 0.0
C481 C 0.74164 0.99639 0.53134 0.0
C482 C 0.75783 0.06334 0.47712 0.0
H483 H 0.83266 0.16883 0.58163 0.0
H484 H 0.80408 0.1226 0.57236 0.0
H485 H 0.78209 0.10226 0.4586 0.0
H486 H 0.69659 0.96827 0.44823 0.0
H487 H 0.71188 0.02142 0.45211 0.0
H488 H 0.73076 0.05378 0.56226 0.0
C489 C 0.80298 0.14004 0.55195 0.0
C490 C 0.77039 0.09218 0.4812 0.0
C491 C 0.8197 0.16641 0.55708 0.0
C492 C 0.7092 0.9758 0.47157 0.0
C493 C 0.718 1.00617 0.47372 0.0
C494 C 0.74176 0.0642 0.53937 0.0
C495 C 0.78584 0.13585 0.52048 0.0
C496 C 0.76938 0.10697 0.51469 0.0
C497 C 0.7342 0.01678 0.50376 0.0
C498 C 0.74409 0.04875 0.50646 0.0
H499 H 0.80193 0.20257 0.47888 0.0
H500 H 0.77238 0.15641 0.46999 0.0
H501 H 0.75246 0.10403 0.56934 0.0
H502 H 0.73934 0.95116 0.55091 0.0
H503 H 0.75455 1.00372 0.55453 0.0
C504 C 0.29235 0.23494 0.36849 0.0
C505 C 0.28525 0.2049 0.37749 0.0
C506 C 0.2818 0.2478 0.33655 0.0
C507 C 0.22253 0.23796 0.2664 0.0
H508 H 0.26912 0.29988 0.21772 0.0
C509 C 0.19361 0.29044 0.12624 0.0
C510 C 0.19717 0.32191 0.12319 0.0
C511 C 0.20171 0.27547 0.15804 0.0
C512 C 0.25573 0.2828 0.23124 0.0
H513 H 0.26239 0.16446 0.35888 0.0
H514 H 0.24506 0.18649 0.3023 0.0
H515 H 0.29081 0.27371 0.26919 0.0
H516 H 0.21055 0.36252 0.15172 0.0
H517 H 0.22485 0.33636 0.207 0.0
H518 H 0.18779 0.24674 0.22737 0.0
C519 C 0.25809 0.20043 0.32056 0.0
C520 C 0.26813 0.26779 0.26083 0.0
C521 C 0.26845 0.18761 0.35279 0.0
C522 C 0.20741 0.33828 0.15322 0.0
C523 C 0.21588 0.32329 0.18477 0.0
C524 C 0.21029 0.25273 0.23638 0.0
C525 C 0.26417 0.23089 0.31229 0.0
C526 C 0.25159 0.24542 0.2792 0.0
C527 C 0.21391 0.29166 0.18715 0.0
C528 C 0.22663 0.27558 0.21881 0.0
H529 H 0.30569 0.24883 0.38647 0.0
H530 H 0.28677 0.27137 0.33152 0.0
H531 H 0.20888 0.2212 0.28005 0.0
H532 H 0.18587 0.27719 0.10352 0.0
H533 H 0.19998 0.25108 0.15912 0.0
C534 C 0.67372 0.21445 0.14671 0.0
C535 C 0.68955 0.2031 0.11691 0.0
C536 C 0.68905 0.22196 0.1784 0.0
C537 C 0.76602 0.24241 0.21006 0.0
H538 H 0.72824 0.23796 0.30399 0.0
C539 C 0.82628 0.27177 0.34542 0.0
C540 C 0.80934 0.28912 0.36988 0.0
C541 C 0.81302 0.2609 0.3137 0.0
C542 C 0.739 0.23949 0.27787 0.0
H543 H 0.73352 0.18894 0.09765 0.0
H544 H 0.76011 0.20087 0.15336 0.0
H545 H 0.70245 0.2166 0.25192 0.0
H546 H 0.76582 0.3105 0.37869 0.0
H547 H 0.74271 0.2911 0.32387 0.0
H548 H 0.80279 0.26498 0.23647 0.0
C549 C 0.73601 0.20495 0.15197 0.0
C550 C 0.7242 0.2273 0.24797 0.0
C551 C 0.72072 0.19777 0.12014 0.0
C552 C 0.77934 0.29657 0.36096 0.0
C553 C 0.76605 0.28548 0.32955 0.0
C554 C 0.78098 0.25428 0.24009 0.0
C555 C 0.72054 0.21798 0.18118 0.0
C556 C 0.7373 0.22894 0.21353 0.0
C557 C 0.78252 0.26698 0.30598 0.0
C558 C 0.76742 0.25333 0.27421 0.0
H559 H 0.64973 0.2191 0.14494 0.0
H560 H 0.67634 0.23223 0.20005 0.0
H561 H 0.77665 0.24462 0.18396 0.0
H562 H 0.84934 0.2654 0.35155 0.0
H563 H 0.82624 0.24668 0.29598 0.0
C564 C 0.81082 0.68015 0.15008 0.0
C565 C 0.81203 0.69551 0.11699 0.0
C566 C 0.8063 0.69598 0.18223 0.0
C567 C 0.77352 0.76732 0.21583 0.0
H568 H 0.81057 0.74311 0.3059 0.0
C569 C 0.75062 0.8307 0.34986 0.0
C570 C 0.74623 0.8127 0.38063 0.0
C571 C 0.76093 0.81789 0.31762 0.0
C572 C 0.79983 0.75002 0.28103 0.0
H573 H 0.81066 0.73973 0.09194 0.0
H574 H 0.8032 0.7674 0.14807 0.0
H575 H 0.82555 0.71835 0.25007 0.0
H576 H 0.75015 0.76713 0.40168 0.0
H577 H 0.76742 0.7448 0.34555 0.0
H578 H 0.74748 0.79869 0.24684 0.0
C579 C 0.80527 0.74304 0.14913 0.0
C580 C 0.80845 0.73583 0.24898 0.0
C581 C 0.80984 0.72719 0.11696 0.0
C582 C 0.75276 0.78164 0.37842 0.0
C583 C 0.76311 0.76888 0.34629 0.0
C584 C 0.76489 0.78152 0.24789 0.0
C585 C 0.80284 0.72759 0.18212 0.0
C586 C 0.79519 0.74406 0.21598 0.0
C587 C 0.76727 0.78678 0.31541 0.0
C588 C 0.77768 0.77283 0.28099 0.0
H589 H 0.81228 0.65574 0.15107 0.0
H590 H 0.80428 0.68327 0.20702 0.0
H591 H 0.76246 0.77396 0.19106 0.0
H592 H 0.7457 0.85466 0.35053 0.0
H593 H 0.76413 0.83243 0.29449 0.0
C594 C 0.2892 0.81091 0.12166 0.0
C595 C 0.32094 0.80954 0.1205 0.0
C596 C 0.27359 0.80307 0.15314 0.0
C597 C 0.28128 0.75313 0.2302 0.0
H598 H 0.21785 0.80011 0.27521 0.0
C599 C 0.2342 0.72124 0.36942 0.0
C600 C 0.20399 0.7279 0.3781 0.0
C601 C 0.24678 0.73085 0.33691 0.0
C602 C 0.2351 0.78638 0.26266 0.0
H603 H 0.36118 0.80007 0.15195 0.0
H604 H 0.33394 0.7861 0.20649 0.0
H605 H 0.2429 0.81938 0.22123 0.0
H606 H 0.16304 0.74908 0.35827 0.0
H607 H 0.18455 0.76457 0.30074 0.0
H608 H 0.27322 0.71971 0.27049 0.0
C609 C 0.32116 0.79323 0.18309 0.0
C610 C 0.24957 0.79758 0.23186 0.0
C611 C 0.33675 0.80149 0.15191 0.0
C612 C 0.18633 0.74335 0.35252 0.0
C613 C 0.19885 0.75269 0.31969 0.0
C614 C 0.26654 0.7417 0.26053 0.0
C615 C 0.28943 0.79326 0.18379 0.0
C616 C 0.27313 0.78127 0.21569 0.0
C617 C 0.22942 0.74698 0.31163 0.0
C618 C 0.24355 0.75834 0.27763 0.0
H619 H 0.27638 0.81691 0.09787 0.0
H620 H 0.24911 0.80327 0.15297 0.0
H621 H 0.29897 0.73979 0.21784 0.0
H622 H 0.24843 0.70888 0.38801 0.0
H623 H 0.27046 0.72624 0.33214 0.0
C624 C 0.69962 0.78674 0.61708 0.0
C625 C 0.69732 0.81842 0.61716 0.0
C626 C 0.70439 0.77087 0.64921 0.0
C627 C 0.70226 0.77793 0.74913 0.0
H628 H 0.76401 0.71587 0.74593 0.0
C629 C 0.76009 0.73251 0.87763 0.0
C630 C 0.76682 0.70149 0.87967 0.0
C631 C 0.74932 0.74528 0.84567 0.0
C632 C 0.7464 0.73281 0.74728 0.0
H633 H 0.69693 0.85813 0.6513 0.0
H634 H 0.70527 0.83056 0.70718 0.0
H635 H 0.74797 0.74043 0.69043 0.0
H636 H 0.76739 0.65962 0.84942 0.0
H637 H 0.74825 0.68185 0.79369 0.0
H638 H 0.70102 0.77059 0.80609 0.0
C639 C 0.70319 0.81787 0.68239 0.0
C640 C 0.73715 0.7469 0.71539 0.0
C641 C 0.69846 0.83372 0.65028 0.0
C642 C 0.76232 0.68355 0.84888 0.0
C643 C 0.7516 0.69636 0.81682 0.0
C644 C 0.71151 0.76383 0.78103 0.0
C645 C 0.70693 0.78629 0.6822 0.0
C646 C 0.71517 0.76987 0.71591 0.0
C647 C 0.74495 0.72741 0.8148 0.0
C648 C 0.73396 0.74131 0.78059 0.0
H649 H 0.69886 0.77425 0.59204 0.0
H650 H 0.70665 0.74653 0.64811 0.0
H651 H 0.68496 0.79518 0.75052 0.0
H652 H 0.76279 0.74696 0.90093 0.0
H653 H 0.74479 0.76932 0.84505 0.0
C654 C 0.2257 0.70209 0.62233 0.0
C655 C 0.19419 0.69801 0.62163 0.0
C656 C 0.24069 0.70798 0.6547 0.0
C657 C 0.25972 0.74414 0.72068 0.0
H658 H 0.24563 0.70081 0.80983 0.0
C659 C 0.29829 0.7895 0.85932 0.0
C660 C 0.31244 0.76884 0.8826 0.0
C661 C 0.2845 0.77959 0.82754 0.0
C662 C 0.24989 0.71303 0.78508 0.0
H663 H 0.15394 0.69541 0.65469 0.0
H664 H 0.18031 0.70515 0.71149 0.0
H665 H 0.22045 0.68425 0.75444 0.0
H666 H 0.32286 0.7215 0.89097 0.0
H667 H 0.29868 0.70419 0.83542 0.0
H668 H 0.28884 0.77312 0.75121 0.0
C669 C 0.19333 0.70393 0.68686 0.0
C670 C 0.23532 0.70367 0.75347 0.0
C671 C 0.17823 0.69834 0.65434 0.0
C672 C 0.31246 0.73802 0.87338 0.0
C673 C 0.29834 0.72806 0.84179 0.0
C674 C 0.27394 0.75372 0.7523 0.0
C675 C 0.2246 0.70964 0.68722 0.0
C676 C 0.24017 0.71908 0.7209 0.0
C677 C 0.28422 0.74875 0.8185 0.0
C678 C 0.26923 0.73827 0.78487 0.0
H679 H 0.2387 0.70202 0.59765 0.0
H680 H 0.26485 0.71188 0.6542 0.0
H681 H 0.26365 0.7567 0.69609 0.0
H682 H 0.29797 0.81338 0.86564 0.0
H683 H 0.27361 0.79605 0.81029 0.0
C684 C 0.30617 0.22517 0.6213 0.0
C685 C 0.31479 0.19464 0.62045 0.0
C686 C 0.29941 0.23935 0.6539 0.0
C687 C 0.27743 0.22047 0.74809 0.0
H688 H 0.28604 0.30693 0.76166 0.0
C689 C 0.25584 0.28062 0.88367 0.0
C690 C 0.23536 0.305 0.88277 0.0
C691 C 0.26675 0.2678 0.85192 0.0
C692 C 0.28339 0.28279 0.75808 0.0
H693 H 0.32483 0.1555 0.65329 0.0
H694 H 0.31467 0.1806 0.71047 0.0
H695 H 0.30569 0.2834 0.70708 0.0
H696 H 0.21091 0.33519 0.847 0.0
H697 H 0.23108 0.31337 0.79151 0.0
H698 H 0.25599 0.21998 0.79981 0.0
C699 C 0.31191 0.19339 0.68585 0.0
C700 C 0.29454 0.26923 0.72675 0.0
C701 C 0.31815 0.17904 0.65309 0.0
C702 C 0.22681 0.31669 0.84899 0.0
C703 C 0.23824 0.30415 0.81714 0.0
C704 C 0.26685 0.23396 0.77967 0.0
C705 C 0.30157 0.22352 0.68667 0.0
C706 C 0.29148 0.23786 0.7211 0.0
C707 C 0.25807 0.27938 0.81836 0.0
C708 C 0.26949 0.26526 0.78484 0.0
H709 H 0.30306 0.23778 0.59658 0.0
H710 H 0.29114 0.26234 0.65306 0.0
H711 H 0.27391 0.19645 0.74462 0.0
H712 H 0.26385 0.2715 0.90897 0.0
H713 H 0.28236 0.249 0.8536 0.0
C714 C 0.69591 0.22426 0.84168 0.0
C715 C 0.70725 0.23376 0.8752 0.0
C716 C 0.70851 0.23505 0.80956 0.0
C717 C 0.76008 0.29547 0.77377 0.0
H718 H 0.76348 0.24262 0.69073 0.0
C719 C 0.83594 0.3126 0.64647 0.0
C720 C 0.82044 0.31074 0.61351 0.0
C721 C 0.82107 0.30591 0.6788 0.0
C722 C 0.76254 0.25764 0.71373 0.0
H723 H 0.7404 0.26311 0.90066 0.0
H724 H 0.76348 0.27994 0.84541 0.0
H725 H 0.73982 0.2248 0.74598 0.0
H726 H 0.77705 0.30112 0.5887 0.0
H727 H 0.7515 0.28881 0.64496 0.0
H728 H 0.7842 0.32771 0.74148 0.0
C729 C 0.74434 0.26479 0.8436 0.0
C730 C 0.74875 0.24756 0.74538 0.0
C731 C 0.73141 0.25449 0.87557 0.0
C732 C 0.78962 0.30295 0.61364 0.0
C733 C 0.77499 0.29569 0.64577 0.0
C734 C 0.77445 0.30526 0.74232 0.0
C735 C 0.73309 0.25533 0.81004 0.0
C736 C 0.74727 0.26633 0.77593 0.0
C737 C 0.79068 0.29666 0.67855 0.0
C738 C 0.77569 0.28646 0.71202 0.0
H739 H 0.6775 0.20821 0.84009 0.0
H740 H 0.69878 0.22756 0.78436 0.0
H741 H 0.75887 0.31095 0.79626 0.0
H742 H 0.85971 0.31841 0.64717 0.0
H743 H 0.83362 0.30674 0.70383 0.0
C744 C 0.94523 0.60695 0.02828 0.0
C745 C 0.91434 0.59957 0.02643 0.0
C746 C 0.96728 0.58429 0.02915 0.0
C747 C 0.97882 0.5026 0.0476 0.0
H748 H 0.05103 0.51364 0.99007 0.0
C749 C 0.06461 0.4058 0.02286 0.0
C750 C 0.09556 0.41313 0.02242 0.0
C751 C 0.04259 0.42849 0.02433 0.0
C752 C 0.03122 0.51031 1.00668 0.0
H753 H 0.88262 0.56223 0.02406 0.0
H754 H 0.92099 0.5228 0.02572 0.0
H755 H 0.01272 0.5531 0.99135 0.0
H756 H 0.12735 0.45048 0.02303 0.0
H757 H 0.08912 0.48983 0.02639 0.0
H758 H 0.99733 0.45976 0.0629 0.0
C759 C 0.92816 0.54617 0.02696 0.0
C760 C 0.00919 0.53299 1.0074 0.0
C761 C 0.9061 0.56885 0.02606 0.0
C762 C 0.10384 0.44382 0.02368 0.0
C763 C 0.08182 0.4665 0.02516 0.0
C764 C 1.00088 0.47991 0.04691 0.0
C765 C 0.95907 0.55358 0.02821 0.0
C766 C 0.98267 0.52946 0.02784 0.0
C767 C 0.05087 0.45918 0.0254 0.0
C768 C 0.02739 0.48343 0.02641 0.0
H769 H 0.95245 0.63029 0.02919 0.0
H770 H 0.99081 0.59086 0.03076 0.0
H771 H 0.9589 0.49925 0.06403 0.0
H772 H 0.05728 0.38249 0.02229 0.0
H773 H 0.01901 0.42195 0.02409 0.0
C774 C 0.56938 0.10514 0.02149 0.0
C775 C 0.60024 0.09742 0.02185 0.0
C776 C 0.54705 0.08279 0.02373 0.0
C777 C 0.53446 1.00101 1.00881 0.0
H778 H 0.46235 0.0142 0.06586 0.0
C779 C 0.44567 0.90669 0.03013 0.0
C780 C 0.415 0.91501 0.02872 0.0
C781 C 0.46842 0.92869 0.03104 0.0
C782 C 0.48219 0.01024 0.04948 0.0
H783 H 0.63153 0.05985 0.0257 0.0
H784 H 0.59268 0.02099 0.02948 0.0
H785 H 0.50154 0.05293 0.06394 0.0
H786 H 0.38443 0.95329 0.02806 0.0
H787 H 0.42398 0.99152 0.02887 0.0
H788 H 0.51506 0.95848 0.99405 0.0
C789 C 0.58575 0.04435 0.02692 0.0
C790 C 0.5047 0.03249 0.0484 0.0
C791 C 0.60809 0.0667 0.02474 0.0
C792 C 0.40773 0.94596 0.02878 0.0
C793 C 0.43048 0.96795 0.02966 0.0
C794 C 0.51194 0.9788 1.00983 0.0
C795 C 0.55493 0.05208 0.02634 0.0
C796 C 0.53111 0.0282 0.02798 0.0
C797 C 0.46116 0.95964 0.03052 0.0
C798 C 0.48545 0.98311 0.03011 0.0
H799 H 0.56236 0.12843 0.01875 0.0
H800 H 0.52356 0.08957 0.02266 0.0
H801 H 0.55425 0.9971 0.99234 0.0
H802 H 0.45226 0.88316 0.02972 0.0
H803 H 0.49175 0.92138 0.03217 0.0
C804 C 0.44867 0.11085 0.52274 0.0
C805 C 0.41785 0.10306 0.52167 0.0
C806 C 0.47101 0.08846 0.52419 0.0
C807 C 0.48285 0.00746 0.54664 0.0
H808 H 0.55569 0.01671 0.48979 0.0
C809 C 0.56742 0.90936 0.52456 0.0
C810 C 0.59847 0.91619 0.52423 0.0
C811 C 0.5458 0.93242 0.5258 0.0
C812 C 0.53568 0.01391 0.50622 0.0
H813 H 0.38662 0.06525 0.52066 0.0
H814 H 0.4254 0.0264 0.52318 0.0
H815 H 0.51744 0.05631 0.48891 0.0
H816 H 0.63095 0.95291 0.52492 0.0
H817 H 0.59333 0.99301 0.52775 0.0
H818 H 0.50103 0.96499 0.5638 0.0
C819 C 0.43233 0.04987 0.52356 0.0
C820 C 0.5137 0.03666 0.50571 0.0
C821 C 0.41002 0.07223 0.52211 0.0
C822 C 0.6073 0.94672 0.52556 0.0
C823 C 0.58567 0.96978 0.52672 0.0
C824 C 0.50483 0.98471 0.54715 0.0
C825 C 0.46315 0.05765 0.5246 0.0
C826 C 0.48691 0.0337 0.52578 0.0
C827 C 0.55461 0.96296 0.52665 0.0
C828 C 0.5315 0.98756 0.52683 0.0
H829 H 0.4556 0.13429 0.52295 0.0
H830 H 0.49447 0.09534 0.52549 0.0
H831 H 0.46277 1.0046 0.56293 0.0
H832 H 0.55976 0.88615 0.52387 0.0
H833 H 0.52211 0.92628 0.52536 0.0
C834 C 0.10854 0.56595 0.52008 0.0
C835 C 0.10127 0.59689 0.52018 0.0
C836 C 0.08577 0.54394 0.52038 0.0
C837 C 1.00458 0.53252 0.54181 0.0
H838 H 0.01307 0.46135 0.48192 0.0
C839 C 0.90621 0.44792 0.51936 0.0
C840 C 0.91329 0.41695 0.51796 0.0
C841 C 0.92913 0.46977 0.52024 0.0
C842 C 0.01046 0.48088 0.49917 0.0
H843 H 0.06395 0.6287 0.52011 0.0
H844 H 0.02445 0.59048 0.52074 0.0
H845 H 0.05297 0.4993 0.48252 0.0
H846 H 0.95042 0.38496 0.51612 0.0
H847 H 0.99013 0.42285 0.51847 0.0
H848 H 0.96206 0.51409 0.55848 0.0
C849 C 0.04781 0.58319 0.52102 0.0
C850 C 0.03339 0.50269 0.4995 0.0
C851 C 0.07055 0.60518 0.52068 0.0
C852 C 0.94395 0.40848 0.51761 0.0
C853 C 0.96683 0.43031 0.51848 0.0
C854 C 0.98165 0.51068 0.54152 0.0
C855 C 0.05508 0.55226 0.52082 0.0
C856 C 0.03075 0.52884 0.52079 0.0
C857 C 0.95977 0.46128 0.5197 0.0
C858 C 0.98425 0.48456 0.52016 0.0
H859 H 0.13186 0.55864 0.52021 0.0
H860 H 0.09225 0.52035 0.52075 0.0
H861 H 1.00195 0.55212 0.55896 0.0
H862 H 0.88294 0.45537 0.52 0.0
H863 H 0.92277 0.49339 0.5208 0.0
loop_
_geom_bond_atom_site_label_1
_geom_bond_atom_site_label_2
_geom_bond_distance
_geom_bond_site_symmetry_2
_ccdc_geom_bond_type
Co0 N4 2.148 . S
Co0 N10 2.128 . S
Co0 N20 2.194 1_554 S
Co0 O25 2.351 . S
Co0 O26 2.155 . S
Co0 O27 2.096 . S
C1 N4 1.301 . S
C1 N5 1.328 . S
C1 H6 0.930 . S
C2 C3 1.333 . S
C2 N4 1.317 . S
C2 H7 0.930 . S
C3 C2 1.333 . S
C3 N5 1.350 . S
C3 H29 0.931 . S
N4 Co0 2.148 . S
N4 C1 1.301 . S
N4 C2 1.317 . S
N5 C1 1.328 . S
N5 C3 1.350 . S
H6 C1 0.930 . S
H7 C2 0.930 . S
C8 O9 1.224 1_554 S
C8 O27 1.247 . S
O9 C8 1.224 1_556 S
N10 Co0 2.128 . S
N10 C11 1.355 . S
N10 C13 1.311 . S
C11 N10 1.355 . S
C11 C12 1.363 1_554 S
C11 H23 0.929 1_554 S
C12 C11 1.363 1_556 S
C12 N14 1.375 1_556 S
C12 H30 0.931 . S
C13 N10 1.311 . S
C13 N14 1.347 . S
C13 H24 0.929 . S
N14 C12 1.375 1_554 S
N14 C13 1.347 . S
C15 C18 1.365 . S
C15 N20 1.328 . S
C15 H21 0.929 . S
C16 C17 1.362 . S
C16 C19 1.378 . S
C16 H31 0.929 . S
C17 C16 1.362 . S
C17 C18 1.366 . S
C18 C15 1.365 . S
C18 C17 1.366 . S
C18 H32 0.930 . S
C19 C16 1.378 . S
C19 N20 1.315 . S
C19 H22 0.930 . S
N20 Co0 2.194 1_556 S
N20 C15 1.328 . S
N20 C19 1.315 . S
H21 C15 0.929 . S
H22 C19 0.930 . S
H23 C11 0.929 1_556 S
H24 C13 0.929 . S
O25 Co0 2.351 . S
O25 C28 1.244 . S
O26 Co0 2.155 . S
O26 C28 1.240 . S
O27 Co0 2.096 . S
O27 C8 1.247 . S
C28 O25 1.244 . S
C28 O26 1.240 . S
H29 C3 0.931 . S
H30 C12 0.931 . S
H31 C16 0.929 . S
H32 C18 0.930 . S
Co33 N37 2.148 . S
Co33 N43 2.128 . S
Co33 N53 2.194 1_554 S
Co33 O58 2.351 . S
Co33 O59 2.155 . S
Co33 O60 2.096 . S
C34 N37 1.301 . S
C34 N38 1.328 . S
C34 H39 0.930 . S
C35 C36 1.333 . S
C35 N37 1.317 . S
C35 H40 0.930 . S
C36 C35 1.333 . S
C36 N38 1.350 . S
C36 H62 0.931 . S
N37 Co33 2.148 . S
N37 C34 1.301 . S
N37 C35 1.317 . S
N38 C34 1.328 . S
N38 C36 1.350 . S
H39 C34 0.930 . S
H40 C35 0.930 . S
C41 O42 1.224 1_554 S
C41 O60 1.247 . S
O42 C41 1.224 1_556 S
N43 Co33 2.128 . S
N43 C44 1.355 . S
N43 C46 1.311 . S
C44 N43 1.355 . S
C44 C45 1.363 1_554 S
C44 H56 0.929 1_554 S
C45 C44 1.363 1_556 S
C45 N47 1.375 1_556 S
C45 H63 0.931 . S
C46 N43 1.311 . S
C46 N47 1.347 . S
C46 H57 0.929 . S
N47 C45 1.375 1_554 S
N47 C46 1.347 . S
C48 C51 1.365 . S
C48 N53 1.328 . S
C48 H54 0.929 . S
C49 C50 1.362 . S
C49 C52 1.378 . S
C49 H64 0.929 . S
C50 C49 1.362 . S
C50 C51 1.366 . S
C51 C48 1.365 . S
C51 C50 1.366 . S
C51 H65 0.930 . S
C52 C49 1.378 . S
C52 N53 1.315 . S
C52 H55 0.930 . S
N53 Co33 2.194 1_556 S
N53 C48 1.328 . S
N53 C52 1.315 . S
H54 C48 0.929 . S
H55 C52 0.930 . S
H56 C44 0.929 1_556 S
H57 C46 0.929 . S
O58 Co33 2.351 . S
O58 C61 1.244 . S
O59 Co33 2.155 . S
O59 C61 1.240 . S
O60 Co33 2.096 . S
O60 C41 1.247 . S
C61 O58 1.244 . S
C61 O59 1.240 . S
H62 C36 0.931 . S
H63 C45 0.931 . S
H64 C49 0.929 . S
H65 C51 0.930 . S
Co66 N70 2.148 . S
Co66 N76 2.128 . S
Co66 N86 2.194 1_554 S
Co66 O91 2.351 . S
Co66 O92 2.155 . S
Co66 O93 2.096 . S
C67 N70 1.301 . S
C67 N71 1.328 . S
C67 H72 0.930 . S
C68 C69 1.333 . S
C68 N70 1.317 . S
C68 H73 0.930 . S
C69 C68 1.333 . S
C69 N71 1.350 . S
C69 H95 0.931 . S
N70 Co66 2.148 . S
N70 C67 1.301 . S
N70 C68 1.317 . S
N71 C67 1.328 . S
N71 C69 1.350 . S
H72 C67 0.930 . S
H73 C68 0.930 . S
C74 O75 1.224 1_554 S
C74 O93 1.247 . S
O75 C74 1.224 1_556 S
N76 Co66 2.128 . S
N76 C77 1.355 . S
N76 C79 1.311 . S
C77 N76 1.355 . S
C77 C78 1.363 1_554 S
C77 H89 0.929 1_554 S
C78 C77 1.363 1_556 S
C78 N80 1.375 1_556 S
C78 H96 0.931 . S
C79 N76 1.311 . S
C79 N80 1.347 . S
C79 H90 0.929 . S
N80 C78 1.375 1_554 S
N80 C79 1.347 . S
C81 C84 1.365 . S
C81 N86 1.328 . S
C81 H87 0.929 . S
C82 C83 1.362 . S
C82 C85 1.378 . S
C82 H97 0.929 . S
C83 C82 1.362 . S
C83 C84 1.366 . S
C84 C81 1.365 . S
C84 C83 1.366 . S
C84 H98 0.930 . S
C85 C82 1.378 . S
C85 N86 1.315 . S
C85 H88 0.930 . S
N86 Co66 2.194 1_556 S
N86 C81 1.328 . S
N86 C85 1.315 . S
H87 C81 0.929 . S
H88 C85 0.930 . S
H89 C77 0.929 1_556 S
H90 C79 0.929 . S
O91 Co66 2.351 . S
O91 C94 1.244 . S
O92 Co66 2.155 . S
O92 C94 1.240 . S
O93 Co66 2.096 . S
O93 C74 1.247 . S
C94 O91 1.244 . S
C94 O92 1.240 . S
H95 C69 0.931 . S
H96 C78 0.931 . S
H97 C82 0.929 . S
H98 C84 0.930 . S
Co99 N103 2.148 . S
Co99 N109 2.128 . S
Co99 N119 2.194 1_554 S
Co99 O124 2.351 . S
Co99 O125 2.155 . S
Co99 O126 2.096 . S
C100 N103 1.301 . S
C100 N104 1.328 . S
C100 H105 0.930 . S
C101 C102 1.333 . S
C101 N103 1.317 . S
C101 H106 0.930 . S
C102 C101 1.333 . S
C102 N104 1.350 . S
C102 H128 0.931 . S
N103 Co99 2.148 . S
N103 C100 1.301 . S
N103 C101 1.317 . S
N104 C100 1.328 . S
N104 C102 1.350 . S
H105 C100 0.930 . S
H106 C101 0.930 . S
C107 O108 1.224 1_554 S
C107 O126 1.247 . S
O108 C107 1.224 1_556 S
N109 Co99 2.128 . S
N109 C110 1.355 . S
N109 C112 1.311 . S
C110 N109 1.355 . S
C110 C111 1.363 1_554 S
C110 H122 0.929 1_554 S
C111 C110 1.363 1_556 S
C111 N113 1.375 1_556 S
C111 H129 0.931 . S
C112 N109 1.311 . S
C112 N113 1.347 . S
C112 H123 0.929 . S
N113 C111 1.375 1_554 S
N113 C112 1.347 . S
C114 C117 1.365 . S
C114 N119 1.328 . S
C114 H120 0.929 . S
C115 C116 1.362 . S
C115 C118 1.378 . S
C115 H130 0.929 . S
C116 C115 1.362 . S
C116 C117 1.366 . S
C117 C114 1.365 . S
C117 C116 1.366 . S
C117 H131 0.930 . S
C118 C115 1.378 . S
C118 N119 1.315 . S
C118 H121 0.930 . S
N119 Co99 2.194 1_556 S
N119 C114 1.328 . S
N119 C118 1.315 . S
H120 C114 0.929 . S
H121 C118 0.930 . S
H122 C110 0.929 1_556 S
H123 C112 0.929 . S
O124 Co99 2.351 . S
O124 C127 1.244 . S
O125 Co99 2.155 . S
O125 C127 1.240 . S
O126 Co99 2.096 . S
O126 C107 1.247 . S
C127 O124 1.244 . S
C127 O125 1.240 . S
H128 C102 0.931 . S
H129 C111 0.931 . S
H130 C115 0.929 . S
H131 C117 0.930 . S
Co132 N136 2.148 . S
Co132 N142 2.128 . S
Co132 N152 2.194 . S
Co132 O157 2.351 . S
Co132 O158 2.155 . S
Co132 O159 2.096 . S
C133 N136 1.301 . S
C133 N137 1.328 . S
C133 H138 0.930 . S
C134 C135 1.333 . S
C134 N136 1.317 . S
C134 H139 0.930 . S
C135 C134 1.333 . S
C135 N137 1.350 . S
C135 H161 0.931 . S
N136 Co132 2.148 . S
N136 C133 1.301 . S
N136 C134 1.317 . S
N137 C133 1.328 . S
N137 C135 1.350 . S
H138 C133 0.930 . S
H139 C134 0.930 . S
C140 O141 1.224 . S
C140 O159 1.247 . S
O141 C140 1.224 . S
N142 Co132 2.128 . S
N142 C143 1.355 . S
N142 C145 1.311 . S
C143 N142 1.355 . S
C143 C144 1.363 . S
C143 H155 0.929 . S
C144 C143 1.363 . S
C144 N146 1.375 . S
C144 H162 0.931 . S
C145 N142 1.311 . S
C145 N146 1.347 . S
C145 H156 0.929 . S
N146 C144 1.375 . S
N146 C145 1.347 . S
C147 C150 1.365 . S
C147 N152 1.328 . S
C147 H153 0.929 . S
C148 C149 1.362 . S
C148 C151 1.378 . S
C148 H163 0.929 . S
C149 C148 1.362 . S
C149 C150 1.366 . S
C150 C147 1.365 . S
C150 C149 1.366 . S
C150 H164 0.930 . S
C151 C148 1.378 . S
C151 N152 1.315 . S
C151 H154 0.930 . S
N152 Co132 2.194 . S
N152 C147 1.328 . S
N152 C151 1.315 . S
H153 C147 0.929 . S
H154 C151 0.930 . S
H155 C143 0.929 . S
H156 C145 0.929 . S
O157 Co132 2.351 . S
O157 C160 1.244 . S
O158 Co132 2.155 . S
O158 C160 1.240 . S
O159 Co132 2.096 . S
O159 C140 1.247 . S
C160 O157 1.244 . S
C160 O158 1.240 . S
H161 C135 0.931 . S
H162 C144 0.931 . S
H163 C148 0.929 . S
H164 C150 0.930 . S
Co165 N169 2.148 . S
Co165 N175 2.128 . S
Co165 N185 2.194 . S
Co165 O190 2.351 . S
Co165 O191 2.155 . S
Co165 O192 2.096 . S
C166 N169 1.301 . S
C166 N170 1.328 . S
C166 H171 0.930 . S
C167 C168 1.333 . S
C167 N169 1.317 . S
C167 H172 0.930 . S
C168 C167 1.333 . S
C168 N170 1.350 . S
C168 H194 0.931 . S
N169 Co165 2.148 . S
N169 C166 1.301 . S
N169 C167 1.317 . S
N170 C166 1.328 . S
N170 C168 1.350 . S
H171 C166 0.930 . S
H172 C167 0.930 . S
C173 O174 1.224 . S
C173 O192 1.247 . S
O174 C173 1.224 . S
N175 Co165 2.128 . S
N175 C176 1.355 . S
N175 C178 1.311 . S
C176 N175 1.355 . S
C176 C177 1.363 . S
C176 H188 0.929 . S
C177 C176 1.363 . S
C177 N179 1.375 . S
C177 H195 0.931 . S
C178 N175 1.311 . S
C178 N179 1.347 . S
C178 H189 0.929 . S
N179 C177 1.375 . S
N179 C178 1.347 . S
C180 C183 1.365 . S
C180 N185 1.328 . S
C180 H186 0.929 . S
C181 C182 1.362 . S
C181 C184 1.378 . S
C181 H196 0.929 . S
C182 C181 1.362 . S
C182 C183 1.366 . S
C183 C180 1.365 . S
C183 C182 1.366 . S
C183 H197 0.930 . S
C184 C181 1.378 . S
C184 N185 1.315 . S
C184 H187 0.930 . S
N185 Co165 2.194 . S
N185 C180 1.328 . S
N185 C184 1.315 . S
H186 C180 0.929 . S
H187 C184 0.930 . S
H188 C176 0.929 . S
H189 C178 0.929 . S
O190 Co165 2.351 . S
O190 C193 1.244 . S
O191 Co165 2.155 . S
O191 C193 1.240 . S
O192 Co165 2.096 . S
O192 C173 1.247 . S
C193 O190 1.244 . S
C193 O191 1.240 . S
H194 C168 0.931 . S
H195 C177 0.931 . S
H196 C181 0.929 . S
H197 C183 0.930 . S
Co198 N202 2.148 . S
Co198 N208 2.128 . S
Co198 N218 2.194 . S
Co198 O223 2.351 . S
Co198 O224 2.155 . S
Co198 O225 2.096 . S
C199 N202 1.301 . S
C199 N203 1.328 . S
C199 H204 0.930 . S
C200 C201 1.333 . S
C200 N202 1.317 . S
C200 H205 0.930 . S
C201 C200 1.333 . S
C201 N203 1.350 . S
C201 H227 0.931 . S
N202 Co198 2.148 . S
N202 C199 1.301 . S
N202 C200 1.317 . S
N203 C199 1.328 . S
N203 C201 1.350 . S
H204 C199 0.930 . S
H205 C200 0.930 . S
C206 O207 1.224 . S
C206 O225 1.247 . S
O207 C206 1.224 . S
N208 Co198 2.128 . S
N208 C209 1.355 . S
N208 C211 1.311 . S
C209 N208 1.355 . S
C209 C210 1.363 . S
C209 H221 0.929 . S
C210 C209 1.363 . S
C210 N212 1.375 . S
C210 H228 0.931 . S
C211 N208 1.311 . S
C211 N212 1.347 . S
C211 H222 0.929 . S
N212 C210 1.375 . S
N212 C211 1.347 . S
C213 C216 1.365 . S
C213 N218 1.328 . S
C213 H219 0.929 . S
C214 C215 1.362 . S
C214 C217 1.378 . S
C214 H229 0.929 . S
C215 C214 1.362 . S
C215 C216 1.366 . S
C216 C213 1.365 . S
C216 C215 1.366 . S
C216 H230 0.930 . S
C217 C214 1.378 . S
C217 N218 1.315 . S
C217 H220 0.930 . S
N218 Co198 2.194 . S
N218 C213 1.328 . S
N218 C217 1.315 . S
H219 C213 0.929 . S
H220 C217 0.930 . S
H221 C209 0.929 . S
H222 C211 0.929 . S
O223 Co198 2.351 . S
O223 C226 1.244 . S
O224 Co198 2.155 . S
O224 C226 1.240 . S
O225 Co198 2.096 . S
O225 C206 1.247 . S
C226 O223 1.244 . S
C226 O224 1.240 . S
H227 C201 0.931 . S
H228 C210 0.931 . S
H229 C214 0.929 . S
H230 C216 0.930 . S
Co231 N235 2.148 . S
Co231 N241 2.128 . S
Co231 N251 2.194 . S
Co231 O256 2.351 . S
Co231 O257 2.155 . S
Co231 O258 2.096 . S
C232 N235 1.301 . S
C232 N236 1.328 . S
C232 H237 0.930 . S
C233 C234 1.333 . S
C233 N235 1.317 . S
C233 H238 0.930 . S
C234 C233 1.333 . S
C234 N236 1.350 . S
C234 H260 0.931 . S
N235 Co231 2.148 . S
N235 C232 1.301 . S
N235 C233 1.317 . S
N236 C232 1.328 . S
N236 C234 1.350 . S
H237 C232 0.930 . S
H238 C233 0.930 . S
C239 O240 1.224 . S
C239 O258 1.247 . S
O240 C239 1.224 . S
N241 Co231 2.128 . S
N241 C242 1.355 . S
N241 C244 1.311 . S
C242 N241 1.355 . S
C242 C243 1.363 . S
C242 H254 0.929 . S
C243 C242 1.363 . S
C243 N245 1.375 . S
C243 H261 0.931 . S
C244 N241 1.311 . S
C244 N245 1.347 . S
C244 H255 0.929 . S
N245 C243 1.375 . S
N245 C244 1.347 . S
C246 C249 1.365 . S
C246 N251 1.328 . S
C246 H252 0.929 . S
C247 C248 1.362 . S
C247 C250 1.378 . S
C247 H262 0.929 . S
C248 C247 1.362 . S
C248 C249 1.366 . S
C249 C246 1.365 . S
C249 C248 1.366 . S
C249 H263 0.930 . S
C250 C247 1.378 . S
C250 N251 1.315 . S
C250 H253 0.930 . S
N251 Co231 2.194 . S
N251 C246 1.328 . S
N251 C250 1.315 . S
H252 C246 0.929 . S
H253 C250 0.930 . S
H254 C242 0.929 . S
H255 C244 0.929 . S
O256 Co231 2.351 . S
O256 C259 1.244 . S
O257 Co231 2.155 . S
O257 C259 1.240 . S
O258 Co231 2.096 . S
O258 C239 1.247 . S
C259 O256 1.244 . S
C259 O257 1.240 . S
H260 C234 0.931 . S
H261 C243 0.931 . S
H262 C247 0.929 . S
H263 C249 0.930 . S
C264 C265 1.349 . S
C264 C266 1.327 . S
C264 H289 0.950 . S
C265 C264 1.349 . S
C265 C281 1.349 1_554 S
C266 C264 1.327 . S
C266 C285 1.429 . S
C266 H290 0.950 . S
C267 C284 1.574 . S
C267 C286 1.368 1_556 S
C267 H291 0.949 . S
H268 C272 0.949 . S
C269 C270 1.349 1_556 S
C269 C271 1.327 . S
C269 H292 0.950 . S
C270 C269 1.349 1_554 S
C270 C282 1.349 . S
C271 C269 1.327 . S
C271 C287 1.429 1_556 S
C271 H293 0.950 . S
C272 H268 0.949 . S
C272 C280 1.574 . S
C272 C288 1.368 . S
H273 C281 0.950 . S
H274 C279 0.950 . S
H275 C280 0.949 . S
H276 C282 0.950 . S
H277 C283 0.950 . S
H278 C284 0.949 . S
C279 H274 0.950 . S
C279 C281 1.327 . S
C279 C285 1.429 1_556 S
C280 C272 1.574 . S
C280 H275 0.949 . S
C280 C286 1.368 . S
C281 C265 1.349 1_556 S
C281 H273 0.950 . S
C281 C279 1.327 . S
C282 C270 1.349 . S
C282 H276 0.950 . S
C282 C283 1.327 . S
C283 H277 0.950 . S
C283 C282 1.327 . S
C283 C287 1.429 . S
C284 C267 1.574 . S
C284 H278 0.949 . S
C284 C288 1.368 1_556 S
C285 C266 1.429 . S
C285 C279 1.429 1_554 S
C285 C286 1.523 . S
C286 C267 1.368 1_554 S
C286 C280 1.368 . S
C286 C285 1.523 . S
C287 C271 1.429 1_554 S
C287 C283 1.429 . S
C287 C288 1.523 . S
C288 C272 1.368 . S
C288 C284 1.368 1_554 S
C288 C287 1.523 . S
H289 C264 0.950 . S
H290 C266 0.950 . S
H291 C267 0.949 . S
H292 C269 0.950 . S
H293 C271 0.950 . S
C294 C295 1.349 1_556 S
C294 C296 1.327 . S
C294 H319 0.950 . S
C295 C294 1.349 1_554 S
C295 C311 1.349 . S
C296 C294 1.327 . S
C296 C315 1.429 1_556 S
C296 H320 0.950 . S
C297 C314 1.574 . S
C297 C316 1.368 . S
C297 H321 0.949 . S
H298 C302 0.949 . S
C299 C300 1.349 . S
C299 C301 1.327 . S
C299 H322 0.950 . S
C300 C299 1.349 . S
C300 C312 1.349 1_554 S
C301 C299 1.327 . S
C301 C317 1.429 . S
C301 H323 0.950 . S
C302 H298 0.949 . S
C302 C310 1.574 . S
C302 C318 1.368 1_556 S
H303 C311 0.950 . S
H304 C309 0.950 . S
H305 C310 0.949 . S
H306 C312 0.950 . S
H307 C313 0.950 . S
H308 C314 0.949 . S
C309 H304 0.950 . S
C309 C311 1.327 . S
C309 C315 1.429 . S
C310 C302 1.574 . S
C310 H305 0.949 . S
C310 C316 1.368 1_556 S
C311 C295 1.349 . S
C311 H303 0.950 . S
C311 C309 1.327 . S
C312 C300 1.349 1_556 S
C312 H306 0.950 . S
C312 C313 1.327 . S
C313 H307 0.950 . S
C313 C312 1.327 . S
C313 C317 1.429 1_556 S
C314 C297 1.574 . S
C314 H308 0.949 . S
C314 C318 1.368 . S
C315 C296 1.429 1_554 S
C315 C309 1.429 . S
C315 C316 1.523 . S
C316 C297 1.368 . S
C316 C310 1.368 1_554 S
C316 C315 1.523 . S
C317 C301 1.429 . S
C317 C313 1.429 1_554 S
C317 C318 1.523 . S
C318 C302 1.368 1_554 S
C318 C314 1.368 . S
C318 C317 1.523 . S
H319 C294 0.950 . S
H320 C296 0.950 . S
H321 C297 0.949 . S
H322 C299 0.950 . S
H323 C301 0.950 . S
C324 C325 1.349 1_556 S
C324 C326 1.327 . S
C324 H349 0.950 . S
C325 C324 1.349 1_554 S
C325 C341 1.349 . S
C326 C324 1.327 . S
C326 C345 1.429 1_556 S
C326 H350 0.950 . S
C327 C344 1.574 . S
C327 C346 1.368 . S
C327 H351 0.949 . S
H328 C332 0.949 . S
C329 C330 1.349 . S
C329 C331 1.327 . S
C329 H352 0.950 . S
C330 C329 1.349 . S
C330 C342 1.349 1_554 S
C331 C329 1.327 . S
C331 C347 1.429 . S
C331 H353 0.950 . S
C332 H328 0.949 . S
C332 C340 1.574 . S
C332 C348 1.368 1_556 S
H333 C341 0.950 . S
H334 C339 0.950 . S
H335 C340 0.949 . S
H336 C342 0.950 . S
H337 C343 0.950 . S
H338 C344 0.949 . S
C339 H334 0.950 . S
C339 C341 1.327 . S
C339 C345 1.429 . S
C340 C332 1.574 . S
C340 H335 0.949 . S
C340 C346 1.368 1_556 S
C341 C325 1.349 . S
C341 H333 0.950 . S
C341 C339 1.327 . S
C342 C330 1.349 1_556 S
C342 H336 0.950 . S
C342 C343 1.327 . S
C343 H337 0.950 . S
C343 C342 1.327 . S
C343 C347 1.429 1_556 S
C344 C327 1.574 . S
C344 H338 0.949 . S
C344 C348 1.368 . S
C345 C326 1.429 1_554 S
C345 C339 1.429 . S
C345 C346 1.523 . S
C346 C327 1.368 . S
C346 C340 1.368 1_554 S
C346 C345 1.523 . S
C347 C331 1.429 . S
C347 C343 1.429 1_554 S
C347 C348 1.523 . S
C348 C332 1.368 1_554 S
C348 C344 1.368 . S
C348 C347 1.523 . S
H349 C324 0.950 . S
H350 C326 0.950 . S
H351 C327 0.949 . S
H352 C329 0.950 . S
H353 C331 0.950 . S
C354 C355 1.349 1_556 S
C354 C356 1.327 . S
C354 H379 0.950 . S
C355 C354 1.349 1_554 S
C355 C371 1.349 . S
C356 C354 1.327 . S
C356 C375 1.429 1_556 S
C356 H380 0.950 . S
C357 C374 1.574 . S
C357 C376 1.368 . S
C357 H381 0.949 . S
H358 C362 0.949 . S
C359 C360 1.349 . S
C359 C361 1.327 . S
C359 H382 0.950 . S
C360 C359 1.349 . S
C360 C372 1.349 1_554 S
C361 C359 1.327 . S
C361 C377 1.429 . S
C361 H383 0.950 . S
C362 H358 0.949 . S
C362 C370 1.574 . S
C362 C378 1.368 1_556 S
H363 C371 0.950 . S
H364 C369 0.950 . S
H365 C370 0.949 . S
H366 C372 0.950 . S
H367 C373 0.950 . S
H368 C374 0.949 . S
C369 H364 0.950 . S
C369 C371 1.327 . S
C369 C375 1.429 . S
C370 C362 1.574 . S
C370 H365 0.949 . S
C370 C376 1.368 1_556 S
C371 C355 1.349 . S
C371 H363 0.950 . S
C371 C369 1.327 . S
C372 C360 1.349 1_556 S
C372 H366 0.950 . S
C372 C373 1.327 . S
C373 H367 0.950 . S
C373 C372 1.327 . S
C373 C377 1.429 1_556 S
C374 C357 1.574 . S
C374 H368 0.949 . S
C374 C378 1.368 . S
C375 C356 1.429 1_554 S
C375 C369 1.429 . S
C375 C376 1.523 . S
C376 C357 1.368 . S
C376 C370 1.368 1_554 S
C376 C375 1.523 . S
C377 C361 1.429 . S
C377 C373 1.429 1_554 S
C377 C378 1.523 . S
C378 C362 1.368 1_554 S
C378 C374 1.368 . S
C378 C377 1.523 . S
H379 C354 0.950 . S
H380 C356 0.950 . S
H381 C357 0.949 . S
H382 C359 0.950 . S
H383 C361 0.950 . S
C384 C385 1.349 . S
C384 C386 1.327 . S
C384 H409 0.950 . S
C385 C384 1.349 . S
C385 C401 1.349 . S
C386 C384 1.327 . S
C386 C405 1.429 . S
C386 H410 0.950 . S
C387 C404 1.574 . S
C387 C406 1.368 . S
C387 H411 0.949 . S
H388 C392 0.949 . S
C389 C390 1.349 . S
C389 C391 1.327 . S
C389 H412 0.950 . S
C390 C389 1.349 . S
C390 C402 1.349 . S
C391 C389 1.327 . S
C391 C407 1.429 . S
C391 H413 0.950 . S
C392 H388 0.949 . S
C392 C400 1.574 . S
C392 C408 1.368 . S
H393 C401 0.950 . S
H394 C399 0.950 . S
H395 C400 0.949 . S
H396 C402 0.950 . S
H397 C403 0.950 . S
H398 C404 0.949 . S
C399 H394 0.950 . S
C399 C401 1.327 . S
C399 C405 1.429 . S
C400 C392 1.574 . S
C400 H395 0.949 . S
C400 C406 1.368 . S
C401 C385 1.349 . S
C401 H393 0.950 . S
C401 C399 1.327 . S
C402 C390 1.349 . S
C402 H396 0.950 . S
C402 C403 1.327 . S
C403 H397 0.950 . S
C403 C402 1.327 . S
C403 C407 1.429 . S
C404 C387 1.574 . S
C404 H398 0.949 . S
C404 C408 1.368 . S
C405 C386 1.429 . S
C405 C399 1.429 . S
C405 C406 1.523 1_455 S
C406 C387 1.368 . S
C406 C400 1.368 . S
C406 C405 1.523 1_655 S
C407 C391 1.429 . S
C407 C403 1.429 . S
C407 C408 1.523 . S
C408 C392 1.368 . S
C408 C404 1.368 . S
C408 C407 1.523 . S
H409 C384 0.950 . S
H410 C386 0.950 . S
H411 C387 0.949 . S
H412 C389 0.950 . S
H413 C391 0.950 . S
C414 C415 1.349 . S
C414 C416 1.327 . S
C414 H439 0.950 . S
C415 C414 1.349 . S
C415 C431 1.349 . S
C416 C414 1.327 . S
C416 C435 1.429 . S
C416 H440 0.950 . S
C417 C434 1.574 . S
C417 C436 1.368 . S
C417 H441 0.949 . S
H418 C422 0.949 . S
C419 C420 1.349 . S
C419 C421 1.327 . S
C419 H442 0.950 . S
C420 C419 1.349 . S
C420 C432 1.349 . S
C421 C419 1.327 . S
C421 C437 1.429 . S
C421 H443 0.950 . S
C422 H418 0.949 . S
C422 C430 1.574 . S
C422 C438 1.368 . S
H423 C431 0.950 . S
H424 C429 0.950 . S
H425 C430 0.949 . S
H426 C432 0.950 . S
H427 C433 0.950 . S
H428 C434 0.949 . S
C429 H424 0.950 . S
C429 C431 1.327 . S
C429 C435 1.429 . S
C430 C422 1.574 . S
C430 H425 0.949 . S
C430 C436 1.368 . S
C431 C415 1.349 . S
C431 H423 0.950 . S
C431 C429 1.327 . S
C432 C420 1.349 . S
C432 H426 0.950 . S
C432 C433 1.327 . S
C433 H427 0.950 . S
C433 C432 1.327 . S
C433 C437 1.429 . S
C434 C417 1.574 . S
C434 H428 0.949 . S
C434 C438 1.368 . S
C435 C416 1.429 . S
C435 C429 1.429 . S
C435 C436 1.523 1_545 S
C436 C417 1.368 . S
C436 C430 1.368 . S
C436 C435 1.523 1_565 S
C437 C421 1.429 . S
C437 C433 1.429 . S
C437 C438 1.523 . S
C438 C422 1.368 . S
C438 C434 1.368 . S
C438 C437 1.523 . S
H439 C414 0.950 . S
H440 C416 0.950 . S
H441 C417 0.949 . S
H442 C419 0.950 . S
H443 C421 0.950 . S
C444 C445 1.349 . S
C444 C446 1.327 . S
C444 H469 0.950 . S
C445 C444 1.349 . S
C445 C461 1.349 . S
C446 C444 1.327 . S
C446 C465 1.429 . S
C446 H470 0.950 . S
C447 C464 1.574 . S
C447 C466 1.368 . S
C447 H471 0.949 . S
H448 C452 0.949 . S
C449 C450 1.349 . S
C449 C451 1.327 . S
C449 H472 0.950 . S
C450 C449 1.349 . S
C450 C462 1.349 . S
C451 C449 1.327 . S
C451 C467 1.429 . S
C451 H473 0.950 . S
C452 H448 0.949 . S
C452 C460 1.574 . S
C452 C468 1.368 . S
H453 C461 0.950 . S
H454 C459 0.950 . S
H455 C460 0.949 . S
H456 C462 0.950 . S
H457 C463 0.950 . S
H458 C464 0.949 . S
C459 H454 0.950 . S
C459 C461 1.327 . S
C459 C465 1.429 . S
C460 C452 1.574 . S
C460 H455 0.949 . S
C460 C466 1.368 . S
C461 C445 1.349 . S
C461 H453 0.950 . S
C461 C459 1.327 . S
C462 C450 1.349 . S
C462 H456 0.950 . S
C462 C463 1.327 . S
C463 H457 0.950 . S
C463 C462 1.327 . S
C463 C467 1.429 . S
C464 C447 1.574 . S
C464 H458 0.949 . S
C464 C468 1.368 . S
C465 C446 1.429 . S
C465 C459 1.429 . S
C465 C466 1.523 . S
C466 C447 1.368 . S
C466 C460 1.368 . S
C466 C465 1.523 . S
C467 C451 1.429 . S
C467 C463 1.429 . S
C467 C468 1.523 1_655 S
C468 C452 1.368 . S
C468 C464 1.368 . S
C468 C467 1.523 1_455 S
H469 C444 0.950 . S
H470 C446 0.950 . S
H471 C447 0.949 . S
H472 C449 0.950 . S
H473 C451 0.950 . S
C474 C475 1.349 . S
C474 C476 1.327 . S
C474 H499 0.950 . S
C475 C474 1.349 . S
C475 C491 1.349 . S
C476 C474 1.327 . S
C476 C495 1.429 . S
C476 H500 0.950 . S
C477 C494 1.574 . S
C477 C496 1.368 . S
C477 H501 0.949 . S
H478 C482 0.949 . S
C479 C480 1.349 . S
C479 C481 1.327 . S
C479 H502 0.950 . S
C480 C479 1.349 . S
C480 C492 1.349 . S
C481 C479 1.327 . S
C481 C497 1.429 . S
C481 H503 0.950 . S
C482 H478 0.949 . S
C482 C490 1.574 . S
C482 C498 1.368 . S
H483 C491 0.950 . S
H484 C489 0.950 . S
H485 C490 0.949 . S
H486 C492 0.950 . S
H487 C493 0.950 . S
H488 C494 0.949 . S
C489 H484 0.950 . S
C489 C491 1.327 . S
C489 C495 1.429 . S
C490 C482 1.574 . S
C490 H485 0.949 . S
C490 C496 1.368 . S
C491 C475 1.349 . S
C491 H483 0.950 . S
C491 C489 1.327 . S
C492 C480 1.349 . S
C492 H486 0.950 . S
C492 C493 1.327 . S
C493 H487 0.950 . S
C493 C492 1.327 . S
C493 C497 1.429 . S
C494 C477 1.574 . S
C494 H488 0.949 . S
C494 C498 1.368 . S
C495 C476 1.429 . S
C495 C489 1.429 . S
C495 C496 1.523 . S
C496 C477 1.368 . S
C496 C490 1.368 . S
C496 C495 1.523 . S
C497 C481 1.429 . S
C497 C493 1.429 . S
C497 C498 1.523 1_565 S
C498 C482 1.368 . S
C498 C494 1.368 . S
C498 C497 1.523 1_545 S
H499 C474 0.950 . S
H500 C476 0.950 . S
H501 C477 0.949 . S
H502 C479 0.950 . S
H503 C481 0.950 . S
C504 C505 1.349 . S
C504 C506 1.327 . S
C504 H529 0.950 . S
C505 C504 1.349 . S
C505 C521 1.349 . S
C506 C504 1.327 . S
C506 C525 1.429 . S
C506 H530 0.950 . S
C507 C524 1.574 . S
C507 C526 1.368 . S
C507 H531 0.949 . S
H508 C512 0.949 . S
C509 C510 1.349 . S
C509 C511 1.327 . S
C509 H532 0.950 . S
C510 C509 1.349 . S
C510 C522 1.349 . S
C511 C509 1.327 . S
C511 C527 1.429 . S
C511 H533 0.950 . S
C512 H508 0.949 . S
C512 C520 1.574 . S
C512 C528 1.368 . S
H513 C521 0.950 . S
H514 C519 0.950 . S
H515 C520 0.949 . S
H516 C522 0.950 . S
H517 C523 0.950 . S
H518 C524 0.949 . S
C519 H514 0.950 . S
C519 C521 1.327 . S
C519 C525 1.429 . S
C520 C512 1.574 . S
C520 H515 0.949 . S
C520 C526 1.368 . S
C521 C505 1.349 . S
C521 H513 0.950 . S
C521 C519 1.327 . S
C522 C510 1.349 . S
C522 H516 0.950 . S
C522 C523 1.327 . S
C523 H517 0.950 . S
C523 C522 1.327 . S
C523 C527 1.429 . S
C524 C507 1.574 . S
C524 H518 0.949 . S
C524 C528 1.368 . S
C525 C506 1.429 . S
C525 C519 1.429 . S
C525 C526 1.523 . S
C526 C507 1.368 . S
C526 C520 1.368 . S
C526 C525 1.523 . S
C527 C511 1.429 . S
C527 C523 1.429 . S
C527 C528 1.523 . S
C528 C512 1.368 . S
C528 C524 1.368 . S
C528 C527 1.523 . S
H529 C504 0.950 . S
H530 C506 0.950 . S
H531 C507 0.949 . S
H532 C509 0.950 . S
H533 C511 0.950 . S
C534 C535 1.349 . S
C534 C536 1.327 . S
C534 H559 0.950 . S
C535 C534 1.349 . S
C535 C551 1.349 . S
C536 C534 1.327 . S
C536 C555 1.429 . S
C536 H560 0.950 . S
C537 C554 1.574 . S
C537 C556 1.368 . S
C537 H561 0.949 . S
H538 C542 0.949 . S
C539 C540 1.349 . S
C539 C541 1.327 . S
C539 H562 0.950 . S
C540 C539 1.349 . S
C540 C552 1.349 . S
C541 C539 1.327 . S
C541 C557 1.429 . S
C541 H563 0.950 . S
C542 H538 0.949 . S
C542 C550 1.574 . S
C542 C558 1.368 . S
H543 C551 0.950 . S
H544 C549 0.950 . S
H545 C550 0.949 . S
H546 C552 0.950 . S
H547 C553 0.950 . S
H548 C554 0.949 . S
C549 H544 0.950 . S
C549 C551 1.327 . S
C549 C555 1.429 . S
C550 C542 1.574 . S
C550 H545 0.949 . S
C550 C556 1.368 . S
C551 C535 1.349 . S
C551 H543 0.950 . S
C551 C549 1.327 . S
C552 C540 1.349 . S
C552 H546 0.950 . S
C552 C553 1.327 . S
C553 H547 0.950 . S
C553 C552 1.327 . S
C553 C557 1.429 . S
C554 C537 1.574 . S
C554 H548 0.949 . S
C554 C558 1.368 . S
C555 C536 1.429 . S
C555 C549 1.429 . S
C555 C556 1.523 . S
C556 C537 1.368 . S
C556 C550 1.368 . S
C556 C555 1.523 . S
C557 C541 1.429 . S
C557 C553 1.429 . S
C557 C558 1.523 . S
C558 C542 1.368 . S
C558 C554 1.368 . S
C558 C557 1.523 . S
H559 C534 0.950 . S
H560 C536 0.950 . S
H561 C537 0.949 . S
H562 C539 0.950 . S
H563 C541 0.950 . S
C564 C565 1.349 . S
C564 C566 1.327 . S
C564 H589 0.950 . S
C565 C564 1.349 . S
C565 C581 1.349 . S
C566 C564 1.327 . S
C566 C585 1.429 . S
C566 H590 0.950 . S
C567 C584 1.574 . S
C567 C586 1.368 . S
C567 H591 0.949 . S
H568 C572 0.949 . S
C569 C570 1.349 . S
C569 C571 1.327 . S
C569 H592 0.950 . S
C570 C569 1.349 . S
C570 C582 1.349 . S
C571 C569 1.327 . S
C571 C587 1.429 . S
C571 H593 0.950 . S
C572 H568 0.949 . S
C572 C580 1.574 . S
C572 C588 1.368 . S
H573 C581 0.950 . S
H574 C579 0.950 . S
H575 C580 0.949 . S
H576 C582 0.950 . S
H577 C583 0.950 . S
H578 C584 0.949 . S
C579 H574 0.950 . S
C579 C581 1.327 . S
C579 C585 1.429 . S
C580 C572 1.574 . S
C580 H575 0.949 . S
C580 C586 1.368 . S
C581 C565 1.349 . S
C581 H573 0.950 . S
C581 C579 1.327 . S
C582 C570 1.349 . S
C582 H576 0.950 . S
C582 C583 1.327 . S
C583 H577 0.950 . S
C583 C582 1.327 . S
C583 C587 1.429 . S
C584 C567 1.574 . S
C584 H578 0.949 . S
C584 C588 1.368 . S
C585 C566 1.429 . S
C585 C579 1.429 . S
C585 C586 1.523 . S
C586 C567 1.368 . S
C586 C580 1.368 . S
C586 C585 1.523 . S
C587 C571 1.429 . S
C587 C583 1.429 . S
C587 C588 1.523 . S
C588 C572 1.368 . S
C588 C584 1.368 . S
C588 C587 1.523 . S
H589 C564 0.950 . S
H590 C566 0.950 . S
H591 C567 0.949 . S
H592 C569 0.950 . S
H593 C571 0.950 . S
C594 C595 1.349 . S
C594 C596 1.327 . S
C594 H619 0.950 . S
C595 C594 1.349 . S
C595 C611 1.349 . S
C596 C594 1.327 . S
C596 C615 1.429 . S
C596 H620 0.950 . S
C597 C614 1.574 . S
C597 C616 1.368 . S
C597 H621 0.949 . S
H598 C602 0.949 . S
C599 C600 1.349 . S
C599 C601 1.327 . S
C599 H622 0.950 . S
C600 C599 1.349 . S
C600 C612 1.349 . S
C601 C599 1.327 . S
C601 C617 1.429 . S
C601 H623 0.950 . S
C602 H598 0.949 . S
C602 C610 1.574 . S
C602 C618 1.368 . S
H603 C611 0.950 . S
H604 C609 0.950 . S
H605 C610 0.949 . S
H606 C612 0.950 . S
H607 C613 0.950 . S
H608 C614 0.949 . S
C609 H604 0.950 . S
C609 C611 1.327 . S
C609 C615 1.429 . S
C610 C602 1.574 . S
C610 H605 0.949 . S
C610 C616 1.368 . S
C611 C595 1.349 . S
C611 H603 0.950 . S
C611 C609 1.327 . S
C612 C600 1.349 . S
C612 H606 0.950 . S
C612 C613 1.327 . S
C613 H607 0.950 . S
C613 C612 1.327 . S
C613 C617 1.429 . S
C614 C597 1.574 . S
C614 H608 0.949 . S
C614 C618 1.368 . S
C615 C596 1.429 . S
C615 C609 1.429 . S
C615 C616 1.523 . S
C616 C597 1.368 . S
C616 C610 1.368 . S
C616 C615 1.523 . S
C617 C601 1.429 . S
C617 C613 1.429 . S
C617 C618 1.523 . S
C618 C602 1.368 . S
C618 C614 1.368 . S
C618 C617 1.523 . S
H619 C594 0.950 . S
H620 C596 0.950 . S
H621 C597 0.949 . S
H622 C599 0.950 . S
H623 C601 0.950 . S
C624 C625 1.349 . S
C624 C626 1.327 . S
C624 H649 0.950 . S
C625 C624 1.349 . S
C625 C641 1.349 . S
C626 C624 1.327 . S
C626 C645 1.429 . S
C626 H650 0.950 . S
C627 C644 1.574 . S
C627 C646 1.368 . S
C627 H651 0.949 . S
H628 C632 0.949 . S
C629 C630 1.349 . S
C629 C631 1.327 . S
C629 H652 0.950 . S
C630 C629 1.349 . S
C630 C642 1.349 . S
C631 C629 1.327 . S
C631 C647 1.429 . S
C631 H653 0.950 . S
C632 H628 0.949 . S
C632 C640 1.574 . S
C632 C648 1.368 . S
H633 C641 0.950 . S
H634 C639 0.950 . S
H635 C640 0.949 . S
H636 C642 0.950 . S
H637 C643 0.950 . S
H638 C644 0.949 . S
C639 H634 0.950 . S
C639 C641 1.327 . S
C639 C645 1.429 . S
C640 C632 1.574 . S
C640 H635 0.949 . S
C640 C646 1.368 . S
C641 C625 1.349 . S
C641 H633 0.950 . S
C641 C639 1.327 . S
C642 C630 1.349 . S
C642 H636 0.950 . S
C642 C643 1.327 . S
C643 H637 0.950 . S
C643 C642 1.327 . S
C643 C647 1.429 . S
C644 C627 1.574 . S
C644 H638 0.949 . S
C644 C648 1.368 . S
C645 C626 1.429 . S
C645 C639 1.429 . S
C645 C646 1.523 . S
C646 C627 1.368 . S
C646 C640 1.368 . S
C646 C645 1.523 . S
C647 C631 1.429 . S
C647 C643 1.429 . S
C647 C648 1.523 . S
C648 C632 1.368 . S
C648 C644 1.368 . S
C648 C647 1.523 . S
H649 C624 0.950 . S
H650 C626 0.950 . S
H651 C627 0.949 . S
H652 C629 0.950 . S
H653 C631 0.950 . S
C654 C655 1.349 . S
C654 C656 1.327 . S
C654 H679 0.950 . S
C655 C654 1.349 . S
C655 C671 1.349 . S
C656 C654 1.327 . S
C656 C675 1.429 . S
C656 H680 0.950 . S
C657 C674 1.574 . S
C657 C676 1.368 . S
C657 H681 0.949 . S
H658 C662 0.949 . S
C659 C660 1.349 . S
C659 C661 1.327 . S
C659 H682 0.950 . S
C660 C659 1.349 . S
C660 C672 1.349 . S
C661 C659 1.327 . S
C661 C677 1.429 . S
C661 H683 0.950 . S
C662 H658 0.949 . S
C662 C670 1.574 . S
C662 C678 1.368 . S
H663 C671 0.950 . S
H664 C669 0.950 . S
H665 C670 0.949 . S
H666 C672 0.950 . S
H667 C673 0.950 . S
H668 C674 0.949 . S
C669 H664 0.950 . S
C669 C671 1.327 . S
C669 C675 1.429 . S
C670 C662 1.574 . S
C670 H665 0.949 . S
C670 C676 1.368 . S
C671 C655 1.349 . S
C671 H663 0.950 . S
C671 C669 1.327 . S
C672 C660 1.349 . S
C672 H666 0.950 . S
C672 C673 1.327 . S
C673 H667 0.950 . S
C673 C672 1.327 . S
C673 C677 1.429 . S
C674 C657 1.574 . S
C674 H668 0.949 . S
C674 C678 1.368 . S
C675 C656 1.429 . S
C675 C669 1.429 . S
C675 C676 1.523 . S
C676 C657 1.368 . S
C676 C670 1.368 . S
C676 C675 1.523 . S
C677 C661 1.429 . S
C677 C673 1.429 . S
C677 C678 1.523 . S
C678 C662 1.368 . S
C678 C674 1.368 . S
C678 C677 1.523 . S
H679 C654 0.950 . S
H680 C656 0.950 . S
H681 C657 0.949 . S
H682 C659 0.950 . S
H683 C661 0.950 . S
C684 C685 1.349 . S
C684 C686 1.327 . S
C684 H709 0.950 . S
C685 C684 1.349 . S
C685 C701 1.349 . S
C686 C684 1.327 . S
C686 C705 1.429 . S
C686 H710 0.950 . S
C687 C704 1.574 . S
C687 C706 1.368 . S
C687 H711 0.949 . S
H688 C692 0.949 . S
C689 C690 1.349 . S
C689 C691 1.327 . S
C689 H712 0.950 . S
C690 C689 1.349 . S
C690 C702 1.349 . S
C691 C689 1.327 . S
C691 C707 1.429 . S
C691 H713 0.950 . S
C692 H688 0.949 . S
C692 C700 1.574 . S
C692 C708 1.368 . S
H693 C701 0.950 . S
H694 C699 0.950 . S
H695 C700 0.949 . S
H696 C702 0.950 . S
H697 C703 0.950 . S
H698 C704 0.949 . S
C699 H694 0.950 . S
C699 C701 1.327 . S
C699 C705 1.429 . S
C700 C692 1.574 . S
C700 H695 0.949 . S
C700 C706 1.368 . S
C701 C685 1.349 . S
C701 H693 0.950 . S
C701 C699 1.327 . S
C702 C690 1.349 . S
C702 H696 0.950 . S
C702 C703 1.327 . S
C703 H697 0.950 . S
C703 C702 1.327 . S
C703 C707 1.429 . S
C704 C687 1.574 . S
C704 H698 0.949 . S
C704 C708 1.368 . S
C705 C686 1.429 . S
C705 C699 1.429 . S
C705 C706 1.523 . S
C706 C687 1.368 . S
C706 C700 1.368 . S
C706 C705 1.523 . S
C707 C691 1.429 . S
C707 C703 1.429 . S
C707 C708 1.523 . S
C708 C692 1.368 . S
C708 C704 1.368 . S
C708 C707 1.523 . S
H709 C684 0.950 . S
H710 C686 0.950 . S
H711 C687 0.949 . S
H712 C689 0.950 . S
H713 C691 0.950 . S
C714 C715 1.349 . S
C714 C716 1.327 . S
C714 H739 0.950 . S
C715 C714 1.349 . S
C715 C731 1.349 . S
C716 C714 1.327 . S
C716 C735 1.429 . S
C716 H740 0.950 . S
C717 C734 1.574 . S
C717 C736 1.368 . S
C717 H741 0.949 . S
H718 C722 0.949 . S
C719 C720 1.349 . S
C719 C721 1.327 . S
C719 H742 0.950 . S
C720 C719 1.349 . S
C720 C732 1.349 . S
C721 C719 1.327 . S
C721 C737 1.429 . S
C721 H743 0.950 . S
C722 H718 0.949 . S
C722 C730 1.574 . S
C722 C738 1.368 . S
H723 C731 0.950 . S
H724 C729 0.950 . S
H725 C730 0.949 . S
H726 C732 0.950 . S
H727 C733 0.950 . S
H728 C734 0.949 . S
C729 H724 0.950 . S
C729 C731 1.327 . S
C729 C735 1.429 . S
C730 C722 1.574 . S
C730 H725 0.949 . S
C730 C736 1.368 . S
C731 C715 1.349 . S
C731 H723 0.950 . S
C731 C729 1.327 . S
C732 C720 1.349 . S
C732 H726 0.950 . S
C732 C733 1.327 . S
C733 H727 0.950 . S
C733 C732 1.327 . S
C733 C737 1.429 . S
C734 C717 1.574 . S
C734 H728 0.949 . S
C734 C738 1.368 . S
C735 C716 1.429 . S
C735 C729 1.429 . S
C735 C736 1.523 . S
C736 C717 1.368 . S
C736 C730 1.368 . S
C736 C735 1.523 . S
C737 C721 1.429 . S
C737 C733 1.429 . S
C737 C738 1.523 . S
C738 C722 1.368 . S
C738 C734 1.368 . S
C738 C737 1.523 . S
H739 C714 0.950 . S
H740 C716 0.950 . S
H741 C717 0.949 . S
H742 C719 0.950 . S
H743 C721 0.950 . S
C744 C745 1.349 1_556 S
C744 C746 1.327 . S
C744 H769 0.950 . S
C745 C744 1.349 1_554 S
C745 C761 1.349 . S
C746 C744 1.327 . S
C746 C765 1.429 1_556 S
C746 H770 0.950 . S
C747 C764 1.574 1_655 S
C747 C766 1.368 . S
C747 H771 0.949 . S
H748 C752 0.949 . S
C749 C750 1.349 . S
C749 C751 1.327 . S
C749 H772 0.950 . S
C750 C749 1.349 . S
C750 C762 1.349 1_554 S
C751 C749 1.327 . S
C751 C767 1.429 . S
C751 H773 0.950 . S
C752 H748 0.949 . S
C752 C760 1.574 1_455 S
C752 C768 1.368 1_556 S
H753 C761 0.950 . S
H754 C759 0.950 . S
H755 C760 0.949 . S
H756 C762 0.950 . S
H757 C763 0.950 . S
H758 C764 0.949 . S
C759 H754 0.950 . S
C759 C761 1.327 . S
C759 C765 1.429 . S
C760 C752 1.574 1_655 S
C760 H755 0.949 . S
C760 C766 1.368 1_556 S
C761 C745 1.349 . S
C761 H753 0.950 . S
C761 C759 1.327 . S
C762 C750 1.349 1_556 S
C762 H756 0.950 . S
C762 C763 1.327 . S
C763 H757 0.950 . S
C763 C762 1.327 . S
C763 C767 1.429 1_556 S
C764 C747 1.574 1_455 S
C764 H758 0.949 . S
C764 C768 1.368 . S
C765 C746 1.429 1_554 S
C765 C759 1.429 . S
C765 C766 1.523 . S
C766 C747 1.368 . S
C766 C760 1.368 1_554 S
C766 C765 1.523 . S
C767 C751 1.429 . S
C767 C763 1.429 1_554 S
C767 C768 1.523 . S
C768 C752 1.368 1_554 S
C768 C764 1.368 . S
C768 C767 1.523 . S
H769 C744 0.950 . S
H770 C746 0.950 . S
H771 C747 0.949 . S
H772 C749 0.950 . S
H773 C751 0.950 . S
C774 C775 1.349 . S
C774 C776 1.327 . S
C774 H799 0.950 . S
C775 C774 1.349 . S
C775 C791 1.349 1_554 S
C776 C774 1.327 . S
C776 C795 1.429 . S
C776 H800 0.950 . S
C777 C794 1.574 1_545 S
C777 C796 1.368 1_556 S
C777 H801 0.949 . S
H778 C782 0.949 . S
C779 C780 1.349 1_556 S
C779 C781 1.327 . S
C779 H802 0.950 . S
C780 C779 1.349 1_554 S
C780 C792 1.349 . S
C781 C779 1.327 . S
C781 C797 1.429 1_556 S
C781 H803 0.950 . S
C782 H778 0.949 . S
C782 C790 1.574 1_565 S
C782 C798 1.368 . S
H783 C791 0.950 . S
H784 C789 0.950 . S
H785 C790 0.949 . S
H786 C792 0.950 . S
H787 C793 0.950 . S
H788 C794 0.949 . S
C789 H784 0.950 . S
C789 C791 1.327 . S
C789 C795 1.429 1_556 S
C790 C782 1.574 1_545 S
C790 H785 0.949 . S
C790 C796 1.368 . S
C791 C775 1.349 1_556 S
C791 H783 0.950 . S
C791 C789 1.327 . S
C792 C780 1.349 . S
C792 H786 0.950 . S
C792 C793 1.327 . S
C793 H787 0.950 . S
C793 C792 1.327 . S
C793 C797 1.429 . S
C794 C777 1.574 1_565 S
C794 H788 0.949 . S
C794 C798 1.368 1_556 S
C795 C776 1.429 . S
C795 C789 1.429 1_554 S
C795 C796 1.523 . S
C796 C777 1.368 1_554 S
C796 C790 1.368 . S
C796 C795 1.523 . S
C797 C781 1.429 1_554 S
C797 C793 1.429 . S
C797 C798 1.523 . S
C798 C782 1.368 . S
C798 C794 1.368 1_554 S
C798 C797 1.523 . S
H799 C774 0.950 . S
H800 C776 0.950 . S
H801 C777 0.949 . S
H802 C779 0.950 . S
H803 C781 0.950 . S
C804 C805 1.349 . S
C804 C806 1.327 . S
C804 H829 0.950 . S
C805 C804 1.349 . S
C805 C821 1.349 . S
C806 C804 1.327 . S
C806 C825 1.429 . S
C806 H830 0.950 . S
C807 C824 1.574 . S
C807 C826 1.368 1_565 S
C807 H831 0.949 . S
H808 C812 0.949 . S
C809 C810 1.349 . S
C809 C811 1.327 . S
C809 H832 0.950 . S
C810 C809 1.349 . S
C810 C822 1.349 . S
C811 C809 1.327 . S
C811 C827 1.429 . S
C811 H833 0.950 . S
C812 H808 0.949 . S
C812 C820 1.574 . S
C812 C828 1.368 1_545 S
H813 C821 0.950 . S
H814 C819 0.950 . S
H815 C820 0.949 . S
H816 C822 0.950 . S
H817 C823 0.950 . S
H818 C824 0.949 . S
C819 H814 0.950 . S
C819 C821 1.327 . S
C819 C825 1.429 . S
C820 C812 1.574 . S
C820 H815 0.949 . S
C820 C826 1.368 . S
C821 C805 1.349 . S
C821 H813 0.950 . S
C821 C819 1.327 . S
C822 C810 1.349 . S
C822 H816 0.950 . S
C822 C823 1.327 . S
C823 H817 0.950 . S
C823 C822 1.327 . S
C823 C827 1.429 . S
C824 C807 1.574 . S
C824 H818 0.949 . S
C824 C828 1.368 . S
C825 C806 1.429 . S
C825 C819 1.429 . S
C825 C826 1.523 . S
C826 C807 1.368 1_545 S
C826 C820 1.368 . S
C826 C825 1.523 . S
C827 C811 1.429 . S
C827 C823 1.429 . S
C827 C828 1.523 . S
C828 C812 1.368 1_565 S
C828 C824 1.368 . S
C828 C827 1.523 . S
H829 C804 0.950 . S
H830 C806 0.950 . S
H831 C807 0.949 . S
H832 C809 0.950 . S
H833 C811 0.950 . S
C834 C835 1.349 . S
C834 C836 1.327 . S
C834 H859 0.950 . S
C835 C834 1.349 . S
C835 C851 1.349 . S
C836 C834 1.327 . S
C836 C855 1.429 . S
C836 H860 0.950 . S
C837 C854 1.574 . S
C837 C856 1.368 1_655 S
C837 H861 0.949 . S
H838 C842 0.949 . S
C839 C840 1.349 . S
C839 C841 1.327 . S
C839 H862 0.950 . S
C840 C839 1.349 . S
C840 C852 1.349 . S
C841 C839 1.327 . S
C841 C857 1.429 . S
C841 H863 0.950 . S
C842 H838 0.949 . S
C842 C850 1.574 . S
C842 C858 1.368 1_455 S
H843 C851 0.950 . S
H844 C849 0.950 . S
H845 C850 0.949 . S
H846 C852 0.950 . S
H847 C853 0.950 . S
H848 C854 0.949 . S
C849 H844 0.950 . S
C849 C851 1.327 . S
C849 C855 1.429 . S
C850 C842 1.574 . S
C850 H845 0.949 . S
C850 C856 1.368 . S
C851 C835 1.349 . S
C851 H843 0.950 . S
C851 C849 1.327 . S
C852 C840 1.349 . S
C852 H846 0.950 . S
C852 C853 1.327 . S
C853 H847 0.950 . S
C853 C852 1.327 . S
C853 C857 1.429 . S
C854 C837 1.574 . S
C854 H848 0.949 . S
C854 C858 1.368 . S
C855 C836 1.429 . S
C855 C849 1.429 . S
C855 C856 1.523 . S
C856 C837 1.368 1_455 S
C856 C850 1.368 . S
C856 C855 1.523 . S
C857 C841 1.429 . S
C857 C853 1.429 . S
C857 C858 1.523 . S
C858 C842 1.368 1_655 S
C858 C854 1.368 . S
C858 C857 1.523 . S
H859 C834 0.950 . S
H860 C836 0.950 . S
H861 C837 0.949 . S
H862 C839 0.950 . S
H863 C841 0.950 . S
C265 C41 0.621 . S
C270 N5 0.639 . S
C295 N38 0.639 . S
C300 C74 0.621 . S
C325 N71 0.639 . S
C330 C107 0.621 . S
C355 C8 0.621 . S
C360 N104 0.639 . S
C385 C173 0.621 . S
C390 N137 0.639 . S
C415 C206 0.621 . S
C420 N170 0.639 . S
C445 N203 0.639 . S
C450 C239 0.621 . S
C475 N236 0.639 . S
C480 C140 0.621 . S
C505 C215 1.495 . S
C510 C28 1.516 . S
C535 C61 1.520 . S
C540 C248 1.491 . S
C565 C94 1.520 . S
C570 C149 1.491 . S
C595 C127 1.520 . S
C600 C182 1.491 . S
C625 C160 1.520 . S
C630 C83 1.498 . S
C655 C193 1.520 . S
C660 C116 1.498 . S
C685 C226 1.520 . S
C690 C17 1.498 . S
C715 C50 1.495 . S
C720 C259 1.523 . S
C745 N80 2.346 . S
C750 N14 2.346 . S
C775 N47 2.346 . S
C780 N113 2.346 . S
C805 N212 2.346 . S
C810 N146 2.346 . S
C835 N179 2.346 . S
C840 N245 2.346 . S
