# Generated by pormake.
# Topology afi, (4)-cn, num edge types: 1
# Building blocks:
#     Node 0, Type 0, BuildingBlock: QUQFOY_clean_sbu_3, # of connection points: 4
#     Node 1, Type 0, BuildingBlock: QUQFOY_clean_sbu_3, # of connection points: 4
#     Node 2, Type 0, BuildingBlock: QUQFOY_clean_sbu_3, # of connection points: 4
#     Node 3, Type 0, BuildingBlock: QUQFOY_clean_sbu_3, # of connection points: 4
#     Node 4, Type 0, BuildingBlock: QUQFOY_clean_sbu_3, # of connection points: 4
#     Node 5, Type 0, BuildingBlock: QUQFOY_clean_sbu_3, # of connection points: 4
#     Node 6, Type 0, BuildingBlock: QUQFOY_clean_sbu_3, # of connection points: 4
#     Node 7, Type 0, BuildingBlock: QUQFOY_clean_sbu_3, # of connection points: 4
#     Node 8, Type 0, BuildingBlock: QUQFOY_clean_sbu_3, # of connection points: 4
#     Node 9, Type 0, BuildingBlock: QUQFOY_clean_sbu_3, # of connection points: 4
#     Node 10, Type 0, BuildingBlock: QUQFOY_clean_sbu_3, # of connection points: 4
#     Node 11, Type 0, BuildingBlock: QUQFOY_clean_sbu_3, # of connection points: 4
#     Node 12, Type 0, BuildingBlock: QUQFOY_clean_sbu_3, # of connection points: 4
#     Node 13, Type 0, BuildingBlock: QUQFOY_clean_sbu_3, # of connection points: 4
#     Node 14, Type 0, BuildingBlock: QUQFOY_clean_sbu_3, # of connection points: 4
#     Node 15, Type 0, BuildingBlock: QUQFOY_clean_sbu_3, # of connection points: 4
#     Node 16, Type 0, BuildingBlock: QUQFOY_clean_sbu_3, # of connection points: 4
#     Node 17, Type 0, BuildingBlock: QUQFOY_clean_sbu_3, # of connection points: 4
#     Node 18, Type 0, BuildingBlock: QUQFOY_clean_sbu_3, # of connection points: 4
#     Node 19, Type 0, BuildingBlock: QUQFOY_clean_sbu_3, # of connection points: 4
#     Node 20, Type 0, BuildingBlock: QUQFOY_clean_sbu_3, # of connection points: 4
#     Node 21, Type 0, BuildingBlock: QUQFOY_clean_sbu_3, # of connection points: 4
#     Node 22, Type 0, BuildingBlock: QUQFOY_clean_sbu_3, # of connection points: 4
#     Node 23, Type 0, BuildingBlock: QUQFOY_clean_sbu_3, # of connection points: 4
#     Edge 24, Type (0, 0), BuildingBlock: OJICUG_clean_linker_0, # of connection points: 2
#     Edge 25, Type (0, 0), BuildingBlock: OJICUG_clean_linker_0, # of connection points: 2
#     Edge 26, Type (0, 0), BuildingBlock: OJICUG_clean_linker_0, # of connection points: 2
#     Edge 27, Type (0, 0), BuildingBlock: OJICUG_clean_linker_0, # of connection points: 2
#     Edge 28, Type (0, 0), BuildingBlock: OJICUG_clean_linker_0, # of connection points: 2
#     Edge 29, Type (0, 0), BuildingBlock: OJICUG_clean_linker_0, # of connection points: 2
#     Edge 30, Type (0, 0), BuildingBlock: OJICUG_clean_linker_0, # of connection points: 2
#     Edge 31, Type (0, 0), BuildingBlock: OJICUG_clean_linker_0, # of connection points: 2
#     Edge 32, Type (0, 0), BuildingBlock: OJICUG_clean_linker_0, # of connection points: 2
#     Edge 33, Type (0, 0), BuildingBlock: OJICUG_clean_linker_0, # of connection points: 2
#     Edge 34, Type (0, 0), BuildingBlock: OJICUG_clean_linker_0, # of connection points: 2
#     Edge 35, Type (0, 0), BuildingBlock: OJICUG_clean_linker_0, # of connection points: 2
#     Edge 36, Type (0, 0), BuildingBlock: OJICUG_clean_linker_0, # of connection points: 2
#     Edge 37, Type (0, 0), BuildingBlock: OJICUG_clean_linker_0, # of connection points: 2
#     Edge 38, Type (0, 0), BuildingBlock: OJICUG_clean_linker_0, # of connection points: 2
#     Edge 39, Type (0, 0), BuildingBlock: OJICUG_clean_linker_0, # of connection points: 2
#     Edge 40, Type (0, 0), BuildingBlock: OJICUG_clean_linker_0, # of connection points: 2
#     Edge 41, Type (0, 0), BuildingBlock: OJICUG_clean_linker_0, # of connection points: 2
#     Edge 42, Type (0, 0), BuildingBlock: OJICUG_clean_linker_0, # of connection points: 2
#     Edge 43, Type (0, 0), BuildingBlock: OJICUG_clean_linker_0, # of connection points: 2
#     Edge 44, Type (0, 0), BuildingBlock: OJICUG_clean_linker_0, # of connection points: 2
#     Edge 45, Type (0, 0), BuildingBlock: OJICUG_clean_linker_0, # of connection points: 2
#     Edge 46, Type (0, 0), BuildingBlock: OJICUG_clean_linker_0, # of connection points: 2
#     Edge 47, Type (0, 0), BuildingBlock: OJICUG_clean_linker_0, # of connection points: 2
#     Edge 48, Type (0, 0), BuildingBlock: OJICUG_clean_linker_0, # of connection points: 2
#     Edge 49, Type (0, 0), BuildingBlock: OJICUG_clean_linker_0, # of connection points: 2
#     Edge 50, Type (0, 0), BuildingBlock: OJICUG_clean_linker_0, # of connection points: 2
#     Edge 51, Type (0, 0), BuildingBlock: OJICUG_clean_linker_0, # of connection points: 2
#     Edge 52, Type (0, 0), BuildingBlock: OJICUG_clean_linker_0, # of connection points: 2
#     Edge 53, Type (0, 0), BuildingBlock: OJICUG_clean_linker_0, # of connection points: 2
#     Edge 54, Type (0, 0), BuildingBlock: OJICUG_clean_linker_0, # of connection points: 2
#     Edge 55, Type (0, 0), BuildingBlock: OJICUG_clean_linker_0, # of connection points: 2
#     Edge 56, Type (0, 0), BuildingBlock: OJICUG_clean_linker_0, # of connection points: 2
#     Edge 57, Type (0, 0), BuildingBlock: OJICUG_clean_linker_0, # of connection points: 2
#     Edge 58, Type (0, 0), BuildingBlock: OJICUG_clean_linker_0, # of connection points: 2
#     Edge 59, Type (0, 0), BuildingBlock: OJICUG_clean_linker_0, # of connection points: 2
#     Edge 60, Type (0, 0), BuildingBlock: OJICUG_clean_linker_0, # of connection points: 2
#     Edge 61, Type (0, 0), BuildingBlock: OJICUG_clean_linker_0, # of connection points: 2
#     Edge 62, Type (0, 0), BuildingBlock: OJICUG_clean_linker_0, # of connection points: 2
#     Edge 63, Type (0, 0), BuildingBlock: OJICUG_clean_linker_0, # of connection points: 2
#     Edge 64, Type (0, 0), BuildingBlock: OJICUG_clean_linker_0, # of connection points: 2
#     Edge 65, Type (0, 0), BuildingBlock: OJICUG_clean_linker_0, # of connection points: 2
#     Edge 66, Type (0, 0), BuildingBlock: OJICUG_clean_linker_0, # of connection points: 2
#     Edge 67, Type (0, 0), BuildingBlock: OJICUG_clean_linker_0, # of connection points: 2
#     Edge 68, Type (0, 0), BuildingBlock: OJICUG_clean_linker_0, # of connection points: 2
#     Edge 69, Type (0, 0), BuildingBlock: OJICUG_clean_linker_0, # of connection points: 2
#     Edge 70, Type (0, 0), BuildingBlock: OJICUG_clean_linker_0, # of connection points: 2
#     Edge 71, Type (0, 0), BuildingBlock: OJICUG_clean_linker_0, # of connection points: 2
# Relax obj value: 0.095
# Max RMSD: 0.105
# Mean RMSD: 0.105
data_MOF--net-afi--node1-QUQFOY_clean_sbu_3--edge1-OJICUG_clean_linker_0
_symmetry_space_group_name_H-M    P1
_symmetry_Int_Tables_number       1
_symmetry_cell_setting            triclinic
loop_
_symmetry_equiv_pos_as_xyz
'x, y, z'
_cell_length_a     53.012844
_cell_length_b     52.293176
_cell_length_c     30.165588
_cell_angle_alpha  90.10852
_cell_angle_beta   89.966632
_cell_angle_gamma 120.44329
loop_
_atom_site_label
_atom_site_type_symbol
_atom_site_fract_x
_atom_site_fract_y
_atom_site_fract_z
_atom_type_partial_charge
C0 C 0.49332 0.10917 0.16215 0.0
O1 O 0.48866 0.09517 0.12582 0.0
Cd2 Cd 0.444 0.07728 0.08643 0.0
O3 O 0.47469 0.11551 0.17744 0.0
Cd4 Cd 0.42738 0.111 0.15525 0.0
C5 C 0.39631 0.03811 0.17116 0.0
O6 O 0.44071 0.12093 0.07974 0.0
O7 O 0.39445 0.10193 0.09121 0.0
O8 O 0.44904 0.16115 0.18221 0.0
C9 C 0.41606 0.11521 0.06516 0.0
O10 O 0.40747 0.03763 0.13398 0.0
C11 C 0.42548 0.15829 0.1976 0.0
O12 O 0.40109 0.06244 0.18807 0.0
O13 O 0.40277 0.13267 0.1955 0.0
C14 C 0.3951 0.51877 0.18114 0.0
O15 O 0.40185 0.51256 0.1439 0.0
Cd16 Cd 0.36894 0.47027 0.10133 0.0
O17 O 0.36924 0.50326 0.1966 0.0
Cd18 Cd 0.32203 0.46053 0.1704 0.0
C19 C 0.35049 0.41665 0.18029 0.0
O20 O 0.32662 0.47501 0.09449 0.0
O21 O 0.29448 0.42917 0.10642 0.0
O22 O 0.29518 0.48374 0.19765 0.0
C23 C 0.30507 0.45117 0.08035 0.0
O24 O 0.36299 0.42719 0.14325 0.0
C25 C 0.27456 0.45995 0.21412 0.0
O26 O 0.33546 0.42628 0.19896 0.0
O27 O 0.27732 0.43724 0.21296 0.0
C28 C 0.88248 0.38703 0.18101 0.0
O29 O 0.89631 0.39562 0.14463 0.0
Cd30 Cd 0.90609 0.36421 0.10005 0.0
O31 O 0.87163 0.36028 0.19404 0.0
Cd32 Cd 0.86639 0.31317 0.16467 0.0
C33 C 0.93809 0.34257 0.1796 0.0
O34 O 0.85828 0.32245 0.09076 0.0
O35 O 0.86933 0.28817 0.09616 0.0
O36 O 0.81645 0.29023 0.19058 0.0
C37 C 0.85921 0.3011 0.07289 0.0
O38 O 0.94079 0.35682 0.14401 0.0
C39 C 0.81488 0.26628 0.20285 0.0
O40 O 0.91301 0.32564 0.19633 0.0
O41 O 0.83806 0.26489 0.20002 0.0
C42 C 0.47184 0.86084 0.18034 0.0
O43 O 0.46966 0.86731 0.14055 0.0
Cd44 Cd 0.51056 0.88787 0.09356 0.0
O45 O 0.4947 0.86081 0.19376 0.0
Cd46 Cd 0.54039 0.86478 0.16128 0.0
C47 C 0.56322 0.93611 0.16947 0.0
O48 O 0.52049 0.84862 0.09019 0.0
O49 O 0.56744 0.87247 0.0899 0.0
O50 O 0.52249 0.81685 0.19376 0.0
C51 C 0.54377 0.85672 0.06884 0.0
O52 O 0.54492 0.93078 0.13839 0.0
C53 C 0.54729 0.82095 0.20516 0.0
O54 O 0.56732 0.91587 0.18477 0.0
O55 O 0.56939 0.84648 0.19811 0.0
C56 C 0.58272 0.46533 0.18326 0.0
O57 O 0.57497 0.47162 0.14703 0.0
Cd58 Cd 0.60626 0.51242 0.10138 0.0
O59 O 0.60915 0.48028 0.19678 0.0
Cd60 Cd 0.65582 0.52188 0.16658 0.0
C61 C 0.6301 0.56803 0.17888 0.0
O62 O 0.64721 0.50602 0.09167 0.0
O63 O 0.68 0.55187 0.0995 0.0
O64 O 0.68245 0.49772 0.19004 0.0
C65 C 0.66716 0.52949 0.07419 0.0
O66 O 0.61598 0.55698 0.14303 0.0
C67 C 0.70428 0.52147 0.20441 0.0
O68 O 0.64499 0.55786 0.19643 0.0
O69 O 0.70246 0.54475 0.20379 0.0
C70 C 0.09491 0.59092 0.17196 0.0
O71 O 0.07875 0.58159 0.13772 0.0
Cd72 Cd 0.06258 0.60998 0.09745 0.0
O73 O 0.10559 0.61757 0.18552 0.0
Cd74 Cd 0.10802 0.66463 0.16452 0.0
C75 C 0.03619 0.63213 0.18639 0.0
O76 O 0.10558 0.65595 0.08843 0.0
O77 O 0.09885 0.69215 0.10514 0.0
O78 O 0.16056 0.69435 0.16692 0.0
C79 C 0.10096 0.67614 0.07538 0.0
O80 O 0.03202 0.61744 0.15064 0.0
C81 C 0.16134 0.71045 0.19895 0.0
O82 O 0.06185 0.64993 0.2008 0.0
O83 O 0.13716 0.70482 0.2161 0.0
C84 C 0.8783 0.47583 0.28835 0.0
O85 O 0.89056 0.48148 0.32609 0.0
Cd86 Cd 0.89816 0.52337 0.36843 0.0
O87 O 0.86777 0.49122 0.27319 0.0
Cd88 Cd 0.86078 0.53226 0.29914 0.0
C89 C 0.93267 0.57778 0.29004 0.0
O90 O 0.85023 0.5168 0.37422 0.0
O91 O 0.86173 0.56224 0.36305 0.0
O92 O 0.81125 0.50449 0.27085 0.0
C93 C 0.85057 0.53977 0.38823 0.0
O94 O 0.9347 0.56667 0.32647 0.0
C95 C 0.81148 0.52704 0.25489 0.0
O96 O 0.90798 0.56825 0.27153 0.0
O97 O 0.83543 0.55161 0.2568 0.0
C98 C 0.38701 0.86561 0.29147 0.0
O99 O 0.3964 0.88261 0.32503 0.0
Cd100 Cd 0.36731 0.89939 0.36183 0.0
O101 O 0.36118 0.85614 0.27706 0.0
Cd102 Cd 0.31787 0.85975 0.29633 0.0
C103 C 0.3527 0.93251 0.27555 0.0
O104 O 0.32062 0.85627 0.37452 0.0
O105 O 0.29257 0.87278 0.35289 0.0
O106 O 0.28334 0.80731 0.29061 0.0
C107 C 0.30087 0.86224 0.38372 0.0
O108 O 0.36523 0.93564 0.31283 0.0
C109 C 0.26923 0.80951 0.25845 0.0
O110 O 0.33551 0.90687 0.25981 0.0
O111 O 0.27839 0.83515 0.24232 0.0
C112 C 0.48741 0.37961 0.28918 0.0
O113 O 0.48344 0.38868 0.32613 0.0
Cd114 Cd 0.4384 0.36127 0.36482 0.0
O115 O 0.46837 0.35436 0.27373 0.0
Cd116 Cd 0.42145 0.30987 0.29598 0.0
C117 C 0.39101 0.35093 0.27843 0.0
O118 O 0.4328 0.31348 0.37238 0.0
O119 O 0.38681 0.28598 0.35876 0.0
O120 O 0.44494 0.28301 0.2731 0.0
C121 C 0.40756 0.29519 0.38657 0.0
O122 O 0.40236 0.36284 0.31558 0.0
C123 C 0.4223 0.26137 0.25607 0.0
O124 O 0.39549 0.33135 0.26127 0.0
O125 O 0.3991 0.26287 0.25556 0.0
C126 C 0.09696 0.50158 0.27922 0.0
O127 O 0.08267 0.49603 0.31515 0.0
Cd128 Cd 0.07226 0.45493 0.3606 0.0
O129 O 0.10812 0.48609 0.26696 0.0
Cd130 Cd 0.11331 0.44495 0.2988 0.0
C131 C 0.04208 0.39941 0.282 0.0
O132 O 0.11973 0.46227 0.37277 0.0
O133 O 0.10754 0.41644 0.36819 0.0
O134 O 0.16401 0.47298 0.27578 0.0
C135 C 0.11691 0.43956 0.39187 0.0
O136 O 0.03867 0.41097 0.31704 0.0
C137 C 0.16533 0.45044 0.26373 0.0
O138 O 0.0674 0.40878 0.26583 0.0
O139 O 0.14185 0.42543 0.26568 0.0
C140 C 0.58452 0.11496 0.2706 0.0
O141 O 0.57555 0.10421 0.30891 0.0
Cd142 Cd 0.59952 0.08461 0.34994 0.0
O143 O 0.60897 0.1192 0.25588 0.0
Cd144 Cd 0.65231 0.11693 0.28514 0.0
C145 C 0.61074 0.04507 0.267 0.0
O146 O 0.64681 0.12668 0.36009 0.0
O147 O 0.67252 0.10573 0.35175 0.0
O148 O 0.68291 0.16797 0.26236 0.0
C149 C 0.66391 0.1192 0.37696 0.0
O150 O 0.59599 0.04591 0.29972 0.0
C151 C 0.70363 0.1647 0.24815 0.0
O152 O 0.63355 0.06825 0.25358 0.0
O153 O 0.69962 0.13861 0.24851 0.0
C154 C 0.49282 0.60139 0.28639 0.0
O155 O 0.49726 0.59008 0.32062 0.0
Cd156 Cd 0.53997 0.61339 0.36544 0.0
O157 O 0.51114 0.62787 0.27419 0.0
Cd158 Cd 0.55783 0.67218 0.30002 0.0
C159 C 0.5911 0.6329 0.28068 0.0
O160 O 0.5431 0.65938 0.37301 0.0
O161 O 0.58654 0.69724 0.36935 0.0
O162 O 0.53309 0.698 0.27882 0.0
C163 C 0.56527 0.67906 0.39314 0.0
O164 O 0.57816 0.61798 0.31522 0.0
C165 C 0.55557 0.72077 0.26371 0.0
O166 O 0.58675 0.65323 0.26626 0.0
O167 O 0.57942 0.72048 0.26349 0.0
C168 C 0.44281 0.86582 0.79425 0.0
O169 O 0.45032 0.88235 0.82834 0.0
Cd170 Cd 0.49632 0.89864 0.86446 0.0
O171 O 0.45924 0.85659 0.77922 0.0
Cd172 Cd 0.50601 0.85976 0.79753 0.0
C173 C 0.54355 0.93265 0.77791 0.0
O174 O 0.49996 0.85536 0.87576 0.0
O175 O 0.54444 0.87199 0.85347 0.0
O176 O 0.48728 0.80732 0.78965 0.0
C177 C 0.52568 0.8611 0.88439 0.0
O178 O 0.53431 0.93549 0.81554 0.0
C179 C 0.50394 0.80979 0.75779 0.0
O180 O 0.53517 0.90713 0.76174 0.0
O181 O 0.52098 0.83563 0.74279 0.0
C182 C 0.55743 0.47333 0.78862 0.0
O183 O 0.55088 0.47854 0.82674 0.0
Cd184 Cd 0.58496 0.51925 0.87109 0.0
O185 O 0.5834 0.4887 0.77355 0.0
Cd186 Cd 0.63136 0.52919 0.8009 0.0
C187 C 0.60524 0.57527 0.79582 0.0
O188 O 0.62607 0.51211 0.87515 0.0
O189 O 0.6603 0.5576 0.86577 0.0
O190 O 0.65443 0.50323 0.77011 0.0
C191 C 0.6487 0.53468 0.89001 0.0
O192 O 0.59186 0.56355 0.83186 0.0
C193 C 0.67625 0.5265 0.75466 0.0
O194 O 0.62032 0.56587 0.77665 0.0
O195 O 0.67595 0.55054 0.75805 0.0
C196 C 0.0703 0.59944 0.77919 0.0
O197 O 0.05492 0.58867 0.81392 0.0
Cd198 Cd 0.03846 0.6136 0.86093 0.0
O199 O 0.07946 0.62618 0.7672 0.0
Cd200 Cd 0.07934 0.67133 0.79537 0.0
C201 C 0.0064 0.63493 0.77971 0.0
O202 O 0.08336 0.65791 0.86712 0.0
O203 O 0.07825 0.69607 0.8669 0.0
O204 O 0.1292 0.6964 0.77021 0.0
C205 C 0.08234 0.67787 0.88893 0.0
O206 O 0.00437 0.6197 0.81389 0.0
C207 C 0.12968 0.71975 0.75749 0.0
O208 O 0.03117 0.65446 0.76449 0.0
O209 O 0.10592 0.72008 0.76023 0.0
C210 C 0.49129 0.11717 0.77254 0.0
O211 O 0.49014 0.10776 0.81163 0.0
Cd212 Cd 0.44684 0.08873 0.85342 0.0
O213 O 0.47073 0.12068 0.75739 0.0
Cd214 Cd 0.42526 0.11889 0.78615 0.0
C215 C 0.39588 0.04682 0.77183 0.0
O216 O 0.44031 0.13016 0.86106 0.0
O217 O 0.39363 0.10797 0.85225 0.0
O218 O 0.44514 0.16942 0.7615 0.0
C219 C 0.41549 0.12215 0.87755 0.0
O220 O 0.41165 0.0487 0.80493 0.0
C221 C 0.42102 0.16565 0.74701 0.0
O222 O 0.39589 0.0695 0.75686 0.0
O223 O 0.39914 0.13944 0.74799 0.0
C224 C 0.36631 0.50525 0.77716 0.0
O225 O 0.37541 0.50012 0.81306 0.0
Cd226 Cd 0.34573 0.46014 0.86088 0.0
O227 O 0.33951 0.48975 0.76566 0.0
Cd228 Cd 0.29377 0.44917 0.80009 0.0
C229 C 0.31922 0.40312 0.78494 0.0
O230 O 0.30594 0.46797 0.87331 0.0
O231 O 0.27203 0.42221 0.8709 0.0
O232 O 0.26952 0.47556 0.77621 0.0
C233 C 0.28638 0.44568 0.89364 0.0
O234 O 0.33468 0.41521 0.81937 0.0
C235 C 0.24595 0.45235 0.76506 0.0
O236 O 0.30319 0.41238 0.76874 0.0
O237 O 0.24531 0.42781 0.76802 0.0
C238 C 0.85187 0.38327 0.7869 0.0
O239 O 0.86506 0.39215 0.82376 0.0
Cd240 Cd 0.88144 0.3639 0.86309 0.0
O241 O 0.84485 0.35774 0.77164 0.0
Cd242 Cd 0.84612 0.31276 0.79495 0.0
C243 C 0.91783 0.35184 0.77774 0.0
O244 O 0.83843 0.31675 0.8715 0.0
O245 O 0.85612 0.28853 0.85789 0.0
O246 O 0.79576 0.2855 0.77161 0.0
C247 C 0.84486 0.29807 0.88569 0.0
O248 O 0.91883 0.36408 0.81479 0.0
C249 C 0.79718 0.26403 0.75472 0.0
O250 O 0.89351 0.33286 0.76064 0.0
O251 O 0.82203 0.2659 0.75451 0.0
C252 C 0.0823 0.5144 0.67479 0.0
O253 O 0.06956 0.50809 0.6374 0.0
Cd254 Cd 0.05976 0.4648 0.5971 0.0
O255 O 0.09216 0.49865 0.69099 0.0
Cd256 Cd 0.09649 0.45538 0.66749 0.0
C257 C 0.02418 0.41284 0.67845 0.0
O258 O 0.10656 0.46876 0.59145 0.0
O259 O 0.09249 0.42295 0.60475 0.0
O260 O 0.14643 0.48005 0.69495 0.0
C261 C 0.10415 0.44468 0.5782 0.0
O262 O 0.02244 0.42307 0.641 0.0
C263 C 0.14399 0.45682 0.71236 0.0
O264 O 0.04881 0.42211 0.69702 0.0
O265 O 0.11888 0.43357 0.71143 0.0
C266 C 0.57509 0.10843 0.66371 0.0
O267 O 0.56542 0.09385 0.62792 0.0
Cd268 Cd 0.59217 0.07601 0.58816 0.0
O269 O 0.60034 0.11531 0.67837 0.0
Cd270 Cd 0.64322 0.11113 0.65556 0.0
C271 C 0.6027 0.0383 0.67304 0.0
O272 O 0.63873 0.11988 0.57988 0.0
O273 O 0.66689 0.10192 0.59129 0.0
O274 O 0.67112 0.16171 0.68105 0.0
C275 C 0.65774 0.11435 0.56504 0.0
O276 O 0.59057 0.03729 0.63611 0.0
C277 C 0.69218 0.15952 0.6965 0.0
O278 O 0.62204 0.06292 0.68946 0.0
O279 O 0.68983 0.13412 0.69498 0.0
C280 C 0.45906 0.59235 0.66958 0.0
O281 O 0.4664 0.58238 0.63663 0.0
Cd282 Cd 0.51247 0.60981 0.5994 0.0
O283 O 0.47531 0.61897 0.68297 0.0
Cd284 Cd 0.52123 0.66528 0.66458 0.0
C285 C 0.55832 0.63127 0.6915 0.0
O286 O 0.51832 0.65691 0.58815 0.0
O287 O 0.56049 0.69289 0.60885 0.0
O288 O 0.4997 0.69626 0.66351 0.0
C289 C 0.54391 0.67693 0.57764 0.0
O290 O 0.54857 0.61665 0.65551 0.0
C291 C 0.51357 0.71139 0.69718 0.0
O292 O 0.55059 0.64943 0.70466 0.0
O293 O 0.5308 0.70477 0.71646 0.0
C294 C 0.84581 0.471 0.6809 0.0
O295 O 0.85997 0.47712 0.64477 0.0
Cd296 Cd 0.87032 0.51854 0.59996 0.0
O297 O 0.83472 0.48634 0.69434 0.0
Cd298 Cd 0.83021 0.52838 0.66463 0.0
C299 C 0.9019 0.57356 0.67876 0.0
O300 O 0.82332 0.5128 0.58972 0.0
O301 O 0.83677 0.55877 0.59753 0.0
O302 O 0.77935 0.50297 0.68739 0.0
C303 C 0.82715 0.53638 0.57222 0.0
O304 O 0.90491 0.56245 0.64292 0.0
C305 C 0.78028 0.52627 0.70167 0.0
O306 O 0.87679 0.5638 0.69601 0.0
O307 O 0.80494 0.55011 0.70117 0.0
C308 C 0.3545 0.86314 0.68279 0.0
O309 O 0.36395 0.87067 0.64354 0.0
Cd310 Cd 0.34416 0.89185 0.59684 0.0
O311 O 0.33118 0.86245 0.69566 0.0
Cd312 Cd 0.28983 0.86646 0.66175 0.0
C313 C 0.33705 0.93775 0.67406 0.0
O314 O 0.29548 0.85194 0.59044 0.0
O315 O 0.27159 0.87503 0.58988 0.0
O316 O 0.25948 0.81756 0.69102 0.0
C317 C 0.28024 0.85985 0.56887 0.0
O318 O 0.35104 0.9334 0.64348 0.0
C319 C 0.23841 0.82111 0.70228 0.0
O320 O 0.31248 0.91697 0.68772 0.0
O321 O 0.24176 0.84675 0.69676 0.0
C322 C 0.46348 0.38656 0.68053 0.0
O323 O 0.45834 0.39545 0.64437 0.0
Cd324 Cd 0.41625 0.3644 0.60106 0.0
O325 O 0.44714 0.35988 0.69353 0.0
Cd326 Cd 0.40456 0.31315 0.66506 0.0
C327 C 0.3637 0.34377 0.68238 0.0
O328 O 0.42074 0.32177 0.59051 0.0
O329 O 0.37521 0.28831 0.59764 0.0
O330 O 0.43192 0.29028 0.68907 0.0
C331 C 0.39792 0.3006 0.57353 0.0
O332 O 0.37506 0.35785 0.6466 0.0
C333 C 0.40979 0.26631 0.7019 0.0
O334 O 0.37151 0.32645 0.69866 0.0
O335 O 0.38514 0.26483 0.70027 0.0
C336 C 0.38068 0.01223 0.24396 0.0
C337 C 0.38089 0.01064 0.19745 0.0
H338 H 0.37185 0.98863 0.30525 0.0
C339 C 0.36907 0.98279 0.17688 0.0
H340 H 0.38973 0.03341 0.26077 0.0
C341 C 0.35839 0.95711 0.2024 0.0
C342 C 0.35998 0.95895 0.2489 0.0
H343 H 0.36887 0.98094 0.14108 0.0
H344 H 0.35027 0.93601 0.18569 0.0
C345 C 0.37062 0.98664 0.26946 0.0
C346 C 0.36271 0.37702 0.27464 0.0
C347 C 0.37568 0.36289 0.25277 0.0
H348 H 0.34392 0.40458 0.26862 0.0
C349 C 0.37707 0.36355 0.20623 0.0
H350 H 0.36124 0.3767 0.31048 0.0
C351 C 0.36768 0.38002 0.1822 0.0
C352 C 0.35619 0.39553 0.20431 0.0
H353 H 0.38707 0.3529 0.18855 0.0
H354 H 0.37036 0.38146 0.14652 0.0
C355 C 0.35276 0.39293 0.2506 0.0
C356 C -0.00796 0.3635 0.18468 0.0
C357 C 0.96455 0.35004 0.20543 0.0
H358 H 0.03844 0.38913 0.19306 0.0
C359 C 0.96308 0.34831 0.25194 0.0
H360 H -0.00622 0.36492 0.14888 0.0
C361 C -0.01139 0.36265 0.27724 0.0
C362 C 0.01601 0.37835 0.25643 0.0
H363 H 0.94218 0.33803 0.26888 0.0
H364 H -0.01319 0.36289 0.313 0.0
C365 C 0.0176 0.37728 0.21001 0.0
C366 C 0.60559 0.97909 0.20711 0.0
C367 C 0.5765 0.96488 0.19217 0.0
H368 H 0.63972 0.01662 0.24194 0.0
C369 C 0.55907 0.97732 0.20176 0.0
H370 H 0.6193 0.9697 0.20019 0.0
C371 C 0.57027 0.00318 0.22687 0.0
C372 C 0.59935 0.01753 0.24154 0.0
H373 H 0.53645 0.96651 0.19104 0.0
H374 H 0.55629 0.01218 0.23445 0.0
C375 C 0.61717 0.00569 0.23093 0.0
C376 C 0.62162 0.60946 0.2743 0.0
C377 C 0.6076 0.62292 0.25371 0.0
H378 H 0.64046 0.58207 0.26642 0.0
C379 C 0.60517 0.62209 0.20731 0.0
H380 H 0.62382 0.60993 0.31005 0.0
C381 C 0.61408 0.60555 0.18228 0.0
C382 C 0.6261 0.59018 0.2033 0.0
H383 H 0.59429 0.6322 0.19069 0.0
H384 H 0.61025 0.60361 0.14684 0.0
C385 C 0.63111 0.59351 0.24926 0.0
C386 C 0.01251 0.6246 0.26035 0.0
C387 C 0.01064 0.6252 0.21397 0.0
H388 H -0.0111 0.60885 0.32133 0.0
C389 C -0.01672 0.61486 0.19396 0.0
H390 H 0.03342 0.63248 0.27654 0.0
C391 C 0.95792 0.60183 0.21954 0.0
C392 C 0.95947 0.59831 0.26547 0.0
H393 H -0.01864 0.6154 0.15826 0.0
H394 H 0.93703 0.59252 0.20275 0.0
C395 C -0.01296 0.61098 0.28594 0.0
C396 C 0.57868 0.98708 0.77162 0.0
C397 C 0.56219 0.95925 0.75119 0.0
H398 H 0.60515 0.03398 0.76267 0.0
C399 C 0.56186 0.95736 0.70469 0.0
H400 H 0.57948 0.98912 0.80741 0.0
C401 C 0.57614 0.98305 0.67906 0.0
C402 C 0.59154 0.011 0.6995 0.0
H403 H 0.54932 0.93616 0.68805 0.0
H404 H 0.5744 0.98111 0.64328 0.0
C405 C 0.5935 0.01272 0.74599 0.0
C406 C 0.58282 0.60742 0.79202 0.0
C407 C 0.59939 0.59639 0.77214 0.0
H408 H 0.55714 0.628 0.78165 0.0
C409 C 0.60667 0.6021 0.72698 0.0
H410 H 0.57711 0.60362 0.82684 0.0
C411 C 0.59487 0.61552 0.70118 0.0
C412 C 0.57621 0.62413 0.72027 0.0
H413 H 0.61965 0.59419 0.71066 0.0
H414 H 0.59905 0.61769 0.66583 0.0
C415 C 0.57149 0.62147 0.76625 0.0
C416 C 0.92675 0.59721 0.74984 0.0
C417 C 0.92814 0.59509 0.70355 0.0
H418 H 0.95086 0.61174 0.81057 0.0
C419 C 0.95539 0.61081 0.68226 0.0
H420 H 0.90605 0.58542 0.76717 0.0
C421 C -0.01898 0.62644 0.70715 0.0
C422 C -0.02026 0.62598 0.75367 0.0
H423 H 0.95704 0.60978 0.64657 0.0
H424 H 0.00188 0.63681 0.6901 0.0
C425 C 0.95238 0.61225 0.77473 0.0
C426 C 0.39415 0.00265 0.73878 0.0
C427 C 0.38003 0.01865 0.74765 0.0
H428 H 0.39161 0.96481 0.707 0.0
C429 C 0.35157 0.00817 0.73163 0.0
H430 H 0.41623 0.01054 0.75045 0.0
C431 C 0.33716 0.98153 0.70778 0.0
C432 C 0.35164 0.96595 0.69822 0.0
H433 H 0.3404 0.02033 0.73809 0.0
H434 H 0.31501 0.97335 0.69628 0.0
C435 C 0.38023 0.97676 0.71364 0.0
C436 C 0.33585 0.36625 0.78066 0.0
C437 C 0.32365 0.38149 0.75987 0.0
H438 H 0.35739 0.34134 0.77208 0.0
C439 C 0.31982 0.37931 0.71364 0.0
H440 H 0.3388 0.36734 0.81629 0.0
C441 C 0.33091 0.36488 0.68826 0.0
C442 C 0.34539 0.35185 0.70881 0.0
H443 H 0.31041 0.39076 0.6967 0.0
H444 H 0.32969 0.36545 0.65246 0.0
C445 C 0.34635 0.35124 0.75533 0.0
C446 C -0.00194 0.39113 0.7495 0.0
C447 C -0.00277 0.39278 0.70306 0.0
H448 H 0.97337 0.37686 0.8097 0.0
C449 C 0.97014 0.37755 0.6812 0.0
H450 H 0.01862 0.40262 0.76733 0.0
C451 C 0.94423 0.36232 0.70554 0.0
C452 C 0.94502 0.36264 0.75212 0.0
H453 H 0.96888 0.37828 0.64542 0.0
H454 H 0.92357 0.35187 0.68795 0.0
C455 C 0.97217 0.37646 0.77383 0.0
C456 C 0.39744 0.18292 0.21965 0.0
C457 C 0.42436 0.18416 0.21421 0.0
H458 H 0.37566 0.20672 0.23635 0.0
C459 C 0.45045 0.211 0.22194 0.0
H460 H 0.377 0.16254 0.21349 0.0
C461 C 0.44968 0.23616 0.23499 0.0
C462 C 0.42282 0.23505 0.24008 0.0
H463 H 0.47151 0.21263 0.21784 0.0
H464 H 0.47018 0.2565 0.24098 0.0
C465 C 0.39668 0.20824 0.23224 0.0
C466 C 0.19567 0.42753 0.24768 0.0
C467 C 0.19329 0.45301 0.25081 0.0
H468 H 0.22348 0.40987 0.23467 0.0
C469 C 0.21821 0.481 0.24375 0.0
H470 H 0.17689 0.4057 0.25344 0.0
C471 C 0.24494 0.48341 0.23296 0.0
C472 C 0.24725 0.45789 0.22958 0.0
H473 H 0.21702 0.50104 0.24625 0.0
H474 H 0.26369 0.5052 0.22684 0.0
C475 C 0.22243 0.42996 0.23741 0.0
C476 C 0.73493 0.21868 0.23191 0.0
C477 C 0.73189 0.19047 0.23521 0.0
H478 H 0.7637 0.26487 0.21948 0.0
C479 C 0.75653 0.18748 0.229 0.0
H480 H 0.71634 0.22168 0.23682 0.0
C481 C 0.78377 0.2123 0.21977 0.0
C482 C 0.78675 0.24048 0.21619 0.0
H483 H 0.75489 0.16604 0.2318 0.0
H484 H 0.80236 0.20933 0.2148 0.0
C485 C 0.76208 0.24343 0.22229 0.0
C486 C 0.57744 0.79819 0.22526 0.0
C487 C 0.55006 0.79624 0.22271 0.0
H488 H 0.60069 0.77552 0.23967 0.0
C489 C 0.52476 0.7695 0.23396 0.0
H490 H 0.59728 0.8185 0.21646 0.0
C491 C 0.52669 0.74504 0.247 0.0
C492 C 0.55395 0.74672 0.24887 0.0
H493 H 0.50334 0.76731 0.23227 0.0
H494 H 0.50672 0.72473 0.25536 0.0
C495 C 0.57937 0.77355 0.23812 0.0
C496 C 0.75729 0.55015 0.2229 0.0
C497 C 0.73149 0.52262 0.21786 0.0
H498 H 0.80302 0.57309 0.23744 0.0
C499 C 0.73241 0.49643 0.22316 0.0
H500 H 0.7573 0.57071 0.21849 0.0
C501 C 0.75865 0.4978 0.23407 0.0
C502 C 0.78442 0.52538 0.23926 0.0
H503 H 0.71285 0.47491 0.21912 0.0
H504 H 0.7587 0.4773 0.23879 0.0
C505 C 0.78355 0.55152 0.23323 0.0
C506 C 0.19509 0.74044 0.25962 0.0
C507 C 0.18916 0.73535 0.21422 0.0
H508 H 0.22605 0.76782 0.30913 0.0
C509 C 0.20989 0.75441 0.18318 0.0
H510 H 0.1793 0.72586 0.28394 0.0
C511 C 0.23605 0.77887 0.19749 0.0
C512 C 0.24215 0.78372 0.2429 0.0
H513 H 0.20552 0.7508 0.14795 0.0
H514 H 0.2516 0.79376 0.1732 0.0
C515 C 0.22172 0.76421 0.27389 0.0
C516 C 0.51019 0.75613 0.68174 0.0
C517 C 0.51026 0.73605 0.71248 0.0
H518 H 0.5089 0.79613 0.67241 0.0
C519 C 0.50747 0.73988 0.7578 0.0
H520 H 0.51243 0.75348 0.64658 0.0
C521 C 0.50437 0.76346 0.77227 0.0
C522 C 0.50513 0.78404 0.7417 0.0
H523 H 0.5074 0.72449 0.78188 0.0
H524 H 0.50223 0.76612 0.80746 0.0
C525 C 0.50823 0.7804 0.69638 0.0
C526 C 0.70163 0.4993 0.73208 0.0
C527 C 0.7022 0.52623 0.73806 0.0
H528 H 0.72609 0.4782 0.71603 0.0
C529 C 0.72858 0.55308 0.73198 0.0
H530 H 0.68161 0.47829 0.73679 0.0
C531 C 0.75407 0.55302 0.72097 0.0
C532 C 0.75358 0.52613 0.71532 0.0
H533 H 0.72973 0.57418 0.73675 0.0
H534 H 0.77412 0.57408 0.71663 0.0
C535 C 0.7271 0.49925 0.72054 0.0
C536 C 0.20895 0.76851 0.72623 0.0
C537 C 0.21072 0.79581 0.71819 0.0
H538 H 0.18193 0.7231 0.74446 0.0
C539 C 0.18549 0.79796 0.72272 0.0
H540 H 0.228 0.76612 0.72288 0.0
C541 C 0.15887 0.77309 0.73474 0.0
C542 C 0.15717 0.74579 0.74261 0.0
H543 H 0.1862 0.8187 0.71639 0.0
H544 H 0.13972 0.77531 0.73813 0.0
C545 C 0.18249 0.74379 0.73838 0.0
C546 C 0.38752 0.21238 0.71879 0.0
C547 C 0.41251 0.24066 0.71472 0.0
H548 H 0.37067 0.16625 0.73125 0.0
C549 C 0.4403 0.2439 0.72 0.0
H550 H 0.36583 0.20919 0.71441 0.0
C551 C 0.44307 0.21936 0.7295 0.0
C552 C 0.41811 0.19107 0.73351 0.0
H553 H 0.45997 0.26542 0.71676 0.0
H554 H 0.46479 0.22259 0.73392 0.0
C555 C 0.3903 0.18776 0.7279 0.0
C556 C 0.16766 0.42871 0.73787 0.0
C557 C 0.16973 0.45604 0.72879 0.0
H558 H 0.19031 0.4061 0.75564 0.0
C559 C 0.19707 0.48222 0.73187 0.0
H560 H 0.14692 0.40813 0.73542 0.0
C561 C 0.22194 0.48105 0.74349 0.0
C562 C 0.21993 0.45365 0.75172 0.0
H563 H 0.19931 0.50359 0.72483 0.0
H564 H 0.24276 0.50157 0.74564 0.0
C565 C 0.19256 0.42751 0.74899 0.0
C566 C 0.77062 0.2109 0.73105 0.0
C567 C 0.77065 0.23743 0.73864 0.0
H568 H 0.74542 0.16509 0.7126 0.0
C569 C 0.74461 0.23793 0.73322 0.0
H570 H 0.79036 0.20986 0.7354 0.0
C571 C 0.71901 0.21242 0.72017 0.0
C572 C 0.71888 0.18585 0.71278 0.0
H573 H 0.74398 0.25805 0.73902 0.0
H574 H 0.69931 0.21355 0.71586 0.0
C575 C 0.74487 0.18524 0.71848 0.0
C576 C 0.38714 0.10215 -0.00539 0.0
C577 C 0.41304 0.12031 0.01824 0.0
H578 H 0.36742 0.08846 0.93018 0.0
C579 C 0.43782 0.14192 -0.00431 0.0
H580 H 0.36773 0.08543 0.01152 0.0
C581 C 0.43766 0.14375 0.94987 0.0
C582 C 0.41274 0.12391 0.92569 0.0
H583 H 0.45788 0.1566 0.01334 0.0
H584 H 0.45759 0.15973 0.93328 0.0
C585 C 0.387 0.10393 0.9483 0.0
C586 C 0.30023 0.47339 0.96419 0.0
C587 C 0.28601 0.44593 0.94227 0.0
H588 H 0.31719 0.49638 0.02514 0.0
C589 C 0.27478 0.41966 0.967 0.0
H590 H 0.3087 0.49398 0.94598 0.0
C591 C 0.27968 0.42105 0.01277 0.0
C592 C 0.29589 0.44872 0.0339 0.0
H593 H 0.26366 0.39822 0.95077 0.0
H594 H 0.27209 0.40065 0.03109 0.0
C595 C 0.30517 0.47477 0.0095 0.0
C596 C 0.82948 0.30223 0.96122 0.0
C597 C 0.8448 0.29317 0.93361 0.0
H598 H 0.822 0.31146 0.02712 0.0
C599 C 0.862 0.2826 0.9526 0.0
H600 H 0.81564 0.30996 0.94751 0.0
C601 C 0.86555 0.28334 -0.00131 0.0
C602 C 0.85202 0.29478 0.02576 0.0
H603 H 0.8739 0.27535 0.93189 0.0
H604 H 0.88012 0.27667 0.0128 0.0
C605 C 0.83313 0.30311 0.00679 0.0
C606 C 0.56551 0.87436 -0.00671 0.0
C607 C 0.54234 0.85419 0.02033 0.0
H608 H 0.57838 0.89241 0.92771 0.0
C609 C 0.51553 0.83371 0.00089 0.0
H610 H 0.58641 0.89031 0.00761 0.0
C611 C 0.51091 0.83518 0.95599 0.0
C612 C 0.5331 0.85689 0.9295 0.0
H613 H 0.49747 0.81758 0.02088 0.0
H614 H 0.48947 0.82005 0.94233 0.0
C615 C 0.56091 0.87562 0.9478 0.0
C616 C 0.65499 0.50604 0.00035 0.0
C617 C 0.66859 0.53209 0.02578 0.0
H618 H 0.63814 0.48667 0.93717 0.0
C619 C 0.67956 0.55971 0.00486 0.0
H620 H 0.64677 0.4845 0.01559 0.0
C621 C 0.67463 0.56095 0.95958 0.0
C622 C 0.65861 0.53458 0.93526 0.0
H623 H 0.69025 0.58012 0.02385 0.0
H624 H 0.68177 0.58229 0.94435 0.0
C625 C 0.64993 0.50727 0.95554 0.0
C626 C 0.09024 0.70243 0.96365 0.0
C627 C 0.08365 0.67752 0.93752 0.0
H628 H 0.10107 0.72168 0.02901 0.0
C629 C 0.08039 0.65192 0.95782 0.0
H630 H 0.0928 0.7224 0.94861 0.0
C631 C 0.08529 0.65161 0.00274 0.0
C632 C 0.09336 0.67681 0.02879 0.0
H633 H 0.07482 0.63215 0.93877 0.0
H634 H 0.08326 0.63161 0.01684 0.0
C635 C 0.09503 0.70204 0.00935 0.0
C636 C 0.81503 0.51272 0.4986 0.0
C637 C 0.82836 0.53888 0.52379 0.0
H638 H 0.81176 0.49274 0.43567 0.0
C639 C 0.84588 0.56625 0.50264 0.0
H640 H 0.80102 0.49138 0.51401 0.0
C641 C 0.852 0.56703 0.45738 0.0
C642 C 0.84074 0.54043 0.43335 0.0
H643 H 0.85631 0.58673 0.52147 0.0
H644 H 0.86686 0.5881 0.44195 0.0
C645 C 0.82127 0.51348 0.45384 0.0
C646 C 0.27552 0.87672 0.49301 0.0
C647 C 0.27915 0.8571 0.52039 0.0
H648 H 0.2796 0.89377 0.42694 0.0
C649 C 0.28575 0.83671 0.50126 0.0
H650 H 0.27035 0.89258 0.5071 0.0
C651 C 0.29129 0.83764 0.45623 0.0
C652 C 0.29004 0.85873 0.42928 0.0
H653 H 0.28816 0.82098 0.52151 0.0
H654 H 0.2977 0.82253 0.44278 0.0
C655 C 0.28086 0.87745 0.44739 0.0
C656 C 0.42467 0.29999 0.50736 0.0
C657 C 0.39799 0.29341 0.52661 0.0
H658 H 0.44824 0.30491 0.44785 0.0
C659 C 0.37296 0.28294 0.49991 0.0
H660 H 0.44414 0.30754 0.52744 0.0
C661 C 0.37535 0.28155 0.45381 0.0
C662 C 0.40273 0.29051 0.4345 0.0
H663 H 0.35213 0.27761 0.51427 0.0
H664 H 0.35629 0.27521 0.43331 0.0
C665 C 0.42699 0.29845 0.46182 0.0
C666 C 0.09799 0.41417 0.51044 0.0
C667 C 0.11111 0.44179 0.53207 0.0
H668 H 0.08965 0.39161 0.44786 0.0
C669 C 0.12955 0.46765 0.50825 0.0
H670 H 0.08384 0.39391 0.52835 0.0
C671 C 0.13299 0.46632 0.46291 0.0
C672 C 0.11796 0.43913 0.44042 0.0
H673 H 0.14043 0.48915 0.52435 0.0
H674 H 0.14631 0.48686 0.44508 0.0
C675 C 0.10138 0.41284 0.4646 0.0
C676 C 0.66256 0.14082 0.44887 0.0
C677 C 0.66832 0.12128 0.42511 0.0
H678 H 0.65514 0.15403 0.51202 0.0
C679 C 0.67498 0.10211 0.44819 0.0
H680 H 0.65791 0.15622 0.4319 0.0
C681 C 0.67344 0.10089 0.49458 0.0
C682 C 0.66518 0.11879 0.51781 0.0
H683 H 0.67963 0.08692 0.43043 0.0
H684 H 0.67693 0.08481 0.51189 0.0
C685 C 0.66096 0.13955 0.49472 0.0
C686 C 0.58105 0.70491 0.4668 0.0
C687 C 0.56577 0.67877 0.44169 0.0
H688 H 0.58602 0.72492 0.53109 0.0
C689 C 0.547 0.65191 0.46302 0.0
H690 H 0.59565 0.72587 0.45085 0.0
C691 C 0.54134 0.65144 0.50783 0.0
C692 C 0.55454 0.67777 0.53252 0.0
H693 H 0.53533 0.63133 0.44459 0.0
H694 H 0.52556 0.63051 0.52267 0.0
C695 C 0.57548 0.70439 0.51238 0.0
C696 C 0.52008 0.12145 0.23421 0.0
C697 C 0.5194 0.11589 0.18856 0.0
H698 H 0.54151 0.12565 0.29609 0.0
C699 C 0.54267 0.1142 0.16926 0.0
H700 H 0.50254 0.12301 0.25003 0.0
C701 C 0.56526 0.11617 0.1956 0.0
C702 C 0.56464 0.11936 0.24172 0.0
H703 H 0.54287 0.11023 0.13404 0.0
H704 H 0.58214 0.11331 0.18022 0.0
C705 C 0.54237 0.12293 0.2606 0.0
C706 C 0.44103 0.56033 0.28013 0.0
C707 C 0.46641 0.5829 0.25973 0.0
H708 H 0.39812 0.52274 0.2711 0.0
C709 C 0.46698 0.58609 0.21351 0.0
H710 H 0.44 0.55758 0.3158 0.0
C711 C 0.44323 0.56581 0.18788 0.0
C712 C 0.4183 0.54252 0.2082 0.0
H713 H 0.48631 0.6033 0.19703 0.0
H714 H 0.44468 0.56788 0.15212 0.0
C715 C 0.41703 0.54053 0.25461 0.0
C716 C 0.87752 0.45388 0.21463 0.0
C717 C 0.87736 0.452 0.26104 0.0
H718 H 0.87972 0.43487 0.1529 0.0
C719 C 0.87755 0.42784 0.28102 0.0
H720 H 0.87751 0.47234 0.19842 0.0
C721 C 0.87818 0.40606 0.25495 0.0
C722 C 0.87944 0.40856 0.20857 0.0
H723 H 0.87731 0.42585 0.31678 0.0
H724 H 0.87864 0.38781 0.27107 0.0
C725 C 0.87893 0.43255 0.18863 0.0
C726 C 0.45549 0.86561 0.25602 0.0
C727 C 0.44869 0.85634 0.21173 0.0
H728 H 0.44119 0.87602 0.31627 0.0
C729 C 0.4203 0.84646 0.19597 0.0
H730 H 0.47727 0.8734 0.26891 0.0
C731 C 0.39962 0.84767 0.22302 0.0
C732 C 0.40709 0.85925 0.26618 0.0
H733 H 0.41444 0.83898 0.16201 0.0
H734 H 0.37833 0.84109 0.20915 0.0
C735 C 0.4349 0.86727 0.28298 0.0
C736 C 0.56203 0.44301 0.2571 0.0
C737 C 0.56022 0.44136 0.21067 0.0
H738 H 0.54 0.42476 0.31859 0.0
C739 C 0.53544 0.41782 0.19046 0.0
H740 H 0.58088 0.46101 0.27343 0.0
C741 C 0.51236 0.39684 0.21618 0.0
C742 C 0.51338 0.39943 0.26255 0.0
H743 H 0.53362 0.416 0.15467 0.0
H744 H 0.49317 0.3794 0.19964 0.0
C745 C 0.53861 0.42239 0.28286 0.0
C746 C 0.10189 0.57316 0.24482 0.0
C747 C 0.09909 0.5698 0.1986 0.0
H748 H 0.10296 0.55374 0.30666 0.0
C749 C 0.09786 0.54486 0.17873 0.0
H750 H 0.10271 0.59209 0.26098 0.0
C751 C 0.09868 0.52324 0.20485 0.0
C752 C 0.09987 0.52589 0.2512 0.0
H753 H 0.09575 0.54183 0.14311 0.0
H754 H 0.09702 0.50385 0.18897 0.0
C755 C 0.10187 0.55119 0.27094 0.0
C756 C 0.3969 0.86812 0.78578 0.0
C757 C 0.41653 0.85988 0.76893 0.0
H758 H 0.36111 0.87497 0.77161 0.0
C759 C 0.41249 0.84854 0.72561 0.0
H760 H 0.39931 0.87669 0.81919 0.0
C761 C 0.39093 0.84786 0.69846 0.0
C762 C 0.37263 0.858 0.71429 0.0
H763 H 0.42706 0.84178 0.71168 0.0
H764 H 0.3894 0.8406 0.66439 0.0
C765 C 0.37493 0.86697 0.7587 0.0
C766 C 0.50999 0.42576 0.7806 0.0
C767 C 0.53437 0.45001 0.7609 0.0
H768 H 0.46859 0.38618 0.77034 0.0
C769 C 0.53588 0.45253 0.71454 0.0
H770 H 0.50838 0.42328 0.81632 0.0
C771 C 0.51287 0.43172 0.68837 0.0
C772 C 0.48834 0.40764 0.70808 0.0
H773 H 0.55439 0.4711 0.69856 0.0
H774 H 0.51424 0.43451 0.6527 0.0
C775 C 0.48732 0.40451 0.75435 0.0
C776 C 0.07992 0.5577 0.773 0.0
C777 C 0.07706 0.58015 0.75234 0.0
H778 H 0.08461 0.51971 0.76453 0.0
C779 C 0.07874 0.58257 0.70599 0.0
H780 H 0.07893 0.55555 0.80877 0.0
C781 C 0.08143 0.56168 0.68059 0.0
C782 C 0.08324 0.53858 0.70127 0.0
H783 H 0.07657 0.59969 0.68934 0.0
H784 H 0.08144 0.56321 0.64477 0.0
C785 C 0.08334 0.53731 0.74772 0.0
C786 C 0.5615 0.12217 0.73541 0.0
C787 C 0.55599 0.11556 0.69008 0.0
H788 H 0.54521 0.12802 0.79716 0.0
C789 C 0.53082 0.11352 0.67107 0.0
H790 H 0.58078 0.12403 0.75098 0.0
C791 C 0.51065 0.11627 0.69744 0.0
C792 C 0.51512 0.12062 0.74334 0.0
H793 H 0.52617 0.10876 0.63609 0.0
H794 H 0.49076 0.11319 0.68232 0.0
C795 C 0.54113 0.12444 0.76185 0.0
C796 C 0.38701 0.52525 0.70235 0.0
C797 C 0.38755 0.52914 0.74844 0.0
H798 H 0.40977 0.5423 0.64088 0.0
C799 C 0.41017 0.55514 0.76763 0.0
H800 H 0.36979 0.50525 0.68696 0.0
C801 C 0.43251 0.57654 0.74138 0.0
C802 C 0.43304 0.57191 0.69562 0.0
H803 H 0.41092 0.55861 0.80315 0.0
H804 H 0.45015 0.59597 0.75732 0.0
C805 C 0.40986 0.54633 0.67614 0.0
C806 C 0.84545 0.4013 0.71375 0.0
C807 C 0.8466 0.40365 0.76015 0.0
H808 H 0.84458 0.42113 0.65222 0.0
C809 C 0.84489 0.42695 0.78043 0.0
H810 H 0.84681 0.38361 0.69725 0.0
C811 C 0.84302 0.4481 0.75465 0.0
C812 C 0.84358 0.44665 0.70823 0.0
H813 H 0.84559 0.42915 0.81619 0.0
H814 H 0.84255 0.46632 0.77099 0.0
C815 C 0.84431 0.42282 0.68801 0.0
loop_
_geom_bond_atom_site_label_1
_geom_bond_atom_site_label_2
_geom_bond_distance
_geom_bond_site_symmetry_2
_ccdc_geom_bond_type
C0 O1 1.306 . S
C0 O3 1.160 . S
O1 C0 1.306 . S
O1 Cd2 2.228 . S
Cd2 O1 2.228 . S
Cd2 O6 2.273 . S
Cd2 O10 2.277 . S
O3 C0 1.160 . S
O3 Cd4 2.203 . S
Cd4 O3 2.203 . S
Cd4 O6 2.411 . S
Cd4 O7 2.333 . S
Cd4 O8 2.352 . S
Cd4 O12 2.277 . S
Cd4 O13 2.356 . S
C5 O10 1.209 . S
C5 O12 1.226 . S
O6 Cd2 2.273 . S
O6 Cd4 2.411 . S
O6 C9 1.320 . S
O7 Cd4 2.333 . S
O7 C9 1.214 . S
O8 Cd4 2.352 . S
O8 C11 1.258 . S
C9 O6 1.320 . S
C9 O7 1.214 . S
O10 Cd2 2.277 . S
O10 C5 1.209 . S
C11 O8 1.258 . S
C11 O13 1.282 . S
O12 Cd4 2.277 . S
O12 C5 1.226 . S
O13 Cd4 2.356 . S
O13 C11 1.282 . S
C14 O15 1.306 . S
C14 O17 1.160 . S
O15 C14 1.306 . S
O15 Cd16 2.228 . S
Cd16 O15 2.228 . S
Cd16 O20 2.273 . S
Cd16 O24 2.277 . S
O17 C14 1.160 . S
O17 Cd18 2.203 . S
Cd18 O17 2.203 . S
Cd18 O20 2.411 . S
Cd18 O21 2.333 . S
Cd18 O22 2.352 . S
Cd18 O26 2.277 . S
Cd18 O27 2.356 . S
C19 O24 1.209 . S
C19 O26 1.226 . S
O20 Cd16 2.273 . S
O20 Cd18 2.411 . S
O20 C23 1.320 . S
O21 Cd18 2.333 . S
O21 C23 1.214 . S
O22 Cd18 2.352 . S
O22 C25 1.258 . S
C23 O20 1.320 . S
C23 O21 1.214 . S
O24 Cd16 2.277 . S
O24 C19 1.209 . S
C25 O22 1.258 . S
C25 O27 1.282 . S
O26 Cd18 2.277 . S
O26 C19 1.226 . S
O27 Cd18 2.356 . S
O27 C25 1.282 . S
C28 O29 1.306 . S
C28 O31 1.160 . S
O29 C28 1.306 . S
O29 Cd30 2.228 . S
Cd30 O29 2.228 . S
Cd30 O34 2.273 . S
Cd30 O38 2.277 . S
O31 C28 1.160 . S
O31 Cd32 2.203 . S
Cd32 O31 2.203 . S
Cd32 O34 2.411 . S
Cd32 O35 2.333 . S
Cd32 O36 2.352 . S
Cd32 O40 2.277 . S
Cd32 O41 2.356 . S
C33 O38 1.209 . S
C33 O40 1.226 . S
O34 Cd30 2.273 . S
O34 Cd32 2.411 . S
O34 C37 1.320 . S
O35 Cd32 2.333 . S
O35 C37 1.214 . S
O36 Cd32 2.352 . S
O36 C39 1.258 . S
C37 O34 1.320 . S
C37 O35 1.214 . S
O38 Cd30 2.277 . S
O38 C33 1.209 . S
C39 O36 1.258 . S
C39 O41 1.282 . S
O40 Cd32 2.277 . S
O40 C33 1.226 . S
O41 Cd32 2.356 . S
O41 C39 1.282 . S
C42 O43 1.306 . S
C42 O45 1.160 . S
O43 C42 1.306 . S
O43 Cd44 2.228 . S
Cd44 O43 2.228 . S
Cd44 O48 2.273 . S
Cd44 O52 2.277 . S
O45 C42 1.160 . S
O45 Cd46 2.203 . S
Cd46 O45 2.203 . S
Cd46 O48 2.411 . S
Cd46 O49 2.333 . S
Cd46 O50 2.352 . S
Cd46 O54 2.277 . S
Cd46 O55 2.356 . S
C47 O52 1.209 . S
C47 O54 1.226 . S
O48 Cd44 2.273 . S
O48 Cd46 2.411 . S
O48 C51 1.320 . S
O49 Cd46 2.333 . S
O49 C51 1.214 . S
O50 Cd46 2.352 . S
O50 C53 1.258 . S
C51 O48 1.320 . S
C51 O49 1.214 . S
O52 Cd44 2.277 . S
O52 C47 1.209 . S
C53 O50 1.258 . S
C53 O55 1.282 . S
O54 Cd46 2.277 . S
O54 C47 1.226 . S
O55 Cd46 2.356 . S
O55 C53 1.282 . S
C56 O57 1.306 . S
C56 O59 1.160 . S
O57 C56 1.306 . S
O57 Cd58 2.228 . S
Cd58 O57 2.228 . S
Cd58 O62 2.273 . S
Cd58 O66 2.277 . S
O59 C56 1.160 . S
O59 Cd60 2.203 . S
Cd60 O59 2.203 . S
Cd60 O62 2.411 . S
Cd60 O63 2.333 . S
Cd60 O64 2.352 . S
Cd60 O68 2.277 . S
Cd60 O69 2.356 . S
C61 O66 1.209 . S
C61 O68 1.226 . S
O62 Cd58 2.273 . S
O62 Cd60 2.411 . S
O62 C65 1.320 . S
O63 Cd60 2.333 . S
O63 C65 1.214 . S
O64 Cd60 2.352 . S
O64 C67 1.258 . S
C65 O62 1.320 . S
C65 O63 1.214 . S
O66 Cd58 2.277 . S
O66 C61 1.209 . S
C67 O64 1.258 . S
C67 O69 1.282 . S
O68 Cd60 2.277 . S
O68 C61 1.226 . S
O69 Cd60 2.356 . S
O69 C67 1.282 . S
C70 O71 1.306 . S
C70 O73 1.160 . S
O71 C70 1.306 . S
O71 Cd72 2.228 . S
Cd72 O71 2.228 . S
Cd72 O76 2.273 . S
Cd72 O80 2.277 . S
O73 C70 1.160 . S
O73 Cd74 2.203 . S
Cd74 O73 2.203 . S
Cd74 O76 2.411 . S
Cd74 O77 2.333 . S
Cd74 O78 2.352 . S
Cd74 O82 2.277 . S
Cd74 O83 2.356 . S
C75 O80 1.209 . S
C75 O82 1.226 . S
O76 Cd72 2.273 . S
O76 Cd74 2.411 . S
O76 C79 1.320 . S
O77 Cd74 2.333 . S
O77 C79 1.214 . S
O78 Cd74 2.352 . S
O78 C81 1.258 . S
C79 O76 1.320 . S
C79 O77 1.214 . S
O80 Cd72 2.277 . S
O80 C75 1.209 . S
C81 O78 1.258 . S
C81 O83 1.282 . S
O82 Cd74 2.277 . S
O82 C75 1.226 . S
O83 Cd74 2.356 . S
O83 C81 1.282 . S
C84 O85 1.306 . S
C84 O87 1.160 . S
O85 C84 1.306 . S
O85 Cd86 2.228 . S
Cd86 O85 2.228 . S
Cd86 O90 2.273 . S
Cd86 O94 2.277 . S
O87 C84 1.160 . S
O87 Cd88 2.203 . S
Cd88 O87 2.203 . S
Cd88 O90 2.411 . S
Cd88 O91 2.333 . S
Cd88 O92 2.352 . S
Cd88 O96 2.277 . S
Cd88 O97 2.356 . S
C89 O94 1.209 . S
C89 O96 1.226 . S
O90 Cd86 2.273 . S
O90 Cd88 2.411 . S
O90 C93 1.320 . S
O91 Cd88 2.333 . S
O91 C93 1.214 . S
O92 Cd88 2.352 . S
O92 C95 1.258 . S
C93 O90 1.320 . S
C93 O91 1.214 . S
O94 Cd86 2.277 . S
O94 C89 1.209 . S
C95 O92 1.258 . S
C95 O97 1.282 . S
O96 Cd88 2.277 . S
O96 C89 1.226 . S
O97 Cd88 2.356 . S
O97 C95 1.282 . S
C98 O99 1.306 . S
C98 O101 1.160 . S
O99 C98 1.306 . S
O99 Cd100 2.228 . S
Cd100 O99 2.228 . S
Cd100 O104 2.273 . S
Cd100 O108 2.277 . S
O101 C98 1.160 . S
O101 Cd102 2.203 . S
Cd102 O101 2.203 . S
Cd102 O104 2.411 . S
Cd102 O105 2.333 . S
Cd102 O106 2.352 . S
Cd102 O110 2.277 . S
Cd102 O111 2.356 . S
C103 O108 1.209 . S
C103 O110 1.226 . S
O104 Cd100 2.273 . S
O104 Cd102 2.411 . S
O104 C107 1.320 . S
O105 Cd102 2.333 . S
O105 C107 1.214 . S
O106 Cd102 2.352 . S
O106 C109 1.258 . S
C107 O104 1.320 . S
C107 O105 1.214 . S
O108 Cd100 2.277 . S
O108 C103 1.209 . S
C109 O106 1.258 . S
C109 O111 1.282 . S
O110 Cd102 2.277 . S
O110 C103 1.226 . S
O111 Cd102 2.356 . S
O111 C109 1.282 . S
C112 O113 1.306 . S
C112 O115 1.160 . S
O113 C112 1.306 . S
O113 Cd114 2.228 . S
Cd114 O113 2.228 . S
Cd114 O118 2.273 . S
Cd114 O122 2.277 . S
O115 C112 1.160 . S
O115 Cd116 2.203 . S
Cd116 O115 2.203 . S
Cd116 O118 2.411 . S
Cd116 O119 2.333 . S
Cd116 O120 2.352 . S
Cd116 O124 2.277 . S
Cd116 O125 2.356 . S
C117 O122 1.209 . S
C117 O124 1.226 . S
O118 Cd114 2.273 . S
O118 Cd116 2.411 . S
O118 C121 1.320 . S
O119 Cd116 2.333 . S
O119 C121 1.214 . S
O120 Cd116 2.352 . S
O120 C123 1.258 . S
C121 O118 1.320 . S
C121 O119 1.214 . S
O122 Cd114 2.277 . S
O122 C117 1.209 . S
C123 O120 1.258 . S
C123 O125 1.282 . S
O124 Cd116 2.277 . S
O124 C117 1.226 . S
O125 Cd116 2.356 . S
O125 C123 1.282 . S
C126 O127 1.306 . S
C126 O129 1.160 . S
O127 C126 1.306 . S
O127 Cd128 2.228 . S
Cd128 O127 2.228 . S
Cd128 O132 2.273 . S
Cd128 O136 2.277 . S
O129 C126 1.160 . S
O129 Cd130 2.203 . S
Cd130 O129 2.203 . S
Cd130 O132 2.411 . S
Cd130 O133 2.333 . S
Cd130 O134 2.352 . S
Cd130 O138 2.277 . S
Cd130 O139 2.356 . S
C131 O136 1.209 . S
C131 O138 1.226 . S
O132 Cd128 2.273 . S
O132 Cd130 2.411 . S
O132 C135 1.320 . S
O133 Cd130 2.333 . S
O133 C135 1.214 . S
O134 Cd130 2.352 . S
O134 C137 1.258 . S
C135 O132 1.320 . S
C135 O133 1.214 . S
O136 Cd128 2.277 . S
O136 C131 1.209 . S
C137 O134 1.258 . S
C137 O139 1.282 . S
O138 Cd130 2.277 . S
O138 C131 1.226 . S
O139 Cd130 2.356 . S
O139 C137 1.282 . S
C140 O141 1.306 . S
C140 O143 1.160 . S
O141 C140 1.306 . S
O141 Cd142 2.228 . S
Cd142 O141 2.228 . S
Cd142 O146 2.273 . S
Cd142 O150 2.277 . S
O143 C140 1.160 . S
O143 Cd144 2.203 . S
Cd144 O143 2.203 . S
Cd144 O146 2.411 . S
Cd144 O147 2.333 . S
Cd144 O148 2.352 . S
Cd144 O152 2.277 . S
Cd144 O153 2.356 . S
C145 O150 1.209 . S
C145 O152 1.226 . S
O146 Cd142 2.273 . S
O146 Cd144 2.411 . S
O146 C149 1.320 . S
O147 Cd144 2.333 . S
O147 C149 1.214 . S
O148 Cd144 2.352 . S
O148 C151 1.258 . S
C149 O146 1.320 . S
C149 O147 1.214 . S
O150 Cd142 2.277 . S
O150 C145 1.209 . S
C151 O148 1.258 . S
C151 O153 1.282 . S
O152 Cd144 2.277 . S
O152 C145 1.226 . S
O153 Cd144 2.356 . S
O153 C151 1.282 . S
C154 O155 1.306 . S
C154 O157 1.160 . S
O155 C154 1.306 . S
O155 Cd156 2.228 . S
Cd156 O155 2.228 . S
Cd156 O160 2.273 . S
Cd156 O164 2.277 . S
O157 C154 1.160 . S
O157 Cd158 2.203 . S
Cd158 O157 2.203 . S
Cd158 O160 2.411 . S
Cd158 O161 2.333 . S
Cd158 O162 2.352 . S
Cd158 O166 2.277 . S
Cd158 O167 2.356 . S
C159 O164 1.209 . S
C159 O166 1.226 . S
O160 Cd156 2.273 . S
O160 Cd158 2.411 . S
O160 C163 1.320 . S
O161 Cd158 2.333 . S
O161 C163 1.214 . S
O162 Cd158 2.352 . S
O162 C165 1.258 . S
C163 O160 1.320 . S
C163 O161 1.214 . S
O164 Cd156 2.277 . S
O164 C159 1.209 . S
C165 O162 1.258 . S
C165 O167 1.282 . S
O166 Cd158 2.277 . S
O166 C159 1.226 . S
O167 Cd158 2.356 . S
O167 C165 1.282 . S
C168 O169 1.306 . S
C168 O171 1.160 . S
O169 C168 1.306 . S
O169 Cd170 2.228 . S
Cd170 O169 2.228 . S
Cd170 O174 2.273 . S
Cd170 O178 2.277 . S
O171 C168 1.160 . S
O171 Cd172 2.203 . S
Cd172 O171 2.203 . S
Cd172 O174 2.411 . S
Cd172 O175 2.333 . S
Cd172 O176 2.352 . S
Cd172 O180 2.277 . S
Cd172 O181 2.356 . S
C173 O178 1.209 . S
C173 O180 1.226 . S
O174 Cd170 2.273 . S
O174 Cd172 2.411 . S
O174 C177 1.320 . S
O175 Cd172 2.333 . S
O175 C177 1.214 . S
O176 Cd172 2.352 . S
O176 C179 1.258 . S
C177 O174 1.320 . S
C177 O175 1.214 . S
O178 Cd170 2.277 . S
O178 C173 1.209 . S
C179 O176 1.258 . S
C179 O181 1.282 . S
O180 Cd172 2.277 . S
O180 C173 1.226 . S
O181 Cd172 2.356 . S
O181 C179 1.282 . S
C182 O183 1.306 . S
C182 O185 1.160 . S
O183 C182 1.306 . S
O183 Cd184 2.228 . S
Cd184 O183 2.228 . S
Cd184 O188 2.273 . S
Cd184 O192 2.277 . S
O185 C182 1.160 . S
O185 Cd186 2.203 . S
Cd186 O185 2.203 . S
Cd186 O188 2.411 . S
Cd186 O189 2.333 . S
Cd186 O190 2.352 . S
Cd186 O194 2.277 . S
Cd186 O195 2.356 . S
C187 O192 1.209 . S
C187 O194 1.226 . S
O188 Cd184 2.273 . S
O188 Cd186 2.411 . S
O188 C191 1.320 . S
O189 Cd186 2.333 . S
O189 C191 1.214 . S
O190 Cd186 2.352 . S
O190 C193 1.258 . S
C191 O188 1.320 . S
C191 O189 1.214 . S
O192 Cd184 2.277 . S
O192 C187 1.209 . S
C193 O190 1.258 . S
C193 O195 1.282 . S
O194 Cd186 2.277 . S
O194 C187 1.226 . S
O195 Cd186 2.356 . S
O195 C193 1.282 . S
C196 O197 1.306 . S
C196 O199 1.160 . S
O197 C196 1.306 . S
O197 Cd198 2.228 . S
Cd198 O197 2.228 . S
Cd198 O202 2.273 . S
Cd198 O206 2.277 . S
O199 C196 1.160 . S
O199 Cd200 2.203 . S
Cd200 O199 2.203 . S
Cd200 O202 2.411 . S
Cd200 O203 2.333 . S
Cd200 O204 2.352 . S
Cd200 O208 2.277 . S
Cd200 O209 2.356 . S
C201 O206 1.209 . S
C201 O208 1.226 . S
O202 Cd198 2.273 . S
O202 Cd200 2.411 . S
O202 C205 1.320 . S
O203 Cd200 2.333 . S
O203 C205 1.214 . S
O204 Cd200 2.352 . S
O204 C207 1.258 . S
C205 O202 1.320 . S
C205 O203 1.214 . S
O206 Cd198 2.277 . S
O206 C201 1.209 . S
C207 O204 1.258 . S
C207 O209 1.282 . S
O208 Cd200 2.277 . S
O208 C201 1.226 . S
O209 Cd200 2.356 . S
O209 C207 1.282 . S
C210 O211 1.306 . S
C210 O213 1.160 . S
O211 C210 1.306 . S
O211 Cd212 2.228 . S
Cd212 O211 2.228 . S
Cd212 O216 2.273 . S
Cd212 O220 2.277 . S
O213 C210 1.160 . S
O213 Cd214 2.203 . S
Cd214 O213 2.203 . S
Cd214 O216 2.411 . S
Cd214 O217 2.333 . S
Cd214 O218 2.352 . S
Cd214 O222 2.277 . S
Cd214 O223 2.356 . S
C215 O220 1.209 . S
C215 O222 1.226 . S
O216 Cd212 2.273 . S
O216 Cd214 2.411 . S
O216 C219 1.320 . S
O217 Cd214 2.333 . S
O217 C219 1.214 . S
O218 Cd214 2.352 . S
O218 C221 1.258 . S
C219 O216 1.320 . S
C219 O217 1.214 . S
O220 Cd212 2.277 . S
O220 C215 1.209 . S
C221 O218 1.258 . S
C221 O223 1.282 . S
O222 Cd214 2.277 . S
O222 C215 1.226 . S
O223 Cd214 2.356 . S
O223 C221 1.282 . S
C224 O225 1.306 . S
C224 O227 1.160 . S
O225 C224 1.306 . S
O225 Cd226 2.228 . S
Cd226 O225 2.228 . S
Cd226 O230 2.273 . S
Cd226 O234 2.277 . S
O227 C224 1.160 . S
O227 Cd228 2.203 . S
Cd228 O227 2.203 . S
Cd228 O230 2.411 . S
Cd228 O231 2.333 . S
Cd228 O232 2.352 . S
Cd228 O236 2.277 . S
Cd228 O237 2.356 . S
C229 O234 1.209 . S
C229 O236 1.226 . S
O230 Cd226 2.273 . S
O230 Cd228 2.411 . S
O230 C233 1.320 . S
O231 Cd228 2.333 . S
O231 C233 1.214 . S
O232 Cd228 2.352 . S
O232 C235 1.258 . S
C233 O230 1.320 . S
C233 O231 1.214 . S
O234 Cd226 2.277 . S
O234 C229 1.209 . S
C235 O232 1.258 . S
C235 O237 1.282 . S
O236 Cd228 2.277 . S
O236 C229 1.226 . S
O237 Cd228 2.356 . S
O237 C235 1.282 . S
C238 O239 1.306 . S
C238 O241 1.160 . S
O239 C238 1.306 . S
O239 Cd240 2.228 . S
Cd240 O239 2.228 . S
Cd240 O244 2.273 . S
Cd240 O248 2.277 . S
O241 C238 1.160 . S
O241 Cd242 2.203 . S
Cd242 O241 2.203 . S
Cd242 O244 2.411 . S
Cd242 O245 2.333 . S
Cd242 O246 2.352 . S
Cd242 O250 2.277 . S
Cd242 O251 2.356 . S
C243 O248 1.209 . S
C243 O250 1.226 . S
O244 Cd240 2.273 . S
O244 Cd242 2.411 . S
O244 C247 1.320 . S
O245 Cd242 2.333 . S
O245 C247 1.214 . S
O246 Cd242 2.352 . S
O246 C249 1.258 . S
C247 O244 1.320 . S
C247 O245 1.214 . S
O248 Cd240 2.277 . S
O248 C243 1.209 . S
C249 O246 1.258 . S
C249 O251 1.282 . S
O250 Cd242 2.277 . S
O250 C243 1.226 . S
O251 Cd242 2.356 . S
O251 C249 1.282 . S
C252 O253 1.306 . S
C252 O255 1.160 . S
O253 C252 1.306 . S
O253 Cd254 2.228 . S
Cd254 O253 2.228 . S
Cd254 O258 2.273 . S
Cd254 O262 2.277 . S
O255 C252 1.160 . S
O255 Cd256 2.203 . S
Cd256 O255 2.203 . S
Cd256 O258 2.411 . S
Cd256 O259 2.333 . S
Cd256 O260 2.352 . S
Cd256 O264 2.277 . S
Cd256 O265 2.356 . S
C257 O262 1.209 . S
C257 O264 1.226 . S
O258 Cd254 2.273 . S
O258 Cd256 2.411 . S
O258 C261 1.320 . S
O259 Cd256 2.333 . S
O259 C261 1.214 . S
O260 Cd256 2.352 . S
O260 C263 1.258 . S
C261 O258 1.320 . S
C261 O259 1.214 . S
O262 Cd254 2.277 . S
O262 C257 1.209 . S
C263 O260 1.258 . S
C263 O265 1.282 . S
O264 Cd256 2.277 . S
O264 C257 1.226 . S
O265 Cd256 2.356 . S
O265 C263 1.282 . S
C266 O267 1.306 . S
C266 O269 1.160 . S
O267 C266 1.306 . S
O267 Cd268 2.228 . S
Cd268 O267 2.228 . S
Cd268 O272 2.273 . S
Cd268 O276 2.277 . S
O269 C266 1.160 . S
O269 Cd270 2.203 . S
Cd270 O269 2.203 . S
Cd270 O272 2.411 . S
Cd270 O273 2.333 . S
Cd270 O274 2.352 . S
Cd270 O278 2.277 . S
Cd270 O279 2.356 . S
C271 O276 1.209 . S
C271 O278 1.226 . S
O272 Cd268 2.273 . S
O272 Cd270 2.411 . S
O272 C275 1.320 . S
O273 Cd270 2.333 . S
O273 C275 1.214 . S
O274 Cd270 2.352 . S
O274 C277 1.258 . S
C275 O272 1.320 . S
C275 O273 1.214 . S
O276 Cd268 2.277 . S
O276 C271 1.209 . S
C277 O274 1.258 . S
C277 O279 1.282 . S
O278 Cd270 2.277 . S
O278 C271 1.226 . S
O279 Cd270 2.356 . S
O279 C277 1.282 . S
C280 O281 1.306 . S
C280 O283 1.160 . S
O281 C280 1.306 . S
O281 Cd282 2.228 . S
Cd282 O281 2.228 . S
Cd282 O286 2.273 . S
Cd282 O290 2.277 . S
O283 C280 1.160 . S
O283 Cd284 2.203 . S
Cd284 O283 2.203 . S
Cd284 O286 2.411 . S
Cd284 O287 2.333 . S
Cd284 O288 2.352 . S
Cd284 O292 2.277 . S
Cd284 O293 2.356 . S
C285 O290 1.209 . S
C285 O292 1.226 . S
O286 Cd282 2.273 . S
O286 Cd284 2.411 . S
O286 C289 1.320 . S
O287 Cd284 2.333 . S
O287 C289 1.214 . S
O288 Cd284 2.352 . S
O288 C291 1.258 . S
C289 O286 1.320 . S
C289 O287 1.214 . S
O290 Cd282 2.277 . S
O290 C285 1.209 . S
C291 O288 1.258 . S
C291 O293 1.282 . S
O292 Cd284 2.277 . S
O292 C285 1.226 . S
O293 Cd284 2.356 . S
O293 C291 1.282 . S
C294 O295 1.306 . S
C294 O297 1.160 . S
O295 C294 1.306 . S
O295 Cd296 2.228 . S
Cd296 O295 2.228 . S
Cd296 O300 2.273 . S
Cd296 O304 2.277 . S
O297 C294 1.160 . S
O297 Cd298 2.203 . S
Cd298 O297 2.203 . S
Cd298 O300 2.411 . S
Cd298 O301 2.333 . S
Cd298 O302 2.352 . S
Cd298 O306 2.277 . S
Cd298 O307 2.356 . S
C299 O304 1.209 . S
C299 O306 1.226 . S
O300 Cd296 2.273 . S
O300 Cd298 2.411 . S
O300 C303 1.320 . S
O301 Cd298 2.333 . S
O301 C303 1.214 . S
O302 Cd298 2.352 . S
O302 C305 1.258 . S
C303 O300 1.320 . S
C303 O301 1.214 . S
O304 Cd296 2.277 . S
O304 C299 1.209 . S
C305 O302 1.258 . S
C305 O307 1.282 . S
O306 Cd298 2.277 . S
O306 C299 1.226 . S
O307 Cd298 2.356 . S
O307 C305 1.282 . S
C308 O309 1.306 . S
C308 O311 1.160 . S
O309 C308 1.306 . S
O309 Cd310 2.228 . S
Cd310 O309 2.228 . S
Cd310 O314 2.273 . S
Cd310 O318 2.277 . S
O311 C308 1.160 . S
O311 Cd312 2.203 . S
Cd312 O311 2.203 . S
Cd312 O314 2.411 . S
Cd312 O315 2.333 . S
Cd312 O316 2.352 . S
Cd312 O320 2.277 . S
Cd312 O321 2.356 . S
C313 O318 1.209 . S
C313 O320 1.226 . S
O314 Cd310 2.273 . S
O314 Cd312 2.411 . S
O314 C317 1.320 . S
O315 Cd312 2.333 . S
O315 C317 1.214 . S
O316 Cd312 2.352 . S
O316 C319 1.258 . S
C317 O314 1.320 . S
C317 O315 1.214 . S
O318 Cd310 2.277 . S
O318 C313 1.209 . S
C319 O316 1.258 . S
C319 O321 1.282 . S
O320 Cd312 2.277 . S
O320 C313 1.226 . S
O321 Cd312 2.356 . S
O321 C319 1.282 . S
C322 O323 1.306 . S
C322 O325 1.160 . S
O323 C322 1.306 . S
O323 Cd324 2.228 . S
Cd324 O323 2.228 . S
Cd324 O328 2.273 . S
Cd324 O332 2.277 . S
O325 C322 1.160 . S
O325 Cd326 2.203 . S
Cd326 O325 2.203 . S
Cd326 O328 2.411 . S
Cd326 O329 2.333 . S
Cd326 O330 2.352 . S
Cd326 O334 2.277 . S
Cd326 O335 2.356 . S
C327 O332 1.209 . S
C327 O334 1.226 . S
O328 Cd324 2.273 . S
O328 Cd326 2.411 . S
O328 C331 1.320 . S
O329 Cd326 2.333 . S
O329 C331 1.214 . S
O330 Cd326 2.352 . S
O330 C333 1.258 . S
C331 O328 1.320 . S
C331 O329 1.214 . S
O332 Cd324 2.277 . S
O332 C327 1.209 . S
C333 O330 1.258 . S
C333 O335 1.282 . S
O334 Cd326 2.277 . S
O334 C327 1.226 . S
O335 Cd326 2.356 . S
O335 C333 1.282 . S
C336 C337 1.387 . S
C336 H340 0.950 . S
C336 C345 1.390 1_545 S
C337 C336 1.387 . S
C337 C339 1.387 . S
H338 C345 0.950 . S
C339 C337 1.387 . S
C339 C341 1.390 1_545 S
C339 H343 0.950 . S
H340 C336 0.950 . S
C341 C339 1.390 1_565 S
C341 C342 1.387 . S
C341 H344 0.950 . S
C342 C341 1.387 . S
C342 C345 1.387 . S
H343 C339 0.950 . S
H344 C341 0.950 . S
C345 C336 1.390 1_565 S
C345 H338 0.950 . S
C345 C342 1.387 . S
C346 C347 1.387 . S
C346 H350 0.950 . S
C346 C355 1.390 . S
C347 C346 1.387 . S
C347 C349 1.387 . S
H348 C355 0.950 . S
C349 C347 1.387 . S
C349 C351 1.390 . S
C349 H353 0.950 . S
H350 C346 0.950 . S
C351 C349 1.390 . S
C351 C352 1.387 . S
C351 H354 0.950 . S
C352 C351 1.387 . S
C352 C355 1.387 . S
H353 C349 0.950 . S
H354 C351 0.950 . S
C355 C346 1.390 . S
C355 H348 0.950 . S
C355 C352 1.387 . S
C356 C357 1.387 . S
C356 H360 0.950 . S
C356 C365 1.390 1_655 S
C357 C356 1.387 . S
C357 C359 1.387 . S
H358 C365 0.950 . S
C359 C357 1.387 . S
C359 C361 1.390 1_655 S
C359 H363 0.950 . S
H360 C356 0.950 . S
C361 C359 1.390 1_455 S
C361 C362 1.387 . S
C361 H364 0.950 . S
C362 C361 1.387 . S
C362 C365 1.387 . S
H363 C359 0.950 . S
H364 C361 0.950 . S
C365 C356 1.390 1_455 S
C365 H358 0.950 . S
C365 C362 1.387 . S
C366 C367 1.387 . S
C366 H370 0.950 . S
C366 C375 1.390 1_565 S
C367 C366 1.387 . S
C367 C369 1.387 . S
H368 C375 0.950 . S
C369 C367 1.387 . S
C369 C371 1.390 1_565 S
C369 H373 0.950 . S
H370 C366 0.950 . S
C371 C369 1.390 1_545 S
C371 C372 1.387 . S
C371 H374 0.950 . S
C372 C371 1.387 . S
C372 C375 1.387 . S
H373 C369 0.950 . S
H374 C371 0.950 . S
C375 C366 1.390 1_545 S
C375 H368 0.950 . S
C375 C372 1.387 . S
C376 C377 1.387 . S
C376 H380 0.950 . S
C376 C385 1.390 . S
C377 C376 1.387 . S
C377 C379 1.387 . S
H378 C385 0.950 . S
C379 C377 1.387 . S
C379 C381 1.390 . S
C379 H383 0.950 . S
H380 C376 0.950 . S
C381 C379 1.390 . S
C381 C382 1.387 . S
C381 H384 0.950 . S
C382 C381 1.387 . S
C382 C385 1.387 . S
H383 C379 0.950 . S
H384 C381 0.950 . S
C385 C376 1.390 . S
C385 H378 0.950 . S
C385 C382 1.387 . S
C386 C387 1.387 . S
C386 H390 0.950 . S
C386 C395 1.390 1_455 S
C387 C386 1.387 . S
C387 C389 1.387 . S
H388 C395 0.950 . S
C389 C387 1.387 . S
C389 C391 1.390 1_455 S
C389 H393 0.950 . S
H390 C386 0.950 . S
C391 C389 1.390 1_655 S
C391 C392 1.387 . S
C391 H394 0.950 . S
C392 C391 1.387 . S
C392 C395 1.387 . S
H393 C389 0.950 . S
H394 C391 0.950 . S
C395 C386 1.390 1_655 S
C395 H388 0.950 . S
C395 C392 1.387 . S
C396 C397 1.387 . S
C396 H400 0.950 . S
C396 C405 1.390 1_565 S
C397 C396 1.387 . S
C397 C399 1.387 . S
H398 C405 0.950 . S
C399 C397 1.387 . S
C399 C401 1.390 1_565 S
C399 H403 0.950 . S
H400 C396 0.950 . S
C401 C399 1.390 1_545 S
C401 C402 1.387 . S
C401 H404 0.950 . S
C402 C401 1.387 . S
C402 C405 1.387 . S
H403 C399 0.950 . S
H404 C401 0.950 . S
C405 C396 1.390 1_545 S
C405 H398 0.950 . S
C405 C402 1.387 . S
C406 C407 1.387 . S
C406 H410 0.950 . S
C406 C415 1.390 . S
C407 C406 1.387 . S
C407 C409 1.387 . S
H408 C415 0.950 . S
C409 C407 1.387 . S
C409 C411 1.390 . S
C409 H413 0.950 . S
H410 C406 0.950 . S
C411 C409 1.390 . S
C411 C412 1.387 . S
C411 H414 0.950 . S
C412 C411 1.387 . S
C412 C415 1.387 . S
H413 C409 0.950 . S
H414 C411 0.950 . S
C415 C406 1.390 . S
C415 H408 0.950 . S
C415 C412 1.387 . S
C416 C417 1.387 . S
C416 H420 0.950 . S
C416 C425 1.390 1_655 S
C417 C416 1.387 . S
C417 C419 1.387 . S
H418 C425 0.950 . S
C419 C417 1.387 . S
C419 C421 1.390 1_655 S
C419 H423 0.950 . S
H420 C416 0.950 . S
C421 C419 1.390 1_455 S
C421 C422 1.387 . S
C421 H424 0.950 . S
C422 C421 1.387 . S
C422 C425 1.387 . S
H423 C419 0.950 . S
H424 C421 0.950 . S
C425 C416 1.390 1_455 S
C425 H418 0.950 . S
C425 C422 1.387 . S
C426 C427 1.387 . S
C426 H430 0.950 . S
C426 C435 1.390 1_545 S
C427 C426 1.387 . S
C427 C429 1.387 . S
H428 C435 0.950 . S
C429 C427 1.387 . S
C429 C431 1.390 1_545 S
C429 H433 0.950 . S
H430 C426 0.950 . S
C431 C429 1.390 1_565 S
C431 C432 1.387 . S
C431 H434 0.950 . S
C432 C431 1.387 . S
C432 C435 1.387 . S
H433 C429 0.950 . S
H434 C431 0.950 . S
C435 C426 1.390 1_565 S
C435 H428 0.950 . S
C435 C432 1.387 . S
C436 C437 1.387 . S
C436 H440 0.950 . S
C436 C445 1.390 . S
C437 C436 1.387 . S
C437 C439 1.387 . S
H438 C445 0.950 . S
C439 C437 1.387 . S
C439 C441 1.390 . S
C439 H443 0.950 . S
H440 C436 0.950 . S
C441 C439 1.390 . S
C441 C442 1.387 . S
C441 H444 0.950 . S
C442 C441 1.387 . S
C442 C445 1.387 . S
H443 C439 0.950 . S
H444 C441 0.950 . S
C445 C436 1.390 . S
C445 H438 0.950 . S
C445 C442 1.387 . S
C446 C447 1.387 . S
C446 H450 0.950 . S
C446 C455 1.390 1_455 S
C447 C446 1.387 . S
C447 C449 1.387 . S
H448 C455 0.950 . S
C449 C447 1.387 . S
C449 C451 1.390 1_455 S
C449 H453 0.950 . S
H450 C446 0.950 . S
C451 C449 1.390 1_655 S
C451 C452 1.387 . S
C451 H454 0.950 . S
C452 C451 1.387 . S
C452 C455 1.387 . S
H453 C449 0.950 . S
H454 C451 0.950 . S
C455 C446 1.390 1_655 S
C455 H448 0.950 . S
C455 C452 1.387 . S
C456 C457 1.387 . S
C456 H460 0.950 . S
C456 C465 1.390 . S
C457 C456 1.387 . S
C457 C459 1.387 . S
H458 C465 0.950 . S
C459 C457 1.387 . S
C459 C461 1.390 . S
C459 H463 0.950 . S
H460 C456 0.950 . S
C461 C459 1.390 . S
C461 C462 1.387 . S
C461 H464 0.950 . S
C462 C461 1.387 . S
C462 C465 1.387 . S
H463 C459 0.950 . S
H464 C461 0.950 . S
C465 C456 1.390 . S
C465 H458 0.950 . S
C465 C462 1.387 . S
C466 C467 1.387 . S
C466 H470 0.950 . S
C466 C475 1.390 . S
C467 C466 1.387 . S
C467 C469 1.387 . S
H468 C475 0.950 . S
C469 C467 1.387 . S
C469 C471 1.390 . S
C469 H473 0.950 . S
H470 C466 0.950 . S
C471 C469 1.390 . S
C471 C472 1.387 . S
C471 H474 0.950 . S
C472 C471 1.387 . S
C472 C475 1.387 . S
H473 C469 0.950 . S
H474 C471 0.950 . S
C475 C466 1.390 . S
C475 H468 0.950 . S
C475 C472 1.387 . S
C476 C477 1.387 . S
C476 H480 0.950 . S
C476 C485 1.390 . S
C477 C476 1.387 . S
C477 C479 1.387 . S
H478 C485 0.950 . S
C479 C477 1.387 . S
C479 C481 1.390 . S
C479 H483 0.950 . S
H480 C476 0.950 . S
C481 C479 1.390 . S
C481 C482 1.387 . S
C481 H484 0.950 . S
C482 C481 1.387 . S
C482 C485 1.387 . S
H483 C479 0.950 . S
H484 C481 0.950 . S
C485 C476 1.390 . S
C485 H478 0.950 . S
C485 C482 1.387 . S
C486 C487 1.387 . S
C486 H490 0.950 . S
C486 C495 1.390 . S
C487 C486 1.387 . S
C487 C489 1.387 . S
H488 C495 0.950 . S
C489 C487 1.387 . S
C489 C491 1.390 . S
C489 H493 0.950 . S
H490 C486 0.950 . S
C491 C489 1.390 . S
C491 C492 1.387 . S
C491 H494 0.950 . S
C492 C491 1.387 . S
C492 C495 1.387 . S
H493 C489 0.950 . S
H494 C491 0.950 . S
C495 C486 1.390 . S
C495 H488 0.950 . S
C495 C492 1.387 . S
C496 C497 1.387 . S
C496 H500 0.950 . S
C496 C505 1.390 . S
C497 C496 1.387 . S
C497 C499 1.387 . S
H498 C505 0.950 . S
C499 C497 1.387 . S
C499 C501 1.390 . S
C499 H503 0.950 . S
H500 C496 0.950 . S
C501 C499 1.390 . S
C501 C502 1.387 . S
C501 H504 0.950 . S
C502 C501 1.387 . S
C502 C505 1.387 . S
H503 C499 0.950 . S
H504 C501 0.950 . S
C505 C496 1.390 . S
C505 H498 0.950 . S
C505 C502 1.387 . S
C506 C507 1.387 . S
C506 H510 0.950 . S
C506 C515 1.390 . S
C507 C506 1.387 . S
C507 C509 1.387 . S
H508 C515 0.950 . S
C509 C507 1.387 . S
C509 C511 1.390 . S
C509 H513 0.950 . S
H510 C506 0.950 . S
C511 C509 1.390 . S
C511 C512 1.387 . S
C511 H514 0.950 . S
C512 C511 1.387 . S
C512 C515 1.387 . S
H513 C509 0.950 . S
H514 C511 0.950 . S
C515 C506 1.390 . S
C515 H508 0.950 . S
C515 C512 1.387 . S
C516 C517 1.387 . S
C516 H520 0.950 . S
C516 C525 1.390 . S
C517 C516 1.387 . S
C517 C519 1.387 . S
H518 C525 0.950 . S
C519 C517 1.387 . S
C519 C521 1.390 . S
C519 H523 0.950 . S
H520 C516 0.950 . S
C521 C519 1.390 . S
C521 C522 1.387 . S
C521 H524 0.950 . S
C522 C521 1.387 . S
C522 C525 1.387 . S
H523 C519 0.950 . S
H524 C521 0.950 . S
C525 C516 1.390 . S
C525 H518 0.950 . S
C525 C522 1.387 . S
C526 C527 1.387 . S
C526 H530 0.950 . S
C526 C535 1.390 . S
C527 C526 1.387 . S
C527 C529 1.387 . S
H528 C535 0.950 . S
C529 C527 1.387 . S
C529 C531 1.390 . S
C529 H533 0.950 . S
H530 C526 0.950 . S
C531 C529 1.390 . S
C531 C532 1.387 . S
C531 H534 0.950 . S
C532 C531 1.387 . S
C532 C535 1.387 . S
H533 C529 0.950 . S
H534 C531 0.950 . S
C535 C526 1.390 . S
C535 H528 0.950 . S
C535 C532 1.387 . S
C536 C537 1.387 . S
C536 H540 0.950 . S
C536 C545 1.390 . S
C537 C536 1.387 . S
C537 C539 1.387 . S
H538 C545 0.950 . S
C539 C537 1.387 . S
C539 C541 1.390 . S
C539 H543 0.950 . S
H540 C536 0.950 . S
C541 C539 1.390 . S
C541 C542 1.387 . S
C541 H544 0.950 . S
C542 C541 1.387 . S
C542 C545 1.387 . S
H543 C539 0.950 . S
H544 C541 0.950 . S
C545 C536 1.390 . S
C545 H538 0.950 . S
C545 C542 1.387 . S
C546 C547 1.387 . S
C546 H550 0.950 . S
C546 C555 1.390 . S
C547 C546 1.387 . S
C547 C549 1.387 . S
H548 C555 0.950 . S
C549 C547 1.387 . S
C549 C551 1.390 . S
C549 H553 0.950 . S
H550 C546 0.950 . S
C551 C549 1.390 . S
C551 C552 1.387 . S
C551 H554 0.950 . S
C552 C551 1.387 . S
C552 C555 1.387 . S
H553 C549 0.950 . S
H554 C551 0.950 . S
C555 C546 1.390 . S
C555 H548 0.950 . S
C555 C552 1.387 . S
C556 C557 1.387 . S
C556 H560 0.950 . S
C556 C565 1.390 . S
C557 C556 1.387 . S
C557 C559 1.387 . S
H558 C565 0.950 . S
C559 C557 1.387 . S
C559 C561 1.390 . S
C559 H563 0.950 . S
H560 C556 0.950 . S
C561 C559 1.390 . S
C561 C562 1.387 . S
C561 H564 0.950 . S
C562 C561 1.387 . S
C562 C565 1.387 . S
H563 C559 0.950 . S
H564 C561 0.950 . S
C565 C556 1.390 . S
C565 H558 0.950 . S
C565 C562 1.387 . S
C566 C567 1.387 . S
C566 H570 0.950 . S
C566 C575 1.390 . S
C567 C566 1.387 . S
C567 C569 1.387 . S
H568 C575 0.950 . S
C569 C567 1.387 . S
C569 C571 1.390 . S
C569 H573 0.950 . S
H570 C566 0.950 . S
C571 C569 1.390 . S
C571 C572 1.387 . S
C571 H574 0.950 . S
C572 C571 1.387 . S
C572 C575 1.387 . S
H573 C569 0.950 . S
H574 C571 0.950 . S
C575 C566 1.390 . S
C575 H568 0.950 . S
C575 C572 1.387 . S
C576 C577 1.387 . S
C576 H580 0.950 . S
C576 C585 1.390 1_554 S
C577 C576 1.387 . S
C577 C579 1.387 . S
H578 C585 0.950 . S
C579 C577 1.387 . S
C579 C581 1.390 1_554 S
C579 H583 0.950 . S
H580 C576 0.950 . S
C581 C579 1.390 1_556 S
C581 C582 1.387 . S
C581 H584 0.950 . S
C582 C581 1.387 . S
C582 C585 1.387 . S
H583 C579 0.950 . S
H584 C581 0.950 . S
C585 C576 1.390 1_556 S
C585 H578 0.950 . S
C585 C582 1.387 . S
C586 C587 1.387 . S
C586 H590 0.950 . S
C586 C595 1.390 1_556 S
C587 C586 1.387 . S
C587 C589 1.387 . S
H588 C595 0.950 . S
C589 C587 1.387 . S
C589 C591 1.390 1_556 S
C589 H593 0.950 . S
H590 C586 0.950 . S
C591 C589 1.390 1_554 S
C591 C592 1.387 . S
C591 H594 0.950 . S
C592 C591 1.387 . S
C592 C595 1.387 . S
H593 C589 0.950 . S
H594 C591 0.950 . S
C595 C586 1.390 1_554 S
C595 H588 0.950 . S
C595 C592 1.387 . S
C596 C597 1.387 . S
C596 H600 0.950 . S
C596 C605 1.390 1_556 S
C597 C596 1.387 . S
C597 C599 1.387 . S
H598 C605 0.950 . S
C599 C597 1.387 . S
C599 C601 1.390 1_556 S
C599 H603 0.950 . S
H600 C596 0.950 . S
C601 C599 1.390 1_554 S
C601 C602 1.387 . S
C601 H604 0.950 . S
C602 C601 1.387 . S
C602 C605 1.387 . S
H603 C599 0.950 . S
H604 C601 0.950 . S
C605 C596 1.390 1_554 S
C605 H598 0.950 . S
C605 C602 1.387 . S
C606 C607 1.387 . S
C606 H610 0.950 . S
C606 C615 1.390 1_554 S
C607 C606 1.387 . S
C607 C609 1.387 . S
H608 C615 0.950 . S
C609 C607 1.387 . S
C609 C611 1.390 1_554 S
C609 H613 0.950 . S
H610 C606 0.950 . S
C611 C609 1.390 1_556 S
C611 C612 1.387 . S
C611 H614 0.950 . S
C612 C611 1.387 . S
C612 C615 1.387 . S
H613 C609 0.950 . S
H614 C611 0.950 . S
C615 C606 1.390 1_556 S
C615 H608 0.950 . S
C615 C612 1.387 . S
C616 C617 1.387 . S
C616 H620 0.950 . S
C616 C625 1.390 1_554 S
C617 C616 1.387 . S
C617 C619 1.387 . S
H618 C625 0.950 . S
C619 C617 1.387 . S
C619 C621 1.390 1_554 S
C619 H623 0.950 . S
H620 C616 0.950 . S
C621 C619 1.390 1_556 S
C621 C622 1.387 . S
C621 H624 0.950 . S
C622 C621 1.387 . S
C622 C625 1.387 . S
H623 C619 0.950 . S
H624 C621 0.950 . S
C625 C616 1.390 1_556 S
C625 H618 0.950 . S
C625 C622 1.387 . S
C626 C627 1.387 . S
C626 H630 0.950 . S
C626 C635 1.390 1_556 S
C627 C626 1.387 . S
C627 C629 1.387 . S
H628 C635 0.950 . S
C629 C627 1.387 . S
C629 C631 1.390 1_556 S
C629 H633 0.950 . S
H630 C626 0.950 . S
C631 C629 1.390 1_554 S
C631 C632 1.387 . S
C631 H634 0.950 . S
C632 C631 1.387 . S
C632 C635 1.387 . S
H633 C629 0.950 . S
H634 C631 0.950 . S
C635 C626 1.390 1_554 S
C635 H628 0.950 . S
C635 C632 1.387 . S
C636 C637 1.387 . S
C636 H640 0.950 . S
C636 C645 1.390 . S
C637 C636 1.387 . S
C637 C639 1.387 . S
H638 C645 0.950 . S
C639 C637 1.387 . S
C639 C641 1.390 . S
C639 H643 0.950 . S
H640 C636 0.950 . S
C641 C639 1.390 . S
C641 C642 1.387 . S
C641 H644 0.950 . S
C642 C641 1.387 . S
C642 C645 1.387 . S
H643 C639 0.950 . S
H644 C641 0.950 . S
C645 C636 1.390 . S
C645 H638 0.950 . S
C645 C642 1.387 . S
C646 C647 1.387 . S
C646 H650 0.950 . S
C646 C655 1.390 . S
C647 C646 1.387 . S
C647 C649 1.387 . S
H648 C655 0.950 . S
C649 C647 1.387 . S
C649 C651 1.390 . S
C649 H653 0.950 . S
H650 C646 0.950 . S
C651 C649 1.390 . S
C651 C652 1.387 . S
C651 H654 0.950 . S
C652 C651 1.387 . S
C652 C655 1.387 . S
H653 C649 0.950 . S
H654 C651 0.950 . S
C655 C646 1.390 . S
C655 H648 0.950 . S
C655 C652 1.387 . S
C656 C657 1.387 . S
C656 H660 0.950 . S
C656 C665 1.390 . S
C657 C656 1.387 . S
C657 C659 1.387 . S
H658 C665 0.950 . S
C659 C657 1.387 . S
C659 C661 1.390 . S
C659 H663 0.950 . S
H660 C656 0.950 . S
C661 C659 1.390 . S
C661 C662 1.387 . S
C661 H664 0.950 . S
C662 C661 1.387 . S
C662 C665 1.387 . S
H663 C659 0.950 . S
H664 C661 0.950 . S
C665 C656 1.390 . S
C665 H658 0.950 . S
C665 C662 1.387 . S
C666 C667 1.387 . S
C666 H670 0.950 . S
C666 C675 1.390 . S
C667 C666 1.387 . S
C667 C669 1.387 . S
H668 C675 0.950 . S
C669 C667 1.387 . S
C669 C671 1.390 . S
C669 H673 0.950 . S
H670 C666 0.950 . S
C671 C669 1.390 . S
C671 C672 1.387 . S
C671 H674 0.950 . S
C672 C671 1.387 . S
C672 C675 1.387 . S
H673 C669 0.950 . S
H674 C671 0.950 . S
C675 C666 1.390 . S
C675 H668 0.950 . S
C675 C672 1.387 . S
C676 C677 1.387 . S
C676 H680 0.950 . S
C676 C685 1.390 . S
C677 C676 1.387 . S
C677 C679 1.387 . S
H678 C685 0.950 . S
C679 C677 1.387 . S
C679 C681 1.390 . S
C679 H683 0.950 . S
H680 C676 0.950 . S
C681 C679 1.390 . S
C681 C682 1.387 . S
C681 H684 0.950 . S
C682 C681 1.387 . S
C682 C685 1.387 . S
H683 C679 0.950 . S
H684 C681 0.950 . S
C685 C676 1.390 . S
C685 H678 0.950 . S
C685 C682 1.387 . S
C686 C687 1.387 . S
C686 H690 0.950 . S
C686 C695 1.390 . S
C687 C686 1.387 . S
C687 C689 1.387 . S
H688 C695 0.950 . S
C689 C687 1.387 . S
C689 C691 1.390 . S
C689 H693 0.950 . S
H690 C686 0.950 . S
C691 C689 1.390 . S
C691 C692 1.387 . S
C691 H694 0.950 . S
C692 C691 1.387 . S
C692 C695 1.387 . S
H693 C689 0.950 . S
H694 C691 0.950 . S
C695 C686 1.390 . S
C695 H688 0.950 . S
C695 C692 1.387 . S
C696 C697 1.387 . S
C696 H700 0.950 . S
C696 C705 1.390 . S
C697 C696 1.387 . S
C697 C699 1.387 . S
H698 C705 0.950 . S
C699 C697 1.387 . S
C699 C701 1.390 . S
C699 H703 0.950 . S
H700 C696 0.950 . S
C701 C699 1.390 . S
C701 C702 1.387 . S
C701 H704 0.950 . S
C702 C701 1.387 . S
C702 C705 1.387 . S
H703 C699 0.950 . S
H704 C701 0.950 . S
C705 C696 1.390 . S
C705 H698 0.950 . S
C705 C702 1.387 . S
C706 C707 1.387 . S
C706 H710 0.950 . S
C706 C715 1.390 . S
C707 C706 1.387 . S
C707 C709 1.387 . S
H708 C715 0.950 . S
C709 C707 1.387 . S
C709 C711 1.390 . S
C709 H713 0.950 . S
H710 C706 0.950 . S
C711 C709 1.390 . S
C711 C712 1.387 . S
C711 H714 0.950 . S
C712 C711 1.387 . S
C712 C715 1.387 . S
H713 C709 0.950 . S
H714 C711 0.950 . S
C715 C706 1.390 . S
C715 H708 0.950 . S
C715 C712 1.387 . S
C716 C717 1.387 . S
C716 H720 0.950 . S
C716 C725 1.390 . S
C717 C716 1.387 . S
C717 C719 1.387 . S
H718 C725 0.950 . S
C719 C717 1.387 . S
C719 C721 1.390 . S
C719 H723 0.950 . S
H720 C716 0.950 . S
C721 C719 1.390 . S
C721 C722 1.387 . S
C721 H724 0.950 . S
C722 C721 1.387 . S
C722 C725 1.387 . S
H723 C719 0.950 . S
H724 C721 0.950 . S
C725 C716 1.390 . S
C725 H718 0.950 . S
C725 C722 1.387 . S
C726 C727 1.387 . S
C726 H730 0.950 . S
C726 C735 1.390 . S
C727 C726 1.387 . S
C727 C729 1.387 . S
H728 C735 0.950 . S
C729 C727 1.387 . S
C729 C731 1.390 . S
C729 H733 0.950 . S
H730 C726 0.950 . S
C731 C729 1.390 . S
C731 C732 1.387 . S
C731 H734 0.950 . S
C732 C731 1.387 . S
C732 C735 1.387 . S
H733 C729 0.950 . S
H734 C731 0.950 . S
C735 C726 1.390 . S
C735 H728 0.950 . S
C735 C732 1.387 . S
C736 C737 1.387 . S
C736 H740 0.950 . S
C736 C745 1.390 . S
C737 C736 1.387 . S
C737 C739 1.387 . S
H738 C745 0.950 . S
C739 C737 1.387 . S
C739 C741 1.390 . S
C739 H743 0.950 . S
H740 C736 0.950 . S
C741 C739 1.390 . S
C741 C742 1.387 . S
C741 H744 0.950 . S
C742 C741 1.387 . S
C742 C745 1.387 . S
H743 C739 0.950 . S
H744 C741 0.950 . S
C745 C736 1.390 . S
C745 H738 0.950 . S
C745 C742 1.387 . S
C746 C747 1.387 . S
C746 H750 0.950 . S
C746 C755 1.390 . S
C747 C746 1.387 . S
C747 C749 1.387 . S
H748 C755 0.950 . S
C749 C747 1.387 . S
C749 C751 1.390 . S
C749 H753 0.950 . S
H750 C746 0.950 . S
C751 C749 1.390 . S
C751 C752 1.387 . S
C751 H754 0.950 . S
C752 C751 1.387 . S
C752 C755 1.387 . S
H753 C749 0.950 . S
H754 C751 0.950 . S
C755 C746 1.390 . S
C755 H748 0.950 . S
C755 C752 1.387 . S
C756 C757 1.387 . S
C756 H760 0.950 . S
C756 C765 1.390 . S
C757 C756 1.387 . S
C757 C759 1.387 . S
H758 C765 0.950 . S
C759 C757 1.387 . S
C759 C761 1.390 . S
C759 H763 0.950 . S
H760 C756 0.950 . S
C761 C759 1.390 . S
C761 C762 1.387 . S
C761 H764 0.950 . S
C762 C761 1.387 . S
C762 C765 1.387 . S
H763 C759 0.950 . S
H764 C761 0.950 . S
C765 C756 1.390 . S
C765 H758 0.950 . S
C765 C762 1.387 . S
C766 C767 1.387 . S
C766 H770 0.950 . S
C766 C775 1.390 . S
C767 C766 1.387 . S
C767 C769 1.387 . S
H768 C775 0.950 . S
C769 C767 1.387 . S
C769 C771 1.390 . S
C769 H773 0.950 . S
H770 C766 0.950 . S
C771 C769 1.390 . S
C771 C772 1.387 . S
C771 H774 0.950 . S
C772 C771 1.387 . S
C772 C775 1.387 . S
H773 C769 0.950 . S
H774 C771 0.950 . S
C775 C766 1.390 . S
C775 H768 0.950 . S
C775 C772 1.387 . S
C776 C777 1.387 . S
C776 H780 0.950 . S
C776 C785 1.390 . S
C777 C776 1.387 . S
C777 C779 1.387 . S
H778 C785 0.950 . S
C779 C777 1.387 . S
C779 C781 1.390 . S
C779 H783 0.950 . S
H780 C776 0.950 . S
C781 C779 1.390 . S
C781 C782 1.387 . S
C781 H784 0.950 . S
C782 C781 1.387 . S
C782 C785 1.387 . S
H783 C779 0.950 . S
H784 C781 0.950 . S
C785 C776 1.390 . S
C785 H778 0.950 . S
C785 C782 1.387 . S
C786 C787 1.387 . S
C786 H790 0.950 . S
C786 C795 1.390 . S
C787 C786 1.387 . S
C787 C789 1.387 . S
H788 C795 0.950 . S
C789 C787 1.387 . S
C789 C791 1.390 . S
C789 H793 0.950 . S
H790 C786 0.950 . S
C791 C789 1.390 . S
C791 C792 1.387 . S
C791 H794 0.950 . S
C792 C791 1.387 . S
C792 C795 1.387 . S
H793 C789 0.950 . S
H794 C791 0.950 . S
C795 C786 1.390 . S
C795 H788 0.950 . S
C795 C792 1.387 . S
C796 C797 1.387 . S
C796 H800 0.950 . S
C796 C805 1.390 . S
C797 C796 1.387 . S
C797 C799 1.387 . S
H798 C805 0.950 . S
C799 C797 1.387 . S
C799 C801 1.390 . S
C799 H803 0.950 . S
H800 C796 0.950 . S
C801 C799 1.390 . S
C801 C802 1.387 . S
C801 H804 0.950 . S
C802 C801 1.387 . S
C802 C805 1.387 . S
H803 C799 0.950 . S
H804 C801 0.950 . S
C805 C796 1.390 . S
C805 H798 0.950 . S
C805 C802 1.387 . S
C806 C807 1.387 . S
C806 H810 0.950 . S
C806 C815 1.390 . S
C807 C806 1.387 . S
C807 C809 1.387 . S
H808 C815 0.950 . S
C809 C807 1.387 . S
C809 C811 1.390 . S
C809 H813 0.950 . S
H810 C806 0.950 . S
C811 C809 1.390 . S
C811 C812 1.387 . S
C811 H814 0.950 . S
C812 C811 1.387 . S
C812 C815 1.387 . S
H813 C809 0.950 . S
H814 C811 0.950 . S
C815 C806 1.390 . S
C815 H808 0.950 . S
C815 C812 1.387 . S
C337 C5 1.547 . S
C342 C103 1.547 . S
C347 C117 1.548 . S
C352 C19 1.547 . S
C357 C33 1.548 . S
C362 C131 1.547 . S
C367 C47 1.547 . S
C372 C145 1.547 . S
C377 C159 1.548 . S
C382 C61 1.547 . S
C387 C75 1.547 . S
C392 C89 1.547 . S
C397 C173 1.548 . S
C402 C271 1.548 . S
C407 C187 1.547 . S
C412 C285 1.547 . S
C417 C299 1.547 . S
C422 C201 1.546 . S
C427 C215 1.547 . S
C432 C313 1.547 . S
C437 C229 1.546 . S
C442 C327 1.547 . S
C447 C257 1.547 . S
C452 C243 1.546 . S
C457 C11 1.418 . S
C462 C123 1.419 . S
C467 C137 1.419 . S
C472 C25 1.419 . S
C477 C151 1.418 . S
C482 C39 1.418 . S
C487 C53 1.418 . S
C492 C165 1.418 . S
C497 C67 1.418 . S
C502 C95 1.418 . S
C507 C81 1.418 . S
C512 C109 1.418 . S
C517 C291 1.418 . S
C522 C179 1.418 . S
C527 C193 1.418 . S
C532 C305 1.418 . S
C537 C319 1.418 . S
C542 C207 1.418 . S
C547 C333 1.418 . S
C552 C221 1.418 . S
C557 C263 1.418 . S
C562 C235 1.418 . S
C567 C249 1.418 . S
C572 C277 1.418 . S
C577 C9 1.585 . S
C582 C219 1.586 . S
C587 C233 1.585 . S
C592 C23 1.585 . S
C597 C247 1.586 . S
C602 C37 1.585 . S
C607 C51 1.585 . S
C612 C177 1.586 . S
C617 C65 1.585 . S
C622 C191 1.585 . S
C627 C205 1.585 . S
C632 C79 1.586 . S
C637 C303 1.585 . S
C642 C93 1.585 . S
C647 C317 1.585 . S
C652 C107 1.585 . S
C657 C331 1.586 . S
C662 C121 1.585 . S
C667 C261 1.585 . S
C672 C135 1.585 . S
C677 C149 1.585 . S
C682 C275 1.585 . S
C687 C163 1.586 . S
C692 C289 1.585 . S
C697 C0 1.460 . S
C702 C140 1.460 . S
C707 C154 1.458 . S
C712 C14 1.459 . S
C717 C84 1.460 . S
C722 C28 1.458 . S
C727 C42 1.460 . S
C732 C98 1.460 . S
C737 C56 1.459 . S
C742 C112 1.458 . S
C747 C70 1.459 . S
C752 C126 1.458 . S
C757 C168 1.457 . S
C762 C308 1.457 . S
C767 C182 1.460 . S
C772 C322 1.458 . S
C777 C196 1.460 . S
C782 C252 1.458 . S
C787 C266 1.460 . S
C792 C210 1.460 . S
C797 C224 1.458 . S
C802 C280 1.460 . S
C807 C238 1.458 . S
C812 C294 1.460 . S
