# Generated by pormake.
# Topology bmn, (3)-cn, num edge types: 1
# Building blocks:
#     Node 0, Type 0, BuildingBlock: OLANEW_clean_sbu_2, # of connection points: 3
#     Node 1, Type 0, BuildingBlock: OLANEW_clean_sbu_2, # of connection points: 3
#     Node 2, Type 0, BuildingBlock: OLANEW_clean_sbu_2, # of connection points: 3
#     Node 3, Type 0, BuildingBlock: OLANEW_clean_sbu_2, # of connection points: 3
#     Node 4, Type 0, BuildingBlock: OLANEW_clean_sbu_2, # of connection points: 3
#     Node 5, Type 0, BuildingBlock: OLANEW_clean_sbu_2, # of connection points: 3
#     Node 6, Type 0, BuildingBlock: OLANEW_clean_sbu_2, # of connection points: 3
#     Node 7, Type 0, BuildingBlock: OLANEW_clean_sbu_2, # of connection points: 3
#     Node 8, Type 0, BuildingBlock: OLANEW_clean_sbu_2, # of connection points: 3
#     Node 9, Type 0, BuildingBlock: OLANEW_clean_sbu_2, # of connection points: 3
#     Node 10, Type 0, BuildingBlock: OLANEW_clean_sbu_2, # of connection points: 3
#     Node 11, Type 0, BuildingBlock: OLANEW_clean_sbu_2, # of connection points: 3
#     Node 12, Type 0, BuildingBlock: OLANEW_clean_sbu_2, # of connection points: 3
#     Node 13, Type 0, BuildingBlock: OLANEW_clean_sbu_2, # of connection points: 3
#     Node 14, Type 0, BuildingBlock: OLANEW_clean_sbu_2, # of connection points: 3
#     Node 15, Type 0, BuildingBlock: OLANEW_clean_sbu_2, # of connection points: 3
#     Node 16, Type 0, BuildingBlock: OLANEW_clean_sbu_2, # of connection points: 3
#     Node 17, Type 0, BuildingBlock: OLANEW_clean_sbu_2, # of connection points: 3
#     Node 18, Type 0, BuildingBlock: OLANEW_clean_sbu_2, # of connection points: 3
#     Node 19, Type 0, BuildingBlock: OLANEW_clean_sbu_2, # of connection points: 3
#     Node 20, Type 0, BuildingBlock: OLANEW_clean_sbu_2, # of connection points: 3
#     Node 21, Type 0, BuildingBlock: OLANEW_clean_sbu_2, # of connection points: 3
#     Node 22, Type 0, BuildingBlock: OLANEW_clean_sbu_2, # of connection points: 3
#     Node 23, Type 0, BuildingBlock: OLANEW_clean_sbu_2, # of connection points: 3
#     Edge 24, Type (0, 0), BuildingBlock: KIFKEQ_clean_linker_1, # of connection points: 2
#     Edge 25, Type (0, 0), BuildingBlock: KIFKEQ_clean_linker_1, # of connection points: 2
#     Edge 26, Type (0, 0), BuildingBlock: KIFKEQ_clean_linker_1, # of connection points: 2
#     Edge 27, Type (0, 0), BuildingBlock: KIFKEQ_clean_linker_1, # of connection points: 2
#     Edge 28, Type (0, 0), BuildingBlock: KIFKEQ_clean_linker_1, # of connection points: 2
#     Edge 29, Type (0, 0), BuildingBlock: KIFKEQ_clean_linker_1, # of connection points: 2
#     Edge 30, Type (0, 0), BuildingBlock: KIFKEQ_clean_linker_1, # of connection points: 2
#     Edge 31, Type (0, 0), BuildingBlock: KIFKEQ_clean_linker_1, # of connection points: 2
#     Edge 32, Type (0, 0), BuildingBlock: KIFKEQ_clean_linker_1, # of connection points: 2
#     Edge 33, Type (0, 0), BuildingBlock: KIFKEQ_clean_linker_1, # of connection points: 2
#     Edge 34, Type (0, 0), BuildingBlock: KIFKEQ_clean_linker_1, # of connection points: 2
#     Edge 35, Type (0, 0), BuildingBlock: KIFKEQ_clean_linker_1, # of connection points: 2
#     Edge 36, Type (0, 0), BuildingBlock: KIFKEQ_clean_linker_1, # of connection points: 2
#     Edge 37, Type (0, 0), BuildingBlock: KIFKEQ_clean_linker_1, # of connection points: 2
#     Edge 38, Type (0, 0), BuildingBlock: KIFKEQ_clean_linker_1, # of connection points: 2
#     Edge 39, Type (0, 0), BuildingBlock: KIFKEQ_clean_linker_1, # of connection points: 2
#     Edge 40, Type (0, 0), BuildingBlock: KIFKEQ_clean_linker_1, # of connection points: 2
#     Edge 41, Type (0, 0), BuildingBlock: KIFKEQ_clean_linker_1, # of connection points: 2
#     Edge 42, Type (0, 0), BuildingBlock: KIFKEQ_clean_linker_1, # of connection points: 2
#     Edge 43, Type (0, 0), BuildingBlock: KIFKEQ_clean_linker_1, # of connection points: 2
#     Edge 44, Type (0, 0), BuildingBlock: KIFKEQ_clean_linker_1, # of connection points: 2
#     Edge 45, Type (0, 0), BuildingBlock: KIFKEQ_clean_linker_1, # of connection points: 2
#     Edge 46, Type (0, 0), BuildingBlock: KIFKEQ_clean_linker_1, # of connection points: 2
#     Edge 47, Type (0, 0), BuildingBlock: KIFKEQ_clean_linker_1, # of connection points: 2
#     Edge 48, Type (0, 0), BuildingBlock: KIFKEQ_clean_linker_1, # of connection points: 2
#     Edge 49, Type (0, 0), BuildingBlock: KIFKEQ_clean_linker_1, # of connection points: 2
#     Edge 50, Type (0, 0), BuildingBlock: KIFKEQ_clean_linker_1, # of connection points: 2
#     Edge 51, Type (0, 0), BuildingBlock: KIFKEQ_clean_linker_1, # of connection points: 2
#     Edge 52, Type (0, 0), BuildingBlock: KIFKEQ_clean_linker_1, # of connection points: 2
#     Edge 53, Type (0, 0), BuildingBlock: KIFKEQ_clean_linker_1, # of connection points: 2
#     Edge 54, Type (0, 0), BuildingBlock: KIFKEQ_clean_linker_1, # of connection points: 2
#     Edge 55, Type (0, 0), BuildingBlock: KIFKEQ_clean_linker_1, # of connection points: 2
#     Edge 56, Type (0, 0), BuildingBlock: KIFKEQ_clean_linker_1, # of connection points: 2
#     Edge 57, Type (0, 0), BuildingBlock: KIFKEQ_clean_linker_1, # of connection points: 2
#     Edge 58, Type (0, 0), BuildingBlock: KIFKEQ_clean_linker_1, # of connection points: 2
#     Edge 59, Type (0, 0), BuildingBlock: KIFKEQ_clean_linker_1, # of connection points: 2
# Relax obj value: 0.037
# Max RMSD: 0.070
# Mean RMSD: 0.032
data_MOF--net-bmn--node1-OLANEW_clean_sbu_2--edge1-KIFKEQ_clean_linker_1
_symmetry_space_group_name_H-M    P1
_symmetry_Int_Tables_number       1
_symmetry_cell_setting            triclinic
loop_
_symmetry_equiv_pos_as_xyz
'x, y, z'
_cell_length_a     62.942074
_cell_length_b     62.758962
_cell_length_c     63.082596
_cell_angle_alpha  102.78256
_cell_angle_beta   97.217991
_cell_angle_gamma 97.241241
loop_
_atom_site_label
_atom_site_type_symbol
_atom_site_fract_x
_atom_site_fract_y
_atom_site_fract_z
_atom_type_partial_charge
O0 O 0.19458 0.55059 0.33048 0.0
Cd1 Cd 0.17317 0.56751 0.35749 0.0
O2 O 0.22581 0.56919 0.34912 0.0
Cd3 Cd 0.20977 0.59007 0.37249 0.0
O4 O 0.18912 0.61336 0.38611 0.0
C5 C 0.19401 0.63365 0.38618 0.0
O6 O 0.21188 0.6401 0.37902 0.0
C7 C 0.21517 0.55457 0.33265 0.0
C8 C 0.16819 0.54275 0.38876 0.0
O9 O 0.15416 0.53923 0.37128 0.0
O10 O 0.1845 0.55808 0.39152 0.0
O11 O 0.95299 0.93189 0.5369 0.0
Cd12 Cd 0.94411 0.90416 0.55761 0.0
O13 O 0.95891 0.95997 0.56599 0.0
Cd14 Cd 0.9431 0.9397 0.58532 0.0
O15 O 0.91756 0.91986 0.59634 0.0
C16 C 0.90049 0.91173 0.58236 0.0
O17 O 0.89953 0.91544 0.56259 0.0
C18 C 0.95937 0.95238 0.54563 0.0
C19 C 0.98276 0.89317 0.57595 0.0
O20 O 0.97298 0.88255 0.55675 0.0
O21 O 0.97398 0.90862 0.58668 0.0
O22 O 0.43074 0.64145 0.7699 0.0
Cd23 Cd 0.43079 0.615 0.79322 0.0
O24 O 0.44526 0.66621 0.80019 0.0
Cd25 Cd 0.46026 0.69944 0.81923 0.0
O26 O 0.47074 0.73485 0.83304 0.0
C27 C 0.46737 0.74398 0.85214 0.0
O28 O 0.4579 0.73172 0.86374 0.0
C29 C 0.43784 0.66154 0.7797 0.0
C30 C 0.46324 0.58849 0.78969 0.0
O31 O 0.44421 0.5816 0.77847 0.0
O32 O 0.46706 0.6081 0.80221 0.0
O33 O 0.75432 0.31059 0.06192 0.0
Cd34 Cd 0.78978 0.31512 0.08461 0.0
O35 O 0.74049 0.31874 0.09225 0.0
Cd36 Cd 0.7163 0.32646 0.1137 0.0
O37 O 0.69703 0.33321 0.14021 0.0
C38 C 0.69287 0.31848 0.15072 0.0
O39 O 0.6998 0.29946 0.14488 0.0
C40 C 0.73783 0.31345 0.0713 0.0
C41 C 0.8229 0.33462 0.06627 0.0
O42 O 0.81746 0.31354 0.06177 0.0
O43 O 0.81264 0.34648 0.07944 0.0
O44 O 0.00987 0.06939 0.45196 0.0
Cd45 Cd 0.02372 0.09115 0.4275 0.0
O46 O 0.03295 0.047 0.44252 0.0
Cd47 Cd 0.04878 0.01806 0.44365 0.0
O48 O 0.05368 0.98399 0.44216 0.0
C49 C 0.05181 0.97079 0.42334 0.0
O50 O 0.04795 0.97841 0.40567 0.0
C51 C 0.01761 0.05187 0.45315 0.0
C52 C 0.04019 0.1352 0.44829 0.0
O53 O 0.02007 0.12922 0.44001 0.0
O54 O 0.05244 0.12027 0.44699 0.0
O55 O 0.47372 0.79462 0.7039 0.0
Cd56 Cd 0.48151 0.82503 0.68616 0.0
O57 O 0.43989 0.78914 0.68795 0.0
Cd58 Cd 0.40512 0.77626 0.68165 0.0
O59 O 0.37072 0.77828 0.67327 0.0
C60 C 0.36584 0.78762 0.65778 0.0
O61 O 0.38129 0.79435 0.64744 0.0
C62 C 0.45462 0.78387 0.70064 0.0
C63 C 0.52008 0.82396 0.66877 0.0
O64 O 0.52 0.83462 0.68859 0.0
O65 O 0.50192 0.81384 0.65722 0.0
O66 O 0.57588 0.29629 0.98176 0.0
Cd67 Cd 0.54065 0.29143 0.95846 0.0
O68 O 0.58838 0.27235 0.95728 0.0
Cd69 Cd 0.55642 0.25857 0.9378 0.0
O70 O 0.52947 0.23132 0.9248 0.0
C71 C 0.53018 0.21737 0.90702 0.0
O72 O 0.54626 0.22081 0.89614 0.0
C73 C 0.5915 0.28684 0.97545 0.0
C74 C 0.54388 0.31679 0.92742 0.0
O75 O 0.53912 0.32496 0.94639 0.0
O76 O 0.54675 0.29652 0.92299 0.0
O77 O 0.31431 0.47491 0.22234 0.0
Cd78 Cd 0.33401 0.45639 0.19458 0.0
O79 O 0.28613 0.46937 0.19658 0.0
Cd80 Cd 0.25269 0.4684 0.18127 0.0
O81 O 0.22235 0.46479 0.15882 0.0
C82 C 0.21904 0.47978 0.14873 0.0
O83 O 0.23372 0.49762 0.15267 0.0
C84 C 0.29475 0.47704 0.21665 0.0
C85 C 0.366 0.43597 0.21302 0.0
O86 O 0.37021 0.45599 0.21131 0.0
O87 O 0.34663 0.42559 0.20595 0.0
O88 O 0.26517 0.26436 0.56336 0.0
Cd89 Cd 0.28871 0.23771 0.57043 0.0
O90 O 0.28697 0.29325 0.58498 0.0
Cd91 Cd 0.30858 0.27243 0.59718 0.0
O92 O 0.3242 0.24969 0.61331 0.0
C93 C 0.31274 0.23861 0.62361 0.0
O94 O 0.29238 0.24128 0.62383 0.0
C95 C 0.26963 0.28517 0.57135 0.0
C96 C 0.31549 0.23057 0.53834 0.0
O97 O 0.29671 0.21885 0.5357 0.0
O98 O 0.32171 0.24553 0.55629 0.0
O99 O 0.35474 0.06439 0.70995 0.0
Cd100 Cd 0.38319 0.09674 0.72292 0.0
O101 O 0.33464 0.07806 0.73409 0.0
Cd102 Cd 0.36141 0.10215 0.75488 0.0
O103 O 0.38202 0.1112 0.78708 0.0
C104 C 0.38759 0.13078 0.79899 0.0
O105 O 0.38179 0.1474 0.79136 0.0
C106 C 0.3369 0.06336 0.71744 0.0
C107 C 0.37169 0.13029 0.70329 0.0
O108 O 0.38297 0.11627 0.69422 0.0
O109 O 0.36623 0.1287 0.72185 0.0
O110 O 0.38339 0.08122 0.03478 0.0
Cd111 Cd 0.3611 0.1065 0.05299 0.0
O112 O 0.39818 0.10804 0.02159 0.0
Cd113 Cd 0.41694 0.11977 0.9983 0.0
O114 O 0.42488 0.1257 0.96716 0.0
C115 C 0.4174 0.14115 0.96009 0.0
O116 O 0.40624 0.15378 0.97236 0.0
C117 C 0.39662 0.08809 0.02321 0.0
C118 C 0.37595 0.12179 0.09801 0.0
O119 O 0.36211 0.10405 0.09041 0.0
O120 O 0.38281 0.13227 0.08429 0.0
O121 O 0.45477 0.22597 0.37727 0.0
Cd122 Cd 0.43349 0.19424 0.38547 0.0
O123 O 0.44174 0.21131 0.34258 0.0
Cd124 Cd 0.4358 0.20804 0.30698 0.0
O125 O 0.42722 0.19809 0.27119 0.0
C126 C 0.42584 0.17773 0.26182 0.0
O127 O 0.42989 0.16376 0.27398 0.0
C128 C 0.45411 0.22662 0.3572 0.0
C129 C 0.4089 0.20521 0.41896 0.0
O130 O 0.42857 0.20214 0.42331 0.0
O131 O 0.40098 0.20343 0.39879 0.0
O132 O 0.58328 0.34293 0.33535 0.0
Cd133 Cd 0.61238 0.36965 0.32952 0.0
O134 O 0.56074 0.35396 0.31229 0.0
Cd135 Cd 0.52935 0.35717 0.29511 0.0
O136 O 0.50224 0.3684 0.27789 0.0
C137 C 0.4832 0.36544 0.28256 0.0
O138 O 0.47956 0.35483 0.29784 0.0
C139 C 0.56414 0.34153 0.32536 0.0
C140 C 0.62702 0.35605 0.2895 0.0
O141 O 0.6355 0.35101 0.30693 0.0
O142 O 0.61145 0.36738 0.29095 0.0
O143 O 0.04311 0.4557 0.97447 0.0
Cd144 Cd 0.06744 0.42975 0.98153 0.0
O145 O 0.02005 0.43966 0.99153 0.0
Cd146 Cd 0.98906 0.43152 0.00249 0.0
O147 O 0.96035 0.41944 0.01517 0.0
C148 C 0.94672 0.40324 0.00323 0.0
O149 O 0.95002 0.39442 0.98323 0.0
C150 C 0.02481 0.45423 0.98098 0.0
C151 C 0.09777 0.44536 0.01989 0.0
O152 O 0.10194 0.44891 0.00148 0.0
O153 O 0.07909 0.43472 0.02022 0.0
O154 O 0.01118 0.716 0.37213 0.0
Cd155 Cd 0.03837 0.74535 0.39643 0.0
O156 O 0.98268 0.73146 0.37965 0.0
Cd157 Cd 0.00247 0.76205 0.39966 0.0
O158 O 0.01614 0.79705 0.41157 0.0
C159 C 0.02993 0.80564 0.40154 0.0
O160 O 0.03642 0.79291 0.38489 0.0
C161 C 0.99072 0.71528 0.3696 0.0
C162 C 0.07699 0.72827 0.40118 0.0
O163 O 0.06343 0.72684 0.41454 0.0
O164 O 0.07258 0.73841 0.38603 0.0
O165 O 0.73525 0.75483 0.59139 0.0
Cd166 Cd 0.73649 0.78894 0.61942 0.0
O167 O 0.7041 0.75724 0.5726 0.0
Cd168 Cd 0.69662 0.7845 0.59714 0.0
O169 O 0.67295 0.79979 0.61537 0.0
C170 C 0.65688 0.80481 0.60424 0.0
O171 O 0.6562 0.80198 0.58287 0.0
C172 C 0.72051 0.74752 0.57467 0.0
C173 C 0.77153 0.81934 0.61603 0.0
O174 O 0.77387 0.80585 0.6284 0.0
O175 O 0.75251 0.8188 0.60569 0.0
O176 O 0.16871 0.40486 0.53923 0.0
Cd177 Cd 0.14119 0.42773 0.53197 0.0
O178 O 0.14351 0.376 0.52522 0.0
Cd179 Cd 0.13082 0.3406 0.51345 0.0
O180 O 0.11843 0.30523 0.50216 0.0
C181 C 0.10145 0.29712 0.50841 0.0
O182 O 0.0916 0.31031 0.52172 0.0
C183 C 0.16296 0.384 0.53431 0.0
C184 C 0.14934 0.45181 0.50079 0.0
O185 O 0.15617 0.46012 0.52136 0.0
O186 O 0.13891 0.43199 0.49497 0.0
O187 O 0.21973 0.91574 0.64385 0.0
Cd188 Cd 0.19812 0.87875 0.63313 0.0
O189 O 0.20722 0.92447 0.67513 0.0
Cd190 Cd 0.17894 0.89844 0.66412 0.0
O191 O 0.14436 0.88734 0.65183 0.0
C192 C 0.1375 0.88534 0.63155 0.0
O193 O 0.15162 0.88854 0.61844 0.0
C194 C 0.22055 0.92888 0.66254 0.0
C195 C 0.22738 0.84911 0.63566 0.0
O196 O 0.22146 0.85428 0.61751 0.0
O197 O 0.21882 0.8573 0.6524 0.0
O198 O 0.62716 0.45408 0.77334 0.0
Cd199 Cd 0.60315 0.45646 0.80108 0.0
O200 O 0.60642 0.42412 0.75225 0.0
Cd201 Cd 0.58624 0.41893 0.77704 0.0
O202 O 0.57198 0.4031 0.80071 0.0
C203 C 0.57922 0.40962 0.82119 0.0
O204 O 0.59478 0.42676 0.82816 0.0
C205 C 0.6228 0.43922 0.75538 0.0
C206 C 0.57414 0.48599 0.79672 0.0
O207 O 0.592 0.49212 0.81023 0.0
O208 O 0.57002 0.46593 0.78525 0.0
O209 O 0.71873 0.40684 0.6257 0.0
Cd210 Cd 0.74394 0.39904 0.59955 0.0
O211 O 0.74464 0.43086 0.64817 0.0
Cd212 Cd 0.7599 0.45296 0.67978 0.0
O213 O 0.77951 0.47215 0.71071 0.0
C214 C 0.77098 0.48052 0.72719 0.0
O215 O 0.74974 0.47776 0.72552 0.0
C216 C 0.72516 0.42089 0.64399 0.0
C217 C 0.74365 0.42633 0.57018 0.0
O218 O 0.73089 0.40777 0.56566 0.0
O219 O 0.75647 0.43201 0.58866 0.0
O220 O 0.92049 0.55817 0.92063 0.0
Cd221 Cd 0.89483 0.58142 0.90965 0.0
O222 O 0.90095 0.55252 0.94579 0.0
Cd223 Cd 0.89357 0.5417 0.97509 0.0
O224 O 0.8857 0.53715 0.00666 0.0
C225 C 0.86638 0.53727 0.01057 0.0
O226 O 0.85134 0.5395 0.99513 0.0
C227 C 0.91739 0.54919 0.9364 0.0
C228 C 0.86753 0.5605 0.87025 0.0
O229 O 0.8856 0.57254 0.87039 0.0
O230 O 0.86239 0.55834 0.88878 0.0
O231 O 0.89821 0.56739 0.25772 0.0
Cd232 Cd 0.87262 0.53572 0.23478 0.0
O233 O 0.88023 0.59126 0.24551 0.0
Cd234 Cd 0.86272 0.56651 0.21665 0.0
O235 O 0.85644 0.55076 0.18151 0.0
C236 C 0.84621 0.56025 0.16859 0.0
O237 O 0.83853 0.57824 0.17702 0.0
C238 C 0.89514 0.58725 0.25895 0.0
C239 C 0.83667 0.53287 0.2563 0.0
O240 O 0.85266 0.52294 0.26069 0.0
O241 O 0.83725 0.54332 0.24102 0.0
O242 O 0.73961 0.59463 0.46589 0.0
Cd243 Cd 0.74313 0.55953 0.44163 0.0
O244 O 0.72342 0.60808 0.43996 0.0
Cd245 Cd 0.72763 0.58069 0.41353 0.0
O246 O 0.73909 0.56318 0.3843 0.0
C247 C 0.74197 0.57395 0.36977 0.0
O248 O 0.73723 0.59411 0.37295 0.0
C249 C 0.73062 0.60995 0.46015 0.0
C250 C 0.74358 0.52761 0.46613 0.0
O251 O 0.76125 0.53909 0.46416 0.0
O252 O 0.72574 0.5309 0.45609 0.0
O253 O 0.49428 0.97425 0.94453 0.0
Cd254 Cd 0.51962 0.95531 0.92384 0.0
O255 O 0.48749 0.99122 0.91809 0.0
Cd256 Cd 0.47522 0.01862 0.90688 0.0
O257 O 0.47357 0.05302 0.90628 0.0
C258 C 0.46976 0.05955 0.88869 0.0
O259 O 0.46565 0.04493 0.86965 0.0
C260 C 0.48449 0.98804 0.93678 0.0
C261 C 0.5068 0.90966 0.90939 0.0
O262 O 0.51818 0.91829 0.9284 0.0
O263 O 0.5013 0.92267 0.89734 0.0
H264 H 0.302 0.4799 0.26064 0.0
H265 H 0.26061 0.49963 0.21088 0.0
H266 H 0.2826 0.49816 0.28877 0.0
H267 H 0.24086 0.51738 0.23892 0.0
H268 H 0.1974 0.52644 0.29293 0.0
H269 H 0.21637 0.50734 0.26484 0.0
H270 H 0.27782 0.53658 0.30599 0.0
H271 H 0.25893 0.55562 0.33416 0.0
C272 C 0.28865 0.48799 0.25567 0.0
C273 C 0.28249 0.48781 0.23341 0.0
C274 C 0.27759 0.49849 0.27179 0.0
C275 C 0.26012 0.50907 0.26603 0.0
C276 C 0.25398 0.50896 0.24379 0.0
C277 C 0.26515 0.49857 0.22767 0.0
C278 C 0.21496 0.52875 0.29603 0.0
C279 C 0.22665 0.54256 0.31581 0.0
C280 C 0.22581 0.51791 0.27988 0.0
C281 C 0.24857 0.52048 0.28321 0.0
C282 C 0.26026 0.53411 0.30305 0.0
C283 C 0.24942 0.5451 0.31914 0.0
H284 H 0.00127 0.06433 0.49119 0.0
H285 H 0.01233 0.00673 0.4447 0.0
H286 H 0.98628 0.0406 0.51335 0.0
H287 H 0.99918 0.98317 0.46758 0.0
H288 H 0.95443 0.9441 0.50081 0.0
H289 H 0.96748 0.96841 0.47847 0.0
H290 H 0.99622 0.01834 0.53758 0.0
H291 H 0.98229 0.99432 0.55987 0.0
C292 C 0.00083 0.04661 0.48591 0.0
C293 C 0.00874 0.03746 0.46664 0.0
C294 C 0.99243 0.03301 0.4987 0.0
C295 C 0.99173 0.00992 0.49247 0.0
C296 C 0.99935 0.00082 0.47294 0.0
C297 C 0.00749 0.0144 0.46006 0.0
C298 C 0.9635 0.96029 0.50903 0.0
C299 C 0.96734 0.96726 0.53212 0.0
C300 C 0.97113 0.97421 0.49622 0.0
C301 C 0.98305 0.99536 0.50616 0.0
C302 C 0.98683 0.00233 0.5293 0.0
C303 C 0.97896 0.98849 0.54211 0.0
H304 H 0.43165 0.7043 0.79442 0.0
H305 H 0.4423 0.65794 0.73659 0.0
H306 H 0.43468 0.73395 0.77514 0.0
H307 H 0.44416 0.68752 0.71683 0.0
H308 H 0.42585 0.74523 0.68555 0.0
H309 H 0.41977 0.71505 0.70415 0.0
H310 H 0.46709 0.75219 0.75982 0.0
H311 H 0.47328 0.78214 0.74124 0.0
C312 C 0.43508 0.70053 0.77774 0.0
C313 C 0.43782 0.67904 0.76737 0.0
C314 C 0.43642 0.71742 0.76659 0.0
C315 C 0.43992 0.71305 0.74461 0.0
C316 C 0.44146 0.69131 0.73379 0.0
C317 C 0.44046 0.67444 0.7451 0.0
C318 C 0.43467 0.74704 0.70189 0.0
C319 C 0.44986 0.76609 0.71207 0.0
C320 C 0.43137 0.72971 0.7124 0.0
C321 C 0.44292 0.73137 0.73342 0.0
C322 C 0.45783 0.75059 0.7437 0.0
C323 C 0.46143 0.76766 0.73304 0.0
H324 H 0.62946 0.27406 0.96463 0.0
H325 H 0.60246 0.31143 0.01803 0.0
H326 H 0.66472 0.28144 0.98807 0.0
H327 H 0.63785 0.31884 0.04146 0.0
H328 H 0.69773 0.30122 0.08181 0.0
H329 H 0.66245 0.29656 0.05894 0.0
H330 H 0.6939 0.31328 0.00646 0.0
H331 H 0.72918 0.31858 0.02958 0.0
C332 C 0.63105 0.28394 0.98133 0.0
C333 C 0.61312 0.29214 0.98946 0.0
C334 C 0.65129 0.28825 0.99472 0.0
C335 C 0.65403 0.3007 0.0166 0.0
C336 C 0.63616 0.30903 0.02471 0.0
C337 C 0.61594 0.30489 0.01125 0.0
C338 C 0.69712 0.30464 0.06572 0.0
C339 C 0.71625 0.31088 0.05778 0.0
C340 C 0.6769 0.30174 0.05251 0.0
C341 C 0.67541 0.30467 0.03095 0.0
C342 C 0.69455 0.31077 0.02296 0.0
C343 C 0.71473 0.31384 0.03622 0.0
H344 H 0.20661 0.39106 0.53454 0.0
H345 H 0.1552 0.34481 0.54628 0.0
H346 H 0.23285 0.36724 0.5428 0.0
H347 H 0.18121 0.32085 0.55409 0.0
H348 H 0.23016 0.27308 0.54475 0.0
H349 H 0.20478 0.29702 0.5352 0.0
H350 H 0.24918 0.35434 0.57438 0.0
H351 H 0.27474 0.33043 0.58378 0.0
C352 C 0.2009 0.37573 0.53873 0.0
C353 C 0.17875 0.36945 0.53908 0.0
C354 C 0.21592 0.36213 0.54352 0.0
C355 C 0.20907 0.34204 0.54886 0.0
C356 C 0.18693 0.33594 0.54948 0.0
C357 C 0.17196 0.34957 0.54478 0.0
C358 C 0.23457 0.29079 0.55129 0.0
C359 C 0.25448 0.29982 0.56509 0.0
C360 C 0.21996 0.3045 0.54589 0.0
C361 C 0.22493 0.32757 0.55409 0.0
C362 C 0.24496 0.33664 0.56763 0.0
C363 C 0.25955 0.32292 0.57311 0.0
H364 H 0.29524 0.0589 0.72582 0.0
H365 H 0.33837 0.02524 0.68694 0.0
H366 H 0.26663 0.02716 0.71146 0.0
H367 H 0.30995 0.99316 0.67311 0.0
H368 H 0.24831 0.94601 0.6382 0.0
H369 H 0.27557 0.97926 0.65015 0.0
H370 H 0.25791 0.99031 0.71529 0.0
H371 H 0.23025 0.95754 0.70316 0.0
C372 C 0.29863 0.04472 0.7142 0.0
C373 C 0.31913 0.04458 0.7076 0.0
C374 C 0.28225 0.02644 0.70607 0.0
C375 C 0.28601 0.00748 0.69127 0.0
C376 C 0.30638 0.00755 0.68429 0.0
C377 C 0.32273 0.02592 0.6923 0.0
C378 C 0.25021 0.95558 0.65506 0.0
C379 C 0.23708 0.94912 0.66972 0.0
C380 C 0.26593 0.9746 0.66194 0.0
C381 C 0.26896 0.98751 0.68369 0.0
C382 C 0.25579 0.98101 0.69832 0.0
C383 C 0.23999 0.96211 0.6914 0.0
H384 H 0.38299 0.04506 0.00133 0.0
H385 H 0.43892 0.09654 0.0182 0.0
H386 H 0.40399 0.01977 0.98055 0.0
H387 H 0.45998 0.07115 0.9978 0.0
H388 H 0.49328 0.00759 0.98059 0.0
H389 H 0.47176 0.03157 0.00219 0.0
H390 H 0.42357 0.02191 0.94444 0.0
H391 H 0.44527 0.99832 0.92275 0.0
C392 C 0.39978 0.05089 0.00063 0.0
C393 C 0.40932 0.07277 0.01107 0.0
C394 C 0.41172 0.0365 0.98875 0.0
C395 C 0.43352 0.04361 0.98764 0.0
C396 C 0.44319 0.06533 0.99849 0.0
C397 C 0.43112 0.07986 0.00996 0.0
C398 C 0.47804 0.01055 0.9726 0.0
C399 C 0.47098 0.00138 0.95002 0.0
C400 C 0.46583 0.02429 0.98488 0.0
C401 C 0.44611 0.02855 0.97488 0.0
C402 C 0.43872 0.0188 0.95247 0.0
C403 C 0.45116 0.00548 0.94009 0.0
H404 H 0.46876 0.26827 0.38241 0.0
H405 H 0.47179 0.22544 0.31944 0.0
H406 H 0.49374 0.29736 0.37428 0.0
H407 H 0.49631 0.25463 0.3111 0.0
H408 H 0.52763 0.31895 0.2969 0.0
H409 H 0.49899 0.29258 0.30413 0.0
H410 H 0.53266 0.30194 0.37034 0.0
H411 H 0.56092 0.32861 0.36327 0.0
C412 C 0.4745 0.26517 0.3667 0.0
C413 C 0.46788 0.2447 0.35136 0.0
C414 C 0.48884 0.28181 0.36207 0.0
C415 C 0.49692 0.27831 0.34201 0.0
C416 C 0.49001 0.25798 0.3265 0.0
C417 C 0.47575 0.2413 0.3312 0.0
C418 C 0.52861 0.31578 0.31314 0.0
C419 C 0.54631 0.32613 0.32965 0.0
C420 C 0.51238 0.30045 0.31719 0.0
C421 C 0.51351 0.29528 0.33784 0.0
C422 C 0.53114 0.30582 0.35437 0.0
C423 C 0.54741 0.32096 0.35027 0.0
H424 H 0.90966 0.51341 0.95418 0.0
H425 H 0.96059 0.55405 0.93462 0.0
H426 H 0.93583 0.49115 0.96598 0.0
H427 H 0.98678 0.53174 0.94626 0.0
H428 H 0.02124 0.47162 0.94518 0.0
H429 H 0.99531 0.49475 0.93492 0.0
H430 H 0.96749 0.493 0.99385 0.0
H431 H 0.99361 0.46999 0.00418 0.0
C432 C 0.92653 0.51793 0.95291 0.0
C433 C 0.93315 0.53579 0.94393 0.0
C434 C 0.94151 0.50507 0.95953 0.0
C435 C 0.96341 0.5097 0.95713 0.0
C436 C 0.96999 0.52757 0.94811 0.0
C437 C 0.95501 0.5404 0.94151 0.0
C438 C 0.00961 0.47621 0.95597 0.0
C439 C 0.00914 0.46854 0.97523 0.0
C440 C 0.9948 0.48953 0.95013 0.0
C441 C 0.97925 0.49564 0.96351 0.0
C442 C 0.97896 0.48821 0.98295 0.0
C443 C 0.99382 0.47487 0.98879 0.0
H444 H 0.0026 0.67803 0.34556 0.0
H445 H 0.94643 0.70862 0.35939 0.0
H446 H 0.97925 0.64691 0.31947 0.0
H447 H 0.92306 0.67725 0.33354 0.0
H448 H 0.8925 0.63135 0.26634 0.0
H449 H 0.91534 0.66176 0.29378 0.0
H450 H 0.95143 0.61536 0.31768 0.0
H451 H 0.92881 0.58489 0.28995 0.0
C452 C 0.98526 0.67805 0.34318 0.0
C453 C 0.9764 0.69588 0.35452 0.0
C454 C 0.97187 0.66013 0.3283 0.0
C455 C 0.94931 0.65963 0.32439 0.0
C456 C 0.94041 0.67729 0.33596 0.0
C457 C 0.9538 0.69521 0.35088 0.0
C458 C 0.90529 0.62759 0.27745 0.0
C459 C 0.90885 0.60567 0.2759 0.0
C460 C 0.91829 0.64503 0.29328 0.0
C461 C 0.93518 0.64098 0.30793 0.0
C462 C 0.9387 0.61905 0.30647 0.0
C463 C 0.92566 0.60158 0.29064 0.0
H464 H 0.7152 0.64718 0.4534 0.0
H465 H 0.74231 0.61835 0.50481 0.0
H466 H 0.71323 0.6806 0.4809 0.0
H467 H 0.73985 0.65157 0.53232 0.0
H468 H 0.7537 0.72316 0.573 0.0
H469 H 0.75624 0.69015 0.54517 0.0
H470 H 0.69347 0.6934 0.51047 0.0
H471 H 0.69113 0.72664 0.53795 0.0
C472 C 0.72061 0.6479 0.47057 0.0
C473 C 0.72892 0.63007 0.47689 0.0
C474 C 0.71939 0.66703 0.48635 0.0
C475 C 0.72639 0.66878 0.50882 0.0
C476 C 0.73462 0.65091 0.51513 0.0
C477 C 0.73589 0.63179 0.49936 0.0
C478 C 0.74046 0.71687 0.55941 0.0
C479 C 0.72222 0.72756 0.55771 0.0
C480 C 0.74186 0.69786 0.54352 0.0
C481 C 0.72504 0.68911 0.52561 0.0
C482 C 0.70684 0.69986 0.52389 0.0
C483 C 0.70546 0.71887 0.53974 0.0
H484 H 0.72264 0.45954 0.67327 0.0
H485 H 0.69371 0.39074 0.65107 0.0
H486 H 0.69763 0.46538 0.69985 0.0
H487 H 0.66904 0.3963 0.67783 0.0
H488 H 0.61407 0.41591 0.71249 0.0
H489 H 0.63844 0.41288 0.68536 0.0
H490 H 0.68903 0.45744 0.73328 0.0
H491 H 0.66425 0.46116 0.76018 0.0
C492 C 0.71121 0.44558 0.67439 0.0
C493 C 0.71032 0.42461 0.66035 0.0
C494 C 0.6968 0.44892 0.68956 0.0
C495 C 0.68123 0.43134 0.69102 0.0
C496 C 0.68047 0.41036 0.67693 0.0
C497 C 0.69472 0.4071 0.66166 0.0
C498 C 0.63034 0.4252 0.7172 0.0
C499 C 0.63725 0.43868 0.73853 0.0
C500 C 0.6444 0.42334 0.70167 0.0
C501 C 0.66585 0.43466 0.70716 0.0
C502 C 0.67259 0.44862 0.72837 0.0
C503 C 0.6584 0.45069 0.74384 0.0
H504 H 0.10811 0.72759 0.37462 0.0
H505 H 0.08977 0.70393 0.43011 0.0
H506 H 0.1379 0.70632 0.37388 0.0
H507 H 0.11988 0.68294 0.42962 0.0
H508 H 0.15456 0.62512 0.39911 0.0
H509 H 0.12806 0.65002 0.4054 0.0
H510 H 0.17261 0.70272 0.39345 0.0
H511 H 0.19899 0.6777 0.38674 0.0
C512 C 0.11064 0.71812 0.38689 0.0
C513 C 0.09647 0.71734 0.40232 0.0
C514 C 0.12781 0.70602 0.38654 0.0
C515 C 0.13122 0.69284 0.40163 0.0
C516 C 0.11751 0.69268 0.41758 0.0
C517 C 0.10033 0.70482 0.41793 0.0
C518 C 0.15881 0.64208 0.39805 0.0
C519 C 0.17882 0.64935 0.39223 0.0
C520 C 0.14365 0.6564 0.40179 0.0
C521 C 0.14817 0.67834 0.39981 0.0
C522 C 0.1685 0.68583 0.39478 0.0
C523 C 0.18367 0.67151 0.39104 0.0
H524 H 0.77141 0.85097 0.59245 0.0
H525 H 0.81429 0.8217 0.63262 0.0
H526 H 0.80257 0.87418 0.58553 0.0
H527 H 0.84552 0.84452 0.62523 0.0
H528 H 0.89576 0.90306 0.62242 0.0
H529 H 0.86446 0.88205 0.63189 0.0
H530 H 0.83193 0.86945 0.56478 0.0
H531 H 0.86286 0.8908 0.55549 0.0
C532 C 0.78749 0.84952 0.59984 0.0
C533 C 0.79037 0.83442 0.61301 0.0
C534 C 0.80537 0.86272 0.59575 0.0
C535 C 0.82658 0.86108 0.60465 0.0
C536 C 0.82942 0.84637 0.61828 0.0
C537 C 0.81151 0.8332 0.62243 0.0
C538 C 0.88191 0.8958 0.60971 0.0
C539 C 0.8818 0.89865 0.58821 0.0
C540 C 0.86401 0.88369 0.61512 0.0
C541 C 0.84562 0.87414 0.59913 0.0
C542 C 0.84563 0.87691 0.57761 0.0
C543 C 0.86346 0.88904 0.57224 0.0
H544 H 0.45754 0.5437 0.77379 0.0
H545 H 0.50683 0.60036 0.80408 0.0
H546 H 0.4846 0.51937 0.77499 0.0
H547 H 0.53422 0.57619 0.8043 0.0
H548 H 0.54021 0.4816 0.76368 0.0
H549 H 0.51437 0.50693 0.7604 0.0
H550 H 0.5465 0.55028 0.82241 0.0
H551 H 0.57292 0.52545 0.82502 0.0
C552 C 0.47426 0.55099 0.78038 0.0
C553 C 0.48003 0.57394 0.78893 0.0
C554 C 0.48986 0.53704 0.78096 0.0
C555 C 0.51171 0.54571 0.7898 0.0
C556 C 0.51752 0.56879 0.7978 0.0
C557 C 0.50185 0.58271 0.79752 0.0
C558 C 0.54178 0.49661 0.77655 0.0
C559 C 0.55859 0.50152 0.79462 0.0
C560 C 0.52687 0.5111 0.77475 0.0
C561 C 0.52818 0.53071 0.79118 0.0
C562 C 0.54512 0.5356 0.80921 0.0
C563 C 0.56022 0.52127 0.81082 0.0
H564 H 0.91471 0.36876 0.98204 0.0
H565 H 0.93615 0.41645 0.04437 0.0
H566 H 0.8843 0.35264 0.99683 0.0
H567 H 0.90599 0.40002 0.05929 0.0
H568 H 0.83754 0.37874 0.07195 0.0
H569 H 0.86676 0.39573 0.05617 0.0
H570 H 0.87778 0.33087 0.02341 0.0
H571 H 0.84828 0.31389 0.03879 0.0
C572 C 0.91295 0.37581 0.9989 0.0
C573 C 0.92789 0.39388 0.01203 0.0
C574 C 0.89558 0.36647 0.00742 0.0
C575 C 0.89275 0.37498 0.02927 0.0
C576 C 0.90755 0.39322 0.04232 0.0
C577 C 0.92492 0.40257 0.03379 0.0
C578 C 0.84617 0.3681 0.06134 0.0
C579 C 0.84058 0.34496 0.05662 0.0
C580 C 0.863 0.37785 0.05239 0.0
C581 C 0.87462 0.36467 0.03853 0.0
C582 C 0.86896 0.34152 0.03377 0.0
C583 C 0.85213 0.33178 0.0427 0.0
H584 H 0.05628 0.94903 0.45641 0.0
H585 H 0.04812 0.93843 0.3856 0.0
H586 H 0.05423 0.90925 0.4527 0.0
H587 H 0.04568 0.89874 0.38191 0.0
H588 H 0.05745 0.82948 0.3819 0.0
H589 H 0.06592 0.86963 0.38853 0.0
H590 H 0.02593 0.87689 0.43975 0.0
H591 H 0.01778 0.83681 0.43343 0.0
C592 C 0.0542 0.93825 0.44006 0.0
C593 C 0.05225 0.9469 0.42129 0.0
C594 C 0.05291 0.91544 0.43794 0.0
C595 C 0.0497 0.90081 0.41701 0.0
C596 C 0.04842 0.90955 0.39829 0.0
C597 C 0.04967 0.93232 0.4004 0.0
C598 C 0.05067 0.83964 0.39476 0.0
C599 C 0.03679 0.82993 0.40702 0.0
C600 C 0.05544 0.86265 0.39847 0.0
C601 C 0.04647 0.87646 0.41454 0.0
C602 C 0.03328 0.86675 0.42738 0.0
C603 C 0.0285 0.84374 0.42367 0.0
H604 H 0.61998 0.81593 0.5848 0.0
H605 H 0.65102 0.80794 0.64706 0.0
H606 H 0.58745 0.82275 0.60073 0.0
H607 H 0.61829 0.81434 0.66285 0.0
H608 H 0.56113 0.8435 0.68909 0.0
H609 H 0.59486 0.8416 0.67393 0.0
H610 H 0.55899 0.8004 0.61256 0.0
H611 H 0.52531 0.80263 0.62753 0.0
C612 C 0.61993 0.81577 0.60193 0.0
C613 C 0.63805 0.81122 0.61461 0.0
C614 C 0.60122 0.81954 0.61102 0.0
C615 C 0.60018 0.81884 0.63299 0.0
C616 C 0.6186 0.81515 0.64592 0.0
C617 C 0.63734 0.81139 0.63683 0.0
C618 C 0.56045 0.83412 0.67233 0.0
C619 C 0.54054 0.82319 0.65953 0.0
C620 C 0.57979 0.83295 0.66368 0.0
C621 C 0.57963 0.82088 0.64203 0.0
C622 C 0.55967 0.81014 0.62919 0.0
C623 C 0.54036 0.81128 0.63783 0.0
H624 H 0.54229 0.36104 0.93325 0.0
H625 H 0.55193 0.30367 0.8853 0.0
H626 H 0.54871 0.384 0.9074 0.0
H627 H 0.55856 0.32667 0.85959 0.0
H628 H 0.55082 0.37072 0.81166 0.0
H629 H 0.54028 0.34863 0.83708 0.0
H630 H 0.57997 0.3976 0.89131 0.0
H631 H 0.59036 0.41982 0.86598 0.0
C632 C 0.54567 0.3533 0.91717 0.0
C633 C 0.54665 0.33053 0.91136 0.0
C634 C 0.54946 0.36648 0.90241 0.0
C635 C 0.55419 0.35717 0.88147 0.0
C636 C 0.55472 0.33431 0.8755 0.0
C637 C 0.55104 0.32115 0.89029 0.0
C638 C 0.55715 0.37689 0.82903 0.0
C639 C 0.57152 0.397 0.83677 0.0
C640 C 0.5512 0.36416 0.84357 0.0
C641 C 0.55937 0.37131 0.86619 0.0
C642 C 0.57324 0.39172 0.87401 0.0
C643 C 0.57928 0.4044 0.85946 0.0
H644 H 0.18646 0.44417 0.13545 0.0
H645 H 0.20796 0.50785 0.12313 0.0
H646 H 0.15627 0.43749 0.10535 0.0
H647 H 0.17749 0.50132 0.09328 0.0
H648 H 0.13888 0.46761 0.02413 0.0
H649 H 0.16699 0.47727 0.05644 0.0
H650 H 0.12231 0.44941 0.09353 0.0
H651 H 0.09424 0.43935 0.06104 0.0
C652 C 0.18462 0.45686 0.12649 0.0
C653 C 0.19972 0.47648 0.13161 0.0
C654 C 0.16721 0.45308 0.10931 0.0
C655 C 0.16451 0.46883 0.09684 0.0
C656 C 0.17929 0.48871 0.10235 0.0
C657 C 0.19669 0.4925 0.11955 0.0
C658 C 0.13498 0.46367 0.03921 0.0
C659 C 0.11435 0.4526 0.03997 0.0
C660 C 0.15108 0.46934 0.05779 0.0
C661 C 0.14692 0.46407 0.07757 0.0
C662 C 0.12612 0.45344 0.07846 0.0
C663 C 0.11 0.44779 0.05988 0.0
H664 H 0.34709 0.16169 0.71806 0.0
H665 H 0.37997 0.13734 0.66362 0.0
H666 H 0.33379 0.18852 0.69921 0.0
H667 H 0.36633 0.16394 0.6446 0.0
H668 H 0.35409 0.22879 0.62634 0.0
H669 H 0.36937 0.20357 0.64625 0.0
H670 H 0.30768 0.18804 0.66714 0.0
H671 H 0.29254 0.21344 0.64763 0.0
C672 C 0.35153 0.16209 0.70209 0.0
C673 C 0.36454 0.14733 0.69232 0.0
C674 C 0.34379 0.17738 0.69122 0.0
C675 C 0.34888 0.17828 0.67033 0.0
C676 C 0.36227 0.16382 0.66076 0.0
C677 C 0.37 0.1485 0.67162 0.0
C678 C 0.3438 0.22001 0.63521 0.0
C679 C 0.3221 0.22316 0.63542 0.0
C680 C 0.35253 0.20548 0.64653 0.0
C681 C 0.33977 0.19384 0.65835 0.0
C682 C 0.31806 0.197 0.6585 0.0
C683 C 0.30934 0.21147 0.64717 0.0
H684 H 0.39793 0.0994 0.82058 0.0
H685 H 0.40044 0.17006 0.83005 0.0
H686 H 0.40956 0.10428 0.85965 0.0
H687 H 0.41299 0.1751 0.86931 0.0
H688 H 0.39942 0.16943 0.93858 0.0
H689 H 0.39692 0.16882 0.89973 0.0
H690 H 0.436 0.11658 0.89099 0.0
H691 H 0.43813 0.1169 0.92985 0.0
C692 C 0.4014 0.11607 0.83095 0.0
C693 C 0.3979 0.13431 0.82221 0.0
C694 C 0.40829 0.1189 0.85344 0.0
C695 C 0.41203 0.14009 0.8678 0.0
C696 C 0.4098 0.15849 0.85883 0.0
C697 C 0.40274 0.15562 0.83629 0.0
C698 C 0.40781 0.15806 0.92846 0.0
C699 C 0.41874 0.14302 0.93728 0.0
C700 C 0.40652 0.15782 0.90613 0.0
C701 C 0.41622 0.14259 0.89208 0.0
C702 C 0.42815 0.12838 0.90122 0.0
C703 C 0.42942 0.12859 0.92355 0.0
H704 H 0.40475 0.15906 0.11917 0.0
H705 H 0.36461 0.1031 0.13102 0.0
H706 H 0.4174 0.17257 0.15864 0.0
H707 H 0.37698 0.11682 0.17048 0.0
H708 H 0.42108 0.13529 0.2371 0.0
H709 H 0.40962 0.12188 0.1975 0.0
H710 H 0.40379 0.18847 0.19233 0.0
H711 H 0.41564 0.20199 0.23192 0.0
C712 C 0.39859 0.14967 0.13019 0.0
C713 C 0.38369 0.12999 0.12195 0.0
C714 C 0.40575 0.15748 0.15282 0.0
C715 C 0.3982 0.14578 0.1677 0.0
C716 C 0.38333 0.12607 0.15943 0.0
C717 C 0.37615 0.11828 0.13682 0.0
C718 C 0.41741 0.1471 0.22753 0.0
C719 C 0.41925 0.16971 0.23769 0.0
C720 C 0.41072 0.13938 0.20484 0.0
C721 C 0.40572 0.15409 0.19177 0.0
C722 C 0.40775 0.17674 0.2019 0.0
C723 C 0.41443 0.18447 0.22461 0.0
H724 H 0.36608 0.20986 0.41461 0.0
H725 H 0.42144 0.21138 0.46328 0.0
H726 H 0.34373 0.21649 0.44359 0.0
H727 H 0.399 0.21775 0.49221 0.0
H728 H 0.35672 0.25142 0.5398 0.0
H729 H 0.37941 0.24609 0.51099 0.0
H730 H 0.32858 0.19643 0.46906 0.0
H731 H 0.30579 0.20191 0.49771 0.0
C732 C 0.3735 0.21165 0.43149 0.0
C733 C 0.39554 0.21006 0.43663 0.0
C734 C 0.36065 0.21531 0.44807 0.0
C735 C 0.36957 0.21755 0.47018 0.0
C736 C 0.39169 0.2163 0.47536 0.0
C737 C 0.40452 0.21254 0.45877 0.0
C738 C 0.35039 0.23935 0.52444 0.0
C739 C 0.32944 0.22709 0.52105 0.0
C740 C 0.36343 0.23624 0.50797 0.0
C741 C 0.35577 0.22087 0.48773 0.0
C742 C 0.33484 0.20861 0.48436 0.0
C743 C 0.32184 0.21165 0.50085 0.0
H744 H 0.65975 0.33213 0.2814 0.0
H745 H 0.61308 0.36498 0.24999 0.0
H746 H 0.67439 0.32244 0.2472 0.0
H747 H 0.62752 0.35493 0.21563 0.0
H748 H 0.67742 0.35642 0.16788 0.0
H749 H 0.66047 0.36464 0.20082 0.0
H750 H 0.66521 0.29907 0.20992 0.0
H751 H 0.6825 0.29096 0.17721 0.0
C752 C 0.6525 0.33714 0.26715 0.0
C753 C 0.63529 0.34939 0.26844 0.0
C754 C 0.66081 0.33146 0.2475 0.0
C755 C 0.65213 0.33791 0.22868 0.0
C756 C 0.63474 0.34994 0.2299 0.0
C757 C 0.6264 0.3556 0.24956 0.0
C758 C 0.67475 0.34371 0.17683 0.0
C759 C 0.68142 0.32307 0.16997 0.0
C760 C 0.66492 0.34839 0.19566 0.0
C761 C 0.66156 0.33254 0.20805 0.0
C762 C 0.66786 0.31175 0.20092 0.0
C763 C 0.67766 0.30707 0.1821 0.0
H764 H 0.11838 0.26525 0.48164 0.0
H765 H 0.06472 0.27487 0.51739 0.0
H766 H 0.10355 0.22607 0.46807 0.0
H767 H 0.05008 0.23559 0.50406 0.0
H768 H 0.01825 0.17046 0.45404 0.0
H769 H 0.03323 0.20943 0.4693 0.0
H770 H 0.09724 0.19217 0.4811 0.0
H771 H 0.08233 0.15322 0.46555 0.0
C772 C 0.10348 0.259 0.4867 0.0
C773 C 0.0927 0.27321 0.50056 0.0
C774 C 0.09505 0.23651 0.47903 0.0
C775 C 0.07564 0.22771 0.48499 0.0
C776 C 0.06493 0.2419 0.49896 0.0
C777 C 0.07339 0.2644 0.50669 0.0
C778 C 0.03551 0.17496 0.45997 0.0
C779 C 0.04911 0.15874 0.45851 0.0
C780 C 0.04407 0.19729 0.46882 0.0
C781 C 0.06643 0.2039 0.47636 0.0
C782 C 0.07999 0.18764 0.47517 0.0
C783 C 0.07142 0.1653 0.46637 0.0
H784 H 0.00722 0.91268 0.61615 0.0
H785 H 0.00668 0.86328 0.55618 0.0
H786 H 0.04374 0.90753 0.62969 0.0
H787 H 0.04314 0.8579 0.56991 0.0
H788 H 0.11768 0.88075 0.58935 0.0
H789 H 0.07937 0.87978 0.5765 0.0
H790 H 0.06548 0.88159 0.64217 0.0
H791 H 0.10394 0.8829 0.65515 0.0
C792 C 0.01478 0.9005 0.60597 0.0
C793 C 0.00409 0.88851 0.58502 0.0
C794 C 0.03568 0.89745 0.61381 0.0
C795 C 0.04639 0.88235 0.60085 0.0
C796 C 0.03543 0.86985 0.58018 0.0
C797 C 0.01449 0.87286 0.57236 0.0
C798 C 0.10645 0.88068 0.60102 0.0
C799 C 0.11392 0.88209 0.62332 0.0
C800 C 0.08444 0.88 0.59362 0.0
C801 C 0.06938 0.88075 0.60834 0.0
C802 C 0.07673 0.88131 0.63048 0.0
C803 C 0.09875 0.88192 0.63788 0.0
H804 H 0.48503 0.88644 0.86903 0.0
H805 H 0.51456 0.87793 0.93164 0.0
H806 H 0.47549 0.84641 0.85553 0.0
H807 H 0.50522 0.83785 0.918 0.0
H808 H 0.46392 0.76853 0.89284 0.0
H809 H 0.47313 0.80857 0.90688 0.0
H810 H 0.49401 0.81424 0.84542 0.0
H811 H 0.48457 0.77429 0.83125 0.0
C812 C 0.48947 0.87604 0.87992 0.0
C813 C 0.50057 0.88538 0.9014 0.0
C814 C 0.48413 0.85309 0.87213 0.0
C815 C 0.48967 0.83896 0.88567 0.0
C816 C 0.50055 0.84831 0.90724 0.0
C817 C 0.50599 0.87127 0.91501 0.0
C818 C 0.47051 0.77831 0.88233 0.0
C819 C 0.47348 0.76821 0.86091 0.0
C820 C 0.47588 0.80124 0.89042 0.0
C821 C 0.48424 0.81457 0.87724 0.0
C822 C 0.48732 0.80445 0.85587 0.0
C823 C 0.48204 0.78153 0.84781 0.0
H824 H 0.16769 0.4952 0.50833 0.0
H825 H 0.13901 0.43801 0.45599 0.0
H826 H 0.17226 0.51712 0.48133 0.0
H827 H 0.14413 0.45976 0.42893 0.0
H828 H 0.13415 0.51113 0.38893 0.0
H829 H 0.12999 0.48923 0.41601 0.0
H830 H 0.19273 0.52181 0.45253 0.0
H831 H 0.19661 0.54414 0.42576 0.0
C832 C 0.16254 0.48725 0.49104 0.0
C833 C 0.15294 0.46487 0.48432 0.0
C834 C 0.16526 0.49979 0.47554 0.0
C835 C 0.15853 0.49023 0.45293 0.0
C836 C 0.14917 0.46776 0.44622 0.0
C837 C 0.14637 0.45524 0.46173 0.0
C838 C 0.14705 0.51364 0.40275 0.0
C839 C 0.16569 0.52941 0.4052 0.0
C840 C 0.14473 0.50097 0.41821 0.0
C841 C 0.16105 0.5037 0.43645 0.0
C842 C 0.17971 0.51947 0.43886 0.0
C843 C 0.18199 0.5322 0.42344 0.0
H844 H 0.49654 0.20384 0.92715 0.0
H845 H 0.53044 0.18216 0.87276 0.0
H846 H 0.47646 0.16646 0.92048 0.0
H847 H 0.51079 0.14482 0.86648 0.0
H848 H 0.46708 0.07978 0.85431 0.0
H849 H 0.47639 0.11923 0.8562 0.0
H850 H 0.48864 0.13286 0.92722 0.0
H851 H 0.47897 0.09373 0.92538 0.0
C852 C 0.49949 0.19121 0.91357 0.0
C853 C 0.51537 0.1959 0.90072 0.0
C854 C 0.48805 0.16978 0.90983 0.0
C855 C 0.49229 0.1526 0.89319 0.0
C856 C 0.50704 0.15767 0.87936 0.0
C857 C 0.51843 0.17909 0.88306 0.0
C858 C 0.47144 0.09125 0.87032 0.0
C859 C 0.47258 0.08357 0.88968 0.0
C860 C 0.47687 0.11383 0.87139 0.0
C861 C 0.48345 0.12916 0.89184 0.0
C862 C 0.48348 0.12155 0.91119 0.0
C863 C 0.47807 0.09904 0.91013 0.0
H864 H 0.36187 0.39419 0.21985 0.0
H865 H 0.40857 0.45337 0.22853 0.0
H866 H 0.38997 0.37644 0.23601 0.0
H867 H 0.43654 0.43574 0.24497 0.0
H868 H 0.48592 0.38947 0.25151 0.0
H869 H 0.45741 0.40587 0.23428 0.0
H870 H 0.41229 0.37926 0.2717 0.0
H871 H 0.44074 0.36253 0.28874 0.0
C872 C 0.37811 0.40343 0.22524 0.0
C873 C 0.38299 0.42518 0.22288 0.0
C874 C 0.39418 0.3933 0.23461 0.0
C875 C 0.41549 0.40467 0.24175 0.0
C876 C 0.42035 0.42642 0.23936 0.0
C877 C 0.40428 0.43657 0.23005 0.0
C878 C 0.46991 0.38702 0.25602 0.0
C879 C 0.46563 0.37473 0.27156 0.0
C880 C 0.4536 0.39655 0.24623 0.0
C881 C 0.43262 0.39397 0.25171 0.0
C882 C 0.42824 0.38138 0.26699 0.0
C883 C 0.44458 0.37189 0.27683 0.0
H884 H 0.24735 0.84015 0.67303 0.0
H885 H 0.24698 0.82749 0.60281 0.0
H886 H 0.27916 0.82208 0.67698 0.0
H887 H 0.27842 0.80882 0.60666 0.0
H888 H 0.35136 0.80931 0.62723 0.0
H889 H 0.31614 0.82071 0.6209 0.0
H890 H 0.29448 0.78839 0.66993 0.0
H891 H 0.33013 0.77744 0.67673 0.0
C892 C 0.2538 0.83312 0.65837 0.0
C893 C 0.24477 0.83547 0.63763 0.0
C894 C 0.27199 0.82263 0.66062 0.0
C895 C 0.28152 0.81416 0.64216 0.0
C896 C 0.27178 0.81554 0.62128 0.0
C897 C 0.25366 0.82613 0.61905 0.0
C898 C 0.33906 0.80444 0.63655 0.0
C899 C 0.34364 0.7926 0.65261 0.0
C900 C 0.31874 0.81085 0.63279 0.0
C901 C 0.30242 0.80551 0.64492 0.0
C902 C 0.30677 0.79304 0.66051 0.0
C903 C 0.32716 0.78666 0.66432 0.0
H904 H 0.75824 0.50105 0.76545 0.0
H905 H 0.81526 0.4879 0.73628 0.0
H906 H 0.78129 0.52108 0.79993 0.0
H907 H 0.83821 0.50747 0.77082 0.0
H908 H 0.87342 0.56288 0.8286 0.0
H909 H 0.84974 0.54438 0.7941 0.0
H910 H 0.80544 0.51405 0.82996 0.0
H911 H 0.82889 0.53294 0.86452 0.0
C912 C 0.77567 0.50238 0.76639 0.0
C913 C 0.78489 0.49288 0.7481 0.0
C914 C 0.78888 0.51376 0.7862 0.0
C915 C 0.8116 0.51587 0.78814 0.0
C916 C 0.82079 0.50643 0.7698 0.0
C917 C 0.80761 0.49509 0.75002 0.0
C918 C 0.85861 0.5523 0.82914 0.0
C919 C 0.85306 0.54936 0.84931 0.0
C920 C 0.84509 0.5416 0.80934 0.0
C921 C 0.82571 0.52768 0.80925 0.0
C922 C 0.8201 0.52487 0.82946 0.0
C923 C 0.83362 0.53559 0.84926 0.0
H924 H 0.82731 0.57814 0.13669 0.0
H925 H 0.86373 0.52605 0.14595 0.0
H926 H 0.83024 0.56941 0.09771 0.0
H927 H 0.86633 0.51707 0.1068 0.0
H928 H 0.89381 0.53323 0.04615 0.0
H929 H 0.88633 0.53563 0.08346 0.0
H930 H 0.81991 0.54209 0.06253 0.0
H931 H 0.82747 0.54007 0.0252 0.0
C932 C 0.83563 0.56457 0.13035 0.0
C933 C 0.84549 0.55295 0.14449 0.0
C934 C 0.8372 0.55948 0.10795 0.0
C935 C 0.84867 0.54266 0.09918 0.0
C936 C 0.85767 0.53036 0.11313 0.0
C937 C 0.85607 0.53543 0.13554 0.0
C938 C 0.87755 0.53496 0.04943 0.0
C939 C 0.86129 0.53666 0.03273 0.0
C940 C 0.87322 0.53616 0.07081 0.0
C941 C 0.85253 0.53912 0.07599 0.0
C942 C 0.83608 0.54009 0.05912 0.0
C943 C 0.8404 0.53884 0.03771 0.0
H944 H 0.83457 0.51883 0.29408 0.0
H945 H 0.79915 0.54977 0.24927 0.0
H946 H 0.80874 0.52607 0.31938 0.0
H947 H 0.77282 0.55634 0.27425 0.0
H948 H 0.75372 0.59465 0.33836 0.0
H949 H 0.77357 0.58138 0.30884 0.0
H950 H 0.77277 0.51908 0.32754 0.0
H951 H 0.75339 0.53272 0.35769 0.0
C952 C 0.82097 0.52672 0.28939 0.0
C953 C 0.81906 0.53397 0.2698 0.0
C954 C 0.80605 0.53077 0.30387 0.0
C955 C 0.7888 0.54204 0.299 0.0
C956 C 0.78618 0.54807 0.27874 0.0
C957 C 0.80119 0.54416 0.26435 0.0
C958 C 0.75757 0.57804 0.33609 0.0
C959 C 0.75214 0.56483 0.35052 0.0
C960 C 0.76883 0.57032 0.31899 0.0
C961 C 0.77484 0.54914 0.31578 0.0
C962 C 0.76868 0.5356 0.32973 0.0
C963 C 0.75748 0.54338 0.34695 0.0
H964 H 0.71895 0.41854 0.52955 0.0
H965 H 0.76846 0.46668 0.5753 0.0
H966 H 0.71925 0.44213 0.5036 0.0
H967 H 0.76844 0.49044 0.54954 0.0
H968 H 0.77871 0.51716 0.48953 0.0
H969 H 0.77883 0.49207 0.51402 0.0
H970 H 0.70888 0.47725 0.49955 0.0
H971 H 0.70877 0.502 0.47472 0.0
C972 C 0.72984 0.43419 0.53411 0.0
C973 C 0.74368 0.44073 0.55449 0.0
C974 C 0.72994 0.44776 0.51927 0.0
C975 C 0.74388 0.46816 0.52448 0.0
C976 C 0.75773 0.47468 0.54487 0.0
C977 C 0.75763 0.46112 0.55971 0.0
C978 C 0.76336 0.50845 0.49147 0.0
C979 C 0.74372 0.5116 0.4802 0.0
C980 C 0.76342 0.49418 0.50562 0.0
C981 C 0.74386 0.48274 0.50883 0.0
C982 C 0.72425 0.48562 0.49727 0.0
C983 C 0.72418 0.49989 0.48311 0.0
loop_
_geom_bond_atom_site_label_1
_geom_bond_atom_site_label_2
_geom_bond_distance
_geom_bond_site_symmetry_2
_ccdc_geom_bond_type
O0 Cd1 2.300 . S
O0 C7 1.275 . S
Cd1 O0 2.300 . S
Cd1 O9 2.381 . S
Cd1 O10 2.378 . S
O2 Cd3 2.385 . S
O2 C7 1.255 . S
Cd3 O2 2.385 . S
Cd3 O4 2.317 . S
O4 Cd3 2.317 . S
O4 C5 1.232 . S
C5 O4 1.232 . S
C5 O6 1.218 . S
O6 C5 1.218 . S
C7 O0 1.275 . S
C7 O2 1.255 . S
C8 O9 1.258 . S
C8 O10 1.256 . S
O9 Cd1 2.381 . S
O9 C8 1.258 . S
O10 Cd1 2.378 . S
O10 C8 1.256 . S
O11 Cd12 2.300 . S
O11 C18 1.275 . S
Cd12 O11 2.300 . S
Cd12 O20 2.381 . S
Cd12 O21 2.378 . S
O13 Cd14 2.385 . S
O13 C18 1.255 1_655 S
Cd14 O13 2.385 . S
Cd14 O15 2.317 . S
O15 Cd14 2.317 . S
O15 C16 1.232 . S
C16 O15 1.232 . S
C16 O17 1.218 . S
O17 C16 1.218 . S
C18 O11 1.275 . S
C18 O13 1.255 1_455 S
C19 O20 1.258 . S
C19 O21 1.256 . S
O20 Cd12 2.381 . S
O20 C19 1.258 . S
O21 Cd12 2.378 . S
O21 C19 1.256 . S
O22 Cd23 2.300 . S
O22 C29 1.275 . S
Cd23 O22 2.300 . S
Cd23 O31 2.381 . S
Cd23 O32 2.378 . S
O24 Cd25 2.385 . S
O24 C29 1.255 . S
Cd25 O24 2.385 . S
Cd25 O26 2.317 . S
O26 Cd25 2.317 . S
O26 C27 1.232 . S
C27 O26 1.232 . S
C27 O28 1.218 . S
O28 C27 1.218 . S
C29 O22 1.275 . S
C29 O24 1.255 . S
C30 O31 1.258 . S
C30 O32 1.256 . S
O31 Cd23 2.381 . S
O31 C30 1.258 . S
O32 Cd23 2.378 . S
O32 C30 1.256 . S
O33 Cd34 2.300 . S
O33 C40 1.275 . S
Cd34 O33 2.300 . S
Cd34 O42 2.381 . S
Cd34 O43 2.378 . S
O35 Cd36 2.385 . S
O35 C40 1.255 . S
Cd36 O35 2.385 . S
Cd36 O37 2.317 . S
O37 Cd36 2.317 . S
O37 C38 1.232 . S
C38 O37 1.232 . S
C38 O39 1.218 . S
O39 C38 1.218 . S
C40 O33 1.275 . S
C40 O35 1.255 . S
C41 O42 1.258 . S
C41 O43 1.256 . S
O42 Cd34 2.381 . S
O42 C41 1.258 . S
O43 Cd34 2.378 . S
O43 C41 1.256 . S
O44 Cd45 2.300 1_655 S
O44 C51 1.275 1_545 S
Cd45 O44 2.300 1_455 S
Cd45 O53 2.381 . S
Cd45 O54 2.378 . S
O46 Cd47 2.385 . S
O46 C51 1.255 1_455 S
Cd47 O46 2.385 . S
Cd47 O48 2.317 . S
O48 Cd47 2.317 . S
O48 C49 1.232 . S
C49 O48 1.232 . S
C49 O50 1.218 . S
O50 C49 1.218 . S
C51 O44 1.275 1_565 S
C51 O46 1.255 1_655 S
C52 O53 1.258 . S
C52 O54 1.256 . S
O53 Cd45 2.381 . S
O53 C52 1.258 . S
O54 Cd45 2.378 . S
O54 C52 1.256 . S
O55 Cd56 2.300 . S
O55 C62 1.275 . S
Cd56 O55 2.300 . S
Cd56 O64 2.381 . S
Cd56 O65 2.378 . S
O57 Cd58 2.385 . S
O57 C62 1.255 . S
Cd58 O57 2.385 . S
Cd58 O59 2.317 . S
O59 Cd58 2.317 . S
O59 C60 1.232 . S
C60 O59 1.232 . S
C60 O61 1.218 . S
O61 C60 1.218 . S
C62 O55 1.275 . S
C62 O57 1.255 . S
C63 O64 1.258 . S
C63 O65 1.256 . S
O64 Cd56 2.381 . S
O64 C63 1.258 . S
O65 Cd56 2.378 . S
O65 C63 1.256 . S
O66 Cd67 2.300 . S
O66 C73 1.275 . S
Cd67 O66 2.300 . S
Cd67 O75 2.381 . S
Cd67 O76 2.378 . S
O68 Cd69 2.385 . S
O68 C73 1.255 . S
Cd69 O68 2.385 . S
Cd69 O70 2.317 . S
O70 Cd69 2.317 . S
O70 C71 1.232 . S
C71 O70 1.232 . S
C71 O72 1.218 . S
O72 C71 1.218 . S
C73 O66 1.275 . S
C73 O68 1.255 . S
C74 O75 1.258 . S
C74 O76 1.256 . S
O75 Cd67 2.381 . S
O75 C74 1.258 . S
O76 Cd67 2.378 . S
O76 C74 1.256 . S
O77 Cd78 2.300 . S
O77 C84 1.275 . S
Cd78 O77 2.300 . S
Cd78 O86 2.381 . S
Cd78 O87 2.378 . S
O79 Cd80 2.385 . S
O79 C84 1.255 . S
Cd80 O79 2.385 . S
Cd80 O81 2.317 . S
O81 Cd80 2.317 . S
O81 C82 1.232 . S
C82 O81 1.232 . S
C82 O83 1.218 . S
O83 C82 1.218 . S
C84 O77 1.275 . S
C84 O79 1.255 . S
C85 O86 1.258 . S
C85 O87 1.256 . S
O86 Cd78 2.381 . S
O86 C85 1.258 . S
O87 Cd78 2.378 . S
O87 C85 1.256 . S
O88 Cd89 2.300 . S
O88 C95 1.275 . S
Cd89 O88 2.300 . S
Cd89 O97 2.381 . S
Cd89 O98 2.378 . S
O90 Cd91 2.385 . S
O90 C95 1.255 . S
Cd91 O90 2.385 . S
Cd91 O92 2.317 . S
O92 Cd91 2.317 . S
O92 C93 1.232 . S
C93 O92 1.232 . S
C93 O94 1.218 . S
O94 C93 1.218 . S
C95 O88 1.275 . S
C95 O90 1.255 . S
C96 O97 1.258 . S
C96 O98 1.256 . S
O97 Cd89 2.381 . S
O97 C96 1.258 . S
O98 Cd89 2.378 . S
O98 C96 1.256 . S
O99 Cd100 2.300 . S
O99 C106 1.275 . S
Cd100 O99 2.300 . S
Cd100 O108 2.381 . S
Cd100 O109 2.378 . S
O101 Cd102 2.385 . S
O101 C106 1.255 . S
Cd102 O101 2.385 . S
Cd102 O103 2.317 . S
O103 Cd102 2.317 . S
O103 C104 1.232 . S
C104 O103 1.232 . S
C104 O105 1.218 . S
O105 C104 1.218 . S
C106 O99 1.275 . S
C106 O101 1.255 . S
C107 O108 1.258 . S
C107 O109 1.256 . S
O108 Cd100 2.381 . S
O108 C107 1.258 . S
O109 Cd100 2.378 . S
O109 C107 1.256 . S
O110 Cd111 2.300 . S
O110 C117 1.275 1_554 S
Cd111 O110 2.300 . S
Cd111 O119 2.381 . S
Cd111 O120 2.378 . S
O112 Cd113 2.385 . S
O112 C117 1.255 . S
Cd113 O112 2.385 . S
Cd113 O114 2.317 . S
O114 Cd113 2.317 . S
O114 C115 1.232 . S
C115 O114 1.232 . S
C115 O116 1.218 . S
O116 C115 1.218 . S
C117 O110 1.275 1_556 S
C117 O112 1.255 . S
C118 O119 1.258 . S
C118 O120 1.256 . S
O119 Cd111 2.381 . S
O119 C118 1.258 . S
O120 Cd111 2.378 . S
O120 C118 1.256 . S
O121 Cd122 2.300 . S
O121 C128 1.275 . S
Cd122 O121 2.300 . S
Cd122 O130 2.381 . S
Cd122 O131 2.378 . S
O123 Cd124 2.385 . S
O123 C128 1.255 . S
Cd124 O123 2.385 . S
Cd124 O125 2.317 . S
O125 Cd124 2.317 . S
O125 C126 1.232 . S
C126 O125 1.232 . S
C126 O127 1.218 . S
O127 C126 1.218 . S
C128 O121 1.275 . S
C128 O123 1.255 . S
C129 O130 1.258 . S
C129 O131 1.256 . S
O130 Cd122 2.381 . S
O130 C129 1.258 . S
O131 Cd122 2.378 . S
O131 C129 1.256 . S
O132 Cd133 2.300 . S
O132 C139 1.275 . S
Cd133 O132 2.300 . S
Cd133 O141 2.381 . S
Cd133 O142 2.378 . S
O134 Cd135 2.385 . S
O134 C139 1.255 . S
Cd135 O134 2.385 . S
Cd135 O136 2.317 . S
O136 Cd135 2.317 . S
O136 C137 1.232 . S
C137 O136 1.232 . S
C137 O138 1.218 . S
O138 C137 1.218 . S
C139 O132 1.275 . S
C139 O134 1.255 . S
C140 O141 1.258 . S
C140 O142 1.256 . S
O141 Cd133 2.381 . S
O141 C140 1.258 . S
O142 Cd133 2.378 . S
O142 C140 1.256 . S
O143 Cd144 2.300 . S
O143 C150 1.275 1_455 S
Cd144 O143 2.300 . S
Cd144 O152 2.381 . S
Cd144 O153 2.378 . S
O145 Cd146 2.385 . S
O145 C150 1.255 . S
Cd146 O145 2.385 . S
Cd146 O147 2.317 . S
O147 Cd146 2.317 . S
O147 C148 1.232 . S
C148 O147 1.232 . S
C148 O149 1.218 . S
O149 C148 1.218 . S
C150 O143 1.275 1_655 S
C150 O145 1.255 . S
C151 O152 1.258 . S
C151 O153 1.256 . S
O152 Cd144 2.381 . S
O152 C151 1.258 . S
O153 Cd144 2.378 . S
O153 C151 1.256 . S
O154 Cd155 2.300 . S
O154 C161 1.275 . S
Cd155 O154 2.300 . S
Cd155 O163 2.381 . S
Cd155 O164 2.378 . S
O156 Cd157 2.385 . S
O156 C161 1.255 . S
Cd157 O156 2.385 . S
Cd157 O158 2.317 . S
O158 Cd157 2.317 . S
O158 C159 1.232 . S
C159 O158 1.232 . S
C159 O160 1.218 . S
O160 C159 1.218 . S
C161 O154 1.275 . S
C161 O156 1.255 . S
C162 O163 1.258 . S
C162 O164 1.256 . S
O163 Cd155 2.381 . S
O163 C162 1.258 . S
O164 Cd155 2.378 . S
O164 C162 1.256 . S
O165 Cd166 2.300 . S
O165 C172 1.275 . S
Cd166 O165 2.300 . S
Cd166 O174 2.381 . S
Cd166 O175 2.378 . S
O167 Cd168 2.385 . S
O167 C172 1.255 . S
Cd168 O167 2.385 . S
Cd168 O169 2.317 . S
O169 Cd168 2.317 . S
O169 C170 1.232 . S
C170 O169 1.232 . S
C170 O171 1.218 . S
O171 C170 1.218 . S
C172 O165 1.275 . S
C172 O167 1.255 . S
C173 O174 1.258 . S
C173 O175 1.256 . S
O174 Cd166 2.381 . S
O174 C173 1.258 . S
O175 Cd166 2.378 . S
O175 C173 1.256 . S
O176 Cd177 2.300 . S
O176 C183 1.275 . S
Cd177 O176 2.300 . S
Cd177 O185 2.381 . S
Cd177 O186 2.378 . S
O178 Cd179 2.385 . S
O178 C183 1.255 . S
Cd179 O178 2.385 . S
Cd179 O180 2.317 . S
O180 Cd179 2.317 . S
O180 C181 1.232 . S
C181 O180 1.232 . S
C181 O182 1.218 . S
O182 C181 1.218 . S
C183 O176 1.275 . S
C183 O178 1.255 . S
C184 O185 1.258 . S
C184 O186 1.256 . S
O185 Cd177 2.381 . S
O185 C184 1.258 . S
O186 Cd177 2.378 . S
O186 C184 1.256 . S
O187 Cd188 2.300 . S
O187 C194 1.275 . S
Cd188 O187 2.300 . S
Cd188 O196 2.381 . S
Cd188 O197 2.378 . S
O189 Cd190 2.385 . S
O189 C194 1.255 . S
Cd190 O189 2.385 . S
Cd190 O191 2.317 . S
O191 Cd190 2.317 . S
O191 C192 1.232 . S
C192 O191 1.232 . S
C192 O193 1.218 . S
O193 C192 1.218 . S
C194 O187 1.275 . S
C194 O189 1.255 . S
C195 O196 1.258 . S
C195 O197 1.256 . S
O196 Cd188 2.381 . S
O196 C195 1.258 . S
O197 Cd188 2.378 . S
O197 C195 1.256 . S
O198 Cd199 2.300 . S
O198 C205 1.275 . S
Cd199 O198 2.300 . S
Cd199 O207 2.381 . S
Cd199 O208 2.378 . S
O200 Cd201 2.385 . S
O200 C205 1.255 . S
Cd201 O200 2.385 . S
Cd201 O202 2.317 . S
O202 Cd201 2.317 . S
O202 C203 1.232 . S
C203 O202 1.232 . S
C203 O204 1.218 . S
O204 C203 1.218 . S
C205 O198 1.275 . S
C205 O200 1.255 . S
C206 O207 1.258 . S
C206 O208 1.256 . S
O207 Cd199 2.381 . S
O207 C206 1.258 . S
O208 Cd199 2.378 . S
O208 C206 1.256 . S
O209 Cd210 2.300 . S
O209 C216 1.275 . S
Cd210 O209 2.300 . S
Cd210 O218 2.381 . S
Cd210 O219 2.378 . S
O211 Cd212 2.385 . S
O211 C216 1.255 . S
Cd212 O211 2.385 . S
Cd212 O213 2.317 . S
O213 Cd212 2.317 . S
O213 C214 1.232 . S
C214 O213 1.232 . S
C214 O215 1.218 . S
O215 C214 1.218 . S
C216 O209 1.275 . S
C216 O211 1.255 . S
C217 O218 1.258 . S
C217 O219 1.256 . S
O218 Cd210 2.381 . S
O218 C217 1.258 . S
O219 Cd210 2.378 . S
O219 C217 1.256 . S
O220 Cd221 2.300 . S
O220 C227 1.275 1_556 S
Cd221 O220 2.300 . S
Cd221 O229 2.381 . S
Cd221 O230 2.378 . S
O222 Cd223 2.385 . S
O222 C227 1.255 . S
Cd223 O222 2.385 . S
Cd223 O224 2.317 . S
O224 Cd223 2.317 . S
O224 C225 1.232 . S
C225 O224 1.232 . S
C225 O226 1.218 . S
O226 C225 1.218 . S
C227 O220 1.275 1_554 S
C227 O222 1.255 . S
C228 O229 1.258 . S
C228 O230 1.256 . S
O229 Cd221 2.381 . S
O229 C228 1.258 . S
O230 Cd221 2.378 . S
O230 C228 1.256 . S
O231 Cd232 2.300 . S
O231 C238 1.275 . S
Cd232 O231 2.300 . S
Cd232 O240 2.381 . S
Cd232 O241 2.378 . S
O233 Cd234 2.385 . S
O233 C238 1.255 . S
Cd234 O233 2.385 . S
Cd234 O235 2.317 . S
O235 Cd234 2.317 . S
O235 C236 1.232 . S
C236 O235 1.232 . S
C236 O237 1.218 . S
O237 C236 1.218 . S
C238 O231 1.275 . S
C238 O233 1.255 . S
C239 O240 1.258 . S
C239 O241 1.256 . S
O240 Cd232 2.381 . S
O240 C239 1.258 . S
O241 Cd232 2.378 . S
O241 C239 1.256 . S
O242 Cd243 2.300 . S
O242 C249 1.275 . S
Cd243 O242 2.300 . S
Cd243 O251 2.381 . S
Cd243 O252 2.378 . S
O244 Cd245 2.385 . S
O244 C249 1.255 . S
Cd245 O244 2.385 . S
Cd245 O246 2.317 . S
O246 Cd245 2.317 . S
O246 C247 1.232 . S
C247 O246 1.232 . S
C247 O248 1.218 . S
O248 C247 1.218 . S
C249 O242 1.275 . S
C249 O244 1.255 . S
C250 O251 1.258 . S
C250 O252 1.256 . S
O251 Cd243 2.381 . S
O251 C250 1.258 . S
O252 Cd243 2.378 . S
O252 C250 1.256 . S
O253 Cd254 2.300 . S
O253 C260 1.275 1_565 S
Cd254 O253 2.300 . S
Cd254 O262 2.381 . S
Cd254 O263 2.378 . S
O255 Cd256 2.385 . S
O255 C260 1.255 . S
Cd256 O255 2.385 . S
Cd256 O257 2.317 . S
O257 Cd256 2.317 . S
O257 C258 1.232 . S
C258 O257 1.232 . S
C258 O259 1.218 . S
O259 C258 1.218 . S
C260 O253 1.275 1_545 S
C260 O255 1.255 . S
C261 O262 1.258 . S
C261 O263 1.256 . S
O262 Cd254 2.381 . S
O262 C261 1.258 . S
O263 Cd254 2.378 . S
O263 C261 1.256 . S
H264 C272 0.950 . S
H265 C277 0.950 . S
H266 C274 0.950 . S
H267 C276 0.950 . S
H268 C278 0.950 . S
H269 C280 0.950 . S
H270 C282 0.950 . S
H271 C283 0.950 . S
C272 H264 0.950 . S
C272 C273 1.386 . S
C272 C274 1.391 . S
C273 C272 1.386 . S
C273 C277 1.393 . S
C274 H266 0.950 . S
C274 C272 1.391 . S
C274 C275 1.400 . S
C275 C274 1.400 . S
C275 C276 1.398 . S
C275 C281 1.491 . S
C276 H267 0.950 . S
C276 C275 1.398 . S
C276 C277 1.391 . S
C277 H265 0.950 . S
C277 C273 1.393 . S
C277 C276 1.391 . S
C278 H268 0.950 . S
C278 C279 1.386 . S
C278 C280 1.391 . S
C279 C278 1.386 . S
C279 C283 1.393 . S
C280 H269 0.950 . S
C280 C278 1.391 . S
C280 C281 1.400 . S
C281 C275 1.491 . S
C281 C280 1.400 . S
C281 C282 1.398 . S
C282 H270 0.950 . S
C282 C281 1.398 . S
C282 C283 1.391 . S
C283 H271 0.950 . S
C283 C279 1.393 . S
C283 C282 1.391 . S
H284 C292 0.950 1_545 S
H285 C297 0.950 . S
H286 C294 0.950 1_545 S
H287 C296 0.950 . S
H288 C298 0.950 . S
H289 C300 0.950 . S
H290 C302 0.950 1_455 S
H291 C303 0.950 1_455 S
C292 H284 0.950 1_565 S
C292 C293 1.386 . S
C292 C294 1.391 . S
C293 C292 1.386 . S
C293 C297 1.393 . S
C294 H286 0.950 1_565 S
C294 C292 1.391 . S
C294 C295 1.400 . S
C295 C294 1.400 . S
C295 C296 1.398 . S
C295 C301 1.491 . S
C296 H287 0.950 . S
C296 C295 1.398 . S
C296 C297 1.391 . S
C297 H285 0.950 . S
C297 C293 1.393 . S
C297 C296 1.391 . S
C298 H288 0.950 . S
C298 C299 1.386 . S
C298 C300 1.391 . S
C299 C298 1.386 . S
C299 C303 1.393 . S
C300 H289 0.950 . S
C300 C298 1.391 . S
C300 C301 1.400 . S
C301 C295 1.491 . S
C301 C300 1.400 . S
C301 C302 1.398 . S
C302 H290 0.950 1_655 S
C302 C301 1.398 . S
C302 C303 1.391 . S
C303 H291 0.950 1_655 S
C303 C299 1.393 . S
C303 C302 1.391 . S
H304 C312 0.950 . S
H305 C317 0.950 . S
H306 C314 0.950 . S
H307 C316 0.950 . S
H308 C318 0.950 . S
H309 C320 0.950 . S
H310 C322 0.950 . S
H311 C323 0.950 . S
C312 H304 0.950 . S
C312 C313 1.386 . S
C312 C314 1.391 . S
C313 C312 1.386 . S
C313 C317 1.393 . S
C314 H306 0.950 . S
C314 C312 1.391 . S
C314 C315 1.400 . S
C315 C314 1.400 . S
C315 C316 1.398 . S
C315 C321 1.491 . S
C316 H307 0.950 . S
C316 C315 1.398 . S
C316 C317 1.391 . S
C317 H305 0.950 . S
C317 C313 1.393 . S
C317 C316 1.391 . S
C318 H308 0.950 . S
C318 C319 1.386 . S
C318 C320 1.391 . S
C319 C318 1.386 . S
C319 C323 1.393 . S
C320 H309 0.950 . S
C320 C318 1.391 . S
C320 C321 1.400 . S
C321 C315 1.491 . S
C321 C320 1.400 . S
C321 C322 1.398 . S
C322 H310 0.950 . S
C322 C321 1.398 . S
C322 C323 1.391 . S
C323 H311 0.950 . S
C323 C319 1.393 . S
C323 C322 1.391 . S
H324 C332 0.950 . S
H325 C337 0.950 . S
H326 C334 0.950 . S
H327 C336 0.950 . S
H328 C338 0.950 . S
H329 C340 0.950 . S
H330 C342 0.950 . S
H331 C343 0.950 . S
C332 H324 0.950 . S
C332 C333 1.386 . S
C332 C334 1.391 . S
C333 C332 1.386 . S
C333 C337 1.393 . S
C334 H326 0.950 . S
C334 C332 1.391 . S
C334 C335 1.400 . S
C335 C334 1.400 . S
C335 C336 1.398 . S
C335 C341 1.491 1_556 S
C336 H327 0.950 . S
C336 C335 1.398 . S
C336 C337 1.391 . S
C337 H325 0.950 . S
C337 C333 1.393 . S
C337 C336 1.391 . S
C338 H328 0.950 . S
C338 C339 1.386 . S
C338 C340 1.391 . S
C339 C338 1.386 . S
C339 C343 1.393 . S
C340 H329 0.950 . S
C340 C338 1.391 . S
C340 C341 1.400 . S
C341 C335 1.491 1_554 S
C341 C340 1.400 . S
C341 C342 1.398 . S
C342 H330 0.950 . S
C342 C341 1.398 . S
C342 C343 1.391 . S
C343 H331 0.950 . S
C343 C339 1.393 . S
C343 C342 1.391 . S
H344 C352 0.950 . S
H345 C357 0.950 . S
H346 C354 0.950 . S
H347 C356 0.950 . S
H348 C358 0.950 . S
H349 C360 0.950 . S
H350 C362 0.950 . S
H351 C363 0.950 . S
C352 H344 0.950 . S
C352 C353 1.386 . S
C352 C354 1.391 . S
C353 C352 1.386 . S
C353 C357 1.393 . S
C354 H346 0.950 . S
C354 C352 1.391 . S
C354 C355 1.400 . S
C355 C354 1.400 . S
C355 C356 1.398 . S
C355 C361 1.491 . S
C356 H347 0.950 . S
C356 C355 1.398 . S
C356 C357 1.391 . S
C357 H345 0.950 . S
C357 C353 1.393 . S
C357 C356 1.391 . S
C358 H348 0.950 . S
C358 C359 1.386 . S
C358 C360 1.391 . S
C359 C358 1.386 . S
C359 C363 1.393 . S
C360 H349 0.950 . S
C360 C358 1.391 . S
C360 C361 1.400 . S
C361 C355 1.491 . S
C361 C360 1.400 . S
C361 C362 1.398 . S
C362 H350 0.950 . S
C362 C361 1.398 . S
C362 C363 1.391 . S
C363 H351 0.950 . S
C363 C359 1.393 . S
C363 C362 1.391 . S
H364 C372 0.950 . S
H365 C377 0.950 . S
H366 C374 0.950 . S
H367 C376 0.950 . S
H368 C378 0.950 . S
H369 C380 0.950 . S
H370 C382 0.950 . S
H371 C383 0.950 . S
C372 H364 0.950 . S
C372 C373 1.386 . S
C372 C374 1.391 . S
C373 C372 1.386 . S
C373 C377 1.393 . S
C374 H366 0.950 . S
C374 C372 1.391 . S
C374 C375 1.400 . S
C375 C374 1.400 . S
C375 C376 1.398 . S
C375 C381 1.491 1_545 S
C376 H367 0.950 . S
C376 C375 1.398 . S
C376 C377 1.391 . S
C377 H365 0.950 . S
C377 C373 1.393 . S
C377 C376 1.391 . S
C378 H368 0.950 . S
C378 C379 1.386 . S
C378 C380 1.391 . S
C379 C378 1.386 . S
C379 C383 1.393 . S
C380 H369 0.950 . S
C380 C378 1.391 . S
C380 C381 1.400 . S
C381 C375 1.491 1_565 S
C381 C380 1.400 . S
C381 C382 1.398 . S
C382 H370 0.950 . S
C382 C381 1.398 . S
C382 C383 1.391 . S
C383 H371 0.950 . S
C383 C379 1.393 . S
C383 C382 1.391 . S
H384 C392 0.950 . S
H385 C397 0.950 1_554 S
H386 C394 0.950 . S
H387 C396 0.950 . S
H388 C398 0.950 . S
H389 C400 0.950 . S
H390 C402 0.950 . S
H391 C403 0.950 1_565 S
C392 H384 0.950 . S
C392 C393 1.386 . S
C392 C394 1.391 . S
C393 C392 1.386 . S
C393 C397 1.393 . S
C394 H386 0.950 . S
C394 C392 1.391 . S
C394 C395 1.400 . S
C395 C394 1.400 . S
C395 C396 1.398 . S
C395 C401 1.491 . S
C396 H387 0.950 . S
C396 C395 1.398 . S
C396 C397 1.391 . S
C397 H385 0.950 1_556 S
C397 C393 1.393 . S
C397 C396 1.391 . S
C398 H388 0.950 . S
C398 C399 1.386 . S
C398 C400 1.391 . S
C399 C398 1.386 . S
C399 C403 1.393 . S
C400 H389 0.950 . S
C400 C398 1.391 . S
C400 C401 1.400 . S
C401 C395 1.491 . S
C401 C400 1.400 . S
C401 C402 1.398 . S
C402 H390 0.950 . S
C402 C401 1.398 . S
C402 C403 1.391 . S
C403 H391 0.950 1_545 S
C403 C399 1.393 . S
C403 C402 1.391 . S
H404 C412 0.950 . S
H405 C417 0.950 . S
H406 C414 0.950 . S
H407 C416 0.950 . S
H408 C418 0.950 . S
H409 C420 0.950 . S
H410 C422 0.950 . S
H411 C423 0.950 . S
C412 H404 0.950 . S
C412 C413 1.386 . S
C412 C414 1.391 . S
C413 C412 1.386 . S
C413 C417 1.393 . S
C414 H406 0.950 . S
C414 C412 1.391 . S
C414 C415 1.400 . S
C415 C414 1.400 . S
C415 C416 1.398 . S
C415 C421 1.491 . S
C416 H407 0.950 . S
C416 C415 1.398 . S
C416 C417 1.391 . S
C417 H405 0.950 . S
C417 C413 1.393 . S
C417 C416 1.391 . S
C418 H408 0.950 . S
C418 C419 1.386 . S
C418 C420 1.391 . S
C419 C418 1.386 . S
C419 C423 1.393 . S
C420 H409 0.950 . S
C420 C418 1.391 . S
C420 C421 1.400 . S
C421 C415 1.491 . S
C421 C420 1.400 . S
C421 C422 1.398 . S
C422 H410 0.950 . S
C422 C421 1.398 . S
C422 C423 1.391 . S
C423 H411 0.950 . S
C423 C419 1.393 . S
C423 C422 1.391 . S
H424 C432 0.950 . S
H425 C437 0.950 . S
H426 C434 0.950 . S
H427 C436 0.950 . S
H428 C438 0.950 1_455 S
H429 C440 0.950 . S
H430 C442 0.950 . S
H431 C443 0.950 . S
C432 H424 0.950 . S
C432 C433 1.386 . S
C432 C434 1.391 . S
C433 C432 1.386 . S
C433 C437 1.393 . S
C434 H426 0.950 . S
C434 C432 1.391 . S
C434 C435 1.400 . S
C435 C434 1.400 . S
C435 C436 1.398 . S
C435 C441 1.491 . S
C436 H427 0.950 . S
C436 C435 1.398 . S
C436 C437 1.391 . S
C437 H425 0.950 . S
C437 C433 1.393 . S
C437 C436 1.391 . S
C438 H428 0.950 1_655 S
C438 C439 1.386 . S
C438 C440 1.391 . S
C439 C438 1.386 . S
C439 C443 1.393 . S
C440 H429 0.950 . S
C440 C438 1.391 . S
C440 C441 1.400 . S
C441 C435 1.491 . S
C441 C440 1.400 . S
C441 C442 1.398 . S
C442 H430 0.950 . S
C442 C441 1.398 . S
C442 C443 1.391 . S
C443 H431 0.950 . S
C443 C439 1.393 . S
C443 C442 1.391 . S
H444 C452 0.950 1_455 S
H445 C457 0.950 . S
H446 C454 0.950 . S
H447 C456 0.950 . S
H448 C458 0.950 . S
H449 C460 0.950 . S
H450 C462 0.950 . S
H451 C463 0.950 . S
C452 H444 0.950 1_655 S
C452 C453 1.386 1_655 S
C452 C454 1.391 . S
C453 C452 1.386 1_455 S
C453 C457 1.393 1_455 S
C454 H446 0.950 . S
C454 C452 1.391 . S
C454 C455 1.400 . S
C455 C454 1.400 . S
C455 C456 1.398 . S
C455 C461 1.491 . S
C456 H447 0.950 . S
C456 C455 1.398 . S
C456 C457 1.391 . S
C457 H445 0.950 . S
C457 C453 1.393 1_655 S
C457 C456 1.391 . S
C458 H448 0.950 . S
C458 C459 1.386 . S
C458 C460 1.391 . S
C459 C458 1.386 . S
C459 C463 1.393 . S
C460 H449 0.950 . S
C460 C458 1.391 . S
C460 C461 1.400 . S
C461 C455 1.491 . S
C461 C460 1.400 . S
C461 C462 1.398 . S
C462 H450 0.950 . S
C462 C461 1.398 . S
C462 C463 1.391 . S
C463 H451 0.950 . S
C463 C459 1.393 . S
C463 C462 1.391 . S
H464 C472 0.950 . S
H465 C477 0.950 . S
H466 C474 0.950 . S
H467 C476 0.950 . S
H468 C478 0.950 . S
H469 C480 0.950 . S
H470 C482 0.950 . S
H471 C483 0.950 . S
C472 H464 0.950 . S
C472 C473 1.386 . S
C472 C474 1.391 . S
C473 C472 1.386 . S
C473 C477 1.393 . S
C474 H466 0.950 . S
C474 C472 1.391 . S
C474 C475 1.400 . S
C475 C474 1.400 . S
C475 C476 1.398 . S
C475 C481 1.491 . S
C476 H467 0.950 . S
C476 C475 1.398 . S
C476 C477 1.391 . S
C477 H465 0.950 . S
C477 C473 1.393 . S
C477 C476 1.391 . S
C478 H468 0.950 . S
C478 C479 1.386 . S
C478 C480 1.391 . S
C479 C478 1.386 . S
C479 C483 1.393 . S
C480 H469 0.950 . S
C480 C478 1.391 . S
C480 C481 1.400 . S
C481 C475 1.491 . S
C481 C480 1.400 . S
C481 C482 1.398 . S
C482 H470 0.950 . S
C482 C481 1.398 . S
C482 C483 1.391 . S
C483 H471 0.950 . S
C483 C479 1.393 . S
C483 C482 1.391 . S
H484 C492 0.950 . S
H485 C497 0.950 . S
H486 C494 0.950 . S
H487 C496 0.950 . S
H488 C498 0.950 . S
H489 C500 0.950 . S
H490 C502 0.950 . S
H491 C503 0.950 . S
C492 H484 0.950 . S
C492 C493 1.386 . S
C492 C494 1.391 . S
C493 C492 1.386 . S
C493 C497 1.393 . S
C494 H486 0.950 . S
C494 C492 1.391 . S
C494 C495 1.400 . S
C495 C494 1.400 . S
C495 C496 1.398 . S
C495 C501 1.491 . S
C496 H487 0.950 . S
C496 C495 1.398 . S
C496 C497 1.391 . S
C497 H485 0.950 . S
C497 C493 1.393 . S
C497 C496 1.391 . S
C498 H488 0.950 . S
C498 C499 1.386 . S
C498 C500 1.391 . S
C499 C498 1.386 . S
C499 C503 1.393 . S
C500 H489 0.950 . S
C500 C498 1.391 . S
C500 C501 1.400 . S
C501 C495 1.491 . S
C501 C500 1.400 . S
C501 C502 1.398 . S
C502 H490 0.950 . S
C502 C501 1.398 . S
C502 C503 1.391 . S
C503 H491 0.950 . S
C503 C499 1.393 . S
C503 C502 1.391 . S
H504 C512 0.950 . S
H505 C517 0.950 . S
H506 C514 0.950 . S
H507 C516 0.950 . S
H508 C518 0.950 . S
H509 C520 0.950 . S
H510 C522 0.950 . S
H511 C523 0.950 . S
C512 H504 0.950 . S
C512 C513 1.386 . S
C512 C514 1.391 . S
C513 C512 1.386 . S
C513 C517 1.393 . S
C514 H506 0.950 . S
C514 C512 1.391 . S
C514 C515 1.400 . S
C515 C514 1.400 . S
C515 C516 1.398 . S
C515 C521 1.491 . S
C516 H507 0.950 . S
C516 C515 1.398 . S
C516 C517 1.391 . S
C517 H505 0.950 . S
C517 C513 1.393 . S
C517 C516 1.391 . S
C518 H508 0.950 . S
C518 C519 1.386 . S
C518 C520 1.391 . S
C519 C518 1.386 . S
C519 C523 1.393 . S
C520 H509 0.950 . S
C520 C518 1.391 . S
C520 C521 1.400 . S
C521 C515 1.491 . S
C521 C520 1.400 . S
C521 C522 1.398 . S
C522 H510 0.950 . S
C522 C521 1.398 . S
C522 C523 1.391 . S
C523 H511 0.950 . S
C523 C519 1.393 . S
C523 C522 1.391 . S
H524 C532 0.950 . S
H525 C537 0.950 . S
H526 C534 0.950 . S
H527 C536 0.950 . S
H528 C538 0.950 . S
H529 C540 0.950 . S
H530 C542 0.950 . S
H531 C543 0.950 . S
C532 H524 0.950 . S
C532 C533 1.386 . S
C532 C534 1.391 . S
C533 C532 1.386 . S
C533 C537 1.393 . S
C534 H526 0.950 . S
C534 C532 1.391 . S
C534 C535 1.400 . S
C535 C534 1.400 . S
C535 C536 1.398 . S
C535 C541 1.491 . S
C536 H527 0.950 . S
C536 C535 1.398 . S
C536 C537 1.391 . S
C537 H525 0.950 . S
C537 C533 1.393 . S
C537 C536 1.391 . S
C538 H528 0.950 . S
C538 C539 1.386 . S
C538 C540 1.391 . S
C539 C538 1.386 . S
C539 C543 1.393 . S
C540 H529 0.950 . S
C540 C538 1.391 . S
C540 C541 1.400 . S
C541 C535 1.491 . S
C541 C540 1.400 . S
C541 C542 1.398 . S
C542 H530 0.950 . S
C542 C541 1.398 . S
C542 C543 1.391 . S
C543 H531 0.950 . S
C543 C539 1.393 . S
C543 C542 1.391 . S
H544 C552 0.950 . S
H545 C557 0.950 . S
H546 C554 0.950 . S
H547 C556 0.950 . S
H548 C558 0.950 . S
H549 C560 0.950 . S
H550 C562 0.950 . S
H551 C563 0.950 . S
C552 H544 0.950 . S
C552 C553 1.386 . S
C552 C554 1.391 . S
C553 C552 1.386 . S
C553 C557 1.393 . S
C554 H546 0.950 . S
C554 C552 1.391 . S
C554 C555 1.400 . S
C555 C554 1.400 . S
C555 C556 1.398 . S
C555 C561 1.491 . S
C556 H547 0.950 . S
C556 C555 1.398 . S
C556 C557 1.391 . S
C557 H545 0.950 . S
C557 C553 1.393 . S
C557 C556 1.391 . S
C558 H548 0.950 . S
C558 C559 1.386 . S
C558 C560 1.391 . S
C559 C558 1.386 . S
C559 C563 1.393 . S
C560 H549 0.950 . S
C560 C558 1.391 . S
C560 C561 1.400 . S
C561 C555 1.491 . S
C561 C560 1.400 . S
C561 C562 1.398 . S
C562 H550 0.950 . S
C562 C561 1.398 . S
C562 C563 1.391 . S
C563 H551 0.950 . S
C563 C559 1.393 . S
C563 C562 1.391 . S
H564 C572 0.950 . S
H565 C577 0.950 . S
H566 C574 0.950 . S
H567 C576 0.950 . S
H568 C578 0.950 . S
H569 C580 0.950 . S
H570 C582 0.950 . S
H571 C583 0.950 . S
C572 H564 0.950 . S
C572 C573 1.386 . S
C572 C574 1.391 . S
C573 C572 1.386 . S
C573 C577 1.393 . S
C574 H566 0.950 . S
C574 C572 1.391 . S
C574 C575 1.400 . S
C575 C574 1.400 . S
C575 C576 1.398 . S
C575 C581 1.491 . S
C576 H567 0.950 . S
C576 C575 1.398 . S
C576 C577 1.391 . S
C577 H565 0.950 . S
C577 C573 1.393 . S
C577 C576 1.391 . S
C578 H568 0.950 . S
C578 C579 1.386 . S
C578 C580 1.391 . S
C579 C578 1.386 . S
C579 C583 1.393 . S
C580 H569 0.950 . S
C580 C578 1.391 . S
C580 C581 1.400 . S
C581 C575 1.491 . S
C581 C580 1.400 . S
C581 C582 1.398 . S
C582 H570 0.950 . S
C582 C581 1.398 . S
C582 C583 1.391 . S
C583 H571 0.950 . S
C583 C579 1.393 . S
C583 C582 1.391 . S
H584 C592 0.950 . S
H585 C597 0.950 . S
H586 C594 0.950 . S
H587 C596 0.950 1_655 S
H588 C598 0.950 . S
H589 C600 0.950 . S
H590 C602 0.950 . S
H591 C603 0.950 . S
C592 H584 0.950 . S
C592 C593 1.386 . S
C592 C594 1.391 . S
C593 C592 1.386 . S
C593 C597 1.393 1_455 S
C594 H586 0.950 . S
C594 C592 1.391 . S
C594 C595 1.400 . S
C595 C594 1.400 . S
C595 C596 1.398 . S
C595 C601 1.491 . S
C596 H587 0.950 1_455 S
C596 C595 1.398 . S
C596 C597 1.391 1_455 S
C597 H585 0.950 . S
C597 C593 1.393 1_655 S
C597 C596 1.391 1_655 S
C598 H588 0.950 . S
C598 C599 1.386 . S
C598 C600 1.391 . S
C599 C598 1.386 . S
C599 C603 1.393 . S
C600 H589 0.950 . S
C600 C598 1.391 . S
C600 C601 1.400 . S
C601 C595 1.491 . S
C601 C600 1.400 . S
C601 C602 1.398 . S
C602 H590 0.950 . S
C602 C601 1.398 . S
C602 C603 1.391 . S
C603 H591 0.950 . S
C603 C599 1.393 . S
C603 C602 1.391 . S
H604 C612 0.950 . S
H605 C617 0.950 . S
H606 C614 0.950 . S
H607 C616 0.950 . S
H608 C618 0.950 . S
H609 C620 0.950 . S
H610 C622 0.950 . S
H611 C623 0.950 . S
C612 H604 0.950 . S
C612 C613 1.386 . S
C612 C614 1.391 . S
C613 C612 1.386 . S
C613 C617 1.393 . S
C614 H606 0.950 . S
C614 C612 1.391 . S
C614 C615 1.400 . S
C615 C614 1.400 . S
C615 C616 1.398 . S
C615 C621 1.491 . S
C616 H607 0.950 . S
C616 C615 1.398 . S
C616 C617 1.391 . S
C617 H605 0.950 . S
C617 C613 1.393 . S
C617 C616 1.391 . S
C618 H608 0.950 . S
C618 C619 1.386 . S
C618 C620 1.391 . S
C619 C618 1.386 . S
C619 C623 1.393 . S
C620 H609 0.950 . S
C620 C618 1.391 . S
C620 C621 1.400 . S
C621 C615 1.491 . S
C621 C620 1.400 . S
C621 C622 1.398 . S
C622 H610 0.950 . S
C622 C621 1.398 . S
C622 C623 1.391 . S
C623 H611 0.950 . S
C623 C619 1.393 . S
C623 C622 1.391 . S
H624 C632 0.950 . S
H625 C637 0.950 . S
H626 C634 0.950 . S
H627 C636 0.950 . S
H628 C638 0.950 . S
H629 C640 0.950 . S
H630 C642 0.950 . S
H631 C643 0.950 . S
C632 H624 0.950 . S
C632 C633 1.386 . S
C632 C634 1.391 . S
C633 C632 1.386 . S
C633 C637 1.393 . S
C634 H626 0.950 . S
C634 C632 1.391 . S
C634 C635 1.400 . S
C635 C634 1.400 . S
C635 C636 1.398 . S
C635 C641 1.491 . S
C636 H627 0.950 . S
C636 C635 1.398 . S
C636 C637 1.391 . S
C637 H625 0.950 . S
C637 C633 1.393 . S
C637 C636 1.391 . S
C638 H628 0.950 . S
C638 C639 1.386 . S
C638 C640 1.391 . S
C639 C638 1.386 . S
C639 C643 1.393 . S
C640 H629 0.950 . S
C640 C638 1.391 . S
C640 C641 1.400 . S
C641 C635 1.491 . S
C641 C640 1.400 . S
C641 C642 1.398 . S
C642 H630 0.950 . S
C642 C641 1.398 . S
C642 C643 1.391 . S
C643 H631 0.950 . S
C643 C639 1.393 . S
C643 C642 1.391 . S
H644 C652 0.950 . S
H645 C657 0.950 . S
H646 C654 0.950 . S
H647 C656 0.950 . S
H648 C658 0.950 . S
H649 C660 0.950 . S
H650 C662 0.950 . S
H651 C663 0.950 . S
C652 H644 0.950 . S
C652 C653 1.386 . S
C652 C654 1.391 . S
C653 C652 1.386 . S
C653 C657 1.393 . S
C654 H646 0.950 . S
C654 C652 1.391 . S
C654 C655 1.400 . S
C655 C654 1.400 . S
C655 C656 1.398 . S
C655 C661 1.491 . S
C656 H647 0.950 . S
C656 C655 1.398 . S
C656 C657 1.391 . S
C657 H645 0.950 . S
C657 C653 1.393 . S
C657 C656 1.391 . S
C658 H648 0.950 . S
C658 C659 1.386 . S
C658 C660 1.391 . S
C659 C658 1.386 . S
C659 C663 1.393 . S
C660 H649 0.950 . S
C660 C658 1.391 . S
C660 C661 1.400 . S
C661 C655 1.491 . S
C661 C660 1.400 . S
C661 C662 1.398 . S
C662 H650 0.950 . S
C662 C661 1.398 . S
C662 C663 1.391 . S
C663 H651 0.950 . S
C663 C659 1.393 . S
C663 C662 1.391 . S
H664 C672 0.950 . S
H665 C677 0.950 . S
H666 C674 0.950 . S
H667 C676 0.950 . S
H668 C678 0.950 . S
H669 C680 0.950 . S
H670 C682 0.950 . S
H671 C683 0.950 . S
C672 H664 0.950 . S
C672 C673 1.386 . S
C672 C674 1.391 . S
C673 C672 1.386 . S
C673 C677 1.393 . S
C674 H666 0.950 . S
C674 C672 1.391 . S
C674 C675 1.400 . S
C675 C674 1.400 . S
C675 C676 1.398 . S
C675 C681 1.491 . S
C676 H667 0.950 . S
C676 C675 1.398 . S
C676 C677 1.391 . S
C677 H665 0.950 . S
C677 C673 1.393 . S
C677 C676 1.391 . S
C678 H668 0.950 . S
C678 C679 1.386 . S
C678 C680 1.391 . S
C679 C678 1.386 . S
C679 C683 1.393 . S
C680 H669 0.950 . S
C680 C678 1.391 . S
C680 C681 1.400 . S
C681 C675 1.491 . S
C681 C680 1.400 . S
C681 C682 1.398 . S
C682 H670 0.950 . S
C682 C681 1.398 . S
C682 C683 1.391 . S
C683 H671 0.950 . S
C683 C679 1.393 . S
C683 C682 1.391 . S
H684 C692 0.950 . S
H685 C697 0.950 . S
H686 C694 0.950 . S
H687 C696 0.950 . S
H688 C698 0.950 . S
H689 C700 0.950 . S
H690 C702 0.950 . S
H691 C703 0.950 . S
C692 H684 0.950 . S
C692 C693 1.386 . S
C692 C694 1.391 . S
C693 C692 1.386 . S
C693 C697 1.393 . S
C694 H686 0.950 . S
C694 C692 1.391 . S
C694 C695 1.400 . S
C695 C694 1.400 . S
C695 C696 1.398 . S
C695 C701 1.491 . S
C696 H687 0.950 . S
C696 C695 1.398 . S
C696 C697 1.391 . S
C697 H685 0.950 . S
C697 C693 1.393 . S
C697 C696 1.391 . S
C698 H688 0.950 . S
C698 C699 1.386 . S
C698 C700 1.391 . S
C699 C698 1.386 . S
C699 C703 1.393 . S
C700 H689 0.950 . S
C700 C698 1.391 . S
C700 C701 1.400 . S
C701 C695 1.491 . S
C701 C700 1.400 . S
C701 C702 1.398 . S
C702 H690 0.950 . S
C702 C701 1.398 . S
C702 C703 1.391 . S
C703 H691 0.950 . S
C703 C699 1.393 . S
C703 C702 1.391 . S
H704 C712 0.950 . S
H705 C717 0.950 . S
H706 C714 0.950 . S
H707 C716 0.950 . S
H708 C718 0.950 . S
H709 C720 0.950 . S
H710 C722 0.950 . S
H711 C723 0.950 . S
C712 H704 0.950 . S
C712 C713 1.386 . S
C712 C714 1.391 . S
C713 C712 1.386 . S
C713 C717 1.393 . S
C714 H706 0.950 . S
C714 C712 1.391 . S
C714 C715 1.400 . S
C715 C714 1.400 . S
C715 C716 1.398 . S
C715 C721 1.491 . S
C716 H707 0.950 . S
C716 C715 1.398 . S
C716 C717 1.391 . S
C717 H705 0.950 . S
C717 C713 1.393 . S
C717 C716 1.391 . S
C718 H708 0.950 . S
C718 C719 1.386 . S
C718 C720 1.391 . S
C719 C718 1.386 . S
C719 C723 1.393 . S
C720 H709 0.950 . S
C720 C718 1.391 . S
C720 C721 1.400 . S
C721 C715 1.491 . S
C721 C720 1.400 . S
C721 C722 1.398 . S
C722 H710 0.950 . S
C722 C721 1.398 . S
C722 C723 1.391 . S
C723 H711 0.950 . S
C723 C719 1.393 . S
C723 C722 1.391 . S
H724 C732 0.950 . S
H725 C737 0.950 . S
H726 C734 0.950 . S
H727 C736 0.950 . S
H728 C738 0.950 . S
H729 C740 0.950 . S
H730 C742 0.950 . S
H731 C743 0.950 . S
C732 H724 0.950 . S
C732 C733 1.386 . S
C732 C734 1.391 . S
C733 C732 1.386 . S
C733 C737 1.393 . S
C734 H726 0.950 . S
C734 C732 1.391 . S
C734 C735 1.400 . S
C735 C734 1.400 . S
C735 C736 1.398 . S
C735 C741 1.491 . S
C736 H727 0.950 . S
C736 C735 1.398 . S
C736 C737 1.391 . S
C737 H725 0.950 . S
C737 C733 1.393 . S
C737 C736 1.391 . S
C738 H728 0.950 . S
C738 C739 1.386 . S
C738 C740 1.391 . S
C739 C738 1.386 . S
C739 C743 1.393 . S
C740 H729 0.950 . S
C740 C738 1.391 . S
C740 C741 1.400 . S
C741 C735 1.491 . S
C741 C740 1.400 . S
C741 C742 1.398 . S
C742 H730 0.950 . S
C742 C741 1.398 . S
C742 C743 1.391 . S
C743 H731 0.950 . S
C743 C739 1.393 . S
C743 C742 1.391 . S
H744 C752 0.950 . S
H745 C757 0.950 . S
H746 C754 0.950 . S
H747 C756 0.950 . S
H748 C758 0.950 . S
H749 C760 0.950 . S
H750 C762 0.950 . S
H751 C763 0.950 . S
C752 H744 0.950 . S
C752 C753 1.386 . S
C752 C754 1.391 . S
C753 C752 1.386 . S
C753 C757 1.393 . S
C754 H746 0.950 . S
C754 C752 1.391 . S
C754 C755 1.400 . S
C755 C754 1.400 . S
C755 C756 1.398 . S
C755 C761 1.491 . S
C756 H747 0.950 . S
C756 C755 1.398 . S
C756 C757 1.391 . S
C757 H745 0.950 . S
C757 C753 1.393 . S
C757 C756 1.391 . S
C758 H748 0.950 . S
C758 C759 1.386 . S
C758 C760 1.391 . S
C759 C758 1.386 . S
C759 C763 1.393 . S
C760 H749 0.950 . S
C760 C758 1.391 . S
C760 C761 1.400 . S
C761 C755 1.491 . S
C761 C760 1.400 . S
C761 C762 1.398 . S
C762 H750 0.950 . S
C762 C761 1.398 . S
C762 C763 1.391 . S
C763 H751 0.950 . S
C763 C759 1.393 . S
C763 C762 1.391 . S
H764 C772 0.950 . S
H765 C777 0.950 . S
H766 C774 0.950 . S
H767 C776 0.950 . S
H768 C778 0.950 . S
H769 C780 0.950 . S
H770 C782 0.950 . S
H771 C783 0.950 . S
C772 H764 0.950 . S
C772 C773 1.386 . S
C772 C774 1.391 . S
C773 C772 1.386 . S
C773 C777 1.393 . S
C774 H766 0.950 . S
C774 C772 1.391 . S
C774 C775 1.400 . S
C775 C774 1.400 . S
C775 C776 1.398 . S
C775 C781 1.491 . S
C776 H767 0.950 . S
C776 C775 1.398 . S
C776 C777 1.391 . S
C777 H765 0.950 . S
C777 C773 1.393 . S
C777 C776 1.391 . S
C778 H768 0.950 . S
C778 C779 1.386 . S
C778 C780 1.391 . S
C779 C778 1.386 . S
C779 C783 1.393 . S
C780 H769 0.950 . S
C780 C778 1.391 . S
C780 C781 1.400 . S
C781 C775 1.491 . S
C781 C780 1.400 . S
C781 C782 1.398 . S
C782 H770 0.950 . S
C782 C781 1.398 . S
C782 C783 1.391 . S
C783 H771 0.950 . S
C783 C779 1.393 . S
C783 C782 1.391 . S
H784 C792 0.950 . S
H785 C797 0.950 . S
H786 C794 0.950 . S
H787 C796 0.950 . S
H788 C798 0.950 . S
H789 C800 0.950 . S
H790 C802 0.950 . S
H791 C803 0.950 . S
C792 H784 0.950 . S
C792 C793 1.386 . S
C792 C794 1.391 . S
C793 C792 1.386 . S
C793 C797 1.393 . S
C794 H786 0.950 . S
C794 C792 1.391 . S
C794 C795 1.400 . S
C795 C794 1.400 . S
C795 C796 1.398 . S
C795 C801 1.491 . S
C796 H787 0.950 . S
C796 C795 1.398 . S
C796 C797 1.391 . S
C797 H785 0.950 . S
C797 C793 1.393 . S
C797 C796 1.391 . S
C798 H788 0.950 . S
C798 C799 1.386 . S
C798 C800 1.391 . S
C799 C798 1.386 . S
C799 C803 1.393 . S
C800 H789 0.950 . S
C800 C798 1.391 . S
C800 C801 1.400 . S
C801 C795 1.491 . S
C801 C800 1.400 . S
C801 C802 1.398 . S
C802 H790 0.950 . S
C802 C801 1.398 . S
C802 C803 1.391 . S
C803 H791 0.950 . S
C803 C799 1.393 . S
C803 C802 1.391 . S
H804 C812 0.950 . S
H805 C817 0.950 . S
H806 C814 0.950 . S
H807 C816 0.950 . S
H808 C818 0.950 . S
H809 C820 0.950 . S
H810 C822 0.950 . S
H811 C823 0.950 . S
C812 H804 0.950 . S
C812 C813 1.386 . S
C812 C814 1.391 . S
C813 C812 1.386 . S
C813 C817 1.393 . S
C814 H806 0.950 . S
C814 C812 1.391 . S
C814 C815 1.400 . S
C815 C814 1.400 . S
C815 C816 1.398 . S
C815 C821 1.491 . S
C816 H807 0.950 . S
C816 C815 1.398 . S
C816 C817 1.391 . S
C817 H805 0.950 . S
C817 C813 1.393 . S
C817 C816 1.391 . S
C818 H808 0.950 . S
C818 C819 1.386 . S
C818 C820 1.391 . S
C819 C818 1.386 . S
C819 C823 1.393 . S
C820 H809 0.950 . S
C820 C818 1.391 . S
C820 C821 1.400 . S
C821 C815 1.491 . S
C821 C820 1.400 . S
C821 C822 1.398 . S
C822 H810 0.950 . S
C822 C821 1.398 . S
C822 C823 1.391 . S
C823 H811 0.950 . S
C823 C819 1.393 . S
C823 C822 1.391 . S
H824 C832 0.950 . S
H825 C837 0.950 . S
H826 C834 0.950 . S
H827 C836 0.950 . S
H828 C838 0.950 . S
H829 C840 0.950 . S
H830 C842 0.950 . S
H831 C843 0.950 . S
C832 H824 0.950 . S
C832 C833 1.386 . S
C832 C834 1.391 . S
C833 C832 1.386 . S
C833 C837 1.393 . S
C834 H826 0.950 . S
C834 C832 1.391 . S
C834 C835 1.400 . S
C835 C834 1.400 . S
C835 C836 1.398 . S
C835 C841 1.491 . S
C836 H827 0.950 . S
C836 C835 1.398 . S
C836 C837 1.391 . S
C837 H825 0.950 . S
C837 C833 1.393 . S
C837 C836 1.391 . S
C838 H828 0.950 . S
C838 C839 1.386 . S
C838 C840 1.391 . S
C839 C838 1.386 . S
C839 C843 1.393 . S
C840 H829 0.950 . S
C840 C838 1.391 . S
C840 C841 1.400 . S
C841 C835 1.491 . S
C841 C840 1.400 . S
C841 C842 1.398 . S
C842 H830 0.950 . S
C842 C841 1.398 . S
C842 C843 1.391 . S
C843 H831 0.950 . S
C843 C839 1.393 . S
C843 C842 1.391 . S
H844 C852 0.950 . S
H845 C857 0.950 . S
H846 C854 0.950 . S
H847 C856 0.950 . S
H848 C858 0.950 . S
H849 C860 0.950 . S
H850 C862 0.950 . S
H851 C863 0.950 . S
C852 H844 0.950 . S
C852 C853 1.386 . S
C852 C854 1.391 . S
C853 C852 1.386 . S
C853 C857 1.393 . S
C854 H846 0.950 . S
C854 C852 1.391 . S
C854 C855 1.400 . S
C855 C854 1.400 . S
C855 C856 1.398 . S
C855 C861 1.491 . S
C856 H847 0.950 . S
C856 C855 1.398 . S
C856 C857 1.391 . S
C857 H845 0.950 . S
C857 C853 1.393 . S
C857 C856 1.391 . S
C858 H848 0.950 . S
C858 C859 1.386 . S
C858 C860 1.391 . S
C859 C858 1.386 . S
C859 C863 1.393 . S
C860 H849 0.950 . S
C860 C858 1.391 . S
C860 C861 1.400 . S
C861 C855 1.491 . S
C861 C860 1.400 . S
C861 C862 1.398 . S
C862 H850 0.950 . S
C862 C861 1.398 . S
C862 C863 1.391 . S
C863 H851 0.950 . S
C863 C859 1.393 . S
C863 C862 1.391 . S
H864 C872 0.950 . S
H865 C877 0.950 . S
H866 C874 0.950 . S
H867 C876 0.950 . S
H868 C878 0.950 . S
H869 C880 0.950 . S
H870 C882 0.950 . S
H871 C883 0.950 . S
C872 H864 0.950 . S
C872 C873 1.386 . S
C872 C874 1.391 . S
C873 C872 1.386 . S
C873 C877 1.393 . S
C874 H866 0.950 . S
C874 C872 1.391 . S
C874 C875 1.400 . S
C875 C874 1.400 . S
C875 C876 1.398 . S
C875 C881 1.491 . S
C876 H867 0.950 . S
C876 C875 1.398 . S
C876 C877 1.391 . S
C877 H865 0.950 . S
C877 C873 1.393 . S
C877 C876 1.391 . S
C878 H868 0.950 . S
C878 C879 1.386 . S
C878 C880 1.391 . S
C879 C878 1.386 . S
C879 C883 1.393 . S
C880 H869 0.950 . S
C880 C878 1.391 . S
C880 C881 1.400 . S
C881 C875 1.491 . S
C881 C880 1.400 . S
C881 C882 1.398 . S
C882 H870 0.950 . S
C882 C881 1.398 . S
C882 C883 1.391 . S
C883 H871 0.950 . S
C883 C879 1.393 . S
C883 C882 1.391 . S
H884 C892 0.950 . S
H885 C897 0.950 . S
H886 C894 0.950 . S
H887 C896 0.950 . S
H888 C898 0.950 . S
H889 C900 0.950 . S
H890 C902 0.950 . S
H891 C903 0.950 . S
C892 H884 0.950 . S
C892 C893 1.386 . S
C892 C894 1.391 . S
C893 C892 1.386 . S
C893 C897 1.393 . S
C894 H886 0.950 . S
C894 C892 1.391 . S
C894 C895 1.400 . S
C895 C894 1.400 . S
C895 C896 1.398 . S
C895 C901 1.491 . S
C896 H887 0.950 . S
C896 C895 1.398 . S
C896 C897 1.391 . S
C897 H885 0.950 . S
C897 C893 1.393 . S
C897 C896 1.391 . S
C898 H888 0.950 . S
C898 C899 1.386 . S
C898 C900 1.391 . S
C899 C898 1.386 . S
C899 C903 1.393 . S
C900 H889 0.950 . S
C900 C898 1.391 . S
C900 C901 1.400 . S
C901 C895 1.491 . S
C901 C900 1.400 . S
C901 C902 1.398 . S
C902 H890 0.950 . S
C902 C901 1.398 . S
C902 C903 1.391 . S
C903 H891 0.950 . S
C903 C899 1.393 . S
C903 C902 1.391 . S
H904 C912 0.950 . S
H905 C917 0.950 . S
H906 C914 0.950 . S
H907 C916 0.950 . S
H908 C918 0.950 . S
H909 C920 0.950 . S
H910 C922 0.950 . S
H911 C923 0.950 . S
C912 H904 0.950 . S
C912 C913 1.386 . S
C912 C914 1.391 . S
C913 C912 1.386 . S
C913 C917 1.393 . S
C914 H906 0.950 . S
C914 C912 1.391 . S
C914 C915 1.400 . S
C915 C914 1.400 . S
C915 C916 1.398 . S
C915 C921 1.491 . S
C916 H907 0.950 . S
C916 C915 1.398 . S
C916 C917 1.391 . S
C917 H905 0.950 . S
C917 C913 1.393 . S
C917 C916 1.391 . S
C918 H908 0.950 . S
C918 C919 1.386 . S
C918 C920 1.391 . S
C919 C918 1.386 . S
C919 C923 1.393 . S
C920 H909 0.950 . S
C920 C918 1.391 . S
C920 C921 1.400 . S
C921 C915 1.491 . S
C921 C920 1.400 . S
C921 C922 1.398 . S
C922 H910 0.950 . S
C922 C921 1.398 . S
C922 C923 1.391 . S
C923 H911 0.950 . S
C923 C919 1.393 . S
C923 C922 1.391 . S
H924 C932 0.950 . S
H925 C937 0.950 . S
H926 C934 0.950 . S
H927 C936 0.950 . S
H928 C938 0.950 . S
H929 C940 0.950 . S
H930 C942 0.950 . S
H931 C943 0.950 . S
C932 H924 0.950 . S
C932 C933 1.386 . S
C932 C934 1.391 . S
C933 C932 1.386 . S
C933 C937 1.393 . S
C934 H926 0.950 . S
C934 C932 1.391 . S
C934 C935 1.400 . S
C935 C934 1.400 . S
C935 C936 1.398 . S
C935 C941 1.491 . S
C936 H927 0.950 . S
C936 C935 1.398 . S
C936 C937 1.391 . S
C937 H925 0.950 . S
C937 C933 1.393 . S
C937 C936 1.391 . S
C938 H928 0.950 . S
C938 C939 1.386 . S
C938 C940 1.391 . S
C939 C938 1.386 . S
C939 C943 1.393 . S
C940 H929 0.950 . S
C940 C938 1.391 . S
C940 C941 1.400 . S
C941 C935 1.491 . S
C941 C940 1.400 . S
C941 C942 1.398 . S
C942 H930 0.950 . S
C942 C941 1.398 . S
C942 C943 1.391 . S
C943 H931 0.950 . S
C943 C939 1.393 . S
C943 C942 1.391 . S
H944 C952 0.950 . S
H945 C957 0.950 . S
H946 C954 0.950 . S
H947 C956 0.950 . S
H948 C958 0.950 . S
H949 C960 0.950 . S
H950 C962 0.950 . S
H951 C963 0.950 . S
C952 H944 0.950 . S
C952 C953 1.386 . S
C952 C954 1.391 . S
C953 C952 1.386 . S
C953 C957 1.393 . S
C954 H946 0.950 . S
C954 C952 1.391 . S
C954 C955 1.400 . S
C955 C954 1.400 . S
C955 C956 1.398 . S
C955 C961 1.491 . S
C956 H947 0.950 . S
C956 C955 1.398 . S
C956 C957 1.391 . S
C957 H945 0.950 . S
C957 C953 1.393 . S
C957 C956 1.391 . S
C958 H948 0.950 . S
C958 C959 1.386 . S
C958 C960 1.391 . S
C959 C958 1.386 . S
C959 C963 1.393 . S
C960 H949 0.950 . S
C960 C958 1.391 . S
C960 C961 1.400 . S
C961 C955 1.491 . S
C961 C960 1.400 . S
C961 C962 1.398 . S
C962 H950 0.950 . S
C962 C961 1.398 . S
C962 C963 1.391 . S
C963 H951 0.950 . S
C963 C959 1.393 . S
C963 C962 1.391 . S
H964 C972 0.950 . S
H965 C977 0.950 . S
H966 C974 0.950 . S
H967 C976 0.950 . S
H968 C978 0.950 . S
H969 C980 0.950 . S
H970 C982 0.950 . S
H971 C983 0.950 . S
C972 H964 0.950 . S
C972 C973 1.386 . S
C972 C974 1.391 . S
C973 C972 1.386 . S
C973 C977 1.393 . S
C974 H966 0.950 . S
C974 C972 1.391 . S
C974 C975 1.400 . S
C975 C974 1.400 . S
C975 C976 1.398 . S
C975 C981 1.491 . S
C976 H967 0.950 . S
C976 C975 1.398 . S
C976 C977 1.391 . S
C977 H965 0.950 . S
C977 C973 1.393 . S
C977 C976 1.391 . S
C978 H968 0.950 . S
C978 C979 1.386 . S
C978 C980 1.391 . S
C979 C978 1.386 . S
C979 C983 1.393 . S
C980 H969 0.950 . S
C980 C978 1.391 . S
C980 C981 1.400 . S
C981 C975 1.491 . S
C981 C980 1.400 . S
C981 C982 1.398 . S
C982 H970 0.950 . S
C982 C981 1.398 . S
C982 C983 1.391 . S
C983 H971 0.950 . S
C983 C979 1.393 . S
C983 C982 1.391 . S
C273 C84 1.491 . S
C279 C7 1.557 . S
C293 C51 1.254 . S
C299 C18 1.328 1_655 S
C313 C29 1.216 . S
C319 C62 1.327 . S
C333 C73 1.398 . S
C339 C40 1.338 . S
C353 C183 1.310 . S
C359 C95 1.375 . S
C373 C106 1.261 . S
C379 C194 1.264 . S
C393 C117 1.162 . S
C399 C260 1.173 . S
C413 C128 1.318 . S
C419 C139 1.303 . S
C433 C227 1.299 . S
C439 C150 1.296 . S
C453 C161 1.482 . S
C459 C238 1.494 . S
C473 C249 1.415 . S
C479 C172 1.412 . S
C493 C216 1.368 . S
C499 C205 1.479 . S
C513 C162 1.776 . S
C519 C5 1.611 . S
C533 C173 1.691 . S
C539 C16 1.534 . S
C553 C30 1.487 . S
C559 C206 1.525 . S
C573 C148 1.223 . S
C579 C41 1.486 . S
C593 C49 1.347 . S
C599 C159 1.607 . S
C613 C170 1.516 . S
C619 C63 1.686 . S
C633 C74 1.447 . S
C639 C203 1.283 . S
C653 C82 1.377 . S
C659 C151 1.743 . S
C673 C107 1.492 . S
C679 C93 1.335 . S
C693 C104 1.189 . S
C699 C115 1.059 . S
C713 C118 1.581 . S
C719 C126 1.280 . S
C733 C129 1.489 . S
C739 C96 1.504 . S
C753 C140 1.687 . S
C759 C38 1.374 . S
C773 C181 1.531 . S
C779 C52 1.930 . S
C793 C19 1.454 . S
C799 C192 1.265 . S
C813 C261 1.638 . S
C819 C27 1.280 . S
C833 C184 1.758 . S
C839 C8 1.860 . S
C853 C71 1.241 . S
C859 C258 1.104 . S
C873 C85 1.782 . S
C879 C137 1.492 . S
C893 C195 1.598 . S
C899 C60 1.410 . S
C913 C214 1.560 . S
C919 C228 1.942 . S
C933 C236 1.504 . S
C939 C225 1.321 . S
C953 C239 1.741 . S
C959 C247 1.542 . S
C973 C217 1.830 . S
C979 C250 1.916 . S
