# Generated by pormake.
# Topology wlk, (5)-cn, num edge types: 1
# Building blocks:
#     Node 0, Type 0, BuildingBlock: XOMCOT_clean_sbu_1, # of connection points: 5
#     Node 1, Type 0, BuildingBlock: XOMCOT_clean_sbu_1, # of connection points: 5
#     Node 2, Type 0, BuildingBlock: XOMCOT_clean_sbu_1, # of connection points: 5
#     Node 3, Type 0, BuildingBlock: XOMCOT_clean_sbu_1, # of connection points: 5
#     Node 4, Type 0, BuildingBlock: XOMCOT_clean_sbu_1, # of connection points: 5
#     Node 5, Type 0, BuildingBlock: XOMCOT_clean_sbu_1, # of connection points: 5
#     Node 6, Type 0, BuildingBlock: XOMCOT_clean_sbu_1, # of connection points: 5
#     Node 7, Type 0, BuildingBlock: XOMCOT_clean_sbu_1, # of connection points: 5
#     Node 8, Type 0, BuildingBlock: XOMCOT_clean_sbu_1, # of connection points: 5
#     Node 9, Type 0, BuildingBlock: XOMCOT_clean_sbu_1, # of connection points: 5
#     Node 10, Type 0, BuildingBlock: XOMCOT_clean_sbu_1, # of connection points: 5
#     Node 11, Type 0, BuildingBlock: XOMCOT_clean_sbu_1, # of connection points: 5
#     Node 12, Type 0, BuildingBlock: XOMCOT_clean_sbu_1, # of connection points: 5
#     Node 13, Type 0, BuildingBlock: XOMCOT_clean_sbu_1, # of connection points: 5
#     Node 14, Type 0, BuildingBlock: XOMCOT_clean_sbu_1, # of connection points: 5
#     Node 15, Type 0, BuildingBlock: XOMCOT_clean_sbu_1, # of connection points: 5
#     Node 16, Type 0, BuildingBlock: XOMCOT_clean_sbu_1, # of connection points: 5
#     Node 17, Type 0, BuildingBlock: XOMCOT_clean_sbu_1, # of connection points: 5
#     Edge 18, Type (0, 0), BuildingBlock: KIFKEQ_clean_linker_1, # of connection points: 2
#     Edge 19, Type (0, 0), BuildingBlock: KIFKEQ_clean_linker_1, # of connection points: 2
#     Edge 20, Type (0, 0), BuildingBlock: KIFKEQ_clean_linker_1, # of connection points: 2
#     Edge 21, Type (0, 0), BuildingBlock: KIFKEQ_clean_linker_1, # of connection points: 2
#     Edge 22, Type (0, 0), BuildingBlock: KIFKEQ_clean_linker_1, # of connection points: 2
#     Edge 23, Type (0, 0), BuildingBlock: KIFKEQ_clean_linker_1, # of connection points: 2
#     Edge 24, Type (0, 0), BuildingBlock: KIFKEQ_clean_linker_1, # of connection points: 2
#     Edge 25, Type (0, 0), BuildingBlock: KIFKEQ_clean_linker_1, # of connection points: 2
#     Edge 26, Type (0, 0), BuildingBlock: KIFKEQ_clean_linker_1, # of connection points: 2
#     Edge 27, Type (0, 0), BuildingBlock: KIFKEQ_clean_linker_1, # of connection points: 2
#     Edge 28, Type (0, 0), BuildingBlock: KIFKEQ_clean_linker_1, # of connection points: 2
#     Edge 29, Type (0, 0), BuildingBlock: KIFKEQ_clean_linker_1, # of connection points: 2
#     Edge 30, Type (0, 0), BuildingBlock: KIFKEQ_clean_linker_1, # of connection points: 2
#     Edge 31, Type (0, 0), BuildingBlock: KIFKEQ_clean_linker_1, # of connection points: 2
#     Edge 32, Type (0, 0), BuildingBlock: KIFKEQ_clean_linker_1, # of connection points: 2
#     Edge 33, Type (0, 0), BuildingBlock: KIFKEQ_clean_linker_1, # of connection points: 2
#     Edge 34, Type (0, 0), BuildingBlock: KIFKEQ_clean_linker_1, # of connection points: 2
#     Edge 35, Type (0, 0), BuildingBlock: KIFKEQ_clean_linker_1, # of connection points: 2
#     Edge 36, Type (0, 0), BuildingBlock: KIFKEQ_clean_linker_1, # of connection points: 2
#     Edge 37, Type (0, 0), BuildingBlock: KIFKEQ_clean_linker_1, # of connection points: 2
#     Edge 38, Type (0, 0), BuildingBlock: KIFKEQ_clean_linker_1, # of connection points: 2
#     Edge 39, Type (0, 0), BuildingBlock: KIFKEQ_clean_linker_1, # of connection points: 2
#     Edge 40, Type (0, 0), BuildingBlock: KIFKEQ_clean_linker_1, # of connection points: 2
#     Edge 41, Type (0, 0), BuildingBlock: KIFKEQ_clean_linker_1, # of connection points: 2
#     Edge 42, Type (0, 0), BuildingBlock: KIFKEQ_clean_linker_1, # of connection points: 2
#     Edge 43, Type (0, 0), BuildingBlock: KIFKEQ_clean_linker_1, # of connection points: 2
#     Edge 44, Type (0, 0), BuildingBlock: KIFKEQ_clean_linker_1, # of connection points: 2
#     Edge 45, Type (0, 0), BuildingBlock: KIFKEQ_clean_linker_1, # of connection points: 2
#     Edge 46, Type (0, 0), BuildingBlock: KIFKEQ_clean_linker_1, # of connection points: 2
#     Edge 47, Type (0, 0), BuildingBlock: KIFKEQ_clean_linker_1, # of connection points: 2
#     Edge 48, Type (0, 0), BuildingBlock: KIFKEQ_clean_linker_1, # of connection points: 2
#     Edge 49, Type (0, 0), BuildingBlock: KIFKEQ_clean_linker_1, # of connection points: 2
#     Edge 50, Type (0, 0), BuildingBlock: KIFKEQ_clean_linker_1, # of connection points: 2
#     Edge 51, Type (0, 0), BuildingBlock: KIFKEQ_clean_linker_1, # of connection points: 2
#     Edge 52, Type (0, 0), BuildingBlock: KIFKEQ_clean_linker_1, # of connection points: 2
#     Edge 53, Type (0, 0), BuildingBlock: KIFKEQ_clean_linker_1, # of connection points: 2
#     Edge 54, Type (0, 0), BuildingBlock: KIFKEQ_clean_linker_1, # of connection points: 2
#     Edge 55, Type (0, 0), BuildingBlock: KIFKEQ_clean_linker_1, # of connection points: 2
#     Edge 56, Type (0, 0), BuildingBlock: KIFKEQ_clean_linker_1, # of connection points: 2
#     Edge 57, Type (0, 0), BuildingBlock: KIFKEQ_clean_linker_1, # of connection points: 2
#     Edge 58, Type (0, 0), BuildingBlock: KIFKEQ_clean_linker_1, # of connection points: 2
#     Edge 59, Type (0, 0), BuildingBlock: KIFKEQ_clean_linker_1, # of connection points: 2
#     Edge 60, Type (0, 0), BuildingBlock: KIFKEQ_clean_linker_1, # of connection points: 2
#     Edge 61, Type (0, 0), BuildingBlock: KIFKEQ_clean_linker_1, # of connection points: 2
#     Edge 62, Type (0, 0), BuildingBlock: KIFKEQ_clean_linker_1, # of connection points: 2
# Relax obj value: 0.168
# Max RMSD: 0.217
# Mean RMSD: 0.217
data_MOF--net-wlk--node1-XOMCOT_clean_sbu_1--edge1-KIFKEQ_clean_linker_1
_symmetry_space_group_name_H-M    P1
_symmetry_Int_Tables_number       1
_symmetry_cell_setting            triclinic
loop_
_symmetry_equiv_pos_as_xyz
'x, y, z'
_cell_length_a     65.139389
_cell_length_b     65.51843
_cell_length_c     28.421162
_cell_angle_alpha  89.767248
_cell_angle_beta   90.120847
_cell_angle_gamma 120.00718
loop_
_atom_site_label
_atom_site_type_symbol
_atom_site_fract_x
_atom_site_fract_y
_atom_site_fract_z
_atom_type_partial_charge
C0 C 0.22197 0.27479 0.98582 0.0
C1 C 0.2229 0.25627 0.96556 0.0
N2 N 0.21575 0.2387 0.99735 0.0
N3 N 0.21467 0.26948 0.03092 0.0
C4 C 0.21013 0.24694 0.03615 0.0
H5 H 0.2268 0.29118 0.96825 0.0
Co6 Co 0.21143 0.28924 0.07664 0.0
C7 C 0.24171 0.27313 0.12336 0.0
O8 O 0.25253 0.27537 0.0831 0.0
N9 N 0.20759 0.30836 0.12074 0.0
C10 C 0.19979 0.33551 0.14793 0.0
C11 C 0.20062 0.32384 0.10852 0.0
C12 C 0.21071 0.31078 0.16807 0.0
N13 N 0.2062 0.32738 0.1856 0.0
O14 O 0.17933 0.26429 0.08904 0.0
H15 H 0.19635 0.32642 0.07301 0.0
H16 H 0.21635 0.30073 0.18925 0.0
O17 O 0.22516 0.27825 0.12617 0.0
C18 C 0.16696 0.26565 0.05539 0.0
O19 O 0.17809 0.28147 0.02231 0.0
N20 N 0.24121 0.3153 0.06045 0.0
C21 C 0.27964 0.35642 0.02435 0.0
C22 C 0.28235 0.34544 0.06451 0.0
C23 C 0.26264 0.32522 0.08302 0.0
C24 C 0.23819 0.32666 0.02317 0.0
C25 C 0.25709 0.34696 1.00424 0.0
H26 H 0.26473 0.31816 0.11581 0.0
H27 H 0.22081 0.3197 1.00762 0.0
H28 H 0.20377 0.23719 0.06874 0.0
H29 H 0.22947 0.25635 0.9306 0.0
H30 H 0.19439 0.34866 0.14875 0.0
H31 H 0.29935 0.35274 0.08202 0.0
H32 H 0.25409 0.35497 0.97352 0.0
C33 C 0.77689 0.94887 0.99366 0.0
C34 C 0.79399 0.96969 0.97395 0.0
N35 N 0.80461 0.9856 1.00855 0.0
N36 N 0.77657 0.95138 0.04065 0.0
C37 C 0.79372 0.97398 0.04872 0.0
H38 H 0.76515 0.93293 0.97472 0.0
Co39 Co 0.75523 0.9272 0.08113 0.0
C40 C 0.74868 0.95195 0.1623 0.0
O41 O 0.72603 0.93599 0.16298 0.0
N42 N 0.73384 0.90215 0.12173 0.0
C43 C 0.70263 0.86949 0.14938 0.0
C44 C 0.71312 0.88286 0.10997 0.0
C45 C 0.73603 0.89918 0.16857 0.0
N46 N 0.71685 0.87988 0.18655 0.0
O47 O 0.78022 0.9213 0.10126 0.0
H48 H 0.70577 0.87832 0.0751 0.0
H49 H 0.75095 0.91157 0.18955 0.0
O50 O 0.76237 0.95064 0.13156 0.0
C51 C 0.78192 0.9079 0.07079 0.0
O52 O 0.76776 0.90134 0.03412 0.0
N53 N 0.73048 0.93136 0.05603 0.0
C54 C 0.69408 0.93298 1.00603 0.0
C55 C 0.70814 0.95072 0.03843 0.0
C56 C 0.72664 0.9499 0.06223 0.0
C57 C 0.71825 0.91518 0.02197 0.0
C58 C 0.69978 0.91534 0.99738 0.0
H59 H 0.73813 0.96457 0.08429 0.0
H60 H 0.72322 0.9022 0.01312 0.0
H61 H 0.79826 0.98175 0.08335 0.0
H62 H 0.7978 0.973 0.93677 0.0
H63 H 0.68572 0.85328 0.15048 0.0
H64 H 0.70504 0.96521 0.04516 0.0
H65 H 0.6905 0.90204 0.97078 0.0
C66 C 0.08683 0.81591 0.98585 0.0
C67 C 0.06862 0.81632 0.96181 0.0
N68 N 0.05788 0.82437 0.99077 0.0
N69 N 0.08759 0.82332 0.03035 0.0
C70 C 0.07064 0.82965 0.03129 0.0
H71 H 0.0976 0.8089 0.97262 0.0
Co72 Co 0.10488 0.82049 0.08222 0.0
C73 C 0.05346 0.7929 0.11738 0.0
O74 O 0.04374 0.78867 0.07546 0.0
N75 N 0.12122 0.81716 0.13542 0.0
C76 C 0.12592 0.79776 0.19526 0.0
C77 C 0.11252 0.79596 0.15683 0.0
C78 C 0.14014 0.83182 0.16268 0.0
N79 N 0.14346 0.82027 0.19936 0.0
O80 O 0.11353 0.85236 0.10138 0.0
H81 H 0.09676 0.78001 0.14607 0.0
H82 H 0.15104 0.85054 0.15618 0.0
O83 O 0.07603 0.80502 0.12196 0.0
C84 C 0.13142 0.8645 0.07437 0.0
O85 O 0.1386 0.85287 0.04789 0.0
N86 N 0.10043 0.79151 0.05805 0.0
C87 C 0.1039 0.7561 1.00947 0.0
C88 C 0.08182 0.75245 0.02514 0.0
C89 C 0.08046 0.77034 0.04961 0.0
C90 C 0.12198 0.79495 0.04438 0.0
C91 C 0.12417 0.7775 0.02099 0.0
H92 H 0.06332 0.76712 0.06012 0.0
H93 H 0.13775 0.81169 0.05109 0.0
H94 H 0.06616 0.8357 0.06293 0.0
H95 H 0.0625 0.80918 0.92702 0.0
H96 H 0.12232 0.78358 0.2195 0.0
H97 H 0.06558 0.73632 0.01702 0.0
H98 H 0.14172 0.78109 0.01124 0.0
C99 C 0.83398 0.75904 0.05076 0.0
C100 C 0.83525 0.77833 0.07263 0.0
N101 N 0.84184 0.79577 0.0407 0.0
N102 N 0.83934 0.7639 1.00475 0.0
C103 C 0.84522 0.78682 1.00034 0.0
H104 H 0.82834 0.74213 0.06712 0.0
Co105 Co 0.83673 0.74176 0.95855 0.0
C106 C 0.8086 0.76277 0.91108 0.0
O107 O 0.80537 0.77208 0.94912 0.0
N108 N 0.83393 0.71962 0.91171 0.0
C109 C 0.81645 0.68986 0.86089 0.0
C110 C 0.81296 0.7013 0.89736 0.0
C111 C 0.84995 0.7192 0.88162 0.0
N112 N 0.83967 0.70107 0.85065 0.0
O113 O 0.8681 0.76485 0.93458 0.0
H114 H 0.79572 0.69691 0.91062 0.0
H115 H 0.86862 0.73223 0.8814 0.0
O116 O 0.81996 0.75149 0.91309 0.0
C117 C 0.88387 0.76568 0.96292 0.0
O118 O 0.87673 0.75211 1.00045 0.0
N119 N 0.80792 0.71833 0.98671 0.0
C120 C 0.7696 0.67992 0.03154 0.0
C121 C 0.76674 0.69749 1.009 0.0
C122 C 0.78611 0.71658 0.98694 0.0
C123 C 0.81114 0.70177 1.0095 0.0
C124 C 0.7923 0.68244 0.03181 0.0
H125 H 0.78319 0.72951 0.96983 0.0
H126 H 0.82856 0.70352 1.00989 0.0
H127 H 0.85034 0.79627 0.9672 0.0
H128 H 0.82999 0.77879 0.10853 0.0
H129 H 0.8027 0.67522 0.84139 0.0
H130 H 0.74957 0.69632 1.00766 0.0
H131 H 0.7956 0.66971 0.04955 0.0
C132 C 0.26799 0.07716 0.04123 0.0
C133 C 0.25095 0.05646 0.0614 0.0
N134 N 0.24248 0.03944 0.02843 0.0
N135 N 0.27054 0.07355 0.9955 0.0
C136 C 0.25466 0.05034 0.98863 0.0
H137 H 0.2781 0.09385 0.05906 0.0
Co138 Co 0.29306 0.09771 0.95611 0.0
C139 C 0.296 0.07409 0.86874 0.0
O140 O 0.31863 0.08978 0.86528 0.0
N141 N 0.31579 0.12284 0.91712 0.0
C142 C 0.34911 0.15367 0.89072 0.0
C143 C 0.3383 0.13904 0.92841 0.0
C144 C 0.31317 0.12889 0.87255 0.0
N145 N 0.33345 0.14725 0.85507 0.0
O146 O 0.26987 0.10708 0.93995 0.0
H147 H 0.3468 0.14037 0.96169 0.0
H148 H 0.29685 0.1194 0.85284 0.0
O149 O 0.28375 0.07498 0.90318 0.0
C150 C 0.27439 0.12368 0.96912 0.0
O151 O 0.29215 0.12973 0.99835 0.0
N152 N 0.31629 0.09068 0.97833 0.0
C153 C 0.35321 0.08809 0.02343 0.0
C154 C 0.3405 0.07265 0.9865 0.0
C155 C 0.32167 0.07385 0.96506 0.0
C156 C 0.32735 0.10451 0.01629 0.0
C157 C 0.34603 0.10385 0.0387 0.0
H158 H 0.31146 0.06101 0.93865 0.0
H159 H 0.32216 0.1169 0.02831 0.0
H160 H 0.25238 0.04148 0.9554 0.0
H161 H 0.24514 0.05425 0.09764 0.0
H162 H 0.36749 0.16749 0.8895 0.0
H163 H 0.34479 0.05951 0.97484 0.0
H164 H 0.3551 0.11606 0.06712 0.0
C165 C 0.95872 0.20837 0.03477 0.0
C166 C 0.97929 0.21172 0.05536 0.0
N167 N 0.99434 0.21334 0.02117 0.0
N168 N 0.9606 0.20795 0.98761 0.0
C169 C 0.98248 0.21085 0.98033 0.0
H170 H 0.94332 0.20642 0.05314 0.0
Co171 Co 0.9365 0.20427 0.94582 0.0
C172 C 0.96188 0.23134 0.85954 0.0
O173 O 0.9458 0.23766 0.85398 0.0
N174 N 0.91146 0.19969 0.90419 0.0
C175 C 0.87813 0.19646 0.87517 0.0
C176 C 0.89247 0.20206 0.91404 0.0
C177 C 0.9075 0.19158 0.85918 0.0
N178 N 0.88761 0.19 0.84032 0.0
O179 O 0.9291 0.17232 0.93263 0.0
H180 H 0.88869 0.20724 0.94732 0.0
H181 H 0.91918 0.18714 0.84045 0.0
O182 O 0.96024 0.21797 0.89418 0.0
C183 C 0.9151 0.15961 0.96556 0.0
O184 O 0.90951 0.17012 0.99824 0.0
N185 N 0.94195 0.23433 0.96458 0.0
C186 C 0.94654 0.27475 1.00817 0.0
C187 C 0.96346 0.2764 0.97544 0.0
C188 C 0.96116 0.25594 0.95488 0.0
C189 C 0.92621 0.23243 0.99825 0.0
C190 C 0.92781 0.25229 0.01962 0.0
H191 H 0.97543 0.25763 0.9331 0.0
H192 H 0.91251 0.21516 1.00959 0.0
H193 H 0.98975 0.21153 0.94579 0.0
H194 H 0.98275 0.21266 0.09277 0.0
H195 H 0.86214 0.19757 0.87268 0.0
H196 H 0.97888 0.29326 0.96722 0.0
H197 H 0.91453 0.24996 0.04527 0.0
C198 C 0.85686 0.58392 0.35313 0.0
C199 C 0.86027 0.56717 0.33119 0.0
N200 N 0.8778 0.56575 0.35355 0.0
N201 N 0.87193 0.59302 0.38966 0.0
C202 C 0.88463 0.58179 0.38877 0.0
H203 H 0.84423 0.58922 0.3428 0.0
Co204 Co 0.87372 0.6168 0.42906 0.0
C205 C 0.90394 0.6195 0.51149 0.0
O206 O 0.9114 0.64211 0.51547 0.0
N207 N 0.87483 0.6409 0.46816 0.0
C208 C 0.88118 0.67548 0.49493 0.0
C209 C 0.88295 0.6637 0.4567 0.0
C210 C 0.86742 0.63919 0.5134 0.0
N211 N 0.87161 0.66015 0.53093 0.0
O212 O 0.84214 0.59516 0.45233 0.0
H213 H 0.89007 0.67166 0.42297 0.0
H214 H 0.85976 0.62295 0.53347 0.0
O215 O 0.88926 0.60751 0.4787 0.0
C216 C 0.82758 0.59956 0.43043 0.0
O217 O 0.83608 0.61729 0.40062 0.0
N218 N 0.90271 0.63811 0.4005 0.0
C219 C 0.93942 0.67115 0.34395 0.0
C220 C 0.94434 0.66111 0.38302 0.0
C221 C 0.92561 0.64413 0.41039 0.0
C222 C 0.89773 0.64694 0.36144 0.0
C223 C 0.91571 0.66359 0.33305 0.0
H224 H 0.92979 0.63577 0.43847 0.0
H225 H 0.87947 0.64134 0.35298 0.0
H226 H 0.89896 0.58572 0.41284 0.0
H227 H 0.85028 0.55671 0.30133 0.0
H228 H 0.88726 0.69415 0.49637 0.0
H229 H 0.96241 0.66595 0.39166 0.0
H230 H 0.91106 0.6708 0.3032 0.0
C231 C 0.43478 0.27698 0.32818 0.0
C232 C 0.4515 0.29773 0.30762 0.0
N233 N 0.46237 0.31395 0.3416 0.0
N234 N 0.43494 0.2798 0.37515 0.0
C235 C 0.45196 0.30257 0.38231 0.0
H236 H 0.42294 0.26087 0.30986 0.0
Co237 Co 0.41435 0.2555 0.41643 0.0
C238 C 0.41088 0.28051 0.50087 0.0
O239 O 0.38818 0.26493 0.50399 0.0
N240 N 0.39373 0.23022 0.45748 0.0
C241 C 0.36449 0.19568 0.48371 0.0
C242 C 0.37414 0.20993 0.44492 0.0
C243 C 0.39611 0.22713 0.50415 0.0
N244 N 0.37815 0.20661 0.52121 0.0
O245 O 0.43929 0.2486 0.4312 0.0
H246 H 0.36719 0.20525 0.40976 0.0
H247 H 0.41073 0.23976 0.52544 0.0
O248 O 0.42343 0.2788 0.46804 0.0
C249 C 0.43785 0.23401 0.39972 0.0
O250 O 0.4213 0.22753 0.36743 0.0
N251 N 0.38941 0.26043 0.3962 0.0
C252 C 0.35198 0.26292 0.35279 0.0
C253 C 0.36725 0.28046 0.38438 0.0
C254 C 0.38625 0.27922 0.40476 0.0
C255 C 0.37587 0.24438 0.36293 0.0
C256 C 0.35693 0.245 0.34154 0.0
H257 H 0.39866 0.29379 0.42601 0.0
H258 H 0.38032 0.23134 0.35167 0.0
H259 H 0.45673 0.31067 0.41665 0.0
H260 H 0.45484 0.3008 0.27025 0.0
H261 H 0.34833 0.17873 0.48436 0.0
H262 H 0.36477 0.29516 0.39297 0.0
H263 H 0.34674 0.2319 0.31517 0.0
C264 C 0.76991 0.17869 0.31357 0.0
C265 C 0.75002 0.17542 0.29012 0.0
N266 N 0.73093 0.16218 0.31725 0.0
N267 N 0.76365 0.16758 0.35557 0.0
C268 C 0.73968 0.15766 0.35681 0.0
H269 H 0.78785 0.18847 0.30045 0.0
Co270 Co 0.78556 0.16725 0.39883 0.0
C271 C 0.75129 0.15725 0.47954 0.0
O272 O 0.76003 0.17939 0.4917 0.0
N273 N 0.80769 0.16716 0.44133 0.0
C274 C 0.83994 0.16716 0.46699 0.0
C275 C 0.82703 0.16624 0.4279 0.0
C276 C 0.80934 0.16885 0.48888 0.0
N277 N 0.82884 0.16877 0.50561 0.0
O278 O 0.79458 0.19903 0.41793 0.0
H279 H 0.83161 0.16528 0.39175 0.0
H280 H 0.79654 0.17014 0.51082 0.0
O281 O 0.76041 0.15199 0.44534 0.0
C282 C 0.81241 0.21289 0.39247 0.0
O283 O 0.82089 0.20358 0.36294 0.0
N284 N 0.77905 0.13776 0.37607 0.0
C285 C 0.77496 0.09731 0.3339 0.0
C286 C 0.76567 0.0963 0.3791 0.0
C287 C 0.76818 0.11681 0.39987 0.0
C288 C 0.78846 0.13916 0.33265 0.0
C289 C 0.78665 0.11927 0.31099 0.0
H290 H 0.76183 0.11583 0.4353 0.0
H291 H 0.798 0.15605 0.3151 0.0
H292 H 0.72876 0.14695 0.38565 0.0
H293 H 0.74973 0.18252 0.25584 0.0
H294 H 0.85657 0.1672 0.46664 0.0
H295 H 0.75652 0.07986 0.39839 0.0
H296 H 0.79487 0.1213 0.27692 0.0
C297 C 0.52995 0.11297 0.33937 0.0
C298 C 0.52626 0.12949 0.36156 0.0
N299 N 0.50768 0.12975 0.34106 0.0
N300 N 0.51392 0.10272 0.30467 0.0
C301 C 0.50049 0.1132 0.30676 0.0
H302 H 0.54366 0.10884 0.34782 0.0
Co303 Co 0.51256 0.07955 0.26346 0.0
C304 C 0.49827 0.10064 0.18393 0.0
O305 O 0.51988 0.11509 0.16894 0.0
N306 N 0.5113 0.05648 0.22223 0.0
C307 C 0.50991 0.02381 0.19674 0.0
C308 C 0.51003 0.03618 0.23585 0.0
C309 C 0.51208 0.05614 0.1746 0.0
N310 N 0.51115 0.03631 0.15786 0.0
O311 O 0.54325 0.10223 0.23859 0.0
H312 H 0.5095 0.03083 0.27208 0.0
H313 H 0.51348 0.07027 0.15272 0.0
O314 O 0.49491 0.08709 0.21886 0.0
C315 C 0.55844 0.09802 0.25824 0.0
O316 O 0.55087 0.08017 0.28761 0.0
N317 N 0.48435 0.05687 0.2915 0.0
C318 C 0.44737 0.01922 0.33905 0.0
C319 C 0.44397 0.02516 0.29333 0.0
C320 C 0.46293 0.04393 0.26969 0.0
C321 C 0.4877 0.0516 0.3362 0.0
C322 C 0.46947 0.03288 0.36063 0.0
H323 H 0.46066 0.04729 0.23337 0.0
H324 H 0.505 0.06148 0.35235 0.0
H325 H 0.48563 0.10867 0.28362 0.0
H326 H 0.53692 0.14081 0.38993 0.0
H327 H 0.5095 1.00712 0.19738 0.0
H328 H 0.42721 1.01475 0.27537 0.0
H329 H 0.47275 0.02885 0.39591 0.0
C330 C 0.95838 0.4202 0.3599 0.0
C331 C 0.94166 0.39942 0.38033 0.0
N332 N 0.92754 0.3849 0.34627 0.0
N333 N 0.95502 0.41905 0.31297 0.0
C334 C 0.93607 0.39727 0.30563 0.0
H335 H 0.97229 0.43526 0.37811 0.0
Co336 Co 0.97407 0.44418 0.27183 0.0
C337 C 0.97946 0.41977 0.18967 0.0
O338 O 1.00229 0.43515 0.19076 0.0
N339 N 0.99292 0.4704 0.23081 0.0
C340 C 1.01669 0.50759 0.20744 0.0
C341 C 1.00716 0.49276 0.24549 0.0
C342 C 0.99293 0.47267 0.18314 0.0
N343 N 1.00789 0.49492 0.16788 0.0
O344 O 0.94783 0.44932 0.25984 0.0
H345 H 1.0097 0.49845 0.28166 0.0
H346 H 0.98145 0.45852 0.15985 0.0
O347 O 0.96556 0.4215 0.21929 0.0
C348 C 0.94743 0.46167 0.2942 0.0
O349 O 0.96296 0.467 0.32823 0.0
N350 N 1.00046 0.44073 0.28917 0.0
C351 C 0.03798 0.43746 0.33026 0.0
C352 C 1.01969 0.41821 0.30629 0.0
C353 C 1.00083 0.42003 0.28694 0.0
C354 C 1.01746 0.45903 0.31444 0.0
C355 C 0.03649 0.45799 0.33432 0.0
H356 H 0.98616 0.40449 0.27169 0.0
H357 H 1.01557 0.47402 0.32234 0.0
H358 H 0.92851 0.39072 0.27128 0.0
H359 H 0.94035 0.39519 0.41745 0.0
H360 H 0.02904 0.52633 0.2091 0.0
H361 H 1.01963 0.40171 0.30335 0.0
H362 H 0.04926 0.47281 0.35495 0.0
C363 C 0.61574 0.51456 0.36339 0.0
C364 C 0.63562 0.51738 0.38628 0.0
N365 N 0.65496 0.53426 0.36397 0.0
N366 N 0.62228 0.52958 0.3266 0.0
C367 C 0.64634 0.54137 0.32785 0.0
H368 H 0.5976 0.50244 0.37335 0.0
Co369 Co 0.60095 0.53261 0.28601 0.0
C370 C 0.6338 0.54209 0.20277 0.0
O371 O 0.62384 0.52025 0.18782 0.0
N372 N 0.57956 0.53557 0.24525 0.0
C373 C 0.55069 0.54187 0.22133 0.0
C374 C 0.56404 0.54225 0.25916 0.0
C375 C 0.57511 0.53097 0.19864 0.0
N376 N 0.5575 0.53465 0.18304 0.0
O377 O 0.58889 0.50038 0.26484 0.0
H378 H 0.56239 0.54695 0.29481 0.0
H379 H 0.58408 0.52434 0.17693 0.0
O380 O 0.62563 0.54704 0.23891 0.0
C381 C 0.56951 0.48846 0.28788 0.0
O382 O 0.56292 0.50007 0.31588 0.0
N383 N 0.61023 0.56238 0.31124 0.0
C384 C 0.61447 0.60248 0.35482 0.0
C385 C 0.62102 0.60318 0.30745 0.0
C386 C 0.6187 0.58286 0.28617 0.0
C387 C 0.60409 0.56149 0.3573 0.0
C388 C 0.60623 0.58131 0.37984 0.0
H389 H 0.62251 0.58328 0.24908 0.0
H390 H 0.5964 0.54493 0.37617 0.0
H391 H 0.65735 0.55526 0.30338 0.0
H392 H 0.63578 0.5075 0.41677 0.0
H393 H 0.53698 0.54658 0.22224 0.0
H394 H 0.62744 0.61914 0.28676 0.0
H395 H 0.60043 0.5797 0.41603 0.0
C396 C 0.55686 0.94297 0.63697 0.0
C397 C 0.55613 0.92403 0.61458 0.0
N398 N 0.54788 0.90572 0.64494 0.0
N399 N 0.54949 0.93701 0.68181 0.0
C400 C 0.54289 0.91385 0.68468 0.0
H401 H 0.56386 0.96041 0.62215 0.0
Co402 Co 0.55173 0.95762 0.73113 0.0
C403 C 0.57968 0.93516 0.77101 0.0
O404 O 0.58462 0.9298 0.72969 0.0
N405 N 0.55417 0.97796 0.78117 0.0
C406 C 0.57162 1.00425 0.83841 0.0
C407 C 0.57514 0.99312 0.80142 0.0
C408 C 0.53792 0.97991 0.80794 0.0
N409 N 0.54824 0.99603 0.84286 0.0
O410 O 0.51996 0.934 0.75206 0.0
H411 H 0.59213 0.99534 0.79156 0.0
H412 H 0.51896 0.96942 0.80267 0.0
O413 O 0.56748 0.94556 0.77398 0.0
C414 C 0.50542 0.93533 0.72343 0.0
O415 O 0.5143 0.95131 0.6899 0.0
N416 N 0.581 0.98204 0.70591 0.0
C417 C 0.61874 0.02104 0.6609 0.0
C418 C 0.62233 1.00426 0.68477 0.0
C419 C 0.6033 0.98493 0.70708 0.0
C420 C 0.57726 0.99827 0.68312 0.0
C421 C 0.59575 0.01781 0.66052 0.0
H422 H 0.60698 0.97291 0.72581 0.0
H423 H 0.55957 0.99584 0.68216 0.0
H424 H 0.53667 0.90387 0.71705 0.0
H425 H 0.56315 0.92453 0.57987 0.0
H426 H 0.58523 0.01662 0.86193 0.0
H427 H 0.63981 1.00618 0.68684 0.0
H428 H 0.5919 0.03001 0.64212 0.0
C429 C 0.11548 0.62162 0.63625 0.0
C430 C 0.13356 0.64179 0.61642 0.0
N431 N 0.14789 0.65555 0.65093 0.0
N432 N 0.11778 0.62246 0.6836 0.0
C433 C 0.13833 0.64311 0.69109 0.0
H434 H 0.10183 0.60727 0.61645 0.0
Co435 Co 0.09755 0.59873 0.72869 0.0
C436 C 0.10575 0.64342 0.76984 0.0
O437 O 0.10151 0.64868 0.72756 0.0
N438 N 0.07839 0.57518 0.77184 0.0
C439 C 0.05268 0.53918 0.79718 0.0
C440 C 0.06444 0.55264 0.75856 0.0
C441 C 0.07497 0.57503 0.81896 0.0
N442 N 0.0592 0.5532 0.83541 0.0
O443 O 0.12408 0.59487 0.74735 0.0
H444 H 0.06309 0.5464 0.72289 0.0
H445 H 0.08374 0.5906 0.84069 0.0
O446 O 0.10495 0.62363 0.77668 0.0
C447 C 0.12731 0.58258 0.71645 0.0
O448 O 0.11431 0.57657 0.67811 0.0
N449 N 0.07 0.59936 0.70765 0.0
C450 C 0.02816 0.59542 0.6702 0.0
C451 C 0.03624 0.60487 0.71526 0.0
C452 C 0.05666 0.60588 0.73396 0.0
C453 C 0.0611 0.588 0.6661 0.0
C454 C 0.04061 0.58626 0.6463 0.0
H455 H 0.0614 0.61164 0.76986 0.0
H456 H 0.0695 0.57945 0.64878 0.0
H457 H 0.14602 0.64909 0.72559 0.0
H458 H 0.13558 0.64618 0.57934 0.0
H459 H 0.04062 0.52035 0.79703 0.0
H460 H 0.02701 0.61153 0.73613 0.0
H461 H 0.03435 0.57729 0.61297 0.0
C462 C 0.42554 0.48804 0.64798 0.0
C463 C 0.40763 0.48861 0.62323 0.0
N464 N 0.39658 0.49656 0.6517 0.0
N465 N 0.42576 0.49513 0.69249 0.0
C466 C 0.40898 0.50163 0.69269 0.0
H467 H 0.43641 0.48105 0.63523 0.0
Co468 Co 0.44226 0.49148 0.7443 0.0
C469 C 0.39122 0.46748 0.78518 0.0
O470 O 0.37955 0.46398 0.74557 0.0
N471 N 0.45817 0.48752 0.79778 0.0
C472 C 0.4625 0.46838 0.85872 0.0
C473 C 0.45117 0.46605 0.8169 0.0
C474 C 0.47388 0.50277 0.82996 0.0
N475 N 0.47667 0.49143 0.86745 0.0
O476 O 0.45218 0.52351 0.76308 0.0
H477 H 0.43733 0.44947 0.80325 0.0
H478 H 0.48179 0.52171 0.82793 0.0
O479 O 0.41389 0.47761 0.7852 0.0
C480 C 0.47225 0.53583 0.74262 0.0
O481 O 0.48079 0.5246 0.71873 0.0
N482 N 0.43563 0.46168 0.72076 0.0
C483 C 0.43315 0.42229 0.67722 0.0
C484 C 0.41244 0.42249 0.68968 0.0
C485 C 0.41404 0.44233 0.71176 0.0
C486 C 0.4559 0.46182 0.70793 0.0
C487 C 0.45509 0.44218 0.687 0.0
H488 H 0.39794 0.4422 0.71993 0.0
H489 H 0.4729 0.47744 0.71385 0.0
H490 H 0.4046 0.50792 0.72405 0.0
H491 H 0.40207 0.48169 0.58815 0.0
H492 H 0.4596 0.45414 0.88225 0.0
H493 H 0.39516 0.40746 0.68222 0.0
H494 H 0.47146 0.4428 0.67726 0.0
C495 C 0.1714 0.42759 0.70771 0.0
C496 C 0.17289 0.44695 0.72986 0.0
N497 N 0.18122 0.46502 0.69895 0.0
N498 N 0.17832 0.43307 0.66251 0.0
C499 C 0.18543 0.45634 0.65912 0.0
H500 H 0.16427 0.41019 0.72293 0.0
Co501 Co 0.17541 0.41166 0.61426 0.0
C502 C 0.14994 0.43583 0.56837 0.0
O503 O 0.14667 0.44481 0.60687 0.0
N504 N 0.17233 0.39052 0.5648 0.0
C505 C 0.15412 0.36345 0.50902 0.0
C506 C 0.15108 0.37495 0.54599 0.0
C507 C 0.18822 0.38851 0.53694 0.0
N508 N 0.17745 0.37191 0.50298 0.0
O509 O 0.20752 0.43424 0.59366 0.0
H510 H 0.13418 0.37266 0.55698 0.0
H511 H 0.20725 0.3993 0.54062 0.0
O512 O 0.16047 0.42376 0.56985 0.0
C513 C 0.2207 0.43045 0.62176 0.0
O514 O 0.21004 0.41309 0.65221 0.0
N515 N 0.14566 0.38832 0.63965 0.0
C516 C 0.10628 0.35151 0.68498 0.0
C517 C 0.10578 0.37156 0.66913 0.0
C518 C 0.12561 0.38973 0.64622 0.0
C519 C 0.14651 0.36912 0.65598 0.0
C520 C 0.12691 0.35033 0.67784 0.0
H521 H 0.12481 0.40496 0.63518 0.0
H522 H 0.16264 0.36839 0.65194 0.0
H523 H 0.19182 0.46621 0.62664 0.0
H524 H 0.16649 0.44705 0.76492 0.0
H525 H 0.14021 0.35067 0.48656 0.0
H526 H 0.09018 0.37315 0.67442 0.0
H527 H 0.12808 0.33528 0.69015 0.0
C528 C 0.59694 0.74936 0.68963 0.0
C529 C 0.57949 0.72869 0.7091 0.0
N530 N 0.57739 0.71048 0.68342 0.0
N531 N 0.60609 0.74458 0.65155 0.0
C532 C 0.59389 0.72069 0.64884 0.0
H533 H 0.60281 0.76683 0.70304 0.0
Co534 Co 0.6307 0.76818 0.61423 0.0
C535 C 0.62945 0.74437 0.52092 0.0
O536 O 0.64929 0.76237 0.50592 0.0
N537 N 0.65532 0.79275 0.57785 0.0
C538 C 0.69064 0.82078 0.55215 0.0
C539 C 0.6787 0.80502 0.58797 0.0
C540 C 0.65345 0.80246 0.5369 0.0
N541 N 0.67477 0.81889 0.51949 0.0
O542 O 0.60931 0.7794 0.59513 0.0
H543 H 0.68679 0.80241 0.61893 0.0
H544 H 0.63679 0.79649 0.51873 0.0
O545 O 0.62103 0.74506 0.56138 0.0
C546 C 0.6143 0.79702 0.62176 0.0
O547 O 0.63198 0.80356 0.65149 0.0
N548 N 0.65208 0.75897 0.6383 0.0
C549 C 0.68671 0.75307 0.68464 0.0
C550 C 0.68245 0.74823 0.63649 0.0
C551 C 0.66483 0.75106 0.61395 0.0
C552 C 0.65609 0.76364 0.68523 0.0
C553 C 0.67304 0.76048 0.7092 0.0
H554 H 0.66244 0.7479 0.57678 0.0
H555 H 0.64659 0.77065 0.70403 0.0
H556 H 0.59701 0.71099 0.62201 0.0
H557 H 0.56953 0.72731 0.74052 0.0
H558 H 0.70968 0.8319 0.54936 0.0
H559 H 0.69291 0.7427 0.61637 0.0
H560 H 0.67611 0.76472 0.74628 0.0
C561 C 0.2989 0.8757 0.70623 0.0
C562 C 0.31683 0.87553 0.73174 0.0
N563 N 0.32972 0.86998 0.70281 0.0
N564 N 0.30042 0.87061 0.66092 0.0
C565 C 0.31839 0.86575 0.6607 0.0
H566 H 0.28653 0.88075 0.71942 0.0
Co567 Co 0.28373 0.87411 0.60898 0.0
C568 C 0.33561 0.90296 0.57426 0.0
O569 O 0.34594 0.90648 0.61549 0.0
N570 N 0.26784 0.8781 0.5557 0.0
C571 C 0.26283 0.89812 0.49746 0.0
C572 C 0.2747 0.8998 0.53819 0.0
C573 C 0.2517 0.86332 0.52356 0.0
N574 N 0.24848 0.8752 0.48739 0.0
O575 O 0.27686 0.84341 0.5863 0.0
H576 H 0.28842 0.91619 0.55284 0.0
H577 H 0.24338 0.84432 0.52539 0.0
O578 O 0.31298 0.89105 0.57081 0.0
C579 C 0.25961 0.82859 0.61198 0.0
O580 O 0.25081 0.83682 0.64332 0.0
N581 N 0.28721 0.90223 0.63591 0.0
C582 C 0.28453 0.93869 0.68223 0.0
C583 C 0.30649 0.94123 0.66888 0.0
C584 C 0.30745 0.92289 0.64571 0.0
C585 C 0.26577 0.89929 0.64922 0.0
C586 C 0.26398 0.91728 0.67168 0.0
H587 H 0.32451 0.92543 0.63681 0.0
H588 H 0.24983 0.88272 0.64215 0.0
H589 H 0.32458 0.86164 0.62879 0.0
H590 H 0.32072 0.88047 0.76831 0.0
H591 H 0.26506 0.91289 0.47645 0.0
H592 H 0.32298 0.95706 0.67712 0.0
H593 H 0.24655 0.91434 0.6804 0.0
H594 H 0.25664 0.24158 0.13117 0.0
H595 H 0.2505 0.29453 0.20952 0.0
H596 H 0.27999 0.23814 0.19474 0.0
H597 H 0.27438 0.29142 0.27327 0.0
H598 H 0.35005 0.30184 0.32148 0.0
H599 H 0.31893 0.30239 0.27434 0.0
H600 H 0.27767 0.22652 0.28165 0.0
H601 H 0.30826 0.22586 0.33006 0.0
C602 C 0.25987 0.25209 0.16259 0.0
C603 C 0.25165 0.26817 0.16569 0.0
C604 C 0.2732 0.25012 0.19899 0.0
C605 C 0.27906 0.26456 0.23891 0.0
C606 C 0.27015 0.28011 0.24282 0.0
C607 C 0.2563 0.28171 0.20667 0.0
C608 C 0.33409 0.28529 0.31424 0.0
C609 C 0.33192 0.26377 0.32911 0.0
C610 C 0.31625 0.28564 0.28716 0.0
C611 C 0.29597 0.26448 0.27402 0.0
C612 C 0.29324 0.24308 0.29077 0.0
C613 C 0.31088 0.24273 0.31825 0.0
H614 H 0.73128 0.95448 0.2474 0.0
H615 H 0.78367 0.9973 0.14352 0.0
H616 H 0.73985 0.9899 0.29114 0.0
H617 H 0.79215 0.03282 0.1872 0.0
H618 H 0.76908 0.08613 0.23987 0.0
H619 H 0.7666 0.05183 0.20168 0.0
H620 H 0.7725 0.02472 0.3365 0.0
H621 H 0.77602 0.0596 0.37503 0.0
C622 C 0.74494 0.97146 0.23437 0.0
C623 C 0.75682 0.97312 0.19205 0.0
C624 C 0.74989 0.99172 0.25951 0.0
C625 C 0.76655 1.01413 0.24244 0.0
C626 C 0.77909 1.01577 0.201 0.0
C627 C 0.77441 0.99543 0.17624 0.0
C628 C 0.77034 0.07318 0.26155 0.0
C629 C 0.77287 0.07587 0.31075 0.0
C630 C 0.76888 0.05346 0.2395 0.0
C631 C 0.76953 0.03567 0.26603 0.0
C632 C 0.77187 0.03813 0.31517 0.0
C633 C 0.77368 0.05806 0.33725 0.0
H634 H 1.00566 0.77273 0.12337 0.0
H635 H 0.06664 0.7824 0.20223 0.0
H636 H 0.97956 0.74445 0.1816 0.0
H637 H 0.04033 0.75344 0.26027 0.0
H638 H 0.98043 0.71061 0.37178 0.0
H639 H 1.00923 0.74271 0.32147 0.0
H640 H 0.97007 0.70432 0.19849 0.0
H641 H 0.94149 0.67267 0.24841 0.0
C642 C 1.01351 0.76898 0.15343 0.0
C643 C 0.03823 0.7795 0.15768 0.0
C644 C 0.99854 0.75262 0.18665 0.0
C645 C 1.00786 0.74618 0.22488 0.0
C646 C 0.0326 0.75793 0.23108 0.0
C647 C 0.04767 0.77451 0.19779 0.0
C648 C 0.97825 0.70898 0.33394 0.0
C649 C 0.95855 0.6893 0.31401 0.0
C650 C 0.99467 0.72736 0.30518 0.0
C651 C 0.99164 0.72631 0.25604 0.0
C652 C 0.97254 0.70605 0.23626 0.0
C653 C 0.95621 0.68783 0.26484 0.0
H654 H 0.73403 0.78258 0.673 0.0
H655 H 0.6834 0.72211 0.75259 0.0
H656 H 0.76636 0.78472 0.72139 0.0
H657 H 0.71576 0.72373 0.80005 0.0
H658 H 0.78509 0.72583 0.85029 0.0
H659 H 0.75672 0.72194 0.78885 0.0
H660 H 0.7727 0.7932 0.81526 0.0
H661 H 0.80033 0.79682 0.87753 0.0
C662 C 0.72995 0.76941 0.70008 0.0
C663 C 0.70634 0.75211 0.70905 0.0
C664 C 0.74838 0.77067 0.72779 0.0
C665 C 0.74355 0.75433 0.76428 0.0
C666 C 0.72 0.73638 0.7718 0.0
C667 C 0.70152 0.73546 0.74481 0.0
C668 C 0.78291 0.74081 0.84217 0.0
C669 C 0.79496 0.76167 0.8685 0.0
C670 C 0.76658 0.73851 0.80733 0.0
C671 C 0.76256 0.75728 0.79735 0.0
C672 C 0.77559 0.77853 0.82198 0.0
C673 C 0.79138 0.7806 0.85758 0.0
H674 H 0.27184 0.02772 0.89498 0.0
H675 H 0.30142 0.07348 0.77464 0.0
H676 H 0.26684 0.99438 0.84825 0.0
H677 H 0.29504 0.04011 0.72666 0.0
H678 H 0.31371 0.98666 0.67267 0.0
H679 H 0.31281 0.01787 0.71598 0.0
H680 H 0.24988 0.9664 0.7895 0.0
H681 H 0.25211 0.93496 0.74923 0.0
C682 C 0.27633 0.03041 0.85794 0.0
C683 C 0.28696 0.05312 0.83833 0.0
C684 C 0.27354 1.01129 0.83097 0.0
C685 C 0.28098 1.01443 0.78355 0.0
C686 C 0.28985 0.03696 0.7633 0.0
C687 C 0.29315 0.0561 0.79054 0.0
C688 C 0.29985 0.98184 0.69855 0.0
C689 C 0.28311 0.95804 0.70735 0.0
C690 C 0.29901 0.99992 0.72291 0.0
C691 C 0.28112 0.99491 0.75634 0.0
C692 C 0.26411 0.97113 0.76456 0.0
C693 C 0.26518 0.95299 0.74072 0.0
H694 H 0.96583 0.24276 0.76683 0.0
H695 H 1.00767 0.24996 0.89013 0.0
H696 H 1.00191 0.27016 0.72389 0.0
H697 H 0.04372 0.27814 0.84755 0.0
H698 H 0.08607 0.35423 0.76684 0.0
H699 H 0.05239 0.32218 0.80897 0.0
H700 H 0.04602 0.27331 0.70095 0.0
H701 H 0.0803 0.30523 0.65967 0.0
C702 C 0.98281 0.24984 0.78439 0.0
C703 C 0.98398 0.24409 0.83165 0.0
C704 C 1.00341 0.26554 0.75987 0.0
C705 C 1.02552 0.27633 0.78253 0.0
C706 C 0.02684 0.27004 0.82936 0.0
C707 C 1.00628 0.25379 0.85352 0.0
C708 C 0.0775 0.33661 0.75229 0.0
C709 C 0.08568 0.33217 0.71001 0.0
C710 C 0.0584 0.31829 0.77649 0.0
C711 C 0.04675 0.29529 0.75829 0.0
C712 C 0.05478 0.29087 0.71577 0.0
C713 C 0.0743 0.30908 0.69221 0.0
H714 H 0.92325 0.63337 0.59818 0.0
H715 H 0.9139 0.58466 0.48728 0.0
H716 H 0.95057 0.62387 0.63822 0.0
H717 H 0.94162 0.57535 0.52716 0.0
H718 H 1.02001 0.59981 0.57666 0.0
H719 H 0.98629 0.60048 0.54135 0.0
H720 H 0.95446 0.5914 0.67837 0.0
H721 H 0.98771 0.58974 0.71392 0.0
C722 C 0.92668 0.62027 0.58279 0.0
C723 C 0.91649 0.60988 0.53938 0.0
C724 C 0.94231 0.61478 0.60583 0.0
C725 C 0.94845 0.59902 0.58567 0.0
C726 C 0.9374 0.58774 0.54333 0.0
C727 C 0.92137 0.59293 0.52065 0.0
C728 C 1.00564 0.59738 0.59939 0.0
C729 C 1.00687 0.59483 0.64843 0.0
C730 C 0.98626 0.5978 0.57899 0.0
C731 C 0.96768 0.59598 0.60702 0.0
C732 C 0.96861 0.59304 0.65586 0.0
C733 C 0.98784 0.5923 0.67626 0.0
H734 H 0.45223 0.39539 0.70501 0.0
H735 H 0.41182 0.4035 0.59349 0.0
H736 H 0.45044 0.36164 0.66359 0.0
H737 H 0.41073 0.37032 0.55138 0.0
H738 H 0.43829 0.32622 0.47208 0.0
H739 H 0.44582 0.3616 0.51565 0.0
H740 H 0.41071 0.31871 0.63728 0.0
H741 H 0.40248 0.28329 0.5933 0.0
C742 C 0.4431 0.38999 0.67154 0.0
C743 C 0.43202 0.40186 0.65248 0.0
C744 C 0.44212 0.37079 0.64792 0.0
C745 C 0.43064 0.36359 0.6042 0.0
C746 C 0.41988 0.37571 0.58483 0.0
C747 C 0.42034 0.3945 0.60901 0.0
C748 C 0.4328 0.32445 0.5085 0.0
C749 C 0.41999 0.30208 0.52953 0.0
C750 C 0.43688 0.34463 0.53321 0.0
C751 C 0.42878 0.34279 0.5797 0.0
C752 C 0.41723 0.32057 0.60157 0.0
C753 C 0.41258 0.30037 0.57649 0.0
H754 H 0.62793 0.06683 0.656 0.0
H755 H 0.65478 0.02196 0.60923 0.0
H756 H 0.65939 0.09984 0.61259 0.0
H757 H 0.68668 0.05514 0.56726 0.0
H758 H 0.72356 0.11118 0.45368 0.0
H759 H 0.6922 0.079 0.49832 0.0
H760 H 0.70197 0.1271 0.61095 0.0
H761 H 0.7335 0.1595 0.56593 0.0
C762 C 0.64054 0.06397 0.63651 0.0
C763 C 0.63865 0.04159 0.63605 0.0
C764 C 0.65877 0.08302 0.612 0.0
C765 C 0.67561 0.08023 0.58615 0.0
C766 C 0.67389 0.05793 0.5862 0.0
C767 C 0.65571 0.03891 0.61081 0.0
C768 C 0.71923 0.11494 0.48813 0.0
C769 C 0.73136 0.13795 0.5064 0.0
C770 C 0.70119 0.0964 0.51384 0.0
C771 C 0.69463 0.10029 0.55859 0.0
C772 C 0.70641 0.12342 0.57652 0.0
C773 C 0.72455 0.14202 0.55073 0.0
H774 H 0.45262 0.0786 0.21519 0.0
H775 H 0.49625 0.11906 0.09785 0.0
H776 H 0.41767 0.07388 0.17509 0.0
H777 H 0.46105 0.11516 0.05814 0.0
H778 H 0.38906 0.084 0.98176 0.0
H779 H 0.4242 0.08679 0.01945 0.0
H780 H 0.39956 0.09624 0.15421 0.0
H781 H 0.36423 0.09241 0.1171 0.0
C782 C 0.4548 0.0865 0.18072 0.0
C783 C 0.4773 0.09903 0.15961 0.0
C784 C 0.43469 0.084 0.15786 0.0
C785 C 0.43644 0.09415 0.11331 0.0
C786 C 0.45897 0.10683 0.09216 0.0
C787 C 0.47919 0.10929 0.11511 0.0
C788 C 0.391 0.08628 0.01953 0.0
C789 C 0.37383 0.08806 0.04633 0.0
C790 C 0.41131 0.08822 0.04106 0.0
C791 C 0.41484 0.09185 0.0899 0.0
C792 C 0.39742 0.09321 0.11664 0.0
C793 C 0.3772 0.09126 0.09522 0.0
H794 H 1.00206 0.41619 0.11275 0.0
H795 H 0.93816 0.37692 0.19469 0.0
H796 H 0.99195 0.38128 0.06671 0.0
H797 H 0.92769 0.34179 0.14767 0.0
H798 H 0.93816 0.2796 0.10086 0.0
H799 H 0.94285 0.31454 0.14045 0.0
H800 H 0.96527 0.35338 1.00965 0.0
H801 H 0.96054 0.31831 0.96988 0.0
C802 C 0.98561 0.40015 0.12045 0.0
C803 C 0.971 0.39931 0.15766 0.0
C804 C 0.97972 0.38012 0.09375 0.0
C805 C 0.95907 0.35863 0.10358 0.0
C806 C 0.9439 0.35799 0.13956 0.0
C807 C 0.94976 0.37817 0.16623 0.0
C808 C 0.94374 0.29546 0.08027 0.0
C809 C 0.94899 0.29609 0.03208 0.0
C810 C 0.94637 0.31553 0.10304 0.0
C811 C 0.95439 0.3368 0.07829 0.0
C812 C 0.95932 0.33736 0.02994 0.0
C813 C 0.95668 0.31728 1.00714 0.0
H814 H 0.65177 0.541 0.11571 0.0
H815 H 0.66215 0.58748 0.23192 0.0
H816 H 0.68405 0.57387 0.07296 0.0
H817 H 0.69429 0.62003 0.18968 0.0
H818 H 0.7337 0.67904 0.08375 0.0
H819 H 0.70091 0.64544 0.12299 0.0
H820 H 0.7268 0.60028 0.07309 0.0
H821 H 0.75914 0.63374 0.03237 0.0
C822 C 0.66098 0.55815 0.13227 0.0
C823 C 0.65413 0.56157 0.17711 0.0
C824 C 0.67955 0.57701 0.1078 0.0
C825 C 0.6917 0.59974 0.12759 0.0
C826 C 0.68506 0.60297 0.17279 0.0
C827 C 0.6666 0.58419 0.19716 0.0
C828 C 0.73228 0.66191 0.0806 0.0
C829 C 0.7492 0.65921 0.05491 0.0
C830 C 0.71358 0.64264 0.10362 0.0
C831 C 0.71122 0.62008 0.10157 0.0
C832 C 0.72792 0.6173 0.07525 0.0
C833 C 0.74666 0.63659 0.05232 0.0
H834 H 0.59274 0.96131 0.85236 0.0
H835 H 0.59528 0.90409 0.7831 0.0
H836 H 0.61828 0.96063 0.91527 0.0
H837 H 0.62052 0.90334 0.84558 0.0
H838 H 0.65115 0.89523 0.98167 0.0
H839 H 0.62076 0.89478 0.93087 0.0
H840 H 0.66132 0.9706 0.91966 0.0
H841 H 0.6921 0.97111 0.96985 0.0
C842 C 0.59834 0.9483 0.85105 0.0
C843 C 0.59202 0.93276 0.81275 0.0
C844 C 0.61313 0.94805 0.88681 0.0
C845 C 0.62149 0.93197 0.88537 0.0
C846 C 0.61425 0.9158 0.84806 0.0
C847 C 0.59984 0.91629 0.81212 0.0
C848 C 0.65367 0.91185 0.96842 0.0
C849 C 0.67434 0.93318 0.97942 0.0
C850 C 0.63617 0.91157 0.93942 0.0
C851 C 0.63869 0.93262 0.92088 0.0
C852 C 0.65874 0.95408 0.93369 0.0
C853 C 0.67639 0.95436 0.96252 0.0
H854 H 0.10131 0.6348 0.86591 0.0
H855 H 0.11607 0.68867 0.76187 0.0
H856 H 0.10229 0.66141 0.92781 0.0
H857 H 0.11626 0.7145 0.82232 0.0
H858 H 0.13524 0.76527 0.93741 0.0
H859 H 0.13857 0.73784 0.88607 0.0
H860 H 0.07943 0.67964 0.95636 0.0
H861 H 0.07711 0.70727 1.01079 0.0
C862 C 0.10501 0.65233 0.85632 0.0
C863 C 0.10862 0.6596 0.80894 0.0
C864 C 0.10531 0.66748 0.89165 0.0
C865 C 0.10942 0.69019 0.8802 0.0
C866 C 0.11348 0.6974 0.83285 0.0
C867 C 0.11318 0.68242 0.79793 0.0
C868 C 0.12325 0.74664 0.94312 0.0
C869 C 0.10593 0.73866 0.97876 0.0
C870 C 0.12495 0.73083 0.91292 0.0
C871 C 0.10908 0.70646 0.91649 0.0
C872 C 0.09205 0.69827 0.9527 0.0
C873 C 0.0905 0.71418 0.9835 0.0
H874 H 0.28166 0.39739 0.9979 0.0
H875 H 0.32303 0.36258 1.00007 0.0
H876 H 0.31136 0.42847 0.94808 0.0
H877 H 0.35271 0.39352 0.94929 0.0
H878 H 0.40706 0.45841 0.86831 0.0
H879 H 0.38289 0.43525 0.93528 0.0
H880 H 0.32032 0.42761 0.86606 0.0
H881 H 0.34428 0.45077 0.80006 0.0
C882 C 0.29732 0.3966 0.98821 0.0
C883 C 0.29989 0.37741 1.00228 0.0
C884 C 0.3143 0.41435 0.95952 0.0
C885 C 0.3342 0.41327 0.94388 0.0
C886 C 0.33765 0.39497 0.96081 0.0
C887 C 0.32066 0.37722 0.98987 0.0
C888 C 0.3882 0.45211 0.86786 0.0
C889 C 0.37757 0.45631 0.82866 0.0
C890 C 0.37434 0.43871 0.90609 0.0
C891 C 0.34964 0.42952 0.90609 0.0
C892 C 0.3393 0.43464 0.86769 0.0
C893 C 0.35305 0.44782 0.82955 0.0
H894 H 0.08466 0.47173 0.33834 0.0
H895 H 0.03549 0.39968 0.37828 0.0
H896 H 0.1148 0.47149 0.38899 0.0
H897 H 0.06598 0.39935 0.4279 0.0
H898 H 0.13261 0.40416 0.49554 0.0
H899 H 0.10777 0.40372 0.42999 0.0
H900 H 0.11553 0.46962 0.47821 0.0
H901 H 0.13991 0.46991 0.54363 0.0
C902 C 0.08032 0.45574 0.35746 0.0
C903 C 0.05745 0.43586 0.35472 0.0
C904 C 0.09766 0.4556 0.38631 0.0
C905 C 0.09268 0.43548 0.41272 0.0
C906 C 0.07039 0.41507 0.40768 0.0
C907 C 0.05292 0.41527 0.37912 0.0
C908 C 0.12936 0.41875 0.49152 0.0
C909 C 0.13814 0.43705 0.52475 0.0
C910 C 0.11502 0.4184 0.45425 0.0
C911 C 0.10969 0.43662 0.44902 0.0
C912 C 0.11949 0.45545 0.48101 0.0
C913 C 0.13338 0.45556 0.5186 0.0
H914 H 0.63309 0.73936 0.42728 0.0
H915 H 0.60714 0.69903 0.55556 0.0
H916 H 0.62736 0.70438 0.38618 0.0
H917 H 0.60069 0.66374 0.51418 0.0
H918 H 0.62844 0.61866 0.44452 0.0
H919 H 0.62744 0.65117 0.48351 0.0
H920 H 0.60016 0.66543 0.35652 0.0
H921 H 0.60118 0.63282 0.31742 0.0
C922 C 0.6255 0.72283 0.44642 0.0
C923 C 0.62053 0.722 0.49474 0.0
C924 C 0.62215 0.70273 0.42279 0.0
C925 C 0.61383 0.68127 0.44695 0.0
C926 C 0.60749 0.68009 0.49467 0.0
C927 C 0.61078 0.70025 0.5183 0.0
C928 C 0.62207 0.62862 0.42496 0.0
C929 C 0.61494 0.62313 0.37777 0.0
C930 C 0.62136 0.6472 0.44744 0.0
C931 C 0.6135 0.66082 0.42334 0.0
C932 C 0.60648 0.65542 0.37604 0.0
C933 C 0.6072 0.63681 0.35353 0.0
H934 H 0.3212 0.90944 0.48693 0.0
H935 H 0.38365 0.92599 0.5686 0.0
H936 H 0.34649 0.93442 0.42282 0.0
H937 H 0.4086 0.95113 0.50581 0.0
H938 H 0.4511 0.9835 0.37858 0.0
H939 H 0.42234 0.95166 0.42821 0.0
H940 H 0.37269 0.97642 0.40704 0.0
H941 H 0.40145 1.00794 0.35582 0.0
C942 C 0.34027 0.91816 0.49103 0.0
C943 C 0.3504 0.91579 0.533 0.0
C944 C 0.35475 0.93262 0.45446 0.0
C945 C 0.3796 0.94482 0.45907 0.0
C946 C 0.38958 0.94175 0.50053 0.0
C947 C 0.37521 0.92742 0.53686 0.0
C948 C 0.43391 0.98193 0.38413 0.0
C949 C 0.42858 0.99834 0.36404 0.0
C950 C 0.41745 0.96375 0.41267 0.0
C951 C 0.39534 0.96171 0.42243 0.0
C952 C 0.38949 0.97738 0.40012 0.0
C953 C 0.40595 0.99548 0.37097 0.0
H954 H 0.2159 0.40095 0.44962 0.0
H955 H 0.16106 0.32853 0.46723 0.0
H956 H 0.22748 0.39079 0.37495 0.0
H957 H 0.172 0.31837 0.39285 0.0
H958 H 0.20153 0.30207 0.26531 0.0
H959 H 0.19978 0.31343 0.34634 0.0
H960 H 0.21051 0.38052 0.29711 0.0
H961 H 0.21312 0.36953 0.21672 0.0
C962 C 0.20671 0.38279 0.43809 0.0
C963 C 0.18749 0.36558 0.46417 0.0
C964 C 0.2131 0.37696 0.39501 0.0
C965 C 0.20053 0.35374 0.37731 0.0
C966 C 0.18229 0.33636 0.40514 0.0
C967 C 0.17587 0.34221 0.44779 0.0
C968 C 0.20394 0.31939 0.27181 0.0
C969 C 0.20713 0.33469 0.2341 0.0
C970 C 0.20274 0.32587 0.31837 0.0
C971 C 0.2048 0.34788 0.32858 0.0
C972 C 0.20903 0.36353 0.29099 0.0
C973 C 0.21017 0.35704 0.24456 0.0
H974 H 0.71241 0.86084 0.49283 0.0
H975 H 0.64972 0.80005 0.4393 0.0
H976 H 0.72299 0.87679 0.41312 0.0
H977 H 0.6604 0.81557 0.35979 0.0
H978 H 0.67334 0.85771 0.22648 0.0
H979 H 0.66315 0.84446 0.3073 0.0
H980 H 0.7373 0.87216 0.33922 0.0
H981 H 0.74749 0.88601 0.2578 0.0
C982 C 0.70087 0.85087 0.46405 0.0
C983 C 0.68011 0.8292 0.47273 0.0
C984 C 0.70701 0.85996 0.41818 0.0
C985 C 0.69264 0.84756 0.37953 0.0
C986 C 0.67176 0.82597 0.38843 0.0
C987 C 0.66555 0.817 0.43428 0.0
C988 C 0.68751 0.86086 0.25056 0.0
C989 C 0.71124 0.87268 0.23531 0.0
C990 C 0.68164 0.85319 0.29716 0.0
C991 C 0.69929 0.85688 0.33017 0.0
C992 C 0.72316 0.86913 0.31516 0.0
C993 C 0.72905 0.87703 0.26838 0.0
H994 H 0.1594 0.79576 0.24988 0.0
H995 H 0.16669 0.86473 0.23634 0.0
H996 H 0.18434 0.80844 0.31949 0.0
H997 H 0.19231 0.87767 0.30615 0.0
H998 H 0.25632 0.89789 0.40325 0.0
H999 H 0.23147 0.88526 0.33383 0.0
H1000 H 0.18362 0.81947 0.40245 0.0
H1001 H 0.2085 0.83246 0.47335 0.0
C1002 C 0.16623 0.81367 0.2618 0.0
C1003 C 0.16061 0.82909 0.23754 0.0
C1004 C 0.18057 0.82092 0.30199 0.0
C1005 C 0.19013 0.84397 0.31909 0.0
C1006 C 0.18529 0.85975 0.29398 0.0
C1007 C 0.17068 0.8524 0.25376 0.0
C1008 C 0.24035 0.88084 0.40427 0.0
C1009 C 0.2343 0.86642 0.44481 0.0
C1010 C 0.22606 0.87358 0.36405 0.0
C1011 C 0.20532 0.85149 0.36246 0.0
C1012 C 0.19952 0.83664 0.40231 0.0
C1013 C 0.21381 0.84403 0.44301 0.0
H1014 H 0.82798 0.65799 0.81894 0.0
H1015 H 0.87303 0.73205 0.78998 0.0
H1016 H 0.83777 0.64828 0.74272 0.0
H1017 H 0.88341 0.72243 0.71346 0.0
H1018 H 0.86571 0.69639 0.55939 0.0
H1019 H 0.8622 0.70712 0.63953 0.0
H1020 H 0.86725 0.64785 0.69204 0.0
H1021 H 0.87087 0.63713 0.61152 0.0
C1022 C 0.84044 0.67219 0.79652 0.0
C1023 C 0.84961 0.69578 0.8103 0.0
C1024 C 0.84616 0.66664 0.75284 0.0
C1025 C 0.86118 0.68454 0.7215 0.0
C1026 C 0.87147 0.70818 0.73639 0.0
C1027 C 0.86582 0.71374 0.78045 0.0
C1028 C 0.8663 0.68572 0.58793 0.0
C1029 C 0.86854 0.66582 0.57869 0.0
C1030 C 0.8644 0.69198 0.63408 0.0
C1031 C 0.86463 0.67851 0.6725 0.0
C1032 C 0.86682 0.65856 0.66336 0.0
C1033 C 0.86876 0.6523 0.61709 0.0
H1034 H 0.37004 0.18963 0.8263 0.0
H1035 H 0.30889 0.12661 0.77445 0.0
H1036 H 0.38148 0.20367 0.74657 0.0
H1037 H 0.31945 0.14153 0.69435 0.0
H1038 H 0.35721 0.16159 0.55287 0.0
H1039 H 0.34585 0.14769 0.63342 0.0
H1040 H 0.37476 0.21972 0.67976 0.0
H1041 H 0.38688 0.23345 0.59921 0.0
C1042 C 0.35885 0.17873 0.79802 0.0
C1043 C 0.3386 0.1567 0.80744 0.0
C1044 C 0.3653 0.18704 0.75187 0.0
C1045 C 0.35158 0.17381 0.71331 0.0
C1046 C 0.33086 0.15211 0.72275 0.0
C1047 C 0.32452 0.14365 0.76904 0.0
C1048 C 0.36122 0.17443 0.58039 0.0
C1049 C 0.37303 0.19864 0.56959 0.0
C1050 C 0.35451 0.16646 0.62671 0.0
C1051 C 0.35909 0.18244 0.6637 0.0
C1052 C 0.37116 0.20675 0.65277 0.0
C1053 C 0.37817 0.21472 0.60645 0.0
H1054 H 0.85939 0.15566 0.54144 0.0
H1055 H 0.81631 0.18593 0.58089 0.0
H1056 H 0.87354 0.15967 0.62198 0.0
H1057 H 0.83036 0.18973 0.66164 0.0
H1058 H 0.84215 0.17201 0.8108 0.0
H1059 H 0.82777 0.16622 0.73018 0.0
H1060 H 0.89856 0.18953 0.67947 0.0
H1061 H 0.91304 0.19549 0.76055 0.0
C1062 C 0.85301 0.16334 0.56703 0.0
C1063 C 0.83669 0.17056 0.55407 0.0
C1064 C 0.86117 0.16563 0.61345 0.0
C1065 C 0.85318 0.17507 0.64851 0.0
C1066 C 0.8367 0.18208 0.63578 0.0
C1067 C 0.82859 0.17988 0.58927 0.0
C1068 C 0.85473 0.17599 0.78257 0.0
C1069 C 0.87886 0.18443 0.79244 0.0
C1070 C 0.84645 0.1727 0.73618 0.0
C1071 C 0.86199 0.17764 0.69808 0.0
C1072 C 0.88601 0.18537 0.70787 0.0
C1073 C 0.89434 0.18873 0.75444 0.0
H1074 H 0.5015 0.99343 0.12364 0.0
H1075 H 0.52294 0.06461 0.07974 0.0
H1076 H 0.50673 0.98389 0.04401 0.0
H1077 H 0.5268 0.05456 0.99948 0.0
H1078 H 0.56563 0.03873 0.88254 0.0
H1079 H 0.55341 0.04802 0.95607 0.0
H1080 H 0.49431 0.97676 0.96407 0.0
H1081 H 0.50745 0.96729 0.89059 0.0
C1082 C 0.5072 1.00712 0.09726 0.0
C1083 C 0.51224 0.03005 0.1092 0.0
C1084 C 0.50983 1.00144 0.05099 0.0
C1085 C 0.51738 0.01843 0.01488 0.0
C1086 C 0.5214 0.04105 0.02631 0.0
C1087 C 0.51896 0.0468 0.07268 0.0
C1088 C 0.54985 0.0251 0.8997 0.0
C1089 C 0.5377 1.0022 0.88097 0.0
C1090 C 0.54266 0.03048 0.94186 0.0
C1091 C 0.52292 1.01315 0.96671 0.0
C1092 C 0.50985 0.99051 0.9465 0.0
C1093 C 0.51714 0.98511 0.90402 0.0
H1094 H 1.01822 0.51457 0.86342 0.0
H1095 H 0.0814 0.57492 0.91713 0.0
H1096 H 1.00534 0.50076 0.94319 0.0
H1097 H 0.06836 0.56106 0.99743 0.0
H1098 H 1.0265 0.54016 0.13627 0.0
H1099 H 0.03865 0.55474 0.05644 0.0
H1100 H 1.01523 0.48388 1.00928 0.0
H1101 H 1.0032 0.46926 0.08928 0.0
C1102 C 0.02953 0.52487 0.89214 0.0
C1103 C 0.05108 0.54582 0.88335 0.0
C1104 C 1.02208 0.51689 0.93814 0.0
C1105 C 0.03584 0.52961 0.97704 0.0
C1106 C 0.05715 0.55085 0.96845 0.0
C1107 C 0.06466 0.55884 0.92226 0.0
C1108 C 1.02401 0.52761 0.1091 0.0
C1109 C 1.01383 0.50342 0.11973 0.0
C1110 C 0.03105 0.53605 0.06311 0.0
C1111 C 0.02805 0.52058 0.02616 0.0
C1112 C 1.01757 0.49635 0.03658 0.0
C1113 C 1.01059 0.48791 0.08264 0.0
H1114 H 0.45945 0.47498 0.95373 0.0
H1115 H 0.5211 0.52878 0.88159 0.0
H1116 H 0.48025 0.48703 0.02834 0.0
H1117 H 0.54228 0.5414 0.95748 0.0
H1118 H 0.57745 0.53391 0.09886 0.0
H1119 H 0.55877 0.52607 0.0209 0.0
H1120 H 0.4953 0.51921 0.08344 0.0
H1121 H 0.51335 0.52613 0.16055 0.0
C1122 C 0.4775 0.48958 0.95397 0.0
C1123 C 0.48866 0.50086 0.9117 0.0
C1124 C 0.48943 0.49663 0.9969 0.0
C1125 C 0.51301 0.51522 0.99919 0.0
C1126 C 0.52419 0.52689 0.95698 0.0
C1127 C 0.51204 0.51989 0.91365 0.0
C1128 C 0.55948 0.53063 0.09597 0.0
C1129 C 0.54699 0.53062 0.13643 0.0
C1130 C 0.54887 0.52642 0.05115 0.0
C1131 C 0.52546 0.5219 0.04576 0.0
C1132 C 0.51324 0.52234 0.08612 0.0
C1133 C 0.52377 0.52656 0.13059 0.0
H1134 H 0.21716 0.21084 0.06758 0.0
H1135 H 0.21901 0.2182 0.91625 0.0
H1136 H 0.22598 0.17915 0.05997 0.0
H1137 H 0.22937 0.18748 0.9089 0.0
H1138 H 0.24006 0.12303 0.90886 0.0
H1139 H 0.22086 0.14716 0.91559 0.0
H1140 H 0.26061 0.17836 0.04274 0.0
H1141 H 0.27874 0.15433 0.03695 0.0
C1142 C 0.21917 0.20565 0.0326 0.0
C1143 C 0.21777 0.21766 0.99267 0.0
C1144 C 0.22457 0.18754 0.02819 0.0
C1145 C 0.22903 0.18099 0.98379 0.0
C1146 C 0.22614 0.19194 0.94369 0.0
C1147 C 0.22049 0.20991 0.94805 0.0
C1148 C 0.24436 0.13485 0.93845 0.0
C1149 C 0.26103 0.13668 0.97219 0.0
C1150 C 0.23349 0.1488 0.94226 0.0
C1151 C 0.23896 0.16471 0.98003 0.0
C1152 C 0.25535 0.16605 0.01379 0.0
C1153 C 0.26606 0.1523 1.01003 0.0
H1154 H 0.89705 0.12652 0.89448 0.0
H1155 H 0.90769 0.13408 0.04457 0.0
H1156 H 0.87154 0.08373 0.90462 0.0
H1157 H 0.88319 0.09172 0.05482 0.0
H1158 H 0.81335 0.02247 0.06497 0.0
H1159 H 0.84243 0.06387 0.05268 0.0
H1160 H 0.86665 0.04605 0.92623 0.0
H1161 H 0.83726 1.00462 0.93835 0.0
C1162 C 0.89455 0.11895 0.9294 0.0
C1163 C 0.9043 0.13363 0.96872 0.0
C1164 C 0.87985 0.09443 0.93538 0.0
C1165 C 0.87478 0.08415 0.98077 0.0
C1166 C 0.88595 0.09889 0.01951 0.0
C1167 C 0.9003 0.12322 0.01358 0.0
C1168 C 0.82505 0.0273 0.03489 0.0
C1169 C 0.82283 1.01008 1.00272 0.0
C1170 C 0.84184 0.05114 0.02774 0.0
C1171 C 0.85711 0.05852 0.9884 0.0
C1172 C 0.85506 0.04122 0.95652 0.0
C1173 C 0.83818 0.01738 0.96357 0.0
H1174 H 1.02516 0.81796 0.0578 0.0
H1175 H 0.03643 0.82351 0.90762 0.0
H1176 H 0.9843 0.80767 0.04579 0.0
H1177 H 0.99539 0.81372 0.89539 0.0
H1178 H 0.9127 0.76473 0.89349 0.0
H1179 H 0.95584 0.7822 0.89787 0.0
H1180 H 0.95677 0.81865 0.02499 0.0
H1181 H 0.91375 0.80024 0.02133 0.0
C1182 C 1.01918 0.81756 0.02212 0.0
C1183 C 0.03441 0.82153 0.98376 0.0
C1184 C 0.99548 0.81164 0.01509 0.0
C1185 C 0.9861 0.80971 0.96944 0.0
C1186 C 1.00158 0.81454 0.93108 0.0
C1187 C 1.02529 0.82031 0.93813 0.0
C1188 C 0.92229 0.77711 0.92138 0.0
C1189 C 0.90985 0.78139 0.95666 0.0
C1190 C 0.94712 0.7871 0.92419 0.0
C1191 C 0.96013 0.80167 0.96236 0.0
C1192 C 0.9476 0.80709 0.99575 0.0
C1193 C 0.92288 0.79688 0.99322 0.0
H1194 H 0.78583 0.88178 0.14223 0.0
H1195 H 0.81391 0.91187 1.00617 0.0
H1196 H 0.80463 0.85751 0.13661 0.0
H1197 H 0.83371 0.88877 1.00113 0.0
H1198 H 0.83151 0.81892 0.97335 0.0
H1199 H 0.8217 0.84964 0.98512 0.0
H1200 H 0.83751 0.85142 0.1333 0.0
H1201 H 0.84678 0.82002 0.12144 0.0
C1202 C 0.79691 0.88395 0.11209 0.0
C1203 C 0.79858 0.89881 0.07481 0.0
C1204 C 0.80765 0.86995 0.10862 0.0
C1205 C 0.82042 0.87069 0.06788 0.0
C1206 C 0.82351 0.88706 0.03242 0.0
C1207 C 0.81249 0.90066 0.03559 0.0
C1208 C 0.83338 0.82609 1.00832 0.0
C1209 C 0.83979 0.81669 0.04645 0.0
C1210 C 0.82776 0.84391 0.01519 0.0
C1211 C 0.82863 0.85318 0.06036 0.0
C1212 C 0.83613 0.84453 0.09817 0.0
C1213 C 0.84158 0.82654 0.09131 0.0
H1214 H 0.21296 1.00835 0.96283 0.0
H1215 H 0.23089 1.01431 0.11032 0.0
H1216 H 0.18301 0.96711 0.97486 0.0
H1217 H 0.20124 0.97306 0.12229 0.0
H1218 H 0.13498 0.89937 0.13606 0.0
H1219 H 0.15979 0.94239 0.12531 0.0
H1220 H 0.18153 0.93111 0.98896 0.0
H1221 H 0.15681 0.88917 0.99901 0.0
C1222 C 0.21066 1.00089 0.99777 0.0
C1223 C 0.22456 1.01485 0.03541 0.0
C1224 C 0.19339 0.97714 1.00482 0.0
C1225 C 0.18958 0.96647 0.04968 0.0
C1226 C 0.20324 0.98057 0.08744 0.0
C1227 C 0.22042 1.00434 0.08043 0.0
C1228 C 0.14478 0.90622 0.10359 0.0
C1229 C 0.14392 0.89069 0.06862 0.0
C1230 C 0.15919 0.93087 0.09749 0.0
C1231 C 0.17282 0.94046 0.0561 0.0
C1232 C 0.17118 0.92474 0.02093 0.0
C1233 C 0.15704 0.90043 0.02705 0.0
H1234 H 0.13411 0.24566 0.12754 0.0
H1235 H 0.14033 0.25466 0.97679 0.0
H1236 H 0.09103 0.22927 0.121 0.0
H1237 H 0.09809 0.23923 0.97024 0.0
H1238 H 1.01882 0.19994 0.96377 0.0
H1239 H 0.05915 0.20733 0.97479 0.0
H1240 H 0.06456 0.24392 0.10442 0.0
H1241 H 1.02424 0.23613 0.09373 0.0
C1242 C 0.12625 0.24368 0.09304 0.0
C1243 C 0.14066 0.25156 0.05276 0.0
C1244 C 0.10161 0.23459 0.08922 0.0
C1245 C 0.09092 0.23307 0.04504 0.0
C1246 C 0.10537 0.23978 1.0048 0.0
C1247 C 0.12978 0.24884 1.00863 0.0
C1248 C 0.02863 0.20957 0.99456 0.0
C1249 C 1.0182 0.21748 0.02769 0.0
C1250 C 0.0518 0.2138 1.00103 0.0
C1251 C 0.06533 0.22629 0.04059 0.0
C1252 C 0.0547 0.23386 0.07403 0.0
C1253 C 0.0315 0.22948 0.06772 0.0
H1254 H 0.87234 0.54184 0.27157 0.0
H1255 H 0.90398 0.55357 0.40981 0.0
H1256 H 0.88557 0.51394 0.25455 0.0
H1257 H 0.91828 0.5267 0.39175 0.0
H1258 H 0.92335 0.46238 0.37032 0.0
H1259 H 0.9049 0.48629 0.38272 0.0
H1260 H 0.91921 0.50963 0.2379 0.0
H1261 H 0.93694 0.48468 0.22533 0.0
C1262 C 0.8821 0.53857 0.29849 0.0
C1263 C 0.88679 0.55002 0.34243 0.0
C1264 C 0.88996 0.52266 0.28838 0.0
C1265 C 0.90284 0.51773 0.32181 0.0
C1266 C 0.90795 0.52953 0.36535 0.0
C1267 C 0.9 0.54533 0.37556 0.0
C1268 C 0.92194 0.47213 0.34078 0.0
C1269 C 0.93141 0.47156 0.2968 0.0
C1270 C 0.9117 0.48617 0.34805 0.0
C1271 C 0.91104 0.50049 0.31174 0.0
C1272 C 0.9193 0.49885 0.26676 0.0
C1273 C 0.92934 0.48444 0.25934 0.0
H1274 H 0.58208 0.45465 0.2666 0.0
H1275 H 0.52315 0.46287 0.30991 0.0
H1276 H 0.55769 0.41179 0.28005 0.0
H1277 H 0.49921 0.42082 0.32306 0.0
H1278 H 0.47092 0.35117 0.39688 0.0
H1279 H 0.49829 0.39282 0.38113 0.0
H1280 H 0.52126 0.37463 0.25364 0.0
H1281 H 0.49425 0.33287 0.27001 0.0
C1282 C 0.56388 0.44733 0.27808 0.0
C1283 C 0.55468 0.46226 0.28752 0.0
C1284 C 0.54993 0.42281 0.28606 0.0
C1285 C 0.52661 0.41287 0.30381 0.0
C1286 C 0.51725 0.42781 0.31083 0.0
C1287 C 0.53101 0.45202 0.30282 0.0
C1288 C 0.48204 0.35596 0.3659 0.0
C1289 C 0.48009 0.33854 0.33455 0.0
C1290 C 0.49761 0.37991 0.35654 0.0
C1291 C 0.51181 0.38719 0.31567 0.0
C1292 C 0.51065 0.36974 0.28538 0.0
C1293 C 0.49494 0.34576 0.2946 0.0
H1294 H 0.5882 0.09027 0.20497 0.0
H1295 H 0.58663 0.1382 0.30617 0.0
H1296 H 0.63089 0.10759 0.21713 0.0
H1297 H 0.62941 0.15566 0.31877 0.0
H1298 H 0.69486 0.15286 0.37759 0.0
H1299 H 0.65383 0.14084 0.35722 0.0
H1300 H 0.67056 0.1428 0.2098 0.0
H1301 H 0.71132 0.15436 0.23016 0.0
C1302 C 0.59726 0.10526 0.22824 0.0
C1303 C 0.5843 0.1134 0.25353 0.0
C1304 C 0.62168 0.11506 0.23564 0.0
C1305 C 0.63361 0.13289 0.26933 0.0
C1306 C 0.62077 0.14179 0.29296 0.0
C1307 C 0.59637 0.13213 0.28511 0.0
C1308 C 0.68975 0.1506 0.34089 0.0
C1309 C 0.70648 0.15463 0.30559 0.0
C1310 C 0.66629 0.144 0.32912 0.0
C1311 C 0.65888 0.14101 0.28177 0.0
C1312 C 0.67559 0.14488 0.24658 0.0
C1313 C 0.69905 0.15168 0.2583 0.0
H1314 H 0.5143 0.15484 0.42187 0.0
H1315 H 0.47977 0.14031 0.28624 0.0
H1316 H 0.50078 0.18258 0.43872 0.0
H1317 H 0.46529 0.16705 0.30414 0.0
H1318 H 0.46036 0.23169 0.32264 0.0
H1319 H 0.4786 0.20758 0.31048 0.0
H1320 H 0.46724 0.18707 0.45706 0.0
H1321 H 0.44965 0.21221 0.46929 0.0
C1322 C 0.50383 0.15745 0.39551 0.0
C1323 C 0.49843 0.14528 0.3523 0.0
C1324 C 0.49582 0.17328 0.40553 0.0
C1325 C 0.48211 0.17743 0.37272 0.0
C1326 C 0.47627 0.16485 0.33001 0.0
C1327 C 0.48433 0.14912 0.31991 0.0
C1328 C 0.46236 0.22252 0.35258 0.0
C1329 C 0.45377 0.22398 0.39698 0.0
C1330 C 0.47248 0.20835 0.34547 0.0
C1331 C 0.47392 0.19476 0.38241 0.0
C1332 C 0.46652 0.19726 0.42769 0.0
C1333 C 0.45657 0.21179 0.43491 0.0
H1334 H 0.83591 0.2451 0.46244 0.0
H1335 H 0.8142 0.23888 0.31751 0.0
H1336 H 0.86227 0.28761 0.45147 0.0
H1337 H 0.83961 0.28123 0.30655 0.0
H1338 H 0.91116 0.34854 0.28431 0.0
H1339 H 0.88039 0.30777 0.29788 0.0
H1340 H 0.86858 0.32612 0.4371 0.0
H1341 H 0.89963 0.36675 0.42362 0.0
C1342 C 0.83605 0.25302 0.42882 0.0
C1343 C 0.8228 0.23879 0.39102 0.0
C1344 C 0.85128 0.2774 0.42227 0.0
C1345 C 0.85352 0.28803 0.37774 0.0
C1346 C 0.83897 0.27379 0.34096 0.0
C1347 C 0.82404 0.24952 0.34742 0.0
C1348 C 0.9018 0.34395 0.31755 0.0
C1349 C 0.90807 0.36101 0.35287 0.0
C1350 C 0.88403 0.32048 0.32545 0.0
C1351 C 0.87181 0.31339 0.36878 0.0
C1352 C 0.87776 0.33064 0.40365 0.0
C1353 C 0.89562 0.35405 0.39584 0.0
H1354 H 0.69317 0.55266 0.30564 0.0
H1355 H 0.67265 0.53471 0.4509 0.0
H1356 H 0.73425 0.56541 0.3266 0.0
H1357 H 0.7136 0.54706 0.47173 0.0
H1358 H 0.79568 0.60027 0.49141 0.0
H1359 H 0.75303 0.58324 0.47718 0.0
H1360 H 0.7588 0.54866 0.35302 0.0
H1361 H 0.80125 0.56573 0.36749 0.0
C1362 C 0.6974 0.5515 0.34205 0.0
C1363 C 0.67948 0.54255 0.37645 0.0
C1364 C 0.72093 0.55855 0.35405 0.0
C1365 C 0.72728 0.55707 0.40088 0.0
C1366 C 0.70943 0.54849 0.43539 0.0
C1367 C 0.68587 0.54123 0.42332 0.0
C1368 C 0.78755 0.58821 0.4623 0.0
C1369 C 0.80161 0.58379 0.43127 0.0
C1370 C 0.76317 0.57863 0.45378 0.0
C1371 C 0.75247 0.56481 0.41352 0.0
C1372 C 0.76645 0.5595 0.38391 0.0
C1373 C 0.79071 0.56893 0.39265 0.0
H1374 H 0.57842 0.79314 0.56201 0.0
H1375 H 0.6196 0.83038 0.68405 0.0
H1376 H 0.5575 0.81576 0.56645 0.0
H1377 H 0.59939 0.85263 0.68797 0.0
H1378 H 0.5502 0.8782 0.71498 0.0
H1379 H 0.56174 0.84852 0.7074 0.0
H1380 H 0.56477 0.85674 0.55642 0.0
H1381 H 0.55207 0.88588 0.56368 0.0
C1382 C 0.58296 0.806 0.58972 0.0
C1383 C 0.60073 0.80984 0.6226 0.0
C1384 C 0.57105 0.81901 0.59223 0.0
C1385 C 0.57649 0.83587 0.62802 0.0
C1386 C 0.59421 0.83949 0.66063 0.0
C1387 C 0.60606 0.82676 0.65798 0.0
C1388 C 0.55265 0.87342 0.67995 0.0
C1389 C 0.55058 0.88507 0.64003 0.0
C1390 C 0.55959 0.85644 0.67563 0.0
C1391 C 0.56481 0.85057 0.63133 0.0
C1392 C 0.56103 0.86084 0.59112 0.0
C1393 C 0.55397 0.87781 0.59541 0.0
H1394 H 0.2369 0.79691 0.54055 0.0
H1395 H 0.25926 0.80215 0.68485 0.0
H1396 H 0.21185 0.75406 0.54967 0.0
H1397 H 0.23508 0.75955 0.69395 0.0
H1398 H 0.164 0.69119 0.71452 0.0
H1399 H 0.19429 0.73224 0.70236 0.0
H1400 H 0.2069 0.71564 0.56223 0.0
H1401 H 0.17637 0.6746 0.57442 0.0
C1402 C 0.23722 0.78876 0.57357 0.0
C1403 C 0.25027 0.8028 0.61178 0.0
C1404 C 0.22273 0.76418 0.57907 0.0
C1405 C 0.22098 0.75316 0.62294 0.0
C1406 C 0.23537 0.76726 0.66003 0.0
C1407 C 0.24959 0.7917 0.65461 0.0
C1408 C 0.17351 0.69617 0.68145 0.0
C1409 C 0.16759 0.67945 0.64551 0.0
C1410 C 0.19099 0.71982 0.67433 0.0
C1411 C 0.20323 0.72753 0.63113 0.0
C1412 C 0.1977 0.71063 0.59565 0.0
C1413 C 0.18017 0.68699 0.60273 0.0
H1414 H 0.24884 0.43189 0.69301 0.0
H1415 H 0.25279 0.46142 0.555 0.0
H1416 H 0.29145 0.45184 0.69747 0.0
H1417 H 0.29647 0.48223 0.55989 0.0
H1418 H 0.37141 0.48662 0.56906 0.0
H1419 H 0.3297 0.47436 0.55995 0.0
H1420 H 0.32621 0.48898 0.70666 0.0
H1421 H 0.3674 0.5002 0.71659 0.0
C1422 C 0.25883 0.44288 0.66352 0.0
C1423 C 0.24717 0.44487 0.62346 0.0
C1424 C 0.28351 0.45464 0.66639 0.0
C1425 C 0.2977 0.46895 0.62932 0.0
C1426 C 0.28617 0.47131 0.58916 0.0
C1427 C 0.26114 0.45951 0.5864 0.0
C1428 C 0.36193 0.48731 0.5996 0.0
C1429 C 0.37313 0.4938 0.64407 0.0
C1430 C 0.33787 0.48049 0.59408 0.0
C1431 C 0.32423 0.48008 0.63273 0.0
C1432 C 0.33586 0.48836 0.67623 0.0
C1433 C 0.35981 0.49506 0.68185 0.0
H1434 H 0.12747 0.55512 0.78922 0.0
H1435 H 0.16105 0.58579 0.65692 0.0
H1436 H 0.14455 0.52928 0.78742 0.0
H1437 H 0.17929 0.56118 0.65591 0.0
H1438 H 0.17546 0.49066 0.62972 0.0
H1439 H 0.16695 0.52233 0.63914 0.0
H1440 H 0.17542 0.52051 0.78969 0.0
H1441 H 0.18322 0.48799 0.7801 0.0
C1442 C 0.13942 0.55708 0.76086 0.0
C1443 C 0.14312 0.57261 0.72344 0.0
C1444 C 0.14918 0.54216 0.75956 0.0
C1445 C 0.16305 0.5426 0.72094 0.0
C1446 C 0.16818 0.55962 0.68554 0.0
C1447 C 0.15808 0.57412 0.68647 0.0
C1448 C 0.17594 0.49715 0.66485 0.0
C1449 C 0.17985 0.48639 0.70413 0.0
C1450 C 0.1711 0.51559 0.67037 0.0
C1451 C 0.17034 0.52423 0.71534 0.0
C1452 C 0.17533 0.51418 0.75453 0.0
C1453 C 0.17995 0.49553 0.74901 0.0
H1454 H 0.51988 0.56227 0.74401 0.0
H1455 H 0.45704 0.56849 0.74161 0.0
H1456 H 0.54446 0.60438 0.73105 0.0
H1457 H 0.48178 0.61108 0.72711 0.0
H1458 H 0.53687 0.69072 0.73609 0.0
H1459 H 0.51118 0.64932 0.75524 0.0
H1460 H 0.55422 0.63148 0.66842 0.0
H1461 H 0.5806 0.67298 0.65109 0.0
C1462 C 0.51131 0.57277 0.74115 0.0
C1463 C 0.48649 0.56201 0.74382 0.0
C1464 C 0.52544 0.59696 0.73308 0.0
C1465 C 0.51522 0.61127 0.72675 0.0
C1466 C 0.49037 0.60072 0.73179 0.0
C1467 C 0.47614 0.57631 0.74036 0.0
C1468 C 0.54112 0.6781 0.72137 0.0
C1469 C 0.56124 0.68556 0.69241 0.0
C1470 C 0.52608 0.65416 0.73199 0.0
C1471 C 0.5306 0.63684 0.71395 0.0
C1472 C 0.55035 0.64423 0.68397 0.0
C1473 C 0.56542 0.66817 0.67344 0.0
H1474 H 0.35994 0.89476 0.77488 0.0
H1475 H 0.35444 0.85438 0.65085 0.0
H1476 H 0.40118 0.90563 0.78353 0.0
H1477 H 0.39593 0.86537 0.65977 0.0
H1478 H 0.47584 0.92042 0.64901 0.0
H1479 H 0.43294 0.90079 0.648 0.0
H1480 H 0.43174 0.89525 0.79957 0.0
H1481 H 0.47541 0.91548 0.80039 0.0
C1482 C 0.36719 0.88768 0.74984 0.0
C1483 C 0.35346 0.87377 0.71164 0.0
C1484 C 0.39109 0.89399 0.75501 0.0
C1485 C 0.40221 0.88667 0.72217 0.0
C1486 C 0.38823 0.87179 0.68535 0.0
C1487 C 0.36428 0.86544 0.68019 0.0
C1488 C 0.46649 0.91469 0.68223 0.0
C1489 C 0.47915 0.91959 0.72481 0.0
C1490 C 0.44172 0.90322 0.68161 0.0
C1491 C 0.4286 0.89634 0.72365 0.0
C1492 C 0.4412 0.90044 0.76643 0.0
C1493 C 0.46622 0.9118 0.76699 0.0
loop_
_geom_bond_atom_site_label_1
_geom_bond_atom_site_label_2
_geom_bond_distance
_geom_bond_site_symmetry_2
_ccdc_geom_bond_type
C0 C1 1.351 . S
C0 N3 1.368 . S
C0 H5 0.931 . S
C1 C0 1.351 . S
C1 N2 1.373 . S
C1 H29 0.930 1_554 S
N2 C1 1.373 . S
N2 C4 1.340 . S
N3 C0 1.368 . S
N3 C4 1.321 . S
N3 Co6 2.135 . S
C4 N2 1.340 . S
C4 N3 1.321 . S
C4 H28 0.930 . S
H5 C0 0.931 . S
Co6 N3 2.135 . S
Co6 N9 2.121 . S
Co6 O14 2.055 . S
Co6 O17 2.039 . S
Co6 N20 2.140 . S
C7 O8 1.227 . S
C7 O17 1.265 . S
O8 C7 1.227 . S
N9 Co6 2.121 . S
N9 C11 1.375 . S
N9 C12 1.313 . S
C10 C11 1.338 . S
C10 N13 1.377 . S
C10 H30 0.930 . S
C11 N9 1.375 . S
C11 C10 1.338 . S
C11 H15 0.931 . S
C12 N9 1.313 . S
C12 N13 1.344 . S
C12 H16 0.930 . S
N13 C10 1.377 . S
N13 C12 1.344 . S
O14 Co6 2.055 . S
O14 C18 1.253 . S
H15 C11 0.931 . S
H16 C12 0.930 . S
O17 Co6 2.039 . S
O17 C7 1.265 . S
C18 O14 1.253 . S
C18 O19 1.227 . S
O19 C18 1.227 . S
N20 Co6 2.140 . S
N20 C23 1.346 . S
N20 C24 1.345 . S
C21 C22 1.387 . S
C21 C25 1.391 . S
C22 C21 1.387 . S
C22 C23 1.369 . S
C22 H31 0.929 . S
C23 N20 1.346 . S
C23 C22 1.369 . S
C23 H26 0.928 . S
C24 N20 1.345 . S
C24 C25 1.371 . S
C24 H27 0.931 . S
C25 C21 1.391 . S
C25 C24 1.371 . S
C25 H32 0.930 . S
H26 C23 0.928 . S
H27 C24 0.931 . S
H28 C4 0.930 . S
H29 C1 0.930 1_556 S
H30 C10 0.930 . S
H31 C22 0.929 . S
H32 C25 0.930 . S
C33 C34 1.351 . S
C33 N36 1.368 . S
C33 H38 0.931 . S
C34 C33 1.351 . S
C34 N35 1.373 1_565 S
C34 H62 0.930 1_554 S
N35 C34 1.373 1_545 S
N35 C37 1.340 1_545 S
N36 C33 1.368 . S
N36 C37 1.321 . S
N36 Co39 2.135 . S
C37 N35 1.340 1_565 S
C37 N36 1.321 . S
C37 H61 0.898 1_565 S
H38 C33 0.931 . S
Co39 N36 2.135 . S
Co39 N42 2.121 . S
Co39 O47 2.055 . S
Co39 O50 2.039 . S
Co39 N53 2.140 . S
C40 O41 1.227 . S
C40 O50 1.265 . S
O41 C40 1.227 . S
N42 Co39 2.121 . S
N42 C44 1.375 . S
N42 C45 1.313 . S
C43 C44 1.338 . S
C43 N46 1.377 . S
C43 H63 0.930 . S
C44 N42 1.375 . S
C44 C43 1.338 . S
C44 H48 0.931 . S
C45 N42 1.313 . S
C45 N46 1.344 . S
C45 H49 0.930 . S
N46 C43 1.377 . S
N46 C45 1.344 . S
O47 Co39 2.055 . S
O47 C51 1.253 . S
H48 C44 0.931 . S
H49 C45 0.930 . S
O50 Co39 2.039 . S
O50 C40 1.265 . S
C51 O47 1.253 . S
C51 O52 1.227 . S
O52 C51 1.227 . S
N53 Co39 2.140 . S
N53 C56 1.346 . S
N53 C57 1.345 . S
C54 C55 1.387 . S
C54 C58 1.391 . S
C55 C54 1.387 . S
C55 C56 1.369 . S
C55 H64 0.929 . S
C56 N53 1.346 . S
C56 C55 1.369 . S
C56 H59 0.928 . S
C57 N53 1.345 . S
C57 C58 1.371 . S
C57 H60 0.931 . S
C58 C54 1.391 . S
C58 C57 1.371 . S
C58 H65 0.930 . S
H59 C56 0.928 . S
H60 C57 0.931 . S
H61 C37 0.898 1_545 S
H62 C34 0.930 1_556 S
H63 C43 0.930 . S
H64 C55 0.929 . S
H65 C58 0.930 . S
C66 C67 1.351 . S
C66 N69 1.368 . S
C66 H71 0.931 . S
C67 C66 1.351 . S
C67 N68 1.373 1_455 S
C67 H95 0.930 1_554 S
N68 C67 1.373 1_655 S
N68 C70 1.340 1_655 S
N69 C66 1.368 . S
N69 C70 1.321 . S
N69 Co72 2.135 . S
C70 N68 1.340 1_455 S
C70 N69 1.321 . S
C70 H94 0.919 1_455 S
H71 C66 0.931 . S
Co72 N69 2.135 . S
Co72 N75 2.121 . S
Co72 O80 2.055 . S
Co72 O83 2.039 . S
Co72 N86 2.140 . S
C73 O74 1.227 . S
C73 O83 1.265 . S
O74 C73 1.227 . S
N75 Co72 2.121 . S
N75 C77 1.375 . S
N75 C78 1.313 . S
C76 C77 1.338 . S
C76 N79 1.377 . S
C76 H96 0.930 . S
C77 N75 1.375 . S
C77 C76 1.338 . S
C77 H81 0.931 . S
C78 N75 1.313 . S
C78 N79 1.344 . S
C78 H82 0.930 . S
N79 C76 1.377 . S
N79 C78 1.344 . S
O80 Co72 2.055 . S
O80 C84 1.253 . S
H81 C77 0.931 . S
H82 C78 0.930 . S
O83 Co72 2.039 . S
O83 C73 1.265 . S
C84 O80 1.253 . S
C84 O85 1.227 . S
O85 C84 1.227 . S
N86 Co72 2.140 . S
N86 C89 1.346 . S
N86 C90 1.345 . S
C87 C88 1.387 . S
C87 C91 1.391 . S
C88 C87 1.387 . S
C88 C89 1.369 . S
C88 H97 0.929 . S
C89 N86 1.346 . S
C89 C88 1.369 . S
C89 H92 0.928 . S
C90 N86 1.345 . S
C90 C91 1.371 . S
C90 H93 0.931 . S
C91 C87 1.391 . S
C91 C90 1.371 . S
C91 H98 0.930 . S
H92 C89 0.928 . S
H93 C90 0.931 . S
H94 C70 0.919 1_655 S
H95 C67 0.930 1_556 S
H96 C76 0.930 . S
H97 C88 0.929 . S
H98 C91 0.930 . S
C99 C100 1.351 . S
C99 N102 1.368 . S
C99 H104 0.931 . S
C100 C99 1.351 . S
C100 N101 1.373 . S
C100 H128 0.930 1_556 S
N101 C100 1.373 . S
N101 C103 1.340 . S
N102 C99 1.368 . S
N102 C103 1.321 . S
N102 Co105 2.135 . S
C103 N101 1.340 . S
C103 N102 1.321 . S
C103 H127 0.930 . S
H104 C99 0.931 . S
Co105 N102 2.135 . S
Co105 N108 2.121 . S
Co105 O113 2.055 . S
Co105 O116 2.039 . S
Co105 N119 2.140 . S
C106 O107 1.227 . S
C106 O116 1.265 . S
O107 C106 1.227 . S
N108 Co105 2.121 . S
N108 C110 1.375 . S
N108 C111 1.313 . S
C109 C110 1.338 . S
C109 N112 1.377 . S
C109 H129 0.930 . S
C110 N108 1.375 . S
C110 C109 1.338 . S
C110 H114 0.931 . S
C111 N108 1.313 . S
C111 N112 1.344 . S
C111 H115 0.930 . S
N112 C109 1.377 . S
N112 C111 1.344 . S
O113 Co105 2.055 . S
O113 C117 1.253 . S
H114 C110 0.931 . S
H115 C111 0.930 . S
O116 Co105 2.039 . S
O116 C106 1.265 . S
C117 O113 1.253 . S
C117 O118 1.227 . S
O118 C117 1.227 . S
N119 Co105 2.140 . S
N119 C122 1.346 . S
N119 C123 1.345 . S
C120 C121 1.387 . S
C120 C124 1.391 . S
C121 C120 1.387 . S
C121 C122 1.369 . S
C121 H130 0.929 . S
C122 N119 1.346 . S
C122 C121 1.369 . S
C122 H125 0.928 . S
C123 N119 1.345 . S
C123 C124 1.371 . S
C123 H126 0.931 . S
C124 C120 1.391 . S
C124 C123 1.371 . S
C124 H131 0.930 . S
H125 C122 0.928 . S
H126 C123 0.931 . S
H127 C103 0.930 . S
H128 C100 0.930 1_554 S
H129 C109 0.930 . S
H130 C121 0.929 . S
H131 C124 0.930 . S
C132 C133 1.351 . S
C132 N135 1.368 . S
C132 H137 0.931 . S
C133 C132 1.351 . S
C133 N134 1.373 1_545 S
C133 H161 0.930 1_556 S
N134 C133 1.373 1_565 S
N134 C136 1.340 1_565 S
N135 C132 1.368 . S
N135 C136 1.321 . S
N135 Co138 2.135 . S
C136 N134 1.340 1_545 S
C136 N135 1.321 . S
C136 H160 0.898 1_545 S
H137 C132 0.931 . S
Co138 N135 2.135 . S
Co138 N141 2.121 . S
Co138 O146 2.055 . S
Co138 O149 2.039 . S
Co138 N152 2.140 . S
C139 O140 1.227 . S
C139 O149 1.265 . S
O140 C139 1.227 . S
N141 Co138 2.121 . S
N141 C143 1.375 . S
N141 C144 1.313 . S
C142 C143 1.338 . S
C142 N145 1.377 . S
C142 H162 0.930 . S
C143 N141 1.375 . S
C143 C142 1.338 . S
C143 H147 0.931 . S
C144 N141 1.313 . S
C144 N145 1.344 . S
C144 H148 0.930 . S
N145 C142 1.377 . S
N145 C144 1.344 . S
O146 Co138 2.055 . S
O146 C150 1.253 . S
H147 C143 0.931 . S
H148 C144 0.930 . S
O149 Co138 2.039 . S
O149 C139 1.265 . S
C150 O146 1.253 . S
C150 O151 1.227 . S
O151 C150 1.227 . S
N152 Co138 2.140 . S
N152 C155 1.346 . S
N152 C156 1.345 . S
C153 C154 1.387 . S
C153 C157 1.391 . S
C154 C153 1.387 . S
C154 C155 1.369 . S
C154 H163 0.929 . S
C155 N152 1.346 . S
C155 C154 1.369 . S
C155 H158 0.928 . S
C156 N152 1.345 . S
C156 C157 1.371 . S
C156 H159 0.931 . S
C157 C153 1.391 . S
C157 C156 1.371 . S
C157 H164 0.930 . S
H158 C155 0.928 . S
H159 C156 0.931 . S
H160 C136 0.898 1_565 S
H161 C133 0.930 1_554 S
H162 C142 0.930 . S
H163 C154 0.929 . S
H164 C157 0.930 . S
C165 C166 1.351 . S
C165 N168 1.368 . S
C165 H170 0.931 . S
C166 C165 1.351 . S
C166 N167 1.373 1_655 S
C166 H194 0.930 1_556 S
N167 C166 1.373 1_455 S
N167 C169 1.340 1_455 S
N168 C165 1.368 . S
N168 C169 1.321 . S
N168 Co171 2.135 . S
C169 N167 1.340 1_655 S
C169 N168 1.321 . S
C169 H193 0.919 1_655 S
H170 C165 0.931 . S
Co171 N168 2.135 . S
Co171 N174 2.121 . S
Co171 O179 2.055 . S
Co171 O182 2.039 . S
Co171 N185 2.140 . S
C172 O173 1.227 . S
C172 O182 1.265 . S
O173 C172 1.227 . S
N174 Co171 2.121 . S
N174 C176 1.375 . S
N174 C177 1.313 . S
C175 C176 1.338 . S
C175 N178 1.377 . S
C175 H195 0.930 . S
C176 N174 1.375 . S
C176 C175 1.338 . S
C176 H180 0.931 . S
C177 N174 1.313 . S
C177 N178 1.344 . S
C177 H181 0.930 . S
N178 C175 1.377 . S
N178 C177 1.344 . S
O179 Co171 2.055 . S
O179 C183 1.253 . S
H180 C176 0.931 . S
H181 C177 0.930 . S
O182 Co171 2.039 . S
O182 C172 1.265 . S
C183 O179 1.253 . S
C183 O184 1.227 . S
O184 C183 1.227 . S
N185 Co171 2.140 . S
N185 C188 1.346 . S
N185 C189 1.345 . S
C186 C187 1.387 . S
C186 C190 1.391 . S
C187 C186 1.387 . S
C187 C188 1.369 . S
C187 H196 0.929 . S
C188 N185 1.346 . S
C188 C187 1.369 . S
C188 H191 0.928 . S
C189 N185 1.345 . S
C189 C190 1.371 . S
C189 H192 0.931 . S
C190 C186 1.391 . S
C190 C189 1.371 . S
C190 H197 0.930 . S
H191 C188 0.928 . S
H192 C189 0.931 . S
H193 C169 0.919 1_455 S
H194 C166 0.930 1_554 S
H195 C175 0.930 . S
H196 C187 0.929 . S
H197 C190 0.930 . S
C198 C199 1.351 . S
C198 N201 1.368 . S
C198 H203 0.931 . S
C199 C198 1.351 . S
C199 N200 1.373 . S
C199 H227 0.930 . S
N200 C199 1.373 . S
N200 C202 1.340 . S
N201 C198 1.368 . S
N201 C202 1.321 . S
N201 Co204 2.135 . S
C202 N200 1.340 . S
C202 N201 1.321 . S
C202 H226 0.930 . S
H203 C198 0.931 . S
Co204 N201 2.135 . S
Co204 N207 2.121 . S
Co204 O212 2.055 . S
Co204 O215 2.039 . S
Co204 N218 2.140 . S
C205 O206 1.227 . S
C205 O215 1.265 . S
O206 C205 1.227 . S
N207 Co204 2.121 . S
N207 C209 1.375 . S
N207 C210 1.313 . S
C208 C209 1.338 . S
C208 N211 1.377 . S
C208 H228 0.930 . S
C209 N207 1.375 . S
C209 C208 1.338 . S
C209 H213 0.931 . S
C210 N207 1.313 . S
C210 N211 1.344 . S
C210 H214 0.930 . S
N211 C208 1.377 . S
N211 C210 1.344 . S
O212 Co204 2.055 . S
O212 C216 1.253 . S
H213 C209 0.931 . S
H214 C210 0.930 . S
O215 Co204 2.039 . S
O215 C205 1.265 . S
C216 O212 1.253 . S
C216 O217 1.227 . S
O217 C216 1.227 . S
N218 Co204 2.140 . S
N218 C221 1.346 . S
N218 C222 1.345 . S
C219 C220 1.387 . S
C219 C223 1.391 . S
C220 C219 1.387 . S
C220 C221 1.369 . S
C220 H229 0.929 . S
C221 N218 1.346 . S
C221 C220 1.369 . S
C221 H224 0.928 . S
C222 N218 1.345 . S
C222 C223 1.371 . S
C222 H225 0.931 . S
C223 C219 1.391 . S
C223 C222 1.371 . S
C223 H230 0.930 . S
H224 C221 0.928 . S
H225 C222 0.931 . S
H226 C202 0.930 . S
H227 C199 0.930 . S
H228 C208 0.930 . S
H229 C220 0.929 . S
H230 C223 0.930 . S
C231 C232 1.351 . S
C231 N234 1.368 . S
C231 H236 0.931 . S
C232 C231 1.351 . S
C232 N233 1.373 . S
C232 H260 0.930 . S
N233 C232 1.373 . S
N233 C235 1.340 . S
N234 C231 1.368 . S
N234 C235 1.321 . S
N234 Co237 2.135 . S
C235 N233 1.340 . S
C235 N234 1.321 . S
C235 H259 0.930 . S
H236 C231 0.931 . S
Co237 N234 2.135 . S
Co237 N240 2.121 . S
Co237 O245 2.055 . S
Co237 O248 2.039 . S
Co237 N251 2.140 . S
C238 O239 1.227 . S
C238 O248 1.265 . S
O239 C238 1.227 . S
N240 Co237 2.121 . S
N240 C242 1.375 . S
N240 C243 1.313 . S
C241 C242 1.338 . S
C241 N244 1.377 . S
C241 H261 0.930 . S
C242 N240 1.375 . S
C242 C241 1.338 . S
C242 H246 0.931 . S
C243 N240 1.313 . S
C243 N244 1.344 . S
C243 H247 0.930 . S
N244 C241 1.377 . S
N244 C243 1.344 . S
O245 Co237 2.055 . S
O245 C249 1.253 . S
H246 C242 0.931 . S
H247 C243 0.930 . S
O248 Co237 2.039 . S
O248 C238 1.265 . S
C249 O245 1.253 . S
C249 O250 1.227 . S
O250 C249 1.227 . S
N251 Co237 2.140 . S
N251 C254 1.346 . S
N251 C255 1.345 . S
C252 C253 1.387 . S
C252 C256 1.391 . S
C253 C252 1.387 . S
C253 C254 1.369 . S
C253 H262 0.929 . S
C254 N251 1.346 . S
C254 C253 1.369 . S
C254 H257 0.928 . S
C255 N251 1.345 . S
C255 C256 1.371 . S
C255 H258 0.931 . S
C256 C252 1.391 . S
C256 C255 1.371 . S
C256 H263 0.930 . S
H257 C254 0.928 . S
H258 C255 0.931 . S
H259 C235 0.930 . S
H260 C232 0.930 . S
H261 C241 0.930 . S
H262 C253 0.929 . S
H263 C256 0.930 . S
C264 C265 1.351 . S
C264 N267 1.368 . S
C264 H269 0.931 . S
C265 C264 1.351 . S
C265 N266 1.373 . S
C265 H293 0.930 . S
N266 C265 1.373 . S
N266 C268 1.340 . S
N267 C264 1.368 . S
N267 C268 1.321 . S
N267 Co270 2.135 . S
C268 N266 1.340 . S
C268 N267 1.321 . S
C268 H292 0.930 . S
H269 C264 0.931 . S
Co270 N267 2.135 . S
Co270 N273 2.121 . S
Co270 O278 2.055 . S
Co270 O281 2.039 . S
Co270 N284 2.140 . S
C271 O272 1.227 . S
C271 O281 1.265 . S
O272 C271 1.227 . S
N273 Co270 2.121 . S
N273 C275 1.375 . S
N273 C276 1.313 . S
C274 C275 1.338 . S
C274 N277 1.377 . S
C274 H294 0.930 . S
C275 N273 1.375 . S
C275 C274 1.338 . S
C275 H279 0.931 . S
C276 N273 1.313 . S
C276 N277 1.344 . S
C276 H280 0.930 . S
N277 C274 1.377 . S
N277 C276 1.344 . S
O278 Co270 2.055 . S
O278 C282 1.253 . S
H279 C275 0.931 . S
H280 C276 0.930 . S
O281 Co270 2.039 . S
O281 C271 1.265 . S
C282 O278 1.253 . S
C282 O283 1.227 . S
O283 C282 1.227 . S
N284 Co270 2.140 . S
N284 C287 1.346 . S
N284 C288 1.345 . S
C285 C286 1.387 . S
C285 C289 1.391 . S
C286 C285 1.387 . S
C286 C287 1.369 . S
C286 H295 0.929 . S
C287 N284 1.346 . S
C287 C286 1.369 . S
C287 H290 0.928 . S
C288 N284 1.345 . S
C288 C289 1.371 . S
C288 H291 0.931 . S
C289 C285 1.391 . S
C289 C288 1.371 . S
C289 H296 0.930 . S
H290 C287 0.928 . S
H291 C288 0.931 . S
H292 C268 0.930 . S
H293 C265 0.930 . S
H294 C274 0.930 . S
H295 C286 0.929 . S
H296 C289 0.930 . S
C297 C298 1.351 . S
C297 N300 1.368 . S
C297 H302 0.931 . S
C298 C297 1.351 . S
C298 N299 1.373 . S
C298 H326 0.930 . S
N299 C298 1.373 . S
N299 C301 1.340 . S
N300 C297 1.368 . S
N300 C301 1.321 . S
N300 Co303 2.135 . S
C301 N299 1.340 . S
C301 N300 1.321 . S
C301 H325 0.930 . S
H302 C297 0.931 . S
Co303 N300 2.135 . S
Co303 N306 2.121 . S
Co303 O311 2.055 . S
Co303 O314 2.039 . S
Co303 N317 2.140 . S
C304 O305 1.227 . S
C304 O314 1.265 . S
O305 C304 1.227 . S
N306 Co303 2.121 . S
N306 C308 1.375 . S
N306 C309 1.313 . S
C307 C308 1.338 . S
C307 N310 1.377 . S
C307 H327 0.930 . S
C308 N306 1.375 . S
C308 C307 1.338 . S
C308 H312 0.931 . S
C309 N306 1.313 . S
C309 N310 1.344 . S
C309 H313 0.930 . S
N310 C307 1.377 . S
N310 C309 1.344 . S
O311 Co303 2.055 . S
O311 C315 1.253 . S
H312 C308 0.931 . S
H313 C309 0.930 . S
O314 Co303 2.039 . S
O314 C304 1.265 . S
C315 O311 1.253 . S
C315 O316 1.227 . S
O316 C315 1.227 . S
N317 Co303 2.140 . S
N317 C320 1.346 . S
N317 C321 1.345 . S
C318 C319 1.387 . S
C318 C322 1.391 . S
C319 C318 1.387 . S
C319 C320 1.369 . S
C319 H328 0.929 . S
C320 N317 1.346 . S
C320 C319 1.369 . S
C320 H323 0.928 . S
C321 N317 1.345 . S
C321 C322 1.371 . S
C321 H324 0.931 . S
C322 C318 1.391 . S
C322 C321 1.371 . S
C322 H329 0.930 . S
H323 C320 0.928 . S
H324 C321 0.931 . S
H325 C301 0.930 . S
H326 C298 0.930 . S
H327 C307 0.930 . S
H328 C319 0.929 . S
H329 C322 0.930 . S
C330 C331 1.351 . S
C330 N333 1.368 . S
C330 H335 0.931 . S
C331 C330 1.351 . S
C331 N332 1.373 . S
C331 H359 0.930 . S
N332 C331 1.373 . S
N332 C334 1.340 . S
N333 C330 1.368 . S
N333 C334 1.321 . S
N333 Co336 2.135 . S
C334 N332 1.340 . S
C334 N333 1.321 . S
C334 H358 0.930 . S
H335 C330 0.931 . S
Co336 N333 2.135 . S
Co336 N339 2.121 . S
Co336 O344 2.055 . S
Co336 O347 2.039 . S
Co336 N350 2.140 . S
C337 O338 1.227 . S
C337 O347 1.265 . S
O338 C337 1.227 . S
N339 Co336 2.121 . S
N339 C341 1.375 . S
N339 C342 1.313 . S
C340 C341 1.338 . S
C340 N343 1.377 . S
C340 H360 0.930 . S
C341 N339 1.375 . S
C341 C340 1.338 . S
C341 H345 0.931 . S
C342 N339 1.313 . S
C342 N343 1.344 . S
C342 H346 0.930 . S
N343 C340 1.377 . S
N343 C342 1.344 . S
O344 Co336 2.055 . S
O344 C348 1.253 . S
H345 C341 0.931 . S
H346 C342 0.930 . S
O347 Co336 2.039 . S
O347 C337 1.265 . S
C348 O344 1.253 . S
C348 O349 1.227 . S
O349 C348 1.227 . S
N350 Co336 2.140 . S
N350 C353 1.346 . S
N350 C354 1.345 . S
C351 C352 1.387 . S
C351 C355 1.391 . S
C352 C351 1.387 . S
C352 C353 1.369 . S
C352 H361 0.929 . S
C353 N350 1.346 . S
C353 C352 1.369 . S
C353 H356 0.928 . S
C354 N350 1.345 . S
C354 C355 1.371 . S
C354 H357 0.931 . S
C355 C351 1.391 . S
C355 C354 1.371 . S
C355 H362 0.930 . S
H356 C353 0.928 . S
H357 C354 0.931 . S
H358 C334 0.930 . S
H359 C331 0.930 . S
H360 C340 0.930 . S
H361 C352 0.929 . S
H362 C355 0.930 . S
C363 C364 1.351 . S
C363 N366 1.368 . S
C363 H368 0.931 . S
C364 C363 1.351 . S
C364 N365 1.373 . S
C364 H392 0.930 . S
N365 C364 1.373 . S
N365 C367 1.340 . S
N366 C363 1.368 . S
N366 C367 1.321 . S
N366 Co369 2.135 . S
C367 N365 1.340 . S
C367 N366 1.321 . S
C367 H391 0.930 . S
H368 C363 0.931 . S
Co369 N366 2.135 . S
Co369 N372 2.121 . S
Co369 O377 2.055 . S
Co369 O380 2.039 . S
Co369 N383 2.140 . S
C370 O371 1.227 . S
C370 O380 1.265 . S
O371 C370 1.227 . S
N372 Co369 2.121 . S
N372 C374 1.375 . S
N372 C375 1.313 . S
C373 C374 1.338 . S
C373 N376 1.377 . S
C373 H393 0.930 . S
C374 N372 1.375 . S
C374 C373 1.338 . S
C374 H378 0.931 . S
C375 N372 1.313 . S
C375 N376 1.344 . S
C375 H379 0.930 . S
N376 C373 1.377 . S
N376 C375 1.344 . S
O377 Co369 2.055 . S
O377 C381 1.253 . S
H378 C374 0.931 . S
H379 C375 0.930 . S
O380 Co369 2.039 . S
O380 C370 1.265 . S
C381 O377 1.253 . S
C381 O382 1.227 . S
O382 C381 1.227 . S
N383 Co369 2.140 . S
N383 C386 1.346 . S
N383 C387 1.345 . S
C384 C385 1.387 . S
C384 C388 1.391 . S
C385 C384 1.387 . S
C385 C386 1.369 . S
C385 H394 0.929 . S
C386 N383 1.346 . S
C386 C385 1.369 . S
C386 H389 0.928 . S
C387 N383 1.345 . S
C387 C388 1.371 . S
C387 H390 0.931 . S
C388 C384 1.391 . S
C388 C387 1.371 . S
C388 H395 0.930 . S
H389 C386 0.928 . S
H390 C387 0.931 . S
H391 C367 0.930 . S
H392 C364 0.930 . S
H393 C373 0.930 . S
H394 C385 0.929 . S
H395 C388 0.930 . S
C396 C397 1.351 . S
C396 N399 1.368 . S
C396 H401 0.931 . S
C397 C396 1.351 . S
C397 N398 1.373 . S
C397 H425 0.930 . S
N398 C397 1.373 . S
N398 C400 1.340 . S
N399 C396 1.368 . S
N399 C400 1.321 . S
N399 Co402 2.135 . S
C400 N398 1.340 . S
C400 N399 1.321 . S
C400 H424 0.930 . S
H401 C396 0.931 . S
Co402 N399 2.135 . S
Co402 N405 2.121 . S
Co402 O410 2.055 . S
Co402 O413 2.039 . S
Co402 N416 2.140 . S
C403 O404 1.227 . S
C403 O413 1.265 . S
O404 C403 1.227 . S
N405 Co402 2.121 . S
N405 C407 1.375 . S
N405 C408 1.313 . S
C406 C407 1.338 . S
C406 N409 1.377 . S
C406 H426 0.930 . S
C407 N405 1.375 . S
C407 C406 1.338 . S
C407 H411 0.931 . S
C408 N405 1.313 . S
C408 N409 1.344 . S
C408 H412 0.930 . S
N409 C406 1.377 . S
N409 C408 1.344 . S
O410 Co402 2.055 . S
O410 C414 1.253 . S
H411 C407 0.931 . S
H412 C408 0.930 . S
O413 Co402 2.039 . S
O413 C403 1.265 . S
C414 O410 1.253 . S
C414 O415 1.227 . S
O415 C414 1.227 . S
N416 Co402 2.140 . S
N416 C419 1.346 . S
N416 C420 1.345 . S
C417 C418 1.387 . S
C417 C421 1.391 . S
C418 C417 1.387 . S
C418 C419 1.369 . S
C418 H427 0.929 . S
C419 N416 1.346 . S
C419 C418 1.369 . S
C419 H422 0.928 . S
C420 N416 1.345 . S
C420 C421 1.371 . S
C420 H423 0.931 . S
C421 C417 1.391 . S
C421 C420 1.371 . S
C421 H428 0.930 . S
H422 C419 0.928 . S
H423 C420 0.931 . S
H424 C400 0.930 . S
H425 C397 0.930 . S
H426 C406 0.930 . S
H427 C418 0.929 . S
H428 C421 0.930 . S
C429 C430 1.351 . S
C429 N432 1.368 . S
C429 H434 0.931 . S
C430 C429 1.351 . S
C430 N431 1.373 . S
C430 H458 0.930 . S
N431 C430 1.373 . S
N431 C433 1.340 . S
N432 C429 1.368 . S
N432 C433 1.321 . S
N432 Co435 2.135 . S
C433 N431 1.340 . S
C433 N432 1.321 . S
C433 H457 0.930 . S
H434 C429 0.931 . S
Co435 N432 2.135 . S
Co435 N438 2.121 . S
Co435 O443 2.055 . S
Co435 O446 2.039 . S
Co435 N449 2.140 . S
C436 O437 1.227 . S
C436 O446 1.265 . S
O437 C436 1.227 . S
N438 Co435 2.121 . S
N438 C440 1.375 . S
N438 C441 1.313 . S
C439 C440 1.338 . S
C439 N442 1.377 . S
C439 H459 0.930 . S
C440 N438 1.375 . S
C440 C439 1.338 . S
C440 H444 0.931 . S
C441 N438 1.313 . S
C441 N442 1.344 . S
C441 H445 0.930 . S
N442 C439 1.377 . S
N442 C441 1.344 . S
O443 Co435 2.055 . S
O443 C447 1.253 . S
H444 C440 0.931 . S
H445 C441 0.930 . S
O446 Co435 2.039 . S
O446 C436 1.265 . S
C447 O443 1.253 . S
C447 O448 1.227 . S
O448 C447 1.227 . S
N449 Co435 2.140 . S
N449 C452 1.346 . S
N449 C453 1.345 . S
C450 C451 1.387 . S
C450 C454 1.391 . S
C451 C450 1.387 . S
C451 C452 1.369 . S
C451 H460 0.929 . S
C452 N449 1.346 . S
C452 C451 1.369 . S
C452 H455 0.928 . S
C453 N449 1.345 . S
C453 C454 1.371 . S
C453 H456 0.931 . S
C454 C450 1.391 . S
C454 C453 1.371 . S
C454 H461 0.930 . S
H455 C452 0.928 . S
H456 C453 0.931 . S
H457 C433 0.930 . S
H458 C430 0.930 . S
H459 C439 0.930 . S
H460 C451 0.929 . S
H461 C454 0.930 . S
C462 C463 1.351 . S
C462 N465 1.368 . S
C462 H467 0.931 . S
C463 C462 1.351 . S
C463 N464 1.373 . S
C463 H491 0.930 . S
N464 C463 1.373 . S
N464 C466 1.340 . S
N465 C462 1.368 . S
N465 C466 1.321 . S
N465 Co468 2.135 . S
C466 N464 1.340 . S
C466 N465 1.321 . S
C466 H490 0.930 . S
H467 C462 0.931 . S
Co468 N465 2.135 . S
Co468 N471 2.121 . S
Co468 O476 2.055 . S
Co468 O479 2.039 . S
Co468 N482 2.140 . S
C469 O470 1.227 . S
C469 O479 1.265 . S
O470 C469 1.227 . S
N471 Co468 2.121 . S
N471 C473 1.375 . S
N471 C474 1.313 . S
C472 C473 1.338 . S
C472 N475 1.377 . S
C472 H492 0.930 . S
C473 N471 1.375 . S
C473 C472 1.338 . S
C473 H477 0.931 . S
C474 N471 1.313 . S
C474 N475 1.344 . S
C474 H478 0.930 . S
N475 C472 1.377 . S
N475 C474 1.344 . S
O476 Co468 2.055 . S
O476 C480 1.253 . S
H477 C473 0.931 . S
H478 C474 0.930 . S
O479 Co468 2.039 . S
O479 C469 1.265 . S
C480 O476 1.253 . S
C480 O481 1.227 . S
O481 C480 1.227 . S
N482 Co468 2.140 . S
N482 C485 1.346 . S
N482 C486 1.345 . S
C483 C484 1.387 . S
C483 C487 1.391 . S
C484 C483 1.387 . S
C484 C485 1.369 . S
C484 H493 0.929 . S
C485 N482 1.346 . S
C485 C484 1.369 . S
C485 H488 0.928 . S
C486 N482 1.345 . S
C486 C487 1.371 . S
C486 H489 0.931 . S
C487 C483 1.391 . S
C487 C486 1.371 . S
C487 H494 0.930 . S
H488 C485 0.928 . S
H489 C486 0.931 . S
H490 C466 0.930 . S
H491 C463 0.930 . S
H492 C472 0.930 . S
H493 C484 0.929 . S
H494 C487 0.930 . S
C495 C496 1.351 . S
C495 N498 1.368 . S
C495 H500 0.931 . S
C496 C495 1.351 . S
C496 N497 1.373 . S
C496 H524 0.930 . S
N497 C496 1.373 . S
N497 C499 1.340 . S
N498 C495 1.368 . S
N498 C499 1.321 . S
N498 Co501 2.135 . S
C499 N497 1.340 . S
C499 N498 1.321 . S
C499 H523 0.930 . S
H500 C495 0.931 . S
Co501 N498 2.135 . S
Co501 N504 2.121 . S
Co501 O509 2.055 . S
Co501 O512 2.039 . S
Co501 N515 2.140 . S
C502 O503 1.227 . S
C502 O512 1.265 . S
O503 C502 1.227 . S
N504 Co501 2.121 . S
N504 C506 1.375 . S
N504 C507 1.313 . S
C505 C506 1.338 . S
C505 N508 1.377 . S
C505 H525 0.930 . S
C506 N504 1.375 . S
C506 C505 1.338 . S
C506 H510 0.931 . S
C507 N504 1.313 . S
C507 N508 1.344 . S
C507 H511 0.930 . S
N508 C505 1.377 . S
N508 C507 1.344 . S
O509 Co501 2.055 . S
O509 C513 1.253 . S
H510 C506 0.931 . S
H511 C507 0.930 . S
O512 Co501 2.039 . S
O512 C502 1.265 . S
C513 O509 1.253 . S
C513 O514 1.227 . S
O514 C513 1.227 . S
N515 Co501 2.140 . S
N515 C518 1.346 . S
N515 C519 1.345 . S
C516 C517 1.387 . S
C516 C520 1.391 . S
C517 C516 1.387 . S
C517 C518 1.369 . S
C517 H526 0.929 . S
C518 N515 1.346 . S
C518 C517 1.369 . S
C518 H521 0.928 . S
C519 N515 1.345 . S
C519 C520 1.371 . S
C519 H522 0.931 . S
C520 C516 1.391 . S
C520 C519 1.371 . S
C520 H527 0.930 . S
H521 C518 0.928 . S
H522 C519 0.931 . S
H523 C499 0.930 . S
H524 C496 0.930 . S
H525 C505 0.930 . S
H526 C517 0.929 . S
H527 C520 0.930 . S
C528 C529 1.351 . S
C528 N531 1.368 . S
C528 H533 0.931 . S
C529 C528 1.351 . S
C529 N530 1.373 . S
C529 H557 0.930 . S
N530 C529 1.373 . S
N530 C532 1.340 . S
N531 C528 1.368 . S
N531 C532 1.321 . S
N531 Co534 2.135 . S
C532 N530 1.340 . S
C532 N531 1.321 . S
C532 H556 0.930 . S
H533 C528 0.931 . S
Co534 N531 2.135 . S
Co534 N537 2.121 . S
Co534 O542 2.055 . S
Co534 O545 2.039 . S
Co534 N548 2.140 . S
C535 O536 1.227 . S
C535 O545 1.265 . S
O536 C535 1.227 . S
N537 Co534 2.121 . S
N537 C539 1.375 . S
N537 C540 1.313 . S
C538 C539 1.338 . S
C538 N541 1.377 . S
C538 H558 0.930 . S
C539 N537 1.375 . S
C539 C538 1.338 . S
C539 H543 0.931 . S
C540 N537 1.313 . S
C540 N541 1.344 . S
C540 H544 0.930 . S
N541 C538 1.377 . S
N541 C540 1.344 . S
O542 Co534 2.055 . S
O542 C546 1.253 . S
H543 C539 0.931 . S
H544 C540 0.930 . S
O545 Co534 2.039 . S
O545 C535 1.265 . S
C546 O542 1.253 . S
C546 O547 1.227 . S
O547 C546 1.227 . S
N548 Co534 2.140 . S
N548 C551 1.346 . S
N548 C552 1.345 . S
C549 C550 1.387 . S
C549 C553 1.391 . S
C550 C549 1.387 . S
C550 C551 1.369 . S
C550 H559 0.929 . S
C551 N548 1.346 . S
C551 C550 1.369 . S
C551 H554 0.928 . S
C552 N548 1.345 . S
C552 C553 1.371 . S
C552 H555 0.931 . S
C553 C549 1.391 . S
C553 C552 1.371 . S
C553 H560 0.930 . S
H554 C551 0.928 . S
H555 C552 0.931 . S
H556 C532 0.930 . S
H557 C529 0.930 . S
H558 C538 0.930 . S
H559 C550 0.929 . S
H560 C553 0.930 . S
C561 C562 1.351 . S
C561 N564 1.368 . S
C561 H566 0.931 . S
C562 C561 1.351 . S
C562 N563 1.373 . S
C562 H590 0.930 . S
N563 C562 1.373 . S
N563 C565 1.340 . S
N564 C561 1.368 . S
N564 C565 1.321 . S
N564 Co567 2.135 . S
C565 N563 1.340 . S
C565 N564 1.321 . S
C565 H589 0.930 . S
H566 C561 0.931 . S
Co567 N564 2.135 . S
Co567 N570 2.121 . S
Co567 O575 2.055 . S
Co567 O578 2.039 . S
Co567 N581 2.140 . S
C568 O569 1.227 . S
C568 O578 1.265 . S
O569 C568 1.227 . S
N570 Co567 2.121 . S
N570 C572 1.375 . S
N570 C573 1.313 . S
C571 C572 1.338 . S
C571 N574 1.377 . S
C571 H591 0.930 . S
C572 N570 1.375 . S
C572 C571 1.338 . S
C572 H576 0.931 . S
C573 N570 1.313 . S
C573 N574 1.344 . S
C573 H577 0.930 . S
N574 C571 1.377 . S
N574 C573 1.344 . S
O575 Co567 2.055 . S
O575 C579 1.253 . S
H576 C572 0.931 . S
H577 C573 0.930 . S
O578 Co567 2.039 . S
O578 C568 1.265 . S
C579 O575 1.253 . S
C579 O580 1.227 . S
O580 C579 1.227 . S
N581 Co567 2.140 . S
N581 C584 1.346 . S
N581 C585 1.345 . S
C582 C583 1.387 . S
C582 C586 1.391 . S
C583 C582 1.387 . S
C583 C584 1.369 . S
C583 H592 0.929 . S
C584 N581 1.346 . S
C584 C583 1.369 . S
C584 H587 0.928 . S
C585 N581 1.345 . S
C585 C586 1.371 . S
C585 H588 0.931 . S
C586 C582 1.391 . S
C586 C585 1.371 . S
C586 H593 0.930 . S
H587 C584 0.928 . S
H588 C585 0.931 . S
H589 C565 0.930 . S
H590 C562 0.930 . S
H591 C571 0.930 . S
H592 C583 0.929 . S
H593 C586 0.930 . S
H594 C602 0.950 . S
H595 C607 0.950 . S
H596 C604 0.950 . S
H597 C606 0.950 . S
H598 C608 0.950 . S
H599 C610 0.950 . S
H600 C612 0.950 . S
H601 C613 0.950 . S
C602 H594 0.950 . S
C602 C603 1.386 . S
C602 C604 1.391 . S
C603 C602 1.386 . S
C603 C607 1.393 . S
C604 H596 0.950 . S
C604 C602 1.391 . S
C604 C605 1.400 . S
C605 C604 1.400 . S
C605 C606 1.398 . S
C605 C611 1.491 . S
C606 H597 0.950 . S
C606 C605 1.398 . S
C606 C607 1.391 . S
C607 H595 0.950 . S
C607 C603 1.393 . S
C607 C606 1.391 . S
C608 H598 0.950 . S
C608 C609 1.386 . S
C608 C610 1.391 . S
C609 C608 1.386 . S
C609 C613 1.393 . S
C610 H599 0.950 . S
C610 C608 1.391 . S
C610 C611 1.400 . S
C611 C605 1.491 . S
C611 C610 1.400 . S
C611 C612 1.398 . S
C612 H600 0.950 . S
C612 C611 1.398 . S
C612 C613 1.391 . S
C613 H601 0.950 . S
C613 C609 1.393 . S
C613 C612 1.391 . S
H614 C622 0.950 . S
H615 C627 0.950 . S
H616 C624 0.950 1_565 S
H617 C626 0.950 . S
H618 C628 0.950 . S
H619 C630 0.950 . S
H620 C632 0.950 . S
H621 C633 0.950 . S
C622 H614 0.950 . S
C622 C623 1.386 . S
C622 C624 1.360 1_565 S
C623 C622 1.386 . S
C623 C627 1.393 1_565 S
C624 H616 0.950 1_545 S
C624 C622 1.360 1_545 S
C624 C625 1.432 . S
C625 C624 1.432 . S
C625 C626 1.398 . S
C625 C631 1.491 . S
C626 H617 0.950 . S
C626 C625 1.398 . S
C626 C627 1.391 . S
C627 H615 0.950 . S
C627 C623 1.393 1_545 S
C627 C626 1.391 . S
C628 H618 0.950 . S
C628 C629 1.386 . S
C628 C630 1.391 . S
C629 C628 1.386 . S
C629 C633 1.393 . S
C630 H619 0.950 . S
C630 C628 1.391 . S
C630 C631 1.400 . S
C631 C625 1.491 . S
C631 C630 1.400 . S
C631 C632 1.398 . S
C632 H620 0.950 . S
C632 C631 1.398 . S
C632 C633 1.391 . S
C633 H621 0.950 . S
C633 C629 1.393 . S
C633 C632 1.391 . S
H634 C642 0.950 . S
H635 C647 0.950 . S
H636 C644 0.950 . S
H637 C646 0.965 . S
H638 C648 0.950 . S
H639 C650 0.950 . S
H640 C652 0.950 . S
H641 C653 0.950 . S
C642 H634 0.950 . S
C642 C643 1.386 1_655 S
C642 C644 1.391 . S
C643 C642 1.386 1_455 S
C643 C647 1.393 . S
C644 H636 0.950 . S
C644 C642 1.391 . S
C644 C645 1.400 . S
C645 C644 1.400 . S
C645 C646 1.377 1_655 S
C645 C651 1.491 . S
C646 H637 0.965 . S
C646 C645 1.377 1_455 S
C646 C647 1.398 . S
C647 H635 0.950 . S
C647 C643 1.393 . S
C647 C646 1.398 . S
C648 H638 0.950 . S
C648 C649 1.386 . S
C648 C650 1.391 . S
C649 C648 1.386 . S
C649 C653 1.393 . S
C650 H639 0.950 . S
C650 C648 1.391 . S
C650 C651 1.400 . S
C651 C645 1.491 . S
C651 C650 1.400 . S
C651 C652 1.398 . S
C652 H640 0.950 . S
C652 C651 1.398 . S
C652 C653 1.391 . S
C653 H641 0.950 . S
C653 C649 1.393 . S
C653 C652 1.391 . S
H654 C662 0.950 . S
H655 C667 0.950 . S
H656 C664 0.950 . S
H657 C666 0.950 . S
H658 C668 0.950 . S
H659 C670 0.950 . S
H660 C672 0.950 . S
H661 C673 0.950 . S
C662 H654 0.950 . S
C662 C663 1.386 . S
C662 C664 1.391 . S
C663 C662 1.386 . S
C663 C667 1.393 . S
C664 H656 0.950 . S
C664 C662 1.391 . S
C664 C665 1.400 . S
C665 C664 1.400 . S
C665 C666 1.398 . S
C665 C671 1.491 . S
C666 H657 0.950 . S
C666 C665 1.398 . S
C666 C667 1.391 . S
C667 H655 0.950 . S
C667 C663 1.393 . S
C667 C666 1.391 . S
C668 H658 0.950 . S
C668 C669 1.386 . S
C668 C670 1.391 . S
C669 C668 1.386 . S
C669 C673 1.393 . S
C670 H659 0.950 . S
C670 C668 1.391 . S
C670 C671 1.400 . S
C671 C665 1.491 . S
C671 C670 1.400 . S
C671 C672 1.398 . S
C672 H660 0.950 . S
C672 C671 1.398 . S
C672 C673 1.391 . S
C673 H661 0.950 . S
C673 C669 1.393 . S
C673 C672 1.391 . S
H674 C682 0.950 . S
H675 C687 0.950 . S
H676 C684 0.950 . S
H677 C686 0.949 . S
H678 C688 0.950 . S
H679 C690 0.950 . S
H680 C692 0.950 . S
H681 C693 0.950 . S
C682 H674 0.950 . S
C682 C683 1.386 1_565 S
C682 C684 1.391 . S
C683 C682 1.386 1_545 S
C683 C687 1.393 . S
C684 H676 0.950 . S
C684 C682 1.391 . S
C684 C685 1.400 . S
C685 C684 1.400 . S
C685 C686 1.368 1_565 S
C685 C691 1.491 . S
C686 H677 0.949 . S
C686 C685 1.368 1_545 S
C686 C687 1.423 . S
C687 H675 0.950 . S
C687 C683 1.393 . S
C687 C686 1.423 . S
C688 H678 0.950 . S
C688 C689 1.386 . S
C688 C690 1.391 . S
C689 C688 1.386 . S
C689 C693 1.393 . S
C690 H679 0.950 . S
C690 C688 1.391 . S
C690 C691 1.400 . S
C691 C685 1.491 . S
C691 C690 1.400 . S
C691 C692 1.398 . S
C692 H680 0.950 . S
C692 C691 1.398 . S
C692 C693 1.391 . S
C693 H681 0.950 . S
C693 C689 1.393 . S
C693 C692 1.391 . S
H694 C702 0.950 . S
H695 C707 0.950 . S
H696 C704 0.950 . S
H697 C706 0.950 . S
H698 C708 0.950 . S
H699 C710 0.950 . S
H700 C712 0.950 . S
H701 C713 0.950 . S
C702 H694 0.950 . S
C702 C703 1.386 . S
C702 C704 1.391 1_655 S
C703 C702 1.386 . S
C703 C707 1.393 1_655 S
C704 H696 0.950 . S
C704 C702 1.391 1_455 S
C704 C705 1.400 . S
C705 C704 1.400 . S
C705 C706 1.398 . S
C705 C711 1.491 . S
C706 H697 0.950 . S
C706 C705 1.398 . S
C706 C707 1.391 . S
C707 H695 0.950 . S
C707 C703 1.393 1_455 S
C707 C706 1.391 . S
C708 H698 0.950 . S
C708 C709 1.386 . S
C708 C710 1.391 . S
C709 C708 1.386 . S
C709 C713 1.393 . S
C710 H699 0.950 . S
C710 C708 1.391 . S
C710 C711 1.400 . S
C711 C705 1.491 . S
C711 C710 1.400 . S
C711 C712 1.398 . S
C712 H700 0.950 . S
C712 C711 1.398 . S
C712 C713 1.391 . S
C713 H701 0.950 . S
C713 C709 1.393 . S
C713 C712 1.391 . S
H714 C722 0.950 . S
H715 C727 0.950 . S
H716 C724 0.950 . S
H717 C726 0.950 . S
H718 C728 0.950 1_455 S
H719 C730 0.950 . S
H720 C732 0.950 . S
H721 C733 0.950 1_455 S
C722 H714 0.950 . S
C722 C723 1.386 . S
C722 C724 1.391 . S
C723 C722 1.386 . S
C723 C727 1.393 . S
C724 H716 0.950 . S
C724 C722 1.391 . S
C724 C725 1.400 . S
C725 C724 1.400 . S
C725 C726 1.398 . S
C725 C731 1.491 . S
C726 H717 0.950 . S
C726 C725 1.398 . S
C726 C727 1.391 . S
C727 H715 0.950 . S
C727 C723 1.393 . S
C727 C726 1.391 . S
C728 H718 0.950 1_655 S
C728 C729 1.386 1_655 S
C728 C730 1.391 . S
C729 C728 1.386 1_455 S
C729 C733 1.393 1_455 S
C730 H719 0.950 . S
C730 C728 1.391 . S
C730 C731 1.400 . S
C731 C725 1.491 . S
C731 C730 1.400 . S
C731 C732 1.398 . S
C732 H720 0.950 . S
C732 C731 1.398 . S
C732 C733 1.391 . S
C733 H721 0.950 1_655 S
C733 C729 1.393 1_655 S
C733 C732 1.391 . S
H734 C742 0.950 . S
H735 C747 0.950 . S
H736 C744 0.950 . S
H737 C746 0.950 . S
H738 C748 0.950 . S
H739 C750 0.950 . S
H740 C752 0.950 . S
H741 C753 0.950 . S
C742 H734 0.950 . S
C742 C743 1.386 . S
C742 C744 1.391 . S
C743 C742 1.386 . S
C743 C747 1.393 . S
C744 H736 0.950 . S
C744 C742 1.391 . S
C744 C745 1.400 . S
C745 C744 1.400 . S
C745 C746 1.398 . S
C745 C751 1.491 . S
C746 H737 0.950 . S
C746 C745 1.398 . S
C746 C747 1.391 . S
C747 H735 0.950 . S
C747 C743 1.393 . S
C747 C746 1.391 . S
C748 H738 0.950 . S
C748 C749 1.386 . S
C748 C750 1.391 . S
C749 C748 1.386 . S
C749 C753 1.393 . S
C750 H739 0.950 . S
C750 C748 1.391 . S
C750 C751 1.400 . S
C751 C745 1.491 . S
C751 C750 1.400 . S
C751 C752 1.398 . S
C752 H740 0.950 . S
C752 C751 1.398 . S
C752 C753 1.391 . S
C753 H741 0.950 . S
C753 C749 1.393 . S
C753 C752 1.391 . S
H754 C762 0.950 . S
H755 C767 0.950 . S
H756 C764 0.950 . S
H757 C766 0.950 . S
H758 C768 0.950 . S
H759 C770 0.950 . S
H760 C772 0.950 . S
H761 C773 0.950 . S
C762 H754 0.950 . S
C762 C763 1.386 1_545 S
C762 C764 1.391 . S
C763 C762 1.386 1_565 S
C763 C767 1.393 . S
C764 H756 0.950 . S
C764 C762 1.391 . S
C764 C765 1.400 . S
C765 C764 1.400 . S
C765 C766 1.398 . S
C765 C771 1.491 . S
C766 H757 0.950 . S
C766 C765 1.398 . S
C766 C767 1.391 1_545 S
C767 H755 0.950 . S
C767 C763 1.393 . S
C767 C766 1.391 1_565 S
C768 H758 0.950 . S
C768 C769 1.386 . S
C768 C770 1.391 . S
C769 C768 1.386 . S
C769 C773 1.393 . S
C770 H759 0.950 . S
C770 C768 1.391 . S
C770 C771 1.400 . S
C771 C765 1.491 . S
C771 C770 1.400 . S
C771 C772 1.398 . S
C772 H760 0.950 . S
C772 C771 1.398 . S
C772 C773 1.391 . S
C773 H761 0.950 . S
C773 C769 1.393 . S
C773 C772 1.391 . S
H774 C782 0.950 . S
H775 C787 0.950 . S
H776 C784 0.950 . S
H777 C786 0.950 . S
H778 C788 0.950 1_556 S
H779 C790 0.950 . S
H780 C792 0.950 . S
H781 C793 0.950 . S
C782 H774 0.950 . S
C782 C783 1.386 . S
C782 C784 1.391 . S
C783 C782 1.386 . S
C783 C787 1.393 . S
C784 H776 0.950 . S
C784 C782 1.391 . S
C784 C785 1.400 . S
C785 C784 1.400 . S
C785 C786 1.398 . S
C785 C791 1.491 . S
C786 H777 0.950 . S
C786 C785 1.398 . S
C786 C787 1.391 . S
C787 H775 0.950 . S
C787 C783 1.393 . S
C787 C786 1.391 . S
C788 H778 0.950 1_554 S
C788 C789 1.386 . S
C788 C790 1.391 . S
C789 C788 1.386 . S
C789 C793 1.393 . S
C790 H779 0.950 . S
C790 C788 1.391 . S
C790 C791 1.400 . S
C791 C785 1.491 . S
C791 C790 1.400 . S
C791 C792 1.398 . S
C792 H780 0.950 . S
C792 C791 1.398 . S
C792 C793 1.391 . S
C793 H781 0.950 . S
C793 C789 1.393 . S
C793 C792 1.391 . S
H794 C802 0.950 . S
H795 C807 0.950 . S
H796 C804 0.950 . S
H797 C806 0.950 . S
H798 C808 0.950 . S
H799 C810 0.950 . S
H800 C812 0.950 1_556 S
H801 C813 0.950 . S
C802 H794 0.950 . S
C802 C803 1.386 . S
C802 C804 1.391 . S
C803 C802 1.386 . S
C803 C807 1.393 . S
C804 H796 0.950 . S
C804 C802 1.391 . S
C804 C805 1.400 . S
C805 C804 1.400 . S
C805 C806 1.398 . S
C805 C811 1.491 . S
C806 H797 0.950 . S
C806 C805 1.398 . S
C806 C807 1.391 . S
C807 H795 0.950 . S
C807 C803 1.393 . S
C807 C806 1.391 . S
C808 H798 0.950 . S
C808 C809 1.386 . S
C808 C810 1.391 . S
C809 C808 1.386 . S
C809 C813 1.393 1_554 S
C810 H799 0.950 . S
C810 C808 1.391 . S
C810 C811 1.400 . S
C811 C805 1.491 . S
C811 C810 1.400 . S
C811 C812 1.398 . S
C812 H800 0.950 1_554 S
C812 C811 1.398 . S
C812 C813 1.391 1_554 S
C813 H801 0.950 . S
C813 C809 1.393 1_556 S
C813 C812 1.391 1_556 S
H814 C822 0.950 . S
H815 C827 0.950 . S
H816 C824 0.950 . S
H817 C826 0.950 . S
H818 C828 0.950 . S
H819 C830 0.950 . S
H820 C832 0.950 1_556 S
H821 C833 0.950 . S
C822 H814 0.950 . S
C822 C823 1.386 . S
C822 C824 1.391 . S
C823 C822 1.386 . S
C823 C827 1.393 . S
C824 H816 0.950 . S
C824 C822 1.391 . S
C824 C825 1.400 . S
C825 C824 1.400 . S
C825 C826 1.398 . S
C825 C831 1.491 . S
C826 H817 0.950 . S
C826 C825 1.398 . S
C826 C827 1.391 . S
C827 H815 0.950 . S
C827 C823 1.393 . S
C827 C826 1.391 . S
C828 H818 0.950 . S
C828 C829 1.386 . S
C828 C830 1.391 . S
C829 C828 1.386 . S
C829 C833 1.393 1_554 S
C830 H819 0.950 . S
C830 C828 1.391 . S
C830 C831 1.400 . S
C831 C825 1.491 . S
C831 C830 1.400 . S
C831 C832 1.398 . S
C832 H820 0.950 1_554 S
C832 C831 1.398 . S
C832 C833 1.391 1_554 S
C833 H821 0.950 . S
C833 C829 1.393 1_556 S
C833 C832 1.391 1_556 S
H834 C842 0.950 . S
H835 C847 0.950 . S
H836 C844 0.950 . S
H837 C846 0.950 . S
H838 C848 0.950 1_554 S
H839 C850 0.950 . S
H840 C852 0.950 . S
H841 C853 0.950 . S
C842 H834 0.950 . S
C842 C843 1.386 . S
C842 C844 1.391 . S
C843 C842 1.386 . S
C843 C847 1.393 . S
C844 H836 0.950 . S
C844 C842 1.391 . S
C844 C845 1.400 . S
C845 C844 1.400 . S
C845 C846 1.398 . S
C845 C851 1.491 . S
C846 H837 0.950 . S
C846 C845 1.398 . S
C846 C847 1.391 . S
C847 H835 0.950 . S
C847 C843 1.393 . S
C847 C846 1.391 . S
C848 H838 0.950 1_556 S
C848 C849 1.386 . S
C848 C850 1.391 . S
C849 C848 1.386 . S
C849 C853 1.393 . S
C850 H839 0.950 . S
C850 C848 1.391 . S
C850 C851 1.400 . S
C851 C845 1.491 . S
C851 C850 1.400 . S
C851 C852 1.398 . S
C852 H840 0.950 . S
C852 C851 1.398 . S
C852 C853 1.391 . S
C853 H841 0.950 . S
C853 C849 1.393 . S
C853 C852 1.391 . S
H854 C862 0.950 . S
H855 C867 0.950 . S
H856 C864 0.950 . S
H857 C866 0.950 . S
H858 C868 0.950 . S
H859 C870 0.950 . S
H860 C872 0.950 . S
H861 C873 0.950 . S
C862 H854 0.950 . S
C862 C863 1.386 . S
C862 C864 1.391 . S
C863 C862 1.386 . S
C863 C867 1.393 . S
C864 H856 0.950 . S
C864 C862 1.391 . S
C864 C865 1.400 . S
C865 C864 1.400 . S
C865 C866 1.398 . S
C865 C871 1.491 . S
C866 H857 0.950 . S
C866 C865 1.398 . S
C866 C867 1.391 . S
C867 H855 0.950 . S
C867 C863 1.393 . S
C867 C866 1.391 . S
C868 H858 0.950 . S
C868 C869 1.386 . S
C868 C870 1.391 . S
C869 C868 1.386 . S
C869 C873 1.393 . S
C870 H859 0.950 . S
C870 C868 1.391 . S
C870 C871 1.400 . S
C871 C865 1.491 . S
C871 C870 1.400 . S
C871 C872 1.398 . S
C872 H860 0.950 . S
C872 C871 1.398 . S
C872 C873 1.391 . S
C873 H861 0.950 . S
C873 C869 1.393 . S
C873 C872 1.391 . S
H874 C882 0.950 . S
H875 C887 0.950 . S
H876 C884 0.950 . S
H877 C886 0.950 . S
H878 C888 0.950 . S
H879 C890 0.950 . S
H880 C892 0.950 . S
H881 C893 0.950 . S
C882 H874 0.950 . S
C882 C883 1.386 1_554 S
C882 C884 1.391 1_554 S
C883 C882 1.386 1_556 S
C883 C887 1.393 . S
C884 H876 0.950 . S
C884 C882 1.391 1_556 S
C884 C885 1.400 . S
C885 C884 1.400 . S
C885 C886 1.398 . S
C885 C891 1.491 . S
C886 H877 0.950 . S
C886 C885 1.398 . S
C886 C887 1.391 . S
C887 H875 0.950 . S
C887 C883 1.393 . S
C887 C886 1.391 . S
C888 H878 0.950 . S
C888 C889 1.386 . S
C888 C890 1.391 . S
C889 C888 1.386 . S
C889 C893 1.393 . S
C890 H879 0.950 . S
C890 C888 1.391 . S
C890 C891 1.400 . S
C891 C885 1.491 . S
C891 C890 1.400 . S
C891 C892 1.398 . S
C892 H880 0.950 . S
C892 C891 1.398 . S
C892 C893 1.391 . S
C893 H881 0.950 . S
C893 C889 1.393 . S
C893 C892 1.391 . S
H894 C902 0.950 . S
H895 C907 0.950 . S
H896 C904 0.950 . S
H897 C906 0.950 . S
H898 C908 0.950 . S
H899 C910 0.950 . S
H900 C912 0.950 . S
H901 C913 0.950 . S
C902 H894 0.950 . S
C902 C903 1.386 1_455 S
C902 C904 1.391 . S
C903 C902 1.386 1_655 S
C903 C907 1.393 . S
C904 H896 0.950 . S
C904 C902 1.391 . S
C904 C905 1.400 . S
C905 C904 1.400 . S
C905 C906 1.398 . S
C905 C911 1.491 . S
C906 H897 0.950 . S
C906 C905 1.398 . S
C906 C907 1.391 1_455 S
C907 H895 0.950 . S
C907 C903 1.393 . S
C907 C906 1.391 1_655 S
C908 H898 0.950 . S
C908 C909 1.386 . S
C908 C910 1.391 . S
C909 C908 1.386 . S
C909 C913 1.393 . S
C910 H899 0.950 . S
C910 C908 1.391 . S
C910 C911 1.400 . S
C911 C905 1.491 . S
C911 C910 1.400 . S
C911 C912 1.398 . S
C912 H900 0.950 . S
C912 C911 1.398 . S
C912 C913 1.391 . S
C913 H901 0.950 . S
C913 C909 1.393 . S
C913 C912 1.391 . S
H914 C922 0.950 . S
H915 C927 0.950 . S
H916 C924 0.950 . S
H917 C926 0.950 . S
H918 C928 0.950 . S
H919 C930 0.950 . S
H920 C932 0.950 . S
H921 C933 0.950 . S
C922 H914 0.950 . S
C922 C923 1.386 . S
C922 C924 1.391 . S
C923 C922 1.386 . S
C923 C927 1.393 . S
C924 H916 0.950 . S
C924 C922 1.391 . S
C924 C925 1.400 . S
C925 C924 1.400 . S
C925 C926 1.398 . S
C925 C931 1.491 . S
C926 H917 0.950 . S
C926 C925 1.398 . S
C926 C927 1.391 . S
C927 H915 0.950 . S
C927 C923 1.393 . S
C927 C926 1.391 . S
C928 H918 0.950 . S
C928 C929 1.386 . S
C928 C930 1.391 . S
C929 C928 1.386 . S
C929 C933 1.393 . S
C930 H919 0.950 . S
C930 C928 1.391 . S
C930 C931 1.400 . S
C931 C925 1.491 . S
C931 C930 1.400 . S
C931 C932 1.398 . S
C932 H920 0.950 . S
C932 C931 1.398 . S
C932 C933 1.391 . S
C933 H921 0.950 . S
C933 C929 1.393 . S
C933 C932 1.391 . S
H934 C942 0.950 . S
H935 C947 0.950 . S
H936 C944 0.950 . S
H937 C946 0.950 . S
H938 C948 0.950 . S
H939 C950 0.950 . S
H940 C952 0.950 . S
H941 C953 0.950 . S
C942 H934 0.950 . S
C942 C943 1.386 . S
C942 C944 1.391 . S
C943 C942 1.386 . S
C943 C947 1.393 . S
C944 H936 0.950 . S
C944 C942 1.391 . S
C944 C945 1.400 . S
C945 C944 1.400 . S
C945 C946 1.398 . S
C945 C951 1.491 . S
C946 H937 0.950 . S
C946 C945 1.398 . S
C946 C947 1.391 . S
C947 H935 0.950 . S
C947 C943 1.393 . S
C947 C946 1.391 . S
C948 H938 0.950 . S
C948 C949 1.386 1_565 S
C948 C950 1.391 . S
C949 C948 1.386 1_545 S
C949 C953 1.393 . S
C950 H939 0.950 . S
C950 C948 1.391 . S
C950 C951 1.400 . S
C951 C945 1.491 . S
C951 C950 1.400 . S
C951 C952 1.398 . S
C952 H940 0.950 . S
C952 C951 1.398 . S
C952 C953 1.391 1_565 S
C953 H941 0.950 . S
C953 C949 1.393 . S
C953 C952 1.391 1_545 S
H954 C962 0.950 . S
H955 C967 0.950 . S
H956 C964 0.950 . S
H957 C966 0.950 . S
H958 C968 0.950 . S
H959 C970 0.950 . S
H960 C972 0.950 . S
H961 C973 0.950 . S
C962 H954 0.950 . S
C962 C963 1.386 . S
C962 C964 1.391 . S
C963 C962 1.386 . S
C963 C967 1.393 . S
C964 H956 0.950 . S
C964 C962 1.391 . S
C964 C965 1.400 . S
C965 C964 1.400 . S
C965 C966 1.398 . S
C965 C971 1.491 . S
C966 H957 0.950 . S
C966 C965 1.398 . S
C966 C967 1.391 . S
C967 H955 0.950 . S
C967 C963 1.393 . S
C967 C966 1.391 . S
C968 H958 0.950 . S
C968 C969 1.386 . S
C968 C970 1.391 . S
C969 C968 1.386 . S
C969 C973 1.393 . S
C970 H959 0.950 . S
C970 C968 1.391 . S
C970 C971 1.400 . S
C971 C965 1.491 . S
C971 C970 1.400 . S
C971 C972 1.398 . S
C972 H960 0.950 . S
C972 C971 1.398 . S
C972 C973 1.391 . S
C973 H961 0.950 . S
C973 C969 1.393 . S
C973 C972 1.391 . S
H974 C982 0.950 . S
H975 C987 0.950 . S
H976 C984 0.950 . S
H977 C986 0.950 . S
H978 C988 0.950 . S
H979 C990 0.950 . S
H980 C992 0.950 . S
H981 C993 0.950 . S
C982 H974 0.950 . S
C982 C983 1.386 . S
C982 C984 1.391 . S
C983 C982 1.386 . S
C983 C987 1.393 . S
C984 H976 0.950 . S
C984 C982 1.391 . S
C984 C985 1.400 . S
C985 C984 1.400 . S
C985 C986 1.398 . S
C985 C991 1.491 . S
C986 H977 0.950 . S
C986 C985 1.398 . S
C986 C987 1.391 . S
C987 H975 0.950 . S
C987 C983 1.393 . S
C987 C986 1.391 . S
C988 H978 0.950 . S
C988 C989 1.386 . S
C988 C990 1.391 . S
C989 C988 1.386 . S
C989 C993 1.393 . S
C990 H979 0.950 . S
C990 C988 1.391 . S
C990 C991 1.400 . S
C991 C985 1.491 . S
C991 C990 1.400 . S
C991 C992 1.398 . S
C992 H980 0.950 . S
C992 C991 1.398 . S
C992 C993 1.391 . S
C993 H981 0.950 . S
C993 C989 1.393 . S
C993 C992 1.391 . S
H994 C1002 0.950 . S
H995 C1007 0.950 . S
H996 C1004 0.950 . S
H997 C1006 0.950 . S
H998 C1008 0.950 . S
H999 C1010 0.950 . S
H1000 C1012 0.950 . S
H1001 C1013 0.950 . S
C1002 H994 0.950 . S
C1002 C1003 1.386 . S
C1002 C1004 1.391 . S
C1003 C1002 1.386 . S
C1003 C1007 1.393 . S
C1004 H996 0.950 . S
C1004 C1002 1.391 . S
C1004 C1005 1.400 . S
C1005 C1004 1.400 . S
C1005 C1006 1.398 . S
C1005 C1011 1.491 . S
C1006 H997 0.950 . S
C1006 C1005 1.398 . S
C1006 C1007 1.391 . S
C1007 H995 0.950 . S
C1007 C1003 1.393 . S
C1007 C1006 1.391 . S
C1008 H998 0.950 . S
C1008 C1009 1.386 . S
C1008 C1010 1.391 . S
C1009 C1008 1.386 . S
C1009 C1013 1.393 . S
C1010 H999 0.950 . S
C1010 C1008 1.391 . S
C1010 C1011 1.400 . S
C1011 C1005 1.491 . S
C1011 C1010 1.400 . S
C1011 C1012 1.398 . S
C1012 H1000 0.950 . S
C1012 C1011 1.398 . S
C1012 C1013 1.391 . S
C1013 H1001 0.950 . S
C1013 C1009 1.393 . S
C1013 C1012 1.391 . S
H1014 C1022 0.950 . S
H1015 C1027 0.950 . S
H1016 C1024 0.950 . S
H1017 C1026 0.950 . S
H1018 C1028 0.950 . S
H1019 C1030 0.950 . S
H1020 C1032 0.950 . S
H1021 C1033 0.950 . S
C1022 H1014 0.950 . S
C1022 C1023 1.386 . S
C1022 C1024 1.391 . S
C1023 C1022 1.386 . S
C1023 C1027 1.393 . S
C1024 H1016 0.950 . S
C1024 C1022 1.391 . S
C1024 C1025 1.400 . S
C1025 C1024 1.400 . S
C1025 C1026 1.398 . S
C1025 C1031 1.491 . S
C1026 H1017 0.950 . S
C1026 C1025 1.398 . S
C1026 C1027 1.391 . S
C1027 H1015 0.950 . S
C1027 C1023 1.393 . S
C1027 C1026 1.391 . S
C1028 H1018 0.950 . S
C1028 C1029 1.386 . S
C1028 C1030 1.391 . S
C1029 C1028 1.386 . S
C1029 C1033 1.393 . S
C1030 H1019 0.950 . S
C1030 C1028 1.391 . S
C1030 C1031 1.400 . S
C1031 C1025 1.491 . S
C1031 C1030 1.400 . S
C1031 C1032 1.398 . S
C1032 H1020 0.950 . S
C1032 C1031 1.398 . S
C1032 C1033 1.391 . S
C1033 H1021 0.950 . S
C1033 C1029 1.393 . S
C1033 C1032 1.391 . S
H1034 C1042 0.950 . S
H1035 C1047 0.950 . S
H1036 C1044 0.950 . S
H1037 C1046 0.950 . S
H1038 C1048 0.950 . S
H1039 C1050 0.950 . S
H1040 C1052 0.950 . S
H1041 C1053 0.950 . S
C1042 H1034 0.950 . S
C1042 C1043 1.386 . S
C1042 C1044 1.391 . S
C1043 C1042 1.386 . S
C1043 C1047 1.393 . S
C1044 H1036 0.950 . S
C1044 C1042 1.391 . S
C1044 C1045 1.400 . S
C1045 C1044 1.400 . S
C1045 C1046 1.398 . S
C1045 C1051 1.491 . S
C1046 H1037 0.950 . S
C1046 C1045 1.398 . S
C1046 C1047 1.391 . S
C1047 H1035 0.950 . S
C1047 C1043 1.393 . S
C1047 C1046 1.391 . S
C1048 H1038 0.950 . S
C1048 C1049 1.386 . S
C1048 C1050 1.391 . S
C1049 C1048 1.386 . S
C1049 C1053 1.393 . S
C1050 H1039 0.950 . S
C1050 C1048 1.391 . S
C1050 C1051 1.400 . S
C1051 C1045 1.491 . S
C1051 C1050 1.400 . S
C1051 C1052 1.398 . S
C1052 H1040 0.950 . S
C1052 C1051 1.398 . S
C1052 C1053 1.391 . S
C1053 H1041 0.950 . S
C1053 C1049 1.393 . S
C1053 C1052 1.391 . S
H1054 C1062 0.950 . S
H1055 C1067 0.950 . S
H1056 C1064 0.950 . S
H1057 C1066 0.950 . S
H1058 C1068 0.950 . S
H1059 C1070 0.950 . S
H1060 C1072 0.950 . S
H1061 C1073 0.950 . S
C1062 H1054 0.950 . S
C1062 C1063 1.386 . S
C1062 C1064 1.391 . S
C1063 C1062 1.386 . S
C1063 C1067 1.393 . S
C1064 H1056 0.950 . S
C1064 C1062 1.391 . S
C1064 C1065 1.400 . S
C1065 C1064 1.400 . S
C1065 C1066 1.398 . S
C1065 C1071 1.491 . S
C1066 H1057 0.950 . S
C1066 C1065 1.398 . S
C1066 C1067 1.391 . S
C1067 H1055 0.950 . S
C1067 C1063 1.393 . S
C1067 C1066 1.391 . S
C1068 H1058 0.950 . S
C1068 C1069 1.386 . S
C1068 C1070 1.391 . S
C1069 C1068 1.386 . S
C1069 C1073 1.393 . S
C1070 H1059 0.950 . S
C1070 C1068 1.391 . S
C1070 C1071 1.400 . S
C1071 C1065 1.491 . S
C1071 C1070 1.400 . S
C1071 C1072 1.398 . S
C1072 H1060 0.950 . S
C1072 C1071 1.398 . S
C1072 C1073 1.391 . S
C1073 H1061 0.950 . S
C1073 C1069 1.393 . S
C1073 C1072 1.391 . S
H1074 C1082 0.945 1_565 S
H1075 C1087 0.950 . S
H1076 C1084 0.950 . S
H1077 C1086 0.950 . S
H1078 C1088 0.945 1_545 S
H1079 C1090 0.950 . S
H1080 C1092 0.950 . S
H1081 C1093 0.950 . S
C1082 H1074 0.945 1_545 S
C1082 C1083 1.407 . S
C1082 C1084 1.375 1_545 S
C1083 C1082 1.407 . S
C1083 C1087 1.393 . S
C1084 H1076 0.950 . S
C1084 C1082 1.375 1_565 S
C1084 C1085 1.400 1_565 S
C1085 C1084 1.400 1_545 S
C1085 C1086 1.398 . S
C1085 C1091 1.491 1_544 S
C1086 H1077 0.950 . S
C1086 C1085 1.398 . S
C1086 C1087 1.391 . S
C1087 H1075 0.950 . S
C1087 C1083 1.393 . S
C1087 C1086 1.391 . S
C1088 H1078 0.945 1_565 S
C1088 C1089 1.407 . S
C1088 C1090 1.375 1_565 S
C1089 C1088 1.407 . S
C1089 C1093 1.393 . S
C1090 H1079 0.950 . S
C1090 C1088 1.375 1_545 S
C1090 C1091 1.400 1_545 S
C1091 C1085 1.491 1_566 S
C1091 C1090 1.400 1_565 S
C1091 C1092 1.398 . S
C1092 H1080 0.950 . S
C1092 C1091 1.398 . S
C1092 C1093 1.391 . S
C1093 H1081 0.950 . S
C1093 C1089 1.393 . S
C1093 C1092 1.391 . S
H1094 C1102 0.950 . S
H1095 C1107 0.950 . S
H1096 C1104 0.934 1_554 S
H1097 C1106 0.950 . S
H1098 C1108 0.950 . S
H1099 C1110 0.934 1_556 S
H1100 C1112 0.950 . S
H1101 C1113 0.950 . S
C1102 H1094 0.950 . S
C1102 C1103 1.386 . S
C1102 C1104 1.391 . S
C1103 C1102 1.386 . S
C1103 C1107 1.393 . S
C1104 H1096 0.934 1_556 S
C1104 C1102 1.391 . S
C1104 C1105 1.400 . S
C1105 C1104 1.400 . S
C1105 C1106 1.398 . S
C1105 C1111 1.491 1_456 S
C1106 H1097 0.950 . S
C1106 C1105 1.398 . S
C1106 C1107 1.391 . S
C1107 H1095 0.950 . S
C1107 C1103 1.393 . S
C1107 C1106 1.391 . S
C1108 H1098 0.950 . S
C1108 C1109 1.386 . S
C1108 C1110 1.391 . S
C1109 C1108 1.386 . S
C1109 C1113 1.393 . S
C1110 H1099 0.934 1_554 S
C1110 C1108 1.391 . S
C1110 C1111 1.400 . S
C1111 C1105 1.491 1_654 S
C1111 C1110 1.400 . S
C1111 C1112 1.398 . S
C1112 H1100 0.950 . S
C1112 C1111 1.398 . S
C1112 C1113 1.391 . S
C1113 H1101 0.950 . S
C1113 C1109 1.393 . S
C1113 C1112 1.391 . S
H1114 C1122 0.950 . S
H1115 C1127 0.950 . S
H1116 C1124 0.950 1_554 S
H1117 C1126 0.950 . S
H1118 C1128 0.950 . S
H1119 C1130 0.950 1_556 S
H1120 C1132 0.950 . S
H1121 C1133 0.950 . S
C1122 H1114 0.950 . S
C1122 C1123 1.386 . S
C1122 C1124 1.391 . S
C1123 C1122 1.386 . S
C1123 C1127 1.393 . S
C1124 H1116 0.950 1_556 S
C1124 C1122 1.391 . S
C1124 C1125 1.400 . S
C1125 C1124 1.400 . S
C1125 C1126 1.398 . S
C1125 C1131 1.491 1_556 S
C1126 H1117 0.950 . S
C1126 C1125 1.398 . S
C1126 C1127 1.391 . S
C1127 H1115 0.950 . S
C1127 C1123 1.393 . S
C1127 C1126 1.391 . S
C1128 H1118 0.950 . S
C1128 C1129 1.386 . S
C1128 C1130 1.391 . S
C1129 C1128 1.386 . S
C1129 C1133 1.393 . S
C1130 H1119 0.950 1_554 S
C1130 C1128 1.391 . S
C1130 C1131 1.400 . S
C1131 C1125 1.491 1_554 S
C1131 C1130 1.400 . S
C1131 C1132 1.398 . S
C1132 H1120 0.950 . S
C1132 C1131 1.398 . S
C1132 C1133 1.391 . S
C1133 H1121 0.950 . S
C1133 C1129 1.393 . S
C1133 C1132 1.391 . S
H1134 C1142 0.950 . S
H1135 C1147 0.950 . S
H1136 C1144 0.950 . S
H1137 C1146 0.950 . S
H1138 C1148 0.950 . S
H1139 C1150 0.950 . S
H1140 C1152 0.950 . S
H1141 C1153 0.950 . S
C1142 H1134 0.950 . S
C1142 C1143 1.386 . S
C1142 C1144 1.391 . S
C1143 C1142 1.386 . S
C1143 C1147 1.393 1_554 S
C1144 H1136 0.950 . S
C1144 C1142 1.391 . S
C1144 C1145 1.400 1_554 S
C1145 C1144 1.400 1_556 S
C1145 C1146 1.398 . S
C1145 C1151 1.491 . S
C1146 H1137 0.950 . S
C1146 C1145 1.398 . S
C1146 C1147 1.391 . S
C1147 H1135 0.950 . S
C1147 C1143 1.393 1_556 S
C1147 C1146 1.391 . S
C1148 H1138 0.950 . S
C1148 C1149 1.386 . S
C1148 C1150 1.391 . S
C1149 C1148 1.386 . S
C1149 C1153 1.393 . S
C1150 H1139 0.950 . S
C1150 C1148 1.391 . S
C1150 C1151 1.400 . S
C1151 C1145 1.491 . S
C1151 C1150 1.400 . S
C1151 C1152 1.398 . S
C1152 H1140 0.950 . S
C1152 C1151 1.398 . S
C1152 C1153 1.391 . S
C1153 H1141 0.950 . S
C1153 C1149 1.393 . S
C1153 C1152 1.391 . S
H1154 C1162 0.950 . S
H1155 C1167 0.950 . S
H1156 C1164 0.950 . S
H1157 C1166 0.950 1_554 S
H1158 C1168 0.950 . S
H1159 C1170 0.950 . S
H1160 C1172 0.950 . S
H1161 C1173 0.950 . S
C1162 H1154 0.950 . S
C1162 C1163 1.386 . S
C1162 C1164 1.391 . S
C1163 C1162 1.386 . S
C1163 C1167 1.393 . S
C1164 H1156 0.950 . S
C1164 C1162 1.391 . S
C1164 C1165 1.400 . S
C1165 C1164 1.400 . S
C1165 C1166 1.398 . S
C1165 C1171 1.491 . S
C1166 H1157 0.950 1_556 S
C1166 C1165 1.398 . S
C1166 C1167 1.391 . S
C1167 H1155 0.950 . S
C1167 C1163 1.393 . S
C1167 C1166 1.391 . S
C1168 H1158 0.950 . S
C1168 C1169 1.386 . S
C1168 C1170 1.391 . S
C1169 C1168 1.386 . S
C1169 C1173 1.393 1_554 S
C1170 H1159 0.950 . S
C1170 C1168 1.391 . S
C1170 C1171 1.400 1_554 S
C1171 C1165 1.491 . S
C1171 C1170 1.400 1_556 S
C1171 C1172 1.398 . S
C1172 H1160 0.950 . S
C1172 C1171 1.398 . S
C1172 C1173 1.391 . S
C1173 H1161 0.950 . S
C1173 C1169 1.393 1_556 S
C1173 C1172 1.391 . S
H1174 C1182 0.950 . S
H1175 C1187 0.950 . S
H1176 C1184 0.950 . S
H1177 C1186 0.950 . S
H1178 C1188 0.950 . S
H1179 C1190 0.950 . S
H1180 C1192 0.950 1_554 S
H1181 C1193 0.950 . S
C1182 H1174 0.950 . S
C1182 C1183 1.386 . S
C1182 C1184 1.391 . S
C1183 C1182 1.386 . S
C1183 C1187 1.393 1_554 S
C1184 H1176 0.950 . S
C1184 C1182 1.391 . S
C1184 C1185 1.400 1_554 S
C1185 C1184 1.400 1_556 S
C1185 C1186 1.398 . S
C1185 C1191 1.491 . S
C1186 H1177 0.950 . S
C1186 C1185 1.398 . S
C1186 C1187 1.391 . S
C1187 H1175 0.950 . S
C1187 C1183 1.393 1_556 S
C1187 C1186 1.391 . S
C1188 H1178 0.950 . S
C1188 C1189 1.386 . S
C1188 C1190 1.391 . S
C1189 C1188 1.386 . S
C1189 C1193 1.393 . S
C1190 H1179 0.950 . S
C1190 C1188 1.391 . S
C1190 C1191 1.400 . S
C1191 C1185 1.491 . S
C1191 C1190 1.400 . S
C1191 C1192 1.398 . S
C1192 H1180 0.950 1_556 S
C1192 C1191 1.398 . S
C1192 C1193 1.391 . S
C1193 H1181 0.950 . S
C1193 C1189 1.393 . S
C1193 C1192 1.391 . S
H1194 C1202 0.950 . S
H1195 C1207 0.950 . S
H1196 C1204 0.950 . S
H1197 C1206 0.950 . S
H1198 C1208 0.950 . S
H1199 C1210 0.950 . S
H1200 C1212 0.950 . S
H1201 C1213 0.950 . S
C1202 H1194 0.950 . S
C1202 C1203 1.386 . S
C1202 C1204 1.391 . S
C1203 C1202 1.386 . S
C1203 C1207 1.393 . S
C1204 H1196 0.950 . S
C1204 C1202 1.391 . S
C1204 C1205 1.400 . S
C1205 C1204 1.400 . S
C1205 C1206 1.398 . S
C1205 C1211 1.491 . S
C1206 H1197 0.950 . S
C1206 C1205 1.398 . S
C1206 C1207 1.391 . S
C1207 H1195 0.950 . S
C1207 C1203 1.393 . S
C1207 C1206 1.391 . S
C1208 H1198 0.950 . S
C1208 C1209 1.386 . S
C1208 C1210 1.391 . S
C1209 C1208 1.386 . S
C1209 C1213 1.393 1_556 S
C1210 H1199 0.950 . S
C1210 C1208 1.391 . S
C1210 C1211 1.400 1_556 S
C1211 C1205 1.491 . S
C1211 C1210 1.400 1_554 S
C1211 C1212 1.398 . S
C1212 H1200 0.950 . S
C1212 C1211 1.398 . S
C1212 C1213 1.391 . S
C1213 H1201 0.950 . S
C1213 C1209 1.393 1_554 S
C1213 C1212 1.391 . S
H1214 C1222 0.950 . S
H1215 C1227 0.950 . S
H1216 C1224 0.950 . S
H1217 C1226 0.950 . S
H1218 C1228 0.950 . S
H1219 C1230 0.950 . S
H1220 C1232 0.950 1_556 S
H1221 C1233 0.950 . S
C1222 H1214 0.950 . S
C1222 C1223 1.386 . S
C1222 C1224 1.391 . S
C1223 C1222 1.386 . S
C1223 C1227 1.393 1_556 S
C1224 H1216 0.950 . S
C1224 C1222 1.391 . S
C1224 C1225 1.400 1_556 S
C1225 C1224 1.400 1_554 S
C1225 C1226 1.398 . S
C1225 C1231 1.491 . S
C1226 H1217 0.950 . S
C1226 C1225 1.398 . S
C1226 C1227 1.391 . S
C1227 H1215 0.950 . S
C1227 C1223 1.393 1_554 S
C1227 C1226 1.391 . S
C1228 H1218 0.950 . S
C1228 C1229 1.386 . S
C1228 C1230 1.391 . S
C1229 C1228 1.386 . S
C1229 C1233 1.393 . S
C1230 H1219 0.950 . S
C1230 C1228 1.391 . S
C1230 C1231 1.400 . S
C1231 C1225 1.491 . S
C1231 C1230 1.400 . S
C1231 C1232 1.398 . S
C1232 H1220 0.950 1_554 S
C1232 C1231 1.398 . S
C1232 C1233 1.391 . S
C1233 H1221 0.950 . S
C1233 C1229 1.393 . S
C1233 C1232 1.391 . S
H1234 C1242 0.950 . S
H1235 C1247 0.950 . S
H1236 C1244 0.950 . S
H1237 C1246 0.950 1_556 S
H1238 C1248 0.950 . S
H1239 C1250 0.950 . S
H1240 C1252 0.950 . S
H1241 C1253 0.950 . S
C1242 H1234 0.950 . S
C1242 C1243 1.386 . S
C1242 C1244 1.391 . S
C1243 C1242 1.386 . S
C1243 C1247 1.393 . S
C1244 H1236 0.950 . S
C1244 C1242 1.391 . S
C1244 C1245 1.400 . S
C1245 C1244 1.400 . S
C1245 C1246 1.398 . S
C1245 C1251 1.491 . S
C1246 H1237 0.950 1_554 S
C1246 C1245 1.398 . S
C1246 C1247 1.391 . S
C1247 H1235 0.950 . S
C1247 C1243 1.393 . S
C1247 C1246 1.391 . S
C1248 H1238 0.950 . S
C1248 C1249 1.386 . S
C1248 C1250 1.391 . S
C1249 C1248 1.386 . S
C1249 C1253 1.393 1_556 S
C1250 H1239 0.950 . S
C1250 C1248 1.391 . S
C1250 C1251 1.400 1_556 S
C1251 C1245 1.491 . S
C1251 C1250 1.400 1_554 S
C1251 C1252 1.398 . S
C1252 H1240 0.950 . S
C1252 C1251 1.398 . S
C1252 C1253 1.391 . S
C1253 H1241 0.950 . S
C1253 C1249 1.393 1_554 S
C1253 C1252 1.391 . S
H1254 C1262 0.950 . S
H1255 C1267 0.950 . S
H1256 C1264 0.950 . S
H1257 C1266 0.950 . S
H1258 C1268 0.950 . S
H1259 C1270 0.950 . S
H1260 C1272 0.950 . S
H1261 C1273 0.950 . S
C1262 H1254 0.950 . S
C1262 C1263 1.386 . S
C1262 C1264 1.391 . S
C1263 C1262 1.386 . S
C1263 C1267 1.393 . S
C1264 H1256 0.950 . S
C1264 C1262 1.391 . S
C1264 C1265 1.400 . S
C1265 C1264 1.400 . S
C1265 C1266 1.398 . S
C1265 C1271 1.491 . S
C1266 H1257 0.950 . S
C1266 C1265 1.398 . S
C1266 C1267 1.391 . S
C1267 H1255 0.950 . S
C1267 C1263 1.393 . S
C1267 C1266 1.391 . S
C1268 H1258 0.950 . S
C1268 C1269 1.386 . S
C1268 C1270 1.391 . S
C1269 C1268 1.386 . S
C1269 C1273 1.393 . S
C1270 H1259 0.950 . S
C1270 C1268 1.391 . S
C1270 C1271 1.400 . S
C1271 C1265 1.491 . S
C1271 C1270 1.400 . S
C1271 C1272 1.398 . S
C1272 H1260 0.950 . S
C1272 C1271 1.398 . S
C1272 C1273 1.391 . S
C1273 H1261 0.950 . S
C1273 C1269 1.393 . S
C1273 C1272 1.391 . S
H1274 C1282 0.950 . S
H1275 C1287 0.950 . S
H1276 C1284 0.950 . S
H1277 C1286 0.950 . S
H1278 C1288 0.950 . S
H1279 C1290 0.950 . S
H1280 C1292 0.950 . S
H1281 C1293 0.950 . S
C1282 H1274 0.950 . S
C1282 C1283 1.386 . S
C1282 C1284 1.391 . S
C1283 C1282 1.386 . S
C1283 C1287 1.393 . S
C1284 H1276 0.950 . S
C1284 C1282 1.391 . S
C1284 C1285 1.400 . S
C1285 C1284 1.400 . S
C1285 C1286 1.398 . S
C1285 C1291 1.491 . S
C1286 H1277 0.950 . S
C1286 C1285 1.398 . S
C1286 C1287 1.391 . S
C1287 H1275 0.950 . S
C1287 C1283 1.393 . S
C1287 C1286 1.391 . S
C1288 H1278 0.950 . S
C1288 C1289 1.386 . S
C1288 C1290 1.391 . S
C1289 C1288 1.386 . S
C1289 C1293 1.393 . S
C1290 H1279 0.950 . S
C1290 C1288 1.391 . S
C1290 C1291 1.400 . S
C1291 C1285 1.491 . S
C1291 C1290 1.400 . S
C1291 C1292 1.398 . S
C1292 H1280 0.950 . S
C1292 C1291 1.398 . S
C1292 C1293 1.391 . S
C1293 H1281 0.950 . S
C1293 C1289 1.393 . S
C1293 C1292 1.391 . S
H1294 C1302 0.950 . S
H1295 C1307 0.950 . S
H1296 C1304 0.950 . S
H1297 C1306 0.950 . S
H1298 C1308 0.950 . S
H1299 C1310 0.950 . S
H1300 C1312 0.950 . S
H1301 C1313 0.950 . S
C1302 H1294 0.950 . S
C1302 C1303 1.386 . S
C1302 C1304 1.391 . S
C1303 C1302 1.386 . S
C1303 C1307 1.393 . S
C1304 H1296 0.950 . S
C1304 C1302 1.391 . S
C1304 C1305 1.400 . S
C1305 C1304 1.400 . S
C1305 C1306 1.398 . S
C1305 C1311 1.491 . S
C1306 H1297 0.950 . S
C1306 C1305 1.398 . S
C1306 C1307 1.391 . S
C1307 H1295 0.950 . S
C1307 C1303 1.393 . S
C1307 C1306 1.391 . S
C1308 H1298 0.950 . S
C1308 C1309 1.386 . S
C1308 C1310 1.391 . S
C1309 C1308 1.386 . S
C1309 C1313 1.393 . S
C1310 H1299 0.950 . S
C1310 C1308 1.391 . S
C1310 C1311 1.400 . S
C1311 C1305 1.491 . S
C1311 C1310 1.400 . S
C1311 C1312 1.398 . S
C1312 H1300 0.950 . S
C1312 C1311 1.398 . S
C1312 C1313 1.391 . S
C1313 H1301 0.950 . S
C1313 C1309 1.393 . S
C1313 C1312 1.391 . S
H1314 C1322 0.950 . S
H1315 C1327 0.950 . S
H1316 C1324 0.950 . S
H1317 C1326 0.950 . S
H1318 C1328 0.950 . S
H1319 C1330 0.950 . S
H1320 C1332 0.950 . S
H1321 C1333 0.950 . S
C1322 H1314 0.950 . S
C1322 C1323 1.386 . S
C1322 C1324 1.391 . S
C1323 C1322 1.386 . S
C1323 C1327 1.393 . S
C1324 H1316 0.950 . S
C1324 C1322 1.391 . S
C1324 C1325 1.400 . S
C1325 C1324 1.400 . S
C1325 C1326 1.398 . S
C1325 C1331 1.491 . S
C1326 H1317 0.950 . S
C1326 C1325 1.398 . S
C1326 C1327 1.391 . S
C1327 H1315 0.950 . S
C1327 C1323 1.393 . S
C1327 C1326 1.391 . S
C1328 H1318 0.950 . S
C1328 C1329 1.386 . S
C1328 C1330 1.391 . S
C1329 C1328 1.386 . S
C1329 C1333 1.393 . S
C1330 H1319 0.950 . S
C1330 C1328 1.391 . S
C1330 C1331 1.400 . S
C1331 C1325 1.491 . S
C1331 C1330 1.400 . S
C1331 C1332 1.398 . S
C1332 H1320 0.950 . S
C1332 C1331 1.398 . S
C1332 C1333 1.391 . S
C1333 H1321 0.950 . S
C1333 C1329 1.393 . S
C1333 C1332 1.391 . S
H1334 C1342 0.950 . S
H1335 C1347 0.950 . S
H1336 C1344 0.950 . S
H1337 C1346 0.950 . S
H1338 C1348 0.950 . S
H1339 C1350 0.950 . S
H1340 C1352 0.950 . S
H1341 C1353 0.950 . S
C1342 H1334 0.950 . S
C1342 C1343 1.386 . S
C1342 C1344 1.391 . S
C1343 C1342 1.386 . S
C1343 C1347 1.393 . S
C1344 H1336 0.950 . S
C1344 C1342 1.391 . S
C1344 C1345 1.400 . S
C1345 C1344 1.400 . S
C1345 C1346 1.398 . S
C1345 C1351 1.491 . S
C1346 H1337 0.950 . S
C1346 C1345 1.398 . S
C1346 C1347 1.391 . S
C1347 H1335 0.950 . S
C1347 C1343 1.393 . S
C1347 C1346 1.391 . S
C1348 H1338 0.950 . S
C1348 C1349 1.386 . S
C1348 C1350 1.391 . S
C1349 C1348 1.386 . S
C1349 C1353 1.393 . S
C1350 H1339 0.950 . S
C1350 C1348 1.391 . S
C1350 C1351 1.400 . S
C1351 C1345 1.491 . S
C1351 C1350 1.400 . S
C1351 C1352 1.398 . S
C1352 H1340 0.950 . S
C1352 C1351 1.398 . S
C1352 C1353 1.391 . S
C1353 H1341 0.950 . S
C1353 C1349 1.393 . S
C1353 C1352 1.391 . S
H1354 C1362 0.950 . S
H1355 C1367 0.950 . S
H1356 C1364 0.950 . S
H1357 C1366 0.950 . S
H1358 C1368 0.950 . S
H1359 C1370 0.950 . S
H1360 C1372 0.950 . S
H1361 C1373 0.950 . S
C1362 H1354 0.950 . S
C1362 C1363 1.386 . S
C1362 C1364 1.391 . S
C1363 C1362 1.386 . S
C1363 C1367 1.393 . S
C1364 H1356 0.950 . S
C1364 C1362 1.391 . S
C1364 C1365 1.400 . S
C1365 C1364 1.400 . S
C1365 C1366 1.398 . S
C1365 C1371 1.491 . S
C1366 H1357 0.950 . S
C1366 C1365 1.398 . S
C1366 C1367 1.391 . S
C1367 H1355 0.950 . S
C1367 C1363 1.393 . S
C1367 C1366 1.391 . S
C1368 H1358 0.950 . S
C1368 C1369 1.386 . S
C1368 C1370 1.391 . S
C1369 C1368 1.386 . S
C1369 C1373 1.393 . S
C1370 H1359 0.950 . S
C1370 C1368 1.391 . S
C1370 C1371 1.400 . S
C1371 C1365 1.491 . S
C1371 C1370 1.400 . S
C1371 C1372 1.398 . S
C1372 H1360 0.950 . S
C1372 C1371 1.398 . S
C1372 C1373 1.391 . S
C1373 H1361 0.950 . S
C1373 C1369 1.393 . S
C1373 C1372 1.391 . S
H1374 C1382 0.950 . S
H1375 C1387 0.950 . S
H1376 C1384 0.950 . S
H1377 C1386 0.950 . S
H1378 C1388 0.950 . S
H1379 C1390 0.950 . S
H1380 C1392 0.950 . S
H1381 C1393 0.950 . S
C1382 H1374 0.950 . S
C1382 C1383 1.386 . S
C1382 C1384 1.391 . S
C1383 C1382 1.386 . S
C1383 C1387 1.393 . S
C1384 H1376 0.950 . S
C1384 C1382 1.391 . S
C1384 C1385 1.400 . S
C1385 C1384 1.400 . S
C1385 C1386 1.398 . S
C1385 C1391 1.491 . S
C1386 H1377 0.950 . S
C1386 C1385 1.398 . S
C1386 C1387 1.391 . S
C1387 H1375 0.950 . S
C1387 C1383 1.393 . S
C1387 C1386 1.391 . S
C1388 H1378 0.950 . S
C1388 C1389 1.386 . S
C1388 C1390 1.391 . S
C1389 C1388 1.386 . S
C1389 C1393 1.393 . S
C1390 H1379 0.950 . S
C1390 C1388 1.391 . S
C1390 C1391 1.400 . S
C1391 C1385 1.491 . S
C1391 C1390 1.400 . S
C1391 C1392 1.398 . S
C1392 H1380 0.950 . S
C1392 C1391 1.398 . S
C1392 C1393 1.391 . S
C1393 H1381 0.950 . S
C1393 C1389 1.393 . S
C1393 C1392 1.391 . S
H1394 C1402 0.950 . S
H1395 C1407 0.950 . S
H1396 C1404 0.950 . S
H1397 C1406 0.950 . S
H1398 C1408 0.950 . S
H1399 C1410 0.950 . S
H1400 C1412 0.950 . S
H1401 C1413 0.950 . S
C1402 H1394 0.950 . S
C1402 C1403 1.386 . S
C1402 C1404 1.391 . S
C1403 C1402 1.386 . S
C1403 C1407 1.393 . S
C1404 H1396 0.950 . S
C1404 C1402 1.391 . S
C1404 C1405 1.400 . S
C1405 C1404 1.400 . S
C1405 C1406 1.398 . S
C1405 C1411 1.491 . S
C1406 H1397 0.950 . S
C1406 C1405 1.398 . S
C1406 C1407 1.391 . S
C1407 H1395 0.950 . S
C1407 C1403 1.393 . S
C1407 C1406 1.391 . S
C1408 H1398 0.950 . S
C1408 C1409 1.386 . S
C1408 C1410 1.391 . S
C1409 C1408 1.386 . S
C1409 C1413 1.393 . S
C1410 H1399 0.950 . S
C1410 C1408 1.391 . S
C1410 C1411 1.400 . S
C1411 C1405 1.491 . S
C1411 C1410 1.400 . S
C1411 C1412 1.398 . S
C1412 H1400 0.950 . S
C1412 C1411 1.398 . S
C1412 C1413 1.391 . S
C1413 H1401 0.950 . S
C1413 C1409 1.393 . S
C1413 C1412 1.391 . S
H1414 C1422 0.950 . S
H1415 C1427 0.950 . S
H1416 C1424 0.950 . S
H1417 C1426 0.950 . S
H1418 C1428 0.950 . S
H1419 C1430 0.950 . S
H1420 C1432 0.950 . S
H1421 C1433 0.950 . S
C1422 H1414 0.950 . S
C1422 C1423 1.386 . S
C1422 C1424 1.391 . S
C1423 C1422 1.386 . S
C1423 C1427 1.393 . S
C1424 H1416 0.950 . S
C1424 C1422 1.391 . S
C1424 C1425 1.400 . S
C1425 C1424 1.400 . S
C1425 C1426 1.398 . S
C1425 C1431 1.491 . S
C1426 H1417 0.950 . S
C1426 C1425 1.398 . S
C1426 C1427 1.391 . S
C1427 H1415 0.950 . S
C1427 C1423 1.393 . S
C1427 C1426 1.391 . S
C1428 H1418 0.950 . S
C1428 C1429 1.386 . S
C1428 C1430 1.391 . S
C1429 C1428 1.386 . S
C1429 C1433 1.393 . S
C1430 H1419 0.950 . S
C1430 C1428 1.391 . S
C1430 C1431 1.400 . S
C1431 C1425 1.491 . S
C1431 C1430 1.400 . S
C1431 C1432 1.398 . S
C1432 H1420 0.950 . S
C1432 C1431 1.398 . S
C1432 C1433 1.391 . S
C1433 H1421 0.950 . S
C1433 C1429 1.393 . S
C1433 C1432 1.391 . S
H1434 C1442 0.950 . S
H1435 C1447 0.950 . S
H1436 C1444 0.950 . S
H1437 C1446 0.950 . S
H1438 C1448 0.950 . S
H1439 C1450 0.950 . S
H1440 C1452 0.950 . S
H1441 C1453 0.950 . S
C1442 H1434 0.950 . S
C1442 C1443 1.386 . S
C1442 C1444 1.391 . S
C1443 C1442 1.386 . S
C1443 C1447 1.393 . S
C1444 H1436 0.950 . S
C1444 C1442 1.391 . S
C1444 C1445 1.400 . S
C1445 C1444 1.400 . S
C1445 C1446 1.398 . S
C1445 C1451 1.491 . S
C1446 H1437 0.950 . S
C1446 C1445 1.398 . S
C1446 C1447 1.391 . S
C1447 H1435 0.950 . S
C1447 C1443 1.393 . S
C1447 C1446 1.391 . S
C1448 H1438 0.950 . S
C1448 C1449 1.386 . S
C1448 C1450 1.391 . S
C1449 C1448 1.386 . S
C1449 C1453 1.393 . S
C1450 H1439 0.950 . S
C1450 C1448 1.391 . S
C1450 C1451 1.400 . S
C1451 C1445 1.491 . S
C1451 C1450 1.400 . S
C1451 C1452 1.398 . S
C1452 H1440 0.950 . S
C1452 C1451 1.398 . S
C1452 C1453 1.391 . S
C1453 H1441 0.950 . S
C1453 C1449 1.393 . S
C1453 C1452 1.391 . S
H1454 C1462 0.950 . S
H1455 C1467 0.950 . S
H1456 C1464 0.950 . S
H1457 C1466 0.950 . S
H1458 C1468 0.950 . S
H1459 C1470 0.950 . S
H1460 C1472 0.950 . S
H1461 C1473 0.950 . S
C1462 H1454 0.950 . S
C1462 C1463 1.386 . S
C1462 C1464 1.391 . S
C1463 C1462 1.386 . S
C1463 C1467 1.393 . S
C1464 H1456 0.950 . S
C1464 C1462 1.391 . S
C1464 C1465 1.400 . S
C1465 C1464 1.400 . S
C1465 C1466 1.398 . S
C1465 C1471 1.491 . S
C1466 H1457 0.950 . S
C1466 C1465 1.398 . S
C1466 C1467 1.391 . S
C1467 H1455 0.950 . S
C1467 C1463 1.393 . S
C1467 C1466 1.391 . S
C1468 H1458 0.950 . S
C1468 C1469 1.386 . S
C1468 C1470 1.391 . S
C1469 C1468 1.386 . S
C1469 C1473 1.393 . S
C1470 H1459 0.950 . S
C1470 C1468 1.391 . S
C1470 C1471 1.400 . S
C1471 C1465 1.491 . S
C1471 C1470 1.400 . S
C1471 C1472 1.398 . S
C1472 H1460 0.950 . S
C1472 C1471 1.398 . S
C1472 C1473 1.391 . S
C1473 H1461 0.950 . S
C1473 C1469 1.393 . S
C1473 C1472 1.391 . S
H1474 C1482 0.950 . S
H1475 C1487 0.950 . S
H1476 C1484 0.950 . S
H1477 C1486 0.950 . S
H1478 C1488 0.950 . S
H1479 C1490 0.950 . S
H1480 C1492 0.950 . S
H1481 C1493 0.950 . S
C1482 H1474 0.950 . S
C1482 C1483 1.386 . S
C1482 C1484 1.391 . S
C1483 C1482 1.386 . S
C1483 C1487 1.393 . S
C1484 H1476 0.950 . S
C1484 C1482 1.391 . S
C1484 C1485 1.400 . S
C1485 C1484 1.400 . S
C1485 C1486 1.398 . S
C1485 C1491 1.491 . S
C1486 H1477 0.950 . S
C1486 C1485 1.398 . S
C1486 C1487 1.391 . S
C1487 H1475 0.950 . S
C1487 C1483 1.393 . S
C1487 C1486 1.391 . S
C1488 H1478 0.950 . S
C1488 C1489 1.386 . S
C1488 C1490 1.391 . S
C1489 C1488 1.386 . S
C1489 C1493 1.393 . S
C1490 H1479 0.950 . S
C1490 C1488 1.391 . S
C1490 C1491 1.400 . S
C1491 C1485 1.491 . S
C1491 C1490 1.400 . S
C1491 C1492 1.398 . S
C1492 H1480 0.950 . S
C1492 C1491 1.398 . S
C1492 C1493 1.391 . S
C1493 H1481 0.950 . S
C1493 C1489 1.393 . S
C1493 C1492 1.391 . S
C603 C7 1.061 . S
C609 C252 1.108 . S
C623 C40 1.088 . S
C629 C285 1.115 . S
C643 C73 1.053 . S
C649 C219 1.108 . S
C663 C549 1.115 . S
C669 C106 1.077 . S
C683 C139 1.090 . S
C689 C582 1.117 . S
C703 C172 1.058 . S
C709 C516 1.110 . S
C723 C205 1.090 . S
C729 C450 1.116 . S
C743 C483 1.114 . S
C749 C238 1.086 . S
C763 C417 1.111 . S
C769 C271 1.076 . S
C783 C304 1.090 . S
C789 C153 1.117 1_554 S
C803 C337 1.057 . S
C809 C186 1.110 1_554 S
C823 C370 1.061 . S
C829 C120 1.111 1_554 S
C843 C403 1.085 . S
C849 C54 1.116 1_556 S
C863 C436 1.087 . S
C869 C87 1.116 1_556 S
C883 C21 1.110 1_556 S
C889 C469 1.071 . S
C903 C351 1.115 . S
C909 C502 1.078 . S
C923 C535 1.065 . S
C929 C384 1.112 . S
C943 C568 1.060 . S
C949 C318 1.108 . S
C963 N508 1.613 . S
C969 N13 1.613 . S
C983 N541 1.595 . S
C989 N46 1.595 . S
C1003 N79 1.620 . S
C1009 N574 1.620 . S
C1023 N112 1.598 . S
C1029 N211 1.598 . S
C1043 N145 1.603 . S
C1049 N244 1.603 . S
C1063 N277 1.612 . S
C1069 N178 1.612 . S
C1083 N310 1.593 . S
C1089 N409 1.593 . S
C1103 N442 1.615 . S
C1109 N343 1.615 . S
C1123 N475 1.605 . S
C1129 N376 1.605 . S
C1143 N2 1.500 . S
C1149 C150 1.503 . S
C1163 C183 1.513 . S
C1169 N35 1.514 . S
C1183 N68 1.495 . S
C1189 C117 1.493 . S
C1203 C51 1.494 . S
C1209 N101 1.497 . S
C1223 N134 1.512 . S
C1229 C84 1.508 . S
C1243 C18 1.494 . S
C1249 N167 1.493 . S
C1263 N200 1.511 . S
C1269 C348 1.513 . S
C1283 C381 1.498 . S
C1289 N233 1.502 . S
C1303 C315 1.514 . S
C1309 N266 1.513 . S
C1323 N299 1.495 . S
C1329 C249 1.493 . S
C1343 C282 1.497 . S
C1349 N332 1.495 . S
C1363 N365 1.515 . S
C1369 C216 1.514 . S
C1383 C546 1.496 . S
C1389 N398 1.500 . S
C1403 C579 1.514 . S
C1409 N431 1.513 . S
C1423 C513 1.494 . S
C1429 N464 1.493 . S
C1443 C447 1.496 . S
C1449 N497 1.500 . S
C1463 C480 1.502 . S
C1469 N530 1.507 . S
C1483 N563 1.493 . S
C1489 C414 1.493 . S
