# Generated by pormake.
# Topology snx, (6)-cn, num edge types: 1
# Building blocks:
#     Node 0, Type 0, BuildingBlock: IZENUY_clean_sbu_0, # of connection points: 6
#     Node 1, Type 0, BuildingBlock: IZENUY_clean_sbu_0, # of connection points: 6
#     Node 2, Type 0, BuildingBlock: IZENUY_clean_sbu_0, # of connection points: 6
#     Node 3, Type 0, BuildingBlock: IZENUY_clean_sbu_0, # of connection points: 6
#     Node 4, Type 0, BuildingBlock: IZENUY_clean_sbu_0, # of connection points: 6
#     Node 5, Type 0, BuildingBlock: IZENUY_clean_sbu_0, # of connection points: 6
#     Edge 6, Type (0, 0), BuildingBlock: TEMPAE_clean_linker_10, # of connection points: 2
#     Edge 7, Type (0, 0), BuildingBlock: TEMPAE_clean_linker_10, # of connection points: 2
#     Edge 8, Type (0, 0), BuildingBlock: TEMPAE_clean_linker_10, # of connection points: 2
#     Edge 9, Type (0, 0), BuildingBlock: TEMPAE_clean_linker_10, # of connection points: 2
#     Edge 10, Type (0, 0), BuildingBlock: TEMPAE_clean_linker_10, # of connection points: 2
#     Edge 11, Type (0, 0), BuildingBlock: TEMPAE_clean_linker_10, # of connection points: 2
#     Edge 12, Type (0, 0), BuildingBlock: TEMPAE_clean_linker_10, # of connection points: 2
#     Edge 13, Type (0, 0), BuildingBlock: TEMPAE_clean_linker_10, # of connection points: 2
#     Edge 14, Type (0, 0), BuildingBlock: TEMPAE_clean_linker_10, # of connection points: 2
#     Edge 15, Type (0, 0), BuildingBlock: TEMPAE_clean_linker_10, # of connection points: 2
#     Edge 16, Type (0, 0), BuildingBlock: TEMPAE_clean_linker_10, # of connection points: 2
#     Edge 17, Type (0, 0), BuildingBlock: TEMPAE_clean_linker_10, # of connection points: 2
#     Edge 18, Type (0, 0), BuildingBlock: TEMPAE_clean_linker_10, # of connection points: 2
#     Edge 19, Type (0, 0), BuildingBlock: TEMPAE_clean_linker_10, # of connection points: 2
#     Edge 20, Type (0, 0), BuildingBlock: TEMPAE_clean_linker_10, # of connection points: 2
#     Edge 21, Type (0, 0), BuildingBlock: TEMPAE_clean_linker_10, # of connection points: 2
#     Edge 22, Type (0, 0), BuildingBlock: TEMPAE_clean_linker_10, # of connection points: 2
#     Edge 23, Type (0, 0), BuildingBlock: TEMPAE_clean_linker_10, # of connection points: 2
# Relax obj value: 0.026
# Max RMSD: 0.068
# Mean RMSD: 0.067
data_MOF--net-snx--node1-IZENUY_clean_sbu_0--edge1-TEMPAE_clean_linker_10
_symmetry_space_group_name_H-M    P1
_symmetry_Int_Tables_number       1
_symmetry_cell_setting            triclinic
loop_
_symmetry_equiv_pos_as_xyz
'x, y, z'
_cell_length_a     36.423234
_cell_length_b     36.425036
_cell_length_c     21.727405
_cell_angle_alpha  90.127808
_cell_angle_beta   89.698989
_cell_angle_gamma 120.11242
loop_
_atom_site_label
_atom_site_type_symbol
_atom_site_fract_x
_atom_site_fract_y
_atom_site_fract_z
_atom_type_partial_charge
Fe0 Fe 0.17289 0.32847 0.26704 0.0
Fe1 Fe 0.2115 0.41307 0.33726 0.0
O2 O 0.2012 0.38477 0.26708 0.0
Fe3 Fe 0.21941 0.41316 0.19695 0.0
O4 O 0.16582 0.38937 0.16714 0.0
O5 O 0.14625 0.32368 0.19338 0.0
O6 O 0.12697 0.32621 0.30489 0.0
C7 C 0.12837 0.34391 0.35557 0.0
C8 C 0.23293 0.34386 0.17854 0.0
O9 O 0.16314 0.37352 0.37581 0.0
C10 C 0.28775 0.4614 0.26991 0.0
O11 O 0.19465 0.32353 0.3407 0.0
O12 O 0.24115 0.38915 0.36696 0.0
O13 O 0.22806 0.37362 0.15838 0.0
O14 O 0.21647 0.3261 0.22917 0.0
C15 C 0.19162 0.46142 0.26434 0.0
O16 O 0.26214 0.45806 0.312 0.0
O17 O 0.27446 0.43886 0.22201 0.0
C18 C 0.22666 0.34966 0.37164 0.0
O19 O 0.18232 0.43887 0.31226 0.0
O20 O 0.21393 0.45813 0.22226 0.0
C21 C 0.1406 0.34991 0.16241 0.0
Fe22 Fe 0.81133 0.21209 0.70121 0.0
Fe23 Fe 0.81529 0.21348 0.84234 0.0
O24 O 0.8271 0.19846 0.77049 0.0
Fe25 Fe 0.85449 0.16966 0.76829 0.0
O26 O 0.88241 0.19301 0.69553 0.0
O27 O 0.86544 0.2414 0.67303 0.0
O28 O 0.81884 0.2629 0.73037 0.0
C29 C 0.83904 0.28552 0.77623 0.0
C30 C 0.79547 0.12845 0.67792 0.0
O31 O 0.84555 0.26925 0.82305 0.0
C32 C 0.79856 0.13376 0.87064 0.0
O33 O 0.75576 0.18356 0.72396 0.0
O34 O 0.76582 0.21016 0.81711 0.0
O35 O 0.81097 0.12539 0.72826 0.0
O36 O 0.80127 0.16399 0.65966 0.0
C37 C 0.89797 0.22656 0.86 0.0
O38 O 0.78412 0.15871 0.86675 0.0
O39 O 0.83144 0.14087 0.84064 0.0
C40 C 0.74153 0.19109 0.77242 0.0
O41 O 0.86272 0.21998 0.88105 0.0
O42 O 0.90005 0.212 0.80808 0.0
C43 C 0.88938 0.22595 0.66625 0.0
Fe44 Fe 0.69589 0.85126 0.26958 0.0
Fe45 Fe 0.61118 0.81134 0.19977 0.0
O46 O 0.63955 0.82297 0.26995 0.0
Fe47 Fe 0.61104 0.80616 0.3404 0.0
O48 O 0.6349 0.8603 0.36836 0.0
O49 O 0.70068 0.88001 0.34162 0.0
O50 O 0.69826 0.89612 0.22911 0.0
C51 C 0.68058 0.89374 0.17833 0.0
C52 C 0.68067 0.79352 0.36105 0.0
O53 O 0.65082 0.85866 0.1593 0.0
C54 C 0.56271 0.73649 0.26956 0.0
O55 O 0.70063 0.82704 0.19755 0.0
O56 O 0.63472 0.78083 0.17185 0.0
O57 O 0.6504 0.79806 0.38023 0.0
O58 O 0.69849 0.80904 0.31017 0.0
C59 C 0.56293 0.83281 0.27085 0.0
O60 O 0.56605 0.7614 0.22665 0.0
O61 O 0.58524 0.75064 0.31725 0.0
C62 C 0.67408 0.79435 0.16796 0.0
O63 O 0.58568 0.8413 0.22307 0.0
O64 O 0.56615 0.81132 0.31399 0.0
C65 C 0.67432 0.88594 0.37224 0.0
Fe66 Fe 0.8546 0.69149 0.7672 0.0
Fe67 Fe 0.81127 0.60691 0.83816 0.0
O68 O 0.82621 0.63517 0.76749 0.0
Fe69 Fe 0.81247 0.60654 0.69715 0.0
O70 O 0.86771 0.63003 0.67421 0.0
O71 O 0.88666 0.69599 0.69875 0.0
O72 O 0.89736 0.69395 0.8131 0.0
C73 C 0.89265 0.67635 0.86472 0.0
C74 C 0.8012 0.67621 0.66981 0.0
O75 O 0.85683 0.64648 0.88157 0.0
C76 C 0.73985 0.55826 0.7622 0.0
O77 O 0.82732 0.69647 0.83562 0.0
O78 O 0.77982 0.63071 0.8607 0.0
O79 O 0.80666 0.64602 0.65333 0.0
O80 O 0.81437 0.69401 0.72124 0.0
C81 C 0.83523 0.55825 0.77365 0.0
O82 O 0.7625 0.56169 0.80821 0.0
O83 O 0.75608 0.58118 0.71521 0.0
C84 C 0.79356 0.67015 0.86363 0.0
O85 O 0.84204 0.58132 0.82045 0.0
O86 O 0.8158 0.56137 0.72766 0.0
C87 C 0.89373 0.66942 0.67097 0.0
Fe88 Fe 0.17301 0.85042 0.26521 0.0
Fe89 Fe 0.21316 0.80595 0.19423 0.0
O90 O 0.20123 0.8224 0.26474 0.0
Fe91 Fe 0.21789 0.81069 0.33492 0.0
O92 O 0.16365 0.77982 0.36254 0.0
O93 O 0.14395 0.82595 0.33714 0.0
O94 O 0.12824 0.80816 0.22446 0.0
C95 C 0.13069 0.79288 0.17349 0.0
C96 C 0.2306 0.89284 0.35672 0.0
O97 O 0.16561 0.79764 0.15435 0.0
C98 C 0.28794 0.83277 0.26406 0.0
O99 O 0.19704 0.87941 0.19329 0.0
O100 O 0.2434 0.8602 0.16651 0.0
O101 O 0.22533 0.85778 0.37561 0.0
O102 O 0.21546 0.89529 0.30585 0.0
C103 C 0.1919 0.73616 0.26472 0.0
O104 O 0.26332 0.81139 0.22074 0.0
O105 O 0.2735 0.84097 0.31188 0.0
C106 C 0.22946 0.88564 0.16272 0.0
O107 O 0.1835 0.75033 0.21711 0.0
O108 O 0.21331 0.76098 0.30782 0.0
C109 C 0.13773 0.79318 0.3665 0.0
Fe110 Fe 0.41463 0.2126 0.69182 0.0
Fe111 Fe 0.41737 0.21194 0.83301 0.0
O112 O 0.38786 0.19792 0.7638 0.0
Fe113 Fe 0.33156 0.16899 0.76616 0.0
O114 O 0.32567 0.13995 0.69407 0.0
O115 O 0.3909 0.15774 0.66812 0.0
O116 O 0.46081 0.20942 0.71719 0.0
C117 C 0.46614 0.19068 0.76219 0.0
C118 C 0.34499 0.22553 0.67391 0.0
O119 O 0.44451 0.18354 0.81076 0.0
C120 C 0.35308 0.22562 0.86767 0.0
O121 O 0.44035 0.26846 0.71037 0.0
O122 O 0.46065 0.2627 0.80341 0.0
O123 O 0.32835 0.21113 0.72594 0.0
O124 O 0.37362 0.21888 0.65296 0.0
C125 C 0.34956 0.12824 0.85692 0.0
O126 O 0.39251 0.24118 0.86076 0.0
O127 O 0.32704 0.19253 0.83869 0.0
C128 C 0.46303 0.28501 0.75721 0.0
O129 O 0.37933 0.16392 0.87494 0.0
O130 O 0.33088 0.12495 0.80661 0.0
C131 C 0.35144 0.13275 0.66431 0.0
C132 C 0.20626 0.53047 0.21984 0.0
C133 C 0.18298 0.49702 0.26118 0.0
C134 C 0.20191 0.56652 0.21926 0.0
C135 C 0.17288 0.56896 0.26019 0.0
C136 C 0.14755 0.53437 0.29977 0.0
C137 C 0.15324 0.49892 0.30033 0.0
C138 C 0.23023 0.60301 0.17722 0.0
C139 C 0.1156 0.5355 0.34306 0.0
C140 C 0.20577 0.68108 0.30814 0.0
C141 C 0.18334 0.69189 0.26655 0.0
C142 C 0.20132 0.64064 0.308 0.0
C143 C 0.17305 0.60973 0.26605 0.0
C144 C 0.14865 0.61963 0.22598 0.0
C145 C 0.15444 0.66084 0.22619 0.0
C146 C 0.22864 0.63178 0.35064 0.0
C147 C 0.11752 0.58714 0.18159 0.0
H148 H 0.22937 0.52938 0.18938 0.0
H149 H 0.13482 0.47297 0.33189 0.0
H150 H 0.211 0.61251 0.14919 0.0
H151 H 0.25228 0.63093 0.20522 0.0
H152 H 0.24933 0.59506 0.14567 0.0
H153 H 0.09441 0.50405 0.36437 0.0
H154 H 0.13243 0.55877 0.38031 0.0
H155 H 0.09588 0.54601 0.31834 0.0
H156 H 0.22824 0.70482 0.33951 0.0
H157 H 0.13669 0.66886 0.1944 0.0
H158 H 0.2509 0.62583 0.32314 0.0
H159 H 0.20867 0.60286 0.37829 0.0
H160 H 0.24748 0.65857 0.38257 0.0
H161 H 0.13502 0.58087 0.14499 0.0
H162 H 0.09711 0.59791 0.15948 0.0
H163 H 0.09697 0.55665 0.20565 0.0
C164 C 0.66624 0.15374 0.7354 0.0
C165 C 0.6979 0.18413 0.7735 0.0
C166 C 0.62551 0.14903 0.73399 0.0
C167 C 0.61677 0.17613 0.7703 0.0
C168 C 0.64845 0.20634 0.8096 0.0
C169 C 0.68841 0.2096 0.81124 0.0
C170 C 0.59219 0.11585 0.69258 0.0
C171 C 0.6408 0.23654 0.84796 0.0
C172 C 0.53541 0.20492 0.71804 0.0
C173 C 0.50254 0.18324 0.76096 0.0
C174 C 0.57215 0.20174 0.71939 0.0
C175 C 0.57586 0.17556 0.76401 0.0
C176 C 0.54198 0.15196 0.80561 0.0
C177 C 0.50582 0.15641 0.80402 0.0
C178 C 0.60786 0.22807 0.67494 0.0
C179 C 0.5445 0.12309 0.85303 0.0
H180 H 0.67338 0.13379 0.70652 0.0
H181 H 0.71284 0.23339 0.84046 0.0
H182 H 0.56227 0.09639 0.71865 0.0
H183 H 0.585 0.13154 0.65461 0.0
H184 H 0.60257 0.09451 0.67226 0.0
H185 H 0.66831 0.2572 0.87765 0.0
H186 H 0.63446 0.25707 0.81735 0.0
H187 H 0.61242 0.21859 0.87767 0.0
H188 H 0.53324 0.22584 0.68469 0.0
H189 H 0.48037 0.13928 0.83695 0.0
H190 H 0.61727 0.20765 0.64942 0.0
H191 H 0.63608 0.25177 0.70084 0.0
H192 H 0.59911 0.24518 0.64112 0.0
H193 H 0.55429 0.10181 0.831 0.0
H194 H 0.51375 0.10339 0.8772 0.0
H195 H 0.56891 0.14236 0.88774 0.0
C196 C 0.34196 0.5311 0.31301 0.0
C197 C 0.33203 0.49713 0.27292 0.0
C198 C 0.38245 0.56719 0.31343 0.0
C199 C 0.41427 0.56914 0.2737 0.0
C200 C 0.40522 0.53408 0.23536 0.0
C201 C 0.36395 0.4986 0.23485 0.0
C202 C 0.3904 0.6042 0.35405 0.0
C203 C 0.43866 0.53469 0.19342 0.0
C204 C 0.49442 0.68085 0.22464 0.0
C205 C 0.52712 0.69207 0.26744 0.0
C206 C 0.45837 0.64034 0.22466 0.0
C207 C 0.45512 0.6098 0.26777 0.0
C208 C 0.48895 0.62006 0.30901 0.0
C209 C 0.52445 0.66132 0.30883 0.0
C210 C 0.42271 0.63107 0.18069 0.0
C211 C 0.48695 0.58796 0.3547 0.0
H212 H 0.31751 0.53035 0.34254 0.0
H213 H 0.35659 0.47226 0.20426 0.0
H214 H 0.41878 0.6139 0.38302 0.0
H215 H 0.39682 0.63183 0.32497 0.0
H216 H 0.36297 0.5967 0.38464 0.0
H217 H 0.42842 0.50301 0.17305 0.0
H218 H 0.44562 0.5576 0.15544 0.0
H219 H 0.46866 0.54537 0.21895 0.0
H220 H 0.4961 0.70431 0.19239 0.0
H221 H 0.54979 0.66962 0.34156 0.0
H222 H 0.3942 0.62554 0.20708 0.0
H223 H 0.41387 0.6018 0.15408 0.0
H224 H 0.43122 0.65749 0.1478 0.0
H225 H 0.4629 0.58218 0.39064 0.0
H226 H 0.51796 0.59886 0.37753 0.0
H227 H 0.47699 0.5572 0.33156 0.0
C228 C 0.87887 0.52449 0.79697 0.0
C229 C 0.84061 0.52091 0.77767 0.0
C230 C 0.88398 0.48867 0.79808 0.0
C231 C 0.84941 0.44838 0.78185 0.0
C232 C 0.81032 0.44468 0.7642 0.0
C233 C 0.80673 0.48112 0.76113 0.0
C234 C 0.92646 0.49399 0.81531 0.0
C235 C 0.77215 0.4022 0.74866 0.0
C236 C 0.85874 0.35465 0.72625 0.0
C237 C 0.8479 0.3297 0.77949 0.0
C238 C 0.86246 0.39493 0.72747 0.0
C239 C 0.85358 0.40979 0.78273 0.0
C240 C 0.84395 0.38521 0.8371 0.0
C241 C 0.84188 0.3457 0.83501 0.0
C242 C 0.87406 0.42073 0.66897 0.0
C243 C 0.83291 0.39919 0.89644 0.0
H244 H 0.90507 0.55543 0.80941 0.0
H245 H 0.77703 0.47843 0.74664 0.0
H246 H 0.92297 0.4739 0.85568 0.0
H247 H 0.93886 0.48324 0.77673 0.0
H248 H 0.95018 0.52746 0.82636 0.0
H249 H 0.74334 0.40453 0.74003 0.0
H250 H 0.77889 0.38889 0.70701 0.0
H251 H 0.76522 0.37941 0.78684 0.0
H252 H 0.86367 0.34236 0.6834 0.0
H253 H 0.83305 0.32622 0.87612 0.0
H254 H 0.89873 0.45414 0.67818 0.0
H255 H 0.84576 0.42102 0.65099 0.0
H256 H 0.88595 0.40769 0.63272 0.0
H257 H 0.85735 0.43226 0.90777 0.0
H258 H 0.82982 0.37836 0.93575 0.0
H259 H 0.80234 0.3986 0.89092 0.0
C260 C 0.52557 0.87069 0.2329 0.0
C261 C 0.52704 0.84112 0.27254 0.0
C262 C 0.48998 0.87619 0.23219 0.0
C263 C 0.45479 0.8508 0.27093 0.0
C264 C 0.4567 0.82179 0.31214 0.0
C265 C 0.49289 0.81766 0.31289 0.0
C266 C 0.48945 0.90813 0.18864 0.0
C267 C 0.41958 0.7934 0.35328 0.0
C268 C 0.36299 0.86998 0.30335 0.0
C269 C 0.33224 0.84127 0.26248 0.0
C270 C 0.40408 0.87545 0.30423 0.0
C271 C 0.41419 0.85091 0.26434 0.0
C272 C 0.38363 0.82285 0.22185 0.0
C273 C 0.34329 0.81874 0.22102 0.0
C274 C 0.43619 0.90637 0.34921 0.0
C275 C 0.39269 0.79539 0.17939 0.0
H276 H 0.55201 0.8892 0.20205 0.0
H277 H 0.49362 0.79463 0.34361 0.0
H278 H 0.4664 0.89131 0.15122 0.0
H279 H 0.47897 0.92809 0.21311 0.0
H280 H 0.5211 0.92909 0.16759 0.0
H281 H 0.42696 0.77403 0.38484 0.0
H282 H 0.40987 0.81262 0.38128 0.0
H283 H 0.39199 0.7716 0.32462 0.0
H284 H 0.3548 0.8878 0.33508 0.0
H285 H 0.3198 0.79639 0.18929 0.0
H286 H 0.46699 0.9268 0.32568 0.0
H287 H 0.44187 0.8887 0.38589 0.0
H288 H 0.42539 0.92692 0.37115 0.0
H289 H 0.42202 0.8152 0.15234 0.0
H290 H 0.36625 0.77681 0.14691 0.0
H291 H 0.39801 0.77289 0.207 0.0
C292 C 0.66308 0.52358 0.73315 0.0
C293 C 0.69687 0.52091 0.75869 0.0
C294 C 0.62207 0.48771 0.73136 0.0
C295 C 0.61543 0.4482 0.75336 0.0
C296 C 0.6499 0.44537 0.77772 0.0
C297 C 0.68994 0.48192 0.78121 0.0
C298 C 0.58581 0.49215 0.70682 0.0
C299 C 0.64468 0.40364 0.79964 0.0
C300 C 0.5099 0.35566 0.80506 0.0
C301 C 0.49838 0.32913 0.75349 0.0
C302 C 0.54637 0.3961 0.80397 0.0
C303 C 0.57274 0.4094 0.75094 0.0
C304 C 0.56047 0.38308 0.69813 0.0
C305 C 0.52299 0.3435 0.69973 0.0
C306 C 0.55764 0.4238 0.86049 0.0
C307 C 0.5884 0.39531 0.64152 0.0
H308 H 0.66854 0.55386 0.71602 0.0
H309 H 0.71621 0.4798 0.80048 0.0
H310 H 0.57143 0.47107 0.6665 0.0
H311 H 0.56063 0.48206 0.74248 0.0
H312 H 0.59606 0.52526 0.69286 0.0
H313 H 0.6753 0.40649 0.8137 0.0
H314 H 0.62256 0.3917 0.83946 0.0
H315 H 0.63069 0.37949 0.76261 0.0
H316 H 0.49065 0.34451 0.84649 0.0
H317 H 0.51428 0.32269 0.66008 0.0
H318 H 0.56689 0.45679 0.84749 0.0
H319 H 0.58524 0.42492 0.88367 0.0
H320 H 0.5309 0.41177 0.89393 0.0
H321 H 0.5974 0.4278 0.62629 0.0
H322 H 0.5727 0.37302 0.60268 0.0
H323 H 0.61817 0.39544 0.65269 0.0
C324 C 0.36491 0.27353 0.9577 0.0
C325 C 0.33701 0.24318 0.91555 0.0
C326 C 0.34979 0.28923 1.00452 0.0
C327 C 0.30578 0.27458 1.00893 0.0
C328 C 0.27745 0.2439 0.96668 0.0
C329 C 0.29338 0.22849 0.92068 0.0
C330 C 0.38095 0.32185 0.04883 0.0
C331 C 0.23036 0.22791 0.96935 0.0
C332 C 0.2573 0.29168 0.15435 0.0
C333 C 0.25403 0.32714 0.13781 0.0
C334 C 0.27504 0.27469 0.11346 0.0
C335 C 0.28957 0.29351 0.05476 0.0
C336 C 0.28723 0.32982 0.03851 0.0
C337 C 0.26973 0.34624 0.08019 0.0
C338 C 0.27747 0.23615 0.13251 0.0
C339 C 0.30221 0.35078 0.97631 0.0
H340 H 0.39864 0.28488 0.95446 0.0
H341 H 0.27155 0.20506 0.88838 0.0
H342 H 0.38092 0.35212 0.04351 0.0
H343 H 0.37131 0.311 0.09695 0.0
H344 H 0.41382 0.32816 0.04141 0.0
H345 H 0.21241 0.20283 0.93462 0.0
H346 H 0.21768 0.21494 1.01574 0.0
H347 H 0.22448 0.25459 0.96128 0.0
H348 H 0.24545 0.27681 0.19878 0.0
H349 H 0.26768 0.37381 0.06687 0.0
H350 H 0.31043 0.24239 0.12715 0.0
H351 H 0.25703 0.20902 0.10211 0.0
H352 H 0.26715 0.22679 0.18096 0.0
H353 H 0.33588 0.35993 0.96869 0.0
H354 H 0.29926 0.37955 0.97151 0.0
H355 H 0.28335 0.32806 0.93943 0.0
C356 C 0.9517 0.22854 0.61286 0.0
C357 C 0.92303 0.24348 0.61827 0.0
C358 C 0.98307 0.24392 0.56682 0.0
C359 C 0.98577 0.27487 0.52485 0.0
C360 C 0.95668 0.28978 0.52954 0.0
C361 C 0.92579 0.27407 0.57637 0.0
C362 C 0.01387 0.22763 0.56382 0.0
C363 C 0.95852 0.3227 0.48555 0.0
C364 C 0.09397 0.34619 0.45398 0.0
C365 C 0.09045 0.32727 0.39622 0.0
C366 C 0.05993 0.32985 0.49557 0.0
C367 C 0.02102 0.2938 0.47908 0.0
C368 C 0.01661 0.27519 0.42022 0.0
C369 C 0.05147 0.29209 0.37944 0.0
C370 C 0.06605 0.35057 0.55794 0.0
C371 C 0.97538 0.23693 0.40091 0.0
H372 H 0.94986 0.20492 0.64495 0.0
H373 H 0.90362 0.28562 0.57984 0.0
H374 H 1.01348 0.21484 0.5173 0.0
H375 H 0.0466 0.25411 0.57207 0.0
H376 H 1.00645 0.20233 0.5983 0.0
H377 H 0.93211 0.32918 0.49313 0.0
H378 H 0.98902 0.35284 0.49108 0.0
H379 H 0.95727 0.31205 0.43733 0.0
H380 H 0.12379 0.37354 0.46751 0.0
H381 H 0.04835 0.27738 0.33489 0.0
H382 H 0.06193 0.32764 0.59462 0.0
H383 H 0.04171 0.3599 0.56573 0.0
H384 H 0.09795 0.3792 0.56289 0.0
H385 H 0.96836 0.2096 0.43104 0.0
H386 H 0.97627 0.22777 0.35236 0.0
H387 H 0.94885 0.24341 0.40645 0.0
C388 C 0.79539 0.07042 0.92075 0.0
C389 C 0.78043 0.09912 0.91685 0.0
C390 C 0.77974 0.03841 0.96562 0.0
C391 C 0.74846 0.03503 1.00782 0.0
C392 C 0.73326 0.06391 1.00434 0.0
C393 C 0.74931 0.09551 0.95876 0.0
C394 C 0.7964 1.0079 0.96747 0.0
C395 C 0.69989 0.06127 0.04856 0.0
C396 C 0.67824 0.92683 0.07904 0.0
C397 C 0.69714 0.93104 0.13679 0.0
C398 C 0.69429 0.9606 0.03719 0.0
C399 C 0.73006 0.99983 0.05341 0.0
C400 C 0.74879 1.00479 0.11209 0.0
C401 C 0.73214 0.97027 0.15315 0.0
C402 C 0.67343 0.95397 0.97504 0.0
C403 C 0.78684 0.04633 0.13102 0.0
H404 H 0.81938 0.07289 0.8886 0.0
H405 H 0.73767 0.11763 0.95637 0.0
H406 H 0.80953 1.00844 1.01364 0.0
H407 H 0.77007 0.97507 0.95936 0.0
H408 H 0.82155 0.01552 0.93243 0.0
H409 H 0.69259 0.0871 0.04119 0.0
H410 H 0.6702 0.03034 0.04317 0.0
H411 H 0.71067 0.06296 0.09669 0.0
H412 H 0.65105 0.89677 0.06588 0.0
H413 H 0.74685 0.9739 0.19769 0.0
H414 H 0.69646 0.95839 0.93811 0.0
H415 H 0.66356 0.97789 0.96753 0.0
H416 H 0.64513 0.92182 0.97022 0.0
H417 H 0.81404 0.05378 0.10009 0.0
H418 H 0.79651 0.04565 0.17922 0.0
H419 H 0.77978 0.0725 0.12636 0.0
C420 C 0.6735 0.74961 0.45306 0.0
C421 C 0.69798 0.77397 0.4029 0.0
C422 C 0.69002 0.73335 0.49631 0.0
C423 C 0.73223 0.74189 0.48961 0.0
C424 C 0.75697 0.76584 0.43857 0.0
C425 C 0.73944 0.78141 0.39551 0.0
C426 C 0.6624 0.70736 0.54953 0.0
C427 C 0.80217 0.77565 0.43009 0.0
C428 C 0.78627 0.73281 0.6334 0.0
C429 C 0.78267 0.69295 0.62505 0.0
C430 C 0.77047 0.74942 0.58926 0.0
C431 C 0.75022 0.72537 0.53596 0.0
C432 C 0.74606 0.68494 0.52769 0.0
C433 C 0.76243 0.66931 0.57217 0.0
C434 C 0.77558 0.79275 0.59946 0.0
C435 C 0.72414 0.65809 0.47194 0.0
H436 H 0.6413 0.74343 0.45883 0.0
H437 H 0.7586 0.80037 0.35705 0.0
H438 H 0.65986 0.67571 0.55005 0.0
H439 H 0.67704 0.72317 0.59368 0.0
H440 H 0.62991 0.70282 0.54731 0.0
H441 H 0.81706 0.79443 0.38773 0.0
H442 H 0.82145 0.79373 0.47034 0.0
H443 H 0.80319 0.74575 0.42761 0.0
H444 H 0.80201 0.75134 0.67395 0.0
H445 H 0.75926 0.63835 0.56546 0.0
H446 H 0.74396 0.79025 0.6015 0.0
H447 H 0.79313 0.8139 0.56025 0.0
H448 H 0.79285 0.80777 0.64266 0.0
H449 H 0.69095 0.65152 0.46991 0.0
H450 H 0.72367 0.62736 0.47231 0.0
H451 H 0.74038 0.67551 0.42931 0.0
C452 C 0.96457 0.73273 0.90075 0.0
C453 C 0.92807 0.69296 0.90926 0.0
C454 C 0.99709 0.74923 0.94479 0.0
C455 C 0.99316 0.72516 0.9981 0.0
C456 C 0.95668 0.68479 1.00648 0.0
C457 C 0.92457 0.66927 0.96212 0.0
C458 C 0.03554 0.79251 0.93449 0.0
C459 C 0.95161 0.65791 0.06225 0.0
C460 C 0.09399 0.74914 0.08134 0.0
C461 C 0.09386 0.77342 0.1315 0.0
C462 C 0.06126 0.733 0.03794 0.0
C463 C 0.02767 0.74163 0.04449 0.0
C464 C 0.0269 0.76554 0.0955 0.0
C465 C 0.05993 0.78096 0.13871 0.0
C466 C 0.06284 0.70702 0.98476 0.0
C467 C 0.9916 0.77545 0.1038 0.0
H468 H 0.96743 0.75128 0.86019 0.0
H469 H 0.8966 0.63837 0.96892 0.0
H470 H 0.03922 0.81372 0.9736 0.0
H471 H 0.0646 0.78992 0.9326 0.0
H472 H 0.03342 0.8075 0.8912 0.0
H473 H 0.92125 0.62717 0.06185 0.0
H474 H 0.97821 0.65135 0.06436 0.0
H475 H 0.9528 0.6753 0.10485 0.0
H476 H 0.11996 0.74289 0.07571 0.0
H477 H 0.05975 0.79989 0.17716 0.0
H478 H 0.06414 0.72286 0.9406 0.0
H479 H 0.0336 0.67539 0.98422 0.0
H480 H 0.09076 0.70246 0.98708 0.0
H481 H 0.99053 0.79351 0.06345 0.0
H482 H 0.99556 0.79428 0.14607 0.0
H483 H 0.96055 0.74559 0.10633 0.0
C484 C 0.29114 0.06949 0.61395 0.0
C485 C 0.33492 0.09798 0.61838 0.0
C486 C 0.27483 0.03739 0.56922 0.0
C487 C 0.30293 0.03373 0.52776 0.0
C488 C 0.34712 0.06237 0.53182 0.0
C489 C 0.36261 0.09406 0.57721 0.0
C490 C 0.22753 1.00714 0.56671 0.0
C491 C 0.37804 0.05941 0.4884 0.0
C492 C 0.26484 0.92554 0.45682 0.0
C493 C 0.25095 0.92997 0.39855 0.0
C494 C 0.28223 0.9592 0.49883 0.0
C495 C 0.28617 0.99853 0.48225 0.0
C496 C 0.27315 1.00369 0.42312 0.0
C497 C 0.25559 0.96928 0.38191 0.0
C498 C 0.29566 0.95238 0.56148 0.0
C499 C 0.27719 0.04535 0.4038 0.0
H500 H 0.26949 0.07221 0.64552 0.0
H501 H 0.39646 0.116 0.58003 0.0
H502 H 0.21537 1.00778 0.52025 0.0
H503 H 0.22062 0.97423 0.57509 0.0
H504 H 0.20989 0.01494 0.60127 0.0
H505 H 0.41129 0.08504 0.49623 0.0
H506 H 0.37635 0.02834 0.4942 0.0
H507 H 0.36944 0.06118 0.44003 0.0
H508 H 0.26161 0.89541 0.47023 0.0
H509 H 0.24511 0.97307 0.33699 0.0
H510 H 0.27685 0.95701 0.59783 0.0
H511 H 0.32952 0.97607 0.56956 0.0
H512 H 0.29134 0.9201 0.56666 0.0
H513 H 0.25739 0.05298 0.43428 0.0
H514 H 0.26718 0.04473 0.35541 0.0
H515 H 0.31053 0.07136 0.40879 0.0
C516 C 0.7305 0.77947 0.13024 0.0
C517 C 0.68977 0.77408 0.12381 0.0
C518 C 0.74614 0.76121 0.08811 0.0
C519 C 0.72081 0.73767 0.0375 0.0
C520 C 0.67965 0.7321 0.03076 0.0
C521 C 0.66447 0.74997 0.07431 0.0
C522 C 0.78985 0.76722 0.09769 0.0
C523 C 0.65194 0.70789 0.97692 0.0
C524 C 0.77969 0.72766 0.89896 0.0
C525 C 0.7728 0.68638 0.90599 0.0
C526 C 0.76212 0.74434 0.94053 0.0
C527 C 0.73771 0.71948 0.99117 0.0
C528 C 0.7303 0.67764 0.99821 0.0
C529 C 0.74756 0.66145 0.95523 0.0
C530 C 0.77006 0.78876 0.9306 0.0
C531 C 0.70504 0.65033 0.05206 0.0
H532 H 0.75011 0.79777 0.16861 0.0
H533 H 0.63307 0.74586 0.06874 0.0
H534 H 0.78803 0.7359 0.0996 0.0
H535 H 0.81072 0.78489 0.05828 0.0
H536 H 0.80481 0.78485 0.1407 0.0
H537 H 0.6207 0.70634 0.97833 0.0
H538 H 0.66822 0.72324 0.93317 0.0
H539 H 0.64645 0.67507 0.97632 0.0
H540 H 0.7989 0.74702 0.86081 0.0
H541 H 0.7423 0.62963 0.96129 0.0
H542 H 0.78852 0.80935 0.96962 0.0
H543 H 0.73946 0.78847 0.92919 0.0
H544 H 0.78777 0.8031 0.88724 0.0
H545 H 0.72084 0.66595 0.09577 0.0
H546 H 0.70162 0.61827 0.0505 0.0
H547 H 0.67294 0.64671 0.05288 0.0
C548 C 0.96597 0.72599 0.63652 0.0
C549 C 0.9307 0.6853 0.62856 0.0
C550 C 1.00027 0.74243 0.59494 0.0
C551 C 0.99894 0.71797 0.54331 0.0
C552 C 0.96359 0.67669 0.53533 0.0
C553 C 0.93012 0.66068 0.57839 0.0
C554 C 0.03775 0.7862 0.6059 0.0
C555 C 0.96057 0.64987 0.48039 0.0
C556 C 0.06686 0.77911 0.40522 0.0
C557 C 0.1016 0.77267 0.41051 0.0
C558 C 0.03291 0.76082 0.44738 0.0
C559 C 0.034 0.73609 0.49682 0.0
C560 C 0.06892 0.72936 0.50233 0.0
C561 C 0.10207 0.74737 0.45882 0.0
C562 C 0.99593 0.76814 0.43915 0.0
C563 C 0.07165 0.70379 0.55488 0.0
H564 H 0.96677 0.74507 0.67543 0.0
H565 H 0.90285 0.62932 0.57164 0.0
H566 H 0.06755 0.78492 0.60639 0.0
H567 H 0.04048 0.80768 0.56782 0.0
H568 H 0.03501 0.80014 0.65002 0.0
H569 H 0.93134 0.61816 0.4814 0.0
H570 H 0.96075 0.66634 0.43739 0.0
H571 H 0.98853 0.64542 0.47854 0.0
H572 H 0.06607 0.79833 0.36779 0.0
H573 H 0.12887 0.74239 0.4635 0.0
H574 H 0.99346 0.78558 0.4794 0.0
H575 H 0.96585 0.73728 0.43674 0.0
H576 H 0.99903 0.78658 0.39685 0.0
H577 H 0.07141 0.71871 0.59936 0.0
H578 H 0.10078 0.70127 0.55245 0.0
H579 H 0.04358 0.67133 0.5548 0.0
C580 C 0.23424 0.95025 0.11382 0.0
C581 C 0.24865 0.92107 0.11745 0.0
C582 C 0.25099 0.98314 0.07017 0.0
C583 C 0.28294 0.98706 0.02882 0.0
C584 C 0.29778 0.95786 0.03224 0.0
C585 C 0.28057 0.92531 0.07657 0.0
C586 C 0.23452 0.0138 0.0684 0.0
C587 C 0.3318 0.96096 0.98898 0.0
C588 C 0.29909 0.05154 0.88294 0.0
C589 C 0.33375 0.09113 0.89903 0.0
C590 C 0.28274 0.01711 0.92419 0.0
C591 C 0.30141 0.02235 0.983 0.0
C592 C 0.33691 0.06192 0.99898 0.0
C593 C 0.35265 0.0957 0.95689 0.0
C594 C 0.24497 0.97533 0.90532 0.0
C595 C 0.35773 0.06891 0.06118 0.0
H596 H 0.2097 0.94741 0.14517 0.0
H597 H 0.29192 0.90296 0.07877 0.0
H598 H 0.26093 0.04661 0.07641 0.0
H599 H 0.22136 0.01324 0.02225 0.0
H600 H 0.20942 1.00628 0.10348 0.0
H601 H 0.33955 0.93551 0.99708 0.0
H602 H 0.32135 0.95893 0.9406 0.0
H603 H 0.36115 0.99217 0.99451 0.0
H604 H 0.28431 0.04754 0.83838 0.0
H605 H 0.37953 0.12602 0.96991 0.0
H606 H 0.21764 0.96772 0.93606 0.0
H607 H 0.25232 0.94939 0.91031 0.0
H608 H 0.23534 0.97578 0.85702 0.0
H609 H 0.33467 0.06466 0.09795 0.0
H610 H 0.38601 0.1011 0.0657 0.0
H611 H 0.36761 0.04504 0.06917 0.0
C612 C 0.29411 0.25166 0.65169 0.0
C613 C 0.32838 0.24667 0.63345 0.0
C614 C 0.27754 0.27016 0.61191 0.0
C615 C 0.29563 0.28392 0.55259 0.0
C616 C 0.33073 0.27978 0.53452 0.0
C617 C 0.34667 0.26134 0.57508 0.0
C618 C 0.24017 0.27425 0.63285 0.0
C619 C 0.35094 0.29397 0.47168 0.0
C620 C 0.22916 0.28939 0.42273 0.0
C621 C 0.24448 0.33318 0.41825 0.0
C622 C 0.24497 0.27296 0.46699 0.0
C623 C 0.2769 0.30092 0.50803 0.0
C624 C 0.29235 0.34511 0.50418 0.0
C625 C 0.27605 0.36074 0.45925 0.0
C626 C 0.22789 0.22567 0.46922 0.0
C627 C 0.3264 0.37591 0.54714 0.0
H628 H 0.27987 0.24064 0.69671 0.0
H629 H 0.37333 0.25797 0.56048 0.0
H630 H 0.2476 0.30761 0.62818 0.0
H631 H 0.21241 0.25455 0.60313 0.0
H632 H 0.23116 0.2641 0.68142 0.0
H633 H 0.37903 0.28995 0.46556 0.0
H634 H 0.32746 0.27539 0.43552 0.0
H635 H 0.36097 0.32785 0.46424 0.0
H636 H 0.20481 0.26776 0.39135 0.0
H637 H 0.28802 0.39458 0.4564 0.0
H638 H 0.2155 0.21331 0.51596 0.0
H639 H 0.25384 0.21888 0.45953 0.0
H640 H 0.20209 0.20809 0.43541 0.0
H641 H 0.31632 0.36688 0.59566 0.0
H642 H 0.33374 0.4091 0.53991 0.0
H643 H 0.35592 0.3746 0.54014 0.0
C644 C 0.93241 0.26274 0.95849 0.0
C645 C 0.93585 0.24775 0.90033 0.0
C646 C 0.96684 0.28109 0.99903 0.0
C647 C 1.00596 0.28481 0.98115 0.0
C648 C 1.01013 0.27076 0.92201 0.0
C649 C 0.975 0.25235 0.88224 0.0
C650 C 0.961 0.2956 0.06168 0.0
C651 C 0.05144 0.2744 0.90127 0.0
C652 C 0.10276 0.36123 0.07444 0.0
C653 C 0.10632 0.33358 0.11572 0.0
C654 C 0.07086 0.34575 0.02941 0.0
C655 C 0.04168 0.30162 0.02578 0.0
C656 C 0.0452 0.27357 0.06712 0.0
C657 C 0.07743 0.28985 0.11145 0.0
C658 C 0.06811 0.37664 0.98613 0.0
C659 C 0.01449 0.22634 0.06512 0.0
H660 H 0.90247 0.25967 0.97295 0.0
H661 H 0.97807 0.24108 0.83738 0.0
H662 H 0.96556 0.27695 0.09807 0.0
H663 H 0.98521 0.32941 0.06894 0.0
H664 H 0.92902 0.29194 0.06762 0.0
H665 H 0.05024 0.26415 0.85277 0.0
H666 H 0.0777 0.30768 0.90587 0.0
H667 H 0.05915 0.25456 0.93117 0.0
H668 H 0.12498 0.39503 0.07712 0.0
H669 H 0.0798 0.26816 0.14306 0.0
H670 H 0.03743 0.37567 0.99294 0.0
H671 H 0.06908 0.36743 0.9377 0.0
H672 H 0.09429 0.40975 0.99319 0.0
H673 H 0.98182 0.21988 0.07466 0.0
H674 H 0.02239 0.20867 0.09916 0.0
H675 H 0.01441 0.21382 0.0185 0.0
C676 C 0.73398 0.95083 0.42115 0.0
C677 C 0.69039 0.92127 0.41761 0.0
C678 C 0.74994 0.98368 0.46483 0.0
C679 C 0.72171 0.98714 0.50632 0.0
C680 C 0.67768 0.95753 0.50301 0.0
C681 C 0.66253 0.92505 0.45865 0.0
C682 C 0.79707 0.01479 0.46646 0.0
C683 C 0.64656 0.96013 0.54643 0.0
C684 C 0.76981 0.05188 0.65207 0.0
C685 C 0.77429 0.09124 0.63595 0.0
C686 C 0.75196 0.01744 0.61086 0.0
C687 C 0.73832 0.02243 0.55209 0.0
C688 C 0.74191 0.06175 0.53611 0.0
C689 C 0.75972 0.09554 0.57815 0.0
C690 C 0.74846 0.97593 0.62974 0.0
C691 C 0.72781 0.06845 0.47395 0.0
H692 H 0.75583 0.94835 0.38968 0.0
H693 H 0.62882 0.90239 0.45653 0.0
H694 H 0.80314 0.04745 0.45842 0.0
H695 H 0.80983 0.01444 0.51258 0.0
H696 H 0.81482 1.00757 0.43134 0.0
H697 H 0.6134 0.93434 0.53849 0.0
H698 H 0.65517 0.95828 0.59477 0.0
H699 H 0.64802 0.9911 0.54089 0.0
H700 H 0.78079 0.0481 0.69659 0.0
H701 H 0.76281 0.12568 0.56511 0.0
H702 H 0.76841 0.9687 0.59895 0.0
H703 H 0.71522 0.94967 0.62482 0.0
H704 H 0.75865 0.97653 0.67801 0.0
H705 H 0.74677 0.06452 0.43712 0.0
H706 H 0.73137 0.10046 0.46942 0.0
H707 H 0.69408 0.04426 0.46607 0.0
loop_
_geom_bond_atom_site_label_1
_geom_bond_atom_site_label_2
_geom_bond_distance
_geom_bond_site_symmetry_2
_ccdc_geom_bond_type
Fe0 O2 1.918 . S
Fe0 O5 1.997 . S
Fe0 O6 2.002 . S
Fe0 O11 1.976 . S
Fe0 O14 1.996 . S
Fe1 O2 1.918 . S
Fe1 O9 1.997 . S
Fe1 O12 1.996 . S
Fe1 O16 1.976 . S
Fe1 O19 2.002 . S
O2 Fe0 1.918 . S
O2 Fe1 1.918 . S
O2 Fe3 1.918 . S
Fe3 O2 1.918 . S
Fe3 O4 2.002 . S
Fe3 O13 1.976 . S
Fe3 O17 1.996 . S
Fe3 O20 1.997 . S
O4 Fe3 2.002 . S
O4 C21 1.295 . S
O5 Fe0 1.997 . S
O5 C21 1.235 . S
O6 Fe0 2.002 . S
O6 C7 1.295 . S
C7 O6 1.295 . S
C7 O9 1.235 . S
C8 O13 1.287 . S
C8 O14 1.255 . S
O9 Fe1 1.997 . S
O9 C7 1.235 . S
C10 O16 1.287 . S
C10 O17 1.255 . S
O11 Fe0 1.976 . S
O11 C18 1.287 . S
O12 Fe1 1.996 . S
O12 C18 1.255 . S
O13 Fe3 1.976 . S
O13 C8 1.287 . S
O14 Fe0 1.996 . S
O14 C8 1.255 . S
C15 O19 1.295 . S
C15 O20 1.235 . S
O16 Fe1 1.976 . S
O16 C10 1.287 . S
O17 Fe3 1.996 . S
O17 C10 1.255 . S
C18 O11 1.287 . S
C18 O12 1.255 . S
O19 Fe1 2.002 . S
O19 C15 1.295 . S
O20 Fe3 1.997 . S
O20 C15 1.235 . S
C21 O4 1.295 . S
C21 O5 1.235 . S
Fe22 O24 1.918 . S
Fe22 O27 1.997 . S
Fe22 O28 2.002 . S
Fe22 O33 1.976 . S
Fe22 O36 1.996 . S
Fe23 O24 1.918 . S
Fe23 O31 1.997 . S
Fe23 O34 1.996 . S
Fe23 O38 1.976 . S
Fe23 O41 2.002 . S
O24 Fe22 1.918 . S
O24 Fe23 1.918 . S
O24 Fe25 1.918 . S
Fe25 O24 1.918 . S
Fe25 O26 2.002 . S
Fe25 O35 1.976 . S
Fe25 O39 1.996 . S
Fe25 O42 1.997 . S
O26 Fe25 2.002 . S
O26 C43 1.295 . S
O27 Fe22 1.997 . S
O27 C43 1.235 . S
O28 Fe22 2.002 . S
O28 C29 1.295 . S
C29 O28 1.295 . S
C29 O31 1.235 . S
C30 O35 1.287 . S
C30 O36 1.255 . S
O31 Fe23 1.997 . S
O31 C29 1.235 . S
C32 O38 1.287 . S
C32 O39 1.255 . S
O33 Fe22 1.976 . S
O33 C40 1.287 . S
O34 Fe23 1.996 . S
O34 C40 1.255 . S
O35 Fe25 1.976 . S
O35 C30 1.287 . S
O36 Fe22 1.996 . S
O36 C30 1.255 . S
C37 O41 1.295 . S
C37 O42 1.235 . S
O38 Fe23 1.976 . S
O38 C32 1.287 . S
O39 Fe25 1.996 . S
O39 C32 1.255 . S
C40 O33 1.287 . S
C40 O34 1.255 . S
O41 Fe23 2.002 . S
O41 C37 1.295 . S
O42 Fe25 1.997 . S
O42 C37 1.235 . S
C43 O26 1.295 . S
C43 O27 1.235 . S
Fe44 O46 1.918 . S
Fe44 O49 1.997 . S
Fe44 O50 2.002 . S
Fe44 O55 1.976 . S
Fe44 O58 1.996 . S
Fe45 O46 1.918 . S
Fe45 O53 1.997 . S
Fe45 O56 1.996 . S
Fe45 O60 1.976 . S
Fe45 O63 2.002 . S
O46 Fe44 1.918 . S
O46 Fe45 1.918 . S
O46 Fe47 1.918 . S
Fe47 O46 1.918 . S
Fe47 O48 2.002 . S
Fe47 O57 1.976 . S
Fe47 O61 1.996 . S
Fe47 O64 1.997 . S
O48 Fe47 2.002 . S
O48 C65 1.295 . S
O49 Fe44 1.997 . S
O49 C65 1.235 . S
O50 Fe44 2.002 . S
O50 C51 1.295 . S
C51 O50 1.295 . S
C51 O53 1.235 . S
C52 O57 1.287 . S
C52 O58 1.255 . S
O53 Fe45 1.997 . S
O53 C51 1.235 . S
C54 O60 1.287 . S
C54 O61 1.255 . S
O55 Fe44 1.976 . S
O55 C62 1.287 . S
O56 Fe45 1.996 . S
O56 C62 1.255 . S
O57 Fe47 1.976 . S
O57 C52 1.287 . S
O58 Fe44 1.996 . S
O58 C52 1.255 . S
C59 O63 1.295 . S
C59 O64 1.235 . S
O60 Fe45 1.976 . S
O60 C54 1.287 . S
O61 Fe47 1.996 . S
O61 C54 1.255 . S
C62 O55 1.287 . S
C62 O56 1.255 . S
O63 Fe45 2.002 . S
O63 C59 1.295 . S
O64 Fe47 1.997 . S
O64 C59 1.235 . S
C65 O48 1.295 . S
C65 O49 1.235 . S
Fe66 O68 1.918 . S
Fe66 O71 1.997 . S
Fe66 O72 2.002 . S
Fe66 O77 1.976 . S
Fe66 O80 1.996 . S
Fe67 O68 1.918 . S
Fe67 O75 1.997 . S
Fe67 O78 1.996 . S
Fe67 O82 1.976 . S
Fe67 O85 2.002 . S
O68 Fe66 1.918 . S
O68 Fe67 1.918 . S
O68 Fe69 1.918 . S
Fe69 O68 1.918 . S
Fe69 O70 2.002 . S
Fe69 O79 1.976 . S
Fe69 O83 1.996 . S
Fe69 O86 1.997 . S
O70 Fe69 2.002 . S
O70 C87 1.295 . S
O71 Fe66 1.997 . S
O71 C87 1.235 . S
O72 Fe66 2.002 . S
O72 C73 1.295 . S
C73 O72 1.295 . S
C73 O75 1.235 . S
C74 O79 1.287 . S
C74 O80 1.255 . S
O75 Fe67 1.997 . S
O75 C73 1.235 . S
C76 O82 1.287 . S
C76 O83 1.255 . S
O77 Fe66 1.976 . S
O77 C84 1.287 . S
O78 Fe67 1.996 . S
O78 C84 1.255 . S
O79 Fe69 1.976 . S
O79 C74 1.287 . S
O80 Fe66 1.996 . S
O80 C74 1.255 . S
C81 O85 1.295 . S
C81 O86 1.235 . S
O82 Fe67 1.976 . S
O82 C76 1.287 . S
O83 Fe69 1.996 . S
O83 C76 1.255 . S
C84 O77 1.287 . S
C84 O78 1.255 . S
O85 Fe67 2.002 . S
O85 C81 1.295 . S
O86 Fe69 1.997 . S
O86 C81 1.235 . S
C87 O70 1.295 . S
C87 O71 1.235 . S
Fe88 O90 1.918 . S
Fe88 O93 1.997 . S
Fe88 O94 2.002 . S
Fe88 O99 1.976 . S
Fe88 O102 1.996 . S
Fe89 O90 1.918 . S
Fe89 O97 1.997 . S
Fe89 O100 1.996 . S
Fe89 O104 1.976 . S
Fe89 O107 2.002 . S
O90 Fe88 1.918 . S
O90 Fe89 1.918 . S
O90 Fe91 1.918 . S
Fe91 O90 1.918 . S
Fe91 O92 2.002 . S
Fe91 O101 1.976 . S
Fe91 O105 1.996 . S
Fe91 O108 1.997 . S
O92 Fe91 2.002 . S
O92 C109 1.295 . S
O93 Fe88 1.997 . S
O93 C109 1.235 . S
O94 Fe88 2.002 . S
O94 C95 1.295 . S
C95 O94 1.295 . S
C95 O97 1.235 . S
C96 O101 1.287 . S
C96 O102 1.255 . S
O97 Fe89 1.997 . S
O97 C95 1.235 . S
C98 O104 1.287 . S
C98 O105 1.255 . S
O99 Fe88 1.976 . S
O99 C106 1.287 . S
O100 Fe89 1.996 . S
O100 C106 1.255 . S
O101 Fe91 1.976 . S
O101 C96 1.287 . S
O102 Fe88 1.996 . S
O102 C96 1.255 . S
C103 O107 1.295 . S
C103 O108 1.235 . S
O104 Fe89 1.976 . S
O104 C98 1.287 . S
O105 Fe91 1.996 . S
O105 C98 1.255 . S
C106 O99 1.287 . S
C106 O100 1.255 . S
O107 Fe89 2.002 . S
O107 C103 1.295 . S
O108 Fe91 1.997 . S
O108 C103 1.235 . S
C109 O92 1.295 . S
C109 O93 1.235 . S
Fe110 O112 1.918 . S
Fe110 O115 1.997 . S
Fe110 O116 2.002 . S
Fe110 O121 1.976 . S
Fe110 O124 1.996 . S
Fe111 O112 1.918 . S
Fe111 O119 1.997 . S
Fe111 O122 1.996 . S
Fe111 O126 1.976 . S
Fe111 O129 2.002 . S
O112 Fe110 1.918 . S
O112 Fe111 1.918 . S
O112 Fe113 1.918 . S
Fe113 O112 1.918 . S
Fe113 O114 2.002 . S
Fe113 O123 1.976 . S
Fe113 O127 1.996 . S
Fe113 O130 1.997 . S
O114 Fe113 2.002 . S
O114 C131 1.295 . S
O115 Fe110 1.997 . S
O115 C131 1.235 . S
O116 Fe110 2.002 . S
O116 C117 1.295 . S
C117 O116 1.295 . S
C117 O119 1.235 . S
C118 O123 1.287 . S
C118 O124 1.255 . S
O119 Fe111 1.997 . S
O119 C117 1.235 . S
C120 O126 1.287 . S
C120 O127 1.255 . S
O121 Fe110 1.976 . S
O121 C128 1.287 . S
O122 Fe111 1.996 . S
O122 C128 1.255 . S
O123 Fe113 1.976 . S
O123 C118 1.287 . S
O124 Fe110 1.996 . S
O124 C118 1.255 . S
C125 O129 1.295 . S
C125 O130 1.235 . S
O126 Fe111 1.976 . S
O126 C120 1.287 . S
O127 Fe113 1.996 . S
O127 C120 1.255 . S
C128 O121 1.287 . S
C128 O122 1.255 . S
O129 Fe111 2.002 . S
O129 C125 1.295 . S
O130 Fe113 1.997 . S
O130 C125 1.235 . S
C131 O114 1.295 . S
C131 O115 1.235 . S
C132 C133 1.391 . S
C132 C134 1.394 . S
C132 H148 0.931 . S
C133 C132 1.391 . S
C133 C137 1.376 . S
C134 C132 1.394 . S
C134 C135 1.369 . S
C134 C138 1.531 . S
C135 C134 1.369 . S
C135 C136 1.410 . S
C135 C143 1.503 . S
C136 C135 1.410 . S
C136 C137 1.392 . S
C136 C139 1.511 . S
C137 C133 1.376 . S
C137 C136 1.392 . S
C137 H149 0.929 . S
C138 C134 1.531 . S
C138 H150 0.960 . S
C138 H151 0.962 . S
C138 H152 0.960 . S
C139 C136 1.511 . S
C139 H153 0.961 . S
C139 H154 0.961 . S
C139 H155 0.961 . S
C140 C141 1.370 . S
C140 C142 1.363 . S
C140 H156 0.931 . S
C141 C140 1.370 . S
C141 C145 1.408 . S
C142 C140 1.363 . S
C142 C143 1.370 . S
C142 C146 1.524 . S
C143 C135 1.503 . S
C143 C142 1.370 . S
C143 C144 1.403 . S
C144 C143 1.403 . S
C144 C145 1.404 . S
C144 C147 1.539 . S
C145 C141 1.408 . S
C145 C144 1.404 . S
C145 H157 0.930 . S
C146 C142 1.524 . S
C146 H158 0.956 . S
C146 H159 0.961 . S
C146 H160 0.961 . S
C147 C144 1.539 . S
C147 H161 0.958 . S
C147 H162 0.961 . S
C147 H163 0.960 . S
H148 C132 0.931 . S
H149 C137 0.929 . S
H150 C138 0.960 . S
H151 C138 0.962 . S
H152 C138 0.960 . S
H153 C139 0.961 . S
H154 C139 0.961 . S
H155 C139 0.961 . S
H156 C140 0.931 . S
H157 C145 0.930 . S
H158 C146 0.956 . S
H159 C146 0.961 . S
H160 C146 0.961 . S
H161 C147 0.958 . S
H162 C147 0.961 . S
H163 C147 0.960 . S
C164 C165 1.391 . S
C164 C166 1.394 . S
C164 H180 0.931 . S
C165 C164 1.391 . S
C165 C169 1.376 . S
C166 C164 1.394 . S
C166 C167 1.369 . S
C166 C170 1.531 . S
C167 C166 1.369 . S
C167 C168 1.410 . S
C167 C175 1.503 . S
C168 C167 1.410 . S
C168 C169 1.392 . S
C168 C171 1.511 . S
C169 C165 1.376 . S
C169 C168 1.392 . S
C169 H181 0.929 . S
C170 C166 1.531 . S
C170 H182 0.960 . S
C170 H183 0.962 . S
C170 H184 0.960 . S
C171 C168 1.511 . S
C171 H185 0.961 . S
C171 H186 0.961 . S
C171 H187 0.961 . S
C172 C173 1.370 . S
C172 C174 1.363 . S
C172 H188 0.931 . S
C173 C172 1.370 . S
C173 C177 1.408 . S
C174 C172 1.363 . S
C174 C175 1.370 . S
C174 C178 1.524 . S
C175 C167 1.503 . S
C175 C174 1.370 . S
C175 C176 1.403 . S
C176 C175 1.403 . S
C176 C177 1.404 . S
C176 C179 1.539 . S
C177 C173 1.408 . S
C177 C176 1.404 . S
C177 H189 0.930 . S
C178 C174 1.524 . S
C178 H190 0.956 . S
C178 H191 0.961 . S
C178 H192 0.961 . S
C179 C176 1.539 . S
C179 H193 0.958 . S
C179 H194 0.961 . S
C179 H195 0.960 . S
H180 C164 0.931 . S
H181 C169 0.929 . S
H182 C170 0.960 . S
H183 C170 0.962 . S
H184 C170 0.960 . S
H185 C171 0.961 . S
H186 C171 0.961 . S
H187 C171 0.961 . S
H188 C172 0.931 . S
H189 C177 0.930 . S
H190 C178 0.956 . S
H191 C178 0.961 . S
H192 C178 0.961 . S
H193 C179 0.958 . S
H194 C179 0.961 . S
H195 C179 0.960 . S
C196 C197 1.391 . S
C196 C198 1.394 . S
C196 H212 0.931 . S
C197 C196 1.391 . S
C197 C201 1.376 . S
C198 C196 1.394 . S
C198 C199 1.369 . S
C198 C202 1.531 . S
C199 C198 1.369 . S
C199 C200 1.410 . S
C199 C207 1.503 . S
C200 C199 1.410 . S
C200 C201 1.392 . S
C200 C203 1.511 . S
C201 C197 1.376 . S
C201 C200 1.392 . S
C201 H213 0.929 . S
C202 C198 1.531 . S
C202 H214 0.960 . S
C202 H215 0.962 . S
C202 H216 0.960 . S
C203 C200 1.511 . S
C203 H217 0.961 . S
C203 H218 0.961 . S
C203 H219 0.961 . S
C204 C205 1.370 . S
C204 C206 1.363 . S
C204 H220 0.931 . S
C205 C204 1.370 . S
C205 C209 1.408 . S
C206 C204 1.363 . S
C206 C207 1.370 . S
C206 C210 1.524 . S
C207 C199 1.503 . S
C207 C206 1.370 . S
C207 C208 1.403 . S
C208 C207 1.403 . S
C208 C209 1.404 . S
C208 C211 1.539 . S
C209 C205 1.408 . S
C209 C208 1.404 . S
C209 H221 0.930 . S
C210 C206 1.524 . S
C210 H222 0.956 . S
C210 H223 0.961 . S
C210 H224 0.961 . S
C211 C208 1.539 . S
C211 H225 0.958 . S
C211 H226 0.961 . S
C211 H227 0.960 . S
H212 C196 0.931 . S
H213 C201 0.929 . S
H214 C202 0.960 . S
H215 C202 0.962 . S
H216 C202 0.960 . S
H217 C203 0.961 . S
H218 C203 0.961 . S
H219 C203 0.961 . S
H220 C204 0.931 . S
H221 C209 0.930 . S
H222 C210 0.956 . S
H223 C210 0.961 . S
H224 C210 0.961 . S
H225 C211 0.958 . S
H226 C211 0.961 . S
H227 C211 0.960 . S
C228 C229 1.391 . S
C228 C230 1.394 . S
C228 H244 0.931 . S
C229 C228 1.391 . S
C229 C233 1.376 . S
C230 C228 1.394 . S
C230 C231 1.369 . S
C230 C234 1.531 . S
C231 C230 1.369 . S
C231 C232 1.410 . S
C231 C239 1.503 . S
C232 C231 1.410 . S
C232 C233 1.392 . S
C232 C235 1.511 . S
C233 C229 1.376 . S
C233 C232 1.392 . S
C233 H245 0.929 . S
C234 C230 1.531 . S
C234 H246 0.960 . S
C234 H247 0.962 . S
C234 H248 0.960 . S
C235 C232 1.511 . S
C235 H249 0.961 . S
C235 H250 0.961 . S
C235 H251 0.961 . S
C236 C237 1.370 . S
C236 C238 1.363 . S
C236 H252 0.931 . S
C237 C236 1.370 . S
C237 C241 1.408 . S
C238 C236 1.363 . S
C238 C239 1.370 . S
C238 C242 1.524 . S
C239 C231 1.503 . S
C239 C238 1.370 . S
C239 C240 1.403 . S
C240 C239 1.403 . S
C240 C241 1.404 . S
C240 C243 1.539 . S
C241 C237 1.408 . S
C241 C240 1.404 . S
C241 H253 0.930 . S
C242 C238 1.524 . S
C242 H254 0.956 . S
C242 H255 0.961 . S
C242 H256 0.961 . S
C243 C240 1.539 . S
C243 H257 0.958 . S
C243 H258 0.961 . S
C243 H259 0.960 . S
H244 C228 0.931 . S
H245 C233 0.929 . S
H246 C234 0.960 . S
H247 C234 0.962 . S
H248 C234 0.960 . S
H249 C235 0.961 . S
H250 C235 0.961 . S
H251 C235 0.961 . S
H252 C236 0.931 . S
H253 C241 0.930 . S
H254 C242 0.956 . S
H255 C242 0.961 . S
H256 C242 0.961 . S
H257 C243 0.958 . S
H258 C243 0.961 . S
H259 C243 0.960 . S
C260 C261 1.391 . S
C260 C262 1.394 . S
C260 H276 0.931 . S
C261 C260 1.391 . S
C261 C265 1.376 . S
C262 C260 1.394 . S
C262 C263 1.369 . S
C262 C266 1.531 . S
C263 C262 1.369 . S
C263 C264 1.410 . S
C263 C271 1.503 . S
C264 C263 1.410 . S
C264 C265 1.392 . S
C264 C267 1.511 . S
C265 C261 1.376 . S
C265 C264 1.392 . S
C265 H277 0.929 . S
C266 C262 1.531 . S
C266 H278 0.960 . S
C266 H279 0.962 . S
C266 H280 0.960 . S
C267 C264 1.511 . S
C267 H281 0.961 . S
C267 H282 0.961 . S
C267 H283 0.961 . S
C268 C269 1.370 . S
C268 C270 1.363 . S
C268 H284 0.931 . S
C269 C268 1.370 . S
C269 C273 1.408 . S
C270 C268 1.363 . S
C270 C271 1.370 . S
C270 C274 1.524 . S
C271 C263 1.503 . S
C271 C270 1.370 . S
C271 C272 1.403 . S
C272 C271 1.403 . S
C272 C273 1.404 . S
C272 C275 1.539 . S
C273 C269 1.408 . S
C273 C272 1.404 . S
C273 H285 0.930 . S
C274 C270 1.524 . S
C274 H286 0.956 . S
C274 H287 0.961 . S
C274 H288 0.961 . S
C275 C272 1.539 . S
C275 H289 0.958 . S
C275 H290 0.961 . S
C275 H291 0.960 . S
H276 C260 0.931 . S
H277 C265 0.929 . S
H278 C266 0.960 . S
H279 C266 0.962 . S
H280 C266 0.960 . S
H281 C267 0.961 . S
H282 C267 0.961 . S
H283 C267 0.961 . S
H284 C268 0.931 . S
H285 C273 0.930 . S
H286 C274 0.956 . S
H287 C274 0.961 . S
H288 C274 0.961 . S
H289 C275 0.958 . S
H290 C275 0.961 . S
H291 C275 0.960 . S
C292 C293 1.391 . S
C292 C294 1.394 . S
C292 H308 0.931 . S
C293 C292 1.391 . S
C293 C297 1.376 . S
C294 C292 1.394 . S
C294 C295 1.369 . S
C294 C298 1.531 . S
C295 C294 1.369 . S
C295 C296 1.410 . S
C295 C303 1.503 . S
C296 C295 1.410 . S
C296 C297 1.392 . S
C296 C299 1.511 . S
C297 C293 1.376 . S
C297 C296 1.392 . S
C297 H309 0.929 . S
C298 C294 1.531 . S
C298 H310 0.960 . S
C298 H311 0.962 . S
C298 H312 0.960 . S
C299 C296 1.511 . S
C299 H313 0.961 . S
C299 H314 0.961 . S
C299 H315 0.961 . S
C300 C301 1.370 . S
C300 C302 1.363 . S
C300 H316 0.931 . S
C301 C300 1.370 . S
C301 C305 1.408 . S
C302 C300 1.363 . S
C302 C303 1.370 . S
C302 C306 1.524 . S
C303 C295 1.503 . S
C303 C302 1.370 . S
C303 C304 1.403 . S
C304 C303 1.403 . S
C304 C305 1.404 . S
C304 C307 1.539 . S
C305 C301 1.408 . S
C305 C304 1.404 . S
C305 H317 0.930 . S
C306 C302 1.524 . S
C306 H318 0.956 . S
C306 H319 0.961 . S
C306 H320 0.961 . S
C307 C304 1.539 . S
C307 H321 0.958 . S
C307 H322 0.961 . S
C307 H323 0.960 . S
H308 C292 0.931 . S
H309 C297 0.929 . S
H310 C298 0.960 . S
H311 C298 0.962 . S
H312 C298 0.960 . S
H313 C299 0.961 . S
H314 C299 0.961 . S
H315 C299 0.961 . S
H316 C300 0.931 . S
H317 C305 0.930 . S
H318 C306 0.956 . S
H319 C306 0.961 . S
H320 C306 0.961 . S
H321 C307 0.958 . S
H322 C307 0.961 . S
H323 C307 0.960 . S
C324 C325 1.391 . S
C324 C326 1.394 . S
C324 H340 0.931 . S
C325 C324 1.391 . S
C325 C329 1.376 . S
C326 C324 1.394 . S
C326 C327 1.369 . S
C326 C330 1.531 1_556 S
C327 C326 1.369 . S
C327 C328 1.410 . S
C327 C335 1.503 1_556 S
C328 C327 1.410 . S
C328 C329 1.392 . S
C328 C331 1.511 . S
C329 C325 1.376 . S
C329 C328 1.392 . S
C329 H341 0.929 . S
C330 C326 1.531 1_554 S
C330 H342 0.960 . S
C330 H343 0.962 . S
C330 H344 0.960 . S
C331 C328 1.511 . S
C331 H345 0.961 . S
C331 H346 0.961 . S
C331 H347 0.961 . S
C332 C333 1.370 . S
C332 C334 1.363 . S
C332 H348 0.931 . S
C333 C332 1.370 . S
C333 C337 1.408 . S
C334 C332 1.363 . S
C334 C335 1.370 . S
C334 C338 1.524 . S
C335 C327 1.503 1_554 S
C335 C334 1.370 . S
C335 C336 1.403 . S
C336 C335 1.403 . S
C336 C337 1.404 . S
C336 C339 1.539 1_554 S
C337 C333 1.408 . S
C337 C336 1.404 . S
C337 H349 0.930 . S
C338 C334 1.524 . S
C338 H350 0.956 . S
C338 H351 0.961 . S
C338 H352 0.961 . S
C339 C336 1.539 1_556 S
C339 H353 0.958 . S
C339 H354 0.961 . S
C339 H355 0.960 . S
H340 C324 0.931 . S
H341 C329 0.929 . S
H342 C330 0.960 . S
H343 C330 0.962 . S
H344 C330 0.960 . S
H345 C331 0.961 . S
H346 C331 0.961 . S
H347 C331 0.961 . S
H348 C332 0.931 . S
H349 C337 0.930 . S
H350 C338 0.956 . S
H351 C338 0.961 . S
H352 C338 0.961 . S
H353 C339 0.958 . S
H354 C339 0.961 . S
H355 C339 0.960 . S
C356 C357 1.391 . S
C356 C358 1.394 . S
C356 H372 0.931 . S
C357 C356 1.391 . S
C357 C361 1.376 . S
C358 C356 1.394 . S
C358 C359 1.369 . S
C358 C362 1.531 . S
C359 C358 1.369 . S
C359 C360 1.410 . S
C359 C367 1.503 1_655 S
C360 C359 1.410 . S
C360 C361 1.392 . S
C360 C363 1.511 . S
C361 C357 1.376 . S
C361 C360 1.392 . S
C361 H373 0.929 . S
C362 C358 1.531 . S
C362 H374 0.960 . S
C362 H375 0.962 . S
C362 H376 0.960 . S
C363 C360 1.511 . S
C363 H377 0.961 . S
C363 H378 0.961 1_655 S
C363 H379 0.961 . S
C364 C365 1.370 . S
C364 C366 1.363 . S
C364 H380 0.931 . S
C365 C364 1.370 . S
C365 C369 1.408 . S
C366 C364 1.363 . S
C366 C367 1.370 . S
C366 C370 1.524 . S
C367 C359 1.503 1_455 S
C367 C366 1.370 . S
C367 C368 1.403 . S
C368 C367 1.403 . S
C368 C369 1.404 . S
C368 C371 1.539 1_455 S
C369 C365 1.408 . S
C369 C368 1.404 . S
C369 H381 0.930 . S
C370 C366 1.524 . S
C370 H382 0.956 . S
C370 H383 0.961 . S
C370 H384 0.961 . S
C371 C368 1.539 1_655 S
C371 H385 0.958 . S
C371 H386 0.961 . S
C371 H387 0.960 . S
H372 C356 0.931 . S
H373 C361 0.929 . S
H374 C362 0.960 . S
H375 C362 0.962 . S
H376 C362 0.960 . S
H377 C363 0.961 . S
H378 C363 0.961 1_455 S
H379 C363 0.961 . S
H380 C364 0.931 . S
H381 C369 0.930 . S
H382 C370 0.956 . S
H383 C370 0.961 . S
H384 C370 0.961 . S
H385 C371 0.958 . S
H386 C371 0.961 . S
H387 C371 0.960 . S
C388 C389 1.391 . S
C388 C390 1.394 . S
C388 H404 0.931 . S
C389 C388 1.391 . S
C389 C393 1.376 . S
C390 C388 1.394 . S
C390 C391 1.369 . S
C390 C394 1.536 . S
C391 C390 1.369 . S
C391 C392 1.410 . S
C391 C399 1.503 1_546 S
C392 C391 1.410 . S
C392 C393 1.392 . S
C392 C395 1.511 . S
C393 C389 1.376 . S
C393 C392 1.392 . S
C393 H405 0.929 . S
C394 C390 1.536 . S
C394 H406 0.947 1_556 S
C394 H407 0.969 . S
C394 H408 0.961 . S
C395 C392 1.511 . S
C395 H409 0.961 . S
C395 H410 0.961 1_545 S
C395 H411 0.961 1_556 S
C396 C397 1.370 . S
C396 C398 1.363 . S
C396 H412 0.931 . S
C397 C396 1.370 . S
C397 C401 1.408 . S
C398 C396 1.363 . S
C398 C399 1.370 . S
C398 C402 1.524 1_554 S
C399 C391 1.503 1_564 S
C399 C398 1.370 . S
C399 C400 1.403 . S
C400 C399 1.403 . S
C400 C401 1.404 . S
C400 C403 1.539 1_565 S
C401 C397 1.408 . S
C401 C400 1.404 . S
C401 H413 0.930 . S
C402 C398 1.524 1_556 S
C402 H414 0.956 . S
C402 H415 0.961 . S
C402 H416 0.961 . S
C403 C400 1.539 1_545 S
C403 H417 0.958 . S
C403 H418 0.961 . S
C403 H419 0.960 . S
H404 C388 0.931 . S
H405 C393 0.929 . S
H406 C394 0.947 1_554 S
H407 C394 0.969 . S
H408 C394 0.961 . S
H409 C395 0.961 . S
H410 C395 0.961 1_565 S
H411 C395 0.961 1_554 S
H412 C396 0.931 . S
H413 C401 0.930 . S
H414 C402 0.956 . S
H415 C402 0.961 . S
H416 C402 0.961 . S
H417 C403 0.958 . S
H418 C403 0.961 . S
H419 C403 0.960 . S
C420 C421 1.391 . S
C420 C422 1.394 . S
C420 H436 0.931 . S
C421 C420 1.391 . S
C421 C425 1.376 . S
C422 C420 1.394 . S
C422 C423 1.369 . S
C422 C426 1.531 . S
C423 C422 1.369 . S
C423 C424 1.410 . S
C423 C431 1.503 . S
C424 C423 1.410 . S
C424 C425 1.392 . S
C424 C427 1.511 . S
C425 C421 1.376 . S
C425 C424 1.392 . S
C425 H437 0.929 . S
C426 C422 1.531 . S
C426 H438 0.960 . S
C426 H439 0.962 . S
C426 H440 0.960 . S
C427 C424 1.511 . S
C427 H441 0.961 . S
C427 H442 0.961 . S
C427 H443 0.961 . S
C428 C429 1.370 . S
C428 C430 1.363 . S
C428 H444 0.931 . S
C429 C428 1.370 . S
C429 C433 1.408 . S
C430 C428 1.363 . S
C430 C431 1.370 . S
C430 C434 1.524 . S
C431 C423 1.503 . S
C431 C430 1.370 . S
C431 C432 1.403 . S
C432 C431 1.403 . S
C432 C433 1.404 . S
C432 C435 1.539 . S
C433 C429 1.408 . S
C433 C432 1.404 . S
C433 H445 0.930 . S
C434 C430 1.524 . S
C434 H446 0.956 . S
C434 H447 0.961 . S
C434 H448 0.961 . S
C435 C432 1.539 . S
C435 H449 0.958 . S
C435 H450 0.961 . S
C435 H451 0.960 . S
H436 C420 0.931 . S
H437 C425 0.929 . S
H438 C426 0.960 . S
H439 C426 0.962 . S
H440 C426 0.960 . S
H441 C427 0.961 . S
H442 C427 0.961 . S
H443 C427 0.961 . S
H444 C428 0.931 . S
H445 C433 0.930 . S
H446 C434 0.956 . S
H447 C434 0.961 . S
H448 C434 0.961 . S
H449 C435 0.958 . S
H450 C435 0.961 . S
H451 C435 0.960 . S
C452 C453 1.391 . S
C452 C454 1.394 . S
C452 H468 0.931 . S
C453 C452 1.391 . S
C453 C457 1.376 . S
C454 C452 1.394 . S
C454 C455 1.369 . S
C454 C458 1.531 1_655 S
C455 C454 1.369 . S
C455 C456 1.410 . S
C455 C463 1.503 1_656 S
C456 C455 1.410 . S
C456 C457 1.392 . S
C456 C459 1.511 1_556 S
C457 C453 1.376 . S
C457 C456 1.392 . S
C457 H469 0.929 . S
C458 C454 1.531 1_455 S
C458 H470 0.960 . S
C458 H471 0.962 . S
C458 H472 0.960 . S
C459 C456 1.511 1_554 S
C459 H473 0.961 . S
C459 H474 0.961 . S
C459 H475 0.961 . S
C460 C461 1.370 . S
C460 C462 1.363 . S
C460 H476 0.931 . S
C461 C460 1.370 . S
C461 C465 1.408 . S
C462 C460 1.363 . S
C462 C463 1.370 . S
C462 C466 1.524 . S
C463 C455 1.503 1_454 S
C463 C462 1.370 . S
C463 C464 1.403 . S
C464 C463 1.403 . S
C464 C465 1.404 . S
C464 C467 1.539 . S
C465 C461 1.408 . S
C465 C464 1.404 . S
C465 H477 0.930 . S
C466 C462 1.524 . S
C466 H478 0.956 1_554 S
C466 H479 0.961 1_455 S
C466 H480 0.961 . S
C467 C464 1.539 . S
C467 H481 0.958 1_554 S
C467 H482 0.961 . S
C467 H483 0.960 1_455 S
H468 C452 0.931 . S
H469 C457 0.929 . S
H470 C458 0.960 . S
H471 C458 0.962 . S
H472 C458 0.960 . S
H473 C459 0.961 . S
H474 C459 0.961 . S
H475 C459 0.961 . S
H476 C460 0.931 . S
H477 C465 0.930 . S
H478 C466 0.956 1_556 S
H479 C466 0.961 1_655 S
H480 C466 0.961 . S
H481 C467 0.958 1_556 S
H482 C467 0.961 . S
H483 C467 0.960 1_655 S
C484 C485 1.391 . S
C484 C486 1.394 . S
C484 H500 0.931 . S
C485 C484 1.391 . S
C485 C489 1.376 . S
C486 C484 1.394 . S
C486 C487 1.369 . S
C486 C490 1.531 . S
C487 C486 1.369 . S
C487 C488 1.410 . S
C487 C495 1.503 1_545 S
C488 C487 1.410 . S
C488 C489 1.392 . S
C488 C491 1.511 . S
C489 C485 1.376 . S
C489 C488 1.392 . S
C489 H501 0.929 . S
C490 C486 1.531 . S
C490 H502 0.960 . S
C490 H503 0.962 . S
C490 H504 0.960 . S
C491 C488 1.511 . S
C491 H505 0.961 . S
C491 H506 0.961 1_545 S
C491 H507 0.961 . S
C492 C493 1.370 . S
C492 C494 1.363 . S
C492 H508 0.931 . S
C493 C492 1.370 . S
C493 C497 1.408 . S
C494 C492 1.363 . S
C494 C495 1.370 . S
C494 C498 1.524 . S
C495 C487 1.503 1_565 S
C495 C494 1.370 . S
C495 C496 1.403 . S
C496 C495 1.403 . S
C496 C497 1.404 . S
C496 C499 1.539 1_565 S
C497 C493 1.408 . S
C497 C496 1.404 . S
C497 H509 0.930 . S
C498 C494 1.524 . S
C498 H510 0.956 . S
C498 H511 0.961 . S
C498 H512 0.961 . S
C499 C496 1.539 1_545 S
C499 H513 0.958 . S
C499 H514 0.961 . S
C499 H515 0.960 . S
H500 C484 0.931 . S
H501 C489 0.929 . S
H502 C490 0.960 . S
H503 C490 0.962 . S
H504 C490 0.960 . S
H505 C491 0.961 . S
H506 C491 0.961 1_565 S
H507 C491 0.961 . S
H508 C492 0.931 . S
H509 C497 0.930 . S
H510 C498 0.956 . S
H511 C498 0.961 . S
H512 C498 0.961 . S
H513 C499 0.958 . S
H514 C499 0.961 . S
H515 C499 0.960 . S
C516 C517 1.391 . S
C516 C518 1.394 . S
C516 H532 0.931 . S
C517 C516 1.391 . S
C517 C521 1.376 . S
C518 C516 1.394 . S
C518 C519 1.369 . S
C518 C522 1.531 . S
C519 C518 1.369 . S
C519 C520 1.410 . S
C519 C527 1.503 1_554 S
C520 C519 1.410 . S
C520 C521 1.392 . S
C520 C523 1.511 1_554 S
C521 C517 1.376 . S
C521 C520 1.392 . S
C521 H533 0.929 . S
C522 C518 1.531 . S
C522 H534 0.960 . S
C522 H535 0.962 . S
C522 H536 0.960 . S
C523 C520 1.511 1_556 S
C523 H537 0.961 . S
C523 H538 0.961 . S
C523 H539 0.961 . S
C524 C525 1.370 . S
C524 C526 1.363 . S
C524 H540 0.931 . S
C525 C524 1.370 . S
C525 C529 1.408 . S
C526 C524 1.363 . S
C526 C527 1.370 . S
C526 C530 1.524 1_556 S
C527 C519 1.503 1_556 S
C527 C526 1.370 . S
C527 C528 1.403 . S
C528 C527 1.403 . S
C528 C529 1.404 . S
C528 C531 1.539 . S
C529 C525 1.408 . S
C529 C528 1.404 . S
C529 H541 0.930 . S
C530 C526 1.524 1_554 S
C530 H542 0.956 . S
C530 H543 0.961 . S
C530 H544 0.956 1_554 S
C531 C528 1.539 . S
C531 H545 0.958 . S
C531 H546 0.961 . S
C531 H547 0.960 . S
H532 C516 0.931 . S
H533 C521 0.929 . S
H534 C522 0.960 . S
H535 C522 0.962 . S
H536 C522 0.960 . S
H537 C523 0.961 . S
H538 C523 0.961 . S
H539 C523 0.961 . S
H540 C524 0.931 . S
H541 C529 0.930 . S
H542 C530 0.956 . S
H543 C530 0.961 . S
H544 C530 0.956 1_556 S
H545 C531 0.958 . S
H546 C531 0.961 . S
H547 C531 0.960 . S
C548 C549 1.391 . S
C548 C550 1.394 . S
C548 H564 0.931 . S
C549 C548 1.391 . S
C549 C553 1.376 . S
C550 C548 1.394 . S
C550 C551 1.369 . S
C550 C554 1.531 1_655 S
C551 C550 1.369 . S
C551 C552 1.410 . S
C551 C559 1.503 1_655 S
C552 C551 1.410 . S
C552 C553 1.392 . S
C552 C555 1.511 . S
C553 C549 1.376 . S
C553 C552 1.392 . S
C553 H565 0.929 . S
C554 C550 1.531 1_455 S
C554 H566 0.960 . S
C554 H567 0.962 . S
C554 H568 0.960 . S
C555 C552 1.511 . S
C555 H569 0.961 . S
C555 H570 0.961 . S
C555 H571 0.961 . S
C556 C557 1.370 . S
C556 C558 1.363 . S
C556 H572 0.931 . S
C557 C556 1.370 . S
C557 C561 1.408 . S
C558 C556 1.363 . S
C558 C559 1.370 . S
C558 C562 1.524 . S
C559 C551 1.503 1_455 S
C559 C558 1.370 . S
C559 C560 1.403 . S
C560 C559 1.403 . S
C560 C561 1.404 . S
C560 C563 1.539 1_455 S
C561 C557 1.408 . S
C561 C560 1.404 . S
C561 H573 0.930 . S
C562 C558 1.524 . S
C562 H574 0.956 . S
C562 H575 0.961 . S
C562 H576 0.961 . S
C563 C560 1.539 1_655 S
C563 H577 0.958 . S
C563 H578 0.961 . S
C563 H579 0.960 . S
H564 C548 0.931 . S
H565 C553 0.929 . S
H566 C554 0.960 . S
H567 C554 0.962 . S
H568 C554 0.960 . S
H569 C555 0.961 . S
H570 C555 0.961 . S
H571 C555 0.961 . S
H572 C556 0.931 . S
H573 C561 0.930 . S
H574 C562 0.956 . S
H575 C562 0.961 . S
H576 C562 0.961 . S
H577 C563 0.958 . S
H578 C563 0.961 . S
H579 C563 0.960 . S
C580 C581 1.391 . S
C580 C582 1.394 . S
C580 H596 0.931 . S
C581 C580 1.391 . S
C581 C585 1.376 . S
C582 C580 1.394 . S
C582 C583 1.369 . S
C582 C586 1.531 . S
C583 C582 1.369 . S
C583 C584 1.410 . S
C583 C591 1.503 1_564 S
C584 C583 1.410 . S
C584 C585 1.392 . S
C584 C587 1.511 1_565 S
C585 C581 1.376 . S
C585 C584 1.392 . S
C585 H597 0.929 . S
C586 C582 1.531 . S
C586 H598 0.960 1_565 S
C586 H599 0.962 1_554 S
C586 H600 0.960 . S
C587 C584 1.511 1_545 S
C587 H601 0.949 1_545 S
C587 H602 0.965 . S
C587 H603 0.968 . S
C588 C589 1.370 . S
C588 C590 1.363 . S
C588 H604 0.931 . S
C589 C588 1.370 . S
C589 C593 1.408 . S
C590 C588 1.363 . S
C590 C591 1.370 . S
C590 C594 1.524 1_545 S
C591 C583 1.503 1_546 S
C591 C590 1.370 . S
C591 C592 1.403 . S
C592 C591 1.403 . S
C592 C593 1.404 . S
C592 C595 1.539 1_556 S
C593 C589 1.408 . S
C593 C592 1.404 . S
C593 H605 0.930 . S
C594 C590 1.524 1_565 S
C594 H606 0.956 . S
C594 H607 0.961 . S
C594 H608 0.961 . S
C595 C592 1.539 1_554 S
C595 H609 0.958 . S
C595 H610 0.961 . S
C595 H611 0.960 . S
H596 C580 0.931 . S
H597 C585 0.929 . S
H598 C586 0.960 1_545 S
H599 C586 0.962 1_556 S
H600 C586 0.960 . S
H601 C587 0.949 1_565 S
H602 C587 0.965 . S
H603 C587 0.968 . S
H604 C588 0.931 . S
H605 C593 0.930 . S
H606 C594 0.956 . S
H607 C594 0.961 . S
H608 C594 0.961 . S
H609 C595 0.958 . S
H610 C595 0.961 . S
H611 C595 0.960 . S
C612 C613 1.391 . S
C612 C614 1.394 . S
C612 H628 0.931 . S
C613 C612 1.391 . S
C613 C617 1.376 . S
C614 C612 1.394 . S
C614 C615 1.369 . S
C614 C618 1.531 . S
C615 C614 1.369 . S
C615 C616 1.410 . S
C615 C623 1.503 . S
C616 C615 1.410 . S
C616 C617 1.392 . S
C616 C619 1.511 . S
C617 C613 1.376 . S
C617 C616 1.392 . S
C617 H629 0.929 . S
C618 C614 1.531 . S
C618 H630 0.960 . S
C618 H631 0.962 . S
C618 H632 0.960 . S
C619 C616 1.511 . S
C619 H633 0.961 . S
C619 H634 0.961 . S
C619 H635 0.961 . S
C620 C621 1.370 . S
C620 C622 1.363 . S
C620 H636 0.931 . S
C621 C620 1.370 . S
C621 C625 1.408 . S
C622 C620 1.363 . S
C622 C623 1.370 . S
C622 C626 1.524 . S
C623 C615 1.503 . S
C623 C622 1.370 . S
C623 C624 1.403 . S
C624 C623 1.403 . S
C624 C625 1.404 . S
C624 C627 1.539 . S
C625 C621 1.408 . S
C625 C624 1.404 . S
C625 H637 0.930 . S
C626 C622 1.524 . S
C626 H638 0.956 . S
C626 H639 0.961 . S
C626 H640 0.961 . S
C627 C624 1.539 . S
C627 H641 0.958 . S
C627 H642 0.961 . S
C627 H643 0.960 . S
H628 C612 0.931 . S
H629 C617 0.929 . S
H630 C618 0.960 . S
H631 C618 0.962 . S
H632 C618 0.960 . S
H633 C619 0.961 . S
H634 C619 0.961 . S
H635 C619 0.961 . S
H636 C620 0.931 . S
H637 C625 0.930 . S
H638 C626 0.956 . S
H639 C626 0.961 . S
H640 C626 0.961 . S
H641 C627 0.958 . S
H642 C627 0.961 . S
H643 C627 0.960 . S
C644 C645 1.391 . S
C644 C646 1.394 . S
C644 H660 0.931 . S
C645 C644 1.391 . S
C645 C649 1.376 . S
C646 C644 1.394 . S
C646 C647 1.369 . S
C646 C650 1.531 1_556 S
C647 C646 1.369 . S
C647 C648 1.410 . S
C647 C655 1.503 1_656 S
C648 C647 1.410 . S
C648 C649 1.392 . S
C648 C651 1.511 1_655 S
C649 C645 1.376 . S
C649 C648 1.392 . S
C649 H661 0.929 . S
C650 C646 1.531 1_554 S
C650 H662 0.960 . S
C650 H663 0.962 . S
C650 H664 0.960 . S
C651 C648 1.511 1_455 S
C651 H665 0.961 . S
C651 H666 0.961 . S
C651 H667 0.961 . S
C652 C653 1.370 . S
C652 C654 1.363 . S
C652 H668 0.931 . S
C653 C652 1.370 . S
C653 C657 1.408 . S
C654 C652 1.363 . S
C654 C655 1.370 . S
C654 C658 1.524 1_554 S
C655 C647 1.503 1_454 S
C655 C654 1.370 . S
C655 C656 1.403 . S
C656 C655 1.403 . S
C656 C657 1.404 . S
C656 C659 1.539 1_455 S
C657 C653 1.408 . S
C657 C656 1.404 . S
C657 H669 0.930 . S
C658 C654 1.524 1_556 S
C658 H670 0.956 . S
C658 H671 0.961 . S
C658 H672 0.961 . S
C659 C656 1.539 1_655 S
C659 H673 0.958 . S
C659 H674 0.961 1_655 S
C659 H675 0.960 . S
H660 C644 0.931 . S
H661 C649 0.929 . S
H662 C650 0.960 . S
H663 C650 0.962 . S
H664 C650 0.960 . S
H665 C651 0.961 . S
H666 C651 0.961 . S
H667 C651 0.961 . S
H668 C652 0.931 . S
H669 C657 0.930 . S
H670 C658 0.956 . S
H671 C658 0.961 . S
H672 C658 0.961 . S
H673 C659 0.958 . S
H674 C659 0.961 1_455 S
H675 C659 0.960 . S
C676 C677 1.391 . S
C676 C678 1.394 . S
C676 H692 0.931 . S
C677 C676 1.391 . S
C677 C681 1.376 . S
C678 C676 1.394 . S
C678 C679 1.369 . S
C678 C682 1.531 1_565 S
C679 C678 1.369 . S
C679 C680 1.410 . S
C679 C687 1.503 1_565 S
C680 C679 1.410 . S
C680 C681 1.392 . S
C680 C683 1.511 . S
C681 C677 1.376 . S
C681 C680 1.392 . S
C681 H693 0.929 . S
C682 C678 1.531 1_545 S
C682 H694 0.960 . S
C682 H695 0.962 . S
C682 H696 0.960 . S
C683 C680 1.511 . S
C683 H697 0.961 . S
C683 H698 0.961 . S
C683 H699 0.961 . S
C684 C685 1.370 . S
C684 C686 1.363 . S
C684 H700 0.931 . S
C685 C684 1.370 . S
C685 C689 1.408 . S
C686 C684 1.363 . S
C686 C687 1.370 . S
C686 C690 1.524 1_545 S
C687 C679 1.503 1_545 S
C687 C686 1.370 . S
C687 C688 1.403 . S
C688 C687 1.403 . S
C688 C689 1.404 . S
C688 C691 1.539 . S
C689 C685 1.408 . S
C689 C688 1.404 . S
C689 H701 0.930 . S
C690 C686 1.524 1_565 S
C690 H702 0.956 . S
C690 H703 0.961 . S
C690 H704 0.961 . S
C691 C688 1.539 . S
C691 H705 0.958 . S
C691 H706 0.961 . S
C691 H707 0.960 . S
H692 C676 0.931 . S
H693 C681 0.929 . S
H694 C682 0.960 . S
H695 C682 0.962 . S
H696 C682 0.960 . S
H697 C683 0.961 . S
H698 C683 0.961 . S
H699 C683 0.961 . S
H700 C684 0.931 . S
H701 C689 0.930 . S
H702 C690 0.956 . S
H703 C690 0.961 . S
H704 C690 0.961 . S
H705 C691 0.958 . S
H706 C691 0.961 . S
H707 C691 0.960 . S
C133 C15 1.468 . S
C141 C103 1.464 . S
C165 C40 1.429 . S
C173 C117 1.416 . S
C197 C10 1.403 . S
C205 C54 1.403 . S
C229 C81 1.454 . S
C237 C29 1.459 . S
C261 C59 1.402 . S
C269 C98 1.436 . S
C293 C76 1.388 . S
C301 C128 1.397 . S
C325 C120 1.483 . S
C333 C8 1.484 . S
C357 C43 1.541 . S
C365 C7 1.557 . S
C389 C32 1.516 . S
C397 C51 1.519 . S
C421 C52 1.481 . S
C429 C74 1.482 . S
C453 C73 1.539 . S
C461 C95 1.549 . S
C485 C131 1.503 . S
C493 C96 1.523 . S
C517 C62 1.477 . S
C525 C84 1.483 . S
C549 C87 1.545 . S
C557 C109 1.556 . S
C581 C106 1.522 . S
C589 C125 1.508 . S
C613 C118 1.481 . S
C621 C18 1.482 . S
C645 C37 1.536 . S
C653 C21 1.550 . S
C677 C65 1.522 . S
C685 C30 1.520 . S
