# Generated by pormake.
# Topology wir, (6)-cn, num edge types: 1
# Building blocks:
#     Node 0, Type 0, BuildingBlock: CIFDUS_clean_sbu_1, # of connection points: 6
#     Node 1, Type 0, BuildingBlock: CIFDUS_clean_sbu_1, # of connection points: 6
#     Node 2, Type 0, BuildingBlock: CIFDUS_clean_sbu_1, # of connection points: 6
#     Node 3, Type 0, BuildingBlock: CIFDUS_clean_sbu_1, # of connection points: 6
#     Node 4, Type 0, BuildingBlock: CIFDUS_clean_sbu_1, # of connection points: 6
#     Node 5, Type 0, BuildingBlock: CIFDUS_clean_sbu_1, # of connection points: 6
#     Node 6, Type 0, BuildingBlock: CIFDUS_clean_sbu_1, # of connection points: 6
#     Node 7, Type 0, BuildingBlock: CIFDUS_clean_sbu_1, # of connection points: 6
#     Node 8, Type 0, BuildingBlock: CIFDUS_clean_sbu_1, # of connection points: 6
#     Node 9, Type 0, BuildingBlock: CIFDUS_clean_sbu_1, # of connection points: 6
#     Node 10, Type 0, BuildingBlock: CIFDUS_clean_sbu_1, # of connection points: 6
#     Node 11, Type 0, BuildingBlock: CIFDUS_clean_sbu_1, # of connection points: 6
#     Node 12, Type 0, BuildingBlock: CIFDUS_clean_sbu_1, # of connection points: 6
#     Node 13, Type 0, BuildingBlock: CIFDUS_clean_sbu_1, # of connection points: 6
#     Node 14, Type 0, BuildingBlock: CIFDUS_clean_sbu_1, # of connection points: 6
#     Node 15, Type 0, BuildingBlock: CIFDUS_clean_sbu_1, # of connection points: 6
#     Node 16, Type 0, BuildingBlock: CIFDUS_clean_sbu_1, # of connection points: 6
#     Node 17, Type 0, BuildingBlock: CIFDUS_clean_sbu_1, # of connection points: 6
#     Node 18, Type 0, BuildingBlock: CIFDUS_clean_sbu_1, # of connection points: 6
#     Node 19, Type 0, BuildingBlock: CIFDUS_clean_sbu_1, # of connection points: 6
#     Node 20, Type 0, BuildingBlock: CIFDUS_clean_sbu_1, # of connection points: 6
#     Node 21, Type 0, BuildingBlock: CIFDUS_clean_sbu_1, # of connection points: 6
#     Node 22, Type 0, BuildingBlock: CIFDUS_clean_sbu_1, # of connection points: 6
#     Node 23, Type 0, BuildingBlock: CIFDUS_clean_sbu_1, # of connection points: 6
#     Node 24, Type 0, BuildingBlock: CIFDUS_clean_sbu_1, # of connection points: 6
#     Node 25, Type 0, BuildingBlock: CIFDUS_clean_sbu_1, # of connection points: 6
#     Node 26, Type 0, BuildingBlock: CIFDUS_clean_sbu_1, # of connection points: 6
#     Node 27, Type 0, BuildingBlock: CIFDUS_clean_sbu_1, # of connection points: 6
#     Node 28, Type 0, BuildingBlock: CIFDUS_clean_sbu_1, # of connection points: 6
#     Node 29, Type 0, BuildingBlock: CIFDUS_clean_sbu_1, # of connection points: 6
#     Node 30, Type 0, BuildingBlock: CIFDUS_clean_sbu_1, # of connection points: 6
#     Node 31, Type 0, BuildingBlock: CIFDUS_clean_sbu_1, # of connection points: 6
#     Edge 32, Type (0, 0), BuildingBlock: KIFKEQ_clean_linker_1, # of connection points: 2
#     Edge 33, Type (0, 0), BuildingBlock: KIFKEQ_clean_linker_1, # of connection points: 2
#     Edge 34, Type (0, 0), BuildingBlock: KIFKEQ_clean_linker_1, # of connection points: 2
#     Edge 35, Type (0, 0), BuildingBlock: KIFKEQ_clean_linker_1, # of connection points: 2
#     Edge 36, Type (0, 0), BuildingBlock: KIFKEQ_clean_linker_1, # of connection points: 2
#     Edge 37, Type (0, 0), BuildingBlock: KIFKEQ_clean_linker_1, # of connection points: 2
#     Edge 38, Type (0, 0), BuildingBlock: KIFKEQ_clean_linker_1, # of connection points: 2
#     Edge 39, Type (0, 0), BuildingBlock: KIFKEQ_clean_linker_1, # of connection points: 2
#     Edge 40, Type (0, 0), BuildingBlock: KIFKEQ_clean_linker_1, # of connection points: 2
#     Edge 41, Type (0, 0), BuildingBlock: KIFKEQ_clean_linker_1, # of connection points: 2
#     Edge 42, Type (0, 0), BuildingBlock: KIFKEQ_clean_linker_1, # of connection points: 2
#     Edge 43, Type (0, 0), BuildingBlock: KIFKEQ_clean_linker_1, # of connection points: 2
#     Edge 44, Type (0, 0), BuildingBlock: KIFKEQ_clean_linker_1, # of connection points: 2
#     Edge 45, Type (0, 0), BuildingBlock: KIFKEQ_clean_linker_1, # of connection points: 2
#     Edge 46, Type (0, 0), BuildingBlock: KIFKEQ_clean_linker_1, # of connection points: 2
#     Edge 47, Type (0, 0), BuildingBlock: KIFKEQ_clean_linker_1, # of connection points: 2
#     Edge 48, Type (0, 0), BuildingBlock: KIFKEQ_clean_linker_1, # of connection points: 2
#     Edge 49, Type (0, 0), BuildingBlock: KIFKEQ_clean_linker_1, # of connection points: 2
#     Edge 50, Type (0, 0), BuildingBlock: KIFKEQ_clean_linker_1, # of connection points: 2
#     Edge 51, Type (0, 0), BuildingBlock: KIFKEQ_clean_linker_1, # of connection points: 2
#     Edge 52, Type (0, 0), BuildingBlock: KIFKEQ_clean_linker_1, # of connection points: 2
#     Edge 53, Type (0, 0), BuildingBlock: KIFKEQ_clean_linker_1, # of connection points: 2
#     Edge 54, Type (0, 0), BuildingBlock: KIFKEQ_clean_linker_1, # of connection points: 2
#     Edge 55, Type (0, 0), BuildingBlock: KIFKEQ_clean_linker_1, # of connection points: 2
#     Edge 56, Type (0, 0), BuildingBlock: KIFKEQ_clean_linker_1, # of connection points: 2
#     Edge 57, Type (0, 0), BuildingBlock: KIFKEQ_clean_linker_1, # of connection points: 2
#     Edge 58, Type (0, 0), BuildingBlock: KIFKEQ_clean_linker_1, # of connection points: 2
#     Edge 59, Type (0, 0), BuildingBlock: KIFKEQ_clean_linker_1, # of connection points: 2
#     Edge 60, Type (0, 0), BuildingBlock: KIFKEQ_clean_linker_1, # of connection points: 2
#     Edge 61, Type (0, 0), BuildingBlock: KIFKEQ_clean_linker_1, # of connection points: 2
#     Edge 62, Type (0, 0), BuildingBlock: KIFKEQ_clean_linker_1, # of connection points: 2
#     Edge 63, Type (0, 0), BuildingBlock: KIFKEQ_clean_linker_1, # of connection points: 2
#     Edge 64, Type (0, 0), BuildingBlock: KIFKEQ_clean_linker_1, # of connection points: 2
#     Edge 65, Type (0, 0), BuildingBlock: KIFKEQ_clean_linker_1, # of connection points: 2
#     Edge 66, Type (0, 0), BuildingBlock: KIFKEQ_clean_linker_1, # of connection points: 2
#     Edge 67, Type (0, 0), BuildingBlock: KIFKEQ_clean_linker_1, # of connection points: 2
#     Edge 68, Type (0, 0), BuildingBlock: KIFKEQ_clean_linker_1, # of connection points: 2
#     Edge 69, Type (0, 0), BuildingBlock: KIFKEQ_clean_linker_1, # of connection points: 2
#     Edge 70, Type (0, 0), BuildingBlock: KIFKEQ_clean_linker_1, # of connection points: 2
#     Edge 71, Type (0, 0), BuildingBlock: KIFKEQ_clean_linker_1, # of connection points: 2
#     Edge 72, Type (0, 0), BuildingBlock: KIFKEQ_clean_linker_1, # of connection points: 2
#     Edge 73, Type (0, 0), BuildingBlock: KIFKEQ_clean_linker_1, # of connection points: 2
#     Edge 74, Type (0, 0), BuildingBlock: KIFKEQ_clean_linker_1, # of connection points: 2
#     Edge 75, Type (0, 0), BuildingBlock: KIFKEQ_clean_linker_1, # of connection points: 2
#     Edge 76, Type (0, 0), BuildingBlock: KIFKEQ_clean_linker_1, # of connection points: 2
#     Edge 77, Type (0, 0), BuildingBlock: KIFKEQ_clean_linker_1, # of connection points: 2
#     Edge 78, Type (0, 0), BuildingBlock: KIFKEQ_clean_linker_1, # of connection points: 2
#     Edge 79, Type (0, 0), BuildingBlock: KIFKEQ_clean_linker_1, # of connection points: 2
#     Edge 80, Type (0, 0), BuildingBlock: KIFKEQ_clean_linker_1, # of connection points: 2
#     Edge 81, Type (0, 0), BuildingBlock: KIFKEQ_clean_linker_1, # of connection points: 2
#     Edge 82, Type (0, 0), BuildingBlock: KIFKEQ_clean_linker_1, # of connection points: 2
#     Edge 83, Type (0, 0), BuildingBlock: KIFKEQ_clean_linker_1, # of connection points: 2
#     Edge 84, Type (0, 0), BuildingBlock: KIFKEQ_clean_linker_1, # of connection points: 2
#     Edge 85, Type (0, 0), BuildingBlock: KIFKEQ_clean_linker_1, # of connection points: 2
#     Edge 86, Type (0, 0), BuildingBlock: KIFKEQ_clean_linker_1, # of connection points: 2
#     Edge 87, Type (0, 0), BuildingBlock: KIFKEQ_clean_linker_1, # of connection points: 2
#     Edge 88, Type (0, 0), BuildingBlock: KIFKEQ_clean_linker_1, # of connection points: 2
#     Edge 89, Type (0, 0), BuildingBlock: KIFKEQ_clean_linker_1, # of connection points: 2
#     Edge 90, Type (0, 0), BuildingBlock: KIFKEQ_clean_linker_1, # of connection points: 2
#     Edge 91, Type (0, 0), BuildingBlock: KIFKEQ_clean_linker_1, # of connection points: 2
#     Edge 92, Type (0, 0), BuildingBlock: KIFKEQ_clean_linker_1, # of connection points: 2
#     Edge 93, Type (0, 0), BuildingBlock: KIFKEQ_clean_linker_1, # of connection points: 2
#     Edge 94, Type (0, 0), BuildingBlock: KIFKEQ_clean_linker_1, # of connection points: 2
#     Edge 95, Type (0, 0), BuildingBlock: KIFKEQ_clean_linker_1, # of connection points: 2
#     Edge 96, Type (0, 0), BuildingBlock: KIFKEQ_clean_linker_1, # of connection points: 2
#     Edge 97, Type (0, 0), BuildingBlock: KIFKEQ_clean_linker_1, # of connection points: 2
#     Edge 98, Type (0, 0), BuildingBlock: KIFKEQ_clean_linker_1, # of connection points: 2
#     Edge 99, Type (0, 0), BuildingBlock: KIFKEQ_clean_linker_1, # of connection points: 2
#     Edge 100, Type (0, 0), BuildingBlock: KIFKEQ_clean_linker_1, # of connection points: 2
#     Edge 101, Type (0, 0), BuildingBlock: KIFKEQ_clean_linker_1, # of connection points: 2
#     Edge 102, Type (0, 0), BuildingBlock: KIFKEQ_clean_linker_1, # of connection points: 2
#     Edge 103, Type (0, 0), BuildingBlock: KIFKEQ_clean_linker_1, # of connection points: 2
#     Edge 104, Type (0, 0), BuildingBlock: KIFKEQ_clean_linker_1, # of connection points: 2
#     Edge 105, Type (0, 0), BuildingBlock: KIFKEQ_clean_linker_1, # of connection points: 2
#     Edge 106, Type (0, 0), BuildingBlock: KIFKEQ_clean_linker_1, # of connection points: 2
#     Edge 107, Type (0, 0), BuildingBlock: KIFKEQ_clean_linker_1, # of connection points: 2
#     Edge 108, Type (0, 0), BuildingBlock: KIFKEQ_clean_linker_1, # of connection points: 2
#     Edge 109, Type (0, 0), BuildingBlock: KIFKEQ_clean_linker_1, # of connection points: 2
#     Edge 110, Type (0, 0), BuildingBlock: KIFKEQ_clean_linker_1, # of connection points: 2
#     Edge 111, Type (0, 0), BuildingBlock: KIFKEQ_clean_linker_1, # of connection points: 2
#     Edge 112, Type (0, 0), BuildingBlock: KIFKEQ_clean_linker_1, # of connection points: 2
#     Edge 113, Type (0, 0), BuildingBlock: KIFKEQ_clean_linker_1, # of connection points: 2
#     Edge 114, Type (0, 0), BuildingBlock: KIFKEQ_clean_linker_1, # of connection points: 2
#     Edge 115, Type (0, 0), BuildingBlock: KIFKEQ_clean_linker_1, # of connection points: 2
#     Edge 116, Type (0, 0), BuildingBlock: KIFKEQ_clean_linker_1, # of connection points: 2
#     Edge 117, Type (0, 0), BuildingBlock: KIFKEQ_clean_linker_1, # of connection points: 2
#     Edge 118, Type (0, 0), BuildingBlock: KIFKEQ_clean_linker_1, # of connection points: 2
#     Edge 119, Type (0, 0), BuildingBlock: KIFKEQ_clean_linker_1, # of connection points: 2
#     Edge 120, Type (0, 0), BuildingBlock: KIFKEQ_clean_linker_1, # of connection points: 2
#     Edge 121, Type (0, 0), BuildingBlock: KIFKEQ_clean_linker_1, # of connection points: 2
#     Edge 122, Type (0, 0), BuildingBlock: KIFKEQ_clean_linker_1, # of connection points: 2
#     Edge 123, Type (0, 0), BuildingBlock: KIFKEQ_clean_linker_1, # of connection points: 2
#     Edge 124, Type (0, 0), BuildingBlock: KIFKEQ_clean_linker_1, # of connection points: 2
#     Edge 125, Type (0, 0), BuildingBlock: KIFKEQ_clean_linker_1, # of connection points: 2
#     Edge 126, Type (0, 0), BuildingBlock: KIFKEQ_clean_linker_1, # of connection points: 2
#     Edge 127, Type (0, 0), BuildingBlock: KIFKEQ_clean_linker_1, # of connection points: 2
# Relax obj value: 0.204
# Max RMSD: 0.167
# Mean RMSD: 0.167
data_MOF--net-wir--node1-CIFDUS_clean_sbu_1--edge1-KIFKEQ_clean_linker_1
_symmetry_space_group_name_H-M    P1
_symmetry_Int_Tables_number       1
_symmetry_cell_setting            triclinic
loop_
_symmetry_equiv_pos_as_xyz
'x, y, z'
_cell_length_a     40.698851
_cell_length_b     40.681977
_cell_length_c     79.441095
_cell_angle_alpha  89.988803
_cell_angle_beta   89.986105
_cell_angle_gamma 89.983881
loop_
_atom_site_label
_atom_site_type_symbol
_atom_site_fract_x
_atom_site_fract_y
_atom_site_fract_z
_atom_type_partial_charge
O0 O 0.19 0.13867 0.28639 0.0
Mn1 Mn 0.18217 0.16491 0.3089 0.0
O2 O 0.18505 0.08534 0.29474 0.0
Mn3 Mn 0.17088 0.0905 0.31668 0.0
O4 O 0.17148 0.18577 0.33237 0.0
O5 O 0.21226 0.20211 0.29931 0.0
Mn6 Mn 0.19929 0.23276 0.31379 0.0
O7 O 0.14156 0.19075 0.29945 0.0
O8 O 0.20925 0.22296 0.3358 0.0
O9 O 0.22359 0.14123 0.32025 0.0
O10 O 0.20342 0.09563 0.33255 0.0
O11 O 0.23045 0.25374 0.30214 0.0
O12 O 0.15533 0.24144 0.30859 0.0
C13 C 0.12497 0.11552 0.31999 0.0
C14 C 0.1911 0.10729 0.28366 0.0
C15 C 0.18839 0.20386 0.34211 0.0
C16 C 0.23099 0.22632 0.29385 0.0
C17 C 0.13481 0.22146 0.30189 0.0
C18 C 0.22591 0.11707 0.33083 0.0
O19 O 0.15241 0.1291 0.31633 0.0
O20 O 0.12693 0.08409 0.32211 0.0
O21 O 0.10897 0.89189 0.55075 0.0
Mn22 Mn 0.13494 0.93151 0.56108 0.0
O23 O 0.06023 0.90835 0.56079 0.0
Mn24 Mn 0.07195 0.95233 0.56423 0.0
O25 O 0.1586 0.97203 0.57331 0.0
O26 O 0.16679 0.90003 0.57063 0.0
Mn27 Mn 0.20565 0.91623 0.57396 0.0
O28 O 0.16677 0.93748 0.54031 0.0
O29 O 0.19755 0.94882 0.5895 0.0
O30 O 0.10984 0.92222 0.58355 0.0
O31 O 0.08038 0.96567 0.58596 0.0
O32 O 0.20813 0.87162 0.57906 0.0
O33 O 0.21678 0.93109 0.55272 0.0
C34 C 0.07631 0.98175 0.54385 0.0
C35 C 0.07833 0.88637 0.55394 0.0
C36 C 0.17925 0.9731 0.58573 0.0
C37 C 0.17762 0.8716 0.57458 0.0
C38 C 0.19866 0.93821 0.54006 0.0
C39 C 0.09498 0.94239 0.59301 0.0
O40 O 0.1017 0.96361 0.5487 0.0
O41 O 0.04941 0.98152 0.55258 0.0
O42 O 0.40412 0.85551 0.80008 0.0
Mn43 Mn 0.36403 0.88135 0.81001 0.0
O44 O 0.39097 0.80835 0.81278 0.0
Mn45 Mn 0.34699 0.81919 0.81653 0.0
O46 O 0.32339 0.90552 0.82185 0.0
O47 O 0.39452 0.91658 0.81722 0.0
Mn48 Mn 0.37678 0.95549 0.81792 0.0
O49 O 0.35575 0.90804 0.78768 0.0
O50 O 0.34482 0.95057 0.83414 0.0
O51 O 0.37613 0.86108 0.83351 0.0
O52 O 0.33454 0.83012 0.83809 0.0
O53 O 0.42122 0.96092 0.82267 0.0
O54 O 0.36168 0.96117 0.79616 0.0
C55 C 0.31549 0.81727 0.79696 0.0
C56 C 0.41134 0.82585 0.80448 0.0
C57 C 0.32188 0.92956 0.83254 0.0
C58 C 0.42249 0.92951 0.82036 0.0
C59 C 0.35495 0.93945 0.78507 0.0
C60 C 0.35771 0.84656 0.84402 0.0
O61 O 0.33197 0.8449 0.7999 0.0
O62 O 0.31907 0.79228 0.80692 0.0
O63 O 0.44016 0.15542 0.04919 0.0
Mn64 Mn 0.41582 0.11411 0.05894 0.0
O65 O 0.49044 0.1434 0.05892 0.0
Mn66 Mn 0.48142 0.09949 0.06372 0.0
O67 O 0.39281 0.07243 0.07034 0.0
O68 O 0.37986 0.14321 0.06684 0.0
Mn69 Mn 0.34104 0.12519 0.06644 0.0
O70 O 0.38933 0.10606 0.03648 0.0
O71 O 0.34468 0.09036 0.08111 0.0
O72 O 0.43654 0.12547 0.08242 0.0
O73 O 0.47331 0.08778 0.08563 0.0
O74 O 0.33497 0.16855 0.07307 0.0
O75 O 0.33598 0.11371 0.04416 0.0
C76 C 0.47984 0.06677 0.04457 0.0
C77 C 0.47048 0.16317 0.0518 0.0
C78 C 0.367 0.06861 0.07971 0.0
C79 C 0.36643 0.17042 0.07108 0.0
C80 C 0.35811 0.10664 0.03335 0.0
C81 C 0.45427 0.10826 0.09216 0.0
O82 O 0.45296 0.08351 0.04863 0.0
O83 O 0.50652 0.07095 0.05322 0.0
O84 O 0.14355 0.85566 0.18098 0.0
Mn85 Mn 0.18377 0.88154 0.17129 0.0
O86 O 0.15736 0.80829 0.1687 0.0
Mn87 Mn 0.20133 0.81936 0.16521 0.0
O88 O 0.2246 0.90585 0.1599 0.0
O89 O 0.15338 0.91633 0.16337 0.0
Mn90 Mn 0.17002 0.95581 0.16368 0.0
O91 O 0.19099 0.90841 0.19371 0.0
O92 O 0.20523 0.9534 0.14913 0.0
O93 O 0.17263 0.86088 0.14778 0.0
O94 O 0.21428 0.82973 0.14366 0.0
O95 O 0.12649 0.96014 0.15694 0.0
O96 O 0.1811 0.96139 0.186 0.0
C97 C 0.23233 0.81798 0.185 0.0
C98 C 0.13667 0.82586 0.17674 0.0
C99 C 0.22769 0.93178 0.15056 0.0
C100 C 0.12571 0.92865 0.15905 0.0
C101 C 0.18911 0.93961 0.19682 0.0
C102 C 0.19124 0.84604 0.1375 0.0
O103 O 0.21578 0.84547 0.18182 0.0
O104 O 0.2291 0.79277 0.17516 0.0
O105 O 0.43859 0.89301 0.43133 0.0
Mn106 Mn 0.41338 0.93269 0.42052 0.0
O107 O 0.48627 0.9072 0.41961 0.0
Mn108 Mn 0.47451 0.95097 0.41583 0.0
O109 O 0.39008 0.97296 0.40788 0.0
O110 O 0.38035 0.90131 0.41189 0.0
Mn111 Mn 0.34172 0.91839 0.40883 0.0
O112 O 0.38268 0.94044 0.44157 0.0
O113 O 0.34957 0.94993 0.3927 0.0
O114 O 0.43688 0.92095 0.3978 0.0
O115 O 0.46599 0.96396 0.39405 0.0
O116 O 0.33783 0.87369 0.4043 0.0
O117 O 0.33187 0.93449 0.42998 0.0
C118 C 0.4752 0.982 0.43549 0.0
C119 C 0.46867 0.88637 0.42753 0.0
C120 C 0.36871 0.97389 0.3958 0.0
C121 C 0.36856 0.87304 0.40836 0.0
C122 C 0.35083 0.94166 0.4423 0.0
C123 C 0.4513 0.94012 0.38765 0.0
O124 O 0.44759 0.96574 0.43209 0.0
O125 O 0.50081 0.97856 0.42595 0.0
O126 O 0.40557 0.19059 0.68243 0.0
Mn127 Mn 0.36526 0.16466 0.67278 0.0
O128 O 0.39226 0.2376 0.66962 0.0
Mn129 Mn 0.34819 0.22684 0.66613 0.0
O130 O 0.32441 0.14042 0.6612 0.0
O131 O 0.39566 0.12923 0.66562 0.0
Mn132 Mn 0.37776 0.09038 0.66517 0.0
O133 O 0.35721 0.13837 0.69526 0.0
O134 O 0.34561 0.09513 0.64904 0.0
O135 O 0.37695 0.18457 0.64914 0.0
O136 O 0.33536 0.21565 0.64467 0.0
O137 O 0.42205 0.08463 0.66021 0.0
O138 O 0.363 0.08508 0.68701 0.0
C139 C 0.317 0.22898 0.68587 0.0
C140 C 0.41277 0.22016 0.67786 0.0
C141 C 0.32274 0.11624 0.6506 0.0
C142 C 0.42349 0.11608 0.66234 0.0
C143 C 0.35642 0.107 0.69802 0.0
C144 C 0.35839 0.19904 0.63868 0.0
O145 O 0.33343 0.20133 0.6829 0.0
O146 O 0.32045 0.25388 0.67583 0.0
O147 O 0.10505 0.15336 0.93148 0.0
Mn148 Mn 0.13217 0.11347 0.92215 0.0
O149 O 0.05612 0.13836 0.92069 0.0
Mn150 Mn 0.06606 0.0943 0.91627 0.0
O151 O 0.15693 0.0727 0.91078 0.0
O152 O 0.16735 0.14404 0.91499 0.0
Mn153 Mn 0.20632 0.12645 0.91451 0.0
O154 O 0.15825 0.10593 0.9447 0.0
O155 O 0.20173 0.09429 0.89837 0.0
O156 O 0.11163 0.12405 0.89865 0.0
O157 O 0.07771 0.08384 0.89453 0.0
O158 O 0.21165 0.17089 0.90967 0.0
O159 O 0.2115 0.11158 0.93634 0.0
C160 C 0.07122 0.06339 0.93659 0.0
C161 C 0.07462 0.15955 0.92794 0.0
C162 C 0.18093 0.07119 0.90007 0.0
C163 C 0.18021 0.17203 0.91184 0.0
C164 C 0.18962 0.1051 0.9474 0.0
C165 C 0.09536 0.10624 0.88851 0.0
O166 O 0.09555 0.0825 0.93162 0.0
O167 O 0.04454 0.06321 0.92769 0.0
O168 O 0.90365 0.85698 0.6793 0.0
Mn169 Mn 0.86165 0.88241 0.67102 0.0
O170 O 0.89011 0.80563 0.67106 0.0
Mn171 Mn 0.84593 0.81338 0.66618 0.0
O172 O 0.8188 0.90568 0.66093 0.0
O173 O 0.88951 0.91947 0.66337 0.0
Mn174 Mn 0.87026 0.95771 0.66437 0.0
O175 O 0.85624 0.90702 0.69416 0.0
O176 O 0.83579 0.95359 0.64963 0.0
O177 O 0.87044 0.86291 0.64708 0.0
O178 O 0.83535 0.82271 0.64419 0.0
O179 O 0.91358 0.96545 0.65808 0.0
O180 O 0.85877 0.96101 0.68676 0.0
C181 C 0.81487 0.82011 0.68649 0.0
C182 C 0.91066 0.82623 0.67718 0.0
C183 C 0.81437 0.9311 0.65135 0.0
C184 C 0.91643 0.93397 0.65969 0.0
C185 C 0.85519 0.93811 0.69761 0.0
C186 C 0.85444 0.84338 0.63764 0.0
O187 O 0.83299 0.84427 0.68051 0.0
O188 O 0.81547 0.79242 0.67844 0.0
O189 O 0.94265 0.15471 0.43206 0.0
Mn190 Mn 0.9168 0.11414 0.42264 0.0
O191 O 0.98953 0.14089 0.41937 0.0
Mn192 Mn 0.97846 0.09676 0.41633 0.0
O193 O 0.89253 0.07308 0.4114 0.0
O194 O 0.88178 0.14426 0.41478 0.0
Mn195 Mn 0.84241 0.12747 0.41514 0.0
O196 O 0.89014 0.1071 0.44518 0.0
O197 O 0.84509 0.09243 0.40051 0.0
O198 O 0.93705 0.12493 0.39897 0.0
O199 O 0.96764 0.08288 0.39501 0.0
O200 O 0.83788 0.17109 0.40851 0.0
O201 O 0.83703 0.11617 0.43743 0.0
C202 C 0.98098 0.06626 0.43624 0.0
C203 C 0.97224 0.16168 0.4275 0.0
C204 C 0.86675 0.07001 0.40196 0.0
C205 C 0.86937 0.17194 0.41056 0.0
C206 C 0.8589 0.10855 0.44827 0.0
C207 C 0.95132 0.10579 0.38873 0.0
O208 O 0.9531 0.08232 0.43326 0.0
O209 O 1.00583 0.0697 0.42618 0.0
O210 O 0.64204 0.18978 0.18244 0.0
Mn211 Mn 0.68272 0.16535 0.17216 0.0
O212 O 0.65361 0.23937 0.17163 0.0
Mn213 Mn 0.69726 0.23004 0.16633 0.0
O214 O 0.72381 0.14248 0.1602 0.0
O215 O 0.65338 0.12942 0.16467 0.0
Mn216 Mn 0.67137 0.09056 0.16477 0.0
O217 O 0.69218 0.1389 0.19448 0.0
O218 O 0.70565 0.09422 0.14973 0.0
O219 O 0.66931 0.18574 0.14903 0.0
O220 O 0.70755 0.22077 0.14428 0.0
O221 O 0.62765 0.08477 0.15864 0.0
O222 O 0.68391 0.08556 0.18691 0.0
C223 C 0.73049 0.22998 0.18528 0.0
C224 C 0.6342 0.21994 0.1794 0.0
C225 C 0.72739 0.11661 0.15086 0.0
C226 C 0.62596 0.11624 0.16067 0.0
C227 C 0.69167 0.10765 0.19761 0.0
C228 C 0.68565 0.20243 0.13851 0.0
O229 O 0.71374 0.20276 0.1819 0.0
O230 O 0.72626 0.25587 0.176 0.0
O231 O 0.60531 0.89244 0.93042 0.0
Mn232 Mn 0.63188 0.93292 0.92151 0.0
O233 O 0.5562 0.90757 0.91993 0.0
Mn234 Mn 0.56584 0.95188 0.91611 0.0
O235 O 0.65618 0.97425 0.91075 0.0
O236 O 0.66707 0.90315 0.91358 0.0
Mn237 Mn 0.70641 0.91995 0.91409 0.0
O238 O 0.65816 0.93934 0.94418 0.0
O239 O 0.70353 0.95525 0.89961 0.0
O240 O 0.61108 0.9235 0.89789 0.0
O241 O 0.57694 0.96376 0.8945 0.0
O242 O 0.71098 0.87633 0.9074 0.0
O243 O 0.71141 0.93092 0.93647 0.0
C244 C 0.57068 0.98189 0.93669 0.0
C245 C 0.57493 0.88621 0.9269 0.0
C246 C 0.68183 0.97757 0.90126 0.0
C247 C 0.67949 0.87547 0.90943 0.0
C248 C 0.68938 0.93804 0.94732 0.0
C249 C 0.59462 0.94185 0.88808 0.0
O250 O 0.59529 0.96326 0.93157 0.0
O251 O 0.5439 0.98205 0.92788 0.0
O252 O 0.90519 0.1904 0.80165 0.0
Mn253 Mn 0.8637 0.16548 0.81055 0.0
O254 O 0.8906 0.23842 0.81282 0.0
Mn255 Mn 0.84628 0.2276 0.81505 0.0
O256 O 0.82152 0.14196 0.82105 0.0
O257 O 0.89283 0.13154 0.82017 0.0
Mn258 Mn 0.87626 0.09219 0.82084 0.0
O259 O 0.86021 0.13669 0.78855 0.0
O260 O 0.8402 0.09691 0.83458 0.0
O261 O 0.87196 0.18749 0.83399 0.0
O262 O 0.83059 0.21958 0.8364 0.0
O263 O 0.9195 0.08888 0.82836 0.0
O264 O 0.86722 0.08457 0.79844 0.0
C265 C 0.81725 0.22859 0.79458 0.0
C266 C 0.91199 0.22029 0.80566 0.0
C267 C 0.81774 0.11782 0.83151 0.0
C268 C 0.92033 0.11998 0.8251 0.0
C269 C 0.86231 0.10515 0.78654 0.0
C270 C 0.85255 0.20322 0.84348 0.0
O271 O 0.83273 0.20076 0.79843 0.0
O272 O 0.82052 0.25436 0.80402 0.0
O273 O 0.60369 0.1542 0.55014 0.0
Mn274 Mn 0.63042 0.11363 0.55893 0.0
O275 O 0.55501 0.13866 0.56094 0.0
Mn276 Mn 0.56507 0.09433 0.56439 0.0
O277 O 0.65479 0.07221 0.56968 0.0
O278 O 0.66542 0.14341 0.56705 0.0
Mn279 Mn 0.7048 0.12668 0.56663 0.0
O280 O 0.657 0.10758 0.53631 0.0
O281 O 0.70189 0.09129 0.58104 0.0
O282 O 0.60953 0.12279 0.58255 0.0
O283 O 0.57631 0.08189 0.58591 0.0
O284 O 0.70921 0.17023 0.57342 0.0
O285 O 0.71013 0.11583 0.54426 0.0
C286 C 0.56908 0.06479 0.54365 0.0
C287 C 0.57337 0.16026 0.55392 0.0
C288 C 0.68032 0.06888 0.57926 0.0
C289 C 0.67774 0.17107 0.5713 0.0
C290 C 0.68828 0.10884 0.5333 0.0
C291 C 0.59362 0.10402 0.59237 0.0
O292 O 0.59401 0.08323 0.54857 0.0
O293 O 0.5426 0.06457 0.5527 0.0
O294 O 0.64529 0.85563 0.30056 0.0
Mn295 Mn 0.68588 0.88242 0.30937 0.0
O296 O 0.66026 0.80639 0.31102 0.0
Mn297 Mn 0.70453 0.81583 0.315 0.0
O298 O 0.72719 0.90705 0.32016 0.0
O299 O 0.65617 0.91797 0.31696 0.0
Mn300 Mn 0.67302 0.95727 0.31615 0.0
O301 O 0.69257 0.908 0.28652 0.0
O302 O 0.70803 0.95483 0.3308 0.0
O303 O 0.6763 0.86213 0.33306 0.0
O304 O 0.71583 0.82708 0.33668 0.0
O305 O 0.62934 0.96215 0.32263 0.0
O306 O 0.68436 0.96153 0.2938 0.0
C307 C 0.7348 0.82101 0.2944 0.0
C308 C 0.63894 0.82523 0.30409 0.0
C309 C 0.73038 0.93306 0.32945 0.0
C310 C 0.62847 0.93059 0.3209 0.0
C311 C 0.6915 0.93914 0.28315 0.0
C312 C 0.69411 0.84524 0.34295 0.0
O313 O 0.7161 0.84544 0.29965 0.0
O314 O 0.73497 0.79416 0.30318 0.0
O315 O 0.94025 0.89329 0.0498 0.0
Mn316 Mn 0.9148 0.93415 0.05921 0.0
O317 O 0.98723 0.90656 0.06261 0.0
Mn318 Mn 0.97682 0.95079 0.06579 0.0
O319 O 0.8918 0.97625 0.07034 0.0
O320 O 0.87871 0.90411 0.06676 0.0
Mn321 Mn 0.84114 0.92506 0.0671 0.0
O322 O 0.8887 0.94186 0.03662 0.0
O323 O 0.84568 0.95801 0.08266 0.0
O324 O 0.93452 0.92284 0.08296 0.0
O325 O 0.96564 0.96442 0.08713 0.0
O326 O 0.83159 0.88246 0.07301 0.0
O327 O 0.83547 0.93865 0.04514 0.0
C328 C 0.97965 0.9813 0.04582 0.0
C329 C 0.96979 0.88604 0.05438 0.0
C330 C 0.8674 0.97998 0.08061 0.0
C331 C 0.86273 0.87783 0.07065 0.0
C332 C 0.85737 0.94373 0.03393 0.0
C333 C 0.94912 0.94154 0.0933 0.0
O334 O 0.95177 0.96531 0.04881 0.0
O335 O 1.00435 0.97786 0.05598 0.0
O336 O 0.69215 0.63962 0.78612 0.0
Mn337 Mn 0.6846 0.66571 0.80878 0.0
O338 O 0.68336 0.58625 0.79348 0.0
Mn339 Mn 0.6718 0.59096 0.81578 0.0
O340 O 0.67329 0.68555 0.83246 0.0
O341 O 0.71608 0.70249 0.79854 0.0
Mn342 Mn 0.70151 0.72801 0.81536 0.0
O343 O 0.64396 0.69152 0.79939 0.0
O344 O 0.71465 0.71695 0.83679 0.0
O345 O 0.72569 0.6415 0.82 0.0
O346 O 0.7067 0.59356 0.8305 0.0
O347 O 0.72904 0.75508 0.80555 0.0
O348 O 0.65739 0.73867 0.81201 0.0
C349 C 0.6271 0.61756 0.82032 0.0
C350 C 0.69093 0.60846 0.78281 0.0
C351 C 0.69173 0.70031 0.84285 0.0
C352 C 0.7324 0.73017 0.79552 0.0
C353 C 0.63679 0.72113 0.80389 0.0
C354 C 0.72893 0.61545 0.82925 0.0
O355 O 0.65478 0.63023 0.81635 0.0
O356 O 0.62811 0.58602 0.82219 0.0
O357 O 0.60871 0.39335 0.04916 0.0
Mn358 Mn 0.63299 0.43463 0.05899 0.0
O359 O 0.55971 0.40578 0.06022 0.0
Mn360 Mn 0.56921 0.4499 0.06428 0.0
O361 O 0.65508 0.47696 0.07035 0.0
O362 O 0.66916 0.40516 0.06701 0.0
Mn363 Mn 0.7067 0.42611 0.0674 0.0
O364 O 0.65984 0.44271 0.03666 0.0
O365 O 0.70162 0.45955 0.08264 0.0
O366 O 0.6122 0.42322 0.08249 0.0
O367 O 0.57828 0.46304 0.08591 0.0
O368 O 0.71612 0.38369 0.07377 0.0
O369 O 0.7129 0.43902 0.04539 0.0
C370 C 0.56848 0.48136 0.04467 0.0
C371 C 0.57858 0.38585 0.05244 0.0
C372 C 0.67953 0.48116 0.08055 0.0
C373 C 0.68501 0.37906 0.07132 0.0
C374 C 0.69122 0.44431 0.03411 0.0
C375 C 0.59599 0.44144 0.09242 0.0
O376 O 0.59606 0.46531 0.04827 0.0
O377 O 0.54269 0.47734 0.05402 0.0
O378 O 0.90342 0.35747 0.29962 0.0
Mn379 Mn 0.86219 0.38284 0.30877 0.0
O380 O 0.88988 0.30633 0.30821 0.0
Mn381 Mn 0.84578 0.31442 0.31328 0.0
O382 O 0.82025 0.40615 0.31969 0.0
O383 O 0.89106 0.41896 0.3166 0.0
Mn384 Mn 0.8729 0.45771 0.31613 0.0
O385 O 0.85482 0.4089 0.28611 0.0
O386 O 0.83818 0.4539 0.33083 0.0
O387 O 0.87232 0.3619 0.33229 0.0
O388 O 0.83545 0.32359 0.33531 0.0
O389 O 0.91628 0.46401 0.32262 0.0
O390 O 0.86132 0.46241 0.29383 0.0
C391 C 0.81437 0.32123 0.29325 0.0
C392 C 0.91037 0.32673 0.30183 0.0
C393 C 0.81636 0.43172 0.32921 0.0
C394 C 0.91826 0.43253 0.32067 0.0
C395 C 0.85495 0.44015 0.28298 0.0
C396 C 0.8558 0.34298 0.34182 0.0
O397 O 0.83277 0.3454 0.29901 0.0
O398 O 0.815 0.29355 0.30131 0.0
O399 O 0.93909 0.65628 0.55011 0.0
Mn400 Mn 0.91348 0.61647 0.56049 0.0
O401 O 0.98777 0.63996 0.56023 0.0
Mn402 Mn 0.97611 0.59593 0.56359 0.0
O403 O 0.89025 0.57578 0.57278 0.0
O404 O 0.88167 0.64772 0.57022 0.0
Mn405 Mn 0.84313 0.63119 0.574 0.0
O406 O 0.88116 0.61045 0.53992 0.0
O407 O 0.85227 0.59894 0.58956 0.0
O408 O 0.93873 0.62592 0.58288 0.0
O409 O 0.96784 0.58231 0.58531 0.0
O410 O 0.84031 0.67592 0.57876 0.0
O411 O 0.83157 0.61588 0.55291 0.0
C412 C 0.97242 0.56673 0.54316 0.0
C413 C 0.96968 0.6619 0.55336 0.0
C414 C 0.87029 0.57464 0.58549 0.0
C415 C 0.87061 0.67617 0.57392 0.0
C416 C 0.84926 0.60921 0.54003 0.0
C417 C 0.95337 0.60565 0.59236 0.0
O418 O 0.94669 0.58453 0.5479 0.0
O419 O 0.99915 0.56711 0.55201 0.0
O420 O 0.64488 0.35486 0.6812 0.0
Mn421 Mn 0.68469 0.38194 0.67178 0.0
O422 O 0.65982 0.30581 0.67046 0.0
Mn423 Mn 0.70385 0.3156 0.66591 0.0
O424 O 0.72541 0.40661 0.66034 0.0
O425 O 0.65415 0.4172 0.66468 0.0
Mn426 Mn 0.67186 0.45611 0.66411 0.0
O427 O 0.69238 0.40812 0.69432 0.0
O428 O 0.70375 0.4513 0.64786 0.0
O429 O 0.67397 0.36126 0.64828 0.0
O430 O 0.71416 0.32724 0.64416 0.0
O431 O 0.62743 0.46165 0.65943 0.0
O432 O 0.687 0.46137 0.68588 0.0
C433 C 0.73481 0.3211 0.68618 0.0
C434 C 0.63869 0.32439 0.67772 0.0
C435 C 0.72685 0.4305 0.64957 0.0
C436 C 0.62619 0.4302 0.66163 0.0
C437 C 0.69339 0.43953 0.69698 0.0
C438 C 0.6917 0.34482 0.63815 0.0
O439 O 0.71562 0.34528 0.68113 0.0
O440 O 0.7351 0.29433 0.67735 0.0
O441 O 0.94164 0.39352 0.93134 0.0
Mn442 Mn 0.91619 0.43449 0.92199 0.0
O443 O 0.98891 0.40636 0.91864 0.0
Mn444 Mn 0.97888 0.45061 0.9152 0.0
O445 O 0.89243 0.47593 0.91076 0.0
O446 O 0.88001 0.40513 0.91474 0.0
Mn447 Mn 0.84124 0.42328 0.91523 0.0
O448 O 0.89068 0.44258 0.94474 0.0
O449 O 0.8446 0.45729 0.90005 0.0
O450 O 0.93556 0.42281 0.89823 0.0
O451 O 0.96771 0.46363 0.89378 0.0
O452 O 0.83489 0.37946 0.90951 0.0
O453 O 0.83702 0.43604 0.93738 0.0
C454 C 0.98125 0.48169 0.93501 0.0
C455 C 0.97115 0.38599 0.92681 0.0
C456 C 0.86669 0.47929 0.90131 0.0
C457 C 0.8664 0.37759 0.91133 0.0
C458 C 0.85952 0.44272 0.94804 0.0
C459 C 0.95061 0.44097 0.88779 0.0
O460 O 0.95352 0.4655 0.93198 0.0
O461 O 1.00614 0.47805 0.92499 0.0
O462 O 0.90439 0.69157 0.1819 0.0
Mn463 Mn 0.86394 0.66626 0.17197 0.0
O464 O 0.89171 0.73937 0.16954 0.0
Mn465 Mn 0.84788 0.72931 0.16512 0.0
O466 O 0.82237 0.64355 0.16027 0.0
O467 O 0.89398 0.62999 0.16479 0.0
Mn468 Mn 0.87323 0.59232 0.16438 0.0
O469 O 0.85474 0.64029 0.19446 0.0
O470 O 0.84053 0.59668 0.14863 0.0
O471 O 0.877 0.68597 0.14859 0.0
O472 O 0.83678 0.71821 0.14335 0.0
O473 O 0.91611 0.58304 0.15876 0.0
O474 O 0.85913 0.58692 0.18626 0.0
C475 C 0.81594 0.73101 0.18465 0.0
C476 C 0.91175 0.7214 0.17782 0.0
C477 C 0.81875 0.61877 0.15023 0.0
C478 C 0.92044 0.61426 0.16103 0.0
C479 C 0.85315 0.60898 0.19727 0.0
C480 C 0.85978 0.70099 0.13779 0.0
O481 O 0.83267 0.70358 0.18167 0.0
O482 O 0.81931 0.75592 0.17462 0.0
O483 O 0.60686 0.65551 0.43171 0.0
Mn484 Mn 0.63181 0.61502 0.42151 0.0
O485 O 0.55952 0.64146 0.41963 0.0
Mn486 Mn 0.57086 0.59743 0.41646 0.0
O487 O 0.65476 0.57393 0.40961 0.0
O488 O 0.66553 0.6454 0.41263 0.0
Mn489 Mn 0.70422 0.62788 0.41035 0.0
O490 O 0.66183 0.60768 0.44291 0.0
O491 O 0.69754 0.5945 0.39507 0.0
O492 O 0.60926 0.62616 0.39847 0.0
O493 O 0.57981 0.58336 0.39489 0.0
O494 O 0.7085 0.67206 0.40473 0.0
O495 O 0.71319 0.61377 0.43192 0.0
C496 C 0.56878 0.56715 0.43637 0.0
C497 C 0.57701 0.66237 0.42755 0.0
C498 C 0.67742 0.5714 0.39824 0.0
C499 C 0.67765 0.67324 0.40851 0.0
C500 C 0.69366 0.60677 0.44402 0.0
C501 C 0.59504 0.60674 0.38838 0.0
O502 O 0.59684 0.58278 0.43314 0.0
O503 O 0.5436 0.57081 0.42657 0.0
O504 O 0.4045 0.35826 0.18173 0.0
Mn505 Mn 0.36364 0.38286 0.17182 0.0
O506 O 0.39191 0.30895 0.17108 0.0
Mn507 Mn 0.34795 0.3189 0.16681 0.0
O508 O 0.32226 0.40612 0.16025 0.0
O509 O 0.39337 0.41817 0.16368 0.0
Mn510 Mn 0.37563 0.45717 0.1637 0.0
O511 O 0.35586 0.41007 0.19406 0.0
O512 O 0.34092 0.45351 0.14898 0.0
O513 O 0.37505 0.36165 0.14847 0.0
O514 O 0.33532 0.32759 0.14505 0.0
O515 O 0.41902 0.46272 0.15709 0.0
O516 O 0.36397 0.46309 0.18591 0.0
C517 C 0.31608 0.31892 0.18623 0.0
C518 C 0.41192 0.32808 0.1786 0.0
C519 C 0.31882 0.43161 0.15061 0.0
C520 C 0.4207 0.4313 0.15934 0.0
C521 C 0.35667 0.4414 0.19691 0.0
C522 C 0.35696 0.34528 0.13856 0.0
O523 O 0.3324 0.34634 0.18256 0.0
O524 O 0.32011 0.29287 0.17707 0.0
O525 O 0.44248 0.65328 0.93063 0.0
Mn526 Mn 0.41557 0.61354 0.92119 0.0
O527 O 0.49141 0.63801 0.91998 0.0
Mn528 Mn 0.48125 0.59391 0.9158 0.0
O529 O 0.39089 0.57291 0.90976 0.0
O530 O 0.38099 0.64427 0.91357 0.0
Mn531 Mn 0.34175 0.62739 0.91289 0.0
O532 O 0.38858 0.60654 0.94353 0.0
O533 O 0.34656 0.59476 0.89699 0.0
O534 O 0.43696 0.62375 0.89781 0.0
O535 O 0.47011 0.58284 0.89408 0.0
O536 O 0.33746 0.67187 0.90776 0.0
O537 O 0.33568 0.61309 0.93478 0.0
C538 C 0.47606 0.56339 0.93617 0.0
C539 C 0.47291 0.65935 0.92713 0.0
C540 C 0.36714 0.5715 0.89892 0.0
C541 C 0.36883 0.67245 0.91019 0.0
C542 C 0.35712 0.60634 0.94602 0.0
C543 C 0.45307 0.60544 0.88783 0.0
O544 O 0.45166 0.58244 0.93118 0.0
O545 O 0.5028 0.5631 0.92731 0.0
O546 O 0.14231 0.69067 0.68207 0.0
Mn547 Mn 0.18368 0.6649 0.67334 0.0
O548 O 0.15595 0.74153 0.67306 0.0
Mn549 Mn 0.20008 0.73345 0.6681 0.0
O550 O 0.22576 0.64133 0.66276 0.0
O551 O 0.15493 0.6282 0.66601 0.0
Mn552 Mn 0.1736 0.5897 0.66689 0.0
O553 O 0.191 0.64002 0.69636 0.0
O554 O 0.20806 0.5932 0.65201 0.0
O555 O 0.17379 0.68464 0.64953 0.0
O556 O 0.21029 0.72332 0.64615 0.0
O557 O 0.13027 0.58249 0.66061 0.0
O558 O 0.1855 0.58611 0.68918 0.0
C559 C 0.23144 0.72699 0.68828 0.0
C560 C 0.13539 0.72133 0.67954 0.0
C561 C 0.22972 0.61557 0.6534 0.0
C562 C 0.12788 0.61402 0.66218 0.0
C563 C 0.19141 0.6089 0.69981 0.0
C564 C 0.19023 0.70334 0.63984 0.0
O565 O 0.21298 0.70283 0.68258 0.0
O566 O 0.2309 0.75448 0.68005 0.0
O567 O 0.10829 0.39346 0.43143 0.0
Mn568 Mn 0.13283 0.43383 0.42096 0.0
O569 O 0.0605 0.40758 0.4199 0.0
Mn570 Mn 0.07188 0.45161 0.41671 0.0
O571 O 0.15571 0.47474 0.40885 0.0
O572 O 0.16575 0.4032 0.41159 0.0
Mn573 Mn 0.20462 0.41994 0.4089 0.0
O574 O 0.1639 0.44076 0.44196 0.0
O575 O 0.19766 0.45367 0.39383 0.0
O576 O 0.10917 0.42302 0.39819 0.0
O577 O 0.07976 0.46598 0.39508 0.0
O578 O 0.20769 0.37571 0.40308 0.0
O579 O 0.21466 0.43363 0.43042 0.0
C580 C 0.07057 0.48178 0.43663 0.0
C581 C 0.0783 0.38663 0.42759 0.0
C582 C 0.17801 0.47704 0.39728 0.0
C583 C 0.177 0.37516 0.40722 0.0
C584 C 0.19577 0.44108 0.44272 0.0
C585 C 0.09461 0.44263 0.38833 0.0
O586 O 0.09859 0.46629 0.4331 0.0
O587 O 0.04496 0.47804 0.42713 0.0
O588 O 0.40496 0.69325 0.30024 0.0
Mn589 Mn 0.36421 0.66643 0.30884 0.0
O590 O 0.39011 0.74254 0.31071 0.0
Mn591 Mn 0.3458 0.73333 0.31472 0.0
O592 O 0.32268 0.64181 0.31934 0.0
O593 O 0.39373 0.63049 0.31619 0.0
Mn594 Mn 0.37625 0.59146 0.31537 0.0
O595 O 0.3575 0.64141 0.28585 0.0
O596 O 0.34165 0.59426 0.33025 0.0
O597 O 0.37361 0.68616 0.33271 0.0
O598 O 0.33447 0.72177 0.33634 0.0
O599 O 0.42 0.58573 0.32144 0.0
O600 O 0.36425 0.58765 0.29308 0.0
C601 C 0.31548 0.72807 0.29412 0.0
C602 C 0.41137 0.72363 0.30378 0.0
C603 C 0.31935 0.61601 0.32875 0.0
C604 C 0.42136 0.6173 0.31978 0.0
C605 C 0.35774 0.61027 0.28244 0.0
C606 C 0.35581 0.70312 0.34259 0.0
O607 O 0.33418 0.70372 0.29942 0.0
O608 O 0.31534 0.75497 0.30285 0.0
O609 O 0.10483 0.65438 0.04901 0.0
Mn610 Mn 0.13186 0.61461 0.05855 0.0
O611 O 0.0553 0.63954 0.05923 0.0
Mn612 Mn 0.06504 0.59582 0.06442 0.0
O613 O 0.1566 0.57408 0.07 0.0
O614 O 0.16697 0.64499 0.0658 0.0
Mn615 Mn 0.20642 0.62837 0.06532 0.0
O616 O 0.15773 0.6067 0.03587 0.0
O617 O 0.20435 0.5938 0.08031 0.0
O618 O 0.11126 0.62594 0.08189 0.0
O619 O 0.07612 0.58699 0.08645 0.0
O620 O 0.21078 0.67235 0.07138 0.0
O621 O 0.21105 0.6162 0.04309 0.0
C622 C 0.07118 0.56419 0.04438 0.0
C623 C 0.0742 0.66055 0.0521 0.0
C624 C 0.18271 0.5713 0.07923 0.0
C625 C 0.17923 0.67295 0.06956 0.0
C626 C 0.18886 0.60813 0.03251 0.0
C627 C 0.0942 0.60932 0.0922 0.0
O628 O 0.09514 0.58356 0.04948 0.0
O629 O 0.04429 0.56396 0.05311 0.0
O630 O 0.14411 0.35391 0.80065 0.0
Mn631 Mn 0.18379 0.38088 0.8101 0.0
O632 O 0.1597 0.30493 0.81112 0.0
Mn633 Mn 0.20372 0.31537 0.81523 0.0
O634 O 0.22442 0.40561 0.82152 0.0
O635 O 0.15283 0.4152 0.81792 0.0
Mn636 Mn 0.16973 0.45444 0.81875 0.0
O637 O 0.19052 0.40821 0.78787 0.0
O638 O 0.20249 0.4496 0.83454 0.0
O639 O 0.1739 0.35924 0.83345 0.0
O640 O 0.21492 0.32617 0.83699 0.0
O641 O 0.12544 0.45876 0.82413 0.0
O642 O 0.18375 0.46095 0.79686 0.0
C643 C 0.23415 0.32065 0.79486 0.0
C644 C 0.13823 0.3234 0.80407 0.0
C645 C 0.22584 0.42919 0.83245 0.0
C646 C 0.12477 0.42741 0.82157 0.0
C647 C 0.19055 0.43972 0.78552 0.0
C648 C 0.19245 0.34323 0.84333 0.0
O649 O 0.2151 0.34509 0.79985 0.0
O650 O 0.23443 0.29385 0.80368 0.0
O651 O 0.4382 0.39233 0.55056 0.0
Mn652 Mn 0.41318 0.43266 0.56073 0.0
O653 O 0.48764 0.40786 0.56014 0.0
Mn654 Mn 0.47704 0.45202 0.56377 0.0
O655 O 0.39058 0.47392 0.57261 0.0
O656 O 0.38054 0.40228 0.57056 0.0
Mn657 Mn 0.34179 0.41921 0.57343 0.0
O658 O 0.38159 0.43896 0.53987 0.0
O659 O 0.34927 0.45326 0.58822 0.0
O660 O 0.43801 0.42298 0.5832 0.0
O661 O 0.4694 0.46512 0.58563 0.0
O662 O 0.33873 0.37515 0.57954 0.0
O663 O 0.3312 0.43243 0.5519 0.0
C664 C 0.47275 0.4816 0.54341 0.0
C665 C 0.46885 0.38629 0.55346 0.0
C666 C 0.36877 0.47653 0.5844 0.0
C667 C 0.36929 0.37439 0.57515 0.0
C668 C 0.3497 0.43948 0.53938 0.0
C669 C 0.45391 0.44237 0.59263 0.0
O670 O 0.4472 0.46385 0.54839 0.0
O671 O 0.49979 0.48092 0.55201 0.0
H672 H 0.22393 0.21635 0.37017 0.0
H673 H 0.12475 0.21325 0.35114 0.0
H674 H 0.20552 0.24917 0.39386 0.0
H675 H 0.10586 0.24515 0.37516 0.0
H676 H 0.13118 0.35926 0.38455 0.0
H677 H 0.11999 0.30358 0.3754 0.0
H678 H 0.17329 0.26613 0.41839 0.0
H679 H 0.18412 0.32248 0.42742 0.0
C680 C 0.19788 0.22115 0.3716 0.0
C681 C 0.17579 0.21225 0.35889 0.0
C682 C 0.18714 0.23977 0.38526 0.0
C683 C 0.15417 0.25019 0.38627 0.0
C684 C 0.13138 0.23763 0.37467 0.0
C685 C 0.14216 0.21895 0.361 0.0
C686 C 0.13806 0.33913 0.3927 0.0
C687 C 0.1581 0.34481 0.40665 0.0
C688 C 0.13198 0.30702 0.38744 0.0
C689 C 0.14656 0.28037 0.39597 0.0
C690 C 0.16223 0.28619 0.41144 0.0
C691 C 0.16833 0.31836 0.41665 0.0
H692 H 0.07956 0.98103 0.61963 0.0
H693 H 0.08129 0.88004 0.6031 0.0
H694 H 0.04409 0.96574 0.64294 0.0
H695 H 0.04693 0.86431 0.62679 0.0
H696 H 0.93305 0.88939 0.63641 0.0
H697 H 0.98864 0.87938 0.62644 0.0
H698 H 0.02693 0.93582 0.66818 0.0
H699 H 0.97083 0.94553 0.67796 0.0
C700 C 0.07369 0.95531 0.6215 0.0
C701 C 0.08312 0.93176 0.6096 0.0
C702 C 0.0536 0.94638 0.63495 0.0
C703 C 0.04244 0.91376 0.6366 0.0
C704 C 0.05507 0.8896 0.62579 0.0
C705 C 0.07513 0.89857 0.61232 0.0
C706 C 0.95351 0.89746 0.64402 0.0
C707 C 0.94811 0.91781 0.65788 0.0
C708 C 0.98545 0.89204 0.63832 0.0
C709 C 1.01218 0.90742 0.64639 0.0
C710 C 1.00677 0.92408 0.66162 0.0
C711 C 0.9748 0.92957 0.66723 0.0
H712 H 0.42127 0.833 0.85202 0.0
H713 H 0.32311 0.83468 0.87248 0.0
H714 H 0.43983 0.79992 0.87564 0.0
H715 H 0.34106 0.80032 0.89569 0.0
H716 H 0.4142 0.68721 0.88693 0.0
H717 H 0.42504 0.74243 0.87685 0.0
H718 H 0.37284 0.78223 0.91968 0.0
H719 H 0.36188 0.72641 0.92947 0.0
C720 C 0.40408 0.82799 0.86207 0.0
C721 C 0.37075 0.83656 0.8605 0.0
C722 C 0.41464 0.80855 0.8755 0.0
C723 C 0.39191 0.79696 0.8874 0.0
C724 C 0.35942 0.80892 0.88686 0.0
C725 C 0.34893 0.82844 0.87347 0.0
C726 C 0.40728 0.70782 0.89476 0.0
C727 C 0.38743 0.70293 0.90887 0.0
C728 C 0.4132 0.73964 0.88898 0.0
C729 C 0.39894 0.76679 0.89725 0.0
C730 C 0.38353 0.76179 0.91287 0.0
C731 C 0.3774 0.72993 0.91853 0.0
H732 H 0.57083 0.10559 0.17837 0.0
H733 H 0.61117 0.16401 0.1381 0.0
H734 H 0.51539 0.11704 0.16832 0.0
H735 H 0.55616 0.17447 0.12754 0.0
H736 H 0.46488 0.07159 0.11991 0.0
H737 H 0.49836 0.08781 0.14369 0.0
H738 H 0.4985 0.18825 0.12581 0.0
H739 H 0.46565 0.17142 0.10165 0.0
C740 C 0.56761 0.12213 0.1678 0.0
C741 C 0.59489 0.13372 0.15884 0.0
C742 C 0.53596 0.1286 0.16201 0.0
C743 C 0.53138 0.14567 0.14681 0.0
C744 C 0.55867 0.16118 0.13928 0.0
C745 C 0.59035 0.15519 0.14529 0.0
C746 C 0.47075 0.09738 0.12154 0.0
C747 C 0.46276 0.12021 0.10902 0.0
C748 C 0.48985 0.10688 0.13524 0.0
C749 C 0.50161 0.13937 0.13653 0.0
C750 C 0.49009 0.16303 0.12507 0.0
C751 C 0.47086 0.15347 0.11135 0.0
H752 H 0.22633 0.83305 0.10933 0.0
H753 H 0.12772 0.83286 0.12926 0.0
H754 H 0.20841 0.79896 0.08604 0.0
H755 H 0.10923 0.79976 0.10558 0.0
H756 H 0.18737 0.72776 0.05125 0.0
H757 H 0.17686 0.78308 0.06171 0.0
H758 H 0.12229 0.74189 0.10339 0.0
H759 H 0.13182 0.68694 0.09243 0.0
C760 C 0.20046 0.8271 0.10822 0.0
C761 C 0.17846 0.83564 0.12103 0.0
C762 C 0.18998 0.80772 0.09479 0.0
C763 C 0.15731 0.79629 0.09403 0.0
C764 C 0.13454 0.80799 0.10587 0.0
C765 C 0.14507 0.82741 0.11933 0.0
C766 C 0.17149 0.73087 0.06209 0.0
C767 C 0.16075 0.70348 0.07125 0.0
C768 C 0.16563 0.76246 0.06814 0.0
C769 C 0.14988 0.76682 0.08371 0.0
C770 C 0.13468 0.7395 0.09139 0.0
C771 C 0.14009 0.70787 0.08514 0.0
H772 H 0.61457 0.88852 0.34579 0.0
H773 H 0.57383 0.93548 0.30202 0.0
H774 H 0.55965 0.87728 0.35627 0.0
H775 H 0.51834 0.92478 0.31242 0.0
H776 H 0.46703 0.87705 0.37977 0.0
H777 H 0.50175 0.85933 0.35659 0.0
H778 H 0.50071 0.95825 0.33674 0.0
H779 H 0.465 0.97553 0.35963 0.0
C780 C 0.59373 0.89409 0.33784 0.0
C781 C 0.59805 0.91232 0.32313 0.0
C782 C 0.56213 0.88802 0.34386 0.0
C783 C 0.53463 0.90076 0.33529 0.0
C784 C 0.5391 0.91504 0.31935 0.0
C785 C 0.57074 0.92106 0.31338 0.0
C786 C 0.4724 0.89448 0.36987 0.0
C787 C 0.4632 0.92766 0.3714 0.0
C788 C 0.49266 0.88437 0.35669 0.0
C789 C 0.50427 0.90739 0.34495 0.0
C790 C 0.49197 0.93975 0.34546 0.0
C791 C 0.47173 0.94983 0.35865 0.0
H792 H 0.36171 0.32218 0.5547 0.0
H793 H 0.41505 0.3577 0.59771 0.0
H794 H 0.37251 0.26556 0.56331 0.0
H795 H 0.42608 0.30179 0.60651 0.0
H796 H 0.32327 0.2116 0.61043 0.0
H797 H 0.34118 0.24607 0.58725 0.0
H798 H 0.44047 0.2443 0.60657 0.0
H799 H 0.42195 0.21148 0.63023 0.0
C800 C 0.37752 0.31772 0.56543 0.0
C801 C 0.38796 0.34389 0.57556 0.0
C802 C 0.38356 0.2854 0.57042 0.0
C803 C 0.39936 0.27912 0.58582 0.0
C804 C 0.41399 0.30554 0.59452 0.0
C805 C 0.40801 0.33779 0.58946 0.0
C806 C 0.34917 0.21738 0.60927 0.0
C807 C 0.37117 0.20878 0.62209 0.0
C808 C 0.35963 0.23694 0.59589 0.0
C809 C 0.39228 0.2484 0.5952 0.0
C810 C 0.41515 0.23608 0.60683 0.0
C811 C 0.4046 0.21673 0.62029 0.0
H812 H 0.08212 0.0721 0.86 0.0
H813 H 0.0841 0.17014 0.88063 0.0
H814 H 0.04777 0.09144 0.83703 0.0
H815 H 0.05102 0.18993 0.85733 0.0
H816 H 0.97245 0.1154 0.80443 0.0
H817 H 0.02906 0.12583 0.8132 0.0
H818 H 0.99283 0.17363 0.85813 0.0
H819 H 0.93688 0.16257 0.84933 0.0
C820 C 0.07679 0.09813 0.85906 0.0
C821 C 0.08585 0.11959 0.87203 0.0
C822 C 0.05732 0.1094 0.84582 0.0
C823 C 0.04632 0.14224 0.8455 0.0
C824 C 0.05905 0.16453 0.85729 0.0
C825 C 0.07846 0.15322 0.87055 0.0
C826 C 0.97687 0.12987 0.81566 0.0
C827 C 0.95075 0.13859 0.82624 0.0
C828 C 1.00916 0.13577 0.82069 0.0
C829 C 1.01542 0.14991 0.83649 0.0
C830 C 0.98897 0.16293 0.84581 0.0
C831 C 0.95675 0.1569 0.84077 0.0
H832 H 0.81797 0.82889 0.61013 0.0
H833 H 0.91784 0.83906 0.62741 0.0
H834 H 0.8372 0.79851 0.5858 0.0
H835 H 0.93756 0.81009 0.60266 0.0
H836 H 0.92062 0.69481 0.59364 0.0
H837 H 0.92956 0.75133 0.60191 0.0
H838 H 0.868 0.78384 0.56078 0.0
H839 H 0.85897 0.72665 0.55283 0.0
C840 C 0.84419 0.82625 0.60818 0.0
C841 C 0.86639 0.83643 0.62057 0.0
C842 C 0.85542 0.80907 0.59413 0.0
C843 C 0.88905 0.80141 0.59239 0.0
C844 C 0.91155 0.81543 0.60369 0.0
C845 C 0.90026 0.83253 0.61779 0.0
C846 C 0.91121 0.71414 0.58565 0.0
C847 C 0.88905 0.70674 0.57279 0.0
C848 C 0.91607 0.74676 0.5904 0.0
C849 C 0.89835 0.77209 0.58236 0.0
C850 C 0.88125 0.76478 0.56746 0.0
C851 C 0.8762 0.7321 0.56285 0.0
H852 H 0.96497 0.16878 0.37966 0.0
H853 H 0.96291 0.06932 0.36086 0.0
H854 H 0.99792 0.18572 0.35565 0.0
H855 H 0.99708 0.08568 0.33727 0.0
H856 H 0.11028 0.1607 0.34337 0.0
H857 H 0.05542 0.17089 0.3542 0.0
H858 H 1.01427 0.11589 0.31266 0.0
H859 H 0.0697 0.10559 0.30213 0.0
C860 C 0.96992 0.15093 0.36989 0.0
C861 C 0.96127 0.11773 0.37203 0.0
C862 C 0.98928 0.16056 0.35625 0.0
C863 C 1.00063 0.13704 0.34469 0.0
C864 C 0.98864 0.10462 0.34582 0.0
C865 C 0.96922 0.09505 0.35942 0.0
C866 C 0.08935 0.15292 0.336 0.0
C867 C 0.09383 0.1327 0.32199 0.0
C868 C 0.05777 0.15848 0.3422 0.0
C869 C 0.03044 0.14346 0.33448 0.0
C870 C 0.03488 0.12722 0.31904 0.0
C871 C 0.0665 0.12145 0.31296 0.0
H872 H 0.62281 0.36018 0.08108 0.0
H873 H 0.71637 0.32311 0.06433 0.0
H874 H 0.60741 0.30515 0.09048 0.0
H875 H 0.70304 0.26962 0.07458 0.0
H876 H 0.70071 0.1883 0.10577 0.0
H877 H 0.68377 0.22096 0.08151 0.0
H878 H 0.61993 0.27807 0.11402 0.0
H879 H 0.63393 0.24277 0.13726 0.0
C880 C 0.63977 0.34012 0.07917 0.0
C881 C 0.67113 0.34591 0.07261 0.0
C882 C 0.63123 0.30853 0.0847 0.0
C883 C 0.65449 0.28271 0.08421 0.0
C884 C 0.68414 0.28818 0.0755 0.0
C885 C 0.69222 0.31933 0.06976 0.0
C886 C 0.6819 0.20691 0.10734 0.0
C887 C 0.66911 0.21379 0.12327 0.0
C888 C 0.67247 0.22609 0.09355 0.0
C889 C 0.65208 0.25389 0.09585 0.0
C890 C 0.63605 0.25754 0.11147 0.0
C891 C 0.6443 0.23741 0.12499 0.0
H892 H 0.43792 0.88363 0.84322 0.0
H893 H 0.47678 0.93885 0.80159 0.0
H894 H 0.49312 0.87386 0.8536 0.0
H895 H 0.53256 0.92925 0.81177 0.0
H896 H 0.58378 0.87852 0.87879 0.0
H897 H 0.55149 0.86047 0.85474 0.0
H898 H 0.54814 0.96063 0.83663 0.0
H899 H 0.58142 0.97821 0.86033 0.0
C900 C 0.45852 0.89138 0.83561 0.0
C901 C 0.45344 0.91168 0.82168 0.0
C902 C 0.49032 0.88614 0.84159 0.0
C903 C 0.51724 0.90159 0.83372 0.0
C904 C 0.51226 0.91758 0.81825 0.0
C905 C 0.48042 0.92294 0.81237 0.0
C906 C 0.57805 0.89625 0.86908 0.0
C907 C 0.58522 0.92976 0.87132 0.0
C908 C 0.55912 0.88595 0.8554 0.0
C909 C 0.54683 0.90909 0.8439 0.0
C910 C 0.55738 0.94199 0.84514 0.0
C911 C 0.57627 0.95225 0.8588 0.0
H912 H 0.91546 0.21416 0.85329 0.0
H913 H 0.81501 0.21957 0.87044 0.0
H914 H 0.93314 0.24693 0.87722 0.0
H915 H 0.83234 0.25343 0.89404 0.0
H916 H 0.91187 0.36144 0.88831 0.0
H917 H 0.92042 0.30605 0.87779 0.0
H918 H 0.86403 0.26744 0.91946 0.0
H919 H 0.85582 0.32332 0.92985 0.0
C920 C 0.89741 0.22072 0.8627 0.0
C921 C 0.86386 0.21413 0.86013 0.0
C922 C 0.90753 0.2399 0.8763 0.0
C923 C 0.8842 0.25304 0.88742 0.0
C924 C 0.85108 0.24341 0.88582 0.0
C925 C 0.84099 0.22424 0.87223 0.0
C926 C 0.90362 0.34092 0.89584 0.0
C927 C 0.88345 0.34626 0.90979 0.0
C928 C 0.90817 0.30906 0.8898 0.0
C929 C 0.89213 0.28242 0.89761 0.0
C930 C 0.87619 0.28756 0.91307 0.0
C931 C 0.87161 0.31944 0.91904 0.0
H932 H 0.58064 0.06716 0.61999 0.0
H933 H 0.58263 0.16716 0.60197 0.0
H934 H 0.54806 0.08443 0.64405 0.0
H935 H 0.55102 0.18486 0.62634 0.0
H936 H 0.43782 0.16132 0.63906 0.0
H937 H 0.49247 0.17102 0.62792 0.0
H938 H 0.53401 0.11598 0.66933 0.0
H939 H 0.47877 0.10674 0.68036 0.0
C940 C 0.57553 0.0931 0.62167 0.0
C941 C 0.58421 0.11579 0.60919 0.0
C942 C 0.55707 0.10317 0.63553 0.0
C943 C 0.54668 0.13608 0.63702 0.0
C944 C 0.5586 0.15938 0.6255 0.0
C945 C 0.57711 0.14927 0.61164 0.0
C946 C 0.4588 0.15377 0.64643 0.0
C947 C 0.45442 0.13375 0.66053 0.0
C948 C 0.49027 0.15891 0.64001 0.0
C949 C 0.51757 0.14354 0.64756 0.0
C950 C 0.51339 0.12766 0.66312 0.0
C951 C 0.48187 0.12251 0.66948 0.0
H952 H 0.7294 0.83105 0.37096 0.0
H953 H 0.63038 0.83596 0.3518 0.0
H954 H 0.71026 0.79821 0.39453 0.0
H955 H 0.61077 0.80449 0.37577 0.0
H956 H 0.68641 0.72592 0.42849 0.0
H957 H 0.67771 0.7824 0.41908 0.0
H958 H 0.62291 0.74594 0.37637 0.0
H959 H 0.63196 0.6901 0.38591 0.0
C960 C 0.70328 0.82665 0.37233 0.0
C961 C 0.6814 0.83618 0.35964 0.0
C962 C 0.69212 0.80805 0.38593 0.0
C963 C 0.65892 0.7984 0.38693 0.0
C964 C 0.63645 0.81144 0.3753 0.0
C965 C 0.64766 0.82995 0.36167 0.0
C966 C 0.67073 0.73037 0.4177 0.0
C967 C 0.65954 0.70407 0.40788 0.0
C968 C 0.66589 0.76261 0.41227 0.0
C969 C 0.65043 0.76862 0.39676 0.0
C970 C 0.63481 0.74234 0.38842 0.0
C971 C 0.63963 0.71016 0.39392 0.0
H972 H 0.07196 0.93348 0.17853 0.0
H973 H 0.11046 0.88656 0.13418 0.0
H974 H 1.016 0.92409 0.16853 0.0
H975 H 0.05486 0.87656 0.12415 0.0
H976 H 0.95915 0.87762 0.10234 0.0
H977 H 0.99505 0.85931 0.12506 0.0
H978 H 0.99971 0.95886 0.14382 0.0
H979 H 0.96419 0.97706 0.12108 0.0
C980 C 0.06828 0.91929 0.16714 0.0
C981 C 0.09515 0.91033 0.15711 0.0
C982 C 0.03633 0.91401 0.1614 0.0
C983 C 0.03106 0.90012 0.14544 0.0
C984 C 0.05804 0.88704 0.13658 0.0
C985 C 0.08999 0.89244 0.14234 0.0
C986 C 0.96646 0.89526 0.11181 0.0
C987 C 0.95933 0.92889 0.10986 0.0
C988 C 0.98717 0.88474 0.12478 0.0
C989 C 1.00053 0.90765 0.13607 0.0
C990 C 0.98968 0.94049 0.1354 0.0
C991 C 0.96943 0.95106 0.12232 0.0
H992 H 0.68486 0.82114 0.9285 0.0
H993 H 0.63653 0.86108 0.88491 0.0
H994 H 0.67448 0.76546 0.91832 0.0
H995 H 0.62594 0.80592 0.87456 0.0
H996 H 0.62817 0.71414 0.85056 0.0
H997 H 0.60946 0.74806 0.87386 0.0
H998 H 0.70784 0.74761 0.89434 0.0
H999 H 0.72607 0.71267 0.87137 0.0
C1000 C 0.67027 0.81782 0.91722 0.0
C1001 C 0.66116 0.84498 0.90743 0.0
C1002 C 0.66446 0.78605 0.91136 0.0
C1003 C 0.65011 0.78128 0.89546 0.0
C1004 C 0.63686 0.8086 0.88691 0.0
C1005 C 0.64262 0.84035 0.89285 0.0
C1006 C 0.64525 0.71937 0.86064 0.0
C1007 C 0.67857 0.71062 0.85926 0.0
C1008 C 0.63459 0.73924 0.87388 0.0
C1009 C 0.65718 0.75094 0.8858 0.0
C1010 C 0.68963 0.73886 0.88547 0.0
C1011 C 0.70026 0.719 0.87224 0.0
H1012 H 0.43645 0.38635 0.13581 0.0
H1013 H 0.47505 0.4406 0.17788 0.0
H1014 H 0.49199 0.37633 0.12567 0.0
H1015 H 0.53095 0.43054 0.16799 0.0
H1016 H 0.58604 0.37803 0.10234 0.0
H1017 H 0.55105 0.3611 0.12573 0.0
H1018 H 0.54761 0.46175 0.14307 0.0
H1019 H 0.58245 0.47838 0.11981 0.0
C1020 C 0.457 0.39402 0.14349 0.0
C1021 C 0.45184 0.41395 0.15757 0.0
C1022 C 0.48893 0.38851 0.13769 0.0
C1023 C 0.51587 0.4033 0.14587 0.0
C1024 C 0.51065 0.41927 0.16132 0.0
C1025 C 0.47875 0.42495 0.167 0.0
C1026 C 0.57927 0.39616 0.11168 0.0
C1027 C 0.58656 0.42961 0.10923 0.0
C1028 C 0.55901 0.38648 0.125 0.0
C1029 C 0.54612 0.41009 0.13608 0.0
C1030 C 0.55721 0.4428 0.13485 0.0
C1031 C 0.57708 0.45248 0.12146 0.0
H1032 H 0.86392 0.22691 0.42913 0.0
H1033 H 0.9122 0.18559 0.38587 0.0
H1034 H 0.87356 0.28222 0.41824 0.0
H1035 H 0.92233 0.24043 0.3749 0.0
H1036 H 0.91945 0.33243 0.3503 0.0
H1037 H 0.93842 0.29943 0.37399 0.0
H1038 H 0.83935 0.29707 0.39355 0.0
H1039 H 0.82074 0.33044 0.37004 0.0
C1040 C 0.87844 0.22987 0.4178 0.0
C1041 C 0.88771 0.20238 0.4083 0.0
C1042 C 0.88386 0.26144 0.41154 0.0
C1043 C 0.89808 0.26566 0.39557 0.0
C1044 C 0.91156 0.23812 0.38732 0.0
C1045 C 0.9061 0.20658 0.39362 0.0
C1046 C 0.90221 0.32667 0.36025 0.0
C1047 C 0.86866 0.33408 0.35847 0.0
C1048 C 0.91303 0.30744 0.37372 0.0
C1049 C 0.8904 0.29536 0.38553 0.0
C1050 C 0.85756 0.30622 0.38478 0.0
C1051 C 0.84674 0.3252 0.37126 0.0
H1052 H 0.96629 0.66794 0.6028 0.0
H1053 H 0.96869 0.56667 0.61889 0.0
H1054 H 0.99961 0.68366 0.6269 0.0
H1055 H 1.00286 0.58204 0.64271 0.0
H1056 H 0.07226 0.60301 0.6795 0.0
H1057 H 1.01702 0.61249 0.66852 0.0
H1058 H 0.05848 0.66876 0.62751 0.0
H1059 H 0.11328 0.65891 0.63864 0.0
C1060 C 0.97243 0.64931 0.61197 0.0
C1061 C 0.96493 0.61607 0.60904 0.0
C1062 C 0.99183 0.6583 0.62569 0.0
C1063 C 1.00412 0.63413 0.63659 0.0
C1064 C 0.99353 0.60139 0.63465 0.0
C1065 C 0.97421 0.59243 0.62092 0.0
C1066 C 0.06915 0.61893 0.66868 0.0
C1067 C 0.09656 0.63062 0.65985 0.0
C1068 C 0.03766 0.62429 0.66238 0.0
C1069 C 0.03348 0.64077 0.64701 0.0
C1070 C 0.06077 0.65621 0.63948 0.0
C1071 C 0.09225 0.65089 0.64585 0.0
H1072 H 0.68278 0.22533 0.55215 0.0
H1073 H 0.63509 0.18548 0.59596 0.0
H1074 H 0.67286 0.28101 0.56245 0.0
H1075 H 0.62485 0.24064 0.60639 0.0
H1076 H 0.72577 0.33236 0.60956 0.0
H1077 H 0.70692 0.29803 0.58649 0.0
H1078 H 0.60864 0.29884 0.6071 0.0
H1079 H 0.62794 0.33223 0.63047 0.0
C1080 C 0.66837 0.22867 0.5635 0.0
C1081 C 0.65936 0.20153 0.57331 0.0
C1082 C 0.66281 0.26045 0.56943 0.0
C1083 C 0.64876 0.26523 0.58539 0.0
C1084 C 0.63553 0.23795 0.59397 0.0
C1085 C 0.64108 0.2062 0.58799 0.0
C1086 C 0.69985 0.32649 0.60869 0.0
C1087 C 0.67833 0.33506 0.62172 0.0
C1088 C 0.68888 0.30698 0.5954 0.0
C1089 C 0.65625 0.29541 0.59508 0.0
C1090 C 0.63388 0.30732 0.60706 0.0
C1091 C 0.64488 0.32688 0.62034 0.0
H1092 H 0.1097 0.38291 0.84519 0.0
H1093 H 0.07091 0.43412 0.80221 0.0
H1094 H 0.05441 0.37288 0.85538 0.0
H1095 H 1.01504 0.42417 0.81218 0.0
H1096 H 0.96328 0.37719 0.87986 0.0
H1097 H 0.99655 0.35817 0.8564 0.0
H1098 H 0.99748 0.45683 0.83619 0.0
H1099 H 0.96307 0.47533 0.85929 0.0
C1100 C 0.08915 0.38969 0.8373 0.0
C1101 C 0.09422 0.40895 0.82298 0.0
C1102 C 0.0573 0.38428 0.84315 0.0
C1103 C 0.03028 0.39853 0.83478 0.0
C1104 C 0.03539 0.41343 0.81904 0.0
C1105 C 0.06728 0.41897 0.81328 0.0
C1106 C 0.96864 0.39429 0.86981 0.0
C1107 C 0.96043 0.42774 0.87131 0.0
C1108 C 0.98818 0.38345 0.85647 0.0
C1109 C 1.00014 0.40599 0.84457 0.0
C1110 C 0.98855 0.43863 0.84502 0.0
C1111 C 0.96899 0.44942 0.85834 0.0
H1112 H 0.83076 0.82252 0.06318 0.0
H1113 H 0.9251 0.85774 0.07983 0.0
H1114 H 0.84307 0.76881 0.07336 0.0
H1115 H 0.93947 0.80232 0.08915 0.0
H1116 H 0.91192 0.74099 0.13621 0.0
H1117 H 0.92626 0.7759 0.11286 0.0
H1118 H 0.86079 0.71994 0.08072 0.0
H1119 H 0.84351 0.68782 0.1051 0.0
C1120 C 0.85489 0.81827 0.06854 0.0
C1121 C 0.8764 0.84447 0.07148 0.0
C1122 C 0.86237 0.78695 0.07426 0.0
C1123 C 0.89185 0.78091 0.08301 0.0
C1124 C 0.91573 0.80619 0.08335 0.0
C1125 C 0.90783 0.83798 0.07782 0.0
C1126 C 0.90116 0.73584 0.12402 0.0
C1127 C 0.87588 0.71267 0.12244 0.0
C1128 C 0.90964 0.75574 0.11042 0.0
C1129 C 0.89343 0.75227 0.09484 0.0
C1130 C 0.8723 0.72498 0.09271 0.0
C1131 C 0.86265 0.70609 0.10657 0.0
H1132 H 0.58132 0.66973 0.37943 0.0
H1133 H 0.58153 0.57018 0.36073 0.0
H1134 H 0.54853 0.68721 0.35549 0.0
H1135 H 0.54751 0.58719 0.33714 0.0
H1136 H 0.47646 0.60907 0.30155 0.0
H1137 H 0.53183 0.61905 0.31223 0.0
H1138 H 0.4904 0.67202 0.35439 0.0
H1139 H 0.43559 0.66166 0.34355 0.0
C1140 C 0.57597 0.65194 0.36971 0.0
C1141 C 0.5841 0.61861 0.37184 0.0
C1142 C 0.55677 0.66191 0.35609 0.0
C1143 C 0.54507 0.63861 0.34454 0.0
C1144 C 0.55634 0.60593 0.3457 0.0
C1145 C 0.57558 0.596 0.3593 0.0
C1146 C 0.47958 0.62449 0.31256 0.0
C1147 C 0.4522 0.63498 0.32179 0.0
C1148 C 0.51116 0.6301 0.3187 0.0
C1149 C 0.51546 0.64562 0.33433 0.0
C1150 C 0.48808 0.66018 0.34224 0.0
C1151 C 0.45654 0.65463 0.33602 0.0
H1152 H 0.42012 0.33252 0.12961 0.0
H1153 H 0.32079 0.33354 0.11069 0.0
H1154 H 0.43722 0.29851 0.10595 0.0
H1155 H 0.33738 0.29884 0.08736 0.0
H1156 H 0.41089 0.1854 0.09492 0.0
H1157 H 0.4214 0.24062 0.1053 0.0
H1158 H 0.36827 0.28097 0.06292 0.0
H1159 H 0.35753 0.2253 0.05285 0.0
C1160 C 0.40236 0.32711 0.11986 0.0
C1161 C 0.36913 0.33563 0.12189 0.0
C1162 C 0.41209 0.30724 0.10642 0.0
C1163 C 0.38864 0.29549 0.09494 0.0
C1164 C 0.35624 0.30756 0.09587 0.0
C1165 C 0.34655 0.32732 0.10931 0.0
C1166 C 0.40345 0.20618 0.08733 0.0
C1167 C 0.38364 0.2015 0.07317 0.0
C1168 C 0.40929 0.23794 0.09324 0.0
C1169 C 0.39498 0.26521 0.08509 0.0
C1170 C 0.3791 0.26042 0.06959 0.0
C1171 C 0.37304 0.22867 0.0638 0.0
H1172 H 0.46598 0.5703 0.85964 0.0
H1173 H 0.4659 0.66893 0.87958 0.0
H1174 H 0.50039 0.58832 0.83642 0.0
H1175 H 0.49949 0.68738 0.85607 0.0
H1176 H 0.57247 0.61163 0.80154 0.0
H1177 H 0.51694 0.62173 0.81199 0.0
H1178 H 0.55781 0.67104 0.8554 0.0
H1179 H 0.61284 0.66056 0.84484 0.0
C1180 C 0.47189 0.59619 0.85853 0.0
C1181 C 0.46322 0.61819 0.87133 0.0
C1182 C 0.49143 0.60669 0.84516 0.0
C1183 C 0.50295 0.63932 0.84451 0.0
C1184 C 0.49104 0.66213 0.85628 0.0
C1185 C 0.4714 0.65161 0.86964 0.0
C1186 C 0.56926 0.62632 0.8128 0.0
C1187 C 0.59653 0.6357 0.82242 0.0
C1188 C 0.53758 0.63199 0.81881 0.0
C1189 C 0.53301 0.64652 0.83467 0.0
C1190 C 0.56037 0.66001 0.84306 0.0
C1191 C 0.59203 0.65435 0.837 0.0
H1192 H 0.22616 0.71583 0.6119 0.0
H1193 H 0.12665 0.71084 0.63033 0.0
H1194 H 0.20752 0.74726 0.58778 0.0
H1195 H 0.10747 0.74101 0.60581 0.0
H1196 H 0.18665 0.81951 0.55418 0.0
H1197 H 0.17631 0.763 0.56302 0.0
H1198 H 0.11871 0.79939 0.6048 0.0
H1199 H 0.12915 0.85523 0.59573 0.0
C1200 C 0.20004 0.71986 0.61025 0.0
C1201 C 0.17787 0.71081 0.62289 0.0
C1202 C 0.18915 0.73767 0.59633 0.0
C1203 C 0.15591 0.74709 0.59497 0.0
C1204 C 0.13319 0.7343 0.60655 0.0
C1205 C 0.14414 0.71653 0.62051 0.0
C1206 C 0.17 0.81509 0.56458 0.0
C1207 C 0.15854 0.84133 0.57437 0.0
C1208 C 0.16421 0.78281 0.5697 0.0
C1209 C 0.14768 0.77671 0.58492 0.0
C1210 C 0.13158 0.80302 0.59301 0.0
C1211 C 0.13723 0.83524 0.58778 0.0
H1212 H 0.0803 0.47964 0.36096 0.0
H1213 H 0.08001 0.37986 0.37937 0.0
H1214 H 0.0453 0.46323 0.33768 0.0
H1215 H 0.04633 0.36291 0.35566 0.0
H1216 H 0.97311 0.44249 0.3026 0.0
H1217 H 0.0287 0.4325 0.31292 0.0
H1218 H 0.98845 0.37743 0.35469 0.0
H1219 H 0.93332 0.38723 0.34407 0.0
C1220 C 0.0741 0.45388 0.35951 0.0
C1221 C 0.08293 0.43105 0.37188 0.0
C1222 C 0.05428 0.44429 0.34608 0.0
C1223 C 0.04277 0.4117 0.34491 0.0
C1224 C 0.0547 0.38816 0.35628 0.0
C1225 C 0.07445 0.39781 0.36975 0.0
C1226 C 0.97653 0.4267 0.31345 0.0
C1227 C 0.9494 0.41544 0.32264 0.0
C1228 C 1.00824 0.42108 0.31939 0.0
C1229 C 1.01293 0.40496 0.33483 0.0
C1230 C 0.98581 0.38982 0.3427 0.0
C1231 C 0.95411 0.39522 0.33663 0.0
H1232 H 0.35813 0.82048 0.42825 0.0
H1233 H 0.41701 0.85632 0.38724 0.0
H1234 H 0.36797 0.76403 0.41918 0.0
H1235 H 0.42684 0.80054 0.37789 0.0
H1236 H 0.41922 0.71199 0.3522 0.0
H1237 H 0.43784 0.74247 0.37667 0.0
H1238 H 0.33755 0.74795 0.39443 0.0
H1239 H 0.31949 0.71591 0.3704 0.0
C1240 C 0.3749 0.81605 0.4179 0.0
C1241 C 0.38698 0.84234 0.40835 0.0
C1242 C 0.38039 0.78381 0.41264 0.0
C1243 C 0.3972 0.7778 0.39749 0.0
C1244 C 0.41375 0.80408 0.38962 0.0
C1245 C 0.40845 0.83626 0.39501 0.0
C1246 C 0.40156 0.71755 0.36195 0.0
C1247 C 0.36793 0.71134 0.35951 0.0
C1248 C 0.41219 0.73556 0.37587 0.0
C1249 C 0.38922 0.74822 0.38736 0.0
C1250 C 0.35609 0.73848 0.38594 0.0
C1251 C 0.34554 0.72032 0.37207 0.0
H1252 H 0.93947 0.67644 0.15074 0.0
H1253 H 0.9763 0.5836 0.16886 0.0
H1254 H 0.99434 0.69079 0.14085 0.0
H1255 H 0.02957 0.59587 0.158 0.0
H1256 H 0.10914 0.59522 0.12501 0.0
H1257 H 0.07789 0.61357 0.14951 0.0
H1258 H 1.01904 0.67574 0.11697 0.0
H1259 H 0.05281 0.66019 0.09339 0.0
C1260 C 0.95944 0.6595 0.15299 0.0
C1261 C 0.95355 0.6284 0.15993 0.0
C1262 C 0.99094 0.6674 0.1471 0.0
C1263 C 1.01646 0.64379 0.14757 0.0
C1264 C 1.01114 0.61488 0.15693 0.0
C1265 C 0.98011 0.60743 0.16306 0.0
C1266 C 0.09036 0.61385 0.12344 0.0
C1267 C 0.08261 0.62579 0.10744 0.0
C1268 C 0.07203 0.62414 0.13738 0.0
C1269 C 0.04432 0.64473 0.13527 0.0
C1270 C 0.03961 0.65963 0.11943 0.0
C1271 C 0.05882 0.65043 0.10571 0.0
H1272 H 0.12915 0.332 0.85252 0.0
H1273 H 0.22868 0.33008 0.87113 0.0
H1274 H 0.11097 0.30017 0.87671 0.0
H1275 H 0.21097 0.29721 0.89498 0.0
H1276 H 0.13481 0.18676 0.8887 0.0
H1277 H 0.12476 0.24175 0.87805 0.0
H1278 H 0.17915 0.28227 0.91993 0.0
H1279 H 0.1889 0.22669 0.93042 0.0
C1280 C 0.14681 0.32646 0.86228 0.0
C1281 C 0.18032 0.33363 0.86005 0.0
C1282 C 0.13644 0.30781 0.87604 0.0
C1283 C 0.15949 0.29577 0.88765 0.0
C1284 C 0.1924 0.30628 0.88639 0.0
C1285 C 0.20273 0.3249 0.87264 0.0
C1286 C 0.1422 0.20756 0.89626 0.0
C1287 C 0.16225 0.20286 0.91031 0.0
C1288 C 0.13682 0.23922 0.89013 0.0
C1289 C 0.15194 0.26638 0.89796 0.0
C1290 C 0.1677 0.26177 0.91351 0.0
C1291 C 0.17316 0.23006 0.91955 0.0
H1292 H 0.46983 0.47983 0.61965 0.0
H1293 H 0.46603 0.37947 0.60224 0.0
H1294 H 0.50297 0.46263 0.64352 0.0
H1295 H 0.49796 0.36182 0.62649 0.0
H1296 H 0.57139 0.44054 0.67981 0.0
H1297 H 0.51602 0.43147 0.669 0.0
H1298 H 0.55663 0.37403 0.6282 0.0
H1299 H 0.61147 0.38321 0.63923 0.0
C1300 C 0.47479 0.45388 0.6214 0.0
C1301 C 0.46528 0.431 0.60919 0.0
C1302 C 0.49349 0.44384 0.63517 0.0
C1303 C 0.50324 0.41075 0.63685 0.0
C1304 C 0.49083 0.38741 0.62552 0.0
C1305 C 0.47215 0.3975 0.61173 0.0
C1306 C 0.56805 0.42429 0.66914 0.0
C1307 C 0.59528 0.41241 0.66024 0.0
C1308 C 0.53645 0.41924 0.66291 0.0
C1309 C 0.53205 0.40291 0.6475 0.0
C1310 C 0.55905 0.38667 0.64013 0.0
C1311 C 0.59061 0.39158 0.64648 0.0
H1312 H 0.0745 0.19127 0.30406 0.0
H1313 H 0.12064 0.28326 0.29128 0.0
H1314 H 1.02073 0.21751 0.3027 0.0
H1315 H 0.06719 0.30923 0.28872 0.0
H1316 H 0.97054 0.35683 0.30509 0.0
H1317 H 0.02439 0.33074 0.30374 0.0
H1318 H 0.97854 0.24004 0.28766 0.0
H1319 H 0.92498 0.2658 0.29019 0.0
C1320 C 0.07307 0.21685 0.30048 0.0
C1321 C 0.10185 0.2351 0.29784 0.0
C1322 C 0.04213 0.23211 0.29963 0.0
C1323 C 0.03915 0.26591 0.29571 0.0
C1324 C 0.0681 0.28355 0.29224 0.0
C1325 C 0.09891 0.26848 0.29346 0.0
C1326 C 0.97214 0.33153 0.30104 0.0
C1327 C 0.94348 0.31346 0.2978 0.0
C1328 C 1.00312 0.31636 0.3002 0.0
C1329 C 1.00628 0.28286 0.2957 0.0
C1330 C 0.97748 0.26546 0.29163 0.0
C1331 C 0.94662 0.28042 0.29284 0.0
H1332 H 0.034 0.67822 0.55762 0.0
H1333 H 0.94096 0.72037 0.54277 0.0
H1334 H 0.05967 0.73146 0.55602 0.0
H1335 H 0.96735 0.77421 0.54032 0.0
H1336 H 1.01404 0.86996 0.55835 0.0
H1337 H 0.9883 0.81677 0.55643 0.0
H1338 H 0.08044 0.77442 0.54017 0.0
H1339 H 0.1069 0.82815 0.54295 0.0
C1340 C 1.01896 0.69881 0.5537 0.0
C1341 C 0.98516 0.69472 0.55036 0.0
C1342 C 0.03399 0.72959 0.55261 0.0
C1343 C 1.01593 0.75756 0.54797 0.0
C1344 C 0.98219 0.75345 0.54417 0.0
C1345 C 0.96698 0.72245 0.5454 0.0
C1346 C 0.02902 0.84947 0.55425 0.0
C1347 C 0.06279 0.85362 0.55084 0.0
C1348 C 1.01395 0.81873 0.55297 0.0
C1349 C 0.03195 0.79088 0.54807 0.0
C1350 C 0.06565 0.79507 0.54422 0.0
C1351 C 0.0809 0.82602 0.54564 0.0
H1352 H 0.46852 0.85545 0.79292 0.0
H1353 H 0.42869 0.76178 0.80842 0.0
H1354 H 0.5227 0.8299 0.78984 0.0
H1355 H 0.48229 0.73692 0.80615 0.0
H1356 H 0.57951 0.69165 0.79237 0.0
H1357 H 0.52526 0.71718 0.78954 0.0
H1358 H 0.56562 0.80983 0.80635 0.0
H1359 H 0.61926 0.78501 0.80838 0.0
C1360 C 0.47118 0.82945 0.79552 0.0
C1361 C 0.44409 0.81084 0.80092 0.0
C1362 C 0.50234 0.81475 0.79393 0.0
C1363 C 0.50718 0.78112 0.79776 0.0
C1364 C 0.47978 0.76257 0.80275 0.0
C1365 C 0.44885 0.77711 0.80423 0.0
C1366 C 0.57682 0.71757 0.79514 0.0
C1367 C 0.60392 0.7361 0.8006 0.0
C1368 C 0.54562 0.73226 0.79369 0.0
C1369 C 0.54076 0.7658 0.79772 0.0
C1370 C 0.56815 0.78426 0.80279 0.0
C1371 C 0.59911 0.76974 0.80413 0.0
H1372 H 0.44227 0.22333 0.05711 0.0
H1373 H 0.52944 0.17714 0.03762 0.0
H1374 H 0.46898 0.2766 0.05573 0.0
H1375 H 0.55571 0.23047 0.03469 0.0
H1376 H 0.60909 0.32525 0.04922 0.0
H1377 H 0.58212 0.27184 0.04776 0.0
H1378 H 0.48815 0.32049 0.04195 0.0
H1379 H 0.51487 0.37308 0.04525 0.0
C1380 C 0.46674 0.2248 0.05194 0.0
C1381 C 0.48358 0.19611 0.04742 0.0
C1382 C 0.48233 0.25551 0.05105 0.0
C1383 C 0.51501 0.2585 0.04511 0.0
C1384 C 0.53106 0.22964 0.03977 0.0
C1385 C 0.51575 0.19893 0.04115 0.0
C1386 C 0.58269 0.32436 0.04773 0.0
C1387 C 0.56414 0.35342 0.04788 0.0
C1388 C 0.56702 0.2936 0.04668 0.0
C1389 C 0.53243 0.2912 0.04505 0.0
C1390 C 0.51445 0.32067 0.0439 0.0
C1391 C 0.52995 0.35112 0.04553 0.0
H1392 H 0.92873 0.78571 0.17513 0.0
H1393 H 0.9692 0.69107 0.18857 0.0
H1394 H 0.98239 0.81035 0.1771 0.0
H1395 H 1.02355 0.7164 0.19136 0.0
H1396 H 0.11877 0.76228 0.17149 0.0
H1397 H 0.06533 0.73734 0.17427 0.0
H1398 H 0.02633 0.82899 0.19325 0.0
H1399 H 0.08025 0.85471 0.18965 0.0
C1400 C 0.94906 0.77011 0.17883 0.0
C1401 C 0.94447 0.73616 0.18158 0.0
C1402 C 0.98004 0.78452 0.18014 0.0
C1403 C 1.00765 0.76562 0.18441 0.0
C1404 C 1.00299 0.7318 0.18781 0.0
C1405 C 0.97175 0.71723 0.1864 0.0
C1406 C 0.09896 0.7773 0.17637 0.0
C1407 C 0.10401 0.81074 0.18029 0.0
C1408 C 0.06815 0.76269 0.17815 0.0
C1409 C 0.0412 0.78086 0.18406 0.0
C1410 C 0.04634 0.81417 0.18846 0.0
C1411 C 0.07735 0.82896 0.18655 0.0
H1412 H 0.53328 0.87043 0.42465 0.0
H1413 H 0.43956 0.82821 0.43821 0.0
H1414 H 0.55903 0.81724 0.42675 0.0
H1415 H 0.46596 0.77442 0.44117 0.0
H1416 H 0.51313 0.67928 0.42264 0.0
H1417 H 0.4875 0.73242 0.42484 0.0
H1418 H 0.57897 0.77373 0.44267 0.0
H1419 H 0.60544 0.71995 0.43959 0.0
C1420 C 0.51811 0.84982 0.4284 0.0
C1421 C 0.4841 0.85382 0.43117 0.0
C1422 C 0.53316 0.81909 0.42978 0.0
C1423 C 0.51488 0.79111 0.43416 0.0
C1424 C 0.48096 0.7952 0.43753 0.0
C1425 C 0.46574 0.82615 0.43602 0.0
C1426 C 0.52801 0.69952 0.42715 0.0
C1427 C 0.56161 0.69508 0.43089 0.0
C1428 C 0.51298 0.73022 0.42859 0.0
C1429 C 0.53082 0.75777 0.43402 0.0
C1430 C 0.56433 0.75329 0.43824 0.0
C1431 C 0.57956 0.72233 0.43664 0.0
H1432 H 0.62135 0.26006 0.67446 0.0
H1433 H 0.58102 0.35457 0.68824 0.0
H1434 H 0.56766 0.23543 0.67651 0.0
H1435 H 0.52678 0.32926 0.69118 0.0
H1436 H 0.43054 0.28385 0.67292 0.0
H1437 H 0.48418 0.30857 0.67493 0.0
H1438 H 0.52409 0.21636 0.69269 0.0
H1439 H 0.46987 0.19087 0.68982 0.0
C1440 C 0.60108 0.27564 0.67825 0.0
C1441 C 0.60577 0.30954 0.68113 0.0
C1442 C 0.57005 0.26123 0.6796 0.0
C1443 C 0.54248 0.28006 0.68406 0.0
C1444 C 0.54723 0.31386 0.68748 0.0
C1445 C 0.57846 0.32844 0.68598 0.0
C1446 C 0.45059 0.26865 0.67737 0.0
C1447 C 0.44565 0.23514 0.68116 0.0
C1448 C 0.48157 0.28313 0.6787 0.0
C1449 C 0.50886 0.26478 0.68404 0.0
C1450 C 0.50386 0.23137 0.68832 0.0
C1451 C 0.47265 0.21671 0.68686 0.0
H1452 H 0.10478 0.21739 0.93819 0.0
H1453 H 1.0103 0.17687 0.92462 0.0
H1454 H 0.07955 0.27175 0.94077 0.0
H1455 H 0.98573 0.23069 0.92633 0.0
H1456 H 0.94147 0.32919 0.93895 0.0
H1457 H 0.96669 0.27485 0.94214 0.0
H1458 H 0.05905 0.31389 0.92415 0.0
H1459 H 0.03464 0.36762 0.92183 0.0
C1460 C 0.07867 0.21993 0.9359 0.0
C1461 C 0.05976 0.19254 0.9312 0.0
C1462 C 0.06414 0.25123 0.93719 0.0
C1463 C 0.03036 0.25597 0.93372 0.0
C1464 C 1.01151 0.22831 0.92944 0.0
C1465 C 0.02589 0.19722 0.92829 0.0
C1466 C 0.96728 0.32619 0.936 0.0
C1467 C 0.98585 0.35298 0.93016 0.0
C1468 C 0.98179 0.29492 0.93765 0.0
C1469 C 1.01517 0.28964 0.93343 0.0
C1470 C 0.03364 0.31672 0.92791 0.0
C1471 C 1.01932 0.34775 0.92639 0.0
H1472 H 0.07525 0.69094 0.67647 0.0
H1473 H 0.1205 0.78289 0.69017 0.0
H1474 H 1.02137 0.71715 0.67711 0.0
H1475 H 0.06689 0.8088 0.69193 0.0
H1476 H 0.97103 0.85636 0.67415 0.0
H1477 H 0.02489 0.83026 0.67608 0.0
H1478 H 0.97853 0.73965 0.69189 0.0
H1479 H 0.92508 0.76535 0.68889 0.0
C1480 C 0.07358 0.71649 0.68011 0.0
C1481 C 0.10217 0.73475 0.68323 0.0
C1482 C 0.04259 0.73172 0.68052 0.0
C1483 C 0.03935 0.7655 0.68445 0.0
C1484 C 0.06806 0.78314 0.6884 0.0
C1485 C 0.09892 0.7681 0.68764 0.0
C1486 C 0.97251 0.83106 0.67825 0.0
C1487 C 0.94376 0.81298 0.68129 0.0
C1488 C 1.00348 0.8159 0.67942 0.0
C1489 C 1.00649 0.78243 0.68403 0.0
C1490 C 0.97758 0.76503 0.68786 0.0
C1491 C 0.94677 0.77997 0.68635 0.0
H1492 H 0.03608 0.17887 0.4226 0.0
H1493 H 0.94342 0.21903 0.43941 0.0
H1494 H 0.06132 0.23231 0.42476 0.0
H1495 H 0.9694 0.27303 0.44237 0.0
H1496 H 1.01413 0.36969 0.42385 0.0
H1497 H 0.98904 0.31619 0.4259 0.0
H1498 H 0.08208 0.27477 0.44139 0.0
H1499 H 0.10784 0.32892 0.43859 0.0
C1500 C 1.02106 0.19907 0.42704 0.0
C1501 C 0.98748 0.19444 0.43077 0.0
C1502 C 0.03583 0.2299 0.42846 0.0
C1503 C 1.0177 0.25733 0.43381 0.0
C1504 C 0.98423 0.25264 0.43801 0.0
C1505 C 0.96928 0.22158 0.43648 0.0
C1506 C 0.02944 0.34934 0.42782 0.0
C1507 C 0.06325 0.35382 0.43097 0.0
C1508 C 1.01476 0.31845 0.42917 0.0
C1509 C 0.03325 0.2908 0.43386 0.0
C1510 C 0.06697 0.29533 0.43753 0.0
C1511 C 0.08181 0.32646 0.43608 0.0
H1512 H 0.57378 0.19015 0.1774 0.0
H1513 H 0.62088 0.28121 0.19082 0.0
H1514 H 0.52034 0.21697 0.1787 0.0
H1515 H 0.56772 0.30773 0.19353 0.0
H1516 H 0.47261 0.35736 0.1767 0.0
H1517 H 0.52591 0.3304 0.17858 0.0
H1518 H 0.47769 0.23977 0.19294 0.0
H1519 H 0.42473 0.26645 0.1897 0.0
C1520 C 0.57258 0.21562 0.18117 0.0
C1521 C 0.60151 0.23349 0.18394 0.0
C1522 C 0.54183 0.23123 0.18199 0.0
C1523 C 0.53921 0.26499 0.18608 0.0
C1524 C 0.56833 0.28214 0.18984 0.0
C1525 C 0.59896 0.26675 0.18857 0.0
C1526 C 0.47359 0.33188 0.18047 0.0
C1527 C 0.4445 0.31412 0.18301 0.0
C1528 C 0.50425 0.31619 0.18164 0.0
C1529 C 0.50662 0.28246 0.18583 0.0
C1530 C 0.4773 0.26535 0.18922 0.0
C1531 C 0.44677 0.28082 0.18762 0.0
H1532 H 0.6052 0.82908 0.938 0.0
H1533 H 0.5112 0.86791 0.92231 0.0
H1534 H 0.5804 0.77457 0.94082 0.0
H1535 H 0.48714 0.81395 0.92428 0.0
H1536 H 0.44285 0.71658 0.93819 0.0
H1537 H 0.46776 0.77105 0.94083 0.0
H1538 H 0.56101 0.73124 0.92454 0.0
H1539 H 0.5368 0.67729 0.92274 0.0
C1540 C 0.5793 0.82612 0.93526 0.0
C1541 C 0.56036 0.85308 0.92996 0.0
C1542 C 0.56504 0.79476 0.93671 0.0
C1543 C 0.53154 0.78956 0.93279 0.0
C1544 C 0.51269 0.81676 0.92779 0.0
C1545 C 0.52678 0.84792 0.92649 0.0
C1546 C 0.46877 0.71943 0.93548 0.0
C1547 C 0.48766 0.69236 0.93028 0.0
C1548 C 0.4831 0.75077 0.93683 0.0
C1549 C 0.51661 0.75585 0.93289 0.0
C1550 C 0.53544 0.72853 0.92803 0.0
C1551 C 0.52128 0.69738 0.92684 0.0
H1552 H 0.08021 0.35373 0.79444 0.0
H1553 H 0.12127 0.25894 0.80714 0.0
H1554 H 0.02578 0.32858 0.79232 0.0
H1555 H 0.06738 0.23439 0.80581 0.0
H1556 H 0.96841 0.19105 0.79298 0.0
H1557 H 1.02273 0.2162 0.78984 0.0
H1558 H 0.98469 0.3075 0.80974 0.0
H1559 H 0.93094 0.28312 0.81217 0.0
C1560 C 0.07776 0.32757 0.79663 0.0
C1561 C 0.10528 0.30853 0.80097 0.0
C1562 C 0.04646 0.3131 0.79559 0.0
C1563 C 0.0419 0.27926 0.79894 0.0
C1564 C 0.06968 0.26026 0.80282 0.0
C1565 C 0.10078 0.27459 0.80375 0.0
C1566 C 0.97165 0.21658 0.79646 0.0
C1567 C 0.94512 0.2349 0.80279 0.0
C1568 C 1.00287 0.23104 0.79479 0.0
C1569 C 1.00833 0.26413 0.79947 0.0
C1570 C 0.9816 0.28233 0.80561 0.0
C1571 C 0.95059 0.26804 0.80717 0.0
H1572 H 0.53346 0.36954 0.55561 0.0
H1573 H 0.43829 0.32799 0.54434 0.0
H1574 H 0.55822 0.31581 0.55399 0.0
H1575 H 0.46361 0.27364 0.5419 0.0
H1576 H 0.51046 0.17879 0.5607 0.0
H1577 H 0.4857 0.23236 0.55861 0.0
H1578 H 0.5762 0.27123 0.53821 0.0
H1579 H 0.60188 0.2171 0.54115 0.0
C1580 C 0.51774 0.34896 0.55249 0.0
C1581 C 0.48364 0.3533 0.55021 0.0
C1582 C 0.5322 0.31792 0.55138 0.0
C1583 C 0.51319 0.29 0.5478 0.0
C1584 C 0.47915 0.29439 0.54495 0.0
C1585 C 0.46455 0.32565 0.54617 0.0
C1586 C 0.5253 0.19856 0.55565 0.0
C1587 C 0.55839 0.19333 0.55108 0.0
C1588 C 0.51076 0.22951 0.55428 0.0
C1589 C 0.52859 0.25646 0.54811 0.0
C1590 C 0.56161 0.25124 0.54321 0.0
C1591 C 0.57637 0.22009 0.54474 0.0
H1592 H 0.58179 0.85538 0.29277 0.0
H1593 H 0.62035 0.76163 0.30904 0.0
H1594 H 0.52729 0.83057 0.29001 0.0
H1595 H 0.56642 0.73759 0.30716 0.0
H1596 H 0.46895 0.69289 0.29353 0.0
H1597 H 0.52354 0.71759 0.29096 0.0
H1598 H 0.48354 0.81162 0.30594 0.0
H1599 H 0.42955 0.78762 0.30762 0.0
C1600 C 0.57879 0.82954 0.29566 0.0
C1601 C 0.60572 0.81069 0.30109 0.0
C1602 C 0.5474 0.81525 0.29425 0.0
C1603 C 0.54209 0.78181 0.29835 0.0
C1604 C 0.56925 0.76307 0.3035 0.0
C1605 C 0.60043 0.77717 0.30476 0.0
C1606 C 0.47179 0.71893 0.29596 0.0
C1607 C 0.44462 0.73808 0.30076 0.0
C1608 C 0.50322 0.73316 0.29467 0.0
C1609 C 0.50832 0.76686 0.29825 0.0
C1610 C 0.4809 0.7859 0.30272 0.0
C1611 C 0.44969 0.77185 0.30386 0.0
H1612 H 0.03199 0.86667 0.06197 0.0
H1613 H 0.94212 0.83057 0.03968 0.0
H1614 H 0.05684 0.8133 0.05905 0.0
H1615 H 0.96793 0.77662 0.03597 0.0
H1616 H 1.00937 0.67688 0.05272 0.0
H1617 H 0.98465 0.7307 0.05132 0.0
H1618 H 0.08005 0.77351 0.04168 0.0
H1619 H 0.10526 0.71908 0.04393 0.0
C1620 C 1.01752 0.84743 0.05616 0.0
C1621 C 0.98482 0.85318 0.05107 0.0
C1622 C 0.03213 0.81662 0.05431 0.0
C1623 C 1.01475 0.79034 0.04714 0.0
C1624 C 0.98214 0.79611 0.04171 0.0
C1625 C 0.96732 0.82714 0.04369 0.0
C1626 C 0.02526 0.69763 0.05015 0.0
C1627 C 0.05952 0.69344 0.04855 0.0
C1628 C 1.01085 0.72872 0.04918 0.0
C1629 C 0.0301 0.75682 0.04641 0.0
C1630 C 0.06432 0.75258 0.0441 0.0
C1631 C 0.07886 0.72128 0.04519 0.0
H1632 H 0.19724 0.22473 0.26455 0.0
H1633 H 0.29414 0.23816 0.28508 0.0
H1634 H 0.21383 0.25274 0.2389 0.0
H1635 H 0.31195 0.26427 0.25902 0.0
H1636 H 0.33058 0.33886 0.2186 0.0
H1637 H 0.30956 0.31296 0.24428 0.0
H1638 H 0.24098 0.25665 0.21429 0.0
H1639 H 0.26034 0.28416 0.18927 0.0
C1640 C 0.22275 0.23187 0.26313 0.0
C1641 C 0.24464 0.22835 0.27666 0.0
C1642 C 0.23232 0.24854 0.24844 0.0
C1643 C 0.26429 0.26172 0.24675 0.0
C1644 C 0.28685 0.25567 0.25986 0.0
C1645 C 0.27701 0.23964 0.27466 0.0
C1646 C 0.30991 0.32219 0.21771 0.0
C1647 C 0.29692 0.31383 0.20191 0.0
C1648 C 0.2984 0.30645 0.23238 0.0
C1649 C 0.27398 0.28169 0.23154 0.0
C1650 C 0.25954 0.27545 0.21577 0.0
C1651 C 0.27061 0.29146 0.20129 0.0
H1652 H 1.01919 1.01269 0.43924 0.0
H1653 H 0.96092 0.07976 0.46879 0.0
H1654 H 0.04697 0.99379 0.46425 0.0
H1655 H 0.98722 0.05909 0.49446 0.0
H1656 H 0.06162 0.04466 0.53563 0.0
H1657 H 0.03543 0.06257 0.5096 0.0
H1658 H 0.05069 0.96563 0.48859 0.0
H1659 H 0.07875 0.94899 0.51423 0.0
C1660 C 1.01134 1.02246 0.45128 0.0
C1661 C 0.98779 0.04774 0.45198 0.0
C1662 C 0.02743 1.01157 0.46577 0.0
C1663 C 1.02015 0.02515 0.48161 0.0
C1664 C 0.99447 0.04862 0.4825 0.0
C1665 C 0.9786 0.05994 0.46783 0.0
C1666 C 0.06085 0.02785 0.52505 0.0
C1667 C 0.07323 0.9958 0.52677 0.0
C1668 C 0.04484 0.03773 0.51026 0.0
C1669 C 0.03992 1.01549 0.49689 0.0
C1670 C 0.05405 0.98387 0.49835 0.0
C1671 C 0.0707 0.97429 0.51303 0.0
H1672 H 0.2626 0.77809 0.7937 0.0
H1673 H 0.32811 0.83897 0.7646 0.0
H1674 H 0.24372 0.75125 0.76839 0.0
H1675 H 0.30753 0.81349 0.7387 0.0
H1676 H 0.29421 0.74062 0.69681 0.0
H1677 H 0.31194 0.76548 0.72319 0.0
H1678 H 0.21507 0.74889 0.74394 0.0
H1679 H 0.19849 0.72231 0.71784 0.0
C1680 C 0.27205 0.78668 0.78172 0.0
C1681 C 0.29689 0.81072 0.78121 0.0
C1682 C 0.26118 0.77113 0.76707 0.0
C1683 C 0.27438 0.77941 0.75127 0.0
C1684 C 0.29739 0.80551 0.75062 0.0
C1685 C 0.30865 0.82088 0.76543 0.0
C1686 C 0.27737 0.74077 0.70738 0.0
C1687 C 0.24532 0.72854 0.70543 0.0
C1688 C 0.28714 0.75603 0.72239 0.0
C1689 C 0.26485 0.76025 0.73579 0.0
C1690 C 0.23329 0.74609 0.73413 0.0
C1691 C 0.22377 0.73026 0.71919 0.0
H1692 H 0.45869 0.08134 0.01245 0.0
H1693 H 0.51312 1.01022 0.0414 0.0
H1694 H 0.48359 0.05998 0.9866 0.0
H1695 H 0.53972 0.99052 0.0162 0.0
H1696 H 0.5712 0.94743 0.9658 0.0
H1697 H 0.54309 0.96369 -0.00851 0.0
H1698 H 0.53213 0.06229 0.9718 0.0
H1699 H 0.55824 0.04481 0.94569 0.0
C1700 C 0.47504 0.06037 0.01323 0.0
C1701 C 0.4837 0.04727 0.02895 0.0
C1702 C 0.49022 0.04868 -0.00155 0.0
C1703 C 0.51472 0.02397 -0.00086 0.0
C1704 C 0.52111 1.00932 0.01484 0.0
C1705 C 0.50562 1.02057 0.02943 0.0
C1706 C 0.56406 0.97293 0.96732 0.0
C1707 C 0.56776 0.9951 0.95392 0.0
C1708 C 0.54739 0.98231 0.98203 0.0
C1709 C 0.53442 1.01436 0.98385 0.0
C1710 C 0.54056 0.03713 0.97084 0.0
C1711 C 0.55655 0.02747 0.95601 0.0
H1712 H 0.34887 0.72421 0.26464 0.0
H1713 H 0.25295 0.74267 0.28542 0.0
H1714 H 0.33262 0.75092 0.23852 0.0
H1715 H 0.2355 0.76756 0.25899 0.0
H1716 H 0.2191 0.84007 0.21722 0.0
H1717 H 0.23963 0.81518 0.24328 0.0
H1718 H 0.30442 0.75313 0.21403 0.0
H1719 H 0.28562 0.77947 0.18857 0.0
C1720 C 0.32364 0.73229 0.26324 0.0
C1721 C 0.30191 0.73054 0.27692 0.0
C1722 C 0.31429 0.74815 0.24828 0.0
C1723 C 0.28273 0.76228 0.24652 0.0
C1724 C 0.26031 0.75814 0.25987 0.0
C1725 C 0.26993 0.74289 0.27491 0.0
C1726 C 0.23876 0.82217 0.21652 0.0
C1727 C 0.25082 0.81189 0.20082 0.0
C1728 C 0.25 0.80713 0.23143 0.0
C1729 C 0.27327 0.78123 0.23094 0.0
C1730 C 0.28676 0.77287 0.21522 0.0
C1731 C 0.27593 0.78813 0.20048 0.0
H1732 H 0.57028 0.09895 0.51439 0.0
H1733 H 0.55481 1.00218 0.53478 0.0
H1734 H 0.54211 0.08299 0.48865 0.0
H1735 H 0.52855 0.98499 0.50867 0.0
H1736 H 0.45464 0.96767 0.46781 0.0
H1737 H 0.48024 0.98828 0.49365 0.0
H1738 H 0.5386 0.05577 0.46401 0.0
H1739 H 0.51146 0.03684 0.4388 0.0
C1740 C 0.56254 0.07362 0.51294 0.0
C1741 C 0.5656 0.05155 0.52643 0.0
C1742 C 0.54584 0.06442 0.49821 0.0
C1743 C 0.53216 0.03265 0.49644 0.0
C1744 C 0.53756 1.00995 0.50957 0.0
C1745 C 0.55361 1.01942 0.52441 0.0
C1746 C 0.47178 0.98799 0.46701 0.0
C1747 C 0.48082 1.00077 0.45126 0.0
C1748 C 0.48729 0.99926 0.48178 0.0
C1749 C 0.51247 1.02327 0.4811 0.0
C1750 C 0.51946 0.03752 0.46537 0.0
C1751 C 0.5037 0.02666 0.45077 0.0
H1752 H 0.26461 0.26881 0.68934 0.0
H1753 H 0.32954 0.20686 0.71819 0.0
H1754 H 0.24601 0.2955 0.71474 0.0
H1755 H 0.30919 0.23216 0.74418 0.0
H1756 H 0.29651 0.30478 0.78636 0.0
H1757 H 0.31389 0.27962 0.75999 0.0
H1758 H 0.21745 0.29817 0.73914 0.0
H1759 H 0.20128 0.32509 0.76522 0.0
C1760 C 0.27401 0.25997 0.70127 0.0
C1761 C 0.29861 0.23567 0.70168 0.0
C1762 C 0.26328 0.27543 0.71598 0.0
C1763 C 0.27637 0.26677 0.73176 0.0
C1764 C 0.29914 0.24044 0.7323 0.0
C1765 C 0.31027 0.22518 0.71742 0.0
C1766 C 0.27968 0.3049 0.77579 0.0
C1767 C 0.24791 0.31786 0.77769 0.0
C1768 C 0.28926 0.2895 0.76078 0.0
C1769 C 0.26699 0.28583 0.74732 0.0
C1770 C 0.23567 0.30055 0.74897 0.0
C1771 C 0.22637 0.31654 0.76391 0.0
H1772 H 0.07636 0.09603 0.96628 0.0
H1773 H 0.05451 1.00121 0.94503 0.0
H1774 H 0.0496 0.08001 -0.00757 0.0
H1775 H 0.0295 0.98396 0.97145 0.0
H1776 H 0.95713 0.96907 0.01354 0.0
H1777 H 0.98236 0.9892 0.98747 0.0
H1778 H 0.04704 0.05121 0.01676 0.0
H1779 H 1.02045 0.03289 0.04223 0.0
C1780 C 0.06749 0.07104 0.96756 0.0
C1781 C 0.06833 0.04959 0.95374 0.0
C1782 C 0.0516 0.06183 0.98254 0.0
C1783 C 0.03652 0.03068 0.98419 0.0
C1784 C 0.03969 1.00847 0.97067 0.0
C1785 C 0.05498 1.01796 0.95563 0.0
C1786 C 0.97577 0.98802 0.01426 0.0
C1787 C 0.98666 0.99944 0.02997 0.0
C1788 C 0.99096 0.99903 -0.00067 0.0
C1789 C 1.01761 1.02142 -0.00019 0.0
C1790 C 0.02672 0.03424 0.01557 0.0
C1791 C 1.01133 1.02366 0.03032 0.0
H1792 H 0.78523 0.76932 0.79203 0.0
H1793 H 0.71906 0.70871 0.76321 0.0
H1794 H 0.8037 0.79624 0.76665 0.0
H1795 H 0.73921 0.73426 0.73723 0.0
H1796 H 0.7521 0.80711 0.69531 0.0
H1797 H 0.73466 0.78241 0.72179 0.0
H1798 H 0.83199 0.79844 0.74207 0.0
H1799 H 0.84829 0.82485 0.71588 0.0
C1800 C 0.77554 0.76082 0.78009 0.0
C1801 C 0.75065 0.73683 0.77968 0.0
C1802 C 0.78617 0.77641 0.76541 0.0
C1803 C 0.77266 0.76821 0.74967 0.0
C1804 C 0.74958 0.74218 0.7491 0.0
C1805 C 0.73857 0.72676 0.76396 0.0
C1806 C 0.76912 0.80689 0.7058 0.0
C1807 C 0.80121 0.8189 0.70369 0.0
C1808 C 0.7595 0.79172 0.72086 0.0
C1809 C 0.78201 0.78737 0.73415 0.0
C1810 C 0.81362 0.80134 0.73234 0.0
C1811 C 0.82298 0.81708 0.71735 0.0
H1812 H 0.84828 0.32412 0.26402 0.0
H1813 H 0.75137 0.30935 0.28433 0.0
H1814 H 0.83205 0.29661 0.23815 0.0
H1815 H 0.73397 0.28366 0.2581 0.0
H1816 H 0.71683 0.20906 0.21757 0.0
H1817 H 0.73758 0.23484 0.24333 0.0
H1818 H 0.80457 0.29333 0.21347 0.0
H1819 H 0.78545 0.26604 0.18833 0.0
C1820 C 0.82284 0.3168 0.26252 0.0
C1821 C 0.80085 0.31975 0.27604 0.0
C1822 C 0.81351 0.30042 0.24772 0.0
C1823 C 0.78168 0.28696 0.24594 0.0
C1824 C 0.75897 0.2925 0.25904 0.0
C1825 C 0.76857 0.30828 0.27393 0.0
C1826 C 0.7371 0.22624 0.2167 0.0
C1827 C 0.74967 0.2353 0.20092 0.0
C1828 C 0.74843 0.24186 0.23143 0.0
C1829 C 0.77229 0.26716 0.23065 0.0
C1830 C 0.78641 0.27412 0.21488 0.0
C1831 C 0.77548 0.25825 0.20033 0.0
H1832 H 0.79759 0.30808 0.69519 0.0
H1833 H 0.70043 0.32224 0.71532 0.0
H1834 H 0.81486 0.28207 0.72137 0.0
H1835 H 0.71645 0.29425 0.74107 0.0
H1836 H 0.76204 0.26394 0.79101 0.0
H1837 H 0.74322 0.29095 0.76576 0.0
H1838 H 0.81219 0.23376 0.73639 0.0
H1839 H 0.8327 0.20837 0.76233 0.0
C1840 C 0.78027 0.30668 0.70553 0.0
C1841 C 0.74801 0.31821 0.70342 0.0
C1842 C 0.7898 0.29076 0.7204 0.0
C1843 C 0.76702 0.28502 0.73344 0.0
C1844 C 0.7351 0.29827 0.73159 0.0
C1845 C 0.72586 0.31488 0.71684 0.0
C1846 C 0.77259 0.25642 0.77908 0.0
C1847 C 0.79884 0.23396 0.7787 0.0
C1848 C 0.76178 0.27209 0.76446 0.0
C1849 C 0.77645 0.2654 0.7488 0.0
C1850 C 0.80087 0.24059 0.74821 0.0
C1851 C 0.8121 0.22519 0.76303 0.0
H1852 H 0.70162 0.82629 0.26486 0.0
H1853 H 0.79687 0.80469 0.28563 0.0
H1854 H 0.71735 0.79987 0.23856 0.0
H1855 H 0.81379 0.77998 0.25907 0.0
H1856 H 0.82841 0.70803 0.21683 0.0
H1857 H 0.80844 0.73289 0.24301 0.0
H1858 H 0.74582 0.79763 0.21407 0.0
H1859 H 0.76404 0.77141 0.18847 0.0
C1860 C 0.72662 0.81755 0.26344 0.0
C1861 C 0.7483 0.81837 0.27717 0.0
C1862 C 0.73566 0.80184 0.24838 0.0
C1863 C 0.76684 0.78691 0.24656 0.0
C1864 C 0.78925 0.79006 0.25998 0.0
C1865 C 0.77995 0.80518 0.27511 0.0
C1866 C 0.80935 0.72658 0.2162 0.0
C1867 C 0.79774 0.7376 0.20054 0.0
C1868 C 0.79844 0.74158 0.2312 0.0
C1869 C 0.77594 0.76816 0.23085 0.0
C1870 C 0.76289 0.77736 0.21516 0.0
C1871 C 0.7734 0.76217 0.20033 0.0
H1872 H 0.53158 0.53567 0.04126 0.0
H1873 H 0.59004 0.46755 0.01246 0.0
H1874 H 0.50463 0.55432 0.01596 0.0
H1875 H 0.56465 0.48795 0.98651 0.0
H1876 H 0.49071 0.5009 0.94505 0.0
H1877 H 0.51662 0.48395 0.9713 0.0
H1878 H 0.50119 0.58165 -0.00866 0.0
H1879 H 0.47339 0.59735 0.96546 0.0
C1880 C 0.53974 0.52569 0.02932 0.0
C1881 C 0.56301 0.50014 0.02891 0.0
C1882 C 0.52409 0.53639 0.01467 0.0
C1883 C 0.53161 0.52234 -0.00104 0.0
C1884 C 0.55719 0.49874 -0.00164 0.0
C1885 C 0.57258 0.4876 0.0132 0.0
C1886 C 0.4914 0.5181 0.95546 0.0
C1887 C 0.47905 0.55008 0.95339 0.0
C1888 C 0.50726 0.50878 0.97037 0.0
C1889 C 0.51206 0.5315 0.98354 0.0
C1890 C 0.49794 0.56307 0.98174 0.0
C1891 C 0.48144 0.57211 0.96693 0.0
H1892 H 0.98551 0.50354 0.53467 0.0
H1893 H 0.97294 0.60039 0.51386 0.0
H1894 H 1.01291 0.48566 0.50896 0.0
H1895 H 1.00234 0.58381 0.48864 0.0
H1896 H 0.03591 0.53763 0.43941 0.0
H1897 H 1.00739 0.5569 0.46413 0.0
H1898 H 0.06191 0.48763 0.49463 0.0
H1899 H 0.0888 0.46667 0.4692 0.0
C1900 C 0.98755 0.52065 0.52427 0.0
C1901 C 0.97604 0.55301 0.52605 0.0
C1902 C 1.00428 0.51078 0.50968 0.0
C1903 C 1.0109 0.53331 0.49662 0.0
C1904 C 0.99768 0.56531 0.49812 0.0
C1905 C 0.98025 0.57489 0.51256 0.0
C1906 C 0.04257 0.52717 0.45149 0.0
C1907 C 0.06475 0.50071 0.45231 0.0
C1908 C 0.026 0.5382 0.46581 0.0
C1909 C 0.03146 0.52357 0.48161 0.0
C1910 C 0.05599 0.49895 0.48268 0.0
C1911 C 0.07229 0.48748 0.46817 0.0
H1912 H 0.05502 0.50192 0.03589 0.0
H1913 H 0.07682 0.59682 0.0147 0.0
H1914 H 0.03037 0.48461 0.0094 0.0
H1915 H 0.05045 0.58072 0.98846 0.0
H1916 H 1.02186 0.53341 0.93861 0.0
H1917 H 0.04819 0.55185 0.96412 0.0
H1918 H 0.98326 0.4899 -0.00667 0.0
H1919 H 0.9583 0.46966 0.96724 0.0
C1920 C 0.05558 0.51867 0.02529 0.0
C1921 C 0.06877 0.55035 0.02722 0.0
C1922 C 0.04049 0.50915 0.0102 0.0
C1923 C 0.03739 0.53136 -0.00332 0.0
C1924 C 0.05238 0.56255 -0.00164 0.0
C1925 C 0.06807 0.5718 0.01339 0.0
C1926 C 1.01262 0.52423 0.95051 0.0
C1927 C 0.98797 0.49999 0.95083 0.0
C1928 C 0.02785 0.53488 0.96528 0.0
C1929 C 1.01862 0.52209 0.98103 0.0
C1930 C 0.99197 0.4997 0.98148 0.0
C1931 C 0.97692 0.48864 0.96654 0.0
H1932 H 0.48619 0.54477 0.53514 0.0
H1933 H 0.47151 0.4486 0.51389 0.0
H1934 H 0.51275 0.56292 0.50925 0.0
H1935 H 0.49998 0.46547 0.48842 0.0
H1936 H 0.53218 0.5125 0.43918 0.0
H1937 H 0.50409 0.49326 0.46403 0.0
H1938 H 0.5614 0.56025 0.49448 0.0
H1939 H 0.58796 0.58122 0.46896 0.0
C1940 C 0.48756 0.52789 0.52462 0.0
C1941 C 0.47575 0.49563 0.52634 0.0
C1942 C 0.5038 0.53791 0.50991 0.0
C1943 C 0.50956 0.51562 0.49664 0.0
C1944 C 0.49598 0.48376 0.49809 0.0
C1945 C 0.47908 0.47404 0.51267 0.0
C1946 C 0.53948 0.52253 0.45125 0.0
C1947 C 0.56239 0.54835 0.45205 0.0
C1948 C 0.52318 0.51147 0.46565 0.0
C1949 C 0.52964 0.52544 0.4815 0.0
C1950 C 0.55477 0.54946 0.48251 0.0
C1951 C 0.57082 0.56094 0.46792 0.0
H1952 H 0.2883 0.10532 0.31932 0.0
H1953 H 0.23027 0.1113 0.36456 0.0
H1954 H 0.33224 0.0778 0.33512 0.0
H1955 H 0.27356 0.08379 0.38034 0.0
H1956 H 0.3558 0.03588 0.40772 0.0
H1957 H 0.32827 0.0801 0.39211 0.0
H1958 H 0.33572 1.02284 0.34648 0.0
H1959 H 0.3632 0.97928 0.36205 0.0
C1960 C 0.28559 0.10208 0.33279 0.0
C1961 C 0.25611 0.11094 0.34077 0.0
C1962 C 0.31051 0.08584 0.34183 0.0
C1963 C 0.30652 0.07825 0.35906 0.0
C1964 C 0.27794 0.08948 0.36721 0.0
C1965 C 0.25303 0.10536 0.35816 0.0
C1966 C 0.35282 0.03352 0.39423 0.0
C1967 C 0.36202 1.00431 0.38607 0.0
C1968 C 0.33658 0.05861 0.38529 0.0
C1969 C 0.32945 0.05512 0.36798 0.0
C1970 C 0.34103 0.02684 0.35968 0.0
C1971 C 0.35686 1.00176 0.36862 0.0
H1972 H 0.31994 0.10797 0.61696 0.0
H1973 H 0.25943 0.1065 0.66145 0.0
H1974 H 0.27675 0.08071 0.60105 0.0
H1975 H 0.21555 0.07926 0.64548 0.0
H1976 H 0.18248 0.98042 0.61947 0.0
H1977 H 0.21026 0.02402 0.63486 0.0
H1978 H 0.22291 0.07807 0.5885 0.0
H1979 H 0.19494 0.03389 0.5731 0.0
C1980 C 0.29672 0.103 0.62315 0.0
C1981 C 0.29291 0.10977 0.6404 0.0
C1982 C 0.27185 0.0873 0.61401 0.0
C1983 C 0.2425 0.07746 0.62191 0.0
C1984 C 0.23787 0.08618 0.63897 0.0
C1985 C 0.26278 0.10227 0.6481 0.0
C1986 C 0.19003 1.00226 0.61267 0.0
C1987 C 0.18619 1.00388 0.5951 0.0
C1988 C 0.20606 0.02735 0.62151 0.0
C1989 C 0.21926 0.05465 0.61298 0.0
C1990 C 0.2134 0.05732 0.5955 0.0
C1991 C 0.19692 0.03226 0.58667 0.0
H1992 H 0.19428 1.00879 0.91117 0.0
H1993 H 0.18605 0.06758 0.86628 0.0
H1994 H 0.22162 0.96536 0.89489 0.0
H1995 H 0.21328 0.02476 0.85001 0.0
H1996 H 0.25929 0.94249 0.82167 0.0
H1997 H 0.21611 0.97 0.83804 0.0
H1998 H 0.27616 0.96227 0.88269 0.0
H1999 H 0.31873 0.93484 0.86635 0.0
C2000 C 0.19703 1.01178 0.89769 0.0
C2001 C 0.18755 0.04131 0.88994 0.0
C2002 C 0.21315 0.98715 0.88837 0.0
C2003 C 0.21993 0.99146 0.87107 0.0
C2004 C 0.20821 1.02014 0.86318 0.0
C2005 C 0.1925 0.04477 0.87251 0.0
C2006 C 0.26247 0.94538 0.83513 0.0
C2007 C 0.29211 0.93602 0.84279 0.0
C2008 C 0.23799 0.96162 0.84449 0.0
C2009 C 0.24256 0.96865 0.86175 0.0
C2010 C 0.27134 0.95701 0.86956 0.0
C2011 C 0.29583 0.94117 0.86018 0.0
H2012 H 0.27138 0.97775 0.16003 0.0
H2013 H 0.252 0.90686 0.12107 0.0
H2014 H 0.31267 1.00398 0.14242 0.0
H2015 H 0.29421 0.93244 0.10332 0.0
H2016 H 0.32474 1.02174 0.06959 0.0
H2017 H 0.29761 0.98141 0.08745 0.0
H2018 H 0.36338 1.00637 0.12821 0.0
H2019 H 0.38971 0.04762 0.11022 0.0
C2020 C 0.27717 0.96686 0.14794 0.0
C2021 C 0.25906 0.93982 0.14209 0.0
C2022 C 0.30087 0.98196 0.13775 0.0
C2023 C 0.307 0.97059 0.12129 0.0
C2024 C 0.29007 0.94222 0.11582 0.0
C2025 C 0.26626 0.9271 0.12608 0.0
C2026 C 0.33433 1.01748 0.08213 0.0
C2027 C 0.3599 0.0372 0.08836 0.0
C2028 C 0.31865 0.99439 0.09247 0.0
C2029 C 0.32795 0.9905 0.10945 0.0
C2030 C 0.35511 1.00883 0.11532 0.0
C2031 C 0.37074 0.03206 0.10493 0.0
H2032 H 0.76714 0.97333 0.66114 0.0
H2033 H 0.79351 0.90685 0.62121 0.0
H2034 H 0.72712 0.99988 0.64287 0.0
H2035 H 0.75265 0.93267 0.60282 0.0
H2036 H 0.72639 0.02476 0.57033 0.0
H2037 H 0.75154 0.98343 0.58834 0.0
H2038 H 0.67842 1.00274 0.62656 0.0
H2039 H 0.65386 0.04491 0.60841 0.0
C2040 C 0.763 0.96324 0.64869 0.0
C2041 C 0.7828 0.93746 0.64275 0.0
C2042 C 0.74012 0.97861 0.63811 0.0
C2043 C 0.73658 0.96876 0.6212 0.0
C2044 C 0.75487 0.94131 0.61566 0.0
C2045 C 0.77786 0.92599 0.62628 0.0
C2046 C 0.71491 1.01913 0.5823 0.0
C2047 C 0.68774 0.03745 0.5878 0.0
C2048 C 0.72938 0.99541 0.59272 0.0
C2049 C 0.71725 0.98954 0.60906 0.0
C2050 C 0.68874 1.00667 0.61416 0.0
C2051 C 0.67423 0.03046 0.60367 0.0
H2052 H 0.82198 0.02473 0.41119 0.0
H2053 H 0.8912 0.04794 0.37197 0.0
H2054 H 0.79575 0.9843 0.39304 0.0
H2055 H 0.86557 1.00672 0.35367 0.0
H2056 H 0.77533 0.97814 0.32021 0.0
H2057 H 0.81564 1.00457 0.33835 0.0
H2058 H 0.79387 0.93438 0.37765 0.0
H2059 H 0.75277 0.90854 0.35936 0.0
C2060 C 0.83257 1.01994 0.39891 0.0
C2061 C 0.85913 0.03887 0.39316 0.0
C2062 C 0.81743 0.99677 0.38841 0.0
C2063 C 0.82826 0.99208 0.37173 0.0
C2064 C 0.85621 1.00977 0.36634 0.0
C2065 C 0.87137 0.033 0.37691 0.0
C2066 C 0.78025 0.96752 0.33246 0.0
C2067 C 0.76153 0.94078 0.3382 0.0
C2068 C 0.80334 0.98277 0.34296 0.0
C2069 C 0.80817 0.9719 0.35963 0.0
C2070 C 0.79071 0.94378 0.365 0.0
C2071 C 0.76755 0.9285 0.35443 0.0
H2072 H 0.89035 1.00223 0.1108 0.0
H2073 H 0.82486 0.02629 0.07009 0.0
H2074 H 0.86392 0.04388 0.12846 0.0
H2075 H 0.79742 0.06683 0.08768 0.0
H2076 H 0.77292 0.07275 0.16063 0.0
H2077 H 0.81425 0.04673 0.14303 0.0
H2078 H 0.79243 0.11562 0.1031 0.0
H2079 H 0.74998 0.14079 0.12083 0.0
C2080 C 0.87121 1.01747 0.10541 0.0
C2081 C 0.8603 1.01173 0.08892 0.0
C2082 C 0.85549 0.04093 0.11563 0.0
C2083 C 0.82805 0.05877 0.10969 0.0
C2084 C 0.81866 0.05427 0.09277 0.0
C2085 C 0.83453 0.03105 0.08257 0.0
C2086 C 0.77796 0.08315 0.14833 0.0
C2087 C 0.75881 0.10928 0.14226 0.0
C2088 C 0.80171 0.06815 0.13814 0.0
C2089 C 0.80694 0.07875 0.12145 0.0
C2090 C 0.78899 0.10635 0.11575 0.0
C2091 C 0.76505 0.12129 0.12601 0.0
H2092 H 0.65694 1.00082 0.87163 0.0
H2093 H 0.72643 1.02252 0.91093 0.0
H2094 H 0.68178 0.04345 0.85388 0.0
H2095 H 0.75194 0.06425 0.89332 0.0
H2096 H 0.79468 0.14135 0.8613 0.0
H2097 H 0.75307 0.11482 0.87893 0.0
H2098 H 0.7312 0.04755 0.83834 0.0
H2099 H 0.77187 0.07497 0.82078 0.0
C2100 C 0.67669 1.01568 0.8767 0.0
C2101 C 0.68927 1.00903 0.89279 0.0
C2102 C 0.69137 0.03973 0.86645 0.0
C2103 C 0.71915 0.05743 0.87203 0.0
C2104 C 0.73033 0.05183 0.88857 0.0
C2105 C 0.71566 0.02789 0.89876 0.0
C2106 C 0.77966 0.12203 0.85593 0.0
C2107 C 0.78578 0.11081 0.83952 0.0
C2108 C 0.75624 0.1063 0.86613 0.0
C2109 C 0.7388 0.07861 0.86023 0.0
C2110 C 0.74353 0.06898 0.84336 0.0
C2111 C 0.76678 0.08483 0.83318 0.0
H2112 H 0.75224 0.64053 0.85889 0.0
H2113 H 0.77329 0.56984 0.82003 0.0
H2114 H 0.79392 0.61504 0.87698 0.0
H2115 H 0.81409 0.54373 0.83798 0.0
H2116 H 0.82324 0.52555 0.91088 0.0
H2117 H 0.7966 0.56579 0.89277 0.0
H2118 H 0.86436 0.54156 0.85274 0.0
H2119 H 0.89028 0.50044 0.87099 0.0
C2120 C 0.76678 0.62038 0.85398 0.0
C2121 C 0.76017 0.60767 0.8379 0.0
C2122 C 0.79028 0.6053 0.86444 0.0
C2123 C 0.8075 0.577 0.8591 0.0
C2124 C 0.80203 0.56569 0.84257 0.0
C2125 C 0.77862 0.58074 0.83218 0.0
C2126 C 0.83332 0.52993 0.89845 0.0
C2127 C 0.85935 0.51048 0.8925 0.0
C2128 C 0.81795 0.55298 0.88797 0.0
C2129 C 0.82801 0.55707 0.87112 0.0
C2130 C 0.85555 0.53895 0.86553 0.0
C2131 C 0.8709 0.51579 0.87607 0.0
H2132 H 0.72175 0.52753 0.06991 0.0
H2133 H 0.65608 0.50381 0.1106 0.0
H2134 H 0.74889 0.56837 0.08736 0.0
H2135 H 0.68213 0.5459 0.12813 0.0
H2136 H 0.77247 0.57606 0.16043 0.0
H2137 H 0.73119 0.54974 0.14293 0.0
H2138 H 0.75412 0.61706 0.10246 0.0
H2139 H 0.7966 0.64234 0.12006 0.0
C2140 C 0.71196 0.53244 0.08235 0.0
C2141 C 0.68624 0.51311 0.08873 0.0
C2142 C 0.72766 0.55586 0.09248 0.0
C2143 C 0.71813 0.56061 0.10937 0.0
C2144 C 0.6907 0.54276 0.11533 0.0
C2145 C 0.67517 0.51907 0.10518 0.0
C2146 C 0.76764 0.58609 0.14804 0.0
C2147 C 0.78715 0.61177 0.14177 0.0
C2148 C 0.74394 0.5709 0.13788 0.0
C2149 C 0.73907 0.58091 0.12107 0.0
C2150 C 0.75729 0.60818 0.1152 0.0
C2151 C 0.78124 0.62322 0.12538 0.0
H2152 H 0.79331 0.40836 0.35923 0.0
H2153 H 0.77085 0.47495 0.31872 0.0
H2154 H 0.75111 0.43453 0.3767 0.0
H2155 H 0.72986 0.50206 0.33608 0.0
H2156 H 0.65497 0.54914 0.368 0.0
H2157 H 0.68069 0.50656 0.35068 0.0
H2158 H 0.7467 0.48363 0.3917 0.0
H2159 H 0.71978 0.52503 0.40899 0.0
C2160 C 0.77833 0.42772 0.35384 0.0
C2161 C 0.78465 0.43904 0.33747 0.0
C2162 C 0.75457 0.44326 0.36395 0.0
C2163 C 0.73695 0.47084 0.35799 0.0
C2164 C 0.74216 0.48068 0.34118 0.0
C2165 C 0.76568 0.46503 0.33111 0.0
C2166 C 0.67391 0.53379 0.3735 0.0
C2167 C 0.68479 0.53971 0.38997 0.0
C2168 C 0.68919 0.50977 0.36348 0.0
C2169 C 0.71627 0.4916 0.36958 0.0
C2170 C 0.72571 0.49643 0.38649 0.0
C2171 C 0.71018 0.52017 0.39651 0.0
H2172 H 0.79006 0.44009 0.66057 0.0
H2173 H 0.72988 0.43923 0.61597 0.0
H2174 H 0.83408 0.46749 0.64476 0.0
H2175 H 0.77322 0.46663 0.60021 0.0
H2176 H 0.85521 0.51389 0.57263 0.0
H2177 H 0.82736 0.46934 0.58783 0.0
H2178 H 0.83885 0.52308 0.63435 0.0
H2179 H 0.8667 0.56694 0.61919 0.0
C2180 C 0.78681 0.44449 0.64723 0.0
C2181 C 0.75673 0.43716 0.63945 0.0
C2182 C 0.81181 0.46064 0.63819 0.0
C2183 C 0.80728 0.46958 0.62116 0.0
C2184 C 0.778 0.45988 0.61317 0.0
C2185 C 0.75305 0.44411 0.62222 0.0
C2186 C 0.85306 0.51536 0.5862 0.0
C2187 C 0.86346 0.54371 0.59475 0.0
C2188 C 0.83664 0.49009 0.59491 0.0
C2189 C 0.83051 0.49257 0.61237 0.0
C2190 C 0.84335 0.51988 0.62102 0.0
C2191 C 0.85939 0.54513 0.61231 0.0
H2192 H 0.29764 0.40894 0.12014 0.0
H2193 H 0.27232 0.4744 0.16068 0.0
H2194 H 0.25668 0.43557 0.10212 0.0
H2195 H 0.23226 0.50184 0.14276 0.0
H2196 H 0.15797 0.54773 0.10893 0.0
H2197 H 0.18336 0.50566 0.12685 0.0
H2198 H 0.25475 0.48618 0.0878 0.0
H2199 H 0.22874 0.52736 0.07003 0.0
C2200 C 0.28226 0.4281 0.12541 0.0
C2201 C 0.28747 0.43898 0.14196 0.0
C2202 C 0.25919 0.44389 0.11499 0.0
C2203 C 0.24112 0.47128 0.12081 0.0
C2204 C 0.24506 0.48065 0.13777 0.0
C2205 C 0.26799 0.46478 0.14815 0.0
C2206 C 0.17816 0.53331 0.10398 0.0
C2207 C 0.19089 0.54018 0.08794 0.0
C2208 C 0.19316 0.50957 0.11434 0.0
C2209 C 0.22142 0.49235 0.10892 0.0
C2210 C 0.23282 0.4982 0.09244 0.0
C2211 C 0.21785 0.52185 0.08216 0.0
H2212 H 0.36114 0.56792 0.86518 0.0
H2213 H 0.35502 0.50888 0.91009 0.0
H2214 H 0.33411 0.52479 0.84909 0.0
H2215 H 0.32789 0.46512 0.89397 0.0
H2216 H 0.23 0.43433 0.86621 0.0
H2217 H 0.27295 0.46178 0.88224 0.0
H2218 H 0.33159 0.47002 0.83711 0.0
H2219 H 0.28801 0.44248 0.82105 0.0
C2220 C 0.35519 0.54502 0.87145 0.0
C2221 C 0.3606 0.54157 0.88884 0.0
C2222 C 0.33962 0.5202 0.86222 0.0
C2223 C 0.32854 0.49135 0.87017 0.0
C2224 C 0.33586 0.48705 0.88741 0.0
C2225 C 0.35184 0.51188 0.89664 0.0
C2226 C 0.25268 0.4408 0.85987 0.0
C2227 C 0.25586 0.43584 0.84243 0.0
C2228 C 0.27739 0.45662 0.86906 0.0
C2229 C 0.30585 0.4684 0.86102 0.0
C2230 C 0.30994 0.46151 0.84372 0.0
C2231 C 0.28523 0.44529 0.83453 0.0
H2232 H 0.32649 0.52286 0.57348 0.0
H2233 H 0.39144 0.49918 0.61447 0.0
H2234 H 0.2995 0.5643 0.59074 0.0
H2235 H 0.36571 0.54181 0.63173 0.0
H2236 H 0.25253 0.63924 0.62339 0.0
H2237 H 0.29483 0.61342 0.60583 0.0
H2238 H 0.31646 0.54563 0.64629 0.0
H2239 H 0.27537 0.57236 0.66372 0.0
C2240 C 0.33613 0.52786 0.58593 0.0
C2241 C 0.36155 0.50839 0.5925 0.0
C2242 C 0.32055 0.55161 0.59594 0.0
C2243 C 0.33001 0.55651 0.61283 0.0
C2244 C 0.35718 0.53851 0.61894 0.0
C2245 C 0.37248 0.51447 0.60895 0.0
C2246 C 0.2676 0.61989 0.62872 0.0
C2247 C 0.26136 0.60836 0.64506 0.0
C2248 C 0.29142 0.60457 0.61856 0.0
C2249 C 0.30919 0.57704 0.62446 0.0
C2250 C 0.30405 0.56699 0.64124 0.0
C2251 C 0.28046 0.58241 0.65135 0.0
H2252 H 0.21922 0.52413 0.40844 0.0
H2253 H 0.15718 0.49838 0.36661 0.0
H2254 H 0.24705 0.5651 0.39121 0.0
H2255 H 0.18375 0.54049 0.34936 0.0
H2256 H 0.27542 0.57104 0.31848 0.0
H2257 H 0.23394 0.54416 0.33561 0.0
H2258 H 0.25217 0.61378 0.37567 0.0
H2259 H 0.29483 0.63983 0.35841 0.0
C2260 C 0.21038 0.52857 0.39578 0.0
C2261 C 0.18552 0.50867 0.38899 0.0
C2262 C 0.22645 0.55203 0.38579 0.0
C2263 C 0.21808 0.5562 0.36869 0.0
C2264 C 0.19145 0.53776 0.36232 0.0
C2265 C 0.17566 0.51402 0.37229 0.0
C2266 C 0.26955 0.58138 0.33069 0.0
C2267 C 0.28775 0.60798 0.33695 0.0
C2268 C 0.24571 0.56591 0.34062 0.0
C2269 C 0.23943 0.57651 0.35721 0.0
C2270 C 0.25643 0.60452 0.36309 0.0
C2271 C 0.28047 0.61995 0.3531 0.0
H2272 H 0.2478 0.07928 0.27399 0.0
H2273 H 0.1491 0.10007 0.25759 0.0
H2274 H 0.25076 0.03311 0.25449 0.0
H2275 H 0.15204 0.05434 0.23771 0.0
H2276 H 0.14655 0.94927 0.22237 0.0
H2277 H 0.15066 0.99522 0.24204 0.0
H2278 H 0.25084 1.0118 0.22616 0.0
H2279 H 0.24666 0.96534 0.20686 0.0
C2280 C 0.22749 0.07518 0.26542 0.0
C2281 C 0.1985 0.09365 0.26702 0.0
C2282 C 0.22892 0.04831 0.25446 0.0
C2283 C 0.20127 0.03935 0.24491 0.0
C2284 C 0.17345 0.05997 0.24527 0.0
C2285 C 0.17207 0.08684 0.25625 0.0
C2286 C 0.17 0.96153 0.22387 0.0
C2287 C 0.19656 0.95326 0.21344 0.0
C2288 C 0.1721 0.98853 0.23472 0.0
C2289 C 0.20076 1.00791 0.23527 0.0
C2290 C 0.22836 0.99756 0.22603 0.0
C2291 C 0.22623 0.97051 0.21521 0.0
H2292 H 0.25598 0.97092 0.53964 0.0
H2293 H 0.18493 0.92599 0.50641 0.0
H2294 H 0.29489 0.97548 0.51662 0.0
H2295 H 0.22414 0.93186 0.48293 0.0
H2296 H 0.29534 0.97723 0.44388 0.0
H2297 H 0.25643 0.97978 0.46706 0.0
H2298 H 0.32574 0.92932 0.49901 0.0
H2299 H 0.36477 0.92556 0.47537 0.0
C2300 C 0.24841 0.96253 0.52728 0.0
C2301 C 0.21746 0.94767 0.52487 0.0
C2302 C 0.27088 0.96501 0.51417 0.0
C2303 C 0.26277 0.95345 0.49816 0.0
C2304 C 0.23097 0.94078 0.49529 0.0
C2305 C 0.20842 0.93772 0.50861 0.0
C2306 C 0.30263 0.96713 0.45594 0.0
C2307 C 0.33307 0.95098 0.4578 0.0
C2308 C 0.28014 0.96835 0.46912 0.0
C2309 C 0.28781 0.95416 0.48463 0.0
C2310 C 0.31925 0.94027 0.48704 0.0
C2311 C 0.34175 0.93849 0.47364 0.0
H2312 H 0.3985 0.09813 0.72386 0.0
H2313 H 0.29897 0.08054 0.70782 0.0
H2314 H 0.39449 0.05236 0.74368 0.0
H2315 H 0.29486 0.03442 0.72735 0.0
H2316 H 0.29817 0.96781 0.77569 0.0
H2317 H 0.29495 1.01398 0.75615 0.0
H2318 H 0.39348 0.9928 0.73907 0.0
H2319 H 0.39662 0.94697 0.75891 0.0
C2320 C 0.37516 0.08561 0.72527 0.0
C2321 C 0.34877 0.09335 0.71463 0.0
C2322 C 0.37314 0.05873 0.73622 0.0
C2323 C 0.34468 0.03905 0.7367 0.0
C2324 C 0.31717 0.04891 0.72727 0.0
C2325 C 0.31926 0.07576 0.7163 0.0
C2326 C 0.31836 0.97192 0.76705 0.0
C2327 C 0.34734 0.95339 0.76851 0.0
C2328 C 0.31679 0.99878 0.75607 0.0
C2329 C 0.34432 1.00772 0.74642 0.0
C2330 C 0.37216 0.98713 0.7467 0.0
C2331 C 0.37365 0.96024 0.75766 0.0
H2332 H 0.21743 0.04815 0.95682 0.0
H2333 H 0.19729 0.14682 0.97354 0.0
H2334 H 0.26415 0.045 0.97595 0.0
H2335 H 0.24356 0.14368 -0.00693 0.0
H2336 H 0.34874 0.14912 0.00773 0.0
H2337 H 0.30255 0.14501 0.98822 0.0
H2338 H 0.28622 0.04476 0.00412 0.0
H2339 H 0.3329 0.04893 0.02324 0.0
C2340 C 0.2218 0.06839 0.9654 0.0
C2341 C 0.20338 0.09746 0.96398 0.0
C2342 C 0.24898 0.06686 0.97614 0.0
C2343 C 0.25827 0.09447 0.98565 0.0
C2344 C 0.23767 0.12232 0.98552 0.0
C2345 C 0.21051 0.1238 0.97475 0.0
C2346 C 0.33651 0.12563 0.00625 0.0
C2347 C 0.34483 0.09909 0.01668 0.0
C2348 C 0.30936 0.12355 -0.0045 0.0
C2349 C 0.28996 0.09489 -0.00495 0.0
C2350 C 0.30046 0.06724 0.00419 0.0
C2351 C 0.32765 0.06936 0.01491 0.0
H2352 H 0.80343 0.95484 0.71765 0.0
H2353 H 0.90893 0.95337 0.71466 0.0
H2354 H 0.80604 0.99868 0.73845 0.0
H2355 H 0.91223 0.99939 0.73327 0.0
H2356 H 0.91438 0.07602 0.77335 0.0
H2357 H 0.91248 0.02936 0.75519 0.0
H2358 H 0.81083 0.05181 0.74321 0.0
H2359 H 0.81236 0.09643 0.7637 0.0
C2360 C 0.82725 0.96309 0.72203 0.0
C2361 C 0.856 0.95019 0.71493 0.0
C2362 C 0.8289 0.98933 0.73346 0.0
C2363 C 0.85932 1.00424 0.73742 0.0
C2364 C 0.88811 0.98922 0.73112 0.0
C2365 C 0.88641 0.96214 0.72042 0.0
C2366 C 0.89196 0.07162 0.76632 0.0
C2367 C 0.86363 0.08997 0.76981 0.0
C2368 C 0.89063 0.04434 0.7558 0.0
C2369 C 0.86119 0.0354 0.74764 0.0
C2370 C 0.83371 0.05643 0.74969 0.0
C2371 C 0.83473 0.08302 0.76096 0.0
H2372 H 0.71399 0.05147 0.52306 0.0
H2373 H 0.69834 0.15191 0.50795 0.0
H2374 H 0.76131 0.0478 0.50435 0.0
H2375 H 0.74507 0.14826 0.48874 0.0
H2376 H 0.85014 0.15081 0.47409 0.0
H2377 H 0.80352 0.14749 0.49337 0.0
H2378 H 0.78496 0.04802 0.47685 0.0
H2379 H 0.83218 0.05133 0.45806 0.0
C2380 C 0.71943 0.07208 0.51487 0.0
C2381 C 0.70206 0.10172 0.51666 0.0
C2382 C 0.747 0.07024 0.50439 0.0
C2383 C 0.75772 0.09807 0.49543 0.0
C2384 C 0.73816 0.12665 0.49588 0.0
C2385 C 0.71069 0.12848 0.50644 0.0
C2386 C 0.83731 0.12761 0.4754 0.0
C2387 C 0.84522 0.10107 0.4649 0.0
C2388 C 0.80989 0.126 0.48602 0.0
C2389 C 0.78971 0.09786 0.48623 0.0
C2390 C 0.79976 0.07013 0.477 0.0
C2391 C 0.82726 0.07175 0.46646 0.0
H2392 H 0.74926 0.96345 0.27261 0.0
H2393 H 0.64858 0.94873 0.25776 0.0
H2394 H 0.75333 1.0104 0.25364 0.0
H2395 H 0.65259 0.99514 0.23838 0.0
H2396 H 0.65083 0.10038 0.22411 0.0
H2397 H 0.65437 0.05394 0.2435 0.0
H2398 H 0.75254 0.03331 0.22567 0.0
H2399 H 0.74901 0.08027 0.20669 0.0
C2400 C 0.72867 0.96897 0.26443 0.0
C2401 C 0.69883 0.95207 0.26637 0.0
C2402 C 0.73074 0.99634 0.25381 0.0
C2403 C 0.70294 1.00725 0.24492 0.0
C2404 C 0.67417 0.98804 0.24548 0.0
C2405 C 0.67213 0.96075 0.25614 0.0
C2406 C 0.67386 0.08714 0.22514 0.0
C2407 C 0.69991 0.09431 0.21419 0.0
C2408 C 0.67556 0.05986 0.23583 0.0
C2409 C 0.70332 0.03916 0.23569 0.0
C2410 C 0.73073 0.04854 0.22605 0.0
C2411 C 0.729 0.07588 0.21541 0.0
H2412 H 0.85139 0.90147 0.00783 0.0
H2413 H 0.8281 0.99969 0.02416 0.0
H2414 H 0.80559 0.9032 0.98795 0.0
H2415 H 0.78179 1.00137 0.00477 0.0
H2416 H 0.71311 0.9961 0.95782 0.0
H2417 H 0.75976 1.0012 0.97689 0.0
H2418 H 0.74684 0.89998 -0.008 0.0
H2419 H 0.70076 0.89495 0.97248 0.0
C2420 C 0.83757 0.9241 0.00648 0.0
C2421 C 0.84369 0.95071 0.01725 0.0
C2422 C 0.81065 0.92477 -0.00449 0.0
C2423 C 0.78927 0.95203 -0.00482 0.0
C2424 C 0.79756 0.97993 0.0047 0.0
C2425 C 0.82451 0.97924 0.01561 0.0
C2426 C 0.71911 0.97558 0.96596 0.0
C2427 C 0.70285 0.94539 0.96399 0.0
C2428 C 0.7463 0.97825 0.97665 0.0
C2429 C 0.75776 0.9507 0.9856 0.0
C2430 C 0.73934 0.92142 0.98489 0.0
C2431 C 0.71223 0.91878 0.97414 0.0
H2432 H 0.64845 0.59875 0.75725 0.0
H2433 H 0.74881 0.58373 0.77259 0.0
H2434 H 0.65278 0.55246 0.7378 0.0
H2435 H 0.75321 0.53694 0.75353 0.0
H2436 H 0.75015 0.46773 0.70637 0.0
H2437 H 0.75303 0.51456 0.72545 0.0
H2438 H 0.65451 0.49352 0.7426 0.0
H2439 H 0.65165 0.44713 0.72313 0.0
C2440 C 0.67202 0.58668 0.75574 0.0
C2441 C 0.69854 0.59529 0.76611 0.0
C2442 C 0.67423 0.55947 0.74503 0.0
C2443 C 0.70301 0.54024 0.74454 0.0
C2444 C 0.73063 0.55102 0.75363 0.0
C2445 C 0.72837 0.57829 0.7643 0.0
C2446 C 0.72989 0.47202 0.71495 0.0
C2447 C 0.70096 0.45341 0.71355 0.0
C2448 C 0.73126 0.49928 0.72566 0.0
C2449 C 0.70362 0.50848 0.73517 0.0
C2450 C 0.6759 0.48772 0.73506 0.0
C2451 C 0.67458 0.46047 0.72431 0.0
H2452 H 0.851 0.40043 0.97383 0.0
H2453 H 0.83441 0.50044 0.95821 0.0
H2454 H 0.80489 0.40435 -0.0066 0.0
H2455 H 0.78779 0.5044 0.97737 0.0
H2456 H 0.71872 0.50118 0.02442 0.0
H2457 H 0.76554 0.50432 0.00536 0.0
H2458 H 0.74595 0.40511 0.98875 0.0
H2459 H 0.6996 0.40198 0.00824 0.0
C2460 C 0.83864 0.42386 0.97531 0.0
C2461 C 0.8467 0.45038 0.96481 0.0
C2462 C 0.81152 0.42582 0.98609 0.0
C2463 C 0.79189 0.45433 0.98651 0.0
C2464 C 0.80219 0.48201 0.97732 0.0
C2465 C 0.82936 0.48002 0.96659 0.0
C2466 C 0.72334 0.48078 0.01597 0.0
C2467 C 0.70516 0.4516 0.01753 0.0
C2468 C 0.75058 0.48232 0.00527 0.0
C2469 C 0.76018 0.45461 -0.00408 0.0
C2470 C 0.73985 0.42658 -0.00382 0.0
C2471 C 0.71262 0.42507 0.00693 0.0
H2472 H 0.89803 0.45043 0.25773 0.0
H2473 H 0.79715 0.46444 0.27244 0.0
H2474 H 0.89382 0.4969 0.23838 0.0
H2475 H 0.79287 0.51142 0.25351 0.0
H2476 H 0.79631 0.58094 0.20656 0.0
H2477 H 0.79342 0.5341 0.22562 0.0
H2478 H 0.89154 0.55573 0.24317 0.0
H2479 H 0.89446 0.60209 0.22366 0.0
C2480 C 0.8744 0.46232 0.25609 0.0
C2481 C 0.84768 0.45338 0.26626 0.0
C2482 C 0.87224 0.48964 0.24545 0.0
C2483 C 0.84332 0.50864 0.24484 0.0
C2484 C 0.81556 0.49753 0.2537 0.0
C2485 C 0.81776 0.47015 0.2643 0.0
C2486 C 0.81646 0.57678 0.21522 0.0
C2487 C 0.84535 0.59549 0.21389 0.0
C2488 C 0.81509 0.54952 0.22592 0.0
C2489 C 0.84265 0.54046 0.23552 0.0
C2490 C 0.87023 0.5614 0.23553 0.0
C2491 C 0.87158 0.58864 0.22478 0.0
H2492 H 0.68186 0.6266 0.47676 0.0
H2493 H 0.74608 0.56719 0.44597 0.0
H2494 H 0.72185 0.62276 0.50002 0.0
H2495 H 0.78614 0.56478 0.46868 0.0
H2496 H 0.86121 0.62233 0.50626 0.0
H2497 H 0.8207 0.61684 0.48329 0.0
H2498 H 0.75206 0.57202 0.5177 0.0
H2499 H 0.7923 0.57587 0.54015 0.0
C2500 C 0.70386 0.61193 0.47516 0.0
C2501 C 0.71086 0.59718 0.45961 0.0
C2502 C 0.72694 0.61018 0.48829 0.0
C2503 C 0.75734 0.59417 0.48585 0.0
C2504 C 0.76324 0.57779 0.47071 0.0
C2505 C 0.74008 0.57889 0.45784 0.0
C2506 C 0.83793 0.61036 0.50871 0.0
C2507 C 0.82987 0.59983 0.52502 0.0
C2508 C 0.81464 0.60759 0.4957 0.0
C2509 C 0.78308 0.59473 0.49897 0.0
C2510 C 0.77591 0.58261 0.51499 0.0
C2511 C 0.79914 0.5847 0.52776 0.0
H2512 H 0.40046 0.60124 0.2569 0.0
H2513 H 0.29998 0.58591 0.27196 0.0
H2514 H 0.39651 0.55498 0.23743 0.0
H2515 H 0.296 0.53907 0.25295 0.0
H2516 H 0.29965 0.4689 0.20634 0.0
H2517 H 0.2964 0.51603 0.22519 0.0
H2518 H 0.39528 0.49629 0.24225 0.0
H2519 H 0.39855 0.44971 0.22293 0.0
C2520 C 0.37695 0.58913 0.25531 0.0
C2521 C 0.35031 0.59758 0.26563 0.0
C2522 C 0.37495 0.5619 0.2446 0.0
C2523 C 0.34628 0.54253 0.24409 0.0
C2524 C 0.31851 0.55325 0.25307 0.0
C2525 C 0.32053 0.58055 0.26371 0.0
C2526 C 0.31993 0.47356 0.21485 0.0
C2527 C 0.34909 0.4553 0.21345 0.0
C2528 C 0.31835 0.50099 0.22543 0.0
C2529 C 0.34597 0.51065 0.23483 0.0
C2530 C 0.37391 0.49018 0.23476 0.0
C2531 C 0.37547 0.46282 0.22412 0.0
H2532 H 0.34872 0.64844 0.97193 0.0
H2533 H 0.32884 0.54957 0.95547 0.0
H2534 H 0.30258 0.64532 -0.00843 0.0
H2535 H 0.28229 0.5464 0.97475 0.0
H2536 H 0.21452 0.55047 0.02255 0.0
H2537 H 0.26087 0.54635 0.00318 0.0
H2538 H 0.24342 0.64619 0.98695 0.0
H2539 H 0.19753 0.65024 0.00666 0.0
C2540 C 0.33556 0.62541 0.9732 0.0
C2541 C 0.3428 0.59896 0.96251 0.0
C2542 C 0.30849 0.62392 0.98405 0.0
C2543 C 0.28806 0.59596 0.98433 0.0
C2544 C 0.29735 0.56834 0.97483 0.0
C2545 C 0.32442 0.56989 0.964 0.0
C2546 C 0.21943 0.5708 0.01409 0.0
C2547 C 0.20198 0.6004 0.0158 0.0
C2548 C 0.24644 0.56871 0.00324 0.0
C2549 C 0.25654 0.59628 -0.0061 0.0
C2550 C 0.23691 0.62479 -0.00565 0.0
C2551 C 0.20993 0.62683 0.00522 0.0
H2552 H 0.1482 0.6006 0.72521 0.0
H2553 H 0.24882 0.58428 0.71066 0.0
H2554 H 0.1515 0.55455 0.74487 0.0
H2555 H 0.25215 0.5377 0.72986 0.0
H2556 H 0.24753 0.46781 0.77647 0.0
H2557 H 0.25115 0.51505 0.75768 0.0
H2558 H 0.15243 0.49576 0.74028 0.0
H2559 H 0.1488 0.44903 0.75952 0.0
C2560 C 0.1716 0.58833 0.72695 0.0
C2561 C 0.19848 0.59643 0.71671 0.0
C2562 C 0.17322 0.56123 0.73778 0.0
C2563 C 0.20175 0.54166 0.7385 0.0
C2564 C 0.22975 0.55204 0.7296 0.0
C2565 C 0.2281 0.57921 0.71883 0.0
C2566 C 0.22735 0.47263 0.76791 0.0
C2567 C 0.19817 0.45437 0.76914 0.0
C2568 C 0.22915 0.5001 0.75737 0.0
C2569 C 0.20171 0.50987 0.74785 0.0
C2570 C 0.17368 0.48954 0.74784 0.0
C2571 C 0.1719 0.46211 0.75844 0.0
H2572 H 0.18297 0.42449 0.47588 0.0
H2573 H 0.25056 0.47749 0.44391 0.0
H2574 H 0.22274 0.42873 0.49922 0.0
H2575 H 0.29025 0.48029 0.46673 0.0
H2576 H 0.36232 0.42431 0.50596 0.0
H2577 H 0.3225 0.42955 0.48268 0.0
H2578 H 0.25452 0.47864 0.51592 0.0
H2579 H 0.29418 0.4749 0.53867 0.0
C2580 C 0.20574 0.43777 0.47399 0.0
C2581 C 0.21373 0.45053 0.45811 0.0
C2582 C 0.22864 0.43979 0.48719 0.0
C2583 C 0.25978 0.45412 0.4845 0.0
C2584 C 0.26675 0.46855 0.46897 0.0
C2585 C 0.24384 0.46717 0.45601 0.0
C2586 C 0.33939 0.43719 0.50806 0.0
C2587 C 0.33128 0.44897 0.52412 0.0
C2588 C 0.31648 0.43982 0.49488 0.0
C2589 C 0.28523 0.45379 0.49776 0.0
C2590 C 0.2781 0.46719 0.51351 0.0
C2591 C 0.301 0.46521 0.52645 0.0
loop_
_geom_bond_atom_site_label_1
_geom_bond_atom_site_label_2
_geom_bond_distance
_geom_bond_site_symmetry_2
_ccdc_geom_bond_type
O0 Mn1 2.163 . S
O0 C14 1.244 . S
Mn1 O0 2.163 . S
Mn1 O4 2.160 . S
Mn1 O5 2.221 . S
Mn1 O7 2.163 . S
Mn1 O9 2.160 . S
Mn1 O19 2.221 . S
O2 Mn3 2.087 . S
O2 C14 1.256 . S
Mn3 O2 2.087 . S
Mn3 O10 2.089 . S
Mn3 O19 2.290 . S
Mn3 O20 2.251 . S
O4 Mn1 2.160 . S
O4 C15 1.239 . S
O5 Mn1 2.221 . S
O5 Mn6 2.290 . S
O5 C16 1.278 . S
Mn6 O5 2.290 . S
Mn6 O8 2.089 . S
Mn6 O11 2.251 . S
Mn6 O12 2.087 . S
O7 Mn1 2.163 . S
O7 C17 1.244 . S
O8 Mn6 2.089 . S
O8 C15 1.256 . S
O9 Mn1 2.160 . S
O9 C18 1.239 . S
O10 Mn3 2.089 . S
O10 C18 1.256 . S
O11 Mn6 2.251 . S
O11 C16 1.241 . S
O12 Mn6 2.087 . S
O12 C17 1.256 . S
C13 O19 1.278 . S
C13 O20 1.241 . S
C14 O0 1.244 . S
C14 O2 1.256 . S
C15 O4 1.239 . S
C15 O8 1.256 . S
C16 O5 1.278 . S
C16 O11 1.241 . S
C17 O7 1.244 . S
C17 O12 1.256 . S
C18 O9 1.239 . S
C18 O10 1.256 . S
O19 Mn1 2.221 . S
O19 Mn3 2.290 . S
O19 C13 1.278 . S
O20 Mn3 2.251 . S
O20 C13 1.241 . S
O21 Mn22 2.163 . S
O21 C35 1.244 . S
Mn22 O21 2.163 . S
Mn22 O25 2.160 . S
Mn22 O26 2.221 . S
Mn22 O28 2.163 . S
Mn22 O30 2.160 . S
Mn22 O40 2.221 . S
O23 Mn24 2.087 . S
O23 C35 1.256 . S
Mn24 O23 2.087 . S
Mn24 O31 2.089 . S
Mn24 O40 2.290 . S
Mn24 O41 2.251 . S
O25 Mn22 2.160 . S
O25 C36 1.239 . S
O26 Mn22 2.221 . S
O26 Mn27 2.290 . S
O26 C37 1.278 . S
Mn27 O26 2.290 . S
Mn27 O29 2.089 . S
Mn27 O32 2.251 . S
Mn27 O33 2.087 . S
O28 Mn22 2.163 . S
O28 C38 1.244 . S
O29 Mn27 2.089 . S
O29 C36 1.256 . S
O30 Mn22 2.160 . S
O30 C39 1.239 . S
O31 Mn24 2.089 . S
O31 C39 1.256 . S
O32 Mn27 2.251 . S
O32 C37 1.241 . S
O33 Mn27 2.087 . S
O33 C38 1.256 . S
C34 O40 1.278 . S
C34 O41 1.241 . S
C35 O21 1.244 . S
C35 O23 1.256 . S
C36 O25 1.239 . S
C36 O29 1.256 . S
C37 O26 1.278 . S
C37 O32 1.241 . S
C38 O28 1.244 . S
C38 O33 1.256 . S
C39 O30 1.239 . S
C39 O31 1.256 . S
O40 Mn22 2.221 . S
O40 Mn24 2.290 . S
O40 C34 1.278 . S
O41 Mn24 2.251 . S
O41 C34 1.241 . S
O42 Mn43 2.163 . S
O42 C56 1.244 . S
Mn43 O42 2.163 . S
Mn43 O46 2.160 . S
Mn43 O47 2.221 . S
Mn43 O49 2.163 . S
Mn43 O51 2.160 . S
Mn43 O61 2.221 . S
O44 Mn45 2.087 . S
O44 C56 1.256 . S
Mn45 O44 2.087 . S
Mn45 O52 2.089 . S
Mn45 O61 2.290 . S
Mn45 O62 2.251 . S
O46 Mn43 2.160 . S
O46 C57 1.239 . S
O47 Mn43 2.221 . S
O47 Mn48 2.290 . S
O47 C58 1.278 . S
Mn48 O47 2.290 . S
Mn48 O50 2.089 . S
Mn48 O53 2.251 . S
Mn48 O54 2.087 . S
O49 Mn43 2.163 . S
O49 C59 1.244 . S
O50 Mn48 2.089 . S
O50 C57 1.256 . S
O51 Mn43 2.160 . S
O51 C60 1.239 . S
O52 Mn45 2.089 . S
O52 C60 1.256 . S
O53 Mn48 2.251 . S
O53 C58 1.241 . S
O54 Mn48 2.087 . S
O54 C59 1.256 . S
C55 O61 1.278 . S
C55 O62 1.241 . S
C56 O42 1.244 . S
C56 O44 1.256 . S
C57 O46 1.239 . S
C57 O50 1.256 . S
C58 O47 1.278 . S
C58 O53 1.241 . S
C59 O49 1.244 . S
C59 O54 1.256 . S
C60 O51 1.239 . S
C60 O52 1.256 . S
O61 Mn43 2.221 . S
O61 Mn45 2.290 . S
O61 C55 1.278 . S
O62 Mn45 2.251 . S
O62 C55 1.241 . S
O63 Mn64 2.163 . S
O63 C77 1.244 . S
Mn64 O63 2.163 . S
Mn64 O67 2.160 . S
Mn64 O68 2.221 . S
Mn64 O70 2.163 . S
Mn64 O72 2.160 . S
Mn64 O82 2.221 . S
O65 Mn66 2.087 . S
O65 C77 1.256 . S
Mn66 O65 2.087 . S
Mn66 O73 2.089 . S
Mn66 O82 2.290 . S
Mn66 O83 2.251 . S
O67 Mn64 2.160 . S
O67 C78 1.239 . S
O68 Mn64 2.221 . S
O68 Mn69 2.290 . S
O68 C79 1.278 . S
Mn69 O68 2.290 . S
Mn69 O71 2.089 . S
Mn69 O74 2.251 . S
Mn69 O75 2.087 . S
O70 Mn64 2.163 . S
O70 C80 1.244 . S
O71 Mn69 2.089 . S
O71 C78 1.256 . S
O72 Mn64 2.160 . S
O72 C81 1.239 . S
O73 Mn66 2.089 . S
O73 C81 1.256 . S
O74 Mn69 2.251 . S
O74 C79 1.241 . S
O75 Mn69 2.087 . S
O75 C80 1.256 . S
C76 O82 1.278 . S
C76 O83 1.241 . S
C77 O63 1.244 . S
C77 O65 1.256 . S
C78 O67 1.239 . S
C78 O71 1.256 . S
C79 O68 1.278 . S
C79 O74 1.241 . S
C80 O70 1.244 . S
C80 O75 1.256 . S
C81 O72 1.239 . S
C81 O73 1.256 . S
O82 Mn64 2.221 . S
O82 Mn66 2.290 . S
O82 C76 1.278 . S
O83 Mn66 2.251 . S
O83 C76 1.241 . S
O84 Mn85 2.163 . S
O84 C98 1.244 . S
Mn85 O84 2.163 . S
Mn85 O88 2.160 . S
Mn85 O89 2.221 . S
Mn85 O91 2.163 . S
Mn85 O93 2.160 . S
Mn85 O103 2.221 . S
O86 Mn87 2.087 . S
O86 C98 1.256 . S
Mn87 O86 2.087 . S
Mn87 O94 2.089 . S
Mn87 O103 2.290 . S
Mn87 O104 2.251 . S
O88 Mn85 2.160 . S
O88 C99 1.239 . S
O89 Mn85 2.221 . S
O89 Mn90 2.290 . S
O89 C100 1.278 . S
Mn90 O89 2.290 . S
Mn90 O92 2.089 . S
Mn90 O95 2.251 . S
Mn90 O96 2.087 . S
O91 Mn85 2.163 . S
O91 C101 1.244 . S
O92 Mn90 2.089 . S
O92 C99 1.256 . S
O93 Mn85 2.160 . S
O93 C102 1.239 . S
O94 Mn87 2.089 . S
O94 C102 1.256 . S
O95 Mn90 2.251 . S
O95 C100 1.241 . S
O96 Mn90 2.087 . S
O96 C101 1.256 . S
C97 O103 1.278 . S
C97 O104 1.241 . S
C98 O84 1.244 . S
C98 O86 1.256 . S
C99 O88 1.239 . S
C99 O92 1.256 . S
C100 O89 1.278 . S
C100 O95 1.241 . S
C101 O91 1.244 . S
C101 O96 1.256 . S
C102 O93 1.239 . S
C102 O94 1.256 . S
O103 Mn85 2.221 . S
O103 Mn87 2.290 . S
O103 C97 1.278 . S
O104 Mn87 2.251 . S
O104 C97 1.241 . S
O105 Mn106 2.163 . S
O105 C119 1.244 . S
Mn106 O105 2.163 . S
Mn106 O109 2.160 . S
Mn106 O110 2.221 . S
Mn106 O112 2.163 . S
Mn106 O114 2.160 . S
Mn106 O124 2.221 . S
O107 Mn108 2.087 . S
O107 C119 1.256 . S
Mn108 O107 2.087 . S
Mn108 O115 2.089 . S
Mn108 O124 2.290 . S
Mn108 O125 2.251 . S
O109 Mn106 2.160 . S
O109 C120 1.239 . S
O110 Mn106 2.221 . S
O110 Mn111 2.290 . S
O110 C121 1.278 . S
Mn111 O110 2.290 . S
Mn111 O113 2.089 . S
Mn111 O116 2.251 . S
Mn111 O117 2.087 . S
O112 Mn106 2.163 . S
O112 C122 1.244 . S
O113 Mn111 2.089 . S
O113 C120 1.256 . S
O114 Mn106 2.160 . S
O114 C123 1.239 . S
O115 Mn108 2.089 . S
O115 C123 1.256 . S
O116 Mn111 2.251 . S
O116 C121 1.241 . S
O117 Mn111 2.087 . S
O117 C122 1.256 . S
C118 O124 1.278 . S
C118 O125 1.241 . S
C119 O105 1.244 . S
C119 O107 1.256 . S
C120 O109 1.239 . S
C120 O113 1.256 . S
C121 O110 1.278 . S
C121 O116 1.241 . S
C122 O112 1.244 . S
C122 O117 1.256 . S
C123 O114 1.239 . S
C123 O115 1.256 . S
O124 Mn106 2.221 . S
O124 Mn108 2.290 . S
O124 C118 1.278 . S
O125 Mn108 2.251 . S
O125 C118 1.241 . S
O126 Mn127 2.163 . S
O126 C140 1.244 . S
Mn127 O126 2.163 . S
Mn127 O130 2.160 . S
Mn127 O131 2.221 . S
Mn127 O133 2.163 . S
Mn127 O135 2.160 . S
Mn127 O145 2.221 . S
O128 Mn129 2.087 . S
O128 C140 1.256 . S
Mn129 O128 2.087 . S
Mn129 O136 2.089 . S
Mn129 O145 2.290 . S
Mn129 O146 2.251 . S
O130 Mn127 2.160 . S
O130 C141 1.239 . S
O131 Mn127 2.221 . S
O131 Mn132 2.290 . S
O131 C142 1.278 . S
Mn132 O131 2.290 . S
Mn132 O134 2.089 . S
Mn132 O137 2.251 . S
Mn132 O138 2.087 . S
O133 Mn127 2.163 . S
O133 C143 1.244 . S
O134 Mn132 2.089 . S
O134 C141 1.256 . S
O135 Mn127 2.160 . S
O135 C144 1.239 . S
O136 Mn129 2.089 . S
O136 C144 1.256 . S
O137 Mn132 2.251 . S
O137 C142 1.241 . S
O138 Mn132 2.087 . S
O138 C143 1.256 . S
C139 O145 1.278 . S
C139 O146 1.241 . S
C140 O126 1.244 . S
C140 O128 1.256 . S
C141 O130 1.239 . S
C141 O134 1.256 . S
C142 O131 1.278 . S
C142 O137 1.241 . S
C143 O133 1.244 . S
C143 O138 1.256 . S
C144 O135 1.239 . S
C144 O136 1.256 . S
O145 Mn127 2.221 . S
O145 Mn129 2.290 . S
O145 C139 1.278 . S
O146 Mn129 2.251 . S
O146 C139 1.241 . S
O147 Mn148 2.163 . S
O147 C161 1.244 . S
Mn148 O147 2.163 . S
Mn148 O151 2.160 . S
Mn148 O152 2.221 . S
Mn148 O154 2.163 . S
Mn148 O156 2.160 . S
Mn148 O166 2.221 . S
O149 Mn150 2.087 . S
O149 C161 1.256 . S
Mn150 O149 2.087 . S
Mn150 O157 2.089 . S
Mn150 O166 2.290 . S
Mn150 O167 2.251 . S
O151 Mn148 2.160 . S
O151 C162 1.239 . S
O152 Mn148 2.221 . S
O152 Mn153 2.290 . S
O152 C163 1.278 . S
Mn153 O152 2.290 . S
Mn153 O155 2.089 . S
Mn153 O158 2.251 . S
Mn153 O159 2.087 . S
O154 Mn148 2.163 . S
O154 C164 1.244 . S
O155 Mn153 2.089 . S
O155 C162 1.256 . S
O156 Mn148 2.160 . S
O156 C165 1.239 . S
O157 Mn150 2.089 . S
O157 C165 1.256 . S
O158 Mn153 2.251 . S
O158 C163 1.241 . S
O159 Mn153 2.087 . S
O159 C164 1.256 . S
C160 O166 1.278 . S
C160 O167 1.241 . S
C161 O147 1.244 . S
C161 O149 1.256 . S
C162 O151 1.239 . S
C162 O155 1.256 . S
C163 O152 1.278 . S
C163 O158 1.241 . S
C164 O154 1.244 . S
C164 O159 1.256 . S
C165 O156 1.239 . S
C165 O157 1.256 . S
O166 Mn148 2.221 . S
O166 Mn150 2.290 . S
O166 C160 1.278 . S
O167 Mn150 2.251 . S
O167 C160 1.241 . S
O168 Mn169 2.163 . S
O168 C182 1.244 . S
Mn169 O168 2.163 . S
Mn169 O172 2.160 . S
Mn169 O173 2.221 . S
Mn169 O175 2.163 . S
Mn169 O177 2.160 . S
Mn169 O187 2.221 . S
O170 Mn171 2.087 . S
O170 C182 1.256 . S
Mn171 O170 2.087 . S
Mn171 O178 2.089 . S
Mn171 O187 2.290 . S
Mn171 O188 2.251 . S
O172 Mn169 2.160 . S
O172 C183 1.239 . S
O173 Mn169 2.221 . S
O173 Mn174 2.290 . S
O173 C184 1.278 . S
Mn174 O173 2.290 . S
Mn174 O176 2.089 . S
Mn174 O179 2.251 . S
Mn174 O180 2.087 . S
O175 Mn169 2.163 . S
O175 C185 1.244 . S
O176 Mn174 2.089 . S
O176 C183 1.256 . S
O177 Mn169 2.160 . S
O177 C186 1.239 . S
O178 Mn171 2.089 . S
O178 C186 1.256 . S
O179 Mn174 2.251 . S
O179 C184 1.241 . S
O180 Mn174 2.087 . S
O180 C185 1.256 . S
C181 O187 1.278 . S
C181 O188 1.241 . S
C182 O168 1.244 . S
C182 O170 1.256 . S
C183 O172 1.239 . S
C183 O176 1.256 . S
C184 O173 1.278 . S
C184 O179 1.241 . S
C185 O175 1.244 . S
C185 O180 1.256 . S
C186 O177 1.239 . S
C186 O178 1.256 . S
O187 Mn169 2.221 . S
O187 Mn171 2.290 . S
O187 C181 1.278 . S
O188 Mn171 2.251 . S
O188 C181 1.241 . S
O189 Mn190 2.163 . S
O189 C203 1.244 . S
Mn190 O189 2.163 . S
Mn190 O193 2.160 . S
Mn190 O194 2.221 . S
Mn190 O196 2.163 . S
Mn190 O198 2.160 . S
Mn190 O208 2.221 . S
O191 Mn192 2.087 . S
O191 C203 1.256 . S
Mn192 O191 2.087 . S
Mn192 O199 2.089 . S
Mn192 O208 2.290 . S
Mn192 O209 2.251 . S
O193 Mn190 2.160 . S
O193 C204 1.239 . S
O194 Mn190 2.221 . S
O194 Mn195 2.290 . S
O194 C205 1.278 . S
Mn195 O194 2.290 . S
Mn195 O197 2.089 . S
Mn195 O200 2.251 . S
Mn195 O201 2.087 . S
O196 Mn190 2.163 . S
O196 C206 1.244 . S
O197 Mn195 2.089 . S
O197 C204 1.256 . S
O198 Mn190 2.160 . S
O198 C207 1.239 . S
O199 Mn192 2.089 . S
O199 C207 1.256 . S
O200 Mn195 2.251 . S
O200 C205 1.241 . S
O201 Mn195 2.087 . S
O201 C206 1.256 . S
C202 O208 1.278 . S
C202 O209 1.241 . S
C203 O189 1.244 . S
C203 O191 1.256 . S
C204 O193 1.239 . S
C204 O197 1.256 . S
C205 O194 1.278 . S
C205 O200 1.241 . S
C206 O196 1.244 . S
C206 O201 1.256 . S
C207 O198 1.239 . S
C207 O199 1.256 . S
O208 Mn190 2.221 . S
O208 Mn192 2.290 . S
O208 C202 1.278 . S
O209 Mn192 2.251 . S
O209 C202 1.241 . S
O210 Mn211 2.163 . S
O210 C224 1.244 . S
Mn211 O210 2.163 . S
Mn211 O214 2.160 . S
Mn211 O215 2.221 . S
Mn211 O217 2.163 . S
Mn211 O219 2.160 . S
Mn211 O229 2.221 . S
O212 Mn213 2.087 . S
O212 C224 1.256 . S
Mn213 O212 2.087 . S
Mn213 O220 2.089 . S
Mn213 O229 2.290 . S
Mn213 O230 2.251 . S
O214 Mn211 2.160 . S
O214 C225 1.239 . S
O215 Mn211 2.221 . S
O215 Mn216 2.290 . S
O215 C226 1.278 . S
Mn216 O215 2.290 . S
Mn216 O218 2.089 . S
Mn216 O221 2.251 . S
Mn216 O222 2.087 . S
O217 Mn211 2.163 . S
O217 C227 1.244 . S
O218 Mn216 2.089 . S
O218 C225 1.256 . S
O219 Mn211 2.160 . S
O219 C228 1.239 . S
O220 Mn213 2.089 . S
O220 C228 1.256 . S
O221 Mn216 2.251 . S
O221 C226 1.241 . S
O222 Mn216 2.087 . S
O222 C227 1.256 . S
C223 O229 1.278 . S
C223 O230 1.241 . S
C224 O210 1.244 . S
C224 O212 1.256 . S
C225 O214 1.239 . S
C225 O218 1.256 . S
C226 O215 1.278 . S
C226 O221 1.241 . S
C227 O217 1.244 . S
C227 O222 1.256 . S
C228 O219 1.239 . S
C228 O220 1.256 . S
O229 Mn211 2.221 . S
O229 Mn213 2.290 . S
O229 C223 1.278 . S
O230 Mn213 2.251 . S
O230 C223 1.241 . S
O231 Mn232 2.163 . S
O231 C245 1.244 . S
Mn232 O231 2.163 . S
Mn232 O235 2.160 . S
Mn232 O236 2.221 . S
Mn232 O238 2.163 . S
Mn232 O240 2.160 . S
Mn232 O250 2.221 . S
O233 Mn234 2.087 . S
O233 C245 1.256 . S
Mn234 O233 2.087 . S
Mn234 O241 2.089 . S
Mn234 O250 2.290 . S
Mn234 O251 2.251 . S
O235 Mn232 2.160 . S
O235 C246 1.239 . S
O236 Mn232 2.221 . S
O236 Mn237 2.290 . S
O236 C247 1.278 . S
Mn237 O236 2.290 . S
Mn237 O239 2.089 . S
Mn237 O242 2.251 . S
Mn237 O243 2.087 . S
O238 Mn232 2.163 . S
O238 C248 1.244 . S
O239 Mn237 2.089 . S
O239 C246 1.256 . S
O240 Mn232 2.160 . S
O240 C249 1.239 . S
O241 Mn234 2.089 . S
O241 C249 1.256 . S
O242 Mn237 2.251 . S
O242 C247 1.241 . S
O243 Mn237 2.087 . S
O243 C248 1.256 . S
C244 O250 1.278 . S
C244 O251 1.241 . S
C245 O231 1.244 . S
C245 O233 1.256 . S
C246 O235 1.239 . S
C246 O239 1.256 . S
C247 O236 1.278 . S
C247 O242 1.241 . S
C248 O238 1.244 . S
C248 O243 1.256 . S
C249 O240 1.239 . S
C249 O241 1.256 . S
O250 Mn232 2.221 . S
O250 Mn234 2.290 . S
O250 C244 1.278 . S
O251 Mn234 2.251 . S
O251 C244 1.241 . S
O252 Mn253 2.163 . S
O252 C266 1.244 . S
Mn253 O252 2.163 . S
Mn253 O256 2.160 . S
Mn253 O257 2.221 . S
Mn253 O259 2.163 . S
Mn253 O261 2.160 . S
Mn253 O271 2.221 . S
O254 Mn255 2.087 . S
O254 C266 1.256 . S
Mn255 O254 2.087 . S
Mn255 O262 2.089 . S
Mn255 O271 2.290 . S
Mn255 O272 2.251 . S
O256 Mn253 2.160 . S
O256 C267 1.239 . S
O257 Mn253 2.221 . S
O257 Mn258 2.290 . S
O257 C268 1.278 . S
Mn258 O257 2.290 . S
Mn258 O260 2.089 . S
Mn258 O263 2.251 . S
Mn258 O264 2.087 . S
O259 Mn253 2.163 . S
O259 C269 1.244 . S
O260 Mn258 2.089 . S
O260 C267 1.256 . S
O261 Mn253 2.160 . S
O261 C270 1.239 . S
O262 Mn255 2.089 . S
O262 C270 1.256 . S
O263 Mn258 2.251 . S
O263 C268 1.241 . S
O264 Mn258 2.087 . S
O264 C269 1.256 . S
C265 O271 1.278 . S
C265 O272 1.241 . S
C266 O252 1.244 . S
C266 O254 1.256 . S
C267 O256 1.239 . S
C267 O260 1.256 . S
C268 O257 1.278 . S
C268 O263 1.241 . S
C269 O259 1.244 . S
C269 O264 1.256 . S
C270 O261 1.239 . S
C270 O262 1.256 . S
O271 Mn253 2.221 . S
O271 Mn255 2.290 . S
O271 C265 1.278 . S
O272 Mn255 2.251 . S
O272 C265 1.241 . S
O273 Mn274 2.163 . S
O273 C287 1.244 . S
Mn274 O273 2.163 . S
Mn274 O277 2.160 . S
Mn274 O278 2.221 . S
Mn274 O280 2.163 . S
Mn274 O282 2.160 . S
Mn274 O292 2.221 . S
O275 Mn276 2.087 . S
O275 C287 1.256 . S
Mn276 O275 2.087 . S
Mn276 O283 2.089 . S
Mn276 O292 2.290 . S
Mn276 O293 2.251 . S
O277 Mn274 2.160 . S
O277 C288 1.239 . S
O278 Mn274 2.221 . S
O278 Mn279 2.290 . S
O278 C289 1.278 . S
Mn279 O278 2.290 . S
Mn279 O281 2.089 . S
Mn279 O284 2.251 . S
Mn279 O285 2.087 . S
O280 Mn274 2.163 . S
O280 C290 1.244 . S
O281 Mn279 2.089 . S
O281 C288 1.256 . S
O282 Mn274 2.160 . S
O282 C291 1.239 . S
O283 Mn276 2.089 . S
O283 C291 1.256 . S
O284 Mn279 2.251 . S
O284 C289 1.241 . S
O285 Mn279 2.087 . S
O285 C290 1.256 . S
C286 O292 1.278 . S
C286 O293 1.241 . S
C287 O273 1.244 . S
C287 O275 1.256 . S
C288 O277 1.239 . S
C288 O281 1.256 . S
C289 O278 1.278 . S
C289 O284 1.241 . S
C290 O280 1.244 . S
C290 O285 1.256 . S
C291 O282 1.239 . S
C291 O283 1.256 . S
O292 Mn274 2.221 . S
O292 Mn276 2.290 . S
O292 C286 1.278 . S
O293 Mn276 2.251 . S
O293 C286 1.241 . S
O294 Mn295 2.163 . S
O294 C308 1.244 . S
Mn295 O294 2.163 . S
Mn295 O298 2.160 . S
Mn295 O299 2.221 . S
Mn295 O301 2.163 . S
Mn295 O303 2.160 . S
Mn295 O313 2.221 . S
O296 Mn297 2.087 . S
O296 C308 1.256 . S
Mn297 O296 2.087 . S
Mn297 O304 2.089 . S
Mn297 O313 2.290 . S
Mn297 O314 2.251 . S
O298 Mn295 2.160 . S
O298 C309 1.239 . S
O299 Mn295 2.221 . S
O299 Mn300 2.290 . S
O299 C310 1.278 . S
Mn300 O299 2.290 . S
Mn300 O302 2.089 . S
Mn300 O305 2.251 . S
Mn300 O306 2.087 . S
O301 Mn295 2.163 . S
O301 C311 1.244 . S
O302 Mn300 2.089 . S
O302 C309 1.256 . S
O303 Mn295 2.160 . S
O303 C312 1.239 . S
O304 Mn297 2.089 . S
O304 C312 1.256 . S
O305 Mn300 2.251 . S
O305 C310 1.241 . S
O306 Mn300 2.087 . S
O306 C311 1.256 . S
C307 O313 1.278 . S
C307 O314 1.241 . S
C308 O294 1.244 . S
C308 O296 1.256 . S
C309 O298 1.239 . S
C309 O302 1.256 . S
C310 O299 1.278 . S
C310 O305 1.241 . S
C311 O301 1.244 . S
C311 O306 1.256 . S
C312 O303 1.239 . S
C312 O304 1.256 . S
O313 Mn295 2.221 . S
O313 Mn297 2.290 . S
O313 C307 1.278 . S
O314 Mn297 2.251 . S
O314 C307 1.241 . S
O315 Mn316 2.163 . S
O315 C329 1.244 . S
Mn316 O315 2.163 . S
Mn316 O319 2.160 . S
Mn316 O320 2.221 . S
Mn316 O322 2.163 . S
Mn316 O324 2.160 . S
Mn316 O334 2.221 . S
O317 Mn318 2.087 . S
O317 C329 1.256 . S
Mn318 O317 2.087 . S
Mn318 O325 2.089 . S
Mn318 O334 2.290 . S
Mn318 O335 2.251 . S
O319 Mn316 2.160 . S
O319 C330 1.239 . S
O320 Mn316 2.221 . S
O320 Mn321 2.290 . S
O320 C331 1.278 . S
Mn321 O320 2.290 . S
Mn321 O323 2.089 . S
Mn321 O326 2.251 . S
Mn321 O327 2.087 . S
O322 Mn316 2.163 . S
O322 C332 1.244 . S
O323 Mn321 2.089 . S
O323 C330 1.256 . S
O324 Mn316 2.160 . S
O324 C333 1.239 . S
O325 Mn318 2.089 . S
O325 C333 1.256 . S
O326 Mn321 2.251 . S
O326 C331 1.241 . S
O327 Mn321 2.087 . S
O327 C332 1.256 . S
C328 O334 1.278 . S
C328 O335 1.241 . S
C329 O315 1.244 . S
C329 O317 1.256 . S
C330 O319 1.239 . S
C330 O323 1.256 . S
C331 O320 1.278 . S
C331 O326 1.241 . S
C332 O322 1.244 . S
C332 O327 1.256 . S
C333 O324 1.239 . S
C333 O325 1.256 . S
O334 Mn316 2.221 . S
O334 Mn318 2.290 . S
O334 C328 1.278 . S
O335 Mn318 2.251 . S
O335 C328 1.241 . S
O336 Mn337 2.163 . S
O336 C350 1.244 . S
Mn337 O336 2.163 . S
Mn337 O340 2.160 . S
Mn337 O341 2.221 . S
Mn337 O343 2.163 . S
Mn337 O345 2.160 . S
Mn337 O355 2.221 . S
O338 Mn339 2.087 . S
O338 C350 1.256 . S
Mn339 O338 2.087 . S
Mn339 O346 2.089 . S
Mn339 O355 2.290 . S
Mn339 O356 2.251 . S
O340 Mn337 2.160 . S
O340 C351 1.239 . S
O341 Mn337 2.221 . S
O341 Mn342 2.290 . S
O341 C352 1.278 . S
Mn342 O341 2.290 . S
Mn342 O344 2.089 . S
Mn342 O347 2.251 . S
Mn342 O348 2.087 . S
O343 Mn337 2.163 . S
O343 C353 1.244 . S
O344 Mn342 2.089 . S
O344 C351 1.256 . S
O345 Mn337 2.160 . S
O345 C354 1.239 . S
O346 Mn339 2.089 . S
O346 C354 1.256 . S
O347 Mn342 2.251 . S
O347 C352 1.241 . S
O348 Mn342 2.087 . S
O348 C353 1.256 . S
C349 O355 1.278 . S
C349 O356 1.241 . S
C350 O336 1.244 . S
C350 O338 1.256 . S
C351 O340 1.239 . S
C351 O344 1.256 . S
C352 O341 1.278 . S
C352 O347 1.241 . S
C353 O343 1.244 . S
C353 O348 1.256 . S
C354 O345 1.239 . S
C354 O346 1.256 . S
O355 Mn337 2.221 . S
O355 Mn339 2.290 . S
O355 C349 1.278 . S
O356 Mn339 2.251 . S
O356 C349 1.241 . S
O357 Mn358 2.163 . S
O357 C371 1.244 . S
Mn358 O357 2.163 . S
Mn358 O361 2.160 . S
Mn358 O362 2.221 . S
Mn358 O364 2.163 . S
Mn358 O366 2.160 . S
Mn358 O376 2.221 . S
O359 Mn360 2.087 . S
O359 C371 1.256 . S
Mn360 O359 2.087 . S
Mn360 O367 2.089 . S
Mn360 O376 2.290 . S
Mn360 O377 2.251 . S
O361 Mn358 2.160 . S
O361 C372 1.239 . S
O362 Mn358 2.221 . S
O362 Mn363 2.290 . S
O362 C373 1.278 . S
Mn363 O362 2.290 . S
Mn363 O365 2.089 . S
Mn363 O368 2.251 . S
Mn363 O369 2.087 . S
O364 Mn358 2.163 . S
O364 C374 1.244 . S
O365 Mn363 2.089 . S
O365 C372 1.256 . S
O366 Mn358 2.160 . S
O366 C375 1.239 . S
O367 Mn360 2.089 . S
O367 C375 1.256 . S
O368 Mn363 2.251 . S
O368 C373 1.241 . S
O369 Mn363 2.087 . S
O369 C374 1.256 . S
C370 O376 1.278 . S
C370 O377 1.241 . S
C371 O357 1.244 . S
C371 O359 1.256 . S
C372 O361 1.239 . S
C372 O365 1.256 . S
C373 O362 1.278 . S
C373 O368 1.241 . S
C374 O364 1.244 . S
C374 O369 1.256 . S
C375 O366 1.239 . S
C375 O367 1.256 . S
O376 Mn358 2.221 . S
O376 Mn360 2.290 . S
O376 C370 1.278 . S
O377 Mn360 2.251 . S
O377 C370 1.241 . S
O378 Mn379 2.163 . S
O378 C392 1.244 . S
Mn379 O378 2.163 . S
Mn379 O382 2.160 . S
Mn379 O383 2.221 . S
Mn379 O385 2.163 . S
Mn379 O387 2.160 . S
Mn379 O397 2.221 . S
O380 Mn381 2.087 . S
O380 C392 1.256 . S
Mn381 O380 2.087 . S
Mn381 O388 2.089 . S
Mn381 O397 2.290 . S
Mn381 O398 2.251 . S
O382 Mn379 2.160 . S
O382 C393 1.239 . S
O383 Mn379 2.221 . S
O383 Mn384 2.290 . S
O383 C394 1.278 . S
Mn384 O383 2.290 . S
Mn384 O386 2.089 . S
Mn384 O389 2.251 . S
Mn384 O390 2.087 . S
O385 Mn379 2.163 . S
O385 C395 1.244 . S
O386 Mn384 2.089 . S
O386 C393 1.256 . S
O387 Mn379 2.160 . S
O387 C396 1.239 . S
O388 Mn381 2.089 . S
O388 C396 1.256 . S
O389 Mn384 2.251 . S
O389 C394 1.241 . S
O390 Mn384 2.087 . S
O390 C395 1.256 . S
C391 O397 1.278 . S
C391 O398 1.241 . S
C392 O378 1.244 . S
C392 O380 1.256 . S
C393 O382 1.239 . S
C393 O386 1.256 . S
C394 O383 1.278 . S
C394 O389 1.241 . S
C395 O385 1.244 . S
C395 O390 1.256 . S
C396 O387 1.239 . S
C396 O388 1.256 . S
O397 Mn379 2.221 . S
O397 Mn381 2.290 . S
O397 C391 1.278 . S
O398 Mn381 2.251 . S
O398 C391 1.241 . S
O399 Mn400 2.163 . S
O399 C413 1.244 . S
Mn400 O399 2.163 . S
Mn400 O403 2.160 . S
Mn400 O404 2.221 . S
Mn400 O406 2.163 . S
Mn400 O408 2.160 . S
Mn400 O418 2.221 . S
O401 Mn402 2.087 . S
O401 C413 1.256 . S
Mn402 O401 2.087 . S
Mn402 O409 2.089 . S
Mn402 O418 2.290 . S
Mn402 O419 2.251 . S
O403 Mn400 2.160 . S
O403 C414 1.239 . S
O404 Mn400 2.221 . S
O404 Mn405 2.290 . S
O404 C415 1.278 . S
Mn405 O404 2.290 . S
Mn405 O407 2.089 . S
Mn405 O410 2.251 . S
Mn405 O411 2.087 . S
O406 Mn400 2.163 . S
O406 C416 1.244 . S
O407 Mn405 2.089 . S
O407 C414 1.256 . S
O408 Mn400 2.160 . S
O408 C417 1.239 . S
O409 Mn402 2.089 . S
O409 C417 1.256 . S
O410 Mn405 2.251 . S
O410 C415 1.241 . S
O411 Mn405 2.087 . S
O411 C416 1.256 . S
C412 O418 1.278 . S
C412 O419 1.241 . S
C413 O399 1.244 . S
C413 O401 1.256 . S
C414 O403 1.239 . S
C414 O407 1.256 . S
C415 O404 1.278 . S
C415 O410 1.241 . S
C416 O406 1.244 . S
C416 O411 1.256 . S
C417 O408 1.239 . S
C417 O409 1.256 . S
O418 Mn400 2.221 . S
O418 Mn402 2.290 . S
O418 C412 1.278 . S
O419 Mn402 2.251 . S
O419 C412 1.241 . S
O420 Mn421 2.163 . S
O420 C434 1.244 . S
Mn421 O420 2.163 . S
Mn421 O424 2.160 . S
Mn421 O425 2.221 . S
Mn421 O427 2.163 . S
Mn421 O429 2.160 . S
Mn421 O439 2.221 . S
O422 Mn423 2.087 . S
O422 C434 1.256 . S
Mn423 O422 2.087 . S
Mn423 O430 2.089 . S
Mn423 O439 2.290 . S
Mn423 O440 2.251 . S
O424 Mn421 2.160 . S
O424 C435 1.239 . S
O425 Mn421 2.221 . S
O425 Mn426 2.290 . S
O425 C436 1.278 . S
Mn426 O425 2.290 . S
Mn426 O428 2.089 . S
Mn426 O431 2.251 . S
Mn426 O432 2.087 . S
O427 Mn421 2.163 . S
O427 C437 1.244 . S
O428 Mn426 2.089 . S
O428 C435 1.256 . S
O429 Mn421 2.160 . S
O429 C438 1.239 . S
O430 Mn423 2.089 . S
O430 C438 1.256 . S
O431 Mn426 2.251 . S
O431 C436 1.241 . S
O432 Mn426 2.087 . S
O432 C437 1.256 . S
C433 O439 1.278 . S
C433 O440 1.241 . S
C434 O420 1.244 . S
C434 O422 1.256 . S
C435 O424 1.239 . S
C435 O428 1.256 . S
C436 O425 1.278 . S
C436 O431 1.241 . S
C437 O427 1.244 . S
C437 O432 1.256 . S
C438 O429 1.239 . S
C438 O430 1.256 . S
O439 Mn421 2.221 . S
O439 Mn423 2.290 . S
O439 C433 1.278 . S
O440 Mn423 2.251 . S
O440 C433 1.241 . S
O441 Mn442 2.163 . S
O441 C455 1.244 . S
Mn442 O441 2.163 . S
Mn442 O445 2.160 . S
Mn442 O446 2.221 . S
Mn442 O448 2.163 . S
Mn442 O450 2.160 . S
Mn442 O460 2.221 . S
O443 Mn444 2.087 . S
O443 C455 1.256 . S
Mn444 O443 2.087 . S
Mn444 O451 2.089 . S
Mn444 O460 2.290 . S
Mn444 O461 2.251 . S
O445 Mn442 2.160 . S
O445 C456 1.239 . S
O446 Mn442 2.221 . S
O446 Mn447 2.290 . S
O446 C457 1.278 . S
Mn447 O446 2.290 . S
Mn447 O449 2.089 . S
Mn447 O452 2.251 . S
Mn447 O453 2.087 . S
O448 Mn442 2.163 . S
O448 C458 1.244 . S
O449 Mn447 2.089 . S
O449 C456 1.256 . S
O450 Mn442 2.160 . S
O450 C459 1.239 . S
O451 Mn444 2.089 . S
O451 C459 1.256 . S
O452 Mn447 2.251 . S
O452 C457 1.241 . S
O453 Mn447 2.087 . S
O453 C458 1.256 . S
C454 O460 1.278 . S
C454 O461 1.241 . S
C455 O441 1.244 . S
C455 O443 1.256 . S
C456 O445 1.239 . S
C456 O449 1.256 . S
C457 O446 1.278 . S
C457 O452 1.241 . S
C458 O448 1.244 . S
C458 O453 1.256 . S
C459 O450 1.239 . S
C459 O451 1.256 . S
O460 Mn442 2.221 . S
O460 Mn444 2.290 . S
O460 C454 1.278 . S
O461 Mn444 2.251 . S
O461 C454 1.241 . S
O462 Mn463 2.163 . S
O462 C476 1.244 . S
Mn463 O462 2.163 . S
Mn463 O466 2.160 . S
Mn463 O467 2.221 . S
Mn463 O469 2.163 . S
Mn463 O471 2.160 . S
Mn463 O481 2.221 . S
O464 Mn465 2.087 . S
O464 C476 1.256 . S
Mn465 O464 2.087 . S
Mn465 O472 2.089 . S
Mn465 O481 2.290 . S
Mn465 O482 2.251 . S
O466 Mn463 2.160 . S
O466 C477 1.239 . S
O467 Mn463 2.221 . S
O467 Mn468 2.290 . S
O467 C478 1.278 . S
Mn468 O467 2.290 . S
Mn468 O470 2.089 . S
Mn468 O473 2.251 . S
Mn468 O474 2.087 . S
O469 Mn463 2.163 . S
O469 C479 1.244 . S
O470 Mn468 2.089 . S
O470 C477 1.256 . S
O471 Mn463 2.160 . S
O471 C480 1.239 . S
O472 Mn465 2.089 . S
O472 C480 1.256 . S
O473 Mn468 2.251 . S
O473 C478 1.241 . S
O474 Mn468 2.087 . S
O474 C479 1.256 . S
C475 O481 1.278 . S
C475 O482 1.241 . S
C476 O462 1.244 . S
C476 O464 1.256 . S
C477 O466 1.239 . S
C477 O470 1.256 . S
C478 O467 1.278 . S
C478 O473 1.241 . S
C479 O469 1.244 . S
C479 O474 1.256 . S
C480 O471 1.239 . S
C480 O472 1.256 . S
O481 Mn463 2.221 . S
O481 Mn465 2.290 . S
O481 C475 1.278 . S
O482 Mn465 2.251 . S
O482 C475 1.241 . S
O483 Mn484 2.163 . S
O483 C497 1.244 . S
Mn484 O483 2.163 . S
Mn484 O487 2.160 . S
Mn484 O488 2.221 . S
Mn484 O490 2.163 . S
Mn484 O492 2.160 . S
Mn484 O502 2.221 . S
O485 Mn486 2.087 . S
O485 C497 1.256 . S
Mn486 O485 2.087 . S
Mn486 O493 2.089 . S
Mn486 O502 2.290 . S
Mn486 O503 2.251 . S
O487 Mn484 2.160 . S
O487 C498 1.239 . S
O488 Mn484 2.221 . S
O488 Mn489 2.290 . S
O488 C499 1.278 . S
Mn489 O488 2.290 . S
Mn489 O491 2.089 . S
Mn489 O494 2.251 . S
Mn489 O495 2.087 . S
O490 Mn484 2.163 . S
O490 C500 1.244 . S
O491 Mn489 2.089 . S
O491 C498 1.256 . S
O492 Mn484 2.160 . S
O492 C501 1.239 . S
O493 Mn486 2.089 . S
O493 C501 1.256 . S
O494 Mn489 2.251 . S
O494 C499 1.241 . S
O495 Mn489 2.087 . S
O495 C500 1.256 . S
C496 O502 1.278 . S
C496 O503 1.241 . S
C497 O483 1.244 . S
C497 O485 1.256 . S
C498 O487 1.239 . S
C498 O491 1.256 . S
C499 O488 1.278 . S
C499 O494 1.241 . S
C500 O490 1.244 . S
C500 O495 1.256 . S
C501 O492 1.239 . S
C501 O493 1.256 . S
O502 Mn484 2.221 . S
O502 Mn486 2.290 . S
O502 C496 1.278 . S
O503 Mn486 2.251 . S
O503 C496 1.241 . S
O504 Mn505 2.163 . S
O504 C518 1.244 . S
Mn505 O504 2.163 . S
Mn505 O508 2.160 . S
Mn505 O509 2.221 . S
Mn505 O511 2.163 . S
Mn505 O513 2.160 . S
Mn505 O523 2.221 . S
O506 Mn507 2.087 . S
O506 C518 1.256 . S
Mn507 O506 2.087 . S
Mn507 O514 2.089 . S
Mn507 O523 2.290 . S
Mn507 O524 2.251 . S
O508 Mn505 2.160 . S
O508 C519 1.239 . S
O509 Mn505 2.221 . S
O509 Mn510 2.290 . S
O509 C520 1.278 . S
Mn510 O509 2.290 . S
Mn510 O512 2.089 . S
Mn510 O515 2.251 . S
Mn510 O516 2.087 . S
O511 Mn505 2.163 . S
O511 C521 1.244 . S
O512 Mn510 2.089 . S
O512 C519 1.256 . S
O513 Mn505 2.160 . S
O513 C522 1.239 . S
O514 Mn507 2.089 . S
O514 C522 1.256 . S
O515 Mn510 2.251 . S
O515 C520 1.241 . S
O516 Mn510 2.087 . S
O516 C521 1.256 . S
C517 O523 1.278 . S
C517 O524 1.241 . S
C518 O504 1.244 . S
C518 O506 1.256 . S
C519 O508 1.239 . S
C519 O512 1.256 . S
C520 O509 1.278 . S
C520 O515 1.241 . S
C521 O511 1.244 . S
C521 O516 1.256 . S
C522 O513 1.239 . S
C522 O514 1.256 . S
O523 Mn505 2.221 . S
O523 Mn507 2.290 . S
O523 C517 1.278 . S
O524 Mn507 2.251 . S
O524 C517 1.241 . S
O525 Mn526 2.163 . S
O525 C539 1.244 . S
Mn526 O525 2.163 . S
Mn526 O529 2.160 . S
Mn526 O530 2.221 . S
Mn526 O532 2.163 . S
Mn526 O534 2.160 . S
Mn526 O544 2.221 . S
O527 Mn528 2.087 . S
O527 C539 1.256 . S
Mn528 O527 2.087 . S
Mn528 O535 2.089 . S
Mn528 O544 2.290 . S
Mn528 O545 2.251 . S
O529 Mn526 2.160 . S
O529 C540 1.239 . S
O530 Mn526 2.221 . S
O530 Mn531 2.290 . S
O530 C541 1.278 . S
Mn531 O530 2.290 . S
Mn531 O533 2.089 . S
Mn531 O536 2.251 . S
Mn531 O537 2.087 . S
O532 Mn526 2.163 . S
O532 C542 1.244 . S
O533 Mn531 2.089 . S
O533 C540 1.256 . S
O534 Mn526 2.160 . S
O534 C543 1.239 . S
O535 Mn528 2.089 . S
O535 C543 1.256 . S
O536 Mn531 2.251 . S
O536 C541 1.241 . S
O537 Mn531 2.087 . S
O537 C542 1.256 . S
C538 O544 1.278 . S
C538 O545 1.241 . S
C539 O525 1.244 . S
C539 O527 1.256 . S
C540 O529 1.239 . S
C540 O533 1.256 . S
C541 O530 1.278 . S
C541 O536 1.241 . S
C542 O532 1.244 . S
C542 O537 1.256 . S
C543 O534 1.239 . S
C543 O535 1.256 . S
O544 Mn526 2.221 . S
O544 Mn528 2.290 . S
O544 C538 1.278 . S
O545 Mn528 2.251 . S
O545 C538 1.241 . S
O546 Mn547 2.163 . S
O546 C560 1.244 . S
Mn547 O546 2.163 . S
Mn547 O550 2.160 . S
Mn547 O551 2.221 . S
Mn547 O553 2.163 . S
Mn547 O555 2.160 . S
Mn547 O565 2.221 . S
O548 Mn549 2.087 . S
O548 C560 1.256 . S
Mn549 O548 2.087 . S
Mn549 O556 2.089 . S
Mn549 O565 2.290 . S
Mn549 O566 2.251 . S
O550 Mn547 2.160 . S
O550 C561 1.239 . S
O551 Mn547 2.221 . S
O551 Mn552 2.290 . S
O551 C562 1.278 . S
Mn552 O551 2.290 . S
Mn552 O554 2.089 . S
Mn552 O557 2.251 . S
Mn552 O558 2.087 . S
O553 Mn547 2.163 . S
O553 C563 1.244 . S
O554 Mn552 2.089 . S
O554 C561 1.256 . S
O555 Mn547 2.160 . S
O555 C564 1.239 . S
O556 Mn549 2.089 . S
O556 C564 1.256 . S
O557 Mn552 2.251 . S
O557 C562 1.241 . S
O558 Mn552 2.087 . S
O558 C563 1.256 . S
C559 O565 1.278 . S
C559 O566 1.241 . S
C560 O546 1.244 . S
C560 O548 1.256 . S
C561 O550 1.239 . S
C561 O554 1.256 . S
C562 O551 1.278 . S
C562 O557 1.241 . S
C563 O553 1.244 . S
C563 O558 1.256 . S
C564 O555 1.239 . S
C564 O556 1.256 . S
O565 Mn547 2.221 . S
O565 Mn549 2.290 . S
O565 C559 1.278 . S
O566 Mn549 2.251 . S
O566 C559 1.241 . S
O567 Mn568 2.163 . S
O567 C581 1.244 . S
Mn568 O567 2.163 . S
Mn568 O571 2.160 . S
Mn568 O572 2.221 . S
Mn568 O574 2.163 . S
Mn568 O576 2.160 . S
Mn568 O586 2.221 . S
O569 Mn570 2.087 . S
O569 C581 1.256 . S
Mn570 O569 2.087 . S
Mn570 O577 2.089 . S
Mn570 O586 2.290 . S
Mn570 O587 2.251 . S
O571 Mn568 2.160 . S
O571 C582 1.239 . S
O572 Mn568 2.221 . S
O572 Mn573 2.290 . S
O572 C583 1.278 . S
Mn573 O572 2.290 . S
Mn573 O575 2.089 . S
Mn573 O578 2.251 . S
Mn573 O579 2.087 . S
O574 Mn568 2.163 . S
O574 C584 1.244 . S
O575 Mn573 2.089 . S
O575 C582 1.256 . S
O576 Mn568 2.160 . S
O576 C585 1.239 . S
O577 Mn570 2.089 . S
O577 C585 1.256 . S
O578 Mn573 2.251 . S
O578 C583 1.241 . S
O579 Mn573 2.087 . S
O579 C584 1.256 . S
C580 O586 1.278 . S
C580 O587 1.241 . S
C581 O567 1.244 . S
C581 O569 1.256 . S
C582 O571 1.239 . S
C582 O575 1.256 . S
C583 O572 1.278 . S
C583 O578 1.241 . S
C584 O574 1.244 . S
C584 O579 1.256 . S
C585 O576 1.239 . S
C585 O577 1.256 . S
O586 Mn568 2.221 . S
O586 Mn570 2.290 . S
O586 C580 1.278 . S
O587 Mn570 2.251 . S
O587 C580 1.241 . S
O588 Mn589 2.163 . S
O588 C602 1.244 . S
Mn589 O588 2.163 . S
Mn589 O592 2.160 . S
Mn589 O593 2.221 . S
Mn589 O595 2.163 . S
Mn589 O597 2.160 . S
Mn589 O607 2.221 . S
O590 Mn591 2.087 . S
O590 C602 1.256 . S
Mn591 O590 2.087 . S
Mn591 O598 2.089 . S
Mn591 O607 2.290 . S
Mn591 O608 2.251 . S
O592 Mn589 2.160 . S
O592 C603 1.239 . S
O593 Mn589 2.221 . S
O593 Mn594 2.290 . S
O593 C604 1.278 . S
Mn594 O593 2.290 . S
Mn594 O596 2.089 . S
Mn594 O599 2.251 . S
Mn594 O600 2.087 . S
O595 Mn589 2.163 . S
O595 C605 1.244 . S
O596 Mn594 2.089 . S
O596 C603 1.256 . S
O597 Mn589 2.160 . S
O597 C606 1.239 . S
O598 Mn591 2.089 . S
O598 C606 1.256 . S
O599 Mn594 2.251 . S
O599 C604 1.241 . S
O600 Mn594 2.087 . S
O600 C605 1.256 . S
C601 O607 1.278 . S
C601 O608 1.241 . S
C602 O588 1.244 . S
C602 O590 1.256 . S
C603 O592 1.239 . S
C603 O596 1.256 . S
C604 O593 1.278 . S
C604 O599 1.241 . S
C605 O595 1.244 . S
C605 O600 1.256 . S
C606 O597 1.239 . S
C606 O598 1.256 . S
O607 Mn589 2.221 . S
O607 Mn591 2.290 . S
O607 C601 1.278 . S
O608 Mn591 2.251 . S
O608 C601 1.241 . S
O609 Mn610 2.163 . S
O609 C623 1.244 . S
Mn610 O609 2.163 . S
Mn610 O613 2.160 . S
Mn610 O614 2.221 . S
Mn610 O616 2.163 . S
Mn610 O618 2.160 . S
Mn610 O628 2.221 . S
O611 Mn612 2.087 . S
O611 C623 1.256 . S
Mn612 O611 2.087 . S
Mn612 O619 2.089 . S
Mn612 O628 2.290 . S
Mn612 O629 2.251 . S
O613 Mn610 2.160 . S
O613 C624 1.239 . S
O614 Mn610 2.221 . S
O614 Mn615 2.290 . S
O614 C625 1.278 . S
Mn615 O614 2.290 . S
Mn615 O617 2.089 . S
Mn615 O620 2.251 . S
Mn615 O621 2.087 . S
O616 Mn610 2.163 . S
O616 C626 1.244 . S
O617 Mn615 2.089 . S
O617 C624 1.256 . S
O618 Mn610 2.160 . S
O618 C627 1.239 . S
O619 Mn612 2.089 . S
O619 C627 1.256 . S
O620 Mn615 2.251 . S
O620 C625 1.241 . S
O621 Mn615 2.087 . S
O621 C626 1.256 . S
C622 O628 1.278 . S
C622 O629 1.241 . S
C623 O609 1.244 . S
C623 O611 1.256 . S
C624 O613 1.239 . S
C624 O617 1.256 . S
C625 O614 1.278 . S
C625 O620 1.241 . S
C626 O616 1.244 . S
C626 O621 1.256 . S
C627 O618 1.239 . S
C627 O619 1.256 . S
O628 Mn610 2.221 . S
O628 Mn612 2.290 . S
O628 C622 1.278 . S
O629 Mn612 2.251 . S
O629 C622 1.241 . S
O630 Mn631 2.163 . S
O630 C644 1.244 . S
Mn631 O630 2.163 . S
Mn631 O634 2.160 . S
Mn631 O635 2.221 . S
Mn631 O637 2.163 . S
Mn631 O639 2.160 . S
Mn631 O649 2.221 . S
O632 Mn633 2.087 . S
O632 C644 1.256 . S
Mn633 O632 2.087 . S
Mn633 O640 2.089 . S
Mn633 O649 2.290 . S
Mn633 O650 2.251 . S
O634 Mn631 2.160 . S
O634 C645 1.239 . S
O635 Mn631 2.221 . S
O635 Mn636 2.290 . S
O635 C646 1.278 . S
Mn636 O635 2.290 . S
Mn636 O638 2.089 . S
Mn636 O641 2.251 . S
Mn636 O642 2.087 . S
O637 Mn631 2.163 . S
O637 C647 1.244 . S
O638 Mn636 2.089 . S
O638 C645 1.256 . S
O639 Mn631 2.160 . S
O639 C648 1.239 . S
O640 Mn633 2.089 . S
O640 C648 1.256 . S
O641 Mn636 2.251 . S
O641 C646 1.241 . S
O642 Mn636 2.087 . S
O642 C647 1.256 . S
C643 O649 1.278 . S
C643 O650 1.241 . S
C644 O630 1.244 . S
C644 O632 1.256 . S
C645 O634 1.239 . S
C645 O638 1.256 . S
C646 O635 1.278 . S
C646 O641 1.241 . S
C647 O637 1.244 . S
C647 O642 1.256 . S
C648 O639 1.239 . S
C648 O640 1.256 . S
O649 Mn631 2.221 . S
O649 Mn633 2.290 . S
O649 C643 1.278 . S
O650 Mn633 2.251 . S
O650 C643 1.241 . S
O651 Mn652 2.163 . S
O651 C665 1.244 . S
Mn652 O651 2.163 . S
Mn652 O655 2.160 . S
Mn652 O656 2.221 . S
Mn652 O658 2.163 . S
Mn652 O660 2.160 . S
Mn652 O670 2.221 . S
O653 Mn654 2.087 . S
O653 C665 1.256 . S
Mn654 O653 2.087 . S
Mn654 O661 2.089 . S
Mn654 O670 2.290 . S
Mn654 O671 2.251 . S
O655 Mn652 2.160 . S
O655 C666 1.239 . S
O656 Mn652 2.221 . S
O656 Mn657 2.290 . S
O656 C667 1.278 . S
Mn657 O656 2.290 . S
Mn657 O659 2.089 . S
Mn657 O662 2.251 . S
Mn657 O663 2.087 . S
O658 Mn652 2.163 . S
O658 C668 1.244 . S
O659 Mn657 2.089 . S
O659 C666 1.256 . S
O660 Mn652 2.160 . S
O660 C669 1.239 . S
O661 Mn654 2.089 . S
O661 C669 1.256 . S
O662 Mn657 2.251 . S
O662 C667 1.241 . S
O663 Mn657 2.087 . S
O663 C668 1.256 . S
C664 O670 1.278 . S
C664 O671 1.241 . S
C665 O651 1.244 . S
C665 O653 1.256 . S
C666 O655 1.239 . S
C666 O659 1.256 . S
C667 O656 1.278 . S
C667 O662 1.241 . S
C668 O658 1.244 . S
C668 O663 1.256 . S
C669 O660 1.239 . S
C669 O661 1.256 . S
O670 Mn652 2.221 . S
O670 Mn654 2.290 . S
O670 C664 1.278 . S
O671 Mn654 2.251 . S
O671 C664 1.241 . S
H672 C680 0.950 . S
H673 C685 0.950 . S
H674 C682 0.950 . S
H675 C684 0.950 . S
H676 C686 0.950 . S
H677 C688 0.950 . S
H678 C690 0.950 . S
H679 C691 0.950 . S
C680 H672 0.950 . S
C680 C681 1.386 . S
C680 C682 1.391 . S
C681 C680 1.386 . S
C681 C685 1.393 . S
C682 H674 0.950 . S
C682 C680 1.391 . S
C682 C683 1.400 . S
C683 C682 1.400 . S
C683 C684 1.398 . S
C683 C689 1.491 . S
C684 H675 0.950 . S
C684 C683 1.398 . S
C684 C685 1.391 . S
C685 H673 0.950 . S
C685 C681 1.393 . S
C685 C684 1.391 . S
C686 H676 0.950 . S
C686 C687 1.386 . S
C686 C688 1.391 . S
C687 C686 1.386 . S
C687 C691 1.393 . S
C688 H677 0.950 . S
C688 C686 1.391 . S
C688 C689 1.400 . S
C689 C683 1.491 . S
C689 C688 1.400 . S
C689 C690 1.398 . S
C690 H678 0.950 . S
C690 C689 1.398 . S
C690 C691 1.391 . S
C691 H679 0.950 . S
C691 C687 1.393 . S
C691 C690 1.391 . S
H692 C700 0.950 . S
H693 C705 0.950 . S
H694 C702 0.950 . S
H695 C704 0.950 . S
H696 C706 0.950 . S
H697 C708 0.950 . S
H698 C710 0.950 . S
H699 C711 0.950 . S
C700 H692 0.950 . S
C700 C701 1.386 . S
C700 C702 1.391 . S
C701 C700 1.386 . S
C701 C705 1.393 . S
C702 H694 0.950 . S
C702 C700 1.391 . S
C702 C703 1.400 1_455 S
C703 C702 1.400 1_655 S
C703 C704 1.398 . S
C703 C709 1.491 . S
C704 H695 0.950 . S
C704 C703 1.398 . S
C704 C705 1.391 1_655 S
C705 H693 0.950 . S
C705 C701 1.393 . S
C705 C704 1.391 1_455 S
C706 H696 0.950 . S
C706 C707 1.386 . S
C706 C708 1.391 . S
C707 C706 1.386 . S
C707 C711 1.393 . S
C708 H697 0.950 . S
C708 C706 1.391 . S
C708 C709 1.400 . S
C709 C703 1.491 . S
C709 C708 1.400 . S
C709 C710 1.398 . S
C710 H698 0.950 . S
C710 C709 1.398 . S
C710 C711 1.391 . S
C711 H699 0.950 . S
C711 C707 1.393 . S
C711 C710 1.391 . S
H712 C720 0.950 . S
H713 C725 0.950 . S
H714 C722 0.950 . S
H715 C724 0.950 . S
H716 C726 0.950 . S
H717 C728 0.950 . S
H718 C730 0.950 . S
H719 C731 0.950 . S
C720 H712 0.950 . S
C720 C721 1.386 . S
C720 C722 1.391 . S
C721 C720 1.386 . S
C721 C725 1.393 . S
C722 H714 0.950 . S
C722 C720 1.391 . S
C722 C723 1.400 . S
C723 C722 1.400 . S
C723 C724 1.398 . S
C723 C729 1.491 . S
C724 H715 0.950 . S
C724 C723 1.398 . S
C724 C725 1.391 . S
C725 H713 0.950 . S
C725 C721 1.393 . S
C725 C724 1.391 . S
C726 H716 0.950 . S
C726 C727 1.386 . S
C726 C728 1.391 . S
C727 C726 1.386 . S
C727 C731 1.393 . S
C728 H717 0.950 . S
C728 C726 1.391 . S
C728 C729 1.400 . S
C729 C723 1.491 . S
C729 C728 1.400 . S
C729 C730 1.398 . S
C730 H718 0.950 . S
C730 C729 1.398 . S
C730 C731 1.391 . S
C731 H719 0.950 . S
C731 C727 1.393 . S
C731 C730 1.391 . S
H732 C740 0.950 . S
H733 C745 0.950 . S
H734 C742 0.950 . S
H735 C744 0.950 . S
H736 C746 0.950 . S
H737 C748 0.950 . S
H738 C750 0.950 . S
H739 C751 0.950 . S
C740 H732 0.950 . S
C740 C741 1.386 . S
C740 C742 1.391 . S
C741 C740 1.386 . S
C741 C745 1.393 . S
C742 H734 0.950 . S
C742 C740 1.391 . S
C742 C743 1.400 . S
C743 C742 1.400 . S
C743 C744 1.398 . S
C743 C749 1.491 . S
C744 H735 0.950 . S
C744 C743 1.398 . S
C744 C745 1.391 . S
C745 H733 0.950 . S
C745 C741 1.393 . S
C745 C744 1.391 . S
C746 H736 0.950 . S
C746 C747 1.386 . S
C746 C748 1.391 . S
C747 C746 1.386 . S
C747 C751 1.393 . S
C748 H737 0.950 . S
C748 C746 1.391 . S
C748 C749 1.400 . S
C749 C743 1.491 . S
C749 C748 1.400 . S
C749 C750 1.398 . S
C750 H738 0.950 . S
C750 C749 1.398 . S
C750 C751 1.391 . S
C751 H739 0.950 . S
C751 C747 1.393 . S
C751 C750 1.391 . S
H752 C760 0.950 . S
H753 C765 0.950 . S
H754 C762 0.950 . S
H755 C764 0.950 . S
H756 C766 0.950 . S
H757 C768 0.950 . S
H758 C770 0.950 . S
H759 C771 0.950 . S
C760 H752 0.950 . S
C760 C761 1.386 . S
C760 C762 1.391 . S
C761 C760 1.386 . S
C761 C765 1.393 . S
C762 H754 0.950 . S
C762 C760 1.391 . S
C762 C763 1.400 . S
C763 C762 1.400 . S
C763 C764 1.398 . S
C763 C769 1.491 . S
C764 H755 0.950 . S
C764 C763 1.398 . S
C764 C765 1.391 . S
C765 H753 0.950 . S
C765 C761 1.393 . S
C765 C764 1.391 . S
C766 H756 0.950 . S
C766 C767 1.386 . S
C766 C768 1.391 . S
C767 C766 1.386 . S
C767 C771 1.393 . S
C768 H757 0.950 . S
C768 C766 1.391 . S
C768 C769 1.400 . S
C769 C763 1.491 . S
C769 C768 1.400 . S
C769 C770 1.398 . S
C770 H758 0.950 . S
C770 C769 1.398 . S
C770 C771 1.391 . S
C771 H759 0.950 . S
C771 C767 1.393 . S
C771 C770 1.391 . S
H772 C780 0.950 . S
H773 C785 0.950 . S
H774 C782 0.950 . S
H775 C784 0.950 . S
H776 C786 0.950 . S
H777 C788 0.950 . S
H778 C790 0.950 . S
H779 C791 0.950 . S
C780 H772 0.950 . S
C780 C781 1.386 . S
C780 C782 1.391 . S
C781 C780 1.386 . S
C781 C785 1.393 . S
C782 H774 0.950 . S
C782 C780 1.391 . S
C782 C783 1.400 . S
C783 C782 1.400 . S
C783 C784 1.398 . S
C783 C789 1.491 . S
C784 H775 0.950 . S
C784 C783 1.398 . S
C784 C785 1.391 . S
C785 H773 0.950 . S
C785 C781 1.393 . S
C785 C784 1.391 . S
C786 H776 0.950 . S
C786 C787 1.386 . S
C786 C788 1.391 . S
C787 C786 1.386 . S
C787 C791 1.393 . S
C788 H777 0.950 . S
C788 C786 1.391 . S
C788 C789 1.400 . S
C789 C783 1.491 . S
C789 C788 1.400 . S
C789 C790 1.398 . S
C790 H778 0.950 . S
C790 C789 1.398 . S
C790 C791 1.391 . S
C791 H779 0.950 . S
C791 C787 1.393 . S
C791 C790 1.391 . S
H792 C800 0.950 . S
H793 C805 0.950 . S
H794 C802 0.950 . S
H795 C804 0.950 . S
H796 C806 0.950 . S
H797 C808 0.950 . S
H798 C810 0.950 . S
H799 C811 0.950 . S
C800 H792 0.950 . S
C800 C801 1.386 . S
C800 C802 1.391 . S
C801 C800 1.386 . S
C801 C805 1.393 . S
C802 H794 0.950 . S
C802 C800 1.391 . S
C802 C803 1.400 . S
C803 C802 1.400 . S
C803 C804 1.398 . S
C803 C809 1.491 . S
C804 H795 0.950 . S
C804 C803 1.398 . S
C804 C805 1.391 . S
C805 H793 0.950 . S
C805 C801 1.393 . S
C805 C804 1.391 . S
C806 H796 0.950 . S
C806 C807 1.386 . S
C806 C808 1.391 . S
C807 C806 1.386 . S
C807 C811 1.393 . S
C808 H797 0.950 . S
C808 C806 1.391 . S
C808 C809 1.400 . S
C809 C803 1.491 . S
C809 C808 1.400 . S
C809 C810 1.398 . S
C810 H798 0.950 . S
C810 C809 1.398 . S
C810 C811 1.391 . S
C811 H799 0.950 . S
C811 C807 1.393 . S
C811 C810 1.391 . S
H812 C820 0.950 . S
H813 C825 0.950 . S
H814 C822 0.950 . S
H815 C824 0.950 . S
H816 C826 0.950 . S
H817 C828 0.950 . S
H818 C830 0.950 . S
H819 C831 0.950 . S
C820 H812 0.950 . S
C820 C821 1.386 . S
C820 C822 1.391 1_455 S
C821 C820 1.386 . S
C821 C825 1.393 . S
C822 H814 0.950 . S
C822 C820 1.391 1_655 S
C822 C823 1.400 . S
C823 C822 1.400 . S
C823 C824 1.398 1_655 S
C823 C829 1.491 . S
C824 H815 0.950 . S
C824 C823 1.398 1_455 S
C824 C825 1.391 . S
C825 H813 0.950 . S
C825 C821 1.393 . S
C825 C824 1.391 . S
C826 H816 0.950 . S
C826 C827 1.386 . S
C826 C828 1.391 . S
C827 C826 1.386 . S
C827 C831 1.393 . S
C828 H817 0.950 . S
C828 C826 1.391 . S
C828 C829 1.400 . S
C829 C823 1.491 . S
C829 C828 1.400 . S
C829 C830 1.398 . S
C830 H818 0.950 . S
C830 C829 1.398 . S
C830 C831 1.391 . S
C831 H819 0.950 . S
C831 C827 1.393 . S
C831 C830 1.391 . S
H832 C840 0.950 . S
H833 C845 0.950 . S
H834 C842 0.950 . S
H835 C844 0.950 . S
H836 C846 0.950 . S
H837 C848 0.950 . S
H838 C850 0.950 . S
H839 C851 0.950 . S
C840 H832 0.950 . S
C840 C841 1.386 . S
C840 C842 1.391 . S
C841 C840 1.386 . S
C841 C845 1.393 . S
C842 H834 0.950 . S
C842 C840 1.391 . S
C842 C843 1.400 . S
C843 C842 1.400 . S
C843 C844 1.398 . S
C843 C849 1.491 . S
C844 H835 0.950 . S
C844 C843 1.398 . S
C844 C845 1.391 . S
C845 H833 0.950 . S
C845 C841 1.393 . S
C845 C844 1.391 . S
C846 H836 0.950 . S
C846 C847 1.386 . S
C846 C848 1.391 . S
C847 C846 1.386 . S
C847 C851 1.393 . S
C848 H837 0.950 . S
C848 C846 1.391 . S
C848 C849 1.400 . S
C849 C843 1.491 . S
C849 C848 1.400 . S
C849 C850 1.398 . S
C850 H838 0.950 . S
C850 C849 1.398 . S
C850 C851 1.391 . S
C851 H839 0.950 . S
C851 C847 1.393 . S
C851 C850 1.391 . S
H852 C860 0.950 . S
H853 C865 0.950 . S
H854 C862 0.950 . S
H855 C864 0.950 . S
H856 C866 0.950 . S
H857 C868 0.950 . S
H858 C870 0.950 . S
H859 C871 0.950 . S
C860 H852 0.950 . S
C860 C861 1.386 . S
C860 C862 1.391 . S
C861 C860 1.386 . S
C861 C865 1.393 . S
C862 H854 0.950 . S
C862 C860 1.391 . S
C862 C863 1.400 1_655 S
C863 C862 1.400 1_455 S
C863 C864 1.398 . S
C863 C869 1.491 . S
C864 H855 0.950 . S
C864 C863 1.398 . S
C864 C865 1.391 1_455 S
C865 H853 0.950 . S
C865 C861 1.393 . S
C865 C864 1.391 1_655 S
C866 H856 0.950 . S
C866 C867 1.386 . S
C866 C868 1.391 . S
C867 C866 1.386 . S
C867 C871 1.393 . S
C868 H857 0.950 . S
C868 C866 1.391 . S
C868 C869 1.400 . S
C869 C863 1.491 . S
C869 C868 1.400 . S
C869 C870 1.398 . S
C870 H858 0.950 . S
C870 C869 1.398 . S
C870 C871 1.391 . S
C871 H859 0.950 . S
C871 C867 1.393 . S
C871 C870 1.391 . S
H872 C880 0.950 . S
H873 C885 0.950 . S
H874 C882 0.950 . S
H875 C884 0.950 . S
H876 C886 0.950 . S
H877 C888 0.950 . S
H878 C890 0.950 . S
H879 C891 0.950 . S
C880 H872 0.950 . S
C880 C881 1.386 . S
C880 C882 1.391 . S
C881 C880 1.386 . S
C881 C885 1.393 . S
C882 H874 0.950 . S
C882 C880 1.391 . S
C882 C883 1.400 . S
C883 C882 1.400 . S
C883 C884 1.398 . S
C883 C889 1.491 . S
C884 H875 0.950 . S
C884 C883 1.398 . S
C884 C885 1.391 . S
C885 H873 0.950 . S
C885 C881 1.393 . S
C885 C884 1.391 . S
C886 H876 0.950 . S
C886 C887 1.386 . S
C886 C888 1.391 . S
C887 C886 1.386 . S
C887 C891 1.393 . S
C888 H877 0.950 . S
C888 C886 1.391 . S
C888 C889 1.400 . S
C889 C883 1.491 . S
C889 C888 1.400 . S
C889 C890 1.398 . S
C890 H878 0.950 . S
C890 C889 1.398 . S
C890 C891 1.391 . S
C891 H879 0.950 . S
C891 C887 1.393 . S
C891 C890 1.391 . S
H892 C900 0.950 . S
H893 C905 0.950 . S
H894 C902 0.950 . S
H895 C904 0.950 . S
H896 C906 0.950 . S
H897 C908 0.950 . S
H898 C910 0.950 . S
H899 C911 0.950 . S
C900 H892 0.950 . S
C900 C901 1.386 . S
C900 C902 1.391 . S
C901 C900 1.386 . S
C901 C905 1.393 . S
C902 H894 0.950 . S
C902 C900 1.391 . S
C902 C903 1.400 . S
C903 C902 1.400 . S
C903 C904 1.398 . S
C903 C909 1.491 . S
C904 H895 0.950 . S
C904 C903 1.398 . S
C904 C905 1.391 . S
C905 H893 0.950 . S
C905 C901 1.393 . S
C905 C904 1.391 . S
C906 H896 0.950 . S
C906 C907 1.386 . S
C906 C908 1.391 . S
C907 C906 1.386 . S
C907 C911 1.393 . S
C908 H897 0.950 . S
C908 C906 1.391 . S
C908 C909 1.400 . S
C909 C903 1.491 . S
C909 C908 1.400 . S
C909 C910 1.398 . S
C910 H898 0.950 . S
C910 C909 1.398 . S
C910 C911 1.391 . S
C911 H899 0.950 . S
C911 C907 1.393 . S
C911 C910 1.391 . S
H912 C920 0.950 . S
H913 C925 0.950 . S
H914 C922 0.950 . S
H915 C924 0.950 . S
H916 C926 0.950 . S
H917 C928 0.950 . S
H918 C930 0.950 . S
H919 C931 0.950 . S
C920 H912 0.950 . S
C920 C921 1.386 . S
C920 C922 1.391 . S
C921 C920 1.386 . S
C921 C925 1.393 . S
C922 H914 0.950 . S
C922 C920 1.391 . S
C922 C923 1.400 . S
C923 C922 1.400 . S
C923 C924 1.398 . S
C923 C929 1.491 . S
C924 H915 0.950 . S
C924 C923 1.398 . S
C924 C925 1.391 . S
C925 H913 0.950 . S
C925 C921 1.393 . S
C925 C924 1.391 . S
C926 H916 0.950 . S
C926 C927 1.386 . S
C926 C928 1.391 . S
C927 C926 1.386 . S
C927 C931 1.393 . S
C928 H917 0.950 . S
C928 C926 1.391 . S
C928 C929 1.400 . S
C929 C923 1.491 . S
C929 C928 1.400 . S
C929 C930 1.398 . S
C930 H918 0.950 . S
C930 C929 1.398 . S
C930 C931 1.391 . S
C931 H919 0.950 . S
C931 C927 1.393 . S
C931 C930 1.391 . S
H932 C940 0.950 . S
H933 C945 0.950 . S
H934 C942 0.950 . S
H935 C944 0.950 . S
H936 C946 0.950 . S
H937 C948 0.950 . S
H938 C950 0.950 . S
H939 C951 0.950 . S
C940 H932 0.950 . S
C940 C941 1.386 . S
C940 C942 1.391 . S
C941 C940 1.386 . S
C941 C945 1.393 . S
C942 H934 0.950 . S
C942 C940 1.391 . S
C942 C943 1.400 . S
C943 C942 1.400 . S
C943 C944 1.398 . S
C943 C949 1.491 . S
C944 H935 0.950 . S
C944 C943 1.398 . S
C944 C945 1.391 . S
C945 H933 0.950 . S
C945 C941 1.393 . S
C945 C944 1.391 . S
C946 H936 0.950 . S
C946 C947 1.386 . S
C946 C948 1.391 . S
C947 C946 1.386 . S
C947 C951 1.393 . S
C948 H937 0.950 . S
C948 C946 1.391 . S
C948 C949 1.400 . S
C949 C943 1.491 . S
C949 C948 1.400 . S
C949 C950 1.398 . S
C950 H938 0.950 . S
C950 C949 1.398 . S
C950 C951 1.391 . S
C951 H939 0.950 . S
C951 C947 1.393 . S
C951 C950 1.391 . S
H952 C960 0.950 . S
H953 C965 0.950 . S
H954 C962 0.950 . S
H955 C964 0.950 . S
H956 C966 0.950 . S
H957 C968 0.950 . S
H958 C970 0.950 . S
H959 C971 0.950 . S
C960 H952 0.950 . S
C960 C961 1.386 . S
C960 C962 1.391 . S
C961 C960 1.386 . S
C961 C965 1.393 . S
C962 H954 0.950 . S
C962 C960 1.391 . S
C962 C963 1.400 . S
C963 C962 1.400 . S
C963 C964 1.398 . S
C963 C969 1.491 . S
C964 H955 0.950 . S
C964 C963 1.398 . S
C964 C965 1.391 . S
C965 H953 0.950 . S
C965 C961 1.393 . S
C965 C964 1.391 . S
C966 H956 0.950 . S
C966 C967 1.386 . S
C966 C968 1.391 . S
C967 C966 1.386 . S
C967 C971 1.393 . S
C968 H957 0.950 . S
C968 C966 1.391 . S
C968 C969 1.400 . S
C969 C963 1.491 . S
C969 C968 1.400 . S
C969 C970 1.398 . S
C970 H958 0.950 . S
C970 C969 1.398 . S
C970 C971 1.391 . S
C971 H959 0.950 . S
C971 C967 1.393 . S
C971 C970 1.391 . S
H972 C980 0.950 . S
H973 C985 0.950 . S
H974 C982 0.950 . S
H975 C984 0.950 . S
H976 C986 0.950 . S
H977 C988 0.950 . S
H978 C990 0.950 . S
H979 C991 0.950 . S
C980 H972 0.950 . S
C980 C981 1.386 . S
C980 C982 1.391 . S
C981 C980 1.386 . S
C981 C985 1.393 . S
C982 H974 0.950 . S
C982 C980 1.391 . S
C982 C983 1.400 . S
C983 C982 1.400 . S
C983 C984 1.398 . S
C983 C989 1.491 . S
C984 H975 0.950 . S
C984 C983 1.398 . S
C984 C985 1.391 . S
C985 H973 0.950 . S
C985 C981 1.393 . S
C985 C984 1.391 . S
C986 H976 0.950 . S
C986 C987 1.386 . S
C986 C988 1.391 1_655 S
C987 C986 1.386 . S
C987 C991 1.393 . S
C988 H977 0.950 . S
C988 C986 1.391 1_455 S
C988 C989 1.400 . S
C989 C983 1.491 . S
C989 C988 1.400 . S
C989 C990 1.398 1_455 S
C990 H978 0.950 . S
C990 C989 1.398 1_655 S
C990 C991 1.391 . S
C991 H979 0.950 . S
C991 C987 1.393 . S
C991 C990 1.391 . S
H992 C1000 0.950 . S
H993 C1005 0.950 . S
H994 C1002 0.950 . S
H995 C1004 0.950 . S
H996 C1006 0.950 . S
H997 C1008 0.950 . S
H998 C1010 0.950 . S
H999 C1011 0.950 . S
C1000 H992 0.950 . S
C1000 C1001 1.386 . S
C1000 C1002 1.391 . S
C1001 C1000 1.386 . S
C1001 C1005 1.393 . S
C1002 H994 0.950 . S
C1002 C1000 1.391 . S
C1002 C1003 1.400 . S
C1003 C1002 1.400 . S
C1003 C1004 1.398 . S
C1003 C1009 1.491 . S
C1004 H995 0.950 . S
C1004 C1003 1.398 . S
C1004 C1005 1.391 . S
C1005 H993 0.950 . S
C1005 C1001 1.393 . S
C1005 C1004 1.391 . S
C1006 H996 0.950 . S
C1006 C1007 1.386 . S
C1006 C1008 1.391 . S
C1007 C1006 1.386 . S
C1007 C1011 1.393 . S
C1008 H997 0.950 . S
C1008 C1006 1.391 . S
C1008 C1009 1.400 . S
C1009 C1003 1.491 . S
C1009 C1008 1.400 . S
C1009 C1010 1.398 . S
C1010 H998 0.950 . S
C1010 C1009 1.398 . S
C1010 C1011 1.391 . S
C1011 H999 0.950 . S
C1011 C1007 1.393 . S
C1011 C1010 1.391 . S
H1012 C1020 0.950 . S
H1013 C1025 0.950 . S
H1014 C1022 0.950 . S
H1015 C1024 0.950 . S
H1016 C1026 0.950 . S
H1017 C1028 0.950 . S
H1018 C1030 0.950 . S
H1019 C1031 0.950 . S
C1020 H1012 0.950 . S
C1020 C1021 1.386 . S
C1020 C1022 1.391 . S
C1021 C1020 1.386 . S
C1021 C1025 1.393 . S
C1022 H1014 0.950 . S
C1022 C1020 1.391 . S
C1022 C1023 1.400 . S
C1023 C1022 1.400 . S
C1023 C1024 1.398 . S
C1023 C1029 1.491 . S
C1024 H1015 0.950 . S
C1024 C1023 1.398 . S
C1024 C1025 1.391 . S
C1025 H1013 0.950 . S
C1025 C1021 1.393 . S
C1025 C1024 1.391 . S
C1026 H1016 0.950 . S
C1026 C1027 1.386 . S
C1026 C1028 1.391 . S
C1027 C1026 1.386 . S
C1027 C1031 1.393 . S
C1028 H1017 0.950 . S
C1028 C1026 1.391 . S
C1028 C1029 1.400 . S
C1029 C1023 1.491 . S
C1029 C1028 1.400 . S
C1029 C1030 1.398 . S
C1030 H1018 0.950 . S
C1030 C1029 1.398 . S
C1030 C1031 1.391 . S
C1031 H1019 0.950 . S
C1031 C1027 1.393 . S
C1031 C1030 1.391 . S
H1032 C1040 0.950 . S
H1033 C1045 0.950 . S
H1034 C1042 0.950 . S
H1035 C1044 0.950 . S
H1036 C1046 0.950 . S
H1037 C1048 0.950 . S
H1038 C1050 0.950 . S
H1039 C1051 0.950 . S
C1040 H1032 0.950 . S
C1040 C1041 1.386 . S
C1040 C1042 1.391 . S
C1041 C1040 1.386 . S
C1041 C1045 1.393 . S
C1042 H1034 0.950 . S
C1042 C1040 1.391 . S
C1042 C1043 1.400 . S
C1043 C1042 1.400 . S
C1043 C1044 1.398 . S
C1043 C1049 1.491 . S
C1044 H1035 0.950 . S
C1044 C1043 1.398 . S
C1044 C1045 1.391 . S
C1045 H1033 0.950 . S
C1045 C1041 1.393 . S
C1045 C1044 1.391 . S
C1046 H1036 0.950 . S
C1046 C1047 1.386 . S
C1046 C1048 1.391 . S
C1047 C1046 1.386 . S
C1047 C1051 1.393 . S
C1048 H1037 0.950 . S
C1048 C1046 1.391 . S
C1048 C1049 1.400 . S
C1049 C1043 1.491 . S
C1049 C1048 1.400 . S
C1049 C1050 1.398 . S
C1050 H1038 0.950 . S
C1050 C1049 1.398 . S
C1050 C1051 1.391 . S
C1051 H1039 0.950 . S
C1051 C1047 1.393 . S
C1051 C1050 1.391 . S
H1052 C1060 0.950 . S
H1053 C1065 0.950 . S
H1054 C1062 0.950 . S
H1055 C1064 0.949 . S
H1056 C1066 0.950 . S
H1057 C1068 0.950 . S
H1058 C1070 0.950 . S
H1059 C1071 0.950 . S
C1060 H1052 0.950 . S
C1060 C1061 1.386 . S
C1060 C1062 1.391 1_655 S
C1061 C1060 1.386 . S
C1061 C1065 1.393 . S
C1062 H1054 0.950 . S
C1062 C1060 1.391 1_455 S
C1062 C1063 1.400 . S
C1063 C1062 1.400 . S
C1063 C1064 1.398 1_455 S
C1063 C1069 1.491 . S
C1064 H1055 0.949 . S
C1064 C1063 1.398 1_655 S
C1064 C1065 1.391 . S
C1065 H1053 0.950 . S
C1065 C1061 1.393 . S
C1065 C1064 1.391 . S
C1066 H1056 0.950 . S
C1066 C1067 1.386 . S
C1066 C1068 1.391 . S
C1067 C1066 1.386 . S
C1067 C1071 1.393 . S
C1068 H1057 0.950 . S
C1068 C1066 1.391 . S
C1068 C1069 1.400 . S
C1069 C1063 1.491 . S
C1069 C1068 1.400 . S
C1069 C1070 1.398 . S
C1070 H1058 0.950 . S
C1070 C1069 1.398 . S
C1070 C1071 1.391 . S
C1071 H1059 0.950 . S
C1071 C1067 1.393 . S
C1071 C1070 1.391 . S
H1072 C1080 0.950 . S
H1073 C1085 0.950 . S
H1074 C1082 0.950 . S
H1075 C1084 0.950 . S
H1076 C1086 0.950 . S
H1077 C1088 0.950 . S
H1078 C1090 0.950 . S
H1079 C1091 0.950 . S
C1080 H1072 0.950 . S
C1080 C1081 1.386 . S
C1080 C1082 1.391 . S
C1081 C1080 1.386 . S
C1081 C1085 1.393 . S
C1082 H1074 0.950 . S
C1082 C1080 1.391 . S
C1082 C1083 1.400 . S
C1083 C1082 1.400 . S
C1083 C1084 1.398 . S
C1083 C1089 1.491 . S
C1084 H1075 0.950 . S
C1084 C1083 1.398 . S
C1084 C1085 1.391 . S
C1085 H1073 0.950 . S
C1085 C1081 1.393 . S
C1085 C1084 1.391 . S
C1086 H1076 0.950 . S
C1086 C1087 1.386 . S
C1086 C1088 1.391 . S
C1087 C1086 1.386 . S
C1087 C1091 1.393 . S
C1088 H1077 0.950 . S
C1088 C1086 1.391 . S
C1088 C1089 1.400 . S
C1089 C1083 1.491 . S
C1089 C1088 1.400 . S
C1089 C1090 1.398 . S
C1090 H1078 0.950 . S
C1090 C1089 1.398 . S
C1090 C1091 1.391 . S
C1091 H1079 0.950 . S
C1091 C1087 1.393 . S
C1091 C1090 1.391 . S
H1092 C1100 0.950 . S
H1093 C1105 0.950 . S
H1094 C1102 0.950 . S
H1095 C1104 0.950 . S
H1096 C1106 0.950 . S
H1097 C1108 0.950 . S
H1098 C1110 0.950 . S
H1099 C1111 0.945 1_455 S
C1100 H1092 0.950 . S
C1100 C1101 1.386 . S
C1100 C1102 1.391 . S
C1101 C1100 1.386 . S
C1101 C1105 1.393 . S
C1102 H1094 0.950 . S
C1102 C1100 1.391 . S
C1102 C1103 1.400 . S
C1103 C1102 1.400 . S
C1103 C1104 1.398 . S
C1103 C1109 1.491 . S
C1104 H1095 0.950 . S
C1104 C1103 1.398 . S
C1104 C1105 1.391 . S
C1105 H1093 0.950 . S
C1105 C1101 1.393 . S
C1105 C1104 1.391 . S
C1106 H1096 0.950 . S
C1106 C1107 1.386 . S
C1106 C1108 1.391 . S
C1107 C1106 1.386 . S
C1107 C1111 1.393 . S
C1108 H1097 0.950 . S
C1108 C1106 1.391 . S
C1108 C1109 1.400 1_655 S
C1109 C1103 1.491 . S
C1109 C1108 1.400 1_455 S
C1109 C1110 1.398 . S
C1110 H1098 0.950 . S
C1110 C1109 1.398 . S
C1110 C1111 1.391 1_455 S
C1111 H1099 0.945 1_655 S
C1111 C1107 1.393 . S
C1111 C1110 1.391 1_655 S
H1112 C1120 0.950 . S
H1113 C1125 0.950 . S
H1114 C1122 0.950 . S
H1115 C1124 0.950 . S
H1116 C1126 0.950 . S
H1117 C1128 0.950 . S
H1118 C1130 0.950 . S
H1119 C1131 0.950 . S
C1120 H1112 0.950 . S
C1120 C1121 1.386 . S
C1120 C1122 1.391 . S
C1121 C1120 1.386 . S
C1121 C1125 1.393 . S
C1122 H1114 0.950 . S
C1122 C1120 1.391 . S
C1122 C1123 1.400 . S
C1123 C1122 1.400 . S
C1123 C1124 1.398 . S
C1123 C1129 1.491 . S
C1124 H1115 0.950 . S
C1124 C1123 1.398 . S
C1124 C1125 1.391 . S
C1125 H1113 0.950 . S
C1125 C1121 1.393 . S
C1125 C1124 1.391 . S
C1126 H1116 0.950 . S
C1126 C1127 1.386 . S
C1126 C1128 1.391 . S
C1127 C1126 1.386 . S
C1127 C1131 1.393 . S
C1128 H1117 0.950 . S
C1128 C1126 1.391 . S
C1128 C1129 1.400 . S
C1129 C1123 1.491 . S
C1129 C1128 1.400 . S
C1129 C1130 1.398 . S
C1130 H1118 0.950 . S
C1130 C1129 1.398 . S
C1130 C1131 1.391 . S
C1131 H1119 0.950 . S
C1131 C1127 1.393 . S
C1131 C1130 1.391 . S
H1132 C1140 0.950 . S
H1133 C1145 0.950 . S
H1134 C1142 0.950 . S
H1135 C1144 0.950 . S
H1136 C1146 0.950 . S
H1137 C1148 0.950 . S
H1138 C1150 0.950 . S
H1139 C1151 0.950 . S
C1140 H1132 0.950 . S
C1140 C1141 1.386 . S
C1140 C1142 1.391 . S
C1141 C1140 1.386 . S
C1141 C1145 1.393 . S
C1142 H1134 0.950 . S
C1142 C1140 1.391 . S
C1142 C1143 1.400 . S
C1143 C1142 1.400 . S
C1143 C1144 1.398 . S
C1143 C1149 1.491 . S
C1144 H1135 0.950 . S
C1144 C1143 1.398 . S
C1144 C1145 1.391 . S
C1145 H1133 0.950 . S
C1145 C1141 1.393 . S
C1145 C1144 1.391 . S
C1146 H1136 0.950 . S
C1146 C1147 1.386 . S
C1146 C1148 1.391 . S
C1147 C1146 1.386 . S
C1147 C1151 1.393 . S
C1148 H1137 0.950 . S
C1148 C1146 1.391 . S
C1148 C1149 1.400 . S
C1149 C1143 1.491 . S
C1149 C1148 1.400 . S
C1149 C1150 1.398 . S
C1150 H1138 0.950 . S
C1150 C1149 1.398 . S
C1150 C1151 1.391 . S
C1151 H1139 0.950 . S
C1151 C1147 1.393 . S
C1151 C1150 1.391 . S
H1152 C1160 0.950 . S
H1153 C1165 0.950 . S
H1154 C1162 0.950 . S
H1155 C1164 0.950 . S
H1156 C1166 0.950 . S
H1157 C1168 0.950 . S
H1158 C1170 0.950 . S
H1159 C1171 0.950 . S
C1160 H1152 0.950 . S
C1160 C1161 1.386 . S
C1160 C1162 1.391 . S
C1161 C1160 1.386 . S
C1161 C1165 1.393 . S
C1162 H1154 0.950 . S
C1162 C1160 1.391 . S
C1162 C1163 1.400 . S
C1163 C1162 1.400 . S
C1163 C1164 1.398 . S
C1163 C1169 1.491 . S
C1164 H1155 0.950 . S
C1164 C1163 1.398 . S
C1164 C1165 1.391 . S
C1165 H1153 0.950 . S
C1165 C1161 1.393 . S
C1165 C1164 1.391 . S
C1166 H1156 0.950 . S
C1166 C1167 1.386 . S
C1166 C1168 1.391 . S
C1167 C1166 1.386 . S
C1167 C1171 1.393 . S
C1168 H1157 0.950 . S
C1168 C1166 1.391 . S
C1168 C1169 1.400 . S
C1169 C1163 1.491 . S
C1169 C1168 1.400 . S
C1169 C1170 1.398 . S
C1170 H1158 0.950 . S
C1170 C1169 1.398 . S
C1170 C1171 1.391 . S
C1171 H1159 0.950 . S
C1171 C1167 1.393 . S
C1171 C1170 1.391 . S
H1172 C1180 0.950 . S
H1173 C1185 0.950 . S
H1174 C1182 0.950 . S
H1175 C1184 0.950 . S
H1176 C1186 0.950 . S
H1177 C1188 0.950 . S
H1178 C1190 0.950 . S
H1179 C1191 0.950 . S
C1180 H1172 0.950 . S
C1180 C1181 1.386 . S
C1180 C1182 1.391 . S
C1181 C1180 1.386 . S
C1181 C1185 1.393 . S
C1182 H1174 0.950 . S
C1182 C1180 1.391 . S
C1182 C1183 1.400 . S
C1183 C1182 1.400 . S
C1183 C1184 1.398 . S
C1183 C1189 1.491 . S
C1184 H1175 0.950 . S
C1184 C1183 1.398 . S
C1184 C1185 1.391 . S
C1185 H1173 0.950 . S
C1185 C1181 1.393 . S
C1185 C1184 1.391 . S
C1186 H1176 0.950 . S
C1186 C1187 1.386 . S
C1186 C1188 1.391 . S
C1187 C1186 1.386 . S
C1187 C1191 1.393 . S
C1188 H1177 0.950 . S
C1188 C1186 1.391 . S
C1188 C1189 1.400 . S
C1189 C1183 1.491 . S
C1189 C1188 1.400 . S
C1189 C1190 1.398 . S
C1190 H1178 0.950 . S
C1190 C1189 1.398 . S
C1190 C1191 1.391 . S
C1191 H1179 0.950 . S
C1191 C1187 1.393 . S
C1191 C1190 1.391 . S
H1192 C1200 0.950 . S
H1193 C1205 0.950 . S
H1194 C1202 0.950 . S
H1195 C1204 0.950 . S
H1196 C1206 0.950 . S
H1197 C1208 0.950 . S
H1198 C1210 0.950 . S
H1199 C1211 0.950 . S
C1200 H1192 0.950 . S
C1200 C1201 1.386 . S
C1200 C1202 1.391 . S
C1201 C1200 1.386 . S
C1201 C1205 1.393 . S
C1202 H1194 0.950 . S
C1202 C1200 1.391 . S
C1202 C1203 1.400 . S
C1203 C1202 1.400 . S
C1203 C1204 1.398 . S
C1203 C1209 1.491 . S
C1204 H1195 0.950 . S
C1204 C1203 1.398 . S
C1204 C1205 1.391 . S
C1205 H1193 0.950 . S
C1205 C1201 1.393 . S
C1205 C1204 1.391 . S
C1206 H1196 0.950 . S
C1206 C1207 1.386 . S
C1206 C1208 1.391 . S
C1207 C1206 1.386 . S
C1207 C1211 1.393 . S
C1208 H1197 0.950 . S
C1208 C1206 1.391 . S
C1208 C1209 1.400 . S
C1209 C1203 1.491 . S
C1209 C1208 1.400 . S
C1209 C1210 1.398 . S
C1210 H1198 0.950 . S
C1210 C1209 1.398 . S
C1210 C1211 1.391 . S
C1211 H1199 0.950 . S
C1211 C1207 1.393 . S
C1211 C1210 1.391 . S
H1212 C1220 0.950 1_655 S
H1213 C1225 0.950 . S
H1214 C1222 0.950 . S
H1215 C1224 0.950 . S
H1216 C1226 0.950 . S
H1217 C1228 0.950 . S
H1218 C1230 0.950 . S
H1219 C1231 0.950 . S
C1220 H1212 0.950 1_455 S
C1220 C1221 1.386 . S
C1220 C1222 1.391 1_455 S
C1221 C1220 1.386 . S
C1221 C1225 1.393 . S
C1222 H1214 0.950 . S
C1222 C1220 1.391 1_655 S
C1222 C1223 1.400 . S
C1223 C1222 1.400 . S
C1223 C1224 1.398 1_655 S
C1223 C1229 1.491 . S
C1224 H1215 0.950 . S
C1224 C1223 1.398 1_455 S
C1224 C1225 1.391 . S
C1225 H1213 0.950 . S
C1225 C1221 1.393 . S
C1225 C1224 1.391 . S
C1226 H1216 0.950 . S
C1226 C1227 1.386 . S
C1226 C1228 1.391 . S
C1227 C1226 1.386 . S
C1227 C1231 1.393 . S
C1228 H1217 0.950 . S
C1228 C1226 1.391 . S
C1228 C1229 1.400 . S
C1229 C1223 1.491 . S
C1229 C1228 1.400 . S
C1229 C1230 1.398 . S
C1230 H1218 0.950 . S
C1230 C1229 1.398 . S
C1230 C1231 1.391 . S
C1231 H1219 0.950 . S
C1231 C1227 1.393 . S
C1231 C1230 1.391 . S
H1232 C1240 0.950 . S
H1233 C1245 0.950 . S
H1234 C1242 0.950 . S
H1235 C1244 0.950 . S
H1236 C1246 0.950 . S
H1237 C1248 0.950 . S
H1238 C1250 0.950 . S
H1239 C1251 0.950 . S
C1240 H1232 0.950 . S
C1240 C1241 1.386 . S
C1240 C1242 1.391 . S
C1241 C1240 1.386 . S
C1241 C1245 1.393 . S
C1242 H1234 0.950 . S
C1242 C1240 1.391 . S
C1242 C1243 1.400 . S
C1243 C1242 1.400 . S
C1243 C1244 1.398 . S
C1243 C1249 1.491 . S
C1244 H1235 0.950 . S
C1244 C1243 1.398 . S
C1244 C1245 1.391 . S
C1245 H1233 0.950 . S
C1245 C1241 1.393 . S
C1245 C1244 1.391 . S
C1246 H1236 0.950 . S
C1246 C1247 1.386 . S
C1246 C1248 1.391 . S
C1247 C1246 1.386 . S
C1247 C1251 1.393 . S
C1248 H1237 0.950 . S
C1248 C1246 1.391 . S
C1248 C1249 1.400 . S
C1249 C1243 1.491 . S
C1249 C1248 1.400 . S
C1249 C1250 1.398 . S
C1250 H1238 0.950 . S
C1250 C1249 1.398 . S
C1250 C1251 1.391 . S
C1251 H1239 0.950 . S
C1251 C1247 1.393 . S
C1251 C1250 1.391 . S
H1252 C1260 0.950 . S
H1253 C1265 0.950 . S
H1254 C1262 0.950 . S
H1255 C1264 0.950 . S
H1256 C1266 0.950 . S
H1257 C1268 0.950 . S
H1258 C1270 0.950 . S
H1259 C1271 0.950 . S
C1260 H1252 0.950 . S
C1260 C1261 1.386 . S
C1260 C1262 1.391 . S
C1261 C1260 1.386 . S
C1261 C1265 1.393 . S
C1262 H1254 0.950 . S
C1262 C1260 1.391 . S
C1262 C1263 1.400 . S
C1263 C1262 1.400 . S
C1263 C1264 1.398 . S
C1263 C1269 1.491 . S
C1264 H1255 0.950 . S
C1264 C1263 1.398 . S
C1264 C1265 1.391 . S
C1265 H1253 0.950 . S
C1265 C1261 1.393 . S
C1265 C1264 1.391 . S
C1266 H1256 0.950 . S
C1266 C1267 1.386 . S
C1266 C1268 1.391 . S
C1267 C1266 1.386 . S
C1267 C1271 1.393 . S
C1268 H1257 0.950 . S
C1268 C1266 1.391 . S
C1268 C1269 1.400 1_455 S
C1269 C1263 1.491 . S
C1269 C1268 1.400 1_655 S
C1269 C1270 1.398 . S
C1270 H1258 0.950 . S
C1270 C1269 1.398 . S
C1270 C1271 1.391 1_655 S
C1271 H1259 0.950 . S
C1271 C1267 1.393 . S
C1271 C1270 1.391 1_455 S
H1272 C1280 0.950 . S
H1273 C1285 0.950 . S
H1274 C1282 0.950 . S
H1275 C1284 0.950 . S
H1276 C1286 0.950 . S
H1277 C1288 0.950 . S
H1278 C1290 0.950 . S
H1279 C1291 0.950 . S
C1280 H1272 0.950 . S
C1280 C1281 1.386 . S
C1280 C1282 1.391 . S
C1281 C1280 1.386 . S
C1281 C1285 1.393 . S
C1282 H1274 0.950 . S
C1282 C1280 1.391 . S
C1282 C1283 1.400 . S
C1283 C1282 1.400 . S
C1283 C1284 1.398 . S
C1283 C1289 1.491 . S
C1284 H1275 0.950 . S
C1284 C1283 1.398 . S
C1284 C1285 1.391 . S
C1285 H1273 0.950 . S
C1285 C1281 1.393 . S
C1285 C1284 1.391 . S
C1286 H1276 0.950 . S
C1286 C1287 1.386 . S
C1286 C1288 1.391 . S
C1287 C1286 1.386 . S
C1287 C1291 1.393 . S
C1288 H1277 0.950 . S
C1288 C1286 1.391 . S
C1288 C1289 1.400 . S
C1289 C1283 1.491 . S
C1289 C1288 1.400 . S
C1289 C1290 1.398 . S
C1290 H1278 0.950 . S
C1290 C1289 1.398 . S
C1290 C1291 1.391 . S
C1291 H1279 0.950 . S
C1291 C1287 1.393 . S
C1291 C1290 1.391 . S
H1292 C1300 0.950 . S
H1293 C1305 0.950 . S
H1294 C1302 0.950 . S
H1295 C1304 0.950 . S
H1296 C1306 0.950 . S
H1297 C1308 0.950 . S
H1298 C1310 0.950 . S
H1299 C1311 0.950 . S
C1300 H1292 0.950 . S
C1300 C1301 1.386 . S
C1300 C1302 1.391 . S
C1301 C1300 1.386 . S
C1301 C1305 1.393 . S
C1302 H1294 0.950 . S
C1302 C1300 1.391 . S
C1302 C1303 1.400 . S
C1303 C1302 1.400 . S
C1303 C1304 1.398 . S
C1303 C1309 1.491 . S
C1304 H1295 0.950 . S
C1304 C1303 1.398 . S
C1304 C1305 1.391 . S
C1305 H1293 0.950 . S
C1305 C1301 1.393 . S
C1305 C1304 1.391 . S
C1306 H1296 0.950 . S
C1306 C1307 1.386 . S
C1306 C1308 1.391 . S
C1307 C1306 1.386 . S
C1307 C1311 1.393 . S
C1308 H1297 0.950 . S
C1308 C1306 1.391 . S
C1308 C1309 1.400 . S
C1309 C1303 1.491 . S
C1309 C1308 1.400 . S
C1309 C1310 1.398 . S
C1310 H1298 0.950 . S
C1310 C1309 1.398 . S
C1310 C1311 1.391 . S
C1311 H1299 0.950 . S
C1311 C1307 1.393 . S
C1311 C1310 1.391 . S
H1312 C1320 0.950 . S
H1313 C1325 0.950 . S
H1314 C1322 0.935 1_655 S
H1315 C1324 0.950 . S
H1316 C1326 0.950 . S
H1317 C1328 0.935 1_455 S
H1318 C1330 0.950 . S
H1319 C1331 0.950 . S
C1320 H1312 0.950 . S
C1320 C1321 1.386 . S
C1320 C1322 1.391 . S
C1321 C1320 1.386 . S
C1321 C1325 1.393 . S
C1322 H1314 0.935 1_455 S
C1322 C1320 1.391 . S
C1322 C1323 1.400 . S
C1323 C1322 1.400 . S
C1323 C1324 1.398 . S
C1323 C1329 1.491 1_455 S
C1324 H1315 0.950 . S
C1324 C1323 1.398 . S
C1324 C1325 1.391 . S
C1325 H1313 0.950 . S
C1325 C1321 1.393 . S
C1325 C1324 1.391 . S
C1326 H1316 0.950 . S
C1326 C1327 1.386 . S
C1326 C1328 1.391 . S
C1327 C1326 1.386 . S
C1327 C1331 1.393 . S
C1328 H1317 0.935 1_655 S
C1328 C1326 1.391 . S
C1328 C1329 1.400 . S
C1329 C1323 1.491 1_655 S
C1329 C1328 1.400 . S
C1329 C1330 1.398 . S
C1330 H1318 0.950 . S
C1330 C1329 1.398 . S
C1330 C1331 1.391 . S
C1331 H1319 0.950 . S
C1331 C1327 1.393 . S
C1331 C1330 1.391 . S
H1332 C1340 0.958 . S
H1333 C1345 0.950 . S
H1334 C1342 0.950 . S
H1335 C1344 0.950 . S
H1336 C1346 0.958 . S
H1337 C1348 0.950 . S
H1338 C1350 0.950 . S
H1339 C1351 0.950 . S
C1340 H1332 0.958 . S
C1340 C1341 1.386 . S
C1340 C1342 1.391 1_655 S
C1341 C1340 1.386 . S
C1341 C1345 1.393 . S
C1342 H1334 0.950 . S
C1342 C1340 1.391 1_455 S
C1342 C1343 1.400 1_455 S
C1343 C1342 1.400 1_655 S
C1343 C1344 1.398 . S
C1343 C1349 1.491 1_655 S
C1344 H1335 0.950 . S
C1344 C1343 1.398 . S
C1344 C1345 1.391 . S
C1345 H1333 0.950 . S
C1345 C1341 1.393 . S
C1345 C1344 1.391 . S
C1346 H1336 0.958 . S
C1346 C1347 1.386 . S
C1346 C1348 1.391 1_455 S
C1347 C1346 1.386 . S
C1347 C1351 1.393 . S
C1348 H1337 0.950 . S
C1348 C1346 1.391 1_655 S
C1348 C1349 1.400 1_655 S
C1349 C1343 1.491 1_455 S
C1349 C1348 1.400 1_455 S
C1349 C1350 1.398 . S
C1350 H1338 0.950 . S
C1350 C1349 1.398 . S
C1350 C1351 1.391 . S
C1351 H1339 0.950 . S
C1351 C1347 1.393 . S
C1351 C1350 1.391 . S
H1352 C1360 0.950 . S
H1353 C1365 0.950 . S
H1354 C1362 0.950 . S
H1355 C1364 0.950 . S
H1356 C1366 0.950 . S
H1357 C1368 0.950 . S
H1358 C1370 0.950 . S
H1359 C1371 0.950 . S
C1360 H1352 0.950 . S
C1360 C1361 1.386 . S
C1360 C1362 1.391 . S
C1361 C1360 1.386 . S
C1361 C1365 1.393 . S
C1362 H1354 0.950 . S
C1362 C1360 1.391 . S
C1362 C1363 1.400 . S
C1363 C1362 1.400 . S
C1363 C1364 1.398 . S
C1363 C1369 1.491 . S
C1364 H1355 0.950 . S
C1364 C1363 1.398 . S
C1364 C1365 1.391 . S
C1365 H1353 0.950 . S
C1365 C1361 1.393 . S
C1365 C1364 1.391 . S
C1366 H1356 0.950 . S
C1366 C1367 1.386 . S
C1366 C1368 1.391 . S
C1367 C1366 1.386 . S
C1367 C1371 1.393 . S
C1368 H1357 0.950 . S
C1368 C1366 1.391 . S
C1368 C1369 1.400 . S
C1369 C1363 1.491 . S
C1369 C1368 1.400 . S
C1369 C1370 1.398 . S
C1370 H1358 0.950 . S
C1370 C1369 1.398 . S
C1370 C1371 1.391 . S
C1371 H1359 0.950 . S
C1371 C1367 1.393 . S
C1371 C1370 1.391 . S
H1372 C1380 0.950 . S
H1373 C1385 0.950 . S
H1374 C1382 0.950 . S
H1375 C1384 0.950 . S
H1376 C1386 0.950 . S
H1377 C1388 0.950 . S
H1378 C1390 0.950 . S
H1379 C1391 0.950 . S
C1380 H1372 0.950 . S
C1380 C1381 1.386 . S
C1380 C1382 1.391 . S
C1381 C1380 1.386 . S
C1381 C1385 1.393 . S
C1382 H1374 0.950 . S
C1382 C1380 1.391 . S
C1382 C1383 1.400 . S
C1383 C1382 1.400 . S
C1383 C1384 1.398 . S
C1383 C1389 1.491 . S
C1384 H1375 0.950 . S
C1384 C1383 1.398 . S
C1384 C1385 1.391 . S
C1385 H1373 0.950 . S
C1385 C1381 1.393 . S
C1385 C1384 1.391 . S
C1386 H1376 0.950 . S
C1386 C1387 1.386 . S
C1386 C1388 1.391 . S
C1387 C1386 1.386 . S
C1387 C1391 1.393 . S
C1388 H1377 0.950 . S
C1388 C1386 1.391 . S
C1388 C1389 1.400 . S
C1389 C1383 1.491 . S
C1389 C1388 1.400 . S
C1389 C1390 1.398 . S
C1390 H1378 0.950 . S
C1390 C1389 1.398 . S
C1390 C1391 1.391 . S
C1391 H1379 0.950 . S
C1391 C1387 1.393 . S
C1391 C1390 1.391 . S
H1392 C1400 0.950 . S
H1393 C1405 0.950 . S
H1394 C1402 0.950 . S
H1395 C1404 0.951 1_455 S
H1396 C1406 0.950 . S
H1397 C1408 0.950 . S
H1398 C1410 0.950 1_655 S
H1399 C1411 0.950 . S
C1400 H1392 0.950 . S
C1400 C1401 1.386 . S
C1400 C1402 1.391 . S
C1401 C1400 1.386 . S
C1401 C1405 1.393 . S
C1402 H1394 0.950 . S
C1402 C1400 1.391 . S
C1402 C1403 1.400 . S
C1403 C1402 1.400 . S
C1403 C1404 1.398 . S
C1403 C1409 1.491 1_655 S
C1404 H1395 0.951 1_655 S
C1404 C1403 1.398 . S
C1404 C1405 1.391 . S
C1405 H1393 0.950 . S
C1405 C1401 1.393 . S
C1405 C1404 1.391 . S
C1406 H1396 0.950 . S
C1406 C1407 1.386 . S
C1406 C1408 1.391 . S
C1407 C1406 1.386 . S
C1407 C1411 1.393 . S
C1408 H1397 0.950 . S
C1408 C1406 1.391 . S
C1408 C1409 1.400 . S
C1409 C1403 1.491 1_455 S
C1409 C1408 1.400 . S
C1409 C1410 1.398 . S
C1410 H1398 0.950 1_455 S
C1410 C1409 1.398 . S
C1410 C1411 1.391 . S
C1411 H1399 0.950 . S
C1411 C1407 1.393 . S
C1411 C1410 1.391 . S
H1412 C1420 0.950 . S
H1413 C1425 0.950 . S
H1414 C1422 0.950 . S
H1415 C1424 0.950 . S
H1416 C1426 0.950 . S
H1417 C1428 0.950 . S
H1418 C1430 0.950 . S
H1419 C1431 0.950 . S
C1420 H1412 0.950 . S
C1420 C1421 1.386 . S
C1420 C1422 1.391 . S
C1421 C1420 1.386 . S
C1421 C1425 1.393 . S
C1422 H1414 0.950 . S
C1422 C1420 1.391 . S
C1422 C1423 1.400 . S
C1423 C1422 1.400 . S
C1423 C1424 1.398 . S
C1423 C1429 1.491 . S
C1424 H1415 0.950 . S
C1424 C1423 1.398 . S
C1424 C1425 1.391 . S
C1425 H1413 0.950 . S
C1425 C1421 1.393 . S
C1425 C1424 1.391 . S
C1426 H1416 0.950 . S
C1426 C1427 1.386 . S
C1426 C1428 1.391 . S
C1427 C1426 1.386 . S
C1427 C1431 1.393 . S
C1428 H1417 0.950 . S
C1428 C1426 1.391 . S
C1428 C1429 1.400 . S
C1429 C1423 1.491 . S
C1429 C1428 1.400 . S
C1429 C1430 1.398 . S
C1430 H1418 0.950 . S
C1430 C1429 1.398 . S
C1430 C1431 1.391 . S
C1431 H1419 0.950 . S
C1431 C1427 1.393 . S
C1431 C1430 1.391 . S
H1432 C1440 0.950 . S
H1433 C1445 0.950 . S
H1434 C1442 0.950 . S
H1435 C1444 0.950 . S
H1436 C1446 0.950 . S
H1437 C1448 0.950 . S
H1438 C1450 0.950 . S
H1439 C1451 0.950 . S
C1440 H1432 0.950 . S
C1440 C1441 1.386 . S
C1440 C1442 1.391 . S
C1441 C1440 1.386 . S
C1441 C1445 1.393 . S
C1442 H1434 0.950 . S
C1442 C1440 1.391 . S
C1442 C1443 1.400 . S
C1443 C1442 1.400 . S
C1443 C1444 1.398 . S
C1443 C1449 1.491 . S
C1444 H1435 0.950 . S
C1444 C1443 1.398 . S
C1444 C1445 1.391 . S
C1445 H1433 0.950 . S
C1445 C1441 1.393 . S
C1445 C1444 1.391 . S
C1446 H1436 0.950 . S
C1446 C1447 1.386 . S
C1446 C1448 1.391 . S
C1447 C1446 1.386 . S
C1447 C1451 1.393 . S
C1448 H1437 0.950 . S
C1448 C1446 1.391 . S
C1448 C1449 1.400 . S
C1449 C1443 1.491 . S
C1449 C1448 1.400 . S
C1449 C1450 1.398 . S
C1450 H1438 0.950 . S
C1450 C1449 1.398 . S
C1450 C1451 1.391 . S
C1451 H1439 0.950 . S
C1451 C1447 1.393 . S
C1451 C1450 1.391 . S
H1452 C1460 0.950 . S
H1453 C1465 0.950 1_655 S
H1454 C1462 0.950 . S
H1455 C1464 0.950 . S
H1456 C1466 0.950 . S
H1457 C1468 0.950 . S
H1458 C1470 0.950 . S
H1459 C1471 0.950 1_455 S
C1460 H1452 0.950 . S
C1460 C1461 1.386 . S
C1460 C1462 1.391 . S
C1461 C1460 1.386 . S
C1461 C1465 1.393 . S
C1462 H1454 0.950 . S
C1462 C1460 1.391 . S
C1462 C1463 1.400 . S
C1463 C1462 1.400 . S
C1463 C1464 1.398 1_455 S
C1463 C1469 1.491 1_455 S
C1464 H1455 0.950 . S
C1464 C1463 1.398 1_655 S
C1464 C1465 1.391 1_655 S
C1465 H1453 0.950 1_455 S
C1465 C1461 1.393 . S
C1465 C1464 1.391 1_455 S
C1466 H1456 0.950 . S
C1466 C1467 1.386 . S
C1466 C1468 1.391 . S
C1467 C1466 1.386 . S
C1467 C1471 1.393 . S
C1468 H1457 0.950 . S
C1468 C1466 1.391 . S
C1468 C1469 1.400 . S
C1469 C1463 1.491 1_655 S
C1469 C1468 1.400 . S
C1469 C1470 1.398 1_655 S
C1470 H1458 0.950 . S
C1470 C1469 1.398 1_455 S
C1470 C1471 1.391 1_455 S
C1471 H1459 0.950 1_655 S
C1471 C1467 1.393 . S
C1471 C1470 1.391 1_655 S
H1472 C1480 0.950 . S
H1473 C1485 0.950 . S
H1474 C1482 0.949 1_655 S
H1475 C1484 0.950 . S
H1476 C1486 0.950 . S
H1477 C1488 0.949 1_455 S
H1478 C1490 0.950 . S
H1479 C1491 0.950 . S
C1480 H1472 0.950 . S
C1480 C1481 1.386 . S
C1480 C1482 1.391 . S
C1481 C1480 1.386 . S
C1481 C1485 1.393 . S
C1482 H1474 0.949 1_455 S
C1482 C1480 1.391 . S
C1482 C1483 1.400 . S
C1483 C1482 1.400 . S
C1483 C1484 1.398 . S
C1483 C1489 1.491 1_455 S
C1484 H1475 0.950 . S
C1484 C1483 1.398 . S
C1484 C1485 1.391 . S
C1485 H1473 0.950 . S
C1485 C1481 1.393 . S
C1485 C1484 1.391 . S
C1486 H1476 0.950 . S
C1486 C1487 1.386 . S
C1486 C1488 1.391 . S
C1487 C1486 1.386 . S
C1487 C1491 1.393 . S
C1488 H1477 0.949 1_655 S
C1488 C1486 1.391 . S
C1488 C1489 1.400 . S
C1489 C1483 1.491 1_655 S
C1489 C1488 1.400 . S
C1489 C1490 1.398 . S
C1490 H1478 0.950 . S
C1490 C1489 1.398 . S
C1490 C1491 1.391 . S
C1491 H1479 0.950 . S
C1491 C1487 1.393 . S
C1491 C1490 1.391 . S
H1492 C1500 0.948 1_455 S
H1493 C1505 0.950 . S
H1494 C1502 0.950 . S
H1495 C1504 0.950 . S
H1496 C1506 0.948 1_655 S
H1497 C1508 0.950 . S
H1498 C1510 0.950 . S
H1499 C1511 0.950 . S
C1500 H1492 0.948 1_655 S
C1500 C1501 1.386 . S
C1500 C1502 1.391 1_655 S
C1501 C1500 1.386 . S
C1501 C1505 1.393 . S
C1502 H1494 0.950 . S
C1502 C1500 1.391 1_455 S
C1502 C1503 1.400 1_455 S
C1503 C1502 1.400 1_655 S
C1503 C1504 1.398 . S
C1503 C1509 1.491 1_655 S
C1504 H1495 0.950 . S
C1504 C1503 1.398 . S
C1504 C1505 1.391 . S
C1505 H1493 0.950 . S
C1505 C1501 1.393 . S
C1505 C1504 1.391 . S
C1506 H1496 0.948 1_455 S
C1506 C1507 1.386 . S
C1506 C1508 1.391 1_455 S
C1507 C1506 1.386 . S
C1507 C1511 1.393 . S
C1508 H1497 0.950 . S
C1508 C1506 1.391 1_655 S
C1508 C1509 1.400 1_655 S
C1509 C1503 1.491 1_455 S
C1509 C1508 1.400 1_455 S
C1509 C1510 1.398 . S
C1510 H1498 0.950 . S
C1510 C1509 1.398 . S
C1510 C1511 1.391 . S
C1511 H1499 0.950 . S
C1511 C1507 1.393 . S
C1511 C1510 1.391 . S
H1512 C1520 0.950 . S
H1513 C1525 0.950 . S
H1514 C1522 0.950 . S
H1515 C1524 0.950 . S
H1516 C1526 0.950 . S
H1517 C1528 0.950 . S
H1518 C1530 0.950 . S
H1519 C1531 0.950 . S
C1520 H1512 0.950 . S
C1520 C1521 1.386 . S
C1520 C1522 1.391 . S
C1521 C1520 1.386 . S
C1521 C1525 1.393 . S
C1522 H1514 0.950 . S
C1522 C1520 1.391 . S
C1522 C1523 1.400 . S
C1523 C1522 1.400 . S
C1523 C1524 1.398 . S
C1523 C1529 1.491 . S
C1524 H1515 0.950 . S
C1524 C1523 1.398 . S
C1524 C1525 1.391 . S
C1525 H1513 0.950 . S
C1525 C1521 1.393 . S
C1525 C1524 1.391 . S
C1526 H1516 0.950 . S
C1526 C1527 1.386 . S
C1526 C1528 1.391 . S
C1527 C1526 1.386 . S
C1527 C1531 1.393 . S
C1528 H1517 0.950 . S
C1528 C1526 1.391 . S
C1528 C1529 1.400 . S
C1529 C1523 1.491 . S
C1529 C1528 1.400 . S
C1529 C1530 1.398 . S
C1530 H1518 0.950 . S
C1530 C1529 1.398 . S
C1530 C1531 1.391 . S
C1531 H1519 0.950 . S
C1531 C1527 1.393 . S
C1531 C1530 1.391 . S
H1532 C1540 0.950 . S
H1533 C1545 0.950 . S
H1534 C1542 0.950 . S
H1535 C1544 0.950 . S
H1536 C1546 0.950 . S
H1537 C1548 0.950 . S
H1538 C1550 0.950 . S
H1539 C1551 0.950 . S
C1540 H1532 0.950 . S
C1540 C1541 1.386 . S
C1540 C1542 1.391 . S
C1541 C1540 1.386 . S
C1541 C1545 1.393 . S
C1542 H1534 0.950 . S
C1542 C1540 1.391 . S
C1542 C1543 1.400 . S
C1543 C1542 1.400 . S
C1543 C1544 1.398 . S
C1543 C1549 1.491 . S
C1544 H1535 0.950 . S
C1544 C1543 1.398 . S
C1544 C1545 1.391 . S
C1545 H1533 0.950 . S
C1545 C1541 1.393 . S
C1545 C1544 1.391 . S
C1546 H1536 0.950 . S
C1546 C1547 1.386 . S
C1546 C1548 1.391 . S
C1547 C1546 1.386 . S
C1547 C1551 1.393 . S
C1548 H1537 0.950 . S
C1548 C1546 1.391 . S
C1548 C1549 1.400 . S
C1549 C1543 1.491 . S
C1549 C1548 1.400 . S
C1549 C1550 1.398 . S
C1550 H1538 0.950 . S
C1550 C1549 1.398 . S
C1550 C1551 1.391 . S
C1551 H1539 0.950 . S
C1551 C1547 1.393 . S
C1551 C1550 1.391 . S
H1552 C1560 0.950 . S
H1553 C1565 0.950 . S
H1554 C1562 0.950 1_655 S
H1555 C1564 0.950 . S
H1556 C1566 0.950 . S
H1557 C1568 0.950 1_455 S
H1558 C1570 0.950 . S
H1559 C1571 0.950 . S
C1560 H1552 0.950 . S
C1560 C1561 1.386 . S
C1560 C1562 1.391 . S
C1561 C1560 1.386 . S
C1561 C1565 1.393 . S
C1562 H1554 0.950 1_455 S
C1562 C1560 1.391 . S
C1562 C1563 1.400 . S
C1563 C1562 1.400 . S
C1563 C1564 1.398 . S
C1563 C1569 1.491 1_455 S
C1564 H1555 0.950 . S
C1564 C1563 1.398 . S
C1564 C1565 1.391 . S
C1565 H1553 0.950 . S
C1565 C1561 1.393 . S
C1565 C1564 1.391 . S
C1566 H1556 0.950 . S
C1566 C1567 1.386 . S
C1566 C1568 1.391 . S
C1567 C1566 1.386 . S
C1567 C1571 1.393 . S
C1568 H1557 0.950 1_655 S
C1568 C1566 1.391 . S
C1568 C1569 1.400 . S
C1569 C1563 1.491 1_655 S
C1569 C1568 1.400 . S
C1569 C1570 1.398 . S
C1570 H1558 0.950 . S
C1570 C1569 1.398 . S
C1570 C1571 1.391 . S
C1571 H1559 0.950 . S
C1571 C1567 1.393 . S
C1571 C1570 1.391 . S
H1572 C1580 0.950 . S
H1573 C1585 0.950 . S
H1574 C1582 0.950 . S
H1575 C1584 0.950 . S
H1576 C1586 0.950 . S
H1577 C1588 0.950 . S
H1578 C1590 0.950 . S
H1579 C1591 0.950 . S
C1580 H1572 0.950 . S
C1580 C1581 1.386 . S
C1580 C1582 1.391 . S
C1581 C1580 1.386 . S
C1581 C1585 1.393 . S
C1582 H1574 0.950 . S
C1582 C1580 1.391 . S
C1582 C1583 1.400 . S
C1583 C1582 1.400 . S
C1583 C1584 1.398 . S
C1583 C1589 1.491 . S
C1584 H1575 0.950 . S
C1584 C1583 1.398 . S
C1584 C1585 1.391 . S
C1585 H1573 0.950 . S
C1585 C1581 1.393 . S
C1585 C1584 1.391 . S
C1586 H1576 0.950 . S
C1586 C1587 1.386 . S
C1586 C1588 1.391 . S
C1587 C1586 1.386 . S
C1587 C1591 1.393 . S
C1588 H1577 0.950 . S
C1588 C1586 1.391 . S
C1588 C1589 1.400 . S
C1589 C1583 1.491 . S
C1589 C1588 1.400 . S
C1589 C1590 1.398 . S
C1590 H1578 0.950 . S
C1590 C1589 1.398 . S
C1590 C1591 1.391 . S
C1591 H1579 0.950 . S
C1591 C1587 1.393 . S
C1591 C1590 1.391 . S
H1592 C1600 0.950 . S
H1593 C1605 0.950 . S
H1594 C1602 0.950 . S
H1595 C1604 0.950 . S
H1596 C1606 0.950 . S
H1597 C1608 0.950 . S
H1598 C1610 0.950 . S
H1599 C1611 0.950 . S
C1600 H1592 0.950 . S
C1600 C1601 1.386 . S
C1600 C1602 1.391 . S
C1601 C1600 1.386 . S
C1601 C1605 1.393 . S
C1602 H1594 0.950 . S
C1602 C1600 1.391 . S
C1602 C1603 1.400 . S
C1603 C1602 1.400 . S
C1603 C1604 1.398 . S
C1603 C1609 1.491 . S
C1604 H1595 0.950 . S
C1604 C1603 1.398 . S
C1604 C1605 1.391 . S
C1605 H1593 0.950 . S
C1605 C1601 1.393 . S
C1605 C1604 1.391 . S
C1606 H1596 0.950 . S
C1606 C1607 1.386 . S
C1606 C1608 1.391 . S
C1607 C1606 1.386 . S
C1607 C1611 1.393 . S
C1608 H1597 0.950 . S
C1608 C1606 1.391 . S
C1608 C1609 1.400 . S
C1609 C1603 1.491 . S
C1609 C1608 1.400 . S
C1609 C1610 1.398 . S
C1610 H1598 0.950 . S
C1610 C1609 1.398 . S
C1610 C1611 1.391 . S
C1611 H1599 0.950 . S
C1611 C1607 1.393 . S
C1611 C1610 1.391 . S
H1612 C1620 0.950 . S
H1613 C1625 0.950 . S
H1614 C1622 0.950 . S
H1615 C1624 0.950 . S
H1616 C1626 0.950 . S
H1617 C1628 0.950 . S
H1618 C1630 0.950 . S
H1619 C1631 0.950 . S
C1620 H1612 0.950 . S
C1620 C1621 1.386 . S
C1620 C1622 1.391 1_655 S
C1621 C1620 1.386 . S
C1621 C1625 1.393 . S
C1622 H1614 0.950 . S
C1622 C1620 1.391 1_455 S
C1622 C1623 1.400 1_455 S
C1623 C1622 1.400 1_655 S
C1623 C1624 1.398 . S
C1623 C1629 1.491 1_655 S
C1624 H1615 0.950 . S
C1624 C1623 1.398 . S
C1624 C1625 1.391 . S
C1625 H1613 0.950 . S
C1625 C1621 1.393 . S
C1625 C1624 1.391 . S
C1626 H1616 0.950 . S
C1626 C1627 1.386 . S
C1626 C1628 1.391 1_455 S
C1627 C1626 1.386 . S
C1627 C1631 1.393 . S
C1628 H1617 0.950 . S
C1628 C1626 1.391 1_655 S
C1628 C1629 1.400 1_655 S
C1629 C1623 1.491 1_455 S
C1629 C1628 1.400 1_455 S
C1629 C1630 1.398 . S
C1630 H1618 0.950 . S
C1630 C1629 1.398 . S
C1630 C1631 1.391 . S
C1631 H1619 0.950 . S
C1631 C1627 1.393 . S
C1631 C1630 1.391 . S
H1632 C1640 0.950 . S
H1633 C1645 0.950 . S
H1634 C1642 0.950 . S
H1635 C1644 0.950 . S
H1636 C1646 0.950 . S
H1637 C1648 0.950 . S
H1638 C1650 0.950 . S
H1639 C1651 0.950 . S
C1640 H1632 0.950 . S
C1640 C1641 1.386 . S
C1640 C1642 1.391 . S
C1641 C1640 1.386 . S
C1641 C1645 1.393 . S
C1642 H1634 0.950 . S
C1642 C1640 1.391 . S
C1642 C1643 1.400 . S
C1643 C1642 1.400 . S
C1643 C1644 1.398 . S
C1643 C1649 1.491 . S
C1644 H1635 0.950 . S
C1644 C1643 1.398 . S
C1644 C1645 1.391 . S
C1645 H1633 0.950 . S
C1645 C1641 1.393 . S
C1645 C1644 1.391 . S
C1646 H1636 0.950 . S
C1646 C1647 1.386 . S
C1646 C1648 1.391 . S
C1647 C1646 1.386 . S
C1647 C1651 1.393 . S
C1648 H1637 0.950 . S
C1648 C1646 1.391 . S
C1648 C1649 1.400 . S
C1649 C1643 1.491 . S
C1649 C1648 1.400 . S
C1649 C1650 1.398 . S
C1650 H1638 0.950 . S
C1650 C1649 1.398 . S
C1650 C1651 1.391 . S
C1651 H1639 0.950 . S
C1651 C1647 1.393 . S
C1651 C1650 1.391 . S
H1652 C1660 0.950 . S
H1653 C1665 0.950 . S
H1654 C1662 0.950 1_455 S
H1655 C1664 0.950 . S
H1656 C1666 0.950 . S
H1657 C1668 0.950 1_655 S
H1658 C1670 0.950 . S
H1659 C1671 0.950 . S
C1660 H1652 0.950 . S
C1660 C1661 1.386 . S
C1660 C1662 1.391 . S
C1661 C1660 1.386 . S
C1661 C1665 1.393 . S
C1662 H1654 0.950 1_655 S
C1662 C1660 1.391 . S
C1662 C1663 1.400 . S
C1663 C1662 1.400 . S
C1663 C1664 1.398 . S
C1663 C1669 1.491 1_645 S
C1664 H1655 0.950 . S
C1664 C1663 1.398 . S
C1664 C1665 1.391 . S
C1665 H1653 0.950 . S
C1665 C1661 1.393 . S
C1665 C1664 1.391 . S
C1666 H1656 0.950 . S
C1666 C1667 1.386 . S
C1666 C1668 1.391 . S
C1667 C1666 1.386 . S
C1667 C1671 1.393 . S
C1668 H1657 0.950 1_455 S
C1668 C1666 1.391 . S
C1668 C1669 1.400 . S
C1669 C1663 1.491 1_465 S
C1669 C1668 1.400 . S
C1669 C1670 1.398 . S
C1670 H1658 0.950 . S
C1670 C1669 1.398 . S
C1670 C1671 1.391 . S
C1671 H1659 0.950 . S
C1671 C1667 1.393 . S
C1671 C1670 1.391 . S
H1672 C1680 0.950 . S
H1673 C1685 0.950 . S
H1674 C1682 0.950 . S
H1675 C1684 0.950 . S
H1676 C1686 0.950 . S
H1677 C1688 0.950 . S
H1678 C1690 0.950 . S
H1679 C1691 0.950 . S
C1680 H1672 0.950 . S
C1680 C1681 1.386 . S
C1680 C1682 1.391 . S
C1681 C1680 1.386 . S
C1681 C1685 1.393 . S
C1682 H1674 0.950 . S
C1682 C1680 1.391 . S
C1682 C1683 1.400 . S
C1683 C1682 1.400 . S
C1683 C1684 1.398 . S
C1683 C1689 1.491 . S
C1684 H1675 0.950 . S
C1684 C1683 1.398 . S
C1684 C1685 1.391 . S
C1685 H1673 0.950 . S
C1685 C1681 1.393 . S
C1685 C1684 1.391 . S
C1686 H1676 0.950 . S
C1686 C1687 1.386 . S
C1686 C1688 1.391 . S
C1687 C1686 1.386 . S
C1687 C1691 1.393 . S
C1688 H1677 0.950 . S
C1688 C1686 1.391 . S
C1688 C1689 1.400 . S
C1689 C1683 1.491 . S
C1689 C1688 1.400 . S
C1689 C1690 1.398 . S
C1690 H1678 0.950 . S
C1690 C1689 1.398 . S
C1690 C1691 1.391 . S
C1691 H1679 0.950 . S
C1691 C1687 1.393 . S
C1691 C1690 1.391 . S
H1692 C1700 0.950 . S
H1693 C1705 0.950 . S
H1694 C1702 0.963 1_556 S
H1695 C1704 0.950 . S
H1696 C1706 0.950 . S
H1697 C1708 0.963 1_554 S
H1698 C1710 0.950 . S
H1699 C1711 0.950 . S
C1700 H1692 0.950 . S
C1700 C1701 1.386 . S
C1700 C1702 1.391 . S
C1701 C1700 1.386 . S
C1701 C1705 1.393 . S
C1702 H1694 0.963 1_554 S
C1702 C1700 1.391 . S
C1702 C1703 1.400 . S
C1703 C1702 1.400 . S
C1703 C1704 1.398 . S
C1703 C1709 1.491 1_544 S
C1704 H1695 0.950 . S
C1704 C1703 1.398 . S
C1704 C1705 1.391 . S
C1705 H1693 0.950 . S
C1705 C1701 1.393 . S
C1705 C1704 1.391 . S
C1706 H1696 0.950 . S
C1706 C1707 1.386 . S
C1706 C1708 1.391 . S
C1707 C1706 1.386 . S
C1707 C1711 1.393 . S
C1708 H1697 0.963 1_556 S
C1708 C1706 1.391 . S
C1708 C1709 1.400 . S
C1709 C1703 1.491 1_566 S
C1709 C1708 1.400 . S
C1709 C1710 1.398 . S
C1710 H1698 0.950 . S
C1710 C1709 1.398 . S
C1710 C1711 1.391 . S
C1711 H1699 0.950 . S
C1711 C1707 1.393 . S
C1711 C1710 1.391 . S
H1712 C1720 0.950 . S
H1713 C1725 0.950 . S
H1714 C1722 0.950 . S
H1715 C1724 0.950 . S
H1716 C1726 0.950 . S
H1717 C1728 0.950 . S
H1718 C1730 0.950 . S
H1719 C1731 0.950 . S
C1720 H1712 0.950 . S
C1720 C1721 1.386 . S
C1720 C1722 1.391 . S
C1721 C1720 1.386 . S
C1721 C1725 1.393 . S
C1722 H1714 0.950 . S
C1722 C1720 1.391 . S
C1722 C1723 1.400 . S
C1723 C1722 1.400 . S
C1723 C1724 1.398 . S
C1723 C1729 1.491 . S
C1724 H1715 0.950 . S
C1724 C1723 1.398 . S
C1724 C1725 1.391 . S
C1725 H1713 0.950 . S
C1725 C1721 1.393 . S
C1725 C1724 1.391 . S
C1726 H1716 0.950 . S
C1726 C1727 1.386 . S
C1726 C1728 1.391 . S
C1727 C1726 1.386 . S
C1727 C1731 1.393 . S
C1728 H1717 0.950 . S
C1728 C1726 1.391 . S
C1728 C1729 1.400 . S
C1729 C1723 1.491 . S
C1729 C1728 1.400 . S
C1729 C1730 1.398 . S
C1730 H1718 0.950 . S
C1730 C1729 1.398 . S
C1730 C1731 1.391 . S
C1731 H1719 0.950 . S
C1731 C1727 1.393 . S
C1731 C1730 1.391 . S
H1732 C1740 0.950 . S
H1733 C1745 0.950 . S
H1734 C1742 0.950 . S
H1735 C1744 0.950 . S
H1736 C1746 0.950 . S
H1737 C1748 0.950 . S
H1738 C1750 0.950 . S
H1739 C1751 0.950 . S
C1740 H1732 0.950 . S
C1740 C1741 1.386 . S
C1740 C1742 1.391 . S
C1741 C1740 1.386 . S
C1741 C1745 1.393 . S
C1742 H1734 0.950 . S
C1742 C1740 1.391 . S
C1742 C1743 1.400 . S
C1743 C1742 1.400 . S
C1743 C1744 1.398 . S
C1743 C1749 1.491 1_545 S
C1744 H1735 0.950 . S
C1744 C1743 1.398 . S
C1744 C1745 1.391 . S
C1745 H1733 0.950 . S
C1745 C1741 1.393 . S
C1745 C1744 1.391 . S
C1746 H1736 0.950 . S
C1746 C1747 1.386 . S
C1746 C1748 1.391 . S
C1747 C1746 1.386 . S
C1747 C1751 1.393 . S
C1748 H1737 0.950 . S
C1748 C1746 1.391 . S
C1748 C1749 1.400 . S
C1749 C1743 1.491 1_565 S
C1749 C1748 1.400 . S
C1749 C1750 1.398 . S
C1750 H1738 0.950 . S
C1750 C1749 1.398 . S
C1750 C1751 1.391 . S
C1751 H1739 0.950 . S
C1751 C1747 1.393 . S
C1751 C1750 1.391 . S
H1752 C1760 0.950 . S
H1753 C1765 0.950 . S
H1754 C1762 0.950 . S
H1755 C1764 0.950 . S
H1756 C1766 0.950 . S
H1757 C1768 0.950 . S
H1758 C1770 0.950 . S
H1759 C1771 0.950 . S
C1760 H1752 0.950 . S
C1760 C1761 1.386 . S
C1760 C1762 1.391 . S
C1761 C1760 1.386 . S
C1761 C1765 1.393 . S
C1762 H1754 0.950 . S
C1762 C1760 1.391 . S
C1762 C1763 1.400 . S
C1763 C1762 1.400 . S
C1763 C1764 1.398 . S
C1763 C1769 1.491 . S
C1764 H1755 0.950 . S
C1764 C1763 1.398 . S
C1764 C1765 1.391 . S
C1765 H1753 0.950 . S
C1765 C1761 1.393 . S
C1765 C1764 1.391 . S
C1766 H1756 0.950 . S
C1766 C1767 1.386 . S
C1766 C1768 1.391 . S
C1767 C1766 1.386 . S
C1767 C1771 1.393 . S
C1768 H1757 0.950 . S
C1768 C1766 1.391 . S
C1768 C1769 1.400 . S
C1769 C1763 1.491 . S
C1769 C1768 1.400 . S
C1769 C1770 1.398 . S
C1770 H1758 0.950 . S
C1770 C1769 1.398 . S
C1770 C1771 1.391 . S
C1771 H1759 0.950 . S
C1771 C1767 1.393 . S
C1771 C1770 1.391 . S
H1772 C1780 0.950 . S
H1773 C1785 0.950 . S
H1774 C1782 0.942 . S
H1775 C1784 0.950 1_665 S
H1776 C1786 0.950 . S
H1777 C1788 0.942 . S
H1778 C1790 0.950 1_445 S
H1779 C1791 0.950 . S
C1780 H1772 0.950 . S
C1780 C1781 1.386 . S
C1780 C1782 1.396 1_556 S
C1781 C1780 1.386 . S
C1781 C1785 1.393 . S
C1782 H1774 0.942 . S
C1782 C1780 1.396 1_554 S
C1782 C1783 1.403 1_554 S
C1783 C1782 1.403 1_556 S
C1783 C1784 1.398 . S
C1783 C1789 1.491 1_446 S
C1784 H1775 0.950 1_445 S
C1784 C1783 1.398 . S
C1784 C1785 1.391 . S
C1785 H1773 0.950 . S
C1785 C1781 1.393 . S
C1785 C1784 1.391 . S
C1786 H1776 0.950 . S
C1786 C1787 1.386 . S
C1786 C1788 1.396 1_554 S
C1787 C1786 1.386 . S
C1787 C1791 1.393 . S
C1788 H1777 0.942 . S
C1788 C1786 1.396 1_556 S
C1788 C1789 1.403 1_556 S
C1789 C1783 1.491 1_664 S
C1789 C1788 1.403 1_554 S
C1789 C1790 1.398 . S
C1790 H1778 0.950 1_665 S
C1790 C1789 1.398 . S
C1790 C1791 1.391 . S
C1791 H1779 0.950 . S
C1791 C1787 1.393 . S
C1791 C1790 1.391 . S
H1792 C1800 0.950 . S
H1793 C1805 0.950 . S
H1794 C1802 0.950 . S
H1795 C1804 0.950 . S
H1796 C1806 0.950 . S
H1797 C1808 0.950 . S
H1798 C1810 0.950 . S
H1799 C1811 0.950 . S
C1800 H1792 0.950 . S
C1800 C1801 1.386 . S
C1800 C1802 1.391 . S
C1801 C1800 1.386 . S
C1801 C1805 1.393 . S
C1802 H1794 0.950 . S
C1802 C1800 1.391 . S
C1802 C1803 1.400 . S
C1803 C1802 1.400 . S
C1803 C1804 1.398 . S
C1803 C1809 1.491 . S
C1804 H1795 0.950 . S
C1804 C1803 1.398 . S
C1804 C1805 1.391 . S
C1805 H1793 0.950 . S
C1805 C1801 1.393 . S
C1805 C1804 1.391 . S
C1806 H1796 0.950 . S
C1806 C1807 1.386 . S
C1806 C1808 1.391 . S
C1807 C1806 1.386 . S
C1807 C1811 1.393 . S
C1808 H1797 0.950 . S
C1808 C1806 1.391 . S
C1808 C1809 1.400 . S
C1809 C1803 1.491 . S
C1809 C1808 1.400 . S
C1809 C1810 1.398 . S
C1810 H1798 0.950 . S
C1810 C1809 1.398 . S
C1810 C1811 1.391 . S
C1811 H1799 0.950 . S
C1811 C1807 1.393 . S
C1811 C1810 1.391 . S
H1812 C1820 0.950 . S
H1813 C1825 0.950 . S
H1814 C1822 0.950 . S
H1815 C1824 0.950 . S
H1816 C1826 0.950 . S
H1817 C1828 0.950 . S
H1818 C1830 0.950 . S
H1819 C1831 0.950 . S
C1820 H1812 0.950 . S
C1820 C1821 1.386 . S
C1820 C1822 1.391 . S
C1821 C1820 1.386 . S
C1821 C1825 1.393 . S
C1822 H1814 0.950 . S
C1822 C1820 1.391 . S
C1822 C1823 1.400 . S
C1823 C1822 1.400 . S
C1823 C1824 1.398 . S
C1823 C1829 1.491 . S
C1824 H1815 0.950 . S
C1824 C1823 1.398 . S
C1824 C1825 1.391 . S
C1825 H1813 0.950 . S
C1825 C1821 1.393 . S
C1825 C1824 1.391 . S
C1826 H1816 0.950 . S
C1826 C1827 1.386 . S
C1826 C1828 1.391 . S
C1827 C1826 1.386 . S
C1827 C1831 1.393 . S
C1828 H1817 0.950 . S
C1828 C1826 1.391 . S
C1828 C1829 1.400 . S
C1829 C1823 1.491 . S
C1829 C1828 1.400 . S
C1829 C1830 1.398 . S
C1830 H1818 0.950 . S
C1830 C1829 1.398 . S
C1830 C1831 1.391 . S
C1831 H1819 0.950 . S
C1831 C1827 1.393 . S
C1831 C1830 1.391 . S
H1832 C1840 0.950 . S
H1833 C1845 0.950 . S
H1834 C1842 0.950 . S
H1835 C1844 0.950 . S
H1836 C1846 0.950 . S
H1837 C1848 0.950 . S
H1838 C1850 0.950 . S
H1839 C1851 0.950 . S
C1840 H1832 0.950 . S
C1840 C1841 1.386 . S
C1840 C1842 1.391 . S
C1841 C1840 1.386 . S
C1841 C1845 1.393 . S
C1842 H1834 0.950 . S
C1842 C1840 1.391 . S
C1842 C1843 1.400 . S
C1843 C1842 1.400 . S
C1843 C1844 1.398 . S
C1843 C1849 1.491 . S
C1844 H1835 0.950 . S
C1844 C1843 1.398 . S
C1844 C1845 1.391 . S
C1845 H1833 0.950 . S
C1845 C1841 1.393 . S
C1845 C1844 1.391 . S
C1846 H1836 0.950 . S
C1846 C1847 1.386 . S
C1846 C1848 1.391 . S
C1847 C1846 1.386 . S
C1847 C1851 1.393 . S
C1848 H1837 0.950 . S
C1848 C1846 1.391 . S
C1848 C1849 1.400 . S
C1849 C1843 1.491 . S
C1849 C1848 1.400 . S
C1849 C1850 1.398 . S
C1850 H1838 0.950 . S
C1850 C1849 1.398 . S
C1850 C1851 1.391 . S
C1851 H1839 0.950 . S
C1851 C1847 1.393 . S
C1851 C1850 1.391 . S
H1852 C1860 0.950 . S
H1853 C1865 0.950 . S
H1854 C1862 0.950 . S
H1855 C1864 0.950 . S
H1856 C1866 0.950 . S
H1857 C1868 0.950 . S
H1858 C1870 0.950 . S
H1859 C1871 0.950 . S
C1860 H1852 0.950 . S
C1860 C1861 1.386 . S
C1860 C1862 1.391 . S
C1861 C1860 1.386 . S
C1861 C1865 1.393 . S
C1862 H1854 0.950 . S
C1862 C1860 1.391 . S
C1862 C1863 1.400 . S
C1863 C1862 1.400 . S
C1863 C1864 1.398 . S
C1863 C1869 1.491 . S
C1864 H1855 0.950 . S
C1864 C1863 1.398 . S
C1864 C1865 1.391 . S
C1865 H1853 0.950 . S
C1865 C1861 1.393 . S
C1865 C1864 1.391 . S
C1866 H1856 0.950 . S
C1866 C1867 1.386 . S
C1866 C1868 1.391 . S
C1867 C1866 1.386 . S
C1867 C1871 1.393 . S
C1868 H1857 0.950 . S
C1868 C1866 1.391 . S
C1868 C1869 1.400 . S
C1869 C1863 1.491 . S
C1869 C1868 1.400 . S
C1869 C1870 1.398 . S
C1870 H1858 0.950 . S
C1870 C1869 1.398 . S
C1870 C1871 1.391 . S
C1871 H1859 0.950 . S
C1871 C1867 1.393 . S
C1871 C1870 1.391 . S
H1872 C1880 0.950 . S
H1873 C1885 0.950 . S
H1874 C1882 0.950 . S
H1875 C1884 0.951 1_556 S
H1876 C1886 0.950 . S
H1877 C1888 0.950 . S
H1878 C1890 0.951 1_554 S
H1879 C1891 0.950 . S
C1880 H1872 0.950 . S
C1880 C1881 1.386 . S
C1880 C1882 1.391 . S
C1881 C1880 1.386 . S
C1881 C1885 1.393 . S
C1882 H1874 0.950 . S
C1882 C1880 1.391 . S
C1882 C1883 1.400 . S
C1883 C1882 1.400 . S
C1883 C1884 1.398 . S
C1883 C1889 1.491 1_554 S
C1884 H1875 0.951 1_554 S
C1884 C1883 1.398 . S
C1884 C1885 1.390 . S
C1885 H1873 0.950 . S
C1885 C1881 1.393 . S
C1885 C1884 1.390 . S
C1886 H1876 0.950 . S
C1886 C1887 1.386 . S
C1886 C1888 1.391 . S
C1887 C1886 1.386 . S
C1887 C1891 1.393 . S
C1888 H1877 0.950 . S
C1888 C1886 1.391 . S
C1888 C1889 1.400 . S
C1889 C1883 1.491 1_556 S
C1889 C1888 1.400 . S
C1889 C1890 1.398 . S
C1890 H1878 0.951 1_556 S
C1890 C1889 1.398 . S
C1890 C1891 1.390 . S
C1891 H1879 0.950 . S
C1891 C1887 1.393 . S
C1891 C1890 1.390 . S
H1892 C1900 0.950 . S
H1893 C1905 0.950 . S
H1894 C1902 0.950 1_455 S
H1895 C1904 0.950 . S
H1896 C1906 0.950 . S
H1897 C1908 0.950 1_655 S
H1898 C1910 0.950 . S
H1899 C1911 0.950 . S
C1900 H1892 0.950 . S
C1900 C1901 1.386 . S
C1900 C1902 1.391 . S
C1901 C1900 1.386 . S
C1901 C1905 1.393 . S
C1902 H1894 0.950 1_655 S
C1902 C1900 1.391 . S
C1902 C1903 1.400 . S
C1903 C1902 1.400 . S
C1903 C1904 1.398 . S
C1903 C1909 1.491 1_655 S
C1904 H1895 0.950 . S
C1904 C1903 1.398 . S
C1904 C1905 1.391 . S
C1905 H1893 0.950 . S
C1905 C1901 1.393 . S
C1905 C1904 1.391 . S
C1906 H1896 0.950 . S
C1906 C1907 1.386 . S
C1906 C1908 1.391 . S
C1907 C1906 1.386 . S
C1907 C1911 1.393 . S
C1908 H1897 0.950 1_455 S
C1908 C1906 1.391 . S
C1908 C1909 1.400 . S
C1909 C1903 1.491 1_455 S
C1909 C1908 1.400 . S
C1909 C1910 1.398 . S
C1910 H1898 0.950 . S
C1910 C1909 1.398 . S
C1910 C1911 1.391 . S
C1911 H1899 0.950 . S
C1911 C1907 1.393 . S
C1911 C1910 1.391 . S
H1912 C1920 0.950 . S
H1913 C1925 0.950 . S
H1914 C1922 0.950 1_655 S
H1915 C1924 0.950 1_556 S
H1916 C1926 0.950 . S
H1917 C1928 0.950 1_455 S
H1918 C1930 0.950 1_554 S
H1919 C1931 0.950 . S
C1920 H1912 0.950 . S
C1920 C1921 1.386 . S
C1920 C1922 1.391 . S
C1921 C1920 1.386 . S
C1921 C1925 1.393 . S
C1922 H1914 0.950 1_455 S
C1922 C1920 1.391 . S
C1922 C1923 1.400 . S
C1923 C1922 1.400 . S
C1923 C1924 1.398 . S
C1923 C1929 1.491 1_454 S
C1924 H1915 0.950 1_554 S
C1924 C1923 1.398 . S
C1924 C1925 1.391 . S
C1925 H1913 0.950 . S
C1925 C1921 1.393 . S
C1925 C1924 1.391 . S
C1926 H1916 0.950 . S
C1926 C1927 1.386 . S
C1926 C1928 1.391 . S
C1927 C1926 1.386 . S
C1927 C1931 1.393 . S
C1928 H1917 0.950 1_655 S
C1928 C1926 1.391 . S
C1928 C1929 1.400 . S
C1929 C1923 1.491 1_656 S
C1929 C1928 1.400 . S
C1929 C1930 1.398 . S
C1930 H1918 0.950 1_556 S
C1930 C1929 1.398 . S
C1930 C1931 1.391 . S
C1931 H1919 0.950 . S
C1931 C1927 1.393 . S
C1931 C1930 1.391 . S
H1932 C1940 0.950 . S
H1933 C1945 0.950 . S
H1934 C1942 0.950 . S
H1935 C1944 0.950 . S
H1936 C1946 0.950 . S
H1937 C1948 0.950 . S
H1938 C1950 0.950 . S
H1939 C1951 0.950 . S
C1940 H1932 0.950 . S
C1940 C1941 1.386 . S
C1940 C1942 1.391 . S
C1941 C1940 1.386 . S
C1941 C1945 1.393 . S
C1942 H1934 0.950 . S
C1942 C1940 1.391 . S
C1942 C1943 1.400 . S
C1943 C1942 1.400 . S
C1943 C1944 1.398 . S
C1943 C1949 1.491 . S
C1944 H1935 0.950 . S
C1944 C1943 1.398 . S
C1944 C1945 1.391 . S
C1945 H1933 0.950 . S
C1945 C1941 1.393 . S
C1945 C1944 1.391 . S
C1946 H1936 0.950 . S
C1946 C1947 1.386 . S
C1946 C1948 1.391 . S
C1947 C1946 1.386 . S
C1947 C1951 1.393 . S
C1948 H1937 0.950 . S
C1948 C1946 1.391 . S
C1948 C1949 1.400 . S
C1949 C1943 1.491 . S
C1949 C1948 1.400 . S
C1949 C1950 1.398 . S
C1950 H1938 0.950 . S
C1950 C1949 1.398 . S
C1950 C1951 1.391 . S
C1951 H1939 0.950 . S
C1951 C1947 1.393 . S
C1951 C1950 1.391 . S
H1952 C1960 0.950 . S
H1953 C1965 0.950 . S
H1954 C1962 0.950 . S
H1955 C1964 0.950 . S
H1956 C1966 0.950 . S
H1957 C1968 0.950 . S
H1958 C1970 0.950 . S
H1959 C1971 0.950 . S
C1960 H1952 0.950 . S
C1960 C1961 1.386 . S
C1960 C1962 1.391 . S
C1961 C1960 1.386 . S
C1961 C1965 1.393 . S
C1962 H1954 0.950 . S
C1962 C1960 1.391 . S
C1962 C1963 1.400 . S
C1963 C1962 1.400 . S
C1963 C1964 1.398 . S
C1963 C1969 1.491 . S
C1964 H1955 0.950 . S
C1964 C1963 1.398 . S
C1964 C1965 1.391 . S
C1965 H1953 0.950 . S
C1965 C1961 1.393 . S
C1965 C1964 1.391 . S
C1966 H1956 0.950 . S
C1966 C1967 1.386 . S
C1966 C1968 1.391 1_565 S
C1967 C1966 1.386 . S
C1967 C1971 1.393 1_565 S
C1968 H1957 0.950 . S
C1968 C1966 1.391 1_545 S
C1968 C1969 1.400 . S
C1969 C1963 1.491 . S
C1969 C1968 1.400 . S
C1969 C1970 1.398 . S
C1970 H1958 0.950 . S
C1970 C1969 1.398 . S
C1970 C1971 1.391 . S
C1971 H1959 0.950 . S
C1971 C1967 1.393 1_545 S
C1971 C1970 1.391 . S
H1972 C1980 0.950 . S
H1973 C1985 0.950 . S
H1974 C1982 0.950 . S
H1975 C1984 0.950 . S
H1976 C1986 0.950 . S
H1977 C1988 0.950 . S
H1978 C1990 0.950 . S
H1979 C1991 0.950 . S
C1980 H1972 0.950 . S
C1980 C1981 1.386 . S
C1980 C1982 1.391 . S
C1981 C1980 1.386 . S
C1981 C1985 1.393 . S
C1982 H1974 0.950 . S
C1982 C1980 1.391 . S
C1982 C1983 1.400 . S
C1983 C1982 1.400 . S
C1983 C1984 1.398 . S
C1983 C1989 1.491 . S
C1984 H1975 0.950 . S
C1984 C1983 1.398 . S
C1984 C1985 1.391 . S
C1985 H1973 0.950 . S
C1985 C1981 1.393 . S
C1985 C1984 1.391 . S
C1986 H1976 0.950 . S
C1986 C1987 1.386 . S
C1986 C1988 1.391 . S
C1987 C1986 1.386 . S
C1987 C1991 1.393 1_565 S
C1988 H1977 0.950 . S
C1988 C1986 1.391 . S
C1988 C1989 1.400 1_565 S
C1989 C1983 1.491 . S
C1989 C1988 1.400 1_545 S
C1989 C1990 1.398 . S
C1990 H1978 0.950 . S
C1990 C1989 1.398 . S
C1990 C1991 1.391 . S
C1991 H1979 0.950 . S
C1991 C1987 1.393 1_545 S
C1991 C1990 1.391 . S
H1992 C2000 0.950 . S
H1993 C2005 0.950 . S
H1994 C2002 0.950 . S
H1995 C2004 0.950 . S
H1996 C2006 0.950 . S
H1997 C2008 0.950 . S
H1998 C2010 0.950 . S
H1999 C2011 0.950 . S
C2000 H1992 0.950 . S
C2000 C2001 1.386 . S
C2000 C2002 1.391 1_545 S
C2001 C2000 1.386 . S
C2001 C2005 1.393 1_545 S
C2002 H1994 0.950 . S
C2002 C2000 1.391 1_565 S
C2002 C2003 1.400 . S
C2003 C2002 1.400 . S
C2003 C2004 1.398 . S
C2003 C2009 1.491 . S
C2004 H1995 0.950 . S
C2004 C2003 1.398 . S
C2004 C2005 1.391 . S
C2005 H1993 0.950 . S
C2005 C2001 1.393 1_565 S
C2005 C2004 1.391 . S
C2006 H1996 0.950 . S
C2006 C2007 1.386 . S
C2006 C2008 1.391 . S
C2007 C2006 1.386 . S
C2007 C2011 1.393 . S
C2008 H1997 0.950 . S
C2008 C2006 1.391 . S
C2008 C2009 1.400 . S
C2009 C2003 1.491 . S
C2009 C2008 1.400 . S
C2009 C2010 1.398 . S
C2010 H1998 0.950 . S
C2010 C2009 1.398 . S
C2010 C2011 1.391 . S
C2011 H1999 0.950 . S
C2011 C2007 1.393 . S
C2011 C2010 1.391 . S
H2012 C2020 0.950 . S
H2013 C2025 0.950 . S
H2014 C2022 0.950 . S
H2015 C2024 0.950 . S
H2016 C2026 0.950 . S
H2017 C2028 0.950 . S
H2018 C2030 0.950 . S
H2019 C2031 0.950 . S
C2020 H2012 0.950 . S
C2020 C2021 1.386 . S
C2020 C2022 1.391 . S
C2021 C2020 1.386 . S
C2021 C2025 1.393 . S
C2022 H2014 0.950 . S
C2022 C2020 1.391 . S
C2022 C2023 1.400 . S
C2023 C2022 1.400 . S
C2023 C2024 1.398 . S
C2023 C2029 1.491 . S
C2024 H2015 0.950 . S
C2024 C2023 1.398 . S
C2024 C2025 1.391 . S
C2025 H2013 0.950 . S
C2025 C2021 1.393 . S
C2025 C2024 1.391 . S
C2026 H2016 0.950 . S
C2026 C2027 1.386 . S
C2026 C2028 1.391 1_545 S
C2027 C2026 1.386 . S
C2027 C2031 1.393 1_545 S
C2028 H2017 0.950 . S
C2028 C2026 1.391 1_565 S
C2028 C2029 1.400 . S
C2029 C2023 1.491 . S
C2029 C2028 1.400 . S
C2029 C2030 1.398 . S
C2030 H2018 0.950 . S
C2030 C2029 1.398 . S
C2030 C2031 1.391 . S
C2031 H2019 0.950 . S
C2031 C2027 1.393 1_565 S
C2031 C2030 1.391 . S
H2032 C2040 0.950 . S
H2033 C2045 0.950 . S
H2034 C2042 0.950 . S
H2035 C2044 0.950 . S
H2036 C2046 0.950 . S
H2037 C2048 0.950 . S
H2038 C2050 0.950 . S
H2039 C2051 0.950 . S
C2040 H2032 0.950 . S
C2040 C2041 1.386 . S
C2040 C2042 1.391 . S
C2041 C2040 1.386 . S
C2041 C2045 1.393 . S
C2042 H2034 0.950 . S
C2042 C2040 1.391 . S
C2042 C2043 1.400 . S
C2043 C2042 1.400 . S
C2043 C2044 1.398 . S
C2043 C2049 1.491 . S
C2044 H2035 0.950 . S
C2044 C2043 1.398 . S
C2044 C2045 1.391 . S
C2045 H2033 0.950 . S
C2045 C2041 1.393 . S
C2045 C2044 1.391 . S
C2046 H2036 0.950 . S
C2046 C2047 1.386 1_565 S
C2046 C2048 1.391 . S
C2047 C2046 1.386 1_545 S
C2047 C2051 1.393 . S
C2048 H2037 0.950 . S
C2048 C2046 1.391 . S
C2048 C2049 1.400 . S
C2049 C2043 1.491 . S
C2049 C2048 1.400 . S
C2049 C2050 1.398 . S
C2050 H2038 0.950 . S
C2050 C2049 1.398 . S
C2050 C2051 1.391 1_565 S
C2051 H2039 0.950 . S
C2051 C2047 1.393 . S
C2051 C2050 1.391 1_545 S
H2052 C2060 0.950 . S
H2053 C2065 0.950 . S
H2054 C2062 0.950 . S
H2055 C2064 0.950 . S
H2056 C2066 0.950 . S
H2057 C2068 0.950 . S
H2058 C2070 0.950 . S
H2059 C2071 0.950 . S
C2060 H2052 0.950 . S
C2060 C2061 1.386 1_565 S
C2060 C2062 1.391 . S
C2061 C2060 1.386 1_545 S
C2061 C2065 1.393 . S
C2062 H2054 0.950 . S
C2062 C2060 1.391 . S
C2062 C2063 1.400 . S
C2063 C2062 1.400 . S
C2063 C2064 1.398 . S
C2063 C2069 1.491 . S
C2064 H2055 0.950 . S
C2064 C2063 1.398 . S
C2064 C2065 1.391 1_565 S
C2065 H2053 0.950 . S
C2065 C2061 1.393 . S
C2065 C2064 1.391 1_545 S
C2066 H2056 0.950 . S
C2066 C2067 1.386 . S
C2066 C2068 1.391 . S
C2067 C2066 1.386 . S
C2067 C2071 1.393 . S
C2068 H2057 0.950 . S
C2068 C2066 1.391 . S
C2068 C2069 1.400 . S
C2069 C2063 1.491 . S
C2069 C2068 1.400 . S
C2069 C2070 1.398 . S
C2070 H2058 0.950 . S
C2070 C2069 1.398 . S
C2070 C2071 1.391 . S
C2071 H2059 0.950 . S
C2071 C2067 1.393 . S
C2071 C2070 1.391 . S
H2072 C2080 0.950 . S
H2073 C2085 0.950 . S
H2074 C2082 0.950 . S
H2075 C2084 0.950 . S
H2076 C2086 0.950 . S
H2077 C2088 0.950 . S
H2078 C2090 0.950 . S
H2079 C2091 0.950 . S
C2080 H2072 0.950 . S
C2080 C2081 1.386 1_545 S
C2080 C2082 1.391 . S
C2081 C2080 1.386 1_565 S
C2081 C2085 1.393 . S
C2082 H2074 0.950 . S
C2082 C2080 1.391 . S
C2082 C2083 1.400 . S
C2083 C2082 1.400 . S
C2083 C2084 1.398 . S
C2083 C2089 1.491 . S
C2084 H2075 0.950 . S
C2084 C2083 1.398 . S
C2084 C2085 1.391 1_545 S
C2085 H2073 0.950 . S
C2085 C2081 1.393 . S
C2085 C2084 1.391 1_565 S
C2086 H2076 0.950 . S
C2086 C2087 1.386 . S
C2086 C2088 1.391 . S
C2087 C2086 1.386 . S
C2087 C2091 1.393 . S
C2088 H2077 0.950 . S
C2088 C2086 1.391 . S
C2088 C2089 1.400 . S
C2089 C2083 1.491 . S
C2089 C2088 1.400 . S
C2089 C2090 1.398 . S
C2090 H2078 0.950 . S
C2090 C2089 1.398 . S
C2090 C2091 1.391 . S
C2091 H2079 0.950 . S
C2091 C2087 1.393 . S
C2091 C2090 1.391 . S
H2092 C2100 0.950 . S
H2093 C2105 0.950 . S
H2094 C2102 0.950 . S
H2095 C2104 0.950 . S
H2096 C2106 0.950 . S
H2097 C2108 0.950 . S
H2098 C2110 0.950 . S
H2099 C2111 0.950 . S
C2100 H2092 0.950 . S
C2100 C2101 1.386 . S
C2100 C2102 1.391 . S
C2101 C2100 1.386 . S
C2101 C2105 1.393 1_565 S
C2102 H2094 0.950 . S
C2102 C2100 1.391 . S
C2102 C2103 1.400 1_565 S
C2103 C2102 1.400 1_545 S
C2103 C2104 1.398 . S
C2103 C2109 1.491 . S
C2104 H2095 0.950 . S
C2104 C2103 1.398 . S
C2104 C2105 1.391 . S
C2105 H2093 0.950 . S
C2105 C2101 1.393 1_545 S
C2105 C2104 1.391 . S
C2106 H2096 0.950 . S
C2106 C2107 1.386 . S
C2106 C2108 1.391 . S
C2107 C2106 1.386 . S
C2107 C2111 1.393 . S
C2108 H2097 0.950 . S
C2108 C2106 1.391 . S
C2108 C2109 1.400 . S
C2109 C2103 1.491 . S
C2109 C2108 1.400 . S
C2109 C2110 1.398 . S
C2110 H2098 0.950 . S
C2110 C2109 1.398 . S
C2110 C2111 1.391 . S
C2111 H2099 0.950 . S
C2111 C2107 1.393 . S
C2111 C2110 1.391 . S
H2112 C2120 0.950 . S
H2113 C2125 0.950 . S
H2114 C2122 0.950 . S
H2115 C2124 0.950 . S
H2116 C2126 0.950 . S
H2117 C2128 0.950 . S
H2118 C2130 0.950 . S
H2119 C2131 0.950 . S
C2120 H2112 0.950 . S
C2120 C2121 1.386 . S
C2120 C2122 1.391 . S
C2121 C2120 1.386 . S
C2121 C2125 1.393 . S
C2122 H2114 0.950 . S
C2122 C2120 1.391 . S
C2122 C2123 1.400 . S
C2123 C2122 1.400 . S
C2123 C2124 1.398 . S
C2123 C2129 1.491 . S
C2124 H2115 0.950 . S
C2124 C2123 1.398 . S
C2124 C2125 1.391 . S
C2125 H2113 0.950 . S
C2125 C2121 1.393 . S
C2125 C2124 1.391 . S
C2126 H2116 0.950 . S
C2126 C2127 1.386 . S
C2126 C2128 1.391 . S
C2127 C2126 1.386 . S
C2127 C2131 1.393 . S
C2128 H2117 0.950 . S
C2128 C2126 1.391 . S
C2128 C2129 1.400 . S
C2129 C2123 1.491 . S
C2129 C2128 1.400 . S
C2129 C2130 1.398 . S
C2130 H2118 0.950 . S
C2130 C2129 1.398 . S
C2130 C2131 1.391 . S
C2131 H2119 0.950 . S
C2131 C2127 1.393 . S
C2131 C2130 1.391 . S
H2132 C2140 0.950 . S
H2133 C2145 0.950 . S
H2134 C2142 0.950 . S
H2135 C2144 0.950 . S
H2136 C2146 0.950 . S
H2137 C2148 0.950 . S
H2138 C2150 0.950 . S
H2139 C2151 0.950 . S
C2140 H2132 0.950 . S
C2140 C2141 1.386 . S
C2140 C2142 1.391 . S
C2141 C2140 1.386 . S
C2141 C2145 1.393 . S
C2142 H2134 0.950 . S
C2142 C2140 1.391 . S
C2142 C2143 1.400 . S
C2143 C2142 1.400 . S
C2143 C2144 1.398 . S
C2143 C2149 1.491 . S
C2144 H2135 0.950 . S
C2144 C2143 1.398 . S
C2144 C2145 1.391 . S
C2145 H2133 0.950 . S
C2145 C2141 1.393 . S
C2145 C2144 1.391 . S
C2146 H2136 0.950 . S
C2146 C2147 1.386 . S
C2146 C2148 1.391 . S
C2147 C2146 1.386 . S
C2147 C2151 1.393 . S
C2148 H2137 0.950 . S
C2148 C2146 1.391 . S
C2148 C2149 1.400 . S
C2149 C2143 1.491 . S
C2149 C2148 1.400 . S
C2149 C2150 1.398 . S
C2150 H2138 0.950 . S
C2150 C2149 1.398 . S
C2150 C2151 1.391 . S
C2151 H2139 0.950 . S
C2151 C2147 1.393 . S
C2151 C2150 1.391 . S
H2152 C2160 0.950 . S
H2153 C2165 0.950 . S
H2154 C2162 0.950 . S
H2155 C2164 0.950 . S
H2156 C2166 0.950 . S
H2157 C2168 0.950 . S
H2158 C2170 0.950 . S
H2159 C2171 0.950 . S
C2160 H2152 0.950 . S
C2160 C2161 1.386 . S
C2160 C2162 1.391 . S
C2161 C2160 1.386 . S
C2161 C2165 1.393 . S
C2162 H2154 0.950 . S
C2162 C2160 1.391 . S
C2162 C2163 1.400 . S
C2163 C2162 1.400 . S
C2163 C2164 1.398 . S
C2163 C2169 1.491 . S
C2164 H2155 0.950 . S
C2164 C2163 1.398 . S
C2164 C2165 1.391 . S
C2165 H2153 0.950 . S
C2165 C2161 1.393 . S
C2165 C2164 1.391 . S
C2166 H2156 0.950 . S
C2166 C2167 1.386 . S
C2166 C2168 1.391 . S
C2167 C2166 1.386 . S
C2167 C2171 1.393 . S
C2168 H2157 0.950 . S
C2168 C2166 1.391 . S
C2168 C2169 1.400 . S
C2169 C2163 1.491 . S
C2169 C2168 1.400 . S
C2169 C2170 1.398 . S
C2170 H2158 0.950 . S
C2170 C2169 1.398 . S
C2170 C2171 1.391 . S
C2171 H2159 0.950 . S
C2171 C2167 1.393 . S
C2171 C2170 1.391 . S
H2172 C2180 0.950 . S
H2173 C2185 0.950 . S
H2174 C2182 0.950 . S
H2175 C2184 0.950 . S
H2176 C2186 0.950 . S
H2177 C2188 0.950 . S
H2178 C2190 0.950 . S
H2179 C2191 0.950 . S
C2180 H2172 0.950 . S
C2180 C2181 1.386 . S
C2180 C2182 1.391 . S
C2181 C2180 1.386 . S
C2181 C2185 1.393 . S
C2182 H2174 0.950 . S
C2182 C2180 1.391 . S
C2182 C2183 1.400 . S
C2183 C2182 1.400 . S
C2183 C2184 1.398 . S
C2183 C2189 1.491 . S
C2184 H2175 0.950 . S
C2184 C2183 1.398 . S
C2184 C2185 1.391 . S
C2185 H2173 0.950 . S
C2185 C2181 1.393 . S
C2185 C2184 1.391 . S
C2186 H2176 0.950 . S
C2186 C2187 1.386 . S
C2186 C2188 1.391 . S
C2187 C2186 1.386 . S
C2187 C2191 1.393 . S
C2188 H2177 0.950 . S
C2188 C2186 1.391 . S
C2188 C2189 1.400 . S
C2189 C2183 1.491 . S
C2189 C2188 1.400 . S
C2189 C2190 1.398 . S
C2190 H2178 0.950 . S
C2190 C2189 1.398 . S
C2190 C2191 1.391 . S
C2191 H2179 0.950 . S
C2191 C2187 1.393 . S
C2191 C2190 1.391 . S
H2192 C2200 0.950 . S
H2193 C2205 0.950 . S
H2194 C2202 0.950 . S
H2195 C2204 0.950 . S
H2196 C2206 0.950 . S
H2197 C2208 0.950 . S
H2198 C2210 0.950 . S
H2199 C2211 0.950 . S
C2200 H2192 0.950 . S
C2200 C2201 1.386 . S
C2200 C2202 1.391 . S
C2201 C2200 1.386 . S
C2201 C2205 1.393 . S
C2202 H2194 0.950 . S
C2202 C2200 1.391 . S
C2202 C2203 1.400 . S
C2203 C2202 1.400 . S
C2203 C2204 1.398 . S
C2203 C2209 1.491 . S
C2204 H2195 0.950 . S
C2204 C2203 1.398 . S
C2204 C2205 1.391 . S
C2205 H2193 0.950 . S
C2205 C2201 1.393 . S
C2205 C2204 1.391 . S
C2206 H2196 0.950 . S
C2206 C2207 1.386 . S
C2206 C2208 1.391 . S
C2207 C2206 1.386 . S
C2207 C2211 1.393 . S
C2208 H2197 0.950 . S
C2208 C2206 1.391 . S
C2208 C2209 1.400 . S
C2209 C2203 1.491 . S
C2209 C2208 1.400 . S
C2209 C2210 1.398 . S
C2210 H2198 0.950 . S
C2210 C2209 1.398 . S
C2210 C2211 1.391 . S
C2211 H2199 0.950 . S
C2211 C2207 1.393 . S
C2211 C2210 1.391 . S
H2212 C2220 0.950 . S
H2213 C2225 0.950 . S
H2214 C2222 0.950 . S
H2215 C2224 0.950 . S
H2216 C2226 0.950 . S
H2217 C2228 0.950 . S
H2218 C2230 0.950 . S
H2219 C2231 0.950 . S
C2220 H2212 0.950 . S
C2220 C2221 1.386 . S
C2220 C2222 1.391 . S
C2221 C2220 1.386 . S
C2221 C2225 1.393 . S
C2222 H2214 0.950 . S
C2222 C2220 1.391 . S
C2222 C2223 1.400 . S
C2223 C2222 1.400 . S
C2223 C2224 1.398 . S
C2223 C2229 1.491 . S
C2224 H2215 0.950 . S
C2224 C2223 1.398 . S
C2224 C2225 1.391 . S
C2225 H2213 0.950 . S
C2225 C2221 1.393 . S
C2225 C2224 1.391 . S
C2226 H2216 0.950 . S
C2226 C2227 1.386 . S
C2226 C2228 1.391 . S
C2227 C2226 1.386 . S
C2227 C2231 1.393 . S
C2228 H2217 0.950 . S
C2228 C2226 1.391 . S
C2228 C2229 1.400 . S
C2229 C2223 1.491 . S
C2229 C2228 1.400 . S
C2229 C2230 1.398 . S
C2230 H2218 0.950 . S
C2230 C2229 1.398 . S
C2230 C2231 1.391 . S
C2231 H2219 0.950 . S
C2231 C2227 1.393 . S
C2231 C2230 1.391 . S
H2232 C2240 0.950 . S
H2233 C2245 0.950 . S
H2234 C2242 0.950 . S
H2235 C2244 0.950 . S
H2236 C2246 0.950 . S
H2237 C2248 0.950 . S
H2238 C2250 0.950 . S
H2239 C2251 0.950 . S
C2240 H2232 0.950 . S
C2240 C2241 1.386 . S
C2240 C2242 1.391 . S
C2241 C2240 1.386 . S
C2241 C2245 1.393 . S
C2242 H2234 0.950 . S
C2242 C2240 1.391 . S
C2242 C2243 1.400 . S
C2243 C2242 1.400 . S
C2243 C2244 1.398 . S
C2243 C2249 1.491 . S
C2244 H2235 0.950 . S
C2244 C2243 1.398 . S
C2244 C2245 1.391 . S
C2245 H2233 0.950 . S
C2245 C2241 1.393 . S
C2245 C2244 1.391 . S
C2246 H2236 0.950 . S
C2246 C2247 1.386 . S
C2246 C2248 1.391 . S
C2247 C2246 1.386 . S
C2247 C2251 1.393 . S
C2248 H2237 0.950 . S
C2248 C2246 1.391 . S
C2248 C2249 1.400 . S
C2249 C2243 1.491 . S
C2249 C2248 1.400 . S
C2249 C2250 1.398 . S
C2250 H2238 0.950 . S
C2250 C2249 1.398 . S
C2250 C2251 1.391 . S
C2251 H2239 0.950 . S
C2251 C2247 1.393 . S
C2251 C2250 1.391 . S
H2252 C2260 0.950 . S
H2253 C2265 0.950 . S
H2254 C2262 0.950 . S
H2255 C2264 0.950 . S
H2256 C2266 0.950 . S
H2257 C2268 0.950 . S
H2258 C2270 0.950 . S
H2259 C2271 0.950 . S
C2260 H2252 0.950 . S
C2260 C2261 1.386 . S
C2260 C2262 1.391 . S
C2261 C2260 1.386 . S
C2261 C2265 1.393 . S
C2262 H2254 0.950 . S
C2262 C2260 1.391 . S
C2262 C2263 1.400 . S
C2263 C2262 1.400 . S
C2263 C2264 1.398 . S
C2263 C2269 1.491 . S
C2264 H2255 0.950 . S
C2264 C2263 1.398 . S
C2264 C2265 1.391 . S
C2265 H2253 0.950 . S
C2265 C2261 1.393 . S
C2265 C2264 1.391 . S
C2266 H2256 0.950 . S
C2266 C2267 1.386 . S
C2266 C2268 1.391 . S
C2267 C2266 1.386 . S
C2267 C2271 1.393 . S
C2268 H2257 0.950 . S
C2268 C2266 1.391 . S
C2268 C2269 1.400 . S
C2269 C2263 1.491 . S
C2269 C2268 1.400 . S
C2269 C2270 1.398 . S
C2270 H2258 0.950 . S
C2270 C2269 1.398 . S
C2270 C2271 1.391 . S
C2271 H2259 0.950 . S
C2271 C2267 1.393 . S
C2271 C2270 1.391 . S
H2272 C2280 0.950 . S
H2273 C2285 0.950 . S
H2274 C2282 0.950 . S
H2275 C2284 0.950 . S
H2276 C2286 0.950 . S
H2277 C2288 0.950 . S
H2278 C2290 0.950 . S
H2279 C2291 0.950 . S
C2280 H2272 0.950 . S
C2280 C2281 1.386 . S
C2280 C2282 1.391 . S
C2281 C2280 1.386 . S
C2281 C2285 1.393 . S
C2282 H2274 0.950 . S
C2282 C2280 1.391 . S
C2282 C2283 1.400 . S
C2283 C2282 1.400 . S
C2283 C2284 1.398 . S
C2283 C2289 1.491 1_545 S
C2284 H2275 0.950 . S
C2284 C2283 1.398 . S
C2284 C2285 1.391 . S
C2285 H2273 0.950 . S
C2285 C2281 1.393 . S
C2285 C2284 1.391 . S
C2286 H2276 0.950 . S
C2286 C2287 1.386 . S
C2286 C2288 1.391 . S
C2287 C2286 1.386 . S
C2287 C2291 1.393 . S
C2288 H2277 0.950 . S
C2288 C2286 1.391 . S
C2288 C2289 1.400 . S
C2289 C2283 1.491 1_565 S
C2289 C2288 1.400 . S
C2289 C2290 1.398 . S
C2290 H2278 0.950 . S
C2290 C2289 1.398 . S
C2290 C2291 1.391 . S
C2291 H2279 0.950 . S
C2291 C2287 1.393 . S
C2291 C2290 1.391 . S
H2292 C2300 0.950 . S
H2293 C2305 0.950 . S
H2294 C2302 0.950 . S
H2295 C2304 0.950 . S
H2296 C2306 0.950 . S
H2297 C2308 0.950 . S
H2298 C2310 0.950 . S
H2299 C2311 0.950 . S
C2300 H2292 0.950 . S
C2300 C2301 1.386 . S
C2300 C2302 1.391 . S
C2301 C2300 1.386 . S
C2301 C2305 1.393 . S
C2302 H2294 0.950 . S
C2302 C2300 1.391 . S
C2302 C2303 1.400 . S
C2303 C2302 1.400 . S
C2303 C2304 1.398 . S
C2303 C2309 1.491 . S
C2304 H2295 0.950 . S
C2304 C2303 1.398 . S
C2304 C2305 1.391 . S
C2305 H2293 0.950 . S
C2305 C2301 1.393 . S
C2305 C2304 1.391 . S
C2306 H2296 0.950 . S
C2306 C2307 1.386 . S
C2306 C2308 1.391 . S
C2307 C2306 1.386 . S
C2307 C2311 1.393 . S
C2308 H2297 0.950 . S
C2308 C2306 1.391 . S
C2308 C2309 1.400 . S
C2309 C2303 1.491 . S
C2309 C2308 1.400 . S
C2309 C2310 1.398 . S
C2310 H2298 0.950 . S
C2310 C2309 1.398 . S
C2310 C2311 1.391 . S
C2311 H2299 0.950 . S
C2311 C2307 1.393 . S
C2311 C2310 1.391 . S
H2312 C2320 0.950 . S
H2313 C2325 0.950 . S
H2314 C2322 0.950 . S
H2315 C2324 0.950 . S
H2316 C2326 0.950 . S
H2317 C2328 0.950 . S
H2318 C2330 0.950 . S
H2319 C2331 0.950 . S
C2320 H2312 0.950 . S
C2320 C2321 1.386 . S
C2320 C2322 1.391 . S
C2321 C2320 1.386 . S
C2321 C2325 1.393 . S
C2322 H2314 0.950 . S
C2322 C2320 1.391 . S
C2322 C2323 1.400 . S
C2323 C2322 1.400 . S
C2323 C2324 1.398 . S
C2323 C2329 1.491 1_545 S
C2324 H2315 0.950 . S
C2324 C2323 1.398 . S
C2324 C2325 1.391 . S
C2325 H2313 0.950 . S
C2325 C2321 1.393 . S
C2325 C2324 1.391 . S
C2326 H2316 0.950 . S
C2326 C2327 1.386 . S
C2326 C2328 1.391 . S
C2327 C2326 1.386 . S
C2327 C2331 1.393 . S
C2328 H2317 0.950 . S
C2328 C2326 1.391 . S
C2328 C2329 1.400 . S
C2329 C2323 1.491 1_565 S
C2329 C2328 1.400 . S
C2329 C2330 1.398 . S
C2330 H2318 0.950 . S
C2330 C2329 1.398 . S
C2330 C2331 1.391 . S
C2331 H2319 0.950 . S
C2331 C2327 1.393 . S
C2331 C2330 1.391 . S
H2332 C2340 0.950 . S
H2333 C2345 0.950 . S
H2334 C2342 0.950 . S
H2335 C2344 0.950 1_554 S
H2336 C2346 0.950 . S
H2337 C2348 0.950 . S
H2338 C2350 0.950 1_556 S
H2339 C2351 0.950 . S
C2340 H2332 0.950 . S
C2340 C2341 1.386 . S
C2340 C2342 1.391 . S
C2341 C2340 1.386 . S
C2341 C2345 1.393 . S
C2342 H2334 0.950 . S
C2342 C2340 1.391 . S
C2342 C2343 1.400 . S
C2343 C2342 1.400 . S
C2343 C2344 1.398 . S
C2343 C2349 1.491 1_556 S
C2344 H2335 0.950 1_556 S
C2344 C2343 1.398 . S
C2344 C2345 1.391 . S
C2345 H2333 0.950 . S
C2345 C2341 1.393 . S
C2345 C2344 1.391 . S
C2346 H2336 0.950 . S
C2346 C2347 1.386 . S
C2346 C2348 1.391 . S
C2347 C2346 1.386 . S
C2347 C2351 1.393 . S
C2348 H2337 0.950 . S
C2348 C2346 1.391 . S
C2348 C2349 1.400 . S
C2349 C2343 1.491 1_554 S
C2349 C2348 1.400 . S
C2349 C2350 1.398 . S
C2350 H2338 0.950 1_554 S
C2350 C2349 1.398 . S
C2350 C2351 1.391 . S
C2351 H2339 0.950 . S
C2351 C2347 1.393 . S
C2351 C2350 1.391 . S
H2352 C2360 0.950 . S
H2353 C2365 0.950 . S
H2354 C2362 0.950 . S
H2355 C2364 0.950 . S
H2356 C2366 0.950 . S
H2357 C2368 0.950 . S
H2358 C2370 0.950 . S
H2359 C2371 0.950 . S
C2360 H2352 0.950 . S
C2360 C2361 1.386 . S
C2360 C2362 1.391 . S
C2361 C2360 1.386 . S
C2361 C2365 1.393 . S
C2362 H2354 0.950 . S
C2362 C2360 1.391 . S
C2362 C2363 1.400 . S
C2363 C2362 1.400 . S
C2363 C2364 1.398 . S
C2363 C2369 1.491 1_565 S
C2364 H2355 0.950 . S
C2364 C2363 1.398 . S
C2364 C2365 1.391 . S
C2365 H2353 0.950 . S
C2365 C2361 1.393 . S
C2365 C2364 1.391 . S
C2366 H2356 0.950 . S
C2366 C2367 1.386 . S
C2366 C2368 1.391 . S
C2367 C2366 1.386 . S
C2367 C2371 1.393 . S
C2368 H2357 0.950 . S
C2368 C2366 1.391 . S
C2368 C2369 1.400 . S
C2369 C2363 1.491 1_545 S
C2369 C2368 1.400 . S
C2369 C2370 1.398 . S
C2370 H2358 0.950 . S
C2370 C2369 1.398 . S
C2370 C2371 1.391 . S
C2371 H2359 0.950 . S
C2371 C2367 1.393 . S
C2371 C2370 1.391 . S
H2372 C2380 0.950 . S
H2373 C2385 0.950 . S
H2374 C2382 0.950 . S
H2375 C2384 0.950 . S
H2376 C2386 0.950 . S
H2377 C2388 0.950 . S
H2378 C2390 0.950 . S
H2379 C2391 0.950 . S
C2380 H2372 0.950 . S
C2380 C2381 1.386 . S
C2380 C2382 1.391 . S
C2381 C2380 1.386 . S
C2381 C2385 1.393 . S
C2382 H2374 0.950 . S
C2382 C2380 1.391 . S
C2382 C2383 1.400 . S
C2383 C2382 1.400 . S
C2383 C2384 1.398 . S
C2383 C2389 1.491 . S
C2384 H2375 0.950 . S
C2384 C2383 1.398 . S
C2384 C2385 1.391 . S
C2385 H2373 0.950 . S
C2385 C2381 1.393 . S
C2385 C2384 1.391 . S
C2386 H2376 0.950 . S
C2386 C2387 1.386 . S
C2386 C2388 1.391 . S
C2387 C2386 1.386 . S
C2387 C2391 1.393 . S
C2388 H2377 0.950 . S
C2388 C2386 1.391 . S
C2388 C2389 1.400 . S
C2389 C2383 1.491 . S
C2389 C2388 1.400 . S
C2389 C2390 1.398 . S
C2390 H2378 0.950 . S
C2390 C2389 1.398 . S
C2390 C2391 1.391 . S
C2391 H2379 0.950 . S
C2391 C2387 1.393 . S
C2391 C2390 1.391 . S
H2392 C2400 0.950 . S
H2393 C2405 0.950 . S
H2394 C2402 0.950 1_545 S
H2395 C2404 0.950 . S
H2396 C2406 0.950 . S
H2397 C2408 0.950 1_565 S
H2398 C2410 0.950 . S
H2399 C2411 0.950 . S
C2400 H2392 0.950 . S
C2400 C2401 1.386 . S
C2400 C2402 1.391 . S
C2401 C2400 1.386 . S
C2401 C2405 1.393 . S
C2402 H2394 0.950 1_565 S
C2402 C2400 1.391 . S
C2402 C2403 1.400 . S
C2403 C2402 1.400 . S
C2403 C2404 1.398 . S
C2403 C2409 1.491 1_565 S
C2404 H2395 0.950 . S
C2404 C2403 1.398 . S
C2404 C2405 1.391 . S
C2405 H2393 0.950 . S
C2405 C2401 1.393 . S
C2405 C2404 1.391 . S
C2406 H2396 0.950 . S
C2406 C2407 1.386 . S
C2406 C2408 1.391 . S
C2407 C2406 1.386 . S
C2407 C2411 1.393 . S
C2408 H2397 0.950 1_545 S
C2408 C2406 1.391 . S
C2408 C2409 1.400 . S
C2409 C2403 1.491 1_545 S
C2409 C2408 1.400 . S
C2409 C2410 1.398 . S
C2410 H2398 0.950 . S
C2410 C2409 1.398 . S
C2410 C2411 1.391 . S
C2411 H2399 0.950 . S
C2411 C2407 1.393 . S
C2411 C2410 1.391 . S
H2412 C2420 0.950 . S
H2413 C2425 0.950 . S
H2414 C2422 0.950 1_556 S
H2415 C2424 0.950 . S
H2416 C2426 0.950 . S
H2417 C2428 0.950 1_554 S
H2418 C2430 0.950 . S
H2419 C2431 0.950 . S
C2420 H2412 0.950 . S
C2420 C2421 1.386 . S
C2420 C2422 1.391 . S
C2421 C2420 1.386 . S
C2421 C2425 1.393 . S
C2422 H2414 0.950 1_554 S
C2422 C2420 1.391 . S
C2422 C2423 1.400 . S
C2423 C2422 1.400 . S
C2423 C2424 1.398 . S
C2423 C2429 1.491 1_554 S
C2424 H2415 0.950 . S
C2424 C2423 1.398 . S
C2424 C2425 1.391 . S
C2425 H2413 0.950 . S
C2425 C2421 1.393 . S
C2425 C2424 1.391 . S
C2426 H2416 0.950 . S
C2426 C2427 1.386 . S
C2426 C2428 1.391 . S
C2427 C2426 1.386 . S
C2427 C2431 1.393 . S
C2428 H2417 0.950 1_556 S
C2428 C2426 1.391 . S
C2428 C2429 1.400 . S
C2429 C2423 1.491 1_556 S
C2429 C2428 1.400 . S
C2429 C2430 1.398 . S
C2430 H2418 0.950 . S
C2430 C2429 1.398 . S
C2430 C2431 1.391 . S
C2431 H2419 0.950 . S
C2431 C2427 1.393 . S
C2431 C2430 1.391 . S
H2432 C2440 0.950 . S
H2433 C2445 0.950 . S
H2434 C2442 0.950 . S
H2435 C2444 0.950 . S
H2436 C2446 0.950 . S
H2437 C2448 0.950 . S
H2438 C2450 0.950 . S
H2439 C2451 0.950 . S
C2440 H2432 0.950 . S
C2440 C2441 1.386 . S
C2440 C2442 1.391 . S
C2441 C2440 1.386 . S
C2441 C2445 1.393 . S
C2442 H2434 0.950 . S
C2442 C2440 1.391 . S
C2442 C2443 1.400 . S
C2443 C2442 1.400 . S
C2443 C2444 1.398 . S
C2443 C2449 1.491 . S
C2444 H2435 0.950 . S
C2444 C2443 1.398 . S
C2444 C2445 1.391 . S
C2445 H2433 0.950 . S
C2445 C2441 1.393 . S
C2445 C2444 1.391 . S
C2446 H2436 0.950 . S
C2446 C2447 1.386 . S
C2446 C2448 1.391 . S
C2447 C2446 1.386 . S
C2447 C2451 1.393 . S
C2448 H2437 0.950 . S
C2448 C2446 1.391 . S
C2448 C2449 1.400 . S
C2449 C2443 1.491 . S
C2449 C2448 1.400 . S
C2449 C2450 1.398 . S
C2450 H2438 0.950 . S
C2450 C2449 1.398 . S
C2450 C2451 1.391 . S
C2451 H2439 0.950 . S
C2451 C2447 1.393 . S
C2451 C2450 1.391 . S
H2452 C2460 0.950 . S
H2453 C2465 0.950 . S
H2454 C2462 0.948 1_554 S
H2455 C2464 0.950 . S
H2456 C2466 0.950 . S
H2457 C2468 0.948 1_556 S
H2458 C2470 0.950 . S
H2459 C2471 0.950 . S
C2460 H2452 0.950 . S
C2460 C2461 1.386 . S
C2460 C2462 1.391 . S
C2461 C2460 1.386 . S
C2461 C2465 1.393 . S
C2462 H2454 0.948 1_556 S
C2462 C2460 1.391 . S
C2462 C2463 1.400 . S
C2463 C2462 1.400 . S
C2463 C2464 1.398 . S
C2463 C2469 1.491 1_556 S
C2464 H2455 0.950 . S
C2464 C2463 1.398 . S
C2464 C2465 1.391 . S
C2465 H2453 0.950 . S
C2465 C2461 1.393 . S
C2465 C2464 1.391 . S
C2466 H2456 0.950 . S
C2466 C2467 1.386 . S
C2466 C2468 1.391 . S
C2467 C2466 1.386 . S
C2467 C2471 1.393 . S
C2468 H2457 0.948 1_554 S
C2468 C2466 1.391 . S
C2468 C2469 1.400 . S
C2469 C2463 1.491 1_554 S
C2469 C2468 1.400 . S
C2469 C2470 1.398 . S
C2470 H2458 0.950 . S
C2470 C2469 1.398 . S
C2470 C2471 1.391 . S
C2471 H2459 0.950 . S
C2471 C2467 1.393 . S
C2471 C2470 1.391 . S
H2472 C2480 0.950 . S
H2473 C2485 0.950 . S
H2474 C2482 0.950 . S
H2475 C2484 0.950 . S
H2476 C2486 0.950 . S
H2477 C2488 0.950 . S
H2478 C2490 0.950 . S
H2479 C2491 0.950 . S
C2480 H2472 0.950 . S
C2480 C2481 1.386 . S
C2480 C2482 1.391 . S
C2481 C2480 1.386 . S
C2481 C2485 1.393 . S
C2482 H2474 0.950 . S
C2482 C2480 1.391 . S
C2482 C2483 1.400 . S
C2483 C2482 1.400 . S
C2483 C2484 1.398 . S
C2483 C2489 1.491 . S
C2484 H2475 0.950 . S
C2484 C2483 1.398 . S
C2484 C2485 1.391 . S
C2485 H2473 0.950 . S
C2485 C2481 1.393 . S
C2485 C2484 1.391 . S
C2486 H2476 0.950 . S
C2486 C2487 1.386 . S
C2486 C2488 1.391 . S
C2487 C2486 1.386 . S
C2487 C2491 1.393 . S
C2488 H2477 0.950 . S
C2488 C2486 1.391 . S
C2488 C2489 1.400 . S
C2489 C2483 1.491 . S
C2489 C2488 1.400 . S
C2489 C2490 1.398 . S
C2490 H2478 0.950 . S
C2490 C2489 1.398 . S
C2490 C2491 1.391 . S
C2491 H2479 0.950 . S
C2491 C2487 1.393 . S
C2491 C2490 1.391 . S
H2492 C2500 0.950 . S
H2493 C2505 0.950 . S
H2494 C2502 0.950 . S
H2495 C2504 0.950 . S
H2496 C2506 0.950 . S
H2497 C2508 0.950 . S
H2498 C2510 0.950 . S
H2499 C2511 0.950 . S
C2500 H2492 0.950 . S
C2500 C2501 1.386 . S
C2500 C2502 1.391 . S
C2501 C2500 1.386 . S
C2501 C2505 1.393 . S
C2502 H2494 0.950 . S
C2502 C2500 1.391 . S
C2502 C2503 1.400 . S
C2503 C2502 1.400 . S
C2503 C2504 1.398 . S
C2503 C2509 1.491 . S
C2504 H2495 0.950 . S
C2504 C2503 1.398 . S
C2504 C2505 1.391 . S
C2505 H2493 0.950 . S
C2505 C2501 1.393 . S
C2505 C2504 1.391 . S
C2506 H2496 0.950 . S
C2506 C2507 1.386 . S
C2506 C2508 1.391 . S
C2507 C2506 1.386 . S
C2507 C2511 1.393 . S
C2508 H2497 0.950 . S
C2508 C2506 1.391 . S
C2508 C2509 1.400 . S
C2509 C2503 1.491 . S
C2509 C2508 1.400 . S
C2509 C2510 1.398 . S
C2510 H2498 0.950 . S
C2510 C2509 1.398 . S
C2510 C2511 1.391 . S
C2511 H2499 0.950 . S
C2511 C2507 1.393 . S
C2511 C2510 1.391 . S
H2512 C2520 0.950 . S
H2513 C2525 0.950 . S
H2514 C2522 0.950 . S
H2515 C2524 0.950 . S
H2516 C2526 0.950 . S
H2517 C2528 0.950 . S
H2518 C2530 0.950 . S
H2519 C2531 0.950 . S
C2520 H2512 0.950 . S
C2520 C2521 1.386 . S
C2520 C2522 1.391 . S
C2521 C2520 1.386 . S
C2521 C2525 1.393 . S
C2522 H2514 0.950 . S
C2522 C2520 1.391 . S
C2522 C2523 1.400 . S
C2523 C2522 1.400 . S
C2523 C2524 1.398 . S
C2523 C2529 1.491 . S
C2524 H2515 0.950 . S
C2524 C2523 1.398 . S
C2524 C2525 1.391 . S
C2525 H2513 0.950 . S
C2525 C2521 1.393 . S
C2525 C2524 1.391 . S
C2526 H2516 0.950 . S
C2526 C2527 1.386 . S
C2526 C2528 1.391 . S
C2527 C2526 1.386 . S
C2527 C2531 1.393 . S
C2528 H2517 0.950 . S
C2528 C2526 1.391 . S
C2528 C2529 1.400 . S
C2529 C2523 1.491 . S
C2529 C2528 1.400 . S
C2529 C2530 1.398 . S
C2530 H2518 0.950 . S
C2530 C2529 1.398 . S
C2530 C2531 1.391 . S
C2531 H2519 0.950 . S
C2531 C2527 1.393 . S
C2531 C2530 1.391 . S
H2532 C2540 0.950 . S
H2533 C2545 0.950 . S
H2534 C2542 0.950 . S
H2535 C2544 0.950 . S
H2536 C2546 0.950 . S
H2537 C2548 0.950 . S
H2538 C2550 0.950 . S
H2539 C2551 0.950 . S
C2540 H2532 0.950 . S
C2540 C2541 1.386 . S
C2540 C2542 1.391 . S
C2541 C2540 1.386 . S
C2541 C2545 1.393 . S
C2542 H2534 0.950 . S
C2542 C2540 1.391 . S
C2542 C2543 1.400 . S
C2543 C2542 1.400 . S
C2543 C2544 1.398 . S
C2543 C2549 1.491 1_556 S
C2544 H2535 0.950 . S
C2544 C2543 1.398 . S
C2544 C2545 1.391 . S
C2545 H2533 0.950 . S
C2545 C2541 1.393 . S
C2545 C2544 1.391 . S
C2546 H2536 0.950 . S
C2546 C2547 1.386 . S
C2546 C2548 1.391 . S
C2547 C2546 1.386 . S
C2547 C2551 1.393 . S
C2548 H2537 0.950 . S
C2548 C2546 1.391 . S
C2548 C2549 1.400 . S
C2549 C2543 1.491 1_554 S
C2549 C2548 1.400 . S
C2549 C2550 1.398 . S
C2550 H2538 0.950 . S
C2550 C2549 1.398 . S
C2550 C2551 1.391 . S
C2551 H2539 0.950 . S
C2551 C2547 1.393 . S
C2551 C2550 1.391 . S
H2552 C2560 0.950 . S
H2553 C2565 0.950 . S
H2554 C2562 0.950 . S
H2555 C2564 0.950 . S
H2556 C2566 0.950 . S
H2557 C2568 0.950 . S
H2558 C2570 0.950 . S
H2559 C2571 0.950 . S
C2560 H2552 0.950 . S
C2560 C2561 1.386 . S
C2560 C2562 1.391 . S
C2561 C2560 1.386 . S
C2561 C2565 1.393 . S
C2562 H2554 0.950 . S
C2562 C2560 1.391 . S
C2562 C2563 1.400 . S
C2563 C2562 1.400 . S
C2563 C2564 1.398 . S
C2563 C2569 1.491 . S
C2564 H2555 0.950 . S
C2564 C2563 1.398 . S
C2564 C2565 1.391 . S
C2565 H2553 0.950 . S
C2565 C2561 1.393 . S
C2565 C2564 1.391 . S
C2566 H2556 0.950 . S
C2566 C2567 1.386 . S
C2566 C2568 1.391 . S
C2567 C2566 1.386 . S
C2567 C2571 1.393 . S
C2568 H2557 0.950 . S
C2568 C2566 1.391 . S
C2568 C2569 1.400 . S
C2569 C2563 1.491 . S
C2569 C2568 1.400 . S
C2569 C2570 1.398 . S
C2570 H2558 0.950 . S
C2570 C2569 1.398 . S
C2570 C2571 1.391 . S
C2571 H2559 0.950 . S
C2571 C2567 1.393 . S
C2571 C2570 1.391 . S
H2572 C2580 0.950 . S
H2573 C2585 0.950 . S
H2574 C2582 0.950 . S
H2575 C2584 0.950 . S
H2576 C2586 0.950 . S
H2577 C2588 0.950 . S
H2578 C2590 0.950 . S
H2579 C2591 0.950 . S
C2580 H2572 0.950 . S
C2580 C2581 1.386 . S
C2580 C2582 1.391 . S
C2581 C2580 1.386 . S
C2581 C2585 1.393 . S
C2582 H2574 0.950 . S
C2582 C2580 1.391 . S
C2582 C2583 1.400 . S
C2583 C2582 1.400 . S
C2583 C2584 1.398 . S
C2583 C2589 1.491 . S
C2584 H2575 0.950 . S
C2584 C2583 1.398 . S
C2584 C2585 1.391 . S
C2585 H2573 0.950 . S
C2585 C2581 1.393 . S
C2585 C2584 1.391 . S
C2586 H2576 0.950 . S
C2586 C2587 1.386 . S
C2586 C2588 1.391 . S
C2587 C2586 1.386 . S
C2587 C2591 1.393 . S
C2588 H2577 0.950 . S
C2588 C2586 1.391 . S
C2588 C2589 1.400 . S
C2589 C2583 1.491 . S
C2589 C2588 1.400 . S
C2589 C2590 1.398 . S
C2590 H2578 0.950 . S
C2590 C2589 1.398 . S
C2590 C2591 1.391 . S
C2591 H2579 0.950 . S
C2591 C2587 1.393 . S
C2591 C2590 1.391 . S
C681 C15 0.511 . S
C687 C583 0.639 . S
C701 C39 0.512 . S
C707 C184 0.639 . S
C721 C60 0.527 . S
C727 C541 0.645 . S
C741 C226 0.641 . S
C747 C81 0.545 . S
C761 C102 0.499 . S
C767 C625 0.564 . S
C781 C310 0.586 . S
C787 C123 0.489 . S
C801 C667 0.603 . S
C807 C144 0.563 . S
C821 C165 0.492 . S
C827 C268 0.574 . S
C841 C186 0.547 . S
C847 C415 0.563 . S
C861 C207 0.523 . S
C867 C13 0.552 . S
C881 C373 0.642 . S
C887 C228 0.518 . S
C901 C58 0.612 . S
C907 C249 0.563 . S
C921 C270 0.515 . S
C927 C457 0.553 . S
C941 C291 0.554 . S
C947 C142 0.573 . S
C961 C312 0.561 . S
C967 C499 0.590 . S
C981 C100 0.558 . S
C987 C333 0.539 . S
C1001 C247 0.635 . S
C1007 C351 0.506 . S
C1021 C520 0.563 . S
C1027 C375 0.499 . S
C1041 C205 0.643 . S
C1047 C396 0.520 . S
C1061 C417 0.553 . S
C1067 C562 0.572 . S
C1081 C289 0.626 . S
C1087 C438 0.559 . S
C1101 C646 0.553 . S
C1107 C459 0.515 . S
C1121 C331 0.645 . S
C1127 C480 0.531 . S
C1141 C501 0.541 . S
C1147 C604 0.558 . S
C1161 C522 0.489 . S
C1167 C79 0.583 . S
C1181 C543 0.562 . S
C1187 C349 0.618 . S
C1201 C564 0.558 . S
C1207 C37 0.628 . S
C1221 C585 0.543 . S
C1227 C394 0.642 . S
C1241 C121 0.582 . S
C1247 C606 0.558 . S
C1261 C478 0.642 . S
C1267 C627 0.516 . S
C1281 C648 0.492 . S
C1287 C163 0.575 . S
C1301 C669 0.563 . S
C1307 C436 0.609 . S
C1321 C17 1.306 . S
C1327 C392 1.308 . S
C1341 C413 1.312 . S
C1347 C35 1.310 . S
C1361 C56 1.309 . S
C1367 C353 1.311 . S
C1381 C77 1.318 . S
C1387 C371 1.320 . S
C1401 C476 1.321 . S
C1407 C98 1.319 . S
C1421 C119 1.323 . S
C1427 C497 1.322 . S
C1441 C434 1.303 . S
C1447 C140 1.303 . S
C1461 C161 1.309 . S
C1467 C455 1.312 . S
C1481 C560 1.308 . S
C1487 C182 1.306 . S
C1501 C203 1.310 . S
C1507 C581 1.313 . S
C1521 C224 1.306 . S
C1527 C518 1.304 . S
C1541 C245 1.305 . S
C1547 C539 1.304 . S
C1561 C644 1.310 . S
C1567 C266 1.308 . S
C1581 C665 1.303 . S
C1587 C287 1.303 . S
C1601 C308 1.303 . S
C1607 C602 1.303 . S
C1621 C329 1.319 . S
C1627 C623 1.321 . S
C1641 C16 1.235 . S
C1647 C517 1.235 . S
C1661 C202 1.242 . S
C1667 C34 1.242 . S
C1681 C55 1.280 . S
C1687 C559 1.280 . S
C1701 C76 1.238 . S
C1707 C244 1.238 . S
C1721 C601 1.277 . S
C1727 C97 1.277 . S
C1741 C286 1.273 . S
C1747 C118 1.273 . S
C1761 C139 1.272 . S
C1767 C643 1.272 . S
C1781 C160 1.227 . S
C1787 C328 1.227 . S
C1801 C352 1.269 . S
C1807 C181 1.269 . S
C1821 C391 1.226 . S
C1827 C223 1.226 . S
C1841 C433 1.283 . S
C1847 C265 1.283 . S
C1861 C307 1.247 . S
C1867 C475 1.247 . S
C1881 C370 1.284 . S
C1887 C538 1.284 . S
C1901 C412 1.269 . S
C1907 C580 1.269 . S
C1921 C622 1.250 . S
C1927 C454 1.250 . S
C1941 C664 1.239 . S
C1947 C496 1.239 . S
C1961 C18 2.022 . S
C1967 C120 2.012 . S
C1981 C141 2.011 . S
C1987 C36 2.024 . S
C2001 C162 2.034 . S
C2007 C57 2.018 . S
C2021 C99 2.025 . S
C2027 C78 2.010 . S
C2041 C183 2.012 . S
C2047 C288 2.034 . S
C2061 C204 2.009 . S
C2067 C309 2.029 . S
C2081 C330 2.029 . S
C2087 C225 2.026 . S
C2101 C246 2.022 . S
C2107 C267 2.012 . S
C2121 C354 2.014 . S
C2127 C456 2.019 . S
C2141 C372 2.017 . S
C2147 C477 2.016 . S
C2161 C393 2.014 . S
C2167 C498 2.035 . S
C2181 C435 2.018 . S
C2187 C414 2.015 . S
C2201 C519 2.035 . S
C2207 C624 2.015 . S
C2221 C540 2.029 . S
C2227 C645 2.026 . S
C2241 C666 2.021 . S
C2247 C561 2.013 . S
C2261 C582 2.009 . S
C2267 C603 2.030 . S
C2281 C14 1.902 . S
C2287 C101 1.904 . S
C2301 C38 1.911 . S
C2307 C122 1.918 . S
C2321 C143 1.923 . S
C2327 C59 1.920 . S
C2341 C164 1.903 . S
C2347 C80 1.909 . S
C2361 C185 1.921 . S
C2367 C269 1.922 . S
C2381 C290 1.923 . S
C2387 C206 1.919 . S
C2401 C311 1.922 . S
C2407 C227 1.917 . S
C2421 C332 1.903 . S
C2427 C248 1.909 . S
C2441 C350 1.921 . S
C2447 C437 1.915 . S
C2461 C458 1.923 . S
C2467 C374 1.919 . S
C2481 C395 1.915 . S
C2487 C479 1.921 . S
C2501 C500 1.914 . S
C2507 C416 1.907 . S
C2521 C605 1.902 . S
C2527 C521 1.904 . S
C2541 C542 1.904 . S
C2547 C626 1.902 . S
C2561 C563 1.902 . S
C2567 C647 1.905 . S
C2581 C584 1.905 . S
C2587 C668 1.912 . S
