# Generated by pormake.
# Topology zfa, (5)-cn, num edge types: 1
# Building blocks:
#     Node 0, Type 0, BuildingBlock: BEQFEK_clean_sbu_0, # of connection points: 5
#     Node 1, Type 0, BuildingBlock: BEQFEK_clean_sbu_0, # of connection points: 5
#     Node 2, Type 0, BuildingBlock: BEQFEK_clean_sbu_0, # of connection points: 5
#     Node 3, Type 0, BuildingBlock: BEQFEK_clean_sbu_0, # of connection points: 5
#     Node 4, Type 0, BuildingBlock: BEQFEK_clean_sbu_0, # of connection points: 5
#     Node 5, Type 0, BuildingBlock: BEQFEK_clean_sbu_0, # of connection points: 5
#     Node 6, Type 0, BuildingBlock: BEQFEK_clean_sbu_0, # of connection points: 5
#     Node 7, Type 0, BuildingBlock: BEQFEK_clean_sbu_0, # of connection points: 5
#     Edge 8, Type (0, 0), BuildingBlock: EZIPEK_clean_linker_0, # of connection points: 2
#     Edge 9, Type (0, 0), BuildingBlock: EZIPEK_clean_linker_0, # of connection points: 2
#     Edge 10, Type (0, 0), BuildingBlock: EZIPEK_clean_linker_0, # of connection points: 2
#     Edge 11, Type (0, 0), BuildingBlock: EZIPEK_clean_linker_0, # of connection points: 2
#     Edge 12, Type (0, 0), BuildingBlock: EZIPEK_clean_linker_0, # of connection points: 2
#     Edge 13, Type (0, 0), BuildingBlock: EZIPEK_clean_linker_0, # of connection points: 2
#     Edge 14, Type (0, 0), BuildingBlock: EZIPEK_clean_linker_0, # of connection points: 2
#     Edge 15, Type (0, 0), BuildingBlock: EZIPEK_clean_linker_0, # of connection points: 2
#     Edge 16, Type (0, 0), BuildingBlock: EZIPEK_clean_linker_0, # of connection points: 2
#     Edge 17, Type (0, 0), BuildingBlock: EZIPEK_clean_linker_0, # of connection points: 2
#     Edge 18, Type (0, 0), BuildingBlock: EZIPEK_clean_linker_0, # of connection points: 2
#     Edge 19, Type (0, 0), BuildingBlock: EZIPEK_clean_linker_0, # of connection points: 2
#     Edge 20, Type (0, 0), BuildingBlock: EZIPEK_clean_linker_0, # of connection points: 2
#     Edge 21, Type (0, 0), BuildingBlock: EZIPEK_clean_linker_0, # of connection points: 2
#     Edge 22, Type (0, 0), BuildingBlock: EZIPEK_clean_linker_0, # of connection points: 2
#     Edge 23, Type (0, 0), BuildingBlock: EZIPEK_clean_linker_0, # of connection points: 2
#     Edge 24, Type (0, 0), BuildingBlock: EZIPEK_clean_linker_0, # of connection points: 2
#     Edge 25, Type (0, 0), BuildingBlock: EZIPEK_clean_linker_0, # of connection points: 2
#     Edge 26, Type (0, 0), BuildingBlock: EZIPEK_clean_linker_0, # of connection points: 2
#     Edge 27, Type (0, 0), BuildingBlock: EZIPEK_clean_linker_0, # of connection points: 2
# Relax obj value: 0.471
# Max RMSD: 0.198
# Mean RMSD: 0.198
data_MOF--net-zfa--node1-BEQFEK_clean_sbu_0--edge1-EZIPEK_clean_linker_0
_symmetry_space_group_name_H-M    P1
_symmetry_Int_Tables_number       1
_symmetry_cell_setting            triclinic
loop_
_symmetry_equiv_pos_as_xyz
'x, y, z'
_cell_length_a     23.464773
_cell_length_b     23.506997
_cell_length_c     27.581061
_cell_angle_alpha  89.702621
_cell_angle_beta   89.481554
_cell_angle_gamma 90.262267
loop_
_atom_site_label
_atom_site_type_symbol
_atom_site_fract_x
_atom_site_fract_y
_atom_site_fract_z
_atom_type_partial_charge
Co0 Co 0.20382 0.22504 0.31 0.0
Co1 Co 0.21563 0.35239 0.3381 0.0
C2 C 0.2112 0.2628 0.41383 0.0
O3 O 0.20794 0.22469 0.38171 0.0
O4 O 0.21301 0.31503 0.40235 0.0
C5 C 0.13058 0.13947 0.3247 0.0
O6 O 0.11229 0.18215 0.35109 0.0
C7 C 0.166 0.4515 0.37913 0.0
C8 C 0.21546 0.52254 0.34797 0.0
C9 C 0.16597 0.51019 0.37421 0.0
N10 N 0.21042 0.43039 0.35432 0.0
N11 N 0.24146 0.4731 0.33738 0.0
C12 C 0.12106 0.41501 0.40299 0.0
H13 H 0.12083 0.37174 0.3874 0.0
H14 H 0.07796 0.43355 0.3997 0.0
H15 H 0.13073 0.41152 0.44217 0.0
C16 C 0.09498 0.2684 0.26515 0.0
N17 N 0.1462 0.27712 0.28658 0.0
N18 N 0.15032 0.33115 0.29844 0.0
C19 C 0.10156 0.3577 0.28448 0.0
C20 C 0.06395 0.31827 0.26513 0.0
C21 C 0.07544 0.21421 0.24268 0.0
H22 H 0.11261 0.18857 0.2314 0.0
H23 H 1.04801 0.19048 0.26879 0.0
H24 H 0.04908 0.22336 0.21035 0.0
O25 O 0.2852 0.242 0.28748 0.0
O26 O 0.29295 0.33305 0.30917 0.0
H27 H 0.13196 0.44416 0.28594 0.0
H28 H 0.06771 0.43314 0.25211 0.0
C29 C 0.09126 0.4203 0.2851 0.0
H30 H 0.0637 0.43111 0.31644 0.0
H31 H 0.27775 0.46844 0.31563 0.0
O32 O 0.17539 0.1465 0.29884 0.0
C33 C 0.31501 0.28754 0.29203 0.0
Co34 Co 0.38077 0.70775 0.80071 0.0
Co35 Co 0.25708 0.71134 0.83815 0.0
C36 C 0.34198 0.72341 0.90899 0.0
O37 O 0.3788 0.72073 0.87453 0.0
O38 O 0.28907 0.71839 0.90116 0.0
C39 C 0.46371 0.63274 0.81408 0.0
O40 O 0.42115 0.61853 0.84292 0.0
C41 C 0.14739 0.67153 0.8716 0.0
C42 C 0.0983 0.68013 0.80422 0.0
C43 C 0.09927 0.65174 0.84838 0.0
N44 N 0.17643 0.7054 0.84087 0.0
N45 N 0.14534 0.71302 0.80167 0.0
C46 C 0.16737 0.65507 0.92127 0.0
H47 H 0.21391 0.64805 0.92141 0.0
H48 H 0.14498 0.61654 0.93513 0.0
H49 H 0.15846 0.69072 0.94639 0.0
C50 C 0.34005 0.59726 0.75907 0.0
N51 N 0.32954 0.64796 0.7806 0.0
N52 N 0.28539 0.6421 0.80957 0.0
C53 C 0.27169 0.58596 0.81245 0.0
C54 C 0.30392 0.55612 0.77879 0.0
C55 C 0.38537 0.58703 0.72198 0.0
H56 H 0.41573 0.55509 0.73605 0.0
H57 H 0.36575 0.56853 0.68912 0.0
H58 H 0.40745 0.62729 0.71209 0.0
O59 O 0.36292 0.78381 0.7716 0.0
O60 O 0.27588 0.78635 0.80394 0.0
H61 H 0.24031 0.51171 0.85164 0.0
H62 H 0.27109 0.56723 0.88816 0.0
C63 C 0.24459 0.55844 0.8559 0.0
H64 H 0.20249 0.57614 0.8627 0.0
H65 H 0.15954 0.73477 0.77074 0.0
O66 O 0.45896 0.67757 0.78831 0.0
C67 C 0.31662 0.81046 0.78043 0.0
Co68 Co 0.89214 0.87791 0.31131 0.0
Co69 Co 0.88194 0.74787 0.3303 0.0
C70 C 0.88116 0.83021 0.41198 0.0
O71 O 0.88455 0.87259 0.38341 0.0
O72 O 0.88168 0.77992 0.39589 0.0
C73 C 0.96044 0.9666 0.32763 0.0
O74 O 0.97974 0.92406 0.35363 0.0
C75 C 0.93539 0.65082 0.3701 0.0
C76 C 0.8913 0.57716 0.33865 0.0
C77 C 0.93874 0.59242 0.36563 0.0
N78 N 0.89081 0.66955 0.34459 0.0
N79 N 0.86304 0.62523 0.32729 0.0
C80 C 0.97741 0.68914 0.39485 0.0
H81 H 0.97659 0.73269 0.37952 0.0
H82 H 1.02143 0.67241 0.39229 0.0
H83 H 0.96579 0.69167 0.43386 0.0
C84 C 1.00465 0.8403 0.26592 0.0
N85 N 0.95239 0.82935 0.28572 0.0
N86 N 0.94761 0.77409 0.29273 0.0
C87 C 0.99666 0.74903 0.27723 0.0
C88 C 1.03527 0.79033 0.26186 0.0
C89 C 1.02546 0.89673 0.24802 0.0
H90 H 0.05008 0.91803 0.27689 0.0
H91 H 0.05477 0.89125 0.21656 0.0
H92 H 0.98898 0.923 0.23658 0.0
O93 O 0.81261 0.86054 0.28671 0.0
O94 O 0.80478 0.76738 0.30181 0.0
H95 H 0.96658 0.66259 0.27379 0.0
H96 H 1.0323 0.6766 0.24149 0.0
C97 C 1.00722 0.68659 0.27467 0.0
H98 H 1.03335 0.67343 0.30594 0.0
H99 H 0.8273 0.62797 0.30516 0.0
O100 O 0.91678 0.95809 0.30161 0.0
C101 C 0.78318 0.81446 0.28745 0.0
Co102 Co 0.71292 0.38199 0.80277 0.0
Co103 Co 0.84035 0.37754 0.83073 0.0
C104 C 0.75773 0.37145 0.90781 0.0
O105 O 0.71831 0.37289 0.87618 0.0
O106 O 0.80993 0.3751 0.89581 0.0
C107 C 0.62723 0.45409 0.81719 0.0
O108 O 0.67002 0.47097 0.84388 0.0
C109 C 0.95153 0.40386 0.86888 0.0
C110 C 0.99067 0.43297 0.80008 0.0
C111 C 0.9955 0.43745 0.85013 0.0
N112 N 0.9202 0.38511 0.83154 0.0
N113 N 0.94539 0.4003 0.79058 0.0
C114 C 0.94478 0.38154 0.91964 0.0
H115 H 0.94208 0.3344 0.91875 0.0
H116 H 0.90431 0.39673 0.9359 0.0
H117 H 0.98122 0.3946 0.94253 0.0
C118 C 0.75179 0.49361 0.7578 0.0
N119 N 0.76233 0.44226 0.77871 0.0
N120 N 0.81249 0.44456 0.79915 0.0
C121 C 0.83254 0.49861 0.79582 0.0
C122 C 0.7954 0.53144 0.76902 0.0
C123 C 0.70078 0.50755 0.72825 0.0
H124 H 0.67763 0.46823 0.7182 0.0
H125 H 0.67276 0.5367 0.7489 0.0
H126 H 0.71439 0.5306 0.69484 0.0
O127 O 0.73112 0.30414 0.77651 0.0
O128 O 0.82156 0.30218 0.80004 0.0
H129 H 0.91953 0.52343 0.80248 0.0
H130 H 0.87105 0.56584 0.83703 0.0
C131 C 0.88024 0.5218 0.825 0.0
H132 H 0.88598 0.49458 0.85719 0.0
H133 H 0.92761 0.39467 0.75638 0.0
O134 O 0.63339 0.40898 0.79241 0.0
C135 C 0.77839 0.27782 0.78129 0.0
Co136 Co 0.70671 0.38225 0.21214 0.0
Co137 Co 0.71725 0.25196 0.19649 0.0
C138 C 0.71738 0.33212 0.1126 0.0
O139 O 0.71399 0.37518 0.14004 0.0
O140 O 0.71716 0.28229 0.13009 0.0
C141 C 0.63792 0.46994 0.19344 0.0
O142 O 0.61882 0.42667 0.16842 0.0
C143 C 0.664 0.15361 0.15925 0.0
C144 C 0.70794 0.08118 0.1928 0.0
C145 C 0.66058 0.09529 0.16532 0.0
N146 N 0.70856 0.17334 0.18428 0.0
N147 N 0.73625 0.12974 0.20286 0.0
C148 C 0.6219 0.19108 0.13369 0.0
H149 H 0.62304 0.23503 0.14772 0.0
H150 H 0.57779 0.17437 0.13712 0.0
H151 H 0.6331 0.19256 0.09454 0.0
C152 C 0.5944 0.34419 0.25877 0.0
N153 N 0.64662 0.33345 0.2391 0.0
N154 N 0.65145 0.27813 0.23333 0.0
C155 C 0.60237 0.25283 0.2493 0.0
C156 C 0.56374 0.29401 0.26379 0.0
C157 C 0.57364 0.40076 0.27535 0.0
H158 H 0.61023 0.42753 0.28598 0.0
H159 H 0.54888 0.42113 0.24603 0.0
H160 H 0.54453 0.39576 0.30706 0.0
O161 O 0.78653 0.36641 0.2372 0.0
O162 O 0.7944 0.27303 0.22442 0.0
H163 H 0.63271 0.16681 0.25525 0.0
H164 H 0.56703 0.18101 0.28723 0.0
C165 C 0.59203 0.19033 0.25372 0.0
H166 H 0.56585 0.17591 0.22294 0.0
H167 H 0.77191 0.13335 0.22498 0.0
O168 O 0.68147 0.46244 0.21982 0.0
C169 C 0.81599 0.32059 0.23767 0.0
Co170 Co 0.21943 0.20608 0.72482 0.0
Co171 Co 0.34191 0.21373 0.68508 0.0
C172 C 0.25433 0.22078 0.6156 0.0
O173 O 0.21914 0.21576 0.651 0.0
O174 O 0.30773 0.22032 0.62231 0.0
C175 C 0.13758 0.12929 0.71198 0.0
O176 O 0.18025 0.11584 0.6832 0.0
C177 C 0.45154 0.17598 0.6507 0.0
C178 C 0.50146 0.18596 0.71742 0.0
C179 C 0.49988 0.15676 0.6739 0.0
N180 N 0.42278 0.20991 0.68107 0.0
N181 N 0.45444 0.21846 0.71976 0.0
C182 C 0.431 0.15891 0.60149 0.0
H183 H 0.3845 0.15157 0.60205 0.0
H184 H 0.45313 0.12041 0.58802 0.0
H185 H 0.43958 0.1944 0.57572 0.0
C186 C 0.26215 0.097 0.76663 0.0
N187 N 0.27199 0.14802 0.74484 0.0
N188 N 0.31548 0.14319 0.71505 0.0
C189 C 0.32941 0.08717 0.71227 0.0
C190 C 0.29803 0.05653 0.74648 0.0
C191 C 0.21683 0.08561 0.8037 0.0
H192 H 0.18603 0.05423 0.78923 0.0
H193 H 0.23633 0.066 0.83624 0.0
H194 H 0.19515 0.12556 0.81419 0.0
O195 O 0.2366 0.28301 0.75265 0.0
O196 O 0.32312 0.28789 0.71951 0.0
H197 H 0.36343 1.0139 0.67454 0.0
H198 H 0.32878 0.06607 0.63722 0.0
C199 C 0.35665 0.06013 0.66904 0.0
H200 H 0.39749 0.08014 0.66079 0.0
H201 H 0.44061 0.24041 0.75045 0.0
O202 O 0.14203 0.17393 0.73774 0.0
C203 C 0.2824 0.31086 0.74337 0.0
Co204 Co 0.39349 0.72398 0.21188 0.0
Co205 Co 0.3833 0.85344 0.19121 0.0
C206 C 0.38595 0.77146 0.11034 0.0
O207 O 0.38785 0.72955 0.13949 0.0
O208 O 0.38616 0.82202 0.12576 0.0
C209 C 0.46539 0.63846 0.19506 0.0
O210 O 0.48449 0.68252 0.17035 0.0
C211 C 0.43225 0.95481 0.15287 0.0
C212 C 0.38481 1.02381 0.18814 0.0
C213 C 0.43293 1.0132 0.1598 0.0
N214 N 0.38882 0.93223 0.17843 0.0
N215 N 0.35891 0.97375 0.19789 0.0
C216 C 0.4757 0.91966 0.12623 0.0
H217 H 0.47714 0.87577 0.14085 0.0
H218 H 0.519 0.93839 0.12795 0.0
H219 H 0.46351 0.91733 0.08751 0.0
C220 C 0.50302 0.76365 0.25902 0.0
N221 N 0.45194 0.77417 0.23802 0.0
N222 N 0.44865 0.82905 0.22879 0.0
C223 C 0.49807 0.85421 0.24329 0.0
C224 C 0.53504 0.81314 0.26084 0.0
C225 C 0.52153 0.70806 0.27961 0.0
H226 H 0.54881 0.68584 0.2528 0.0
H227 H 0.54781 0.71506 0.31234 0.0
H228 H 0.48381 0.68215 0.2898 0.0
O229 O 0.31306 0.73915 0.23651 0.0
O230 O 0.30577 0.83165 0.21913 0.0
H231 H 0.47014 0.94127 0.24462 0.0
H232 H 0.53596 0.92806 0.27544 0.0
C233 C 0.51017 0.91667 0.24338 0.0
H234 H 0.53611 0.92825 0.21109 0.0
H235 H 0.32354 0.96769 0.22057 0.0
O236 O 0.42042 0.64436 0.22068 0.0
C237 C 0.28368 0.78494 0.23448 0.0
Co238 Co 0.88117 0.88258 0.72057 0.0
Co239 Co 0.75407 0.87848 0.69189 0.0
C240 C 0.83695 0.87286 0.6153 0.0
O241 O 0.87603 0.87396 0.64726 0.0
O242 O 0.78465 0.87677 0.62683 0.0
C243 C 0.96841 0.95413 0.70686 0.0
O244 O 0.92645 0.97224 0.6798 0.0
C245 C 0.64294 0.90637 0.65451 0.0
C246 C 0.60541 0.93453 0.72386 0.0
C247 C 0.6001 0.94039 0.6739 0.0
N248 N 0.6742 0.88617 0.69142 0.0
N249 N 0.64986 0.90079 0.7327 0.0
C250 C 0.64829 0.88471 0.60365 0.0
H251 H 0.6492 0.8375 0.60441 0.0
H252 H 0.68919 0.89898 0.58716 0.0
H253 H 0.6121 0.89914 0.58107 0.0
C254 C 0.84318 0.99391 0.7652 0.0
N255 N 0.83243 0.94277 0.74423 0.0
N256 N 0.78251 0.94523 0.72343 0.0
C257 C 0.76288 0.99921 0.72656 0.0
C258 C 0.79987 1.03176 0.75371 0.0
C259 C 0.89421 1.00764 0.79484 0.0
H260 H 0.91653 0.96818 0.80557 0.0
H261 H 0.92302 1.03625 0.77389 0.0
H262 H 0.88081 1.03113 0.82782 0.0
O263 O 0.86236 0.80473 0.74696 0.0
O264 O 0.77226 0.80256 0.72257 0.0
H265 H 0.67661 1.02515 0.71851 0.0
H266 H 0.72662 0.06676 0.68413 0.0
C267 C 0.71623 1.02288 0.69652 0.0
H268 H 0.71063 0.99569 0.66451 0.0
H269 H 0.6679 0.89412 0.76669 0.0
O270 O 0.96085 0.90865 0.73132 0.0
C271 C 0.8151 0.77821 0.74173 0.0
C272 C 1.01991 0.55755 0.41608 0.0
C273 C 0.99346 0.56124 0.36999 0.0
C274 C 0.08653 0.55682 0.33053 0.0
C275 C 0.11254 0.54421 0.37538 0.0
N276 N 0.10487 0.53404 0.46193 0.0
N277 N 1.0018 0.54485 0.28348 0.0
C278 C 0.07938 0.54554 0.41868 0.0
C279 C 1.02668 0.55416 0.32732 0.0
N280 N 0.98812 0.56646 0.45704 0.0
N281 N 0.1183 0.5731 0.29109 0.0
H282 H 0.95834 0.53838 0.27921 0.0
H283 H 1.02533 0.53575 0.25225 0.0
H284 H 0.16144 0.58294 0.29303 0.0
H285 H 0.1001 0.58597 0.2585 0.0
H286 H 1.00546 0.5708 0.49143 0.0
H287 H 0.94397 0.57156 0.45603 0.0
H288 H 0.08258 0.52777 0.49433 0.0
H289 H 0.1489 0.52884 0.46467 0.0
C290 C 1.00633 0.5308 0.89682 0.0
C291 C 1.03093 0.48356 0.87174 0.0
C292 C 0.09921 0.54657 0.83242 0.0
C293 C 0.07513 0.59417 0.85668 0.0
N294 N 1.01647 0.62928 0.92193 0.0
N295 N 0.11575 0.44522 0.83609 0.0
C296 C 1.03245 0.58544 0.89248 0.0
C297 C 0.0834 0.4914 0.84762 0.0
N298 N 0.957 0.52507 0.92273 0.0
N299 N 0.13542 0.55315 0.79373 0.0
H300 H 0.10353 0.40417 0.84673 0.0
H301 H 0.15635 0.44863 0.8206 0.0
H302 H 0.1513 0.59212 0.78169 0.0
H303 H 0.14755 0.51908 0.77198 0.0
H304 H 0.93285 0.55948 0.93457 0.0
H305 H 0.93883 0.48627 0.93125 0.0
H306 H 0.99036 0.62389 0.95237 0.0
H307 H 1.0329 0.6704 0.91815 0.0
C308 C 0.51365 0.05878 0.20254 0.0
C309 C 0.48645 1.0475 0.15804 0.0
C310 C 0.57841 0.06081 0.11594 0.0
C311 C 0.60586 0.0635 0.16164 0.0
N312 N 0.59914 1.04461 0.24803 0.0
N313 N 0.49157 1.04077 0.07126 0.0
C314 C 0.57348 0.05549 0.20476 0.0
C315 C 0.51855 0.05003 0.11419 0.0
N316 N 0.48304 0.07469 0.24251 0.0
N317 N 0.60974 0.06956 0.07458 0.0
H318 H 0.44732 1.03647 0.06938 0.0
H319 H 0.51264 1.03566 0.03823 0.0
H320 H 0.65406 0.0737 0.07509 0.0
H321 H 0.59208 0.07444 0.04035 0.0
H322 H 0.5022 0.08649 0.27492 0.0
H323 H 0.44017 0.08551 0.24109 0.0
H324 H 0.57606 1.03499 0.27953 0.0
H325 H 0.64248 1.0369 0.25135 0.0
C326 C 0.5139 0.99635 0.67837 0.0
C327 C 0.5654 0.98762 0.65307 0.0
C328 C 0.56496 0.08927 0.63039 0.0
C329 C 0.52337 0.09893 0.66679 0.0
N330 N 0.46424 0.0594 0.73187 0.0
N331 N 0.63892 1.02816 0.60022 0.0
C332 C 0.49944 0.05191 0.69272 0.0
C333 C 0.59018 1.03441 0.62673 0.0
N334 N 0.48101 0.95065 0.69148 0.0
N335 N 0.5808 0.13247 0.59966 0.0
H336 H 0.65666 0.98927 0.59232 0.0
H337 H 0.66323 0.06234 0.58739 0.0
H338 H 0.56521 0.17379 0.6029 0.0
H339 H 0.60588 0.12632 0.56879 0.0
H340 H 0.44114 0.95457 0.70811 0.0
H341 H 0.49188 0.90936 0.68113 0.0
H342 H 0.45216 1.02588 0.75468 0.0
H343 H 0.44897 0.09861 0.74318 0.0
C344 C 0.46328 0.28668 0.23016 0.0
C345 C 0.50002 0.28798 0.27104 0.0
C346 C 0.41564 0.28823 0.32526 0.0
C347 C 0.3788 0.28558 0.28438 0.0
N348 N 0.36756 0.27324 0.19849 0.0
N349 N 0.51191 0.28093 0.35722 0.0
C350 C 0.40276 0.2818 0.23701 0.0
C351 C 0.47627 0.28617 0.31852 0.0
N352 N 0.48619 0.29236 0.1846 0.0
N353 N 0.39254 0.29307 0.37077 0.0
H354 H 0.55619 0.28006 0.35347 0.0
H355 H 0.49808 0.27324 0.3926 0.0
H356 H 0.3489 0.29034 0.37788 0.0
H357 H 0.41615 0.30243 0.40149 0.0
H358 H 0.46207 0.2985 0.15356 0.0
H359 H 0.52993 0.29474 0.17785 0.0
H360 H 0.38202 0.26348 0.16375 0.0
H361 H 0.32327 0.27206 0.20189 0.0
C362 C 0.26818 0.95456 0.72769 0.0
C363 C 0.30023 0.99332 0.75621 0.0
C364 C 0.34624 0.91223 0.7973 0.0
C365 C 0.31254 0.87331 0.77014 0.0
N366 N 0.23628 0.85727 0.71395 0.0
N367 N 0.36335 1.00972 0.82295 0.0
C368 C 0.27187 0.89456 0.73674 0.0
C369 C 0.33753 0.97221 0.79228 0.0
N370 N 0.23537 0.97515 0.69093 0.0
N371 N 0.38672 0.89186 0.8282 0.0
H372 H 0.35902 0.05372 0.8198 0.0
H373 H 0.38582 0.99766 0.85364 0.0
H374 H 0.39152 0.84883 0.83636 0.0
H375 H 0.41785 0.91719 0.84401 0.0
H376 H 0.21577 0.9497 0.66516 0.0
H377 H 0.23054 1.01849 0.68422 0.0
H378 H 0.20114 0.86967 0.69379 0.0
H379 H 0.23998 0.81324 0.71739 0.0
C380 C 0.63583 0.80063 0.2279 0.0
C381 C 0.59894 0.81728 0.26671 0.0
C382 C 0.68299 0.83324 0.31831 0.0
C383 C 0.71986 0.81744 0.27929 0.0
N384 N 0.73258 0.79353 0.19539 0.0
N385 N 0.58694 0.8552 0.34687 0.0
C386 C 0.69649 0.80315 0.23365 0.0
C387 C 0.62254 0.83538 0.31131 0.0
N388 N 0.61268 0.78142 0.18565 0.0
N389 N 0.70592 0.84461 0.36267 0.0
H390 H 0.54268 0.85506 0.34365 0.0
H391 H 0.60078 0.87493 0.37833 0.0
H392 H 0.74971 0.84621 0.36865 0.0
H393 H 0.68208 0.84976 0.3943 0.0
H394 H 0.63598 0.76183 0.15823 0.0
H395 H 0.56914 0.78262 0.17857 0.0
H396 H 0.71936 0.78864 0.15976 0.0
H397 H 0.77684 0.79422 0.19874 0.0
C398 C 0.81842 0.19353 0.73547 0.0
C399 C 0.78174 0.21498 0.77226 0.0
C400 C 0.75671 0.11658 0.79639 0.0
C401 C 0.79625 0.09504 0.76183 0.0
N402 N 0.86773 0.11262 0.70018 0.0
N403 N 0.72375 0.1971 0.84349 0.0
C404 C 0.82815 0.13352 0.732 0.0
C405 C 0.75273 0.17651 0.8041 0.0
N406 N 0.84229 0.23063 0.70269 0.0
N407 N 0.72219 0.07966 0.8216 0.0
H408 H 0.71954 0.24038 0.8507 0.0
H409 H 0.70774 0.17139 0.87134 0.0
H410 H 0.72591 1.03556 0.81927 0.0
H411 H 0.68742 0.0926 0.84245 0.0
H412 H 0.86493 0.2182 0.67196 0.0
H413 H 0.83578 0.27447 0.70422 0.0
H414 H 0.89732 0.13776 0.68154 0.0
H415 H 0.87328 0.0693 0.69423 0.0
C416 C 0.97723 0.3373 0.21294 0.0
C417 C 1.00023 0.32358 0.25894 0.0
C418 C 0.90225 0.31546 0.29279 0.0
C419 C 0.87935 0.32419 0.2459 0.0
N420 N 0.89443 0.34121 0.1605 0.0
N421 N 0.98522 0.29596 0.34244 0.0
C422 C 0.9168 0.33478 0.2058 0.0
C423 C 0.9628 0.31197 0.29887 0.0
N424 N 1.01334 0.35376 0.17625 0.0
N425 N 0.86593 0.31174 0.33171 0.0
H426 H 1.02888 0.29521 0.34909 0.0
H427 H 0.96099 0.2803 0.37136 0.0
H428 H 0.82171 0.31311 0.32822 0.0
H429 H 0.8792 0.3115 0.3676 0.0
H430 H 0.99988 0.37005 0.14316 0.0
H431 H 0.05753 0.35483 0.18009 0.0
H432 H 0.91866 0.34194 0.12873 0.0
H433 H 0.85072 0.34307 0.15423 0.0
C434 C 0.26107 0.47272 0.73455 0.0
C435 C 0.30115 0.4932 0.76855 0.0
C436 C 0.3301 0.39417 0.78589 0.0
C437 C 0.28664 0.37343 0.75477 0.0
N438 N 0.20659 0.3935 0.70291 0.0
N439 N 0.37044 0.47395 0.83018 0.0
C440 C 0.25079 0.41294 0.73032 0.0
C441 C 0.33491 0.454 0.79509 0.0
N442 N 0.23417 0.51059 0.70478 0.0
N443 N 0.36705 0.35656 0.80655 0.0
H444 H 0.37599 0.51719 0.83687 0.0
H445 H 0.39174 0.44802 0.85467 0.0
H446 H 0.36241 0.31256 0.80363 0.0
H447 H 0.40389 0.36871 0.82457 0.0
H448 H 0.2096 0.49869 0.67526 0.0
H449 H 0.23995 0.55451 0.70715 0.0
H450 H 0.1745 0.41957 0.68965 0.0
H451 H 0.19944 0.35064 0.69583 0.0
C452 C 0.12308 0.77358 0.20908 0.0
C453 C 0.09904 0.78487 0.25543 0.0
C454 C 0.19615 0.79592 0.28872 0.0
C455 C 0.22019 0.78229 0.24284 0.0
N456 N 0.20701 0.74989 0.1609 0.0
N457 N 0.11231 0.79786 0.34126 0.0
C458 C 0.18366 0.76857 0.20352 0.0
C459 C 0.13557 0.79338 0.2958 0.0
N460 N 0.08795 0.76936 0.16998 0.0
N461 N 0.23127 0.81275 0.32526 0.0
H462 H 0.0685 0.7973 0.34791 0.0
H463 H 0.1362 0.79781 0.37286 0.0
H464 H 0.27559 0.81314 0.32175 0.0
H465 H 0.21674 0.82971 0.35787 0.0
H466 H 0.10243 0.76783 0.13425 0.0
H467 H 1.04364 0.7711 0.17304 0.0
H468 H 0.18325 0.73348 0.13249 0.0
H469 H 0.25087 0.74679 0.15506 0.0
C470 C 0.7759 0.69268 0.78767 0.0
C471 C 0.8118 0.71519 0.75047 0.0
C472 C 0.83748 0.61756 0.72612 0.0
C473 C 0.79879 0.5949 0.7612 0.0
N474 N 0.72821 0.61044 0.82374 0.0
N475 N 0.869 0.69926 0.67869 0.0
C476 C 0.76696 0.63245 0.79138 0.0
C477 C 0.84073 0.67764 0.71835 0.0
N478 N 0.75202 0.72901 0.82058 0.0
N479 N 0.87191 0.58156 0.70051 0.0
H480 H 0.87271 0.74271 0.67148 0.0
H481 H 0.88489 0.67422 0.65068 0.0
H482 H 0.86874 0.53737 0.70301 0.0
H483 H 0.90613 0.59536 0.67915 0.0
H484 H 0.72999 0.71584 0.85158 0.0
H485 H 0.75783 0.77301 0.81878 0.0
H486 H 0.69857 0.63476 0.84264 0.0
H487 H 0.72347 0.56697 0.83 0.0
C488 C 0.25735 0.20589 0.48014 0.0
C489 C 0.21581 0.24603 0.46549 0.0
C490 C 0.19428 0.26709 0.55056 0.0
C491 C 0.23388 0.22488 0.56499 0.0
N492 N 0.28591 0.14051 0.54309 0.0
N493 N 0.13204 0.29975 0.48679 0.0
C494 C 0.25983 0.18982 0.52956 0.0
C495 C 0.18021 0.27201 0.50074 0.0
N496 N 0.29681 0.18557 0.44793 0.0
N497 N 0.1723 0.3044 0.58349 0.0
H498 H 0.11879 0.3008 0.45081 0.0
H499 H 0.10213 0.31554 0.51137 0.0
H500 H 0.18196 0.30317 0.62021 0.0
H501 H 0.14819 0.33963 0.5735 0.0
H502 H 0.33119 0.16064 0.45855 0.0
H503 H 0.29911 0.19822 0.41171 0.0
H504 H 0.30163 0.11113 0.5182 0.0
H505 H 0.28539 0.12603 0.57889 0.0
C506 C 0.33447 0.79046 0.03252 0.0
C507 C 0.37837 0.76161 0.05771 0.0
C508 C 0.39895 0.70587 0.98498 0.0
C509 C 0.35927 0.7389 0.9587 0.0
N510 N 0.30261 0.82436 0.95463 0.0
N511 N 0.46347 0.70458 0.05271 0.0
C512 C 0.33133 0.78504 0.98157 0.0
C513 C 0.41404 0.723 0.03244 0.0
N514 N 0.29364 0.82035 0.05707 0.0
N515 N 0.42002 0.65672 0.96601 0.0
H516 H 0.47791 0.72002 0.08574 0.0
H517 H 0.49307 0.67982 0.03403 0.0
H518 H 0.40776 0.64145 0.9323 0.0
H519 H 0.44496 0.62856 0.98589 0.0
H520 H 0.25799 0.83738 0.04012 0.0
H521 H 0.2915 0.82263 0.09476 0.0
H522 H 0.28577 0.86142 0.9695 0.0
H523 H 0.30138 0.82326 0.91683 0.0
C524 C 0.89191 0.89393 0.53807 0.0
C525 C 0.85147 0.86045 0.56408 0.0
C526 C 0.82739 0.81029 0.48955 0.0
C527 C 0.87228 0.83931 0.4647 0.0
N528 N 0.95763 0.89656 0.47017 0.0
N529 N 0.79318 0.77531 0.56694 0.0
C530 C 0.90768 0.87768 0.49034 0.0
C531 C 0.82297 0.81508 0.54057 0.0
N532 N 0.91339 0.94253 0.5578 0.0
N533 N 0.78714 0.78036 0.46464 0.0
H534 H 0.79111 0.77544 0.60474 0.0
H535 H 0.77618 0.73861 0.55157 0.0
H536 H 0.78661 0.77745 0.42699 0.0
H537 H 0.75062 0.76357 0.48121 0.0
H538 H 0.93916 0.97098 0.53838 0.0
H539 H 0.90043 0.95736 0.59163 0.0
H540 H 0.98705 0.92115 0.48899 0.0
H541 H 0.97269 0.88162 0.43698 0.0
C542 C 0.68952 0.37794 0.03359 0.0
C543 C 0.72501 0.33988 0.05945 0.0
C544 C 0.77186 0.31404 0.98315 0.0
C545 C 0.74374 0.35943 0.95933 0.0
N546 N 0.68379 0.44236 0.96539 0.0
N547 N 0.80893 0.2799 0.05901 0.0
C548 C 0.7046 0.39361 0.98542 0.0
C549 C 0.76865 0.30996 0.03434 0.0
N550 N 0.64001 0.39693 0.05395 0.0
N551 N 0.80023 0.27368 0.95695 0.0
H552 H 0.81043 0.27744 0.09667 0.0
H553 H 0.84463 0.26244 0.04207 0.0
H554 H 0.80143 0.27345 0.91913 0.0
H555 H 0.81686 0.23696 0.97265 0.0
H556 H 0.61063 0.42149 0.03506 0.0
H557 H 0.62507 0.38179 0.08728 0.0
H558 H 0.65897 0.47118 0.98483 0.0
H559 H 0.69654 0.45692 0.93126 0.0
C560 C 1.0173 1.03997 0.28089 0.0
C561 C 0.99555 1.01916 0.32574 0.0
C562 C 0.07159 0.0688 0.36895 0.0
C563 C 0.09455 0.0876 0.3239 0.0
N564 N 0.10026 0.07459 0.23725 0.0
N565 N 0.99203 1.02572 0.41259 0.0
C566 C 0.07079 0.06837 0.27985 0.0
C567 C 1.02005 1.03709 0.3699 0.0
N568 N 0.98592 1.03535 0.23965 0.0
N569 N 0.10105 0.07932 0.41056 0.0
H570 H 0.95245 1.00523 0.41366 0.0
H571 H 1.00459 1.04111 0.44616 0.0
H572 H 0.14051 0.10005 0.41028 0.0
H573 H 0.08971 0.06302 0.44445 0.0
H574 H 0.99776 0.05452 0.20692 0.0
H575 H 0.9447 1.01893 0.2394 0.0
H576 H 0.087 0.05661 0.20477 0.0
H577 H 0.14144 0.09107 0.23539 0.0
C578 C 0.53071 0.56797 0.76841 0.0
C579 C 0.51344 0.5939 0.81243 0.0
C580 C 0.55977 0.51823 0.85868 0.0
C581 C 0.57671 0.49193 0.81482 0.0
N582 N 0.56166 0.48164 0.72885 0.0
N583 N 0.52592 0.60347 0.89829 0.0
C584 C 0.55731 0.51368 0.76983 0.0
C585 C 0.53209 0.57158 0.8573 0.0
N586 N 0.52463 0.59629 0.72545 0.0
N587 N 0.568 0.49035 0.90166 0.0
H588 H 0.50926 0.64457 0.89731 0.0
H589 H 0.54289 0.5923 0.93174 0.0
H590 H 0.58521 0.44949 0.90314 0.0
H591 H 0.55235 0.50454 0.93488 0.0
H592 H 0.54143 0.58178 0.69273 0.0
H593 H 0.50905 0.63756 0.72327 0.0
H594 H 0.54344 0.49323 0.69598 0.0
H595 H 0.57704 0.44022 0.72893 0.0
C596 C 0.52502 0.56732 0.23963 0.0
C597 C 0.50154 0.58693 0.19554 0.0
C598 C 0.57754 0.53908 0.15005 0.0
C599 C 0.6022 0.52182 0.19448 0.0
N600 N 0.61085 0.53868 0.28039 0.0
N601 N 0.49671 0.58106 0.10881 0.0
C602 C 0.57954 0.54167 0.23901 0.0
C603 C 0.52558 0.56982 0.15062 0.0
N604 N 0.49446 0.57063 0.28182 0.0
N605 N 0.60571 0.52783 0.10756 0.0
H606 H 0.45682 0.60058 0.10907 0.0
H607 H 0.50911 0.56697 0.07465 0.0
H608 H 0.64553 0.50815 0.10687 0.0
H609 H 0.59282 0.54201 0.07363 0.0
H610 H 0.50803 0.55239 0.31423 0.0
H611 H 0.45254 0.58486 0.28312 0.0
H612 H 0.59783 0.55714 0.3129 0.0
H613 H 0.65279 0.52449 0.28079 0.0
C614 C 0.06919 0.06894 0.66768 0.0
C615 C 0.08752 0.09046 0.71289 0.0
C616 C 1.03962 1.01122 0.75501 0.0
C617 C 1.02006 0.9907 0.70978 0.0
N618 N 1.03039 0.98936 0.6231 0.0
N619 N 0.07556 0.09173 0.79992 0.0
C620 C 1.03904 1.01667 0.66608 0.0
C621 C 0.06858 0.06449 0.75676 0.0
N622 N 0.07821 0.10047 0.62647 0.0
N623 N 1.0332 0.97885 0.79596 0.0
H624 H 0.09336 0.13214 0.80262 0.0
H625 H 0.05751 0.07744 0.83241 0.0
H626 H 1.01594 0.93804 0.79578 0.0
H627 H 0.05148 0.98927 0.82902 0.0
H628 H 0.06143 0.09006 0.59284 0.0
H629 H 0.09743 0.14062 0.62704 0.0
H630 H 1.04739 1.00305 0.59004 0.0
H631 H 1.01128 0.94921 0.62151 0.0
loop_
_geom_bond_atom_site_label_1
_geom_bond_atom_site_label_2
_geom_bond_distance
_geom_bond_site_symmetry_2
_ccdc_geom_bond_type
Co0 O3 1.970 . S
Co0 N17 1.989 . S
Co0 O25 1.967 . S
Co0 O32 1.920 . S
Co1 O4 1.966 . S
Co1 N10 2.022 . S
Co1 N18 1.993 . S
Co1 O26 1.941 . S
C2 O3 1.258 . S
C2 O4 1.263 . S
O3 Co0 1.970 . S
O3 C2 1.258 . S
O4 Co1 1.966 . S
O4 C2 1.263 . S
C5 O6 1.235 . S
C5 O32 1.289 . S
O6 C5 1.235 . S
C7 C9 1.400 . S
C7 N10 1.351 . S
C7 C12 1.501 . S
C8 C9 1.387 . S
C8 N11 1.341 . S
C9 C7 1.400 . S
C9 C8 1.387 . S
N10 Co1 2.022 . S
N10 C7 1.351 . S
N10 N11 1.365 . S
N11 C8 1.341 . S
N11 N10 1.365 . S
N11 H31 0.862 . S
C12 C7 1.501 . S
C12 H13 0.961 . S
C12 H14 0.961 . S
C12 H15 0.960 . S
H13 C12 0.961 . S
H14 C12 0.961 . S
H15 C12 0.960 . S
C16 N17 1.342 1_655 S
C16 C20 1.401 . S
C16 C21 1.499 . S
N17 Co0 1.989 . S
N17 C16 1.342 1_455 S
N17 N18 1.388 . S
N18 Co1 1.993 . S
N18 N17 1.388 . S
N18 C19 1.346 1_455 S
C19 N18 1.346 1_655 S
C19 C20 1.396 . S
C19 C29 1.510 . S
C20 C16 1.401 . S
C20 C19 1.396 . S
C21 C16 1.499 . S
C21 H22 0.959 . S
C21 H23 0.960 . S
C21 H24 0.961 . S
H22 C21 0.959 . S
H23 C21 0.960 . S
H24 C21 0.961 . S
O25 Co0 1.967 . S
O25 C33 1.258 . S
O26 Co1 1.941 . S
O26 C33 1.266 . S
H27 C29 0.959 . S
H28 C29 0.961 . S
C29 C19 1.510 . S
C29 H27 0.959 . S
C29 H28 0.961 . S
C29 H30 0.960 . S
H30 C29 0.960 . S
H31 N11 0.862 . S
O32 Co0 1.920 . S
O32 C5 1.289 . S
C33 O25 1.258 . S
C33 O26 1.266 . S
Co34 O37 1.970 . S
Co34 N51 1.989 . S
Co34 O59 1.967 . S
Co34 O66 1.920 . S
Co35 O38 1.966 . S
Co35 N44 2.022 . S
Co35 N52 1.993 . S
Co35 O60 1.941 . S
C36 O37 1.258 . S
C36 O38 1.263 . S
O37 Co34 1.970 . S
O37 C36 1.258 . S
O38 Co35 1.966 . S
O38 C36 1.263 . S
C39 O40 1.235 . S
C39 O66 1.289 . S
O40 C39 1.235 . S
C41 C43 1.400 . S
C41 N44 1.351 . S
C41 C46 1.501 . S
C42 C43 1.387 . S
C42 N45 1.341 . S
C43 C41 1.400 . S
C43 C42 1.387 . S
N44 Co35 2.022 . S
N44 C41 1.351 . S
N44 N45 1.365 . S
N45 C42 1.341 . S
N45 N44 1.365 . S
N45 H65 0.862 . S
C46 C41 1.501 . S
C46 H47 0.961 . S
C46 H48 0.961 . S
C46 H49 0.960 . S
H47 C46 0.961 . S
H48 C46 0.961 . S
H49 C46 0.960 . S
C50 N51 1.342 . S
C50 C54 1.401 . S
C50 C55 1.499 . S
N51 Co34 1.989 . S
N51 C50 1.342 . S
N51 N52 1.388 . S
N52 Co35 1.993 . S
N52 N51 1.388 . S
N52 C53 1.346 . S
C53 N52 1.346 . S
C53 C54 1.396 . S
C53 C63 1.510 . S
C54 C50 1.401 . S
C54 C53 1.396 . S
C55 C50 1.499 . S
C55 H56 0.959 . S
C55 H57 0.960 . S
C55 H58 0.961 . S
H56 C55 0.959 . S
H57 C55 0.960 . S
H58 C55 0.961 . S
O59 Co34 1.967 . S
O59 C67 1.258 . S
O60 Co35 1.941 . S
O60 C67 1.266 . S
H61 C63 0.959 . S
H62 C63 0.961 . S
C63 C53 1.510 . S
C63 H61 0.959 . S
C63 H62 0.961 . S
C63 H64 0.960 . S
H64 C63 0.960 . S
H65 N45 0.862 . S
O66 Co34 1.920 . S
O66 C39 1.289 . S
C67 O59 1.258 . S
C67 O60 1.266 . S
Co68 O71 1.970 . S
Co68 N85 1.989 . S
Co68 O93 1.967 . S
Co68 O100 1.920 . S
Co69 O72 1.966 . S
Co69 N78 2.022 . S
Co69 N86 1.993 . S
Co69 O94 1.941 . S
C70 O71 1.258 . S
C70 O72 1.263 . S
O71 Co68 1.970 . S
O71 C70 1.258 . S
O72 Co69 1.966 . S
O72 C70 1.263 . S
C73 O74 1.235 . S
C73 O100 1.289 . S
O74 C73 1.235 . S
C75 C77 1.400 . S
C75 N78 1.351 . S
C75 C80 1.501 . S
C76 C77 1.387 . S
C76 N79 1.341 . S
C77 C75 1.400 . S
C77 C76 1.387 . S
N78 Co69 2.022 . S
N78 C75 1.351 . S
N78 N79 1.365 . S
N79 C76 1.341 . S
N79 N78 1.365 . S
N79 H99 0.862 . S
C80 C75 1.501 . S
C80 H81 0.961 . S
C80 H82 0.961 . S
C80 H83 0.960 . S
H81 C80 0.961 . S
H82 C80 0.961 . S
H83 C80 0.960 . S
C84 N85 1.342 1_455 S
C84 C88 1.401 . S
C84 C89 1.499 . S
N85 Co68 1.989 . S
N85 C84 1.342 1_655 S
N85 N86 1.388 . S
N86 Co69 1.993 . S
N86 N85 1.388 . S
N86 C87 1.346 1_655 S
C87 N86 1.346 1_455 S
C87 C88 1.396 . S
C87 C97 1.510 . S
C88 C84 1.401 . S
C88 C87 1.396 . S
C89 C84 1.499 . S
C89 H90 0.959 . S
C89 H91 0.960 . S
C89 H92 0.961 . S
H90 C89 0.959 . S
H91 C89 0.960 . S
H92 C89 0.961 . S
O93 Co68 1.967 . S
O93 C101 1.258 . S
O94 Co69 1.941 . S
O94 C101 1.266 . S
H95 C97 0.959 . S
H96 C97 0.961 . S
C97 C87 1.510 . S
C97 H95 0.959 . S
C97 H96 0.961 . S
C97 H98 0.960 . S
H98 C97 0.960 . S
H99 N79 0.862 . S
O100 Co68 1.920 . S
O100 C73 1.289 . S
C101 O93 1.258 . S
C101 O94 1.266 . S
Co102 O105 1.970 . S
Co102 N119 1.989 . S
Co102 O127 1.967 . S
Co102 O134 1.920 . S
Co103 O106 1.966 . S
Co103 N112 2.022 . S
Co103 N120 1.993 . S
Co103 O128 1.941 . S
C104 O105 1.258 . S
C104 O106 1.263 . S
O105 Co102 1.970 . S
O105 C104 1.258 . S
O106 Co103 1.966 . S
O106 C104 1.263 . S
C107 O108 1.235 . S
C107 O134 1.289 . S
O108 C107 1.235 . S
C109 C111 1.400 . S
C109 N112 1.351 . S
C109 C114 1.501 . S
C110 C111 1.387 . S
C110 N113 1.341 . S
C111 C109 1.400 . S
C111 C110 1.387 . S
N112 Co103 2.022 . S
N112 C109 1.351 . S
N112 N113 1.365 . S
N113 C110 1.341 . S
N113 N112 1.365 . S
N113 H133 0.862 . S
C114 C109 1.501 . S
C114 H115 0.961 . S
C114 H116 0.961 . S
C114 H117 0.960 . S
H115 C114 0.961 . S
H116 C114 0.961 . S
H117 C114 0.960 . S
C118 N119 1.342 . S
C118 C122 1.401 . S
C118 C123 1.499 . S
N119 Co102 1.989 . S
N119 C118 1.342 . S
N119 N120 1.388 . S
N120 Co103 1.993 . S
N120 N119 1.388 . S
N120 C121 1.346 . S
C121 N120 1.346 . S
C121 C122 1.396 . S
C121 C131 1.510 . S
C122 C118 1.401 . S
C122 C121 1.396 . S
C123 C118 1.499 . S
C123 H124 0.959 . S
C123 H125 0.960 . S
C123 H126 0.961 . S
H124 C123 0.959 . S
H125 C123 0.960 . S
H126 C123 0.961 . S
O127 Co102 1.967 . S
O127 C135 1.258 . S
O128 Co103 1.941 . S
O128 C135 1.266 . S
H129 C131 0.959 . S
H130 C131 0.961 . S
C131 C121 1.510 . S
C131 H129 0.959 . S
C131 H130 0.961 . S
C131 H132 0.960 . S
H132 C131 0.960 . S
H133 N113 0.862 . S
O134 Co102 1.920 . S
O134 C107 1.289 . S
C135 O127 1.258 . S
C135 O128 1.266 . S
Co136 O139 1.970 . S
Co136 N153 1.989 . S
Co136 O161 1.967 . S
Co136 O168 1.920 . S
Co137 O140 1.966 . S
Co137 N146 2.022 . S
Co137 N154 1.993 . S
Co137 O162 1.941 . S
C138 O139 1.258 . S
C138 O140 1.263 . S
O139 Co136 1.970 . S
O139 C138 1.258 . S
O140 Co137 1.966 . S
O140 C138 1.263 . S
C141 O142 1.235 . S
C141 O168 1.289 . S
O142 C141 1.235 . S
C143 C145 1.400 . S
C143 N146 1.351 . S
C143 C148 1.501 . S
C144 C145 1.387 . S
C144 N147 1.341 . S
C145 C143 1.400 . S
C145 C144 1.387 . S
N146 Co137 2.022 . S
N146 C143 1.351 . S
N146 N147 1.365 . S
N147 C144 1.341 . S
N147 N146 1.365 . S
N147 H167 0.862 . S
C148 C143 1.501 . S
C148 H149 0.961 . S
C148 H150 0.961 . S
C148 H151 0.960 . S
H149 C148 0.961 . S
H150 C148 0.961 . S
H151 C148 0.960 . S
C152 N153 1.342 . S
C152 C156 1.401 . S
C152 C157 1.499 . S
N153 Co136 1.989 . S
N153 C152 1.342 . S
N153 N154 1.388 . S
N154 Co137 1.993 . S
N154 N153 1.388 . S
N154 C155 1.346 . S
C155 N154 1.346 . S
C155 C156 1.396 . S
C155 C165 1.510 . S
C156 C152 1.401 . S
C156 C155 1.396 . S
C157 C152 1.499 . S
C157 H158 0.959 . S
C157 H159 0.960 . S
C157 H160 0.961 . S
H158 C157 0.959 . S
H159 C157 0.960 . S
H160 C157 0.961 . S
O161 Co136 1.967 . S
O161 C169 1.258 . S
O162 Co137 1.941 . S
O162 C169 1.266 . S
H163 C165 0.959 . S
H164 C165 0.961 . S
C165 C155 1.510 . S
C165 H163 0.959 . S
C165 H164 0.961 . S
C165 H166 0.960 . S
H166 C165 0.960 . S
H167 N147 0.862 . S
O168 Co136 1.920 . S
O168 C141 1.289 . S
C169 O161 1.258 . S
C169 O162 1.266 . S
Co170 O173 1.970 . S
Co170 N187 1.989 . S
Co170 O195 1.967 . S
Co170 O202 1.920 . S
Co171 O174 1.966 . S
Co171 N180 2.022 . S
Co171 N188 1.993 . S
Co171 O196 1.941 . S
C172 O173 1.258 . S
C172 O174 1.263 . S
O173 Co170 1.970 . S
O173 C172 1.258 . S
O174 Co171 1.966 . S
O174 C172 1.263 . S
C175 O176 1.235 . S
C175 O202 1.289 . S
O176 C175 1.235 . S
C177 C179 1.400 . S
C177 N180 1.351 . S
C177 C182 1.501 . S
C178 C179 1.387 . S
C178 N181 1.341 . S
C179 C177 1.400 . S
C179 C178 1.387 . S
N180 Co171 2.022 . S
N180 C177 1.351 . S
N180 N181 1.365 . S
N181 C178 1.341 . S
N181 N180 1.365 . S
N181 H201 0.862 . S
C182 C177 1.501 . S
C182 H183 0.961 . S
C182 H184 0.961 . S
C182 H185 0.960 . S
H183 C182 0.961 . S
H184 C182 0.961 . S
H185 C182 0.960 . S
C186 N187 1.342 1_565 S
C186 C190 1.401 . S
C186 C191 1.499 . S
N187 Co170 1.989 . S
N187 C186 1.342 1_545 S
N187 N188 1.388 . S
N188 Co171 1.993 . S
N188 N187 1.388 . S
N188 C189 1.346 1_545 S
C189 N188 1.346 1_565 S
C189 C190 1.396 . S
C189 C199 1.510 . S
C190 C186 1.401 . S
C190 C189 1.396 . S
C191 C186 1.499 . S
C191 H192 0.959 . S
C191 H193 0.960 . S
C191 H194 0.961 . S
H192 C191 0.959 . S
H193 C191 0.960 . S
H194 C191 0.961 . S
O195 Co170 1.967 . S
O195 C203 1.258 . S
O196 Co171 1.941 . S
O196 C203 1.266 . S
H197 C199 0.959 . S
H198 C199 0.961 . S
C199 C189 1.510 . S
C199 H197 0.959 . S
C199 H198 0.961 . S
C199 H200 0.960 . S
H200 C199 0.960 . S
H201 N181 0.862 . S
O202 Co170 1.920 . S
O202 C175 1.289 . S
C203 O195 1.258 . S
C203 O196 1.266 . S
Co204 O207 1.970 . S
Co204 N221 1.989 . S
Co204 O229 1.967 . S
Co204 O236 1.920 . S
Co205 O208 1.966 . S
Co205 N214 2.022 . S
Co205 N222 1.993 . S
Co205 O230 1.941 . S
C206 O207 1.258 . S
C206 O208 1.263 . S
O207 Co204 1.970 . S
O207 C206 1.258 . S
O208 Co205 1.966 . S
O208 C206 1.263 . S
C209 O210 1.235 . S
C209 O236 1.289 . S
O210 C209 1.235 . S
C211 C213 1.400 . S
C211 N214 1.351 . S
C211 C216 1.501 . S
C212 C213 1.387 . S
C212 N215 1.341 . S
C213 C211 1.400 . S
C213 C212 1.387 . S
N214 Co205 2.022 . S
N214 C211 1.351 . S
N214 N215 1.365 . S
N215 C212 1.341 . S
N215 N214 1.365 . S
N215 H235 0.862 . S
C216 C211 1.501 . S
C216 H217 0.961 . S
C216 H218 0.961 . S
C216 H219 0.960 . S
H217 C216 0.961 . S
H218 C216 0.961 . S
H219 C216 0.960 . S
C220 N221 1.342 . S
C220 C224 1.401 . S
C220 C225 1.499 . S
N221 Co204 1.989 . S
N221 C220 1.342 . S
N221 N222 1.388 . S
N222 Co205 1.993 . S
N222 N221 1.388 . S
N222 C223 1.346 . S
C223 N222 1.346 . S
C223 C224 1.396 . S
C223 C233 1.510 . S
C224 C220 1.401 . S
C224 C223 1.396 . S
C225 C220 1.499 . S
C225 H226 0.959 . S
C225 H227 0.960 . S
C225 H228 0.961 . S
H226 C225 0.959 . S
H227 C225 0.960 . S
H228 C225 0.961 . S
O229 Co204 1.967 . S
O229 C237 1.258 . S
O230 Co205 1.941 . S
O230 C237 1.266 . S
H231 C233 0.959 . S
H232 C233 0.961 . S
C233 C223 1.510 . S
C233 H231 0.959 . S
C233 H232 0.961 . S
C233 H234 0.960 . S
H234 C233 0.960 . S
H235 N215 0.862 . S
O236 Co204 1.920 . S
O236 C209 1.289 . S
C237 O229 1.258 . S
C237 O230 1.266 . S
Co238 O241 1.970 . S
Co238 N255 1.989 . S
Co238 O263 1.967 . S
Co238 O270 1.920 . S
Co239 O242 1.966 . S
Co239 N248 2.022 . S
Co239 N256 1.993 . S
Co239 O264 1.941 . S
C240 O241 1.258 . S
C240 O242 1.263 . S
O241 Co238 1.970 . S
O241 C240 1.258 . S
O242 Co239 1.966 . S
O242 C240 1.263 . S
C243 O244 1.235 . S
C243 O270 1.289 . S
O244 C243 1.235 . S
C245 C247 1.400 . S
C245 N248 1.351 . S
C245 C250 1.501 . S
C246 C247 1.387 . S
C246 N249 1.341 . S
C247 C245 1.400 . S
C247 C246 1.387 . S
N248 Co239 2.022 . S
N248 C245 1.351 . S
N248 N249 1.365 . S
N249 C246 1.341 . S
N249 N248 1.365 . S
N249 H269 0.862 . S
C250 C245 1.501 . S
C250 H251 0.961 . S
C250 H252 0.961 . S
C250 H253 0.960 . S
H251 C250 0.961 . S
H252 C250 0.961 . S
H253 C250 0.960 . S
C254 N255 1.342 1_545 S
C254 C258 1.401 . S
C254 C259 1.499 . S
N255 Co238 1.989 . S
N255 C254 1.342 1_565 S
N255 N256 1.388 . S
N256 Co239 1.993 . S
N256 N255 1.388 . S
N256 C257 1.346 1_565 S
C257 N256 1.346 1_545 S
C257 C258 1.396 . S
C257 C267 1.510 . S
C258 C254 1.401 . S
C258 C257 1.396 . S
C259 C254 1.499 . S
C259 H260 0.959 . S
C259 H261 0.960 . S
C259 H262 0.961 . S
H260 C259 0.959 . S
H261 C259 0.960 . S
H262 C259 0.961 . S
O263 Co238 1.967 . S
O263 C271 1.258 . S
O264 Co239 1.941 . S
O264 C271 1.266 . S
H265 C267 0.959 . S
H266 C267 0.961 . S
C267 C257 1.510 . S
C267 H265 0.959 . S
C267 H266 0.961 . S
C267 H268 0.960 . S
H268 C267 0.960 . S
H269 N249 0.862 . S
O270 Co238 1.920 . S
O270 C243 1.289 . S
C271 O263 1.258 . S
C271 O264 1.266 . S
C272 C273 1.363 1_455 S
C272 C278 1.379 . S
C272 N280 1.356 1_455 S
C273 C272 1.363 1_655 S
C273 C279 1.363 . S
C274 C275 1.363 1_655 S
C274 C279 1.379 . S
C274 N281 1.356 1_655 S
C275 C274 1.363 1_455 S
C275 C278 1.363 . S
N276 C278 1.356 . S
N276 H288 0.984 . S
N276 H289 0.985 . S
N277 C279 1.356 . S
N277 H282 0.984 . S
N277 H283 0.985 . S
C278 C272 1.379 . S
C278 C275 1.363 . S
C278 N276 1.356 . S
C279 C273 1.363 . S
C279 C274 1.379 . S
C279 N277 1.356 . S
N280 C272 1.356 1_655 S
N280 H286 0.984 1_655 S
N280 H287 0.984 . S
N281 C274 1.356 1_455 S
N281 H284 0.984 . S
N281 H285 0.985 1_455 S
H282 N277 0.984 . S
H283 N277 0.985 . S
H284 N281 0.984 . S
H285 N281 0.985 1_655 S
H286 N280 0.984 1_455 S
H287 N280 0.984 . S
H288 N276 0.984 . S
H289 N276 0.985 . S
C290 C291 1.363 . S
C290 C296 1.379 1_655 S
C290 N298 1.356 . S
C291 C290 1.363 . S
C291 C297 1.363 . S
C292 C293 1.363 . S
C292 C297 1.379 1_455 S
C292 N299 1.356 . S
C293 C292 1.363 . S
C293 C296 1.363 . S
N294 C296 1.356 . S
N294 H306 0.984 1_455 S
N294 H307 0.985 . S
N295 C297 1.356 . S
N295 H300 0.984 . S
N295 H301 0.985 1_655 S
C296 C290 1.379 1_455 S
C296 C293 1.363 . S
C296 N294 1.356 . S
C297 C291 1.363 . S
C297 C292 1.379 1_655 S
C297 N295 1.356 . S
N298 C290 1.356 . S
N298 H304 0.984 . S
N298 H305 0.984 . S
N299 C292 1.356 . S
N299 H302 0.984 . S
N299 H303 0.985 . S
H300 N295 0.984 . S
H301 N295 0.985 1_455 S
H302 N299 0.984 . S
H303 N299 0.985 . S
H304 N298 0.984 . S
H305 N298 0.984 . S
H306 N294 0.984 1_655 S
H307 N294 0.985 . S
C308 C309 1.363 . S
C308 C314 1.379 1_565 S
C308 N316 1.356 . S
C309 C308 1.363 . S
C309 C315 1.363 . S
C310 C311 1.363 . S
C310 C315 1.379 1_545 S
C310 N317 1.356 . S
C311 C310 1.363 . S
C311 C314 1.363 . S
N312 C314 1.356 . S
N312 H324 0.984 . S
N312 H325 0.985 . S
N313 C315 1.356 . S
N313 H318 0.984 . S
N313 H319 0.985 . S
C314 C308 1.379 1_545 S
C314 C311 1.363 . S
C314 N312 1.356 . S
C315 C309 1.363 . S
C315 C310 1.379 1_565 S
C315 N313 1.356 . S
N316 C308 1.356 . S
N316 H322 0.984 1_565 S
N316 H323 0.984 . S
N317 C310 1.356 . S
N317 H320 0.984 . S
N317 H321 0.985 1_545 S
H318 N313 0.984 . S
H319 N313 0.985 . S
H320 N317 0.984 . S
H321 N317 0.985 1_565 S
H322 N316 0.984 1_545 S
H323 N316 0.984 . S
H324 N312 0.984 . S
H325 N312 0.985 . S
C326 C327 1.363 . S
C326 C332 1.379 . S
C326 N334 1.356 . S
C327 C326 1.363 . S
C327 C333 1.363 1_565 S
C328 C329 1.363 . S
C328 C333 1.379 . S
C328 N335 1.356 . S
C329 C328 1.363 . S
C329 C332 1.363 1_545 S
N330 C332 1.356 1_545 S
N330 H342 0.984 1_545 S
N330 H343 0.985 . S
N331 C333 1.356 1_565 S
N331 H336 0.984 . S
N331 H337 0.985 1_565 S
C332 C326 1.379 . S
C332 C329 1.363 1_565 S
C332 N330 1.356 1_565 S
C333 C327 1.363 1_545 S
C333 C328 1.379 . S
C333 N331 1.356 1_545 S
N334 C326 1.356 . S
N334 H340 0.984 . S
N334 H341 0.984 . S
N335 C328 1.356 . S
N335 H338 0.984 . S
N335 H339 0.985 . S
H336 N331 0.984 . S
H337 N331 0.985 1_545 S
H338 N335 0.984 . S
H339 N335 0.985 . S
H340 N334 0.984 . S
H341 N334 0.984 . S
H342 N330 0.984 1_565 S
H343 N330 0.985 . S
C344 C345 1.363 . S
C344 C350 1.379 . S
C344 N352 1.356 . S
C345 C344 1.363 . S
C345 C351 1.363 . S
C346 C347 1.363 . S
C346 C351 1.379 . S
C346 N353 1.356 . S
C347 C346 1.363 . S
C347 C350 1.363 . S
N348 C350 1.356 . S
N348 H360 0.984 . S
N348 H361 0.985 . S
N349 C351 1.356 . S
N349 H354 0.984 . S
N349 H355 0.985 . S
C350 C344 1.379 . S
C350 C347 1.363 . S
C350 N348 1.356 . S
C351 C345 1.363 . S
C351 C346 1.379 . S
C351 N349 1.356 . S
N352 C344 1.356 . S
N352 H358 0.984 . S
N352 H359 0.984 . S
N353 C346 1.356 . S
N353 H356 0.984 . S
N353 H357 0.985 . S
H354 N349 0.984 . S
H355 N349 0.985 . S
H356 N353 0.984 . S
H357 N353 0.985 . S
H358 N352 0.984 . S
H359 N352 0.984 . S
H360 N348 0.984 . S
H361 N348 0.985 . S
C362 C363 1.363 . S
C362 C368 1.379 . S
C362 N370 1.356 . S
C363 C362 1.363 . S
C363 C369 1.363 . S
C364 C365 1.363 . S
C364 C369 1.379 . S
C364 N371 1.356 . S
C365 C364 1.363 . S
C365 C368 1.363 . S
N366 C368 1.356 . S
N366 H378 0.984 . S
N366 H379 0.985 . S
N367 C369 1.356 . S
N367 H372 0.984 . S
N367 H373 0.985 . S
C368 C362 1.379 . S
C368 C365 1.363 . S
C368 N366 1.356 . S
C369 C363 1.363 . S
C369 C364 1.379 . S
C369 N367 1.356 . S
N370 C362 1.356 . S
N370 H376 0.984 . S
N370 H377 0.984 . S
N371 C364 1.356 . S
N371 H374 0.984 . S
N371 H375 0.985 . S
H372 N367 0.984 . S
H373 N367 0.985 . S
H374 N371 0.984 . S
H375 N371 0.985 . S
H376 N370 0.984 . S
H377 N370 0.984 . S
H378 N366 0.984 . S
H379 N366 0.985 . S
C380 C381 1.363 . S
C380 C386 1.379 . S
C380 N388 1.356 . S
C381 C380 1.363 . S
C381 C387 1.363 . S
C382 C383 1.363 . S
C382 C387 1.379 . S
C382 N389 1.356 . S
C383 C382 1.363 . S
C383 C386 1.363 . S
N384 C386 1.356 . S
N384 H396 0.984 . S
N384 H397 0.985 . S
N385 C387 1.356 . S
N385 H390 0.984 . S
N385 H391 0.985 . S
C386 C380 1.379 . S
C386 C383 1.363 . S
C386 N384 1.356 . S
C387 C381 1.363 . S
C387 C382 1.379 . S
C387 N385 1.356 . S
N388 C380 1.356 . S
N388 H394 0.984 . S
N388 H395 0.984 . S
N389 C382 1.356 . S
N389 H392 0.984 . S
N389 H393 0.985 . S
H390 N385 0.984 . S
H391 N385 0.985 . S
H392 N389 0.984 . S
H393 N389 0.985 . S
H394 N388 0.984 . S
H395 N388 0.984 . S
H396 N384 0.984 . S
H397 N384 0.985 . S
C398 C399 1.363 . S
C398 C404 1.379 . S
C398 N406 1.356 . S
C399 C398 1.363 . S
C399 C405 1.363 . S
C400 C401 1.363 . S
C400 C405 1.379 . S
C400 N407 1.356 . S
C401 C400 1.363 . S
C401 C404 1.363 . S
N402 C404 1.356 . S
N402 H414 0.984 . S
N402 H415 0.985 . S
N403 C405 1.356 . S
N403 H408 0.984 . S
N403 H409 0.985 . S
C404 C398 1.379 . S
C404 C401 1.363 . S
C404 N402 1.356 . S
C405 C399 1.363 . S
C405 C400 1.379 . S
C405 N403 1.356 . S
N406 C398 1.356 . S
N406 H412 0.984 . S
N406 H413 0.984 . S
N407 C400 1.356 . S
N407 H410 0.984 . S
N407 H411 0.985 . S
H408 N403 0.984 . S
H409 N403 0.985 . S
H410 N407 0.984 . S
H411 N407 0.985 . S
H412 N406 0.984 . S
H413 N406 0.984 . S
H414 N402 0.984 . S
H415 N402 0.985 . S
C416 C417 1.363 . S
C416 C422 1.379 . S
C416 N424 1.356 . S
C417 C416 1.363 . S
C417 C423 1.363 . S
C418 C419 1.363 . S
C418 C423 1.379 . S
C418 N425 1.356 . S
C419 C418 1.363 . S
C419 C422 1.363 . S
N420 C422 1.356 . S
N420 H432 0.984 . S
N420 H433 0.985 . S
N421 C423 1.356 . S
N421 H426 0.984 . S
N421 H427 0.985 . S
C422 C416 1.379 . S
C422 C419 1.363 . S
C422 N420 1.356 . S
C423 C417 1.363 . S
C423 C418 1.379 . S
C423 N421 1.356 . S
N424 C416 1.356 . S
N424 H430 0.984 . S
N424 H431 0.984 . S
N425 C418 1.356 . S
N425 H428 0.984 . S
N425 H429 0.985 . S
H426 N421 0.984 . S
H427 N421 0.985 . S
H428 N425 0.984 . S
H429 N425 0.985 . S
H430 N424 0.984 . S
H431 N424 0.984 . S
H432 N420 0.984 . S
H433 N420 0.985 . S
C434 C435 1.363 . S
C434 C440 1.379 . S
C434 N442 1.356 . S
C435 C434 1.363 . S
C435 C441 1.363 . S
C436 C437 1.363 . S
C436 C441 1.379 . S
C436 N443 1.356 . S
C437 C436 1.363 . S
C437 C440 1.363 . S
N438 C440 1.356 . S
N438 H450 0.984 . S
N438 H451 0.985 . S
N439 C441 1.356 . S
N439 H444 0.984 . S
N439 H445 0.985 . S
C440 C434 1.379 . S
C440 C437 1.363 . S
C440 N438 1.356 . S
C441 C435 1.363 . S
C441 C436 1.379 . S
C441 N439 1.356 . S
N442 C434 1.356 . S
N442 H448 0.984 . S
N442 H449 0.984 . S
N443 C436 1.356 . S
N443 H446 0.984 . S
N443 H447 0.985 . S
H444 N439 0.984 . S
H445 N439 0.985 . S
H446 N443 0.984 . S
H447 N443 0.985 . S
H448 N442 0.984 . S
H449 N442 0.984 . S
H450 N438 0.984 . S
H451 N438 0.985 . S
C452 C453 1.363 . S
C452 C458 1.379 . S
C452 N460 1.356 . S
C453 C452 1.363 . S
C453 C459 1.363 . S
C454 C455 1.363 . S
C454 C459 1.379 . S
C454 N461 1.356 . S
C455 C454 1.363 . S
C455 C458 1.363 . S
N456 C458 1.356 . S
N456 H468 0.984 . S
N456 H469 0.985 . S
N457 C459 1.356 . S
N457 H462 0.984 . S
N457 H463 0.985 . S
C458 C452 1.379 . S
C458 C455 1.363 . S
C458 N456 1.356 . S
C459 C453 1.363 . S
C459 C454 1.379 . S
C459 N457 1.356 . S
N460 C452 1.356 . S
N460 H466 0.984 . S
N460 H467 0.984 . S
N461 C454 1.356 . S
N461 H464 0.984 . S
N461 H465 0.985 . S
H462 N457 0.984 . S
H463 N457 0.985 . S
H464 N461 0.984 . S
H465 N461 0.985 . S
H466 N460 0.984 . S
H467 N460 0.984 . S
H468 N456 0.984 . S
H469 N456 0.985 . S
C470 C471 1.363 . S
C470 C476 1.379 . S
C470 N478 1.356 . S
C471 C470 1.363 . S
C471 C477 1.363 . S
C472 C473 1.363 . S
C472 C477 1.379 . S
C472 N479 1.356 . S
C473 C472 1.363 . S
C473 C476 1.363 . S
N474 C476 1.356 . S
N474 H486 0.984 . S
N474 H487 0.985 . S
N475 C477 1.356 . S
N475 H480 0.984 . S
N475 H481 0.985 . S
C476 C470 1.379 . S
C476 C473 1.363 . S
C476 N474 1.356 . S
C477 C471 1.363 . S
C477 C472 1.379 . S
C477 N475 1.356 . S
N478 C470 1.356 . S
N478 H484 0.984 . S
N478 H485 0.984 . S
N479 C472 1.356 . S
N479 H482 0.984 . S
N479 H483 0.985 . S
H480 N475 0.984 . S
H481 N475 0.985 . S
H482 N479 0.984 . S
H483 N479 0.985 . S
H484 N478 0.984 . S
H485 N478 0.984 . S
H486 N474 0.984 . S
H487 N474 0.985 . S
C488 C489 1.363 . S
C488 C494 1.379 . S
C488 N496 1.356 . S
C489 C488 1.363 . S
C489 C495 1.363 . S
C490 C491 1.363 . S
C490 C495 1.379 . S
C490 N497 1.356 . S
C491 C490 1.363 . S
C491 C494 1.363 . S
N492 C494 1.356 . S
N492 H504 0.984 . S
N492 H505 0.985 . S
N493 C495 1.356 . S
N493 H498 0.984 . S
N493 H499 0.985 . S
C494 C488 1.379 . S
C494 C491 1.363 . S
C494 N492 1.356 . S
C495 C489 1.363 . S
C495 C490 1.379 . S
C495 N493 1.356 . S
N496 C488 1.356 . S
N496 H502 0.984 . S
N496 H503 0.984 . S
N497 C490 1.356 . S
N497 H500 0.984 . S
N497 H501 0.985 . S
H498 N493 0.984 . S
H499 N493 0.985 . S
H500 N497 0.984 . S
H501 N497 0.985 . S
H502 N496 0.984 . S
H503 N496 0.984 . S
H504 N492 0.984 . S
H505 N492 0.985 . S
C506 C507 1.363 . S
C506 C512 1.379 1_554 S
C506 N514 1.356 . S
C507 C506 1.363 . S
C507 C513 1.363 . S
C508 C509 1.363 . S
C508 C513 1.379 1_556 S
C508 N515 1.356 . S
C509 C508 1.363 . S
C509 C512 1.363 . S
N510 C512 1.356 . S
N510 H522 0.984 . S
N510 H523 0.985 . S
N511 C513 1.356 . S
N511 H516 0.984 . S
N511 H517 0.985 . S
C512 C506 1.379 1_556 S
C512 C509 1.363 . S
C512 N510 1.356 . S
C513 C507 1.363 . S
C513 C508 1.379 1_554 S
C513 N511 1.356 . S
N514 C506 1.356 . S
N514 H520 0.984 . S
N514 H521 0.984 . S
N515 C508 1.356 . S
N515 H518 0.984 . S
N515 H519 0.985 . S
H516 N511 0.984 . S
H517 N511 0.985 . S
H518 N515 0.984 . S
H519 N515 0.985 . S
H520 N514 0.984 . S
H521 N514 0.984 . S
H522 N510 0.984 . S
H523 N510 0.985 . S
C524 C525 1.363 . S
C524 C530 1.379 . S
C524 N532 1.356 . S
C525 C524 1.363 . S
C525 C531 1.363 . S
C526 C527 1.363 . S
C526 C531 1.379 . S
C526 N533 1.356 . S
C527 C526 1.363 . S
C527 C530 1.363 . S
N528 C530 1.356 . S
N528 H540 0.984 . S
N528 H541 0.985 . S
N529 C531 1.356 . S
N529 H534 0.984 . S
N529 H535 0.985 . S
C530 C524 1.379 . S
C530 C527 1.363 . S
C530 N528 1.356 . S
C531 C525 1.363 . S
C531 C526 1.379 . S
C531 N529 1.356 . S
N532 C524 1.356 . S
N532 H538 0.984 . S
N532 H539 0.984 . S
N533 C526 1.356 . S
N533 H536 0.984 . S
N533 H537 0.985 . S
H534 N529 0.984 . S
H535 N529 0.985 . S
H536 N533 0.984 . S
H537 N533 0.985 . S
H538 N532 0.984 . S
H539 N532 0.984 . S
H540 N528 0.984 . S
H541 N528 0.985 . S
C542 C543 1.363 . S
C542 C548 1.379 1_554 S
C542 N550 1.356 . S
C543 C542 1.363 . S
C543 C549 1.363 . S
C544 C545 1.363 . S
C544 C549 1.379 1_556 S
C544 N551 1.356 . S
C545 C544 1.363 . S
C545 C548 1.363 . S
N546 C548 1.356 . S
N546 H558 0.984 . S
N546 H559 0.985 . S
N547 C549 1.356 . S
N547 H552 0.984 . S
N547 H553 0.985 . S
C548 C542 1.379 1_556 S
C548 C545 1.363 . S
C548 N546 1.356 . S
C549 C543 1.363 . S
C549 C544 1.379 1_554 S
C549 N547 1.356 . S
N550 C542 1.356 . S
N550 H556 0.984 . S
N550 H557 0.984 . S
N551 C544 1.356 . S
N551 H554 0.984 . S
N551 H555 0.985 . S
H552 N547 0.984 . S
H553 N547 0.985 . S
H554 N551 0.984 . S
H555 N551 0.985 . S
H556 N550 0.984 . S
H557 N550 0.984 . S
H558 N546 0.984 . S
H559 N546 0.985 . S
C560 C561 1.367 . S
C560 C566 1.362 1_665 S
C560 N568 1.358 . S
C561 C560 1.367 . S
C561 C567 1.376 . S
C562 C563 1.367 . S
C562 C567 1.362 1_445 S
C562 N569 1.358 . S
C563 C562 1.367 . S
C563 C566 1.376 . S
N564 C566 1.361 . S
N564 H576 0.984 1_545 S
N564 H577 0.985 . S
N565 C567 1.361 . S
N565 H570 0.984 . S
N565 H571 0.985 1_565 S
C566 C560 1.362 1_445 S
C566 C563 1.376 . S
C566 N564 1.361 . S
C567 C561 1.376 . S
C567 C562 1.362 1_665 S
C567 N565 1.361 . S
N568 C560 1.358 . S
N568 H574 0.984 1_655 S
N568 H575 0.984 . S
N569 C562 1.358 . S
N569 H572 0.984 . S
N569 H573 0.985 1_455 S
H570 N565 0.984 . S
H571 N565 0.985 1_545 S
H572 N569 0.984 . S
H573 N569 0.985 1_655 S
H574 N568 0.984 1_455 S
H575 N568 0.984 . S
H576 N564 0.984 1_565 S
H577 N564 0.985 . S
C578 C579 1.363 . S
C578 C584 1.379 . S
C578 N586 1.356 . S
C579 C578 1.363 . S
C579 C585 1.363 . S
C580 C581 1.363 . S
C580 C585 1.379 . S
C580 N587 1.356 . S
C581 C580 1.363 . S
C581 C584 1.363 . S
N582 C584 1.356 . S
N582 H594 0.984 . S
N582 H595 0.985 . S
N583 C585 1.356 . S
N583 H588 0.984 . S
N583 H589 0.985 . S
C584 C578 1.379 . S
C584 C581 1.363 . S
C584 N582 1.356 . S
C585 C579 1.363 . S
C585 C580 1.379 . S
C585 N583 1.356 . S
N586 C578 1.356 . S
N586 H592 0.984 . S
N586 H593 0.984 . S
N587 C580 1.356 . S
N587 H590 0.984 . S
N587 H591 0.985 . S
H588 N583 0.984 . S
H589 N583 0.985 . S
H590 N587 0.984 . S
H591 N587 0.985 . S
H592 N586 0.984 . S
H593 N586 0.984 . S
H594 N582 0.984 . S
H595 N582 0.985 . S
C596 C597 1.363 . S
C596 C602 1.379 . S
C596 N604 1.356 . S
C597 C596 1.363 . S
C597 C603 1.363 . S
C598 C599 1.363 . S
C598 C603 1.379 . S
C598 N605 1.356 . S
C599 C598 1.363 . S
C599 C602 1.363 . S
N600 C602 1.356 . S
N600 H612 0.984 . S
N600 H613 0.985 . S
N601 C603 1.356 . S
N601 H606 0.984 . S
N601 H607 0.985 . S
C602 C596 1.379 . S
C602 C599 1.363 . S
C602 N600 1.356 . S
C603 C597 1.363 . S
C603 C598 1.379 . S
C603 N601 1.356 . S
N604 C596 1.356 . S
N604 H610 0.984 . S
N604 H611 0.984 . S
N605 C598 1.356 . S
N605 H608 0.984 . S
N605 H609 0.985 . S
H606 N601 0.984 . S
H607 N601 0.985 . S
H608 N605 0.984 . S
H609 N605 0.985 . S
H610 N604 0.984 . S
H611 N604 0.984 . S
H612 N600 0.984 . S
H613 N600 0.985 . S
C614 C615 1.376 . S
C614 C620 1.362 1_445 S
C614 N622 1.361 . S
C615 C614 1.376 . S
C615 C621 1.367 . S
C616 C617 1.376 . S
C616 C621 1.362 1_665 S
C616 N623 1.361 . S
C617 C616 1.376 . S
C617 C620 1.367 . S
N618 C620 1.358 . S
N618 H630 0.984 1_565 S
N618 H631 0.985 . S
N619 C621 1.358 . S
N619 H624 0.984 . S
N619 H625 0.985 1_545 S
C620 C614 1.362 1_665 S
C620 C617 1.367 . S
C620 N618 1.358 . S
C621 C615 1.367 . S
C621 C616 1.362 1_445 S
C621 N619 1.358 . S
N622 C614 1.361 . S
N622 H628 0.984 1_455 S
N622 H629 0.984 . S
N623 C616 1.361 . S
N623 H626 0.984 . S
N623 H627 0.985 1_655 S
H624 N619 0.984 . S
H625 N619 0.985 1_565 S
H626 N623 0.984 . S
H627 N623 0.985 1_455 S
H628 N622 0.984 1_655 S
H629 N622 0.984 . S
H630 N618 0.984 1_545 S
H631 N618 0.985 . S
C273 C77 0.618 . S
C275 C9 0.618 . S
C291 C111 0.618 . S
C293 C43 0.618 . S
C309 C213 0.618 . S
C311 C145 0.618 . S
C327 C247 0.618 . S
C329 C179 0.618 . S
C345 C156 2.401 . S
C347 C33 2.389 . S
C363 C190 2.401 . S
C365 C67 2.389 . S
C381 C224 2.401 . S
C383 C101 2.389 . S
C399 C135 2.389 . S
C401 C258 2.401 . S
C417 C20 2.401 . S
C419 C169 2.389 . S
C435 C54 2.401 . S
C437 C203 2.389 . S
C453 C88 2.401 . S
C455 C237 2.389 . S
C471 C271 2.389 . S
C473 C122 2.401 . S
C489 C2 1.735 . S
C491 C172 1.735 . S
C507 C206 1.735 . S
C509 C36 1.735 . S
C525 C240 1.735 . S
C527 C70 1.735 . S
C543 C138 1.735 . S
C545 C104 1.735 . S
C561 C73 0.665 . S
C563 C5 0.665 . S
C579 C39 0.665 . S
C581 C107 0.665 . S
C597 C209 0.665 . S
C599 C141 0.665 . S
C615 C175 0.665 . S
C617 C243 0.665 . S
