# Generated by pormake.
# Topology ume, (4)-cn, num edge types: 1
# Building blocks:
#     Node 0, Type 0, BuildingBlock: GALJAG_clean_sbu_0, # of connection points: 4
#     Node 1, Type 0, BuildingBlock: GALJAG_clean_sbu_0, # of connection points: 4
#     Node 2, Type 0, BuildingBlock: GALJAG_clean_sbu_0, # of connection points: 4
#     Node 3, Type 0, BuildingBlock: GALJAG_clean_sbu_0, # of connection points: 4
#     Node 4, Type 0, BuildingBlock: GALJAG_clean_sbu_0, # of connection points: 4
#     Node 5, Type 0, BuildingBlock: GALJAG_clean_sbu_0, # of connection points: 4
#     Node 6, Type 0, BuildingBlock: GALJAG_clean_sbu_0, # of connection points: 4
#     Node 7, Type 0, BuildingBlock: GALJAG_clean_sbu_0, # of connection points: 4
#     Node 8, Type 0, BuildingBlock: GALJAG_clean_sbu_0, # of connection points: 4
#     Node 9, Type 0, BuildingBlock: GALJAG_clean_sbu_0, # of connection points: 4
#     Node 10, Type 0, BuildingBlock: GALJAG_clean_sbu_0, # of connection points: 4
#     Node 11, Type 0, BuildingBlock: GALJAG_clean_sbu_0, # of connection points: 4
#     Node 12, Type 0, BuildingBlock: GALJAG_clean_sbu_0, # of connection points: 4
#     Node 13, Type 0, BuildingBlock: GALJAG_clean_sbu_0, # of connection points: 4
#     Node 14, Type 0, BuildingBlock: GALJAG_clean_sbu_0, # of connection points: 4
#     Node 15, Type 0, BuildingBlock: GALJAG_clean_sbu_0, # of connection points: 4
#     Edge 16, Type (0, 0), BuildingBlock: XIVTED_clean_linker_0, # of connection points: 2
#     Edge 17, Type (0, 0), BuildingBlock: XIVTED_clean_linker_0, # of connection points: 2
#     Edge 18, Type (0, 0), BuildingBlock: XIVTED_clean_linker_0, # of connection points: 2
#     Edge 19, Type (0, 0), BuildingBlock: XIVTED_clean_linker_0, # of connection points: 2
#     Edge 20, Type (0, 0), BuildingBlock: XIVTED_clean_linker_0, # of connection points: 2
#     Edge 21, Type (0, 0), BuildingBlock: XIVTED_clean_linker_0, # of connection points: 2
#     Edge 22, Type (0, 0), BuildingBlock: XIVTED_clean_linker_0, # of connection points: 2
#     Edge 23, Type (0, 0), BuildingBlock: XIVTED_clean_linker_0, # of connection points: 2
#     Edge 24, Type (0, 0), BuildingBlock: XIVTED_clean_linker_0, # of connection points: 2
#     Edge 25, Type (0, 0), BuildingBlock: XIVTED_clean_linker_0, # of connection points: 2
#     Edge 26, Type (0, 0), BuildingBlock: XIVTED_clean_linker_0, # of connection points: 2
#     Edge 27, Type (0, 0), BuildingBlock: XIVTED_clean_linker_0, # of connection points: 2
#     Edge 28, Type (0, 0), BuildingBlock: XIVTED_clean_linker_0, # of connection points: 2
#     Edge 29, Type (0, 0), BuildingBlock: XIVTED_clean_linker_0, # of connection points: 2
#     Edge 30, Type (0, 0), BuildingBlock: XIVTED_clean_linker_0, # of connection points: 2
#     Edge 31, Type (0, 0), BuildingBlock: XIVTED_clean_linker_0, # of connection points: 2
#     Edge 32, Type (0, 0), BuildingBlock: XIVTED_clean_linker_0, # of connection points: 2
#     Edge 33, Type (0, 0), BuildingBlock: XIVTED_clean_linker_0, # of connection points: 2
#     Edge 34, Type (0, 0), BuildingBlock: XIVTED_clean_linker_0, # of connection points: 2
#     Edge 35, Type (0, 0), BuildingBlock: XIVTED_clean_linker_0, # of connection points: 2
#     Edge 36, Type (0, 0), BuildingBlock: XIVTED_clean_linker_0, # of connection points: 2
#     Edge 37, Type (0, 0), BuildingBlock: XIVTED_clean_linker_0, # of connection points: 2
#     Edge 38, Type (0, 0), BuildingBlock: XIVTED_clean_linker_0, # of connection points: 2
#     Edge 39, Type (0, 0), BuildingBlock: XIVTED_clean_linker_0, # of connection points: 2
#     Edge 40, Type (0, 0), BuildingBlock: XIVTED_clean_linker_0, # of connection points: 2
#     Edge 41, Type (0, 0), BuildingBlock: XIVTED_clean_linker_0, # of connection points: 2
#     Edge 42, Type (0, 0), BuildingBlock: XIVTED_clean_linker_0, # of connection points: 2
#     Edge 43, Type (0, 0), BuildingBlock: XIVTED_clean_linker_0, # of connection points: 2
#     Edge 44, Type (0, 0), BuildingBlock: XIVTED_clean_linker_0, # of connection points: 2
#     Edge 45, Type (0, 0), BuildingBlock: XIVTED_clean_linker_0, # of connection points: 2
#     Edge 46, Type (0, 0), BuildingBlock: XIVTED_clean_linker_0, # of connection points: 2
#     Edge 47, Type (0, 0), BuildingBlock: XIVTED_clean_linker_0, # of connection points: 2
# Relax obj value: 0.060
# Max RMSD: 0.125
# Mean RMSD: 0.125
data_MOF--net-ume--node1-GALJAG_clean_sbu_0--edge1-XIVTED_clean_linker_0
_symmetry_space_group_name_H-M    P1
_symmetry_Int_Tables_number       1
_symmetry_cell_setting            triclinic
loop_
_symmetry_equiv_pos_as_xyz
'x, y, z'
_cell_length_a     28.055072
_cell_length_b     28.046256
_cell_length_c     113.88256
_cell_angle_alpha  90.035105
_cell_angle_beta   89.981423
_cell_angle_gamma 90.013324
loop_
_atom_site_label
_atom_site_type_symbol
_atom_site_fract_x
_atom_site_fract_y
_atom_site_fract_z
_atom_type_partial_charge
In0 In 0.25257 0.1126 0.30395 0.0
O1 O 0.24847 0.15999 0.32049 0.0
O2 O 0.25897 0.0852 0.32236 0.0
C3 C 0.24688 0.17095 0.28533 0.0
C4 C 0.16598 0.0725 0.30261 0.0
C5 C 0.33939 0.07468 0.3 0.0
O6 O 0.26074 0.186 0.29525 0.0
O7 O 0.23595 0.12739 0.28499 0.0
O8 O 0.30163 0.05024 0.29935 0.0
O9 O 0.33316 0.11803 0.30252 0.0
C10 C 0.25365 0.12491 0.32736 0.0
O11 O 0.20375 0.04923 0.30058 0.0
O12 O 0.17212 0.1158 0.30528 0.0
In13 In 0.89154 0.74937 0.55233 0.0
O14 O 0.84125 0.75119 0.56837 0.0
O15 O 0.91641 0.75154 0.57101 0.0
C16 C 0.83676 0.74031 0.53315 0.0
C17 C 0.92983 0.66179 0.55204 0.0
C18 C 0.93048 0.83604 0.54854 0.0
O19 O 0.81914 0.75187 0.54299 0.0
O20 O 0.88125 0.73399 0.53312 0.0
O21 O 0.95438 0.79797 0.54779 0.0
O22 O 0.88712 0.83024 0.55111 0.0
C23 C 0.87555 0.75122 0.5756 0.0
O24 O 0.95463 0.69889 0.55036 0.0
O25 O 0.88596 0.66912 0.55378 0.0
In26 In 0.24973 0.39065 0.80468 0.0
O27 O 0.29985 0.45521 0.80493 0.0
O28 O 0.32915 0.38668 0.80836 0.0
C29 C 0.16491 0.43194 0.79997 0.0
C30 C 0.23281 0.36054 0.82673 0.0
C31 C 0.25955 0.34114 0.78459 0.0
O32 O 0.20251 0.45616 0.80149 0.0
O33 O 0.17056 0.38737 0.80062 0.0
O34 O 0.24548 0.32174 0.79399 0.0
O35 O 0.26902 0.38496 0.78543 0.0
C36 C 0.33657 0.43078 0.80723 0.0
O37 O 0.25247 0.33372 0.81924 0.0
O38 O 0.22264 0.4017 0.82311 0.0
In39 In 0.61346 0.75174 0.05864 0.0
O40 O 0.67668 0.7502 0.07158 0.0
O41 O 0.60999 0.77923 0.07708 0.0
C42 C 0.64511 0.73661 0.03673 0.0
C43 C 0.57491 0.83787 0.05475 0.0
C44 C 0.57468 0.66573 0.06314 0.0
O45 O 0.67338 0.74927 0.04483 0.0
O46 O 0.60222 0.73184 0.03981 0.0
O47 O 0.54936 0.70253 0.06157 0.0
O48 O 0.61906 0.67277 0.06264 0.0
C49 C 0.65253 0.76949 0.07969 0.0
O50 O 0.54958 0.80161 0.05702 0.0
O51 O 0.61929 0.83027 0.05434 0.0
In52 In 0.24802 0.3968 0.93348 0.0
O53 O 0.2476 0.33465 0.92023 0.0
O54 O 0.21973 0.40234 0.91514 0.0
C55 C 0.26704 0.36271 0.95496 0.0
C56 C 0.16226 0.43487 0.93817 0.0
C57 C 0.33363 0.43547 0.92854 0.0
O58 O 0.25162 0.3356 0.9469 0.0
O59 O 0.27223 0.40579 0.95208 0.0
O60 O 0.29736 0.46093 0.93067 0.0
O61 O 0.32619 0.3911 0.9287 0.0
C62 C 0.22851 0.35983 0.91228 0.0
O63 O 0.19821 0.46048 0.9358 0.0
O64 O 0.17006 0.39051 0.93834 0.0
In65 In 0.61084 0.74662 0.1865 0.0
O66 O 0.60377 0.77466 0.16803 0.0
O67 O 0.67018 0.74295 0.17254 0.0
C68 C 0.65747 0.73618 0.20698 0.0
C69 C 0.5706 0.66 0.18345 0.0
C70 C 0.569 0.8316 0.19082 0.0
O71 O 0.6782 0.75006 0.19774 0.0
O72 O 0.61366 0.72735 0.20581 0.0
O73 O 0.61362 0.8258 0.19065 0.0
O74 O 0.54498 0.79407 0.18903 0.0
C75 C 0.64526 0.76353 0.16482 0.0
O76 O 0.54606 0.69677 0.18563 0.0
O77 O 0.61483 0.66728 0.18267 0.0
In78 In 0.2485 0.10916 0.43812 0.0
O79 O 0.24915 0.15827 0.42197 0.0
O80 O 0.23036 0.08508 0.41984 0.0
C81 C 0.26311 0.16971 0.45609 0.0
C82 C 0.33427 0.06667 0.4372 0.0
C83 C 0.16267 0.071 0.4434 0.0
O84 O 0.24473 0.18353 0.44654 0.0
O85 O 0.27439 0.12628 0.45636 0.0
O86 O 0.19968 0.04572 0.44225 0.0
O87 O 0.16932 0.11514 0.44209 0.0
C88 C 0.23713 0.12504 0.41504 0.0
O89 O 0.30046 0.04998 0.4433 0.0
O90 O 0.32461 0.10416 0.43157 0.0
In91 In 0.88373 0.75372 0.68628 0.0
O92 O 0.8337 0.75721 0.67019 0.0
O93 O 0.90606 0.73648 0.66786 0.0
C94 C 0.82782 0.76068 0.70534 0.0
C95 C 0.92372 0.84084 0.68614 0.0
C96 C 0.92346 0.66812 0.69078 0.0
O97 O 0.81188 0.74527 0.69566 0.0
O98 O 0.87109 0.77278 0.70524 0.0
O99 O 0.94788 0.70599 0.69028 0.0
O100 O 0.87928 0.6738 0.68924 0.0
C101 C 0.86618 0.74427 0.66317 0.0
O102 O 0.94714 0.80372 0.68869 0.0
O103 O 0.88048 0.83377 0.68359 0.0
In104 In 0.75125 0.61333 0.80441 0.0
O105 O 0.74873 0.6712 0.81875 0.0
O106 O 0.77626 0.60267 0.82302 0.0
C107 C 0.74019 0.66169 0.78421 0.0
C108 C 0.66459 0.57298 0.80705 0.0
C109 C 0.83657 0.57264 0.79988 0.0
O110 O 0.75462 0.6817 0.7935 0.0
O111 O 0.73126 0.61781 0.78519 0.0
O112 O 0.79903 0.54821 0.80125 0.0
O113 O 0.83065 0.61716 0.80058 0.0
C114 C 0.76677 0.64431 0.82646 0.0
O115 O 0.70138 0.54857 0.80479 0.0
O116 O 0.67186 0.61715 0.80809 0.0
In117 In 0.39596 0.25161 0.05785 0.0
O118 O 0.33306 0.25207 0.07089 0.0
O119 O 0.39994 0.22306 0.07619 0.0
C120 C 0.36168 0.26811 0.03623 0.0
C121 C 0.43543 0.16602 0.05367 0.0
C122 C 0.4351 0.33732 0.06258 0.0
O123 O 0.33471 0.25384 0.04443 0.0
O124 O 0.40477 0.27365 0.03905 0.0
O125 O 0.46026 0.3008 0.06053 0.0
O126 O 0.3907 0.33016 0.06243 0.0
C127 C 0.35739 0.23234 0.07889 0.0
O128 O 0.46037 0.20241 0.05605 0.0
O129 O 0.39103 0.17329 0.05321 0.0
In130 In 0.75188 0.89102 0.3039 0.0
O131 O 0.75544 0.84305 0.32033 0.0
O132 O 0.74946 0.91825 0.32242 0.0
C133 C 0.75617 0.83254 0.28527 0.0
C134 C 0.83861 0.93059 0.30225 0.0
C135 C 0.66501 0.92955 0.30032 0.0
O136 O 0.74276 0.81768 0.29523 0.0
O137 O 0.76743 0.87601 0.28488 0.0
O138 O 0.70289 0.95362 0.29938 0.0
O139 O 0.67114 0.88636 0.303 0.0
C140 C 0.75323 0.87816 0.3273 0.0
O141 O 0.80082 0.95425 0.30054 0.0
O142 O 0.83242 0.8871 0.30473 0.0
In143 In 0.11304 0.24794 0.55302 0.0
O144 O 0.04936 0.29788 0.55116 0.0
O145 O 0.11603 0.3275 0.55639 0.0
C146 C 0.07324 0.16292 0.54793 0.0
C147 C 0.13114 0.23579 0.57603 0.0
C148 C 0.16843 0.25915 0.53399 0.0
O149 O 0.04904 0.20085 0.54862 0.0
O150 O 0.11744 0.1682 0.54957 0.0
O151 O 0.18517 0.24381 0.54359 0.0
O152 O 0.12449 0.26845 0.53412 0.0
C153 C 0.07275 0.33473 0.55395 0.0
O154 O 0.16347 0.24932 0.56903 0.0
O155 O 0.0911 0.22859 0.57136 0.0
In156 In 0.75013 0.89113 0.43802 0.0
O157 O 0.69851 0.94983 0.4437 0.0
O158 O 0.67431 0.89815 0.43132 0.0
C159 C 0.83549 0.92987 0.44353 0.0
C160 C 0.76274 0.87504 0.41497 0.0
C161 C 0.73597 0.82907 0.4557 0.0
O162 O 0.79856 0.95498 0.44207 0.0
O163 O 0.82896 0.88561 0.44244 0.0
O164 O 0.7551 0.81635 0.44614 0.0
O165 O 0.72352 0.87215 0.45611 0.0
C166 C 0.66475 0.93461 0.43737 0.0
O167 O 0.74835 0.84241 0.42179 0.0
O168 O 0.77086 0.91459 0.41986 0.0
In169 In 0.10778 0.25483 0.68652 0.0
O170 O 0.15908 0.25244 0.67071 0.0
O171 O 0.08421 0.25516 0.6677 0.0
C172 C 0.1629 0.25046 0.70575 0.0
C173 C 0.06877 0.16749 0.68759 0.0
C174 C 0.06914 0.34219 0.68956 0.0
O175 O 0.17991 0.26177 0.69584 0.0
O176 O 0.11887 0.24148 0.70582 0.0
O177 O 0.04503 0.30439 0.69066 0.0
O178 O 0.11235 0.33575 0.68695 0.0
C179 C 0.12538 0.25268 0.66332 0.0
O180 O 0.04417 0.20503 0.68881 0.0
O181 O 0.1128 0.17426 0.68596 0.0
In182 In 0.74852 0.61088 0.93308 0.0
O183 O 0.74882 0.67259 0.91971 0.0
O184 O 0.77897 0.60549 0.91493 0.0
C185 C 0.7292 0.64615 0.95444 0.0
C186 C 0.83353 0.57182 0.93808 0.0
C187 C 0.66305 0.57205 0.92806 0.0
O188 O 0.74628 0.67246 0.94644 0.0
O189 O 0.7224 0.60329 0.95157 0.0
O190 O 0.69919 0.5467 0.93036 0.0
O191 O 0.67057 0.61643 0.92805 0.0
C192 C 0.76948 0.64768 0.91195 0.0
O193 O 0.7976 0.54662 0.93544 0.0
O194 O 0.82603 0.61622 0.93837 0.0
In195 In 0.3876 0.24565 0.18603 0.0
O196 O 0.32941 0.24906 0.17179 0.0
O197 O 0.39655 0.21813 0.16756 0.0
C198 C 0.34 0.25759 0.20632 0.0
C199 C 0.4284 0.33202 0.18305 0.0
C200 C 0.42823 0.16029 0.19055 0.0
O201 O 0.31952 0.24355 0.19705 0.0
O202 O 0.38401 0.2656 0.20527 0.0
O203 O 0.4527 0.1977 0.18898 0.0
O204 O 0.38369 0.16639 0.19006 0.0
C205 C 0.35524 0.229 0.16416 0.0
O206 O 0.45264 0.29524 0.18542 0.0
O207 O 0.38423 0.32484 0.18205 0.0
H208 H 0.86156 0.02483 0.29979 0.0
H209 H 0.14312 0.97852 0.29947 0.0
H210 H 0.92449 0.88514 0.30322 0.0
H211 H 0.08006 0.11756 0.3042 0.0
H212 H 0.06315 0.94368 0.29876 0.0
H213 H 0.94154 0.05965 0.2993 0.0
C214 C 0.89223 0.00151 0.30039 0.0
C215 C 0.88649 0.95209 0.30159 0.0
C216 C 0.06685 0.98181 0.29995 0.0
C217 C 0.97789 0.99154 0.30101 0.0
C218 C 0.11243 0.00169 0.30033 0.0
C219 C 0.11813 0.05093 0.30194 0.0
C220 C 0.02676 0.01148 0.3011 0.0
C221 C 0.07722 0.07937 0.303 0.0
C222 C 0.93782 0.02137 0.30015 0.0
C223 C 0.92737 0.92346 0.30234 0.0
N224 N 0.03324 0.05923 0.30255 0.0
N225 N 0.97138 0.9436 0.30203 0.0
H226 H 0.88221 0.5771 0.55295 0.0
H227 H 0.11867 0.4194 0.55721 0.0
H228 H 0.024 0.63652 0.55146 0.0
H229 H 0.97939 0.35971 0.55065 0.0
H230 H 0.08402 0.49928 0.55668 0.0
H231 H 0.91666 0.49712 0.55353 0.0
C232 C 0.92063 0.57328 0.55273 0.0
C233 C 0.95036 0.61342 0.55215 0.0
C234 C 0.06103 0.46873 0.55535 0.0
C235 C 0.98996 0.52211 0.55288 0.0
C236 C 0.08073 0.42313 0.5557 0.0
C237 C 0.0518 0.38294 0.55397 0.0
C238 C 0.01197 0.47417 0.55335 0.0
C239 C 0.00294 0.38979 0.55202 0.0
C240 C 0.94024 0.52763 0.55304 0.0
C241 C 0.99983 0.60647 0.55188 0.0
N242 N 0.98451 0.43459 0.55178 0.0
N243 N 0.01812 0.56164 0.5523 0.0
H244 H 0.58029 0.62016 0.80978 0.0
H245 H 0.42084 0.38352 0.80997 0.0
H246 H 0.63892 0.47862 0.80632 0.0
H247 H 0.36237 0.52504 0.80636 0.0
H248 H 0.50092 0.41775 0.81061 0.0
H249 H 0.50029 0.58589 0.8105 0.0
C250 C 0.57634 0.58181 0.80923 0.0
C251 C 0.61631 0.55216 0.80796 0.0
C252 C 0.4706 0.44134 0.8097 0.0
C253 C 0.52475 0.51269 0.80878 0.0
C254 C 0.42485 0.42186 0.80937 0.0
C255 C 0.38489 0.45152 0.80808 0.0
C256 C 0.47651 0.49091 0.80881 0.0
C257 C 0.3922 0.5009 0.80733 0.0
C258 C 0.53062 0.56229 0.80961 0.0
C259 C 0.60906 0.50275 0.80728 0.0
N260 N 0.43714 0.51906 0.8077 0.0
N261 N 0.56414 0.48455 0.8077 0.0
H262 H 0.38775 0.0823 0.05037 0.0
H263 H 0.62321 0.9214 0.0517 0.0
H264 H 0.5296 0.14002 0.05397 0.0
H265 H 0.48085 0.86414 0.05442 0.0
H266 H 0.5897 0.00157 0.05024 0.0
H267 H 0.42152 0.00212 0.04951 0.0
C268 C 0.42607 0.07812 0.05089 0.0
C269 C 0.45595 0.11785 0.05229 0.0
C270 C 0.56577 0.97148 0.05111 0.0
C271 C 0.49481 0.02613 0.05134 0.0
C272 C 0.58485 0.92568 0.05192 0.0
C273 C 0.55473 0.88609 0.05323 0.0
C274 C 0.51617 0.97777 0.05157 0.0
C275 C 0.50534 0.89372 0.05346 0.0
C276 C 0.4453 0.03231 0.05043 0.0
C277 C 0.5053 0.11034 0.05292 0.0
N278 N 0.48759 0.93871 0.05266 0.0
N279 N 0.5232 0.06532 0.05247 0.0
H280 H 0.07923 0.38592 0.94142 0.0
H281 H 0.91635 0.6201 0.94208 0.0
H282 H 0.13534 0.52879 0.93875 0.0
H283 H 0.8602 0.47775 0.93808 0.0
H284 H 0.99662 0.58694 0.94353 0.0
H285 H 0.99879 0.41879 0.94284 0.0
C286 C 0.07465 0.42427 0.94122 0.0
C287 C 0.114 0.45471 0.9399 0.0
C288 C 0.96674 0.56292 0.94239 0.0
C289 C 0.02199 0.49252 0.9415 0.0
C290 C 0.92087 0.58179 0.9416 0.0
C291 C 0.88158 0.55161 0.93989 0.0
C292 C 0.97343 0.51345 0.94151 0.0
C293 C 0.88954 0.50229 0.93935 0.0
C294 C 0.02869 0.44297 0.942 0.0
C295 C 0.10597 0.50405 0.93971 0.0
N296 N 0.93462 0.48474 0.94012 0.0
N297 N 0.06083 0.52144 0.94046 0.0
H298 H 0.38144 0.41623 0.17997 0.0
H299 H 0.61798 0.57575 0.18078 0.0
H300 H 0.52273 0.35767 0.18395 0.0
H301 H 0.47624 0.63427 0.18372 0.0
H302 H 0.58382 0.49569 0.17988 0.0
H303 H 0.41573 0.49624 0.17927 0.0
C304 C 0.41975 0.42019 0.18064 0.0
C305 C 0.44931 0.38024 0.18206 0.0
C306 C 0.56016 0.52602 0.1807 0.0
C307 C 0.48879 0.47183 0.18126 0.0
C308 C 0.57961 0.57176 0.18118 0.0
C309 C 0.54987 0.61173 0.18237 0.0
C310 C 0.51054 0.5201 0.18133 0.0
C311 C 0.50045 0.60443 0.18284 0.0
C312 C 0.43928 0.46592 0.18027 0.0
C313 C 0.49866 0.38751 0.18288 0.0
N314 N 0.48232 0.55948 0.18233 0.0
N315 N 0.51687 0.43245 0.18247 0.0
H316 H 0.39776 0.06834 0.41919 0.0
H317 H 0.62017 0.98119 0.45533 0.0
H318 H 0.37968 0.01792 0.45469 0.0
H319 H 0.60078 0.93601 0.41944 0.0
H320 H 0.53808 0.01218 0.45539 0.0
H321 H 0.47915 0.03616 0.41916 0.0
C322 C 0.411 0.0504 0.42696 0.0
C323 C 0.38217 0.0454 0.43694 0.0
C324 C 0.55206 0.99557 0.44753 0.0
C325 C 0.475 0.01008 0.43705 0.0
C326 C 0.59877 0.97832 0.44745 0.0
C327 C 0.61695 0.95616 0.43736 0.0
C328 C 0.5242 0.99175 0.43734 0.0
C329 C 0.58783 0.9528 0.42739 0.0
C330 C 0.45719 0.0321 0.42692 0.0
C331 C 0.40082 0.022 0.44679 0.0
N332 N 0.54293 0.97087 0.42758 0.0
N333 N 0.44646 0.00565 0.44667 0.0
H334 H 0.11566 0.08229 0.68742 0.0
H335 H 0.87804 0.92591 0.68322 0.0
H336 H 0.97433 0.14291 0.68817 0.0
H337 H 0.01708 0.86554 0.68963 0.0
H338 H 0.91306 0.00566 0.68386 0.0
H339 H 0.08058 0.00254 0.68719 0.0
C340 C 0.0772 0.07879 0.68756 0.0
C341 C 0.04781 0.11923 0.68781 0.0
C342 C 0.93592 0.97499 0.68514 0.0
C343 C 0.00744 0.02809 0.68748 0.0
C344 C 0.91599 0.92945 0.68474 0.0
C345 C 0.94475 0.88908 0.68637 0.0
C346 C 0.98505 0.98022 0.6871 0.0
C347 C 0.99364 0.89574 0.68834 0.0
C348 C 0.05722 0.03325 0.68744 0.0
C349 C 0.99826 0.11264 0.68799 0.0
N350 N 0.01229 0.94047 0.68862 0.0
N351 N 0.97961 0.0679 0.68777 0.0
H352 H 0.57968 0.88289 0.30018 0.0
H353 H 0.42461 0.12161 0.29941 0.0
H354 H 0.64116 0.02339 0.29716 0.0
H355 H 0.36343 0.9807 0.29729 0.0
H356 H 0.50418 0.08649 0.29823 0.0
H357 H 0.50023 0.91801 0.29881 0.0
C358 C 0.57644 0.92116 0.29918 0.0
C359 C 0.61704 0.95033 0.29884 0.0
C360 C 0.47338 0.06323 0.29794 0.0
C361 C 0.52616 0.99083 0.29732 0.0
C362 C 0.42794 0.08326 0.29862 0.0
C363 C 0.3874 0.05397 0.2985 0.0
C364 C 0.47836 0.01349 0.29723 0.0
C365 C 0.39377 0.00456 0.29744 0.0
C366 C 0.53105 0.94118 0.29837 0.0
C367 C 0.61077 0.99963 0.29748 0.0
N368 N 0.43842 0.98584 0.29693 0.0
N369 N 0.56615 0.01838 0.29685 0.0
H370 H 0.02403 0.85862 0.54449 0.0
H371 H 0.9784 0.14075 0.5464 0.0
H372 H 0.88523 0.92226 0.54902 0.0
H373 H 0.11835 0.07704 0.54572 0.0
H374 H 0.94308 0.06109 0.54527 0.0
H375 H 0.05873 0.93846 0.54291 0.0
C376 C 0.00084 0.88939 0.54508 0.0
C377 C 0.95173 0.88384 0.54695 0.0
C378 C 0.98152 0.06454 0.54529 0.0
C379 C 0.99111 0.97526 0.54516 0.0
C380 C 0.00168 0.11002 0.54591 0.0
C381 C 0.05136 0.11548 0.54622 0.0
C382 C 0.01126 0.02423 0.54497 0.0
C383 C 0.07985 0.07443 0.54555 0.0
C384 C 0.02065 0.93496 0.5442 0.0
C385 C 0.92331 0.92493 0.54764 0.0
N386 N 0.05941 0.03055 0.54502 0.0
N387 N 0.94343 0.96887 0.54678 0.0
H388 H 0.14165 0.5269 0.79891 0.0
H389 H 0.86005 0.47785 0.79847 0.0
H390 H 0.07956 0.38627 0.79747 0.0
H391 H 0.922 0.61864 0.79782 0.0
H392 H 0.94018 0.44358 0.79721 0.0
H393 H 0.06159 0.56136 0.79761 0.0
C394 C 0.11121 0.5033 0.79823 0.0
C395 C 0.11727 0.45366 0.79834 0.0
C396 C 0.93625 0.48198 0.79727 0.0
C397 C 0.02552 0.49275 0.79694 0.0
C398 C 0.89049 0.50153 0.79798 0.0
C399 C 0.88435 0.55115 0.7983 0.0
C400 C 0.97621 0.51226 0.79693 0.0
C401 C 0.92507 0.58017 0.79763 0.0
C402 C 0.06549 0.52296 0.79751 0.0
C403 C 0.07655 0.42475 0.79745 0.0
N404 N 0.96922 0.56032 0.79705 0.0
N405 N 0.03246 0.44469 0.79685 0.0
H406 H 0.6229 0.58184 0.0656 0.0
H407 H 0.38716 0.42087 0.06598 0.0
H408 H 0.48049 0.63964 0.06418 0.0
H409 H 0.52933 0.36342 0.06303 0.0
H410 H 0.42084 0.50098 0.06746 0.0
H411 H 0.58935 0.50163 0.0668 0.0
C412 C 0.58451 0.57767 0.06563 0.0
C413 C 0.55441 0.61748 0.06473 0.0
C414 C 0.44472 0.47088 0.06655 0.0
C415 C 0.51574 0.52561 0.06606 0.0
C416 C 0.42553 0.42508 0.06573 0.0
C417 C 0.45551 0.38543 0.06433 0.0
C418 C 0.49431 0.47716 0.06598 0.0
C419 C 0.50492 0.39302 0.06407 0.0
C420 C 0.56539 0.53182 0.06628 0.0
C421 C 0.50498 0.60993 0.06482 0.0
N422 N 0.52277 0.43802 0.06484 0.0
N423 N 0.48718 0.56487 0.06542 0.0
H424 H 0.41666 0.38666 0.92525 0.0
H425 H 0.58002 0.6207 0.92456 0.0
H426 H 0.36059 0.52953 0.92783 0.0
H427 H 0.63602 0.47801 0.92776 0.0
H428 H 0.49955 0.58781 0.9233 0.0
H429 H 0.49706 0.41948 0.92372 0.0
C430 C 0.42123 0.425 0.92541 0.0
C431 C 0.38188 0.45544 0.92673 0.0
C432 C 0.52942 0.56365 0.92421 0.0
C433 C 0.47396 0.49326 0.92501 0.0
C434 C 0.57542 0.58238 0.9249 0.0
C435 C 0.61478 0.55202 0.92633 0.0
C436 C 0.52263 0.51415 0.92492 0.0
C437 C 0.60668 0.5027 0.9267 0.0
C438 C 0.4672 0.4437 0.92456 0.0
C439 C 0.38994 0.50479 0.92686 0.0
N440 N 0.56148 0.48529 0.92605 0.0
N441 N 0.43512 0.52218 0.92606 0.0
H442 H 0.47399 0.85499 0.1912 0.0
H443 H 0.52298 0.13666 0.19184 0.0
H444 H 0.6144 0.91701 0.19358 0.0
H445 H 0.38218 0.07484 0.19259 0.0
H446 H 0.55716 0.05647 0.19306 0.0
H447 H 0.43945 0.93511 0.19229 0.0
C448 C 0.49752 0.88543 0.19204 0.0
C449 C 0.54713 0.87931 0.19227 0.0
C450 C 0.51878 0.06044 0.19303 0.0
C451 C 0.50796 0.97115 0.19343 0.0
C452 C 0.49927 0.10624 0.19234 0.0
C453 C 0.44968 0.11245 0.19208 0.0
C454 C 0.48848 0.0205 0.1934 0.0
C455 C 0.42063 0.07173 0.19275 0.0
C456 C 0.47782 0.93118 0.19265 0.0
C457 C 0.57595 0.92004 0.19335 0.0
N458 N 0.44043 0.02754 0.19331 0.0
N459 N 0.55598 0.96416 0.19382 0.0
H460 H 0.91939 0.88218 0.44659 0.0
H461 H 0.07859 0.11906 0.44575 0.0
H462 H 0.86073 0.0242 0.44484 0.0
H463 H 0.13731 0.97689 0.44538 0.0
H464 H 0.99867 0.08513 0.44739 0.0
H465 H 0.99924 0.91633 0.44815 0.0
C466 C 0.92329 0.92061 0.44663 0.0
C467 C 0.88337 0.95042 0.44551 0.0
C468 C 0.029 0.06131 0.44703 0.0
C469 C 0.97482 0.9898 0.44723 0.0
C470 C 0.07468 0.08066 0.4461 0.0
C471 C 0.11465 0.05071 0.44536 0.0
C472 C 0.02312 0.01159 0.44719 0.0
C473 C 0.10747 0.00126 0.44589 0.0
C474 C 0.96893 0.94008 0.4475 0.0
C475 C 0.89054 0.99992 0.44565 0.0
N476 N 0.06256 0.98324 0.44671 0.0
N477 N 0.93541 0.01805 0.44642 0.0
H478 H 0.1156 0.42764 0.68864 0.0
H479 H 0.87733 0.58302 0.69326 0.0
H480 H 0.9759 0.36648 0.69358 0.0
H481 H 0.01819 0.64435 0.69144 0.0
H482 H 0.91288 0.50358 0.69405 0.0
H483 H 0.08084 0.50725 0.69019 0.0
C484 C 0.07758 0.43098 0.69009 0.0
C485 C 0.04853 0.39038 0.69094 0.0
C486 C 0.93608 0.53438 0.69356 0.0
C487 C 0.00844 0.48151 0.69269 0.0
C488 C 0.9158 0.57977 0.69312 0.0
C489 C 0.94487 0.62033 0.69224 0.0
C490 C 0.98584 0.5294 0.69305 0.0
C491 C 0.99447 0.61402 0.69211 0.0
C492 C 0.05777 0.47647 0.69099 0.0
C493 C 0.99956 0.39683 0.69286 0.0
N494 N 0.01339 0.56939 0.69242 0.0
N495 N 0.98101 0.44153 0.69361 0.0
H496 H 0.25511 0.05169 0.34276 0.0
H497 H 0.25597 0.20471 0.40155 0.0
H498 H 0.24689 0.2053 0.34139 0.0
H499 H 0.21338 0.05709 0.3992 0.0
H500 H 0.25888 0.20813 0.37992 0.0
H501 H 0.24846 0.05498 0.36394 0.0
C502 C 0.25201 0.08628 0.34693 0.0
C503 C 0.2514 0.12831 0.34029 0.0
C504 C 0.2485 0.17526 0.3842 0.0
C505 C 0.24355 0.13232 0.36471 0.0
C506 C 0.2468 0.17328 0.3965 0.0
C507 C 0.23476 0.13044 0.40216 0.0
C508 C 0.2386 0.13397 0.37765 0.0
C509 C 0.22318 0.09078 0.39524 0.0
C510 C 0.24794 0.08811 0.35906 0.0
C511 C 0.24738 0.17207 0.34621 0.0
N512 N 0.22578 0.09344 0.38339 0.0
N513 N 0.24371 0.17303 0.35816 0.0
H514 H 0.94416 0.73062 0.59135 0.0
H515 H 0.79194 0.77616 0.64922 0.0
H516 H 0.79443 0.76473 0.58909 0.0
H517 H 0.92703 0.70275 0.64793 0.0
H518 H 0.78966 0.77532 0.62755 0.0
H519 H 0.93718 0.72502 0.61246 0.0
C520 C 0.90966 0.73708 0.59532 0.0
C521 C 0.86984 0.74833 0.58845 0.0
C522 C 0.81941 0.759 0.63208 0.0
C523 C 0.86144 0.74184 0.61284 0.0
C524 C 0.8207 0.75942 0.6444 0.0
C525 C 0.86004 0.74006 0.65034 0.0
C526 C 0.85783 0.73926 0.62581 0.0
C527 C 0.89633 0.71874 0.64373 0.0
C528 C 0.9056 0.73358 0.60742 0.0
C529 C 0.82598 0.75596 0.59411 0.0
N530 N 0.89447 0.71926 0.63186 0.0
N531 N 0.82293 0.75291 0.60605 0.0
H532 H 0.16306 0.39448 0.84073 0.0
H533 H 0.27761 0.29265 0.89944 0.0
H534 H 0.28024 0.29505 0.84043 0.0
H535 H 0.1595 0.3907 0.89771 0.0
H536 H 0.27101 0.28014 0.87809 0.0
H537 H 0.15266 0.38057 0.86162 0.0
C538 C 0.18638 0.3693 0.84509 0.0
C539 C 0.22298 0.3464 0.83894 0.0
C540 C 0.24596 0.30359 0.88245 0.0
C541 C 0.21208 0.3309 0.86299 0.0
C542 C 0.24956 0.31048 0.89461 0.0
C543 C 0.21946 0.34325 0.90023 0.0
C544 C 0.21189 0.32954 0.87602 0.0
C545 C 0.18386 0.36569 0.89364 0.0
C546 C 0.18044 0.36127 0.85704 0.0
C547 C 0.25176 0.31358 0.84494 0.0
N548 N 0.18139 0.35879 0.88189 0.0
N549 N 0.24632 0.30743 0.85674 0.0
H550 H 0.71581 0.71585 0.09258 0.0
H551 H 0.61802 0.83632 0.1509 0.0
H552 H 0.62771 0.8416 0.09405 0.0
H553 H 0.70953 0.71289 0.15148 0.0
H554 H 0.63527 0.84687 0.13016 0.0
H555 H 0.72808 0.72175 0.11395 0.0
C556 C 0.70028 0.74542 0.09736 0.0
C557 C 0.67018 0.77793 0.09167 0.0
C558 C 0.65216 0.81768 0.13477 0.0
C559 C 0.68355 0.78471 0.1159 0.0
C560 C 0.64222 0.81167 0.14663 0.0
C561 C 0.66185 0.77332 0.1528 0.0
C562 C 0.68103 0.78432 0.12892 0.0
C563 C 0.69352 0.74278 0.14694 0.0
C564 C 0.707 0.74864 0.10954 0.0
C565 C 0.65059 0.81542 0.09819 0.0
N566 N 0.70144 0.74833 0.13521 0.0
N567 N 0.65718 0.81747 0.10995 0.0
H568 H 0.72234 0.71497 0.83921 0.0
H569 H 0.84297 0.62071 0.89824 0.0
H570 H 0.83062 0.60625 0.84151 0.0
H571 H 0.71827 0.71048 0.89834 0.0
H572 H 0.851 0.63296 0.87719 0.0
H573 H 0.73109 0.72956 0.86045 0.0
C574 C 0.74849 0.69486 0.84415 0.0
C575 C 0.77534 0.65889 0.8387 0.0
C576 C 0.82216 0.65062 0.88179 0.0
C577 C 0.78575 0.67549 0.86275 0.0
C578 C 0.81771 0.64375 0.89381 0.0
C579 C 0.77956 0.66412 0.89994 0.0
C580 C 0.78755 0.67721 0.87576 0.0
C581 C 0.74809 0.69408 0.89386 0.0
C582 C 0.75338 0.70308 0.85623 0.0
C583 C 0.80871 0.63379 0.84542 0.0
N584 N 0.75217 0.699 0.88199 0.0
N585 N 0.81273 0.64237 0.85708 0.0
H586 H 0.38507 0.15783 0.15002 0.0
H587 H 0.29085 0.28214 0.09177 0.0
H588 H 0.29171 0.27987 0.1507 0.0
H589 H 0.38501 0.16081 0.09311 0.0
H590 H 0.2765 0.27351 0.11301 0.0
H591 H 0.37084 0.14936 0.12907 0.0
C592 C 0.36108 0.18258 0.14573 0.0
C593 C 0.34008 0.21999 0.152 0.0
C594 C 0.29947 0.24822 0.10858 0.0
C595 C 0.3244 0.21142 0.1279 0.0
C596 C 0.30743 0.253 0.09648 0.0
C597 C 0.33969 0.22254 0.0908 0.0
C598 C 0.32383 0.2126 0.11488 0.0
C599 C 0.36047 0.18549 0.09723 0.0
C600 C 0.35289 0.17779 0.13375 0.0
C601 C 0.30874 0.25069 0.14609 0.0
N602 N 0.35256 0.18187 0.10892 0.0
N603 N 0.30255 0.24636 0.13427 0.0
H604 H 0.76672 0.95024 0.34267 0.0
H605 H 0.7375 0.79808 0.40117 0.0
H606 H 0.74825 0.79756 0.34125 0.0
H607 H 0.7971 0.93982 0.39953 0.0
H608 H 0.73795 0.7951 0.37954 0.0
H609 H 0.77303 0.94583 0.36385 0.0
C610 C 0.76391 0.91564 0.34684 0.0
C611 C 0.75683 0.87419 0.34019 0.0
C612 C 0.75133 0.82654 0.38397 0.0
C613 C 0.76412 0.86881 0.36461 0.0
C614 C 0.75112 0.82826 0.39628 0.0
C615 C 0.76686 0.86945 0.40213 0.0
C616 C 0.76706 0.86643 0.37759 0.0
C617 C 0.78418 0.90752 0.3954 0.0
C618 C 0.76779 0.9131 0.35896 0.0
C619 C 0.75373 0.83033 0.34609 0.0
N620 N 0.78344 0.90519 0.38353 0.0
N621 N 0.75709 0.82874 0.35803 0.0
H622 H 0.20792 0.26252 0.65023 0.0
H623 H 0.07176 0.19135 0.59113 0.0
H624 H 0.05781 0.23086 0.64735 0.0
H625 H 0.20455 0.26894 0.59002 0.0
H626 H 0.07542 0.1911 0.6124 0.0
H627 H 0.21525 0.25339 0.62872 0.0
C628 C 0.17668 0.25359 0.64509 0.0
C629 C 0.13214 0.24769 0.65053 0.0
C630 C 0.10397 0.20809 0.60756 0.0
C631 C 0.14039 0.23649 0.62623 0.0
C632 C 0.10197 0.20813 0.59539 0.0
C633 C 0.13755 0.23084 0.58882 0.0
C634 C 0.1417 0.23118 0.6133 0.0
C635 C 0.17625 0.25132 0.59481 0.0
C636 C 0.18088 0.24844 0.63288 0.0
C637 C 0.09277 0.2361 0.64353 0.0
N638 N 0.17712 0.25148 0.60679 0.0
N639 N 0.09789 0.23077 0.63179 0.0
H640 H 0.29987 0.25095 0.28076 0.0
H641 H 0.2502 0.22713 0.21197 0.0
H642 H 0.197 0.15538 0.26531 0.0
H643 H 0.37506 0.29391 0.22678 0.0
H644 H 0.2165 0.22025 0.23172 0.0
H645 H 0.31334 0.28645 0.26134 0.0
C646 C 0.27927 0.23834 0.27334 0.0
C647 C 0.24794 0.19974 0.27454 0.0
C648 C 0.25096 0.23709 0.23062 0.0
C649 C 0.26316 0.2397 0.25244 0.0
C650 C 0.27013 0.24108 0.21936 0.0
C651 C 0.31583 0.26024 0.21779 0.0
C652 C 0.27771 0.25243 0.24035 0.0
C653 C 0.34001 0.27814 0.22764 0.0
C654 C 0.28712 0.25835 0.26227 0.0
C655 C 0.22209 0.18461 0.26468 0.0
N656 N 0.32092 0.27326 0.23853 0.0
N657 N 0.23068 0.20424 0.25401 0.0
H658 H 0.78435 0.74593 0.45983 0.0
H659 H 0.74716 0.77533 0.5288 0.0
H660 H 0.68571 0.84466 0.47577 0.0
H661 H 0.86343 0.69905 0.51261 0.0
H662 H 0.7088 0.782 0.50952 0.0
H663 H 0.79701 0.70909 0.47907 0.0
C664 C 0.76441 0.759 0.46732 0.0
C665 C 0.73479 0.79899 0.4663 0.0
C666 C 0.7423 0.76305 0.51024 0.0
C667 C 0.74945 0.75765 0.48827 0.0
C668 C 0.76409 0.75919 0.52123 0.0
C669 C 0.80892 0.73756 0.52221 0.0
C670 C 0.76557 0.74497 0.50024 0.0
C671 C 0.82927 0.71691 0.51217 0.0
C672 C 0.77182 0.73818 0.4783 0.0
C673 C 0.70962 0.81442 0.47625 0.0
N674 N 0.80774 0.72166 0.50157 0.0
N675 N 0.71812 0.79424 0.48687 0.0
H676 H 0.24691 0.29704 0.71018 0.0
H677 H 0.22223 0.25363 0.77928 0.0
H678 H 0.14122 0.2064 0.72627 0.0
H679 H 0.29717 0.37267 0.76393 0.0
H680 H 0.21079 0.2203 0.7596 0.0
H681 H 0.28351 0.30916 0.72954 0.0
C682 C 0.2321 0.2789 0.71775 0.0
C683 C 0.19062 0.25136 0.71672 0.0
C684 C 0.23042 0.25332 0.76057 0.0
C685 C 0.23201 0.26491 0.73874 0.0
C686 C 0.23707 0.27225 0.77179 0.0
C687 C 0.25989 0.31635 0.77318 0.0
C688 C 0.24686 0.27866 0.75073 0.0
C689 C 0.27868 0.33891 0.7632 0.0
C690 C 0.25281 0.28595 0.72877 0.0
C691 C 0.17278 0.22856 0.72675 0.0
N692 N 0.27126 0.32009 0.75237 0.0
N693 N 0.1933 0.2362 0.73737 0.0
H694 H 0.66644 0.60596 0.96938 0.0
H695 H 0.73004 0.75885 0.02572 0.0
H696 H 0.7645 0.72393 0.9665 0.0
H697 H 0.5933 0.69216 0.02001 0.0
H698 H 0.75156 0.74047 0.00518 0.0
H699 H 0.64753 0.63044 0.98931 0.0
C700 C 0.68397 0.63717 0.97296 0.0
C701 C 0.71697 0.66309 0.9663 0.0
C702 C 0.71684 0.73025 0.00848 0.0
C703 C 0.69581 0.69106 0.98921 0.0
C704 C 0.7047 0.7404 0.02016 0.0
C705 C 0.65994 0.7268 0.02455 0.0
C706 C 0.68423 0.70564 0.00134 0.0
C707 C 0.6282 0.70327 0.01701 0.0
C708 C 0.67305 0.6512 0.98433 0.0
C709 C 0.73858 0.70329 0.97137 0.0
N710 N 0.64111 0.69314 0.00584 0.0
N711 N 0.72791 0.71596 0.98263 0.0
H712 H 0.27745 0.24199 0.02548 0.0
H713 H 0.32434 0.40772 0.97042 0.0
H714 H 0.40859 0.3191 0.01977 0.0
H715 H 0.23833 0.28108 0.96652 0.0
H716 H 0.34534 0.38277 0.99019 0.0
H717 H 0.25269 0.26217 0.00527 0.0
C718 C 0.30087 0.26313 0.01999 0.0
C719 C 0.34503 0.27905 0.02427 0.0
C720 C 0.32195 0.3603 0.98502 0.0
C721 C 0.31699 0.30234 0.00147 0.0
C722 C 0.3098 0.37458 0.97375 0.0
C723 C 0.2797 0.34628 0.96683 0.0
C724 C 0.30336 0.31771 0.98954 0.0
C725 C 0.26194 0.30365 0.97159 0.0
C726 C 0.2869 0.27432 0.0085 0.0
C727 C 0.37427 0.30606 0.01683 0.0
N728 N 0.27381 0.29066 0.98275 0.0
N729 N 0.35956 0.31715 0.00585 0.0
H730 H 0.8065 0.84642 0.26524 0.0
H731 H 0.62217 0.70065 0.22751 0.0
H732 H 0.70093 0.75408 0.28074 0.0
H733 H 0.74611 0.76927 0.21276 0.0
H734 H 0.6561 0.71055 0.24711 0.0
H735 H 0.79184 0.80953 0.24619 0.0
C736 C 0.7808 0.81767 0.26464 0.0
C737 C 0.75437 0.80362 0.27449 0.0
C738 C 0.67631 0.72269 0.23959 0.0
C739 C 0.73659 0.76192 0.25269 0.0
C740 C 0.6569 0.71716 0.22839 0.0
C741 C 0.68106 0.73493 0.21854 0.0
C742 C 0.71985 0.74677 0.24092 0.0
C743 C 0.7261 0.75554 0.22015 0.0
C744 C 0.77243 0.79658 0.25377 0.0
C745 C 0.72185 0.766 0.27331 0.0
N746 N 0.74369 0.76163 0.23116 0.0
N747 N 0.71311 0.74706 0.26252 0.0
H748 H 0.21704 0.25397 0.46054 0.0
H749 H 0.25621 0.22057 0.52928 0.0
H750 H 0.31337 0.15191 0.47601 0.0
H751 H 0.14343 0.30388 0.51374 0.0
H752 H 0.29343 0.2133 0.50989 0.0
H753 H 0.20651 0.29078 0.47989 0.0
C754 C 0.23691 0.24012 0.46795 0.0
C755 C 0.26526 0.19928 0.46677 0.0
C756 C 0.261 0.23392 0.51077 0.0
C757 C 0.25307 0.24062 0.48885 0.0
C758 C 0.23985 0.23813 0.52183 0.0
C759 C 0.19621 0.26192 0.52303 0.0
C760 C 0.23822 0.25367 0.5009 0.0
C761 C 0.17663 0.28436 0.51313 0.0
C762 C 0.23073 0.26094 0.47899 0.0
C763 C 0.2904 0.18283 0.47661 0.0
N764 N 0.1974 0.27912 0.50246 0.0
N765 N 0.28312 0.20307 0.48729 0.0
H766 H 0.84603 0.81041 0.72531 0.0
H767 H 0.70009 0.62914 0.76394 0.0
H768 H 0.74865 0.70758 0.71055 0.0
H769 H 0.77598 0.74936 0.77842 0.0
H770 H 0.70812 0.66377 0.74438 0.0
H771 H 0.81171 0.79625 0.74466 0.0
C772 C 0.81674 0.78544 0.72613 0.0
C773 C 0.80056 0.75955 0.71638 0.0
C774 C 0.72233 0.68305 0.75184 0.0
C775 C 0.76172 0.74242 0.73854 0.0
C776 C 0.71786 0.66323 0.76301 0.0
C777 C 0.73813 0.68609 0.77276 0.0
C778 C 0.74791 0.72568 0.7504 0.0
C779 C 0.76026 0.73037 0.7711 0.0
C780 C 0.79713 0.77737 0.73719 0.0
C781 C 0.76229 0.72802 0.71788 0.0
N782 N 0.7653 0.74836 0.76009 0.0
N783 N 0.74476 0.71958 0.72882 0.0
loop_
_geom_bond_atom_site_label_1
_geom_bond_atom_site_label_2
_geom_bond_distance
_geom_bond_site_symmetry_2
_ccdc_geom_bond_type
In0 O1 2.294 . S
In0 O2 2.326 . S
In0 O6 2.266 . S
In0 O7 2.326 . S
In0 O8 2.266 . S
In0 O9 2.326 . S
In0 O11 2.294 . S
In0 O12 2.326 . S
O1 In0 2.294 . S
O1 C10 1.240 . S
O2 In0 2.326 . S
O2 C10 1.252 . S
C3 O6 1.252 . S
C3 O7 1.260 . S
C4 O11 1.240 . S
C4 O12 1.252 . S
C5 O8 1.252 . S
C5 O9 1.260 . S
O6 In0 2.266 . S
O6 C3 1.252 . S
O7 In0 2.326 . S
O7 C3 1.260 . S
O8 In0 2.266 . S
O8 C5 1.252 . S
O9 In0 2.326 . S
O9 C5 1.260 . S
C10 O1 1.240 . S
C10 O2 1.252 . S
O11 In0 2.294 . S
O11 C4 1.240 . S
O12 In0 2.326 . S
O12 C4 1.252 . S
In13 O14 2.294 . S
In13 O15 2.326 . S
In13 O19 2.266 . S
In13 O20 2.326 . S
In13 O21 2.266 . S
In13 O22 2.326 . S
In13 O24 2.294 . S
In13 O25 2.326 . S
O14 In13 2.294 . S
O14 C23 1.240 . S
O15 In13 2.326 . S
O15 C23 1.252 . S
C16 O19 1.252 . S
C16 O20 1.260 . S
C17 O24 1.240 . S
C17 O25 1.252 . S
C18 O21 1.252 . S
C18 O22 1.260 . S
O19 In13 2.266 . S
O19 C16 1.252 . S
O20 In13 2.326 . S
O20 C16 1.260 . S
O21 In13 2.266 . S
O21 C18 1.252 . S
O22 In13 2.326 . S
O22 C18 1.260 . S
C23 O14 1.240 . S
C23 O15 1.252 . S
O24 In13 2.294 . S
O24 C17 1.240 . S
O25 In13 2.326 . S
O25 C17 1.252 . S
In26 O27 2.294 . S
In26 O28 2.326 . S
In26 O32 2.266 . S
In26 O33 2.326 . S
In26 O34 2.266 . S
In26 O35 2.326 . S
In26 O37 2.294 . S
In26 O38 2.326 . S
O27 In26 2.294 . S
O27 C36 1.240 . S
O28 In26 2.326 . S
O28 C36 1.252 . S
C29 O32 1.252 . S
C29 O33 1.260 . S
C30 O37 1.240 . S
C30 O38 1.252 . S
C31 O34 1.252 . S
C31 O35 1.260 . S
O32 In26 2.266 . S
O32 C29 1.252 . S
O33 In26 2.326 . S
O33 C29 1.260 . S
O34 In26 2.266 . S
O34 C31 1.252 . S
O35 In26 2.326 . S
O35 C31 1.260 . S
C36 O27 1.240 . S
C36 O28 1.252 . S
O37 In26 2.294 . S
O37 C30 1.240 . S
O38 In26 2.326 . S
O38 C30 1.252 . S
In39 O40 2.294 . S
In39 O41 2.326 . S
In39 O45 2.266 . S
In39 O46 2.326 . S
In39 O47 2.266 . S
In39 O48 2.326 . S
In39 O50 2.294 . S
In39 O51 2.326 . S
O40 In39 2.294 . S
O40 C49 1.240 . S
O41 In39 2.326 . S
O41 C49 1.252 . S
C42 O45 1.252 . S
C42 O46 1.260 . S
C43 O50 1.240 . S
C43 O51 1.252 . S
C44 O47 1.252 . S
C44 O48 1.260 . S
O45 In39 2.266 . S
O45 C42 1.252 . S
O46 In39 2.326 . S
O46 C42 1.260 . S
O47 In39 2.266 . S
O47 C44 1.252 . S
O48 In39 2.326 . S
O48 C44 1.260 . S
C49 O40 1.240 . S
C49 O41 1.252 . S
O50 In39 2.294 . S
O50 C43 1.240 . S
O51 In39 2.326 . S
O51 C43 1.252 . S
In52 O53 2.294 . S
In52 O54 2.326 . S
In52 O58 2.266 . S
In52 O59 2.326 . S
In52 O60 2.266 . S
In52 O61 2.326 . S
In52 O63 2.294 . S
In52 O64 2.326 . S
O53 In52 2.294 . S
O53 C62 1.240 . S
O54 In52 2.326 . S
O54 C62 1.252 . S
C55 O58 1.252 . S
C55 O59 1.260 . S
C56 O63 1.240 . S
C56 O64 1.252 . S
C57 O60 1.252 . S
C57 O61 1.260 . S
O58 In52 2.266 . S
O58 C55 1.252 . S
O59 In52 2.326 . S
O59 C55 1.260 . S
O60 In52 2.266 . S
O60 C57 1.252 . S
O61 In52 2.326 . S
O61 C57 1.260 . S
C62 O53 1.240 . S
C62 O54 1.252 . S
O63 In52 2.294 . S
O63 C56 1.240 . S
O64 In52 2.326 . S
O64 C56 1.252 . S
In65 O66 2.294 . S
In65 O67 2.326 . S
In65 O71 2.266 . S
In65 O72 2.326 . S
In65 O73 2.266 . S
In65 O74 2.326 . S
In65 O76 2.294 . S
In65 O77 2.326 . S
O66 In65 2.294 . S
O66 C75 1.240 . S
O67 In65 2.326 . S
O67 C75 1.252 . S
C68 O71 1.252 . S
C68 O72 1.260 . S
C69 O76 1.240 . S
C69 O77 1.252 . S
C70 O73 1.252 . S
C70 O74 1.260 . S
O71 In65 2.266 . S
O71 C68 1.252 . S
O72 In65 2.326 . S
O72 C68 1.260 . S
O73 In65 2.266 . S
O73 C70 1.252 . S
O74 In65 2.326 . S
O74 C70 1.260 . S
C75 O66 1.240 . S
C75 O67 1.252 . S
O76 In65 2.294 . S
O76 C69 1.240 . S
O77 In65 2.326 . S
O77 C69 1.252 . S
In78 O79 2.294 . S
In78 O80 2.326 . S
In78 O84 2.266 . S
In78 O85 2.326 . S
In78 O86 2.266 . S
In78 O87 2.326 . S
In78 O89 2.294 . S
In78 O90 2.326 . S
O79 In78 2.294 . S
O79 C88 1.240 . S
O80 In78 2.326 . S
O80 C88 1.252 . S
C81 O84 1.252 . S
C81 O85 1.260 . S
C82 O89 1.240 . S
C82 O90 1.252 . S
C83 O86 1.252 . S
C83 O87 1.260 . S
O84 In78 2.266 . S
O84 C81 1.252 . S
O85 In78 2.326 . S
O85 C81 1.260 . S
O86 In78 2.266 . S
O86 C83 1.252 . S
O87 In78 2.326 . S
O87 C83 1.260 . S
C88 O79 1.240 . S
C88 O80 1.252 . S
O89 In78 2.294 . S
O89 C82 1.240 . S
O90 In78 2.326 . S
O90 C82 1.252 . S
In91 O92 2.294 . S
In91 O93 2.326 . S
In91 O97 2.266 . S
In91 O98 2.326 . S
In91 O99 2.266 . S
In91 O100 2.326 . S
In91 O102 2.294 . S
In91 O103 2.326 . S
O92 In91 2.294 . S
O92 C101 1.240 . S
O93 In91 2.326 . S
O93 C101 1.252 . S
C94 O97 1.252 . S
C94 O98 1.260 . S
C95 O102 1.240 . S
C95 O103 1.252 . S
C96 O99 1.252 . S
C96 O100 1.260 . S
O97 In91 2.266 . S
O97 C94 1.252 . S
O98 In91 2.326 . S
O98 C94 1.260 . S
O99 In91 2.266 . S
O99 C96 1.252 . S
O100 In91 2.326 . S
O100 C96 1.260 . S
C101 O92 1.240 . S
C101 O93 1.252 . S
O102 In91 2.294 . S
O102 C95 1.240 . S
O103 In91 2.326 . S
O103 C95 1.252 . S
In104 O105 2.294 . S
In104 O106 2.326 . S
In104 O110 2.266 . S
In104 O111 2.326 . S
In104 O112 2.266 . S
In104 O113 2.326 . S
In104 O115 2.294 . S
In104 O116 2.326 . S
O105 In104 2.294 . S
O105 C114 1.240 . S
O106 In104 2.326 . S
O106 C114 1.252 . S
C107 O110 1.252 . S
C107 O111 1.260 . S
C108 O115 1.240 . S
C108 O116 1.252 . S
C109 O112 1.252 . S
C109 O113 1.260 . S
O110 In104 2.266 . S
O110 C107 1.252 . S
O111 In104 2.326 . S
O111 C107 1.260 . S
O112 In104 2.266 . S
O112 C109 1.252 . S
O113 In104 2.326 . S
O113 C109 1.260 . S
C114 O105 1.240 . S
C114 O106 1.252 . S
O115 In104 2.294 . S
O115 C108 1.240 . S
O116 In104 2.326 . S
O116 C108 1.252 . S
In117 O118 2.294 . S
In117 O119 2.326 . S
In117 O123 2.266 . S
In117 O124 2.326 . S
In117 O125 2.266 . S
In117 O126 2.326 . S
In117 O128 2.294 . S
In117 O129 2.326 . S
O118 In117 2.294 . S
O118 C127 1.240 . S
O119 In117 2.326 . S
O119 C127 1.252 . S
C120 O123 1.252 . S
C120 O124 1.260 . S
C121 O128 1.240 . S
C121 O129 1.252 . S
C122 O125 1.252 . S
C122 O126 1.260 . S
O123 In117 2.266 . S
O123 C120 1.252 . S
O124 In117 2.326 . S
O124 C120 1.260 . S
O125 In117 2.266 . S
O125 C122 1.252 . S
O126 In117 2.326 . S
O126 C122 1.260 . S
C127 O118 1.240 . S
C127 O119 1.252 . S
O128 In117 2.294 . S
O128 C121 1.240 . S
O129 In117 2.326 . S
O129 C121 1.252 . S
In130 O131 2.294 . S
In130 O132 2.326 . S
In130 O136 2.266 . S
In130 O137 2.326 . S
In130 O138 2.266 . S
In130 O139 2.326 . S
In130 O141 2.294 . S
In130 O142 2.326 . S
O131 In130 2.294 . S
O131 C140 1.240 . S
O132 In130 2.326 . S
O132 C140 1.252 . S
C133 O136 1.252 . S
C133 O137 1.260 . S
C134 O141 1.240 . S
C134 O142 1.252 . S
C135 O138 1.252 . S
C135 O139 1.260 . S
O136 In130 2.266 . S
O136 C133 1.252 . S
O137 In130 2.326 . S
O137 C133 1.260 . S
O138 In130 2.266 . S
O138 C135 1.252 . S
O139 In130 2.326 . S
O139 C135 1.260 . S
C140 O131 1.240 . S
C140 O132 1.252 . S
O141 In130 2.294 . S
O141 C134 1.240 . S
O142 In130 2.326 . S
O142 C134 1.252 . S
In143 O144 2.294 . S
In143 O145 2.326 . S
In143 O149 2.266 . S
In143 O150 2.326 . S
In143 O151 2.266 . S
In143 O152 2.326 . S
In143 O154 2.294 . S
In143 O155 2.326 . S
O144 In143 2.294 . S
O144 C153 1.240 . S
O145 In143 2.326 . S
O145 C153 1.252 . S
C146 O149 1.252 . S
C146 O150 1.260 . S
C147 O154 1.240 . S
C147 O155 1.252 . S
C148 O151 1.252 . S
C148 O152 1.260 . S
O149 In143 2.266 . S
O149 C146 1.252 . S
O150 In143 2.326 . S
O150 C146 1.260 . S
O151 In143 2.266 . S
O151 C148 1.252 . S
O152 In143 2.326 . S
O152 C148 1.260 . S
C153 O144 1.240 . S
C153 O145 1.252 . S
O154 In143 2.294 . S
O154 C147 1.240 . S
O155 In143 2.326 . S
O155 C147 1.252 . S
In156 O157 2.294 . S
In156 O158 2.326 . S
In156 O162 2.266 . S
In156 O163 2.326 . S
In156 O164 2.266 . S
In156 O165 2.326 . S
In156 O167 2.294 . S
In156 O168 2.326 . S
O157 In156 2.294 . S
O157 C166 1.240 . S
O158 In156 2.326 . S
O158 C166 1.252 . S
C159 O162 1.252 . S
C159 O163 1.260 . S
C160 O167 1.240 . S
C160 O168 1.252 . S
C161 O164 1.252 . S
C161 O165 1.260 . S
O162 In156 2.266 . S
O162 C159 1.252 . S
O163 In156 2.326 . S
O163 C159 1.260 . S
O164 In156 2.266 . S
O164 C161 1.252 . S
O165 In156 2.326 . S
O165 C161 1.260 . S
C166 O157 1.240 . S
C166 O158 1.252 . S
O167 In156 2.294 . S
O167 C160 1.240 . S
O168 In156 2.326 . S
O168 C160 1.252 . S
In169 O170 2.294 . S
In169 O171 2.326 . S
In169 O175 2.266 . S
In169 O176 2.326 . S
In169 O177 2.266 . S
In169 O178 2.326 . S
In169 O180 2.294 . S
In169 O181 2.326 . S
O170 In169 2.294 . S
O170 C179 1.240 . S
O171 In169 2.326 . S
O171 C179 1.252 . S
C172 O175 1.252 . S
C172 O176 1.260 . S
C173 O180 1.240 . S
C173 O181 1.252 . S
C174 O177 1.252 . S
C174 O178 1.260 . S
O175 In169 2.266 . S
O175 C172 1.252 . S
O176 In169 2.326 . S
O176 C172 1.260 . S
O177 In169 2.266 . S
O177 C174 1.252 . S
O178 In169 2.326 . S
O178 C174 1.260 . S
C179 O170 1.240 . S
C179 O171 1.252 . S
O180 In169 2.294 . S
O180 C173 1.240 . S
O181 In169 2.326 . S
O181 C173 1.252 . S
In182 O183 2.294 . S
In182 O184 2.326 . S
In182 O188 2.266 . S
In182 O189 2.326 . S
In182 O190 2.266 . S
In182 O191 2.326 . S
In182 O193 2.294 . S
In182 O194 2.326 . S
O183 In182 2.294 . S
O183 C192 1.240 . S
O184 In182 2.326 . S
O184 C192 1.252 . S
C185 O188 1.252 . S
C185 O189 1.260 . S
C186 O193 1.240 . S
C186 O194 1.252 . S
C187 O190 1.252 . S
C187 O191 1.260 . S
O188 In182 2.266 . S
O188 C185 1.252 . S
O189 In182 2.326 . S
O189 C185 1.260 . S
O190 In182 2.266 . S
O190 C187 1.252 . S
O191 In182 2.326 . S
O191 C187 1.260 . S
C192 O183 1.240 . S
C192 O184 1.252 . S
O193 In182 2.294 . S
O193 C186 1.240 . S
O194 In182 2.326 . S
O194 C186 1.252 . S
In195 O196 2.294 . S
In195 O197 2.326 . S
In195 O201 2.266 . S
In195 O202 2.326 . S
In195 O203 2.266 . S
In195 O204 2.326 . S
In195 O206 2.294 . S
In195 O207 2.326 . S
O196 In195 2.294 . S
O196 C205 1.240 . S
O197 In195 2.326 . S
O197 C205 1.252 . S
C198 O201 1.252 . S
C198 O202 1.260 . S
C199 O206 1.240 . S
C199 O207 1.252 . S
C200 O203 1.252 . S
C200 O204 1.260 . S
O201 In195 2.266 . S
O201 C198 1.252 . S
O202 In195 2.326 . S
O202 C198 1.260 . S
O203 In195 2.266 . S
O203 C200 1.252 . S
O204 In195 2.326 . S
O204 C200 1.260 . S
C205 O196 1.240 . S
C205 O197 1.252 . S
O206 In195 2.294 . S
O206 C199 1.240 . S
O207 In195 2.326 . S
O207 C199 1.252 . S
H208 C214 0.930 1_545 S
H209 C218 0.930 1_565 S
H210 C223 0.929 . S
H211 C221 0.929 . S
H212 C216 0.929 . S
H213 C222 0.929 . S
C214 H208 0.930 1_565 S
C214 C215 1.367 . S
C214 C222 1.378 1_565 S
C215 C214 1.367 . S
C215 C223 1.433 . S
C216 H212 0.929 . S
C216 C218 1.378 1_565 S
C216 C220 1.350 1_565 S
C217 C220 1.463 1_665 S
C217 C222 1.350 1_565 S
C217 N225 1.427 . S
C218 H209 0.930 1_545 S
C218 C216 1.378 1_545 S
C218 C219 1.367 . S
C219 C218 1.367 . S
C219 C221 1.433 . S
C220 C216 1.350 1_545 S
C220 C217 1.463 1_445 S
C220 N224 1.427 . S
C221 H211 0.929 . S
C221 C219 1.433 . S
C221 N224 1.384 . S
C222 H213 0.929 . S
C222 C214 1.378 1_545 S
C222 C217 1.350 1_545 S
C223 H210 0.929 . S
C223 C215 1.433 . S
C223 N225 1.384 . S
N224 C220 1.427 . S
N224 C221 1.384 . S
N225 C217 1.427 . S
N225 C223 1.384 . S
H226 C232 0.930 . S
H227 C236 0.930 . S
H228 C241 0.928 . S
H229 C239 0.930 . S
H230 C234 0.929 . S
H231 C240 0.929 . S
C232 H226 0.930 . S
C232 C233 1.367 . S
C232 C240 1.378 . S
C233 C232 1.367 . S
C233 C241 1.434 1_655 S
C234 H230 0.929 . S
C234 C236 1.378 . S
C234 C238 1.350 . S
C235 C238 1.463 1_655 S
C235 C240 1.350 . S
C235 N243 1.427 1_655 S
C236 H227 0.930 . S
C236 C234 1.378 . S
C236 C237 1.367 . S
C237 C236 1.367 . S
C237 C239 1.432 1_455 S
C238 C234 1.350 . S
C238 C235 1.463 1_455 S
C238 N242 1.427 1_455 S
C239 H229 0.930 . S
C239 C237 1.432 1_655 S
C239 N242 1.384 . S
C240 H231 0.929 . S
C240 C232 1.378 . S
C240 C235 1.350 . S
C241 H228 0.928 . S
C241 C233 1.434 1_455 S
C241 N243 1.383 . S
N242 C238 1.427 1_655 S
N242 C239 1.384 . S
N243 C235 1.427 1_455 S
N243 C241 1.383 . S
H244 C250 0.930 . S
H245 C254 0.930 . S
H246 C259 0.929 . S
H247 C257 0.929 . S
H248 C252 0.929 . S
H249 C258 0.929 . S
C250 H244 0.930 . S
C250 C251 1.367 . S
C250 C258 1.378 . S
C251 C250 1.367 . S
C251 C259 1.433 . S
C252 H248 0.929 . S
C252 C254 1.378 . S
C252 C256 1.350 . S
C253 C256 1.463 . S
C253 C258 1.350 . S
C253 N261 1.427 . S
C254 H245 0.930 . S
C254 C252 1.378 . S
C254 C255 1.367 . S
C255 C254 1.367 . S
C255 C257 1.433 . S
C256 C252 1.350 . S
C256 C253 1.463 . S
C256 N260 1.427 . S
C257 H247 0.929 . S
C257 C255 1.433 . S
C257 N260 1.384 . S
C258 H249 0.929 . S
C258 C250 1.378 . S
C258 C253 1.350 . S
C259 H246 0.929 . S
C259 C251 1.433 . S
C259 N261 1.384 . S
N260 C256 1.427 . S
N260 C257 1.384 . S
N261 C253 1.427 . S
N261 C259 1.384 . S
H262 C268 0.930 . S
H263 C272 0.930 . S
H264 C277 0.929 . S
H265 C275 0.929 . S
H266 C270 0.929 . S
H267 C276 0.929 . S
C268 H262 0.930 . S
C268 C269 1.367 . S
C268 C276 1.378 . S
C269 C268 1.367 . S
C269 C277 1.433 . S
C270 H266 0.929 . S
C270 C272 1.378 . S
C270 C274 1.350 . S
C271 C274 1.463 1_545 S
C271 C276 1.350 . S
C271 N279 1.427 . S
C272 H263 0.930 . S
C272 C270 1.378 . S
C272 C273 1.367 . S
C273 C272 1.367 . S
C273 C275 1.433 . S
C274 C270 1.350 . S
C274 C271 1.463 1_565 S
C274 N278 1.427 . S
C275 H265 0.929 . S
C275 C273 1.433 . S
C275 N278 1.384 . S
C276 H267 0.929 . S
C276 C268 1.378 . S
C276 C271 1.350 . S
C277 H264 0.929 . S
C277 C269 1.433 . S
C277 N279 1.384 . S
N278 C274 1.427 . S
N278 C275 1.384 . S
N279 C271 1.427 . S
N279 C277 1.384 . S
H280 C286 0.930 . S
H281 C290 0.930 . S
H282 C295 0.929 . S
H283 C293 0.929 . S
H284 C288 0.929 . S
H285 C294 0.929 . S
C286 H280 0.930 . S
C286 C287 1.367 . S
C286 C294 1.378 . S
C287 C286 1.367 . S
C287 C295 1.433 . S
C288 H284 0.929 . S
C288 C290 1.378 . S
C288 C292 1.350 . S
C289 C292 1.463 1_455 S
C289 C294 1.350 . S
C289 N297 1.427 . S
C290 H281 0.930 . S
C290 C288 1.378 . S
C290 C291 1.367 . S
C291 C290 1.367 . S
C291 C293 1.433 . S
C292 C288 1.350 . S
C292 C289 1.463 1_655 S
C292 N296 1.427 . S
C293 H283 0.929 . S
C293 C291 1.433 . S
C293 N296 1.384 . S
C294 H285 0.929 . S
C294 C286 1.378 . S
C294 C289 1.350 . S
C295 H282 0.929 . S
C295 C287 1.433 . S
C295 N297 1.384 . S
N296 C292 1.427 . S
N296 C293 1.384 . S
N297 C289 1.427 . S
N297 C295 1.384 . S
H298 C304 0.930 . S
H299 C308 0.930 . S
H300 C313 0.929 . S
H301 C311 0.929 . S
H302 C306 0.929 . S
H303 C312 0.929 . S
C304 H298 0.930 . S
C304 C305 1.367 . S
C304 C312 1.378 . S
C305 C304 1.367 . S
C305 C313 1.433 . S
C306 H302 0.929 . S
C306 C308 1.378 . S
C306 C310 1.350 . S
C307 C310 1.463 . S
C307 C312 1.350 . S
C307 N315 1.427 . S
C308 H299 0.930 . S
C308 C306 1.378 . S
C308 C309 1.367 . S
C309 C308 1.367 . S
C309 C311 1.433 . S
C310 C306 1.350 . S
C310 C307 1.463 . S
C310 N314 1.427 . S
C311 H301 0.929 . S
C311 C309 1.433 . S
C311 N314 1.384 . S
C312 H303 0.929 . S
C312 C304 1.378 . S
C312 C307 1.350 . S
C313 H300 0.929 . S
C313 C305 1.433 . S
C313 N315 1.384 . S
N314 C310 1.427 . S
N314 C311 1.384 . S
N315 C307 1.427 . S
N315 C313 1.384 . S
H316 C322 0.930 . S
H317 C326 0.930 . S
H318 C331 0.929 . S
H319 C329 0.929 . S
H320 C324 0.929 . S
H321 C330 0.929 . S
C322 H316 0.930 . S
C322 C323 1.367 . S
C322 C330 1.378 . S
C323 C322 1.367 . S
C323 C331 1.433 . S
C324 H320 0.929 . S
C324 C326 1.378 . S
C324 C328 1.350 . S
C325 C328 1.463 1_545 S
C325 C330 1.350 . S
C325 N333 1.427 . S
C326 H317 0.930 . S
C326 C324 1.378 . S
C326 C327 1.367 . S
C327 C326 1.367 . S
C327 C329 1.433 . S
C328 C324 1.350 . S
C328 C325 1.463 1_565 S
C328 N332 1.427 . S
C329 H319 0.929 . S
C329 C327 1.433 . S
C329 N332 1.384 . S
C330 H321 0.929 . S
C330 C322 1.378 . S
C330 C325 1.350 . S
C331 H318 0.929 . S
C331 C323 1.433 . S
C331 N333 1.384 . S
N332 C328 1.427 . S
N332 C329 1.384 . S
N333 C325 1.427 . S
N333 C331 1.384 . S
H334 C340 0.930 . S
H335 C344 0.930 . S
H336 C349 0.929 . S
H337 C347 0.929 . S
H338 C342 0.929 . S
H339 C348 0.929 . S
C340 H334 0.930 . S
C340 C341 1.367 . S
C340 C348 1.378 . S
C341 C340 1.367 . S
C341 C349 1.433 . S
C342 H338 0.929 . S
C342 C344 1.378 . S
C342 C346 1.350 . S
C343 C346 1.463 1_445 S
C343 C348 1.350 . S
C343 N351 1.427 . S
C344 H335 0.930 . S
C344 C342 1.378 . S
C344 C345 1.367 . S
C345 C344 1.367 . S
C345 C347 1.433 . S
C346 C342 1.350 . S
C346 C343 1.463 1_665 S
C346 N350 1.427 . S
C347 H337 0.929 . S
C347 C345 1.433 . S
C347 N350 1.384 . S
C348 H339 0.929 . S
C348 C340 1.378 . S
C348 C343 1.350 . S
C349 H336 0.929 . S
C349 C341 1.433 . S
C349 N351 1.384 . S
N350 C346 1.427 . S
N350 C347 1.384 . S
N351 C343 1.427 . S
N351 C349 1.384 . S
H352 C358 0.930 . S
H353 C362 0.930 . S
H354 C367 0.929 1_545 S
H355 C365 0.929 1_565 S
H356 C360 0.929 . S
H357 C366 0.929 . S
C358 H352 0.930 . S
C358 C359 1.367 . S
C358 C366 1.378 . S
C359 C358 1.367 . S
C359 C367 1.433 . S
C360 H356 0.929 . S
C360 C362 1.378 . S
C360 C364 1.350 . S
C361 C364 1.463 1_565 S
C361 C366 1.350 . S
C361 N369 1.427 1_565 S
C362 H353 0.930 . S
C362 C360 1.378 . S
C362 C363 1.367 . S
C363 C362 1.367 . S
C363 C365 1.433 . S
C364 C360 1.350 . S
C364 C361 1.463 1_545 S
C364 N368 1.427 1_545 S
C365 H355 0.929 1_545 S
C365 C363 1.433 . S
C365 N368 1.384 1_545 S
C366 H357 0.929 . S
C366 C358 1.378 . S
C366 C361 1.350 . S
C367 H354 0.929 1_565 S
C367 C359 1.433 . S
C367 N369 1.384 1_565 S
N368 C364 1.427 1_565 S
N368 C365 1.384 1_565 S
N369 C361 1.427 1_545 S
N369 C367 1.384 1_545 S
H370 C376 0.930 . S
H371 C380 0.930 . S
H372 C385 0.929 . S
H373 C383 0.929 . S
H374 C378 0.929 . S
H375 C384 0.929 . S
C376 H370 0.930 . S
C376 C377 1.367 . S
C376 C384 1.378 1_655 S
C377 C376 1.367 . S
C377 C385 1.433 . S
C378 H374 0.929 . S
C378 C380 1.378 1_655 S
C378 C382 1.350 1_655 S
C379 C382 1.463 1_665 S
C379 C384 1.350 1_655 S
C379 N387 1.427 . S
C380 H371 0.930 . S
C380 C378 1.378 1_455 S
C380 C381 1.367 . S
C381 C380 1.367 . S
C381 C383 1.433 . S
C382 C378 1.350 1_455 S
C382 C379 1.463 1_445 S
C382 N386 1.427 . S
C383 H373 0.929 . S
C383 C381 1.433 . S
C383 N386 1.384 . S
C384 H375 0.929 . S
C384 C376 1.378 1_455 S
C384 C379 1.350 1_455 S
C385 H372 0.929 . S
C385 C377 1.433 . S
C385 N387 1.384 . S
N386 C382 1.427 . S
N386 C383 1.384 . S
N387 C379 1.427 . S
N387 C385 1.384 . S
H388 C394 0.930 . S
H389 C398 0.930 . S
H390 C403 0.929 . S
H391 C401 0.929 . S
H392 C396 0.929 . S
H393 C402 0.929 . S
C394 H388 0.930 . S
C394 C395 1.367 . S
C394 C402 1.378 . S
C395 C394 1.367 . S
C395 C403 1.433 . S
C396 H392 0.929 . S
C396 C398 1.378 . S
C396 C400 1.350 . S
C397 C400 1.463 1_455 S
C397 C402 1.350 . S
C397 N405 1.427 . S
C398 H389 0.930 . S
C398 C396 1.378 . S
C398 C399 1.367 . S
C399 C398 1.367 . S
C399 C401 1.433 . S
C400 C396 1.350 . S
C400 C397 1.463 1_655 S
C400 N404 1.427 . S
C401 H391 0.929 . S
C401 C399 1.433 . S
C401 N404 1.384 . S
C402 H393 0.929 . S
C402 C394 1.378 . S
C402 C397 1.350 . S
C403 H390 0.929 . S
C403 C395 1.433 . S
C403 N405 1.384 . S
N404 C400 1.427 . S
N404 C401 1.384 . S
N405 C397 1.427 . S
N405 C403 1.384 . S
H406 C412 0.930 . S
H407 C416 0.930 . S
H408 C421 0.929 . S
H409 C419 0.929 . S
H410 C414 0.929 . S
H411 C420 0.929 . S
C412 H406 0.930 . S
C412 C413 1.367 . S
C412 C420 1.378 . S
C413 C412 1.367 . S
C413 C421 1.433 . S
C414 H410 0.929 . S
C414 C416 1.378 . S
C414 C418 1.350 . S
C415 C418 1.463 . S
C415 C420 1.350 . S
C415 N423 1.427 . S
C416 H407 0.930 . S
C416 C414 1.378 . S
C416 C417 1.367 . S
C417 C416 1.367 . S
C417 C419 1.433 . S
C418 C414 1.350 . S
C418 C415 1.463 . S
C418 N422 1.427 . S
C419 H409 0.929 . S
C419 C417 1.433 . S
C419 N422 1.384 . S
C420 H411 0.929 . S
C420 C412 1.378 . S
C420 C415 1.350 . S
C421 H408 0.929 . S
C421 C413 1.433 . S
C421 N423 1.384 . S
N422 C418 1.427 . S
N422 C419 1.384 . S
N423 C415 1.427 . S
N423 C421 1.384 . S
H424 C430 0.930 . S
H425 C434 0.930 . S
H426 C439 0.929 . S
H427 C437 0.929 . S
H428 C432 0.929 . S
H429 C438 0.929 . S
C430 H424 0.930 . S
C430 C431 1.367 . S
C430 C438 1.378 . S
C431 C430 1.367 . S
C431 C439 1.433 . S
C432 H428 0.929 . S
C432 C434 1.378 . S
C432 C436 1.350 . S
C433 C436 1.463 . S
C433 C438 1.350 . S
C433 N441 1.427 . S
C434 H425 0.930 . S
C434 C432 1.378 . S
C434 C435 1.367 . S
C435 C434 1.367 . S
C435 C437 1.433 . S
C436 C432 1.350 . S
C436 C433 1.463 . S
C436 N440 1.427 . S
C437 H427 0.929 . S
C437 C435 1.433 . S
C437 N440 1.384 . S
C438 H429 0.929 . S
C438 C430 1.378 . S
C438 C433 1.350 . S
C439 H426 0.929 . S
C439 C431 1.433 . S
C439 N441 1.384 . S
N440 C436 1.427 . S
N440 C437 1.384 . S
N441 C433 1.427 . S
N441 C439 1.384 . S
H442 C448 0.930 . S
H443 C452 0.930 . S
H444 C457 0.929 . S
H445 C455 0.929 . S
H446 C450 0.929 . S
H447 C456 0.929 . S
C448 H442 0.930 . S
C448 C449 1.367 . S
C448 C456 1.378 . S
C449 C448 1.367 . S
C449 C457 1.433 . S
C450 H446 0.929 . S
C450 C452 1.378 . S
C450 C454 1.350 . S
C451 C454 1.463 1_565 S
C451 C456 1.350 . S
C451 N459 1.427 . S
C452 H443 0.930 . S
C452 C450 1.378 . S
C452 C453 1.367 . S
C453 C452 1.367 . S
C453 C455 1.433 . S
C454 C450 1.350 . S
C454 C451 1.463 1_545 S
C454 N458 1.427 . S
C455 H445 0.929 . S
C455 C453 1.433 . S
C455 N458 1.384 . S
C456 H447 0.929 . S
C456 C448 1.378 . S
C456 C451 1.350 . S
C457 H444 0.929 . S
C457 C449 1.433 . S
C457 N459 1.384 . S
N458 C454 1.427 . S
N458 C455 1.384 . S
N459 C451 1.427 . S
N459 C457 1.384 . S
H460 C466 0.930 . S
H461 C470 0.930 . S
H462 C475 0.929 . S
H463 C473 0.929 . S
H464 C468 0.929 . S
H465 C474 0.929 . S
C466 H460 0.930 . S
C466 C467 1.367 . S
C466 C474 1.378 . S
C467 C466 1.367 . S
C467 C475 1.433 1_565 S
C468 H464 0.929 . S
C468 C470 1.378 . S
C468 C472 1.350 . S
C469 C472 1.463 1_665 S
C469 C474 1.350 . S
C469 N477 1.427 1_565 S
C470 H461 0.930 . S
C470 C468 1.378 . S
C470 C471 1.367 . S
C471 C470 1.367 . S
C471 C473 1.433 1_545 S
C472 C468 1.350 . S
C472 C469 1.463 1_445 S
C472 N476 1.427 1_545 S
C473 H463 0.929 . S
C473 C471 1.433 1_565 S
C473 N476 1.384 . S
C474 H465 0.929 . S
C474 C466 1.378 . S
C474 C469 1.350 . S
C475 H462 0.929 . S
C475 C467 1.433 1_545 S
C475 N477 1.384 . S
N476 C472 1.427 1_565 S
N476 C473 1.384 . S
N477 C469 1.427 1_545 S
N477 C475 1.384 . S
H478 C484 0.930 . S
H479 C488 0.930 . S
H480 C493 0.929 1_655 S
H481 C491 0.929 1_455 S
H482 C486 0.929 . S
H483 C492 0.929 . S
C484 H478 0.930 . S
C484 C485 1.367 . S
C484 C492 1.378 . S
C485 C484 1.367 . S
C485 C493 1.433 . S
C486 H482 0.929 . S
C486 C488 1.378 . S
C486 C490 1.350 . S
C487 C490 1.463 1_455 S
C487 C492 1.350 . S
C487 N495 1.427 1_455 S
C488 H479 0.930 . S
C488 C486 1.378 . S
C488 C489 1.367 . S
C489 C488 1.367 . S
C489 C491 1.433 . S
C490 C486 1.350 . S
C490 C487 1.463 1_655 S
C490 N494 1.427 1_655 S
C491 H481 0.929 1_655 S
C491 C489 1.433 . S
C491 N494 1.384 1_655 S
C492 H483 0.929 . S
C492 C484 1.378 . S
C492 C487 1.350 . S
C493 H480 0.929 1_455 S
C493 C485 1.433 . S
C493 N495 1.384 1_455 S
N494 C490 1.427 1_455 S
N494 C491 1.384 1_455 S
N495 C487 1.427 1_655 S
N495 C493 1.384 1_655 S
H496 C502 0.930 . S
H497 C506 0.930 . S
H498 C511 0.929 . S
H499 C509 0.929 . S
H500 C504 0.929 . S
H501 C510 0.929 . S
C502 H496 0.930 . S
C502 C503 1.367 . S
C502 C510 1.378 . S
C503 C502 1.367 . S
C503 C511 1.433 . S
C504 H500 0.929 . S
C504 C506 1.378 . S
C504 C508 1.350 . S
C505 C508 1.463 . S
C505 C510 1.350 . S
C505 N513 1.427 . S
C506 H497 0.930 . S
C506 C504 1.378 . S
C506 C507 1.367 . S
C507 C506 1.367 . S
C507 C509 1.433 . S
C508 C504 1.350 . S
C508 C505 1.463 . S
C508 N512 1.427 . S
C509 H499 0.929 . S
C509 C507 1.433 . S
C509 N512 1.384 . S
C510 H501 0.929 . S
C510 C502 1.378 . S
C510 C505 1.350 . S
C511 H498 0.929 . S
C511 C503 1.433 . S
C511 N513 1.384 . S
N512 C508 1.427 . S
N512 C509 1.384 . S
N513 C505 1.427 . S
N513 C511 1.384 . S
H514 C520 0.930 . S
H515 C524 0.930 . S
H516 C529 0.929 . S
H517 C527 0.929 . S
H518 C522 0.929 . S
H519 C528 0.929 . S
C520 H514 0.930 . S
C520 C521 1.367 . S
C520 C528 1.378 . S
C521 C520 1.367 . S
C521 C529 1.433 . S
C522 H518 0.929 . S
C522 C524 1.378 . S
C522 C526 1.350 . S
C523 C526 1.463 . S
C523 C528 1.350 . S
C523 N531 1.427 . S
C524 H515 0.930 . S
C524 C522 1.378 . S
C524 C525 1.367 . S
C525 C524 1.367 . S
C525 C527 1.433 . S
C526 C522 1.350 . S
C526 C523 1.463 . S
C526 N530 1.427 . S
C527 H517 0.929 . S
C527 C525 1.433 . S
C527 N530 1.384 . S
C528 H519 0.929 . S
C528 C520 1.378 . S
C528 C523 1.350 . S
C529 H516 0.929 . S
C529 C521 1.433 . S
C529 N531 1.384 . S
N530 C526 1.427 . S
N530 C527 1.384 . S
N531 C523 1.427 . S
N531 C529 1.384 . S
H532 C538 0.930 . S
H533 C542 0.930 . S
H534 C547 0.929 . S
H535 C545 0.929 . S
H536 C540 0.929 . S
H537 C546 0.929 . S
C538 H532 0.930 . S
C538 C539 1.367 . S
C538 C546 1.378 . S
C539 C538 1.367 . S
C539 C547 1.433 . S
C540 H536 0.929 . S
C540 C542 1.378 . S
C540 C544 1.350 . S
C541 C544 1.463 . S
C541 C546 1.350 . S
C541 N549 1.427 . S
C542 H533 0.930 . S
C542 C540 1.378 . S
C542 C543 1.367 . S
C543 C542 1.367 . S
C543 C545 1.433 . S
C544 C540 1.350 . S
C544 C541 1.463 . S
C544 N548 1.427 . S
C545 H535 0.929 . S
C545 C543 1.433 . S
C545 N548 1.384 . S
C546 H537 0.929 . S
C546 C538 1.378 . S
C546 C541 1.350 . S
C547 H534 0.929 . S
C547 C539 1.433 . S
C547 N549 1.384 . S
N548 C544 1.427 . S
N548 C545 1.384 . S
N549 C541 1.427 . S
N549 C547 1.384 . S
H550 C556 0.930 . S
H551 C560 0.930 . S
H552 C565 0.929 . S
H553 C563 0.929 . S
H554 C558 0.929 . S
H555 C564 0.929 . S
C556 H550 0.930 . S
C556 C557 1.367 . S
C556 C564 1.378 . S
C557 C556 1.367 . S
C557 C565 1.433 . S
C558 H554 0.929 . S
C558 C560 1.378 . S
C558 C562 1.350 . S
C559 C562 1.463 . S
C559 C564 1.350 . S
C559 N567 1.427 . S
C560 H551 0.930 . S
C560 C558 1.378 . S
C560 C561 1.367 . S
C561 C560 1.367 . S
C561 C563 1.433 . S
C562 C558 1.350 . S
C562 C559 1.463 . S
C562 N566 1.427 . S
C563 H553 0.929 . S
C563 C561 1.433 . S
C563 N566 1.384 . S
C564 H555 0.929 . S
C564 C556 1.378 . S
C564 C559 1.350 . S
C565 H552 0.929 . S
C565 C557 1.433 . S
C565 N567 1.384 . S
N566 C562 1.427 . S
N566 C563 1.384 . S
N567 C559 1.427 . S
N567 C565 1.384 . S
H568 C574 0.930 . S
H569 C578 0.930 . S
H570 C583 0.929 . S
H571 C581 0.929 . S
H572 C576 0.929 . S
H573 C582 0.929 . S
C574 H568 0.930 . S
C574 C575 1.367 . S
C574 C582 1.378 . S
C575 C574 1.367 . S
C575 C583 1.433 . S
C576 H572 0.929 . S
C576 C578 1.378 . S
C576 C580 1.350 . S
C577 C580 1.463 . S
C577 C582 1.350 . S
C577 N585 1.427 . S
C578 H569 0.930 . S
C578 C576 1.378 . S
C578 C579 1.367 . S
C579 C578 1.367 . S
C579 C581 1.433 . S
C580 C576 1.350 . S
C580 C577 1.463 . S
C580 N584 1.427 . S
C581 H571 0.929 . S
C581 C579 1.433 . S
C581 N584 1.384 . S
C582 H573 0.929 . S
C582 C574 1.378 . S
C582 C577 1.350 . S
C583 H570 0.929 . S
C583 C575 1.433 . S
C583 N585 1.384 . S
N584 C580 1.427 . S
N584 C581 1.384 . S
N585 C577 1.427 . S
N585 C583 1.384 . S
H586 C592 0.930 . S
H587 C596 0.930 . S
H588 C601 0.929 . S
H589 C599 0.929 . S
H590 C594 0.929 . S
H591 C600 0.929 . S
C592 H586 0.930 . S
C592 C593 1.367 . S
C592 C600 1.378 . S
C593 C592 1.367 . S
C593 C601 1.433 . S
C594 H590 0.929 . S
C594 C596 1.378 . S
C594 C598 1.350 . S
C595 C598 1.463 . S
C595 C600 1.350 . S
C595 N603 1.427 . S
C596 H587 0.930 . S
C596 C594 1.378 . S
C596 C597 1.367 . S
C597 C596 1.367 . S
C597 C599 1.433 . S
C598 C594 1.350 . S
C598 C595 1.463 . S
C598 N602 1.427 . S
C599 H589 0.929 . S
C599 C597 1.433 . S
C599 N602 1.384 . S
C600 H591 0.929 . S
C600 C592 1.378 . S
C600 C595 1.350 . S
C601 H588 0.929 . S
C601 C593 1.433 . S
C601 N603 1.384 . S
N602 C598 1.427 . S
N602 C599 1.384 . S
N603 C595 1.427 . S
N603 C601 1.384 . S
H604 C610 0.930 . S
H605 C614 0.930 . S
H606 C619 0.929 . S
H607 C617 0.929 . S
H608 C612 0.929 . S
H609 C618 0.929 . S
C610 H604 0.930 . S
C610 C611 1.367 . S
C610 C618 1.378 . S
C611 C610 1.367 . S
C611 C619 1.433 . S
C612 H608 0.929 . S
C612 C614 1.378 . S
C612 C616 1.350 . S
C613 C616 1.463 . S
C613 C618 1.350 . S
C613 N621 1.427 . S
C614 H605 0.930 . S
C614 C612 1.378 . S
C614 C615 1.367 . S
C615 C614 1.367 . S
C615 C617 1.433 . S
C616 C612 1.350 . S
C616 C613 1.463 . S
C616 N620 1.427 . S
C617 H607 0.929 . S
C617 C615 1.433 . S
C617 N620 1.384 . S
C618 H609 0.929 . S
C618 C610 1.378 . S
C618 C613 1.350 . S
C619 H606 0.929 . S
C619 C611 1.433 . S
C619 N621 1.384 . S
N620 C616 1.427 . S
N620 C617 1.384 . S
N621 C613 1.427 . S
N621 C619 1.384 . S
H622 C628 0.930 . S
H623 C632 0.930 . S
H624 C637 0.929 . S
H625 C635 0.929 . S
H626 C630 0.929 . S
H627 C636 0.929 . S
C628 H622 0.930 . S
C628 C629 1.367 . S
C628 C636 1.378 . S
C629 C628 1.367 . S
C629 C637 1.433 . S
C630 H626 0.929 . S
C630 C632 1.378 . S
C630 C634 1.350 . S
C631 C634 1.463 . S
C631 C636 1.350 . S
C631 N639 1.427 . S
C632 H623 0.930 . S
C632 C630 1.378 . S
C632 C633 1.367 . S
C633 C632 1.367 . S
C633 C635 1.433 . S
C634 C630 1.350 . S
C634 C631 1.463 . S
C634 N638 1.427 . S
C635 H625 0.929 . S
C635 C633 1.433 . S
C635 N638 1.384 . S
C636 H627 0.929 . S
C636 C628 1.378 . S
C636 C631 1.350 . S
C637 H624 0.929 . S
C637 C629 1.433 . S
C637 N639 1.384 . S
N638 C634 1.427 . S
N638 C635 1.384 . S
N639 C631 1.427 . S
N639 C637 1.384 . S
H640 C646 0.930 . S
H641 C650 0.930 . S
H642 C655 0.929 . S
H643 C653 0.929 . S
H644 C648 0.929 . S
H645 C654 0.929 . S
C646 H640 0.930 . S
C646 C647 1.367 . S
C646 C654 1.378 . S
C647 C646 1.367 . S
C647 C655 1.433 . S
C648 H644 0.929 . S
C648 C650 1.378 . S
C648 C652 1.350 . S
C649 C652 1.463 . S
C649 C654 1.350 . S
C649 N657 1.427 . S
C650 H641 0.930 . S
C650 C648 1.378 . S
C650 C651 1.367 . S
C651 C650 1.367 . S
C651 C653 1.433 . S
C652 C648 1.350 . S
C652 C649 1.463 . S
C652 N656 1.427 . S
C653 H643 0.929 . S
C653 C651 1.433 . S
C653 N656 1.384 . S
C654 H645 0.929 . S
C654 C646 1.378 . S
C654 C649 1.350 . S
C655 H642 0.929 . S
C655 C647 1.433 . S
C655 N657 1.384 . S
N656 C652 1.427 . S
N656 C653 1.384 . S
N657 C649 1.427 . S
N657 C655 1.384 . S
H658 C664 0.930 . S
H659 C668 0.930 . S
H660 C673 0.929 . S
H661 C671 0.929 . S
H662 C666 0.929 . S
H663 C672 0.929 . S
C664 H658 0.930 . S
C664 C665 1.367 . S
C664 C672 1.378 . S
C665 C664 1.367 . S
C665 C673 1.433 . S
C666 H662 0.929 . S
C666 C668 1.378 . S
C666 C670 1.350 . S
C667 C670 1.463 . S
C667 C672 1.350 . S
C667 N675 1.427 . S
C668 H659 0.930 . S
C668 C666 1.378 . S
C668 C669 1.367 . S
C669 C668 1.367 . S
C669 C671 1.433 . S
C670 C666 1.350 . S
C670 C667 1.463 . S
C670 N674 1.427 . S
C671 H661 0.929 . S
C671 C669 1.433 . S
C671 N674 1.384 . S
C672 H663 0.929 . S
C672 C664 1.378 . S
C672 C667 1.350 . S
C673 H660 0.929 . S
C673 C665 1.433 . S
C673 N675 1.384 . S
N674 C670 1.427 . S
N674 C671 1.384 . S
N675 C667 1.427 . S
N675 C673 1.384 . S
H676 C682 0.930 . S
H677 C686 0.930 . S
H678 C691 0.929 . S
H679 C689 0.929 . S
H680 C684 0.929 . S
H681 C690 0.929 . S
C682 H676 0.930 . S
C682 C683 1.367 . S
C682 C690 1.378 . S
C683 C682 1.367 . S
C683 C691 1.433 . S
C684 H680 0.929 . S
C684 C686 1.378 . S
C684 C688 1.350 . S
C685 C688 1.463 . S
C685 C690 1.350 . S
C685 N693 1.427 . S
C686 H677 0.930 . S
C686 C684 1.378 . S
C686 C687 1.367 . S
C687 C686 1.367 . S
C687 C689 1.433 . S
C688 C684 1.350 . S
C688 C685 1.463 . S
C688 N692 1.427 . S
C689 H679 0.929 . S
C689 C687 1.433 . S
C689 N692 1.384 . S
C690 H681 0.929 . S
C690 C682 1.378 . S
C690 C685 1.350 . S
C691 H678 0.929 . S
C691 C683 1.433 . S
C691 N693 1.384 . S
N692 C688 1.427 . S
N692 C689 1.384 . S
N693 C685 1.427 . S
N693 C691 1.384 . S
H694 C700 0.930 . S
H695 C704 0.930 . S
H696 C709 0.929 . S
H697 C707 0.929 . S
H698 C702 0.929 . S
H699 C708 0.929 . S
C700 H694 0.930 . S
C700 C701 1.367 . S
C700 C708 1.378 . S
C701 C700 1.367 . S
C701 C709 1.433 . S
C702 H698 0.929 . S
C702 C704 1.378 . S
C702 C706 1.350 . S
C703 C706 1.463 1_556 S
C703 C708 1.350 . S
C703 N711 1.427 . S
C704 H695 0.930 . S
C704 C702 1.378 . S
C704 C705 1.367 . S
C705 C704 1.367 . S
C705 C707 1.433 . S
C706 C702 1.350 . S
C706 C703 1.463 1_554 S
C706 N710 1.427 . S
C707 H697 0.929 . S
C707 C705 1.433 . S
C707 N710 1.384 . S
C708 H699 0.929 . S
C708 C700 1.378 . S
C708 C703 1.350 . S
C709 H696 0.929 . S
C709 C701 1.433 . S
C709 N711 1.384 . S
N710 C706 1.427 . S
N710 C707 1.384 . S
N711 C703 1.427 . S
N711 C709 1.384 . S
H712 C718 0.930 . S
H713 C722 0.930 . S
H714 C727 0.929 . S
H715 C725 0.929 . S
H716 C720 0.929 . S
H717 C726 0.929 . S
C718 H712 0.930 . S
C718 C719 1.367 . S
C718 C726 1.378 . S
C719 C718 1.367 . S
C719 C727 1.433 . S
C720 H716 0.929 . S
C720 C722 1.378 . S
C720 C724 1.350 . S
C721 C724 1.463 1_554 S
C721 C726 1.350 . S
C721 N729 1.427 . S
C722 H713 0.930 . S
C722 C720 1.378 . S
C722 C723 1.367 . S
C723 C722 1.367 . S
C723 C725 1.433 . S
C724 C720 1.350 . S
C724 C721 1.463 1_556 S
C724 N728 1.427 . S
C725 H715 0.929 . S
C725 C723 1.433 . S
C725 N728 1.384 . S
C726 H717 0.929 . S
C726 C718 1.378 . S
C726 C721 1.350 . S
C727 H714 0.929 . S
C727 C719 1.433 . S
C727 N729 1.384 . S
N728 C724 1.427 . S
N728 C725 1.384 . S
N729 C721 1.427 . S
N729 C727 1.384 . S
H730 C736 0.930 . S
H731 C740 0.930 . S
H732 C745 0.929 . S
H733 C743 0.929 . S
H734 C738 0.929 . S
H735 C744 0.929 . S
C736 H730 0.930 . S
C736 C737 1.367 . S
C736 C744 1.378 . S
C737 C736 1.367 . S
C737 C745 1.433 . S
C738 H734 0.929 . S
C738 C740 1.378 . S
C738 C742 1.350 . S
C739 C742 1.463 . S
C739 C744 1.350 . S
C739 N747 1.427 . S
C740 H731 0.930 . S
C740 C738 1.378 . S
C740 C741 1.367 . S
C741 C740 1.367 . S
C741 C743 1.433 . S
C742 C738 1.350 . S
C742 C739 1.463 . S
C742 N746 1.427 . S
C743 H733 0.929 . S
C743 C741 1.433 . S
C743 N746 1.384 . S
C744 H735 0.929 . S
C744 C736 1.378 . S
C744 C739 1.350 . S
C745 H732 0.929 . S
C745 C737 1.433 . S
C745 N747 1.384 . S
N746 C742 1.427 . S
N746 C743 1.384 . S
N747 C739 1.427 . S
N747 C745 1.384 . S
H748 C754 0.930 . S
H749 C758 0.930 . S
H750 C763 0.929 . S
H751 C761 0.929 . S
H752 C756 0.929 . S
H753 C762 0.929 . S
C754 H748 0.930 . S
C754 C755 1.367 . S
C754 C762 1.378 . S
C755 C754 1.367 . S
C755 C763 1.433 . S
C756 H752 0.929 . S
C756 C758 1.378 . S
C756 C760 1.350 . S
C757 C760 1.463 . S
C757 C762 1.350 . S
C757 N765 1.427 . S
C758 H749 0.930 . S
C758 C756 1.378 . S
C758 C759 1.367 . S
C759 C758 1.367 . S
C759 C761 1.433 . S
C760 C756 1.350 . S
C760 C757 1.463 . S
C760 N764 1.427 . S
C761 H751 0.929 . S
C761 C759 1.433 . S
C761 N764 1.384 . S
C762 H753 0.929 . S
C762 C754 1.378 . S
C762 C757 1.350 . S
C763 H750 0.929 . S
C763 C755 1.433 . S
C763 N765 1.384 . S
N764 C760 1.427 . S
N764 C761 1.384 . S
N765 C757 1.427 . S
N765 C763 1.384 . S
H766 C772 0.930 . S
H767 C776 0.930 . S
H768 C781 0.929 . S
H769 C779 0.929 . S
H770 C774 0.929 . S
H771 C780 0.929 . S
C772 H766 0.930 . S
C772 C773 1.367 . S
C772 C780 1.378 . S
C773 C772 1.367 . S
C773 C781 1.433 . S
C774 H770 0.929 . S
C774 C776 1.378 . S
C774 C778 1.350 . S
C775 C778 1.463 . S
C775 C780 1.350 . S
C775 N783 1.427 . S
C776 H767 0.930 . S
C776 C774 1.378 . S
C776 C777 1.367 . S
C777 C776 1.367 . S
C777 C779 1.433 . S
C778 C774 1.350 . S
C778 C775 1.463 . S
C778 N782 1.427 . S
C779 H769 0.929 . S
C779 C777 1.433 . S
C779 N782 1.384 . S
C780 H771 0.929 . S
C780 C772 1.378 . S
C780 C775 1.350 . S
C781 H768 0.929 . S
C781 C773 1.433 . S
C781 N783 1.384 . S
N782 C778 1.427 . S
N782 C779 1.384 . S
N783 C775 1.427 . S
N783 C781 1.384 . S
C215 C134 1.733 . S
C219 C4 1.735 . S
C233 C17 1.735 . S
C237 C153 1.735 . S
C251 C108 1.735 . S
C255 C36 1.735 . S
C269 C121 1.735 . S
C273 C43 1.735 . S
C287 C56 1.734 . S
C291 C186 1.735 . S
C305 C199 1.734 . S
C309 C69 1.736 . S
C323 C82 1.734 . S
C327 C166 1.735 . S
C341 C173 1.736 . S
C345 C95 1.734 . S
C359 C135 1.282 . S
C363 C5 1.281 . S
C377 C18 1.282 . S
C381 C146 1.284 . S
C395 C29 1.283 . S
C399 C109 1.284 . S
C413 C44 1.281 . S
C417 C122 1.284 . S
C431 C57 1.283 . S
C435 C187 1.281 . S
C449 C70 1.282 . S
C453 C200 1.284 . S
C467 C159 1.282 . S
C471 C83 1.282 . S
C485 C174 1.283 . S
C489 C96 1.281 . S
C503 C10 1.372 . S
C507 C88 1.380 . S
C521 C23 1.378 . S
C525 C101 1.381 . S
C539 C30 1.373 . S
C543 C62 1.377 . S
C557 C49 1.375 . S
C561 C75 1.375 . S
C575 C114 1.382 . S
C579 C192 1.375 . S
C593 C205 1.372 . S
C597 C127 1.379 . S
C611 C140 1.373 . S
C615 C160 1.381 . S
C629 C179 1.379 . S
C633 C147 1.372 . S
C647 C3 1.297 . S
C651 C198 1.293 . S
C665 C161 1.294 . S
C669 C16 1.297 . S
C683 C172 1.297 . S
C687 C31 1.290 . S
C701 C185 1.288 . S
C705 C42 1.296 . S
C719 C120 1.296 . S
C723 C55 1.288 . S
C737 C133 1.288 . S
C741 C68 1.289 . S
C755 C81 1.296 . S
C759 C148 1.295 . S
C773 C94 1.291 . S
C777 C107 1.286 . S
