# Generated by pormake.
# Topology fnl, (5)-cn, num edge types: 1
# Building blocks:
#     Node 0, Type 0, BuildingBlock: XOMCOT_clean_sbu_1, # of connection points: 5
#     Node 1, Type 0, BuildingBlock: XOMCOT_clean_sbu_1, # of connection points: 5
#     Node 2, Type 0, BuildingBlock: XOMCOT_clean_sbu_1, # of connection points: 5
#     Node 3, Type 0, BuildingBlock: XOMCOT_clean_sbu_1, # of connection points: 5
#     Node 4, Type 0, BuildingBlock: XOMCOT_clean_sbu_1, # of connection points: 5
#     Node 5, Type 0, BuildingBlock: XOMCOT_clean_sbu_1, # of connection points: 5
#     Node 6, Type 0, BuildingBlock: XOMCOT_clean_sbu_1, # of connection points: 5
#     Node 7, Type 0, BuildingBlock: XOMCOT_clean_sbu_1, # of connection points: 5
#     Node 8, Type 0, BuildingBlock: XOMCOT_clean_sbu_1, # of connection points: 5
#     Node 9, Type 0, BuildingBlock: XOMCOT_clean_sbu_1, # of connection points: 5
#     Node 10, Type 0, BuildingBlock: XOMCOT_clean_sbu_1, # of connection points: 5
#     Node 11, Type 0, BuildingBlock: XOMCOT_clean_sbu_1, # of connection points: 5
#     Node 12, Type 0, BuildingBlock: XOMCOT_clean_sbu_1, # of connection points: 5
#     Node 13, Type 0, BuildingBlock: XOMCOT_clean_sbu_1, # of connection points: 5
#     Node 14, Type 0, BuildingBlock: XOMCOT_clean_sbu_1, # of connection points: 5
#     Node 15, Type 0, BuildingBlock: XOMCOT_clean_sbu_1, # of connection points: 5
#     Edge 16, Type (0, 0), BuildingBlock: XUDNAN_clean_linker_2, # of connection points: 2
#     Edge 17, Type (0, 0), BuildingBlock: XUDNAN_clean_linker_2, # of connection points: 2
#     Edge 18, Type (0, 0), BuildingBlock: XUDNAN_clean_linker_2, # of connection points: 2
#     Edge 19, Type (0, 0), BuildingBlock: XUDNAN_clean_linker_2, # of connection points: 2
#     Edge 20, Type (0, 0), BuildingBlock: XUDNAN_clean_linker_2, # of connection points: 2
#     Edge 21, Type (0, 0), BuildingBlock: XUDNAN_clean_linker_2, # of connection points: 2
#     Edge 22, Type (0, 0), BuildingBlock: XUDNAN_clean_linker_2, # of connection points: 2
#     Edge 23, Type (0, 0), BuildingBlock: XUDNAN_clean_linker_2, # of connection points: 2
#     Edge 24, Type (0, 0), BuildingBlock: XUDNAN_clean_linker_2, # of connection points: 2
#     Edge 25, Type (0, 0), BuildingBlock: XUDNAN_clean_linker_2, # of connection points: 2
#     Edge 26, Type (0, 0), BuildingBlock: XUDNAN_clean_linker_2, # of connection points: 2
#     Edge 27, Type (0, 0), BuildingBlock: XUDNAN_clean_linker_2, # of connection points: 2
#     Edge 28, Type (0, 0), BuildingBlock: XUDNAN_clean_linker_2, # of connection points: 2
#     Edge 29, Type (0, 0), BuildingBlock: XUDNAN_clean_linker_2, # of connection points: 2
#     Edge 30, Type (0, 0), BuildingBlock: XUDNAN_clean_linker_2, # of connection points: 2
#     Edge 31, Type (0, 0), BuildingBlock: XUDNAN_clean_linker_2, # of connection points: 2
#     Edge 32, Type (0, 0), BuildingBlock: XUDNAN_clean_linker_2, # of connection points: 2
#     Edge 33, Type (0, 0), BuildingBlock: XUDNAN_clean_linker_2, # of connection points: 2
#     Edge 34, Type (0, 0), BuildingBlock: XUDNAN_clean_linker_2, # of connection points: 2
#     Edge 35, Type (0, 0), BuildingBlock: XUDNAN_clean_linker_2, # of connection points: 2
#     Edge 36, Type (0, 0), BuildingBlock: XUDNAN_clean_linker_2, # of connection points: 2
#     Edge 37, Type (0, 0), BuildingBlock: XUDNAN_clean_linker_2, # of connection points: 2
#     Edge 38, Type (0, 0), BuildingBlock: XUDNAN_clean_linker_2, # of connection points: 2
#     Edge 39, Type (0, 0), BuildingBlock: XUDNAN_clean_linker_2, # of connection points: 2
#     Edge 40, Type (0, 0), BuildingBlock: XUDNAN_clean_linker_2, # of connection points: 2
#     Edge 41, Type (0, 0), BuildingBlock: XUDNAN_clean_linker_2, # of connection points: 2
#     Edge 42, Type (0, 0), BuildingBlock: XUDNAN_clean_linker_2, # of connection points: 2
#     Edge 43, Type (0, 0), BuildingBlock: XUDNAN_clean_linker_2, # of connection points: 2
#     Edge 44, Type (0, 0), BuildingBlock: XUDNAN_clean_linker_2, # of connection points: 2
#     Edge 45, Type (0, 0), BuildingBlock: XUDNAN_clean_linker_2, # of connection points: 2
#     Edge 46, Type (0, 0), BuildingBlock: XUDNAN_clean_linker_2, # of connection points: 2
#     Edge 47, Type (0, 0), BuildingBlock: XUDNAN_clean_linker_2, # of connection points: 2
#     Edge 48, Type (0, 0), BuildingBlock: XUDNAN_clean_linker_2, # of connection points: 2
#     Edge 49, Type (0, 0), BuildingBlock: XUDNAN_clean_linker_2, # of connection points: 2
#     Edge 50, Type (0, 0), BuildingBlock: XUDNAN_clean_linker_2, # of connection points: 2
#     Edge 51, Type (0, 0), BuildingBlock: XUDNAN_clean_linker_2, # of connection points: 2
#     Edge 52, Type (0, 0), BuildingBlock: XUDNAN_clean_linker_2, # of connection points: 2
#     Edge 53, Type (0, 0), BuildingBlock: XUDNAN_clean_linker_2, # of connection points: 2
#     Edge 54, Type (0, 0), BuildingBlock: XUDNAN_clean_linker_2, # of connection points: 2
#     Edge 55, Type (0, 0), BuildingBlock: XUDNAN_clean_linker_2, # of connection points: 2
# Relax obj value: 0.498
# Max RMSD: 0.266
# Mean RMSD: 0.266
data_MOF--net-fnl--node1-XOMCOT_clean_sbu_1--edge1-XUDNAN_clean_linker_2
_symmetry_space_group_name_H-M    P1
_symmetry_Int_Tables_number       1
_symmetry_cell_setting            triclinic
loop_
_symmetry_equiv_pos_as_xyz
'x, y, z'
_cell_length_a     34.135067
_cell_length_b     34.099244
_cell_length_c     97.176995
_cell_angle_alpha  89.999528
_cell_angle_beta   90.040834
_cell_angle_gamma 90.01108
loop_
_atom_site_label
_atom_site_type_symbol
_atom_site_fract_x
_atom_site_fract_y
_atom_site_fract_z
_atom_type_partial_charge
C0 C 0.01756 0.99649 0.05258 0.0
C1 C 0.01597 0.95641 0.05154 0.0
N2 N 0.03084 0.94081 0.06318 0.0
N3 N 0.03338 0.00628 0.06478 0.0
C4 C 0.04113 0.97184 0.07108 0.0
H5 H 0.00757 0.01737 0.04497 0.0
Co6 Co 0.03984 0.05789 0.06983 0.0
C7 C 0.08436 0.05916 0.09612 0.0
O8 O 0.06494 0.09078 0.09974 0.0
N9 N 0.04592 0.11137 0.07427 0.0
C10 C 0.07118 0.17122 0.07669 0.0
C11 C 0.07963 0.13219 0.07458 0.0
C12 C 0.0176 0.13849 0.07607 0.0
N13 N 0.03199 0.17508 0.07755 0.0
O14 O 0.08205 0.06149 0.05688 0.0
H15 H 0.1085 0.11986 0.07308 0.0
H16 H 0.98683 0.13189 0.07607 0.0
O17 O 0.077 0.04277 0.08452 0.0
C18 C 0.07571 0.08261 0.04629 0.0
O19 O 0.04313 0.10298 0.04554 0.0
N20 N 0.99577 0.0531 0.08143 0.0
C21 C 0.92478 0.04878 0.09544 0.0
C22 C 0.95953 0.03667 0.10177 0.0
C23 C 0.99459 0.03782 0.09443 0.0
C24 C 0.96166 0.06216 0.07481 0.0
C25 C 0.92572 0.06058 0.08167 0.0
H26 H 0.01999 0.0251 0.09919 0.0
H27 H 0.96258 0.07152 0.06418 0.0
H28 H 0.05409 0.9696 0.08122 0.0
H29 H 0.00385 0.94014 0.04298 0.0
H30 H 0.09222 0.19493 0.07702 0.0
H31 H 0.95933 0.02512 0.11216 0.0
H32 H 0.89907 0.06868 0.07633 0.0
C33 C 0.29012 0.76669 0.30822 0.0
C34 C 0.32709 0.75308 0.30527 0.0
N35 N 0.35307 0.77613 0.3118 0.0
N36 N 0.29246 0.79709 0.31711 0.0
C37 C 0.33144 0.80331 0.31842 0.0
H38 H 0.26338 0.7559 0.30364 0.0
Co39 Co 0.24989 0.82716 0.32364 0.0
C40 C 0.3067 0.84119 0.34648 0.0
O41 O 0.31364 0.80329 0.34714 0.0
N42 N 0.20786 0.85691 0.32936 0.0
C43 C 0.1679 0.90441 0.33614 0.0
C44 C 0.20643 0.8944 0.33375 0.0
C45 C 0.17039 0.84474 0.32913 0.0
N46 N 0.14542 0.87295 0.33326 0.0
O47 O 0.26219 0.8651 0.30988 0.0
H48 H 0.23161 0.91339 0.33489 0.0
H49 H 0.16162 0.81597 0.32557 0.0
O50 O 0.28338 0.8546 0.33726 0.0
C51 C 0.2399 0.86314 0.29939 0.0
O52 O 0.20969 0.83927 0.29979 0.0
N53 N 0.23576 0.78814 0.33666 0.0
C54 C 0.23036 0.72544 0.35472 0.0
C55 C 0.23056 0.76401 0.35975 0.0
C56 C 0.23202 0.79522 0.35045 0.0
C57 C 0.2273 0.75172 0.33171 0.0
C58 C 0.22538 0.71964 0.34056 0.0
H59 H 0.23349 0.82483 0.35439 0.0
H60 H 0.22349 0.74706 0.32085 0.0
H61 H 0.34405 0.8277 0.32392 0.0
H62 H 0.33431 0.7289 0.29851 0.0
H63 H 0.15728 0.93258 0.33966 0.0
H64 H 0.23298 0.77005 0.37066 0.0
H65 H 0.2226 0.69041 0.3363 0.0
C66 C 0.53869 0.10147 0.55253 0.0
C67 C 0.55035 0.13842 0.54869 0.0
N68 N 0.53183 0.16446 0.55677 0.0
N69 N 0.51422 0.10373 0.56342 0.0
C70 C 0.50919 0.14287 0.56528 0.0
H71 H 0.54691 0.07447 0.54746 0.0
Co72 Co 0.49009 0.05866 0.57094 0.0
C73 C 0.4759 0.11363 0.59425 0.0
O74 O 0.51334 0.12268 0.59454 0.0
N75 N 0.46595 0.01358 0.57753 0.0
C76 C 0.42382 0.97034 0.58592 0.0
C77 C 0.42937 0.0091 0.58245 0.0
C78 C 0.48192 0.97741 0.57795 0.0
N79 N 0.45704 0.95031 0.58314 0.0
O80 O 0.44782 0.06714 0.55847 0.0
H81 H 0.40805 0.03241 0.58335 0.0
H82 H 0.5116 0.9715 0.57468 0.0
O83 O 0.46285 0.08993 0.58511 0.0
C84 C 0.44616 0.04493 0.54796 0.0
O85 O 0.47072 0.01536 0.54709 0.0
N86 N 0.53324 0.04893 0.58288 0.0
C87 C 0.59823 0.04573 0.60018 0.0
C88 C 0.56036 0.04118 0.60553 0.0
C89 C 0.52823 0.0419 0.59663 0.0
C90 C 0.56994 0.04698 0.57738 0.0
C91 C 0.60291 0.0461 0.58585 0.0
H92 H 0.49913 0.03959 0.60095 0.0
H93 H 0.57411 0.04708 0.56642 0.0
H94 H 0.48884 0.15573 0.57247 0.0
H95 H 0.57014 0.14566 0.54036 0.0
H96 H 0.39704 0.95804 0.59 0.0
H97 H 0.55524 0.03992 0.61651 0.0
H98 H 0.63177 0.04752 0.58125 0.0
C99 C 0.21691 0.36391 0.81266 0.0
C100 C 0.18019 0.37529 0.80853 0.0
N101 N 0.15417 0.3488 0.81323 0.0
N102 N 0.21416 0.33035 0.81989 0.0
C103 C 0.17549 0.32179 0.82014 0.0
H104 H 0.24412 0.37888 0.81044 0.0
Co105 Co 0.25822 0.30525 0.82656 0.0
C106 C 0.23092 0.2515 0.84826 0.0
O107 O 0.25967 0.26398 0.85613 0.0
N108 N 0.304 0.27998 0.83271 0.0
C109 C 0.34846 0.23295 0.83576 0.0
C110 C 0.31001 0.24079 0.83261 0.0
C111 C 0.3396 0.29523 0.83561 0.0
N112 N 0.36709 0.26733 0.83756 0.0
O113 O 0.25869 0.27304 0.81056 0.0
H114 H 0.28819 0.21924 0.82978 0.0
H115 H 0.34601 0.32612 0.83569 0.0
O116 O 0.22624 0.26598 0.8362 0.0
C117 C 0.28105 0.28681 0.80128 0.0
O118 O 0.30211 0.31801 0.80419 0.0
N119 N 0.2578 0.34018 0.84154 0.0
C120 C 0.25299 0.40305 0.85971 0.0
C121 C 0.22597 0.37237 0.86041 0.0
C122 C 0.22809 0.34184 0.85096 0.0
C123 C 0.28323 0.37092 0.84038 0.0
C124 C 0.28179 0.40251 0.84952 0.0
H125 H 0.20416 0.32124 0.85072 0.0
H126 H 0.30294 0.37238 0.8317 0.0
H127 H 0.16329 0.29586 0.82492 0.0
H128 H 0.17315 0.40106 0.80251 0.0
H129 H 0.3621 0.2043 0.83586 0.0
H130 H 0.20185 0.37335 0.86766 0.0
H131 H 0.30156 0.42708 0.84822 0.0
C132 C 0.99211 0.10792 0.94435 0.0
C133 C 0.98614 0.14739 0.94626 0.0
N134 N 0.00817 0.16707 0.93705 0.0
N135 N 0.01772 0.10269 0.934 0.0
C136 C 0.02711 0.1392 0.92974 0.0
H137 H 0.97855 0.08436 0.95008 0.0
Co138 Co 0.03372 0.05368 0.92827 0.0
C139 C 0.07466 0.0643 0.90188 0.0
O140 O 0.05683 0.03246 0.89752 0.0
N141 N 0.05037 0.00308 0.92304 0.0
C142 C 0.09036 0.95313 0.91846 0.0
C143 C 0.08831 0.99213 0.92191 0.0
C144 C 0.03002 0.96984 0.92048 0.0
N145 N 0.05358 0.93919 0.91758 0.0
O146 O 0.07493 0.05596 0.94158 0.0
H147 H 0.11306 0.01139 0.92354 0.0
H148 H 0.99859 0.96765 0.92074 0.0
O149 O 0.06846 0.07666 0.91415 0.0
C150 C 0.06994 0.03494 0.95227 0.0
O151 O 0.04008 0.01061 0.9526 0.0
N152 N 0.99039 0.05264 0.91616 0.0
C153 C 0.92023 0.05593 0.90157 0.0
C154 C 0.952 0.07919 0.89769 0.0
C155 C 0.98635 0.07808 0.90536 0.0
C156 C 0.95869 0.03168 0.92057 0.0
C157 C 0.92333 0.0323 0.91326 0.0
H158 H 0.00859 0.0994 0.90297 0.0
H159 H 0.96045 0.01534 0.93009 0.0
H160 H 0.04761 0.14529 0.92153 0.0
H161 H 0.96651 0.16051 0.95369 0.0
H162 H 0.11686 0.93619 0.91706 0.0
H163 H 0.94956 0.09958 0.88917 0.0
H164 H 0.89845 0.0156 0.91693 0.0
C165 C 0.19365 0.77718 0.19015 0.0
C166 C 0.15416 0.77584 0.193 0.0
N167 N 0.13855 0.811 0.18986 0.0
N168 N 0.2027 0.81283 0.18507 0.0
C169 C 0.16863 0.83292 0.18516 0.0
H170 H 0.21439 0.75354 0.19154 0.0
Co171 Co 0.2516 0.82863 0.17891 0.0
C172 C 0.23595 0.88168 0.15539 0.0
O173 O 0.2638 0.86442 0.14828 0.0
N174 N 0.30152 0.84517 0.17289 0.0
C175 C 0.35277 0.88416 0.16898 0.0
C176 C 0.31421 0.88276 0.17303 0.0
C177 C 0.33311 0.82434 0.16879 0.0
N178 N 0.36442 0.84732 0.16628 0.0
O179 O 0.25478 0.86412 0.1942 0.0
H180 H 0.29665 0.90764 0.17613 0.0
H181 H 0.33426 0.79282 0.16824 0.0
O182 O 0.22775 0.86984 0.16756 0.0
C183 C 0.28088 0.85693 0.20324 0.0
O184 O 0.30556 0.82796 0.20119 0.0
N185 N 0.2481 0.79067 0.1649 0.0
C186 C 0.24027 0.72487 0.14819 0.0
C187 C 0.21861 0.75881 0.14546 0.0
C188 C 0.22195 0.79102 0.15424 0.0
C189 C 0.26787 0.75703 0.168 0.0
C190 C 0.26477 0.72383 0.15968 0.0
H191 H 0.20188 0.81506 0.15281 0.0
H192 H 0.28506 0.75551 0.17735 0.0
H193 H 0.16568 0.86282 0.18158 0.0
H194 H 0.13824 0.75107 0.19715 0.0
H195 H 0.37092 0.9101 0.16825 0.0
H196 H 0.19761 0.75954 0.1371 0.0
H197 H 0.28037 0.6973 0.16243 0.0
C198 C 0.48587 0.01904 0.45261 0.0
C199 C 0.49519 0.97999 0.45429 0.0
N200 N 0.49094 0.96179 0.44206 0.0
N201 N 0.47537 0.02531 0.43943 0.0
C202 C 0.47912 0.99004 0.43325 0.0
H203 H 0.48655 0.04142 0.4605 0.0
Co204 Co 0.45926 0.07249 0.43165 0.0
C205 C 0.40477 0.04728 0.40846 0.0
O206 O 0.40615 0.08073 0.40178 0.0
N207 N 0.44341 0.12072 0.42403 0.0
C208 C 0.40946 0.17498 0.41939 0.0
C209 C 0.4071 0.13656 0.42374 0.0
C210 C 0.46717 0.15009 0.41985 0.0
N211 N 0.44735 0.18325 0.41693 0.0
O212 O 0.41876 0.07554 0.44526 0.0
H213 H 0.38074 0.12158 0.42698 0.0
H214 H 0.49874 0.14825 0.41976 0.0
O215 O 0.42425 0.04289 0.41959 0.0
C216 C 0.42146 0.10234 0.45435 0.0
O217 O 0.44837 0.1296 0.45294 0.0
N218 N 0.50148 0.06942 0.41944 0.0
C219 C 0.57364 0.05772 0.40665 0.0
C220 C 0.53857 0.04703 0.40006 0.0
C221 C 0.50273 0.05315 0.40662 0.0
C222 C 0.53506 0.08137 0.42576 0.0
C223 C 0.5714 0.07626 0.4195 0.0
H224 H 0.47674 0.04265 0.4016 0.0
H225 H 0.53355 0.09386 0.43598 0.0
H226 H 0.4728 0.9851 0.42248 0.0
H227 H 0.50472 0.96624 0.46376 0.0
H228 H 0.38539 0.19546 0.41844 0.0
H229 H 0.53877 0.03185 0.39027 0.0
H230 H 0.59755 0.0855 0.42491 0.0
C231 C 0.29859 0.35162 0.6806 0.0
C232 C 0.33616 0.3622 0.68402 0.0
N233 N 0.35843 0.32972 0.68383 0.0
N234 N 0.29719 0.31259 0.6784 0.0
C235 C 0.33425 0.29991 0.68048 0.0
H236 H 0.27346 0.37089 0.68017 0.0
Co237 Co 0.2503 0.28626 0.67521 0.0
C238 C 0.27484 0.22791 0.65395 0.0
O239 O 0.24515 0.23759 0.64603 0.0
N240 N 0.2019 0.26138 0.67294 0.0
C241 C 0.14866 0.2243 0.6702 0.0
C242 C 0.1888 0.22618 0.66848 0.0
C243 C 0.16976 0.2789 0.67812 0.0
N244 N 0.13687 0.2577 0.67631 0.0
O245 O 0.25636 0.25931 0.69227 0.0
H246 H 0.20691 0.20262 0.66467 0.0
H247 H 0.17066 0.30716 0.68315 0.0
O248 O 0.27876 0.24416 0.66575 0.0
C249 C 0.24927 0.28077 0.70267 0.0
O250 O 0.23802 0.31719 0.70073 0.0
N251 N 0.24434 0.31527 0.65866 0.0
C252 C 0.24432 0.37201 0.6379 0.0
C253 C 0.27524 0.3452 0.63912 0.0
C254 C 0.27499 0.31763 0.64964 0.0
C255 C 0.21352 0.3406 0.65739 0.0
C256 C 0.21271 0.36888 0.64699 0.0
H257 H 0.30112 0.30034 0.65116 0.0
H258 H 0.19071 0.34145 0.66498 0.0
H259 H 0.34293 0.26943 0.68024 0.0
H260 H 0.34627 0.39127 0.68676 0.0
H261 H 0.12984 0.19995 0.66748 0.0
H262 H 0.30115 0.34751 0.63274 0.0
H263 H 0.18864 0.38954 0.64658 0.0
C264 C 0.70243 0.30589 0.70005 0.0
C265 C 0.664 0.30288 0.70402 0.0
N266 N 0.64171 0.32018 0.69434 0.0
N267 N 0.70443 0.32528 0.68801 0.0
C268 C 0.66685 0.33357 0.68468 0.0
H269 H 0.72763 0.29567 0.70578 0.0
Co270 Co 0.75274 0.33793 0.6808 0.0
C271 C 0.7404 0.37405 0.65369 0.0
O272 O 0.76991 0.35227 0.64956 0.0
N273 N 0.80335 0.35089 0.67433 0.0
C274 C 0.85562 0.38857 0.67057 0.0
C275 C 0.8155 0.38788 0.67163 0.0
C276 C 0.83688 0.32972 0.67485 0.0
N277 N 0.86886 0.35192 0.67257 0.0
O278 O 0.75457 0.38156 0.69325 0.0
H279 H 0.79662 0.41335 0.67154 0.0
H280 H 0.83872 0.29981 0.67837 0.0
O281 O 0.7289 0.37166 0.66625 0.0
C282 C 0.77943 0.38032 0.70302 0.0
O283 O 0.80551 0.35203 0.70324 0.0
N284 N 0.74975 0.29254 0.66969 0.0
C285 C 0.74128 0.22022 0.65655 0.0
C286 C 0.71825 0.25236 0.6527 0.0
C287 C 0.72199 0.28775 0.65968 0.0
C288 C 0.77048 0.2608 0.67419 0.0
C289 C 0.76721 0.22442 0.66762 0.0
H290 H 0.70109 0.3105 0.65737 0.0
H291 H 0.78814 0.26307 0.68338 0.0
H292 H 0.65817 0.3503 0.67572 0.0
H293 H 0.65322 0.28947 0.71338 0.0
H294 H 0.87385 0.41436 0.66944 0.0
H295 H 0.69601 0.2496 0.6448 0.0
H296 H 0.78409 0.1997 0.67134 0.0
C297 C 0.79185 0.85032 0.1978 0.0
C298 C 0.82946 0.86064 0.20129 0.0
N299 N 0.85435 0.83955 0.19348 0.0
N300 N 0.79296 0.82304 0.1878 0.0
C301 C 0.83146 0.81664 0.18546 0.0
H302 H 0.76521 0.86224 0.20212 0.0
Co303 Co 0.74768 0.80339 0.18002 0.0
C304 C 0.76916 0.76403 0.15442 0.0
O305 O 0.73884 0.78186 0.1489 0.0
N306 N 0.70056 0.78296 0.17274 0.0
C307 C 0.65592 0.73881 0.1664 0.0
C308 C 0.69368 0.74425 0.17085 0.0
C309 C 0.66603 0.80027 0.16963 0.0
N310 N 0.63853 0.77414 0.16566 0.0
O311 O 0.74816 0.76287 0.19361 0.0
H312 H 0.71472 0.72123 0.17285 0.0
H313 H 0.66049 0.83122 0.17051 0.0
O314 O 0.77746 0.76949 0.16717 0.0
C315 C 0.72104 0.76108 0.20258 0.0
O316 O 0.69045 0.78421 0.20142 0.0
N317 N 0.74844 0.84616 0.16751 0.0
C318 C 0.75344 0.91381 0.15144 0.0
C319 C 0.78092 0.88373 0.15004 0.0
C320 C 0.77882 0.85107 0.1585 0.0
C321 C 0.72317 0.87657 0.16976 0.0
C322 C 0.72478 0.91064 0.16168 0.0
H323 H 0.8028 0.83058 0.15806 0.0
H324 H 0.70274 0.87519 0.17824 0.0
H325 H 0.84251 0.79663 0.17774 0.0
H326 H 0.83782 0.88206 0.20897 0.0
H327 H 0.64194 0.71089 0.16441 0.0
H328 H 0.80522 0.88637 0.14293 0.0
H329 H 0.7045 0.93444 0.1636 0.0
C330 C 0.8131 0.29634 0.80435 0.0
C331 C 0.85216 0.29614 0.80101 0.0
N332 N 0.87078 0.32099 0.80953 0.0
N333 N 0.80716 0.3215 0.81482 0.0
C334 C 0.84295 0.33619 0.81782 0.0
H335 H 0.79008 0.28026 0.79917 0.0
Co336 Co 0.75716 0.33274 0.82077 0.0
C337 C 0.76309 0.37103 0.84768 0.0
O338 O 0.73351 0.34868 0.85135 0.0
N339 N 0.70514 0.34441 0.82613 0.0
C340 C 0.65165 0.37946 0.83085 0.0
C341 C 0.69057 0.38117 0.82728 0.0
C342 C 0.67417 0.32096 0.82891 0.0
N343 N 0.64155 0.34149 0.83193 0.0
O344 O 0.7557 0.37513 0.80789 0.0
H345 H 0.70733 0.4077 0.82568 0.0
H346 H 0.67463 0.28945 0.82844 0.0
O347 O 0.77695 0.36827 0.83544 0.0
C348 C 0.73528 0.36862 0.79715 0.0
O349 O 0.71399 0.33653 0.79664 0.0
N350 N 0.76007 0.28834 0.83236 0.0
C351 C 0.76836 0.21752 0.8465 0.0
C352 C 0.78999 0.25067 0.85037 0.0
C353 C 0.78634 0.28532 0.84292 0.0
C354 C 0.7413 0.25553 0.82775 0.0
C355 C 0.74425 0.21997 0.83486 0.0
H356 H 0.80611 0.30898 0.84536 0.0
H357 H 0.72451 0.25675 0.81832 0.0
H358 H 0.8483 0.3588 0.82542 0.0
H359 H 0.86577 0.27989 0.79272 0.0
H360 H 0.63241 0.40418 0.83261 0.0
H361 H 0.81111 0.24935 0.85868 0.0
H362 H 0.72837 0.19458 0.83115 0.0
C363 C 0.6896 0.83787 0.31415 0.0
C364 C 0.64962 0.83728 0.31281 0.0
N365 N 0.63623 0.80335 0.31812 0.0
N366 N 0.70142 0.80469 0.32041 0.0
C367 C 0.66831 0.78392 0.32261 0.0
H368 H 0.70901 0.86078 0.3106 0.0
Co369 Co 0.75354 0.79421 0.32365 0.0
C370 C 0.75745 0.73974 0.34736 0.0
O371 O 0.78973 0.75747 0.35132 0.0
N372 N 0.80736 0.78432 0.32623 0.0
C373 C 0.86564 0.755 0.3257 0.0
C374 C 0.82583 0.7496 0.32451 0.0
C375 C 0.83668 0.81026 0.32829 0.0
N376 N 0.87238 0.79335 0.32803 0.0
O377 O 0.75275 0.7581 0.30867 0.0
H378 H 0.81127 0.7222 0.3222 0.0
H379 H 0.83234 0.84119 0.32971 0.0
O380 O 0.73979 0.75147 0.33647 0.0
C381 C 0.76973 0.76924 0.29769 0.0
O382 O 0.78908 0.80257 0.29776 0.0
N383 N 0.75272 0.83247 0.33771 0.0
C384 C 0.74447 0.89677 0.35518 0.0
C385 C 0.73142 0.85966 0.35921 0.0
C386 C 0.73453 0.8282 0.35015 0.0
C387 C 0.76418 0.86887 0.33345 0.0
C388 C 0.76062 0.90147 0.34207 0.0
H389 H 0.71988 0.80147 0.35296 0.0
H390 H 0.7751 0.87281 0.32309 0.0
H391 H 0.66769 0.75521 0.32734 0.0
H392 H 0.63188 0.85961 0.30792 0.0
H393 H 0.88783 0.73264 0.32443 0.0
H394 H 0.71654 0.85555 0.36896 0.0
H395 H 0.76947 0.93014 0.33841 0.0
C396 C 0.48308 0.50652 0.55599 0.0
C397 C 0.48151 0.46697 0.55317 0.0
N398 N 0.51446 0.45028 0.55803 0.0
N399 N 0.51657 0.51459 0.56279 0.0
C400 C 0.53536 0.47978 0.56371 0.0
H401 H 0.46083 0.52793 0.55348 0.0
Co402 Co 0.53006 0.5634 0.57 0.0
C403 C 0.5766 0.54441 0.59524 0.0
O404 O 0.55918 0.57198 0.60244 0.0
N405 N 0.54384 0.61337 0.57707 0.0
C406 C 0.57937 0.6664 0.58222 0.0
C407 C 0.58071 0.62739 0.57851 0.0
C408 C 0.52077 0.64451 0.58007 0.0
N409 N 0.54154 0.67687 0.58324 0.0
O410 O 0.57072 0.56686 0.55656 0.0
H411 H 0.607 0.61062 0.57652 0.0
H412 H 0.48933 0.64472 0.57928 0.0
O413 O 0.56686 0.53859 0.58269 0.0
C414 C 0.56955 0.59316 0.54728 0.0
O415 O 0.543 0.62095 0.54801 0.0
N416 N 0.48759 0.55896 0.5821 0.0
C417 C 0.41482 0.54311 0.59365 0.0
C418 C 0.44821 0.52315 0.59819 0.0
C419 C 0.48434 0.53105 0.59213 0.0
C420 C 0.455 0.57802 0.57746 0.0
C421 C 0.41836 0.57128 0.58333 0.0
H422 H 0.50849 0.51212 0.5947 0.0
H423 H 0.45698 0.59654 0.56845 0.0
H424 H 0.5633 0.4758 0.56878 0.0
H425 H 0.45805 0.45168 0.54793 0.0
H426 H 0.60416 0.68567 0.58382 0.0
H427 H 0.44589 0.49988 0.60574 0.0
H428 H 0.39272 0.5858 0.57918 0.0
C429 C 0.00796 0.59765 0.05576 0.0
C430 C 0.02152 0.63541 0.05411 0.0
N431 N 0.0114 0.65633 0.06533 0.0
N432 N 0.98923 0.59493 0.06791 0.0
C433 C 0.99182 0.63107 0.0735 0.0
H434 H 0.01134 0.57369 0.04856 0.0
Co435 Co 0.9657 0.5501 0.07471 0.0
C436 C 0.91787 0.57774 0.09862 0.0
O437 O 0.92581 0.54616 0.10586 0.0
N438 N 0.94176 0.50436 0.08121 0.0
C439 C 0.89596 0.45956 0.08538 0.0
C440 C 0.90288 0.49853 0.08281 0.0
C441 C 0.95771 0.46838 0.08261 0.0
N442 N 0.93052 0.44056 0.08514 0.0
O443 O 0.9271 0.55421 0.06048 0.0
H444 H 0.8807 0.52086 0.08147 0.0
H445 H 0.98816 0.46202 0.08062 0.0
O446 O 0.93246 0.58197 0.08659 0.0
C447 C 0.92445 0.52788 0.05123 0.0
O448 O 0.94592 0.49604 0.05222 0.0
N449 N 0.0063 0.54627 0.08777 0.0
C450 C 0.0786 0.54973 0.10117 0.0
C451 C 0.04638 0.5708 0.10614 0.0
C452 C 0.01087 0.56948 0.09913 0.0
C453 C 0.03708 0.5246 0.08304 0.0
C454 C 0.07352 0.52576 0.08961 0.0
H455 H 0.98899 0.59018 0.10226 0.0
H456 H 0.03416 0.50857 0.07349 0.0
H457 H 0.97904 0.63896 0.0833 0.0
H458 H 0.03779 0.64646 0.04537 0.0
H459 H 0.8675 0.4461 0.0867 0.0
H460 H 0.04949 0.59117 0.11463 0.0
H461 H 0.09798 0.50979 0.08525 0.0
C462 C 0.49587 0.61652 0.44697 0.0
C463 C 0.48981 0.65604 0.44894 0.0
N464 N 0.50833 0.67578 0.43882 0.0
N465 N 0.51811 0.61127 0.43569 0.0
C466 C 0.52533 0.64783 0.43096 0.0
H467 H 0.48447 0.59297 0.45326 0.0
Co468 Co 0.53285 0.56257 0.42892 0.0
C469 C 0.57902 0.58059 0.40362 0.0
O470 O 0.56065 0.55351 0.39648 0.0
N471 N 0.5481 0.51274 0.42241 0.0
C472 C 0.58675 0.46283 0.41661 0.0
C473 C 0.58567 0.50148 0.42055 0.0
C474 C 0.52695 0.47996 0.41979 0.0
N475 N 0.54974 0.44925 0.41615 0.0
O476 O 0.5734 0.56108 0.44237 0.0
H477 H 0.6109 0.52009 0.42221 0.0
H478 H 0.49553 0.47816 0.42068 0.0
O479 O 0.56962 0.58713 0.41615 0.0
C480 C 0.56839 0.53904 0.45279 0.0
O481 O 0.5387 0.51449 0.45279 0.0
N482 N 0.49033 0.56488 0.41675 0.0
C483 C 0.41702 0.57569 0.40461 0.0
C484 C 0.45007 0.59549 0.3996 0.0
C485 C 0.48625 0.59048 0.40603 0.0
C486 C 0.45835 0.5458 0.42184 0.0
C487 C 0.42149 0.55034 0.41583 0.0
H488 H 0.50982 0.60956 0.40297 0.0
H489 H 0.46111 0.52854 0.43112 0.0
H490 H 0.54275 0.65387 0.42192 0.0
H491 H 0.47234 0.66906 0.45702 0.0
H492 H 0.6129 0.44573 0.41472 0.0
H493 H 0.44746 0.61685 0.39139 0.0
H494 H 0.39651 0.53531 0.42023 0.0
C495 C 0.98734 0.5085 0.95368 0.0
C496 C 0.99627 0.46927 0.95496 0.0
N497 N 0.98968 0.45179 0.94273 0.0
N498 N 0.97489 0.51554 0.94076 0.0
C499 C 0.97665 0.48048 0.93434 0.0
H500 H 0.99015 0.53059 0.96161 0.0
Co501 Co 0.96078 0.56395 0.93371 0.0
C502 C 0.91386 0.54591 0.90845 0.0
O503 O 0.9275 0.57648 0.90176 0.0
N504 N 0.94645 0.61335 0.92682 0.0
C505 C 0.91191 0.66656 0.92132 0.0
C506 C 0.9099 0.62849 0.92602 0.0
C507 C 0.97 0.64274 0.92256 0.0
N508 N 0.94982 0.67516 0.91908 0.0
O509 O 0.91894 0.56583 0.94668 0.0
H510 H 0.88346 0.61299 0.92885 0.0
H511 H 0.00154 0.64139 0.92248 0.0
O512 O 0.92579 0.53841 0.92064 0.0
C513 C 0.92402 0.58808 0.95705 0.0
O514 O 0.95408 0.61218 0.95703 0.0
N515 N 0.00456 0.56165 0.92213 0.0
C516 C 0.07862 0.55443 0.9103 0.0
C517 C 0.04548 0.53837 0.90385 0.0
C518 C 0.00877 0.5418 0.91002 0.0
C519 C 0.03652 0.57699 0.9286 0.0
C520 C 0.07373 0.5743 0.92279 0.0
H521 H 0.98482 0.52616 0.90541 0.0
H522 H 0.033 0.59098 0.93852 0.0
H523 H 0.96844 0.47601 0.9237 0.0
H524 H 0.00757 0.45495 0.96407 0.0
H525 H 0.88756 0.68642 0.91978 0.0
H526 H 0.04814 0.52118 0.89452 0.0
H527 H 0.09854 0.58676 0.92819 0.0
H528 H 0.99697 0.40166 0.09235 0.0
H529 H 0.87839 0.38463 0.07729 0.0
H530 H 0.89078 0.31389 0.07509 0.0
H531 H 0.04215 0.33575 0.0696 0.0
H532 H 0.07743 0.31743 0.08182 0.0
H533 H 0.05831 0.36634 0.08363 0.0
H534 H 0.03553 0.35041 0.10844 0.0
H535 H 0.05486 0.30148 0.10675 0.0
H536 H 0.00426 0.30864 0.11141 0.0
H537 H 0.91749 0.24681 0.0723 0.0
H538 H 0.95572 0.18639 0.07017 0.0
H539 H 0.05722 0.24569 0.08747 0.0
C540 C 0.97351 0.383 0.08871 0.0
C541 C 0.93665 0.39879 0.08505 0.0
C542 C 0.90663 0.37331 0.08039 0.0
C543 C 0.91346 0.33304 0.07902 0.0
C544 C 0.95035 0.31865 0.08243 0.0
C545 C 0.97981 0.3427 0.08729 0.0
C546 C 0.01731 0.31991 0.08966 0.0
C547 C 0.05076 0.33581 0.08064 0.0
C548 C 0.02864 0.32012 0.10498 0.0
C549 C 0.00451 0.27949 0.08504 0.0
C550 C 0.96574 0.27948 0.08098 0.0
C551 C 0.94768 0.24619 0.07571 0.0
C552 C 0.96977 0.21181 0.07462 0.0
C553 C 0.00958 0.21077 0.07884 0.0
C554 C 0.02699 0.24528 0.08413 0.0
H555 H 0.10254 0.80776 0.33839 0.0
H556 H 0.09329 0.93156 0.32868 0.0
H557 H 0.02123 0.92521 0.32736 0.0
H558 H 0.02974 0.7749 0.31557 0.0
H559 H 0.01094 0.73737 0.32683 0.0
H560 H 0.06137 0.75232 0.32815 0.0
H561 H 0.05171 0.76829 0.354 0.0
H562 H 0.00126 0.7531 0.3528 0.0
H563 H 0.01317 0.80136 0.35911 0.0
H564 H 0.95127 0.90399 0.32511 0.0
H565 H 0.88776 0.87069 0.32322 0.0
H566 H 0.94247 0.76066 0.33506 0.0
C567 C 0.08532 0.83357 0.33606 0.0
C568 C 0.10342 0.87016 0.3336 0.0
C569 C 0.07994 0.90339 0.33074 0.0
C570 C 0.03907 0.89999 0.32991 0.0
C571 C 0.02226 0.86327 0.33211 0.0
C572 C 0.04461 0.83073 0.33526 0.0
C573 C 0.01949 0.7944 0.33678 0.0
C574 C 0.03108 0.76291 0.3262 0.0
C575 C 0.02153 0.77836 0.35155 0.0
C576 C 0.97956 0.81141 0.33366 0.0
C577 C 0.9818 0.85118 0.33104 0.0
C578 C 0.94902 0.87299 0.32737 0.0
C579 C 0.91291 0.8537 0.3264 0.0
C580 C 0.90972 0.81293 0.32916 0.0
C581 C 0.94371 0.79172 0.33285 0.0
H582 H 0.51737 0.90625 0.57269 0.0
H583 H 0.41402 0.89935 0.59872 0.0
H584 H 0.42597 0.829 0.60212 0.0
H585 H 0.50642 0.814 0.55637 0.0
H586 H 0.55809 0.80311 0.55618 0.0
H587 H 0.54174 0.85329 0.55587 0.0
H588 H 0.58347 0.86817 0.57754 0.0
H589 H 0.59995 0.81798 0.57793 0.0
H590 H 0.57672 0.83907 0.59284 0.0
H591 H 0.44721 0.75857 0.6019 0.0
H592 H 0.47763 0.69344 0.59846 0.0
H593 H 0.56897 0.74659 0.57377 0.0
C594 C 0.49735 0.89038 0.57925 0.0
C595 C 0.4645 0.90895 0.58535 0.0
C596 C 0.43904 0.88623 0.59371 0.0
C597 C 0.44572 0.84609 0.59581 0.0
C598 C 0.47824 0.82893 0.58962 0.0
C599 C 0.50378 0.85036 0.58158 0.0
C600 C 0.53639 0.82471 0.576 0.0
C601 C 0.53559 0.82372 0.56017 0.0
C602 C 0.57651 0.8383 0.5814 0.0
C603 C 0.52495 0.7854 0.58206 0.0
C604 C 0.49123 0.7885 0.58985 0.0
C605 C 0.47384 0.75586 0.59594 0.0
C606 C 0.49119 0.71905 0.59391 0.0
C607 C 0.52574 0.71519 0.58598 0.0
C608 C 0.54302 0.74892 0.58012 0.0
H609 H 0.41025 0.32979 0.82896 0.0
H610 H 0.41836 0.2177 0.84993 0.0
H611 H 0.49013 0.2259 0.85174 0.0
H612 H 0.49545 0.3202 0.80918 0.0
H613 H 0.5094 0.37106 0.81044 0.0
H614 H 0.45858 0.35743 0.81157 0.0
H615 H 0.45309 0.39262 0.83513 0.0
H616 H 0.50392 0.40654 0.83405 0.0
H617 H 0.4864 0.37972 0.8488 0.0
H618 H 0.56123 0.24485 0.85008 0.0
H619 H 0.62634 0.27353 0.84537 0.0
H620 H 0.57094 0.37349 0.8258 0.0
C621 C 0.42684 0.30732 0.83422 0.0
C622 C 0.40857 0.27313 0.83937 0.0
C623 C 0.43175 0.24398 0.84582 0.0
C624 C 0.47247 0.24849 0.84697 0.0
C625 C 0.48948 0.2824 0.84166 0.0
C626 C 0.46737 0.31138 0.83547 0.0
C627 C 0.49286 0.34429 0.8301 0.0
C628 C 0.48883 0.34846 0.81439 0.0
C629 C 0.48351 0.38309 0.83747 0.0
C630 C 0.53289 0.32908 0.83408 0.0
C631 C 0.53033 0.29339 0.84077 0.0
C632 C 0.56357 0.2729 0.84494 0.0
C633 C 0.60038 0.28926 0.84213 0.0
C634 C 0.60362 0.32572 0.83523 0.0
C635 C 0.56933 0.34592 0.83129 0.0
H636 H 0.92483 0.74749 0.92652 0.0
H637 H 0.01342 0.6859 0.90304 0.0
H638 H 0.04723 0.74862 0.89843 0.0
H639 H 0.92372 0.83872 0.9055 0.0
H640 H 0.91767 0.86943 0.92044 0.0
H641 H 0.89776 0.82046 0.92032 0.0
H642 H 0.93618 0.80449 0.94265 0.0
H643 H 0.95639 0.8532 0.94278 0.0
H644 H 0.98855 0.81129 0.943 0.0
H645 H 0.07458 0.8166 0.89829 0.0
H646 H 0.09325 0.88559 0.90235 0.0
H647 H 0.98753 0.90244 0.92642 0.0
C648 C 0.95066 0.74749 0.92007 0.0
C649 C 0.9665 0.71207 0.91505 0.0
C650 C 0.00101 0.71286 0.90699 0.0
C651 C 0.02024 0.74829 0.90427 0.0
C652 C 0.0045 0.78263 0.90969 0.0
C653 C 0.97038 0.78259 0.91736 0.0
C654 C 0.96143 0.82304 0.92294 0.0
C655 C 0.92286 0.83884 0.91694 0.0
C656 C 0.96061 0.82297 0.93878 0.0
C657 C 0.99632 0.84556 0.91748 0.0
C658 C 0.02059 0.82184 0.90975 0.0
C659 C 0.05561 0.83561 0.90421 0.0
C660 C 0.06614 0.87471 0.90667 0.0
C661 C 0.04184 0.89949 0.91467 0.0
C662 C 0.00636 0.88459 0.92003 0.0
H663 H 0.43311 0.87858 0.17489 0.0
H664 H 0.38302 0.78584 0.14997 0.0
H665 H 0.44937 0.75978 0.14545 0.0
H666 H 0.52353 0.89272 0.15454 0.0
H667 H 0.55296 0.9008 0.16968 0.0
H668 H 0.50198 0.91458 0.16964 0.0
H669 H 0.49031 0.87191 0.19133 0.0
H670 H 0.54111 0.85794 0.19142 0.0
H671 H 0.5036 0.82075 0.19101 0.0
H672 H 0.52037 0.74114 0.14514 0.0
H673 H 0.59094 0.7306 0.1493 0.0
H674 H 0.59402 0.83479 0.17493 0.0
C675 C 0.43625 0.85343 0.16819 0.0
C676 C 0.40311 0.83429 0.1627 0.0
C677 C 0.40816 0.80074 0.1543 0.0
C678 C 0.44567 0.78593 0.15162 0.0
C679 C 0.47774 0.80507 0.15741 0.0
C680 C 0.47343 0.83813 0.16551 0.0
C681 C 0.51229 0.85139 0.17138 0.0
C682 C 0.52333 0.8923 0.16598 0.0
C683 C 0.51178 0.85041 0.18722 0.0
C684 C 0.53901 0.82016 0.16556 0.0
C685 C 0.51861 0.79397 0.15741 0.0
C686 C 0.53673 0.76162 0.15142 0.0
C687 C 0.57673 0.75571 0.15392 0.0
C688 C 0.59809 0.78186 0.16243 0.0
C689 C 0.57886 0.81469 0.16816 0.0
H690 H 0.42328 0.25516 0.42553 0.0
H691 H 0.51071 0.19557 0.40089 0.0
H692 H 0.54391 0.25881 0.39656 0.0
H693 H 0.41973 0.34692 0.40526 0.0
H694 H 0.41459 0.37716 0.42036 0.0
H695 H 0.3954 0.32791 0.42031 0.0
H696 H 0.43611 0.31181 0.4421 0.0
H697 H 0.4555 0.36088 0.4422 0.0
H698 H 0.48836 0.31952 0.44191 0.0
H699 H 0.56994 0.32736 0.39621 0.0
H700 H 0.58782 0.39652 0.4001 0.0
H701 H 0.48445 0.41155 0.42554 0.0
C702 C 0.44882 0.25566 0.41894 0.0
C703 C 0.46434 0.22059 0.41344 0.0
C704 C 0.49848 0.22216 0.4052 0.0
C705 C 0.51737 0.25792 0.40264 0.0
C706 C 0.50178 0.29188 0.40842 0.0
C707 C 0.46826 0.29112 0.41639 0.0
C708 C 0.45924 0.33138 0.42221 0.0
C709 C 0.4199 0.34675 0.4167 0.0
C710 C 0.45986 0.33084 0.43804 0.0
C711 C 0.49329 0.35471 0.41645 0.0
C712 C 0.51724 0.33142 0.40842 0.0
C713 C 0.5513 0.34594 0.40242 0.0
C714 C 0.56138 0.38522 0.40478 0.0
C715 C 0.53765 0.40959 0.41315 0.0
C716 C 0.50291 0.39403 0.41892 0.0
H717 H 0.91072 0.29368 0.66068 0.0
H718 H 0.91569 0.38556 0.69137 0.0
H719 H 0.98359 0.36632 0.69726 0.0
H720 H 0.97084 0.22125 0.67874 0.0
H721 H 0.99564 0.20514 0.66338 0.0
H722 H 0.94632 0.22379 0.66232 0.0
H723 H 0.96849 0.27547 0.64439 0.0
H724 H 0.01771 0.25673 0.6453 0.0
H725 H 0.00849 0.30797 0.6485 0.0
H726 H 0.05026 0.33808 0.69959 0.0
H727 H 0.11513 0.30799 0.69651 0.0
H728 H 0.06944 0.23686 0.66311 0.0
C729 C 0.92628 0.30937 0.66868 0.0
C730 C 0.90844 0.34097 0.67563 0.0
C731 C 0.92934 0.36144 0.68593 0.0
C732 C 0.96761 0.3505 0.6894 0.0
C733 C 0.98458 0.31925 0.68235 0.0
C734 C 0.9649 0.29928 0.67207 0.0
C735 C 0.99117 0.26891 0.66537 0.0
C736 C 0.97502 0.2273 0.66759 0.0
C737 C 0.9968 0.27782 0.64998 0.0
C738 C 0.02875 0.27525 0.67341 0.0
C739 C 0.02395 0.30395 0.6833 0.0
C740 C 0.05448 0.31569 0.69184 0.0
C741 C 0.09131 0.29856 0.68994 0.0
C742 C 0.09759 0.2704 0.67944 0.0
C743 C 0.06553 0.25796 0.67131 0.0
H744 H 0.0827 0.01582 0.0318 0.0
H745 H 0.11387 0.13864 0.03169 0.0
H746 H 0.13302 0.13379 0.00722 0.0
H747 H 0.15357 0.98057 0.00319 0.0
H748 H 0.11591 0.94891 0.99642 0.0
H749 H 0.11885 0.95789 0.01468 0.0
H750 H 0.04656 0.98077 0.01462 0.0
H751 H 0.04344 0.97243 0.99645 0.0
H752 H 0.03195 0.02015 0.00334 0.0
H753 H 0.13382 0.12012 0.98215 0.0
H754 H 0.11197 0.10078 0.95891 0.0
H755 H 0.075 0.98796 0.97484 0.0
C756 C 0.09599 0.04088 0.02679 0.0
C757 C 0.09839 0.07719 0.03363 0.0
C758 C 0.11323 0.11031 0.02665 0.0
C759 C 0.12411 0.10774 0.01276 0.0
C760 C 0.11934 0.07195 0.00598 0.0
C761 C 0.1057 0.03897 0.0128 0.0
C762 C 0.09489 0.00675 0.00275 0.0
C763 C 0.12247 0.97144 0.00436 0.0
C764 C 0.05167 0.99436 0.00439 0.0
C765 C 0.10191 0.02765 0.98923 0.0
C766 C 0.1175 0.06462 0.99128 0.0
C767 C 0.12255 0.09088 0.9804 0.0
C768 C 0.11006 0.07964 0.9672 0.0
C769 C 0.0919 0.04283 0.96509 0.0
C770 C 0.08921 0.0161 0.97615 0.0
H771 H 0.1935 0.87337 0.27691 0.0
H772 H 0.31232 0.89003 0.29157 0.0
H773 H 0.33382 0.90427 0.26782 0.0
H774 H 0.21549 0.82093 0.2491 0.0
H775 H 0.17891 0.84083 0.23768 0.0
H776 H 0.17103 0.84185 0.25592 0.0
H777 H 0.16124 0.91715 0.25507 0.0
H778 H 0.16883 0.91633 0.23671 0.0
H779 H 0.19844 0.9477 0.24743 0.0
H780 H 0.3449 0.89993 0.24254 0.0
H781 H 0.34384 0.88174 0.21791 0.0
H782 H 0.21753 0.87152 0.21936 0.0
C783 C 0.22376 0.88157 0.27519 0.0
C784 C 0.25123 0.88078 0.28607 0.0
C785 C 0.29068 0.89099 0.28342 0.0
C786 C 0.30314 0.89909 0.26994 0.0
C787 C 0.27562 0.89767 0.25932 0.0
C788 C 0.23652 0.88996 0.26184 0.0
C789 C 0.21369 0.8853 0.24855 0.0
C790 C 0.19365 0.84484 0.24778 0.0
C791 C 0.18378 0.91862 0.24684 0.0
C792 C 0.24648 0.8889 0.23815 0.0
C793 C 0.28192 0.89665 0.24455 0.0
C794 C 0.31721 0.89536 0.23735 0.0
C795 C 0.31638 0.88494 0.22339 0.0
C796 C 0.28051 0.87637 0.21675 0.0
C797 C 0.24509 0.87963 0.22411 0.0
H798 H 0.43204 0.001 0.52503 0.0
H799 H 0.41001 0.11531 0.54298 0.0
H800 H 0.38499 0.1388 0.52065 0.0
H801 H 0.47139 0.03194 0.49586 0.0
H802 H 0.45081 0.99543 0.48455 0.0
H803 H 0.45689 0.98471 0.50249 0.0
H804 H 0.38296 0.96809 0.50442 0.0
H805 H 0.37676 0.97886 0.48637 0.0
H806 H 0.34699 0.00359 0.49899 0.0
H807 H 0.38024 0.15457 0.49582 0.0
H808 H 0.39288 0.15995 0.47086 0.0
H809 H 0.41274 0.03476 0.46873 0.0
C810 C 0.42045 0.0305 0.5244 0.0
C811 C 0.4229 0.05629 0.53574 0.0
C812 C 0.40806 0.09488 0.53447 0.0
C813 C 0.39371 0.10848 0.52181 0.0
C814 C 0.39357 0.08288 0.5106 0.0
C815 C 0.40579 0.04437 0.51185 0.0
C816 C 0.40774 0.02433 0.49795 0.0
C817 C 0.44915 0.00821 0.49505 0.0
C818 C 0.37675 0.99179 0.49687 0.0
C819 C 0.39778 0.0584 0.48858 0.0
C820 C 0.38896 0.09177 0.49609 0.0
C821 C 0.3855 0.12839 0.4898 0.0
C822 C 0.39271 0.13123 0.47563 0.0
C823 C 0.4028 0.09762 0.4679 0.0
C824 C 0.40354 0.06059 0.47434 0.0
H825 H 0.29364 0.31852 0.72125 0.0
H826 H 0.22298 0.21434 0.71562 0.0
H827 H 0.2296 0.19905 0.74054 0.0
H828 H 0.36036 0.27586 0.74804 0.0
H829 H 0.36335 0.32218 0.75692 0.0
H830 H 0.35708 0.32107 0.7385 0.0
H831 H 0.29504 0.36445 0.74083 0.0
H832 H 0.30089 0.36543 0.7592 0.0
H833 H 0.25554 0.34842 0.75179 0.0
H834 H 0.23523 0.20242 0.76678 0.0
H835 H 0.24338 0.22109 0.79127 0.0
H836 H 0.31402 0.32073 0.77883 0.0
C837 C 0.28044 0.29195 0.72525 0.0
C838 C 0.25787 0.26749 0.7167 0.0
C839 C 0.24072 0.23308 0.72211 0.0
C840 C 0.24431 0.2243 0.73621 0.0
C841 C 0.26598 0.24978 0.74453 0.0
C842 C 0.28447 0.28244 0.73912 0.0
C843 C 0.30417 0.30652 0.75018 0.0
C844 C 0.34889 0.30638 0.74829 0.0
C845 C 0.28791 0.34866 0.75051 0.0
C846 C 0.29223 0.28358 0.76278 0.0
C847 C 0.27046 0.25076 0.7594 0.0
C848 C 0.25307 0.22748 0.76952 0.0
C849 C 0.25774 0.23834 0.78339 0.0
C850 C 0.27963 0.27214 0.78697 0.0
C851 C 0.29769 0.29432 0.77649 0.0
H852 H 0.68729 0.371 0.77482 0.0
H853 H 0.79744 0.41579 0.7905 0.0
H854 H 0.81436 0.43962 0.76727 0.0
H855 H 0.72154 0.33099 0.74646 0.0
H856 H 0.6813 0.34255 0.73514 0.0
H857 H 0.67312 0.33915 0.75331 0.0
H858 H 0.64471 0.40965 0.75345 0.0
H859 H 0.65283 0.41309 0.73515 0.0
H860 H 0.67324 0.44953 0.74653 0.0
H861 H 0.82731 0.44043 0.74217 0.0
H862 H 0.83286 0.42219 0.71762 0.0
H863 H 0.71272 0.38204 0.71781 0.0
C864 C 0.71419 0.38738 0.77346 0.0
C865 C 0.74098 0.39172 0.78444 0.0
C866 C 0.77623 0.41265 0.78227 0.0
C867 C 0.78607 0.42628 0.76909 0.0
C868 C 0.75993 0.41961 0.75828 0.0
C869 C 0.72419 0.40145 0.7604 0.0
C870 C 0.70368 0.39289 0.74689 0.0
C871 C 0.69443 0.34881 0.74537 0.0
C872 C 0.66641 0.41779 0.74542 0.0
C873 C 0.73483 0.40602 0.7368 0.0
C874 C 0.76679 0.42207 0.74356 0.0
C875 C 0.80188 0.42964 0.73669 0.0
C876 C 0.80484 0.41928 0.72276 0.0
C877 C 0.77273 0.40217 0.71582 0.0
C878 C 0.7369 0.397 0.72277 0.0
H879 H 0.7873 0.76409 0.21768 0.0
H880 H 0.66896 0.71868 0.21769 0.0
H881 H 0.67576 0.7008 0.24224 0.0
H882 H 0.8304 0.69785 0.24589 0.0
H883 H 0.85758 0.73868 0.25281 0.0
H884 H 0.84858 0.73553 0.23455 0.0
H885 H 0.81733 0.80471 0.23505 0.0
H886 H 0.82576 0.80797 0.25323 0.0
H887 H 0.77689 0.81411 0.24652 0.0
H888 H 0.69022 0.70005 0.26734 0.0
H889 H 0.70835 0.72152 0.29078 0.0
H890 H 0.81512 0.77292 0.27475 0.0
C891 C 0.76376 0.7483 0.2227 0.0
C892 C 0.72808 0.74151 0.21581 0.0
C893 C 0.69682 0.72311 0.2228 0.0
C894 C 0.70052 0.71281 0.23672 0.0
C895 C 0.73549 0.72167 0.24349 0.0
C896 C 0.76663 0.73906 0.23669 0.0
C897 C 0.79758 0.7531 0.24671 0.0
C898 C 0.8358 0.72989 0.24488 0.0
C899 C 0.80475 0.79758 0.24529 0.0
C900 C 0.77798 0.74309 0.26023 0.0
C901 C 0.74293 0.72359 0.25817 0.0
C902 C 0.718 0.71452 0.2691 0.0
C903 C 0.72852 0.72679 0.28238 0.0
C904 C 0.76316 0.74876 0.28452 0.0
C905 C 0.78866 0.75583 0.27338 0.0
H906 H 0.57014 0.49361 0.47588 0.0
H907 H 0.6111 0.60438 0.45936 0.0
H908 H 0.63039 0.62539 0.48265 0.0
H909 H 0.52459 0.52885 0.50307 0.0
H910 H 0.53692 0.49082 0.51521 0.0
H911 H 0.53631 0.48012 0.49715 0.0
H912 H 0.60815 0.45588 0.49844 0.0
H913 H 0.60886 0.46628 0.51664 0.0
H914 H 0.64541 0.48748 0.50551 0.0
H915 H 0.62702 0.64135 0.5075 0.0
H916 H 0.60711 0.64816 0.53186 0.0
H917 H 0.57366 0.52579 0.53274 0.0
C918 C 0.58476 0.52157 0.4771 0.0
C919 C 0.58917 0.54731 0.46582 0.0
C920 C 0.6078 0.58397 0.46782 0.0
C921 C 0.61888 0.59618 0.48104 0.0
C922 C 0.61206 0.571 0.4921 0.0
C923 C 0.59636 0.53396 0.49022 0.0
C924 C 0.5873 0.51454 0.50388 0.0
C925 C 0.54372 0.50296 0.50488 0.0
C926 C 0.61404 0.47894 0.50625 0.0
C927 C 0.59736 0.54757 0.51367 0.0
C928 C 0.61219 0.57972 0.5067 0.0
C929 C 0.61713 0.61592 0.51318 0.0
C930 C 0.60571 0.61961 0.52699 0.0
C931 C 0.59017 0.58716 0.53418 0.0
C932 C 0.58727 0.55046 0.52759 0.0
H933 H 0.92588 0.63214 0.98044 0.0
H934 H 0.87789 0.52484 0.96341 0.0
H935 H 0.8588 0.50353 0.98669 0.0
H936 H 0.97137 0.59221 0.00687 0.0
H937 H 0.96235 0.63002 0.01944 0.0
H938 H 0.96224 0.64198 0.00147 0.0
H939 H 0.89214 0.67044 0.0036 0.0
H940 H 0.89216 0.65886 0.02171 0.0
H941 H 0.85355 0.64069 0.01077 0.0
H942 H 0.86213 0.48608 0.01142 0.0
H943 H 0.8827 0.47658 0.03559 0.0
H944 H 0.92467 0.59629 0.03705 0.0
C945 C 0.90978 0.60496 0.98155 0.0
C946 C 0.90331 0.5802 0.97012 0.0
C947 C 0.8828 0.54451 0.97199 0.0
C948 C 0.87183 0.53215 0.98521 0.0
C949 C 0.88077 0.5562 0.99639 0.0
C950 C 0.89848 0.59236 0.99467 0.0
C951 C 0.90975 0.61026 0.00839 0.0
C952 C 0.95403 0.61908 0.00907 0.0
C953 C 0.88544 0.64726 0.01129 0.0
C954 C 0.89844 0.57725 0.01801 0.0
C955 C 0.88113 0.54657 0.01092 0.0
C956 C 0.87412 0.51043 0.01719 0.0
C957 C 0.88598 0.5052 0.03089 0.0
C958 C 0.90419 0.53607 0.03819 0.0
C959 C 0.90922 0.57286 0.03182 0.0
H960 H 0.22 0.89035 0.12798 0.0
H961 H 0.1977 0.94198 0.16802 0.0
H962 H 0.15884 0.99451 0.15694 0.0
H963 H 0.22786 0.97955 0.10847 0.0
H964 H 0.20218 0.96062 0.09367 0.0
H965 H 0.22939 0.92784 0.10464 0.0
H966 H 0.16715 0.88557 0.10829 0.0
H967 H 0.13978 0.91811 0.09729 0.0
H968 H 0.123 0.90844 0.11454 0.0
H969 H 0.12447 0.04202 0.14157 0.0
H970 H 0.09035 0.0782 0.12328 0.0
H971 H 0.13104 0.99342 0.09312 0.0
C972 C 0.20713 0.9129 0.13439 0.0
C973 C 0.21217 0.91256 0.14883 0.0
C974 C 0.19423 0.94193 0.15694 0.0
C975 C 0.17228 0.97187 0.15074 0.0
C976 C 0.16806 0.97152 0.13646 0.0
C977 C 0.18443 0.9425 0.12839 0.0
C978 C 0.1737 0.94787 0.11335 0.0
C979 C 0.21048 0.95436 0.10451 0.0
C980 C 0.14947 0.91292 0.10806 0.0
C981 C 0.1491 0.98476 0.1142 0.0
C982 C 0.14663 0.99805 0.12762 0.0
C983 C 0.126 0.0318 0.13104 0.0
C984 C 0.10681 0.05223 0.12052 0.0
C985 C 0.1079 0.03866 0.10673 0.0
C986 C 0.12963 0.00455 0.10355 0.0
H987 H 0.31223 0.92209 0.3466 0.0
H988 H 0.33644 0.81855 0.3712 0.0
H989 H 0.36042 0.86035 0.39004 0.0
H990 H 0.39834 0.97545 0.3573 0.0
H991 H 0.37423 0.02247 0.35743 0.0
H992 H 0.35751 0.98449 0.34596 0.0
H993 H 0.28763 0.99033 0.35616 0.0
H994 H 0.30423 0.02815 0.36773 0.0
H995 H 0.28065 0.98491 0.37445 0.0
H996 H 0.38069 0.91267 0.40641 0.0
H997 H 0.40218 0.9723 0.4185 0.0
H998 H 0.36832 0.0426 0.38314 0.0
C999 C 0.32256 0.9083 0.35596 0.0
C1000 C 0.3224 0.86703 0.35742 0.0
C1001 C 0.33644 0.85006 0.36979 0.0
C1002 C 0.34992 0.87356 0.38061 0.0
C1003 C 0.34953 0.91406 0.3789 0.0
C1004 C 0.3367 0.93138 0.36685 0.0
C1005 C 0.34108 0.97562 0.36754 0.0
C1006 C 0.36949 0.99037 0.3564 0.0
C1007 C 0.30101 0.99594 0.36641 0.0
C1008 C 0.35837 0.98031 0.38184 0.0
C1009 C 0.36253 0.9444 0.38824 0.0
C1010 C 0.37779 0.94098 0.40148 0.0
C1011 C 0.38997 0.97511 0.40827 0.0
C1012 C 0.3874 0.01223 0.40175 0.0
C1013 C 0.37075 0.01475 0.38843 0.0
H1014 H 0.39626 0.12643 0.59337 0.0
H1015 H 0.49772 0.13367 0.62018 0.0
H1016 H 0.45586 0.15783 0.63903 0.0
H1017 H 0.35288 0.21552 0.60507 0.0
H1018 H 0.30317 0.19807 0.60374 0.0
H1019 H 0.34049 0.17808 0.5927 0.0
H1020 H 0.32357 0.1081 0.60126 0.0
H1021 H 0.28634 0.12796 0.6124 0.0
H1022 H 0.32468 0.09763 0.61944 0.0
H1023 H 0.4037 0.18224 0.65485 0.0
H1024 H 0.34587 0.21183 0.66588 0.0
H1025 H 0.27845 0.1924 0.62858 0.0
C1026 C 0.40947 0.13275 0.60326 0.0
C1027 C 0.45015 0.12804 0.60536 0.0
C1028 C 0.46662 0.13722 0.61835 0.0
C1029 C 0.44305 0.15068 0.62915 0.0
C1030 C 0.40309 0.15517 0.62677 0.0
C1031 C 0.38642 0.14696 0.61412 0.0
C1032 C 0.34322 0.15725 0.61403 0.0
C1033 C 0.33444 0.18913 0.60325 0.0
C1034 C 0.31797 0.12054 0.61164 0.0
C1035 C 0.33836 0.17277 0.62856 0.0
C1036 C 0.37314 0.17071 0.63579 0.0
C1037 C 0.37626 0.184 0.6493 0.0
C1038 C 0.34318 0.20078 0.65549 0.0
C1039 C 0.30759 0.20472 0.64811 0.0
C1040 C 0.30512 0.18974 0.63454 0.0
H1041 H 0.12367 0.12711 0.9068 0.0
H1042 H 0.07277 0.05721 0.87397 0.0
H1043 H 0.10497 0.09907 0.85675 0.0
H1044 H 0.11706 0.22087 0.8896 0.0
H1045 H 0.16351 0.23821 0.89601 0.0
H1046 H 0.1354 0.2035 0.9059 0.0
H1047 H 0.19471 0.15603 0.90637 0.0
H1048 H 0.22303 0.19066 0.89654 0.0
H1049 H 0.21703 0.14114 0.89039 0.0
H1050 H 0.1412 0.14928 0.84296 0.0
H1051 H 0.18461 0.201 0.83364 0.0
H1052 H 0.21492 0.23597 0.87525 0.0
C1053 C 0.11936 0.12064 0.89599 0.0
C1054 C 0.09568 0.08889 0.89176 0.0
C1055 C 0.09091 0.08125 0.8775 0.0
C1056 C 0.10891 0.10499 0.86761 0.0
C1057 C 0.1319 0.13612 0.8721 0.0
C1058 C 0.13759 0.14377 0.88594 0.0
C1059 C 0.16498 0.17824 0.88795 0.0
C1060 C 0.14398 0.21221 0.8953 0.0
C1061 C 0.20214 0.16576 0.89577 0.0
C1062 C 0.17396 0.18842 0.8731 0.0
C1063 C 0.15408 0.16417 0.86412 0.0
C1064 C 0.15715 0.16835 0.84988 0.0
C1065 C 0.18172 0.19781 0.84468 0.0
C1066 C 0.20329 0.22213 0.85371 0.0
C1067 C 0.19908 0.21746 0.86809 0.0
H1068 H 0.86401 0.10812 0.90763 0.0
H1069 H 0.89663 0.01894 0.87822 0.0
H1070 H 0.8455 0.04276 0.86222 0.0
H1071 H 0.75411 0.11692 0.89717 0.0
H1072 H 0.75653 0.16926 0.89963 0.0
H1073 H 0.78505 0.1371 0.91045 0.0
H1074 H 0.84782 0.17525 0.90375 0.0
H1075 H 0.81989 0.20697 0.89281 0.0
H1076 H 0.86066 0.17994 0.88582 0.0
H1077 H 0.80512 0.08607 0.84748 0.0
H1078 H 0.78 0.14451 0.83539 0.0
H1079 H 0.7732 0.20664 0.87421 0.0
C1080 C 0.85843 0.09225 0.89817 0.0
C1081 C 0.88298 0.0611 0.89423 0.0
C1082 C 0.877 0.04209 0.8815 0.0
C1083 C 0.84808 0.0555 0.87238 0.0
C1084 C 0.82556 0.08789 0.87621 0.0
C1085 C 0.83004 0.1057 0.88894 0.0
C1086 C 0.80814 0.14425 0.8896 0.0
C1087 C 0.77392 0.14171 0.89982 0.0
C1088 C 0.83579 0.17857 0.89319 0.0
C1089 C 0.7934 0.14696 0.87495 0.0
C1090 C 0.80256 0.11365 0.8675 0.0
C1091 C 0.79663 0.11175 0.8533 0.0
C1092 C 0.78228 0.1451 0.8465 0.0
C1093 C 0.77457 0.18001 0.8539 0.0
C1094 C 0.77865 0.18019 0.86835 0.0
H1095 H 0.65228 0.10253 0.59579 0.0
H1096 H 0.61692 0.01501 0.62565 0.0
H1097 H 0.66294 0.04362 0.64257 0.0
H1098 H 0.75812 0.1143 0.6079 0.0
H1099 H 0.75578 0.16628 0.60463 0.0
H1100 H 0.72854 0.13269 0.59395 0.0
H1101 H 0.66482 0.17108 0.59927 0.0
H1102 H 0.69154 0.20436 0.61003 0.0
H1103 H 0.65021 0.178 0.61694 0.0
H1104 H 0.7019 0.08954 0.6574 0.0
H1105 H 0.72783 0.14907 0.66875 0.0
H1106 H 0.73747 0.2062 0.6291 0.0
C1107 C 0.65567 0.08802 0.60563 0.0
C1108 C 0.6314 0.05623 0.60934 0.0
C1109 C 0.63538 0.0393 0.62258 0.0
C1110 C 0.66166 0.0552 0.63221 0.0
C1111 C 0.68392 0.08777 0.62839 0.0
C1112 C 0.68142 0.10371 0.61533 0.0
C1113 C 0.70323 0.14221 0.61436 0.0
C1114 C 0.73853 0.13864 0.60464 0.0
C1115 C 0.6758 0.17585 0.6099 0.0
C1116 C 0.71633 0.14679 0.62912 0.0
C1117 C 0.70598 0.11464 0.63701 0.0
C1118 C 0.71111 0.11437 0.65126 0.0
C1119 C 0.72594 0.14823 0.65763 0.0
C1120 C 0.73479 0.18197 0.64974 0.0
C1121 C 0.73128 0.18055 0.6353 0.0
H1122 H 0.69906 0.95927 0.34879 0.0
H1123 H 0.76758 0.90808 0.38169 0.0
H1124 H 0.74039 0.95648 0.39801 0.0
H1125 H 0.69681 0.06523 0.36279 0.0
H1126 H 0.64669 0.07065 0.35725 0.0
H1127 H 0.68005 0.04059 0.34747 0.0
H1128 H 0.63194 0.98214 0.34954 0.0
H1129 H 0.59881 0.01161 0.35944 0.0
H1130 H 0.61669 0.96596 0.36637 0.0
H1131 H 0.69584 0.99844 0.41135 0.0
H1132 H 0.63715 0.02991 0.42085 0.0
H1133 H 0.59624 0.05514 0.37947 0.0
C1134 C 0.70979 0.95981 0.35928 0.0
C1135 C 0.73592 0.93079 0.36401 0.0
C1136 C 0.74807 0.93071 0.37791 0.0
C1137 C 0.73287 0.95814 0.38721 0.0
C1138 C 0.70559 0.98534 0.3824 0.0
C1139 C 0.69439 0.98667 0.36871 0.0
C1140 C 0.65976 0.01383 0.36664 0.0
C1141 C 0.67155 0.04971 0.35803 0.0
C1142 C 0.62476 0.99206 0.36013 0.0
C1143 C 0.65148 0.02529 0.3814 0.0
C1144 C 0.67896 0.00952 0.39027 0.0
C1145 C 0.67484 0.01203 0.4045 0.0
C1146 C 0.64132 0.03016 0.40981 0.0
C1147 C 0.61207 0.04536 0.40092 0.0
C1148 C 0.61807 0.04395 0.38654 0.0
H1149 H 0.75846 0.91863 0.12375 0.0
H1150 H 0.76514 0.98809 0.1609 0.0
H1151 H 0.79804 0.04106 0.148 0.0
H1152 H 0.84719 0.93165 0.11393 0.0
H1153 H 0.8402 0.93488 0.09557 0.0
H1154 H 0.80498 0.90947 0.1059 0.0
H1155 H 0.74935 0.95392 0.09671 0.0
H1156 H 0.78437 0.9792 0.08601 0.0
H1157 H 0.75408 0.00649 0.0978 0.0
H1158 H 0.84746 0.07457 0.13368 0.0
H1159 H 0.90367 0.08897 0.11844 0.0
H1160 H 0.86462 0.9994 0.09006 0.0
C1161 C 0.76479 0.94609 0.12889 0.0
C1162 C 0.75901 0.94973 0.1432 0.0
C1163 C 0.76861 0.98526 0.14987 0.0
C1164 C 0.78747 0.01539 0.1426 0.0
C1165 C 0.79574 0.00965 0.12867 0.0
C1166 C 0.78369 0.97622 0.12177 0.0
C1167 C 0.8019 0.97374 0.10758 0.0
C1168 C 0.82493 0.93519 0.10566 0.0
C1169 C 0.77055 0.97865 0.09636 0.0
C1170 C 0.82885 0.00891 0.10805 0.0
C1171 C 0.82419 0.02985 0.12016 0.0
C1172 C 0.85026 0.05952 0.12392 0.0
C1173 C 0.88217 0.06738 0.11528 0.0
C1174 C 0.88756 0.04581 0.10302 0.0
C1175 C 0.86 0.01715 0.09916 0.0
H1176 H 0.68175 0.42983 0.65747 0.0
H1177 H 0.75061 0.371 0.62603 0.0
H1178 H 0.71657 0.40825 0.6081 0.0
H1179 H 0.5913 0.43404 0.63796 0.0
H1180 H 0.57791 0.4822 0.64397 0.0
H1181 H 0.60733 0.4506 0.65466 0.0
H1182 H 0.66052 0.50461 0.65632 0.0
H1183 H 0.63128 0.53634 0.64562 0.0
H1184 H 0.68093 0.52489 0.64076 0.0
H1185 H 0.67513 0.44999 0.59335 0.0
H1186 H 0.62908 0.49638 0.58257 0.0
H1187 H 0.58753 0.53113 0.623 0.0
C1188 C 0.68957 0.42485 0.64681 0.0
C1189 C 0.71897 0.39742 0.64322 0.0
C1190 C 0.7284 0.39186 0.62914 0.0
C1191 C 0.70915 0.41286 0.61881 0.0
C1192 C 0.68055 0.43965 0.62264 0.0
C1193 C 0.67076 0.44598 0.63626 0.0
C1194 C 0.63904 0.47707 0.6374 0.0
C1195 C 0.60168 0.45995 0.64388 0.0
C1196 C 0.65384 0.51285 0.64551 0.0
C1197 C 0.63278 0.48701 0.6223 0.0
C1198 C 0.65695 0.46479 0.61401 0.0
C1199 C 0.65614 0.46776 0.59972 0.0
C1200 C 0.62984 0.49416 0.59368 0.0
C1201 C 0.60488 0.51755 0.60192 0.0
C1202 C 0.60657 0.51398 0.61644 0.0
H1203 H 0.90416 0.53484 0.88058 0.0
H1204 H 0.86546 0.49268 0.92048 0.0
H1205 H 0.82277 0.44427 0.90905 0.0
H1206 H 0.812 0.52392 0.86266 0.0
H1207 H 0.83395 0.50693 0.84688 0.0
H1208 H 0.86084 0.53928 0.8581 0.0
H1209 H 0.91773 0.48909 0.85918 0.0
H1210 H 0.89099 0.45655 0.84798 0.0
H1211 H 0.90781 0.43943 0.86451 0.0
H1212 H 0.78401 0.40174 0.89371 0.0
H1213 H 0.75264 0.36428 0.87523 0.0
H1214 H 0.81791 0.43073 0.84473 0.0
C1215 C 0.88642 0.51562 0.88689 0.0
C1216 C 0.88781 0.51769 0.90143 0.0
C1217 C 0.86476 0.49162 0.90934 0.0
C1218 C 0.84041 0.46408 0.90295 0.0
C1219 C 0.83981 0.46267 0.88862 0.0
C1220 C 0.86234 0.48744 0.88065 0.0
C1221 C 0.85695 0.47865 0.86543 0.0
C1222 C 0.83991 0.51432 0.85782 0.0
C1223 C 0.89567 0.46512 0.8589 0.0
C1224 C 0.82754 0.44533 0.86614 0.0
C1225 C 0.81807 0.43691 0.87965 0.0
C1226 C 0.79123 0.40794 0.88309 0.0
C1227 C 0.77347 0.38688 0.87246 0.0
C1228 C 0.78273 0.39455 0.85848 0.0
C1229 C 0.81033 0.42413 0.85529 0.0
H1230 H 0.89302 0.58412 0.12544 0.0
H1231 H 0.89629 0.64667 0.08649 0.0
H1232 H 0.86333 0.70298 0.09732 0.0
H1233 H 0.79872 0.61634 0.13587 0.0
H1234 H 0.81123 0.62102 0.15382 0.0
H1235 H 0.83673 0.58613 0.14319 0.0
H1236 H 0.90298 0.61784 0.15002 0.0
H1237 H 0.87761 0.65302 0.16061 0.0
H1238 H 0.91035 0.6696 0.14727 0.0
H1239 H 0.8273 0.75048 0.11167 0.0
H1240 H 0.78848 0.78679 0.12879 0.0
H1241 H 0.80966 0.69532 0.15892 0.0
C1242 C 0.88685 0.60967 0.11919 0.0
C1243 C 0.89717 0.61096 0.1051 0.0
C1244 C 0.88865 0.64497 0.09729 0.0
C1245 C 0.87009 0.67719 0.10336 0.0
C1246 C 0.86051 0.67503 0.11726 0.0
C1247 C 0.86854 0.64226 0.12511 0.0
C1248 C 0.85399 0.64728 0.13976 0.0
C1249 C 0.82334 0.61583 0.14336 0.0
C1250 C 0.88828 0.64692 0.15002 0.0
C1251 C 0.83566 0.68766 0.1388 0.0
C1252 C 0.8401 0.7031 0.12572 0.0
C1253 C 0.82393 0.73894 0.12197 0.0
C1254 C 0.80187 0.75923 0.13175 0.0
C1255 C 0.79634 0.74376 0.14512 0.0
C1256 C 0.81412 0.70795 0.14881 0.0
H1257 H 0.6898 0.69636 0.34344 0.0
H1258 H 0.78005 0.72295 0.37359 0.0
H1259 H 0.74455 0.6845 0.39093 0.0
H1260 H 0.60871 0.70194 0.36606 0.0
H1261 H 0.58242 0.66126 0.35864 0.0
H1262 H 0.61555 0.68957 0.34819 0.0
H1263 H 0.65363 0.62647 0.3418 0.0
H1264 H 0.62044 0.59787 0.35214 0.0
H1265 H 0.67243 0.5954 0.35528 0.0
H1266 H 0.69698 0.64888 0.40565 0.0
H1267 H 0.6432 0.61097 0.41625 0.0
H1268 H 0.58544 0.60291 0.37656 0.0
C1269 C 0.70232 0.69365 0.35364 0.0
C1270 C 0.7377 0.71286 0.35713 0.0
C1271 C 0.75307 0.70856 0.37061 0.0
C1272 C 0.73306 0.68684 0.38059 0.0
C1273 C 0.69793 0.66904 0.37692 0.0
C1274 C 0.68293 0.67153 0.36373 0.0
C1275 C 0.64448 0.64941 0.3626 0.0
C1276 C 0.61081 0.67721 0.35864 0.0
C1277 C 0.64797 0.61525 0.35235 0.0
C1278 C 0.64011 0.63465 0.37725 0.0
C1279 C 0.67114 0.64671 0.38535 0.0
C1280 C 0.6728 0.6387 0.3994 0.0
C1281 C 0.64208 0.61736 0.40533 0.0
C1282 C 0.61054 0.60376 0.39719 0.0
C1283 C 0.60961 0.61246 0.38296 0.0
H1284 H 0.39518 0.58197 0.37771 0.0
H1285 H 0.35119 0.59373 0.41932 0.0
H1286 H 0.28992 0.62248 0.41033 0.0
H1287 H 0.36645 0.67018 0.36654 0.0
H1288 H 0.35315 0.65583 0.3493 0.0
H1289 H 0.38869 0.62778 0.35868 0.0
H1290 H 0.3471 0.56489 0.35514 0.0
H1291 H 0.31125 0.59295 0.34571 0.0
H1292 H 0.29649 0.56439 0.36043 0.0
H1293 H 0.24104 0.66304 0.39737 0.0
H1294 H 0.20818 0.70926 0.38147 0.0
H1295 H 0.28348 0.66954 0.34838 0.0
C1296 C 0.37203 0.58938 0.38487 0.0
C1297 C 0.3777 0.58543 0.39916 0.0
C1298 C 0.3471 0.59587 0.40829 0.0
C1299 C 0.31222 0.61228 0.40328 0.0
C1300 C 0.30817 0.61737 0.38911 0.0
C1301 C 0.33706 0.60557 0.38002 0.0
C1302 C 0.328 0.61858 0.3655 0.0
C1303 C 0.36101 0.64464 0.35968 0.0
C1304 C 0.32024 0.58308 0.35614 0.0
C1305 C 0.29088 0.64171 0.36796 0.0
C1306 C 0.27939 0.64015 0.38159 0.0
C1307 C 0.24899 0.66352 0.3866 0.0
C1308 C 0.2306 0.68981 0.37753 0.0
C1309 C 0.24278 0.69244 0.36364 0.0
C1310 C 0.27244 0.66712 0.35879 0.0
H1311 H 0.19719 0.66262 0.15604 0.0
H1312 H 0.26371 0.70948 0.12196 0.0
H1313 H 0.24094 0.65484 0.10717 0.0
H1314 H 0.20236 0.55373 0.14595 0.0
H1315 H 0.15227 0.54663 0.15127 0.0
H1316 H 0.18285 0.58159 0.16015 0.0
H1317 H 0.13157 0.63613 0.15552 0.0
H1318 H 0.10103 0.60149 0.14673 0.0
H1319 H 0.11626 0.64571 0.13808 0.0
H1320 H 0.20119 0.60477 0.09517 0.0
H1321 H 0.14366 0.569 0.08641 0.0
H1322 H 0.10084 0.55502 0.12807 0.0
C1323 C 0.20827 0.66006 0.14564 0.0
C1324 C 0.23282 0.68921 0.14012 0.0
C1325 C 0.24551 0.68664 0.12633 0.0
C1326 C 0.2329 0.65564 0.11794 0.0
C1327 C 0.20753 0.62775 0.12353 0.0
C1328 C 0.19535 0.62971 0.13711 0.0
C1329 C 0.16241 0.6011 0.13993 0.0
C1330 C 0.17579 0.56884 0.14992 0.0
C1331 C 0.12568 0.6224 0.14537 0.0
C1332 C 0.15602 0.58476 0.12563 0.0
C1333 C 0.18331 0.59931 0.11642 0.0
C1334 C 0.18033 0.59231 0.10232 0.0
C1335 C 0.14761 0.57174 0.09743 0.0
C1336 C 0.11803 0.55906 0.10661 0.0
C1337 C 0.12341 0.56394 0.1209 0.0
H1338 H 0.10174 0.55514 0.88338 0.0
H1339 H 0.14413 0.53303 0.92472 0.0
H1340 H 0.2052 0.50597 0.91524 0.0
H1341 H 0.12626 0.46929 0.87064 0.0
H1342 H 0.14071 0.48513 0.85369 0.0
H1343 H 0.10678 0.51397 0.86344 0.0
H1344 H 0.15213 0.57459 0.86107 0.0
H1345 H 0.18639 0.54572 0.85123 0.0
H1346 H 0.2026 0.57134 0.86643 0.0
H1347 H 0.25148 0.46559 0.90191 0.0
H1348 H 0.27888 0.41664 0.88575 0.0
H1349 H 0.20796 0.46446 0.85294 0.0
C1350 C 0.12453 0.54586 0.89041 0.0
C1351 C 0.11826 0.54634 0.90476 0.0
C1352 C 0.14853 0.53368 0.91369 0.0
C1353 C 0.18341 0.51821 0.90838 0.0
C1354 C 0.18779 0.51607 0.89414 0.0
C1355 C 0.15935 0.53014 0.88526 0.0
C1356 C 0.16781 0.51853 0.87054 0.0
C1357 C 0.13338 0.49534 0.86423 0.0
C1358 C 0.17784 0.55471 0.8618 0.0
C1359 C 0.20349 0.49294 0.87266 0.0
C1360 C 0.21535 0.49282 0.88629 0.0
C1361 C 0.24361 0.46658 0.89113 0.0
C1362 C 0.25905 0.43893 0.88193 0.0
C1363 C 0.24616 0.438 0.86815 0.0
C1364 C 0.21924 0.46607 0.86335 0.0
H1365 H 0.27336 0.37334 0.61179 0.0
H1366 H 0.22902 0.44875 0.64411 0.0
H1367 H 0.25637 0.50627 0.63226 0.0
H1368 H 0.36061 0.41029 0.61136 0.0
H1369 H 0.37052 0.40746 0.59316 0.0
H1370 H 0.33557 0.37482 0.60075 0.0
H1371 H 0.28204 0.39848 0.58376 0.0
H1372 H 0.31721 0.4309 0.57586 0.0
H1373 H 0.27153 0.45011 0.58226 0.0
H1374 H 0.30339 0.55161 0.62104 0.0
H1375 H 0.36368 0.58023 0.61091 0.0
H1376 H 0.38051 0.47509 0.58674 0.0
C1377 C 0.26789 0.40223 0.61601 0.0
C1378 C 0.24905 0.40659 0.62882 0.0
C1379 C 0.24272 0.4447 0.63416 0.0
C1380 C 0.25833 0.47764 0.6275 0.0
C1381 C 0.2798 0.47197 0.61547 0.0
C1382 C 0.28395 0.43516 0.60961 0.0
C1383 C 0.31434 0.43534 0.5983 0.0
C1384 C 0.34717 0.40524 0.60108 0.0
C1385 C 0.29512 0.4283 0.58421 0.0
C1386 C 0.32907 0.47695 0.59953 0.0
C1387 C 0.30792 0.49815 0.60912 0.0
C1388 C 0.31935 0.53576 0.6132 0.0
C1389 C 0.3536 0.55173 0.60749 0.0
C1390 C 0.37603 0.52966 0.59808 0.0
C1391 C 0.36313 0.49245 0.5938 0.0
H1392 H 0.03384 0.88006 0.04511 0.0
H1393 H 0.03329 0.90764 0.08872 0.0
H1394 H 0.03276 0.83685 0.09413 0.0
H1395 H 0.96676 0.80207 0.04691 0.0
H1396 H 0.99054 0.77301 0.03387 0.0
H1397 H 0.99475 0.8256 0.03353 0.0
H1398 H 0.07047 0.8198 0.03369 0.0
H1399 H 0.0665 0.76711 0.03402 0.0
H1400 H 0.09423 0.79218 0.04713 0.0
H1401 H 0.02705 0.76279 0.09464 0.0
H1402 H 0.0182 0.69199 0.09026 0.0
H1403 H 0.02053 0.71394 0.04629 0.0
C1404 C 0.03366 0.87141 0.05581 0.0
C1405 C 0.03343 0.89962 0.06648 0.0
C1406 C 0.03387 0.88673 0.08035 0.0
C1407 C 0.0334 0.84654 0.08352 0.0
C1408 C 0.03272 0.81963 0.07272 0.0
C1409 C 0.03308 0.83159 0.05914 0.0
C1410 C 0.03047 0.79707 0.0494 0.0
C1411 C 0.99342 0.7996 0.0404 0.0
C1412 C 0.06764 0.79386 0.04054 0.0
C1413 C 0.02783 0.76372 0.05961 0.0
C1414 C 0.0294 0.77724 0.07301 0.0
C1415 C 0.02602 0.75189 0.08419 0.0
C1416 C 0.0207 0.71175 0.08159 0.0
C1417 C 0.01865 0.69734 0.06792 0.0
C1418 C 0.02263 0.72383 0.05684 0.0
H1419 H 0.40679 0.83414 0.31514 0.0
H1420 H 0.39461 0.70853 0.30952 0.0
H1421 H 0.46646 0.70098 0.31145 0.0
H1422 H 0.49479 0.84563 0.2959 0.0
H1423 H 0.51483 0.88227 0.30727 0.0
H1424 H 0.46257 0.87724 0.30554 0.0
H1425 H 0.45639 0.86795 0.33193 0.0
H1426 H 0.50869 0.87274 0.33374 0.0
H1427 H 0.48417 0.82984 0.34031 0.0
H1428 H 0.54017 0.70752 0.31438 0.0
H1429 H 0.6095 0.72839 0.31622 0.0
H1430 H 0.57201 0.84935 0.32017 0.0
C1431 C 0.4191 0.80499 0.31441 0.0
C1432 C 0.39504 0.77191 0.3122 0.0
C1433 C 0.41252 0.73435 0.31104 0.0
C1434 C 0.45325 0.72973 0.31225 0.0
C1435 C 0.47604 0.76298 0.3146 0.0
C1436 C 0.45955 0.79989 0.31557 0.0
C1437 C 0.49036 0.83106 0.31784 0.0
C1438 C 0.49065 0.86079 0.30592 0.0
C1439 C 0.48455 0.8516 0.33178 0.0
C1440 C 0.52687 0.80601 0.31784 0.0
C1441 C 0.51812 0.76676 0.31612 0.0
C1442 C 0.54735 0.73819 0.31573 0.0
C1443 C 0.58659 0.75025 0.31687 0.0
C1444 C 0.59609 0.7905 0.31823 0.0
C1445 C 0.56567 0.81846 0.31894 0.0
H1446 H 0.47561 0.21987 0.56108 0.0
H1447 H 0.5989 0.20404 0.552 0.0
H1448 H 0.60809 0.27591 0.5517 0.0
H1449 H 0.46184 0.30363 0.53908 0.0
H1450 H 0.4281 0.3279 0.55052 0.0
H1451 H 0.43144 0.27519 0.5505 0.0
H1452 H 0.4458 0.27584 0.57669 0.0
H1453 H 0.44248 0.32857 0.57678 0.0
H1454 H 0.48599 0.30477 0.58317 0.0
H1455 H 0.6043 0.34939 0.55294 0.0
H1456 H 0.58663 0.41975 0.55402 0.0
H1457 H 0.46534 0.38827 0.56119 0.0
C1458 C 0.50453 0.23164 0.55913 0.0
C1459 C 0.53661 0.20645 0.55658 0.0
C1460 C 0.57393 0.22287 0.55385 0.0
C1461 C 0.57945 0.26361 0.55374 0.0
C1462 C 0.54726 0.28765 0.55625 0.0
C1463 C 0.51044 0.27235 0.55877 0.0
C1464 C 0.48054 0.30479 0.56068 0.0
C1465 C 0.4486 0.30275 0.54953 0.0
C1466 C 0.46266 0.3034 0.57519 0.0
C1467 C 0.50633 0.34063 0.55883 0.0
C1468 C 0.5448 0.33007 0.55644 0.0
C1469 C 0.57423 0.35803 0.55474 0.0
C1470 C 0.56402 0.39785 0.55542 0.0
C1471 C 0.52468 0.40933 0.55759 0.0
C1472 C 0.49555 0.38025 0.55931 0.0
H1473 H 0.09605 0.32489 0.83052 0.0
H1474 H 0.11851 0.37252 0.78991 0.0
H1475 H 0.04756 0.3739 0.78518 0.0
H1476 H 0.0158 0.26268 0.82099 0.0
H1477 H 0.98803 0.27161 0.83644 0.0
H1478 H 0.04067 0.27498 0.83678 0.0
H1479 H 0.03566 0.34572 0.84635 0.0
H1480 H 0.98296 0.34266 0.84595 0.0
H1481 H 0.00765 0.38187 0.83704 0.0
H1482 H 0.97532 0.36695 0.78424 0.0
H1483 H 0.90473 0.35291 0.7874 0.0
H1484 H 0.92728 0.3129 0.82892 0.0
C1485 C 0.08588 0.33546 0.82064 0.0
C1486 C 0.11269 0.34871 0.81058 0.0
C1487 C 0.09842 0.3627 0.7978 0.0
C1488 C 0.05821 0.3635 0.79501 0.0
C1489 C 0.03254 0.35059 0.80516 0.0
C1490 C 0.04563 0.33697 0.81775 0.0
C1491 C 0.01153 0.32469 0.8268 0.0
C1492 C 0.01417 0.28089 0.83046 0.0
C1493 C 0.00933 0.35027 0.8398 0.0
C1494 C 0.97738 0.33288 0.81721 0.0
C1495 C 0.99032 0.34781 0.80479 0.0
C1496 C 0.96474 0.35577 0.79397 0.0
C1497 C 0.92488 0.34779 0.79583 0.0
C1498 C 0.911 0.3325 0.80842 0.0
C1499 C 0.93741 0.32543 0.81932 0.0
H1500 H 0.99555 0.22262 0.95658 0.0
H1501 H 0.02493 0.20683 0.91349 0.0
H1502 H 0.02536 0.27873 0.91034 0.0
H1503 H 0.92988 0.30241 0.95191 0.0
H1504 H 0.9446 0.32745 0.96741 0.0
H1505 H 0.94845 0.27489 0.96635 0.0
H1506 H 0.02226 0.2791 0.97247 0.0
H1507 H 0.01864 0.33171 0.97356 0.0
H1508 H 0.05412 0.30957 0.96224 0.0
H1509 H 0.01917 0.35254 0.91173 0.0
H1510 H 0.00949 0.42229 0.91773 0.0
H1511 H 0.98375 0.38918 0.95986 0.0
C1512 C 0.00199 0.23419 0.94646 0.0
C1513 C 0.0101 0.209 0.93527 0.0
C1514 C 0.01902 0.22548 0.92226 0.0
C1515 C 0.01913 0.2663 0.92035 0.0
C1516 C 0.01049 0.29021 0.93158 0.0
C1517 C 0.00233 0.27474 0.9444 0.0
C1518 C 0.99351 0.30666 0.95477 0.0
C1519 C 0.95163 0.3026 0.96043 0.0
C1520 C 0.02396 0.30676 0.96645 0.0
C1521 C 0.99755 0.34258 0.94575 0.0
C1522 C 0.00733 0.33252 0.93241 0.0
C1523 C 0.01165 0.36074 0.92215 0.0
C1524 C 0.00582 0.40025 0.92564 0.0
C1525 C 0.99587 0.41119 0.93927 0.0
C1526 C 0.99187 0.38182 0.94942 0.0
H1527 H 0.07442 0.76463 0.18652 0.0
H1528 H 0.11109 0.8836 0.19566 0.0
H1529 H 0.04179 0.90389 0.19738 0.0
H1530 H 0.99128 0.79072 0.1656 0.0
H1531 H 0.9611 0.75101 0.17171 0.0
H1532 H 0.01358 0.74566 0.17133 0.0
H1533 H 0.0137 0.72874 0.19733 0.0
H1534 H 0.96121 0.73393 0.19778 0.0
H1535 H 0.99134 0.76215 0.20936 0.0
H1536 H 0.96895 0.91095 0.19854 0.0
H1537 H 0.89695 0.90498 0.1984 0.0
H1538 H 0.90707 0.78159 0.18815 0.0
C1539 C 0.06782 0.79486 0.18899 0.0
C1540 C 0.09811 0.82258 0.19099 0.0
C1541 C 0.08833 0.86202 0.19397 0.0
C1542 C 0.04909 0.87374 0.19503 0.0
C1543 C 0.01997 0.84572 0.19297 0.0
C1544 C 0.02878 0.80713 0.18995 0.0
C1545 C 0.99184 0.78302 0.18801 0.0
C1546 C 0.98931 0.76665 0.17329 0.0
C1547 C 0.98939 0.75001 0.19876 0.0
C1548 C 0.9609 0.81406 0.1905 0.0
C1549 C 0.97782 0.84996 0.19339 0.0
C1550 C 0.95536 0.88301 0.19628 0.0
C1551 C 0.9145 0.87927 0.19626 0.0
C1552 C 0.89642 0.84281 0.1933 0.0
C1553 C 0.92006 0.80988 0.19031 0.0
H1554 H 0.49642 0.73298 0.45802 0.0
H1555 H 0.52099 0.71437 0.41467 0.0
H1556 H 0.52116 0.78585 0.41095 0.0
H1557 H 0.43014 0.81342 0.45324 0.0
H1558 H 0.44637 0.8393 0.46838 0.0
H1559 H 0.44955 0.78662 0.46772 0.0
H1560 H 0.52381 0.79049 0.47312 0.0
H1561 H 0.52087 0.84321 0.47376 0.0
H1562 H 0.55519 0.81981 0.46231 0.0
H1563 H 0.51717 0.85958 0.41183 0.0
H1564 H 0.50946 0.92979 0.41726 0.0
H1565 H 0.48562 0.90025 0.45989 0.0
C1566 C 0.50166 0.74378 0.44772 0.0
C1567 C 0.50886 0.71773 0.43666 0.0
C1568 C 0.51603 0.73346 0.42338 0.0
C1569 C 0.51596 0.77412 0.42114 0.0
C1570 C 0.50866 0.79882 0.43226 0.0
C1571 C 0.50163 0.78426 0.44529 0.0
C1572 C 0.494 0.8171 0.45545 0.0
C1573 C 0.45255 0.81391 0.46155 0.0
C1574 C 0.52534 0.81768 0.46683 0.0
C1575 C 0.49769 0.85243 0.44609 0.0
C1576 C 0.50619 0.84125 0.43276 0.0
C1577 C 0.51048 0.86866 0.42224 0.0
C1578 C 0.50579 0.90852 0.42541 0.0
C1579 C 0.49682 0.92074 0.439 0.0
C1580 C 0.49296 0.89209 0.44945 0.0
H1581 H 0.589 0.30877 0.67376 0.0
H1582 H 0.60052 0.34234 0.71657 0.0
H1583 H 0.52851 0.34725 0.71857 0.0
H1584 H 0.50526 0.3706 0.66563 0.0
H1585 H 0.48229 0.33454 0.65471 0.0
H1586 H 0.53482 0.33538 0.65649 0.0
H1587 H 0.53375 0.26253 0.66405 0.0
H1588 H 0.48117 0.26157 0.66244 0.0
H1589 H 0.50394 0.24802 0.67849 0.0
H1590 H 0.45603 0.34935 0.71594 0.0
H1591 H 0.38632 0.34754 0.70881 0.0
H1592 H 0.42042 0.30857 0.66818 0.0
C1593 C 0.57615 0.31762 0.68346 0.0
C1594 C 0.60001 0.32539 0.69502 0.0
C1595 C 0.58249 0.33621 0.70765 0.0
C1596 C 0.54174 0.33909 0.70886 0.0
C1597 C 0.5189 0.33058 0.69737 0.0
C1598 C 0.53532 0.31995 0.68491 0.0
C1599 C 0.50381 0.31124 0.67432 0.0
C1600 C 0.50672 0.33964 0.66206 0.0
C1601 C 0.5058 0.26829 0.66955 0.0
C1602 C 0.46723 0.31884 0.68277 0.0
C1603 C 0.47673 0.3302 0.69602 0.0
C1604 C 0.44818 0.34021 0.70564 0.0
C1605 C 0.40885 0.33906 0.70156 0.0
C1606 C 0.39852 0.32745 0.68808 0.0
C1607 C 0.42794 0.31681 0.67861 0.0
loop_
_geom_bond_atom_site_label_1
_geom_bond_atom_site_label_2
_geom_bond_distance
_geom_bond_site_symmetry_2
_ccdc_geom_bond_type
C0 C1 1.351 . S
C0 N3 1.368 1_655 S
C0 H5 0.931 . S
C1 C0 1.351 . S
C1 N2 1.373 1_655 S
C1 H29 0.930 . S
N2 C1 1.373 1_455 S
N2 C4 1.340 . S
N3 C0 1.368 1_455 S
N3 C4 1.321 . S
N3 Co6 2.135 1_565 S
C4 N2 1.340 . S
C4 N3 1.321 . S
C4 H28 0.930 . S
H5 C0 0.931 . S
Co6 N3 2.135 1_545 S
Co6 N9 2.121 . S
Co6 O14 2.055 . S
Co6 O17 2.039 . S
Co6 N20 2.140 1_455 S
C7 O8 1.227 . S
C7 O17 1.265 . S
O8 C7 1.227 . S
N9 Co6 2.121 . S
N9 C11 1.375 . S
N9 C12 1.313 . S
C10 C11 1.338 . S
C10 N13 1.377 . S
C10 H30 0.930 . S
C11 N9 1.375 . S
C11 C10 1.338 . S
C11 H15 0.931 . S
C12 N9 1.313 . S
C12 N13 1.344 . S
C12 H16 0.930 . S
N13 C10 1.377 . S
N13 C12 1.344 . S
O14 Co6 2.055 . S
O14 C18 1.253 . S
H15 C11 0.931 . S
H16 C12 0.930 . S
O17 Co6 2.039 . S
O17 C7 1.265 . S
C18 O14 1.253 . S
C18 O19 1.227 1_455 S
O19 C18 1.227 1_655 S
N20 Co6 2.140 1_655 S
N20 C23 1.346 . S
N20 C24 1.345 . S
C21 C22 1.387 . S
C21 C25 1.391 . S
C22 C21 1.387 . S
C22 C23 1.369 . S
C22 H31 0.929 1_545 S
C23 N20 1.346 . S
C23 C22 1.369 . S
C23 H26 0.928 1_545 S
C24 N20 1.345 . S
C24 C25 1.371 . S
C24 H27 0.931 . S
C25 C21 1.391 . S
C25 C24 1.371 . S
C25 H32 0.930 . S
H26 C23 0.928 1_565 S
H27 C24 0.931 . S
H28 C4 0.930 . S
H29 C1 0.930 . S
H30 C10 0.930 . S
H31 C22 0.929 1_565 S
H32 C25 0.930 . S
C33 C34 1.351 . S
C33 N36 1.368 . S
C33 H38 0.931 . S
C34 C33 1.351 . S
C34 N35 1.373 . S
C34 H62 0.930 . S
N35 C34 1.373 . S
N35 C37 1.340 . S
N36 C33 1.368 . S
N36 C37 1.321 . S
N36 Co39 2.135 . S
C37 N35 1.340 . S
C37 N36 1.321 . S
C37 H61 0.930 . S
H38 C33 0.931 . S
Co39 N36 2.135 . S
Co39 N42 2.121 . S
Co39 O47 2.055 . S
Co39 O50 2.039 . S
Co39 N53 2.140 . S
C40 O41 1.227 . S
C40 O50 1.265 . S
O41 C40 1.227 . S
N42 Co39 2.121 . S
N42 C44 1.375 . S
N42 C45 1.313 . S
C43 C44 1.338 . S
C43 N46 1.377 . S
C43 H63 0.930 . S
C44 N42 1.375 . S
C44 C43 1.338 . S
C44 H48 0.931 . S
C45 N42 1.313 . S
C45 N46 1.344 . S
C45 H49 0.930 . S
N46 C43 1.377 . S
N46 C45 1.344 . S
O47 Co39 2.055 . S
O47 C51 1.253 . S
H48 C44 0.931 . S
H49 C45 0.930 . S
O50 Co39 2.039 . S
O50 C40 1.265 . S
C51 O47 1.253 . S
C51 O52 1.227 . S
O52 C51 1.227 . S
N53 Co39 2.140 . S
N53 C56 1.346 . S
N53 C57 1.345 . S
C54 C55 1.387 . S
C54 C58 1.391 . S
C55 C54 1.387 . S
C55 C56 1.369 . S
C55 H64 0.929 . S
C56 N53 1.346 . S
C56 C55 1.369 . S
C56 H59 0.928 . S
C57 N53 1.345 . S
C57 C58 1.371 . S
C57 H60 0.931 . S
C58 C54 1.391 . S
C58 C57 1.371 . S
C58 H65 0.930 . S
H59 C56 0.928 . S
H60 C57 0.931 . S
H61 C37 0.930 . S
H62 C34 0.930 . S
H63 C43 0.930 . S
H64 C55 0.929 . S
H65 C58 0.930 . S
C66 C67 1.351 . S
C66 N69 1.368 . S
C66 H71 0.931 . S
C67 C66 1.351 . S
C67 N68 1.373 . S
C67 H95 0.930 . S
N68 C67 1.373 . S
N68 C70 1.340 . S
N69 C66 1.368 . S
N69 C70 1.321 . S
N69 Co72 2.135 . S
C70 N68 1.340 . S
C70 N69 1.321 . S
C70 H94 0.930 . S
H71 C66 0.931 . S
Co72 N69 2.135 . S
Co72 N75 2.121 . S
Co72 O80 2.055 . S
Co72 O83 2.039 . S
Co72 N86 2.140 . S
C73 O74 1.227 . S
C73 O83 1.265 . S
O74 C73 1.227 . S
N75 Co72 2.121 . S
N75 C77 1.375 . S
N75 C78 1.313 1_545 S
C76 C77 1.338 1_565 S
C76 N79 1.377 . S
C76 H96 0.930 . S
C77 N75 1.375 . S
C77 C76 1.338 1_545 S
C77 H81 0.931 . S
C78 N75 1.313 1_565 S
C78 N79 1.344 . S
C78 H82 0.930 . S
N79 C76 1.377 . S
N79 C78 1.344 . S
O80 Co72 2.055 . S
O80 C84 1.253 . S
H81 C77 0.931 . S
H82 C78 0.930 . S
O83 Co72 2.039 . S
O83 C73 1.265 . S
C84 O80 1.253 . S
C84 O85 1.227 . S
O85 C84 1.227 . S
N86 Co72 2.140 . S
N86 C89 1.346 . S
N86 C90 1.345 . S
C87 C88 1.387 . S
C87 C91 1.391 . S
C88 C87 1.387 . S
C88 C89 1.369 . S
C88 H97 0.929 . S
C89 N86 1.346 . S
C89 C88 1.369 . S
C89 H92 0.928 . S
C90 N86 1.345 . S
C90 C91 1.371 . S
C90 H93 0.931 . S
C91 C87 1.391 . S
C91 C90 1.371 . S
C91 H98 0.930 . S
H92 C89 0.928 . S
H93 C90 0.931 . S
H94 C70 0.930 . S
H95 C67 0.930 . S
H96 C76 0.930 . S
H97 C88 0.929 . S
H98 C91 0.930 . S
C99 C100 1.351 . S
C99 N102 1.368 . S
C99 H104 0.931 . S
C100 C99 1.351 . S
C100 N101 1.373 . S
C100 H128 0.930 . S
N101 C100 1.373 . S
N101 C103 1.340 . S
N102 C99 1.368 . S
N102 C103 1.321 . S
N102 Co105 2.135 . S
C103 N101 1.340 . S
C103 N102 1.321 . S
C103 H127 0.930 . S
H104 C99 0.931 . S
Co105 N102 2.135 . S
Co105 N108 2.121 . S
Co105 O113 2.055 . S
Co105 O116 2.039 . S
Co105 N119 2.140 . S
C106 O107 1.227 . S
C106 O116 1.265 . S
O107 C106 1.227 . S
N108 Co105 2.121 . S
N108 C110 1.375 . S
N108 C111 1.313 . S
C109 C110 1.338 . S
C109 N112 1.377 . S
C109 H129 0.930 . S
C110 N108 1.375 . S
C110 C109 1.338 . S
C110 H114 0.931 . S
C111 N108 1.313 . S
C111 N112 1.344 . S
C111 H115 0.930 . S
N112 C109 1.377 . S
N112 C111 1.344 . S
O113 Co105 2.055 . S
O113 C117 1.253 . S
H114 C110 0.931 . S
H115 C111 0.930 . S
O116 Co105 2.039 . S
O116 C106 1.265 . S
C117 O113 1.253 . S
C117 O118 1.227 . S
O118 C117 1.227 . S
N119 Co105 2.140 . S
N119 C122 1.346 . S
N119 C123 1.345 . S
C120 C121 1.387 . S
C120 C124 1.391 . S
C121 C120 1.387 . S
C121 C122 1.369 . S
C121 H130 0.929 . S
C122 N119 1.346 . S
C122 C121 1.369 . S
C122 H125 0.928 . S
C123 N119 1.345 . S
C123 C124 1.371 . S
C123 H126 0.931 . S
C124 C120 1.391 . S
C124 C123 1.371 . S
C124 H131 0.930 . S
H125 C122 0.928 . S
H126 C123 0.931 . S
H127 C103 0.930 . S
H128 C100 0.930 . S
H129 C109 0.930 . S
H130 C121 0.929 . S
H131 C124 0.930 . S
C132 C133 1.351 . S
C132 N135 1.368 1_655 S
C132 H137 0.931 . S
C133 C132 1.351 . S
C133 N134 1.373 1_655 S
C133 H161 0.930 . S
N134 C133 1.373 1_455 S
N134 C136 1.340 . S
N135 C132 1.368 1_455 S
N135 C136 1.321 . S
N135 Co138 2.135 . S
C136 N134 1.340 . S
C136 N135 1.321 . S
C136 H160 0.930 . S
H137 C132 0.931 . S
Co138 N135 2.135 . S
Co138 N141 2.121 . S
Co138 O146 2.055 . S
Co138 O149 2.039 . S
Co138 N152 2.140 1_455 S
C139 O140 1.227 . S
C139 O149 1.265 . S
O140 C139 1.227 . S
N141 Co138 2.121 . S
N141 C143 1.375 . S
N141 C144 1.313 1_545 S
C142 C143 1.338 1_565 S
C142 N145 1.377 . S
C142 H162 0.930 . S
C143 N141 1.375 . S
C143 C142 1.338 1_545 S
C143 H147 0.931 . S
C144 N141 1.313 1_565 S
C144 N145 1.344 . S
C144 H148 0.930 . S
N145 C142 1.377 . S
N145 C144 1.344 . S
O146 Co138 2.055 . S
O146 C150 1.253 . S
H147 C143 0.931 . S
H148 C144 0.930 . S
O149 Co138 2.039 . S
O149 C139 1.265 . S
C150 O146 1.253 . S
C150 O151 1.227 1_455 S
O151 C150 1.227 1_655 S
N152 Co138 2.140 1_655 S
N152 C155 1.346 . S
N152 C156 1.345 . S
C153 C154 1.387 . S
C153 C157 1.391 . S
C154 C153 1.387 . S
C154 C155 1.369 . S
C154 H163 0.929 . S
C155 N152 1.346 . S
C155 C154 1.369 . S
C155 H158 0.928 . S
C156 N152 1.345 . S
C156 C157 1.371 . S
C156 H159 0.931 . S
C157 C153 1.391 . S
C157 C156 1.371 . S
C157 H164 0.930 . S
H158 C155 0.928 . S
H159 C156 0.931 . S
H160 C136 0.930 . S
H161 C133 0.930 . S
H162 C142 0.930 . S
H163 C154 0.929 . S
H164 C157 0.930 . S
C165 C166 1.351 . S
C165 N168 1.368 . S
C165 H170 0.931 . S
C166 C165 1.351 . S
C166 N167 1.373 . S
C166 H194 0.930 . S
N167 C166 1.373 . S
N167 C169 1.340 . S
N168 C165 1.368 . S
N168 C169 1.321 . S
N168 Co171 2.135 . S
C169 N167 1.340 . S
C169 N168 1.321 . S
C169 H193 0.930 . S
H170 C165 0.931 . S
Co171 N168 2.135 . S
Co171 N174 2.121 . S
Co171 O179 2.055 . S
Co171 O182 2.039 . S
Co171 N185 2.140 . S
C172 O173 1.227 . S
C172 O182 1.265 . S
O173 C172 1.227 . S
N174 Co171 2.121 . S
N174 C176 1.375 . S
N174 C177 1.313 . S
C175 C176 1.338 . S
C175 N178 1.377 . S
C175 H195 0.930 . S
C176 N174 1.375 . S
C176 C175 1.338 . S
C176 H180 0.931 . S
C177 N174 1.313 . S
C177 N178 1.344 . S
C177 H181 0.930 . S
N178 C175 1.377 . S
N178 C177 1.344 . S
O179 Co171 2.055 . S
O179 C183 1.253 . S
H180 C176 0.931 . S
H181 C177 0.930 . S
O182 Co171 2.039 . S
O182 C172 1.265 . S
C183 O179 1.253 . S
C183 O184 1.227 . S
O184 C183 1.227 . S
N185 Co171 2.140 . S
N185 C188 1.346 . S
N185 C189 1.345 . S
C186 C187 1.387 . S
C186 C190 1.391 . S
C187 C186 1.387 . S
C187 C188 1.369 . S
C187 H196 0.929 . S
C188 N185 1.346 . S
C188 C187 1.369 . S
C188 H191 0.928 . S
C189 N185 1.345 . S
C189 C190 1.371 . S
C189 H192 0.931 . S
C190 C186 1.391 . S
C190 C189 1.371 . S
C190 H197 0.930 . S
H191 C188 0.928 . S
H192 C189 0.931 . S
H193 C169 0.930 . S
H194 C166 0.930 . S
H195 C175 0.930 . S
H196 C187 0.929 . S
H197 C190 0.930 . S
C198 C199 1.351 . S
C198 N201 1.368 . S
C198 H203 0.931 . S
C199 C198 1.351 . S
C199 N200 1.373 . S
C199 H227 0.930 . S
N200 C199 1.373 . S
N200 C202 1.340 . S
N201 C198 1.368 . S
N201 C202 1.321 . S
N201 Co204 2.135 1_565 S
C202 N200 1.340 . S
C202 N201 1.321 . S
C202 H226 0.930 . S
H203 C198 0.931 . S
Co204 N201 2.135 1_545 S
Co204 N207 2.121 . S
Co204 O212 2.055 . S
Co204 O215 2.039 . S
Co204 N218 2.140 . S
C205 O206 1.227 . S
C205 O215 1.265 . S
O206 C205 1.227 . S
N207 Co204 2.121 . S
N207 C209 1.375 . S
N207 C210 1.313 . S
C208 C209 1.338 . S
C208 N211 1.377 . S
C208 H228 0.930 . S
C209 N207 1.375 . S
C209 C208 1.338 . S
C209 H213 0.931 . S
C210 N207 1.313 . S
C210 N211 1.344 . S
C210 H214 0.930 . S
N211 C208 1.377 . S
N211 C210 1.344 . S
O212 Co204 2.055 . S
O212 C216 1.253 . S
H213 C209 0.931 . S
H214 C210 0.930 . S
O215 Co204 2.039 . S
O215 C205 1.265 . S
C216 O212 1.253 . S
C216 O217 1.227 . S
O217 C216 1.227 . S
N218 Co204 2.140 . S
N218 C221 1.346 . S
N218 C222 1.345 . S
C219 C220 1.387 . S
C219 C223 1.391 . S
C220 C219 1.387 . S
C220 C221 1.369 . S
C220 H229 0.929 1_545 S
C221 N218 1.346 . S
C221 C220 1.369 . S
C221 H224 0.928 1_545 S
C222 N218 1.345 . S
C222 C223 1.371 . S
C222 H225 0.931 . S
C223 C219 1.391 . S
C223 C222 1.371 . S
C223 H230 0.930 . S
H224 C221 0.928 1_565 S
H225 C222 0.931 . S
H226 C202 0.930 . S
H227 C199 0.930 . S
H228 C208 0.930 . S
H229 C220 0.929 1_565 S
H230 C223 0.930 . S
C231 C232 1.351 . S
C231 N234 1.368 . S
C231 H236 0.931 . S
C232 C231 1.351 . S
C232 N233 1.373 . S
C232 H260 0.930 . S
N233 C232 1.373 . S
N233 C235 1.340 . S
N234 C231 1.368 . S
N234 C235 1.321 . S
N234 Co237 2.135 . S
C235 N233 1.340 . S
C235 N234 1.321 . S
C235 H259 0.930 . S
H236 C231 0.931 . S
Co237 N234 2.135 . S
Co237 N240 2.121 . S
Co237 O245 2.055 . S
Co237 O248 2.039 . S
Co237 N251 2.140 . S
C238 O239 1.227 . S
C238 O248 1.265 . S
O239 C238 1.227 . S
N240 Co237 2.121 . S
N240 C242 1.375 . S
N240 C243 1.313 . S
C241 C242 1.338 . S
C241 N244 1.377 . S
C241 H261 0.930 . S
C242 N240 1.375 . S
C242 C241 1.338 . S
C242 H246 0.931 . S
C243 N240 1.313 . S
C243 N244 1.344 . S
C243 H247 0.930 . S
N244 C241 1.377 . S
N244 C243 1.344 . S
O245 Co237 2.055 . S
O245 C249 1.253 . S
H246 C242 0.931 . S
H247 C243 0.930 . S
O248 Co237 2.039 . S
O248 C238 1.265 . S
C249 O245 1.253 . S
C249 O250 1.227 . S
O250 C249 1.227 . S
N251 Co237 2.140 . S
N251 C254 1.346 . S
N251 C255 1.345 . S
C252 C253 1.387 . S
C252 C256 1.391 . S
C253 C252 1.387 . S
C253 C254 1.369 . S
C253 H262 0.929 . S
C254 N251 1.346 . S
C254 C253 1.369 . S
C254 H257 0.928 . S
C255 N251 1.345 . S
C255 C256 1.371 . S
C255 H258 0.931 . S
C256 C252 1.391 . S
C256 C255 1.371 . S
C256 H263 0.930 . S
H257 C254 0.928 . S
H258 C255 0.931 . S
H259 C235 0.930 . S
H260 C232 0.930 . S
H261 C241 0.930 . S
H262 C253 0.929 . S
H263 C256 0.930 . S
C264 C265 1.351 . S
C264 N267 1.368 . S
C264 H269 0.931 . S
C265 C264 1.351 . S
C265 N266 1.373 . S
C265 H293 0.930 . S
N266 C265 1.373 . S
N266 C268 1.340 . S
N267 C264 1.368 . S
N267 C268 1.321 . S
N267 Co270 2.135 . S
C268 N266 1.340 . S
C268 N267 1.321 . S
C268 H292 0.930 . S
H269 C264 0.931 . S
Co270 N267 2.135 . S
Co270 N273 2.121 . S
Co270 O278 2.055 . S
Co270 O281 2.039 . S
Co270 N284 2.140 . S
C271 O272 1.227 . S
C271 O281 1.265 . S
O272 C271 1.227 . S
N273 Co270 2.121 . S
N273 C275 1.375 . S
N273 C276 1.313 . S
C274 C275 1.338 . S
C274 N277 1.377 . S
C274 H294 0.930 . S
C275 N273 1.375 . S
C275 C274 1.338 . S
C275 H279 0.931 . S
C276 N273 1.313 . S
C276 N277 1.344 . S
C276 H280 0.930 . S
N277 C274 1.377 . S
N277 C276 1.344 . S
O278 Co270 2.055 . S
O278 C282 1.253 . S
H279 C275 0.931 . S
H280 C276 0.930 . S
O281 Co270 2.039 . S
O281 C271 1.265 . S
C282 O278 1.253 . S
C282 O283 1.227 . S
O283 C282 1.227 . S
N284 Co270 2.140 . S
N284 C287 1.346 . S
N284 C288 1.345 . S
C285 C286 1.387 . S
C285 C289 1.391 . S
C286 C285 1.387 . S
C286 C287 1.369 . S
C286 H295 0.929 . S
C287 N284 1.346 . S
C287 C286 1.369 . S
C287 H290 0.928 . S
C288 N284 1.345 . S
C288 C289 1.371 . S
C288 H291 0.931 . S
C289 C285 1.391 . S
C289 C288 1.371 . S
C289 H296 0.930 . S
H290 C287 0.928 . S
H291 C288 0.931 . S
H292 C268 0.930 . S
H293 C265 0.930 . S
H294 C274 0.930 . S
H295 C286 0.929 . S
H296 C289 0.930 . S
C297 C298 1.351 . S
C297 N300 1.368 . S
C297 H302 0.931 . S
C298 C297 1.351 . S
C298 N299 1.373 . S
C298 H326 0.930 . S
N299 C298 1.373 . S
N299 C301 1.340 . S
N300 C297 1.368 . S
N300 C301 1.321 . S
N300 Co303 2.135 . S
C301 N299 1.340 . S
C301 N300 1.321 . S
C301 H325 0.930 . S
H302 C297 0.931 . S
Co303 N300 2.135 . S
Co303 N306 2.121 . S
Co303 O311 2.055 . S
Co303 O314 2.039 . S
Co303 N317 2.140 . S
C304 O305 1.227 . S
C304 O314 1.265 . S
O305 C304 1.227 . S
N306 Co303 2.121 . S
N306 C308 1.375 . S
N306 C309 1.313 . S
C307 C308 1.338 . S
C307 N310 1.377 . S
C307 H327 0.930 . S
C308 N306 1.375 . S
C308 C307 1.338 . S
C308 H312 0.931 . S
C309 N306 1.313 . S
C309 N310 1.344 . S
C309 H313 0.930 . S
N310 C307 1.377 . S
N310 C309 1.344 . S
O311 Co303 2.055 . S
O311 C315 1.253 . S
H312 C308 0.931 . S
H313 C309 0.930 . S
O314 Co303 2.039 . S
O314 C304 1.265 . S
C315 O311 1.253 . S
C315 O316 1.227 . S
O316 C315 1.227 . S
N317 Co303 2.140 . S
N317 C320 1.346 . S
N317 C321 1.345 . S
C318 C319 1.387 . S
C318 C322 1.391 . S
C319 C318 1.387 . S
C319 C320 1.369 . S
C319 H328 0.929 . S
C320 N317 1.346 . S
C320 C319 1.369 . S
C320 H323 0.928 . S
C321 N317 1.345 . S
C321 C322 1.371 . S
C321 H324 0.931 . S
C322 C318 1.391 . S
C322 C321 1.371 . S
C322 H329 0.930 . S
H323 C320 0.928 . S
H324 C321 0.931 . S
H325 C301 0.930 . S
H326 C298 0.930 . S
H327 C307 0.930 . S
H328 C319 0.929 . S
H329 C322 0.930 . S
C330 C331 1.351 . S
C330 N333 1.368 . S
C330 H335 0.931 . S
C331 C330 1.351 . S
C331 N332 1.373 . S
C331 H359 0.930 . S
N332 C331 1.373 . S
N332 C334 1.340 . S
N333 C330 1.368 . S
N333 C334 1.321 . S
N333 Co336 2.135 . S
C334 N332 1.340 . S
C334 N333 1.321 . S
C334 H358 0.930 . S
H335 C330 0.931 . S
Co336 N333 2.135 . S
Co336 N339 2.121 . S
Co336 O344 2.055 . S
Co336 O347 2.039 . S
Co336 N350 2.140 . S
C337 O338 1.227 . S
C337 O347 1.265 . S
O338 C337 1.227 . S
N339 Co336 2.121 . S
N339 C341 1.375 . S
N339 C342 1.313 . S
C340 C341 1.338 . S
C340 N343 1.377 . S
C340 H360 0.930 . S
C341 N339 1.375 . S
C341 C340 1.338 . S
C341 H345 0.931 . S
C342 N339 1.313 . S
C342 N343 1.344 . S
C342 H346 0.930 . S
N343 C340 1.377 . S
N343 C342 1.344 . S
O344 Co336 2.055 . S
O344 C348 1.253 . S
H345 C341 0.931 . S
H346 C342 0.930 . S
O347 Co336 2.039 . S
O347 C337 1.265 . S
C348 O344 1.253 . S
C348 O349 1.227 . S
O349 C348 1.227 . S
N350 Co336 2.140 . S
N350 C353 1.346 . S
N350 C354 1.345 . S
C351 C352 1.387 . S
C351 C355 1.391 . S
C352 C351 1.387 . S
C352 C353 1.369 . S
C352 H361 0.929 . S
C353 N350 1.346 . S
C353 C352 1.369 . S
C353 H356 0.928 . S
C354 N350 1.345 . S
C354 C355 1.371 . S
C354 H357 0.931 . S
C355 C351 1.391 . S
C355 C354 1.371 . S
C355 H362 0.930 . S
H356 C353 0.928 . S
H357 C354 0.931 . S
H358 C334 0.930 . S
H359 C331 0.930 . S
H360 C340 0.930 . S
H361 C352 0.929 . S
H362 C355 0.930 . S
C363 C364 1.351 . S
C363 N366 1.368 . S
C363 H368 0.931 . S
C364 C363 1.351 . S
C364 N365 1.373 . S
C364 H392 0.930 . S
N365 C364 1.373 . S
N365 C367 1.340 . S
N366 C363 1.368 . S
N366 C367 1.321 . S
N366 Co369 2.135 . S
C367 N365 1.340 . S
C367 N366 1.321 . S
C367 H391 0.930 . S
H368 C363 0.931 . S
Co369 N366 2.135 . S
Co369 N372 2.121 . S
Co369 O377 2.055 . S
Co369 O380 2.039 . S
Co369 N383 2.140 . S
C370 O371 1.227 . S
C370 O380 1.265 . S
O371 C370 1.227 . S
N372 Co369 2.121 . S
N372 C374 1.375 . S
N372 C375 1.313 . S
C373 C374 1.338 . S
C373 N376 1.377 . S
C373 H393 0.930 . S
C374 N372 1.375 . S
C374 C373 1.338 . S
C374 H378 0.931 . S
C375 N372 1.313 . S
C375 N376 1.344 . S
C375 H379 0.930 . S
N376 C373 1.377 . S
N376 C375 1.344 . S
O377 Co369 2.055 . S
O377 C381 1.253 . S
H378 C374 0.931 . S
H379 C375 0.930 . S
O380 Co369 2.039 . S
O380 C370 1.265 . S
C381 O377 1.253 . S
C381 O382 1.227 . S
O382 C381 1.227 . S
N383 Co369 2.140 . S
N383 C386 1.346 . S
N383 C387 1.345 . S
C384 C385 1.387 . S
C384 C388 1.391 . S
C385 C384 1.387 . S
C385 C386 1.369 . S
C385 H394 0.929 . S
C386 N383 1.346 . S
C386 C385 1.369 . S
C386 H389 0.928 . S
C387 N383 1.345 . S
C387 C388 1.371 . S
C387 H390 0.931 . S
C388 C384 1.391 . S
C388 C387 1.371 . S
C388 H395 0.930 . S
H389 C386 0.928 . S
H390 C387 0.931 . S
H391 C367 0.930 . S
H392 C364 0.930 . S
H393 C373 0.930 . S
H394 C385 0.929 . S
H395 C388 0.930 . S
C396 C397 1.351 . S
C396 N399 1.368 . S
C396 H401 0.931 . S
C397 C396 1.351 . S
C397 N398 1.373 . S
C397 H425 0.930 . S
N398 C397 1.373 . S
N398 C400 1.340 . S
N399 C396 1.368 . S
N399 C400 1.321 . S
N399 Co402 2.135 . S
C400 N398 1.340 . S
C400 N399 1.321 . S
C400 H424 0.930 . S
H401 C396 0.931 . S
Co402 N399 2.135 . S
Co402 N405 2.121 . S
Co402 O410 2.055 . S
Co402 O413 2.039 . S
Co402 N416 2.140 . S
C403 O404 1.227 . S
C403 O413 1.265 . S
O404 C403 1.227 . S
N405 Co402 2.121 . S
N405 C407 1.375 . S
N405 C408 1.313 . S
C406 C407 1.338 . S
C406 N409 1.377 . S
C406 H426 0.930 . S
C407 N405 1.375 . S
C407 C406 1.338 . S
C407 H411 0.931 . S
C408 N405 1.313 . S
C408 N409 1.344 . S
C408 H412 0.930 . S
N409 C406 1.377 . S
N409 C408 1.344 . S
O410 Co402 2.055 . S
O410 C414 1.253 . S
H411 C407 0.931 . S
H412 C408 0.930 . S
O413 Co402 2.039 . S
O413 C403 1.265 . S
C414 O410 1.253 . S
C414 O415 1.227 . S
O415 C414 1.227 . S
N416 Co402 2.140 . S
N416 C419 1.346 . S
N416 C420 1.345 . S
C417 C418 1.387 . S
C417 C421 1.391 . S
C418 C417 1.387 . S
C418 C419 1.369 . S
C418 H427 0.929 . S
C419 N416 1.346 . S
C419 C418 1.369 . S
C419 H422 0.928 . S
C420 N416 1.345 . S
C420 C421 1.371 . S
C420 H423 0.931 . S
C421 C417 1.391 . S
C421 C420 1.371 . S
C421 H428 0.930 . S
H422 C419 0.928 . S
H423 C420 0.931 . S
H424 C400 0.930 . S
H425 C397 0.930 . S
H426 C406 0.930 . S
H427 C418 0.929 . S
H428 C421 0.930 . S
C429 C430 1.351 . S
C429 N432 1.368 1_455 S
C429 H434 0.931 . S
C430 C429 1.351 . S
C430 N431 1.373 1_455 S
C430 H458 0.930 . S
N431 C430 1.373 1_655 S
N431 C433 1.340 . S
N432 C429 1.368 1_655 S
N432 C433 1.321 . S
N432 Co435 2.135 . S
C433 N431 1.340 . S
C433 N432 1.321 . S
C433 H457 0.930 . S
H434 C429 0.931 . S
Co435 N432 2.135 . S
Co435 N438 2.121 . S
Co435 O443 2.055 . S
Co435 O446 2.039 . S
Co435 N449 2.140 1_655 S
C436 O437 1.227 . S
C436 O446 1.265 . S
O437 C436 1.227 . S
N438 Co435 2.121 . S
N438 C440 1.375 . S
N438 C441 1.313 . S
C439 C440 1.338 . S
C439 N442 1.377 . S
C439 H459 0.930 . S
C440 N438 1.375 . S
C440 C439 1.338 . S
C440 H444 0.931 . S
C441 N438 1.313 . S
C441 N442 1.344 . S
C441 H445 0.930 . S
N442 C439 1.377 . S
N442 C441 1.344 . S
O443 Co435 2.055 . S
O443 C447 1.253 1_655 S
H444 C440 0.931 . S
H445 C441 0.930 . S
O446 Co435 2.039 . S
O446 C436 1.265 . S
C447 O443 1.253 1_455 S
C447 O448 1.227 . S
O448 C447 1.227 . S
N449 Co435 2.140 1_455 S
N449 C452 1.346 . S
N449 C453 1.345 . S
C450 C451 1.387 . S
C450 C454 1.391 . S
C451 C450 1.387 . S
C451 C452 1.369 . S
C451 H460 0.929 . S
C452 N449 1.346 . S
C452 C451 1.369 . S
C452 H455 0.928 . S
C453 N449 1.345 . S
C453 C454 1.371 . S
C453 H456 0.931 . S
C454 C450 1.391 . S
C454 C453 1.371 . S
C454 H461 0.930 . S
H455 C452 0.928 . S
H456 C453 0.931 . S
H457 C433 0.930 . S
H458 C430 0.930 . S
H459 C439 0.930 . S
H460 C451 0.929 . S
H461 C454 0.930 . S
C462 C463 1.351 . S
C462 N465 1.368 . S
C462 H467 0.931 . S
C463 C462 1.351 . S
C463 N464 1.373 . S
C463 H491 0.930 . S
N464 C463 1.373 . S
N464 C466 1.340 . S
N465 C462 1.368 . S
N465 C466 1.321 . S
N465 Co468 2.135 . S
C466 N464 1.340 . S
C466 N465 1.321 . S
C466 H490 0.930 . S
H467 C462 0.931 . S
Co468 N465 2.135 . S
Co468 N471 2.121 . S
Co468 O476 2.055 . S
Co468 O479 2.039 . S
Co468 N482 2.140 . S
C469 O470 1.227 . S
C469 O479 1.265 . S
O470 C469 1.227 . S
N471 Co468 2.121 . S
N471 C473 1.375 . S
N471 C474 1.313 . S
C472 C473 1.338 . S
C472 N475 1.377 . S
C472 H492 0.930 . S
C473 N471 1.375 . S
C473 C472 1.338 . S
C473 H477 0.931 . S
C474 N471 1.313 . S
C474 N475 1.344 . S
C474 H478 0.930 . S
N475 C472 1.377 . S
N475 C474 1.344 . S
O476 Co468 2.055 . S
O476 C480 1.253 . S
H477 C473 0.931 . S
H478 C474 0.930 . S
O479 Co468 2.039 . S
O479 C469 1.265 . S
C480 O476 1.253 . S
C480 O481 1.227 . S
O481 C480 1.227 . S
N482 Co468 2.140 . S
N482 C485 1.346 . S
N482 C486 1.345 . S
C483 C484 1.387 . S
C483 C487 1.391 . S
C484 C483 1.387 . S
C484 C485 1.369 . S
C484 H493 0.929 . S
C485 N482 1.346 . S
C485 C484 1.369 . S
C485 H488 0.928 . S
C486 N482 1.345 . S
C486 C487 1.371 . S
C486 H489 0.931 . S
C487 C483 1.391 . S
C487 C486 1.371 . S
C487 H494 0.930 . S
H488 C485 0.928 . S
H489 C486 0.931 . S
H490 C466 0.930 . S
H491 C463 0.930 . S
H492 C472 0.930 . S
H493 C484 0.929 . S
H494 C487 0.930 . S
C495 C496 1.351 . S
C495 N498 1.368 1_455 S
C495 H500 0.931 . S
C496 C495 1.351 . S
C496 N497 1.373 1_455 S
C496 H524 0.930 . S
N497 C496 1.373 1_655 S
N497 C499 1.340 . S
N498 C495 1.368 1_655 S
N498 C499 1.321 . S
N498 Co501 2.135 . S
C499 N497 1.340 . S
C499 N498 1.321 . S
C499 H523 0.930 . S
H500 C495 0.931 . S
Co501 N498 2.135 . S
Co501 N504 2.121 . S
Co501 O509 2.055 . S
Co501 O512 2.039 . S
Co501 N515 2.140 1_655 S
C502 O503 1.227 . S
C502 O512 1.265 . S
O503 C502 1.227 . S
N504 Co501 2.121 . S
N504 C506 1.375 . S
N504 C507 1.313 . S
C505 C506 1.338 . S
C505 N508 1.377 . S
C505 H525 0.930 . S
C506 N504 1.375 . S
C506 C505 1.338 . S
C506 H510 0.931 . S
C507 N504 1.313 . S
C507 N508 1.344 . S
C507 H511 0.930 . S
N508 C505 1.377 . S
N508 C507 1.344 . S
O509 Co501 2.055 . S
O509 C513 1.253 1_655 S
H510 C506 0.931 . S
H511 C507 0.930 . S
O512 Co501 2.039 . S
O512 C502 1.265 . S
C513 O509 1.253 1_455 S
C513 O514 1.227 . S
O514 C513 1.227 . S
N515 Co501 2.140 1_455 S
N515 C518 1.346 . S
N515 C519 1.345 . S
C516 C517 1.387 . S
C516 C520 1.391 . S
C517 C516 1.387 . S
C517 C518 1.369 . S
C517 H526 0.929 . S
C518 N515 1.346 . S
C518 C517 1.369 . S
C518 H521 0.928 . S
C519 N515 1.345 . S
C519 C520 1.371 . S
C519 H522 0.931 . S
C520 C516 1.391 . S
C520 C519 1.371 . S
C520 H527 0.930 . S
H521 C518 0.928 . S
H522 C519 0.931 . S
H523 C499 0.930 . S
H524 C496 0.930 . S
H525 C505 0.930 . S
H526 C517 0.929 . S
H527 C520 0.930 . S
H528 C540 0.930 1_455 S
H529 C542 0.930 . S
H530 C543 0.930 . S
H531 C547 0.959 . S
H532 C547 0.959 . S
H533 C547 0.961 . S
H534 C548 0.960 . S
H535 C548 0.961 . S
H536 C548 0.959 . S
H537 C551 0.929 . S
H538 C552 0.932 . S
H539 C554 0.930 . S
C540 H528 0.930 1_655 S
C540 C541 1.399 . S
C540 C545 1.399 . S
C541 C540 1.399 . S
C541 C542 1.376 . S
C542 H529 0.930 . S
C542 C541 1.376 . S
C542 C543 1.388 . S
C543 H530 0.930 . S
C543 C542 1.388 . S
C543 C544 1.390 . S
C544 C543 1.390 . S
C544 C545 1.395 . S
C544 C550 1.465 . S
C545 C540 1.399 . S
C545 C544 1.395 . S
C545 C546 1.515 1_655 S
C546 C545 1.515 1_455 S
C546 C547 1.502 . S
C546 C548 1.561 1_455 S
C546 C549 1.526 . S
C547 H531 0.959 . S
C547 H532 0.959 . S
C547 H533 0.961 . S
C547 C546 1.502 . S
C548 H534 0.960 . S
C548 H535 0.961 . S
C548 H536 0.959 . S
C548 C546 1.561 1_655 S
C549 C546 1.526 . S
C549 C550 1.396 1_455 S
C549 C554 1.390 . S
C550 C544 1.465 . S
C550 C549 1.396 1_655 S
C550 C551 1.399 . S
C551 H537 0.929 . S
C551 C550 1.399 . S
C551 C552 1.385 1_655 S
C552 H538 0.932 . S
C552 C551 1.385 1_455 S
C552 C553 1.389 . S
C553 C552 1.389 . S
C553 C554 1.387 . S
C554 H539 0.930 . S
C554 C549 1.390 . S
C554 C553 1.387 . S
H555 C567 0.930 . S
H556 C569 0.930 . S
H557 C570 0.930 . S
H558 C574 0.959 . S
H559 C574 0.959 1_655 S
H560 C574 0.961 . S
H561 C575 0.977 . S
H562 C575 0.946 1_655 S
H563 C575 0.956 1_655 S
H564 C578 0.929 . S
H565 C579 0.931 . S
H566 C581 0.930 . S
C567 H555 0.930 . S
C567 C568 1.399 . S
C567 C572 1.399 . S
C568 C567 1.399 . S
C568 C569 1.376 . S
C569 H556 0.930 . S
C569 C568 1.376 . S
C569 C570 1.388 . S
C570 H557 0.930 . S
C570 C569 1.388 . S
C570 C571 1.390 . S
C571 C570 1.390 . S
C571 C572 1.394 . S
C571 C577 1.465 1_455 S
C572 C567 1.399 . S
C572 C571 1.394 . S
C572 C573 1.516 . S
C573 C572 1.516 . S
C573 C574 1.502 . S
C573 C575 1.563 . S
C573 C576 1.526 1_455 S
C574 H558 0.959 . S
C574 H559 0.959 1_455 S
C574 H560 0.961 . S
C574 C573 1.502 . S
C575 H561 0.977 . S
C575 H562 0.946 1_455 S
C575 H563 0.956 1_455 S
C575 C573 1.563 . S
C576 C573 1.526 1_655 S
C576 C577 1.396 . S
C576 C581 1.390 . S
C577 C571 1.465 1_655 S
C577 C576 1.396 . S
C577 C578 1.399 . S
C578 H564 0.929 . S
C578 C577 1.399 . S
C578 C579 1.385 . S
C579 H565 0.931 . S
C579 C578 1.385 . S
C579 C580 1.389 . S
C580 C579 1.389 . S
C580 C581 1.387 . S
C581 H566 0.930 . S
C581 C576 1.390 . S
C581 C580 1.387 . S
H582 C594 0.930 . S
H583 C596 0.930 . S
H584 C597 0.930 . S
H585 C601 0.959 . S
H586 C601 0.959 . S
H587 C601 0.961 . S
H588 C602 0.960 . S
H589 C602 0.961 . S
H590 C602 0.959 . S
H591 C605 0.929 . S
H592 C606 0.931 . S
H593 C608 0.930 . S
C594 H582 0.930 . S
C594 C595 1.399 . S
C594 C599 1.399 . S
C595 C594 1.399 . S
C595 C596 1.376 . S
C596 H583 0.930 . S
C596 C595 1.376 . S
C596 C597 1.388 . S
C597 H584 0.930 . S
C597 C596 1.388 . S
C597 C598 1.390 . S
C598 C597 1.390 . S
C598 C599 1.394 . S
C598 C604 1.465 . S
C599 C594 1.399 . S
C599 C598 1.394 . S
C599 C600 1.516 . S
C600 C599 1.516 . S
C600 C601 1.502 . S
C600 C602 1.561 . S
C600 C603 1.526 . S
C601 H585 0.959 . S
C601 H586 0.959 . S
C601 H587 0.961 . S
C601 C600 1.502 . S
C602 H588 0.960 . S
C602 H589 0.961 . S
C602 H590 0.959 . S
C602 C600 1.561 . S
C603 C600 1.526 . S
C603 C604 1.396 . S
C603 C608 1.390 . S
C604 C598 1.465 . S
C604 C603 1.396 . S
C604 C605 1.399 . S
C605 H591 0.929 . S
C605 C604 1.399 . S
C605 C606 1.385 . S
C606 H592 0.931 . S
C606 C605 1.385 . S
C606 C607 1.389 . S
C607 C606 1.389 . S
C607 C608 1.387 . S
C608 H593 0.930 . S
C608 C603 1.390 . S
C608 C607 1.387 . S
H609 C621 0.930 . S
H610 C623 0.930 . S
H611 C624 0.930 . S
H612 C628 0.959 . S
H613 C628 0.959 . S
H614 C628 0.961 . S
H615 C629 0.960 . S
H616 C629 0.961 . S
H617 C629 0.959 . S
H618 C632 0.929 . S
H619 C633 0.931 . S
H620 C635 0.930 . S
C621 H609 0.930 . S
C621 C622 1.399 . S
C621 C626 1.399 . S
C622 C621 1.399 . S
C622 C623 1.376 . S
C623 H610 0.930 . S
C623 C622 1.376 . S
C623 C624 1.388 . S
C624 H611 0.930 . S
C624 C623 1.388 . S
C624 C625 1.390 . S
C625 C624 1.390 . S
C625 C626 1.394 . S
C625 C631 1.465 . S
C626 C621 1.399 . S
C626 C625 1.394 . S
C626 C627 1.516 . S
C627 C626 1.516 . S
C627 C628 1.502 . S
C627 C629 1.561 . S
C627 C630 1.526 . S
C628 H612 0.959 . S
C628 H613 0.959 . S
C628 H614 0.961 . S
C628 C627 1.502 . S
C629 H615 0.960 . S
C629 H616 0.961 . S
C629 H617 0.959 . S
C629 C627 1.561 . S
C630 C627 1.526 . S
C630 C631 1.396 . S
C630 C635 1.390 . S
C631 C625 1.465 . S
C631 C630 1.396 . S
C631 C632 1.399 . S
C632 H618 0.929 . S
C632 C631 1.399 . S
C632 C633 1.385 . S
C633 H619 0.931 . S
C633 C632 1.385 . S
C633 C634 1.389 . S
C634 C633 1.389 . S
C634 C635 1.387 . S
C635 H620 0.930 . S
C635 C630 1.390 . S
C635 C634 1.387 . S
H636 C648 0.930 . S
H637 C650 0.930 . S
H638 C651 0.930 . S
H639 C655 0.959 . S
H640 C655 0.959 . S
H641 C655 0.961 . S
H642 C656 0.960 . S
H643 C656 0.961 . S
H644 C656 0.959 . S
H645 C659 0.929 . S
H646 C660 0.931 . S
H647 C662 0.930 1_655 S
C648 H636 0.930 . S
C648 C649 1.399 . S
C648 C653 1.399 . S
C649 C648 1.399 . S
C649 C650 1.376 1_655 S
C650 H637 0.930 . S
C650 C649 1.376 1_455 S
C650 C651 1.388 . S
C651 H638 0.930 . S
C651 C650 1.388 . S
C651 C652 1.390 . S
C652 C651 1.390 . S
C652 C653 1.394 1_455 S
C652 C658 1.465 . S
C653 C648 1.399 . S
C653 C652 1.394 1_655 S
C653 C654 1.516 . S
C654 C653 1.516 . S
C654 C655 1.502 . S
C654 C656 1.561 1_655 S
C654 C657 1.526 1_655 S
C655 H639 0.959 . S
C655 H640 0.959 . S
C655 H641 0.961 . S
C655 C654 1.502 . S
C656 H642 0.960 . S
C656 H643 0.961 . S
C656 H644 0.959 . S
C656 C654 1.561 1_455 S
C657 C654 1.526 1_455 S
C657 C658 1.396 . S
C657 C662 1.390 . S
C658 C652 1.465 . S
C658 C657 1.396 . S
C658 C659 1.399 . S
C659 H645 0.929 . S
C659 C658 1.399 . S
C659 C660 1.385 . S
C660 H646 0.931 . S
C660 C659 1.385 . S
C660 C661 1.389 . S
C661 C660 1.389 . S
C661 C662 1.387 . S
C662 H647 0.930 1_455 S
C662 C657 1.390 . S
C662 C661 1.387 . S
H663 C675 0.930 . S
H664 C677 0.930 . S
H665 C678 0.930 . S
H666 C682 0.959 . S
H667 C682 0.959 . S
H668 C682 0.961 . S
H669 C683 0.960 . S
H670 C683 0.961 . S
H671 C683 0.959 . S
H672 C686 0.929 . S
H673 C687 0.931 . S
H674 C689 0.930 . S
C675 H663 0.930 . S
C675 C676 1.399 . S
C675 C680 1.399 . S
C676 C675 1.399 . S
C676 C677 1.376 . S
C677 H664 0.930 . S
C677 C676 1.376 . S
C677 C678 1.388 . S
C678 H665 0.930 . S
C678 C677 1.388 . S
C678 C679 1.390 . S
C679 C678 1.390 . S
C679 C680 1.394 . S
C679 C685 1.465 . S
C680 C675 1.399 . S
C680 C679 1.394 . S
C680 C681 1.516 . S
C681 C680 1.516 . S
C681 C682 1.502 . S
C681 C683 1.561 . S
C681 C684 1.526 . S
C682 H666 0.959 . S
C682 H667 0.959 . S
C682 H668 0.961 . S
C682 C681 1.502 . S
C683 H669 0.960 . S
C683 H670 0.961 . S
C683 H671 0.959 . S
C683 C681 1.561 . S
C684 C681 1.526 . S
C684 C685 1.396 . S
C684 C689 1.390 . S
C685 C679 1.465 . S
C685 C684 1.396 . S
C685 C686 1.399 . S
C686 H672 0.929 . S
C686 C685 1.399 . S
C686 C687 1.385 . S
C687 H673 0.931 . S
C687 C686 1.385 . S
C687 C688 1.389 . S
C688 C687 1.389 . S
C688 C689 1.387 . S
C689 H674 0.930 . S
C689 C684 1.390 . S
C689 C688 1.387 . S
H690 C702 0.930 . S
H691 C704 0.930 . S
H692 C705 0.930 . S
H693 C709 0.959 . S
H694 C709 0.959 . S
H695 C709 0.961 . S
H696 C710 0.960 . S
H697 C710 0.961 . S
H698 C710 0.959 . S
H699 C713 0.929 . S
H700 C714 0.931 . S
H701 C716 0.930 . S
C702 H690 0.930 . S
C702 C703 1.399 . S
C702 C707 1.399 . S
C703 C702 1.399 . S
C703 C704 1.376 . S
C704 H691 0.930 . S
C704 C703 1.376 . S
C704 C705 1.388 . S
C705 H692 0.930 . S
C705 C704 1.388 . S
C705 C706 1.390 . S
C706 C705 1.390 . S
C706 C707 1.394 . S
C706 C712 1.465 . S
C707 C702 1.399 . S
C707 C706 1.394 . S
C707 C708 1.516 . S
C708 C707 1.516 . S
C708 C709 1.502 . S
C708 C710 1.561 . S
C708 C711 1.526 . S
C709 H693 0.959 . S
C709 H694 0.959 . S
C709 H695 0.961 . S
C709 C708 1.502 . S
C710 H696 0.960 . S
C710 H697 0.961 . S
C710 H698 0.959 . S
C710 C708 1.561 . S
C711 C708 1.526 . S
C711 C712 1.396 . S
C711 C716 1.390 . S
C712 C706 1.465 . S
C712 C711 1.396 . S
C712 C713 1.399 . S
C713 H699 0.929 . S
C713 C712 1.399 . S
C713 C714 1.385 . S
C714 H700 0.931 . S
C714 C713 1.385 . S
C714 C715 1.389 . S
C715 C714 1.389 . S
C715 C716 1.387 . S
C716 H701 0.930 . S
C716 C711 1.390 . S
C716 C715 1.387 . S
H717 C729 0.930 . S
H718 C731 0.930 . S
H719 C732 0.930 . S
H720 C736 0.960 1_655 S
H721 C736 0.957 . S
H722 C736 0.963 1_655 S
H723 C737 0.960 1_655 S
H724 C737 0.961 . S
H725 C737 0.959 . S
H726 C740 0.929 . S
H727 C741 0.931 . S
H728 C743 0.930 . S
C729 H717 0.930 . S
C729 C730 1.399 . S
C729 C734 1.399 . S
C730 C729 1.399 . S
C730 C731 1.376 . S
C731 H718 0.930 . S
C731 C730 1.376 . S
C731 C732 1.388 . S
C732 H719 0.930 . S
C732 C731 1.388 . S
C732 C733 1.390 . S
C733 C732 1.390 . S
C733 C734 1.394 . S
C733 C739 1.465 1_655 S
C734 C729 1.399 . S
C734 C733 1.394 . S
C734 C735 1.516 1_655 S
C735 C734 1.516 1_455 S
C735 C736 1.502 . S
C735 C737 1.561 . S
C735 C738 1.526 . S
C736 H720 0.960 1_455 S
C736 H721 0.957 . S
C736 H722 0.963 1_455 S
C736 C735 1.502 . S
C737 H723 0.960 1_455 S
C737 H724 0.961 . S
C737 H725 0.959 . S
C737 C735 1.561 . S
C738 C735 1.526 . S
C738 C739 1.396 . S
C738 C743 1.390 . S
C739 C733 1.465 1_455 S
C739 C738 1.396 . S
C739 C740 1.399 . S
C740 H726 0.929 . S
C740 C739 1.399 . S
C740 C741 1.385 . S
C741 H727 0.931 . S
C741 C740 1.385 . S
C741 C742 1.389 . S
C742 C741 1.389 . S
C742 C743 1.387 . S
C743 H728 0.930 . S
C743 C738 1.390 . S
C743 C742 1.387 . S
H744 C756 0.930 . S
H745 C758 0.930 . S
H746 C759 0.930 . S
H747 C763 0.967 . S
H748 C763 0.959 1_566 S
H749 C763 0.961 1_565 S
H750 C764 0.960 . S
H751 C764 0.961 1_556 S
H752 C764 0.959 . S
H753 C767 0.929 . S
H754 C768 0.931 . S
H755 C770 0.930 . S
C756 H744 0.930 . S
C756 C757 1.398 1_455 S
C756 C761 1.399 . S
C757 C756 1.398 1_655 S
C757 C758 1.378 . S
C758 H745 0.930 . S
C758 C757 1.378 . S
C758 C759 1.388 . S
C759 H746 0.930 . S
C759 C758 1.388 . S
C759 C760 1.390 . S
C760 C759 1.390 . S
C760 C761 1.394 1_655 S
C760 C766 1.465 1_554 S
C761 C756 1.399 . S
C761 C760 1.394 1_455 S
C761 C762 1.516 . S
C762 C761 1.516 . S
C762 C763 1.502 . S
C762 C764 1.561 1_445 S
C762 C765 1.526 1_554 S
C763 H747 0.967 . S
C763 H748 0.959 1_544 S
C763 H749 0.961 1_545 S
C763 C762 1.502 . S
C764 H750 0.960 . S
C764 H751 0.961 1_554 S
C764 H752 0.959 . S
C764 C762 1.561 1_665 S
C765 C762 1.526 1_556 S
C765 C766 1.396 1_455 S
C765 C770 1.390 . S
C766 C760 1.465 1_556 S
C766 C765 1.396 1_655 S
C766 C767 1.399 . S
C767 H753 0.929 . S
C767 C766 1.399 . S
C767 C768 1.385 . S
C768 H754 0.931 . S
C768 C767 1.385 . S
C768 C769 1.379 1_655 S
C769 C768 1.379 1_455 S
C769 C770 1.394 . S
C770 H755 0.930 . S
C770 C765 1.390 . S
C770 C769 1.394 . S
H771 C783 0.930 . S
H772 C785 0.930 . S
H773 C786 0.930 . S
H774 C790 0.959 . S
H775 C790 0.959 . S
H776 C790 0.961 . S
H777 C791 0.960 . S
H778 C791 0.961 . S
H779 C791 0.959 . S
H780 C794 0.929 . S
H781 C795 0.931 . S
H782 C797 0.930 . S
C783 H771 0.930 . S
C783 C784 1.399 . S
C783 C788 1.399 . S
C784 C783 1.399 . S
C784 C785 1.376 . S
C785 H772 0.930 . S
C785 C784 1.376 . S
C785 C786 1.388 . S
C786 H773 0.930 . S
C786 C785 1.388 . S
C786 C787 1.390 . S
C787 C786 1.390 . S
C787 C788 1.394 . S
C787 C793 1.465 . S
C788 C783 1.399 . S
C788 C787 1.394 . S
C788 C789 1.516 . S
C789 C788 1.516 . S
C789 C790 1.502 . S
C789 C791 1.561 . S
C789 C792 1.526 . S
C790 H774 0.959 . S
C790 H775 0.959 . S
C790 H776 0.961 . S
C790 C789 1.502 . S
C791 H777 0.960 . S
C791 H778 0.961 . S
C791 H779 0.959 . S
C791 C789 1.561 . S
C792 C789 1.526 . S
C792 C793 1.396 . S
C792 C797 1.390 . S
C793 C787 1.465 . S
C793 C792 1.396 . S
C793 C794 1.399 . S
C794 H780 0.929 . S
C794 C793 1.399 . S
C794 C795 1.385 . S
C795 H781 0.931 . S
C795 C794 1.385 . S
C795 C796 1.389 . S
C796 C795 1.389 . S
C796 C797 1.387 . S
C797 H782 0.930 . S
C797 C792 1.390 . S
C797 C796 1.387 . S
H798 C810 0.930 . S
H799 C812 0.930 . S
H800 C813 0.930 . S
H801 C817 0.959 1_545 S
H802 C817 0.959 . S
H803 C817 0.961 . S
H804 C818 0.960 . S
H805 C818 0.961 . S
H806 C818 0.959 . S
H807 C821 0.929 . S
H808 C822 0.931 . S
H809 C824 0.930 . S
C810 H798 0.930 . S
C810 C811 1.399 . S
C810 C815 1.399 . S
C811 C810 1.399 . S
C811 C812 1.376 . S
C812 H799 0.930 . S
C812 C811 1.376 . S
C812 C813 1.388 . S
C813 H800 0.930 . S
C813 C812 1.388 . S
C813 C814 1.390 . S
C814 C813 1.390 . S
C814 C815 1.394 . S
C814 C820 1.465 . S
C815 C810 1.399 . S
C815 C814 1.394 . S
C815 C816 1.516 . S
C816 C815 1.516 . S
C816 C817 1.502 1_545 S
C816 C818 1.561 1_545 S
C816 C819 1.526 . S
C817 H801 0.959 1_565 S
C817 H802 0.959 . S
C817 H803 0.961 . S
C817 C816 1.502 1_565 S
C818 H804 0.960 . S
C818 H805 0.961 . S
C818 H806 0.959 . S
C818 C816 1.561 1_565 S
C819 C816 1.526 . S
C819 C820 1.396 . S
C819 C824 1.390 . S
C820 C814 1.465 . S
C820 C819 1.396 . S
C820 C821 1.399 . S
C821 H807 0.929 . S
C821 C820 1.399 . S
C821 C822 1.385 . S
C822 H808 0.931 . S
C822 C821 1.385 . S
C822 C823 1.389 . S
C823 C822 1.389 . S
C823 C824 1.387 . S
C824 H809 0.930 . S
C824 C819 1.390 . S
C824 C823 1.387 . S
H825 C837 0.930 . S
H826 C839 0.930 . S
H827 C840 0.930 . S
H828 C844 0.959 . S
H829 C844 0.959 . S
H830 C844 0.961 . S
H831 C845 0.960 . S
H832 C845 0.961 . S
H833 C845 0.959 . S
H834 C848 0.929 . S
H835 C849 0.931 . S
H836 C851 0.930 . S
C837 H825 0.930 . S
C837 C838 1.399 . S
C837 C842 1.399 . S
C838 C837 1.399 . S
C838 C839 1.376 . S
C839 H826 0.930 . S
C839 C838 1.376 . S
C839 C840 1.388 . S
C840 H827 0.930 . S
C840 C839 1.388 . S
C840 C841 1.390 . S
C841 C840 1.390 . S
C841 C842 1.394 . S
C841 C847 1.465 . S
C842 C837 1.399 . S
C842 C841 1.394 . S
C842 C843 1.516 . S
C843 C842 1.516 . S
C843 C844 1.502 . S
C843 C845 1.561 . S
C843 C846 1.526 . S
C844 H828 0.959 . S
C844 H829 0.959 . S
C844 H830 0.961 . S
C844 C843 1.502 . S
C845 H831 0.960 . S
C845 H832 0.961 . S
C845 H833 0.959 . S
C845 C843 1.561 . S
C846 C843 1.526 . S
C846 C847 1.396 . S
C846 C851 1.390 . S
C847 C841 1.465 . S
C847 C846 1.396 . S
C847 C848 1.399 . S
C848 H834 0.929 . S
C848 C847 1.399 . S
C848 C849 1.385 . S
C849 H835 0.931 . S
C849 C848 1.385 . S
C849 C850 1.389 . S
C850 C849 1.389 . S
C850 C851 1.387 . S
C851 H836 0.930 . S
C851 C846 1.390 . S
C851 C850 1.387 . S
H852 C864 0.930 . S
H853 C866 0.930 . S
H854 C867 0.930 . S
H855 C871 0.959 . S
H856 C871 0.959 . S
H857 C871 0.961 . S
H858 C872 0.960 . S
H859 C872 0.961 . S
H860 C872 0.959 . S
H861 C875 0.929 . S
H862 C876 0.931 . S
H863 C878 0.930 . S
C864 H852 0.930 . S
C864 C865 1.399 . S
C864 C869 1.399 . S
C865 C864 1.399 . S
C865 C866 1.376 . S
C866 H853 0.930 . S
C866 C865 1.376 . S
C866 C867 1.388 . S
C867 H854 0.930 . S
C867 C866 1.388 . S
C867 C868 1.390 . S
C868 C867 1.390 . S
C868 C869 1.394 . S
C868 C874 1.465 . S
C869 C864 1.399 . S
C869 C868 1.394 . S
C869 C870 1.516 . S
C870 C869 1.516 . S
C870 C871 1.502 . S
C870 C872 1.561 . S
C870 C873 1.526 . S
C871 H855 0.959 . S
C871 H856 0.959 . S
C871 H857 0.961 . S
C871 C870 1.502 . S
C872 H858 0.960 . S
C872 H859 0.961 . S
C872 H860 0.959 . S
C872 C870 1.561 . S
C873 C870 1.526 . S
C873 C874 1.396 . S
C873 C878 1.390 . S
C874 C868 1.465 . S
C874 C873 1.396 . S
C874 C875 1.399 . S
C875 H861 0.929 . S
C875 C874 1.399 . S
C875 C876 1.385 . S
C876 H862 0.931 . S
C876 C875 1.385 . S
C876 C877 1.389 . S
C877 C876 1.389 . S
C877 C878 1.387 . S
C878 H863 0.930 . S
C878 C873 1.390 . S
C878 C877 1.387 . S
H879 C891 0.930 . S
H880 C893 0.930 . S
H881 C894 0.930 . S
H882 C898 0.959 . S
H883 C898 0.959 . S
H884 C898 0.961 . S
H885 C899 0.960 . S
H886 C899 0.961 . S
H887 C899 0.959 . S
H888 C902 0.929 . S
H889 C903 0.931 . S
H890 C905 0.930 . S
C891 H879 0.930 . S
C891 C892 1.399 . S
C891 C896 1.399 . S
C892 C891 1.399 . S
C892 C893 1.376 . S
C893 H880 0.930 . S
C893 C892 1.376 . S
C893 C894 1.388 . S
C894 H881 0.930 . S
C894 C893 1.388 . S
C894 C895 1.390 . S
C895 C894 1.390 . S
C895 C896 1.394 . S
C895 C901 1.465 . S
C896 C891 1.399 . S
C896 C895 1.394 . S
C896 C897 1.516 . S
C897 C896 1.516 . S
C897 C898 1.502 . S
C897 C899 1.561 . S
C897 C900 1.526 . S
C898 H882 0.959 . S
C898 H883 0.959 . S
C898 H884 0.961 . S
C898 C897 1.502 . S
C899 H885 0.960 . S
C899 H886 0.961 . S
C899 H887 0.959 . S
C899 C897 1.561 . S
C900 C897 1.526 . S
C900 C901 1.396 . S
C900 C905 1.390 . S
C901 C895 1.465 . S
C901 C900 1.396 . S
C901 C902 1.399 . S
C902 H888 0.929 . S
C902 C901 1.399 . S
C902 C903 1.385 . S
C903 H889 0.931 . S
C903 C902 1.385 . S
C903 C904 1.389 . S
C904 C903 1.389 . S
C904 C905 1.387 . S
C905 H890 0.930 . S
C905 C900 1.390 . S
C905 C904 1.387 . S
H906 C918 0.930 . S
H907 C920 0.930 . S
H908 C921 0.930 . S
H909 C925 0.959 . S
H910 C925 0.959 . S
H911 C925 0.961 . S
H912 C926 0.960 . S
H913 C926 0.961 . S
H914 C926 0.959 . S
H915 C929 0.929 . S
H916 C930 0.931 . S
H917 C932 0.930 . S
C918 H906 0.930 . S
C918 C919 1.399 . S
C918 C923 1.399 . S
C919 C918 1.399 . S
C919 C920 1.376 . S
C920 H907 0.930 . S
C920 C919 1.376 . S
C920 C921 1.388 . S
C921 H908 0.930 . S
C921 C920 1.388 . S
C921 C922 1.390 . S
C922 C921 1.390 . S
C922 C923 1.394 . S
C922 C928 1.465 . S
C923 C918 1.399 . S
C923 C922 1.394 . S
C923 C924 1.516 . S
C924 C923 1.516 . S
C924 C925 1.502 . S
C924 C926 1.561 . S
C924 C927 1.526 . S
C925 H909 0.959 . S
C925 H910 0.959 . S
C925 H911 0.961 . S
C925 C924 1.502 . S
C926 H912 0.960 . S
C926 H913 0.961 . S
C926 H914 0.959 . S
C926 C924 1.561 . S
C927 C924 1.526 . S
C927 C928 1.396 . S
C927 C932 1.390 . S
C928 C922 1.465 . S
C928 C927 1.396 . S
C928 C929 1.399 . S
C929 H915 0.929 . S
C929 C928 1.399 . S
C929 C930 1.385 . S
C930 H916 0.931 . S
C930 C929 1.385 . S
C930 C931 1.389 . S
C931 C930 1.389 . S
C931 C932 1.387 . S
C932 H917 0.930 . S
C932 C927 1.390 . S
C932 C931 1.387 . S
H933 C945 0.930 . S
H934 C947 0.930 . S
H935 C948 0.930 . S
H936 C952 0.959 . S
H937 C952 0.959 . S
H938 C952 0.961 1_556 S
H939 C953 0.960 1_556 S
H940 C953 0.961 . S
H941 C953 0.959 . S
H942 C956 0.929 . S
H943 C957 0.931 . S
H944 C959 0.930 . S
C945 H933 0.930 . S
C945 C946 1.397 1_455 S
C945 C950 1.399 . S
C946 C945 1.397 1_655 S
C946 C947 1.379 . S
C947 H934 0.930 . S
C947 C946 1.379 . S
C947 C948 1.388 . S
C948 H935 0.930 . S
C948 C947 1.388 . S
C948 C949 1.390 . S
C949 C948 1.390 . S
C949 C950 1.394 1_655 S
C949 C955 1.465 1_556 S
C950 C945 1.399 . S
C950 C949 1.394 1_455 S
C950 C951 1.516 1_556 S
C951 C950 1.516 1_554 S
C951 C952 1.502 . S
C951 C953 1.561 1_455 S
C951 C954 1.526 . S
C952 H936 0.959 . S
C952 H937 0.959 . S
C952 H938 0.961 1_554 S
C952 C951 1.502 . S
C953 H939 0.960 1_554 S
C953 H940 0.961 . S
C953 H941 0.959 . S
C953 C951 1.561 1_655 S
C954 C951 1.526 . S
C954 C955 1.396 1_455 S
C954 C959 1.390 . S
C955 C949 1.465 1_554 S
C955 C954 1.396 1_655 S
C955 C956 1.399 . S
C956 H942 0.929 . S
C956 C955 1.399 . S
C956 C957 1.385 . S
C957 H943 0.931 . S
C957 C956 1.385 . S
C957 C958 1.381 1_655 S
C958 C957 1.381 1_455 S
C958 C959 1.393 . S
C959 H944 0.930 . S
C959 C954 1.390 . S
C959 C958 1.393 . S
H960 C972 0.930 . S
H961 C974 0.930 . S
H962 C975 0.930 1_545 S
H963 C979 0.959 . S
H964 C979 0.959 . S
H965 C979 0.961 . S
H966 C980 0.960 . S
H967 C980 0.961 . S
H968 C980 0.959 . S
H969 C983 0.929 . S
H970 C984 0.931 . S
H971 C986 0.930 . S
C972 H960 0.930 . S
C972 C973 1.399 . S
C972 C977 1.399 . S
C973 C972 1.399 . S
C973 C974 1.376 . S
C974 H961 0.930 . S
C974 C973 1.376 . S
C974 C975 1.388 . S
C975 H962 0.930 1_565 S
C975 C974 1.388 . S
C975 C976 1.390 . S
C976 C975 1.390 . S
C976 C977 1.394 . S
C976 C982 1.465 . S
C977 C972 1.399 . S
C977 C976 1.394 . S
C977 C978 1.516 . S
C978 C977 1.516 . S
C978 C979 1.502 . S
C978 C980 1.561 . S
C978 C981 1.526 . S
C979 H963 0.959 . S
C979 H964 0.959 . S
C979 H965 0.961 . S
C979 C978 1.502 . S
C980 H966 0.960 . S
C980 H967 0.961 . S
C980 H968 0.959 . S
C980 C978 1.561 . S
C981 C978 1.526 . S
C981 C982 1.396 . S
C981 C986 1.390 . S
C982 C976 1.465 . S
C982 C981 1.396 . S
C982 C983 1.399 1_565 S
C983 H969 0.929 . S
C983 C982 1.399 1_545 S
C983 C984 1.385 . S
C984 H970 0.931 . S
C984 C983 1.385 . S
C984 C985 1.389 . S
C985 C984 1.389 . S
C985 C986 1.387 1_545 S
C986 H971 0.930 . S
C986 C981 1.390 . S
C986 C985 1.387 1_565 S
H987 C999 0.930 . S
H988 C1001 0.930 . S
H989 C1002 0.930 . S
H990 C1006 0.959 . S
H991 C1006 0.959 . S
H992 C1006 0.961 . S
H993 C1007 0.960 . S
H994 C1007 0.961 . S
H995 C1007 0.959 . S
H996 C1010 0.929 . S
H997 C1011 0.931 . S
H998 C1013 0.930 . S
C999 H987 0.930 . S
C999 C1000 1.399 . S
C999 C1004 1.399 . S
C1000 C999 1.399 . S
C1000 C1001 1.376 . S
C1001 H988 0.930 . S
C1001 C1000 1.376 . S
C1001 C1002 1.388 . S
C1002 H989 0.930 . S
C1002 C1001 1.388 . S
C1002 C1003 1.390 . S
C1003 C1002 1.390 . S
C1003 C1004 1.394 . S
C1003 C1009 1.465 . S
C1004 C999 1.399 . S
C1004 C1003 1.394 . S
C1004 C1005 1.516 1_565 S
C1005 C1004 1.516 1_545 S
C1005 C1006 1.502 . S
C1005 C1007 1.561 . S
C1005 C1008 1.526 . S
C1006 H990 0.959 . S
C1006 H991 0.959 . S
C1006 H992 0.961 . S
C1006 C1005 1.502 . S
C1007 H993 0.960 . S
C1007 H994 0.961 . S
C1007 H995 0.959 . S
C1007 C1005 1.561 . S
C1008 C1005 1.526 . S
C1008 C1009 1.396 1_545 S
C1008 C1013 1.390 . S
C1009 C1003 1.465 . S
C1009 C1008 1.396 1_565 S
C1009 C1010 1.399 . S
C1010 H996 0.929 . S
C1010 C1009 1.399 . S
C1010 C1011 1.385 . S
C1011 H997 0.931 . S
C1011 C1010 1.385 . S
C1011 C1012 1.389 1_565 S
C1012 C1011 1.389 1_545 S
C1012 C1013 1.387 . S
C1013 H998 0.930 . S
C1013 C1008 1.390 . S
C1013 C1012 1.387 . S
H1014 C1026 0.930 . S
H1015 C1028 0.930 . S
H1016 C1029 0.930 . S
H1017 C1033 0.959 . S
H1018 C1033 0.959 . S
H1019 C1033 0.961 . S
H1020 C1034 0.960 . S
H1021 C1034 0.961 . S
H1022 C1034 0.959 . S
H1023 C1037 0.929 . S
H1024 C1038 0.931 . S
H1025 C1040 0.930 . S
C1026 H1014 0.930 . S
C1026 C1027 1.399 . S
C1026 C1031 1.399 . S
C1027 C1026 1.399 . S
C1027 C1028 1.376 . S
C1028 H1015 0.930 . S
C1028 C1027 1.376 . S
C1028 C1029 1.388 . S
C1029 H1016 0.930 . S
C1029 C1028 1.388 . S
C1029 C1030 1.390 . S
C1030 C1029 1.390 . S
C1030 C1031 1.394 . S
C1030 C1036 1.465 . S
C1031 C1026 1.399 . S
C1031 C1030 1.394 . S
C1031 C1032 1.516 . S
C1032 C1031 1.516 . S
C1032 C1033 1.502 . S
C1032 C1034 1.561 . S
C1032 C1035 1.526 . S
C1033 H1017 0.959 . S
C1033 H1018 0.959 . S
C1033 H1019 0.961 . S
C1033 C1032 1.502 . S
C1034 H1020 0.960 . S
C1034 H1021 0.961 . S
C1034 H1022 0.959 . S
C1034 C1032 1.561 . S
C1035 C1032 1.526 . S
C1035 C1036 1.396 . S
C1035 C1040 1.390 . S
C1036 C1030 1.465 . S
C1036 C1035 1.396 . S
C1036 C1037 1.399 . S
C1037 H1023 0.929 . S
C1037 C1036 1.399 . S
C1037 C1038 1.385 . S
C1038 H1024 0.931 . S
C1038 C1037 1.385 . S
C1038 C1039 1.389 . S
C1039 C1038 1.389 . S
C1039 C1040 1.387 . S
C1040 H1025 0.930 . S
C1040 C1035 1.390 . S
C1040 C1039 1.387 . S
H1041 C1053 0.930 . S
H1042 C1055 0.930 . S
H1043 C1056 0.930 . S
H1044 C1060 0.959 . S
H1045 C1060 0.959 . S
H1046 C1060 0.961 . S
H1047 C1061 0.960 . S
H1048 C1061 0.961 . S
H1049 C1061 0.959 . S
H1050 C1064 0.929 . S
H1051 C1065 0.931 . S
H1052 C1067 0.930 . S
C1053 H1041 0.930 . S
C1053 C1054 1.399 . S
C1053 C1058 1.399 . S
C1054 C1053 1.399 . S
C1054 C1055 1.376 . S
C1055 H1042 0.930 . S
C1055 C1054 1.376 . S
C1055 C1056 1.388 . S
C1056 H1043 0.930 . S
C1056 C1055 1.388 . S
C1056 C1057 1.390 . S
C1057 C1056 1.390 . S
C1057 C1058 1.394 . S
C1057 C1063 1.465 . S
C1058 C1053 1.399 . S
C1058 C1057 1.394 . S
C1058 C1059 1.516 . S
C1059 C1058 1.516 . S
C1059 C1060 1.502 . S
C1059 C1061 1.561 . S
C1059 C1062 1.526 . S
C1060 H1044 0.959 . S
C1060 H1045 0.959 . S
C1060 H1046 0.961 . S
C1060 C1059 1.502 . S
C1061 H1047 0.960 . S
C1061 H1048 0.961 . S
C1061 H1049 0.959 . S
C1061 C1059 1.561 . S
C1062 C1059 1.526 . S
C1062 C1063 1.396 . S
C1062 C1067 1.390 . S
C1063 C1057 1.465 . S
C1063 C1062 1.396 . S
C1063 C1064 1.399 . S
C1064 H1050 0.929 . S
C1064 C1063 1.399 . S
C1064 C1065 1.385 . S
C1065 H1051 0.931 . S
C1065 C1064 1.385 . S
C1065 C1066 1.389 . S
C1066 C1065 1.389 . S
C1066 C1067 1.387 . S
C1067 H1052 0.930 . S
C1067 C1062 1.390 . S
C1067 C1066 1.387 . S
H1068 C1080 0.930 . S
H1069 C1082 0.930 . S
H1070 C1083 0.930 . S
H1071 C1087 0.959 . S
H1072 C1087 0.959 . S
H1073 C1087 0.961 . S
H1074 C1088 0.960 . S
H1075 C1088 0.961 . S
H1076 C1088 0.959 . S
H1077 C1091 0.929 . S
H1078 C1092 0.931 . S
H1079 C1094 0.930 . S
C1080 H1068 0.930 . S
C1080 C1081 1.399 . S
C1080 C1085 1.399 . S
C1081 C1080 1.399 . S
C1081 C1082 1.376 . S
C1082 H1069 0.930 . S
C1082 C1081 1.376 . S
C1082 C1083 1.388 . S
C1083 H1070 0.930 . S
C1083 C1082 1.388 . S
C1083 C1084 1.390 . S
C1084 C1083 1.390 . S
C1084 C1085 1.394 . S
C1084 C1090 1.465 . S
C1085 C1080 1.399 . S
C1085 C1084 1.394 . S
C1085 C1086 1.516 . S
C1086 C1085 1.516 . S
C1086 C1087 1.502 . S
C1086 C1088 1.561 . S
C1086 C1089 1.526 . S
C1087 H1071 0.959 . S
C1087 H1072 0.959 . S
C1087 H1073 0.961 . S
C1087 C1086 1.502 . S
C1088 H1074 0.960 . S
C1088 H1075 0.961 . S
C1088 H1076 0.959 . S
C1088 C1086 1.561 . S
C1089 C1086 1.526 . S
C1089 C1090 1.396 . S
C1089 C1094 1.390 . S
C1090 C1084 1.465 . S
C1090 C1089 1.396 . S
C1090 C1091 1.399 . S
C1091 H1077 0.929 . S
C1091 C1090 1.399 . S
C1091 C1092 1.385 . S
C1092 H1078 0.931 . S
C1092 C1091 1.385 . S
C1092 C1093 1.389 . S
C1093 C1092 1.389 . S
C1093 C1094 1.387 . S
C1094 H1079 0.930 . S
C1094 C1089 1.390 . S
C1094 C1093 1.387 . S
H1095 C1107 0.930 . S
H1096 C1109 0.930 . S
H1097 C1110 0.930 . S
H1098 C1114 0.959 . S
H1099 C1114 0.959 . S
H1100 C1114 0.961 . S
H1101 C1115 0.960 . S
H1102 C1115 0.961 . S
H1103 C1115 0.959 . S
H1104 C1118 0.929 . S
H1105 C1119 0.931 . S
H1106 C1121 0.930 . S
C1107 H1095 0.930 . S
C1107 C1108 1.399 . S
C1107 C1112 1.399 . S
C1108 C1107 1.399 . S
C1108 C1109 1.376 . S
C1109 H1096 0.930 . S
C1109 C1108 1.376 . S
C1109 C1110 1.388 . S
C1110 H1097 0.930 . S
C1110 C1109 1.388 . S
C1110 C1111 1.390 . S
C1111 C1110 1.390 . S
C1111 C1112 1.394 . S
C1111 C1117 1.465 . S
C1112 C1107 1.399 . S
C1112 C1111 1.394 . S
C1112 C1113 1.516 . S
C1113 C1112 1.516 . S
C1113 C1114 1.502 . S
C1113 C1115 1.561 . S
C1113 C1116 1.526 . S
C1114 H1098 0.959 . S
C1114 H1099 0.959 . S
C1114 H1100 0.961 . S
C1114 C1113 1.502 . S
C1115 H1101 0.960 . S
C1115 H1102 0.961 . S
C1115 H1103 0.959 . S
C1115 C1113 1.561 . S
C1116 C1113 1.526 . S
C1116 C1117 1.396 . S
C1116 C1121 1.390 . S
C1117 C1111 1.465 . S
C1117 C1116 1.396 . S
C1117 C1118 1.399 . S
C1118 H1104 0.929 . S
C1118 C1117 1.399 . S
C1118 C1119 1.385 . S
C1119 H1105 0.931 . S
C1119 C1118 1.385 . S
C1119 C1120 1.389 . S
C1120 C1119 1.389 . S
C1120 C1121 1.387 . S
C1121 H1106 0.930 . S
C1121 C1116 1.390 . S
C1121 C1120 1.387 . S
H1122 C1134 0.930 . S
H1123 C1136 0.930 . S
H1124 C1137 0.930 . S
H1125 C1141 0.959 . S
H1126 C1141 0.959 . S
H1127 C1141 0.961 . S
H1128 C1142 0.960 . S
H1129 C1142 0.961 . S
H1130 C1142 0.959 . S
H1131 C1145 0.929 . S
H1132 C1146 0.933 . S
H1133 C1148 0.930 . S
C1134 H1122 0.930 . S
C1134 C1135 1.399 . S
C1134 C1139 1.399 . S
C1135 C1134 1.399 . S
C1135 C1136 1.376 . S
C1136 H1123 0.930 . S
C1136 C1135 1.376 . S
C1136 C1137 1.388 . S
C1137 H1124 0.930 . S
C1137 C1136 1.388 . S
C1137 C1138 1.390 . S
C1138 C1137 1.390 . S
C1138 C1139 1.394 . S
C1138 C1144 1.465 . S
C1139 C1134 1.399 . S
C1139 C1138 1.394 . S
C1139 C1140 1.516 1_565 S
C1140 C1139 1.516 1_545 S
C1140 C1141 1.502 . S
C1140 C1142 1.561 . S
C1140 C1143 1.526 . S
C1141 H1125 0.959 . S
C1141 H1126 0.959 . S
C1141 H1127 0.961 . S
C1141 C1140 1.502 . S
C1142 H1128 0.960 . S
C1142 H1129 0.961 . S
C1142 H1130 0.959 . S
C1142 C1140 1.561 . S
C1143 C1140 1.526 . S
C1143 C1144 1.396 1_545 S
C1143 C1148 1.390 . S
C1144 C1138 1.465 . S
C1144 C1143 1.396 1_565 S
C1144 C1145 1.399 . S
C1145 H1131 0.929 . S
C1145 C1144 1.399 . S
C1145 C1146 1.393 . S
C1146 H1132 0.933 . S
C1146 C1145 1.393 . S
C1146 C1147 1.379 1_565 S
C1147 C1146 1.379 1_545 S
C1147 C1148 1.387 . S
C1148 H1133 0.930 . S
C1148 C1143 1.390 . S
C1148 C1147 1.387 . S
H1149 C1161 0.930 . S
H1150 C1163 0.930 . S
H1151 C1164 0.930 1_545 S
H1152 C1168 0.959 . S
H1153 C1168 0.959 . S
H1154 C1168 0.961 . S
H1155 C1169 0.960 . S
H1156 C1169 0.961 . S
H1157 C1169 0.959 . S
H1158 C1172 0.929 . S
H1159 C1173 0.931 . S
H1160 C1175 0.930 1_565 S
C1161 H1149 0.930 . S
C1161 C1162 1.399 . S
C1161 C1166 1.399 . S
C1162 C1161 1.399 . S
C1162 C1163 1.376 . S
C1163 H1150 0.930 . S
C1163 C1162 1.376 . S
C1163 C1164 1.388 . S
C1164 H1151 0.930 1_565 S
C1164 C1163 1.388 . S
C1164 C1165 1.390 . S
C1165 C1164 1.390 . S
C1165 C1166 1.394 . S
C1165 C1171 1.465 1_565 S
C1166 C1161 1.399 . S
C1166 C1165 1.394 . S
C1166 C1167 1.516 . S
C1167 C1166 1.516 . S
C1167 C1168 1.502 . S
C1167 C1169 1.561 . S
C1167 C1170 1.526 . S
C1168 H1152 0.959 . S
C1168 H1153 0.959 . S
C1168 H1154 0.961 . S
C1168 C1167 1.502 . S
C1169 H1155 0.960 . S
C1169 H1156 0.961 . S
C1169 H1157 0.959 . S
C1169 C1167 1.561 . S
C1170 C1167 1.526 . S
C1170 C1171 1.396 1_565 S
C1170 C1175 1.390 1_565 S
C1171 C1165 1.465 1_545 S
C1171 C1170 1.396 1_545 S
C1171 C1172 1.399 . S
C1172 H1158 0.929 . S
C1172 C1171 1.399 . S
C1172 C1173 1.385 . S
C1173 H1159 0.931 . S
C1173 C1172 1.385 . S
C1173 C1174 1.389 . S
C1174 C1173 1.389 . S
C1174 C1175 1.387 . S
C1175 H1160 0.930 1_545 S
C1175 C1170 1.390 1_545 S
C1175 C1174 1.387 . S
H1176 C1188 0.930 . S
H1177 C1190 0.930 . S
H1178 C1191 0.930 . S
H1179 C1195 0.959 . S
H1180 C1195 0.959 . S
H1181 C1195 0.961 . S
H1182 C1196 0.960 . S
H1183 C1196 0.961 . S
H1184 C1196 0.959 . S
H1185 C1199 0.929 . S
H1186 C1200 0.931 . S
H1187 C1202 0.930 . S
C1188 H1176 0.930 . S
C1188 C1189 1.399 . S
C1188 C1193 1.399 . S
C1189 C1188 1.399 . S
C1189 C1190 1.376 . S
C1190 H1177 0.930 . S
C1190 C1189 1.376 . S
C1190 C1191 1.388 . S
C1191 H1178 0.930 . S
C1191 C1190 1.388 . S
C1191 C1192 1.390 . S
C1192 C1191 1.390 . S
C1192 C1193 1.394 . S
C1192 C1198 1.465 . S
C1193 C1188 1.399 . S
C1193 C1192 1.394 . S
C1193 C1194 1.516 . S
C1194 C1193 1.516 . S
C1194 C1195 1.502 . S
C1194 C1196 1.561 . S
C1194 C1197 1.526 . S
C1195 H1179 0.959 . S
C1195 H1180 0.959 . S
C1195 H1181 0.961 . S
C1195 C1194 1.502 . S
C1196 H1182 0.960 . S
C1196 H1183 0.961 . S
C1196 H1184 0.959 . S
C1196 C1194 1.561 . S
C1197 C1194 1.526 . S
C1197 C1198 1.396 . S
C1197 C1202 1.390 . S
C1198 C1192 1.465 . S
C1198 C1197 1.396 . S
C1198 C1199 1.399 . S
C1199 H1185 0.929 . S
C1199 C1198 1.399 . S
C1199 C1200 1.385 . S
C1200 H1186 0.931 . S
C1200 C1199 1.385 . S
C1200 C1201 1.389 . S
C1201 C1200 1.389 . S
C1201 C1202 1.387 . S
C1202 H1187 0.930 . S
C1202 C1197 1.390 . S
C1202 C1201 1.387 . S
H1203 C1215 0.930 . S
H1204 C1217 0.930 . S
H1205 C1218 0.930 . S
H1206 C1222 0.959 . S
H1207 C1222 0.959 . S
H1208 C1222 0.961 . S
H1209 C1223 0.960 . S
H1210 C1223 0.961 . S
H1211 C1223 0.959 . S
H1212 C1226 0.929 . S
H1213 C1227 0.931 . S
H1214 C1229 0.930 . S
C1215 H1203 0.930 . S
C1215 C1216 1.399 . S
C1215 C1220 1.399 . S
C1216 C1215 1.399 . S
C1216 C1217 1.376 . S
C1217 H1204 0.930 . S
C1217 C1216 1.376 . S
C1217 C1218 1.388 . S
C1218 H1205 0.930 . S
C1218 C1217 1.388 . S
C1218 C1219 1.390 . S
C1219 C1218 1.390 . S
C1219 C1220 1.394 . S
C1219 C1225 1.465 . S
C1220 C1215 1.399 . S
C1220 C1219 1.394 . S
C1220 C1221 1.516 . S
C1221 C1220 1.516 . S
C1221 C1222 1.502 . S
C1221 C1223 1.561 . S
C1221 C1224 1.526 . S
C1222 H1206 0.959 . S
C1222 H1207 0.959 . S
C1222 H1208 0.961 . S
C1222 C1221 1.502 . S
C1223 H1209 0.960 . S
C1223 H1210 0.961 . S
C1223 H1211 0.959 . S
C1223 C1221 1.561 . S
C1224 C1221 1.526 . S
C1224 C1225 1.396 . S
C1224 C1229 1.390 . S
C1225 C1219 1.465 . S
C1225 C1224 1.396 . S
C1225 C1226 1.399 . S
C1226 H1212 0.929 . S
C1226 C1225 1.399 . S
C1226 C1227 1.385 . S
C1227 H1213 0.931 . S
C1227 C1226 1.385 . S
C1227 C1228 1.389 . S
C1228 C1227 1.389 . S
C1228 C1229 1.387 . S
C1229 H1214 0.930 . S
C1229 C1224 1.390 . S
C1229 C1228 1.387 . S
H1230 C1242 0.930 . S
H1231 C1244 0.930 . S
H1232 C1245 0.930 . S
H1233 C1249 0.959 . S
H1234 C1249 0.959 . S
H1235 C1249 0.961 . S
H1236 C1250 0.960 . S
H1237 C1250 0.961 . S
H1238 C1250 0.959 . S
H1239 C1253 0.929 . S
H1240 C1254 0.931 . S
H1241 C1256 0.930 . S
C1242 H1230 0.930 . S
C1242 C1243 1.399 . S
C1242 C1247 1.399 . S
C1243 C1242 1.399 . S
C1243 C1244 1.376 . S
C1244 H1231 0.930 . S
C1244 C1243 1.376 . S
C1244 C1245 1.388 . S
C1245 H1232 0.930 . S
C1245 C1244 1.388 . S
C1245 C1246 1.390 . S
C1246 C1245 1.390 . S
C1246 C1247 1.394 . S
C1246 C1252 1.465 . S
C1247 C1242 1.399 . S
C1247 C1246 1.394 . S
C1247 C1248 1.516 . S
C1248 C1247 1.516 . S
C1248 C1249 1.502 . S
C1248 C1250 1.561 . S
C1248 C1251 1.526 . S
C1249 H1233 0.959 . S
C1249 H1234 0.959 . S
C1249 H1235 0.961 . S
C1249 C1248 1.502 . S
C1250 H1236 0.960 . S
C1250 H1237 0.961 . S
C1250 H1238 0.959 . S
C1250 C1248 1.561 . S
C1251 C1248 1.526 . S
C1251 C1252 1.396 . S
C1251 C1256 1.390 . S
C1252 C1246 1.465 . S
C1252 C1251 1.396 . S
C1252 C1253 1.399 . S
C1253 H1239 0.929 . S
C1253 C1252 1.399 . S
C1253 C1254 1.385 . S
C1254 H1240 0.931 . S
C1254 C1253 1.385 . S
C1254 C1255 1.389 . S
C1255 C1254 1.389 . S
C1255 C1256 1.387 . S
C1256 H1241 0.930 . S
C1256 C1251 1.390 . S
C1256 C1255 1.387 . S
H1257 C1269 0.930 . S
H1258 C1271 0.930 . S
H1259 C1272 0.930 . S
H1260 C1276 0.959 . S
H1261 C1276 0.959 . S
H1262 C1276 0.961 . S
H1263 C1277 0.960 . S
H1264 C1277 0.961 . S
H1265 C1277 0.959 . S
H1266 C1280 0.929 . S
H1267 C1281 0.931 . S
H1268 C1283 0.930 . S
C1269 H1257 0.930 . S
C1269 C1270 1.399 . S
C1269 C1274 1.399 . S
C1270 C1269 1.399 . S
C1270 C1271 1.376 . S
C1271 H1258 0.930 . S
C1271 C1270 1.376 . S
C1271 C1272 1.388 . S
C1272 H1259 0.930 . S
C1272 C1271 1.388 . S
C1272 C1273 1.390 . S
C1273 C1272 1.390 . S
C1273 C1274 1.394 . S
C1273 C1279 1.465 . S
C1274 C1269 1.399 . S
C1274 C1273 1.394 . S
C1274 C1275 1.516 . S
C1275 C1274 1.516 . S
C1275 C1276 1.502 . S
C1275 C1277 1.561 . S
C1275 C1278 1.526 . S
C1276 H1260 0.959 . S
C1276 H1261 0.959 . S
C1276 H1262 0.961 . S
C1276 C1275 1.502 . S
C1277 H1263 0.960 . S
C1277 H1264 0.961 . S
C1277 H1265 0.959 . S
C1277 C1275 1.561 . S
C1278 C1275 1.526 . S
C1278 C1279 1.396 . S
C1278 C1283 1.390 . S
C1279 C1273 1.465 . S
C1279 C1278 1.396 . S
C1279 C1280 1.399 . S
C1280 H1266 0.929 . S
C1280 C1279 1.399 . S
C1280 C1281 1.385 . S
C1281 H1267 0.931 . S
C1281 C1280 1.385 . S
C1281 C1282 1.389 . S
C1282 C1281 1.389 . S
C1282 C1283 1.387 . S
C1283 H1268 0.930 . S
C1283 C1278 1.390 . S
C1283 C1282 1.387 . S
H1284 C1296 0.930 . S
H1285 C1298 0.930 . S
H1286 C1299 0.930 . S
H1287 C1303 0.959 . S
H1288 C1303 0.959 . S
H1289 C1303 0.961 . S
H1290 C1304 0.960 . S
H1291 C1304 0.961 . S
H1292 C1304 0.959 . S
H1293 C1307 0.929 . S
H1294 C1308 0.931 . S
H1295 C1310 0.930 . S
C1296 H1284 0.930 . S
C1296 C1297 1.399 . S
C1296 C1301 1.399 . S
C1297 C1296 1.399 . S
C1297 C1298 1.376 . S
C1298 H1285 0.930 . S
C1298 C1297 1.376 . S
C1298 C1299 1.388 . S
C1299 H1286 0.930 . S
C1299 C1298 1.388 . S
C1299 C1300 1.390 . S
C1300 C1299 1.390 . S
C1300 C1301 1.394 . S
C1300 C1306 1.465 . S
C1301 C1296 1.399 . S
C1301 C1300 1.394 . S
C1301 C1302 1.516 . S
C1302 C1301 1.516 . S
C1302 C1303 1.502 . S
C1302 C1304 1.561 . S
C1302 C1305 1.526 . S
C1303 H1287 0.959 . S
C1303 H1288 0.959 . S
C1303 H1289 0.961 . S
C1303 C1302 1.502 . S
C1304 H1290 0.960 . S
C1304 H1291 0.961 . S
C1304 H1292 0.959 . S
C1304 C1302 1.561 . S
C1305 C1302 1.526 . S
C1305 C1306 1.396 . S
C1305 C1310 1.390 . S
C1306 C1300 1.465 . S
C1306 C1305 1.396 . S
C1306 C1307 1.399 . S
C1307 H1293 0.929 . S
C1307 C1306 1.399 . S
C1307 C1308 1.385 . S
C1308 H1294 0.931 . S
C1308 C1307 1.385 . S
C1308 C1309 1.389 . S
C1309 C1308 1.389 . S
C1309 C1310 1.387 . S
C1310 H1295 0.930 . S
C1310 C1305 1.390 . S
C1310 C1309 1.387 . S
H1311 C1323 0.930 . S
H1312 C1325 0.930 . S
H1313 C1326 0.930 . S
H1314 C1330 0.959 . S
H1315 C1330 0.959 . S
H1316 C1330 0.961 . S
H1317 C1331 0.960 . S
H1318 C1331 0.961 . S
H1319 C1331 0.959 . S
H1320 C1334 0.929 . S
H1321 C1335 0.931 . S
H1322 C1337 0.930 . S
C1323 H1311 0.930 . S
C1323 C1324 1.399 . S
C1323 C1328 1.399 . S
C1324 C1323 1.399 . S
C1324 C1325 1.376 . S
C1325 H1312 0.930 . S
C1325 C1324 1.376 . S
C1325 C1326 1.388 . S
C1326 H1313 0.930 . S
C1326 C1325 1.388 . S
C1326 C1327 1.390 . S
C1327 C1326 1.390 . S
C1327 C1328 1.394 . S
C1327 C1333 1.465 . S
C1328 C1323 1.399 . S
C1328 C1327 1.394 . S
C1328 C1329 1.516 . S
C1329 C1328 1.516 . S
C1329 C1330 1.502 . S
C1329 C1331 1.561 . S
C1329 C1332 1.526 . S
C1330 H1314 0.959 . S
C1330 H1315 0.959 . S
C1330 H1316 0.961 . S
C1330 C1329 1.502 . S
C1331 H1317 0.960 . S
C1331 H1318 0.961 . S
C1331 H1319 0.959 . S
C1331 C1329 1.561 . S
C1332 C1329 1.526 . S
C1332 C1333 1.396 . S
C1332 C1337 1.390 . S
C1333 C1327 1.465 . S
C1333 C1332 1.396 . S
C1333 C1334 1.399 . S
C1334 H1320 0.929 . S
C1334 C1333 1.399 . S
C1334 C1335 1.385 . S
C1335 H1321 0.931 . S
C1335 C1334 1.385 . S
C1335 C1336 1.389 . S
C1336 C1335 1.389 . S
C1336 C1337 1.387 . S
C1337 H1322 0.930 . S
C1337 C1332 1.390 . S
C1337 C1336 1.387 . S
H1338 C1350 0.930 . S
H1339 C1352 0.930 . S
H1340 C1353 0.930 . S
H1341 C1357 0.959 . S
H1342 C1357 0.959 . S
H1343 C1357 0.961 . S
H1344 C1358 0.960 . S
H1345 C1358 0.961 . S
H1346 C1358 0.959 . S
H1347 C1361 0.929 . S
H1348 C1362 0.931 . S
H1349 C1364 0.930 . S
C1350 H1338 0.930 . S
C1350 C1351 1.399 . S
C1350 C1355 1.399 . S
C1351 C1350 1.399 . S
C1351 C1352 1.376 . S
C1352 H1339 0.930 . S
C1352 C1351 1.376 . S
C1352 C1353 1.388 . S
C1353 H1340 0.930 . S
C1353 C1352 1.388 . S
C1353 C1354 1.390 . S
C1354 C1353 1.390 . S
C1354 C1355 1.394 . S
C1354 C1360 1.465 . S
C1355 C1350 1.399 . S
C1355 C1354 1.394 . S
C1355 C1356 1.516 . S
C1356 C1355 1.516 . S
C1356 C1357 1.502 . S
C1356 C1358 1.561 . S
C1356 C1359 1.526 . S
C1357 H1341 0.959 . S
C1357 H1342 0.959 . S
C1357 H1343 0.961 . S
C1357 C1356 1.502 . S
C1358 H1344 0.960 . S
C1358 H1345 0.961 . S
C1358 H1346 0.959 . S
C1358 C1356 1.561 . S
C1359 C1356 1.526 . S
C1359 C1360 1.396 . S
C1359 C1364 1.390 . S
C1360 C1354 1.465 . S
C1360 C1359 1.396 . S
C1360 C1361 1.399 . S
C1361 H1347 0.929 . S
C1361 C1360 1.399 . S
C1361 C1362 1.385 . S
C1362 H1348 0.931 . S
C1362 C1361 1.385 . S
C1362 C1363 1.389 . S
C1363 C1362 1.389 . S
C1363 C1364 1.387 . S
C1364 H1349 0.930 . S
C1364 C1359 1.390 . S
C1364 C1363 1.387 . S
H1365 C1377 0.930 . S
H1366 C1379 0.930 . S
H1367 C1380 0.930 . S
H1368 C1384 0.959 . S
H1369 C1384 0.959 . S
H1370 C1384 0.961 . S
H1371 C1385 0.960 . S
H1372 C1385 0.961 . S
H1373 C1385 0.959 . S
H1374 C1388 0.929 . S
H1375 C1389 0.931 . S
H1376 C1391 0.930 . S
C1377 H1365 0.930 . S
C1377 C1378 1.399 . S
C1377 C1382 1.399 . S
C1378 C1377 1.399 . S
C1378 C1379 1.376 . S
C1379 H1366 0.930 . S
C1379 C1378 1.376 . S
C1379 C1380 1.388 . S
C1380 H1367 0.930 . S
C1380 C1379 1.388 . S
C1380 C1381 1.390 . S
C1381 C1380 1.390 . S
C1381 C1382 1.394 . S
C1381 C1387 1.465 . S
C1382 C1377 1.399 . S
C1382 C1381 1.394 . S
C1382 C1383 1.516 . S
C1383 C1382 1.516 . S
C1383 C1384 1.502 . S
C1383 C1385 1.561 . S
C1383 C1386 1.526 . S
C1384 H1368 0.959 . S
C1384 H1369 0.959 . S
C1384 H1370 0.961 . S
C1384 C1383 1.502 . S
C1385 H1371 0.960 . S
C1385 H1372 0.961 . S
C1385 H1373 0.959 . S
C1385 C1383 1.561 . S
C1386 C1383 1.526 . S
C1386 C1387 1.396 . S
C1386 C1391 1.390 . S
C1387 C1381 1.465 . S
C1387 C1386 1.396 . S
C1387 C1388 1.399 . S
C1388 H1374 0.929 . S
C1388 C1387 1.399 . S
C1388 C1389 1.385 . S
C1389 H1375 0.931 . S
C1389 C1388 1.385 . S
C1389 C1390 1.389 . S
C1390 C1389 1.389 . S
C1390 C1391 1.387 . S
C1391 H1376 0.930 . S
C1391 C1386 1.390 . S
C1391 C1390 1.387 . S
H1392 C1404 0.930 . S
H1393 C1406 0.930 . S
H1394 C1407 0.930 . S
H1395 C1411 0.959 . S
H1396 C1411 0.959 . S
H1397 C1411 0.961 . S
H1398 C1412 0.960 . S
H1399 C1412 0.961 . S
H1400 C1412 0.959 . S
H1401 C1415 0.929 . S
H1402 C1416 0.931 . S
H1403 C1418 0.930 . S
C1404 H1392 0.930 . S
C1404 C1405 1.399 . S
C1404 C1409 1.399 . S
C1405 C1404 1.399 . S
C1405 C1406 1.376 . S
C1406 H1393 0.930 . S
C1406 C1405 1.376 . S
C1406 C1407 1.388 . S
C1407 H1394 0.930 . S
C1407 C1406 1.388 . S
C1407 C1408 1.390 . S
C1408 C1407 1.390 . S
C1408 C1409 1.394 . S
C1408 C1414 1.465 . S
C1409 C1404 1.399 . S
C1409 C1408 1.394 . S
C1409 C1410 1.516 1_455 S
C1410 C1409 1.516 1_655 S
C1410 C1411 1.502 . S
C1410 C1412 1.561 1_655 S
C1410 C1413 1.526 . S
C1411 H1395 0.959 . S
C1411 H1396 0.959 . S
C1411 H1397 0.961 . S
C1411 C1410 1.502 . S
C1412 H1398 0.960 . S
C1412 H1399 0.961 . S
C1412 H1400 0.959 . S
C1412 C1410 1.561 1_455 S
C1413 C1410 1.526 . S
C1413 C1414 1.396 1_655 S
C1413 C1418 1.390 . S
C1414 C1408 1.465 . S
C1414 C1413 1.396 1_455 S
C1414 C1415 1.399 . S
C1415 H1401 0.929 . S
C1415 C1414 1.399 . S
C1415 C1416 1.385 . S
C1416 H1402 0.931 . S
C1416 C1415 1.385 . S
C1416 C1417 1.389 1_455 S
C1417 C1416 1.389 1_655 S
C1417 C1418 1.387 . S
C1418 H1403 0.930 . S
C1418 C1413 1.390 . S
C1418 C1417 1.387 . S
H1419 C1431 0.930 . S
H1420 C1433 0.930 . S
H1421 C1434 0.930 . S
H1422 C1438 0.959 . S
H1423 C1438 0.959 . S
H1424 C1438 0.961 . S
H1425 C1439 0.960 . S
H1426 C1439 0.961 . S
H1427 C1439 0.959 . S
H1428 C1442 0.929 . S
H1429 C1443 0.931 . S
H1430 C1445 0.930 . S
C1431 H1419 0.930 . S
C1431 C1432 1.399 . S
C1431 C1436 1.399 . S
C1432 C1431 1.399 . S
C1432 C1433 1.376 . S
C1433 H1420 0.930 . S
C1433 C1432 1.376 . S
C1433 C1434 1.388 . S
C1434 H1421 0.930 . S
C1434 C1433 1.388 . S
C1434 C1435 1.390 . S
C1435 C1434 1.390 . S
C1435 C1436 1.394 . S
C1435 C1441 1.465 . S
C1436 C1431 1.399 . S
C1436 C1435 1.394 . S
C1436 C1437 1.516 . S
C1437 C1436 1.516 . S
C1437 C1438 1.502 . S
C1437 C1439 1.561 . S
C1437 C1440 1.526 . S
C1438 H1422 0.959 . S
C1438 H1423 0.959 . S
C1438 H1424 0.961 . S
C1438 C1437 1.502 . S
C1439 H1425 0.960 . S
C1439 H1426 0.961 . S
C1439 H1427 0.959 . S
C1439 C1437 1.561 . S
C1440 C1437 1.526 . S
C1440 C1441 1.396 . S
C1440 C1445 1.390 . S
C1441 C1435 1.465 . S
C1441 C1440 1.396 . S
C1441 C1442 1.399 . S
C1442 H1428 0.929 . S
C1442 C1441 1.399 . S
C1442 C1443 1.385 . S
C1443 H1429 0.931 . S
C1443 C1442 1.385 . S
C1443 C1444 1.389 . S
C1444 C1443 1.389 . S
C1444 C1445 1.387 . S
C1445 H1430 0.930 . S
C1445 C1440 1.390 . S
C1445 C1444 1.387 . S
H1446 C1458 0.930 . S
H1447 C1460 0.930 . S
H1448 C1461 0.930 . S
H1449 C1465 0.959 . S
H1450 C1465 0.959 . S
H1451 C1465 0.961 . S
H1452 C1466 0.960 . S
H1453 C1466 0.961 . S
H1454 C1466 0.959 . S
H1455 C1469 0.929 . S
H1456 C1470 0.931 . S
H1457 C1472 0.930 . S
C1458 H1446 0.930 . S
C1458 C1459 1.399 . S
C1458 C1463 1.399 . S
C1459 C1458 1.399 . S
C1459 C1460 1.376 . S
C1460 H1447 0.930 . S
C1460 C1459 1.376 . S
C1460 C1461 1.388 . S
C1461 H1448 0.930 . S
C1461 C1460 1.388 . S
C1461 C1462 1.390 . S
C1462 C1461 1.390 . S
C1462 C1463 1.394 . S
C1462 C1468 1.465 . S
C1463 C1458 1.399 . S
C1463 C1462 1.394 . S
C1463 C1464 1.516 . S
C1464 C1463 1.516 . S
C1464 C1465 1.502 . S
C1464 C1466 1.561 . S
C1464 C1467 1.526 . S
C1465 H1449 0.959 . S
C1465 H1450 0.959 . S
C1465 H1451 0.961 . S
C1465 C1464 1.502 . S
C1466 H1452 0.960 . S
C1466 H1453 0.961 . S
C1466 H1454 0.959 . S
C1466 C1464 1.561 . S
C1467 C1464 1.526 . S
C1467 C1468 1.396 . S
C1467 C1472 1.390 . S
C1468 C1462 1.465 . S
C1468 C1467 1.396 . S
C1468 C1469 1.399 . S
C1469 H1455 0.929 . S
C1469 C1468 1.399 . S
C1469 C1470 1.385 . S
C1470 H1456 0.931 . S
C1470 C1469 1.385 . S
C1470 C1471 1.389 . S
C1471 C1470 1.389 . S
C1471 C1472 1.387 . S
C1472 H1457 0.930 . S
C1472 C1467 1.390 . S
C1472 C1471 1.387 . S
H1473 C1485 0.930 . S
H1474 C1487 0.930 . S
H1475 C1488 0.930 . S
H1476 C1492 0.959 . S
H1477 C1492 0.959 . S
H1478 C1492 0.961 1_455 S
H1479 C1493 0.960 . S
H1480 C1493 0.961 1_655 S
H1481 C1493 0.959 . S
H1482 C1496 0.929 . S
H1483 C1497 0.931 . S
H1484 C1499 0.930 . S
C1485 H1473 0.930 . S
C1485 C1486 1.399 . S
C1485 C1490 1.399 . S
C1486 C1485 1.399 . S
C1486 C1487 1.376 . S
C1487 H1474 0.930 . S
C1487 C1486 1.376 . S
C1487 C1488 1.388 . S
C1488 H1475 0.930 . S
C1488 C1487 1.388 . S
C1488 C1489 1.390 . S
C1489 C1488 1.390 . S
C1489 C1490 1.394 . S
C1489 C1495 1.465 1_455 S
C1490 C1485 1.399 . S
C1490 C1489 1.394 . S
C1490 C1491 1.516 . S
C1491 C1490 1.516 . S
C1491 C1492 1.502 1_455 S
C1491 C1493 1.561 . S
C1491 C1494 1.526 1_455 S
C1492 H1476 0.959 . S
C1492 H1477 0.959 . S
C1492 H1478 0.961 1_655 S
C1492 C1491 1.502 1_655 S
C1493 H1479 0.960 . S
C1493 H1480 0.961 1_455 S
C1493 H1481 0.959 . S
C1493 C1491 1.561 . S
C1494 C1491 1.526 1_655 S
C1494 C1495 1.396 . S
C1494 C1499 1.390 . S
C1495 C1489 1.465 1_655 S
C1495 C1494 1.396 . S
C1495 C1496 1.399 . S
C1496 H1482 0.929 . S
C1496 C1495 1.399 . S
C1496 C1497 1.385 . S
C1497 H1483 0.931 . S
C1497 C1496 1.385 . S
C1497 C1498 1.389 . S
C1498 C1497 1.389 . S
C1498 C1499 1.387 . S
C1499 H1484 0.930 . S
C1499 C1494 1.390 . S
C1499 C1498 1.387 . S
H1500 C1512 0.930 1_655 S
H1501 C1514 0.930 . S
H1502 C1515 0.930 . S
H1503 C1519 0.959 . S
H1504 C1519 0.959 . S
H1505 C1519 0.961 . S
H1506 C1520 0.960 1_655 S
H1507 C1520 0.951 1_655 S
H1508 C1520 0.978 . S
H1509 C1523 0.929 . S
H1510 C1524 0.931 . S
H1511 C1526 0.930 . S
C1512 H1500 0.930 1_455 S
C1512 C1513 1.399 . S
C1512 C1517 1.399 . S
C1513 C1512 1.399 . S
C1513 C1514 1.376 . S
C1514 H1501 0.930 . S
C1514 C1513 1.376 . S
C1514 C1515 1.388 . S
C1515 H1502 0.930 . S
C1515 C1514 1.388 . S
C1515 C1516 1.390 . S
C1516 C1515 1.390 . S
C1516 C1517 1.394 . S
C1516 C1522 1.465 . S
C1517 C1512 1.399 . S
C1517 C1516 1.394 . S
C1517 C1518 1.516 1_455 S
C1518 C1517 1.516 1_655 S
C1518 C1519 1.502 . S
C1518 C1520 1.553 1_655 S
C1518 C1521 1.526 . S
C1519 H1503 0.959 . S
C1519 H1504 0.959 . S
C1519 H1505 0.961 . S
C1519 C1518 1.502 . S
C1520 H1506 0.960 1_455 S
C1520 H1507 0.951 1_455 S
C1520 H1508 0.978 . S
C1520 C1518 1.553 1_455 S
C1521 C1518 1.526 . S
C1521 C1522 1.396 1_655 S
C1521 C1526 1.390 . S
C1522 C1516 1.465 . S
C1522 C1521 1.396 1_455 S
C1522 C1523 1.399 . S
C1523 H1509 0.929 . S
C1523 C1522 1.399 . S
C1523 C1524 1.385 . S
C1524 H1510 0.931 . S
C1524 C1523 1.385 . S
C1524 C1525 1.389 1_455 S
C1525 C1524 1.389 1_655 S
C1525 C1526 1.387 . S
C1526 H1511 0.930 . S
C1526 C1521 1.390 . S
C1526 C1525 1.387 . S
H1527 C1539 0.930 . S
H1528 C1541 0.930 . S
H1529 C1542 0.930 . S
H1530 C1546 0.959 . S
H1531 C1546 0.959 1_655 S
H1532 C1546 0.961 . S
H1533 C1547 0.960 . S
H1534 C1547 0.971 . S
H1535 C1547 0.959 . S
H1536 C1550 0.929 . S
H1537 C1551 0.931 . S
H1538 C1553 0.930 . S
C1539 H1527 0.930 . S
C1539 C1540 1.399 . S
C1539 C1544 1.399 . S
C1540 C1539 1.399 . S
C1540 C1541 1.376 . S
C1541 H1528 0.930 . S
C1541 C1540 1.376 . S
C1541 C1542 1.388 . S
C1542 H1529 0.930 . S
C1542 C1541 1.388 . S
C1542 C1543 1.390 . S
C1543 C1542 1.390 . S
C1543 C1544 1.394 . S
C1543 C1549 1.465 1_455 S
C1544 C1539 1.399 . S
C1544 C1543 1.394 . S
C1544 C1545 1.516 . S
C1545 C1544 1.516 . S
C1545 C1546 1.502 . S
C1545 C1547 1.561 . S
C1545 C1548 1.526 1_455 S
C1546 H1530 0.959 . S
C1546 H1531 0.959 1_455 S
C1546 H1532 0.961 . S
C1546 C1545 1.502 . S
C1547 H1533 0.960 . S
C1547 H1534 0.971 . S
C1547 H1535 0.959 . S
C1547 C1545 1.561 . S
C1548 C1545 1.526 1_655 S
C1548 C1549 1.396 . S
C1548 C1553 1.390 . S
C1549 C1543 1.465 1_655 S
C1549 C1548 1.396 . S
C1549 C1550 1.399 . S
C1550 H1536 0.929 . S
C1550 C1549 1.399 . S
C1550 C1551 1.385 . S
C1551 H1537 0.931 . S
C1551 C1550 1.385 . S
C1551 C1552 1.389 . S
C1552 C1551 1.389 . S
C1552 C1553 1.387 . S
C1553 H1538 0.930 . S
C1553 C1548 1.390 . S
C1553 C1552 1.387 . S
H1554 C1566 0.930 . S
H1555 C1568 0.930 . S
H1556 C1569 0.930 . S
H1557 C1573 0.959 . S
H1558 C1573 0.959 . S
H1559 C1573 0.961 . S
H1560 C1574 0.960 . S
H1561 C1574 0.961 . S
H1562 C1574 0.959 . S
H1563 C1577 0.929 . S
H1564 C1578 0.931 . S
H1565 C1580 0.930 . S
C1566 H1554 0.930 . S
C1566 C1567 1.399 . S
C1566 C1571 1.399 . S
C1567 C1566 1.399 . S
C1567 C1568 1.376 . S
C1568 H1555 0.930 . S
C1568 C1567 1.376 . S
C1568 C1569 1.388 . S
C1569 H1556 0.930 . S
C1569 C1568 1.388 . S
C1569 C1570 1.390 . S
C1570 C1569 1.390 . S
C1570 C1571 1.394 . S
C1570 C1576 1.465 . S
C1571 C1566 1.399 . S
C1571 C1570 1.394 . S
C1571 C1572 1.516 . S
C1572 C1571 1.516 . S
C1572 C1573 1.502 . S
C1572 C1574 1.561 . S
C1572 C1575 1.526 . S
C1573 H1557 0.959 . S
C1573 H1558 0.959 . S
C1573 H1559 0.961 . S
C1573 C1572 1.502 . S
C1574 H1560 0.960 . S
C1574 H1561 0.961 . S
C1574 H1562 0.959 . S
C1574 C1572 1.561 . S
C1575 C1572 1.526 . S
C1575 C1576 1.396 . S
C1575 C1580 1.390 . S
C1576 C1570 1.465 . S
C1576 C1575 1.396 . S
C1576 C1577 1.399 . S
C1577 H1563 0.929 . S
C1577 C1576 1.399 . S
C1577 C1578 1.385 . S
C1578 H1564 0.931 . S
C1578 C1577 1.385 . S
C1578 C1579 1.389 . S
C1579 C1578 1.389 . S
C1579 C1580 1.387 . S
C1580 H1565 0.930 . S
C1580 C1575 1.390 . S
C1580 C1579 1.387 . S
H1581 C1593 0.930 . S
H1582 C1595 0.930 . S
H1583 C1596 0.930 . S
H1584 C1600 0.959 . S
H1585 C1600 0.959 . S
H1586 C1600 0.961 . S
H1587 C1601 0.960 . S
H1588 C1601 0.961 . S
H1589 C1601 0.959 . S
H1590 C1604 0.929 . S
H1591 C1605 0.931 . S
H1592 C1607 0.930 . S
C1593 H1581 0.930 . S
C1593 C1594 1.399 . S
C1593 C1598 1.399 . S
C1594 C1593 1.399 . S
C1594 C1595 1.376 . S
C1595 H1582 0.930 . S
C1595 C1594 1.376 . S
C1595 C1596 1.388 . S
C1596 H1583 0.930 . S
C1596 C1595 1.388 . S
C1596 C1597 1.390 . S
C1597 C1596 1.390 . S
C1597 C1598 1.394 . S
C1597 C1603 1.465 . S
C1598 C1593 1.399 . S
C1598 C1597 1.394 . S
C1598 C1599 1.516 . S
C1599 C1598 1.516 . S
C1599 C1600 1.502 . S
C1599 C1601 1.561 . S
C1599 C1602 1.526 . S
C1600 H1584 0.959 . S
C1600 H1585 0.959 . S
C1600 H1586 0.961 . S
C1600 C1599 1.502 . S
C1601 H1587 0.960 . S
C1601 H1588 0.961 . S
C1601 H1589 0.959 . S
C1601 C1599 1.561 . S
C1602 C1599 1.526 . S
C1602 C1603 1.396 . S
C1602 C1607 1.390 . S
C1603 C1597 1.465 . S
C1603 C1602 1.396 . S
C1603 C1604 1.399 . S
C1604 H1590 0.929 . S
C1604 C1603 1.399 . S
C1604 C1605 1.385 . S
C1605 H1591 0.931 . S
C1605 C1604 1.385 . S
C1605 C1606 1.389 . S
C1606 C1605 1.389 . S
C1606 C1607 1.387 . S
C1607 H1592 0.930 . S
C1607 C1602 1.390 . S
C1607 C1606 1.387 . S
C541 N442 1.373 . S
C553 N13 1.381 . S
C568 N46 1.370 . S
C580 N376 1.381 . S
C595 N79 1.337 . S
C607 N409 1.337 . S
C622 N112 1.335 . S
C634 N343 1.343 . S
C649 N508 1.346 . S
C661 N145 1.336 . S
C676 N178 1.345 . S
C688 N310 1.336 . S
C703 N211 1.348 . S
C715 N475 1.337 . S
C730 N277 1.375 . S
C742 N244 1.382 . S
C757 C18 1.667 1_655 S
C769 C150 1.635 . S
C784 C51 1.640 . S
C796 C183 1.659 . S
C811 C84 1.636 . S
C823 C216 1.673 . S
C838 C249 1.671 . S
C850 C117 1.640 . S
C865 C348 1.636 . S
C877 C282 1.664 . S
C892 C315 1.645 . S
C904 C381 1.653 . S
C919 C480 1.630 . S
C931 C414 1.674 . S
C946 C513 1.636 1_655 S
C958 C447 1.674 . S
C973 C172 1.035 . S
C985 C7 1.053 . S
C1000 C40 0.993 . S
C1012 C205 0.977 . S
C1027 C73 1.012 . S
C1039 C238 0.993 . S
C1054 C139 1.080 . S
C1066 C106 1.070 . S
C1081 C153 0.420 . S
C1093 C351 0.440 . S
C1108 C87 0.459 . S
C1120 C285 0.475 . S
C1135 C384 0.253 . S
C1147 C219 0.262 . S
C1162 C318 0.535 . S
C1174 C21 0.525 . S
C1189 C271 1.071 . S
C1201 C403 1.056 . S
C1216 C502 0.989 . S
C1228 C337 1.009 . S
C1243 C436 0.963 . S
C1255 C304 0.978 . S
C1270 C370 1.051 . S
C1282 C469 1.032 . S
C1297 C483 0.311 . S
C1309 C54 0.293 . S
C1324 C186 0.411 . S
C1336 C450 0.431 . S
C1351 C516 0.466 . S
C1363 C120 0.446 . S
C1378 C252 0.541 . S
C1390 C417 0.533 . S
C1405 N2 0.645 . S
C1417 N431 0.578 . S
C1432 N35 0.463 . S
C1444 N365 0.559 . S
C1459 N68 0.463 . S
C1471 N398 0.538 . S
C1486 N101 0.465 . S
C1498 N332 0.531 . S
C1513 N134 0.644 . S
C1525 N497 0.556 . S
C1540 N167 0.574 . S
C1552 N299 0.468 . S
C1567 N464 0.646 . S
C1579 N200 0.570 . S
C1594 N266 0.472 . S
C1606 N233 0.513 . S
