# Generated by pormake.
# Topology svo, (7)-cn, num edge types: 1
# Building blocks:
#     Node 0, Type 0, BuildingBlock: NUHQUE_clean_sbu_2, # of connection points: 7
#     Node 1, Type 0, BuildingBlock: NUHQUE_clean_sbu_2, # of connection points: 7
#     Node 2, Type 0, BuildingBlock: NUHQUE_clean_sbu_2, # of connection points: 7
#     Node 3, Type 0, BuildingBlock: NUHQUE_clean_sbu_2, # of connection points: 7
#     Node 4, Type 0, BuildingBlock: NUHQUE_clean_sbu_2, # of connection points: 7
#     Node 5, Type 0, BuildingBlock: NUHQUE_clean_sbu_2, # of connection points: 7
#     Node 6, Type 0, BuildingBlock: NUHQUE_clean_sbu_2, # of connection points: 7
#     Node 7, Type 0, BuildingBlock: NUHQUE_clean_sbu_2, # of connection points: 7
#     Node 8, Type 0, BuildingBlock: NUHQUE_clean_sbu_2, # of connection points: 7
#     Node 9, Type 0, BuildingBlock: NUHQUE_clean_sbu_2, # of connection points: 7
#     Node 10, Type 0, BuildingBlock: NUHQUE_clean_sbu_2, # of connection points: 7
#     Node 11, Type 0, BuildingBlock: NUHQUE_clean_sbu_2, # of connection points: 7
#     Node 12, Type 0, BuildingBlock: NUHQUE_clean_sbu_2, # of connection points: 7
#     Node 13, Type 0, BuildingBlock: NUHQUE_clean_sbu_2, # of connection points: 7
#     Node 14, Type 0, BuildingBlock: NUHQUE_clean_sbu_2, # of connection points: 7
#     Node 15, Type 0, BuildingBlock: NUHQUE_clean_sbu_2, # of connection points: 7
#     Edge 16, Type (0, 0), BuildingBlock: EZIPEK_clean_linker_0, # of connection points: 2
#     Edge 17, Type (0, 0), BuildingBlock: EZIPEK_clean_linker_0, # of connection points: 2
#     Edge 18, Type (0, 0), BuildingBlock: EZIPEK_clean_linker_0, # of connection points: 2
#     Edge 19, Type (0, 0), BuildingBlock: EZIPEK_clean_linker_0, # of connection points: 2
#     Edge 20, Type (0, 0), BuildingBlock: EZIPEK_clean_linker_0, # of connection points: 2
#     Edge 21, Type (0, 0), BuildingBlock: EZIPEK_clean_linker_0, # of connection points: 2
#     Edge 22, Type (0, 0), BuildingBlock: EZIPEK_clean_linker_0, # of connection points: 2
#     Edge 23, Type (0, 0), BuildingBlock: EZIPEK_clean_linker_0, # of connection points: 2
#     Edge 24, Type (0, 0), BuildingBlock: EZIPEK_clean_linker_0, # of connection points: 2
#     Edge 25, Type (0, 0), BuildingBlock: EZIPEK_clean_linker_0, # of connection points: 2
#     Edge 26, Type (0, 0), BuildingBlock: EZIPEK_clean_linker_0, # of connection points: 2
#     Edge 27, Type (0, 0), BuildingBlock: EZIPEK_clean_linker_0, # of connection points: 2
#     Edge 28, Type (0, 0), BuildingBlock: EZIPEK_clean_linker_0, # of connection points: 2
#     Edge 29, Type (0, 0), BuildingBlock: EZIPEK_clean_linker_0, # of connection points: 2
#     Edge 30, Type (0, 0), BuildingBlock: EZIPEK_clean_linker_0, # of connection points: 2
#     Edge 31, Type (0, 0), BuildingBlock: EZIPEK_clean_linker_0, # of connection points: 2
#     Edge 32, Type (0, 0), BuildingBlock: EZIPEK_clean_linker_0, # of connection points: 2
#     Edge 33, Type (0, 0), BuildingBlock: EZIPEK_clean_linker_0, # of connection points: 2
#     Edge 34, Type (0, 0), BuildingBlock: EZIPEK_clean_linker_0, # of connection points: 2
#     Edge 35, Type (0, 0), BuildingBlock: EZIPEK_clean_linker_0, # of connection points: 2
#     Edge 36, Type (0, 0), BuildingBlock: EZIPEK_clean_linker_0, # of connection points: 2
#     Edge 37, Type (0, 0), BuildingBlock: EZIPEK_clean_linker_0, # of connection points: 2
#     Edge 38, Type (0, 0), BuildingBlock: EZIPEK_clean_linker_0, # of connection points: 2
#     Edge 39, Type (0, 0), BuildingBlock: EZIPEK_clean_linker_0, # of connection points: 2
#     Edge 40, Type (0, 0), BuildingBlock: EZIPEK_clean_linker_0, # of connection points: 2
#     Edge 41, Type (0, 0), BuildingBlock: EZIPEK_clean_linker_0, # of connection points: 2
#     Edge 42, Type (0, 0), BuildingBlock: EZIPEK_clean_linker_0, # of connection points: 2
#     Edge 43, Type (0, 0), BuildingBlock: EZIPEK_clean_linker_0, # of connection points: 2
#     Edge 44, Type (0, 0), BuildingBlock: EZIPEK_clean_linker_0, # of connection points: 2
#     Edge 45, Type (0, 0), BuildingBlock: EZIPEK_clean_linker_0, # of connection points: 2
#     Edge 46, Type (0, 0), BuildingBlock: EZIPEK_clean_linker_0, # of connection points: 2
#     Edge 47, Type (0, 0), BuildingBlock: EZIPEK_clean_linker_0, # of connection points: 2
#     Edge 48, Type (0, 0), BuildingBlock: EZIPEK_clean_linker_0, # of connection points: 2
#     Edge 49, Type (0, 0), BuildingBlock: EZIPEK_clean_linker_0, # of connection points: 2
#     Edge 50, Type (0, 0), BuildingBlock: EZIPEK_clean_linker_0, # of connection points: 2
#     Edge 51, Type (0, 0), BuildingBlock: EZIPEK_clean_linker_0, # of connection points: 2
#     Edge 52, Type (0, 0), BuildingBlock: EZIPEK_clean_linker_0, # of connection points: 2
#     Edge 53, Type (0, 0), BuildingBlock: EZIPEK_clean_linker_0, # of connection points: 2
#     Edge 54, Type (0, 0), BuildingBlock: EZIPEK_clean_linker_0, # of connection points: 2
#     Edge 55, Type (0, 0), BuildingBlock: EZIPEK_clean_linker_0, # of connection points: 2
#     Edge 56, Type (0, 0), BuildingBlock: EZIPEK_clean_linker_0, # of connection points: 2
#     Edge 57, Type (0, 0), BuildingBlock: EZIPEK_clean_linker_0, # of connection points: 2
#     Edge 58, Type (0, 0), BuildingBlock: EZIPEK_clean_linker_0, # of connection points: 2
#     Edge 59, Type (0, 0), BuildingBlock: EZIPEK_clean_linker_0, # of connection points: 2
#     Edge 60, Type (0, 0), BuildingBlock: EZIPEK_clean_linker_0, # of connection points: 2
#     Edge 61, Type (0, 0), BuildingBlock: EZIPEK_clean_linker_0, # of connection points: 2
#     Edge 62, Type (0, 0), BuildingBlock: EZIPEK_clean_linker_0, # of connection points: 2
#     Edge 63, Type (0, 0), BuildingBlock: EZIPEK_clean_linker_0, # of connection points: 2
#     Edge 64, Type (0, 0), BuildingBlock: EZIPEK_clean_linker_0, # of connection points: 2
#     Edge 65, Type (0, 0), BuildingBlock: EZIPEK_clean_linker_0, # of connection points: 2
#     Edge 66, Type (0, 0), BuildingBlock: EZIPEK_clean_linker_0, # of connection points: 2
#     Edge 67, Type (0, 0), BuildingBlock: EZIPEK_clean_linker_0, # of connection points: 2
#     Edge 68, Type (0, 0), BuildingBlock: EZIPEK_clean_linker_0, # of connection points: 2
#     Edge 69, Type (0, 0), BuildingBlock: EZIPEK_clean_linker_0, # of connection points: 2
#     Edge 70, Type (0, 0), BuildingBlock: EZIPEK_clean_linker_0, # of connection points: 2
#     Edge 71, Type (0, 0), BuildingBlock: EZIPEK_clean_linker_0, # of connection points: 2
# Relax obj value: 0.160
# Max RMSD: 0.273
# Mean RMSD: 0.273
data_MOF--net-svo--node1-NUHQUE_clean_sbu_2--edge1-EZIPEK_clean_linker_0
_symmetry_space_group_name_H-M    P1
_symmetry_Int_Tables_number       1
_symmetry_cell_setting            triclinic
loop_
_symmetry_equiv_pos_as_xyz
'x, y, z'
_cell_length_a     30.332384
_cell_length_b     30.340969
_cell_length_c     39.908788
_cell_angle_alpha  90.120573
_cell_angle_beta   90.029387
_cell_angle_gamma 89.745569
loop_
_atom_site_label
_atom_site_type_symbol
_atom_site_fract_x
_atom_site_fract_y
_atom_site_fract_z
_atom_type_partial_charge
O0 O 0.26542 0.19808 0.10772 0.0
Tb1 Tb 0.27714 0.26876 0.11138 0.0
Eu2 Eu 0.21641 0.38015 0.11577 0.0
C3 C 0.2677 0.1731 0.1346 0.0
O4 O 0.27742 0.19251 0.16312 0.0
C5 C 0.25775 0.32277 0.1747 0.0
O6 O 0.22568 0.45385 0.10967 0.0
C7 C 0.13252 0.36471 0.12646 0.0
C8 C 0.26544 0.47127 0.10889 0.0
O9 O 0.30007 0.44511 0.1093 0.0
C10 C 0.23627 0.32032 0.05058 0.0
C11 C 0.08774 0.38126 0.11704 0.0
C12 C 0.05176 0.35184 0.11429 0.0
C13 C 0.00842 0.36802 0.10928 0.0
C14 C 1.00133 0.41343 0.10689 0.0
C15 C 0.03629 0.4429 0.11036 0.0
C16 C 0.07943 0.42694 0.11487 0.0
O17 O 0.2482 0.28606 0.15908 0.0
O18 O 0.26067 0.36054 0.15887 0.0
O19 O 0.34389 0.24187 0.1163 0.0
O20 O 0.33675 0.30771 0.0997 0.0
C21 C 0.36533 0.27659 0.10671 0.0
O22 O 0.2404 0.35985 0.06414 0.0
O23 O 0.23706 0.28345 0.0679 0.0
O24 O 0.15675 0.39131 0.14465 0.0
O25 O 0.15586 0.34315 0.10401 0.0
H26 H 0.05719 0.31671 0.11703 0.0
H27 H 0.96799 0.42602 0.10408 0.0
H28 H 0.10606 0.45025 0.11824 0.0
O29 O 0.82653 0.23607 0.10955 0.0
Tb30 Tb 0.76978 0.28079 0.1135 0.0
Eu31 Eu 0.65438 0.23895 0.13064 0.0
C32 C 0.86964 0.24169 0.10697 0.0
O33 O 0.89421 0.20613 0.10419 0.0
C34 C 0.72227 0.27916 0.18207 0.0
O35 O 0.57936 0.24628 0.12939 0.0
C36 C 0.6731 0.15733 0.14583 0.0
C37 C 0.55823 0.27309 0.10877 0.0
O38 O 0.58082 0.29773 0.08799 0.0
C39 C 0.70008 0.24922 0.0572 0.0
C40 C 0.66031 0.11119 0.13832 0.0
C41 C 0.69241 0.07743 0.14002 0.0
C42 C 0.68001 0.03291 0.13707 0.0
C43 C 0.63566 0.02232 0.13201 0.0
C44 C 0.60337 0.05526 0.13076 0.0
C45 C 0.61568 0.09974 0.13359 0.0
O46 O 0.75439 0.26154 0.1644 0.0
O47 O 0.68299 0.28576 0.16888 0.0
O48 O 0.80921 0.34114 0.10931 0.0
O49 O 0.73923 0.34629 0.11294 0.0
C50 C 0.77583 0.36854 0.11075 0.0
O51 O 0.66417 0.25364 0.07565 0.0
O52 O 0.74088 0.2516 0.06864 0.0
O53 O 0.64384 0.18151 0.16176 0.0
O54 O 0.69478 0.17951 0.12291 0.0
H55 H 0.72655 0.08556 0.145 0.0
H56 H 0.62589 0.98799 0.13067 0.0
H57 H 0.59037 0.12507 0.1334 0.0
O58 O 0.7435 0.83705 0.12511 0.0
Tb59 Tb 0.74188 0.76534 0.12823 0.0
Eu60 Eu 0.79801 0.66024 0.13546 0.0
C61 C 0.76043 0.86267 0.14839 0.0
O62 O 0.78342 0.84536 0.173 0.0
C63 C 0.7534 0.71543 0.19354 0.0
O64 O 0.80312 0.5859 0.12751 0.0
C65 C 0.87737 0.6868 0.15003 0.0
C66 C 0.76887 0.56035 0.12163 0.0
O67 O 0.72939 0.57808 0.1195 0.0
C68 C 0.7844 0.71565 0.06739 0.0
C69 C 0.92317 0.67767 0.13911 0.0
C70 C 0.95553 0.71075 0.14162 0.0
C71 C 1.00016 0.70052 0.1355 0.0
C72 C 0.01212 0.65754 0.12634 0.0
C73 C 0.98042 0.62444 0.12404 0.0
C74 C 0.93593 0.6346 0.12994 0.0
O75 O 0.76643 0.75105 0.17789 0.0
O76 O 0.75062 0.67742 0.17757 0.0
O77 O 0.67361 0.78766 0.12677 0.0
O78 O 0.6865 0.71912 0.12161 0.0
C79 C 0.65565 0.74933 0.12277 0.0
O80 O 0.7802 0.67646 0.08148 0.0
O81 O 0.78227 0.75272 0.0845 0.0
O82 O 0.85737 0.65433 0.16537 0.0
O83 O 0.85138 0.70813 0.12928 0.0
H84 H 0.94644 0.74364 0.14978 0.0
H85 H 0.04664 0.64925 0.12277 0.0
H86 H 0.91171 0.60844 0.12901 0.0
O87 O 0.19446 0.75535 0.12462 0.0
Tb88 Tb 0.26579 0.74878 0.12767 0.0
Eu89 Eu 0.37404 0.80064 0.13287 0.0
C90 C 0.17039 0.77585 0.14723 0.0
O91 O 0.18948 0.79929 0.17078 0.0
C92 C 0.31905 0.75779 0.19258 0.0
O93 O 0.44731 0.79026 0.12506 0.0
C94 C 0.36112 0.88359 0.14757 0.0
C95 C 0.46492 0.75101 0.1201 0.0
O96 O 0.43936 0.7163 0.11794 0.0
C97 C 0.31373 0.7915 0.06758 0.0
C98 C 0.37118 0.92943 0.13683 0.0
C99 C 0.3368 0.96078 0.13442 0.0
C100 C 0.34637 0.0057 0.12937 0.0
C101 C 0.39021 0.01909 0.12604 0.0
C102 C 0.42468 0.9886 0.12842 0.0
C103 C 0.41522 0.94379 0.13353 0.0
O104 O 0.28242 0.76997 0.17767 0.0
O105 O 0.35676 0.75624 0.17633 0.0
O106 O 0.23987 0.6819 0.12636 0.0
O107 O 0.30726 0.69138 0.11407 0.0
C108 C 0.27597 0.66213 0.11737 0.0
O109 O 0.35356 0.78406 0.07969 0.0
O110 O 0.27871 0.79375 0.08687 0.0
O111 O 0.39424 0.85991 0.15883 0.0
O112 O 0.33262 0.86031 0.13018 0.0
H113 H 0.3029 0.9507 0.13804 0.0
H114 H 0.39766 0.0538 0.12296 0.0
H115 H 0.44231 0.92068 0.13628 0.0
O116 O 0.25735 0.83419 0.35079 0.0
Tb117 Tb 0.27383 0.76858 0.36826 0.0
Eu118 Eu 0.21821 0.63501 0.36559 0.0
C119 C 0.22852 0.85934 0.36633 0.0
O120 O 0.20033 0.84161 0.38726 0.0
C121 C 0.26037 0.69274 0.31782 0.0
O122 O 0.23305 0.56449 0.38003 0.0
C123 C 0.13423 0.64902 0.35854 0.0
C124 C 0.27373 0.5511 0.38566 0.0
O125 O 0.30597 0.57986 0.38562 0.0
C126 C 0.23217 0.70828 0.42506 0.0
C127 C 0.0911 0.64197 0.3746 0.0
C128 C 0.06209 0.67785 0.37841 0.0
C129 C 0.01828 0.67085 0.38826 0.0
C130 C 1.00395 0.62807 0.39554 0.0
C131 C 0.03259 0.59217 0.39172 0.0
C132 C 0.07621 0.59917 0.38168 0.0
O133 O 0.2468 0.71203 0.34509 0.0
O134 O 0.25199 0.6509 0.31712 0.0
O135 O 0.33917 0.75264 0.34876 0.0
O136 O 0.33267 0.7771 0.39877 0.0
C137 C 0.36027 0.76385 0.37586 0.0
O138 O 0.24851 0.67238 0.41027 0.0
O139 O 0.23646 0.74852 0.41224 0.0
O140 O 0.15479 0.61405 0.34688 0.0
O141 O 0.16076 0.67818 0.37198 0.0
H142 H 0.07266 0.7108 0.3718 0.0
H143 H 0.96977 0.6224 0.4022 0.0
H144 H 0.09767 0.57095 0.37784 0.0
O145 O 0.19577 0.27544 0.38805 0.0
Tb146 Tb 0.26633 0.27717 0.38073 0.0
Eu147 Eu 0.36052 0.22113 0.35521 0.0
C148 C 0.16908 0.25171 0.36957 0.0
O149 O 0.18482 0.22359 0.34752 0.0
C150 C 0.29975 0.27771 0.31014 0.0
O151 O 0.43406 0.21663 0.3482 0.0
C152 C 0.32824 0.14562 0.33693 0.0
C153 C 0.46187 0.23763 0.36765 0.0
O154 O 0.44691 0.26217 0.39235 0.0
C155 C 0.32487 0.22118 0.42998 0.0
C156 C 0.33638 0.09928 0.34661 0.0
C157 C 0.30128 0.06916 0.34818 0.0
C158 C 0.30957 0.02469 0.35599 0.0
C159 C 0.3528 0.01054 0.36239 0.0
C160 C 0.3879 0.04009 0.36068 0.0
C161 C 0.37965 0.08445 0.35311 0.0
O162 O 0.26683 0.26273 0.32782 0.0
O163 O 0.33948 0.27813 0.32301 0.0
O164 O 0.24734 0.34375 0.39536 0.0
O165 O 0.31429 0.33144 0.38274 0.0
C166 C 0.28572 0.3617 0.3915 0.0
O167 O 0.36062 0.22537 0.41155 0.0
O168 O 0.28504 0.22981 0.41859 0.0
O169 O 0.36089 0.16514 0.32144 0.0
O170 O 0.30883 0.17117 0.35915 0.0
H171 H 0.26787 0.08003 0.34305 0.0
H172 H 0.35928 0.97617 0.36812 0.0
H173 H 0.40712 0.10713 0.3518 0.0
O174 O 0.7785 0.18177 0.32366 0.0
Tb175 Tb 0.73775 0.22709 0.35245 0.0
Eu176 Eu 0.8003 0.35769 0.3831 0.0
C177 C 0.77113 0.13966 0.31878 0.0
O178 O 0.79843 0.11728 0.29962 0.0
C179 C 0.77036 0.31707 0.31964 0.0
O180 O 0.78948 0.43062 0.38779 0.0
C181 C 0.87979 0.33391 0.3987 0.0
C182 C 0.74997 0.4478 0.38388 0.0
O183 O 0.71588 0.42174 0.37985 0.0
C184 C 0.76131 0.27353 0.4198 0.0
C185 C 0.92512 0.3503 0.39692 0.0
C186 C 0.95963 0.32004 0.39197 0.0
C187 C 1.00311 0.33489 0.389 0.0
C188 C 0.01205 0.38004 0.3911 0.0
C189 C 0.97778 0.41042 0.39587 0.0
C190 C 0.93424 0.39559 0.39878 0.0
O191 O 0.76798 0.29003 0.34498 0.0
O192 O 0.78724 0.35522 0.32734 0.0
O193 O 0.67637 0.25017 0.32975 0.0
O194 O 0.67433 0.20052 0.36772 0.0
C195 C 0.65074 0.22545 0.34802 0.0
O196 O 0.7498 0.30983 0.40374 0.0
O197 O 0.75665 0.23451 0.40512 0.0
O198 O 0.8613 0.32415 0.36986 0.0
O199 O 0.85298 0.35388 0.41985 0.0
H200 H 0.95269 0.28509 0.38998 0.0
H201 H 0.04564 0.39162 0.38835 0.0
H202 H 0.90765 0.41925 0.4019 0.0
O203 O 0.83332 0.73183 0.36915 0.0
Tb204 Tb 0.76319 0.72362 0.376 0.0
Eu205 Eu 0.64189 0.81655 0.37617 0.0
C206 C 0.85645 0.7605 0.38638 0.0
O207 O 0.83644 0.79128 0.40394 0.0
C208 C 0.69928 0.7723 0.32426 0.0
O209 O 0.56931 0.80619 0.37026 0.0
C210 C 0.65579 0.89838 0.3914 0.0
C211 C 0.54971 0.77377 0.38593 0.0
O212 O 0.57294 0.7466 0.40455 0.0
C213 C 0.70953 0.77301 0.42958 0.0
C214 C 0.63486 0.94149 0.38451 0.0
C215 C 0.66188 0.97743 0.37665 0.0
C216 C 0.64326 0.01845 0.36864 0.0
C217 C 0.59753 0.02398 0.36934 0.0
C218 C 0.57004 0.98838 0.37666 0.0
C219 C 0.58864 0.94698 0.38419 0.0
O220 O 0.71687 0.76866 0.35391 0.0
O221 O 0.66349 0.79658 0.32368 0.0
O222 O 0.75105 0.66099 0.35048 0.0
O223 O 0.74701 0.66441 0.4038 0.0
C224 C 0.74487 0.63839 0.37789 0.0
O225 O 0.6767 0.76535 0.40864 0.0
O226 O 0.74839 0.75474 0.42375 0.0
O227 O 0.67481 0.8787 0.36577 0.0
O228 O 0.63415 0.87119 0.41098 0.0
H229 H 0.69739 0.97324 0.37583 0.0
H230 H 0.5832 0.05557 0.3628 0.0
H231 H 0.56722 0.91927 0.38921 0.0
O232 O 0.71037 0.80915 0.85561 0.0
Tb233 Tb 0.77605 0.82619 0.87146 0.0
Eu234 Eu 0.86992 0.70803 0.8891 0.0
C235 C 0.69298 0.77067 0.86211 0.0
O236 O 0.71758 0.73844 0.87359 0.0
C237 C 0.82989 0.75718 0.82932 0.0
O238 O 0.94303 0.70626 0.88208 0.0
C239 C 0.84061 0.63433 0.9124 0.0
C240 C 0.96603 0.74163 0.88905 0.0
O241 O 0.94586 0.77698 0.9005 0.0
C242 C 0.80767 0.77151 0.93152 0.0
C243 C 0.85557 0.5883 0.91013 0.0
C244 C 0.8245 0.55454 0.90613 0.0
C245 C 0.83854 0.51079 0.9017 0.0
C246 C 0.88368 0.50091 0.9013 0.0
C247 C 0.91482 0.53449 0.90463 0.0
C248 C 0.90082 0.57815 0.9091 0.0
O249 O 0.83077 0.78682 0.85327 0.0
O250 O 0.8498 0.71957 0.83537 0.0
O251 O 0.78302 0.88625 0.84174 0.0
O252 O 0.78017 0.89115 0.89494 0.0
C253 C 0.7826 0.91338 0.86708 0.0
O254 O 0.84329 0.76985 0.91299 0.0
O255 O 0.77554 0.79823 0.92215 0.0
O256 O 0.82661 0.65153 0.88411 0.0
O257 O 0.86551 0.66123 0.93005 0.0
H258 H 0.78956 0.5623 0.90587 0.0
H259 H 0.8946 0.46722 0.89725 0.0
H260 H 0.92514 0.60415 0.91083 0.0
O261 O 0.25418 0.66247 0.85987 0.0
Tb262 Tb 0.24172 0.73115 0.8712 0.0
Eu263 Eu 0.31725 0.858 0.86706 0.0
C264 C 0.27563 0.63668 0.8807 0.0
O265 O 0.30193 0.65412 0.9032 0.0
C266 C 0.26766 0.80275 0.81982 0.0
O267 O 0.32287 0.93206 0.86867 0.0
C268 C 0.39465 0.82135 0.86665 0.0
C269 C 0.29782 0.95552 0.88881 0.0
O270 O 0.2708 0.93537 0.90937 0.0
C271 C 0.28037 0.79532 0.92572 0.0
C272 C 0.43934 0.83879 0.86599 0.0
C273 C 0.47542 0.80995 0.86566 0.0
C274 C 0.51825 0.82688 0.86584 0.0
C275 C 0.52491 0.87258 0.86634 0.0
C276 C 0.48884 0.90148 0.8657 0.0
C277 C 0.44601 0.88451 0.86568 0.0
O278 O 0.27782 0.78202 0.8473 0.0
O279 O 0.28238 0.84289 0.81869 0.0
O280 O 0.17868 0.7473 0.84755 0.0
O281 O 0.18079 0.73109 0.8996 0.0
C282 C 0.15534 0.74163 0.87462 0.0
O283 O 0.26938 0.82801 0.90529 0.0
O284 O 0.27381 0.75356 0.9169 0.0
O285 O 0.37138 0.82798 0.83941 0.0
O286 O 0.37264 0.82956 0.89419 0.0
H287 H 0.47031 0.7746 0.86523 0.0
H288 H 0.55813 0.88565 0.86596 0.0
H289 H 0.41799 0.90684 0.86522 0.0
O290 O 0.27827 0.26256 0.8111 0.0
Tb291 Tb 0.2491 0.22345 0.85079 0.0
Eu292 Eu 0.12096 0.28646 0.8634 0.0
C293 C 0.319 0.2593 0.80006 0.0
O294 O 0.33104 0.28431 0.77488 0.0
C295 C 0.1588 0.22213 0.81624 0.0
O296 O 0.05269 0.28003 0.88517 0.0
C297 C 0.13942 0.36797 0.84912 0.0
C298 C 0.04204 0.2494 0.90693 0.0
O299 O 0.07293 0.22487 0.92061 0.0
C300 C 0.2049 0.2737 0.91258 0.0
C301 C 0.13717 0.41233 0.86445 0.0
C302 C 0.17535 0.43842 0.86681 0.0
C303 C 0.1723 0.48251 0.87762 0.0
C304 C 0.13117 0.50001 0.88685 0.0
C305 C 0.09322 0.47424 0.88474 0.0
C306 C 0.09627 0.43051 0.87387 0.0
O307 O 0.17946 0.21962 0.84483 0.0
O308 O 0.12266 0.24504 0.81706 0.0
O309 O 0.25716 0.15461 0.83658 0.0
O310 O 0.28648 0.17669 0.88188 0.0
C311 C 0.27964 0.14246 0.86276 0.0
O312 O 0.16557 0.258 0.90438 0.0
O313 O 0.24073 0.26746 0.89385 0.0
O314 O 0.10174 0.34907 0.84196 0.0
O315 O 0.16899 0.34026 0.86072 0.0
H316 H 0.20701 0.4251 0.85915 0.0
H317 H 0.12844 0.5342 0.89463 0.0
H318 H 0.06633 0.41132 0.87175 0.0
O319 O 0.76871 0.31974 0.86005 0.0
Tb320 Tb 0.77767 0.24935 0.86656 0.0
Eu321 Eu 0.67773 0.17919 0.84284 0.0
C322 C 0.76493 0.34373 0.88741 0.0
O323 O 0.76916 0.32334 0.91627 0.0
C324 C 0.74936 0.22358 0.79503 0.0
O325 O 0.70537 0.11014 0.8399 0.0
C326 C 0.59325 0.17757 0.83179 0.0
C327 C 0.74409 0.09976 0.85262 0.0
O328 O 0.76913 0.13071 0.86543 0.0
C329 C 0.70475 0.21646 0.91509 0.0
C330 C 0.55133 0.15625 0.84098 0.0
C331 C 0.51158 0.17962 0.83657 0.0
C332 C 0.47085 0.15807 0.83967 0.0
C333 C 0.47003 0.11319 0.84757 0.0
C334 C 0.50933 0.08978 0.85246 0.0
C335 C 0.54999 0.11133 0.84946 0.0
O336 O 0.78053 0.21865 0.81744 0.0
O337 O 0.70756 0.22385 0.8036 0.0
O338 O 0.84367 0.2731 0.87737 0.0
O339 O 0.82349 0.21198 0.89852 0.0
C340 C 0.8559 0.24001 0.89577 0.0
O341 O 0.69079 0.18169 0.89862 0.0
O342 O 0.72069 0.2507 0.89945 0.0
O343 O 0.62201 0.15304 0.81554 0.0
O344 O 0.61148 0.20473 0.85343 0.0
H345 H 0.51228 0.21393 0.82904 0.0
H346 H 0.43889 0.09589 0.8481 0.0
H347 H 0.58034 0.0926 0.85196 0.0
O348 O 0.67315 0.21696 0.63091 0.0
Tb349 Tb 0.74204 0.20763 0.61805 0.0
Eu350 Eu 0.86858 0.28861 0.6035 0.0
C351 C 0.64584 0.2405 0.61262 0.0
O352 O 0.66134 0.26694 0.58946 0.0
C353 C 0.81116 0.262 0.66108 0.0
O354 O 0.94177 0.27639 0.6106 0.0
C355 C 0.85095 0.36722 0.58169 0.0
C356 C 0.96599 0.25608 0.58785 0.0
O357 O 0.94742 0.24237 0.55999 0.0
C358 C 0.79434 0.24279 0.55752 0.0
C359 C 0.86441 0.41323 0.58749 0.0
C360 C 0.83163 0.4453 0.59314 0.0
C361 C 0.84331 0.48899 0.60019 0.0
C362 C 0.88785 0.50077 0.60128 0.0
C363 C 0.92078 0.46917 0.59569 0.0
C364 C 0.90911 0.42535 0.58882 0.0
O365 O 0.79186 0.25382 0.63259 0.0
O366 O 0.84919 0.2818 0.65825 0.0
O367 O 0.76277 0.15058 0.64751 0.0
O368 O 0.75089 0.14354 0.59495 0.0
C369 C 0.76165 0.12301 0.62236 0.0
O370 O 0.82892 0.23516 0.57699 0.0
O371 O 0.75459 0.2305 0.56742 0.0
O372 O 0.82939 0.34858 0.60637 0.0
O373 O 0.87934 0.34059 0.56692 0.0
H374 H 0.7971 0.43619 0.59266 0.0
H375 H 0.89695 0.53445 0.60716 0.0
H376 H 0.93479 0.40087 0.58515 0.0
O377 O 0.77633 0.67751 0.61179 0.0
Tb378 Tb 0.77664 0.74747 0.62242 0.0
Eu379 Eu 0.71613 0.84323 0.64256 0.0
C380 C 0.75283 0.64854 0.62825 0.0
O381 O 0.72346 0.66149 0.65039 0.0
C382 C 0.7664 0.78185 0.69385 0.0
O383 O 0.72494 0.91624 0.64073 0.0
C384 C 0.63479 0.82808 0.65904 0.0
C385 C 0.76326 0.93354 0.63324 0.0
O386 O 0.79717 0.90783 0.62677 0.0
C387 C 0.72612 0.80404 0.56846 0.0
C388 C 0.58925 0.84076 0.6495 0.0
C389 C 0.55596 0.8086 0.64963 0.0
C390 C 0.51162 0.82086 0.64519 0.0
C391 C 0.50058 0.86524 0.6403 0.0
C392 C 0.53315 0.89767 0.64022 0.0
C393 C 0.57756 0.88539 0.6444 0.0
O394 O 0.75786 0.74763 0.67478 0.0
O395 O 0.76486 0.82188 0.68161 0.0
O396 O 0.84445 0.72635 0.61458 0.0
O397 O 0.83165 0.79483 0.62082 0.0
C398 C 0.86229 0.76502 0.61597 0.0
O399 O 0.72716 0.84005 0.58681 0.0
O400 O 0.73337 0.76454 0.58093 0.0
O401 O 0.65895 0.85929 0.67249 0.0
O402 O 0.65716 0.80183 0.63884 0.0
H403 H 0.56422 0.77443 0.6546 0.0
H404 H 0.46621 0.87479 0.63787 0.0
H405 H 0.60255 0.9108 0.6451 0.0
O406 O 0.31961 0.75702 0.62686 0.0
Tb407 Tb 0.24819 0.76018 0.62968 0.0
Eu408 Eu 0.14366 0.71093 0.63387 0.0
C409 C 0.34416 0.73684 0.64927 0.0
O410 O 0.32582 0.7114 0.67185 0.0
C411 C 0.19905 0.74696 0.69459 0.0
O412 O 0.06999 0.72018 0.62735 0.0
C413 C 0.16215 0.62782 0.64371 0.0
C414 C 0.05275 0.75866 0.61918 0.0
O415 O 0.0788 0.79235 0.61373 0.0
C416 C 0.19953 0.72384 0.56716 0.0
C417 C 0.15356 0.58344 0.62933 0.0
C418 C 0.18794 0.552 0.62663 0.0
C419 C 0.17872 0.50835 0.61656 0.0
C420 C 0.13531 0.49669 0.60867 0.0
C421 C 0.10099 0.5273 0.61168 0.0
C422 C 0.11015 0.57062 0.6216 0.0
O423 O 0.23381 0.73295 0.67823 0.0
O424 O 0.16127 0.75233 0.67899 0.0
O425 O 0.27114 0.82798 0.6322 0.0
O426 O 0.20296 0.81691 0.62369 0.0
C427 C 0.2333 0.84701 0.62748 0.0
O428 O 0.16067 0.73133 0.5809 0.0
O429 O 0.23586 0.72164 0.58505 0.0
O430 O 0.1282 0.6484 0.65701 0.0
O431 O 0.18855 0.65442 0.62735 0.0
H432 H 0.22136 0.56095 0.63334 0.0
H433 H 0.12784 0.46301 0.60151 0.0
H434 H 0.08307 0.5938 0.6243 0.0
O435 O 0.24494 0.31301 0.62997 0.0
Tb436 Tb 0.24149 0.2422 0.62072 0.0
Eu437 Eu 0.28196 0.13014 0.63456 0.0
C438 C 0.26574 0.34059 0.61013 0.0
O439 O 0.2934 0.32514 0.58763 0.0
C440 C 0.2373 0.19262 0.68639 0.0
O441 O 0.27129 0.0568 0.62742 0.0
C442 C 0.362 0.1421 0.65611 0.0
C443 C 0.23258 0.03807 0.63165 0.0
O444 O 0.19818 0.06241 0.63947 0.0
C445 C 0.28947 0.1845 0.56609 0.0
C446 C 0.40808 0.13127 0.64635 0.0
C447 C 0.43825 0.16553 0.64022 0.0
C448 C 0.48253 0.15581 0.63272 0.0
C449 C 0.49661 0.11185 0.63106 0.0
C450 C 0.46729 0.07748 0.6374 0.0
C451 C 0.42306 0.08715 0.64497 0.0
O452 O 0.25866 0.22477 0.67175 0.0
O453 O 0.23052 0.15546 0.67033 0.0
O454 O 0.17808 0.20688 0.62212 0.0
O455 O 0.18257 0.2673 0.59579 0.0
C456 C 0.1559 0.23631 0.60511 0.0
O457 O 0.27802 0.14674 0.57981 0.0
O458 O 0.28803 0.22255 0.58212 0.0
O459 O 0.33691 0.10921 0.6656 0.0
O460 O 0.34077 0.17144 0.63795 0.0
H461 H 0.42761 0.19963 0.64177 0.0
H462 H 0.53088 0.10436 0.62561 0.0
H463 H 0.40076 0.06023 0.65022 0.0
C464 C 0.19369 0.33272 0.9971 0.0
C465 C 0.23115 0.31537 0.01394 0.0
C466 C 0.24669 0.26702 0.96648 0.0
C467 C 0.21228 0.28735 0.94793 0.0
N468 N 0.15582 0.34375 0.94439 0.0
N469 N 0.29973 0.27506 0.01114 0.0
C470 C 0.1866 0.32155 0.96284 0.0
C471 C 0.25983 0.28563 0.99734 0.0
N472 N 0.16352 0.35774 0.01414 0.0
N473 N 0.26454 0.22791 0.95605 0.0
H474 H 0.31087 0.28902 0.0335 0.0
H475 H 0.32346 0.25635 -0.00142 0.0
H476 H 0.25225 0.21044 0.9356 0.0
H477 H 0.28721 0.21001 0.97024 0.0
H478 H 0.1329 0.36653 0.00433 0.0
H479 H 0.1676 0.36725 0.03903 0.0
H480 H 0.14045 0.37262 0.95255 0.0
H481 H 0.14743 0.33491 0.92007 0.0
C482 C 0.67625 0.26883 -0.00137 0.0
C483 C 0.69491 0.23798 0.02124 0.0
C484 C 0.71644 0.1902 0.97423 0.0
C485 C 0.69665 0.22047 0.95165 0.0
N486 N 0.64746 0.28202 0.94286 0.0
N487 N 0.72226 0.16447 0.03152 0.0
C488 C 0.67331 0.25778 0.96405 0.0
C489 C 0.71165 0.19707 0.0093 0.0
N490 N 0.66335 0.3095 0.00982 0.0
N491 N 0.74198 0.15636 0.96237 0.0
H492 H 0.71879 0.16821 0.05736 0.0
H493 H 0.73032 0.13244 0.02425 0.0
H494 H 0.74654 0.15004 0.93692 0.0
H495 H 0.76149 0.13656 0.97773 0.0
H496 H 0.65446 0.33516 0.99386 0.0
H497 H 0.66486 0.31881 0.03497 0.0
H498 H 0.62656 0.3072 0.95095 0.0
H499 H 0.64337 0.27385 0.91764 0.0
C500 C 0.83707 0.76222 0.99007 0.0
C501 C 0.8065 0.74976 0.96485 0.0
C502 C 0.76454 0.7073 0.0062 0.0
C503 C 0.79534 0.71956 0.03126 0.0
N504 N 0.86796 0.74604 0.04465 0.0
N505 N 0.75031 0.69939 0.9467 0.0
C506 C 0.834 0.74281 0.0223 0.0
C507 C 0.773 0.7188 0.97224 0.0
N508 N 0.86731 0.79456 0.98411 0.0
N509 N 0.72625 0.68675 0.01489 0.0
H510 H 0.75801 0.70539 0.92169 0.0
H511 H 0.7279 0.6739 0.95023 0.0
H512 H 0.71914 0.67727 0.03939 0.0
H513 H 0.70036 0.68176 0.99816 0.0
H514 H 0.88688 0.80827 0.00285 0.0
H515 H 0.87035 0.81062 0.96119 0.0
H516 H 0.89865 0.75903 0.03853 0.0
H517 H 0.86695 0.73116 0.06816 0.0
C518 C 0.25885 0.77604 0.98388 0.0
C519 C 0.28389 0.8034 0.9626 0.0
C520 C 0.3254 0.82924 0.01186 0.0
C521 C 0.30624 0.79482 0.03102 0.0
N522 N 0.25958 0.73048 0.03302 0.0
N523 N 0.33675 0.86204 0.95708 0.0
C524 C 0.27428 0.76687 0.01639 0.0
C525 C 0.31591 0.83203 0.97681 0.0
N526 N 0.21893 0.76065 0.97345 0.0
N527 N 0.35079 0.8603 0.02743 0.0
H528 H 0.3256 0.86978 0.93318 0.0
H529 H 0.36472 0.87933 0.96439 0.0
H530 H 0.35803 0.85936 0.05296 0.0
H531 H 0.3622 0.88866 0.01573 0.0
H532 H 0.19763 0.74313 0.98894 0.0
H533 H 0.20487 0.7711 0.95098 0.0
H534 H 0.2393 0.70704 0.02181 0.0
H535 H 0.27147 0.72124 0.05649 0.0
C536 C 0.25147 0.7351 0.48223 0.0
C537 C 0.22515 0.70737 0.46194 0.0
C538 C 0.18207 0.6871 0.5117 0.0
C539 C 0.20441 0.72021 0.53034 0.0
N540 N 0.25328 0.7829 0.53047 0.0
N541 N 0.16358 0.65778 0.45682 0.0
C542 C 0.23692 0.74643 0.51469 0.0
C543 C 0.18986 0.68346 0.47651 0.0
N544 N 0.2917 0.74871 0.47112 0.0
N545 N 0.15526 0.65784 0.52774 0.0
H546 H 0.17028 0.652 0.43162 0.0
H547 H 0.13416 0.64397 0.46511 0.0
H548 H 0.14918 0.65907 0.55343 0.0
H549 H 0.14184 0.63023 0.51608 0.0
H550 H 0.31375 0.76631 0.48602 0.0
H551 H 0.30521 0.73695 0.44881 0.0
H552 H 0.27428 0.80513 0.51869 0.0
H553 H 0.24206 0.79357 0.55384 0.0
C554 C 0.28191 0.16401 0.50508 0.0
C555 C 0.30593 0.1848 0.53119 0.0
C556 C 0.35172 0.22274 0.48987 0.0
C557 C 0.32733 0.20212 0.46397 0.0
N558 N 0.28281 0.1404 0.44716 0.0
N559 N 0.37362 0.22003 0.54821 0.0
C560 C 0.29723 0.16814 0.47179 0.0
C561 C 0.34425 0.20958 0.5235 0.0
N562 N 0.24268 0.14358 0.51128 0.0
N563 N 0.37977 0.25658 0.48288 0.0
H564 H 0.36988 0.20926 0.57286 0.0
H565 H 0.40388 0.2349 0.54345 0.0
H566 H 0.3864 0.26725 0.45863 0.0
H567 H 0.39422 0.27595 0.50144 0.0
H568 H 0.22219 0.13206 0.49223 0.0
H569 H 0.22817 0.142 0.53487 0.0
H570 H 0.26345 0.11282 0.45199 0.0
H571 H 0.29454 0.14229 0.42263 0.0
C572 C 0.82331 0.23968 0.498 0.0
C573 C 0.79826 0.26144 0.52323 0.0
C574 C 0.75354 0.29794 0.48028 0.0
C575 C 0.7778 0.27544 0.45492 0.0
N576 N 0.84464 0.23733 0.43943 0.0
N577 N 0.75149 0.32249 0.53813 0.0
C578 C 0.81574 0.25049 0.46377 0.0
C579 C 0.76771 0.2947 0.5141 0.0
N580 N 0.85197 0.20658 0.50624 0.0
N581 N 0.71491 0.31915 0.47285 0.0
H582 H 0.76145 0.3205 0.56313 0.0
H583 H 0.73213 0.35 0.53265 0.0
H584 H 0.70153 0.32081 0.44888 0.0
H585 H 0.69376 0.33167 0.49114 0.0
H586 H 0.86652 0.18588 0.48851 0.0
H587 H 0.85946 0.1979 0.53079 0.0
H588 H 0.87502 0.22274 0.44465 0.0
H589 H 0.84026 0.2453 0.41422 0.0
C590 C 0.67433 0.7702 0.48687 0.0
C591 C 0.7022 0.79175 0.46347 0.0
C592 C 0.74043 0.82955 0.50933 0.0
C593 C 0.71349 0.80692 0.53265 0.0
N594 N 0.64555 0.76893 0.54353 0.0
N595 N 0.75123 0.85168 0.45147 0.0
C596 C 0.6772 0.78178 0.52129 0.0
C597 C 0.73152 0.825 0.47451 0.0
N598 N 0.64775 0.7363 0.47702 0.0
N599 N 0.77626 0.85275 0.52014 0.0
H600 H 0.74479 0.84894 0.42584 0.0
H601 H 0.77014 0.87899 0.45792 0.0
H602 H 0.78409 0.85682 0.54538 0.0
H603 H 0.79997 0.86548 0.50401 0.0
H604 H 0.63134 0.71599 0.49389 0.0
H605 H 0.64421 0.72616 0.45228 0.0
H606 H 0.61616 0.75404 0.53627 0.0
H607 H 0.64665 0.77753 0.56886 0.0
C608 C 0.29735 0.05796 0.16129 0.0
C609 C 0.31161 0.04052 0.13005 0.0
C610 C 0.27509 0.1019 0.10088 0.0
C611 C 0.26964 0.12356 0.13217 0.0
N612 N 0.25166 0.11186 0.1901 0.0
N613 N 0.31123 0.04304 0.06976 0.0
C614 C 0.27324 0.09826 0.16188 0.0
C615 C 0.29884 0.06127 0.09967 0.0
N616 N 0.30943 0.03772 0.19047 0.0
N617 N 0.25506 0.1185 0.07297 0.0
H618 H 0.32647 0.0122 0.06812 0.0
H619 H 0.30816 0.05913 0.04686 0.0
H620 H 0.23248 0.14445 0.07425 0.0
H621 H 0.25557 0.103 0.04968 0.0
H622 H 0.30498 0.05186 0.21403 0.0
H623 H 0.3262 0.00767 0.19111 0.0
H624 H 0.25007 0.09335 0.21201 0.0
H625 H 0.23049 0.13908 0.18997 0.0
C626 C 0.95338 0.32203 0.0774 0.0
C627 C 0.96901 0.33854 0.10854 0.0
C628 C 0.90718 0.30268 0.13769 0.0
C629 C 0.89298 0.2846 0.1068 0.0
N630 N 0.89449 0.28514 0.04683 0.0
N631 N 0.95609 0.35272 0.16727 0.0
C632 C 0.91353 0.29724 0.07647 0.0
C633 C 0.94424 0.33155 0.13837 0.0
N634 N 0.97737 0.32908 0.04891 0.0
N635 N 0.88638 0.29032 0.16653 0.0
H636 H 0.98418 0.37228 0.16916 0.0
H637 H 0.93694 0.35307 0.18889 0.0
H638 H 0.85773 0.27137 0.1663 0.0
H639 H 0.89787 0.29755 0.19048 0.0
H640 H 0.97035 0.31464 0.02586 0.0
H641 H 0.00624 0.34764 0.04865 0.0
H642 H 0.90537 0.29545 0.02343 0.0
H643 H 0.86496 0.26759 0.04601 0.0
C644 C 0.75681 0.93598 0.11921 0.0
C645 C 0.74869 0.91044 0.14836 0.0
C646 C 0.71052 0.97375 0.17381 0.0
C647 C 0.71159 0.99587 0.14261 0.0
N648 N 0.73506 0.99868 0.0851 0.0
N649 N 0.71304 0.90362 0.20238 0.0
C650 C 0.73513 0.97745 0.11525 0.0
C651 C 0.72502 0.92918 0.17573 0.0
N652 N 0.78571 0.92073 0.09558 0.0
N653 N 0.69478 0.99527 0.20148 0.0
H654 H 0.72123 0.8704 0.20459 0.0
H655 H 0.69143 0.91427 0.22102 0.0
H656 H 0.68355 0.02782 0.20064 0.0
H657 H 0.69696 0.98252 0.22564 0.0
H658 H 0.79609 0.93933 0.07519 0.0
H659 H 0.80254 0.89084 0.0981 0.0
H660 H 0.7469 0.98462 0.06303 0.0
H661 H 0.72101 0.02984 0.08186 0.0
C662 C 0.09687 0.77617 0.11855 0.0
C663 C 0.12211 0.76745 0.14779 0.0
C664 C 0.05808 0.7312 0.17313 0.0
C665 C 0.0363 0.73249 0.14174 0.0
N666 N 0.03338 0.7567 0.08448 0.0
N667 N 0.12779 0.73356 0.20251 0.0
C668 C 0.05495 0.75582 0.11454 0.0
C669 C 0.10273 0.74505 0.17536 0.0
N670 N 0.11306 0.80414 0.0948 0.0
N671 N 0.03627 0.71562 0.20058 0.0
H672 H 0.16084 0.74197 0.20522 0.0
H673 H 0.11688 0.71255 0.22132 0.0
H674 H 1.00381 0.70449 0.19946 0.0
H675 H 0.04867 0.71769 0.22487 0.0
H676 H 0.09497 0.81487 0.07417 0.0
H677 H 0.14342 0.81985 0.0974 0.0
H678 H 0.04737 0.76833 0.06241 0.0
H679 H 1.00175 0.74389 0.08141 0.0
C680 C 0.26208 0.96743 0.32851 0.0
C681 C 0.27393 0.99139 0.35764 0.0
C682 C 0.24486 0.93304 0.39338 0.0
C683 C 0.2345 0.90789 0.36421 0.0
N684 N 0.22058 0.90653 0.30487 0.0
N685 N 0.26358 1.00476 0.41638 0.0
C686 C 0.23871 0.92714 0.33201 0.0
C687 C 0.2603 0.97688 0.38958 0.0
N688 N 0.27537 0.98192 0.29776 0.0
N689 N 0.24423 0.9142 0.42448 0.0
H690 H 0.27536 0.03689 0.414 0.0
H691 H 0.25052 0.99771 0.43989 0.0
H692 H 0.2344 0.88202 0.42908 0.0
H693 H 0.2569 0.92954 0.44575 0.0
H694 H 0.27259 0.96328 0.27593 0.0
H695 H 0.29117 0.01205 0.29437 0.0
H696 H 0.21956 0.9203 0.28101 0.0
H697 H 0.20268 0.87738 0.3071 0.0
C698 C 0.09958 0.25647 0.40239 0.0
C699 C 0.12151 0.26194 0.37134 0.0
C700 C 0.05778 0.3023 0.34931 0.0
C701 C 0.03982 0.30383 0.38206 0.0
N702 N 0.04294 0.28321 0.44031 0.0
N703 N 0.1232 0.29241 0.31542 0.0
C704 C 0.06011 0.28049 0.40871 0.0
C705 C 0.10075 0.28468 0.34452 0.0
N706 N 0.11674 0.22828 0.42571 0.0
N707 N 0.03374 0.31806 0.32291 0.0
H708 H 0.1547 0.28011 0.31066 0.0
H709 H 0.11186 0.31362 0.2968 0.0
H710 H 1.0022 0.33144 0.32578 0.0
H711 H 0.04319 0.31412 0.298 0.0
H712 H 0.10058 0.21979 0.44776 0.0
H713 H 0.14553 0.21013 0.42143 0.0
H714 H 0.05899 0.27131 0.46153 0.0
H715 H 0.01355 0.29973 0.44568 0.0
C716 C 0.67501 0.06252 0.32158 0.0
C717 C 0.67159 0.05468 0.35652 0.0
C718 C 0.7292 0.10909 0.3677 0.0
C719 C 0.73237 0.11697 0.33276 0.0
N720 N 0.70057 0.11122 0.27769 0.0
N721 N 0.68701 0.07718 0.41323 0.0
C722 C 0.70269 0.09683 0.31009 0.0
C723 C 0.69594 0.08028 0.37975 0.0
N724 N 0.65332 0.03601 0.2993 0.0
N725 N 0.75938 0.12711 0.38911 0.0
H726 H 0.66312 0.05599 0.42277 0.0
H727 H 0.70047 0.09813 0.43118 0.0
H728 H 0.7838 0.14883 0.38126 0.0
H729 H 0.76195 0.11856 0.41429 0.0
H730 H 0.65853 0.037 0.27353 0.0
H731 H 0.63245 0.01058 0.30663 0.0
H732 H 0.67676 0.10081 0.26065 0.0
H733 H 0.7199 0.13708 0.26886 0.0
C734 C 0.96597 0.72045 0.35709 0.0
C735 C 0.98524 0.70702 0.38786 0.0
C736 C 0.92517 0.74187 0.4192 0.0
C737 C 0.90475 0.75339 0.38829 0.0
N738 N 0.9123 0.76745 0.32938 0.0
N739 N 0.99164 0.71664 0.44741 0.0
C740 C 0.92773 0.74753 0.35775 0.0
C741 C 0.96774 0.7221 0.41868 0.0
N742 N 0.98222 0.70488 0.32737 0.0
N743 N 0.90281 0.74625 0.44875 0.0
H744 H 0.02284 0.70196 0.44744 0.0
H745 H 0.98262 0.73038 0.47036 0.0
H746 H 0.87187 0.76093 0.45073 0.0
H747 H 0.91391 0.733 0.4713 0.0
H748 H 0.96624 0.70922 0.3045 0.0
H749 H 0.01033 0.68514 0.32567 0.0
H750 H 0.92932 0.76743 0.30672 0.0
H751 H 0.88451 0.78788 0.32966 0.0
C752 C 0.73433 0.97937 0.87713 0.0
C753 C 0.77421 0.96149 0.86419 0.0
C754 C 0.79409 0.03434 0.8421 0.0
C755 C 0.75585 0.05261 0.8574 0.0
N756 N 0.69557 0.0445 0.89635 0.0
N757 N 0.84495 0.97235 0.83819 0.0
C758 C 0.72773 0.02569 0.87693 0.0
C759 C 0.80495 0.9891 0.84769 0.0
N760 N 0.70153 0.95209 0.88796 0.0
N761 N 0.81911 0.05977 0.82132 0.0
H762 H 0.85373 0.9394 0.84174 0.0
H763 H 0.87066 0.99162 0.82921 0.0
H764 H 0.81253 0.09305 0.8171 0.0
H765 H 0.84447 0.04732 0.80644 0.0
H766 H 0.67001 0.96328 0.89408 0.0
H767 H 0.70399 0.91782 0.88753 0.0
H768 H 0.67723 0.02685 0.91379 0.0
H769 H 0.69028 0.07845 0.89768 0.0
C770 C 0.03478 0.7747 0.8649 0.0
C771 C 0.01437 0.7414 0.8844 0.0
C772 C 0.08552 0.70443 0.89122 0.0
C773 C 0.1067 0.74103 0.87621 0.0
N774 N 0.10209 0.81421 0.85276 0.0
N775 N 0.02175 0.67895 0.92158 0.0
C776 C 0.08154 0.77706 0.86399 0.0
C777 C 0.04009 0.70738 0.89905 0.0
N778 N 0.00966 0.80294 0.84618 0.0
N779 N 0.10823 0.66607 0.89667 0.0
H780 H 0.9889 0.68088 0.92916 0.0
H781 H 0.04027 0.6564 0.9354 0.0
H782 H 0.14107 0.66158 0.88968 0.0
H783 H 0.0931 0.63708 0.90449 0.0
H784 H 0.023 0.82487 0.82893 0.0
H785 H 0.97534 0.80142 0.84528 0.0
H786 H 0.08524 0.84317 0.84688 0.0
H787 H 0.13626 0.81754 0.85219 0.0
C788 C 0.2477 0.06759 0.87046 0.0
C789 C 0.28488 0.09557 0.87304 0.0
C790 C 0.32992 0.03219 0.89122 0.0
C791 C 0.29394 1.00384 0.88386 0.0
N792 N 0.22123 0.99392 0.86032 0.0
N793 N 0.36116 0.10598 0.88759 0.0
C794 C 0.25355 0.02136 0.87184 0.0
C795 C 0.32601 0.07834 0.88417 0.0
N796 N 0.20619 0.08524 0.8688 0.0
N797 N 0.36742 0.01483 0.90508 0.0
H798 H 0.35922 0.13952 0.88234 0.0
H799 H 0.39251 0.0961 0.89495 0.0
H800 H 0.37106 0.98131 0.91024 0.0
H801 H 0.3942 0.03331 0.91311 0.0
H802 H 0.17767 0.06629 0.87 0.0
H803 H 0.20003 0.11901 0.87065 0.0
H804 H 0.19324 1.00531 0.84783 0.0
H805 H 0.22426 0.95967 0.86008 0.0
C806 C 0.96764 0.27353 0.92762 0.0
C807 C 0.99456 0.24039 0.9129 0.0
C808 C 0.9287 0.19988 0.89478 0.0
C809 C 0.90189 0.23435 0.90782 0.0
N810 N 0.894 0.29713 0.94413 0.0
N811 N 1.0014 0.16687 0.89006 0.0
C812 C 0.92094 0.26895 0.92679 0.0
C813 C 0.97525 0.20162 0.89936 0.0
N814 N 0.9869 0.30987 0.94158 0.0
N815 N 0.91018 0.16742 0.87562 0.0
H816 H 0.03568 0.16751 0.89113 0.0
H817 H 0.98914 0.13596 0.88372 0.0
H818 H 0.87632 0.16408 0.87227 0.0
H819 H 0.92834 0.14502 0.86139 0.0
H820 H 0.96954 0.33775 0.94929 0.0
H821 H 0.02097 0.31272 0.94447 0.0
H822 H 0.90531 0.3213 0.96051 0.0
H823 H 0.85977 0.29368 0.94433 0.0
C824 C 0.7299 0.04904 0.60992 0.0
C825 C 0.76353 0.07449 0.62524 0.0
C826 C 0.7972 0.007 0.64736 0.0
C827 C 0.76625 0.98174 0.62886 0.0
N828 N 0.7111 0.97896 0.58524 0.0
N829 N 0.83374 0.07746 0.65363 0.0
C830 C 0.73507 1.00285 0.60785 0.0
C831 C 0.79858 0.05345 0.64262 0.0
N832 N 0.69164 0.06842 0.59916 0.0
N833 N 0.8239 0.98707 0.67045 0.0
H834 H 0.83625 0.11137 0.64999 0.0
H835 H 0.86218 0.06321 0.66354 0.0
H836 H 0.82358 0.95323 0.67491 0.0
H837 H 0.84363 1.00455 0.68715 0.0
H838 H 0.66466 0.05036 0.59072 0.0
H839 H 0.68455 0.10178 0.60252 0.0
H840 H 0.6909 0.99357 0.56723 0.0
H841 H 0.7152 0.94506 0.58195 0.0
C842 C 0.98167 0.77801 0.58932 0.0
C843 C 1.00397 0.76495 0.61909 0.0
C844 C 0.93293 0.75734 0.64798 0.0
C845 C 0.91071 0.77134 0.6185 0.0
N846 N 0.91332 0.80294 0.56337 0.0
N847 N 1.00174 0.75297 0.67878 0.0
C848 C 0.935 0.7845 0.58994 0.0
C849 C 0.97983 0.75776 0.64904 0.0
N850 N 1.00473 0.78181 0.56004 0.0
N851 N 0.90915 0.74252 0.67478 0.0
H852 H 0.03602 0.75387 0.6807 0.0
H853 H 0.98605 0.75232 0.70197 0.0
H854 H 0.87481 0.74378 0.67574 0.0
H855 H 0.92326 0.72665 0.69528 0.0
H856 H 0.98993 0.78645 0.53677 0.0
H857 H 0.03872 0.7769 0.55852 0.0
H858 H 0.92923 0.81704 0.54295 0.0
H859 H 0.87919 0.80747 0.5631 0.0
C860 C 0.24737 0.96459 0.65841 0.0
C861 C 0.22898 0.98911 0.63151 0.0
C862 C 0.20898 0.92005 0.60278 0.0
C863 C 0.2267 0.89563 0.63 0.0
N864 N 0.25297 0.89432 0.68701 0.0
N865 N 0.1856 0.9912 0.58093 0.0
C866 C 0.24311 0.91787 0.65876 0.0
C867 C 0.20741 0.96709 0.60468 0.0
N868 N 0.26937 0.98593 0.68355 0.0
N869 N 0.19599 0.89848 0.57435 0.0
H870 H 0.18548 0.02557 0.58067 0.0
H871 H 0.16519 0.97735 0.56281 0.0
H872 H 0.19615 0.86424 0.57219 0.0
H873 H 0.18776 0.91437 0.55211 0.0
H874 H 0.28847 0.9698 0.70145 0.0
H875 H 0.27076 0.02018 0.68553 0.0
H876 H 0.26054 0.90871 0.70999 0.0
H877 H 0.24936 0.86021 0.68851 0.0
C878 C 0.03434 0.20777 0.58978 0.0
C879 C 0.01445 0.25015 0.59307 0.0
C880 C 0.0858 0.28034 0.6104 0.0
C881 C 0.10688 0.23966 0.60244 0.0
N882 N 0.10158 0.16594 0.58015 0.0
N883 N 0.0239 0.32874 0.59967 0.0
C884 C 0.08124 0.20359 0.59103 0.0
C885 C 0.04091 0.287 0.60151 0.0
N886 N 0.00846 0.17122 0.58681 0.0
N887 N 0.10791 0.31208 0.62796 0.0
H888 H 0.99171 0.33545 0.59201 0.0
H889 H 0.04315 0.35693 0.60225 0.0
H890 H 0.13987 0.30773 0.63701 0.0
H891 H 0.0927 0.34055 0.63706 0.0
H892 H 0.02091 0.13919 0.58777 0.0
H893 H 0.97411 0.17267 0.58676 0.0
H894 H 0.08489 0.14044 0.56816 0.0
H895 H 0.13571 0.16172 0.58043 0.0
C896 C 0.76227 0.58401 0.59034 0.0
C897 C 0.76381 0.60138 0.62333 0.0
C898 C 0.80357 0.53546 0.64216 0.0
C899 C 0.80949 0.52283 0.60826 0.0
N900 N 0.79473 0.53407 0.54957 0.0
N901 N 0.78765 0.59479 0.68095 0.0
C902 C 0.78823 0.54636 0.58217 0.0
C903 C 0.784 0.57697 0.64958 0.0
N904 N 0.73594 0.60378 0.56694 0.0
N905 N 0.81721 0.50785 0.66716 0.0
H906 H 0.7738 0.62498 0.68773 0.0
H907 H 0.80697 0.58103 0.69983 0.0
H908 H 0.83202 0.47737 0.66234 0.0
H909 H 0.81013 0.51315 0.69238 0.0
H910 H 0.73035 0.59084 0.54314 0.0
H911 H 0.71629 0.63116 0.57258 0.0
H912 H 0.78452 0.55287 0.52917 0.0
H913 H 0.81259 0.50597 0.54281 0.0
C914 C 0.41846 0.74285 0.62247 0.0
C915 C 0.39157 0.74848 0.65128 0.0
C916 C 0.45199 0.78721 0.67947 0.0
C917 C 0.47522 0.78863 0.64873 0.0
N918 N 0.48165 0.76826 0.59064 0.0
N919 N 0.38115 0.77999 0.70655 0.0
C920 C 0.45909 0.76597 0.62021 0.0
C921 C 0.40816 0.7709 0.67995 0.0
N922 N 0.40512 0.71509 0.59747 0.0
N923 N 0.47171 0.80224 0.70808 0.0
H924 H 0.34844 0.76991 0.70796 0.0
H925 H 0.39 0.80081 0.72619 0.0
H926 H 0.50364 0.81492 0.70833 0.0
H927 H 0.45825 0.79821 0.73188 0.0
H928 H 0.42477 0.7065 0.57707 0.0
H929 H 0.37574 0.69739 0.59875 0.0
H930 H 0.46913 0.75707 0.56788 0.0
H931 H 0.51231 0.78347 0.5886 0.0
C932 C 0.224 0.45483 0.58354 0.0
C933 C 0.21293 0.47281 0.6152 0.0
C934 C 0.25045 0.41044 0.64237 0.0
C935 C 0.25326 0.38835 0.61099 0.0
N936 N 0.23629 0.38835 0.55154 0.0
N937 N 0.21355 0.46669 0.67543 0.0
C938 C 0.23917 0.41048 0.58134 0.0
C939 C 0.2262 0.45068 0.64488 0.0
N940 N 0.21885 0.48001 0.55546 0.0
N941 N 0.27137 0.39315 0.6697 0.0
H942 H 0.19662 0.49642 0.67837 0.0
H943 H 0.21745 0.44915 0.69766 0.0
H944 H 0.29024 0.36435 0.66846 0.0
H945 H 0.27381 0.40962 0.69255 0.0
H946 H 0.23007 0.47029 0.53189 0.0
H947 H 0.20751 0.51253 0.55654 0.0
H948 H 0.22164 0.40178 0.53024 0.0
H949 H 0.24415 0.35516 0.54861 0.0
C950 C 0.5298 0.19904 0.59395 0.0
C951 C 0.51578 0.19085 0.62711 0.0
C952 C 0.57896 0.23236 0.64851 0.0
C953 C 0.5978 0.23182 0.61597 0.0
N954 N 0.59174 0.21158 0.55729 0.0
N955 N 0.52585 0.19998 0.68657 0.0
C956 C 0.573 0.21541 0.58831 0.0
C957 C 0.53958 0.20837 0.65462 0.0
N958 N 0.50201 0.19005 0.56789 0.0
N959 N 0.59894 0.25582 0.67348 0.0
H960 H 0.4964 0.18378 0.69184 0.0
H961 H 0.54461 0.20707 0.70775 0.0
H962 H 0.62747 0.27418 0.6694 0.0
H963 H 0.58512 0.26058 0.6971 0.0
H964 H 0.50856 0.19904 0.54322 0.0
H965 H 0.47033 0.17765 0.5716 0.0
H966 H 0.57691 0.19483 0.53749 0.0
H967 H 0.62353 0.22186 0.55165 0.0
C968 C 0.77972 0.41641 0.85823 0.0
C969 C 0.76556 0.39302 0.8869 0.0
C970 C 0.78362 0.45579 0.92282 0.0
C971 C 0.80653 0.47488 0.89553 0.0
N972 N 0.82257 0.47737 0.83638 0.0
N973 N 0.73111 0.40056 0.94081 0.0
C974 C 0.80272 0.45677 0.86276 0.0
C975 C 0.76009 0.41609 0.91751 0.0
N976 N 0.76871 0.40154 0.82704 0.0
N977 N 0.78684 0.47381 0.95414 0.0
H978 H 0.71115 0.3733 0.93598 0.0
H979 H 0.723 0.41737 0.96275 0.0
H980 H 0.80335 0.50323 0.95894 0.0
H981 H 0.77533 0.45835 0.97568 0.0
H982 H 0.77601 0.4182 0.80498 0.0
H983 H 0.74677 0.37559 0.8235 0.0
H984 H 0.82596 0.46331 0.8127 0.0
H985 H 0.83728 0.50828 0.83857 0.0
C986 C 0.57659 0.78214 0.89375 0.0
C987 C 0.55703 0.79747 0.86377 0.0
C988 C 0.62191 0.77458 0.83182 0.0
C989 C 0.64453 0.76796 0.86241 0.0
N990 N 0.64422 0.7638 0.92289 0.0
N991 N 0.55749 0.80472 0.80371 0.0
C992 C 0.6218 0.76991 0.89351 0.0
C993 C 0.57832 0.79169 0.83246 0.0
N994 N 0.5521 0.78039 0.92246 0.0
N995 N 0.64283 0.7651 0.80236 0.0
H996 H 0.52474 0.81544 0.80343 0.0
H997 H 0.57265 0.80618 0.78037 0.0
H998 H 0.67493 0.75268 0.80186 0.0
H999 H 0.62777 0.76616 0.77895 0.0
H1000 H 0.56305 0.76576 0.94453 0.0
H1001 H 0.51912 0.7902 0.92335 0.0
H1002 H 0.631 0.77051 0.94642 0.0
H1003 H 0.67711 0.75397 0.92392 0.0
C1004 C 0.22487 0.52857 0.91013 0.0
C1005 C 0.21121 0.51215 0.87864 0.0
C1006 C 0.25798 0.56666 0.85098 0.0
C1007 C 0.26257 0.58946 0.88186 0.0
N1008 N 0.24605 0.59297 0.9415 0.0
N1009 N 0.21384 0.5161 0.81825 0.0
C1010 C 0.24592 0.57023 0.91188 0.0
C1011 C 0.22825 0.53068 0.84874 0.0
N1012 N 0.21639 0.5048 0.93842 0.0
N1013 N 0.28169 0.57996 0.82375 0.0
H1014 H 0.19225 0.48972 0.81546 0.0
H1015 H 0.22105 0.53201 0.79583 0.0
H1016 H 0.30413 0.60591 0.82499 0.0
H1017 H 0.2825 0.56257 0.80122 0.0
H1018 H 0.22893 0.51312 0.96191 0.0
H1019 H 0.20071 0.47424 0.9376 0.0
H1020 H 0.22927 0.58228 0.96274 0.0
H1021 H 0.25941 0.62416 0.94464 0.0
C1022 C 0.409 0.1738 0.79953 0.0
C1023 C 0.42894 0.18117 0.83125 0.0
C1024 C 0.37122 0.23507 0.84546 0.0
C1025 C 0.35132 0.22739 0.81381 0.0
N1026 N 0.34397 0.18215 0.76461 0.0
N1027 N 0.42474 0.21128 0.88707 0.0
C1028 C 0.36795 0.19428 0.79213 0.0
C1029 C 0.40867 0.20953 0.85508 0.0
N1030 N 0.43027 0.14884 0.77591 0.0
N1031 N 0.35561 0.26813 0.86558 0.0
H1032 H 0.45238 0.19336 0.89476 0.0
H1033 H 0.40881 0.22755 0.90662 0.0
H1034 H 0.32746 0.28645 0.8598 0.0
H1035 H 0.37168 0.279 0.88709 0.0
H1036 H 0.41986 0.14632 0.75112 0.0
H1037 H 0.46046 0.13329 0.78026 0.0
H1038 H 0.35195 0.15533 0.74943 0.0
H1039 H 0.31354 0.19644 0.75885 0.0
C1040 C 0.27671 0.43406 0.42076 0.0
C1041 C 0.29246 0.41028 0.3925 0.0
C1042 C 0.30505 0.48017 0.36293 0.0
C1043 C 0.28336 0.50321 0.38928 0.0
N1044 N 0.24733 0.50269 0.44307 0.0
N1045 N 0.31855 0.41027 0.33527 0.0
C1046 C 0.269 0.48031 0.41823 0.0
C1047 C 0.30667 0.4332 0.36342 0.0
N1048 N 0.27021 0.41234 0.45033 0.0
N1049 N 0.32353 0.50308 0.33705 0.0
H1050 H 0.32126 0.37611 0.33435 0.0
H1051 H 0.32295 0.42484 0.31192 0.0
H1052 H 0.32049 0.5371 0.3343 0.0
H1053 H 0.34453 0.48879 0.31944 0.0
H1054 H 0.26264 0.42804 0.47283 0.0
H1055 H 0.27662 0.37871 0.45308 0.0
H1056 H 0.23126 0.48733 0.46288 0.0
H1057 H 0.24334 0.53686 0.44299 0.0
C1058 C 0.53089 0.19274 0.35844 0.0
C1059 C 0.50995 0.2346 0.36097 0.0
C1060 C 0.58164 0.27086 0.35544 0.0
C1061 C 0.60202 0.22918 0.35002 0.0
N1062 N 0.5942 0.15162 0.33843 0.0
N1063 N 0.51406 0.31336 0.353 0.0
C1064 C 0.57607 0.19043 0.34917 0.0
C1065 C 0.53491 0.27366 0.35683 0.0
N1066 N 0.50841 0.15525 0.36648 0.0
N1067 N 0.60662 0.30751 0.36121 0.0
H1068 H 0.47984 0.31676 0.35278 0.0
H1069 H 0.53059 0.34212 0.34644 0.0
H1070 H 0.64094 0.30711 0.36181 0.0
H1071 H 0.59317 0.33756 0.36883 0.0
H1072 H 0.52346 0.1244 0.36828 0.0
H1073 H 0.47574 0.15546 0.37457 0.0
H1074 H 0.5755 0.12365 0.33345 0.0
H1075 H 0.62699 0.14889 0.33088 0.0
C1076 C 0.77015 0.56761 0.40439 0.0
C1077 C 0.74393 0.58957 0.37997 0.0
C1078 C 0.72261 0.51796 0.35664 0.0
C1079 C 0.74463 0.49642 0.38354 0.0
N1080 N 0.779 0.50205 0.43796 0.0
N1081 N 0.68777 0.58524 0.3372 0.0
C1082 C 0.76508 0.52167 0.409 0.0
C1083 C 0.71786 0.56464 0.35737 0.0
N1084 N 0.80223 0.58964 0.42163 0.0
N1085 N 0.70842 0.49445 0.32948 0.0
H1086 H 0.68252 0.61922 0.33759 0.0
H1087 H 0.66499 0.56815 0.32263 0.0
H1088 H 0.71274 0.46051 0.32708 0.0
H1089 H 0.69636 0.50929 0.30779 0.0
H1090 H 0.82461 0.57378 0.4374 0.0
H1091 H 0.81041 0.62238 0.41707 0.0
H1092 H 0.79043 0.51992 0.45852 0.0
H1093 H 0.77443 0.46861 0.44284 0.0
C1094 C 0.47496 0.80652 0.39473 0.0
C1095 C 0.50122 0.77015 0.38445 0.0
C1096 C 0.4346 0.72774 0.37206 0.0
C1097 C 0.40871 0.76574 0.37894 0.0
N1098 N 0.40493 0.84415 0.38963 0.0
N1099 N 0.50684 0.69867 0.35808 0.0
C1100 C 0.42901 0.80595 0.38839 0.0
C1101 C 0.48131 0.73132 0.37173 0.0
N1102 N 0.49364 0.84104 0.41157 0.0
N1103 N 0.41468 0.68794 0.36698 0.0
H1104 H 0.54116 0.70025 0.35708 0.0
H1105 H 0.49391 0.67185 0.34512 0.0
H1106 H 0.38057 0.68387 0.36754 0.0
H1107 H 0.43198 0.6583 0.36526 0.0
H1108 H 0.47528 0.86627 0.42261 0.0
H1109 H 0.52711 0.8423 0.41752 0.0
H1110 H 0.41912 0.87509 0.39282 0.0
H1111 H 0.37141 0.84572 0.38397 0.0
C1112 C 0.30494 0.58696 0.13318 0.0
C1113 C 0.27903 0.61356 0.11153 0.0
C1114 C 0.25036 0.5465 0.08435 0.0
C1115 C 0.27128 0.52019 0.10911 0.0
N1116 N 0.31297 0.51624 0.16065 0.0
N1117 N 0.22435 0.61885 0.06771 0.0
C1118 C 0.29755 0.54058 0.13428 0.0
C1119 C 0.25095 0.59333 0.08747 0.0
N1120 N 0.33619 0.60597 0.15311 0.0
N1121 N 0.23146 0.52683 0.05707 0.0
H1122 H 0.22578 0.65314 0.06753 0.0
H1123 H 0.19917 0.60612 0.05287 0.0
H1124 H 0.23125 0.49276 0.05352 0.0
H1125 H 0.21982 0.54424 0.03639 0.0
H1126 H 0.35918 0.58792 0.16686 0.0
H1127 H 0.34183 0.63978 0.15354 0.0
H1128 H 0.32807 0.53006 0.18159 0.0
H1129 H 0.30679 0.48268 0.16341 0.0
C1130 C 0.48603 0.31357 0.11832 0.0
C1131 C 0.50882 0.27473 0.10806 0.0
C1132 C 0.43814 0.24214 0.09078 0.0
C1133 C 0.4148 0.27869 0.10462 0.0
N1134 N 0.41689 0.34748 0.1352 0.0
N1135 N 0.50612 0.19987 0.08771 0.0
C1136 C 0.43883 0.31421 0.11906 0.0
C1137 C 0.48467 0.2383 0.09544 0.0
N1138 N 0.5095 0.35 0.12755 0.0
N1139 N 0.41615 0.21224 0.07134 0.0
H1140 H 0.5403 0.19636 0.08871 0.0
H1141 H 0.48983 0.17048 0.08255 0.0
H1142 H 0.38274 0.21526 0.06554 0.0
H1143 H 0.43179 0.1873 0.05782 0.0
H1144 H 0.49531 0.38098 0.13104 0.0
H1145 H 0.54376 0.35003 0.12974 0.0
H1146 H 0.43247 0.37107 0.14996 0.0
H1147 H 0.38271 0.35003 0.13602 0.0
C1148 C 0.759 0.4903 0.08802 0.0
C1149 C 0.77451 0.51144 0.11757 0.0
C1150 C 0.79904 0.43927 0.13934 0.0
C1151 C 0.7785 0.4178 0.11176 0.0
N1152 N 0.73665 0.42248 0.0605 0.0
N1153 N 0.80426 0.50537 0.17346 0.0
C1154 C 0.75773 0.44326 0.08634 0.0
C1155 C 0.79373 0.4858 0.14362 0.0
N1156 N 0.74735 0.51523 0.06088 0.0
N1157 N 0.82319 0.41524 0.16181 0.0
H1158 H 0.80008 0.53896 0.17804 0.0
H1159 H 0.81348 0.48788 0.19478 0.0
H1160 H 0.82572 0.381 0.161 0.0
H1161 H 0.84342 0.42945 0.17989 0.0
H1162 H 0.7402 0.50204 0.03741 0.0
H1163 H 0.74894 0.54957 0.06084 0.0
H1164 H 0.71615 0.43869 0.04355 0.0
H1165 H 0.73776 0.38843 0.05691 0.0
C1166 C 0.53768 0.73115 0.09293 0.0
C1167 C 0.51371 0.74544 0.12158 0.0
C1168 C 0.58299 0.75665 0.15226 0.0
C1169 C 0.60711 0.74228 0.12367 0.0
N1170 N 0.60803 0.7083 0.06909 0.0
N1171 N 0.51247 0.76115 0.18078 0.0
C1172 C 0.58457 0.72674 0.09481 0.0
C1173 C 0.5361 0.75512 0.15192 0.0
N1174 N 0.51583 0.72404 0.06345 0.0
N1175 N 0.60496 0.77236 0.17972 0.0
H1176 H 0.47814 0.75966 0.18164 0.0
H1177 H 0.52675 0.76357 0.20443 0.0
H1178 H 0.63913 0.77061 0.18231 0.0
H1179 H 0.58959 0.78895 0.19939 0.0
H1180 H 0.53149 0.71838 0.04064 0.0
H1181 H 0.48166 0.72676 0.06123 0.0
H1182 H 0.5936 0.69236 0.04877 0.0
H1183 H 0.64233 0.70596 0.06921 0.0
C1184 C 0.318 0.27758 0.24901 0.0
C1185 C 0.29196 0.29395 0.27585 0.0
C1186 C 0.24522 0.33431 0.23617 0.0
C1187 C 0.27246 0.31914 0.20974 0.0
N1188 N 0.34166 0.28821 0.19188 0.0
N1189 N 0.23779 0.34645 0.29589 0.0
C1190 C 0.31116 0.29464 0.21653 0.0
C1191 C 0.25762 0.32499 0.26974 0.0
N1192 N 0.34718 0.24371 0.25388 0.0
N1193 N 0.20675 0.35601 0.22917 0.0
H1194 H 0.24673 0.34139 0.32082 0.0
H1195 H 0.21554 0.37236 0.29276 0.0
H1196 H 0.19742 0.36451 0.20486 0.0
H1197 H 0.1829 0.36309 0.24719 0.0
H1198 H 0.36327 0.2276 0.23429 0.0
H1199 H 0.35207 0.22853 0.27694 0.0
H1200 H 0.37254 0.27402 0.19603 0.0
H1201 H 0.33775 0.30186 0.16818 0.0
C1202 C 0.7248 0.33426 0.26855 0.0
C1203 C 0.75518 0.30623 0.2853 0.0
C1204 C 0.75473 0.25638 0.23725 0.0
C1205 C 0.73012 0.28762 0.21837 0.0
N1206 N 0.69948 0.36131 0.21489 0.0
N1207 N 0.80869 0.24742 0.28108 0.0
C1208 C 0.71692 0.32794 0.2337 0.0
C1209 C 0.77282 0.26908 0.26848 0.0
N1210 N 0.7029 0.36643 0.28593 0.0
N1211 N 0.7597 0.21407 0.22606 0.0
H1212 H 0.82412 0.25664 0.30338 0.0
H1213 H 0.82536 0.22291 0.26773 0.0
H1214 H 0.74404 0.20227 0.20459 0.0
H1215 H 0.77487 0.18958 0.24036 0.0
H1216 H 0.67741 0.38506 0.27554 0.0
H1217 H 0.70716 0.37143 0.3116 0.0
H1218 H 0.69354 0.39276 0.22447 0.0
H1219 H 0.69529 0.35926 0.18903 0.0
C1220 C 0.75994 0.75635 0.28267 0.0
C1221 C 0.71615 0.74919 0.29394 0.0
C1222 C 0.69829 0.71197 0.24096 0.0
C1223 C 0.74198 0.71951 0.22963 0.0
N1224 N 0.81741 0.73621 0.2432 0.0
N1225 N 0.64839 0.70872 0.2884 0.0
C1226 C 0.77379 0.73753 0.25175 0.0
C1227 C 0.68683 0.72326 0.2745 0.0
N1228 N 0.78748 0.78349 0.30021 0.0
N1229 N 0.66706 0.6965 0.21928 0.0
H1230 H 0.6397 0.71549 0.31319 0.0
H1231 H 0.62755 0.68629 0.27666 0.0
H1232 H 0.67393 0.68773 0.19458 0.0
H1233 H 0.63359 0.69542 0.22503 0.0
H1234 H 0.81764 0.79423 0.29092 0.0
H1235 H 0.77894 0.79825 0.32289 0.0
H1236 H 0.84268 0.74489 0.25959 0.0
H1237 H 0.82854 0.722 0.22089 0.0
C1238 C 0.32011 0.69349 0.27463 0.0
C1239 C 0.28435 0.71536 0.2905 0.0
C1240 C 0.28973 0.77431 0.24916 0.0
C1241 C 0.31638 0.74683 0.22876 0.0
N1242 N 0.35723 0.67844 0.22233 0.0
N1243 N 0.23153 0.77579 0.29002 0.0
C1244 C 0.33253 0.70623 0.24172 0.0
C1245 C 0.26867 0.75611 0.27753 0.0
N1246 N 0.34251 0.66099 0.29117 0.0
N1247 N 0.28414 0.8177 0.2411 0.0
H1248 H 0.21308 0.76317 0.30971 0.0
H1249 H 0.2165 0.80276 0.27852 0.0
H1250 H 0.30022 0.83209 0.22076 0.0
H1251 H 0.26788 0.84008 0.2567 0.0
H1252 H 0.37128 0.64655 0.28192 0.0
H1253 H 0.33516 0.65221 0.31581 0.0
H1254 H 0.36468 0.64619 0.22936 0.0
H1255 H 0.36811 0.68625 0.19839 0.0
C1256 C 0.81952 0.79854 0.74033 0.0
C1257 C 0.78177 0.77541 0.72885 0.0
C1258 C 0.7759 0.73894 0.78354 0.0
C1259 C 0.81042 0.76597 0.79595 0.0
N1260 N 0.8611 0.82631 0.78741 0.0
N1261 N 0.71953 0.72872 0.74108 0.0
C1262 C 0.83054 0.79765 0.77486 0.0
C1263 C 0.75872 0.74684 0.75086 0.0
N1264 N 0.84704 0.81858 0.71793 0.0
N1265 N 0.75953 0.70577 0.80296 0.0
H1266 H 0.70421 0.73613 0.7184 0.0
H1267 H 0.69998 0.70928 0.75647 0.0
H1268 H 0.76933 0.70062 0.82769 0.0
H1269 H 0.7382 0.68167 0.79401 0.0
H1270 H 0.87752 0.83169 0.72453 0.0
H1271 H 0.84236 0.81747 0.69208 0.0
H1272 H 0.87235 0.85353 0.77407 0.0
H1273 H 0.87297 0.82515 0.81187 0.0
C1274 C 0.20857 0.81077 0.77651 0.0
C1275 C 0.24042 0.78371 0.79255 0.0
C1276 C 0.22672 0.72623 0.75083 0.0
C1277 C 0.20426 0.75735 0.73064 0.0
N1278 N 0.1748 0.83116 0.72392 0.0
N1279 N 0.28284 0.71558 0.79276 0.0
C1280 C 0.19454 0.79996 0.74355 0.0
C1281 C 0.24973 0.74093 0.77963 0.0
N1282 N 0.19146 0.8465 0.79292 0.0
N1283 N 0.22639 0.68264 0.74217 0.0
H1284 H 0.30242 0.72509 0.81288 0.0
H1285 H 0.29371 0.68642 0.78159 0.0
H1286 H 0.20907 0.671 0.72136 0.0
H1287 H 0.23895 0.65789 0.75759 0.0
H1288 H 0.16534 0.86519 0.78354 0.0
H1289 H 0.19996 0.85421 0.81758 0.0
H1290 H 0.17194 0.8641 0.73105 0.0
H1291 H 0.16441 0.8253 0.69947 0.0
C1292 C 0.19497 0.17162 0.77464 0.0
C1293 C 0.18127 0.21455 0.78399 0.0
C1294 C 0.19814 0.24111 0.72791 0.0
C1295 C 0.21786 0.19983 0.72 0.0
N1296 N 0.24471 0.12923 0.73996 0.0
N1297 N 0.1818 0.29269 0.77223 0.0
C1298 C 0.21907 0.16589 0.7445 0.0
C1299 C 0.18661 0.25016 0.7615 0.0
N1300 N 0.1837 0.13614 0.79375 0.0
N1301 N 0.18776 0.27072 0.70335 0.0
H1302 H 0.17563 0.30088 0.79717 0.0
H1303 H 0.18915 0.31969 0.75713 0.0
H1304 H 0.1914 0.26393 0.67791 0.0
H1305 H 0.17011 0.29964 0.70808 0.0
H1306 H 0.18949 0.10371 0.78621 0.0
H1307 H 0.16541 0.13913 0.81578 0.0
H1308 H 0.24937 0.10568 0.75863 0.0
H1309 H 0.26537 0.12494 0.71934 0.0
C1310 C 0.78943 0.20053 0.74265 0.0
C1311 C 0.76218 0.2316 0.7596 0.0
C1312 C 0.76042 0.2776 0.70908 0.0
C1313 C 0.79224 0.24957 0.69394 0.0
N1314 N 0.84034 0.18634 0.69692 0.0
N1315 N 0.72756 0.30346 0.76082 0.0
C1316 C 0.80774 0.21157 0.71092 0.0
C1317 C 0.74882 0.271 0.74323 0.0
N1318 N 0.79635 0.15979 0.7563 0.0
N1319 N 0.74128 0.31065 0.69084 0.0
H1320 H 0.71969 0.30077 0.78615 0.0
H1321 H 0.72146 0.33479 0.75121 0.0
H1322 H 0.74976 0.31729 0.66604 0.0
H1323 H 0.7144 0.32899 0.69935 0.0
H1324 H 0.81227 0.13416 0.74374 0.0
H1325 H 0.78236 0.15016 0.77898 0.0
H1326 H 0.85656 0.16111 0.70966 0.0
H1327 H 0.8531 0.19238 0.6731 0.0
C1328 C 0.0207 0.51688 0.08475 0.0
C1329 C 0.02589 0.49052 0.1138 0.0
C1330 C 1.00422 0.55286 0.14944 0.0
C1331 C 0.99516 0.578 0.12025 0.0
N1332 N 0.9906 0.58379 0.06017 0.0
N1333 N 0.0182 0.48093 0.17353 0.0
C1334 C 1.00237 0.56 0.08786 0.0
C1335 C 0.01662 0.50789 0.14611 0.0
N1336 N 0.03404 0.5008 0.05436 0.0
N1337 N 1.00203 0.57235 0.18036 0.0
H1338 H 0.02886 0.44823 0.17248 0.0
H1339 H 0.00627 0.48995 0.19703 0.0
H1340 H 0.99173 0.60484 0.18407 0.0
H1341 H 0.01343 0.55748 0.20221 0.0
H1342 H 0.0356 0.51976 0.0327 0.0
H1343 H 0.047 0.46912 0.05131 0.0
H1344 H 0.99063 0.57105 0.03594 0.0
H1345 H 0.97776 0.6157 0.06166 0.0
C1346 C 0.49257 0.0147 0.09836 0.0
C1347 C 0.47079 1.0051 0.12894 0.0
C1348 C 0.53529 0.03024 0.16075 0.0
C1349 C 0.55627 0.0418 0.1302 0.0
N1350 N 0.55359 0.05104 0.07037 0.0
N1351 N 0.46779 0.00987 0.18926 0.0
C1352 C 0.53443 0.03587 0.09909 0.0
C1353 C 0.49117 0.01457 0.16017 0.0
N1354 N 0.4736 1.00246 0.06868 0.0
N1355 N 0.55805 0.03321 0.19028 0.0
H1356 H 0.4358 0.99744 0.19002 0.0
H1357 H 0.47873 0.02107 0.21247 0.0
H1358 H 0.58954 0.04671 0.19206 0.0
H1359 H 0.54693 0.02002 0.21279 0.0
H1360 H 0.4894 1.00433 0.0456 0.0
H1361 H 0.44284 0.9873 0.06732 0.0
H1362 H 0.5378 0.05187 0.04723 0.0
H1363 H 0.58449 0.06603 0.0701 0.0
C1364 C 0.0209 0.52208 0.42383 0.0
C1365 C 0.01545 0.5466 0.39387 0.0
C1366 C 0.98388 0.48223 0.36559 0.0
C1367 C 0.98786 0.45814 0.39587 0.0
N1368 N 1.00437 0.45523 0.45484 0.0
N1369 N 0.98643 0.55307 0.33773 0.0
C1370 C 1.00463 0.47818 0.42537 0.0
C1371 C 0.99514 0.5276 0.36523 0.0
N1372 N 0.04245 0.54059 0.45045 0.0
N1373 N 0.97128 0.46113 0.33681 0.0
H1374 H 0.99614 0.58588 0.33568 0.0
H1375 H 0.96698 0.54277 0.31773 0.0
H1376 H 0.96181 0.42813 0.33614 0.0
H1377 H 0.97298 0.47524 0.31311 0.0
H1378 H 0.05197 0.52326 0.47174 0.0
H1379 H 0.05315 0.57323 0.45056 0.0
H1380 H 0.01304 0.46859 0.47791 0.0
H1381 H 0.99267 0.42304 0.45668 0.0
C1382 C 0.49731 0.00948 0.40199 0.0
C1383 C 0.52163 0.99492 0.37369 0.0
C1384 C 0.45668 1.00511 0.33776 0.0
C1385 C 0.43375 0.02382 0.36539 0.0
N1386 N 0.43174 0.04635 0.4233 0.0
N1387 N 0.52643 0.98037 0.31441 0.0
C1388 C 0.45386 0.02648 0.39746 0.0
C1389 C 0.5017 0.99276 0.34153 0.0
N1390 N 0.51581 0.00661 0.43316 0.0
N1391 N 0.43517 0.99881 0.30799 0.0
H1392 H 0.55869 0.96862 0.31649 0.0
H1393 H 0.51601 0.9836 0.28969 0.0
H1394 H 0.40283 0.00923 0.30375 0.0
H1395 H 0.44817 0.98089 0.28803 0.0
H1396 H 0.49876 0.01265 0.45532 0.0
H1397 H 0.54774 0.99479 0.43713 0.0
H1398 H 0.44598 0.05389 0.44631 0.0
H1399 H 0.39938 0.05782 0.42115 0.0
C1400 C 0.03012 0.49174 0.9233 0.0
C1401 C 0.04928 0.49411 0.89094 0.0
C1402 C 0.98113 0.52545 0.86802 0.0
C1403 C 0.96219 0.52388 0.90049 0.0
N1404 N 0.9696 0.51289 0.95996 0.0
N1405 N 0.04705 0.52011 0.83388 0.0
C1406 C 0.98709 0.50935 0.92849 0.0
C1407 C 0.02601 0.51325 0.86373 0.0
N1408 N 0.05266 0.47152 0.94872 0.0
N1409 N 0.95563 0.53693 0.84109 0.0
H1410 H 0.07957 0.51045 0.82945 0.0
H1411 H 0.0336 0.53833 0.81429 0.0
H1412 H 0.92298 0.54749 0.8433 0.0
H1413 H 0.96572 0.53342 0.8163 0.0
H1414 H 0.03895 0.46427 0.97195 0.0
H1415 H 0.0848 0.45965 0.946 0.0
H1416 H 0.98724 0.50673 0.98182 0.0
H1417 H 0.93796 0.52518 0.96444 0.0
C1418 C 0.49953 0.02305 0.88861 0.0
C1419 C 0.50741 0.04132 0.85651 0.0
C1420 C 0.50704 0.96768 0.83121 0.0
C1421 C 0.49595 0.94962 0.86286 0.0
N1422 N 0.47788 0.95922 0.92125 0.0
N1423 N 0.51297 0.03279 0.79656 0.0
C1424 C 0.49115 0.97708 0.8915 0.0
C1425 C 0.50994 0.01409 0.82764 0.0
N1426 N 0.50095 0.04965 0.91629 0.0
N1427 N 0.51509 0.9404 0.80454 0.0
H1428 H 0.51656 0.06657 0.79274 0.0
H1429 H 0.50867 0.01522 0.7744 0.0
H1430 H 0.51013 0.90643 0.80519 0.0
H1431 H 0.52949 0.95099 0.78232 0.0
H1432 H 0.49977 0.03807 0.94079 0.0
H1433 H 0.50648 0.08352 0.91486 0.0
H1434 H 0.4687 0.97782 0.94206 0.0
H1435 H 0.47358 0.92544 0.92469 0.0
C1436 C 0.03405 0.48894 0.63374 0.0
C1437 C 0.05475 0.51247 0.60736 0.0
C1438 C 0.98909 0.50354 0.57204 0.0
C1439 C 0.96767 0.48211 0.59907 0.0
N1440 N 0.96651 0.45918 0.65686 0.0
N1441 N 0.0521 0.54574 0.55263 0.0
C1442 C 0.98935 0.47588 0.63022 0.0
C1443 C 0.03223 0.52086 0.57682 0.0
N1444 N 0.05735 0.47877 0.66209 0.0
N1445 N 0.96827 0.50648 0.5417 0.0
H1446 H 0.08434 0.55725 0.55475 0.0
H1447 H 0.03623 0.55722 0.53124 0.0
H1448 H 0.93674 0.49403 0.53745 0.0
H1449 H 0.98273 0.51889 0.5201 0.0
H1450 H 0.04637 0.45685 0.68025 0.0
H1451 H 0.08907 0.49033 0.6668 0.0
H1452 H 0.97846 0.45874 0.6813 0.0
H1453 H 0.93402 0.44829 0.65513 0.0
C1454 C 0.51606 0.96935 0.66926 0.0
C1455 C 0.51942 0.94485 0.63901 0.0
C1456 C 0.48515 0.00603 0.60805 0.0
C1457 C 0.48422 0.03136 0.63799 0.0
N1458 N 0.50572 0.04059 0.69574 0.0
N1459 N 0.51351 0.9414 0.57891 0.0
C1460 C 0.50176 0.01402 0.66819 0.0
C1461 C 0.50577 0.96369 0.60815 0.0
N1462 N 0.5246 0.94935 0.69925 0.0
N1463 N 0.46561 0.02222 0.57973 0.0
H1464 H 0.52847 0.91037 0.57824 0.0
H1465 H 0.50845 0.95484 0.55525 0.0
H1466 H 0.45115 0.05346 0.57864 0.0
H1467 H 0.46094 1.0038 0.558 0.0
H1468 H 0.51737 0.96381 0.72228 0.0
H1469 H 0.53571 0.91689 0.70128 0.0
H1470 H 0.52397 0.03179 0.7168 0.0
H1471 H 0.49383 0.07289 0.6966 0.0
loop_
_geom_bond_atom_site_label_1
_geom_bond_atom_site_label_2
_geom_bond_distance
_geom_bond_site_symmetry_2
_ccdc_geom_bond_type
O0 Tb1 2.292 . S
O0 C3 1.255 . S
Tb1 O0 2.292 . S
Tb1 O17 2.326 . S
Tb1 O19 2.500 . S
Tb1 O20 2.473 . S
Tb1 O23 2.324 . S
Eu2 O6 2.292 . S
Eu2 C7 2.852 . S
Eu2 O18 2.324 . S
Eu2 O22 2.326 . S
Eu2 O24 2.500 . S
Eu2 O25 2.473 . S
C3 O0 1.255 . S
C3 O4 1.247 . S
O4 C3 1.247 . S
C5 O17 1.242 . S
C5 O18 1.258 . S
O6 Eu2 2.292 . S
O6 C8 1.255 . S
C7 Eu2 2.852 . S
C7 C11 1.503 . S
C7 O24 1.273 . S
C7 O25 1.257 . S
C8 O6 1.255 . S
C8 O9 1.247 . S
O9 C8 1.247 . S
C10 O22 1.242 . S
C10 O23 1.258 . S
C11 C7 1.503 . S
C11 C12 1.379 . S
C11 C16 1.392 . S
C12 C11 1.379 . S
C12 C13 1.404 . S
C12 H26 0.929 . S
C13 C12 1.404 . S
C13 C14 1.389 1_455 S
C14 C13 1.389 1_655 S
C14 C15 1.399 1_655 S
C14 H27 0.931 . S
C15 C14 1.399 1_455 S
C15 C16 1.390 . S
C16 C11 1.392 . S
C16 C15 1.390 . S
C16 H28 0.929 . S
O17 Tb1 2.326 . S
O17 C5 1.242 . S
O18 Eu2 2.324 . S
O18 C5 1.258 . S
O19 Tb1 2.500 . S
O19 C21 1.273 . S
O20 Tb1 2.473 . S
O20 C21 1.257 . S
C21 O19 1.273 . S
C21 O20 1.257 . S
O22 Eu2 2.326 . S
O22 C10 1.242 . S
O23 Tb1 2.324 . S
O23 C10 1.258 . S
O24 Eu2 2.500 . S
O24 C7 1.273 . S
O25 Eu2 2.473 . S
O25 C7 1.257 . S
H26 C12 0.929 . S
H27 C14 0.931 . S
H28 C16 0.929 . S
O29 Tb30 2.292 . S
O29 C32 1.255 . S
Tb30 O29 2.292 . S
Tb30 O46 2.326 . S
Tb30 O48 2.500 . S
Tb30 O49 2.473 . S
Tb30 O52 2.324 . S
Eu31 O35 2.292 . S
Eu31 C36 2.852 . S
Eu31 O47 2.324 . S
Eu31 O51 2.326 . S
Eu31 O53 2.500 . S
Eu31 O54 2.473 . S
C32 O29 1.255 . S
C32 O33 1.247 . S
O33 C32 1.247 . S
C34 O46 1.242 . S
C34 O47 1.258 . S
O35 Eu31 2.292 . S
O35 C37 1.255 . S
C36 Eu31 2.852 . S
C36 C40 1.503 . S
C36 O53 1.273 . S
C36 O54 1.257 . S
C37 O35 1.255 . S
C37 O38 1.247 . S
O38 C37 1.247 . S
C39 O51 1.242 . S
C39 O52 1.258 . S
C40 C36 1.503 . S
C40 C41 1.379 . S
C40 C45 1.392 . S
C41 C40 1.379 . S
C41 C42 1.404 . S
C41 H55 0.929 . S
C42 C41 1.404 . S
C42 C43 1.389 1_545 S
C43 C42 1.389 1_565 S
C43 C44 1.399 1_565 S
C43 H56 0.931 . S
C44 C43 1.399 1_545 S
C44 C45 1.390 . S
C45 C40 1.392 . S
C45 C44 1.390 . S
C45 H57 0.929 . S
O46 Tb30 2.326 . S
O46 C34 1.242 . S
O47 Eu31 2.324 . S
O47 C34 1.258 . S
O48 Tb30 2.500 . S
O48 C50 1.273 . S
O49 Tb30 2.473 . S
O49 C50 1.257 . S
C50 O48 1.273 . S
C50 O49 1.257 . S
O51 Eu31 2.326 . S
O51 C39 1.242 . S
O52 Tb30 2.324 . S
O52 C39 1.258 . S
O53 Eu31 2.500 . S
O53 C36 1.273 . S
O54 Eu31 2.473 . S
O54 C36 1.257 . S
H55 C41 0.929 . S
H56 C43 0.931 . S
H57 C45 0.929 . S
O58 Tb59 2.292 . S
O58 C61 1.255 . S
Tb59 O58 2.292 . S
Tb59 O75 2.326 . S
Tb59 O77 2.500 . S
Tb59 O78 2.473 . S
Tb59 O81 2.324 . S
Eu60 O64 2.292 . S
Eu60 C65 2.852 . S
Eu60 O76 2.324 . S
Eu60 O80 2.326 . S
Eu60 O82 2.500 . S
Eu60 O83 2.473 . S
C61 O58 1.255 . S
C61 O62 1.247 . S
O62 C61 1.247 . S
C63 O75 1.242 . S
C63 O76 1.258 . S
O64 Eu60 2.292 . S
O64 C66 1.255 . S
C65 Eu60 2.852 . S
C65 C69 1.503 . S
C65 O82 1.273 . S
C65 O83 1.257 . S
C66 O64 1.255 . S
C66 O67 1.247 . S
O67 C66 1.247 . S
C68 O80 1.242 . S
C68 O81 1.258 . S
C69 C65 1.503 . S
C69 C70 1.379 . S
C69 C74 1.392 . S
C70 C69 1.379 . S
C70 C71 1.404 . S
C70 H84 0.929 . S
C71 C70 1.404 . S
C71 C72 1.389 1_655 S
C72 C71 1.389 1_455 S
C72 C73 1.399 1_455 S
C72 H85 0.931 . S
C73 C72 1.399 1_655 S
C73 C74 1.390 . S
C74 C69 1.392 . S
C74 C73 1.390 . S
C74 H86 0.929 . S
O75 Tb59 2.326 . S
O75 C63 1.242 . S
O76 Eu60 2.324 . S
O76 C63 1.258 . S
O77 Tb59 2.500 . S
O77 C79 1.273 . S
O78 Tb59 2.473 . S
O78 C79 1.257 . S
C79 O77 1.273 . S
C79 O78 1.257 . S
O80 Eu60 2.326 . S
O80 C68 1.242 . S
O81 Tb59 2.324 . S
O81 C68 1.258 . S
O82 Eu60 2.500 . S
O82 C65 1.273 . S
O83 Eu60 2.473 . S
O83 C65 1.257 . S
H84 C70 0.929 . S
H85 C72 0.931 . S
H86 C74 0.929 . S
O87 Tb88 2.292 . S
O87 C90 1.255 . S
Tb88 O87 2.292 . S
Tb88 O104 2.326 . S
Tb88 O106 2.500 . S
Tb88 O107 2.473 . S
Tb88 O110 2.324 . S
Eu89 O93 2.292 . S
Eu89 C94 2.852 . S
Eu89 O105 2.324 . S
Eu89 O109 2.326 . S
Eu89 O111 2.500 . S
Eu89 O112 2.473 . S
C90 O87 1.255 . S
C90 O91 1.247 . S
O91 C90 1.247 . S
C92 O104 1.242 . S
C92 O105 1.258 . S
O93 Eu89 2.292 . S
O93 C95 1.255 . S
C94 Eu89 2.852 . S
C94 C98 1.503 . S
C94 O111 1.273 . S
C94 O112 1.257 . S
C95 O93 1.255 . S
C95 O96 1.247 . S
O96 C95 1.247 . S
C97 O109 1.242 . S
C97 O110 1.258 . S
C98 C94 1.503 . S
C98 C99 1.379 . S
C98 C103 1.392 . S
C99 C98 1.379 . S
C99 C100 1.404 . S
C99 H113 0.929 . S
C100 C99 1.404 . S
C100 C101 1.389 1_565 S
C101 C100 1.389 1_545 S
C101 C102 1.399 1_545 S
C101 H114 0.931 . S
C102 C101 1.399 1_565 S
C102 C103 1.390 . S
C103 C98 1.392 . S
C103 C102 1.390 . S
C103 H115 0.929 . S
O104 Tb88 2.326 . S
O104 C92 1.242 . S
O105 Eu89 2.324 . S
O105 C92 1.258 . S
O106 Tb88 2.500 . S
O106 C108 1.273 . S
O107 Tb88 2.473 . S
O107 C108 1.257 . S
C108 O106 1.273 . S
C108 O107 1.257 . S
O109 Eu89 2.326 . S
O109 C97 1.242 . S
O110 Tb88 2.324 . S
O110 C97 1.258 . S
O111 Eu89 2.500 . S
O111 C94 1.273 . S
O112 Eu89 2.473 . S
O112 C94 1.257 . S
H113 C99 0.929 . S
H114 C101 0.931 . S
H115 C103 0.929 . S
O116 Tb117 2.292 . S
O116 C119 1.255 . S
Tb117 O116 2.292 . S
Tb117 O133 2.326 . S
Tb117 O135 2.500 . S
Tb117 O136 2.473 . S
Tb117 O139 2.324 . S
Eu118 O122 2.292 . S
Eu118 C123 2.852 . S
Eu118 O134 2.324 . S
Eu118 O138 2.326 . S
Eu118 O140 2.500 . S
Eu118 O141 2.473 . S
C119 O116 1.255 . S
C119 O120 1.247 . S
O120 C119 1.247 . S
C121 O133 1.242 . S
C121 O134 1.258 . S
O122 Eu118 2.292 . S
O122 C124 1.255 . S
C123 Eu118 2.852 . S
C123 C127 1.503 . S
C123 O140 1.273 . S
C123 O141 1.257 . S
C124 O122 1.255 . S
C124 O125 1.247 . S
O125 C124 1.247 . S
C126 O138 1.242 . S
C126 O139 1.258 . S
C127 C123 1.503 . S
C127 C128 1.379 . S
C127 C132 1.392 . S
C128 C127 1.379 . S
C128 C129 1.404 . S
C128 H142 0.929 . S
C129 C128 1.404 . S
C129 C130 1.389 1_455 S
C130 C129 1.389 1_655 S
C130 C131 1.399 1_655 S
C130 H143 0.931 . S
C131 C130 1.399 1_455 S
C131 C132 1.390 . S
C132 C127 1.392 . S
C132 C131 1.390 . S
C132 H144 0.929 . S
O133 Tb117 2.326 . S
O133 C121 1.242 . S
O134 Eu118 2.324 . S
O134 C121 1.258 . S
O135 Tb117 2.500 . S
O135 C137 1.273 . S
O136 Tb117 2.473 . S
O136 C137 1.257 . S
C137 O135 1.273 . S
C137 O136 1.257 . S
O138 Eu118 2.326 . S
O138 C126 1.242 . S
O139 Tb117 2.324 . S
O139 C126 1.258 . S
O140 Eu118 2.500 . S
O140 C123 1.273 . S
O141 Eu118 2.473 . S
O141 C123 1.257 . S
H142 C128 0.929 . S
H143 C130 0.931 . S
H144 C132 0.929 . S
O145 Tb146 2.292 . S
O145 C148 1.255 . S
Tb146 O145 2.292 . S
Tb146 O162 2.326 . S
Tb146 O164 2.500 . S
Tb146 O165 2.473 . S
Tb146 O168 2.324 . S
Eu147 O151 2.292 . S
Eu147 C152 2.852 . S
Eu147 O163 2.324 . S
Eu147 O167 2.326 . S
Eu147 O169 2.500 . S
Eu147 O170 2.473 . S
C148 O145 1.255 . S
C148 O149 1.247 . S
O149 C148 1.247 . S
C150 O162 1.242 . S
C150 O163 1.258 . S
O151 Eu147 2.292 . S
O151 C153 1.255 . S
C152 Eu147 2.852 . S
C152 C156 1.503 . S
C152 O169 1.273 . S
C152 O170 1.257 . S
C153 O151 1.255 . S
C153 O154 1.247 . S
O154 C153 1.247 . S
C155 O167 1.242 . S
C155 O168 1.258 . S
C156 C152 1.503 . S
C156 C157 1.379 . S
C156 C161 1.392 . S
C157 C156 1.379 . S
C157 C158 1.404 . S
C157 H171 0.929 . S
C158 C157 1.404 . S
C158 C159 1.389 1_545 S
C159 C158 1.389 1_565 S
C159 C160 1.399 1_565 S
C159 H172 0.931 . S
C160 C159 1.399 1_545 S
C160 C161 1.390 . S
C161 C156 1.392 . S
C161 C160 1.390 . S
C161 H173 0.929 . S
O162 Tb146 2.326 . S
O162 C150 1.242 . S
O163 Eu147 2.324 . S
O163 C150 1.258 . S
O164 Tb146 2.500 . S
O164 C166 1.273 . S
O165 Tb146 2.473 . S
O165 C166 1.257 . S
C166 O164 1.273 . S
C166 O165 1.257 . S
O167 Eu147 2.326 . S
O167 C155 1.242 . S
O168 Tb146 2.324 . S
O168 C155 1.258 . S
O169 Eu147 2.500 . S
O169 C152 1.273 . S
O170 Eu147 2.473 . S
O170 C152 1.257 . S
H171 C157 0.929 . S
H172 C159 0.931 . S
H173 C161 0.929 . S
O174 Tb175 2.292 . S
O174 C177 1.255 . S
Tb175 O174 2.292 . S
Tb175 O191 2.326 . S
Tb175 O193 2.500 . S
Tb175 O194 2.473 . S
Tb175 O197 2.324 . S
Eu176 O180 2.292 . S
Eu176 C181 2.852 . S
Eu176 O192 2.324 . S
Eu176 O196 2.326 . S
Eu176 O198 2.500 . S
Eu176 O199 2.473 . S
C177 O174 1.255 . S
C177 O178 1.247 . S
O178 C177 1.247 . S
C179 O191 1.242 . S
C179 O192 1.258 . S
O180 Eu176 2.292 . S
O180 C182 1.255 . S
C181 Eu176 2.852 . S
C181 C185 1.503 . S
C181 O198 1.273 . S
C181 O199 1.257 . S
C182 O180 1.255 . S
C182 O183 1.247 . S
O183 C182 1.247 . S
C184 O196 1.242 . S
C184 O197 1.258 . S
C185 C181 1.503 . S
C185 C186 1.379 . S
C185 C190 1.392 . S
C186 C185 1.379 . S
C186 C187 1.404 . S
C186 H200 0.929 . S
C187 C186 1.404 . S
C187 C188 1.389 1_655 S
C188 C187 1.389 1_455 S
C188 C189 1.399 1_455 S
C188 H201 0.931 . S
C189 C188 1.399 1_655 S
C189 C190 1.390 . S
C190 C185 1.392 . S
C190 C189 1.390 . S
C190 H202 0.929 . S
O191 Tb175 2.326 . S
O191 C179 1.242 . S
O192 Eu176 2.324 . S
O192 C179 1.258 . S
O193 Tb175 2.500 . S
O193 C195 1.273 . S
O194 Tb175 2.473 . S
O194 C195 1.257 . S
C195 O193 1.273 . S
C195 O194 1.257 . S
O196 Eu176 2.326 . S
O196 C184 1.242 . S
O197 Tb175 2.324 . S
O197 C184 1.258 . S
O198 Eu176 2.500 . S
O198 C181 1.273 . S
O199 Eu176 2.473 . S
O199 C181 1.257 . S
H200 C186 0.929 . S
H201 C188 0.931 . S
H202 C190 0.929 . S
O203 Tb204 2.292 . S
O203 C206 1.255 . S
Tb204 O203 2.292 . S
Tb204 O220 2.326 . S
Tb204 O222 2.500 . S
Tb204 O223 2.473 . S
Tb204 O226 2.324 . S
Eu205 O209 2.292 . S
Eu205 C210 2.852 . S
Eu205 O221 2.324 . S
Eu205 O225 2.326 . S
Eu205 O227 2.500 . S
Eu205 O228 2.473 . S
C206 O203 1.255 . S
C206 O207 1.247 . S
O207 C206 1.247 . S
C208 O220 1.242 . S
C208 O221 1.258 . S
O209 Eu205 2.292 . S
O209 C211 1.255 . S
C210 Eu205 2.852 . S
C210 C214 1.503 . S
C210 O227 1.273 . S
C210 O228 1.257 . S
C211 O209 1.255 . S
C211 O212 1.247 . S
O212 C211 1.247 . S
C213 O225 1.242 . S
C213 O226 1.258 . S
C214 C210 1.503 . S
C214 C215 1.379 . S
C214 C219 1.392 . S
C215 C214 1.379 . S
C215 C216 1.404 . S
C215 H229 0.929 . S
C216 C215 1.404 . S
C216 C217 1.389 1_565 S
C217 C216 1.389 1_545 S
C217 C218 1.399 1_545 S
C217 H230 0.931 . S
C218 C217 1.399 1_565 S
C218 C219 1.390 . S
C219 C214 1.392 . S
C219 C218 1.390 . S
C219 H231 0.929 . S
O220 Tb204 2.326 . S
O220 C208 1.242 . S
O221 Eu205 2.324 . S
O221 C208 1.258 . S
O222 Tb204 2.500 . S
O222 C224 1.273 . S
O223 Tb204 2.473 . S
O223 C224 1.257 . S
C224 O222 1.273 . S
C224 O223 1.257 . S
O225 Eu205 2.326 . S
O225 C213 1.242 . S
O226 Tb204 2.324 . S
O226 C213 1.258 . S
O227 Eu205 2.500 . S
O227 C210 1.273 . S
O228 Eu205 2.473 . S
O228 C210 1.257 . S
H229 C215 0.929 . S
H230 C217 0.931 . S
H231 C219 0.929 . S
O232 Tb233 2.292 . S
O232 C235 1.255 . S
Tb233 O232 2.292 . S
Tb233 O249 2.326 . S
Tb233 O251 2.500 . S
Tb233 O252 2.473 . S
Tb233 O255 2.324 . S
Eu234 O238 2.292 . S
Eu234 C239 2.852 . S
Eu234 O250 2.324 . S
Eu234 O254 2.326 . S
Eu234 O256 2.500 . S
Eu234 O257 2.473 . S
C235 O232 1.255 . S
C235 O236 1.247 . S
O236 C235 1.247 . S
C237 O249 1.242 . S
C237 O250 1.258 . S
O238 Eu234 2.292 . S
O238 C240 1.255 . S
C239 Eu234 2.852 . S
C239 C243 1.503 . S
C239 O256 1.273 . S
C239 O257 1.257 . S
C240 O238 1.255 . S
C240 O241 1.247 . S
O241 C240 1.247 . S
C242 O254 1.242 . S
C242 O255 1.258 . S
C243 C239 1.503 . S
C243 C244 1.379 . S
C243 C248 1.392 . S
C244 C243 1.379 . S
C244 C245 1.404 . S
C244 H258 0.929 . S
C245 C244 1.404 . S
C245 C246 1.389 . S
C246 C245 1.389 . S
C246 C247 1.399 . S
C246 H259 0.931 . S
C247 C246 1.399 . S
C247 C248 1.390 . S
C248 C243 1.392 . S
C248 C247 1.390 . S
C248 H260 0.929 . S
O249 Tb233 2.326 . S
O249 C237 1.242 . S
O250 Eu234 2.324 . S
O250 C237 1.258 . S
O251 Tb233 2.500 . S
O251 C253 1.273 . S
O252 Tb233 2.473 . S
O252 C253 1.257 . S
C253 O251 1.273 . S
C253 O252 1.257 . S
O254 Eu234 2.326 . S
O254 C242 1.242 . S
O255 Tb233 2.324 . S
O255 C242 1.258 . S
O256 Eu234 2.500 . S
O256 C239 1.273 . S
O257 Eu234 2.473 . S
O257 C239 1.257 . S
H258 C244 0.929 . S
H259 C246 0.931 . S
H260 C248 0.929 . S
O261 Tb262 2.292 . S
O261 C264 1.255 . S
Tb262 O261 2.292 . S
Tb262 O278 2.326 . S
Tb262 O280 2.500 . S
Tb262 O281 2.473 . S
Tb262 O284 2.324 . S
Eu263 O267 2.292 . S
Eu263 C268 2.852 . S
Eu263 O279 2.324 . S
Eu263 O283 2.326 . S
Eu263 O285 2.500 . S
Eu263 O286 2.473 . S
C264 O261 1.255 . S
C264 O265 1.247 . S
O265 C264 1.247 . S
C266 O278 1.242 . S
C266 O279 1.258 . S
O267 Eu263 2.292 . S
O267 C269 1.255 . S
C268 Eu263 2.852 . S
C268 C272 1.503 . S
C268 O285 1.273 . S
C268 O286 1.257 . S
C269 O267 1.255 . S
C269 O270 1.247 . S
O270 C269 1.247 . S
C271 O283 1.242 . S
C271 O284 1.258 . S
C272 C268 1.503 . S
C272 C273 1.379 . S
C272 C277 1.392 . S
C273 C272 1.379 . S
C273 C274 1.404 . S
C273 H287 0.929 . S
C274 C273 1.404 . S
C274 C275 1.389 . S
C275 C274 1.389 . S
C275 C276 1.399 . S
C275 H288 0.931 . S
C276 C275 1.399 . S
C276 C277 1.390 . S
C277 C272 1.392 . S
C277 C276 1.390 . S
C277 H289 0.929 . S
O278 Tb262 2.326 . S
O278 C266 1.242 . S
O279 Eu263 2.324 . S
O279 C266 1.258 . S
O280 Tb262 2.500 . S
O280 C282 1.273 . S
O281 Tb262 2.473 . S
O281 C282 1.257 . S
C282 O280 1.273 . S
C282 O281 1.257 . S
O283 Eu263 2.326 . S
O283 C271 1.242 . S
O284 Tb262 2.324 . S
O284 C271 1.258 . S
O285 Eu263 2.500 . S
O285 C268 1.273 . S
O286 Eu263 2.473 . S
O286 C268 1.257 . S
H287 C273 0.929 . S
H288 C275 0.931 . S
H289 C277 0.929 . S
O290 Tb291 2.292 . S
O290 C293 1.255 . S
Tb291 O290 2.292 . S
Tb291 O307 2.326 . S
Tb291 O309 2.500 . S
Tb291 O310 2.473 . S
Tb291 O313 2.324 . S
Eu292 O296 2.292 . S
Eu292 C297 2.852 . S
Eu292 O308 2.324 . S
Eu292 O312 2.326 . S
Eu292 O314 2.500 . S
Eu292 O315 2.473 . S
C293 O290 1.255 . S
C293 O294 1.247 . S
O294 C293 1.247 . S
C295 O307 1.242 . S
C295 O308 1.258 . S
O296 Eu292 2.292 . S
O296 C298 1.255 . S
C297 Eu292 2.852 . S
C297 C301 1.503 . S
C297 O314 1.273 . S
C297 O315 1.257 . S
C298 O296 1.255 . S
C298 O299 1.247 . S
O299 C298 1.247 . S
C300 O312 1.242 . S
C300 O313 1.258 . S
C301 C297 1.503 . S
C301 C302 1.379 . S
C301 C306 1.392 . S
C302 C301 1.379 . S
C302 C303 1.404 . S
C302 H316 0.929 . S
C303 C302 1.404 . S
C303 C304 1.389 . S
C304 C303 1.389 . S
C304 C305 1.399 . S
C304 H317 0.931 . S
C305 C304 1.399 . S
C305 C306 1.390 . S
C306 C301 1.392 . S
C306 C305 1.390 . S
C306 H318 0.929 . S
O307 Tb291 2.326 . S
O307 C295 1.242 . S
O308 Eu292 2.324 . S
O308 C295 1.258 . S
O309 Tb291 2.500 . S
O309 C311 1.273 . S
O310 Tb291 2.473 . S
O310 C311 1.257 . S
C311 O309 1.273 . S
C311 O310 1.257 . S
O312 Eu292 2.326 . S
O312 C300 1.242 . S
O313 Tb291 2.324 . S
O313 C300 1.258 . S
O314 Eu292 2.500 . S
O314 C297 1.273 . S
O315 Eu292 2.473 . S
O315 C297 1.257 . S
H316 C302 0.929 . S
H317 C304 0.931 . S
H318 C306 0.929 . S
O319 Tb320 2.292 . S
O319 C322 1.255 . S
Tb320 O319 2.292 . S
Tb320 O336 2.326 . S
Tb320 O338 2.500 . S
Tb320 O339 2.473 . S
Tb320 O342 2.324 . S
Eu321 O325 2.292 . S
Eu321 C326 2.852 . S
Eu321 O337 2.324 . S
Eu321 O341 2.326 . S
Eu321 O343 2.500 . S
Eu321 O344 2.473 . S
C322 O319 1.255 . S
C322 O323 1.247 . S
O323 C322 1.247 . S
C324 O336 1.242 . S
C324 O337 1.258 . S
O325 Eu321 2.292 . S
O325 C327 1.255 . S
C326 Eu321 2.852 . S
C326 C330 1.503 . S
C326 O343 1.273 . S
C326 O344 1.257 . S
C327 O325 1.255 . S
C327 O328 1.247 . S
O328 C327 1.247 . S
C329 O341 1.242 . S
C329 O342 1.258 . S
C330 C326 1.503 . S
C330 C331 1.379 . S
C330 C335 1.392 . S
C331 C330 1.379 . S
C331 C332 1.404 . S
C331 H345 0.929 . S
C332 C331 1.404 . S
C332 C333 1.389 . S
C333 C332 1.389 . S
C333 C334 1.399 . S
C333 H346 0.931 . S
C334 C333 1.399 . S
C334 C335 1.390 . S
C335 C330 1.392 . S
C335 C334 1.390 . S
C335 H347 0.929 . S
O336 Tb320 2.326 . S
O336 C324 1.242 . S
O337 Eu321 2.324 . S
O337 C324 1.258 . S
O338 Tb320 2.500 . S
O338 C340 1.273 . S
O339 Tb320 2.473 . S
O339 C340 1.257 . S
C340 O338 1.273 . S
C340 O339 1.257 . S
O341 Eu321 2.326 . S
O341 C329 1.242 . S
O342 Tb320 2.324 . S
O342 C329 1.258 . S
O343 Eu321 2.500 . S
O343 C326 1.273 . S
O344 Eu321 2.473 . S
O344 C326 1.257 . S
H345 C331 0.929 . S
H346 C333 0.931 . S
H347 C335 0.929 . S
O348 Tb349 2.292 . S
O348 C351 1.255 . S
Tb349 O348 2.292 . S
Tb349 O365 2.326 . S
Tb349 O367 2.500 . S
Tb349 O368 2.473 . S
Tb349 O371 2.324 . S
Eu350 O354 2.292 . S
Eu350 C355 2.852 . S
Eu350 O366 2.324 . S
Eu350 O370 2.326 . S
Eu350 O372 2.500 . S
Eu350 O373 2.473 . S
C351 O348 1.255 . S
C351 O352 1.247 . S
O352 C351 1.247 . S
C353 O365 1.242 . S
C353 O366 1.258 . S
O354 Eu350 2.292 . S
O354 C356 1.255 . S
C355 Eu350 2.852 . S
C355 C359 1.503 . S
C355 O372 1.273 . S
C355 O373 1.257 . S
C356 O354 1.255 . S
C356 O357 1.247 . S
O357 C356 1.247 . S
C358 O370 1.242 . S
C358 O371 1.258 . S
C359 C355 1.503 . S
C359 C360 1.379 . S
C359 C364 1.392 . S
C360 C359 1.379 . S
C360 C361 1.404 . S
C360 H374 0.929 . S
C361 C360 1.404 . S
C361 C362 1.389 . S
C362 C361 1.389 . S
C362 C363 1.399 . S
C362 H375 0.931 . S
C363 C362 1.399 . S
C363 C364 1.390 . S
C364 C359 1.392 . S
C364 C363 1.390 . S
C364 H376 0.929 . S
O365 Tb349 2.326 . S
O365 C353 1.242 . S
O366 Eu350 2.324 . S
O366 C353 1.258 . S
O367 Tb349 2.500 . S
O367 C369 1.273 . S
O368 Tb349 2.473 . S
O368 C369 1.257 . S
C369 O367 1.273 . S
C369 O368 1.257 . S
O370 Eu350 2.326 . S
O370 C358 1.242 . S
O371 Tb349 2.324 . S
O371 C358 1.258 . S
O372 Eu350 2.500 . S
O372 C355 1.273 . S
O373 Eu350 2.473 . S
O373 C355 1.257 . S
H374 C360 0.929 . S
H375 C362 0.931 . S
H376 C364 0.929 . S
O377 Tb378 2.292 . S
O377 C380 1.255 . S
Tb378 O377 2.292 . S
Tb378 O394 2.326 . S
Tb378 O396 2.500 . S
Tb378 O397 2.473 . S
Tb378 O400 2.324 . S
Eu379 O383 2.292 . S
Eu379 C384 2.852 . S
Eu379 O395 2.324 . S
Eu379 O399 2.326 . S
Eu379 O401 2.500 . S
Eu379 O402 2.473 . S
C380 O377 1.255 . S
C380 O381 1.247 . S
O381 C380 1.247 . S
C382 O394 1.242 . S
C382 O395 1.258 . S
O383 Eu379 2.292 . S
O383 C385 1.255 . S
C384 Eu379 2.852 . S
C384 C388 1.503 . S
C384 O401 1.273 . S
C384 O402 1.257 . S
C385 O383 1.255 . S
C385 O386 1.247 . S
O386 C385 1.247 . S
C387 O399 1.242 . S
C387 O400 1.258 . S
C388 C384 1.503 . S
C388 C389 1.379 . S
C388 C393 1.392 . S
C389 C388 1.379 . S
C389 C390 1.404 . S
C389 H403 0.929 . S
C390 C389 1.404 . S
C390 C391 1.389 . S
C391 C390 1.389 . S
C391 C392 1.399 . S
C391 H404 0.931 . S
C392 C391 1.399 . S
C392 C393 1.390 . S
C393 C388 1.392 . S
C393 C392 1.390 . S
C393 H405 0.929 . S
O394 Tb378 2.326 . S
O394 C382 1.242 . S
O395 Eu379 2.324 . S
O395 C382 1.258 . S
O396 Tb378 2.500 . S
O396 C398 1.273 . S
O397 Tb378 2.473 . S
O397 C398 1.257 . S
C398 O396 1.273 . S
C398 O397 1.257 . S
O399 Eu379 2.326 . S
O399 C387 1.242 . S
O400 Tb378 2.324 . S
O400 C387 1.258 . S
O401 Eu379 2.500 . S
O401 C384 1.273 . S
O402 Eu379 2.473 . S
O402 C384 1.257 . S
H403 C389 0.929 . S
H404 C391 0.931 . S
H405 C393 0.929 . S
O406 Tb407 2.292 . S
O406 C409 1.255 . S
Tb407 O406 2.292 . S
Tb407 O423 2.326 . S
Tb407 O425 2.500 . S
Tb407 O426 2.473 . S
Tb407 O429 2.324 . S
Eu408 O412 2.292 . S
Eu408 C413 2.852 . S
Eu408 O424 2.324 . S
Eu408 O428 2.326 . S
Eu408 O430 2.500 . S
Eu408 O431 2.473 . S
C409 O406 1.255 . S
C409 O410 1.247 . S
O410 C409 1.247 . S
C411 O423 1.242 . S
C411 O424 1.258 . S
O412 Eu408 2.292 . S
O412 C414 1.255 . S
C413 Eu408 2.852 . S
C413 C417 1.503 . S
C413 O430 1.273 . S
C413 O431 1.257 . S
C414 O412 1.255 . S
C414 O415 1.247 . S
O415 C414 1.247 . S
C416 O428 1.242 . S
C416 O429 1.258 . S
C417 C413 1.503 . S
C417 C418 1.379 . S
C417 C422 1.392 . S
C418 C417 1.379 . S
C418 C419 1.404 . S
C418 H432 0.929 . S
C419 C418 1.404 . S
C419 C420 1.389 . S
C420 C419 1.389 . S
C420 C421 1.399 . S
C420 H433 0.931 . S
C421 C420 1.399 . S
C421 C422 1.390 . S
C422 C417 1.392 . S
C422 C421 1.390 . S
C422 H434 0.929 . S
O423 Tb407 2.326 . S
O423 C411 1.242 . S
O424 Eu408 2.324 . S
O424 C411 1.258 . S
O425 Tb407 2.500 . S
O425 C427 1.273 . S
O426 Tb407 2.473 . S
O426 C427 1.257 . S
C427 O425 1.273 . S
C427 O426 1.257 . S
O428 Eu408 2.326 . S
O428 C416 1.242 . S
O429 Tb407 2.324 . S
O429 C416 1.258 . S
O430 Eu408 2.500 . S
O430 C413 1.273 . S
O431 Eu408 2.473 . S
O431 C413 1.257 . S
H432 C418 0.929 . S
H433 C420 0.931 . S
H434 C422 0.929 . S
O435 Tb436 2.292 . S
O435 C438 1.255 . S
Tb436 O435 2.292 . S
Tb436 O452 2.326 . S
Tb436 O454 2.500 . S
Tb436 O455 2.473 . S
Tb436 O458 2.324 . S
Eu437 O441 2.292 . S
Eu437 C442 2.852 . S
Eu437 O453 2.324 . S
Eu437 O457 2.326 . S
Eu437 O459 2.500 . S
Eu437 O460 2.473 . S
C438 O435 1.255 . S
C438 O439 1.247 . S
O439 C438 1.247 . S
C440 O452 1.242 . S
C440 O453 1.258 . S
O441 Eu437 2.292 . S
O441 C443 1.255 . S
C442 Eu437 2.852 . S
C442 C446 1.503 . S
C442 O459 1.273 . S
C442 O460 1.257 . S
C443 O441 1.255 . S
C443 O444 1.247 . S
O444 C443 1.247 . S
C445 O457 1.242 . S
C445 O458 1.258 . S
C446 C442 1.503 . S
C446 C447 1.379 . S
C446 C451 1.392 . S
C447 C446 1.379 . S
C447 C448 1.404 . S
C447 H461 0.929 . S
C448 C447 1.404 . S
C448 C449 1.389 . S
C449 C448 1.389 . S
C449 C450 1.399 . S
C449 H462 0.931 . S
C450 C449 1.399 . S
C450 C451 1.390 . S
C451 C446 1.392 . S
C451 C450 1.390 . S
C451 H463 0.929 . S
O452 Tb436 2.326 . S
O452 C440 1.242 . S
O453 Eu437 2.324 . S
O453 C440 1.258 . S
O454 Tb436 2.500 . S
O454 C456 1.273 . S
O455 Tb436 2.473 . S
O455 C456 1.257 . S
C456 O454 1.273 . S
C456 O455 1.257 . S
O457 Eu437 2.326 . S
O457 C445 1.242 . S
O458 Tb436 2.324 . S
O458 C445 1.258 . S
O459 Eu437 2.500 . S
O459 C442 1.273 . S
O460 Eu437 2.473 . S
O460 C442 1.257 . S
H461 C447 0.929 . S
H462 C449 0.931 . S
H463 C451 0.929 . S
C464 C465 1.363 . S
C464 C470 1.379 1_554 S
C464 N472 1.356 . S
C465 C464 1.363 . S
C465 C471 1.363 . S
C466 C467 1.363 . S
C466 C471 1.379 1_556 S
C466 N473 1.356 . S
C467 C466 1.363 . S
C467 C470 1.363 . S
N468 C470 1.356 . S
N468 H480 0.984 . S
N468 H481 0.985 . S
N469 C471 1.356 . S
N469 H474 0.984 . S
N469 H475 0.985 . S
C470 C464 1.379 1_556 S
C470 C467 1.363 . S
C470 N468 1.356 . S
C471 C465 1.363 . S
C471 C466 1.379 1_554 S
C471 N469 1.356 . S
N472 C464 1.356 . S
N472 H478 0.984 . S
N472 H479 0.984 . S
N473 C466 1.356 . S
N473 H476 0.984 . S
N473 H477 0.985 . S
H474 N469 0.984 . S
H475 N469 0.985 . S
H476 N473 0.984 . S
H477 N473 0.985 . S
H478 N472 0.984 . S
H479 N472 0.984 . S
H480 N468 0.984 . S
H481 N468 0.985 . S
C482 C483 1.363 . S
C482 C488 1.379 1_554 S
C482 N490 1.356 . S
C483 C482 1.363 . S
C483 C489 1.363 . S
C484 C485 1.363 . S
C484 C489 1.379 1_556 S
C484 N491 1.356 . S
C485 C484 1.363 . S
C485 C488 1.363 . S
N486 C488 1.356 . S
N486 H498 0.984 . S
N486 H499 0.985 . S
N487 C489 1.356 . S
N487 H492 0.984 . S
N487 H493 0.985 . S
C488 C482 1.379 1_556 S
C488 C485 1.363 . S
C488 N486 1.356 . S
C489 C483 1.363 . S
C489 C484 1.379 1_554 S
C489 N487 1.356 . S
N490 C482 1.356 . S
N490 H496 0.984 . S
N490 H497 0.984 . S
N491 C484 1.356 . S
N491 H494 0.984 . S
N491 H495 0.985 . S
H492 N487 0.984 . S
H493 N487 0.985 . S
H494 N491 0.984 . S
H495 N491 0.985 . S
H496 N490 0.984 . S
H497 N490 0.984 . S
H498 N486 0.984 . S
H499 N486 0.985 . S
C500 C501 1.363 1_554 S
C500 C506 1.379 . S
C500 N508 1.356 1_554 S
C501 C500 1.363 1_556 S
C501 C507 1.363 . S
C502 C503 1.363 1_556 S
C502 C507 1.379 . S
C502 N509 1.356 1_556 S
C503 C502 1.363 1_554 S
C503 C506 1.363 . S
N504 C506 1.356 . S
N504 H516 0.984 . S
N504 H517 0.985 . S
N505 C507 1.356 . S
N505 H510 0.984 . S
N505 H511 0.985 . S
C506 C500 1.379 . S
C506 C503 1.363 . S
C506 N504 1.356 . S
C507 C501 1.363 . S
C507 C502 1.379 . S
C507 N505 1.356 . S
N508 C500 1.356 1_556 S
N508 H514 0.984 1_556 S
N508 H515 0.984 . S
N509 C502 1.356 1_554 S
N509 H512 0.984 . S
N509 H513 0.985 1_554 S
H510 N505 0.984 . S
H511 N505 0.985 . S
H512 N509 0.984 . S
H513 N509 0.985 1_556 S
H514 N508 0.984 1_554 S
H515 N508 0.984 . S
H516 N504 0.984 . S
H517 N504 0.985 . S
C518 C519 1.363 . S
C518 C524 1.379 1_556 S
C518 N526 1.356 . S
C519 C518 1.363 . S
C519 C525 1.363 . S
C520 C521 1.363 . S
C520 C525 1.379 1_554 S
C520 N527 1.356 . S
C521 C520 1.363 . S
C521 C524 1.363 . S
N522 C524 1.356 . S
N522 H534 0.984 . S
N522 H535 0.985 . S
N523 C525 1.356 . S
N523 H528 0.984 . S
N523 H529 0.985 . S
C524 C518 1.379 1_554 S
C524 C521 1.363 . S
C524 N522 1.356 . S
C525 C519 1.363 . S
C525 C520 1.379 1_556 S
C525 N523 1.356 . S
N526 C518 1.356 . S
N526 H532 0.984 . S
N526 H533 0.984 . S
N527 C520 1.356 . S
N527 H530 0.984 . S
N527 H531 0.985 . S
H528 N523 0.984 . S
H529 N523 0.985 . S
H530 N527 0.984 . S
H531 N527 0.985 . S
H532 N526 0.984 . S
H533 N526 0.984 . S
H534 N522 0.984 . S
H535 N522 0.985 . S
C536 C537 1.363 . S
C536 C542 1.379 . S
C536 N544 1.356 . S
C537 C536 1.363 . S
C537 C543 1.363 . S
C538 C539 1.363 . S
C538 C543 1.379 . S
C538 N545 1.356 . S
C539 C538 1.363 . S
C539 C542 1.363 . S
N540 C542 1.356 . S
N540 H552 0.984 . S
N540 H553 0.985 . S
N541 C543 1.356 . S
N541 H546 0.984 . S
N541 H547 0.985 . S
C542 C536 1.379 . S
C542 C539 1.363 . S
C542 N540 1.356 . S
C543 C537 1.363 . S
C543 C538 1.379 . S
C543 N541 1.356 . S
N544 C536 1.356 . S
N544 H550 0.984 . S
N544 H551 0.984 . S
N545 C538 1.356 . S
N545 H548 0.984 . S
N545 H549 0.985 . S
H546 N541 0.984 . S
H547 N541 0.985 . S
H548 N545 0.984 . S
H549 N545 0.985 . S
H550 N544 0.984 . S
H551 N544 0.984 . S
H552 N540 0.984 . S
H553 N540 0.985 . S
C554 C555 1.363 . S
C554 C560 1.379 . S
C554 N562 1.356 . S
C555 C554 1.363 . S
C555 C561 1.363 . S
C556 C557 1.363 . S
C556 C561 1.379 . S
C556 N563 1.356 . S
C557 C556 1.363 . S
C557 C560 1.363 . S
N558 C560 1.356 . S
N558 H570 0.984 . S
N558 H571 0.985 . S
N559 C561 1.356 . S
N559 H564 0.984 . S
N559 H565 0.985 . S
C560 C554 1.379 . S
C560 C557 1.363 . S
C560 N558 1.356 . S
C561 C555 1.363 . S
C561 C556 1.379 . S
C561 N559 1.356 . S
N562 C554 1.356 . S
N562 H568 0.984 . S
N562 H569 0.984 . S
N563 C556 1.356 . S
N563 H566 0.984 . S
N563 H567 0.985 . S
H564 N559 0.984 . S
H565 N559 0.985 . S
H566 N563 0.984 . S
H567 N563 0.985 . S
H568 N562 0.984 . S
H569 N562 0.984 . S
H570 N558 0.984 . S
H571 N558 0.985 . S
C572 C573 1.363 . S
C572 C578 1.379 . S
C572 N580 1.356 . S
C573 C572 1.363 . S
C573 C579 1.363 . S
C574 C575 1.363 . S
C574 C579 1.379 . S
C574 N581 1.356 . S
C575 C574 1.363 . S
C575 C578 1.363 . S
N576 C578 1.356 . S
N576 H588 0.984 . S
N576 H589 0.985 . S
N577 C579 1.356 . S
N577 H582 0.984 . S
N577 H583 0.985 . S
C578 C572 1.379 . S
C578 C575 1.363 . S
C578 N576 1.356 . S
C579 C573 1.363 . S
C579 C574 1.379 . S
C579 N577 1.356 . S
N580 C572 1.356 . S
N580 H586 0.984 . S
N580 H587 0.984 . S
N581 C574 1.356 . S
N581 H584 0.984 . S
N581 H585 0.985 . S
H582 N577 0.984 . S
H583 N577 0.985 . S
H584 N581 0.984 . S
H585 N581 0.985 . S
H586 N580 0.984 . S
H587 N580 0.984 . S
H588 N576 0.984 . S
H589 N576 0.985 . S
C590 C591 1.363 . S
C590 C596 1.379 . S
C590 N598 1.356 . S
C591 C590 1.363 . S
C591 C597 1.363 . S
C592 C593 1.363 . S
C592 C597 1.379 . S
C592 N599 1.356 . S
C593 C592 1.363 . S
C593 C596 1.363 . S
N594 C596 1.356 . S
N594 H606 0.984 . S
N594 H607 0.985 . S
N595 C597 1.356 . S
N595 H600 0.984 . S
N595 H601 0.985 . S
C596 C590 1.379 . S
C596 C593 1.363 . S
C596 N594 1.356 . S
C597 C591 1.363 . S
C597 C592 1.379 . S
C597 N595 1.356 . S
N598 C590 1.356 . S
N598 H604 0.984 . S
N598 H605 0.984 . S
N599 C592 1.356 . S
N599 H602 0.984 . S
N599 H603 0.985 . S
H600 N595 0.984 . S
H601 N595 0.985 . S
H602 N599 0.984 . S
H603 N599 0.985 . S
H604 N598 0.984 . S
H605 N598 0.984 . S
H606 N594 0.984 . S
H607 N594 0.985 . S
C608 C609 1.363 . S
C608 C614 1.379 . S
C608 N616 1.355 . S
C609 C608 1.363 . S
C609 C615 1.363 . S
C610 C611 1.363 . S
C610 C615 1.379 . S
C610 N617 1.356 . S
C611 C610 1.363 . S
C611 C614 1.363 . S
N612 C614 1.356 . S
N612 H624 0.984 . S
N612 H625 0.985 . S
N613 C615 1.356 . S
N613 H618 0.984 . S
N613 H619 0.985 . S
C614 C608 1.379 . S
C614 C611 1.363 . S
C614 N612 1.356 . S
C615 C609 1.363 . S
C615 C610 1.379 . S
C615 N613 1.356 . S
N616 C608 1.355 . S
N616 H622 0.985 1_545 S
N616 H623 0.986 1_545 S
N617 C610 1.356 . S
N617 H620 0.984 . S
N617 H621 0.985 . S
H618 N613 0.984 . S
H619 N613 0.985 . S
H620 N617 0.984 . S
H621 N617 0.985 . S
H622 N616 0.985 1_565 S
H623 N616 0.986 1_565 S
H624 N612 0.984 . S
H625 N612 0.985 . S
C626 C627 1.363 . S
C626 C632 1.379 . S
C626 N634 1.356 . S
C627 C626 1.363 . S
C627 C633 1.363 . S
C628 C629 1.363 . S
C628 C633 1.379 . S
C628 N635 1.356 . S
C629 C628 1.363 . S
C629 C632 1.363 . S
N630 C632 1.356 . S
N630 H642 0.984 . S
N630 H643 0.985 . S
N631 C633 1.356 1_455 S
N631 H636 0.984 . S
N631 H637 0.985 . S
C632 C626 1.379 . S
C632 C629 1.363 . S
C632 N630 1.356 . S
C633 C627 1.363 . S
C633 C628 1.379 . S
C633 N631 1.356 1_655 S
N634 C626 1.356 . S
N634 H640 0.984 . S
N634 H641 0.984 . S
N635 C628 1.356 . S
N635 H638 0.984 . S
N635 H639 0.985 . S
H636 N631 0.984 . S
H637 N631 0.985 . S
H638 N635 0.984 . S
H639 N635 0.985 . S
H640 N634 0.984 . S
H641 N634 0.984 . S
H642 N630 0.984 . S
H643 N630 0.985 . S
C644 C645 1.363 . S
C644 C650 1.379 . S
C644 N652 1.356 . S
C645 C644 1.363 . S
C645 C651 1.363 . S
C646 C647 1.363 . S
C646 C651 1.379 . S
C646 N653 1.356 . S
C647 C646 1.363 . S
C647 C650 1.363 . S
N648 C650 1.356 . S
N648 H660 0.984 . S
N648 H661 0.985 1_565 S
N649 C651 1.356 . S
N649 H654 0.984 . S
N649 H655 0.985 . S
C650 C644 1.379 . S
C650 C647 1.363 . S
C650 N648 1.356 . S
C651 C645 1.363 . S
C651 C646 1.379 . S
C651 N649 1.356 . S
N652 C644 1.356 . S
N652 H658 0.984 . S
N652 H659 0.984 . S
N653 C646 1.356 . S
N653 H656 0.984 1_565 S
N653 H657 0.985 . S
H654 N649 0.984 . S
H655 N649 0.985 . S
H656 N653 0.984 1_545 S
H657 N653 0.985 . S
H658 N652 0.984 . S
H659 N652 0.984 . S
H660 N648 0.984 . S
H661 N648 0.985 1_545 S
C662 C663 1.363 . S
C662 C668 1.379 . S
C662 N670 1.356 . S
C663 C662 1.363 . S
C663 C669 1.363 . S
C664 C665 1.363 . S
C664 C669 1.379 . S
C664 N671 1.356 . S
C665 C664 1.363 . S
C665 C668 1.363 . S
N666 C668 1.356 1_655 S
N666 H678 0.984 . S
N666 H679 0.985 . S
N667 C669 1.356 . S
N667 H672 0.984 . S
N667 H673 0.985 . S
C668 C662 1.379 . S
C668 C665 1.363 . S
C668 N666 1.356 1_455 S
C669 C663 1.363 . S
C669 C664 1.379 . S
C669 N667 1.356 . S
N670 C662 1.356 . S
N670 H676 0.984 . S
N670 H677 0.984 . S
N671 C664 1.356 . S
N671 H674 0.984 . S
N671 H675 0.985 . S
H672 N667 0.984 . S
H673 N667 0.985 . S
H674 N671 0.984 . S
H675 N671 0.985 . S
H676 N670 0.984 . S
H677 N670 0.984 . S
H678 N666 0.984 . S
H679 N666 0.985 . S
C680 C681 1.363 . S
C680 C686 1.379 . S
C680 N688 1.356 1_565 S
C681 C680 1.363 . S
C681 C687 1.363 . S
C682 C683 1.363 . S
C682 C687 1.379 . S
C682 N689 1.356 . S
C683 C682 1.363 . S
C683 C686 1.363 . S
N684 C686 1.356 . S
N684 H696 0.984 . S
N684 H697 0.985 . S
N685 C687 1.356 . S
N685 H690 0.984 . S
N685 H691 0.985 . S
C686 C680 1.379 . S
C686 C683 1.363 . S
C686 N684 1.356 . S
C687 C681 1.363 . S
C687 C682 1.379 . S
C687 N685 1.356 . S
N688 C680 1.356 1_545 S
N688 H694 0.984 . S
N688 H695 0.984 . S
N689 C682 1.356 . S
N689 H692 0.984 . S
N689 H693 0.985 . S
H690 N685 0.984 . S
H691 N685 0.985 . S
H692 N689 0.984 . S
H693 N689 0.985 . S
H694 N688 0.984 . S
H695 N688 0.984 . S
H696 N684 0.984 . S
H697 N684 0.985 . S
C698 C699 1.363 . S
C698 C704 1.379 . S
C698 N706 1.356 . S
C699 C698 1.363 . S
C699 C705 1.363 . S
C700 C701 1.363 . S
C700 C705 1.379 . S
C700 N707 1.356 . S
C701 C700 1.363 . S
C701 C704 1.363 . S
N702 C704 1.356 . S
N702 H714 0.984 . S
N702 H715 0.985 1_455 S
N703 C705 1.356 . S
N703 H708 0.984 . S
N703 H709 0.985 . S
C704 C698 1.379 . S
C704 C701 1.363 . S
C704 N702 1.356 . S
C705 C699 1.363 . S
C705 C700 1.379 . S
C705 N703 1.356 . S
N706 C698 1.356 . S
N706 H712 0.984 . S
N706 H713 0.984 . S
N707 C700 1.356 . S
N707 H710 0.984 . S
N707 H711 0.985 . S
H708 N703 0.984 . S
H709 N703 0.985 . S
H710 N707 0.984 . S
H711 N707 0.985 . S
H712 N706 0.984 . S
H713 N706 0.984 . S
H714 N702 0.984 . S
H715 N702 0.985 1_655 S
C716 C717 1.363 . S
C716 C722 1.379 . S
C716 N724 1.356 1_545 S
C717 C716 1.363 . S
C717 C723 1.363 . S
C718 C719 1.363 . S
C718 C723 1.379 . S
C718 N725 1.356 . S
C719 C718 1.363 . S
C719 C722 1.363 . S
N720 C722 1.356 . S
N720 H732 0.984 . S
N720 H733 0.985 . S
N721 C723 1.356 . S
N721 H726 0.984 . S
N721 H727 0.985 . S
C722 C716 1.379 . S
C722 C719 1.363 . S
C722 N720 1.356 . S
C723 C717 1.363 . S
C723 C718 1.379 . S
C723 N721 1.356 . S
N724 C716 1.356 1_565 S
N724 H730 0.984 . S
N724 H731 0.984 . S
N725 C718 1.356 . S
N725 H728 0.984 . S
N725 H729 0.985 . S
H726 N721 0.984 . S
H727 N721 0.985 . S
H728 N725 0.984 . S
H729 N725 0.985 . S
H730 N724 0.984 . S
H731 N724 0.984 . S
H732 N720 0.984 . S
H733 N720 0.985 . S
C734 C735 1.363 . S
C734 C740 1.379 . S
C734 N742 1.356 . S
C735 C734 1.363 . S
C735 C741 1.363 . S
C736 C737 1.363 . S
C736 C741 1.379 . S
C736 N743 1.356 . S
C737 C736 1.363 . S
C737 C740 1.363 . S
N738 C740 1.356 . S
N738 H750 0.984 . S
N738 H751 0.985 . S
N739 C741 1.353 1_455 S
N739 H744 0.987 . S
N739 H745 0.985 . S
C740 C734 1.379 . S
C740 C737 1.363 . S
C740 N738 1.356 . S
C741 C735 1.363 . S
C741 C736 1.379 . S
C741 N739 1.353 1_655 S
N742 C734 1.356 . S
N742 H748 0.984 . S
N742 H749 0.984 . S
N743 C736 1.356 . S
N743 H746 0.984 . S
N743 H747 0.985 . S
H744 N739 0.987 . S
H745 N739 0.985 . S
H746 N743 0.984 . S
H747 N743 0.985 . S
H748 N742 0.984 . S
H749 N742 0.984 . S
H750 N738 0.984 . S
H751 N738 0.985 . S
C752 C753 1.363 . S
C752 C758 1.379 . S
C752 N760 1.356 . S
C753 C752 1.363 . S
C753 C759 1.363 . S
C754 C755 1.363 . S
C754 C759 1.379 . S
C754 N761 1.357 1_565 S
C755 C754 1.363 . S
C755 C758 1.363 . S
N756 C758 1.356 . S
N756 H768 0.984 . S
N756 H769 0.985 1_565 S
N757 C759 1.356 . S
N757 H762 0.984 . S
N757 H763 0.985 . S
C758 C752 1.379 . S
C758 C755 1.363 . S
C758 N756 1.356 . S
C759 C753 1.363 . S
C759 C754 1.379 . S
C759 N757 1.356 . S
N760 C752 1.356 . S
N760 H766 0.984 . S
N760 H767 0.984 . S
N761 C754 1.357 1_545 S
N761 H764 0.984 . S
N761 H765 0.985 1_545 S
H762 N757 0.984 . S
H763 N757 0.985 . S
H764 N761 0.984 . S
H765 N761 0.985 1_565 S
H766 N760 0.984 . S
H767 N760 0.984 . S
H768 N756 0.984 . S
H769 N756 0.985 1_545 S
C770 C771 1.363 . S
C770 C776 1.379 . S
C770 N778 1.356 . S
C771 C770 1.363 . S
C771 C777 1.363 . S
C772 C773 1.363 . S
C772 C777 1.379 . S
C772 N779 1.356 . S
C773 C772 1.363 . S
C773 C776 1.363 . S
N774 C776 1.356 . S
N774 H786 0.984 . S
N774 H787 0.985 . S
N775 C777 1.356 . S
N775 H780 0.984 1_455 S
N775 H781 0.985 . S
C776 C770 1.379 . S
C776 C773 1.363 . S
C776 N774 1.356 . S
C777 C771 1.363 . S
C777 C772 1.379 . S
C777 N775 1.356 . S
N778 C770 1.356 . S
N778 H784 0.984 . S
N778 H785 0.984 1_455 S
N779 C772 1.356 . S
N779 H782 0.984 . S
N779 H783 0.985 . S
H780 N775 0.984 1_655 S
H781 N775 0.985 . S
H782 N779 0.984 . S
H783 N779 0.985 . S
H784 N778 0.984 . S
H785 N778 0.984 1_655 S
H786 N774 0.984 . S
H787 N774 0.985 . S
C788 C789 1.363 . S
C788 C794 1.379 . S
C788 N796 1.356 . S
C789 C788 1.363 . S
C789 C795 1.363 . S
C790 C791 1.363 . S
C790 C795 1.379 . S
C790 N797 1.356 . S
C791 C790 1.363 . S
C791 C794 1.363 . S
N792 C794 1.355 1_565 S
N792 H804 0.984 1_565 S
N792 H805 0.986 . S
N793 C795 1.356 . S
N793 H798 0.984 . S
N793 H799 0.985 . S
C794 C788 1.379 . S
C794 C791 1.363 . S
C794 N792 1.355 1_545 S
C795 C789 1.363 . S
C795 C790 1.379 . S
C795 N793 1.356 . S
N796 C788 1.356 . S
N796 H802 0.984 . S
N796 H803 0.984 . S
N797 C790 1.356 . S
N797 H800 0.984 1_545 S
N797 H801 0.985 . S
H798 N793 0.984 . S
H799 N793 0.985 . S
H800 N797 0.984 1_565 S
H801 N797 0.985 . S
H802 N796 0.984 . S
H803 N796 0.984 . S
H804 N792 0.984 1_545 S
H805 N792 0.986 . S
C806 C807 1.363 . S
C806 C812 1.379 . S
C806 N814 1.356 . S
C807 C806 1.363 . S
C807 C813 1.363 . S
C808 C809 1.363 . S
C808 C813 1.379 . S
C808 N815 1.356 . S
C809 C808 1.363 . S
C809 C812 1.363 . S
N810 C812 1.356 . S
N810 H822 0.984 . S
N810 H823 0.985 . S
N811 C813 1.349 1_455 S
N811 H816 0.993 . S
N811 H817 0.984 1_455 S
C812 C806 1.379 . S
C812 C809 1.363 . S
C812 N810 1.356 . S
C813 C807 1.363 . S
C813 C808 1.379 . S
C813 N811 1.349 1_655 S
N814 C806 1.356 . S
N814 H820 0.984 . S
N814 H821 0.984 1_655 S
N815 C808 1.356 . S
N815 H818 0.984 . S
N815 H819 0.985 . S
H816 N811 0.993 . S
H817 N811 0.984 1_655 S
H818 N815 0.984 . S
H819 N815 0.985 . S
H820 N814 0.984 . S
H821 N814 0.984 1_455 S
H822 N810 0.984 . S
H823 N810 0.985 . S
C824 C825 1.363 . S
C824 C830 1.379 . S
C824 N832 1.356 . S
C825 C824 1.363 . S
C825 C831 1.363 . S
C826 C827 1.363 . S
C826 C831 1.379 . S
C826 N833 1.349 1_545 S
C827 C826 1.363 . S
C827 C830 1.363 . S
N828 C830 1.356 . S
N828 H840 0.984 . S
N828 H841 0.985 1_545 S
N829 C831 1.356 . S
N829 H834 0.984 . S
N829 H835 0.985 . S
C830 C824 1.379 . S
C830 C827 1.363 . S
C830 N828 1.356 . S
C831 C825 1.363 . S
C831 C826 1.379 . S
C831 N829 1.356 . S
N832 C824 1.356 . S
N832 H838 0.984 . S
N832 H839 0.984 . S
N833 C826 1.349 1_565 S
N833 H836 0.993 . S
N833 H837 0.984 1_565 S
H834 N829 0.984 . S
H835 N829 0.985 . S
H836 N833 0.993 . S
H837 N833 0.984 1_545 S
H838 N832 0.984 . S
H839 N832 0.984 . S
H840 N828 0.984 . S
H841 N828 0.985 1_565 S
C842 C843 1.363 . S
C842 C848 1.379 . S
C842 N850 1.356 . S
C843 C842 1.363 . S
C843 C849 1.363 . S
C844 C845 1.363 . S
C844 C849 1.379 . S
C844 N851 1.356 . S
C845 C844 1.363 . S
C845 C848 1.363 . S
N846 C848 1.356 . S
N846 H858 0.984 . S
N846 H859 0.985 . S
N847 C849 1.356 . S
N847 H852 0.984 1_655 S
N847 H853 0.985 . S
C848 C842 1.379 . S
C848 C845 1.363 . S
C848 N846 1.356 . S
C849 C843 1.363 . S
C849 C844 1.379 . S
C849 N847 1.356 . S
N850 C842 1.356 . S
N850 H856 0.984 . S
N850 H857 0.984 1_655 S
N851 C844 1.356 . S
N851 H854 0.984 . S
N851 H855 0.985 . S
H852 N847 0.984 1_455 S
H853 N847 0.985 . S
H854 N851 0.984 . S
H855 N851 0.985 . S
H856 N850 0.984 . S
H857 N850 0.984 1_455 S
H858 N846 0.984 . S
H859 N846 0.985 . S
C860 C861 1.363 . S
C860 C866 1.379 . S
C860 N868 1.356 . S
C861 C860 1.363 . S
C861 C867 1.363 . S
C862 C863 1.363 . S
C862 C867 1.379 . S
C862 N869 1.356 . S
C863 C862 1.363 . S
C863 C866 1.363 . S
N864 C866 1.356 . S
N864 H876 0.984 . S
N864 H877 0.985 . S
N865 C867 1.356 . S
N865 H870 0.984 1_565 S
N865 H871 0.985 . S
C866 C860 1.379 . S
C866 C863 1.363 . S
C866 N864 1.356 . S
C867 C861 1.363 . S
C867 C862 1.379 . S
C867 N865 1.356 . S
N868 C860 1.356 . S
N868 H874 0.984 . S
N868 H875 0.984 1_565 S
N869 C862 1.356 . S
N869 H872 0.984 . S
N869 H873 0.985 . S
H870 N865 0.984 1_545 S
H871 N865 0.985 . S
H872 N869 0.984 . S
H873 N869 0.985 . S
H874 N868 0.984 . S
H875 N868 0.984 1_545 S
H876 N864 0.984 . S
H877 N864 0.985 . S
C878 C879 1.363 . S
C878 C884 1.379 . S
C878 N886 1.356 . S
C879 C878 1.363 . S
C879 C885 1.363 . S
C880 C881 1.363 . S
C880 C885 1.379 . S
C880 N887 1.356 . S
C881 C880 1.363 . S
C881 C884 1.363 . S
N882 C884 1.356 . S
N882 H894 0.984 . S
N882 H895 0.985 . S
N883 C885 1.356 . S
N883 H888 0.984 1_455 S
N883 H889 0.985 . S
C884 C878 1.379 . S
C884 C881 1.363 . S
C884 N882 1.356 . S
C885 C879 1.363 . S
C885 C880 1.379 . S
C885 N883 1.356 . S
N886 C878 1.356 . S
N886 H892 0.984 . S
N886 H893 0.984 1_455 S
N887 C880 1.356 . S
N887 H890 0.984 . S
N887 H891 0.985 . S
H888 N883 0.984 1_655 S
H889 N883 0.985 . S
H890 N887 0.984 . S
H891 N887 0.985 . S
H892 N886 0.984 . S
H893 N886 0.984 1_655 S
H894 N882 0.984 . S
H895 N882 0.985 . S
C896 C897 1.363 . S
C896 C902 1.379 . S
C896 N904 1.356 . S
C897 C896 1.363 . S
C897 C903 1.363 . S
C898 C899 1.363 . S
C898 C903 1.379 . S
C898 N905 1.356 . S
C899 C898 1.363 . S
C899 C902 1.363 . S
N900 C902 1.356 . S
N900 H912 0.984 . S
N900 H913 0.985 . S
N901 C903 1.356 . S
N901 H906 0.984 . S
N901 H907 0.985 . S
C902 C896 1.379 . S
C902 C899 1.363 . S
C902 N900 1.356 . S
C903 C897 1.363 . S
C903 C898 1.379 . S
C903 N901 1.356 . S
N904 C896 1.356 . S
N904 H910 0.984 . S
N904 H911 0.984 . S
N905 C898 1.356 . S
N905 H908 0.984 . S
N905 H909 0.985 . S
H906 N901 0.984 . S
H907 N901 0.985 . S
H908 N905 0.984 . S
H909 N905 0.985 . S
H910 N904 0.984 . S
H911 N904 0.984 . S
H912 N900 0.984 . S
H913 N900 0.985 . S
C914 C915 1.363 . S
C914 C920 1.379 . S
C914 N922 1.356 . S
C915 C914 1.363 . S
C915 C921 1.363 . S
C916 C917 1.363 . S
C916 C921 1.379 . S
C916 N923 1.356 . S
C917 C916 1.363 . S
C917 C920 1.363 . S
N918 C920 1.356 . S
N918 H930 0.984 . S
N918 H931 0.985 . S
N919 C921 1.356 . S
N919 H924 0.984 . S
N919 H925 0.985 . S
C920 C914 1.379 . S
C920 C917 1.363 . S
C920 N918 1.356 . S
C921 C915 1.363 . S
C921 C916 1.379 . S
C921 N919 1.356 . S
N922 C914 1.356 . S
N922 H928 0.984 . S
N922 H929 0.984 . S
N923 C916 1.356 . S
N923 H926 0.984 . S
N923 H927 0.985 . S
H924 N919 0.984 . S
H925 N919 0.985 . S
H926 N923 0.984 . S
H927 N923 0.985 . S
H928 N922 0.984 . S
H929 N922 0.984 . S
H930 N918 0.984 . S
H931 N918 0.985 . S
C932 C933 1.363 . S
C932 C938 1.379 . S
C932 N940 1.356 . S
C933 C932 1.363 . S
C933 C939 1.363 . S
C934 C935 1.363 . S
C934 C939 1.379 . S
C934 N941 1.356 . S
C935 C934 1.363 . S
C935 C938 1.363 . S
N936 C938 1.356 . S
N936 H948 0.984 . S
N936 H949 0.985 . S
N937 C939 1.356 . S
N937 H942 0.984 . S
N937 H943 0.985 . S
C938 C932 1.379 . S
C938 C935 1.363 . S
C938 N936 1.356 . S
C939 C933 1.363 . S
C939 C934 1.379 . S
C939 N937 1.356 . S
N940 C932 1.356 . S
N940 H946 0.984 . S
N940 H947 0.984 . S
N941 C934 1.356 . S
N941 H944 0.984 . S
N941 H945 0.985 . S
H942 N937 0.984 . S
H943 N937 0.985 . S
H944 N941 0.984 . S
H945 N941 0.985 . S
H946 N940 0.984 . S
H947 N940 0.984 . S
H948 N936 0.984 . S
H949 N936 0.985 . S
C950 C951 1.363 . S
C950 C956 1.379 . S
C950 N958 1.356 . S
C951 C950 1.363 . S
C951 C957 1.363 . S
C952 C953 1.363 . S
C952 C957 1.379 . S
C952 N959 1.356 . S
C953 C952 1.363 . S
C953 C956 1.363 . S
N954 C956 1.356 . S
N954 H966 0.984 . S
N954 H967 0.985 . S
N955 C957 1.356 . S
N955 H960 0.984 . S
N955 H961 0.985 . S
C956 C950 1.379 . S
C956 C953 1.363 . S
C956 N954 1.356 . S
C957 C951 1.363 . S
C957 C952 1.379 . S
C957 N955 1.356 . S
N958 C950 1.356 . S
N958 H964 0.984 . S
N958 H965 0.984 . S
N959 C952 1.356 . S
N959 H962 0.984 . S
N959 H963 0.985 . S
H960 N955 0.984 . S
H961 N955 0.985 . S
H962 N959 0.984 . S
H963 N959 0.985 . S
H964 N958 0.984 . S
H965 N958 0.984 . S
H966 N954 0.984 . S
H967 N954 0.985 . S
C968 C969 1.363 . S
C968 C974 1.379 . S
C968 N976 1.356 . S
C969 C968 1.363 . S
C969 C975 1.363 . S
C970 C971 1.363 . S
C970 C975 1.379 . S
C970 N977 1.356 . S
C971 C970 1.363 . S
C971 C974 1.363 . S
N972 C974 1.356 . S
N972 H984 0.984 . S
N972 H985 0.985 . S
N973 C975 1.356 . S
N973 H978 0.984 . S
N973 H979 0.985 . S
C974 C968 1.379 . S
C974 C971 1.363 . S
C974 N972 1.356 . S
C975 C969 1.363 . S
C975 C970 1.379 . S
C975 N973 1.356 . S
N976 C968 1.356 . S
N976 H982 0.984 . S
N976 H983 0.984 . S
N977 C970 1.356 . S
N977 H980 0.984 . S
N977 H981 0.985 . S
H978 N973 0.984 . S
H979 N973 0.985 . S
H980 N977 0.984 . S
H981 N977 0.985 . S
H982 N976 0.984 . S
H983 N976 0.984 . S
H984 N972 0.984 . S
H985 N972 0.985 . S
C986 C987 1.363 . S
C986 C992 1.379 . S
C986 N994 1.356 . S
C987 C986 1.363 . S
C987 C993 1.363 . S
C988 C989 1.363 . S
C988 C993 1.379 . S
C988 N995 1.356 . S
C989 C988 1.363 . S
C989 C992 1.363 . S
N990 C992 1.356 . S
N990 H1002 0.984 . S
N990 H1003 0.985 . S
N991 C993 1.356 . S
N991 H996 0.984 . S
N991 H997 0.985 . S
C992 C986 1.379 . S
C992 C989 1.363 . S
C992 N990 1.356 . S
C993 C987 1.363 . S
C993 C988 1.379 . S
C993 N991 1.356 . S
N994 C986 1.356 . S
N994 H1000 0.984 . S
N994 H1001 0.984 . S
N995 C988 1.356 . S
N995 H998 0.984 . S
N995 H999 0.985 . S
H996 N991 0.984 . S
H997 N991 0.985 . S
H998 N995 0.984 . S
H999 N995 0.985 . S
H1000 N994 0.984 . S
H1001 N994 0.984 . S
H1002 N990 0.984 . S
H1003 N990 0.985 . S
C1004 C1005 1.363 . S
C1004 C1010 1.379 . S
C1004 N1012 1.356 . S
C1005 C1004 1.363 . S
C1005 C1011 1.363 . S
C1006 C1007 1.363 . S
C1006 C1011 1.379 . S
C1006 N1013 1.356 . S
C1007 C1006 1.363 . S
C1007 C1010 1.363 . S
N1008 C1010 1.356 . S
N1008 H1020 0.984 . S
N1008 H1021 0.985 . S
N1009 C1011 1.356 . S
N1009 H1014 0.984 . S
N1009 H1015 0.985 . S
C1010 C1004 1.379 . S
C1010 C1007 1.363 . S
C1010 N1008 1.356 . S
C1011 C1005 1.363 . S
C1011 C1006 1.379 . S
C1011 N1009 1.356 . S
N1012 C1004 1.356 . S
N1012 H1018 0.984 . S
N1012 H1019 0.984 . S
N1013 C1006 1.356 . S
N1013 H1016 0.984 . S
N1013 H1017 0.985 . S
H1014 N1009 0.984 . S
H1015 N1009 0.985 . S
H1016 N1013 0.984 . S
H1017 N1013 0.985 . S
H1018 N1012 0.984 . S
H1019 N1012 0.984 . S
H1020 N1008 0.984 . S
H1021 N1008 0.985 . S
C1022 C1023 1.363 . S
C1022 C1028 1.379 . S
C1022 N1030 1.356 . S
C1023 C1022 1.363 . S
C1023 C1029 1.363 . S
C1024 C1025 1.363 . S
C1024 C1029 1.379 . S
C1024 N1031 1.356 . S
C1025 C1024 1.363 . S
C1025 C1028 1.363 . S
N1026 C1028 1.356 . S
N1026 H1038 0.984 . S
N1026 H1039 0.985 . S
N1027 C1029 1.356 . S
N1027 H1032 0.984 . S
N1027 H1033 0.985 . S
C1028 C1022 1.379 . S
C1028 C1025 1.363 . S
C1028 N1026 1.356 . S
C1029 C1023 1.363 . S
C1029 C1024 1.379 . S
C1029 N1027 1.356 . S
N1030 C1022 1.356 . S
N1030 H1036 0.984 . S
N1030 H1037 0.984 . S
N1031 C1024 1.356 . S
N1031 H1034 0.984 . S
N1031 H1035 0.985 . S
H1032 N1027 0.984 . S
H1033 N1027 0.985 . S
H1034 N1031 0.984 . S
H1035 N1031 0.985 . S
H1036 N1030 0.984 . S
H1037 N1030 0.984 . S
H1038 N1026 0.984 . S
H1039 N1026 0.985 . S
C1040 C1041 1.363 . S
C1040 C1046 1.379 . S
C1040 N1048 1.356 . S
C1041 C1040 1.363 . S
C1041 C1047 1.363 . S
C1042 C1043 1.363 . S
C1042 C1047 1.379 . S
C1042 N1049 1.356 . S
C1043 C1042 1.363 . S
C1043 C1046 1.363 . S
N1044 C1046 1.356 . S
N1044 H1056 0.984 . S
N1044 H1057 0.985 . S
N1045 C1047 1.356 . S
N1045 H1050 0.984 . S
N1045 H1051 0.985 . S
C1046 C1040 1.379 . S
C1046 C1043 1.363 . S
C1046 N1044 1.356 . S
C1047 C1041 1.363 . S
C1047 C1042 1.379 . S
C1047 N1045 1.356 . S
N1048 C1040 1.356 . S
N1048 H1054 0.984 . S
N1048 H1055 0.984 . S
N1049 C1042 1.356 . S
N1049 H1052 0.984 . S
N1049 H1053 0.985 . S
H1050 N1045 0.984 . S
H1051 N1045 0.985 . S
H1052 N1049 0.984 . S
H1053 N1049 0.985 . S
H1054 N1048 0.984 . S
H1055 N1048 0.984 . S
H1056 N1044 0.984 . S
H1057 N1044 0.985 . S
C1058 C1059 1.363 . S
C1058 C1064 1.379 . S
C1058 N1066 1.356 . S
C1059 C1058 1.363 . S
C1059 C1065 1.363 . S
C1060 C1061 1.363 . S
C1060 C1065 1.379 . S
C1060 N1067 1.356 . S
C1061 C1060 1.363 . S
C1061 C1064 1.363 . S
N1062 C1064 1.356 . S
N1062 H1074 0.984 . S
N1062 H1075 0.985 . S
N1063 C1065 1.356 . S
N1063 H1068 0.984 . S
N1063 H1069 0.985 . S
C1064 C1058 1.379 . S
C1064 C1061 1.363 . S
C1064 N1062 1.356 . S
C1065 C1059 1.363 . S
C1065 C1060 1.379 . S
C1065 N1063 1.356 . S
N1066 C1058 1.356 . S
N1066 H1072 0.984 . S
N1066 H1073 0.984 . S
N1067 C1060 1.356 . S
N1067 H1070 0.984 . S
N1067 H1071 0.985 . S
H1068 N1063 0.984 . S
H1069 N1063 0.985 . S
H1070 N1067 0.984 . S
H1071 N1067 0.985 . S
H1072 N1066 0.984 . S
H1073 N1066 0.984 . S
H1074 N1062 0.984 . S
H1075 N1062 0.985 . S
C1076 C1077 1.363 . S
C1076 C1082 1.379 . S
C1076 N1084 1.356 . S
C1077 C1076 1.363 . S
C1077 C1083 1.363 . S
C1078 C1079 1.363 . S
C1078 C1083 1.379 . S
C1078 N1085 1.356 . S
C1079 C1078 1.363 . S
C1079 C1082 1.363 . S
N1080 C1082 1.356 . S
N1080 H1092 0.984 . S
N1080 H1093 0.985 . S
N1081 C1083 1.356 . S
N1081 H1086 0.984 . S
N1081 H1087 0.985 . S
C1082 C1076 1.379 . S
C1082 C1079 1.363 . S
C1082 N1080 1.356 . S
C1083 C1077 1.363 . S
C1083 C1078 1.379 . S
C1083 N1081 1.356 . S
N1084 C1076 1.356 . S
N1084 H1090 0.984 . S
N1084 H1091 0.984 . S
N1085 C1078 1.356 . S
N1085 H1088 0.984 . S
N1085 H1089 0.985 . S
H1086 N1081 0.984 . S
H1087 N1081 0.985 . S
H1088 N1085 0.984 . S
H1089 N1085 0.985 . S
H1090 N1084 0.984 . S
H1091 N1084 0.984 . S
H1092 N1080 0.984 . S
H1093 N1080 0.985 . S
C1094 C1095 1.363 . S
C1094 C1100 1.379 . S
C1094 N1102 1.356 . S
C1095 C1094 1.363 . S
C1095 C1101 1.363 . S
C1096 C1097 1.363 . S
C1096 C1101 1.379 . S
C1096 N1103 1.356 . S
C1097 C1096 1.363 . S
C1097 C1100 1.363 . S
N1098 C1100 1.356 . S
N1098 H1110 0.984 . S
N1098 H1111 0.985 . S
N1099 C1101 1.356 . S
N1099 H1104 0.984 . S
N1099 H1105 0.985 . S
C1100 C1094 1.379 . S
C1100 C1097 1.363 . S
C1100 N1098 1.356 . S
C1101 C1095 1.363 . S
C1101 C1096 1.379 . S
C1101 N1099 1.356 . S
N1102 C1094 1.356 . S
N1102 H1108 0.984 . S
N1102 H1109 0.984 . S
N1103 C1096 1.356 . S
N1103 H1106 0.984 . S
N1103 H1107 0.985 . S
H1104 N1099 0.984 . S
H1105 N1099 0.985 . S
H1106 N1103 0.984 . S
H1107 N1103 0.985 . S
H1108 N1102 0.984 . S
H1109 N1102 0.984 . S
H1110 N1098 0.984 . S
H1111 N1098 0.985 . S
C1112 C1113 1.363 . S
C1112 C1118 1.379 . S
C1112 N1120 1.356 . S
C1113 C1112 1.363 . S
C1113 C1119 1.363 . S
C1114 C1115 1.363 . S
C1114 C1119 1.379 . S
C1114 N1121 1.356 . S
C1115 C1114 1.363 . S
C1115 C1118 1.363 . S
N1116 C1118 1.356 . S
N1116 H1128 0.984 . S
N1116 H1129 0.985 . S
N1117 C1119 1.356 . S
N1117 H1122 0.984 . S
N1117 H1123 0.985 . S
C1118 C1112 1.379 . S
C1118 C1115 1.363 . S
C1118 N1116 1.356 . S
C1119 C1113 1.363 . S
C1119 C1114 1.379 . S
C1119 N1117 1.356 . S
N1120 C1112 1.356 . S
N1120 H1126 0.984 . S
N1120 H1127 0.984 . S
N1121 C1114 1.356 . S
N1121 H1124 0.984 . S
N1121 H1125 0.985 . S
H1122 N1117 0.984 . S
H1123 N1117 0.985 . S
H1124 N1121 0.984 . S
H1125 N1121 0.985 . S
H1126 N1120 0.984 . S
H1127 N1120 0.984 . S
H1128 N1116 0.984 . S
H1129 N1116 0.985 . S
C1130 C1131 1.363 . S
C1130 C1136 1.379 . S
C1130 N1138 1.356 . S
C1131 C1130 1.363 . S
C1131 C1137 1.363 . S
C1132 C1133 1.363 . S
C1132 C1137 1.379 . S
C1132 N1139 1.356 . S
C1133 C1132 1.363 . S
C1133 C1136 1.363 . S
N1134 C1136 1.356 . S
N1134 H1146 0.984 . S
N1134 H1147 0.985 . S
N1135 C1137 1.356 . S
N1135 H1140 0.984 . S
N1135 H1141 0.985 . S
C1136 C1130 1.379 . S
C1136 C1133 1.363 . S
C1136 N1134 1.356 . S
C1137 C1131 1.363 . S
C1137 C1132 1.379 . S
C1137 N1135 1.356 . S
N1138 C1130 1.356 . S
N1138 H1144 0.984 . S
N1138 H1145 0.984 . S
N1139 C1132 1.356 . S
N1139 H1142 0.984 . S
N1139 H1143 0.985 . S
H1140 N1135 0.984 . S
H1141 N1135 0.985 . S
H1142 N1139 0.984 . S
H1143 N1139 0.985 . S
H1144 N1138 0.984 . S
H1145 N1138 0.984 . S
H1146 N1134 0.984 . S
H1147 N1134 0.985 . S
C1148 C1149 1.363 . S
C1148 C1154 1.379 . S
C1148 N1156 1.356 . S
C1149 C1148 1.363 . S
C1149 C1155 1.363 . S
C1150 C1151 1.363 . S
C1150 C1155 1.379 . S
C1150 N1157 1.356 . S
C1151 C1150 1.363 . S
C1151 C1154 1.363 . S
N1152 C1154 1.356 . S
N1152 H1164 0.984 . S
N1152 H1165 0.985 . S
N1153 C1155 1.356 . S
N1153 H1158 0.984 . S
N1153 H1159 0.985 . S
C1154 C1148 1.379 . S
C1154 C1151 1.363 . S
C1154 N1152 1.356 . S
C1155 C1149 1.363 . S
C1155 C1150 1.379 . S
C1155 N1153 1.356 . S
N1156 C1148 1.356 . S
N1156 H1162 0.984 . S
N1156 H1163 0.984 . S
N1157 C1150 1.356 . S
N1157 H1160 0.984 . S
N1157 H1161 0.985 . S
H1158 N1153 0.984 . S
H1159 N1153 0.985 . S
H1160 N1157 0.984 . S
H1161 N1157 0.985 . S
H1162 N1156 0.984 . S
H1163 N1156 0.984 . S
H1164 N1152 0.984 . S
H1165 N1152 0.985 . S
C1166 C1167 1.363 . S
C1166 C1172 1.379 . S
C1166 N1174 1.356 . S
C1167 C1166 1.363 . S
C1167 C1173 1.363 . S
C1168 C1169 1.363 . S
C1168 C1173 1.379 . S
C1168 N1175 1.356 . S
C1169 C1168 1.363 . S
C1169 C1172 1.363 . S
N1170 C1172 1.356 . S
N1170 H1182 0.984 . S
N1170 H1183 0.985 . S
N1171 C1173 1.356 . S
N1171 H1176 0.984 . S
N1171 H1177 0.985 . S
C1172 C1166 1.379 . S
C1172 C1169 1.363 . S
C1172 N1170 1.356 . S
C1173 C1167 1.363 . S
C1173 C1168 1.379 . S
C1173 N1171 1.356 . S
N1174 C1166 1.356 . S
N1174 H1180 0.984 . S
N1174 H1181 0.984 . S
N1175 C1168 1.356 . S
N1175 H1178 0.984 . S
N1175 H1179 0.985 . S
H1176 N1171 0.984 . S
H1177 N1171 0.985 . S
H1178 N1175 0.984 . S
H1179 N1175 0.985 . S
H1180 N1174 0.984 . S
H1181 N1174 0.984 . S
H1182 N1170 0.984 . S
H1183 N1170 0.985 . S
C1184 C1185 1.363 . S
C1184 C1190 1.379 . S
C1184 N1192 1.356 . S
C1185 C1184 1.363 . S
C1185 C1191 1.363 . S
C1186 C1187 1.363 . S
C1186 C1191 1.379 . S
C1186 N1193 1.356 . S
C1187 C1186 1.363 . S
C1187 C1190 1.363 . S
N1188 C1190 1.356 . S
N1188 H1200 0.984 . S
N1188 H1201 0.985 . S
N1189 C1191 1.356 . S
N1189 H1194 0.984 . S
N1189 H1195 0.985 . S
C1190 C1184 1.379 . S
C1190 C1187 1.363 . S
C1190 N1188 1.356 . S
C1191 C1185 1.363 . S
C1191 C1186 1.379 . S
C1191 N1189 1.356 . S
N1192 C1184 1.356 . S
N1192 H1198 0.984 . S
N1192 H1199 0.984 . S
N1193 C1186 1.356 . S
N1193 H1196 0.984 . S
N1193 H1197 0.985 . S
H1194 N1189 0.984 . S
H1195 N1189 0.985 . S
H1196 N1193 0.984 . S
H1197 N1193 0.985 . S
H1198 N1192 0.984 . S
H1199 N1192 0.984 . S
H1200 N1188 0.984 . S
H1201 N1188 0.985 . S
C1202 C1203 1.363 . S
C1202 C1208 1.379 . S
C1202 N1210 1.356 . S
C1203 C1202 1.363 . S
C1203 C1209 1.363 . S
C1204 C1205 1.363 . S
C1204 C1209 1.379 . S
C1204 N1211 1.356 . S
C1205 C1204 1.363 . S
C1205 C1208 1.363 . S
N1206 C1208 1.356 . S
N1206 H1218 0.984 . S
N1206 H1219 0.985 . S
N1207 C1209 1.356 . S
N1207 H1212 0.984 . S
N1207 H1213 0.985 . S
C1208 C1202 1.379 . S
C1208 C1205 1.363 . S
C1208 N1206 1.356 . S
C1209 C1203 1.363 . S
C1209 C1204 1.379 . S
C1209 N1207 1.356 . S
N1210 C1202 1.356 . S
N1210 H1216 0.984 . S
N1210 H1217 0.984 . S
N1211 C1204 1.356 . S
N1211 H1214 0.984 . S
N1211 H1215 0.985 . S
H1212 N1207 0.984 . S
H1213 N1207 0.985 . S
H1214 N1211 0.984 . S
H1215 N1211 0.985 . S
H1216 N1210 0.984 . S
H1217 N1210 0.984 . S
H1218 N1206 0.984 . S
H1219 N1206 0.985 . S
C1220 C1221 1.363 . S
C1220 C1226 1.379 . S
C1220 N1228 1.356 . S
C1221 C1220 1.363 . S
C1221 C1227 1.363 . S
C1222 C1223 1.363 . S
C1222 C1227 1.379 . S
C1222 N1229 1.356 . S
C1223 C1222 1.363 . S
C1223 C1226 1.363 . S
N1224 C1226 1.356 . S
N1224 H1236 0.984 . S
N1224 H1237 0.985 . S
N1225 C1227 1.356 . S
N1225 H1230 0.984 . S
N1225 H1231 0.985 . S
C1226 C1220 1.379 . S
C1226 C1223 1.363 . S
C1226 N1224 1.356 . S
C1227 C1221 1.363 . S
C1227 C1222 1.379 . S
C1227 N1225 1.356 . S
N1228 C1220 1.356 . S
N1228 H1234 0.984 . S
N1228 H1235 0.984 . S
N1229 C1222 1.356 . S
N1229 H1232 0.984 . S
N1229 H1233 0.985 . S
H1230 N1225 0.984 . S
H1231 N1225 0.985 . S
H1232 N1229 0.984 . S
H1233 N1229 0.985 . S
H1234 N1228 0.984 . S
H1235 N1228 0.984 . S
H1236 N1224 0.984 . S
H1237 N1224 0.985 . S
C1238 C1239 1.363 . S
C1238 C1244 1.379 . S
C1238 N1246 1.356 . S
C1239 C1238 1.363 . S
C1239 C1245 1.363 . S
C1240 C1241 1.363 . S
C1240 C1245 1.379 . S
C1240 N1247 1.356 . S
C1241 C1240 1.363 . S
C1241 C1244 1.363 . S
N1242 C1244 1.356 . S
N1242 H1254 0.984 . S
N1242 H1255 0.985 . S
N1243 C1245 1.356 . S
N1243 H1248 0.984 . S
N1243 H1249 0.985 . S
C1244 C1238 1.379 . S
C1244 C1241 1.363 . S
C1244 N1242 1.356 . S
C1245 C1239 1.363 . S
C1245 C1240 1.379 . S
C1245 N1243 1.356 . S
N1246 C1238 1.356 . S
N1246 H1252 0.984 . S
N1246 H1253 0.984 . S
N1247 C1240 1.356 . S
N1247 H1250 0.984 . S
N1247 H1251 0.985 . S
H1248 N1243 0.984 . S
H1249 N1243 0.985 . S
H1250 N1247 0.984 . S
H1251 N1247 0.985 . S
H1252 N1246 0.984 . S
H1253 N1246 0.984 . S
H1254 N1242 0.984 . S
H1255 N1242 0.985 . S
C1256 C1257 1.363 . S
C1256 C1262 1.379 . S
C1256 N1264 1.356 . S
C1257 C1256 1.363 . S
C1257 C1263 1.363 . S
C1258 C1259 1.363 . S
C1258 C1263 1.379 . S
C1258 N1265 1.356 . S
C1259 C1258 1.363 . S
C1259 C1262 1.363 . S
N1260 C1262 1.356 . S
N1260 H1272 0.984 . S
N1260 H1273 0.985 . S
N1261 C1263 1.356 . S
N1261 H1266 0.984 . S
N1261 H1267 0.985 . S
C1262 C1256 1.379 . S
C1262 C1259 1.363 . S
C1262 N1260 1.356 . S
C1263 C1257 1.363 . S
C1263 C1258 1.379 . S
C1263 N1261 1.356 . S
N1264 C1256 1.356 . S
N1264 H1270 0.984 . S
N1264 H1271 0.984 . S
N1265 C1258 1.356 . S
N1265 H1268 0.984 . S
N1265 H1269 0.985 . S
H1266 N1261 0.984 . S
H1267 N1261 0.985 . S
H1268 N1265 0.984 . S
H1269 N1265 0.985 . S
H1270 N1264 0.984 . S
H1271 N1264 0.984 . S
H1272 N1260 0.984 . S
H1273 N1260 0.985 . S
C1274 C1275 1.363 . S
C1274 C1280 1.379 . S
C1274 N1282 1.356 . S
C1275 C1274 1.363 . S
C1275 C1281 1.363 . S
C1276 C1277 1.363 . S
C1276 C1281 1.379 . S
C1276 N1283 1.356 . S
C1277 C1276 1.363 . S
C1277 C1280 1.363 . S
N1278 C1280 1.356 . S
N1278 H1290 0.984 . S
N1278 H1291 0.985 . S
N1279 C1281 1.356 . S
N1279 H1284 0.984 . S
N1279 H1285 0.985 . S
C1280 C1274 1.379 . S
C1280 C1277 1.363 . S
C1280 N1278 1.356 . S
C1281 C1275 1.363 . S
C1281 C1276 1.379 . S
C1281 N1279 1.356 . S
N1282 C1274 1.356 . S
N1282 H1288 0.984 . S
N1282 H1289 0.984 . S
N1283 C1276 1.356 . S
N1283 H1286 0.984 . S
N1283 H1287 0.985 . S
H1284 N1279 0.984 . S
H1285 N1279 0.985 . S
H1286 N1283 0.984 . S
H1287 N1283 0.985 . S
H1288 N1282 0.984 . S
H1289 N1282 0.984 . S
H1290 N1278 0.984 . S
H1291 N1278 0.985 . S
C1292 C1293 1.363 . S
C1292 C1298 1.379 . S
C1292 N1300 1.356 . S
C1293 C1292 1.363 . S
C1293 C1299 1.363 . S
C1294 C1295 1.363 . S
C1294 C1299 1.379 . S
C1294 N1301 1.356 . S
C1295 C1294 1.363 . S
C1295 C1298 1.363 . S
N1296 C1298 1.356 . S
N1296 H1308 0.984 . S
N1296 H1309 0.985 . S
N1297 C1299 1.356 . S
N1297 H1302 0.984 . S
N1297 H1303 0.985 . S
C1298 C1292 1.379 . S
C1298 C1295 1.363 . S
C1298 N1296 1.356 . S
C1299 C1293 1.363 . S
C1299 C1294 1.379 . S
C1299 N1297 1.356 . S
N1300 C1292 1.356 . S
N1300 H1306 0.984 . S
N1300 H1307 0.984 . S
N1301 C1294 1.356 . S
N1301 H1304 0.984 . S
N1301 H1305 0.985 . S
H1302 N1297 0.984 . S
H1303 N1297 0.985 . S
H1304 N1301 0.984 . S
H1305 N1301 0.985 . S
H1306 N1300 0.984 . S
H1307 N1300 0.984 . S
H1308 N1296 0.984 . S
H1309 N1296 0.985 . S
C1310 C1311 1.363 . S
C1310 C1316 1.379 . S
C1310 N1318 1.356 . S
C1311 C1310 1.363 . S
C1311 C1317 1.363 . S
C1312 C1313 1.363 . S
C1312 C1317 1.379 . S
C1312 N1319 1.356 . S
C1313 C1312 1.363 . S
C1313 C1316 1.363 . S
N1314 C1316 1.356 . S
N1314 H1326 0.984 . S
N1314 H1327 0.985 . S
N1315 C1317 1.356 . S
N1315 H1320 0.984 . S
N1315 H1321 0.985 . S
C1316 C1310 1.379 . S
C1316 C1313 1.363 . S
C1316 N1314 1.356 . S
C1317 C1311 1.363 . S
C1317 C1312 1.379 . S
C1317 N1315 1.356 . S
N1318 C1310 1.356 . S
N1318 H1324 0.984 . S
N1318 H1325 0.984 . S
N1319 C1312 1.356 . S
N1319 H1322 0.984 . S
N1319 H1323 0.985 . S
H1320 N1315 0.984 . S
H1321 N1315 0.985 . S
H1322 N1319 0.984 . S
H1323 N1319 0.985 . S
H1324 N1318 0.984 . S
H1325 N1318 0.984 . S
H1326 N1314 0.984 . S
H1327 N1314 0.985 . S
C1328 C1329 1.363 1_455 S
C1328 C1334 1.379 . S
C1328 N1336 1.356 . S
C1329 C1328 1.363 1_655 S
C1329 C1335 1.363 . S
C1330 C1331 1.363 1_655 S
C1330 C1335 1.379 . S
C1330 N1337 1.356 . S
C1331 C1330 1.363 1_455 S
C1331 C1334 1.363 . S
N1332 C1334 1.356 . S
N1332 H1344 0.984 . S
N1332 H1345 0.985 . S
N1333 C1335 1.356 . S
N1333 H1338 0.984 . S
N1333 H1339 0.985 . S
C1334 C1328 1.379 . S
C1334 C1331 1.363 . S
C1334 N1332 1.356 . S
C1335 C1329 1.363 . S
C1335 C1330 1.379 . S
C1335 N1333 1.356 . S
N1336 C1328 1.356 . S
N1336 H1342 0.984 . S
N1336 H1343 0.984 . S
N1337 C1330 1.356 . S
N1337 H1340 0.984 . S
N1337 H1341 0.985 . S
H1338 N1333 0.984 . S
H1339 N1333 0.985 . S
H1340 N1337 0.984 . S
H1341 N1337 0.985 . S
H1342 N1336 0.984 . S
H1343 N1336 0.984 . S
H1344 N1332 0.984 . S
H1345 N1332 0.985 . S
C1346 C1347 1.363 1_565 S
C1346 C1352 1.379 . S
C1346 N1354 1.356 . S
C1347 C1346 1.363 1_545 S
C1347 C1353 1.363 . S
C1348 C1349 1.363 1_545 S
C1348 C1353 1.379 . S
C1348 N1355 1.356 . S
C1349 C1348 1.363 1_565 S
C1349 C1352 1.363 . S
N1350 C1352 1.356 . S
N1350 H1362 0.984 . S
N1350 H1363 0.985 . S
N1351 C1353 1.356 . S
N1351 H1356 0.984 . S
N1351 H1357 0.985 . S
C1352 C1346 1.379 . S
C1352 C1349 1.363 . S
C1352 N1350 1.356 . S
C1353 C1347 1.363 . S
C1353 C1348 1.379 . S
C1353 N1351 1.356 . S
N1354 C1346 1.356 . S
N1354 H1360 0.984 . S
N1354 H1361 0.984 . S
N1355 C1348 1.356 . S
N1355 H1358 0.984 . S
N1355 H1359 0.985 . S
H1356 N1351 0.984 . S
H1357 N1351 0.985 . S
H1358 N1355 0.984 . S
H1359 N1355 0.985 . S
H1360 N1354 0.984 . S
H1361 N1354 0.984 . S
H1362 N1350 0.984 . S
H1363 N1350 0.985 . S
C1364 C1365 1.363 1_455 S
C1364 C1370 1.379 . S
C1364 N1372 1.356 . S
C1365 C1364 1.363 1_655 S
C1365 C1371 1.363 . S
C1366 C1367 1.363 1_655 S
C1366 C1371 1.379 . S
C1366 N1373 1.356 . S
C1367 C1366 1.363 1_455 S
C1367 C1370 1.363 . S
N1368 C1370 1.356 . S
N1368 H1380 0.984 . S
N1368 H1381 0.985 . S
N1369 C1371 1.356 . S
N1369 H1374 0.984 . S
N1369 H1375 0.985 . S
C1370 C1364 1.379 . S
C1370 C1367 1.363 . S
C1370 N1368 1.356 . S
C1371 C1365 1.363 . S
C1371 C1366 1.379 . S
C1371 N1369 1.356 . S
N1372 C1364 1.356 . S
N1372 H1378 0.984 . S
N1372 H1379 0.984 . S
N1373 C1366 1.356 . S
N1373 H1376 0.984 . S
N1373 H1377 0.985 . S
H1374 N1369 0.984 . S
H1375 N1369 0.985 . S
H1376 N1373 0.984 . S
H1377 N1373 0.985 . S
H1378 N1372 0.984 . S
H1379 N1372 0.984 . S
H1380 N1368 0.984 . S
H1381 N1368 0.985 . S
C1382 C1383 1.363 . S
C1382 C1388 1.379 . S
C1382 N1390 1.356 . S
C1383 C1382 1.363 . S
C1383 C1389 1.363 1_545 S
C1384 C1385 1.363 . S
C1384 C1389 1.379 . S
C1384 N1391 1.356 . S
C1385 C1384 1.363 . S
C1385 C1388 1.363 1_565 S
N1386 C1388 1.356 . S
N1386 H1398 0.984 . S
N1386 H1399 0.985 . S
N1387 C1389 1.356 . S
N1387 H1392 0.984 . S
N1387 H1393 0.985 . S
C1388 C1382 1.379 . S
C1388 C1385 1.363 1_545 S
C1388 N1386 1.356 . S
C1389 C1383 1.363 1_565 S
C1389 C1384 1.379 . S
C1389 N1387 1.356 . S
N1390 C1382 1.356 . S
N1390 H1396 0.984 . S
N1390 H1397 0.984 . S
N1391 C1384 1.356 . S
N1391 H1394 0.984 . S
N1391 H1395 0.985 . S
H1392 N1387 0.984 . S
H1393 N1387 0.985 . S
H1394 N1391 0.984 . S
H1395 N1391 0.985 . S
H1396 N1390 0.984 . S
H1397 N1390 0.984 . S
H1398 N1386 0.984 . S
H1399 N1386 0.985 . S
C1400 C1401 1.363 . S
C1400 C1406 1.379 1_455 S
C1400 N1408 1.356 . S
C1401 C1400 1.363 . S
C1401 C1407 1.363 . S
C1402 C1403 1.363 . S
C1402 C1407 1.379 1_655 S
C1402 N1409 1.356 . S
C1403 C1402 1.363 . S
C1403 C1406 1.363 . S
N1404 C1406 1.356 . S
N1404 H1416 0.984 . S
N1404 H1417 0.985 . S
N1405 C1407 1.356 . S
N1405 H1410 0.984 . S
N1405 H1411 0.985 . S
C1406 C1400 1.379 1_655 S
C1406 C1403 1.363 . S
C1406 N1404 1.356 . S
C1407 C1401 1.363 . S
C1407 C1402 1.379 1_455 S
C1407 N1405 1.356 . S
N1408 C1400 1.356 . S
N1408 H1414 0.984 . S
N1408 H1415 0.984 . S
N1409 C1402 1.356 . S
N1409 H1412 0.984 . S
N1409 H1413 0.985 . S
H1410 N1405 0.984 . S
H1411 N1405 0.985 . S
H1412 N1409 0.984 . S
H1413 N1409 0.985 . S
H1414 N1408 0.984 . S
H1415 N1408 0.984 . S
H1416 N1404 0.984 . S
H1417 N1404 0.985 . S
C1418 C1419 1.363 . S
C1418 C1424 1.379 1_545 S
C1418 N1426 1.356 . S
C1419 C1418 1.363 . S
C1419 C1425 1.363 . S
C1420 C1421 1.363 . S
C1420 C1425 1.379 1_565 S
C1420 N1427 1.356 . S
C1421 C1420 1.363 . S
C1421 C1424 1.363 . S
N1422 C1424 1.356 . S
N1422 H1434 0.984 . S
N1422 H1435 0.985 . S
N1423 C1425 1.356 . S
N1423 H1428 0.984 . S
N1423 H1429 0.985 . S
C1424 C1418 1.379 1_565 S
C1424 C1421 1.363 . S
C1424 N1422 1.356 . S
C1425 C1419 1.363 . S
C1425 C1420 1.379 1_545 S
C1425 N1423 1.356 . S
N1426 C1418 1.356 . S
N1426 H1432 0.984 . S
N1426 H1433 0.984 . S
N1427 C1420 1.356 . S
N1427 H1430 0.984 . S
N1427 H1431 0.985 . S
H1428 N1423 0.984 . S
H1429 N1423 0.985 . S
H1430 N1427 0.984 . S
H1431 N1427 0.985 . S
H1432 N1426 0.984 . S
H1433 N1426 0.984 . S
H1434 N1422 0.984 . S
H1435 N1422 0.985 . S
C1436 C1437 1.363 . S
C1436 C1442 1.379 1_455 S
C1436 N1444 1.356 . S
C1437 C1436 1.363 . S
C1437 C1443 1.363 . S
C1438 C1439 1.363 . S
C1438 C1443 1.379 1_655 S
C1438 N1445 1.356 . S
C1439 C1438 1.363 . S
C1439 C1442 1.363 . S
N1440 C1442 1.356 . S
N1440 H1452 0.984 . S
N1440 H1453 0.985 . S
N1441 C1443 1.356 . S
N1441 H1446 0.984 . S
N1441 H1447 0.985 . S
C1442 C1436 1.379 1_655 S
C1442 C1439 1.363 . S
C1442 N1440 1.356 . S
C1443 C1437 1.363 . S
C1443 C1438 1.379 1_455 S
C1443 N1441 1.356 . S
N1444 C1436 1.356 . S
N1444 H1450 0.984 . S
N1444 H1451 0.984 . S
N1445 C1438 1.356 . S
N1445 H1448 0.984 . S
N1445 H1449 0.985 . S
H1446 N1441 0.984 . S
H1447 N1441 0.985 . S
H1448 N1445 0.984 . S
H1449 N1445 0.985 . S
H1450 N1444 0.984 . S
H1451 N1444 0.984 . S
H1452 N1440 0.984 . S
H1453 N1440 0.985 . S
C1454 C1455 1.363 . S
C1454 C1460 1.379 1_565 S
C1454 N1462 1.356 . S
C1455 C1454 1.363 . S
C1455 C1461 1.363 . S
C1456 C1457 1.363 . S
C1456 C1461 1.379 1_545 S
C1456 N1463 1.356 . S
C1457 C1456 1.363 . S
C1457 C1460 1.363 . S
N1458 C1460 1.356 . S
N1458 H1470 0.984 . S
N1458 H1471 0.985 . S
N1459 C1461 1.356 . S
N1459 H1464 0.984 . S
N1459 H1465 0.985 . S
C1460 C1454 1.379 1_545 S
C1460 C1457 1.363 . S
C1460 N1458 1.356 . S
C1461 C1455 1.363 . S
C1461 C1456 1.379 1_565 S
C1461 N1459 1.356 . S
N1462 C1454 1.356 . S
N1462 H1468 0.984 . S
N1462 H1469 0.984 . S
N1463 C1456 1.356 . S
N1463 H1466 0.984 . S
N1463 H1467 0.985 . S
H1464 N1459 0.984 . S
H1465 N1459 0.985 . S
H1466 N1463 0.984 . S
H1467 N1463 0.985 . S
H1468 N1462 0.984 . S
H1469 N1462 0.984 . S
H1470 N1458 0.984 . S
H1471 N1458 0.985 . S
C465 C10 1.767 . S
C467 C300 1.767 . S
C483 C39 1.767 . S
C485 C329 1.767 . S
C501 C242 1.767 . S
C503 C68 1.767 . S
C519 C271 1.767 . S
C521 C97 1.767 . S
C537 C126 1.767 . S
C539 C416 1.767 . S
C555 C445 1.767 . S
C557 C155 1.767 . S
C573 C358 1.767 . S
C575 C184 1.767 . S
C591 C213 1.767 . S
C593 C387 1.767 . S
C609 C100 1.948 1_545 S
C611 C3 1.995 . S
C627 C13 1.948 1_655 S
C629 C32 1.995 . S
C645 C61 1.995 . S
C647 C42 1.948 1_565 S
C663 C90 1.995 . S
C665 C71 1.948 1_455 S
C681 C158 1.948 1_565 S
C683 C119 1.995 . S
C699 C148 1.995 . S
C701 C187 1.948 1_455 S
C717 C216 1.948 1_545 S
C719 C177 1.995 . S
C735 C129 1.948 1_655 S
C737 C206 1.995 . S
C753 C253 1.566 . S
C755 C327 1.549 1_565 S
C771 C240 1.549 1_455 S
C773 C282 1.566 . S
C789 C311 1.566 . S
C791 C269 1.549 1_545 S
C807 C298 1.549 1_655 S
C809 C340 1.566 . S
C825 C369 1.566 . S
C827 C385 1.549 1_545 S
C843 C414 1.549 1_655 S
C845 C398 1.566 . S
C861 C443 1.549 1_565 S
C863 C427 1.566 . S
C879 C356 1.549 1_455 S
C881 C456 1.566 . S
C897 C380 1.995 . S
C899 C361 1.948 . S
C915 C409 1.995 . S
C917 C390 1.948 . S
C933 C419 1.948 . S
C935 C438 1.995 . S
C951 C448 1.948 . S
C953 C351 1.995 . S
C969 C322 1.995 . S
C971 C245 1.948 . S
C987 C274 1.948 . S
C989 C235 1.995 . S
C1005 C303 1.948 . S
C1007 C264 1.995 . S
C1023 C332 1.948 . S
C1025 C293 1.995 . S
C1041 C166 1.566 . S
C1043 C124 1.549 . S
C1059 C153 1.549 . S
C1061 C195 1.566 . S
C1077 C224 1.566 . S
C1079 C182 1.549 . S
C1095 C211 1.549 . S
C1097 C137 1.566 . S
C1113 C108 1.566 . S
C1115 C8 1.549 . S
C1131 C37 1.549 . S
C1133 C21 1.566 . S
C1149 C66 1.549 . S
C1151 C50 1.566 . S
C1167 C95 1.549 . S
C1169 C79 1.566 . S
C1185 C150 1.509 . S
C1187 C5 1.509 . S
C1203 C179 1.509 . S
C1205 C34 1.509 . S
C1221 C208 1.509 . S
C1223 C63 1.509 . S
C1239 C121 1.509 . S
C1241 C92 1.509 . S
C1257 C382 1.509 . S
C1259 C237 1.509 . S
C1275 C266 1.509 . S
C1277 C411 1.509 . S
C1293 C295 1.509 . S
C1295 C440 1.509 . S
C1311 C324 1.509 . S
C1313 C353 1.509 . S
C1329 C15 1.928 1_655 S
C1331 C73 1.928 1_455 S
C1347 C102 1.928 1_545 S
C1349 C44 1.928 1_565 S
C1365 C131 1.928 1_655 S
C1367 C189 1.928 1_455 S
C1383 C218 1.928 1_545 S
C1385 C160 1.928 1_565 S
C1401 C305 1.928 . S
C1403 C247 1.928 . S
C1419 C334 1.928 . S
C1421 C276 1.928 . S
C1437 C421 1.928 . S
C1439 C363 1.928 . S
C1455 C392 1.928 . S
C1457 C450 1.928 . S
