# Generated by pormake.
# Topology upb, (4)-cn, num edge types: 1
# Building blocks:
#     Node 0, Type 0, BuildingBlock: UXUYUI_clean_sbu_0, # of connection points: 4
#     Node 1, Type 0, BuildingBlock: UXUYUI_clean_sbu_0, # of connection points: 4
#     Node 2, Type 0, BuildingBlock: UXUYUI_clean_sbu_0, # of connection points: 4
#     Node 3, Type 0, BuildingBlock: UXUYUI_clean_sbu_0, # of connection points: 4
#     Node 4, Type 0, BuildingBlock: UXUYUI_clean_sbu_0, # of connection points: 4
#     Node 5, Type 0, BuildingBlock: UXUYUI_clean_sbu_0, # of connection points: 4
#     Node 6, Type 0, BuildingBlock: UXUYUI_clean_sbu_0, # of connection points: 4
#     Node 7, Type 0, BuildingBlock: UXUYUI_clean_sbu_0, # of connection points: 4
#     Node 8, Type 0, BuildingBlock: UXUYUI_clean_sbu_0, # of connection points: 4
#     Node 9, Type 0, BuildingBlock: UXUYUI_clean_sbu_0, # of connection points: 4
#     Node 10, Type 0, BuildingBlock: UXUYUI_clean_sbu_0, # of connection points: 4
#     Node 11, Type 0, BuildingBlock: UXUYUI_clean_sbu_0, # of connection points: 4
#     Node 12, Type 0, BuildingBlock: UXUYUI_clean_sbu_0, # of connection points: 4
#     Node 13, Type 0, BuildingBlock: UXUYUI_clean_sbu_0, # of connection points: 4
#     Node 14, Type 0, BuildingBlock: UXUYUI_clean_sbu_0, # of connection points: 4
#     Node 15, Type 0, BuildingBlock: UXUYUI_clean_sbu_0, # of connection points: 4
#     Edge 16, Type (0, 0), BuildingBlock: XIVTED_clean_linker_0, # of connection points: 2
#     Edge 17, Type (0, 0), BuildingBlock: XIVTED_clean_linker_0, # of connection points: 2
#     Edge 18, Type (0, 0), BuildingBlock: XIVTED_clean_linker_0, # of connection points: 2
#     Edge 19, Type (0, 0), BuildingBlock: XIVTED_clean_linker_0, # of connection points: 2
#     Edge 20, Type (0, 0), BuildingBlock: XIVTED_clean_linker_0, # of connection points: 2
#     Edge 21, Type (0, 0), BuildingBlock: XIVTED_clean_linker_0, # of connection points: 2
#     Edge 22, Type (0, 0), BuildingBlock: XIVTED_clean_linker_0, # of connection points: 2
#     Edge 23, Type (0, 0), BuildingBlock: XIVTED_clean_linker_0, # of connection points: 2
#     Edge 24, Type (0, 0), BuildingBlock: XIVTED_clean_linker_0, # of connection points: 2
#     Edge 25, Type (0, 0), BuildingBlock: XIVTED_clean_linker_0, # of connection points: 2
#     Edge 26, Type (0, 0), BuildingBlock: XIVTED_clean_linker_0, # of connection points: 2
#     Edge 27, Type (0, 0), BuildingBlock: XIVTED_clean_linker_0, # of connection points: 2
#     Edge 28, Type (0, 0), BuildingBlock: XIVTED_clean_linker_0, # of connection points: 2
#     Edge 29, Type (0, 0), BuildingBlock: XIVTED_clean_linker_0, # of connection points: 2
#     Edge 30, Type (0, 0), BuildingBlock: XIVTED_clean_linker_0, # of connection points: 2
#     Edge 31, Type (0, 0), BuildingBlock: XIVTED_clean_linker_0, # of connection points: 2
#     Edge 32, Type (0, 0), BuildingBlock: XIVTED_clean_linker_0, # of connection points: 2
#     Edge 33, Type (0, 0), BuildingBlock: XIVTED_clean_linker_0, # of connection points: 2
#     Edge 34, Type (0, 0), BuildingBlock: XIVTED_clean_linker_0, # of connection points: 2
#     Edge 35, Type (0, 0), BuildingBlock: XIVTED_clean_linker_0, # of connection points: 2
#     Edge 36, Type (0, 0), BuildingBlock: XIVTED_clean_linker_0, # of connection points: 2
#     Edge 37, Type (0, 0), BuildingBlock: XIVTED_clean_linker_0, # of connection points: 2
#     Edge 38, Type (0, 0), BuildingBlock: XIVTED_clean_linker_0, # of connection points: 2
#     Edge 39, Type (0, 0), BuildingBlock: XIVTED_clean_linker_0, # of connection points: 2
#     Edge 40, Type (0, 0), BuildingBlock: XIVTED_clean_linker_0, # of connection points: 2
#     Edge 41, Type (0, 0), BuildingBlock: XIVTED_clean_linker_0, # of connection points: 2
#     Edge 42, Type (0, 0), BuildingBlock: XIVTED_clean_linker_0, # of connection points: 2
#     Edge 43, Type (0, 0), BuildingBlock: XIVTED_clean_linker_0, # of connection points: 2
#     Edge 44, Type (0, 0), BuildingBlock: XIVTED_clean_linker_0, # of connection points: 2
#     Edge 45, Type (0, 0), BuildingBlock: XIVTED_clean_linker_0, # of connection points: 2
#     Edge 46, Type (0, 0), BuildingBlock: XIVTED_clean_linker_0, # of connection points: 2
#     Edge 47, Type (0, 0), BuildingBlock: XIVTED_clean_linker_0, # of connection points: 2
# Relax obj value: 0.322
# Max RMSD: 0.141
# Mean RMSD: 0.140
data_MOF--net-upb--node1-UXUYUI_clean_sbu_0--edge1-XIVTED_clean_linker_0
_symmetry_space_group_name_H-M    P1
_symmetry_Int_Tables_number       1
_symmetry_cell_setting            triclinic
loop_
_symmetry_equiv_pos_as_xyz
'x, y, z'
_cell_length_a     51.598026
_cell_length_b     51.535554
_cell_length_c     72.684732
_cell_angle_alpha  89.990602
_cell_angle_beta   90.001513
_cell_angle_gamma 89.989735
loop_
_atom_site_label
_atom_site_type_symbol
_atom_site_fract_x
_atom_site_fract_y
_atom_site_fract_z
_atom_type_partial_charge
Li0 Li 0.02032 0.28606 0.34391 0.0
Li1 Li 0.99794 0.31307 0.36695 0.0
Li2 Li 0.9722 0.28771 0.34326 0.0
Li3 Li 0.99647 0.32664 0.33504 0.0
C4 C 0.99979 0.25145 0.37102 0.0
N5 N 0.00849 0.20362 0.38716 0.0
C6 C 0.01263 0.24976 0.38791 0.0
C7 C 0.99088 0.22878 0.36255 0.0
C8 C 0.01701 0.22542 0.39578 0.0
C9 C 0.99558 0.2048 0.37087 0.0
C10 C 0.0444 0.33772 0.36055 0.0
C11 C 0.05331 0.37624 0.37832 0.0
N12 N 0.07814 0.36807 0.38077 0.0
C13 C 0.07004 0.32978 0.36315 0.0
C14 C 0.03598 0.3612 0.36811 0.0
C15 C 0.08678 0.34537 0.37344 0.0
C16 C 0.05861 0.25648 0.32419 0.0
N17 N 0.05019 0.26475 0.34093 0.0
C18 C 0.08345 0.2406 0.35605 0.0
C19 C 0.06264 0.2578 0.35664 0.0
C20 C 0.09176 0.23062 0.33907 0.0
C21 C 0.07944 0.23921 0.32294 0.0
H22 H 0.04891 0.26292 0.31182 0.0
H23 H 0.05632 0.2656 0.36967 0.0
C24 C 0.97767 0.33008 0.4012 0.0
N25 N 0.99952 0.32259 0.39223 0.0
C26 C 0.97833 0.33499 0.42013 0.0
C27 C 0.02416 0.32541 0.41997 0.0
C28 C 0.02246 0.32008 0.40123 0.0
C29 C 0.00181 0.33244 0.42985 0.0
H30 H 0.95957 0.33152 0.39375 0.0
H31 H 0.03942 0.31335 0.39395 0.0
C32 C 0.99297 0.27497 0.30838 0.0
N33 N 0.98427 0.23999 0.28023 0.0
C34 C 0.9853 0.28376 0.29102 0.0
C35 C 0.9965 0.24842 0.31134 0.0
C36 C 0.98092 0.26576 0.27698 0.0
C37 C 0.99194 0.23103 0.29697 0.0
C38 C 0.95131 0.3438 0.34707 0.0
C39 C 0.93149 0.33946 0.33434 0.0
C40 C 0.95542 0.36877 0.35396 0.0
C41 C 0.91632 0.36034 0.32847 0.0
C42 C 0.93985 0.38914 0.34774 0.0
N43 N 0.9208 0.38455 0.33522 0.0
C44 C 0.93138 0.25655 0.3553 0.0
C45 C 0.93138 0.26275 0.323 0.0
C46 C 0.91036 0.23961 0.35401 0.0
N47 N 0.94177 0.26727 0.33989 0.0
C48 C 0.91044 0.24579 0.32105 0.0
C49 C 0.89989 0.2337 0.33667 0.0
H50 H 0.93991 0.26066 0.36858 0.0
H51 H 0.93943 0.27207 0.311 0.0
C52 C 0.01645 0.37334 0.32057 0.0
N53 N 0.99723 0.35555 0.31862 0.0
C54 C 0.01935 0.39328 0.30779 0.0
C55 C 0.98233 0.37658 0.29124 0.0
C56 C 0.98003 0.35702 0.30447 0.0
C57 C 0.0025 0.39479 0.29267 0.0
H58 H 0.03025 0.37153 0.33162 0.0
H59 H 0.96502 0.34253 0.30313 0.0
O60 O 0.99526 0.2752 0.36316 0.0
O61 O 0.02766 0.32251 0.35069 0.0
O62 O 0.99695 0.29233 0.32235 0.0
O63 O 0.96659 0.32368 0.35276 0.0
H64 H 0.01939 0.26703 0.39482 0.0
H65 H 0.98015 0.22961 0.34981 0.0
H66 H 0.02715 0.22387 0.40876 0.0
H67 H 0.98885 0.18713 0.36441 0.0
H68 H 0.04701 0.39438 0.38432 0.0
H69 H 0.07696 0.3118 0.35727 0.0
H70 H 0.01622 0.36763 0.36621 0.0
H71 H 0.10666 0.33943 0.37561 0.0
H72 H 0.09286 0.23508 0.36878 0.0
H73 H 0.0853 0.23206 0.30956 0.0
H74 H 0.96044 0.33988 0.42708 0.0
H75 H 0.04285 0.32366 0.42661 0.0
H76 H 0.98269 0.30424 0.28839 0.0
H77 H 0.00306 0.24136 0.32451 0.0
H78 H 0.97486 0.27229 0.2635 0.0
H79 H 0.9946 0.21043 0.2991 0.0
H80 H 0.92804 0.32024 0.32889 0.0
H81 H 0.97047 0.37237 0.364 0.0
H82 H 0.90102 0.35732 0.31852 0.0
H83 H 0.9429 0.4086 0.35288 0.0
H84 H 0.90295 0.2306 0.3664 0.0
H85 H 0.90262 0.24213 0.30746 0.0
H86 H 0.03552 0.40653 0.30923 0.0
H87 H 0.9689 0.37708 0.2798 0.0
Li88 Li 0.67389 0.99606 0.33538 0.0
Li89 Li 0.71218 0.02012 0.34284 0.0
Li90 Li 0.71302 0.9717 0.34041 0.0
Li91 Li 0.68974 0.99427 0.36661 0.0
C92 C 0.70424 0.01343 0.30561 0.0
N93 N 0.69982 0.04523 0.27516 0.0
C94 C 0.68936 0.03607 0.3065 0.0
C95 C 0.7169 0.00699 0.28925 0.0
C96 C 0.68735 0.05188 0.29096 0.0
C97 C 0.71442 0.02331 0.274 0.0
C98 C 0.67285 0.04791 0.36177 0.0
C99 C 0.6834 0.07829 0.38585 0.0
N100 N 0.66539 0.09504 0.37909 0.0
C101 C 0.65436 0.06536 0.35509 0.0
C102 C 0.68745 0.05437 0.37729 0.0
C103 C 0.65091 0.08912 0.36403 0.0
C104 C 0.62161 0.00838 0.32979 0.0
N105 N 0.64271 0.99796 0.32141 0.0
C106 C 0.62074 0.99734 0.2925 0.0
C107 C 0.64237 0.9915 0.30329 0.0
C108 C 0.59915 0.00962 0.30053 0.0
C109 C 0.59944 0.01417 0.31961 0.0
H110 H 0.6224 0.01309 0.34428 0.0
H111 H 0.65937 0.98304 0.29701 0.0
C112 C 0.75927 0.0456 0.33739 0.0
N113 N 0.73338 0.04995 0.33886 0.0
C114 C 0.77645 0.06635 0.33549 0.0
C115 C 0.73993 0.09571 0.33603 0.0
C116 C 0.72345 0.07436 0.33784 0.0
C117 C 0.76684 0.09185 0.33504 0.0
H118 H 0.76661 0.02595 0.33807 0.0
H119 H 0.70279 0.07738 0.33849 0.0
C120 C 0.65639 0.95174 0.3463 0.0
N121 N 0.61108 0.92786 0.33531 0.0
C122 C 0.63371 0.95503 0.35654 0.0
C123 C 0.65612 0.9362 0.33055 0.0
C124 C 0.61097 0.94282 0.35073 0.0
C125 C 0.63299 0.92431 0.3252 0.0
C126 C 0.74695 0.99522 0.37215 0.0
C127 C 0.75995 0.97228 0.37668 0.0
C128 C 0.75466 0.0186 0.38023 0.0
C129 C 0.7802 0.97306 0.38942 0.0
C130 C 0.77501 0.01857 0.39291 0.0
N131 N 0.78723 0.99599 0.39722 0.0
C132 C 0.75517 0.94745 0.32332 0.0
C133 C 0.73118 0.92023 0.34337 0.0
C134 C 0.77365 0.92802 0.32068 0.0
N135 N 0.73474 0.94333 0.33473 0.0
C136 C 0.74928 0.90029 0.34121 0.0
C137 C 0.77118 0.90423 0.33002 0.0
H138 H 0.75752 0.96614 0.31674 0.0
H139 H 0.71488 0.91772 0.35255 0.0
C140 C 0.65996 0.00464 0.39845 0.0
N141 N 0.68178 0.99279 0.39214 0.0
C142 C 0.65541 0.0066 0.41735 0.0
C143 C 0.69518 0.983 0.42279 0.0
C144 C 0.69885 0.98135 0.40383 0.0
C145 C 0.67353 0.99627 0.42976 0.0
H146 H 0.64656 0.01335 0.38881 0.0
H147 H 0.71562 0.9714 0.39848 0.0
O148 O 0.70659 0.99759 0.32063 0.0
O149 O 0.67655 0.0247 0.35303 0.0
O150 O 0.67864 0.9641 0.35145 0.0
O151 O 0.72711 0.99476 0.35965 0.0
H152 H 0.67935 0.04136 0.31901 0.0
H153 H 0.72852 0.98954 0.28835 0.0
H154 H 0.67586 0.06942 0.29146 0.0
H155 H 0.7241 0.01856 0.26123 0.0
H156 H 0.69456 0.08353 0.39789 0.0
H157 H 0.64294 0.06069 0.34305 0.0
H158 H 0.70157 0.04099 0.38276 0.0
H159 H 0.63674 0.10285 0.35897 0.0
H160 H 0.62164 0.99362 0.27786 0.0
H161 H 0.58308 0.023 0.32652 0.0
H162 H 0.79706 0.06249 0.33489 0.0
H163 H 0.73169 0.11501 0.33539 0.0
H164 H 0.63365 0.96712 0.36872 0.0
H165 H 0.67355 0.93359 0.32246 0.0
H166 H 0.59322 0.94529 0.35845 0.0
H167 H 0.63242 0.91234 0.31299 0.0
H168 H 0.75431 0.95402 0.37055 0.0
H169 H 0.74526 0.03664 0.37666 0.0
H170 H 0.79031 0.95543 0.39313 0.0
H171 H 0.78114 0.03652 0.39927 0.0
H172 H 0.78996 0.9318 0.3117 0.0
H173 H 0.74672 0.88247 0.34888 0.0
H174 H 0.63849 0.017 0.42219 0.0
H175 H 0.70931 0.97428 0.43192 0.0
Li176 Li 0.98369 0.71539 0.34693 0.0
Li177 Li 0.0066 0.68811 0.36926 0.0
Li178 Li 0.03034 0.71253 0.34572 0.0
Li179 Li 0.00459 0.67455 0.33784 0.0
C180 C 0.02389 0.74501 0.37317 0.0
N181 N 0.05733 0.78227 0.38674 0.0
C182 C 0.03818 0.7402 0.38915 0.0
C183 C 0.02652 0.76884 0.36414 0.0
C184 C 0.05496 0.75929 0.39579 0.0
C185 C 0.04358 0.78738 0.37119 0.0
C186 C 0.95925 0.66883 0.36748 0.0
C187 C 0.94849 0.6337 0.38803 0.0
N188 N 0.92827 0.64782 0.39467 0.0
C189 C 0.93831 0.68296 0.37444 0.0
C190 C 0.96432 0.64395 0.37424 0.0
C191 C 0.92289 0.672 0.3882 0.0
C192 C 0.93417 0.73022 0.33295 0.0
N193 N 0.95453 0.73767 0.3436 0.0
C194 C 0.93454 0.77859 0.34955 0.0
C195 C 0.95487 0.76114 0.35208 0.0
C196 C 0.91352 0.77181 0.33824 0.0
C197 C 0.91337 0.74712 0.33002 0.0
H198 H 0.93426 0.71127 0.32656 0.0
H199 H 0.97094 0.76634 0.36083 0.0
C200 C 0.02296 0.65972 0.40097 0.0
N201 N 0.0062 0.67779 0.39434 0.0
C202 C 0.0224 0.65292 0.41959 0.0
C203 C 0.98716 0.68323 0.42402 0.0
C204 C 0.98869 0.68973 0.40545 0.0
C205 C 0.00423 0.66469 0.43132 0.0
H206 H 0.0369 0.65077 0.39185 0.0
H207 H 0.97599 0.70443 0.39984 0.0
C208 C 0.99154 0.7197 0.31152 0.0
N209 N 0.96056 0.74231 0.28496 0.0
C210 C 0.97691 0.70419 0.29964 0.0
C211 C 0.99044 0.74671 0.30985 0.0
C212 C 0.96139 0.71599 0.28629 0.0
C213 C 0.97463 0.75777 0.29636 0.0
C214 C 0.04985 0.65598 0.3474 0.0
C215 C 0.07025 0.66042 0.33516 0.0
C216 C 0.0434 0.63058 0.35234 0.0
C217 C 0.08377 0.63926 0.32792 0.0
C218 C 0.05736 0.60996 0.34477 0.0
N219 N 0.07708 0.61469 0.33282 0.0
C220 C 0.08098 0.73124 0.353 0.0
C221 C 0.06168 0.74736 0.3257 0.0
C222 C 0.10197 0.74812 0.35091 0.0
N223 N 0.06107 0.73175 0.34075 0.0
C224 C 0.08221 0.76455 0.32309 0.0
C225 C 0.10238 0.76555 0.33604 0.0
H226 H 0.07999 0.71852 0.36481 0.0
H227 H 0.04583 0.74704 0.31601 0.0
C228 C 0.98269 0.62834 0.32413 0.0
N229 N 0.00197 0.64588 0.32152 0.0
C230 C 0.97855 0.60864 0.3113 0.0
C231 C 0.01468 0.62503 0.29359 0.0
C232 C 0.01805 0.64447 0.30675 0.0
C233 C 0.99435 0.60708 0.29558 0.0
H234 H 0.96985 0.63022 0.33578 0.0
H235 H 0.03297 0.65897 0.30488 0.0
O236 O 0.00778 0.72634 0.3662 0.0
O237 O 0.97482 0.67939 0.35421 0.0
O238 O 0.00658 0.70853 0.32486 0.0
O239 O 0.03611 0.6764 0.3544 0.0
H240 H 0.03655 0.72184 0.39625 0.0
H241 H 0.01588 0.77277 0.35162 0.0
H242 H 0.06622 0.75579 0.4081 0.0
H243 H 0.04599 0.80579 0.36424 0.0
H244 H 0.95231 0.61455 0.39349 0.0
H245 H 0.93413 0.70226 0.36941 0.0
H246 H 0.98056 0.63282 0.36909 0.0
H247 H 0.90669 0.68275 0.39378 0.0
H248 H 0.93519 0.79715 0.35653 0.0
H249 H 0.89761 0.7411 0.32115 0.0
H250 H 0.03591 0.63858 0.42476 0.0
H251 H 0.97321 0.69309 0.43269 0.0
H252 H 0.97732 0.68329 0.30078 0.0
H253 H 0.00127 0.75905 0.31912 0.0
H254 H 0.94991 0.70423 0.27704 0.0
H255 H 0.97344 0.77864 0.29503 0.0
H256 H 0.07543 0.67996 0.33115 0.0
H257 H 0.0276 0.62684 0.36176 0.0
H258 H 0.09953 0.64238 0.31835 0.0
H259 H 0.05248 0.59018 0.34837 0.0
H260 H 0.11704 0.74836 0.36128 0.0
H261 H 0.08203 0.77732 0.31125 0.0
H262 H 0.96231 0.59563 0.31325 0.0
H263 H 0.02742 0.62447 0.28176 0.0
Li264 Li 0.31526 0.00512 0.3678 0.0
Li265 Li 0.28971 0.02636 0.34362 0.0
Li266 Li 0.29026 0.97894 0.3465 0.0
Li267 Li 0.32819 0.00336 0.33568 0.0
C268 C 0.26754 0.00801 0.38133 0.0
N269 N 0.25012 0.01572 0.41687 0.0
C270 C 0.25844 0.03239 0.38677 0.0
C271 C 0.2676 0.98751 0.39394 0.0
C272 C 0.24971 0.03588 0.4048 0.0
C273 C 0.2588 0.99183 0.41185 0.0
C274 C 0.34794 0.04677 0.34807 0.0
C275 C 0.375 0.07202 0.3278 0.0
N276 N 0.39494 0.06969 0.33993 0.0
C277 C 0.36864 0.04473 0.36038 0.0
C278 C 0.35105 0.06064 0.33169 0.0
C279 C 0.39227 0.05643 0.356 0.0
C280 C 0.3375 0.98665 0.40088 0.0
N281 N 0.32612 0.00744 0.39268 0.0
C282 C 0.32315 0.02964 0.42141 0.0
C283 C 0.31992 0.02913 0.40236 0.0
C284 C 0.33349 0.00787 0.43039 0.0
C285 C 0.34153 0.98651 0.41987 0.0
H286 H 0.34251 0.9698 0.3928 0.0
H287 H 0.31123 0.0455 0.39539 0.0
C288 C 0.24105 0.04801 0.33925 0.0
N289 N 0.26663 0.05422 0.33886 0.0
C290 C 0.22231 0.06729 0.33754 0.0
C291 C 0.25654 0.09908 0.33462 0.0
C292 C 0.27471 0.07908 0.33641 0.0
C293 C 0.22994 0.09329 0.33554 0.0
H294 H 0.23525 0.02807 0.34137 0.0
H295 H 0.2952 0.08346 0.33635 0.0
C296 C 0.33034 0.94843 0.35315 0.0
N297 N 0.33538 0.89512 0.35102 0.0
C298 C 0.34329 0.93712 0.33828 0.0
C299 C 0.32004 0.93262 0.36697 0.0
C300 C 0.34564 0.91013 0.33746 0.0
C301 C 0.32274 0.90572 0.36562 0.0
C302 C 0.27711 0.00921 0.31105 0.0
C303 C 0.25283 0.99759 0.30891 0.0
C304 C 0.28355 0.03095 0.3005 0.0
C305 C 0.23525 0.0081 0.29633 0.0
C306 C 0.26542 0.0409 0.28808 0.0
N307 N 0.24184 0.02937 0.28628 0.0
C308 C 0.24683 0.94828 0.35391 0.0
C309 C 0.27498 0.92956 0.33182 0.0
C310 C 0.22966 0.92757 0.3522 0.0
N311 N 0.26904 0.94887 0.34387 0.0
C312 C 0.25844 0.90825 0.32983 0.0
C313 C 0.23533 0.90724 0.34001 0.0
H314 H 0.24218 0.96414 0.36302 0.0
H315 H 0.29236 0.93088 0.32357 0.0
C316 C 0.3811 0.99693 0.32741 0.0
N317 N 0.35739 0.00132 0.31988 0.0
C318 C 0.40241 0.9919 0.31614 0.0
C319 C 0.3746 0.99668 0.28958 0.0
C320 C 0.35385 0.00172 0.30137 0.0
C321 C 0.39918 0.99107 0.29695 0.0
H322 H 0.38321 0.99629 0.3422 0.0
H323 H 0.3347 0.00477 0.29577 0.0
O324 O 0.27672 0.00432 0.36386 0.0
O325 O 0.3248 0.03513 0.35198 0.0
O326 O 0.32768 0.9748 0.35416 0.0
O327 O 0.29438 0.99955 0.32357 0.0
H328 H 0.25845 0.04854 0.37727 0.0
H329 H 0.27467 0.96856 0.38998 0.0
H330 H 0.24275 0.05468 0.40922 0.0
H331 H 0.25896 0.9762 0.42179 0.0
H332 H 0.37775 0.08266 0.31512 0.0
H333 H 0.36654 0.03404 0.37311 0.0
H334 H 0.33521 0.06234 0.322 0.0
H335 H 0.4085 0.05491 0.36535 0.0
H336 H 0.31695 0.04653 0.42911 0.0
H337 H 0.34953 0.96937 0.42637 0.0
H338 H 0.20203 0.06193 0.33807 0.0
H339 H 0.26321 0.11891 0.33326 0.0
H340 H 0.35124 0.94897 0.32739 0.0
H341 H 0.30982 0.94102 0.37851 0.0
H342 H 0.35554 0.90111 0.326 0.0
H343 H 0.31473 0.89326 0.37617 0.0
H344 H 0.2475 0.98079 0.31698 0.0
H345 H 0.30222 0.04025 0.30206 0.0
H346 H 0.21633 0.99939 0.29459 0.0
H347 H 0.27006 0.05783 0.27993 0.0
H348 H 0.21208 0.92748 0.36036 0.0
H349 H 0.26329 0.89311 0.32009 0.0
H350 H 0.42102 0.98789 0.32241 0.0
H351 H 0.37104 0.99578 0.27491 0.0
Li352 Li 0.99304 0.67502 0.66278 0.0
Li353 Li 0.96908 0.71111 0.65234 0.0
Li354 Li 0.9917 0.68439 0.62999 0.0
Li355 Li 0.01639 0.71413 0.65253 0.0
C356 C 0.94203 0.66279 0.65466 0.0
N357 N 0.90052 0.63996 0.67237 0.0
C358 C 0.93386 0.67207 0.67175 0.0
C359 C 0.9291 0.64191 0.64655 0.0
C360 C 0.91283 0.66028 0.6805 0.0
C361 C 0.90814 0.63062 0.65572 0.0
C362 C 0.98923 0.7257 0.6884 0.0
C363 C 0.9954 0.76666 0.70389 0.0
N364 N 0.98228 0.75736 0.71872 0.0
C365 C 0.97607 0.71646 0.7039 0.0
C366 C 0.99923 0.75092 0.68849 0.0
C367 C 0.97265 0.7328 0.71904 0.0
C368 C 0.0085 0.65467 0.69632 0.0
N369 N 0.9959 0.64816 0.68059 0.0
C370 C 0.99235 0.60405 0.69045 0.0
C371 C 0.98759 0.62351 0.67746 0.0
C372 C 0.00554 0.61022 0.70679 0.0
C373 C 0.01343 0.63598 0.70969 0.0
H374 H 0.01544 0.67427 0.69822 0.0
H375 H 0.97795 0.61882 0.66467 0.0
C376 C 0.91639 0.7238 0.64555 0.0
N377 N 0.93795 0.73147 0.65487 0.0
C378 C 0.89385 0.73885 0.64603 0.0
C379 C 0.91605 0.7694 0.66568 0.0
C380 C 0.93813 0.75388 0.66472 0.0
C381 C 0.89354 0.76202 0.6562 0.0
H382 H 0.91685 0.70625 0.63741 0.0
H383 H 0.9556 0.76032 0.67133 0.0
C384 C 0.03673 0.65599 0.65057 0.0
N385 N 0.06299 0.61245 0.66254 0.0
C386 C 0.05621 0.65827 0.66382 0.0
C387 C 0.0307 0.63162 0.64331 0.0
C388 C 0.06923 0.636 0.66973 0.0
C389 C 0.04419 0.60982 0.64956 0.0
C390 C 0.97956 0.74492 0.62647 0.0
C391 C 0.95986 0.7432 0.61333 0.0
C392 C 0.98552 0.76895 0.63431 0.0
C393 C 0.94621 0.76557 0.6084 0.0
C394 C 0.97145 0.79087 0.629 0.0
N395 N 0.95222 0.78873 0.61628 0.0
C396 C 0.97117 0.67212 0.595 0.0
C397 C 0.01613 0.66428 0.59867 0.0
C398 C 0.97269 0.66603 0.5763 0.0
N399 N 0.99284 0.67168 0.6056 0.0
C400 C 0.01847 0.65764 0.58013 0.0
C401 C 0.99672 0.65914 0.56851 0.0
H402 H 0.9529 0.67811 0.60093 0.0
H403 H 0.03307 0.66421 0.60743 0.0
C404 C 0.05944 0.73565 0.67134 0.0
N405 N 0.04631 0.73503 0.65514 0.0
C406 C 0.08121 0.75154 0.67329 0.0
C407 C 0.07578 0.7653 0.64171 0.0
C408 C 0.0541 0.74924 0.6404 0.0
C409 C 0.08959 0.76668 0.65835 0.0
H410 H 0.05285 0.72397 0.68279 0.0
H411 H 0.04328 0.74825 0.62767 0.0
O412 O 0.96272 0.67385 0.6459 0.0
O413 O 0.9934 0.70973 0.67363 0.0
O414 O 0.02314 0.6774 0.64508 0.0
O415 O 0.99253 0.72309 0.63194 0.0
H416 H 0.94352 0.68831 0.67812 0.0
H417 H 0.93524 0.63449 0.63331 0.0
H418 H 0.90629 0.66731 0.69373 0.0
H419 H 0.89796 0.61442 0.64962 0.0
H420 H 0.00283 0.78629 0.70405 0.0
H421 H 0.96877 0.6968 0.70434 0.0
H422 H 0.00945 0.75847 0.67668 0.0
H423 H 0.96245 0.72591 0.73109 0.0
H424 H 0.98601 0.5844 0.68769 0.0
H425 H 0.02419 0.64147 0.72188 0.0
H426 H 0.87692 0.73248 0.63848 0.0
H427 H 0.91691 0.78746 0.67327 0.0
H428 H 0.06099 0.67699 0.66964 0.0
H429 H 0.01548 0.62952 0.63316 0.0
H430 H 0.08424 0.63744 0.68007 0.0
H431 H 0.03961 0.59081 0.64416 0.0
H432 H 0.95491 0.72476 0.6072 0.0
H433 H 0.00064 0.77061 0.64454 0.0
H434 H 0.93077 0.76448 0.59837 0.0
H435 H 0.97574 0.80956 0.63504 0.0
H436 H 0.95542 0.66782 0.56794 0.0
H437 H 0.03728 0.65192 0.57492 0.0
H438 H 0.09147 0.75181 0.68629 0.0
H439 H 0.08136 0.77687 0.62992 0.0
Li440 Li 0.28396 0.02026 0.65122 0.0
Li441 Li 0.32213 0.99799 0.66127 0.0
Li442 Li 0.30863 0.99403 0.62978 0.0
Li443 Li 0.28452 0.97116 0.65513 0.0
C444 C 0.32096 0.05202 0.64195 0.0
N445 N 0.32183 0.10563 0.64108 0.0
C446 C 0.33145 0.06597 0.65667 0.0
C447 C 0.31096 0.06535 0.62678 0.0
C448 C 0.33174 0.09306 0.65596 0.0
C449 C 0.31153 0.09245 0.62661 0.0
C450 C 0.29184 0.99879 0.69246 0.0
C451 C 0.29144 0.97642 0.72161 0.0
N452 N 0.29968 0.99848 0.73006 0.0
C453 C 0.30022 0.02125 0.70144 0.0
C454 C 0.28736 0.97618 0.70261 0.0
C455 C 0.30413 0.02069 0.72045 0.0
C456 C 0.24117 0.05161 0.64183 0.0
N457 N 0.26195 0.05013 0.65327 0.0
C458 C 0.25143 0.09142 0.66636 0.0
C459 C 0.26708 0.06932 0.66559 0.0
C460 C 0.23016 0.09371 0.65441 0.0
C461 C 0.22501 0.07332 0.64212 0.0
H462 H 0.23704 0.03591 0.63247 0.0
H463 H 0.28351 0.06771 0.67468 0.0
C464 C 0.37283 0.01406 0.66682 0.0
N465 N 0.35329 0.00139 0.67556 0.0
C466 C 0.39516 0.02114 0.67635 0.0
C467 C 0.37791 0.00012 0.7034 0.0
C468 C 0.3561 0.99302 0.6932 0.0
C469 C 0.39737 0.01533 0.69518 0.0
H470 H 0.37061 0.01959 0.65255 0.0
H471 H 0.34109 0.98166 0.69963 0.0
C472 C 0.25973 0.98796 0.61775 0.0
N473 N 0.23922 0.97738 0.58343 0.0
C474 C 0.24894 0.96363 0.61406 0.0
C475 C 0.25986 0.00699 0.60403 0.0
C476 C 0.2387 0.95866 0.59662 0.0
C477 C 0.24949 0.00123 0.58675 0.0
C478 C 0.34186 0.95339 0.65232 0.0
C479 C 0.36533 0.95676 0.64304 0.0
C480 C 0.34101 0.9384 0.66833 0.0
C481 C 0.38772 0.94516 0.65005 0.0
C482 C 0.36383 0.92711 0.67489 0.0
N483 N 0.38652 0.93072 0.6657 0.0
C484 C 0.33343 0.01052 0.59724 0.0
C485 C 0.31149 0.97024 0.5948 0.0
C486 C 0.33865 0.01047 0.5784 0.0
N487 N 0.31937 0.991 0.60489 0.0
C488 C 0.31583 0.96963 0.57586 0.0
C489 C 0.3291 0.99022 0.56744 0.0
H490 H 0.33991 0.02653 0.60566 0.0
H491 H 0.30088 0.95469 0.60135 0.0
C492 C 0.24029 0.94575 0.66831 0.0
N493 N 0.264 0.94189 0.66067 0.0
C494 C 0.22327 0.92495 0.67058 0.0
C495 C 0.25568 0.89655 0.65743 0.0
C496 C 0.27209 0.91791 0.65545 0.0
C497 C 0.23072 0.90001 0.6648 0.0
H498 H 0.23433 0.96516 0.67207 0.0
H499 H 0.29097 0.91554 0.6492 0.0
O500 O 0.32023 0.02547 0.64246 0.0
O501 O 0.28757 0.99898 0.6739 0.0
O502 O 0.27022 0.99306 0.63467 0.0
O503 O 0.3199 0.96518 0.64598 0.0
H504 H 0.33888 0.05607 0.66868 0.0
H505 H 0.30265 0.0549 0.61531 0.0
H506 H 0.33968 0.1041 0.66729 0.0
H507 H 0.30374 0.103 0.61499 0.0
H508 H 0.2881 0.95906 0.72963 0.0
H509 H 0.30416 0.03878 0.69379 0.0
H510 H 0.28091 0.95861 0.69589 0.0
H511 H 0.31079 0.03787 0.72756 0.0
H512 H 0.25623 0.10672 0.67598 0.0
H513 H 0.20849 0.07397 0.63295 0.0
H514 H 0.41005 0.03196 0.66919 0.0
H515 H 0.37872 0.99494 0.71782 0.0
H516 H 0.24859 0.94868 0.62449 0.0
H517 H 0.26817 0.02589 0.60663 0.0
H518 H 0.23039 0.93988 0.59355 0.0
H519 H 0.24968 0.0157 0.57597 0.0
H520 H 0.36625 0.96843 0.63067 0.0
H521 H 0.32298 0.93581 0.67573 0.0
H522 H 0.40608 0.9477 0.64309 0.0
H523 H 0.36352 0.91559 0.68733 0.0
H524 H 0.34896 0.02667 0.57234 0.0
H525 H 0.30844 0.95356 0.56782 0.0
H526 H 0.2041 0.92857 0.67608 0.0
H527 H 0.26228 0.87763 0.65294 0.0
Li528 Li 0.0017 0.32875 0.66122 0.0
Li529 Li 0.02872 0.29194 0.6525 0.0
Li530 Li 0.0032 0.31594 0.62962 0.0
Li531 Li 0.98211 0.28727 0.65212 0.0
C532 C 0.0458 0.34936 0.65095 0.0
N533 N 0.07178 0.39168 0.66518 0.0
C534 C 0.06649 0.34572 0.66308 0.0
C535 C 0.03842 0.37448 0.64594 0.0
C536 C 0.07938 0.36739 0.67014 0.0
C537 C 0.05176 0.39564 0.65333 0.0
C538 C 0.99223 0.28246 0.68763 0.0
C539 C 0.97818 0.24333 0.70288 0.0
N540 N 0.965 0.25791 0.71536 0.0
C541 C 0.97855 0.29705 0.70061 0.0
C542 C 0.9921 0.25537 0.68878 0.0
C543 C 0.96492 0.28427 0.71453 0.0
C544 C 0.97797 0.37376 0.675 0.0
N545 N 0.99819 0.3573 0.67759 0.0
C546 C 0.01037 0.3795 0.70512 0.0
C547 C 0.01449 0.3599 0.69217 0.0
C548 C 0.98913 0.39637 0.7031 0.0
C549 C 0.9731 0.39354 0.6876 0.0
H550 H 0.96503 0.37096 0.6635 0.0
H551 H 0.0302 0.34627 0.69402 0.0
C552 C 0.07946 0.2762 0.64346 0.0
N553 N 0.06034 0.27363 0.65619 0.0
C554 C 0.10115 0.26002 0.64405 0.0
C555 C 0.08377 0.23997 0.67147 0.0
C556 C 0.06241 0.25652 0.67033 0.0
C557 C 0.10319 0.24115 0.65794 0.0
H558 H 0.07732 0.2901 0.63241 0.0
H559 H 0.04702 0.255 0.68032 0.0
C560 C 0.95489 0.33303 0.63249 0.0
N561 N 0.92145 0.35312 0.60645 0.0
C562 C 0.93368 0.31846 0.62648 0.0
C563 C 0.95898 0.3579 0.62538 0.0
C564 C 0.91701 0.32895 0.61328 0.0
C565 C 0.9419 0.36767 0.61217 0.0
C566 C 0.02199 0.25945 0.62498 0.0
C567 C 0.03622 0.26486 0.60907 0.0
C568 C 0.02465 0.23532 0.63356 0.0
C569 C 0.05306 0.24606 0.60209 0.0
C570 C 0.04177 0.21707 0.62618 0.0
N571 N 0.0555 0.22278 0.61073 0.0
C572 C 0.01999 0.34301 0.59767 0.0
C573 C 0.98387 0.31509 0.59368 0.0
C574 C 0.0201 0.34886 0.57889 0.0
N575 N 0.00209 0.3263 0.60459 0.0
C576 C 0.98291 0.32084 0.57496 0.0
C577 C 0.00139 0.33764 0.56734 0.0
H578 H 0.03454 0.35124 0.60663 0.0
H579 H 0.97039 0.30127 0.59948 0.0
C580 C 0.93516 0.26748 0.66796 0.0
N581 N 0.95411 0.26355 0.65525 0.0
C582 C 0.9154 0.24918 0.67022 0.0
C583 C 0.9343 0.22398 0.6456 0.0
C584 C 0.95376 0.24257 0.64396 0.0
C585 C 0.91494 0.22689 0.65905 0.0
H586 H 0.93555 0.28467 0.67648 0.0
H587 H 0.96855 0.24029 0.63358 0.0
O588 O 0.03269 0.32843 0.64413 0.0
O589 O 0.00562 0.29461 0.67385 0.0
O590 O 0.97159 0.32298 0.64526 0.0
O591 O 0.00594 0.27786 0.63234 0.0
H592 H 0.07239 0.32639 0.66713 0.0
H593 H 0.02241 0.37759 0.63658 0.0
H594 H 0.09536 0.36489 0.67961 0.0
H595 H 0.04617 0.4152 0.64967 0.0
H596 H 0.97776 0.22239 0.70385 0.0
H597 H 0.97829 0.318 0.69991 0.0
H598 H 0.00224 0.24374 0.6787 0.0
H599 H 0.9542 0.29532 0.72464 0.0
H600 H 0.02332 0.38105 0.71679 0.0
H601 H 0.95617 0.40566 0.68565 0.0
H602 H 0.11586 0.26187 0.63351 0.0
H603 H 0.08441 0.22562 0.68234 0.0
H604 H 0.9302 0.29919 0.63185 0.0
H605 H 0.97537 0.36939 0.62983 0.0
H606 H 0.90057 0.31785 0.60844 0.0
H607 H 0.94493 0.38681 0.60645 0.0
H608 H 0.03452 0.28347 0.6023 0.0
H609 H 0.01393 0.23088 0.64596 0.0
H610 H 0.0643 0.25003 0.58984 0.0
H611 H 0.0442 0.19841 0.63278 0.0
H612 H 0.03476 0.36177 0.57341 0.0
H613 H 0.96853 0.31142 0.56639 0.0
H614 H 0.90095 0.25226 0.68079 0.0
H615 H 0.93435 0.20761 0.63627 0.0
Li616 Li 0.71416 0.02557 0.65257 0.0
Li617 Li 0.68635 0.00677 0.62866 0.0
Li618 Li 0.67508 0.00358 0.66109 0.0
Li619 Li 0.7112 0.97846 0.6483 0.0
C620 C 0.65676 0.04878 0.65056 0.0
N621 N 0.61173 0.07396 0.66072 0.0
C622 C 0.63512 0.04822 0.63901 0.0
C623 C 0.65561 0.06232 0.66719 0.0
C624 C 0.61251 0.06104 0.64441 0.0
C625 C 0.63263 0.07486 0.67212 0.0
C626 C 0.73287 0.01022 0.61375 0.0
C627 C 0.73786 0.9986 0.58178 0.0
N628 N 0.74717 0.02276 0.57819 0.0
C629 C 0.74256 0.03492 0.60974 0.0
C630 C 0.73061 0.99186 0.59967 0.0
C631 C 0.74969 0.04087 0.59168 0.0
C632 C 0.76329 0.04577 0.65962 0.0
N633 N 0.73803 0.05264 0.65772 0.0
C634 C 0.74895 0.09757 0.6602 0.0
C635 C 0.7305 0.0779 0.65809 0.0
C636 C 0.77534 0.09107 0.662 0.0
C637 C 0.78226 0.06467 0.66207 0.0
H638 H 0.76876 0.02555 0.65886 0.0
H639 H 0.71031 0.08282 0.65619 0.0
C640 C 0.66317 0.991 0.59523 0.0
N641 N 0.67402 0.01136 0.60426 0.0
C642 C 0.65856 0.99253 0.57634 0.0
C643 C 0.67483 0.03653 0.57671 0.0
C644 C 0.67896 0.0342 0.59561 0.0
C645 C 0.66526 0.01522 0.56675 0.0
H646 H 0.65922 0.97317 0.6025 0.0
H647 H 0.68743 0.05012 0.60322 0.0
C648 C 0.72687 0.00553 0.68488 0.0
N649 N 0.76246 0.02157 0.71089 0.0
C650 C 0.75019 0.99208 0.68708 0.0
C651 C 0.72156 0.02702 0.69599 0.0
C652 C 0.76795 0.00052 0.7003 0.0
C653 C 0.73984 0.03487 0.70903 0.0
C654 C 0.67038 0.94986 0.6426 0.0
C655 C 0.65881 0.93835 0.65796 0.0
C656 C 0.67946 0.93424 0.62826 0.0
C657 C 0.65657 0.91136 0.65872 0.0
C658 C 0.67692 0.90731 0.62956 0.0
N659 N 0.66562 0.89653 0.64464 0.0
C660 C 0.62248 0.99953 0.67123 0.0
C661 C 0.65206 0.99971 0.69618 0.0
C662 C 0.60187 0.99443 0.68313 0.0
N663 N 0.64699 0.00173 0.6779 0.0
C664 C 0.63208 0.99443 0.70855 0.0
C665 C 0.60663 0.9911 0.70203 0.0
H666 H 0.61911 0.00065 0.65657 0.0
H667 H 0.6718 0.00093 0.70106 0.0
C668 C 0.74838 0.94212 0.63645 0.0
N669 N 0.73037 0.94691 0.64964 0.0
C670 C 0.76299 0.91938 0.63692 0.0
C671 C 0.74058 0.907 0.66478 0.0
C672 C 0.7263 0.93 0.66371 0.0
C673 C 0.75922 0.90146 0.65123 0.0
H674 H 0.75168 0.95612 0.62566 0.0
H675 H 0.71203 0.93447 0.67415 0.0
O676 O 0.67894 0.03605 0.64564 0.0
O677 O 0.72522 0.0042 0.63127 0.0
O678 O 0.70937 0.99776 0.67187 0.0
O679 O 0.67319 0.97624 0.64173 0.0
H680 H 0.6357 0.03779 0.62609 0.0
H681 H 0.67222 0.06297 0.67626 0.0
H682 H 0.59555 0.06067 0.63566 0.0
H683 H 0.63139 0.08529 0.685 0.0
H684 H 0.73593 0.98467 0.57073 0.0
H685 H 0.74432 0.04945 0.62039 0.0
H686 H 0.7228 0.97277 0.60244 0.0
H687 H 0.7571 0.05994 0.58837 0.0
H688 H 0.74267 0.1176 0.65976 0.0
H689 H 0.8022 0.05858 0.66376 0.0
H690 H 0.65127 0.97562 0.56918 0.0
H691 H 0.67992 0.05448 0.56985 0.0
H692 H 0.75465 0.97546 0.67857 0.0
H693 H 0.70362 0.03766 0.69444 0.0
H694 H 0.78613 0.99037 0.7021 0.0
H695 H 0.73606 0.05156 0.71764 0.0
H696 H 0.65184 0.95006 0.66926 0.0
H697 H 0.68882 0.94276 0.61639 0.0
H698 H 0.64773 0.90219 0.67055 0.0
H699 H 0.68404 0.89499 0.61863 0.0
H700 H 0.58257 0.99226 0.67749 0.0
H701 H 0.63683 0.99153 0.72292 0.0
H702 H 0.77755 0.91618 0.62643 0.0
H703 H 0.73702 0.89368 0.67602 0.0
Li704 Li 0.51425 0.7859 0.84771 0.0
Li705 Li 0.49056 0.8163 0.86917 0.0
Li706 Li 0.46711 0.78736 0.84605 0.0
Li707 Li 0.49187 0.82387 0.83642 0.0
C708 C 0.4994 0.75768 0.87741 0.0
N709 N 0.52172 0.71765 0.89714 0.0
C710 C 0.51276 0.76287 0.89373 0.0
C711 C 0.49709 0.73209 0.87126 0.0
C712 C 0.52398 0.74238 0.90347 0.0
C713 C 0.5086 0.71213 0.88139 0.0
C714 C 0.53828 0.83997 0.84654 0.0
C715 C 0.5541 0.88376 0.84334 0.0
N716 N 0.57045 0.87572 0.82981 0.0
C717 C 0.55533 0.8321 0.83268 0.0
C718 C 0.53769 0.86597 0.85199 0.0
C719 C 0.57142 0.85048 0.82437 0.0
C720 C 0.54942 0.75052 0.83081 0.0
N721 N 0.54427 0.76447 0.84625 0.0
C722 C 0.58173 0.74713 0.86116 0.0
C723 C 0.56031 0.76366 0.86107 0.0
C724 C 0.58699 0.7317 0.84568 0.0
C725 C 0.57078 0.73388 0.83023 0.0
H726 H 0.53691 0.75216 0.81896 0.0
H727 H 0.55632 0.77571 0.8729 0.0
C728 C 0.46994 0.82212 0.90448 0.0
N729 N 0.49008 0.82905 0.89352 0.0
C730 C 0.47047 0.82787 0.92325 0.0
C731 C 0.51205 0.84861 0.91889 0.0
C732 C 0.51079 0.84229 0.90023 0.0
C733 C 0.49197 0.84089 0.93077 0.0
H734 H 0.45397 0.81117 0.89877 0.0
H735 H 0.52676 0.84709 0.89123 0.0
C736 C 0.48256 0.77227 0.81263 0.0
N737 N 0.4616 0.73865 0.787 0.0
C738 C 0.47107 0.78195 0.79661 0.0
C739 C 0.48343 0.74548 0.81556 0.0
C740 C 0.4606 0.76464 0.78382 0.0
C741 C 0.4727 0.72881 0.80247 0.0
C742 C 0.44542 0.84347 0.84596 0.0
C743 C 0.43484 0.84124 0.82834 0.0
C744 C 0.4402 0.86547 0.85656 0.0
C745 C 0.41935 0.86128 0.82151 0.0
C746 C 0.42458 0.88507 0.84925 0.0
N747 N 0.41459 0.8826 0.83202 0.0
C748 C 0.43064 0.75071 0.85785 0.0
C749 C 0.42229 0.76632 0.82776 0.0
C750 C 0.40987 0.73345 0.8566 0.0
N751 N 0.43678 0.76632 0.8434 0.0
C752 C 0.40175 0.74891 0.82574 0.0
C753 C 0.39554 0.73209 0.84024 0.0
H754 H 0.4421 0.7514 0.87028 0.0
H755 H 0.42687 0.77947 0.8167 0.0
C756 C 0.5059 0.84403 0.80224 0.0
N757 N 0.49553 0.8511 0.81867 0.0
C758 C 0.51172 0.8627 0.78902 0.0
C759 C 0.49641 0.89583 0.80988 0.0
C760 C 0.49074 0.87643 0.82271 0.0
C761 C 0.5072 0.88902 0.79281 0.0
H762 H 0.51066 0.82393 0.79969 0.0
H763 H 0.4835 0.88173 0.83613 0.0
O764 O 0.48855 0.77753 0.86754 0.0
O765 O 0.52179 0.8224 0.8544 0.0
O766 O 0.49282 0.78891 0.82538 0.0
O767 O 0.46072 0.82415 0.85287 0.0
H768 H 0.51478 0.78253 0.89871 0.0
H769 H 0.48647 0.72765 0.85884 0.0
H770 H 0.53454 0.74615 0.91605 0.0
H771 H 0.50706 0.69225 0.87674 0.0
H772 H 0.5537 0.90399 0.84729 0.0
H773 H 0.55586 0.81208 0.82821 0.0
H774 H 0.52436 0.87244 0.86253 0.0
H775 H 0.58458 0.84471 0.81354 0.0
H776 H 0.59407 0.74646 0.87321 0.0
H777 H 0.57416 0.72235 0.818 0.0
H778 H 0.45476 0.82109 0.93187 0.0
H779 H 0.52886 0.85892 0.924 0.0
H780 H 0.46981 0.80261 0.79418 0.0
H781 H 0.49225 0.73764 0.82784 0.0
H782 H 0.45154 0.77187 0.77142 0.0
H783 H 0.47318 0.70804 0.80462 0.0
H784 H 0.43888 0.82441 0.81994 0.0
H785 H 0.44825 0.8674 0.87026 0.0
H786 H 0.41118 0.85992 0.80784 0.0
H787 H 0.42043 0.90226 0.85726 0.0
H788 H 0.40557 0.72072 0.86806 0.0
H789 H 0.39084 0.74857 0.81301 0.0
H790 H 0.52073 0.85663 0.77627 0.0
H791 H 0.4928 0.91593 0.8134 0.0
Li792 Li 0.17346 0.49153 0.83534 0.0
Li793 Li 0.21246 0.51581 0.84485 0.0
Li794 Li 0.21164 0.46812 0.84357 0.0
Li795 Li 0.18748 0.49149 0.86749 0.0
C796 C 0.22328 0.48286 0.81004 0.0
N797 N 0.2564 0.46015 0.78491 0.0
C798 C 0.24766 0.49369 0.80673 0.0
C799 C 0.21562 0.46063 0.80046 0.0
C800 C 0.26415 0.48189 0.79398 0.0
C801 C 0.23269 0.44939 0.78785 0.0
C802 C 0.17197 0.54734 0.85226 0.0
C803 C 0.17969 0.59007 0.86465 0.0
N804 N 0.16516 0.60049 0.85089 0.0
C805 C 0.15708 0.55847 0.83826 0.0
C806 C 0.18331 0.56324 0.8656 0.0
C807 C 0.15386 0.58539 0.83781 0.0
C808 C 0.12027 0.49772 0.82717 0.0
N809 N 0.14406 0.49366 0.81969 0.0
C810 C 0.12721 0.49977 0.7894 0.0
C811 C 0.14779 0.49409 0.80119 0.0
C812 C 0.10256 0.50513 0.79674 0.0
C813 C 0.09909 0.50328 0.81589 0.0
H814 H 0.11799 0.49783 0.84196 0.0
H815 H 0.16702 0.49133 0.79564 0.0
C816 C 0.25807 0.54451 0.8489 0.0
N817 N 0.23409 0.54535 0.84116 0.0
C818 C 0.27495 0.56548 0.84709 0.0
C819 C 0.24223 0.58789 0.82934 0.0
C820 C 0.2262 0.56617 0.8311 0.0
C821 C 0.2669 0.5876 0.83744 0.0
H822 H 0.2641 0.5275 0.85647 0.0
H823 H 0.20744 0.56602 0.82452 0.0
C824 C 0.153 0.44946 0.84978 0.0
N825 N 0.10524 0.42688 0.84367 0.0
C826 C 0.13306 0.45254 0.86261 0.0
C827 C 0.14875 0.43473 0.83392 0.0
C828 C 0.10903 0.44099 0.85925 0.0
C829 C 0.12443 0.42353 0.83105 0.0
C830 C 0.23604 0.48864 0.88006 0.0
C831 C 0.24438 0.46442 0.88636 0.0
C832 C 0.23795 0.5103 0.89155 0.0
C833 C 0.25428 0.46222 0.90419 0.0
C834 C 0.2479 0.50728 0.9093 0.0
N835 N 0.25577 0.4835 0.9152 0.0
C836 C 0.25923 0.44408 0.83769 0.0
C837 C 0.22409 0.41448 0.83889 0.0
C838 C 0.2768 0.42379 0.83543 0.0
N839 N 0.23348 0.43911 0.83931 0.0
C840 C 0.24105 0.39351 0.83686 0.0
C841 C 0.2678 0.39809 0.83516 0.0
H842 H 0.26615 0.46387 0.83847 0.0
H843 H 0.20352 0.41112 0.84044 0.0
C844 C 0.16504 0.5125 0.89963 0.0
N845 N 0.17708 0.49128 0.89258 0.0
C846 C 0.15972 0.51401 0.91842 0.0
C847 C 0.1782 0.47124 0.9222 0.0
C848 C 0.18298 0.4705 0.9033 0.0
C849 C 0.16687 0.49344 0.93006 0.0
H850 H 0.15992 0.52847 0.89073 0.0
H851 H 0.19216 0.45368 0.89725 0.0
O852 O 0.20707 0.49381 0.82274 0.0
O853 O 0.17538 0.52102 0.85292 0.0
O854 O 0.17655 0.46086 0.85271 0.0
O855 O 0.22586 0.49112 0.86278 0.0
H856 H 0.25388 0.5109 0.81402 0.0
H857 H 0.19682 0.452 0.8029 0.0
H858 H 0.28314 0.48997 0.79134 0.0
H859 H 0.22711 0.43207 0.78043 0.0
H860 H 0.18846 0.60261 0.87483 0.0
H861 H 0.14825 0.54653 0.82776 0.0
H862 H 0.19499 0.55498 0.87648 0.0
H863 H 0.14245 0.59427 0.82703 0.0
H864 H 0.131 0.50144 0.7748 0.0
H865 H 0.08042 0.507 0.82216 0.0
H866 H 0.29392 0.56465 0.85346 0.0
H867 H 0.23559 0.60458 0.8216 0.0
H868 H 0.13605 0.46389 0.87495 0.0
H869 H 0.164 0.43217 0.82387 0.0
H870 H 0.09337 0.4433 0.86901 0.0
H871 H 0.1208 0.41221 0.81879 0.0
H872 H 0.24295 0.44744 0.87767 0.0
H873 H 0.23166 0.52919 0.88685 0.0
H874 H 0.26067 0.44356 0.9093 0.0
H875 H 0.24933 0.52384 0.91839 0.0
H876 H 0.29729 0.42815 0.83451 0.0
H877 H 0.23337 0.37395 0.83668 0.0
H878 H 0.15037 0.53123 0.92378 0.0
H879 H 0.18419 0.45497 0.93062 0.0
Li880 Li 0.48455 0.21565 0.84706 0.0
Li881 Li 0.50911 0.18661 0.86902 0.0
Li882 Li 0.53112 0.21215 0.84665 0.0
Li883 Li 0.50728 0.17593 0.83614 0.0
C884 C 0.52114 0.24715 0.87178 0.0
N885 N 0.54808 0.29193 0.88014 0.0
C886 C 0.5412 0.24654 0.88469 0.0
C887 C 0.5146 0.27056 0.86324 0.0
C888 C 0.55465 0.26938 0.88868 0.0
C889 C 0.52848 0.29299 0.86765 0.0
C890 C 0.45595 0.16597 0.85729 0.0
C891 C 0.42941 0.12754 0.85545 0.0
N892 N 0.41022 0.1401 0.86469 0.0
C893 C 0.43595 0.17851 0.86672 0.0
C894 C 0.45266 0.14029 0.85156 0.0
C895 C 0.41299 0.16509 0.87036 0.0
C896 C 0.44349 0.23836 0.82723 0.0
N897 N 0.45482 0.23665 0.84406 0.0
C898 C 0.42347 0.26547 0.85695 0.0
C899 C 0.44537 0.2498 0.85881 0.0
C900 C 0.41137 0.26778 0.83971 0.0
C901 C 0.42165 0.254 0.8247 0.0
H902 H 0.45147 0.22759 0.81578 0.0
H903 H 0.45491 0.2481 0.87201 0.0
C904 C 0.53307 0.17465 0.90232 0.0
N905 N 0.50969 0.17467 0.89373 0.0
C906 C 0.53465 0.16988 0.92118 0.0
C907 C 0.48819 0.16382 0.92181 0.0
C908 C 0.4875 0.1689 0.90294 0.0
C909 C 0.51191 0.16501 0.93124 0.0
H910 H 0.55039 0.17935 0.89463 0.0
H911 H 0.46915 0.16929 0.89585 0.0
C912 C 0.52065 0.21129 0.80909 0.0
N913 N 0.54734 0.21051 0.77615 0.0
C914 C 0.54325 0.19651 0.80734 0.0
C915 C 0.51164 0.22567 0.7941 0.0
C916 C 0.55645 0.19637 0.79056 0.0
C917 C 0.52541 0.22503 0.77756 0.0
C918 C 0.5447 0.15021 0.85685 0.0
C919 C 0.57025 0.14173 0.85475 0.0
C920 C 0.52581 0.13289 0.86311 0.0
C921 C 0.57647 0.11599 0.85886 0.0
C922 C 0.53279 0.10731 0.86709 0.0
N923 N 0.55776 0.09945 0.86489 0.0
C924 C 0.58358 0.2258 0.85181 0.0
C925 C 0.55992 0.25429 0.83246 0.0
C926 C 0.60539 0.24176 0.85071 0.0
N927 N 0.56138 0.23251 0.84295 0.0
C928 C 0.58125 0.27078 0.83095 0.0
C929 C 0.60428 0.26478 0.84036 0.0
H930 H 0.58408 0.20839 0.86012 0.0
H931 H 0.54188 0.25928 0.82575 0.0
C932 C 0.4818 0.15502 0.80708 0.0
N933 N 0.50266 0.15007 0.81789 0.0
C934 C 0.47572 0.13863 0.79252 0.0
C935 C 0.51255 0.11188 0.80057 0.0
C936 C 0.51814 0.12909 0.81492 0.0
C937 C 0.49122 0.11678 0.78908 0.0
H938 H 0.46993 0.17191 0.80979 0.0
H939 H 0.5349 0.12577 0.82349 0.0
O940 O 0.50826 0.22487 0.86726 0.0
O941 O 0.47845 0.17891 0.85337 0.0
O942 O 0.50725 0.21171 0.82533 0.0
O943 O 0.53851 0.17539 0.8528 0.0
H944 H 0.54655 0.22856 0.89136 0.0
H945 H 0.49924 0.27131 0.85312 0.0
H946 H 0.57037 0.26916 0.89853 0.0
H947 H 0.52377 0.3112 0.86106 0.0
H948 H 0.42661 0.10765 0.85111 0.0
H949 H 0.43823 0.1983 0.87138 0.0
H950 H 0.46788 0.13026 0.84419 0.0
H951 H 0.39739 0.17454 0.87771 0.0
H952 H 0.41636 0.27604 0.8688 0.0
H953 H 0.41278 0.25511 0.81122 0.0
H954 H 0.55335 0.17073 0.92793 0.0
H955 H 0.47019 0.16042 0.92909 0.0
H956 H 0.55054 0.18523 0.81876 0.0
H957 H 0.49418 0.23721 0.79526 0.0
H958 H 0.57395 0.18501 0.789 0.0
H959 H 0.51866 0.23607 0.76584 0.0
H960 H 0.58511 0.15492 0.84992 0.0
H961 H 0.506 0.13907 0.86494 0.0
H962 H 0.59616 0.10915 0.85725 0.0
H963 H 0.51835 0.09371 0.87193 0.0
H964 H 0.62283 0.23627 0.85802 0.0
H965 H 0.57938 0.2885 0.82306 0.0
H966 H 0.4589 0.14287 0.78412 0.0
H967 H 0.52499 0.09528 0.79824 0.0
Li968 Li 0.7865 0.52857 0.84932 0.0
Li969 Li 0.81488 0.50658 0.87142 0.0
Li970 Li 0.82413 0.50626 0.83863 0.0
Li971 Li 0.78774 0.48126 0.85111 0.0
C972 C 0.84502 0.54924 0.85077 0.0
N973 N 0.89089 0.57275 0.84048 0.0
C974 C 0.86684 0.54744 0.86209 0.0
C975 C 0.84645 0.56315 0.83429 0.0
C976 C 0.88987 0.55944 0.85663 0.0
C977 C 0.86984 0.57484 0.82931 0.0
C978 C 0.76939 0.50909 0.88799 0.0
C979 C 0.76593 0.4928 0.91903 0.0
N980 N 0.75714 0.51637 0.92466 0.0
C981 C 0.76034 0.53317 0.8941 0.0
C982 C 0.77218 0.48872 0.90056 0.0
C983 C 0.75422 0.53645 0.91269 0.0
C984 C 0.73758 0.55098 0.84874 0.0
N985 N 0.76304 0.55662 0.84613 0.0
C986 C 0.753 0.60132 0.84101 0.0
C987 C 0.77105 0.58113 0.84219 0.0
C988 C 0.72663 0.59613 0.84415 0.0
C989 C 0.71898 0.57051 0.84783 0.0
H990 H 0.73183 0.53129 0.85189 0.0
H991 H 0.79145 0.58507 0.84029 0.0
C992 C 0.84241 0.48698 0.90199 0.0
N993 N 0.82925 0.50786 0.89546 0.0
C994 C 0.84974 0.4859 0.92045 0.0
C995 C 0.83094 0.52842 0.92485 0.0
C996 C 0.82436 0.52882 0.90624 0.0
C997 C 0.84323 0.50643 0.93233 0.0
H998 H 0.84656 0.47082 0.89299 0.0
H999 H 0.81416 0.54532 0.90057 0.0
C1000 C 0.77043 0.51295 0.81724 0.0
N1001 N 0.73231 0.53432 0.79528 0.0
C1002 C 0.74556 0.5022 0.81703 0.0
C1003 C 0.77596 0.53447 0.80621 0.0
C1004 C 0.72655 0.51331 0.80583 0.0
C1005 C 0.7564 0.54503 0.79523 0.0
C1006 C 0.82775 0.4507 0.85434 0.0
C1007 C 0.83722 0.44022 0.83792 0.0
C1008 C 0.81977 0.43412 0.86848 0.0
C1009 C 0.83851 0.41329 0.83591 0.0
C1010 C 0.8213 0.4073 0.86591 0.0
N1011 N 0.83056 0.39753 0.84982 0.0
C1012 C 0.87593 0.50006 0.82817 0.0
C1013 C 0.84702 0.50546 0.8031 0.0
C1014 C 0.89644 0.49511 0.81617 0.0
N1015 N 0.85179 0.50474 0.82147 0.0
C1016 C 0.86696 0.50049 0.79059 0.0
C1017 C 0.89194 0.49457 0.79711 0.0
H1018 H 0.87901 0.49913 0.84287 0.0
H1019 H 0.82752 0.50869 0.79819 0.0
C1020 C 0.74985 0.44519 0.8622 0.0
N1021 N 0.76733 0.45061 0.84878 0.0
C1022 C 0.73454 0.42297 0.86113 0.0
C1023 C 0.75495 0.41256 0.83213 0.0
C1024 C 0.76999 0.435 0.83381 0.0
C1025 C 0.73701 0.40626 0.84597 0.0
H1026 H 0.74754 0.45826 0.87367 0.0
H1027 H 0.78377 0.44002 0.82318 0.0
O1028 O 0.82243 0.53729 0.85574 0.0
O1029 O 0.77587 0.50559 0.86989 0.0
O1030 O 0.78913 0.50275 0.82844 0.0
O1031 O 0.82584 0.47701 0.85645 0.0
H1032 H 0.86607 0.53671 0.87488 0.0
H1033 H 0.82977 0.5646 0.82533 0.0
H1034 H 0.90695 0.55812 0.86521 0.0
H1035 H 0.87129 0.58551 0.81653 0.0
H1036 H 0.7682 0.47726 0.92891 0.0
H1037 H 0.75838 0.54929 0.88469 0.0
H1038 H 0.77955 0.47008 0.89616 0.0
H1039 H 0.74728 0.555 0.91761 0.0
H1040 H 0.75967 0.62086 0.83825 0.0
H1041 H 0.69881 0.56565 0.8501 0.0
H1042 H 0.85985 0.46888 0.92542 0.0
H1043 H 0.82527 0.54465 0.9334 0.0
H1044 H 0.74091 0.48565 0.82557 0.0
H1045 H 0.79506 0.54312 0.80632 0.0
H1046 H 0.70718 0.50527 0.80559 0.0
H1047 H 0.76036 0.56178 0.78672 0.0
H1048 H 0.84326 0.45269 0.82676 0.0
H1049 H 0.81215 0.44188 0.8812 0.0
H1050 H 0.84571 0.40492 0.82326 0.0
H1051 H 0.81503 0.39426 0.87669 0.0
H1052 H 0.91541 0.49089 0.8218 0.0
H1053 H 0.86247 0.49985 0.77605 0.0
H1054 H 0.72052 0.41921 0.87189 0.0
H1055 H 0.75748 0.40018 0.82022 0.0
Li1056 Li 0.47517 0.21461 0.15502 0.0
Li1057 Li 0.49754 0.17475 0.16347 0.0
Li1058 Li 0.52217 0.21385 0.15515 0.0
Li1059 Li 0.49831 0.18852 0.13207 0.0
C1060 C 0.51164 0.2194 0.1906 0.0
N1061 N 0.5403 0.2407 0.21896 0.0
C1062 C 0.52244 0.20341 0.20412 0.0
C1063 C 0.51546 0.24624 0.19151 0.0
C1064 C 0.53683 0.21455 0.21836 0.0
C1065 C 0.53002 0.25662 0.20594 0.0
C1066 C 0.45202 0.1593 0.15252 0.0
C1067 C 0.44116 0.11385 0.15399 0.0
N1068 N 0.42201 0.11937 0.16624 0.0
C1069 C 0.43218 0.16457 0.16506 0.0
C1070 C 0.45651 0.13378 0.14685 0.0
C1071 C 0.41723 0.1441 0.17186 0.0
C1072 C 0.4253 0.23402 0.14676 0.0
N1073 N 0.4457 0.23638 0.15848 0.0
C1074 C 0.42661 0.27371 0.17245 0.0
C1075 C 0.4464 0.25532 0.17146 0.0
C1076 C 0.40575 0.27237 0.16008 0.0
C1077 C 0.40492 0.25186 0.14736 0.0
H1078 H 0.42534 0.21881 0.1365 0.0
H1079 H 0.46269 0.25664 0.18071 0.0
C1080 C 0.51517 0.12662 0.17686 0.0
N1081 N 0.49746 0.14571 0.17966 0.0
C1082 C 0.51817 0.1068 0.18975 0.0
C1083 C 0.48399 0.12613 0.2079 0.0
C1084 C 0.48161 0.14558 0.19461 0.0
C1085 C 0.50294 0.10675 0.20577 0.0
H1086 H 0.52781 0.12741 0.16505 0.0
H1087 H 0.46793 0.16123 0.19661 0.0
C1088 C 0.48616 0.24682 0.12825 0.0
N1089 N 0.45709 0.28744 0.1145 0.0
C1090 C 0.47001 0.24297 0.11305 0.0
C1091 C 0.48766 0.27135 0.13638 0.0
C1092 C 0.45546 0.26377 0.10631 0.0
C1093 C 0.47275 0.29162 0.12926 0.0
C1094 C 0.54399 0.16574 0.13503 0.0
C1095 C 0.5669 0.17781 0.12936 0.0
C1096 C 0.53695 0.14186 0.1274 0.0
C1097 C 0.58227 0.16588 0.11598 0.0
C1098 C 0.55281 0.13059 0.11403 0.0
N1099 N 0.57495 0.14274 0.10864 0.0
C1100 C 0.57051 0.22819 0.17186 0.0
C1101 C 0.5573 0.25303 0.14605 0.0
C1102 C 0.59292 0.2432 0.17373 0.0
N1103 N 0.55302 0.2337 0.1584 0.0
C1104 C 0.57964 0.26814 0.14718 0.0
C1105 C 0.59767 0.2634 0.16123 0.0
H1106 H 0.56707 0.21216 0.18113 0.0
H1107 H 0.54345 0.25659 0.1352 0.0
C1108 C 0.48222 0.16398 0.09838 0.0
N1109 N 0.49969 0.17977 0.10677 0.0
C1110 C 0.48361 0.15983 0.07937 0.0
C1111 C 0.52126 0.18773 0.0783 0.0
C1112 C 0.51888 0.19164 0.09716 0.0
C1113 C 0.50321 0.17203 0.06902 0.0
H1114 H 0.46691 0.15511 0.10635 0.0
H1115 H 0.53225 0.20439 0.1042 0.0
O1116 O 0.49745 0.20885 0.17655 0.0
O1117 O 0.46716 0.17899 0.14598 0.0
O1118 O 0.49989 0.22651 0.13545 0.0
O1119 O 0.52848 0.17731 0.1479 0.0
H1120 H 0.51992 0.18261 0.2036 0.0
H1121 H 0.50777 0.25888 0.18097 0.0
H1122 H 0.54532 0.2024 0.22889 0.0
H1123 H 0.53328 0.27733 0.20673 0.0
H1124 H 0.4445 0.09398 0.14981 0.0
H1125 H 0.42855 0.18421 0.16964 0.0
H1126 H 0.47182 0.12941 0.13717 0.0
H1127 H 0.40188 0.14785 0.18164 0.0
H1128 H 0.42776 0.28902 0.18262 0.0
H1129 H 0.38926 0.25027 0.13751 0.0
H1130 H 0.53334 0.09257 0.18768 0.0
H1131 H 0.47176 0.12676 0.21999 0.0
H1132 H 0.46845 0.22407 0.10669 0.0
H1133 H 0.49993 0.27459 0.14823 0.0
H1134 H 0.44277 0.26105 0.09462 0.0
H1135 H 0.47355 0.31066 0.1355 0.0
H1136 H 0.5727 0.19626 0.13512 0.0
H1137 H 0.51923 0.13231 0.13156 0.0
H1138 H 0.59998 0.17506 0.1114 0.0
H1139 H 0.54749 0.11222 0.1079 0.0
H1140 H 0.60659 0.23882 0.18461 0.0
H1141 H 0.58264 0.2836 0.13731 0.0
H1142 H 0.46907 0.14785 0.07281 0.0
H1143 H 0.53703 0.19712 0.07108 0.0
Li1144 Li 0.78717 0.51706 0.15343 0.0
Li1145 Li 0.82677 0.49467 0.16354 0.0
Li1146 Li 0.81343 0.49353 0.13141 0.0
Li1147 Li 0.78967 0.46953 0.1553 0.0
C1148 C 0.8252 0.55026 0.14689 0.0
N1149 N 0.82695 0.60373 0.14935 0.0
C1150 C 0.8373 0.56214 0.16189 0.0
C1151 C 0.81411 0.56556 0.1331 0.0
C1152 C 0.83798 0.58921 0.16288 0.0
C1153 C 0.81513 0.59256 0.13462 0.0
C1154 C 0.77693 0.4852 0.1888 0.0
C1155 C 0.76778 0.45235 0.21152 0.0
N1156 N 0.74422 0.46337 0.21459 0.0
C1157 C 0.75269 0.49629 0.19225 0.0
C1158 C 0.78464 0.46315 0.19858 0.0
C1159 C 0.73641 0.48493 0.20533 0.0
C1160 C 0.74273 0.5465 0.1462 0.0
N1161 N 0.76455 0.54596 0.15665 0.0
C1162 C 0.75263 0.58584 0.17122 0.0
C1163 C 0.76961 0.56488 0.1692 0.0
C1164 C 0.72998 0.5869 0.16052 0.0
C1165 C 0.72511 0.56686 0.14791 0.0
H1166 H 0.73885 0.53099 0.13661 0.0
H1167 H 0.78675 0.56363 0.1777 0.0
C1168 C 0.87916 0.50447 0.17149 0.0
N1169 N 0.85608 0.49775 0.17913 0.0
C1170 C 0.90048 0.50986 0.18266 0.0
C1171 C 0.87399 0.50072 0.20933 0.0
C1172 C 0.85321 0.49541 0.19762 0.0
C1173 C 0.89788 0.50863 0.20189 0.0
H1174 H 0.88073 0.50653 0.15672 0.0
H1175 H 0.83452 0.49047 0.20333 0.0
C1176 C 0.76565 0.48739 0.1182 0.0
N1177 N 0.74756 0.47893 0.08293 0.0
C1178 C 0.75727 0.46269 0.11294 0.0
C1179 C 0.76464 0.50783 0.10557 0.0
C1180 C 0.74821 0.4588 0.09504 0.0
C1181 C 0.75551 0.50314 0.08779 0.0
C1182 C 0.84896 0.45313 0.15012 0.0
C1183 C 0.86955 0.45733 0.13799 0.0
C1184 C 0.85284 0.43838 0.16601 0.0
C1185 C 0.89385 0.44686 0.14209 0.0
C1186 C 0.87745 0.42828 0.16963 0.0
N1187 N 0.89727 0.4327 0.1577 0.0
C1188 C 0.83817 0.5143 0.10016 0.0
C1189 C 0.81965 0.47273 0.09562 0.0
C1190 C 0.84521 0.51571 0.08166 0.0
N1191 N 0.82512 0.49331 0.10663 0.0
C1192 C 0.82595 0.47347 0.07696 0.0
C1193 C 0.83858 0.49538 0.06965 0.0
H1194 H 0.84286 0.53012 0.10933 0.0
H1195 H 0.80972 0.45605 0.10124 0.0
C1196 C 0.74354 0.44328 0.163 0.0
N1197 N 0.76925 0.43958 0.15989 0.0
C1198 C 0.7272 0.42211 0.16577 0.0
C1199 C 0.76393 0.39357 0.16148 0.0
C1200 C 0.7797 0.41538 0.15912 0.0
C1201 C 0.73733 0.39687 0.16485 0.0
H1202 H 0.73568 0.46273 0.16303 0.0
H1203 H 0.80015 0.41303 0.15634 0.0
O1204 O 0.82412 0.52379 0.14573 0.0
O1205 O 0.79299 0.49582 0.17587 0.0
O1206 O 0.77489 0.49153 0.13559 0.0
O1207 O 0.82515 0.4636 0.14652 0.0
H1208 H 0.84586 0.55063 0.17274 0.0
H1209 H 0.80459 0.55667 0.12143 0.0
H1210 H 0.84719 0.59867 0.17444 0.0
H1211 H 0.8065 0.60464 0.1241 0.0
H1212 H 0.7734 0.43517 0.21909 0.0
H1213 H 0.74642 0.51335 0.18481 0.0
H1214 H 0.8033 0.45429 0.19602 0.0
H1215 H 0.71755 0.49322 0.20808 0.0
H1216 H 0.75687 0.60075 0.18127 0.0
H1217 H 0.70794 0.56701 0.13934 0.0
H1218 H 0.91856 0.51567 0.17633 0.0
H1219 H 0.87092 0.49996 0.22405 0.0
H1220 H 0.75797 0.44663 0.12251 0.0
H1221 H 0.77109 0.52705 0.10941 0.0
H1222 H 0.74177 0.43977 0.09075 0.0
H1223 H 0.75479 0.51873 0.07784 0.0
H1224 H 0.86685 0.46874 0.12564 0.0
H1225 H 0.83709 0.43499 0.17553 0.0
H1226 H 0.91002 0.45005 0.13288 0.0
H1227 H 0.8808 0.41696 0.18194 0.0
H1228 H 0.85555 0.53267 0.07683 0.0
H1229 H 0.82018 0.4574 0.06829 0.0
H1230 H 0.7067 0.42541 0.16798 0.0
H1231 H 0.77238 0.37437 0.16063 0.0
Li1232 Li 0.503 0.82399 0.16145 0.0
Li1233 Li 0.52724 0.78494 0.15371 0.0
Li1234 Li 0.50446 0.81011 0.13012 0.0
Li1235 Li 0.48041 0.78392 0.15258 0.0
C1236 C 0.54887 0.84072 0.1519 0.0
N1237 N 0.57748 0.88104 0.16651 0.0
C1238 C 0.56911 0.83557 0.16414 0.0
C1239 C 0.54326 0.86633 0.14699 0.0
C1240 C 0.58334 0.85624 0.17139 0.0
C1241 C 0.55791 0.88646 0.15457 0.0
C1242 C 0.48907 0.7793 0.18833 0.0
C1243 C 0.47141 0.74176 0.20372 0.0
N1244 N 0.4594 0.75761 0.21601 0.0
C1245 C 0.47654 0.79521 0.20112 0.0
C1246 C 0.48652 0.75235 0.18965 0.0
C1247 C 0.46165 0.78387 0.21502 0.0
C1248 C 0.48257 0.87109 0.1746 0.0
N1249 N 0.50127 0.85302 0.17755 0.0
C1250 C 0.51428 0.87423 0.20529 0.0
C1251 C 0.51725 0.85435 0.19239 0.0
C1252 C 0.49453 0.89273 0.20292 0.0
C1253 C 0.4789 0.89124 0.18712 0.0
H1254 H 0.46982 0.86929 0.16289 0.0
H1255 H 0.53173 0.83947 0.19452 0.0
C1256 C 0.57726 0.76472 0.14646 0.0
N1257 N 0.55712 0.76431 0.15851 0.0
C1258 C 0.59778 0.74723 0.14842 0.0
C1259 C 0.57699 0.73017 0.17567 0.0
C1260 C 0.55696 0.74801 0.1732 0.0
C1261 C 0.59746 0.72924 0.16295 0.0
H1262 H 0.57688 0.77797 0.13492 0.0
H1263 H 0.54095 0.74837 0.18274 0.0
C1264 C 0.45791 0.83076 0.13156 0.0
N1265 N 0.42801 0.8517 0.10374 0.0
C1266 C 0.4368 0.81693 0.12457 0.0
C1267 C 0.46369 0.85533 0.12451 0.0
C1268 C 0.42193 0.82785 0.11048 0.0
C1269 C 0.44839 0.86554 0.1104 0.0
C1270 C 0.51885 0.75212 0.12672 0.0
C1271 C 0.53447 0.75592 0.11124 0.0
C1272 C 0.51883 0.72804 0.13558 0.0
C1273 C 0.54999 0.73555 0.10495 0.0
C1274 C 0.53469 0.70819 0.12889 0.0
N1275 N 0.54981 0.71233 0.11385 0.0
C1276 C 0.52011 0.83857 0.09813 0.0
C1277 C 0.48711 0.80708 0.09398 0.0
C1278 C 0.51902 0.8452 0.07949 0.0
N1279 N 0.50418 0.81988 0.10494 0.0
C1280 C 0.48515 0.81328 0.07538 0.0
C1281 C 0.50124 0.83255 0.06791 0.0
H1282 H 0.53365 0.84827 0.10715 0.0
H1283 H 0.47497 0.79205 0.09977 0.0
C1284 C 0.43162 0.76896 0.16802 0.0
N1285 N 0.45027 0.76291 0.1555 0.0
C1286 C 0.40973 0.75321 0.1699 0.0
C1287 C 0.42599 0.72618 0.14529 0.0
C1288 C 0.44774 0.74215 0.14412 0.0
C1289 C 0.40674 0.73157 0.15837 0.0
H1290 H 0.43374 0.78602 0.17654 0.0
H1291 H 0.46254 0.73809 0.13401 0.0
O1292 O 0.53446 0.82079 0.14488 0.0
O1293 O 0.50368 0.79004 0.17458 0.0
O1294 O 0.47303 0.82019 0.14509 0.0
O1295 O 0.50405 0.77202 0.13339 0.0
H1296 H 0.57363 0.81586 0.16813 0.0
H1297 H 0.52756 0.87064 0.13761 0.0
H1298 H 0.599 0.85257 0.18094 0.0
H1299 H 0.55369 0.90639 0.151 0.0
H1300 H 0.46914 0.72096 0.20481 0.0
H1301 H 0.47812 0.81609 0.20029 0.0
H1302 H 0.49574 0.73973 0.17971 0.0
H1303 H 0.45181 0.79596 0.22498 0.0
H1304 H 0.52685 0.8747 0.21721 0.0
H1305 H 0.46309 0.9047 0.1849 0.0
H1306 H 0.61311 0.74706 0.13825 0.0
H1307 H 0.57624 0.71694 0.18723 0.0
H1308 H 0.43205 0.79789 0.12983 0.0
H1309 H 0.48008 0.86622 0.12967 0.0
H1310 H 0.40561 0.81731 0.10488 0.0
H1311 H 0.45277 0.88443 0.10471 0.0
H1312 H 0.53486 0.77448 0.1043 0.0
H1313 H 0.50696 0.72484 0.14764 0.0
H1314 H 0.56229 0.73825 0.09305 0.0
H1315 H 0.53504 0.68953 0.13571 0.0
H1316 H 0.53173 0.86018 0.07423 0.0
H1317 H 0.47153 0.80273 0.06686 0.0
H1318 H 0.39509 0.75813 0.18 0.0
H1319 H 0.42438 0.70962 0.13618 0.0
Li1320 Li 0.21017 0.5288 0.15541 0.0
Li1321 Li 0.18655 0.50651 0.13044 0.0
Li1322 Li 0.17212 0.50492 0.16191 0.0
Li1323 Li 0.2115 0.48169 0.15298 0.0
C1324 C 0.15102 0.54689 0.14787 0.0
N1325 N 0.10205 0.5676 0.15249 0.0
C1326 C 0.13106 0.54027 0.13575 0.0
C1327 C 0.14616 0.56432 0.16219 0.0
C1328 C 0.10641 0.55088 0.13835 0.0
C1329 C 0.12125 0.5745 0.16434 0.0
C1330 C 0.23835 0.49536 0.12166 0.0
C1331 C 0.24287 0.4613 0.09914 0.0
N1332 N 0.26642 0.47099 0.0943 0.0
C1333 C 0.2626 0.50496 0.1165 0.0
C1334 C 0.22838 0.47333 0.11295 0.0
C1335 C 0.27649 0.49238 0.10262 0.0
C1336 C 0.25598 0.55379 0.16645 0.0
N1337 N 0.23145 0.55799 0.16033 0.0
C1338 C 0.23914 0.60361 0.15843 0.0
C1339 C 0.22269 0.58226 0.15647 0.0
C1340 C 0.26472 0.59984 0.1645 0.0
C1341 C 0.27296 0.57459 0.16883 0.0
H1342 H 0.26251 0.53419 0.16908 0.0
H1343 H 0.20315 0.58494 0.15143 0.0
C1344 C 0.15921 0.49199 0.09831 0.0
N1345 N 0.17772 0.508 0.10519 0.0
C1346 C 0.15416 0.49157 0.07943 0.0
C1347 C 0.18709 0.52444 0.07523 0.0
C1348 C 0.1914 0.52428 0.09417 0.0
C1349 C 0.16843 0.50772 0.06758 0.0
H1350 H 0.1486 0.47933 0.10746 0.0
H1351 H 0.20616 0.53665 0.10008 0.0
C1352 C 0.21616 0.51428 0.1905 0.0
N1353 N 0.23847 0.53806 0.22069 0.0
C1354 C 0.2363 0.50208 0.20003 0.0
C1355 C 0.20706 0.53834 0.19656 0.0
C1356 C 0.2474 0.51447 0.2152 0.0
C1357 C 0.21867 0.55013 0.21177 0.0
C1358 C 0.16531 0.45324 0.15173 0.0
C1359 C 0.17122 0.44667 0.16994 0.0
C1360 C 0.14888 0.43724 0.1415 0.0
C1361 C 0.16058 0.42419 0.17756 0.0
C1362 C 0.13865 0.41491 0.14962 0.0
N1363 N 0.14465 0.40891 0.16734 0.0
C1364 C 0.11928 0.49466 0.16843 0.0
C1365 C 0.14342 0.50456 0.19525 0.0
C1366 C 0.0974 0.489 0.17898 0.0
N1367 N 0.14175 0.50199 0.17669 0.0
C1368 C 0.12207 0.49899 0.20634 0.0
C1369 C 0.09878 0.49057 0.19826 0.0
H1370 H 0.11864 0.49224 0.15366 0.0
H1371 H 0.16163 0.50979 0.20153 0.0
C1372 C 0.25797 0.45728 0.16235 0.0
N1373 N 0.23408 0.45253 0.15527 0.0
C1374 C 0.2763 0.43743 0.16355 0.0
C1375 C 0.24543 0.40827 0.1495 0.0
C1376 C 0.22762 0.42867 0.14873 0.0
C1377 C 0.27021 0.41249 0.15698 0.0
H1378 H 0.26295 0.47668 0.16678 0.0
H1379 H 0.20893 0.42555 0.14242 0.0
O1380 O 0.17517 0.53636 0.1457 0.0
O1381 O 0.22462 0.50744 0.13529 0.0
O1382 O 0.20524 0.50257 0.17547 0.0
O1383 O 0.17505 0.47543 0.144 0.0
H1384 H 0.13445 0.52683 0.12459 0.0
H1385 H 0.16144 0.57 0.17152 0.0
H1386 H 0.09074 0.54576 0.12916 0.0
H1387 H 0.11719 0.58791 0.17542 0.0
H1388 H 0.23539 0.44425 0.09228 0.0
H1389 H 0.27059 0.52196 0.12317 0.0
H1390 H 0.20969 0.46555 0.11682 0.0
H1391 H 0.29529 0.4996 0.09847 0.0
H1392 H 0.23207 0.6228 0.15501 0.0
H1393 H 0.29265 0.57084 0.17327 0.0
H1394 H 0.13936 0.47864 0.07419 0.0
H1395 H 0.19883 0.53692 0.06662 0.0
H1396 H 0.24314 0.48315 0.19589 0.0
H1397 H 0.19134 0.5479 0.18947 0.0
H1398 H 0.26306 0.50529 0.22265 0.0
H1399 H 0.21195 0.56887 0.21648 0.0
H1400 H 0.18384 0.45871 0.17815 0.0
H1401 H 0.14404 0.44201 0.12742 0.0
H1402 H 0.16498 0.41891 0.19162 0.0
H1403 H 0.1259 0.40236 0.14185 0.0
H1404 H 0.07983 0.48277 0.17214 0.0
H1405 H 0.12428 0.49995 0.22114 0.0
H1406 H 0.29504 0.44167 0.16953 0.0
H1407 H 0.24005 0.38961 0.14383 0.0
H1408 H 0.09799 0.18902 0.36185 0.0
H1409 H 0.22759 0.13692 0.3137 0.0
H1410 H 0.13248 0.22649 0.31472 0.0
H1411 H 0.18738 0.09742 0.3576 0.0
H1412 H 0.19429 0.17094 0.31429 0.0
H1413 H 0.13194 0.15627 0.36094 0.0
C1414 C 0.11285 0.19047 0.35137 0.0
C1415 C 0.11247 0.21064 0.33841 0.0
C1416 C 0.19277 0.15477 0.32374 0.0
C1417 C 0.1514 0.17287 0.33714 0.0
C1418 C 0.21181 0.13544 0.32347 0.0
C1419 C 0.21015 0.1142 0.33552 0.0
C1420 C 0.17209 0.15291 0.33626 0.0
C1421 C 0.18922 0.11318 0.34783 0.0
C1422 C 0.13217 0.17163 0.35078 0.0
C1423 C 0.13195 0.21118 0.32491 0.0
N1424 N 0.17108 0.13222 0.34788 0.0
N1425 N 0.15069 0.19259 0.32465 0.0
H1426 H 0.89527 0.19486 0.31119 0.0
H1427 H 0.76456 0.13735 0.35442 0.0
H1428 H 0.85658 0.22817 0.35822 0.0
H1429 H 0.81025 0.09733 0.31358 0.0
H1430 H 0.79548 0.17327 0.35367 0.0
H1431 H 0.86164 0.16152 0.30954 0.0
C1432 C 0.87954 0.19533 0.32105 0.0
C1433 C 0.87877 0.2143 0.3349 0.0
C1434 C 0.79871 0.15667 0.34483 0.0
C1435 C 0.84034 0.17604 0.3332 0.0
C1436 C 0.78097 0.13623 0.34516 0.0
C1437 C 0.78486 0.11426 0.33408 0.0
C1438 C 0.82046 0.15523 0.33327 0.0
C1439 C 0.80667 0.11374 0.32252 0.0
C1440 C 0.86045 0.17618 0.32018 0.0
C1441 C 0.85811 0.21374 0.34746 0.0
N1442 N 0.82364 0.1339 0.32243 0.0
N1443 N 0.83974 0.19491 0.34633 0.0
H1444 H 0.82364 0.91236 0.32929 0.0
H1445 H 0.86112 0.7621 0.33665 0.0
H1446 H 0.76674 0.85092 0.32908 0.0
H1447 H 0.91694 0.82422 0.33268 0.0
H1448 H 0.82619 0.79383 0.33285 0.0
H1449 H 0.85792 0.87995 0.32943 0.0
C1450 C 0.81829 0.89204 0.32901 0.0
C1451 C 0.79216 0.88444 0.32912 0.0
C1452 C 0.8461 0.80048 0.33274 0.0
C1453 C 0.83157 0.84702 0.3297 0.0
C1454 C 0.86605 0.78236 0.33482 0.0
C1455 C 0.89203 0.79052 0.33514 0.0
C1456 C 0.85215 0.82694 0.33096 0.0
C1457 C 0.89722 0.81707 0.33289 0.0
C1458 C 0.83795 0.8735 0.32924 0.0
C1459 C 0.78658 0.85773 0.32922 0.0
N1460 N 0.87749 0.83429 0.33097 0.0
N1461 N 0.80611 0.84 0.32957 0.0
H1462 H 0.09586 0.81668 0.32751 0.0
H1463 H 0.24542 0.85494 0.33884 0.0
H1464 H 0.15489 0.76094 0.34195 0.0
H1465 H 0.1829 0.91037 0.33583 0.0
H1466 H 0.21366 0.81962 0.33638 0.0
H1467 H 0.12873 0.85059 0.32675 0.0
C1468 C 0.11582 0.8115 0.3303 0.0
C1469 C 0.12265 0.7859 0.33475 0.0
C1470 C 0.20695 0.83953 0.33622 0.0
C1471 C 0.16043 0.82483 0.33416 0.0
C1472 C 0.22504 0.85965 0.33752 0.0
C1473 C 0.21672 0.88558 0.33768 0.0
C1474 C 0.18043 0.84546 0.33487 0.0
C1475 C 0.19011 0.89064 0.33604 0.0
C1476 C 0.13456 0.83094 0.33001 0.0
C1477 C 0.14877 0.78047 0.3386 0.0
N1478 N 0.17295 0.87079 0.33471 0.0
N1479 N 0.16674 0.79979 0.33822 0.0
H1480 H 0.1284 0.77506 0.63332 0.0
H1481 H 0.19596 0.88766 0.69208 0.0
H1482 H 0.10251 0.79822 0.68734 0.0
H1483 H 0.22238 0.86286 0.63855 0.0
H1484 H 0.16296 0.8536 0.69139 0.0
H1485 H 0.16428 0.80574 0.63573 0.0
C1486 C 0.13026 0.78662 0.6457 0.0
C1487 C 0.11231 0.78418 0.6601 0.0
C1488 C 0.1761 0.8555 0.67986 0.0
C1489 C 0.15349 0.8193 0.66301 0.0
C1490 C 0.19488 0.875 0.68021 0.0
C1491 C 0.21194 0.87818 0.66533 0.0
C1492 C 0.17425 0.83912 0.66446 0.0
C1493 C 0.20987 0.86097 0.65042 0.0
C1494 C 0.15084 0.80405 0.64711 0.0
C1495 C 0.11598 0.79933 0.67595 0.0
N1496 N 0.19128 0.84232 0.65033 0.0
N1497 N 0.13606 0.81635 0.67694 0.0
H1498 H 0.20911 0.11969 0.6251 0.0
H1499 H 0.1307 0.22133 0.68716 0.0
H1500 H 0.2129 0.12117 0.68442 0.0
H1501 H 0.12378 0.21617 0.62809 0.0
H1502 H 0.16315 0.18674 0.68639 0.0
H1503 H 0.18005 0.15702 0.62589 0.0
C1504 C 0.20377 0.12781 0.63831 0.0
C1505 C 0.21332 0.11711 0.65473 0.0
C1506 C 0.15464 0.1933 0.67359 0.0
C1507 C 0.18019 0.16013 0.65573 0.0
C1508 C 0.13605 0.21299 0.67402 0.0
C1509 C 0.12444 0.22168 0.65767 0.0
C1510 C 0.16165 0.18212 0.65668 0.0
C1511 C 0.13242 0.21038 0.64102 0.0
C1512 C 0.18728 0.14925 0.63874 0.0
C1513 C 0.20617 0.12886 0.67141 0.0
N1514 N 0.15041 0.19113 0.64097 0.0
N1515 N 0.18993 0.14965 0.67149 0.0
H1516 H 0.92024 0.17418 0.65596 0.0
H1517 H 0.77311 0.13927 0.67863 0.0
H1518 H 0.86313 0.23333 0.66738 0.0
H1519 H 0.82415 0.0899 0.64706 0.0
H1520 H 0.80695 0.17263 0.67905 0.0
H1521 H 0.88634 0.14142 0.65757 0.0
C1522 C 0.90056 0.18036 0.65872 0.0
C1523 C 0.89455 0.2067 0.66124 0.0
C1524 C 0.81064 0.15441 0.67211 0.0
C1525 C 0.85563 0.16901 0.6635 0.0
C1526 C 0.79132 0.13538 0.67177 0.0
C1527 C 0.7957 0.11154 0.66288 0.0
C1528 C 0.8346 0.14946 0.66368 0.0
C1529 C 0.81993 0.1076 0.65448 0.0
C1530 C 0.88123 0.16157 0.65973 0.0
C1531 C 0.86875 0.21329 0.66541 0.0
N1532 N 0.83842 0.12628 0.65514 0.0
N1533 N 0.8502 0.19456 0.66636 0.0
H1534 H 0.77359 0.86902 0.62315 0.0
H1535 H 0.87227 0.78786 0.68545 0.0
H1536 H 0.78205 0.87996 0.6817 0.0
H1537 H 0.86243 0.77548 0.62716 0.0
H1538 H 0.8368 0.81927 0.68479 0.0
H1539 H 0.80359 0.8324 0.62474 0.0
C1540 C 0.7817 0.86365 0.63636 0.0
C1541 C 0.77547 0.87773 0.65229 0.0
C1542 C 0.84224 0.80954 0.67216 0.0
C1543 C 0.80979 0.83575 0.65423 0.0
C1544 C 0.86255 0.79168 0.67252 0.0
C1545 C 0.87045 0.77918 0.65631 0.0
C1546 C 0.82979 0.81511 0.65543 0.0
C1547 C 0.85689 0.78454 0.64 0.0
C1548 C 0.79874 0.84267 0.63727 0.0
C1549 C 0.78618 0.8696 0.66909 0.0
N1550 N 0.83738 0.80228 0.63995 0.0
N1551 N 0.80299 0.8493 0.66959 0.0
H1552 H 0.60095 0.69888 0.87346 0.0
H1553 H 0.72104 0.63627 0.81958 0.0
H1554 H 0.62234 0.72149 0.81835 0.0
H1555 H 0.68813 0.60426 0.86921 0.0
H1556 H 0.68797 0.6705 0.82011 0.0
H1557 H 0.63595 0.66701 0.8734 0.0
C1558 C 0.61318 0.69729 0.8614 0.0
C1559 C 0.60873 0.71287 0.84589 0.0
C1560 C 0.68802 0.65596 0.83086 0.0
C1561 C 0.64874 0.67622 0.84565 0.0
C1562 C 0.70694 0.63654 0.83062 0.0
C1563 C 0.70719 0.61732 0.8443 0.0
C1564 C 0.66946 0.6563 0.84501 0.0
C1565 C 0.6884 0.61846 0.85823 0.0
C1566 C 0.63304 0.67896 0.86132 0.0
C1567 C 0.62495 0.70968 0.83053 0.0
N1568 N 0.67034 0.63761 0.85824 0.0
N1569 N 0.64427 0.69173 0.8308 0.0
H1570 H 0.3912 0.69541 0.81348 0.0
H1571 H 0.25714 0.63709 0.84869 0.0
H1572 H 0.35345 0.7241 0.86232 0.0
H1573 H 0.31579 0.58944 0.82335 0.0
H1574 H 0.28738 0.674 0.84823 0.0
H1575 H 0.35845 0.66094 0.81132 0.0
C1576 C 0.3758 0.69458 0.82359 0.0
C1577 C 0.37492 0.71245 0.83812 0.0
C1578 C 0.2935 0.65548 0.84268 0.0
C1579 C 0.33753 0.67351 0.83565 0.0
C1580 C 0.27629 0.63457 0.84285 0.0
C1581 C 0.28416 0.61035 0.83609 0.0
C1582 C 0.31844 0.65218 0.83532 0.0
C1583 C 0.30916 0.60786 0.82876 0.0
C1584 C 0.35729 0.67491 0.82242 0.0
C1585 C 0.35477 0.71053 0.85099 0.0
N1586 N 0.32543 0.62858 0.82849 0.0
N1587 N 0.33674 0.69142 0.84942 0.0
H1588 H 0.26863 0.35345 0.85558 0.0
H1589 H 0.40158 0.30215 0.81181 0.0
H1590 H 0.30975 0.39335 0.81233 0.0
H1591 H 0.36914 0.27245 0.86231 0.0
H1592 H 0.36474 0.3318 0.80906 0.0
H1593 H 0.30192 0.31961 0.85536 0.0
C1594 C 0.28448 0.3549 0.84586 0.0
C1595 C 0.28652 0.3763 0.83402 0.0
C1596 C 0.36563 0.31872 0.8207 0.0
C1597 C 0.32477 0.33782 0.83381 0.0
C1598 C 0.38656 0.30169 0.82222 0.0
C1599 C 0.38849 0.28491 0.83737 0.0
C1600 C 0.34637 0.31886 0.83436 0.0
C1601 C 0.3686 0.28533 0.85055 0.0
C1602 C 0.30357 0.33569 0.84584 0.0
C1603 C 0.30763 0.37734 0.82185 0.0
N1604 N 0.34839 0.30205 0.84875 0.0
N1605 N 0.32596 0.35842 0.82209 0.0
H1606 H 0.72435 0.37186 0.87321 0.0
H1607 H 0.62333 0.29288 0.81121 0.0
H1608 H 0.71174 0.38737 0.81555 0.0
H1609 H 0.63557 0.27885 0.86911 0.0
H1610 H 0.65782 0.32541 0.81187 0.0
H1611 H 0.6942 0.33548 0.8713 0.0
C1612 C 0.71524 0.36758 0.86013 0.0
C1613 C 0.72039 0.38284 0.84456 0.0
C1614 C 0.65308 0.31508 0.8244 0.0
C1615 C 0.68588 0.34108 0.84223 0.0
C1616 C 0.63331 0.29659 0.82405 0.0
C1617 C 0.62645 0.28316 0.84015 0.0
C1618 C 0.66605 0.32029 0.84098 0.0
C1619 C 0.64034 0.28849 0.85632 0.0
C1620 C 0.69811 0.34673 0.85902 0.0
C1621 C 0.70844 0.37606 0.82788 0.0
N1622 N 0.65934 0.30673 0.85634 0.0
N1623 N 0.69158 0.3558 0.82719 0.0
H1624 H 0.70027 0.38775 0.19095 0.0
H1625 H 0.63215 0.2758 0.13417 0.0
H1626 H 0.73418 0.35499 0.14195 0.0
H1627 H 0.61619 0.28833 0.19172 0.0
H1628 H 0.66885 0.30574 0.13633 0.0
H1629 H 0.66845 0.35244 0.19133 0.0
C1630 C 0.7011 0.37297 0.18037 0.0
C1631 C 0.71977 0.37426 0.16637 0.0
C1632 C 0.6575 0.30174 0.14854 0.0
C1633 C 0.68338 0.33411 0.16658 0.0
C1634 C 0.63652 0.28479 0.14728 0.0
C1635 C 0.62113 0.27975 0.16278 0.0
C1636 C 0.66284 0.31412 0.16532 0.0
C1637 C 0.62769 0.29167 0.17949 0.0
C1638 C 0.68305 0.35281 0.18063 0.0
C1639 C 0.72018 0.35458 0.15304 0.0
N1640 N 0.64788 0.3086 0.18028 0.0
N1641 N 0.70202 0.33548 0.15333 0.0
H1642 H 0.59011 0.67787 0.17039 0.0
H1643 H 0.74 0.63911 0.16258 0.0
H1644 H 0.65018 0.73351 0.15815 0.0
H1645 H 0.67729 0.58376 0.16307 0.0
H1646 H 0.7082 0.67443 0.16451 0.0
H1647 H 0.62271 0.64363 0.17138 0.0
C1648 C 0.61023 0.68293 0.16811 0.0
C1649 C 0.61744 0.70861 0.16423 0.0
C1650 C 0.70145 0.65455 0.16423 0.0
C1651 C 0.65491 0.66937 0.16512 0.0
C1652 C 0.71956 0.63441 0.16324 0.0
C1653 C 0.71123 0.60851 0.16255 0.0
C1654 C 0.67487 0.64867 0.16472 0.0
C1655 C 0.68453 0.60348 0.16331 0.0
C1656 C 0.62882 0.66333 0.16853 0.0
C1657 C 0.64376 0.71393 0.16104 0.0
N1658 N 0.66733 0.62335 0.16435 0.0
N1659 N 0.66157 0.69447 0.16157 0.0
H1660 H 0.37541 0.71477 0.13061 0.0
H1661 H 0.29938 0.61209 0.19176 0.0
H1662 H 0.38585 0.70979 0.18937 0.0
H1663 H 0.27265 0.63707 0.13838 0.0
H1664 H 0.33238 0.64632 0.19107 0.0
H1665 H 0.33885 0.68473 0.13291 0.0
C1666 C 0.36991 0.70735 0.144 0.0
C1667 C 0.38366 0.71463 0.15982 0.0
C1668 C 0.31911 0.64446 0.17961 0.0
C1669 C 0.34201 0.68019 0.16256 0.0
C1670 C 0.30038 0.62489 0.17996 0.0
C1671 C 0.2833 0.62175 0.1651 0.0
C1672 C 0.32103 0.66068 0.16414 0.0
C1673 C 0.28529 0.63896 0.1502 0.0
C1674 C 0.34899 0.69034 0.14533 0.0
C1675 C 0.37563 0.7047 0.17687 0.0
N1676 N 0.30399 0.6575 0.15001 0.0
N1677 N 0.35547 0.68774 0.17778 0.0
H1678 H 0.26245 0.36042 0.16355 0.0
H1679 H 0.41309 0.32474 0.16151 0.0
H1680 H 0.3228 0.41598 0.15152 0.0
H1681 H 0.35289 0.26687 0.15801 0.0
H1682 H 0.38003 0.35868 0.16088 0.0
H1683 H 0.29509 0.32602 0.16414 0.0
C1684 C 0.28249 0.36543 0.16093 0.0
C1685 C 0.2898 0.39127 0.15752 0.0
C1686 C 0.37402 0.33857 0.16025 0.0
C1687 C 0.32731 0.35195 0.15851 0.0
C1688 C 0.39286 0.31919 0.16075 0.0
C1689 C 0.38569 0.29296 0.1599 0.0
C1690 C 0.34774 0.33171 0.15906 0.0
C1691 C 0.35923 0.28687 0.1586 0.0
C1692 C 0.30113 0.34576 0.16136 0.0
C1693 C 0.31621 0.39652 0.15456 0.0
N1694 N 0.34118 0.30611 0.15831 0.0
N1695 N 0.33396 0.37708 0.15518 0.0
H1696 H 0.01682 0.44595 0.29543 0.0
H1697 H 0.06731 0.44855 0.19226 0.0
H1698 H 0.00129 0.38588 0.25558 0.0
H1699 H 0.08119 0.51031 0.23118 0.0
H1700 H 0.03654 0.42929 0.21363 0.0
H1701 H 0.03389 0.47336 0.27079 0.0
C1702 C 0.01666 0.43868 0.28145 0.0
C1703 C 0.00799 0.41344 0.2776 0.0
C1704 C 0.04603 0.44725 0.21743 0.0
C1705 C 0.02765 0.4446 0.24936 0.0
C1706 C 0.06351 0.45842 0.20513 0.0
C1707 C 0.07719 0.48097 0.20999 0.0
C1708 C 0.04231 0.45851 0.23482 0.0
C1709 C 0.07159 0.49259 0.22702 0.0
C1710 C 0.02636 0.45435 0.26738 0.0
C1711 C 0.00777 0.40519 0.2592 0.0
N1712 N 0.05485 0.48104 0.23892 0.0
N1713 N 0.01786 0.42056 0.24582 0.0
H1714 H 0.57214 0.05497 0.30518 0.0
H1715 H 0.51557 0.05493 0.20367 0.0
H1716 H 0.57798 0.98892 0.26881 0.0
H1717 H 0.50503 0.11726 0.24261 0.0
H1718 H 0.53314 0.0279 0.2284 0.0
H1719 H 0.54202 0.07509 0.28391 0.0
C1720 C 0.56672 0.04435 0.29292 0.0
C1721 C 0.57795 0.02019 0.28879 0.0
C1722 C 0.52658 0.04734 0.23158 0.0
C1723 C 0.54381 0.04377 0.2639 0.0
C1724 C 0.51662 0.06281 0.21746 0.0
C1725 C 0.5091 0.08853 0.221 0.0
C1726 C 0.52926 0.05776 0.24934 0.0
C1727 C 0.51047 0.09756 0.2392 0.0
C1728 C 0.54959 0.05604 0.28065 0.0
C1729 C 0.57035 0.0078 0.27242 0.0
N1730 N 0.52071 0.08234 0.25259 0.0
N1731 N 0.55404 0.01988 0.26046 0.0
H1732 H 0.91372 0.48888 0.23525 0.0
H1733 H 0.99594 0.61555 0.2584 0.0
H1734 H 0.92956 0.55056 0.19665 0.0
H1735 H 0.97743 0.55658 0.29851 0.0
H1736 H 0.97897 0.58761 0.23426 0.0
H1737 H 0.94348 0.50923 0.25713 0.0
C1738 C 0.92365 0.50653 0.23129 0.0
C1739 C 0.91884 0.51818 0.21415 0.0
C1740 C 0.97889 0.5806 0.2483 0.0
C1741 C 0.95294 0.54153 0.2391 0.0
C1742 C 0.98882 0.5965 0.26212 0.0
C1743 C 0.98783 0.58858 0.28059 0.0
C1744 C 0.96768 0.55665 0.25295 0.0
C1745 C 0.97803 0.56375 0.28452 0.0
C1746 C 0.94071 0.51808 0.24376 0.0
C1747 C 0.93268 0.54076 0.20963 0.0
N1748 N 0.96804 0.5488 0.27084 0.0
N1749 N 0.94882 0.55184 0.2221 0.0
H1750 H 0.43378 0.95191 0.3037 0.0
H1751 H 0.47959 0.94372 0.19921 0.0
H1752 H 0.41256 0.00817 0.26233 0.0
H1753 H 0.49483 0.88501 0.24019 0.0
H1754 H 0.46232 0.97194 0.22333 0.0
H1755 H 0.46381 0.93217 0.28202 0.0
C1756 C 0.4358 0.96051 0.29018 0.0
C1757 C 0.42032 0.9816 0.28479 0.0
C1758 C 0.4698 0.95303 0.22707 0.0
C1759 C 0.45435 0.95855 0.25966 0.0
C1760 C 0.47958 0.93687 0.2133 0.0
C1761 C 0.48832 0.91178 0.21761 0.0
C1762 C 0.46864 0.944 0.24528 0.0
C1763 C 0.48839 0.90418 0.23617 0.0
C1764 C 0.45285 0.94905 0.27773 0.0
C1765 C 0.42366 0.99159 0.26696 0.0
N1766 N 0.47837 0.92008 0.24925 0.0
N1767 N 0.44007 0.97979 0.25496 0.0
H1768 H 0.06744 0.54344 0.80463 0.0
H1769 H 0.02526 0.56169 0.70013 0.0
H1770 H 0.09015 0.49091 0.76123 0.0
H1771 H 0.00247 0.61275 0.7443 0.0
H1772 H 0.04314 0.53148 0.72282 0.0
H1773 H 0.03765 0.56456 0.78351 0.0
C1774 C 0.06581 0.53592 0.79077 0.0
C1775 C 0.08162 0.51545 0.7847 0.0
C1776 C 0.0339 0.54912 0.72756 0.0
C1777 C 0.04787 0.54023 0.76017 0.0
C1778 C 0.02354 0.5663 0.71462 0.0
C1779 C 0.01269 0.58994 0.72034 0.0
C1780 C 0.03343 0.5557 0.74632 0.0
C1781 C 0.01116 0.59499 0.73928 0.0
C1782 C 0.04889 0.54821 0.77863 0.0
C1783 C 0.0788 0.50697 0.76643 0.0
N1784 N 0.02167 0.57817 0.75156 0.0
N1785 N 0.06252 0.51961 0.75475 0.0
H1786 H 0.48757 0.06363 0.78908 0.0
H1787 H 0.41851 0.06369 0.6911 0.0
H1788 H 0.47985 0.13053 0.75386 0.0
H1789 H 0.42312 0.99543 0.7255 0.0
H1790 H 0.44775 0.08593 0.71179 0.0
H1791 H 0.47057 0.03627 0.76418 0.0
C1792 C 0.48272 0.07245 0.776 0.0
C1793 C 0.48468 0.09939 0.77357 0.0
C1794 C 0.44265 0.06599 0.71476 0.0
C1795 C 0.46518 0.06843 0.7452 0.0
C1796 C 0.42606 0.05307 0.70279 0.0
C1797 C 0.41805 0.02756 0.70653 0.0
C1798 C 0.45114 0.05358 0.73086 0.0
C1799 C 0.42826 0.01525 0.72222 0.0
C1800 C 0.47293 0.05688 0.76185 0.0
C1801 C 0.47813 0.1099 0.7564 0.0
N1802 N 0.44402 0.02849 0.73394 0.0
N1803 N 0.46847 0.09445 0.74296 0.0
H1804 H 0.99205 0.38943 0.74042 0.0
H1805 H 0.90357 0.5123 0.76233 0.0
H1806 H 0.96958 0.4458 0.69946 0.0
H1807 H 0.92638 0.45493 0.80248 0.0
H1808 H 0.93295 0.49218 0.74008 0.0
H1809 H 0.97425 0.41742 0.76424 0.0
C1810 C 0.98386 0.40794 0.73643 0.0
C1811 C 0.98204 0.41507 0.71783 0.0
C1812 C 0.93178 0.48424 0.75385 0.0
C1813 C 0.96093 0.44703 0.74512 0.0
C1814 C 0.91493 0.49565 0.76653 0.0
C1815 C 0.91227 0.48516 0.78426 0.0
C1816 C 0.94596 0.46207 0.75889 0.0
C1817 C 0.92785 0.46384 0.78904 0.0
C1818 C 0.97347 0.42386 0.75007 0.0
C1819 C 0.97087 0.43922 0.71357 0.0
N1820 N 0.94376 0.45285 0.77638 0.0
N1821 N 0.96045 0.45417 0.72708 0.0
H1822 H 0.56858 0.95556 0.69449 0.0
H1823 H 0.53237 0.93482 0.79985 0.0
H1824 H 0.59777 0.00408 0.73827 0.0
H1825 H 0.50151 0.88879 0.75536 0.0
H1826 H 0.55136 0.96447 0.77731 0.0
H1827 H 0.53888 0.93536 0.71614 0.0
C1828 C 0.56842 0.9624 0.70857 0.0
C1829 C 0.58598 0.98144 0.71456 0.0
C1830 C 0.54015 0.94808 0.77248 0.0
C1831 C 0.5523 0.95773 0.73964 0.0
C1832 C 0.52915 0.93122 0.78534 0.0
C1833 C 0.5156 0.90911 0.77946 0.0
C1834 C 0.53764 0.94271 0.75361 0.0
C1835 C 0.51226 0.9053 0.76049 0.0
C1836 C 0.55154 0.95065 0.721 0.0
C1837 C 0.58501 0.9891 0.7331 0.0
N1838 N 0.52344 0.92176 0.74826 0.0
N1839 N 0.5687 0.977 0.74503 0.0
H1840 H 0.03298 0.30687 0.45466 0.0
H1841 H 0.96182 0.3523 0.54455 0.0
H1842 H 0.97285 0.36522 0.45194 0.0
H1843 H 0.0427 0.33123 0.54451 0.0
H1844 H 0.96275 0.35399 0.51076 0.0
H1845 H 0.03436 0.31209 0.48784 0.0
C1846 C 0.02029 0.32109 0.46089 0.0
C1847 C 0.0029 0.3358 0.45023 0.0
C1848 C 0.98033 0.34935 0.5182 0.0
C1849 C 0.00386 0.34105 0.48858 0.0
C1850 C 0.9798 0.34831 0.53739 0.0
C1851 C 0.00223 0.34163 0.54722 0.0
C1852 C 0.00328 0.34302 0.50885 0.0
C1853 C 0.02506 0.33663 0.5374 0.0
C1854 C 0.02103 0.32389 0.47993 0.0
C1855 C 0.98633 0.35316 0.45947 0.0
N1856 N 0.02492 0.33705 0.51872 0.0
N1857 N 0.98705 0.35513 0.47813 0.0
H1858 H 0.70233 0.0339 0.54356 0.0
H1859 H 0.62983 0.99097 0.45106 0.0
H1860 H 0.62728 0.99695 0.54357 0.0
H1861 H 0.71082 0.01134 0.45405 0.0
H1862 H 0.62623 0.99791 0.48438 0.0
H1863 H 0.70317 0.03121 0.51007 0.0
C1864 C 0.68582 0.02559 0.53648 0.0
C1865 C 0.66467 0.01568 0.54636 0.0
C1866 C 0.64476 0.00084 0.47771 0.0
C1867 C 0.66572 0.0121 0.50799 0.0
C1868 C 0.6468 0.99697 0.45873 0.0
C1869 C 0.67071 0.00037 0.44984 0.0
C1870 C 0.66673 0.00846 0.48778 0.0
C1871 C 0.69212 0.00808 0.46041 0.0
C1872 C 0.68643 0.02382 0.51737 0.0
C1873 C 0.64405 0.00464 0.53648 0.0
N1874 N 0.68961 0.01189 0.47879 0.0
N1875 N 0.6451 0.0031 0.51781 0.0
H1876 H 0.03789 0.67233 0.54641 0.0
H1877 H 0.96202 0.65378 0.4527 0.0
H1878 H 0.96164 0.63779 0.54414 0.0
H1879 H 0.04508 0.66248 0.4552 0.0
H1880 H 0.96104 0.64836 0.48617 0.0
H1881 H 0.0408 0.66908 0.5131 0.0
C1882 C 0.02188 0.66364 0.53901 0.0
C1883 C 0.99942 0.65538 0.54826 0.0
C1884 C 0.97951 0.65115 0.47938 0.0
C1885 C 0.00245 0.65233 0.50984 0.0
C1886 C 0.98006 0.65435 0.46032 0.0
C1887 C 0.00365 0.65872 0.45124 0.0
C1888 C 0.00267 0.65278 0.48945 0.0
C1889 C 0.0265 0.65904 0.46169 0.0
C1890 C 0.02354 0.66196 0.51991 0.0
C1891 C 0.97914 0.64491 0.53768 0.0
N1892 N 0.02541 0.65645 0.48028 0.0
N1893 N 0.98104 0.64392 0.51903 0.0
H1894 H 0.37242 0.99917 0.54655 0.0
H1895 H 0.29339 0.01747 0.45359 0.0
H1896 H 0.29021 0.9852 0.5425 0.0
H1897 H 0.37377 0.99453 0.45312 0.0
H1898 H 0.29288 0.01276 0.48709 0.0
H1899 H 0.37436 0.0038 0.51288 0.0
C1900 C 0.35485 0.99698 0.53853 0.0
C1901 C 0.33115 0.99164 0.54719 0.0
C1902 C 0.31065 0.00882 0.47966 0.0
C1903 C 0.33313 0.99737 0.50904 0.0
C1904 C 0.31101 0.01173 0.46061 0.0
C1905 C 0.3337 0.00648 0.45069 0.0
C1906 C 0.33323 0.00097 0.48887 0.0
C1907 C 0.35591 0.9987 0.46036 0.0
C1908 C 0.35598 0.99956 0.51941 0.0
C1909 C 0.3089 0.989 0.53628 0.0
N1910 N 0.35519 0.99631 0.47899 0.0
N1911 N 0.31038 0.99213 0.51777 0.0
H1912 H 0.53559 0.83702 0.95224 0.0
H1913 H 0.45792 0.83979 0.04683 0.0
H1914 H 0.45351 0.85279 0.95565 0.0
H1915 H 0.54141 0.83894 0.0437 0.0
H1916 H 0.45593 0.84584 0.0135 0.0
H1917 H 0.53832 0.83941 0.98565 0.0
C1918 C 0.51818 0.84142 0.95995 0.0
C1919 C 0.49423 0.8446 0.95102 0.0
C1920 C 0.4747 0.84458 0.0201 0.0
C1921 C 0.49719 0.84674 0.98947 0.0
C1922 C 0.47584 0.841 0.03911 0.0
C1923 C 0.49986 0.83865 0.048 0.0
C1924 C 0.49776 0.84553 0.00986 0.0
C1925 C 0.52249 0.84076 0.03739 0.0
C1926 C 0.51975 0.8426 0.97909 0.0
C1927 C 0.4723 0.84972 0.96189 0.0
N1928 N 0.52088 0.8438 0.01885 0.0
N1929 N 0.47427 0.85041 0.98053 0.0
H1930 H 0.15256 0.45559 0.95477 0.0
H1931 H 0.16862 0.54782 0.04269 0.0
H1932 H 0.17428 0.53639 0.95167 0.0
H1933 H 0.15998 0.46463 0.04622 0.0
H1934 H 0.1657 0.54478 0.00923 0.0
H1935 H 0.15029 0.45934 0.98826 0.0
C1936 C 0.15683 0.47412 0.9611 0.0
C1937 C 0.16371 0.49568 0.95033 0.0
C1938 C 0.16432 0.5272 0.01734 0.0
C1939 C 0.16089 0.50016 0.98867 0.0
C1940 C 0.1661 0.5289 0.03645 0.0
C1941 C 0.16474 0.50643 0.04732 0.0
C1942 C 0.16112 0.50284 0.00898 0.0
C1943 C 0.1609 0.48251 0.03845 0.0
C1944 C 0.15542 0.47627 0.98022 0.0
C1945 C 0.16857 0.51932 0.95933 0.0
N1946 N 0.15935 0.48134 0.0198 0.0
N1947 N 0.16716 0.52088 0.97795 0.0
H1948 H 0.49201 0.12918 0.04757 0.0
H1949 H 0.53816 0.19697 0.9545 0.0
H1950 H 0.517 0.20903 0.04378 0.0
H1951 H 0.48676 0.13092 0.9543 0.0
H1952 H 0.53676 0.19734 0.98803 0.0
H1953 H 0.49483 0.12587 0.01396 0.0
C1954 C 0.498 0.14602 0.03975 0.0
C1955 C 0.50449 0.16937 0.04864 0.0
C1956 C 0.52587 0.18268 0.98067 0.0
C1957 C 0.50825 0.16545 0.0103 0.0
C1958 C 0.52686 0.18229 0.96154 0.0
C1959 C 0.51259 0.16385 0.95161 0.0
C1960 C 0.51063 0.16438 0.99003 0.0
C1961 C 0.4979 0.14558 0.96146 0.0
C1962 C 0.49972 0.14404 0.02059 0.0
C1963 C 0.51243 0.19042 0.03771 0.0
N1964 N 0.49731 0.14627 0.98018 0.0
N1965 N 0.51419 0.1879 0.01919 0.0
H1966 H 0.83974 0.46276 0.95387 0.0
H1967 H 0.8367 0.53903 0.04795 0.0
H1968 H 0.85582 0.54493 0.95715 0.0
H1969 H 0.85178 0.45663 0.04523 0.0
H1970 H 0.84232 0.54173 0.01473 0.0
H1971 H 0.8429 0.46 0.98722 0.0
C1972 C 0.84439 0.48019 0.9615 0.0
C1973 C 0.84744 0.50418 0.95254 0.0
C1974 C 0.84465 0.52311 0.02145 0.0
C1975 C 0.85028 0.50115 0.99094 0.0
C1976 C 0.84158 0.52153 0.04048 0.0
C1977 C 0.84366 0.49751 0.04953 0.0
C1978 C 0.84943 0.50048 0.01129 0.0
C1979 C 0.84943 0.47548 0.03889 0.0
C1980 C 0.84601 0.47858 0.98061 0.0
C1981 C 0.85279 0.52612 0.96339 0.0
N1982 N 0.85185 0.47746 0.02032 0.0
N1983 N 0.85376 0.52412 0.98202 0.0
loop_
_geom_bond_atom_site_label_1
_geom_bond_atom_site_label_2
_geom_bond_distance
_geom_bond_site_symmetry_2
_ccdc_geom_bond_type
Li0 N17 1.990 . S
Li0 O60 1.956 1_455 S
Li0 O61 1.970 . S
Li0 O62 1.961 . S
Li1 N25 1.990 . S
Li1 O60 1.970 1_455 S
Li1 O61 1.956 . S
Li1 O63 1.961 1_455 S
Li2 N47 1.990 . S
Li2 O60 1.961 . S
Li2 O62 1.956 1_655 S
Li2 O63 1.970 . S
Li3 N53 1.990 . S
Li3 O61 1.961 . S
Li3 O62 1.970 . S
Li3 O63 1.956 1_455 S
C4 C6 1.348 . S
C4 C7 1.356 . S
C4 O60 1.325 . S
N5 C8 1.314 . S
N5 C9 1.279 . S
C6 C4 1.348 . S
C6 C8 1.353 . S
C6 H64 0.929 1_655 S
C7 C4 1.356 . S
C7 C9 1.358 . S
C7 H65 0.930 . S
C8 N5 1.314 . S
C8 C6 1.353 . S
C8 H66 0.930 . S
C9 N5 1.279 . S
C9 C7 1.358 . S
C9 H67 0.930 . S
C10 C13 1.348 . S
C10 C14 1.356 . S
C10 O61 1.325 . S
C11 N12 1.279 . S
C11 C14 1.358 . S
C11 H68 0.930 . S
N12 C11 1.279 . S
N12 C15 1.314 . S
C13 C10 1.348 . S
C13 C15 1.353 . S
C13 H69 0.929 . S
C14 C10 1.356 . S
C14 C11 1.358 . S
C14 H70 0.930 . S
C15 N12 1.314 . S
C15 C13 1.353 . S
C15 H71 0.930 . S
C16 N17 1.314 . S
C16 C21 1.353 . S
C16 H22 0.930 . S
N17 Li0 1.990 . S
N17 C16 1.314 . S
N17 C19 1.279 . S
C18 C19 1.358 . S
C18 C20 1.356 . S
C18 H72 0.930 . S
C19 N17 1.279 . S
C19 C18 1.358 . S
C19 H23 0.930 . S
C20 C18 1.356 . S
C20 C21 1.348 . S
C21 C16 1.353 . S
C21 C20 1.348 . S
C21 H73 0.929 . S
H22 C16 0.930 . S
H23 C19 0.930 . S
C24 N25 1.314 1_655 S
C24 C26 1.353 . S
C24 H30 0.930 . S
N25 Li1 1.990 . S
N25 C24 1.314 1_455 S
N25 C28 1.279 . S
C26 C24 1.353 . S
C26 C29 1.348 . S
C26 H74 0.929 . S
C27 C28 1.358 . S
C27 C29 1.356 1_455 S
C27 H75 0.930 . S
C28 N25 1.279 . S
C28 C27 1.358 . S
C28 H31 0.930 . S
C29 C26 1.348 . S
C29 C27 1.356 1_655 S
H30 C24 0.930 . S
H31 C28 0.930 . S
C32 C34 1.348 . S
C32 C35 1.356 . S
C32 O62 1.325 . S
N33 C36 1.314 . S
N33 C37 1.279 . S
C34 C32 1.348 . S
C34 C36 1.353 . S
C34 H76 0.930 1_455 S
C35 C32 1.356 . S
C35 C37 1.358 . S
C35 H77 0.930 . S
C36 N33 1.314 . S
C36 C34 1.353 . S
C36 H78 0.930 . S
C37 N33 1.279 . S
C37 C35 1.358 . S
C37 H79 0.930 . S
C38 C39 1.348 . S
C38 C40 1.356 . S
C38 O63 1.325 . S
C39 C38 1.348 . S
C39 C41 1.353 . S
C39 H80 0.929 . S
C40 C38 1.356 . S
C40 C42 1.358 . S
C40 H81 0.930 . S
C41 C39 1.353 . S
C41 N43 1.314 . S
C41 H82 0.930 . S
C42 C40 1.358 . S
C42 N43 1.279 . S
C42 H83 0.930 . S
N43 C41 1.314 . S
N43 C42 1.279 . S
C44 C46 1.353 . S
C44 N47 1.314 . S
C44 H50 0.930 . S
C45 N47 1.279 . S
C45 C48 1.358 . S
C45 H51 0.930 . S
C46 C44 1.353 . S
C46 C49 1.348 . S
C46 H84 0.929 . S
N47 Li2 1.990 . S
N47 C44 1.314 . S
N47 C45 1.279 . S
C48 C45 1.358 . S
C48 C49 1.356 . S
C48 H85 0.930 . S
C49 C46 1.348 . S
C49 C48 1.356 . S
H50 C44 0.930 . S
H51 C45 0.930 . S
C52 N53 1.314 . S
C52 C54 1.353 . S
C52 H58 0.930 . S
N53 Li3 1.990 . S
N53 C52 1.314 . S
N53 C56 1.279 1_455 S
C54 C52 1.353 . S
C54 C57 1.348 . S
C54 H86 0.929 . S
C55 C56 1.358 1_455 S
C55 C57 1.356 . S
C55 H87 0.930 1_455 S
C56 N53 1.279 1_655 S
C56 C55 1.358 1_655 S
C56 H59 0.930 . S
C57 C54 1.348 . S
C57 C55 1.356 . S
H58 C52 0.930 . S
H59 C56 0.930 . S
O60 Li0 1.956 1_655 S
O60 Li1 1.970 1_655 S
O60 Li2 1.961 . S
O60 C4 1.325 . S
O61 Li0 1.970 . S
O61 Li1 1.956 . S
O61 Li3 1.961 . S
O61 C10 1.325 . S
O62 Li0 1.961 . S
O62 Li2 1.956 1_455 S
O62 Li3 1.970 . S
O62 C32 1.325 . S
O63 Li1 1.961 1_655 S
O63 Li2 1.970 . S
O63 Li3 1.956 1_655 S
O63 C38 1.325 . S
H64 C6 0.929 1_455 S
H65 C7 0.930 . S
H66 C8 0.930 . S
H67 C9 0.930 . S
H68 C11 0.930 . S
H69 C13 0.929 . S
H70 C14 0.930 . S
H71 C15 0.930 . S
H72 C18 0.930 . S
H73 C21 0.929 . S
H74 C26 0.929 . S
H75 C27 0.930 . S
H76 C34 0.930 1_655 S
H77 C35 0.930 . S
H78 C36 0.930 . S
H79 C37 0.930 . S
H80 C39 0.929 . S
H81 C40 0.930 . S
H82 C41 0.930 . S
H83 C42 0.930 . S
H84 C46 0.929 . S
H85 C48 0.930 . S
H86 C54 0.929 . S
H87 C55 0.930 1_655 S
Li88 N105 1.990 . S
Li88 O148 1.956 . S
Li88 O149 1.970 . S
Li88 O150 1.961 1_545 S
Li89 N113 1.990 . S
Li89 O148 1.970 . S
Li89 O149 1.956 . S
Li89 O151 1.961 1_545 S
Li90 N135 1.990 . S
Li90 O148 1.961 1_565 S
Li90 O150 1.956 . S
Li90 O151 1.970 . S
Li91 N141 1.990 . S
Li91 O149 1.961 . S
Li91 O150 1.970 1_545 S
Li91 O151 1.956 1_545 S
C92 C94 1.348 . S
C92 C95 1.356 1_545 S
C92 O148 1.325 . S
N93 C96 1.314 . S
N93 C97 1.279 1_545 S
C94 C92 1.348 . S
C94 C96 1.353 . S
C94 H152 0.929 . S
C95 C92 1.356 1_565 S
C95 C97 1.358 . S
C95 H153 0.930 . S
C96 N93 1.314 . S
C96 C94 1.353 . S
C96 H154 0.930 . S
C97 N93 1.279 1_565 S
C97 C95 1.358 . S
C97 H155 0.930 . S
C98 C101 1.348 . S
C98 C102 1.356 . S
C98 O149 1.325 . S
C99 N100 1.279 . S
C99 C102 1.358 . S
C99 H156 0.930 . S
N100 C99 1.279 . S
N100 C103 1.314 . S
C101 C98 1.348 . S
C101 C103 1.353 . S
C101 H157 0.929 . S
C102 C98 1.356 . S
C102 C99 1.358 . S
C102 H158 0.930 . S
C103 N100 1.314 . S
C103 C101 1.353 . S
C103 H159 0.930 . S
C104 N105 1.314 . S
C104 C109 1.353 . S
C104 H110 0.930 . S
N105 Li88 1.990 . S
N105 C104 1.314 . S
N105 C107 1.279 . S
C106 C107 1.358 . S
C106 C108 1.356 . S
C106 H160 0.930 . S
C107 N105 1.279 . S
C107 C106 1.358 . S
C107 H111 0.930 . S
C108 C106 1.356 . S
C108 C109 1.348 . S
C109 C104 1.353 . S
C109 C108 1.348 . S
C109 H161 0.929 . S
H110 C104 0.930 . S
H111 C107 0.930 . S
C112 N113 1.314 . S
C112 C114 1.353 . S
C112 H118 0.930 . S
N113 Li89 1.990 . S
N113 C112 1.314 . S
N113 C116 1.279 . S
C114 C112 1.353 . S
C114 C117 1.348 . S
C114 H162 0.929 . S
C115 C116 1.358 . S
C115 C117 1.356 . S
C115 H163 0.930 . S
C116 N113 1.279 . S
C116 C115 1.358 . S
C116 H119 0.930 . S
C117 C114 1.348 . S
C117 C115 1.356 . S
H118 C112 0.930 . S
H119 C116 0.930 . S
C120 C122 1.348 . S
C120 C123 1.356 . S
C120 O150 1.325 . S
N121 C124 1.314 . S
N121 C125 1.279 . S
C122 C120 1.348 . S
C122 C124 1.353 . S
C122 H164 0.929 . S
C123 C120 1.356 . S
C123 C125 1.358 . S
C123 H165 0.930 . S
C124 N121 1.314 . S
C124 C122 1.353 . S
C124 H166 0.930 . S
C125 N121 1.279 . S
C125 C123 1.358 . S
C125 H167 0.930 . S
C126 C127 1.348 . S
C126 C128 1.356 1_565 S
C126 O151 1.325 . S
C127 C126 1.348 . S
C127 C129 1.353 . S
C127 H168 0.929 . S
C128 C126 1.356 1_545 S
C128 C130 1.358 . S
C128 H169 0.930 . S
C129 C127 1.353 . S
C129 N131 1.314 . S
C129 H170 0.930 . S
C130 C128 1.358 . S
C130 N131 1.279 1_545 S
C130 H171 0.930 . S
N131 C129 1.314 . S
N131 C130 1.279 1_565 S
C132 C134 1.353 . S
C132 N135 1.314 . S
C132 H138 0.930 . S
C133 N135 1.279 . S
C133 C136 1.358 . S
C133 H139 0.930 . S
C134 C132 1.353 . S
C134 C137 1.348 . S
C134 H172 0.929 . S
N135 Li90 1.990 . S
N135 C132 1.314 . S
N135 C133 1.279 . S
C136 C133 1.358 . S
C136 C137 1.356 . S
C136 H173 0.930 . S
C137 C134 1.348 . S
C137 C136 1.356 . S
H138 C132 0.930 . S
H139 C133 0.930 . S
C140 N141 1.314 . S
C140 C142 1.353 . S
C140 H146 0.930 . S
N141 Li91 1.990 . S
N141 C140 1.314 . S
N141 C144 1.279 1_545 S
C142 C140 1.353 . S
C142 C145 1.348 1_545 S
C142 H174 0.929 . S
C143 C144 1.358 . S
C143 C145 1.356 . S
C143 H175 0.930 . S
C144 N141 1.279 1_565 S
C144 C143 1.358 . S
C144 H147 0.930 . S
C145 C142 1.348 1_565 S
C145 C143 1.356 . S
H146 C140 0.930 . S
H147 C144 0.930 . S
O148 Li88 1.956 . S
O148 Li89 1.970 . S
O148 Li90 1.961 1_545 S
O148 C92 1.325 . S
O149 Li88 1.970 . S
O149 Li89 1.956 . S
O149 Li91 1.961 . S
O149 C98 1.325 . S
O150 Li88 1.961 1_565 S
O150 Li90 1.956 . S
O150 Li91 1.970 1_565 S
O150 C120 1.325 . S
O151 Li89 1.961 1_565 S
O151 Li90 1.970 . S
O151 Li91 1.956 1_565 S
O151 C126 1.325 . S
H152 C94 0.929 . S
H153 C95 0.930 . S
H154 C96 0.930 . S
H155 C97 0.930 . S
H156 C99 0.930 . S
H157 C101 0.929 . S
H158 C102 0.930 . S
H159 C103 0.930 . S
H160 C106 0.930 . S
H161 C109 0.929 . S
H162 C114 0.929 . S
H163 C115 0.930 . S
H164 C122 0.929 . S
H165 C123 0.930 . S
H166 C124 0.930 . S
H167 C125 0.930 . S
H168 C127 0.929 . S
H169 C128 0.930 . S
H170 C129 0.930 . S
H171 C130 0.930 . S
H172 C134 0.929 . S
H173 C136 0.930 . S
H174 C142 0.929 . S
H175 C143 0.930 . S
Li176 N193 1.990 . S
Li176 O236 1.956 1_655 S
Li176 O237 1.970 . S
Li176 O238 1.961 . S
Li177 N201 1.990 . S
Li177 O236 1.970 1_655 S
Li177 O237 1.956 . S
Li177 O239 1.961 1_655 S
Li178 N223 1.990 . S
Li178 O236 1.961 . S
Li178 O238 1.956 1_455 S
Li178 O239 1.970 . S
Li179 N229 1.990 . S
Li179 O237 1.961 . S
Li179 O238 1.970 . S
Li179 O239 1.956 1_655 S
C180 C182 1.348 . S
C180 C183 1.356 . S
C180 O236 1.325 . S
N181 C184 1.314 . S
N181 C185 1.279 . S
C182 C180 1.348 . S
C182 C184 1.353 . S
C182 H240 0.929 1_455 S
C183 C180 1.356 . S
C183 C185 1.358 . S
C183 H241 0.930 . S
C184 N181 1.314 . S
C184 C182 1.353 . S
C184 H242 0.930 . S
C185 N181 1.279 . S
C185 C183 1.358 . S
C185 H243 0.930 . S
C186 C189 1.348 . S
C186 C190 1.356 . S
C186 O237 1.325 . S
C187 N188 1.279 . S
C187 C190 1.358 . S
C187 H244 0.930 . S
N188 C187 1.279 . S
N188 C191 1.314 . S
C189 C186 1.348 . S
C189 C191 1.353 . S
C189 H245 0.929 . S
C190 C186 1.356 . S
C190 C187 1.358 . S
C190 H246 0.930 . S
C191 N188 1.314 . S
C191 C189 1.353 . S
C191 H247 0.930 . S
C192 N193 1.314 . S
C192 C197 1.353 . S
C192 H198 0.930 . S
N193 Li176 1.990 . S
N193 C192 1.314 . S
N193 C195 1.279 . S
C194 C195 1.358 . S
C194 C196 1.356 . S
C194 H248 0.930 . S
C195 N193 1.279 . S
C195 C194 1.358 . S
C195 H199 0.930 . S
C196 C194 1.356 . S
C196 C197 1.348 . S
C197 C192 1.353 . S
C197 C196 1.348 . S
C197 H249 0.929 . S
H198 C192 0.930 . S
H199 C195 0.930 . S
C200 N201 1.314 1_455 S
C200 C202 1.353 . S
C200 H206 0.930 . S
N201 Li177 1.990 . S
N201 C200 1.314 1_655 S
N201 C204 1.279 . S
C202 C200 1.353 . S
C202 C205 1.348 . S
C202 H250 0.929 . S
C203 C204 1.358 . S
C203 C205 1.356 1_655 S
C203 H251 0.930 . S
C204 N201 1.279 . S
C204 C203 1.358 . S
C204 H207 0.930 . S
C205 C202 1.348 . S
C205 C203 1.356 1_455 S
H206 C200 0.930 . S
H207 C204 0.930 . S
C208 C210 1.348 . S
C208 C211 1.356 . S
C208 O238 1.325 . S
N209 C212 1.314 . S
N209 C213 1.279 . S
C210 C208 1.348 . S
C210 C212 1.353 . S
C210 H252 0.930 1_655 S
C211 C208 1.356 . S
C211 C213 1.358 . S
C211 H253 0.930 . S
C212 N209 1.314 . S
C212 C210 1.353 . S
C212 H254 0.930 . S
C213 N209 1.279 . S
C213 C211 1.358 . S
C213 H255 0.930 . S
C214 C215 1.348 . S
C214 C216 1.356 . S
C214 O239 1.325 . S
C215 C214 1.348 . S
C215 C217 1.353 . S
C215 H256 0.929 . S
C216 C214 1.356 . S
C216 C218 1.358 . S
C216 H257 0.930 . S
C217 C215 1.353 . S
C217 N219 1.314 . S
C217 H258 0.930 . S
C218 C216 1.358 . S
C218 N219 1.279 . S
C218 H259 0.930 . S
N219 C217 1.314 . S
N219 C218 1.279 . S
C220 C222 1.353 . S
C220 N223 1.314 . S
C220 H226 0.930 . S
C221 N223 1.279 . S
C221 C224 1.358 . S
C221 H227 0.930 . S
C222 C220 1.353 . S
C222 C225 1.348 . S
C222 H260 0.929 . S
N223 Li178 1.990 . S
N223 C220 1.314 . S
N223 C221 1.279 . S
C224 C221 1.358 . S
C224 C225 1.356 . S
C224 H261 0.930 . S
C225 C222 1.348 . S
C225 C224 1.356 . S
H226 C220 0.930 . S
H227 C221 0.930 . S
C228 N229 1.314 . S
C228 C230 1.353 . S
C228 H234 0.930 . S
N229 Li179 1.990 . S
N229 C228 1.314 . S
N229 C232 1.279 1_655 S
C230 C228 1.353 . S
C230 C233 1.348 . S
C230 H262 0.929 . S
C231 C232 1.358 1_655 S
C231 C233 1.356 . S
C231 H263 0.930 1_655 S
C232 N229 1.279 1_455 S
C232 C231 1.358 1_455 S
C232 H235 0.930 . S
C233 C230 1.348 . S
C233 C231 1.356 . S
H234 C228 0.930 . S
H235 C232 0.930 . S
O236 Li176 1.956 1_455 S
O236 Li177 1.970 1_455 S
O236 Li178 1.961 . S
O236 C180 1.325 . S
O237 Li176 1.970 . S
O237 Li177 1.956 . S
O237 Li179 1.961 . S
O237 C186 1.325 . S
O238 Li176 1.961 . S
O238 Li178 1.956 1_655 S
O238 Li179 1.970 . S
O238 C208 1.325 . S
O239 Li177 1.961 1_455 S
O239 Li178 1.970 . S
O239 Li179 1.956 1_455 S
O239 C214 1.325 . S
H240 C182 0.929 1_655 S
H241 C183 0.930 . S
H242 C184 0.930 . S
H243 C185 0.930 . S
H244 C187 0.930 . S
H245 C189 0.929 . S
H246 C190 0.930 . S
H247 C191 0.930 . S
H248 C194 0.930 . S
H249 C197 0.929 . S
H250 C202 0.929 . S
H251 C203 0.930 . S
H252 C210 0.930 1_455 S
H253 C211 0.930 . S
H254 C212 0.930 . S
H255 C213 0.930 . S
H256 C215 0.929 . S
H257 C216 0.930 . S
H258 C217 0.930 . S
H259 C218 0.930 . S
H260 C222 0.929 . S
H261 C224 0.930 . S
H262 C230 0.929 . S
H263 C231 0.930 1_455 S
Li264 N281 1.990 . S
Li264 O324 1.956 1_565 S
Li264 O325 1.970 1_565 S
Li264 O326 1.961 . S
Li265 N289 1.990 . S
Li265 O324 1.970 . S
Li265 O325 1.956 . S
Li265 O327 1.961 1_545 S
Li266 N311 1.990 . S
Li266 O324 1.961 1_565 S
Li266 O326 1.956 . S
Li266 O327 1.970 . S
Li267 N317 1.990 . S
Li267 O325 1.961 1_565 S
Li267 O326 1.970 . S
Li267 O327 1.956 . S
C268 C270 1.348 . S
C268 C271 1.356 1_545 S
C268 O324 1.325 . S
N269 C272 1.314 . S
N269 C273 1.279 1_545 S
C270 C268 1.348 . S
C270 C272 1.353 . S
C270 H328 0.929 . S
C271 C268 1.356 1_565 S
C271 C273 1.358 . S
C271 H329 0.930 . S
C272 N269 1.314 . S
C272 C270 1.353 . S
C272 H330 0.930 . S
C273 N269 1.279 1_565 S
C273 C271 1.358 . S
C273 H331 0.930 . S
C274 C277 1.348 . S
C274 C278 1.356 . S
C274 O325 1.325 . S
C275 N276 1.279 . S
C275 C278 1.358 . S
C275 H332 0.930 . S
N276 C275 1.279 . S
N276 C279 1.314 . S
C277 C274 1.348 . S
C277 C279 1.353 . S
C277 H333 0.929 . S
C278 C274 1.356 . S
C278 C275 1.358 . S
C278 H334 0.930 . S
C279 N276 1.314 . S
C279 C277 1.353 . S
C279 H335 0.930 . S
C280 N281 1.314 . S
C280 C285 1.353 . S
C280 H286 0.930 . S
N281 Li264 1.990 . S
N281 C280 1.314 . S
N281 C283 1.279 1_565 S
C282 C283 1.358 . S
C282 C284 1.356 . S
C282 H336 0.930 . S
C283 N281 1.279 1_545 S
C283 C282 1.358 . S
C283 H287 0.930 . S
C284 C282 1.356 . S
C284 C285 1.348 1_545 S
C285 C280 1.353 . S
C285 C284 1.348 1_565 S
C285 H337 0.929 . S
H286 C280 0.930 . S
H287 C283 0.930 . S
C288 N289 1.314 . S
C288 C290 1.353 . S
C288 H294 0.930 . S
N289 Li265 1.990 . S
N289 C288 1.314 . S
N289 C292 1.279 . S
C290 C288 1.353 . S
C290 C293 1.348 . S
C290 H338 0.929 . S
C291 C292 1.358 . S
C291 C293 1.356 . S
C291 H339 0.930 . S
C292 N289 1.279 . S
C292 C291 1.358 . S
C292 H295 0.930 . S
C293 C290 1.348 . S
C293 C291 1.356 . S
H294 C288 0.930 . S
H295 C292 0.930 . S
C296 C298 1.348 . S
C296 C299 1.356 . S
C296 O326 1.325 . S
N297 C300 1.314 . S
N297 C301 1.279 . S
C298 C296 1.348 . S
C298 C300 1.353 . S
C298 H340 0.929 . S
C299 C296 1.356 . S
C299 C301 1.358 . S
C299 H341 0.930 . S
C300 N297 1.314 . S
C300 C298 1.353 . S
C300 H342 0.930 . S
C301 N297 1.279 . S
C301 C299 1.358 . S
C301 H343 0.930 . S
C302 C303 1.348 . S
C302 C304 1.356 1_565 S
C302 O327 1.325 . S
C303 C302 1.348 . S
C303 C305 1.353 . S
C303 H344 0.929 . S
C304 C302 1.356 1_545 S
C304 C306 1.358 . S
C304 H345 0.930 . S
C305 C303 1.353 . S
C305 N307 1.314 . S
C305 H346 0.930 . S
C306 C304 1.358 . S
C306 N307 1.279 1_545 S
C306 H347 0.930 . S
N307 C305 1.314 . S
N307 C306 1.279 1_565 S
C308 C310 1.353 . S
C308 N311 1.314 . S
C308 H314 0.930 . S
C309 N311 1.279 . S
C309 C312 1.358 . S
C309 H315 0.930 . S
C310 C308 1.353 . S
C310 C313 1.348 . S
C310 H348 0.929 . S
N311 Li266 1.990 . S
N311 C308 1.314 . S
N311 C309 1.279 . S
C312 C309 1.358 . S
C312 C313 1.356 . S
C312 H349 0.930 . S
C313 C310 1.348 . S
C313 C312 1.356 . S
H314 C308 0.930 . S
H315 C309 0.930 . S
C316 N317 1.314 . S
C316 C318 1.353 . S
C316 H322 0.930 . S
N317 Li267 1.990 . S
N317 C316 1.314 . S
N317 C320 1.279 . S
C318 C316 1.353 . S
C318 C321 1.348 . S
C318 H350 0.929 . S
C319 C320 1.358 . S
C319 C321 1.356 . S
C319 H351 0.930 . S
C320 N317 1.279 . S
C320 C319 1.358 . S
C320 H323 0.930 . S
C321 C318 1.348 . S
C321 C319 1.356 . S
H322 C316 0.930 . S
H323 C320 0.930 . S
O324 Li264 1.956 1_545 S
O324 Li265 1.970 . S
O324 Li266 1.961 1_545 S
O324 C268 1.325 . S
O325 Li264 1.970 1_545 S
O325 Li265 1.956 . S
O325 Li267 1.961 1_545 S
O325 C274 1.325 . S
O326 Li264 1.961 . S
O326 Li266 1.956 . S
O326 Li267 1.970 . S
O326 C296 1.325 . S
O327 Li265 1.961 1_565 S
O327 Li266 1.970 . S
O327 Li267 1.956 . S
O327 C302 1.325 . S
H328 C270 0.929 . S
H329 C271 0.930 . S
H330 C272 0.930 . S
H331 C273 0.930 . S
H332 C275 0.930 . S
H333 C277 0.929 . S
H334 C278 0.930 . S
H335 C279 0.930 . S
H336 C282 0.930 . S
H337 C285 0.929 . S
H338 C290 0.929 . S
H339 C291 0.930 . S
H340 C298 0.929 . S
H341 C299 0.930 . S
H342 C300 0.930 . S
H343 C301 0.930 . S
H344 C303 0.929 . S
H345 C304 0.930 . S
H346 C305 0.930 . S
H347 C306 0.930 . S
H348 C310 0.929 . S
H349 C312 0.930 . S
H350 C318 0.929 . S
H351 C319 0.930 . S
Li352 N369 1.990 . S
Li352 O412 1.956 1_455 S
Li352 O413 1.970 . S
Li352 O414 1.961 . S
Li353 N377 1.990 . S
Li353 O412 1.970 . S
Li353 O413 1.956 1_655 S
Li353 O415 1.961 . S
Li354 N399 1.990 . S
Li354 O412 1.961 1_455 S
Li354 O414 1.956 . S
Li354 O415 1.970 1_455 S
Li355 N405 1.990 . S
Li355 O413 1.961 . S
Li355 O414 1.970 . S
Li355 O415 1.956 1_455 S
C356 C358 1.348 . S
C356 C359 1.356 . S
C356 O412 1.325 . S
N357 C360 1.314 . S
N357 C361 1.279 . S
C358 C356 1.348 . S
C358 C360 1.353 . S
C358 H416 0.929 . S
C359 C356 1.356 . S
C359 C361 1.358 . S
C359 H417 0.930 . S
C360 N357 1.314 . S
C360 C358 1.353 . S
C360 H418 0.930 . S
C361 N357 1.279 . S
C361 C359 1.358 . S
C361 H419 0.930 . S
C362 C365 1.348 . S
C362 C366 1.356 . S
C362 O413 1.325 . S
C363 N364 1.279 . S
C363 C366 1.358 . S
C363 H420 0.930 . S
N364 C363 1.279 . S
N364 C367 1.314 . S
C365 C362 1.348 . S
C365 C367 1.353 . S
C365 H421 0.930 1_455 S
C366 C362 1.356 . S
C366 C363 1.358 . S
C366 H422 0.930 . S
C367 N364 1.314 . S
C367 C365 1.353 . S
C367 H423 0.930 . S
C368 N369 1.314 . S
C368 C373 1.353 . S
C368 H374 0.930 . S
N369 Li352 1.990 . S
N369 C368 1.314 . S
N369 C371 1.279 1_455 S
C370 C371 1.358 1_455 S
C370 C372 1.356 . S
C370 H424 0.930 1_455 S
C371 N369 1.279 1_655 S
C371 C370 1.358 1_655 S
C371 H375 0.930 . S
C372 C370 1.356 . S
C372 C373 1.348 . S
C373 C368 1.353 . S
C373 C372 1.348 . S
C373 H425 0.929 . S
H374 C368 0.930 . S
H375 C371 0.930 . S
C376 N377 1.314 . S
C376 C378 1.353 . S
C376 H382 0.930 . S
N377 Li353 1.990 . S
N377 C376 1.314 . S
N377 C380 1.279 . S
C378 C376 1.353 . S
C378 C381 1.348 . S
C378 H426 0.929 . S
C379 C380 1.358 . S
C379 C381 1.356 . S
C379 H427 0.930 . S
C380 N377 1.279 . S
C380 C379 1.358 . S
C380 H383 0.930 . S
C381 C378 1.348 . S
C381 C379 1.356 . S
H382 C376 0.930 . S
H383 C380 0.930 . S
C384 C386 1.348 . S
C384 C387 1.356 . S
C384 O414 1.325 . S
N385 C388 1.314 . S
N385 C389 1.279 . S
C386 C384 1.348 . S
C386 C388 1.353 . S
C386 H428 0.929 . S
C387 C384 1.356 . S
C387 C389 1.358 . S
C387 H429 0.930 . S
C388 N385 1.314 . S
C388 C386 1.353 . S
C388 H430 0.930 . S
C389 N385 1.279 . S
C389 C387 1.358 . S
C389 H431 0.930 . S
C390 C391 1.348 . S
C390 C392 1.356 . S
C390 O415 1.325 . S
C391 C390 1.348 . S
C391 C393 1.353 . S
C391 H432 0.929 1_655 S
C392 C390 1.356 . S
C392 C394 1.358 . S
C392 H433 0.930 . S
C393 C391 1.353 . S
C393 N395 1.314 . S
C393 H434 0.930 . S
C394 C392 1.358 . S
C394 N395 1.279 . S
C394 H435 0.930 . S
N395 C393 1.314 . S
N395 C394 1.279 . S
C396 C398 1.353 . S
C396 N399 1.314 1_655 S
C396 H402 0.930 . S
C397 N399 1.279 . S
C397 C400 1.358 . S
C397 H403 0.930 . S
C398 C396 1.353 . S
C398 C401 1.348 . S
C398 H436 0.929 . S
N399 Li354 1.990 . S
N399 C396 1.314 1_455 S
N399 C397 1.279 . S
C400 C397 1.358 . S
C400 C401 1.356 1_455 S
C400 H437 0.930 . S
C401 C398 1.348 . S
C401 C400 1.356 1_655 S
H402 C396 0.930 . S
H403 C397 0.930 . S
C404 N405 1.314 . S
C404 C406 1.353 . S
C404 H410 0.930 . S
N405 Li355 1.990 . S
N405 C404 1.314 . S
N405 C408 1.279 . S
C406 C404 1.353 . S
C406 C409 1.348 . S
C406 H438 0.929 . S
C407 C408 1.358 . S
C407 C409 1.356 . S
C407 H439 0.930 . S
C408 N405 1.279 . S
C408 C407 1.358 . S
C408 H411 0.930 . S
C409 C406 1.348 . S
C409 C407 1.356 . S
H410 C404 0.930 . S
H411 C408 0.930 . S
O412 Li352 1.956 1_655 S
O412 Li353 1.970 . S
O412 Li354 1.961 1_655 S
O412 C356 1.325 . S
O413 Li352 1.970 . S
O413 Li353 1.956 1_455 S
O413 Li355 1.961 . S
O413 C362 1.325 . S
O414 Li352 1.961 . S
O414 Li354 1.956 . S
O414 Li355 1.970 . S
O414 C384 1.325 . S
O415 Li353 1.961 . S
O415 Li354 1.970 1_655 S
O415 Li355 1.956 1_655 S
O415 C390 1.325 . S
H416 C358 0.929 . S
H417 C359 0.930 . S
H418 C360 0.930 . S
H419 C361 0.930 . S
H420 C363 0.930 . S
H421 C365 0.930 1_655 S
H422 C366 0.930 . S
H423 C367 0.930 . S
H424 C370 0.930 1_655 S
H425 C373 0.929 . S
H426 C378 0.929 . S
H427 C379 0.930 . S
H428 C386 0.929 . S
H429 C387 0.930 . S
H430 C388 0.930 . S
H431 C389 0.930 . S
H432 C391 0.929 1_455 S
H433 C392 0.930 . S
H434 C393 0.930 . S
H435 C394 0.930 . S
H436 C398 0.929 . S
H437 C400 0.930 . S
H438 C406 0.929 . S
H439 C407 0.930 . S
Li440 N457 1.990 . S
Li440 O500 1.956 . S
Li440 O501 1.970 . S
Li440 O502 1.961 1_545 S
Li441 N465 1.990 . S
Li441 O500 1.970 . S
Li441 O501 1.956 . S
Li441 O503 1.961 1_545 S
Li442 N487 1.990 . S
Li442 O500 1.961 . S
Li442 O502 1.956 1_545 S
Li442 O503 1.970 1_545 S
Li443 N493 1.990 . S
Li443 O501 1.961 1_565 S
Li443 O502 1.970 . S
Li443 O503 1.956 . S
C444 C446 1.348 . S
C444 C447 1.356 . S
C444 O500 1.325 . S
N445 C448 1.314 . S
N445 C449 1.279 . S
C446 C444 1.348 . S
C446 C448 1.353 . S
C446 H504 0.929 . S
C447 C444 1.356 . S
C447 C449 1.358 . S
C447 H505 0.930 . S
C448 N445 1.314 . S
C448 C446 1.353 . S
C448 H506 0.930 . S
C449 N445 1.279 . S
C449 C447 1.358 . S
C449 H507 0.930 . S
C450 C453 1.348 . S
C450 C454 1.356 1_545 S
C450 O501 1.325 . S
C451 N452 1.279 1_565 S
C451 C454 1.358 . S
C451 H508 0.930 . S
N452 C451 1.279 1_545 S
N452 C455 1.314 . S
C453 C450 1.348 . S
C453 C455 1.353 . S
C453 H509 0.929 . S
C454 C450 1.356 1_565 S
C454 C451 1.358 . S
C454 H510 0.930 . S
C455 N452 1.314 . S
C455 C453 1.353 . S
C455 H511 0.930 . S
C456 N457 1.314 . S
C456 C461 1.353 . S
C456 H462 0.930 . S
N457 Li440 1.990 . S
N457 C456 1.314 . S
N457 C459 1.279 . S
C458 C459 1.358 . S
C458 C460 1.356 . S
C458 H512 0.930 . S
C459 N457 1.279 . S
C459 C458 1.358 . S
C459 H463 0.930 . S
C460 C458 1.356 . S
C460 C461 1.348 . S
C461 C456 1.353 . S
C461 C460 1.348 . S
C461 H513 0.929 . S
H462 C456 0.930 . S
H463 C459 0.930 . S
C464 N465 1.314 . S
C464 C466 1.353 . S
C464 H470 0.930 . S
N465 Li441 1.990 . S
N465 C464 1.314 . S
N465 C468 1.279 . S
C466 C464 1.353 . S
C466 C469 1.348 . S
C466 H514 0.929 . S
C467 C468 1.358 . S
C467 C469 1.356 . S
C467 H515 0.930 . S
C468 N465 1.279 . S
C468 C467 1.358 . S
C468 H471 0.930 . S
C469 C466 1.348 . S
C469 C467 1.356 . S
H470 C464 0.930 . S
H471 C468 0.930 . S
C472 C474 1.348 . S
C472 C475 1.356 1_565 S
C472 O502 1.325 . S
N473 C476 1.314 . S
N473 C477 1.279 1_565 S
C474 C472 1.348 . S
C474 C476 1.353 . S
C474 H516 0.929 . S
C475 C472 1.356 1_545 S
C475 C477 1.358 . S
C475 H517 0.930 . S
C476 N473 1.314 . S
C476 C474 1.353 . S
C476 H518 0.930 . S
C477 N473 1.279 1_545 S
C477 C475 1.358 . S
C477 H519 0.930 . S
C478 C479 1.348 . S
C478 C480 1.356 . S
C478 O503 1.325 . S
C479 C478 1.348 . S
C479 C481 1.353 . S
C479 H520 0.929 . S
C480 C478 1.356 . S
C480 C482 1.358 . S
C480 H521 0.930 . S
C481 C479 1.353 . S
C481 N483 1.314 . S
C481 H522 0.930 . S
C482 C480 1.358 . S
C482 N483 1.279 . S
C482 H523 0.930 . S
N483 C481 1.314 . S
N483 C482 1.279 . S
C484 C486 1.353 . S
C484 N487 1.314 . S
C484 H490 0.930 . S
C485 N487 1.279 1_565 S
C485 C488 1.358 . S
C485 H491 0.930 . S
C486 C484 1.353 . S
C486 C489 1.348 1_545 S
C486 H524 0.929 . S
N487 Li442 1.990 . S
N487 C484 1.314 . S
N487 C485 1.279 1_545 S
C488 C485 1.358 . S
C488 C489 1.356 . S
C488 H525 0.930 . S
C489 C486 1.348 1_565 S
C489 C488 1.356 . S
H490 C484 0.930 . S
H491 C485 0.930 . S
C492 N493 1.314 . S
C492 C494 1.353 . S
C492 H498 0.930 . S
N493 Li443 1.990 . S
N493 C492 1.314 . S
N493 C496 1.279 . S
C494 C492 1.353 . S
C494 C497 1.348 . S
C494 H526 0.929 . S
C495 C496 1.358 . S
C495 C497 1.356 . S
C495 H527 0.930 . S
C496 N493 1.279 . S
C496 C495 1.358 . S
C496 H499 0.930 . S
C497 C494 1.348 . S
C497 C495 1.356 . S
H498 C492 0.930 . S
H499 C496 0.930 . S
O500 Li440 1.956 . S
O500 Li441 1.970 . S
O500 Li442 1.961 . S
O500 C444 1.325 . S
O501 Li440 1.970 . S
O501 Li441 1.956 . S
O501 Li443 1.961 1_545 S
O501 C450 1.325 . S
O502 Li440 1.961 1_565 S
O502 Li442 1.956 1_565 S
O502 Li443 1.970 . S
O502 C472 1.325 . S
O503 Li441 1.961 1_565 S
O503 Li442 1.970 1_565 S
O503 Li443 1.956 . S
O503 C478 1.325 . S
H504 C446 0.929 . S
H505 C447 0.930 . S
H506 C448 0.930 . S
H507 C449 0.930 . S
H508 C451 0.930 . S
H509 C453 0.929 . S
H510 C454 0.930 . S
H511 C455 0.930 . S
H512 C458 0.930 . S
H513 C461 0.929 . S
H514 C466 0.929 . S
H515 C467 0.930 . S
H516 C474 0.929 . S
H517 C475 0.930 . S
H518 C476 0.930 . S
H519 C477 0.930 . S
H520 C479 0.929 . S
H521 C480 0.930 . S
H522 C481 0.930 . S
H523 C482 0.930 . S
H524 C486 0.929 . S
H525 C488 0.930 . S
H526 C494 0.929 . S
H527 C495 0.930 . S
Li528 N545 1.990 . S
Li528 O588 1.956 1_655 S
Li528 O589 1.970 . S
Li528 O590 1.961 . S
Li529 N553 1.990 . S
Li529 O588 1.970 . S
Li529 O589 1.956 1_455 S
Li529 O591 1.961 . S
Li530 N575 1.990 . S
Li530 O588 1.961 1_655 S
Li530 O590 1.956 . S
Li530 O591 1.970 1_655 S
Li531 N581 1.990 . S
Li531 O589 1.961 . S
Li531 O590 1.970 . S
Li531 O591 1.956 1_655 S
C532 C534 1.348 . S
C532 C535 1.356 . S
C532 O588 1.325 . S
N533 C536 1.314 . S
N533 C537 1.279 . S
C534 C532 1.348 . S
C534 C536 1.353 . S
C534 H592 0.929 . S
C535 C532 1.356 . S
C535 C537 1.358 . S
C535 H593 0.930 . S
C536 N533 1.314 . S
C536 C534 1.353 . S
C536 H594 0.930 . S
C537 N533 1.279 . S
C537 C535 1.358 . S
C537 H595 0.930 . S
C538 C541 1.348 . S
C538 C542 1.356 . S
C538 O589 1.325 . S
C539 N540 1.279 . S
C539 C542 1.358 . S
C539 H596 0.930 . S
N540 C539 1.279 . S
N540 C543 1.314 . S
C541 C538 1.348 . S
C541 C543 1.353 . S
C541 H597 0.930 1_655 S
C542 C538 1.356 . S
C542 C539 1.358 . S
C542 H598 0.930 . S
C543 N540 1.314 . S
C543 C541 1.353 . S
C543 H599 0.930 . S
C544 N545 1.314 . S
C544 C549 1.353 . S
C544 H550 0.930 . S
N545 Li528 1.990 . S
N545 C544 1.314 . S
N545 C547 1.279 1_655 S
C546 C547 1.358 1_655 S
C546 C548 1.356 . S
C546 H600 0.930 1_655 S
C547 N545 1.279 1_455 S
C547 C546 1.358 1_455 S
C547 H551 0.930 . S
C548 C546 1.356 . S
C548 C549 1.348 . S
C549 C544 1.353 . S
C549 C548 1.348 . S
C549 H601 0.929 . S
H550 C544 0.930 . S
H551 C547 0.930 . S
C552 N553 1.314 . S
C552 C554 1.353 . S
C552 H558 0.930 . S
N553 Li529 1.990 . S
N553 C552 1.314 . S
N553 C556 1.279 . S
C554 C552 1.353 . S
C554 C557 1.348 . S
C554 H602 0.929 . S
C555 C556 1.358 . S
C555 C557 1.356 . S
C555 H603 0.930 . S
C556 N553 1.279 . S
C556 C555 1.358 . S
C556 H559 0.930 . S
C557 C554 1.348 . S
C557 C555 1.356 . S
H558 C552 0.930 . S
H559 C556 0.930 . S
C560 C562 1.348 . S
C560 C563 1.356 . S
C560 O590 1.325 . S
N561 C564 1.314 . S
N561 C565 1.279 . S
C562 C560 1.348 . S
C562 C564 1.353 . S
C562 H604 0.929 . S
C563 C560 1.356 . S
C563 C565 1.358 . S
C563 H605 0.930 . S
C564 N561 1.314 . S
C564 C562 1.353 . S
C564 H606 0.930 . S
C565 N561 1.279 . S
C565 C563 1.358 . S
C565 H607 0.930 . S
C566 C567 1.348 . S
C566 C568 1.356 . S
C566 O591 1.325 . S
C567 C566 1.348 . S
C567 C569 1.353 . S
C567 H608 0.929 1_455 S
C568 C566 1.356 . S
C568 C570 1.358 . S
C568 H609 0.930 . S
C569 C567 1.353 . S
C569 N571 1.314 . S
C569 H610 0.930 . S
C570 C568 1.358 . S
C570 N571 1.279 . S
C570 H611 0.930 . S
N571 C569 1.314 . S
N571 C570 1.279 . S
C572 C574 1.353 . S
C572 N575 1.314 1_455 S
C572 H578 0.930 . S
C573 N575 1.279 . S
C573 C576 1.358 . S
C573 H579 0.930 . S
C574 C572 1.353 . S
C574 C577 1.348 . S
C574 H612 0.929 . S
N575 Li530 1.990 . S
N575 C572 1.314 1_655 S
N575 C573 1.279 . S
C576 C573 1.358 . S
C576 C577 1.356 1_655 S
C576 H613 0.930 . S
C577 C574 1.348 . S
C577 C576 1.356 1_455 S
H578 C572 0.930 . S
H579 C573 0.930 . S
C580 N581 1.314 . S
C580 C582 1.353 . S
C580 H586 0.930 . S
N581 Li531 1.990 . S
N581 C580 1.314 . S
N581 C584 1.279 . S
C582 C580 1.353 . S
C582 C585 1.348 . S
C582 H614 0.929 . S
C583 C584 1.358 . S
C583 C585 1.356 . S
C583 H615 0.930 . S
C584 N581 1.279 . S
C584 C583 1.358 . S
C584 H587 0.930 . S
C585 C582 1.348 . S
C585 C583 1.356 . S
H586 C580 0.930 . S
H587 C584 0.930 . S
O588 Li528 1.956 1_455 S
O588 Li529 1.970 . S
O588 Li530 1.961 1_455 S
O588 C532 1.325 . S
O589 Li528 1.970 . S
O589 Li529 1.956 1_655 S
O589 Li531 1.961 . S
O589 C538 1.325 . S
O590 Li528 1.961 . S
O590 Li530 1.956 . S
O590 Li531 1.970 . S
O590 C560 1.325 . S
O591 Li529 1.961 . S
O591 Li530 1.970 1_455 S
O591 Li531 1.956 1_455 S
O591 C566 1.325 . S
H592 C534 0.929 . S
H593 C535 0.930 . S
H594 C536 0.930 . S
H595 C537 0.930 . S
H596 C539 0.930 . S
H597 C541 0.930 1_455 S
H598 C542 0.930 . S
H599 C543 0.930 . S
H600 C546 0.930 1_455 S
H601 C549 0.929 . S
H602 C554 0.929 . S
H603 C555 0.930 . S
H604 C562 0.929 . S
H605 C563 0.930 . S
H606 C564 0.930 . S
H607 C565 0.930 . S
H608 C567 0.929 1_655 S
H609 C568 0.930 . S
H610 C569 0.930 . S
H611 C570 0.930 . S
H612 C574 0.929 . S
H613 C576 0.930 . S
H614 C582 0.929 . S
H615 C583 0.930 . S
Li616 N633 1.990 . S
Li616 O676 1.956 . S
Li616 O677 1.970 . S
Li616 O678 1.961 1_545 S
Li617 N641 1.990 . S
Li617 O676 1.970 1_565 S
Li617 O677 1.956 1_565 S
Li617 O679 1.961 . S
Li618 N663 1.990 . S
Li618 O676 1.961 1_565 S
Li618 O678 1.956 . S
Li618 O679 1.970 . S
Li619 N669 1.990 . S
Li619 O677 1.961 1_565 S
Li619 O678 1.970 . S
Li619 O679 1.956 . S
C620 C622 1.348 . S
C620 C623 1.356 . S
C620 O676 1.325 . S
N621 C624 1.314 . S
N621 C625 1.279 . S
C622 C620 1.348 . S
C622 C624 1.353 . S
C622 H680 0.929 . S
C623 C620 1.356 . S
C623 C625 1.358 . S
C623 H681 0.930 . S
C624 N621 1.314 . S
C624 C622 1.353 . S
C624 H682 0.930 . S
C625 N621 1.279 . S
C625 C623 1.358 . S
C625 H683 0.930 . S
C626 C629 1.348 . S
C626 C630 1.356 1_545 S
C626 O677 1.325 . S
C627 N628 1.279 1_565 S
C627 C630 1.358 . S
C627 H684 0.930 . S
N628 C627 1.279 1_545 S
N628 C631 1.314 . S
C629 C626 1.348 . S
C629 C631 1.353 . S
C629 H685 0.929 . S
C630 C626 1.356 1_565 S
C630 C627 1.358 . S
C630 H686 0.930 . S
C631 N628 1.314 . S
C631 C629 1.353 . S
C631 H687 0.930 . S
C632 N633 1.314 . S
C632 C637 1.353 . S
C632 H638 0.930 . S
N633 Li616 1.990 . S
N633 C632 1.314 . S
N633 C635 1.279 . S
C634 C635 1.358 . S
C634 C636 1.356 . S
C634 H688 0.930 . S
C635 N633 1.279 . S
C635 C634 1.358 . S
C635 H639 0.930 . S
C636 C634 1.356 . S
C636 C637 1.348 . S
C637 C632 1.353 . S
C637 C636 1.348 . S
C637 H689 0.929 . S
H638 C632 0.930 . S
H639 C635 0.930 . S
C640 N641 1.314 . S
C640 C642 1.353 . S
C640 H646 0.930 . S
N641 Li617 1.990 . S
N641 C640 1.314 . S
N641 C644 1.279 1_565 S
C642 C640 1.353 . S
C642 C645 1.348 1_565 S
C642 H690 0.929 . S
C643 C644 1.358 . S
C643 C645 1.356 . S
C643 H691 0.930 . S
C644 N641 1.279 1_545 S
C644 C643 1.358 . S
C644 H647 0.930 . S
C645 C642 1.348 1_545 S
C645 C643 1.356 . S
H646 C640 0.930 . S
H647 C644 0.930 . S
C648 C650 1.348 . S
C648 C651 1.356 1_565 S
C648 O678 1.325 . S
N649 C652 1.314 . S
N649 C653 1.279 1_565 S
C650 C648 1.348 . S
C650 C652 1.353 . S
C650 H692 0.929 . S
C651 C648 1.356 1_545 S
C651 C653 1.358 . S
C651 H693 0.930 . S
C652 N649 1.314 . S
C652 C650 1.353 . S
C652 H694 0.930 . S
C653 N649 1.279 1_545 S
C653 C651 1.358 . S
C653 H695 0.930 . S
C654 C655 1.348 . S
C654 C656 1.356 . S
C654 O679 1.325 . S
C655 C654 1.348 . S
C655 C657 1.353 . S
C655 H696 0.929 . S
C656 C654 1.356 . S
C656 C658 1.358 . S
C656 H697 0.930 . S
C657 C655 1.353 . S
C657 N659 1.314 . S
C657 H698 0.930 . S
C658 C656 1.358 . S
C658 N659 1.279 . S
C658 H699 0.930 . S
N659 C657 1.314 . S
N659 C658 1.279 . S
C660 C662 1.353 . S
C660 N663 1.314 . S
C660 H666 0.930 . S
C661 N663 1.279 . S
C661 C664 1.358 . S
C661 H667 0.930 . S
C662 C660 1.353 . S
C662 C665 1.348 . S
C662 H700 0.929 . S
N663 Li618 1.990 . S
N663 C660 1.314 . S
N663 C661 1.279 . S
C664 C661 1.358 . S
C664 C665 1.356 . S
C664 H701 0.930 . S
C665 C662 1.348 . S
C665 C664 1.356 . S
H666 C660 0.930 . S
H667 C661 0.930 . S
C668 N669 1.314 . S
C668 C670 1.353 . S
C668 H674 0.930 . S
N669 Li619 1.990 . S
N669 C668 1.314 . S
N669 C672 1.279 . S
C670 C668 1.353 . S
C670 C673 1.348 . S
C670 H702 0.929 . S
C671 C672 1.358 . S
C671 C673 1.356 . S
C671 H703 0.930 . S
C672 N669 1.279 . S
C672 C671 1.358 . S
C672 H675 0.930 . S
C673 C670 1.348 . S
C673 C671 1.356 . S
H674 C668 0.930 . S
H675 C672 0.930 . S
O676 Li616 1.956 . S
O676 Li617 1.970 1_545 S
O676 Li618 1.961 1_545 S
O676 C620 1.325 . S
O677 Li616 1.970 . S
O677 Li617 1.956 1_545 S
O677 Li619 1.961 1_545 S
O677 C626 1.325 . S
O678 Li616 1.961 1_565 S
O678 Li618 1.956 . S
O678 Li619 1.970 . S
O678 C648 1.325 . S
O679 Li617 1.961 . S
O679 Li618 1.970 . S
O679 Li619 1.956 . S
O679 C654 1.325 . S
H680 C622 0.929 . S
H681 C623 0.930 . S
H682 C624 0.930 . S
H683 C625 0.930 . S
H684 C627 0.930 . S
H685 C629 0.929 . S
H686 C630 0.930 . S
H687 C631 0.930 . S
H688 C634 0.930 . S
H689 C637 0.929 . S
H690 C642 0.929 . S
H691 C643 0.930 . S
H692 C650 0.929 . S
H693 C651 0.930 . S
H694 C652 0.930 . S
H695 C653 0.930 . S
H696 C655 0.929 . S
H697 C656 0.930 . S
H698 C657 0.930 . S
H699 C658 0.930 . S
H700 C662 0.929 . S
H701 C664 0.930 . S
H702 C670 0.929 . S
H703 C671 0.930 . S
Li704 N721 1.990 . S
Li704 O764 1.956 . S
Li704 O765 1.970 . S
Li704 O766 1.961 . S
Li705 N729 1.990 . S
Li705 O764 1.970 . S
Li705 O765 1.956 . S
Li705 O767 1.961 . S
Li706 N751 1.990 . S
Li706 O764 1.961 . S
Li706 O766 1.956 . S
Li706 O767 1.970 . S
Li707 N757 1.990 . S
Li707 O765 1.961 . S
Li707 O766 1.970 . S
Li707 O767 1.956 . S
C708 C710 1.348 . S
C708 C711 1.356 . S
C708 O764 1.325 . S
N709 C712 1.314 . S
N709 C713 1.279 . S
C710 C708 1.348 . S
C710 C712 1.353 . S
C710 H768 0.929 . S
C711 C708 1.356 . S
C711 C713 1.358 . S
C711 H769 0.930 . S
C712 N709 1.314 . S
C712 C710 1.353 . S
C712 H770 0.930 . S
C713 N709 1.279 . S
C713 C711 1.358 . S
C713 H771 0.930 . S
C714 C717 1.348 . S
C714 C718 1.356 . S
C714 O765 1.325 . S
C715 N716 1.279 . S
C715 C718 1.358 . S
C715 H772 0.930 . S
N716 C715 1.279 . S
N716 C719 1.314 . S
C717 C714 1.348 . S
C717 C719 1.353 . S
C717 H773 0.929 . S
C718 C714 1.356 . S
C718 C715 1.358 . S
C718 H774 0.930 . S
C719 N716 1.314 . S
C719 C717 1.353 . S
C719 H775 0.930 . S
C720 N721 1.314 . S
C720 C725 1.353 . S
C720 H726 0.930 . S
N721 Li704 1.990 . S
N721 C720 1.314 . S
N721 C723 1.279 . S
C722 C723 1.358 . S
C722 C724 1.356 . S
C722 H776 0.930 . S
C723 N721 1.279 . S
C723 C722 1.358 . S
C723 H727 0.930 . S
C724 C722 1.356 . S
C724 C725 1.348 . S
C725 C720 1.353 . S
C725 C724 1.348 . S
C725 H777 0.929 . S
H726 C720 0.930 . S
H727 C723 0.930 . S
C728 N729 1.314 . S
C728 C730 1.353 . S
C728 H734 0.930 . S
N729 Li705 1.990 . S
N729 C728 1.314 . S
N729 C732 1.279 . S
C730 C728 1.353 . S
C730 C733 1.348 . S
C730 H778 0.929 . S
C731 C732 1.358 . S
C731 C733 1.356 . S
C731 H779 0.930 . S
C732 N729 1.279 . S
C732 C731 1.358 . S
C732 H735 0.930 . S
C733 C730 1.348 . S
C733 C731 1.356 . S
H734 C728 0.930 . S
H735 C732 0.930 . S
C736 C738 1.348 . S
C736 C739 1.356 . S
C736 O766 1.325 . S
N737 C740 1.314 . S
N737 C741 1.279 . S
C738 C736 1.348 . S
C738 C740 1.353 . S
C738 H780 0.929 . S
C739 C736 1.356 . S
C739 C741 1.358 . S
C739 H781 0.930 . S
C740 N737 1.314 . S
C740 C738 1.353 . S
C740 H782 0.930 . S
C741 N737 1.279 . S
C741 C739 1.358 . S
C741 H783 0.930 . S
C742 C743 1.348 . S
C742 C744 1.356 . S
C742 O767 1.325 . S
C743 C742 1.348 . S
C743 C745 1.353 . S
C743 H784 0.929 . S
C744 C742 1.356 . S
C744 C746 1.358 . S
C744 H785 0.930 . S
C745 C743 1.353 . S
C745 N747 1.314 . S
C745 H786 0.930 . S
C746 C744 1.358 . S
C746 N747 1.279 . S
C746 H787 0.930 . S
N747 C745 1.314 . S
N747 C746 1.279 . S
C748 C750 1.353 . S
C748 N751 1.314 . S
C748 H754 0.930 . S
C749 N751 1.279 . S
C749 C752 1.358 . S
C749 H755 0.930 . S
C750 C748 1.353 . S
C750 C753 1.348 . S
C750 H788 0.929 . S
N751 Li706 1.990 . S
N751 C748 1.314 . S
N751 C749 1.279 . S
C752 C749 1.358 . S
C752 C753 1.356 . S
C752 H789 0.930 . S
C753 C750 1.348 . S
C753 C752 1.356 . S
H754 C748 0.930 . S
H755 C749 0.930 . S
C756 N757 1.314 . S
C756 C758 1.353 . S
C756 H762 0.930 . S
N757 Li707 1.990 . S
N757 C756 1.314 . S
N757 C760 1.279 . S
C758 C756 1.353 . S
C758 C761 1.348 . S
C758 H790 0.929 . S
C759 C760 1.358 . S
C759 C761 1.356 . S
C759 H791 0.930 . S
C760 N757 1.279 . S
C760 C759 1.358 . S
C760 H763 0.930 . S
C761 C758 1.348 . S
C761 C759 1.356 . S
H762 C756 0.930 . S
H763 C760 0.930 . S
O764 Li704 1.956 . S
O764 Li705 1.970 . S
O764 Li706 1.961 . S
O764 C708 1.325 . S
O765 Li704 1.970 . S
O765 Li705 1.956 . S
O765 Li707 1.961 . S
O765 C714 1.325 . S
O766 Li704 1.961 . S
O766 Li706 1.956 . S
O766 Li707 1.970 . S
O766 C736 1.325 . S
O767 Li705 1.961 . S
O767 Li706 1.970 . S
O767 Li707 1.956 . S
O767 C742 1.325 . S
H768 C710 0.929 . S
H769 C711 0.930 . S
H770 C712 0.930 . S
H771 C713 0.930 . S
H772 C715 0.930 . S
H773 C717 0.929 . S
H774 C718 0.930 . S
H775 C719 0.930 . S
H776 C722 0.930 . S
H777 C725 0.929 . S
H778 C730 0.929 . S
H779 C731 0.930 . S
H780 C738 0.929 . S
H781 C739 0.930 . S
H782 C740 0.930 . S
H783 C741 0.930 . S
H784 C743 0.929 . S
H785 C744 0.930 . S
H786 C745 0.930 . S
H787 C746 0.930 . S
H788 C750 0.929 . S
H789 C752 0.930 . S
H790 C758 0.929 . S
H791 C759 0.930 . S
Li792 N809 1.990 . S
Li792 O852 1.956 . S
Li792 O853 1.970 . S
Li792 O854 1.961 . S
Li793 N817 1.990 . S
Li793 O852 1.970 . S
Li793 O853 1.956 . S
Li793 O855 1.961 . S
Li794 N839 1.990 . S
Li794 O852 1.961 . S
Li794 O854 1.956 . S
Li794 O855 1.970 . S
Li795 N845 1.990 . S
Li795 O853 1.961 . S
Li795 O854 1.970 . S
Li795 O855 1.956 . S
C796 C798 1.348 . S
C796 C799 1.356 . S
C796 O852 1.325 . S
N797 C800 1.314 . S
N797 C801 1.279 . S
C798 C796 1.348 . S
C798 C800 1.353 . S
C798 H856 0.929 . S
C799 C796 1.356 . S
C799 C801 1.358 . S
C799 H857 0.930 . S
C800 N797 1.314 . S
C800 C798 1.353 . S
C800 H858 0.930 . S
C801 N797 1.279 . S
C801 C799 1.358 . S
C801 H859 0.930 . S
C802 C805 1.348 . S
C802 C806 1.356 . S
C802 O853 1.325 . S
C803 N804 1.279 . S
C803 C806 1.358 . S
C803 H860 0.930 . S
N804 C803 1.279 . S
N804 C807 1.314 . S
C805 C802 1.348 . S
C805 C807 1.353 . S
C805 H861 0.929 . S
C806 C802 1.356 . S
C806 C803 1.358 . S
C806 H862 0.930 . S
C807 N804 1.314 . S
C807 C805 1.353 . S
C807 H863 0.930 . S
C808 N809 1.314 . S
C808 C813 1.353 . S
C808 H814 0.930 . S
N809 Li792 1.990 . S
N809 C808 1.314 . S
N809 C811 1.279 . S
C810 C811 1.358 . S
C810 C812 1.356 . S
C810 H864 0.930 . S
C811 N809 1.279 . S
C811 C810 1.358 . S
C811 H815 0.930 . S
C812 C810 1.356 . S
C812 C813 1.348 . S
C813 C808 1.353 . S
C813 C812 1.348 . S
C813 H865 0.929 . S
H814 C808 0.930 . S
H815 C811 0.930 . S
C816 N817 1.314 . S
C816 C818 1.353 . S
C816 H822 0.930 . S
N817 Li793 1.990 . S
N817 C816 1.314 . S
N817 C820 1.279 . S
C818 C816 1.353 . S
C818 C821 1.348 . S
C818 H866 0.929 . S
C819 C820 1.358 . S
C819 C821 1.356 . S
C819 H867 0.930 . S
C820 N817 1.279 . S
C820 C819 1.358 . S
C820 H823 0.930 . S
C821 C818 1.348 . S
C821 C819 1.356 . S
H822 C816 0.930 . S
H823 C820 0.930 . S
C824 C826 1.348 . S
C824 C827 1.356 . S
C824 O854 1.325 . S
N825 C828 1.314 . S
N825 C829 1.279 . S
C826 C824 1.348 . S
C826 C828 1.353 . S
C826 H868 0.929 . S
C827 C824 1.356 . S
C827 C829 1.358 . S
C827 H869 0.930 . S
C828 N825 1.314 . S
C828 C826 1.353 . S
C828 H870 0.930 . S
C829 N825 1.279 . S
C829 C827 1.358 . S
C829 H871 0.930 . S
C830 C831 1.348 . S
C830 C832 1.356 . S
C830 O855 1.325 . S
C831 C830 1.348 . S
C831 C833 1.353 . S
C831 H872 0.929 . S
C832 C830 1.356 . S
C832 C834 1.358 . S
C832 H873 0.930 . S
C833 C831 1.353 . S
C833 N835 1.314 . S
C833 H874 0.930 . S
C834 C832 1.358 . S
C834 N835 1.279 . S
C834 H875 0.930 . S
N835 C833 1.314 . S
N835 C834 1.279 . S
C836 C838 1.353 . S
C836 N839 1.314 . S
C836 H842 0.930 . S
C837 N839 1.279 . S
C837 C840 1.358 . S
C837 H843 0.930 . S
C838 C836 1.353 . S
C838 C841 1.348 . S
C838 H876 0.929 . S
N839 Li794 1.990 . S
N839 C836 1.314 . S
N839 C837 1.279 . S
C840 C837 1.358 . S
C840 C841 1.356 . S
C840 H877 0.930 . S
C841 C838 1.348 . S
C841 C840 1.356 . S
H842 C836 0.930 . S
H843 C837 0.930 . S
C844 N845 1.314 . S
C844 C846 1.353 . S
C844 H850 0.930 . S
N845 Li795 1.990 . S
N845 C844 1.314 . S
N845 C848 1.279 . S
C846 C844 1.353 . S
C846 C849 1.348 . S
C846 H878 0.929 . S
C847 C848 1.358 . S
C847 C849 1.356 . S
C847 H879 0.930 . S
C848 N845 1.279 . S
C848 C847 1.358 . S
C848 H851 0.930 . S
C849 C846 1.348 . S
C849 C847 1.356 . S
H850 C844 0.930 . S
H851 C848 0.930 . S
O852 Li792 1.956 . S
O852 Li793 1.970 . S
O852 Li794 1.961 . S
O852 C796 1.325 . S
O853 Li792 1.970 . S
O853 Li793 1.956 . S
O853 Li795 1.961 . S
O853 C802 1.325 . S
O854 Li792 1.961 . S
O854 Li794 1.956 . S
O854 Li795 1.970 . S
O854 C824 1.325 . S
O855 Li793 1.961 . S
O855 Li794 1.970 . S
O855 Li795 1.956 . S
O855 C830 1.325 . S
H856 C798 0.929 . S
H857 C799 0.930 . S
H858 C800 0.930 . S
H859 C801 0.930 . S
H860 C803 0.930 . S
H861 C805 0.929 . S
H862 C806 0.930 . S
H863 C807 0.930 . S
H864 C810 0.930 . S
H865 C813 0.929 . S
H866 C818 0.929 . S
H867 C819 0.930 . S
H868 C826 0.929 . S
H869 C827 0.930 . S
H870 C828 0.930 . S
H871 C829 0.930 . S
H872 C831 0.929 . S
H873 C832 0.930 . S
H874 C833 0.930 . S
H875 C834 0.930 . S
H876 C838 0.929 . S
H877 C840 0.930 . S
H878 C846 0.929 . S
H879 C847 0.930 . S
Li880 N897 1.990 . S
Li880 O940 1.956 . S
Li880 O941 1.970 . S
Li880 O942 1.961 . S
Li881 N905 1.990 . S
Li881 O940 1.970 . S
Li881 O941 1.956 . S
Li881 O943 1.961 . S
Li882 N927 1.990 . S
Li882 O940 1.961 . S
Li882 O942 1.956 . S
Li882 O943 1.970 . S
Li883 N933 1.990 . S
Li883 O941 1.961 . S
Li883 O942 1.970 . S
Li883 O943 1.956 . S
C884 C886 1.348 . S
C884 C887 1.356 . S
C884 O940 1.325 . S
N885 C888 1.314 . S
N885 C889 1.279 . S
C886 C884 1.348 . S
C886 C888 1.353 . S
C886 H944 0.929 . S
C887 C884 1.356 . S
C887 C889 1.358 . S
C887 H945 0.930 . S
C888 N885 1.314 . S
C888 C886 1.353 . S
C888 H946 0.930 . S
C889 N885 1.279 . S
C889 C887 1.358 . S
C889 H947 0.930 . S
C890 C893 1.348 . S
C890 C894 1.356 . S
C890 O941 1.325 . S
C891 N892 1.279 . S
C891 C894 1.358 . S
C891 H948 0.930 . S
N892 C891 1.279 . S
N892 C895 1.314 . S
C893 C890 1.348 . S
C893 C895 1.353 . S
C893 H949 0.929 . S
C894 C890 1.356 . S
C894 C891 1.358 . S
C894 H950 0.930 . S
C895 N892 1.314 . S
C895 C893 1.353 . S
C895 H951 0.930 . S
C896 N897 1.314 . S
C896 C901 1.353 . S
C896 H902 0.930 . S
N897 Li880 1.990 . S
N897 C896 1.314 . S
N897 C899 1.279 . S
C898 C899 1.358 . S
C898 C900 1.356 . S
C898 H952 0.930 . S
C899 N897 1.279 . S
C899 C898 1.358 . S
C899 H903 0.930 . S
C900 C898 1.356 . S
C900 C901 1.348 . S
C901 C896 1.353 . S
C901 C900 1.348 . S
C901 H953 0.929 . S
H902 C896 0.930 . S
H903 C899 0.930 . S
C904 N905 1.314 . S
C904 C906 1.353 . S
C904 H910 0.930 . S
N905 Li881 1.990 . S
N905 C904 1.314 . S
N905 C908 1.279 . S
C906 C904 1.353 . S
C906 C909 1.348 . S
C906 H954 0.929 . S
C907 C908 1.358 . S
C907 C909 1.356 . S
C907 H955 0.930 . S
C908 N905 1.279 . S
C908 C907 1.358 . S
C908 H911 0.930 . S
C909 C906 1.348 . S
C909 C907 1.356 . S
H910 C904 0.930 . S
H911 C908 0.930 . S
C912 C914 1.348 . S
C912 C915 1.356 . S
C912 O942 1.325 . S
N913 C916 1.314 . S
N913 C917 1.279 . S
C914 C912 1.348 . S
C914 C916 1.353 . S
C914 H956 0.929 . S
C915 C912 1.356 . S
C915 C917 1.358 . S
C915 H957 0.930 . S
C916 N913 1.314 . S
C916 C914 1.353 . S
C916 H958 0.930 . S
C917 N913 1.279 . S
C917 C915 1.358 . S
C917 H959 0.930 . S
C918 C919 1.348 . S
C918 C920 1.356 . S
C918 O943 1.325 . S
C919 C918 1.348 . S
C919 C921 1.353 . S
C919 H960 0.929 . S
C920 C918 1.356 . S
C920 C922 1.358 . S
C920 H961 0.930 . S
C921 C919 1.353 . S
C921 N923 1.314 . S
C921 H962 0.930 . S
C922 C920 1.358 . S
C922 N923 1.279 . S
C922 H963 0.930 . S
N923 C921 1.314 . S
N923 C922 1.279 . S
C924 C926 1.353 . S
C924 N927 1.314 . S
C924 H930 0.930 . S
C925 N927 1.279 . S
C925 C928 1.358 . S
C925 H931 0.930 . S
C926 C924 1.353 . S
C926 C929 1.348 . S
C926 H964 0.929 . S
N927 Li882 1.990 . S
N927 C924 1.314 . S
N927 C925 1.279 . S
C928 C925 1.358 . S
C928 C929 1.356 . S
C928 H965 0.930 . S
C929 C926 1.348 . S
C929 C928 1.356 . S
H930 C924 0.930 . S
H931 C925 0.930 . S
C932 N933 1.314 . S
C932 C934 1.353 . S
C932 H938 0.930 . S
N933 Li883 1.990 . S
N933 C932 1.314 . S
N933 C936 1.279 . S
C934 C932 1.353 . S
C934 C937 1.348 . S
C934 H966 0.929 . S
C935 C936 1.358 . S
C935 C937 1.356 . S
C935 H967 0.930 . S
C936 N933 1.279 . S
C936 C935 1.358 . S
C936 H939 0.930 . S
C937 C934 1.348 . S
C937 C935 1.356 . S
H938 C932 0.930 . S
H939 C936 0.930 . S
O940 Li880 1.956 . S
O940 Li881 1.970 . S
O940 Li882 1.961 . S
O940 C884 1.325 . S
O941 Li880 1.970 . S
O941 Li881 1.956 . S
O941 Li883 1.961 . S
O941 C890 1.325 . S
O942 Li880 1.961 . S
O942 Li882 1.956 . S
O942 Li883 1.970 . S
O942 C912 1.325 . S
O943 Li881 1.961 . S
O943 Li882 1.970 . S
O943 Li883 1.956 . S
O943 C918 1.325 . S
H944 C886 0.929 . S
H945 C887 0.930 . S
H946 C888 0.930 . S
H947 C889 0.930 . S
H948 C891 0.930 . S
H949 C893 0.929 . S
H950 C894 0.930 . S
H951 C895 0.930 . S
H952 C898 0.930 . S
H953 C901 0.929 . S
H954 C906 0.929 . S
H955 C907 0.930 . S
H956 C914 0.929 . S
H957 C915 0.930 . S
H958 C916 0.930 . S
H959 C917 0.930 . S
H960 C919 0.929 . S
H961 C920 0.930 . S
H962 C921 0.930 . S
H963 C922 0.930 . S
H964 C926 0.929 . S
H965 C928 0.930 . S
H966 C934 0.929 . S
H967 C935 0.930 . S
Li968 N985 1.990 . S
Li968 O1028 1.956 . S
Li968 O1029 1.970 . S
Li968 O1030 1.961 . S
Li969 N993 1.990 . S
Li969 O1028 1.970 . S
Li969 O1029 1.956 . S
Li969 O1031 1.961 . S
Li970 N1015 1.990 . S
Li970 O1028 1.961 . S
Li970 O1030 1.956 . S
Li970 O1031 1.970 . S
Li971 N1021 1.990 . S
Li971 O1029 1.961 . S
Li971 O1030 1.970 . S
Li971 O1031 1.956 . S
C972 C974 1.348 . S
C972 C975 1.356 . S
C972 O1028 1.325 . S
N973 C976 1.314 . S
N973 C977 1.279 . S
C974 C972 1.348 . S
C974 C976 1.353 . S
C974 H1032 0.929 . S
C975 C972 1.356 . S
C975 C977 1.358 . S
C975 H1033 0.930 . S
C976 N973 1.314 . S
C976 C974 1.353 . S
C976 H1034 0.930 . S
C977 N973 1.279 . S
C977 C975 1.358 . S
C977 H1035 0.930 . S
C978 C981 1.348 . S
C978 C982 1.356 . S
C978 O1029 1.325 . S
C979 N980 1.279 . S
C979 C982 1.358 . S
C979 H1036 0.930 . S
N980 C979 1.279 . S
N980 C983 1.314 . S
C981 C978 1.348 . S
C981 C983 1.353 . S
C981 H1037 0.929 . S
C982 C978 1.356 . S
C982 C979 1.358 . S
C982 H1038 0.930 . S
C983 N980 1.314 . S
C983 C981 1.353 . S
C983 H1039 0.930 . S
C984 N985 1.314 . S
C984 C989 1.353 . S
C984 H990 0.930 . S
N985 Li968 1.990 . S
N985 C984 1.314 . S
N985 C987 1.279 . S
C986 C987 1.358 . S
C986 C988 1.356 . S
C986 H1040 0.930 . S
C987 N985 1.279 . S
C987 C986 1.358 . S
C987 H991 0.930 . S
C988 C986 1.356 . S
C988 C989 1.348 . S
C989 C984 1.353 . S
C989 C988 1.348 . S
C989 H1041 0.929 . S
H990 C984 0.930 . S
H991 C987 0.930 . S
C992 N993 1.314 . S
C992 C994 1.353 . S
C992 H998 0.930 . S
N993 Li969 1.990 . S
N993 C992 1.314 . S
N993 C996 1.279 . S
C994 C992 1.353 . S
C994 C997 1.348 . S
C994 H1042 0.929 . S
C995 C996 1.358 . S
C995 C997 1.356 . S
C995 H1043 0.930 . S
C996 N993 1.279 . S
C996 C995 1.358 . S
C996 H999 0.930 . S
C997 C994 1.348 . S
C997 C995 1.356 . S
H998 C992 0.930 . S
H999 C996 0.930 . S
C1000 C1002 1.348 . S
C1000 C1003 1.356 . S
C1000 O1030 1.325 . S
N1001 C1004 1.314 . S
N1001 C1005 1.279 . S
C1002 C1000 1.348 . S
C1002 C1004 1.353 . S
C1002 H1044 0.929 . S
C1003 C1000 1.356 . S
C1003 C1005 1.358 . S
C1003 H1045 0.930 . S
C1004 N1001 1.314 . S
C1004 C1002 1.353 . S
C1004 H1046 0.930 . S
C1005 N1001 1.279 . S
C1005 C1003 1.358 . S
C1005 H1047 0.930 . S
C1006 C1007 1.348 . S
C1006 C1008 1.356 . S
C1006 O1031 1.325 . S
C1007 C1006 1.348 . S
C1007 C1009 1.353 . S
C1007 H1048 0.929 . S
C1008 C1006 1.356 . S
C1008 C1010 1.358 . S
C1008 H1049 0.930 . S
C1009 C1007 1.353 . S
C1009 N1011 1.314 . S
C1009 H1050 0.930 . S
C1010 C1008 1.358 . S
C1010 N1011 1.279 . S
C1010 H1051 0.930 . S
N1011 C1009 1.314 . S
N1011 C1010 1.279 . S
C1012 C1014 1.353 . S
C1012 N1015 1.314 . S
C1012 H1018 0.930 . S
C1013 N1015 1.279 . S
C1013 C1016 1.358 . S
C1013 H1019 0.930 . S
C1014 C1012 1.353 . S
C1014 C1017 1.348 . S
C1014 H1052 0.929 . S
N1015 Li970 1.990 . S
N1015 C1012 1.314 . S
N1015 C1013 1.279 . S
C1016 C1013 1.358 . S
C1016 C1017 1.356 . S
C1016 H1053 0.930 . S
C1017 C1014 1.348 . S
C1017 C1016 1.356 . S
H1018 C1012 0.930 . S
H1019 C1013 0.930 . S
C1020 N1021 1.314 . S
C1020 C1022 1.353 . S
C1020 H1026 0.930 . S
N1021 Li971 1.990 . S
N1021 C1020 1.314 . S
N1021 C1024 1.279 . S
C1022 C1020 1.353 . S
C1022 C1025 1.348 . S
C1022 H1054 0.929 . S
C1023 C1024 1.358 . S
C1023 C1025 1.356 . S
C1023 H1055 0.930 . S
C1024 N1021 1.279 . S
C1024 C1023 1.358 . S
C1024 H1027 0.930 . S
C1025 C1022 1.348 . S
C1025 C1023 1.356 . S
H1026 C1020 0.930 . S
H1027 C1024 0.930 . S
O1028 Li968 1.956 . S
O1028 Li969 1.970 . S
O1028 Li970 1.961 . S
O1028 C972 1.325 . S
O1029 Li968 1.970 . S
O1029 Li969 1.956 . S
O1029 Li971 1.961 . S
O1029 C978 1.325 . S
O1030 Li968 1.961 . S
O1030 Li970 1.956 . S
O1030 Li971 1.970 . S
O1030 C1000 1.325 . S
O1031 Li969 1.961 . S
O1031 Li970 1.970 . S
O1031 Li971 1.956 . S
O1031 C1006 1.325 . S
H1032 C974 0.929 . S
H1033 C975 0.930 . S
H1034 C976 0.930 . S
H1035 C977 0.930 . S
H1036 C979 0.930 . S
H1037 C981 0.929 . S
H1038 C982 0.930 . S
H1039 C983 0.930 . S
H1040 C986 0.930 . S
H1041 C989 0.929 . S
H1042 C994 0.929 . S
H1043 C995 0.930 . S
H1044 C1002 0.929 . S
H1045 C1003 0.930 . S
H1046 C1004 0.930 . S
H1047 C1005 0.930 . S
H1048 C1007 0.929 . S
H1049 C1008 0.930 . S
H1050 C1009 0.930 . S
H1051 C1010 0.930 . S
H1052 C1014 0.929 . S
H1053 C1016 0.930 . S
H1054 C1022 0.929 . S
H1055 C1023 0.930 . S
Li1056 N1073 1.990 . S
Li1056 O1116 1.956 . S
Li1056 O1117 1.970 . S
Li1056 O1118 1.961 . S
Li1057 N1081 1.990 . S
Li1057 O1116 1.970 . S
Li1057 O1117 1.956 . S
Li1057 O1119 1.961 . S
Li1058 N1103 1.990 . S
Li1058 O1116 1.961 . S
Li1058 O1118 1.956 . S
Li1058 O1119 1.970 . S
Li1059 N1109 1.990 . S
Li1059 O1117 1.961 . S
Li1059 O1118 1.970 . S
Li1059 O1119 1.956 . S
C1060 C1062 1.348 . S
C1060 C1063 1.356 . S
C1060 O1116 1.325 . S
N1061 C1064 1.314 . S
N1061 C1065 1.279 . S
C1062 C1060 1.348 . S
C1062 C1064 1.353 . S
C1062 H1120 0.929 . S
C1063 C1060 1.356 . S
C1063 C1065 1.358 . S
C1063 H1121 0.930 . S
C1064 N1061 1.314 . S
C1064 C1062 1.353 . S
C1064 H1122 0.930 . S
C1065 N1061 1.279 . S
C1065 C1063 1.358 . S
C1065 H1123 0.930 . S
C1066 C1069 1.348 . S
C1066 C1070 1.356 . S
C1066 O1117 1.325 . S
C1067 N1068 1.279 . S
C1067 C1070 1.358 . S
C1067 H1124 0.930 . S
N1068 C1067 1.279 . S
N1068 C1071 1.314 . S
C1069 C1066 1.348 . S
C1069 C1071 1.353 . S
C1069 H1125 0.929 . S
C1070 C1066 1.356 . S
C1070 C1067 1.358 . S
C1070 H1126 0.930 . S
C1071 N1068 1.314 . S
C1071 C1069 1.353 . S
C1071 H1127 0.930 . S
C1072 N1073 1.314 . S
C1072 C1077 1.353 . S
C1072 H1078 0.930 . S
N1073 Li1056 1.990 . S
N1073 C1072 1.314 . S
N1073 C1075 1.279 . S
C1074 C1075 1.358 . S
C1074 C1076 1.356 . S
C1074 H1128 0.930 . S
C1075 N1073 1.279 . S
C1075 C1074 1.358 . S
C1075 H1079 0.930 . S
C1076 C1074 1.356 . S
C1076 C1077 1.348 . S
C1077 C1072 1.353 . S
C1077 C1076 1.348 . S
C1077 H1129 0.929 . S
H1078 C1072 0.930 . S
H1079 C1075 0.930 . S
C1080 N1081 1.314 . S
C1080 C1082 1.353 . S
C1080 H1086 0.930 . S
N1081 Li1057 1.990 . S
N1081 C1080 1.314 . S
N1081 C1084 1.279 . S
C1082 C1080 1.353 . S
C1082 C1085 1.348 . S
C1082 H1130 0.929 . S
C1083 C1084 1.358 . S
C1083 C1085 1.356 . S
C1083 H1131 0.930 . S
C1084 N1081 1.279 . S
C1084 C1083 1.358 . S
C1084 H1087 0.930 . S
C1085 C1082 1.348 . S
C1085 C1083 1.356 . S
H1086 C1080 0.930 . S
H1087 C1084 0.930 . S
C1088 C1090 1.348 . S
C1088 C1091 1.356 . S
C1088 O1118 1.325 . S
N1089 C1092 1.314 . S
N1089 C1093 1.279 . S
C1090 C1088 1.348 . S
C1090 C1092 1.353 . S
C1090 H1132 0.929 . S
C1091 C1088 1.356 . S
C1091 C1093 1.358 . S
C1091 H1133 0.930 . S
C1092 N1089 1.314 . S
C1092 C1090 1.353 . S
C1092 H1134 0.930 . S
C1093 N1089 1.279 . S
C1093 C1091 1.358 . S
C1093 H1135 0.930 . S
C1094 C1095 1.348 . S
C1094 C1096 1.356 . S
C1094 O1119 1.325 . S
C1095 C1094 1.348 . S
C1095 C1097 1.353 . S
C1095 H1136 0.929 . S
C1096 C1094 1.356 . S
C1096 C1098 1.358 . S
C1096 H1137 0.930 . S
C1097 C1095 1.353 . S
C1097 N1099 1.314 . S
C1097 H1138 0.930 . S
C1098 C1096 1.358 . S
C1098 N1099 1.279 . S
C1098 H1139 0.930 . S
N1099 C1097 1.314 . S
N1099 C1098 1.279 . S
C1100 C1102 1.353 . S
C1100 N1103 1.314 . S
C1100 H1106 0.930 . S
C1101 N1103 1.279 . S
C1101 C1104 1.358 . S
C1101 H1107 0.930 . S
C1102 C1100 1.353 . S
C1102 C1105 1.348 . S
C1102 H1140 0.929 . S
N1103 Li1058 1.990 . S
N1103 C1100 1.314 . S
N1103 C1101 1.279 . S
C1104 C1101 1.358 . S
C1104 C1105 1.356 . S
C1104 H1141 0.930 . S
C1105 C1102 1.348 . S
C1105 C1104 1.356 . S
H1106 C1100 0.930 . S
H1107 C1101 0.930 . S
C1108 N1109 1.314 . S
C1108 C1110 1.353 . S
C1108 H1114 0.930 . S
N1109 Li1059 1.990 . S
N1109 C1108 1.314 . S
N1109 C1112 1.279 . S
C1110 C1108 1.353 . S
C1110 C1113 1.348 . S
C1110 H1142 0.929 . S
C1111 C1112 1.358 . S
C1111 C1113 1.356 . S
C1111 H1143 0.930 . S
C1112 N1109 1.279 . S
C1112 C1111 1.358 . S
C1112 H1115 0.930 . S
C1113 C1110 1.348 . S
C1113 C1111 1.356 . S
H1114 C1108 0.930 . S
H1115 C1112 0.930 . S
O1116 Li1056 1.956 . S
O1116 Li1057 1.970 . S
O1116 Li1058 1.961 . S
O1116 C1060 1.325 . S
O1117 Li1056 1.970 . S
O1117 Li1057 1.956 . S
O1117 Li1059 1.961 . S
O1117 C1066 1.325 . S
O1118 Li1056 1.961 . S
O1118 Li1058 1.956 . S
O1118 Li1059 1.970 . S
O1118 C1088 1.325 . S
O1119 Li1057 1.961 . S
O1119 Li1058 1.970 . S
O1119 Li1059 1.956 . S
O1119 C1094 1.325 . S
H1120 C1062 0.929 . S
H1121 C1063 0.930 . S
H1122 C1064 0.930 . S
H1123 C1065 0.930 . S
H1124 C1067 0.930 . S
H1125 C1069 0.929 . S
H1126 C1070 0.930 . S
H1127 C1071 0.930 . S
H1128 C1074 0.930 . S
H1129 C1077 0.929 . S
H1130 C1082 0.929 . S
H1131 C1083 0.930 . S
H1132 C1090 0.929 . S
H1133 C1091 0.930 . S
H1134 C1092 0.930 . S
H1135 C1093 0.930 . S
H1136 C1095 0.929 . S
H1137 C1096 0.930 . S
H1138 C1097 0.930 . S
H1139 C1098 0.930 . S
H1140 C1102 0.929 . S
H1141 C1104 0.930 . S
H1142 C1110 0.929 . S
H1143 C1111 0.930 . S
Li1144 N1161 1.990 . S
Li1144 O1204 1.956 . S
Li1144 O1205 1.970 . S
Li1144 O1206 1.961 . S
Li1145 N1169 1.990 . S
Li1145 O1204 1.970 . S
Li1145 O1205 1.956 . S
Li1145 O1207 1.961 . S
Li1146 N1191 1.990 . S
Li1146 O1204 1.961 . S
Li1146 O1206 1.956 . S
Li1146 O1207 1.970 . S
Li1147 N1197 1.990 . S
Li1147 O1205 1.961 . S
Li1147 O1206 1.970 . S
Li1147 O1207 1.956 . S
C1148 C1150 1.348 . S
C1148 C1151 1.356 . S
C1148 O1204 1.325 . S
N1149 C1152 1.314 . S
N1149 C1153 1.279 . S
C1150 C1148 1.348 . S
C1150 C1152 1.353 . S
C1150 H1208 0.929 . S
C1151 C1148 1.356 . S
C1151 C1153 1.358 . S
C1151 H1209 0.930 . S
C1152 N1149 1.314 . S
C1152 C1150 1.353 . S
C1152 H1210 0.930 . S
C1153 N1149 1.279 . S
C1153 C1151 1.358 . S
C1153 H1211 0.930 . S
C1154 C1157 1.348 . S
C1154 C1158 1.356 . S
C1154 O1205 1.325 . S
C1155 N1156 1.279 . S
C1155 C1158 1.358 . S
C1155 H1212 0.930 . S
N1156 C1155 1.279 . S
N1156 C1159 1.314 . S
C1157 C1154 1.348 . S
C1157 C1159 1.353 . S
C1157 H1213 0.929 . S
C1158 C1154 1.356 . S
C1158 C1155 1.358 . S
C1158 H1214 0.930 . S
C1159 N1156 1.314 . S
C1159 C1157 1.353 . S
C1159 H1215 0.930 . S
C1160 N1161 1.314 . S
C1160 C1165 1.353 . S
C1160 H1166 0.930 . S
N1161 Li1144 1.990 . S
N1161 C1160 1.314 . S
N1161 C1163 1.279 . S
C1162 C1163 1.358 . S
C1162 C1164 1.356 . S
C1162 H1216 0.930 . S
C1163 N1161 1.279 . S
C1163 C1162 1.358 . S
C1163 H1167 0.930 . S
C1164 C1162 1.356 . S
C1164 C1165 1.348 . S
C1165 C1160 1.353 . S
C1165 C1164 1.348 . S
C1165 H1217 0.929 . S
H1166 C1160 0.930 . S
H1167 C1163 0.930 . S
C1168 N1169 1.314 . S
C1168 C1170 1.353 . S
C1168 H1174 0.930 . S
N1169 Li1145 1.990 . S
N1169 C1168 1.314 . S
N1169 C1172 1.279 . S
C1170 C1168 1.353 . S
C1170 C1173 1.348 . S
C1170 H1218 0.929 . S
C1171 C1172 1.358 . S
C1171 C1173 1.356 . S
C1171 H1219 0.930 . S
C1172 N1169 1.279 . S
C1172 C1171 1.358 . S
C1172 H1175 0.930 . S
C1173 C1170 1.348 . S
C1173 C1171 1.356 . S
H1174 C1168 0.930 . S
H1175 C1172 0.930 . S
C1176 C1178 1.348 . S
C1176 C1179 1.356 . S
C1176 O1206 1.325 . S
N1177 C1180 1.314 . S
N1177 C1181 1.279 . S
C1178 C1176 1.348 . S
C1178 C1180 1.353 . S
C1178 H1220 0.929 . S
C1179 C1176 1.356 . S
C1179 C1181 1.358 . S
C1179 H1221 0.930 . S
C1180 N1177 1.314 . S
C1180 C1178 1.353 . S
C1180 H1222 0.930 . S
C1181 N1177 1.279 . S
C1181 C1179 1.358 . S
C1181 H1223 0.930 . S
C1182 C1183 1.348 . S
C1182 C1184 1.356 . S
C1182 O1207 1.325 . S
C1183 C1182 1.348 . S
C1183 C1185 1.353 . S
C1183 H1224 0.929 . S
C1184 C1182 1.356 . S
C1184 C1186 1.358 . S
C1184 H1225 0.930 . S
C1185 C1183 1.353 . S
C1185 N1187 1.314 . S
C1185 H1226 0.930 . S
C1186 C1184 1.358 . S
C1186 N1187 1.279 . S
C1186 H1227 0.930 . S
N1187 C1185 1.314 . S
N1187 C1186 1.279 . S
C1188 C1190 1.353 . S
C1188 N1191 1.314 . S
C1188 H1194 0.930 . S
C1189 N1191 1.279 . S
C1189 C1192 1.358 . S
C1189 H1195 0.930 . S
C1190 C1188 1.353 . S
C1190 C1193 1.348 . S
C1190 H1228 0.929 . S
N1191 Li1146 1.990 . S
N1191 C1188 1.314 . S
N1191 C1189 1.279 . S
C1192 C1189 1.358 . S
C1192 C1193 1.356 . S
C1192 H1229 0.930 . S
C1193 C1190 1.348 . S
C1193 C1192 1.356 . S
H1194 C1188 0.930 . S
H1195 C1189 0.930 . S
C1196 N1197 1.314 . S
C1196 C1198 1.353 . S
C1196 H1202 0.930 . S
N1197 Li1147 1.990 . S
N1197 C1196 1.314 . S
N1197 C1200 1.279 . S
C1198 C1196 1.353 . S
C1198 C1201 1.348 . S
C1198 H1230 0.929 . S
C1199 C1200 1.358 . S
C1199 C1201 1.356 . S
C1199 H1231 0.930 . S
C1200 N1197 1.279 . S
C1200 C1199 1.358 . S
C1200 H1203 0.930 . S
C1201 C1198 1.348 . S
C1201 C1199 1.356 . S
H1202 C1196 0.930 . S
H1203 C1200 0.930 . S
O1204 Li1144 1.956 . S
O1204 Li1145 1.970 . S
O1204 Li1146 1.961 . S
O1204 C1148 1.325 . S
O1205 Li1144 1.970 . S
O1205 Li1145 1.956 . S
O1205 Li1147 1.961 . S
O1205 C1154 1.325 . S
O1206 Li1144 1.961 . S
O1206 Li1146 1.956 . S
O1206 Li1147 1.970 . S
O1206 C1176 1.325 . S
O1207 Li1145 1.961 . S
O1207 Li1146 1.970 . S
O1207 Li1147 1.956 . S
O1207 C1182 1.325 . S
H1208 C1150 0.929 . S
H1209 C1151 0.930 . S
H1210 C1152 0.930 . S
H1211 C1153 0.930 . S
H1212 C1155 0.930 . S
H1213 C1157 0.929 . S
H1214 C1158 0.930 . S
H1215 C1159 0.930 . S
H1216 C1162 0.930 . S
H1217 C1165 0.929 . S
H1218 C1170 0.929 . S
H1219 C1171 0.930 . S
H1220 C1178 0.929 . S
H1221 C1179 0.930 . S
H1222 C1180 0.930 . S
H1223 C1181 0.930 . S
H1224 C1183 0.929 . S
H1225 C1184 0.930 . S
H1226 C1185 0.930 . S
H1227 C1186 0.930 . S
H1228 C1190 0.929 . S
H1229 C1192 0.930 . S
H1230 C1198 0.929 . S
H1231 C1199 0.930 . S
Li1232 N1249 1.990 . S
Li1232 O1292 1.956 . S
Li1232 O1293 1.970 . S
Li1232 O1294 1.961 . S
Li1233 N1257 1.990 . S
Li1233 O1292 1.970 . S
Li1233 O1293 1.956 . S
Li1233 O1295 1.961 . S
Li1234 N1279 1.990 . S
Li1234 O1292 1.961 . S
Li1234 O1294 1.956 . S
Li1234 O1295 1.970 . S
Li1235 N1285 1.990 . S
Li1235 O1293 1.961 . S
Li1235 O1294 1.970 . S
Li1235 O1295 1.956 . S
C1236 C1238 1.348 . S
C1236 C1239 1.356 . S
C1236 O1292 1.325 . S
N1237 C1240 1.314 . S
N1237 C1241 1.279 . S
C1238 C1236 1.348 . S
C1238 C1240 1.353 . S
C1238 H1296 0.929 . S
C1239 C1236 1.356 . S
C1239 C1241 1.358 . S
C1239 H1297 0.930 . S
C1240 N1237 1.314 . S
C1240 C1238 1.353 . S
C1240 H1298 0.930 . S
C1241 N1237 1.279 . S
C1241 C1239 1.358 . S
C1241 H1299 0.930 . S
C1242 C1245 1.348 . S
C1242 C1246 1.356 . S
C1242 O1293 1.325 . S
C1243 N1244 1.279 . S
C1243 C1246 1.358 . S
C1243 H1300 0.930 . S
N1244 C1243 1.279 . S
N1244 C1247 1.314 . S
C1245 C1242 1.348 . S
C1245 C1247 1.353 . S
C1245 H1301 0.929 . S
C1246 C1242 1.356 . S
C1246 C1243 1.358 . S
C1246 H1302 0.930 . S
C1247 N1244 1.314 . S
C1247 C1245 1.353 . S
C1247 H1303 0.930 . S
C1248 N1249 1.314 . S
C1248 C1253 1.353 . S
C1248 H1254 0.930 . S
N1249 Li1232 1.990 . S
N1249 C1248 1.314 . S
N1249 C1251 1.279 . S
C1250 C1251 1.358 . S
C1250 C1252 1.356 . S
C1250 H1304 0.930 . S
C1251 N1249 1.279 . S
C1251 C1250 1.358 . S
C1251 H1255 0.930 . S
C1252 C1250 1.356 . S
C1252 C1253 1.348 . S
C1253 C1248 1.353 . S
C1253 C1252 1.348 . S
C1253 H1305 0.929 . S
H1254 C1248 0.930 . S
H1255 C1251 0.930 . S
C1256 N1257 1.314 . S
C1256 C1258 1.353 . S
C1256 H1262 0.930 . S
N1257 Li1233 1.990 . S
N1257 C1256 1.314 . S
N1257 C1260 1.279 . S
C1258 C1256 1.353 . S
C1258 C1261 1.348 . S
C1258 H1306 0.929 . S
C1259 C1260 1.358 . S
C1259 C1261 1.356 . S
C1259 H1307 0.930 . S
C1260 N1257 1.279 . S
C1260 C1259 1.358 . S
C1260 H1263 0.930 . S
C1261 C1258 1.348 . S
C1261 C1259 1.356 . S
H1262 C1256 0.930 . S
H1263 C1260 0.930 . S
C1264 C1266 1.348 . S
C1264 C1267 1.356 . S
C1264 O1294 1.325 . S
N1265 C1268 1.314 . S
N1265 C1269 1.279 . S
C1266 C1264 1.348 . S
C1266 C1268 1.353 . S
C1266 H1308 0.929 . S
C1267 C1264 1.356 . S
C1267 C1269 1.358 . S
C1267 H1309 0.930 . S
C1268 N1265 1.314 . S
C1268 C1266 1.353 . S
C1268 H1310 0.930 . S
C1269 N1265 1.279 . S
C1269 C1267 1.358 . S
C1269 H1311 0.930 . S
C1270 C1271 1.348 . S
C1270 C1272 1.356 . S
C1270 O1295 1.325 . S
C1271 C1270 1.348 . S
C1271 C1273 1.353 . S
C1271 H1312 0.929 . S
C1272 C1270 1.356 . S
C1272 C1274 1.358 . S
C1272 H1313 0.930 . S
C1273 C1271 1.353 . S
C1273 N1275 1.314 . S
C1273 H1314 0.930 . S
C1274 C1272 1.358 . S
C1274 N1275 1.279 . S
C1274 H1315 0.930 . S
N1275 C1273 1.314 . S
N1275 C1274 1.279 . S
C1276 C1278 1.353 . S
C1276 N1279 1.314 . S
C1276 H1282 0.930 . S
C1277 N1279 1.279 . S
C1277 C1280 1.358 . S
C1277 H1283 0.930 . S
C1278 C1276 1.353 . S
C1278 C1281 1.348 . S
C1278 H1316 0.929 . S
N1279 Li1234 1.990 . S
N1279 C1276 1.314 . S
N1279 C1277 1.279 . S
C1280 C1277 1.358 . S
C1280 C1281 1.356 . S
C1280 H1317 0.930 . S
C1281 C1278 1.348 . S
C1281 C1280 1.356 . S
H1282 C1276 0.930 . S
H1283 C1277 0.930 . S
C1284 N1285 1.314 . S
C1284 C1286 1.353 . S
C1284 H1290 0.930 . S
N1285 Li1235 1.990 . S
N1285 C1284 1.314 . S
N1285 C1288 1.279 . S
C1286 C1284 1.353 . S
C1286 C1289 1.348 . S
C1286 H1318 0.929 . S
C1287 C1288 1.358 . S
C1287 C1289 1.356 . S
C1287 H1319 0.930 . S
C1288 N1285 1.279 . S
C1288 C1287 1.358 . S
C1288 H1291 0.930 . S
C1289 C1286 1.348 . S
C1289 C1287 1.356 . S
H1290 C1284 0.930 . S
H1291 C1288 0.930 . S
O1292 Li1232 1.956 . S
O1292 Li1233 1.970 . S
O1292 Li1234 1.961 . S
O1292 C1236 1.325 . S
O1293 Li1232 1.970 . S
O1293 Li1233 1.956 . S
O1293 Li1235 1.961 . S
O1293 C1242 1.325 . S
O1294 Li1232 1.961 . S
O1294 Li1234 1.956 . S
O1294 Li1235 1.970 . S
O1294 C1264 1.325 . S
O1295 Li1233 1.961 . S
O1295 Li1234 1.970 . S
O1295 Li1235 1.956 . S
O1295 C1270 1.325 . S
H1296 C1238 0.929 . S
H1297 C1239 0.930 . S
H1298 C1240 0.930 . S
H1299 C1241 0.930 . S
H1300 C1243 0.930 . S
H1301 C1245 0.929 . S
H1302 C1246 0.930 . S
H1303 C1247 0.930 . S
H1304 C1250 0.930 . S
H1305 C1253 0.929 . S
H1306 C1258 0.929 . S
H1307 C1259 0.930 . S
H1308 C1266 0.929 . S
H1309 C1267 0.930 . S
H1310 C1268 0.930 . S
H1311 C1269 0.930 . S
H1312 C1271 0.929 . S
H1313 C1272 0.930 . S
H1314 C1273 0.930 . S
H1315 C1274 0.930 . S
H1316 C1278 0.929 . S
H1317 C1280 0.930 . S
H1318 C1286 0.929 . S
H1319 C1287 0.930 . S
Li1320 N1337 1.990 . S
Li1320 O1380 1.956 . S
Li1320 O1381 1.970 . S
Li1320 O1382 1.961 . S
Li1321 N1345 1.990 . S
Li1321 O1380 1.970 . S
Li1321 O1381 1.956 . S
Li1321 O1383 1.961 . S
Li1322 N1367 1.990 . S
Li1322 O1380 1.961 . S
Li1322 O1382 1.956 . S
Li1322 O1383 1.970 . S
Li1323 N1373 1.990 . S
Li1323 O1381 1.961 . S
Li1323 O1382 1.970 . S
Li1323 O1383 1.956 . S
C1324 C1326 1.348 . S
C1324 C1327 1.356 . S
C1324 O1380 1.325 . S
N1325 C1328 1.314 . S
N1325 C1329 1.279 . S
C1326 C1324 1.348 . S
C1326 C1328 1.353 . S
C1326 H1384 0.929 . S
C1327 C1324 1.356 . S
C1327 C1329 1.358 . S
C1327 H1385 0.930 . S
C1328 N1325 1.314 . S
C1328 C1326 1.353 . S
C1328 H1386 0.930 . S
C1329 N1325 1.279 . S
C1329 C1327 1.358 . S
C1329 H1387 0.930 . S
C1330 C1333 1.348 . S
C1330 C1334 1.356 . S
C1330 O1381 1.325 . S
C1331 N1332 1.279 . S
C1331 C1334 1.358 . S
C1331 H1388 0.930 . S
N1332 C1331 1.279 . S
N1332 C1335 1.314 . S
C1333 C1330 1.348 . S
C1333 C1335 1.353 . S
C1333 H1389 0.929 . S
C1334 C1330 1.356 . S
C1334 C1331 1.358 . S
C1334 H1390 0.930 . S
C1335 N1332 1.314 . S
C1335 C1333 1.353 . S
C1335 H1391 0.930 . S
C1336 N1337 1.314 . S
C1336 C1341 1.353 . S
C1336 H1342 0.930 . S
N1337 Li1320 1.990 . S
N1337 C1336 1.314 . S
N1337 C1339 1.279 . S
C1338 C1339 1.358 . S
C1338 C1340 1.356 . S
C1338 H1392 0.930 . S
C1339 N1337 1.279 . S
C1339 C1338 1.358 . S
C1339 H1343 0.930 . S
C1340 C1338 1.356 . S
C1340 C1341 1.348 . S
C1341 C1336 1.353 . S
C1341 C1340 1.348 . S
C1341 H1393 0.929 . S
H1342 C1336 0.930 . S
H1343 C1339 0.930 . S
C1344 N1345 1.314 . S
C1344 C1346 1.353 . S
C1344 H1350 0.930 . S
N1345 Li1321 1.990 . S
N1345 C1344 1.314 . S
N1345 C1348 1.279 . S
C1346 C1344 1.353 . S
C1346 C1349 1.348 . S
C1346 H1394 0.929 . S
C1347 C1348 1.358 . S
C1347 C1349 1.356 . S
C1347 H1395 0.930 . S
C1348 N1345 1.279 . S
C1348 C1347 1.358 . S
C1348 H1351 0.930 . S
C1349 C1346 1.348 . S
C1349 C1347 1.356 . S
H1350 C1344 0.930 . S
H1351 C1348 0.930 . S
C1352 C1354 1.348 . S
C1352 C1355 1.356 . S
C1352 O1382 1.325 . S
N1353 C1356 1.314 . S
N1353 C1357 1.279 . S
C1354 C1352 1.348 . S
C1354 C1356 1.353 . S
C1354 H1396 0.929 . S
C1355 C1352 1.356 . S
C1355 C1357 1.358 . S
C1355 H1397 0.930 . S
C1356 N1353 1.314 . S
C1356 C1354 1.353 . S
C1356 H1398 0.930 . S
C1357 N1353 1.279 . S
C1357 C1355 1.358 . S
C1357 H1399 0.930 . S
C1358 C1359 1.348 . S
C1358 C1360 1.356 . S
C1358 O1383 1.325 . S
C1359 C1358 1.348 . S
C1359 C1361 1.353 . S
C1359 H1400 0.929 . S
C1360 C1358 1.356 . S
C1360 C1362 1.358 . S
C1360 H1401 0.930 . S
C1361 C1359 1.353 . S
C1361 N1363 1.314 . S
C1361 H1402 0.930 . S
C1362 C1360 1.358 . S
C1362 N1363 1.279 . S
C1362 H1403 0.930 . S
N1363 C1361 1.314 . S
N1363 C1362 1.279 . S
C1364 C1366 1.353 . S
C1364 N1367 1.314 . S
C1364 H1370 0.930 . S
C1365 N1367 1.279 . S
C1365 C1368 1.358 . S
C1365 H1371 0.930 . S
C1366 C1364 1.353 . S
C1366 C1369 1.348 . S
C1366 H1404 0.929 . S
N1367 Li1322 1.990 . S
N1367 C1364 1.314 . S
N1367 C1365 1.279 . S
C1368 C1365 1.358 . S
C1368 C1369 1.356 . S
C1368 H1405 0.930 . S
C1369 C1366 1.348 . S
C1369 C1368 1.356 . S
H1370 C1364 0.930 . S
H1371 C1365 0.930 . S
C1372 N1373 1.314 . S
C1372 C1374 1.353 . S
C1372 H1378 0.930 . S
N1373 Li1323 1.990 . S
N1373 C1372 1.314 . S
N1373 C1376 1.279 . S
C1374 C1372 1.353 . S
C1374 C1377 1.348 . S
C1374 H1406 0.929 . S
C1375 C1376 1.358 . S
C1375 C1377 1.356 . S
C1375 H1407 0.930 . S
C1376 N1373 1.279 . S
C1376 C1375 1.358 . S
C1376 H1379 0.930 . S
C1377 C1374 1.348 . S
C1377 C1375 1.356 . S
H1378 C1372 0.930 . S
H1379 C1376 0.930 . S
O1380 Li1320 1.956 . S
O1380 Li1321 1.970 . S
O1380 Li1322 1.961 . S
O1380 C1324 1.325 . S
O1381 Li1320 1.970 . S
O1381 Li1321 1.956 . S
O1381 Li1323 1.961 . S
O1381 C1330 1.325 . S
O1382 Li1320 1.961 . S
O1382 Li1322 1.956 . S
O1382 Li1323 1.970 . S
O1382 C1352 1.325 . S
O1383 Li1321 1.961 . S
O1383 Li1322 1.970 . S
O1383 Li1323 1.956 . S
O1383 C1358 1.325 . S
H1384 C1326 0.929 . S
H1385 C1327 0.930 . S
H1386 C1328 0.930 . S
H1387 C1329 0.930 . S
H1388 C1331 0.930 . S
H1389 C1333 0.929 . S
H1390 C1334 0.930 . S
H1391 C1335 0.930 . S
H1392 C1338 0.930 . S
H1393 C1341 0.929 . S
H1394 C1346 0.929 . S
H1395 C1347 0.930 . S
H1396 C1354 0.929 . S
H1397 C1355 0.930 . S
H1398 C1356 0.930 . S
H1399 C1357 0.930 . S
H1400 C1359 0.929 . S
H1401 C1360 0.930 . S
H1402 C1361 0.930 . S
H1403 C1362 0.930 . S
H1404 C1366 0.929 . S
H1405 C1368 0.930 . S
H1406 C1374 0.929 . S
H1407 C1375 0.930 . S
H1408 C1414 0.930 . S
H1409 C1418 0.930 . S
H1410 C1423 0.929 . S
H1411 C1421 0.929 . S
H1412 C1416 0.929 . S
H1413 C1422 0.929 . S
C1414 H1408 0.930 . S
C1414 C1415 1.367 . S
C1414 C1422 1.378 . S
C1415 C1414 1.367 . S
C1415 C1423 1.433 . S
C1416 H1412 0.929 . S
C1416 C1418 1.378 . S
C1416 C1420 1.350 . S
C1417 C1420 1.463 . S
C1417 C1422 1.350 . S
C1417 N1425 1.427 . S
C1418 H1409 0.930 . S
C1418 C1416 1.378 . S
C1418 C1419 1.367 . S
C1419 C1418 1.367 . S
C1419 C1421 1.433 . S
C1420 C1416 1.350 . S
C1420 C1417 1.463 . S
C1420 N1424 1.427 . S
C1421 H1411 0.929 . S
C1421 C1419 1.433 . S
C1421 N1424 1.384 . S
C1422 H1413 0.929 . S
C1422 C1414 1.378 . S
C1422 C1417 1.350 . S
C1423 H1410 0.929 . S
C1423 C1415 1.433 . S
C1423 N1425 1.384 . S
N1424 C1420 1.427 . S
N1424 C1421 1.384 . S
N1425 C1417 1.427 . S
N1425 C1423 1.384 . S
H1426 C1432 0.930 . S
H1427 C1436 0.930 . S
H1428 C1441 0.929 . S
H1429 C1439 0.929 . S
H1430 C1434 0.929 . S
H1431 C1440 0.929 . S
C1432 H1426 0.930 . S
C1432 C1433 1.367 . S
C1432 C1440 1.378 . S
C1433 C1432 1.367 . S
C1433 C1441 1.433 . S
C1434 H1430 0.929 . S
C1434 C1436 1.378 . S
C1434 C1438 1.350 . S
C1435 C1438 1.463 . S
C1435 C1440 1.350 . S
C1435 N1443 1.427 . S
C1436 H1427 0.930 . S
C1436 C1434 1.378 . S
C1436 C1437 1.367 . S
C1437 C1436 1.367 . S
C1437 C1439 1.433 . S
C1438 C1434 1.350 . S
C1438 C1435 1.463 . S
C1438 N1442 1.427 . S
C1439 H1429 0.929 . S
C1439 C1437 1.433 . S
C1439 N1442 1.384 . S
C1440 H1431 0.929 . S
C1440 C1432 1.378 . S
C1440 C1435 1.350 . S
C1441 H1428 0.929 . S
C1441 C1433 1.433 . S
C1441 N1443 1.384 . S
N1442 C1438 1.427 . S
N1442 C1439 1.384 . S
N1443 C1435 1.427 . S
N1443 C1441 1.384 . S
H1444 C1450 0.930 . S
H1445 C1454 0.930 . S
H1446 C1459 0.929 . S
H1447 C1457 0.929 . S
H1448 C1452 0.929 . S
H1449 C1458 0.929 . S
C1450 H1444 0.930 . S
C1450 C1451 1.367 . S
C1450 C1458 1.378 . S
C1451 C1450 1.367 . S
C1451 C1459 1.433 . S
C1452 H1448 0.929 . S
C1452 C1454 1.378 . S
C1452 C1456 1.350 . S
C1453 C1456 1.463 . S
C1453 C1458 1.350 . S
C1453 N1461 1.427 . S
C1454 H1445 0.930 . S
C1454 C1452 1.378 . S
C1454 C1455 1.367 . S
C1455 C1454 1.367 . S
C1455 C1457 1.433 . S
C1456 C1452 1.350 . S
C1456 C1453 1.463 . S
C1456 N1460 1.427 . S
C1457 H1447 0.929 . S
C1457 C1455 1.433 . S
C1457 N1460 1.384 . S
C1458 H1449 0.929 . S
C1458 C1450 1.378 . S
C1458 C1453 1.350 . S
C1459 H1446 0.929 . S
C1459 C1451 1.433 . S
C1459 N1461 1.384 . S
N1460 C1456 1.427 . S
N1460 C1457 1.384 . S
N1461 C1453 1.427 . S
N1461 C1459 1.384 . S
H1462 C1468 0.930 . S
H1463 C1472 0.930 . S
H1464 C1477 0.929 . S
H1465 C1475 0.929 . S
H1466 C1470 0.929 . S
H1467 C1476 0.929 . S
C1468 H1462 0.930 . S
C1468 C1469 1.367 . S
C1468 C1476 1.378 . S
C1469 C1468 1.367 . S
C1469 C1477 1.433 . S
C1470 H1466 0.929 . S
C1470 C1472 1.378 . S
C1470 C1474 1.350 . S
C1471 C1474 1.463 . S
C1471 C1476 1.350 . S
C1471 N1479 1.427 . S
C1472 H1463 0.930 . S
C1472 C1470 1.378 . S
C1472 C1473 1.367 . S
C1473 C1472 1.367 . S
C1473 C1475 1.433 . S
C1474 C1470 1.350 . S
C1474 C1471 1.463 . S
C1474 N1478 1.427 . S
C1475 H1465 0.929 . S
C1475 C1473 1.433 . S
C1475 N1478 1.384 . S
C1476 H1467 0.929 . S
C1476 C1468 1.378 . S
C1476 C1471 1.350 . S
C1477 H1464 0.929 . S
C1477 C1469 1.433 . S
C1477 N1479 1.384 . S
N1478 C1474 1.427 . S
N1478 C1475 1.384 . S
N1479 C1471 1.427 . S
N1479 C1477 1.384 . S
H1480 C1486 0.930 . S
H1481 C1490 0.930 . S
H1482 C1495 0.929 . S
H1483 C1493 0.929 . S
H1484 C1488 0.929 . S
H1485 C1494 0.929 . S
C1486 H1480 0.930 . S
C1486 C1487 1.367 . S
C1486 C1494 1.378 . S
C1487 C1486 1.367 . S
C1487 C1495 1.433 . S
C1488 H1484 0.929 . S
C1488 C1490 1.378 . S
C1488 C1492 1.350 . S
C1489 C1492 1.463 . S
C1489 C1494 1.350 . S
C1489 N1497 1.427 . S
C1490 H1481 0.930 . S
C1490 C1488 1.378 . S
C1490 C1491 1.367 . S
C1491 C1490 1.367 . S
C1491 C1493 1.433 . S
C1492 C1488 1.350 . S
C1492 C1489 1.463 . S
C1492 N1496 1.427 . S
C1493 H1483 0.929 . S
C1493 C1491 1.433 . S
C1493 N1496 1.384 . S
C1494 H1485 0.929 . S
C1494 C1486 1.378 . S
C1494 C1489 1.350 . S
C1495 H1482 0.929 . S
C1495 C1487 1.433 . S
C1495 N1497 1.384 . S
N1496 C1492 1.427 . S
N1496 C1493 1.384 . S
N1497 C1489 1.427 . S
N1497 C1495 1.384 . S
H1498 C1504 0.930 . S
H1499 C1508 0.930 . S
H1500 C1513 0.929 . S
H1501 C1511 0.929 . S
H1502 C1506 0.929 . S
H1503 C1512 0.929 . S
C1504 H1498 0.930 . S
C1504 C1505 1.367 . S
C1504 C1512 1.378 . S
C1505 C1504 1.367 . S
C1505 C1513 1.433 . S
C1506 H1502 0.929 . S
C1506 C1508 1.378 . S
C1506 C1510 1.350 . S
C1507 C1510 1.463 . S
C1507 C1512 1.350 . S
C1507 N1515 1.427 . S
C1508 H1499 0.930 . S
C1508 C1506 1.378 . S
C1508 C1509 1.367 . S
C1509 C1508 1.367 . S
C1509 C1511 1.433 . S
C1510 C1506 1.350 . S
C1510 C1507 1.463 . S
C1510 N1514 1.427 . S
C1511 H1501 0.929 . S
C1511 C1509 1.433 . S
C1511 N1514 1.384 . S
C1512 H1503 0.929 . S
C1512 C1504 1.378 . S
C1512 C1507 1.350 . S
C1513 H1500 0.929 . S
C1513 C1505 1.433 . S
C1513 N1515 1.384 . S
N1514 C1510 1.427 . S
N1514 C1511 1.384 . S
N1515 C1507 1.427 . S
N1515 C1513 1.384 . S
H1516 C1522 0.930 . S
H1517 C1526 0.930 . S
H1518 C1531 0.929 . S
H1519 C1529 0.929 . S
H1520 C1524 0.929 . S
H1521 C1530 0.929 . S
C1522 H1516 0.930 . S
C1522 C1523 1.367 . S
C1522 C1530 1.378 . S
C1523 C1522 1.367 . S
C1523 C1531 1.433 . S
C1524 H1520 0.929 . S
C1524 C1526 1.378 . S
C1524 C1528 1.350 . S
C1525 C1528 1.463 . S
C1525 C1530 1.350 . S
C1525 N1533 1.427 . S
C1526 H1517 0.930 . S
C1526 C1524 1.378 . S
C1526 C1527 1.367 . S
C1527 C1526 1.367 . S
C1527 C1529 1.433 . S
C1528 C1524 1.350 . S
C1528 C1525 1.463 . S
C1528 N1532 1.427 . S
C1529 H1519 0.929 . S
C1529 C1527 1.433 . S
C1529 N1532 1.384 . S
C1530 H1521 0.929 . S
C1530 C1522 1.378 . S
C1530 C1525 1.350 . S
C1531 H1518 0.929 . S
C1531 C1523 1.433 . S
C1531 N1533 1.384 . S
N1532 C1528 1.427 . S
N1532 C1529 1.384 . S
N1533 C1525 1.427 . S
N1533 C1531 1.384 . S
H1534 C1540 0.930 . S
H1535 C1544 0.930 . S
H1536 C1549 0.929 . S
H1537 C1547 0.929 . S
H1538 C1542 0.929 . S
H1539 C1548 0.929 . S
C1540 H1534 0.930 . S
C1540 C1541 1.367 . S
C1540 C1548 1.378 . S
C1541 C1540 1.367 . S
C1541 C1549 1.433 . S
C1542 H1538 0.929 . S
C1542 C1544 1.378 . S
C1542 C1546 1.350 . S
C1543 C1546 1.463 . S
C1543 C1548 1.350 . S
C1543 N1551 1.427 . S
C1544 H1535 0.930 . S
C1544 C1542 1.378 . S
C1544 C1545 1.367 . S
C1545 C1544 1.367 . S
C1545 C1547 1.433 . S
C1546 C1542 1.350 . S
C1546 C1543 1.463 . S
C1546 N1550 1.427 . S
C1547 H1537 0.929 . S
C1547 C1545 1.433 . S
C1547 N1550 1.384 . S
C1548 H1539 0.929 . S
C1548 C1540 1.378 . S
C1548 C1543 1.350 . S
C1549 H1536 0.929 . S
C1549 C1541 1.433 . S
C1549 N1551 1.384 . S
N1550 C1546 1.427 . S
N1550 C1547 1.384 . S
N1551 C1543 1.427 . S
N1551 C1549 1.384 . S
H1552 C1558 0.930 . S
H1553 C1562 0.930 . S
H1554 C1567 0.929 . S
H1555 C1565 0.929 . S
H1556 C1560 0.929 . S
H1557 C1566 0.929 . S
C1558 H1552 0.930 . S
C1558 C1559 1.367 . S
C1558 C1566 1.378 . S
C1559 C1558 1.367 . S
C1559 C1567 1.433 . S
C1560 H1556 0.929 . S
C1560 C1562 1.378 . S
C1560 C1564 1.350 . S
C1561 C1564 1.463 . S
C1561 C1566 1.350 . S
C1561 N1569 1.427 . S
C1562 H1553 0.930 . S
C1562 C1560 1.378 . S
C1562 C1563 1.367 . S
C1563 C1562 1.367 . S
C1563 C1565 1.433 . S
C1564 C1560 1.350 . S
C1564 C1561 1.463 . S
C1564 N1568 1.427 . S
C1565 H1555 0.929 . S
C1565 C1563 1.433 . S
C1565 N1568 1.384 . S
C1566 H1557 0.929 . S
C1566 C1558 1.378 . S
C1566 C1561 1.350 . S
C1567 H1554 0.929 . S
C1567 C1559 1.433 . S
C1567 N1569 1.384 . S
N1568 C1564 1.427 . S
N1568 C1565 1.384 . S
N1569 C1561 1.427 . S
N1569 C1567 1.384 . S
H1570 C1576 0.930 . S
H1571 C1580 0.930 . S
H1572 C1585 0.929 . S
H1573 C1583 0.929 . S
H1574 C1578 0.929 . S
H1575 C1584 0.929 . S
C1576 H1570 0.930 . S
C1576 C1577 1.367 . S
C1576 C1584 1.378 . S
C1577 C1576 1.367 . S
C1577 C1585 1.433 . S
C1578 H1574 0.929 . S
C1578 C1580 1.378 . S
C1578 C1582 1.350 . S
C1579 C1582 1.463 . S
C1579 C1584 1.350 . S
C1579 N1587 1.427 . S
C1580 H1571 0.930 . S
C1580 C1578 1.378 . S
C1580 C1581 1.367 . S
C1581 C1580 1.367 . S
C1581 C1583 1.433 . S
C1582 C1578 1.350 . S
C1582 C1579 1.463 . S
C1582 N1586 1.427 . S
C1583 H1573 0.929 . S
C1583 C1581 1.433 . S
C1583 N1586 1.384 . S
C1584 H1575 0.929 . S
C1584 C1576 1.378 . S
C1584 C1579 1.350 . S
C1585 H1572 0.929 . S
C1585 C1577 1.433 . S
C1585 N1587 1.384 . S
N1586 C1582 1.427 . S
N1586 C1583 1.384 . S
N1587 C1579 1.427 . S
N1587 C1585 1.384 . S
H1588 C1594 0.930 . S
H1589 C1598 0.930 . S
H1590 C1603 0.929 . S
H1591 C1601 0.929 . S
H1592 C1596 0.929 . S
H1593 C1602 0.929 . S
C1594 H1588 0.930 . S
C1594 C1595 1.367 . S
C1594 C1602 1.378 . S
C1595 C1594 1.367 . S
C1595 C1603 1.433 . S
C1596 H1592 0.929 . S
C1596 C1598 1.378 . S
C1596 C1600 1.350 . S
C1597 C1600 1.463 . S
C1597 C1602 1.350 . S
C1597 N1605 1.427 . S
C1598 H1589 0.930 . S
C1598 C1596 1.378 . S
C1598 C1599 1.367 . S
C1599 C1598 1.367 . S
C1599 C1601 1.433 . S
C1600 C1596 1.350 . S
C1600 C1597 1.463 . S
C1600 N1604 1.427 . S
C1601 H1591 0.929 . S
C1601 C1599 1.433 . S
C1601 N1604 1.384 . S
C1602 H1593 0.929 . S
C1602 C1594 1.378 . S
C1602 C1597 1.350 . S
C1603 H1590 0.929 . S
C1603 C1595 1.433 . S
C1603 N1605 1.384 . S
N1604 C1600 1.427 . S
N1604 C1601 1.384 . S
N1605 C1597 1.427 . S
N1605 C1603 1.384 . S
H1606 C1612 0.930 . S
H1607 C1616 0.930 . S
H1608 C1621 0.929 . S
H1609 C1619 0.929 . S
H1610 C1614 0.929 . S
H1611 C1620 0.929 . S
C1612 H1606 0.930 . S
C1612 C1613 1.367 . S
C1612 C1620 1.378 . S
C1613 C1612 1.367 . S
C1613 C1621 1.433 . S
C1614 H1610 0.929 . S
C1614 C1616 1.378 . S
C1614 C1618 1.350 . S
C1615 C1618 1.463 . S
C1615 C1620 1.350 . S
C1615 N1623 1.427 . S
C1616 H1607 0.930 . S
C1616 C1614 1.378 . S
C1616 C1617 1.367 . S
C1617 C1616 1.367 . S
C1617 C1619 1.433 . S
C1618 C1614 1.350 . S
C1618 C1615 1.463 . S
C1618 N1622 1.427 . S
C1619 H1609 0.929 . S
C1619 C1617 1.433 . S
C1619 N1622 1.384 . S
C1620 H1611 0.929 . S
C1620 C1612 1.378 . S
C1620 C1615 1.350 . S
C1621 H1608 0.929 . S
C1621 C1613 1.433 . S
C1621 N1623 1.384 . S
N1622 C1618 1.427 . S
N1622 C1619 1.384 . S
N1623 C1615 1.427 . S
N1623 C1621 1.384 . S
H1624 C1630 0.930 . S
H1625 C1634 0.930 . S
H1626 C1639 0.929 . S
H1627 C1637 0.929 . S
H1628 C1632 0.929 . S
H1629 C1638 0.929 . S
C1630 H1624 0.930 . S
C1630 C1631 1.367 . S
C1630 C1638 1.378 . S
C1631 C1630 1.367 . S
C1631 C1639 1.433 . S
C1632 H1628 0.929 . S
C1632 C1634 1.378 . S
C1632 C1636 1.350 . S
C1633 C1636 1.463 . S
C1633 C1638 1.350 . S
C1633 N1641 1.427 . S
C1634 H1625 0.930 . S
C1634 C1632 1.378 . S
C1634 C1635 1.367 . S
C1635 C1634 1.367 . S
C1635 C1637 1.433 . S
C1636 C1632 1.350 . S
C1636 C1633 1.463 . S
C1636 N1640 1.427 . S
C1637 H1627 0.929 . S
C1637 C1635 1.433 . S
C1637 N1640 1.384 . S
C1638 H1629 0.929 . S
C1638 C1630 1.378 . S
C1638 C1633 1.350 . S
C1639 H1626 0.929 . S
C1639 C1631 1.433 . S
C1639 N1641 1.384 . S
N1640 C1636 1.427 . S
N1640 C1637 1.384 . S
N1641 C1633 1.427 . S
N1641 C1639 1.384 . S
H1642 C1648 0.930 . S
H1643 C1652 0.930 . S
H1644 C1657 0.929 . S
H1645 C1655 0.929 . S
H1646 C1650 0.929 . S
H1647 C1656 0.929 . S
C1648 H1642 0.930 . S
C1648 C1649 1.367 . S
C1648 C1656 1.378 . S
C1649 C1648 1.367 . S
C1649 C1657 1.433 . S
C1650 H1646 0.929 . S
C1650 C1652 1.378 . S
C1650 C1654 1.350 . S
C1651 C1654 1.463 . S
C1651 C1656 1.350 . S
C1651 N1659 1.427 . S
C1652 H1643 0.930 . S
C1652 C1650 1.378 . S
C1652 C1653 1.367 . S
C1653 C1652 1.367 . S
C1653 C1655 1.433 . S
C1654 C1650 1.350 . S
C1654 C1651 1.463 . S
C1654 N1658 1.427 . S
C1655 H1645 0.929 . S
C1655 C1653 1.433 . S
C1655 N1658 1.384 . S
C1656 H1647 0.929 . S
C1656 C1648 1.378 . S
C1656 C1651 1.350 . S
C1657 H1644 0.929 . S
C1657 C1649 1.433 . S
C1657 N1659 1.384 . S
N1658 C1654 1.427 . S
N1658 C1655 1.384 . S
N1659 C1651 1.427 . S
N1659 C1657 1.384 . S
H1660 C1666 0.930 . S
H1661 C1670 0.930 . S
H1662 C1675 0.929 . S
H1663 C1673 0.929 . S
H1664 C1668 0.929 . S
H1665 C1674 0.929 . S
C1666 H1660 0.930 . S
C1666 C1667 1.367 . S
C1666 C1674 1.378 . S
C1667 C1666 1.367 . S
C1667 C1675 1.433 . S
C1668 H1664 0.929 . S
C1668 C1670 1.378 . S
C1668 C1672 1.350 . S
C1669 C1672 1.463 . S
C1669 C1674 1.350 . S
C1669 N1677 1.427 . S
C1670 H1661 0.930 . S
C1670 C1668 1.378 . S
C1670 C1671 1.367 . S
C1671 C1670 1.367 . S
C1671 C1673 1.433 . S
C1672 C1668 1.350 . S
C1672 C1669 1.463 . S
C1672 N1676 1.427 . S
C1673 H1663 0.929 . S
C1673 C1671 1.433 . S
C1673 N1676 1.384 . S
C1674 H1665 0.929 . S
C1674 C1666 1.378 . S
C1674 C1669 1.350 . S
C1675 H1662 0.929 . S
C1675 C1667 1.433 . S
C1675 N1677 1.384 . S
N1676 C1672 1.427 . S
N1676 C1673 1.384 . S
N1677 C1669 1.427 . S
N1677 C1675 1.384 . S
H1678 C1684 0.930 . S
H1679 C1688 0.930 . S
H1680 C1693 0.929 . S
H1681 C1691 0.929 . S
H1682 C1686 0.929 . S
H1683 C1692 0.929 . S
C1684 H1678 0.930 . S
C1684 C1685 1.367 . S
C1684 C1692 1.378 . S
C1685 C1684 1.367 . S
C1685 C1693 1.433 . S
C1686 H1682 0.929 . S
C1686 C1688 1.378 . S
C1686 C1690 1.350 . S
C1687 C1690 1.463 . S
C1687 C1692 1.350 . S
C1687 N1695 1.427 . S
C1688 H1679 0.930 . S
C1688 C1686 1.378 . S
C1688 C1689 1.367 . S
C1689 C1688 1.367 . S
C1689 C1691 1.433 . S
C1690 C1686 1.350 . S
C1690 C1687 1.463 . S
C1690 N1694 1.427 . S
C1691 H1681 0.929 . S
C1691 C1689 1.433 . S
C1691 N1694 1.384 . S
C1692 H1683 0.929 . S
C1692 C1684 1.378 . S
C1692 C1687 1.350 . S
C1693 H1680 0.929 . S
C1693 C1685 1.433 . S
C1693 N1695 1.384 . S
N1694 C1690 1.427 . S
N1694 C1691 1.384 . S
N1695 C1687 1.427 . S
N1695 C1693 1.384 . S
H1696 C1702 0.930 . S
H1697 C1706 0.930 . S
H1698 C1711 0.929 . S
H1699 C1709 0.929 . S
H1700 C1704 0.929 . S
H1701 C1710 0.929 . S
C1702 H1696 0.930 . S
C1702 C1703 1.367 . S
C1702 C1710 1.378 . S
C1703 C1702 1.367 . S
C1703 C1711 1.433 . S
C1704 H1700 0.929 . S
C1704 C1706 1.378 . S
C1704 C1708 1.350 . S
C1705 C1708 1.463 . S
C1705 C1710 1.350 . S
C1705 N1713 1.427 . S
C1706 H1697 0.930 . S
C1706 C1704 1.378 . S
C1706 C1707 1.367 . S
C1707 C1706 1.367 . S
C1707 C1709 1.433 . S
C1708 C1704 1.350 . S
C1708 C1705 1.463 . S
C1708 N1712 1.427 . S
C1709 H1699 0.929 . S
C1709 C1707 1.433 . S
C1709 N1712 1.384 . S
C1710 H1701 0.929 . S
C1710 C1702 1.378 . S
C1710 C1705 1.350 . S
C1711 H1698 0.929 . S
C1711 C1703 1.433 . S
C1711 N1713 1.384 . S
N1712 C1708 1.427 . S
N1712 C1709 1.384 . S
N1713 C1705 1.427 . S
N1713 C1711 1.384 . S
H1714 C1720 0.930 . S
H1715 C1724 0.930 . S
H1716 C1729 0.929 . S
H1717 C1727 0.929 . S
H1718 C1722 0.929 . S
H1719 C1728 0.929 . S
C1720 H1714 0.930 . S
C1720 C1721 1.367 . S
C1720 C1728 1.378 . S
C1721 C1720 1.367 . S
C1721 C1729 1.433 . S
C1722 H1718 0.929 . S
C1722 C1724 1.378 . S
C1722 C1726 1.350 . S
C1723 C1726 1.463 . S
C1723 C1728 1.350 . S
C1723 N1731 1.427 . S
C1724 H1715 0.930 . S
C1724 C1722 1.378 . S
C1724 C1725 1.367 . S
C1725 C1724 1.367 . S
C1725 C1727 1.433 . S
C1726 C1722 1.350 . S
C1726 C1723 1.463 . S
C1726 N1730 1.427 . S
C1727 H1717 0.929 . S
C1727 C1725 1.433 . S
C1727 N1730 1.384 . S
C1728 H1719 0.929 . S
C1728 C1720 1.378 . S
C1728 C1723 1.350 . S
C1729 H1716 0.929 . S
C1729 C1721 1.433 . S
C1729 N1731 1.384 . S
N1730 C1726 1.427 . S
N1730 C1727 1.384 . S
N1731 C1723 1.427 . S
N1731 C1729 1.384 . S
H1732 C1738 0.930 . S
H1733 C1742 0.930 . S
H1734 C1747 0.929 . S
H1735 C1745 0.929 1_455 S
H1736 C1740 0.929 . S
H1737 C1746 0.929 . S
C1738 H1732 0.930 . S
C1738 C1739 1.367 . S
C1738 C1746 1.378 . S
C1739 C1738 1.367 . S
C1739 C1747 1.433 . S
C1740 H1736 0.929 . S
C1740 C1742 1.378 . S
C1740 C1744 1.350 . S
C1741 C1744 1.463 . S
C1741 C1746 1.350 . S
C1741 N1749 1.427 . S
C1742 H1733 0.930 . S
C1742 C1740 1.378 . S
C1742 C1743 1.367 . S
C1743 C1742 1.367 . S
C1743 C1745 1.433 . S
C1744 C1740 1.350 . S
C1744 C1741 1.463 . S
C1744 N1748 1.427 . S
C1745 H1735 0.929 1_655 S
C1745 C1743 1.433 . S
C1745 N1748 1.384 . S
C1746 H1737 0.929 . S
C1746 C1738 1.378 . S
C1746 C1741 1.350 . S
C1747 H1734 0.929 . S
C1747 C1739 1.433 . S
C1747 N1749 1.384 . S
N1748 C1744 1.427 . S
N1748 C1745 1.384 . S
N1749 C1741 1.427 . S
N1749 C1747 1.384 . S
H1750 C1756 0.930 . S
H1751 C1760 0.930 . S
H1752 C1765 0.929 1_545 S
H1753 C1763 0.929 . S
H1754 C1758 0.929 . S
H1755 C1764 0.929 . S
C1756 H1750 0.930 . S
C1756 C1757 1.367 . S
C1756 C1764 1.378 . S
C1757 C1756 1.367 . S
C1757 C1765 1.433 . S
C1758 H1754 0.929 . S
C1758 C1760 1.378 . S
C1758 C1762 1.350 . S
C1759 C1762 1.463 . S
C1759 C1764 1.350 . S
C1759 N1767 1.427 . S
C1760 H1751 0.930 . S
C1760 C1758 1.378 . S
C1760 C1761 1.367 . S
C1761 C1760 1.367 . S
C1761 C1763 1.433 . S
C1762 C1758 1.350 . S
C1762 C1759 1.463 . S
C1762 N1766 1.427 . S
C1763 H1753 0.929 . S
C1763 C1761 1.433 . S
C1763 N1766 1.384 . S
C1764 H1755 0.929 . S
C1764 C1756 1.378 . S
C1764 C1759 1.350 . S
C1765 H1752 0.929 1_565 S
C1765 C1757 1.433 . S
C1765 N1767 1.384 . S
N1766 C1762 1.427 . S
N1766 C1763 1.384 . S
N1767 C1759 1.427 . S
N1767 C1765 1.384 . S
H1768 C1774 0.930 . S
H1769 C1778 0.930 . S
H1770 C1783 0.929 . S
H1771 C1781 0.929 . S
H1772 C1776 0.929 . S
H1773 C1782 0.929 . S
C1774 H1768 0.930 . S
C1774 C1775 1.367 . S
C1774 C1782 1.378 . S
C1775 C1774 1.367 . S
C1775 C1783 1.433 . S
C1776 H1772 0.929 . S
C1776 C1778 1.378 . S
C1776 C1780 1.350 . S
C1777 C1780 1.463 . S
C1777 C1782 1.350 . S
C1777 N1785 1.427 . S
C1778 H1769 0.930 . S
C1778 C1776 1.378 . S
C1778 C1779 1.367 . S
C1779 C1778 1.367 . S
C1779 C1781 1.433 . S
C1780 C1776 1.350 . S
C1780 C1777 1.463 . S
C1780 N1784 1.427 . S
C1781 H1771 0.929 . S
C1781 C1779 1.433 . S
C1781 N1784 1.384 . S
C1782 H1773 0.929 . S
C1782 C1774 1.378 . S
C1782 C1777 1.350 . S
C1783 H1770 0.929 . S
C1783 C1775 1.433 . S
C1783 N1785 1.384 . S
N1784 C1780 1.427 . S
N1784 C1781 1.384 . S
N1785 C1777 1.427 . S
N1785 C1783 1.384 . S
H1786 C1792 0.930 . S
H1787 C1796 0.930 . S
H1788 C1801 0.929 . S
H1789 C1799 0.927 1_565 S
H1790 C1794 0.929 . S
H1791 C1800 0.929 . S
C1792 H1786 0.930 . S
C1792 C1793 1.367 . S
C1792 C1800 1.378 . S
C1793 C1792 1.367 . S
C1793 C1801 1.433 . S
C1794 H1790 0.929 . S
C1794 C1796 1.378 . S
C1794 C1798 1.350 . S
C1795 C1798 1.463 . S
C1795 C1800 1.350 . S
C1795 N1803 1.427 . S
C1796 H1787 0.930 . S
C1796 C1794 1.378 . S
C1796 C1797 1.367 . S
C1797 C1796 1.367 . S
C1797 C1799 1.433 . S
C1798 C1794 1.350 . S
C1798 C1795 1.463 . S
C1798 N1802 1.427 . S
C1799 H1789 0.927 1_545 S
C1799 C1797 1.433 . S
C1799 N1802 1.384 . S
C1800 H1791 0.929 . S
C1800 C1792 1.378 . S
C1800 C1795 1.350 . S
C1801 H1788 0.929 . S
C1801 C1793 1.433 . S
C1801 N1803 1.384 . S
N1802 C1798 1.427 . S
N1802 C1799 1.384 . S
N1803 C1795 1.427 . S
N1803 C1801 1.384 . S
H1804 C1810 0.930 . S
H1805 C1814 0.930 . S
H1806 C1819 0.929 . S
H1807 C1817 0.929 . S
H1808 C1812 0.929 . S
H1809 C1818 0.929 . S
C1810 H1804 0.930 . S
C1810 C1811 1.367 . S
C1810 C1818 1.378 . S
C1811 C1810 1.367 . S
C1811 C1819 1.433 . S
C1812 H1808 0.929 . S
C1812 C1814 1.378 . S
C1812 C1816 1.350 . S
C1813 C1816 1.463 . S
C1813 C1818 1.350 . S
C1813 N1821 1.427 . S
C1814 H1805 0.930 . S
C1814 C1812 1.378 . S
C1814 C1815 1.367 . S
C1815 C1814 1.367 . S
C1815 C1817 1.433 . S
C1816 C1812 1.350 . S
C1816 C1813 1.463 . S
C1816 N1820 1.427 . S
C1817 H1807 0.929 . S
C1817 C1815 1.433 . S
C1817 N1820 1.384 . S
C1818 H1809 0.929 . S
C1818 C1810 1.378 . S
C1818 C1813 1.350 . S
C1819 H1806 0.929 . S
C1819 C1811 1.433 . S
C1819 N1821 1.384 . S
N1820 C1816 1.427 . S
N1820 C1817 1.384 . S
N1821 C1813 1.427 . S
N1821 C1819 1.384 . S
H1822 C1828 0.930 . S
H1823 C1832 0.930 . S
H1824 C1837 0.929 . S
H1825 C1835 0.929 . S
H1826 C1830 0.929 . S
H1827 C1836 0.929 . S
C1828 H1822 0.930 . S
C1828 C1829 1.367 . S
C1828 C1836 1.378 . S
C1829 C1828 1.367 . S
C1829 C1837 1.433 . S
C1830 H1826 0.929 . S
C1830 C1832 1.378 . S
C1830 C1834 1.350 . S
C1831 C1834 1.463 . S
C1831 C1836 1.350 . S
C1831 N1839 1.427 . S
C1832 H1823 0.930 . S
C1832 C1830 1.378 . S
C1832 C1833 1.367 . S
C1833 C1832 1.367 . S
C1833 C1835 1.433 . S
C1834 C1830 1.350 . S
C1834 C1831 1.463 . S
C1834 N1838 1.427 . S
C1835 H1825 0.929 . S
C1835 C1833 1.433 . S
C1835 N1838 1.384 . S
C1836 H1827 0.929 . S
C1836 C1828 1.378 . S
C1836 C1831 1.350 . S
C1837 H1824 0.929 . S
C1837 C1829 1.433 . S
C1837 N1839 1.384 . S
N1838 C1834 1.427 . S
N1838 C1835 1.384 . S
N1839 C1831 1.427 . S
N1839 C1837 1.384 . S
H1840 C1846 0.930 . S
H1841 C1850 0.930 . S
H1842 C1855 0.929 . S
H1843 C1853 0.929 . S
H1844 C1848 0.929 . S
H1845 C1854 0.929 . S
C1846 H1840 0.930 . S
C1846 C1847 1.367 1_455 S
C1846 C1854 1.378 . S
C1847 C1846 1.367 1_655 S
C1847 C1855 1.433 . S
C1848 H1844 0.929 . S
C1848 C1850 1.378 . S
C1848 C1852 1.353 1_655 S
C1849 C1852 1.463 1_655 S
C1849 C1854 1.353 1_655 S
C1849 N1857 1.424 . S
C1850 H1841 0.930 . S
C1850 C1848 1.378 . S
C1850 C1851 1.367 1_655 S
C1851 C1850 1.367 1_455 S
C1851 C1853 1.433 . S
C1852 C1848 1.353 1_455 S
C1852 C1849 1.463 1_455 S
C1852 N1856 1.424 . S
C1853 H1843 0.929 . S
C1853 C1851 1.433 . S
C1853 N1856 1.384 . S
C1854 H1845 0.929 . S
C1854 C1846 1.378 . S
C1854 C1849 1.353 1_455 S
C1855 H1842 0.929 . S
C1855 C1847 1.433 . S
C1855 N1857 1.384 . S
N1856 C1852 1.424 . S
N1856 C1853 1.384 . S
N1857 C1849 1.424 . S
N1857 C1855 1.384 . S
H1858 C1864 0.930 . S
H1859 C1868 0.930 . S
H1860 C1873 0.929 . S
H1861 C1871 0.929 . S
H1862 C1866 0.929 . S
H1863 C1872 0.929 . S
C1864 H1858 0.930 . S
C1864 C1865 1.367 1_565 S
C1864 C1872 1.378 . S
C1865 C1864 1.367 1_545 S
C1865 C1873 1.433 . S
C1866 H1862 0.929 . S
C1866 C1868 1.378 . S
C1866 C1870 1.347 1_545 S
C1867 C1870 1.462 1_545 S
C1867 C1872 1.347 1_545 S
C1867 N1875 1.432 . S
C1868 H1859 0.930 . S
C1868 C1866 1.378 . S
C1868 C1869 1.367 1_545 S
C1869 C1868 1.367 1_565 S
C1869 C1871 1.433 . S
C1870 C1866 1.347 1_565 S
C1870 C1867 1.462 1_565 S
C1870 N1874 1.432 . S
C1871 H1861 0.929 . S
C1871 C1869 1.433 . S
C1871 N1874 1.384 . S
C1872 H1863 0.929 . S
C1872 C1864 1.378 . S
C1872 C1867 1.347 1_565 S
C1873 H1860 0.929 . S
C1873 C1865 1.433 . S
C1873 N1875 1.384 . S
N1874 C1870 1.432 . S
N1874 C1871 1.384 . S
N1875 C1867 1.432 . S
N1875 C1873 1.384 . S
H1876 C1882 0.930 . S
H1877 C1886 0.930 . S
H1878 C1891 0.929 . S
H1879 C1889 0.929 . S
H1880 C1884 0.929 . S
H1881 C1890 0.929 . S
C1882 H1876 0.930 . S
C1882 C1883 1.367 1_455 S
C1882 C1890 1.378 . S
C1883 C1882 1.367 1_655 S
C1883 C1891 1.433 . S
C1884 H1880 0.929 . S
C1884 C1886 1.378 . S
C1884 C1888 1.349 1_655 S
C1885 C1888 1.462 1_655 S
C1885 C1890 1.349 1_655 S
C1885 N1893 1.428 . S
C1886 H1877 0.930 . S
C1886 C1884 1.378 . S
C1886 C1887 1.367 1_655 S
C1887 C1886 1.367 1_455 S
C1887 C1889 1.433 . S
C1888 C1884 1.349 1_455 S
C1888 C1885 1.462 1_455 S
C1888 N1892 1.428 . S
C1889 H1879 0.929 . S
C1889 C1887 1.433 . S
C1889 N1892 1.384 . S
C1890 H1881 0.929 . S
C1890 C1882 1.378 . S
C1890 C1885 1.349 1_455 S
C1891 H1878 0.929 . S
C1891 C1883 1.433 . S
C1891 N1893 1.384 . S
N1892 C1888 1.428 . S
N1892 C1889 1.384 . S
N1893 C1885 1.428 . S
N1893 C1891 1.384 . S
H1894 C1900 0.930 . S
H1895 C1904 0.930 . S
H1896 C1909 0.929 . S
H1897 C1907 0.929 . S
H1898 C1902 0.929 . S
H1899 C1908 0.929 . S
C1900 H1894 0.930 . S
C1900 C1901 1.367 . S
C1900 C1908 1.378 . S
C1901 C1900 1.367 . S
C1901 C1909 1.433 1_565 S
C1902 H1898 0.929 . S
C1902 C1904 1.378 . S
C1902 C1906 1.359 . S
C1903 C1906 1.460 1_565 S
C1903 C1908 1.359 . S
C1903 N1911 1.421 1_565 S
C1904 H1895 0.930 . S
C1904 C1902 1.378 . S
C1904 C1905 1.367 . S
C1905 C1904 1.367 . S
C1905 C1907 1.433 1_545 S
C1906 C1902 1.359 . S
C1906 C1903 1.460 1_545 S
C1906 N1910 1.421 1_545 S
C1907 H1897 0.929 . S
C1907 C1905 1.433 1_565 S
C1907 N1910 1.384 . S
C1908 H1899 0.929 . S
C1908 C1900 1.378 . S
C1908 C1903 1.359 . S
C1909 H1896 0.929 . S
C1909 C1901 1.433 1_545 S
C1909 N1911 1.384 . S
N1910 C1906 1.421 1_565 S
N1910 C1907 1.384 . S
N1911 C1903 1.421 1_545 S
N1911 C1909 1.384 . S
H1912 C1918 0.930 . S
H1913 C1922 0.930 . S
H1914 C1927 0.929 . S
H1915 C1925 0.929 . S
H1916 C1920 0.929 . S
H1917 C1926 0.929 . S
C1918 H1912 0.930 . S
C1918 C1919 1.367 . S
C1918 C1926 1.378 . S
C1919 C1918 1.367 . S
C1919 C1927 1.433 . S
C1920 H1916 0.929 . S
C1920 C1922 1.378 . S
C1920 C1924 1.350 . S
C1921 C1924 1.463 1_556 S
C1921 C1926 1.350 . S
C1921 N1929 1.427 . S
C1922 H1913 0.930 . S
C1922 C1920 1.378 . S
C1922 C1923 1.367 . S
C1923 C1922 1.367 . S
C1923 C1925 1.433 . S
C1924 C1920 1.350 . S
C1924 C1921 1.463 1_554 S
C1924 N1928 1.427 . S
C1925 H1915 0.929 . S
C1925 C1923 1.433 . S
C1925 N1928 1.384 . S
C1926 H1917 0.929 . S
C1926 C1918 1.378 . S
C1926 C1921 1.350 . S
C1927 H1914 0.929 . S
C1927 C1919 1.433 . S
C1927 N1929 1.384 . S
N1928 C1924 1.427 . S
N1928 C1925 1.384 . S
N1929 C1921 1.427 . S
N1929 C1927 1.384 . S
H1930 C1936 0.930 . S
H1931 C1940 0.930 . S
H1932 C1945 0.929 . S
H1933 C1943 0.929 . S
H1934 C1938 0.929 . S
H1935 C1944 0.929 . S
C1936 H1930 0.930 . S
C1936 C1937 1.367 . S
C1936 C1944 1.378 . S
C1937 C1936 1.367 . S
C1937 C1945 1.433 . S
C1938 H1934 0.929 . S
C1938 C1940 1.378 . S
C1938 C1942 1.350 . S
C1939 C1942 1.463 1_556 S
C1939 C1944 1.350 . S
C1939 N1947 1.427 . S
C1940 H1931 0.930 . S
C1940 C1938 1.378 . S
C1940 C1941 1.367 . S
C1941 C1940 1.367 . S
C1941 C1943 1.433 . S
C1942 C1938 1.350 . S
C1942 C1939 1.463 1_554 S
C1942 N1946 1.427 . S
C1943 H1933 0.929 . S
C1943 C1941 1.433 . S
C1943 N1946 1.384 . S
C1944 H1935 0.929 . S
C1944 C1936 1.378 . S
C1944 C1939 1.350 . S
C1945 H1932 0.929 . S
C1945 C1937 1.433 . S
C1945 N1947 1.384 . S
N1946 C1942 1.427 . S
N1946 C1943 1.384 . S
N1947 C1939 1.427 . S
N1947 C1945 1.384 . S
H1948 C1954 0.930 . S
H1949 C1958 0.930 . S
H1950 C1963 0.929 . S
H1951 C1961 0.929 . S
H1952 C1956 0.929 . S
H1953 C1962 0.929 . S
C1954 H1948 0.930 . S
C1954 C1955 1.367 . S
C1954 C1962 1.378 . S
C1955 C1954 1.367 . S
C1955 C1963 1.433 . S
C1956 H1952 0.929 . S
C1956 C1958 1.378 . S
C1956 C1960 1.350 . S
C1957 C1960 1.463 1_554 S
C1957 C1962 1.350 . S
C1957 N1965 1.427 . S
C1958 H1949 0.930 . S
C1958 C1956 1.378 . S
C1958 C1959 1.367 . S
C1959 C1958 1.367 . S
C1959 C1961 1.433 . S
C1960 C1956 1.350 . S
C1960 C1957 1.463 1_556 S
C1960 N1964 1.427 . S
C1961 H1951 0.929 . S
C1961 C1959 1.433 . S
C1961 N1964 1.384 . S
C1962 H1953 0.929 . S
C1962 C1954 1.378 . S
C1962 C1957 1.350 . S
C1963 H1950 0.929 . S
C1963 C1955 1.433 . S
C1963 N1965 1.384 . S
N1964 C1960 1.427 . S
N1964 C1961 1.384 . S
N1965 C1957 1.427 . S
N1965 C1963 1.384 . S
H1966 C1972 0.930 . S
H1967 C1976 0.930 . S
H1968 C1981 0.929 . S
H1969 C1979 0.929 . S
H1970 C1974 0.929 . S
H1971 C1980 0.929 . S
C1972 H1966 0.930 . S
C1972 C1973 1.367 . S
C1972 C1980 1.378 . S
C1973 C1972 1.367 . S
C1973 C1981 1.433 . S
C1974 H1970 0.929 . S
C1974 C1976 1.378 . S
C1974 C1978 1.350 . S
C1975 C1978 1.463 1_556 S
C1975 C1980 1.350 . S
C1975 N1983 1.427 . S
C1976 H1967 0.930 . S
C1976 C1974 1.378 . S
C1976 C1977 1.367 . S
C1977 C1976 1.367 . S
C1977 C1979 1.433 . S
C1978 C1974 1.350 . S
C1978 C1975 1.463 1_554 S
C1978 N1982 1.427 . S
C1979 H1969 0.929 . S
C1979 C1977 1.433 . S
C1979 N1982 1.384 . S
C1980 H1971 0.929 . S
C1980 C1972 1.378 . S
C1980 C1975 1.350 . S
C1981 H1968 0.929 . S
C1981 C1973 1.433 . S
C1981 N1983 1.384 . S
N1982 C1978 1.427 . S
N1982 C1979 1.384 . S
N1983 C1975 1.427 . S
N1983 C1981 1.384 . S
C1415 C20 1.634 . S
C1419 C293 1.578 . S
C1433 C49 1.549 . S
C1437 C117 1.622 . S
C1451 C137 1.566 . S
C1455 C196 1.632 . S
C1469 C225 1.549 . S
C1473 C313 1.623 . S
C1487 C409 1.634 . S
C1491 C497 1.578 . S
C1505 C460 1.625 . S
C1509 C557 1.557 . S
C1523 C585 1.634 . S
C1527 C636 1.578 . S
C1541 C673 1.625 . S
C1545 C381 1.559 . S
C1559 C724 1.634 . S
C1563 C988 1.578 . S
C1577 C753 1.553 . S
C1581 C821 1.623 . S
C1595 C841 1.571 . S
C1599 C900 1.632 . S
C1613 C1025 1.625 . S
C1617 C929 1.559 . S
C1631 C1201 1.568 . S
C1635 C1105 1.632 . S
C1649 C1261 1.556 . S
C1653 C1164 1.624 . S
C1667 C1289 1.633 . S
C1671 C1340 1.575 . S
C1685 C1377 1.622 . S
C1689 C1076 1.545 . S
C1703 C57 0.828 . S
C1707 C1369 0.829 . S
C1721 C108 0.816 . S
C1725 C1085 0.837 . S
C1739 C1173 0.837 . S
C1743 C233 0.819 . S
C1757 C321 0.819 . S
C1761 C1252 0.836 . S
C1775 C812 0.816 . S
C1779 C372 0.837 . S
C1793 C937 0.837 . S
C1797 C469 0.817 . S
C1811 C548 0.824 . S
C1815 C1017 0.827 . S
C1829 C665 0.816 . S
C1833 C761 0.837 . S
C1847 C29 1.451 . S
C1851 C577 1.457 . S
C1865 C645 1.445 . S
C1869 C145 1.457 . S
C1883 C401 1.450 . S
C1887 C205 1.458 . S
C1901 C489 1.458 . S
C1905 C284 1.446 . S
C1919 C733 1.451 . S
C1923 C1281 1.457 . S
C1937 C849 1.450 . S
C1941 C1349 1.456 . S
C1955 C1113 1.460 . S
C1959 C909 1.450 . S
C1973 C997 1.453 . S
C1977 C1193 1.447 . S
