# Generated by pormake.
# Topology wmc, (6)-cn, num edge types: 1
# Building blocks:
#     Node 0, Type 0, BuildingBlock: IZENUY_clean_sbu_0, # of connection points: 6
#     Node 1, Type 0, BuildingBlock: IZENUY_clean_sbu_0, # of connection points: 6
#     Node 2, Type 0, BuildingBlock: IZENUY_clean_sbu_0, # of connection points: 6
#     Node 3, Type 0, BuildingBlock: IZENUY_clean_sbu_0, # of connection points: 6
#     Node 4, Type 0, BuildingBlock: IZENUY_clean_sbu_0, # of connection points: 6
#     Node 5, Type 0, BuildingBlock: IZENUY_clean_sbu_0, # of connection points: 6
#     Node 6, Type 0, BuildingBlock: IZENUY_clean_sbu_0, # of connection points: 6
#     Node 7, Type 0, BuildingBlock: IZENUY_clean_sbu_0, # of connection points: 6
#     Node 8, Type 0, BuildingBlock: IZENUY_clean_sbu_0, # of connection points: 6
#     Node 9, Type 0, BuildingBlock: IZENUY_clean_sbu_0, # of connection points: 6
#     Node 10, Type 0, BuildingBlock: IZENUY_clean_sbu_0, # of connection points: 6
#     Node 11, Type 0, BuildingBlock: IZENUY_clean_sbu_0, # of connection points: 6
#     Node 12, Type 0, BuildingBlock: IZENUY_clean_sbu_0, # of connection points: 6
#     Node 13, Type 0, BuildingBlock: IZENUY_clean_sbu_0, # of connection points: 6
#     Node 14, Type 0, BuildingBlock: IZENUY_clean_sbu_0, # of connection points: 6
#     Node 15, Type 0, BuildingBlock: IZENUY_clean_sbu_0, # of connection points: 6
#     Node 16, Type 0, BuildingBlock: IZENUY_clean_sbu_0, # of connection points: 6
#     Node 17, Type 0, BuildingBlock: IZENUY_clean_sbu_0, # of connection points: 6
#     Edge 18, Type (0, 0), BuildingBlock: XUDNAN_clean_linker_2, # of connection points: 2
#     Edge 19, Type (0, 0), BuildingBlock: XUDNAN_clean_linker_2, # of connection points: 2
#     Edge 20, Type (0, 0), BuildingBlock: XUDNAN_clean_linker_2, # of connection points: 2
#     Edge 21, Type (0, 0), BuildingBlock: XUDNAN_clean_linker_2, # of connection points: 2
#     Edge 22, Type (0, 0), BuildingBlock: XUDNAN_clean_linker_2, # of connection points: 2
#     Edge 23, Type (0, 0), BuildingBlock: XUDNAN_clean_linker_2, # of connection points: 2
#     Edge 24, Type (0, 0), BuildingBlock: XUDNAN_clean_linker_2, # of connection points: 2
#     Edge 25, Type (0, 0), BuildingBlock: XUDNAN_clean_linker_2, # of connection points: 2
#     Edge 26, Type (0, 0), BuildingBlock: XUDNAN_clean_linker_2, # of connection points: 2
#     Edge 27, Type (0, 0), BuildingBlock: XUDNAN_clean_linker_2, # of connection points: 2
#     Edge 28, Type (0, 0), BuildingBlock: XUDNAN_clean_linker_2, # of connection points: 2
#     Edge 29, Type (0, 0), BuildingBlock: XUDNAN_clean_linker_2, # of connection points: 2
#     Edge 30, Type (0, 0), BuildingBlock: XUDNAN_clean_linker_2, # of connection points: 2
#     Edge 31, Type (0, 0), BuildingBlock: XUDNAN_clean_linker_2, # of connection points: 2
#     Edge 32, Type (0, 0), BuildingBlock: XUDNAN_clean_linker_2, # of connection points: 2
#     Edge 33, Type (0, 0), BuildingBlock: XUDNAN_clean_linker_2, # of connection points: 2
#     Edge 34, Type (0, 0), BuildingBlock: XUDNAN_clean_linker_2, # of connection points: 2
#     Edge 35, Type (0, 0), BuildingBlock: XUDNAN_clean_linker_2, # of connection points: 2
#     Edge 36, Type (0, 0), BuildingBlock: XUDNAN_clean_linker_2, # of connection points: 2
#     Edge 37, Type (0, 0), BuildingBlock: XUDNAN_clean_linker_2, # of connection points: 2
#     Edge 38, Type (0, 0), BuildingBlock: XUDNAN_clean_linker_2, # of connection points: 2
#     Edge 39, Type (0, 0), BuildingBlock: XUDNAN_clean_linker_2, # of connection points: 2
#     Edge 40, Type (0, 0), BuildingBlock: XUDNAN_clean_linker_2, # of connection points: 2
#     Edge 41, Type (0, 0), BuildingBlock: XUDNAN_clean_linker_2, # of connection points: 2
#     Edge 42, Type (0, 0), BuildingBlock: XUDNAN_clean_linker_2, # of connection points: 2
#     Edge 43, Type (0, 0), BuildingBlock: XUDNAN_clean_linker_2, # of connection points: 2
#     Edge 44, Type (0, 0), BuildingBlock: XUDNAN_clean_linker_2, # of connection points: 2
#     Edge 45, Type (0, 0), BuildingBlock: XUDNAN_clean_linker_2, # of connection points: 2
#     Edge 46, Type (0, 0), BuildingBlock: XUDNAN_clean_linker_2, # of connection points: 2
#     Edge 47, Type (0, 0), BuildingBlock: XUDNAN_clean_linker_2, # of connection points: 2
#     Edge 48, Type (0, 0), BuildingBlock: XUDNAN_clean_linker_2, # of connection points: 2
#     Edge 49, Type (0, 0), BuildingBlock: XUDNAN_clean_linker_2, # of connection points: 2
#     Edge 50, Type (0, 0), BuildingBlock: XUDNAN_clean_linker_2, # of connection points: 2
#     Edge 51, Type (0, 0), BuildingBlock: XUDNAN_clean_linker_2, # of connection points: 2
#     Edge 52, Type (0, 0), BuildingBlock: XUDNAN_clean_linker_2, # of connection points: 2
#     Edge 53, Type (0, 0), BuildingBlock: XUDNAN_clean_linker_2, # of connection points: 2
#     Edge 54, Type (0, 0), BuildingBlock: XUDNAN_clean_linker_2, # of connection points: 2
#     Edge 55, Type (0, 0), BuildingBlock: XUDNAN_clean_linker_2, # of connection points: 2
#     Edge 56, Type (0, 0), BuildingBlock: XUDNAN_clean_linker_2, # of connection points: 2
#     Edge 57, Type (0, 0), BuildingBlock: XUDNAN_clean_linker_2, # of connection points: 2
#     Edge 58, Type (0, 0), BuildingBlock: XUDNAN_clean_linker_2, # of connection points: 2
#     Edge 59, Type (0, 0), BuildingBlock: XUDNAN_clean_linker_2, # of connection points: 2
#     Edge 60, Type (0, 0), BuildingBlock: XUDNAN_clean_linker_2, # of connection points: 2
#     Edge 61, Type (0, 0), BuildingBlock: XUDNAN_clean_linker_2, # of connection points: 2
#     Edge 62, Type (0, 0), BuildingBlock: XUDNAN_clean_linker_2, # of connection points: 2
#     Edge 63, Type (0, 0), BuildingBlock: XUDNAN_clean_linker_2, # of connection points: 2
#     Edge 64, Type (0, 0), BuildingBlock: XUDNAN_clean_linker_2, # of connection points: 2
#     Edge 65, Type (0, 0), BuildingBlock: XUDNAN_clean_linker_2, # of connection points: 2
#     Edge 66, Type (0, 0), BuildingBlock: XUDNAN_clean_linker_2, # of connection points: 2
#     Edge 67, Type (0, 0), BuildingBlock: XUDNAN_clean_linker_2, # of connection points: 2
#     Edge 68, Type (0, 0), BuildingBlock: XUDNAN_clean_linker_2, # of connection points: 2
#     Edge 69, Type (0, 0), BuildingBlock: XUDNAN_clean_linker_2, # of connection points: 2
#     Edge 70, Type (0, 0), BuildingBlock: XUDNAN_clean_linker_2, # of connection points: 2
#     Edge 71, Type (0, 0), BuildingBlock: XUDNAN_clean_linker_2, # of connection points: 2
# Relax obj value: 0.348
# Max RMSD: 0.273
# Mean RMSD: 0.273
data_MOF--net-wmc--node1-IZENUY_clean_sbu_0--edge1-XUDNAN_clean_linker_2
_symmetry_space_group_name_H-M    P1
_symmetry_Int_Tables_number       1
_symmetry_cell_setting            triclinic
loop_
_symmetry_equiv_pos_as_xyz
'x, y, z'
_cell_length_a     45.674143
_cell_length_b     45.558054
_cell_length_c     29.92552
_cell_angle_alpha  89.966142
_cell_angle_beta   89.855366
_cell_angle_gamma 120.11154
loop_
_atom_site_label
_atom_site_type_symbol
_atom_site_fract_x
_atom_site_fract_y
_atom_site_fract_z
_atom_type_partial_charge
Fe0 Fe 0.66171 0.1342 0.96978 0.0
Fe1 Fe 0.59959 0.13351 0.00995 0.0
O2 O 0.64374 0.15218 0.00585 0.0
Fe3 Fe 0.66993 0.18804 0.03857 0.0
O4 O 0.688 0.21227 0.98884 0.0
O5 O 0.70087 0.17623 0.95849 0.0
O6 O 0.64368 0.14266 0.92127 0.0
C7 C 0.61259 0.13237 0.91649 0.0
C8 C 0.70524 0.15058 0.04056 0.0
O9 O 0.59265 0.12262 0.94984 0.0
C10 C 0.62126 0.14867 0.09949 0.0
O11 O 0.62325 0.08875 0.97106 0.0
O12 O 0.5979 0.09478 0.02708 0.0
O13 O 0.70432 0.17792 0.04432 0.0
O14 O 0.68279 0.12603 0.01725 0.0
C15 C 0.61785 0.20022 0.01043 0.0
O16 O 0.59933 0.14233 0.06956 0.0
O17 O 0.65245 0.1651 0.09041 0.0
C18 C 0.59708 0.07574 0.99664 0.0
O19 O 0.59981 0.1715 0.99348 0.0
O20 O 0.64122 0.20565 0.03778 0.0
C21 C 0.70408 0.20577 0.96031 0.0
Fe22 Fe 0.93367 0.54688 0.97942 0.0
Fe23 Fe 0.93357 0.48404 0.01632 0.0
O24 O 0.91557 0.51023 0.01487 0.0
Fe25 Fe 0.88051 0.50034 0.04947 0.0
O26 O 0.85577 0.49662 0.00118 0.0
O27 O 0.89252 0.54541 0.9705 0.0
O28 O 0.92426 0.52082 0.93003 0.0
C29 C 0.93459 0.50018 0.92373 0.0
C30 C 0.91847 0.57369 0.05223 0.0
O31 O 0.9444 0.48944 0.9562 0.0
C32 C 0.9193 0.48788 0.10709 0.0
O33 O 0.97874 0.55307 0.97932 0.0
O34 O 0.97239 0.52058 0.03424 0.0
O35 O 0.89201 0.545 0.05837 0.0
O36 O 0.94237 0.57607 0.02702 0.0
C37 C 0.86688 0.43606 0.01706 0.0
O38 O 0.92491 0.47297 0.07547 0.0
O39 O 0.90371 0.5037 0.10015 0.0
C40 C 0.99149 0.53921 0.00402 0.0
O41 O 0.89531 0.44697 -0.00092 0.0
O42 O 0.86178 0.45366 0.04562 0.0
C43 C 0.86236 0.52078 0.97505 0.0
Fe44 Fe 0.51749 0.40069 0.96107 0.0
Fe45 Fe 0.57579 0.46796 0.99595 0.0
O46 O 0.55295 0.4233 0.99657 0.0
Fe47 Fe 0.56647 0.40149 0.03219 0.0
O48 O 0.57505 0.38314 0.9848 0.0
O49 O 0.52558 0.36458 0.95235 0.0
O50 O 0.543 0.41946 0.91154 0.0
C51 C 0.56118 0.45085 0.90452 0.0
C52 C 0.49394 0.35857 0.03409 0.0
O53 O 0.56914 0.47194 0.93617 0.0
C54 C 0.57293 0.45127 0.0878 0.0
O55 O 0.50545 0.43526 0.96113 0.0
O56 O 0.53871 0.46925 0.01286 0.0
O57 O 0.52373 0.3637 0.03969 0.0
O58 O 0.48915 0.3785 0.009 0.0
C59 C 0.62776 0.45549 -0.00066 0.0
O60 O 0.58688 0.47182 0.05552 0.0
O61 O 0.55877 0.41965 0.08158 0.0
C62 C 0.51543 0.46189 0.98536 0.0
O63 O 0.61381 0.46888 0.97833 0.0
O64 O 0.61211 0.43439 0.03048 0.0
C65 C 0.55364 0.36495 0.95601 0.0
Fe66 Fe 0.9488 0.47321 0.51449 0.0
Fe67 Fe 0.88863 0.40732 0.54854 0.0
O68 O 0.92469 0.42833 0.51425 0.0
Fe69 Fe 0.93635 0.40427 0.47899 0.0
O70 O 0.92951 0.42315 0.43016 0.0
O71 O 0.95772 0.47626 0.45364 0.0
O72 O 0.91369 0.47813 0.49922 0.0
C73 C 0.88564 0.46495 0.5186 0.0
C74 C 1.00094 0.46457 0.5003 0.0
O75 O 0.87688 0.44068 0.54596 0.0
C76 C 0.9173 0.36347 0.55339 0.0
O77 O 0.94299 0.47742 0.57488 0.0
O78 O 0.91341 0.42441 0.59818 0.0
O79 O 0.98325 0.438 0.47656 0.0
O80 O 0.98584 0.47134 0.52977 0.0
C81 C 0.86396 0.36766 0.47629 0.0
O82 O 0.89318 0.36963 0.55786 0.0
O83 O 0.94206 0.38166 0.52694 0.0
C84 C 0.93339 0.45532 0.6057 0.0
O85 O 0.86233 0.38935 0.50031 0.0
O86 O 0.89205 0.36823 0.47218 0.0
C87 C 0.9435 0.45458 0.42265 0.0
Fe88 Fe 0.59885 0.48648 0.4957 0.0
Fe89 Fe 0.66567 0.49671 0.53246 0.0
O90 O 0.64379 0.51026 0.49746 0.0
Fe91 Fe 0.66721 0.54701 0.46356 0.0
O92 O 0.65021 0.52219 0.41359 0.0
O93 O 0.59663 0.49284 0.43486 0.0
O94 O 0.59802 0.44787 0.47999 0.0
C95 C 0.61218 0.43457 0.50071 0.0
C96 C 0.60384 0.54638 0.48202 0.0
O97 O 0.63421 0.45103 0.53008 0.0
C98 C 0.70696 0.56943 0.53824 0.0
O99 O 0.59414 0.4762 0.5563 0.0
O100 O 0.64675 0.5032 0.58103 0.0
O101 O 0.63232 0.55812 0.46158 0.0
O102 O 0.59635 0.52353 0.51053 0.0
C103 C 0.70629 0.51385 0.46065 0.0
O104 O 0.70207 0.53957 0.54237 0.0
O105 O 0.68808 0.57504 0.51222 0.0
C106 C 0.61549 0.49054 0.58759 0.0
O107 O 0.68529 0.48986 0.48474 0.0
O108 O 0.70441 0.54074 0.45675 0.0
C109 C 0.61926 0.5036 0.40456 0.0
Fe110 Fe 0.57753 0.12292 0.50928 0.0
Fe111 Fe 0.56574 0.18031 0.53874 0.0
O112 O 0.55471 0.14469 0.50475 0.0
Fe113 Fe 0.52097 0.13091 0.4659 0.0
O114 O 0.54964 0.13912 0.41999 0.0
O115 O 0.57478 0.11294 0.44872 0.0
O116 O 0.6169 0.15985 0.49562 0.0
C117 C 0.62967 0.18768 0.51559 0.0
C118 C 0.51864 0.06812 0.49296 0.0
O119 O 0.61173 0.19472 0.54107 0.0
C120 C 0.49284 0.14764 0.53525 0.0
O121 O 0.58472 0.12982 0.57016 0.0
O122 O 0.55619 0.15517 0.58861 0.0
O123 O 0.51011 0.08459 0.46627 0.0
O124 O 0.53926 0.08438 0.52324 0.0
C125 C 0.55424 0.20298 0.46121 0.0
O126 O 0.52204 0.17312 0.5425 0.0
O127 O 0.4898 0.12352 0.5102 0.0
C128 C 0.56889 0.13719 0.59881 0.0
O129 O 0.57562 0.20695 0.49038 0.0
O130 O 0.52746 0.17432 0.45618 0.0
C131 C 0.56822 0.12619 0.41564 0.0
Fe132 Fe 0.33367 0.46521 0.297 0.0
Fe133 Fe 0.26392 0.4514 0.32879 0.0
O134 O 0.3085 0.47466 0.33296 0.0
Fe135 Fe 0.32768 0.5074 0.37287 0.0
O136 O 0.34851 0.53802 0.32941 0.0
O137 O 0.36935 0.51006 0.29424 0.0
O138 O 0.31703 0.475 0.24839 0.0
C139 C 0.28625 0.46033 0.23796 0.0
C140 C 0.37229 0.47934 0.37221 0.0
O141 O 0.26334 0.44525 0.26733 0.0
C142 C 0.27555 0.46001 0.42243 0.0
O143 O 0.3002 0.41839 0.29079 0.0
O144 O 0.26417 0.41299 0.34183 0.0
O145 O 0.36527 0.50239 0.38155 0.0
O146 O 0.35413 0.45641 0.34393 0.0
C147 C 0.27313 0.51445 0.33993 0.0
O148 O 0.25656 0.45409 0.38875 0.0
O149 O 0.30724 0.47814 0.41872 0.0
C150 C 0.2722 0.39945 0.31159 0.0
O151 O 0.26155 0.48849 0.3159 0.0
O152 O 0.29451 0.51966 0.37048 0.0
C153 C 0.36867 0.53728 0.30147 0.0
Fe154 Fe 0.59941 0.87716 0.30688 0.0
Fe155 Fe 0.59777 0.81221 0.34175 0.0
O156 O 0.58439 0.84276 0.34547 0.0
Fe157 Fe 0.55441 0.83726 0.3872 0.0
O158 O 0.53305 0.85418 0.35464 0.0
O159 O 0.55601 0.86358 0.28795 0.0
O160 O 0.6019 0.85265 0.25999 0.0
C161 C 0.58923 0.82108 0.25324 0.0
C162 C 0.59073 0.90598 0.3897 0.0
O163 O 0.5809 0.80026 0.28545 0.0
C164 C 0.59964 0.82249 0.4319 0.0
O165 O 0.64492 0.89213 0.32023 0.0
O166 O 0.63906 0.84097 0.31917 0.0
O167 O 0.58244 0.8788 0.41082 0.0
O168 O 0.59737 0.90761 0.34783 0.0
C169 C 0.52921 0.77151 0.35892 0.0
O170 O 0.61603 0.82301 0.3975 0.0
O171 O 0.57068 0.81951 0.42847 0.0
C172 C 0.65755 0.87257 0.31614 0.0
O173 O 0.55868 0.77642 0.36335 0.0
O174 O 0.52374 0.79573 0.36461 0.0
C175 C 0.53095 0.8563 0.31313 0.0
Fe176 Fe 0.18383 0.73085 0.29867 0.0
Fe177 Fe 0.23903 0.8016 0.33052 0.0
O178 O 0.21947 0.75689 0.33311 0.0
Fe179 Fe 0.23599 0.73837 0.36946 0.0
O180 O 0.2445 0.7188 0.32305 0.0
O181 O 0.19394 0.6961 0.29348 0.0
O182 O 0.20877 0.74953 0.24815 0.0
C183 C 0.22485 0.781 0.23975 0.0
C184 C 0.16383 0.6921 0.37537 0.0
O185 O 0.23182 0.80258 0.2705 0.0
C186 C 0.2397 0.78848 0.42298 0.0
O187 O 0.16863 0.76275 0.29564 0.0
O188 O 0.19961 0.79888 0.34618 0.0
O189 O 0.19459 0.70027 0.38104 0.0
O190 O 0.15616 0.70843 0.34733 0.0
C191 C 0.29506 0.79489 0.334 0.0
O192 O 0.25055 0.80844 0.38979 0.0
O193 O 0.22848 0.75718 0.41813 0.0
C194 C 0.17754 0.7906 0.31654 0.0
O195 O 0.27921 0.8068 0.31409 0.0
O196 O 0.28067 0.77267 0.36436 0.0
C197 C 0.22166 0.69629 0.29931 0.0
Fe198 Fe 0.5961 0.73318 0.80556 0.0
Fe199 Fe 0.61034 0.80257 0.84235 0.0
O200 O 0.58512 0.7577 0.84098 0.0
Fe201 Fe 0.54853 0.73687 0.87438 0.0
O202 O 0.52285 0.72044 0.8254 0.0
O203 O 0.55151 0.69808 0.7977 0.0
O204 O 0.59045 0.75297 0.75691 0.0
C205 C 0.60568 0.78445 0.74936 0.0
C206 C 0.57555 0.69176 0.87896 0.0
O207 O 0.61902 0.80601 0.78091 0.0
C208 C 0.59374 0.78274 0.93346 0.0
O209 O 0.64318 0.76564 0.80382 0.0
O210 O 0.64682 0.79927 0.85668 0.0
O211 O 0.55167 0.69831 0.88283 0.0
O212 O 0.60072 0.70983 0.8532 0.0
C213 C 0.54762 0.79606 0.84678 0.0
O214 O 0.60486 0.8058 0.90355 0.0
O215 O 0.57265 0.7524 0.92444 0.0
C216 C 0.66138 0.7929 0.82605 0.0
O217 O 0.57595 0.80917 0.82805 0.0
O218 O 0.53802 0.77104 0.87298 0.0
C219 C 0.52386 0.69843 0.80136 0.0
Fe220 Fe 0.26104 0.82439 0.83032 0.0
Fe221 Fe 0.32654 0.83262 0.86947 0.0
O222 O 0.3058 0.84661 0.83301 0.0
Fe223 Fe 0.33019 0.88284 0.79898 0.0
O224 O 0.31385 0.85782 0.74915 0.0
O225 O 0.25996 0.83071 0.76919 0.0
O226 O 0.25872 0.78515 0.81587 0.0
C227 C 0.27116 0.77073 0.83796 0.0
C228 C 0.26804 0.88474 0.8152 0.0
O229 O 0.29393 0.78697 0.86685 0.0
C230 C 0.36881 0.90545 0.87397 0.0
O231 O 0.25508 0.81398 0.89064 0.0
O232 O 0.30717 0.83987 0.91736 0.0
O233 O 0.29621 0.89506 0.79466 0.0
O234 O 0.26015 0.86239 0.8445 0.0
C235 C 0.36811 0.84835 0.79898 0.0
O236 O 0.36389 0.87556 0.8791 0.0
O237 O 0.34957 0.91041 0.84798 0.0
C238 C 0.27575 0.82718 0.92278 0.0
O239 O 0.34637 0.82474 0.82287 0.0
O240 O 0.36701 0.87563 0.79422 0.0
C241 C 0.28292 0.84026 0.73943 0.0
Fe242 Fe 0.17944 0.46266 0.79932 0.0
Fe243 Fe 0.23708 0.45051 0.82787 0.0
O244 O 0.21549 0.47345 0.83277 0.0
Fe245 Fe 0.22996 0.5074 0.87087 0.0
O246 O 0.2379 0.53639 0.82576 0.0
O247 O 0.18727 0.50711 0.79658 0.0
O248 O 0.20425 0.4721 0.74895 0.0
C249 C 0.22118 0.45832 0.73786 0.0
C250 C 0.15742 0.47755 0.87598 0.0
O251 O 0.23038 0.44407 0.76669 0.0
C252 C 0.23606 0.4612 0.92158 0.0
O253 O 0.1667 0.41623 0.79312 0.0
O254 O 0.19893 0.41176 0.84208 0.0
O255 O 0.18741 0.502 0.88191 0.0
O256 O 0.15207 0.4538 0.84879 0.0
C257 C 0.29099 0.51413 0.83612 0.0
O258 O 0.24802 0.45398 0.88764 0.0
O259 O 0.22294 0.47972 0.91792 0.0
C260 C 0.17672 0.39781 0.81274 0.0
O261 O 0.27627 0.48755 0.81338 0.0
O262 O 0.27531 0.5201 0.86658 0.0
C263 C 0.21469 0.53526 0.8021 0.0
Fe264 Fe 0.99148 0.80177 0.63798 0.0
Fe265 Fe 0.92511 0.7849 0.68601 0.0
O266 O 0.96956 0.81016 0.68086 0.0
Fe267 Fe 0.99202 0.84379 0.71842 0.0
O268 O 1.00659 0.87356 0.67333 0.0
O269 O 1.02615 0.84726 0.63225 0.0
O270 O 0.96876 0.81026 0.5956 0.0
C271 C 0.93696 0.79462 0.59218 0.0
C272 C 1.03705 0.81723 0.70595 0.0
O273 O 0.91796 0.77869 0.6251 0.0
C274 C 0.94803 0.79512 0.77544 0.0
O275 O 0.95868 0.75446 0.63372 0.0
O276 O 0.92917 0.74797 0.69347 0.0
O277 O 1.03072 0.84028 0.71786 0.0
O278 O 1.01739 0.79423 0.67855 0.0
C279 C 0.93274 0.84724 0.70043 0.0
O280 O 0.92451 0.78762 0.7475 0.0
O281 O 0.97839 0.8154 0.76549 0.0
C282 C 0.9341 0.73486 0.65966 0.0
O283 O 0.91873 0.82022 0.67854 0.0
O284 O 0.95794 0.85439 0.72536 0.0
C285 C 1.02559 0.87414 0.64263 0.0
Fe286 Fe 0.25766 0.2024 0.63522 0.0
Fe287 Fe 0.27239 0.15041 0.6822 0.0
O288 O 0.25037 0.17341 0.67952 0.0
Fe289 Fe 0.21993 0.16627 0.72099 0.0
O290 O 0.18706 0.15043 0.68005 0.0
O291 O 0.21293 0.19301 0.63285 0.0
O292 O 0.24593 0.16942 0.59402 0.0
C293 C 0.25908 0.15101 0.58948 0.0
C294 C 0.24764 0.23727 0.70266 0.0
O295 O 0.2746 0.14648 0.62133 0.0
C296 C 0.27022 0.16933 0.7721 0.0
O297 O 0.30356 0.21474 0.62784 0.0
O298 O 0.31288 0.18939 0.68346 0.0
O299 O 0.2252 0.20899 0.71834 0.0
O300 O 0.26857 0.23827 0.67346 0.0
C301 C 0.20846 0.10059 0.70465 0.0
O302 O 0.27346 0.15016 0.74407 0.0
O303 O 0.25185 0.18196 0.76369 0.0
C304 C 0.32369 0.20757 0.64886 0.0
O305 O 0.23351 0.10997 0.67932 0.0
O306 O 0.20747 0.12155 0.73153 0.0
C307 C 0.18626 0.16678 0.64674 0.0
Fe308 Fe 0.8542 0.07134 0.65024 0.0
Fe309 Fe 0.91199 0.13586 0.69382 0.0
O310 O 0.88643 0.09103 0.69102 0.0
Fe311 Fe 0.89403 0.06589 0.72859 0.0
O312 O 0.90508 0.04751 0.68326 0.0
O313 O 0.85927 0.03318 0.64415 0.0
O314 O 0.88487 0.09051 0.60598 0.0
C315 C 0.90393 0.12193 0.60048 0.0
C316 C 0.82163 0.02708 0.71938 0.0
O317 O 0.91145 0.14244 0.63285 0.0
C318 C 0.89766 0.11457 0.78388 0.0
O319 O 0.84538 0.10817 0.6474 0.0
O320 O 0.87518 0.13982 0.70333 0.0
O321 O 0.84999 0.03039 0.72997 0.0
O322 O 0.82057 0.04839 0.69249 0.0
C323 C 0.95979 0.11788 0.70653 0.0
O324 O 0.91673 0.13667 0.75535 0.0
O325 O 0.88315 0.08342 0.77509 0.0
C326 C 0.85486 0.13455 0.67207 0.0
O327 O 0.95028 0.13464 0.68372 0.0
O328 O 0.93981 0.09592 0.73431 0.0
C329 C 0.8844 0.02936 0.65373 0.0
Fe330 Fe 0.26508 0.06768 0.13549 0.0
Fe331 Fe 0.27468 0.13149 0.18323 0.0
O332 O 0.25148 0.08731 0.17595 0.0
Fe333 Fe 0.21552 0.06243 0.20884 0.0
O334 O 0.19043 0.04791 0.1591 0.0
O335 O 0.22156 0.03021 0.12673 0.0
O336 O 0.25645 0.08864 0.09078 0.0
C337 C 0.26947 0.1204 0.08791 0.0
C338 C 0.24827 1.02224 0.20417 0.0
O339 O 0.28206 0.13931 0.122 0.0
C340 C 0.2588 0.10596 0.27171 0.0
O341 O 0.31178 0.10381 0.13373 0.0
O342 O 0.31127 0.12757 0.19411 0.0
O343 O 0.22268 1.02581 0.21119 0.0
O344 O 0.2726 0.04348 0.17913 0.0
C345 C 0.21096 0.1216 0.19111 0.0
O346 O 0.26926 0.13046 0.24436 0.0
O347 O 0.23901 0.07591 0.25997 0.0
C348 C 0.3279 0.12882 0.16056 0.0
O349 O 0.23962 0.1375 0.17347 0.0
O350 O 0.20166 0.09426 0.2126 0.0
C351 C 0.19274 0.02777 0.13281 0.0
Fe352 Fe 0.99199 0.20561 0.14987 0.0
Fe353 Fe 0.92908 0.14769 0.19552 0.0
O354 O 0.97341 0.1728 0.19099 0.0
Fe355 Fe 0.99898 0.16531 0.22773 0.0
O356 O 1.01706 0.15523 0.18111 0.0
O357 O 1.03032 0.20132 0.1425 0.0
O358 O 0.97298 0.17514 0.10552 0.0
C359 C 0.94166 0.15528 0.10132 0.0
C360 C 1.03672 0.2381 0.21798 0.0
O361 O 0.92189 0.14747 0.13464 0.0
C362 C 0.95066 0.16052 0.28536 0.0
O363 O 0.95439 0.21356 0.14734 0.0
O364 O 0.92798 0.18602 0.20601 0.0
O365 O 1.03375 0.20977 0.22874 0.0
O366 O 1.01484 0.23902 0.19214 0.0
C367 C 0.94644 0.09918 0.20653 0.0
O368 O 0.92871 0.14288 0.2563 0.0
O369 O 0.98179 0.17497 0.27634 0.0
C370 C 0.92814 0.2025 0.17264 0.0
O371 O 0.92891 0.10867 0.18549 0.0
O372 O 0.96955 0.11922 0.2329 0.0
C373 C 1.03418 0.17601 0.15087 0.0
Fe374 Fe 0.90652 0.78315 0.18588 0.0
Fe375 Fe 0.90434 0.84599 0.21669 0.0
O376 O 0.88898 0.81013 0.18194 0.0
Fe377 Fe 0.85633 0.80196 0.14264 0.0
O378 O 0.88434 0.80708 0.09674 0.0
O379 O 0.90577 0.77693 0.12497 0.0
O380 O 0.94914 0.81685 0.17633 0.0
C381 C 0.9642 0.84494 0.19558 0.0
C382 C 0.84608 0.73454 0.16158 0.0
O383 O 0.94819 0.85442 0.22064 0.0
C384 C 0.83301 0.82271 0.2137 0.0
O385 O 0.91072 0.7863 0.24739 0.0
O386 O 0.89095 0.82005 0.26589 0.0
O387 O 0.83917 0.75449 0.13971 0.0
O388 O 0.86499 0.74693 0.19476 0.0
C389 C 0.89838 0.87364 0.14034 0.0
O390 O 0.86371 0.84532 0.21999 0.0
O391 O 0.82593 0.79792 0.18721 0.0
C392 C 0.89768 0.79725 0.27567 0.0
O393 O 0.91834 0.87324 0.16872 0.0
O394 O 0.86922 0.84762 0.13506 0.0
C395 C 0.90081 0.79174 0.0923 0.0
H396 H 0.5586 0.20121 0.00857 0.0
H397 H 0.66532 0.26101 0.97621 0.0
H398 H 0.65546 0.30424 0.94011 0.0
H399 H 0.52361 0.22232 0.91129 0.0
H400 H 0.49254 0.2261 0.94417 0.0
H401 H 0.50677 0.19742 0.96148 0.0
H402 H 0.5228 0.22649 0.03808 0.0
H403 H 0.51068 0.25683 0.0214 0.0
H404 H 0.55274 0.27141 0.04159 0.0
H405 H 0.63445 0.34155 0.91026 0.0
H406 H 0.60858 0.37768 0.9083 0.0
H407 H 0.51611 0.29607 0.96466 0.0
C408 C 0.5798 0.22344 0.99373 0.0
C409 C 0.61271 0.22801 0.9951 0.0
C410 C 0.64001 0.25742 0.97593 0.0
C411 C 0.63449 0.28169 0.95461 0.0
C412 C 0.60156 0.27622 0.9531 0.0
C413 C 0.57487 0.24828 0.97326 0.0
C414 C 0.54321 0.25109 0.97339 0.0
C415 C 0.51486 0.22252 0.94594 0.0
C416 C 0.53172 0.25142 0.02155 0.0
C417 C 0.55623 0.28525 0.95087 0.0
C418 C 0.58968 0.29869 0.93795 0.0
C419 C 0.60819 0.33112 0.91978 0.0
C420 C 0.5931 0.35132 0.91815 0.0
C421 C 0.56017 0.33939 0.93565 0.0
C422 C 0.5408 0.30529 0.94964 0.0
H423 H 0.76828 0.2358 0.98922 0.0
H424 H 0.70236 0.24683 0.89635 0.0
H425 H 0.7396 0.3091 0.89796 0.0
H426 H 0.77612 0.30068 0.05756 0.0
H427 H 0.81818 0.31187 0.07509 0.0
H428 H 0.78897 0.26944 0.05639 0.0
H429 H 0.83655 0.27791 0.99731 0.0
H430 H 0.86301 0.32072 0.01682 0.0
H431 H 0.85175 0.31286 0.95858 0.0
H432 H 0.77641 0.36987 0.92353 0.0
H433 H 0.81633 0.42442 0.95999 0.0
H434 H 0.85721 0.37351 0.0385 0.0
C435 C 0.76319 0.25116 0.96675 0.0
C436 C 0.73315 0.23637 0.94151 0.0
C437 C 0.72603 0.25754 0.91447 0.0
C438 C 0.7467 0.29303 0.91599 0.0
C439 C 0.7744 0.30692 0.9448 0.0
C440 C 0.78309 0.28658 0.96901 0.0
C441 C 0.81075 0.30725 0.00247 0.0
C442 C 0.79781 0.29668 0.0507 0.0
C443 C 0.84241 0.30454 0.99324 0.0
C444 C 0.81686 0.34248 0.99277 0.0
C445 C 0.79518 0.34173 0.96002 0.0
C446 C 0.79391 0.37078 0.94854 0.0
C447 C 0.81621 0.40148 0.96988 0.0
C448 C 0.83933 0.40283 0.00229 0.0
C449 C 0.83954 0.37296 0.01396 0.0
H450 H 0.68412 0.4832 0.05284 0.0
H451 H 0.64984 0.45219 0.9171 0.0
H452 H 0.70895 0.47411 0.89227 0.0
H453 H 0.76107 0.562 0.02188 0.0
H454 H 0.78591 0.55869 0.06619 0.0
H455 H 0.74095 0.54098 0.07343 0.0
H456 H 0.73373 0.48193 0.09135 0.0
H457 H 0.77871 0.49987 0.08553 0.0
H458 H 0.75028 0.4634 0.05279 0.0
H459 H 0.77126 0.4949 0.88376 0.0
H460 H 0.83124 0.51035 0.89391 0.0
H461 H 0.82562 0.53363 0.03271 0.0
C462 C 0.68922 0.4808 0.01807 0.0
C463 C 0.6627 0.46561 0.98688 0.0
C464 C 0.67007 0.4635 0.94141 0.0
C465 C 0.70349 0.47613 0.92698 0.0
C466 C 0.72932 0.49161 0.95828 0.0
C467 C 0.7226 0.49409 0.00286 0.0
C468 C 0.75491 0.51133 0.02979 0.0
C469 C 0.76106 0.54526 0.04895 0.0
C470 C 0.75437 0.48772 0.06703 0.0
C471 C 0.78061 0.51695 0.99378 0.0
C472 C 0.76547 0.50569 0.95261 0.0
C473 C 0.78364 0.50471 0.9155 0.0
C474 C 0.81776 0.51393 0.92125 0.0
C475 C 0.83309 0.52425 0.96358 0.0
C476 C 0.81467 0.52714 -0.00042 0.0
H477 H 0.7141 0.45878 0.45557 0.0
H478 H 0.77044 0.56877 0.44978 0.0
H479 H 0.8237 0.56785 0.45984 0.0
H480 H 0.75588 0.45183 0.54383 0.0
H481 H 0.75559 0.4138 0.52645 0.0
H482 H 0.72298 0.42191 0.50751 0.0
H483 H 0.73717 0.41705 0.42515 0.0
H484 H 0.76939 0.40804 0.44361 0.0
H485 H 0.78007 0.44251 0.40526 0.0
H486 H 0.86955 0.55495 0.48087 0.0
H487 H 0.90492 0.53127 0.50642 0.0
H488 H 0.81707 0.43006 0.50601 0.0
C489 C 0.73774 0.48266 0.45447 0.0
C490 C 0.73812 0.51385 0.45146 0.0
C491 C 0.76955 0.54458 0.45108 0.0
C492 C 0.79989 0.54426 0.45726 0.0
C493 C 0.79822 0.51305 0.46355 0.0
C494 C 0.76793 0.48276 0.46151 0.0
C495 C 0.77215 0.45292 0.47447 0.0
C496 C 0.75036 0.43403 0.5155 0.0
C497 C 0.76423 0.42871 0.43474 0.0
C498 C 0.8094 0.4712 0.48562 0.0
C499 C 0.82412 0.50577 0.47831 0.0
C500 C 0.85831 0.52793 0.48641 0.0
C501 C 0.87809 0.5143 0.50124 0.0
C502 C 0.86349 0.47897 0.50881 0.0
C503 C 0.82864 0.45724 0.50138 0.0
H504 H 0.51844 0.23272 0.48724 0.0
H505 H 0.60116 0.24583 0.40271 0.0
H506 H 0.62242 0.3074 0.39871 0.0
H507 H 0.50902 0.30542 0.43742 0.0
H508 H 0.5005 0.31619 0.492 0.0
H509 H 0.48714 0.27266 0.47875 0.0
H510 H 0.51956 0.26995 0.5478 0.0
H511 H 0.53416 0.3137 0.56055 0.0
H512 H 0.5643 0.29961 0.55259 0.0
H513 H 0.64135 0.36743 0.41686 0.0
H514 H 0.65234 0.42253 0.44714 0.0
H515 H 0.55771 0.37183 0.52041 0.0
C516 C 0.5396 0.24835 0.46539 0.0
C517 C 0.55747 0.23455 0.44369 0.0
C518 C 0.58647 0.25589 0.41793 0.0
C519 C 0.59892 0.29092 0.41599 0.0
C520 C 0.58201 0.30416 0.44005 0.0
C521 C 0.55247 0.28352 0.46342 0.0
C522 C 0.54153 0.30456 0.4906 0.0
C523 C 0.50753 0.2994 0.47367 0.0
C524 C 0.5398 0.29646 0.54084 0.0
C525 C 0.57025 0.34009 0.48034 0.0
C526 C 0.59323 0.33921 0.45096 0.0
C527 C 0.62319 0.36849 0.43909 0.0
C528 C 0.62947 0.39957 0.45686 0.0
C529 C 0.60602 0.40112 0.48619 0.0
C530 C 0.57597 0.3711 0.49797 0.0
H531 H 0.66542 0.25773 0.51081 0.0
H532 H 0.67685 0.16882 0.50615 0.0
H533 H 0.73715 0.20476 0.48682 0.0
H534 H 0.72073 0.30065 0.4172 0.0
H535 H 0.73855 0.34241 0.44116 0.0
H536 H 0.69608 0.31008 0.45558 0.0
H537 H 0.7114 0.31782 0.53971 0.0
H538 H 0.75354 0.35083 0.52549 0.0
H539 H 0.74743 0.31507 0.55855 0.0
H540 H 0.79654 0.25015 0.46934 0.0
H541 H 0.85195 0.30285 0.46231 0.0
H542 H 0.8017 0.36202 0.4738 0.0
C543 C 0.68084 0.24603 0.50648 0.0
C544 C 0.66655 0.21055 0.5103 0.0
C545 C 0.68733 0.196 0.50345 0.0
C546 C 0.72157 0.21615 0.49218 0.0
C547 C 0.73473 0.25089 0.48731 0.0
C548 C 0.71516 0.26582 0.49455 0.0
C549 C 0.73581 0.30384 0.48737 0.0
C550 C 0.72196 0.31488 0.44798 0.0
C551 C 0.73714 0.32301 0.53034 0.0
C552 C 0.77008 0.30787 0.47618 0.0
C553 C 0.76886 0.27699 0.47583 0.0
C554 C 0.79782 0.27452 0.469 0.0
C555 C 0.82918 0.30458 0.46452 0.0
C556 C 0.83122 0.33656 0.46716 0.0
C557 C 0.80099 0.33794 0.47115 0.0
H558 H 0.27792 0.69038 0.30813 0.0
H559 H 0.17106 0.63246 0.27505 0.0
H560 H 0.1734 0.57949 0.28008 0.0
H561 H 0.30472 0.63464 0.25284 0.0
H562 H 0.33395 0.64085 0.29712 0.0
H563 H 0.32505 0.67408 0.28326 0.0
H564 H 0.30822 0.6753 0.36551 0.0
H565 H 0.31615 0.64151 0.37959 0.0
H566 H 0.27531 0.63697 0.39106 0.0
H567 H 0.18608 0.53293 0.29617 0.0
H568 H 0.20875 0.49582 0.31715 0.0
H569 H 0.30648 0.58417 0.34502 0.0
C570 C 0.25515 0.66667 0.30055 0.0
C571 C 0.22427 0.66562 0.29092 0.0
C572 C 0.19507 0.63399 0.28182 0.0
C573 C 0.19613 0.60376 0.28498 0.0
C574 C 0.22657 0.60571 0.29712 0.0
C575 C 0.25568 0.6364 0.30418 0.0
C576 C 0.28447 0.63158 0.32033 0.0
C577 C 0.31377 0.64614 0.28635 0.0
C578 C 0.29673 0.64727 0.36688 0.0
C579 C 0.26682 0.59325 0.32219 0.0
C580 C 0.23356 0.57888 0.3082 0.0
C581 C 0.21209 0.54391 0.30693 0.0
C582 C 0.22516 0.52308 0.31915 0.0
C583 C 0.25924 0.5372 0.33313 0.0
C584 C 0.28019 0.57276 0.33525 0.0
H585 H 0.52433 0.70973 0.37298 0.0
H586 H 0.47426 0.75752 0.30771 0.0
H587 H 0.43292 0.70255 0.2746 0.0
H588 H 0.51296 0.65037 0.28424 0.0
H589 H 0.50471 0.61624 0.32209 0.0
H590 H 0.5316 0.65968 0.33915 0.0
H591 H 0.4936 0.64995 0.40855 0.0
H592 H 0.46745 0.60635 0.39228 0.0
H593 H 0.44874 0.63258 0.40104 0.0
H594 H 0.39628 0.6425 0.25038 0.0
H595 H 0.36084 0.58013 0.24788 0.0
H596 H 0.43427 0.57058 0.32822 0.0
C597 C 0.50458 0.70856 0.35181 0.0
C598 C 0.50224 0.73788 0.34335 0.0
C599 C 0.47603 0.73532 0.31558 0.0
C600 C 0.45284 0.70429 0.29591 0.0
C601 C 0.45626 0.67603 0.30423 0.0
C602 C 0.48106 0.6777 0.33219 0.0
C603 C 0.47752 0.64301 0.33849 0.0
C604 C 0.50855 0.6423 0.31987 0.0
C605 C 0.47144 0.63234 0.38801 0.0
C606 C 0.44639 0.6214 0.31038 0.0
C607 C 0.43504 0.64115 0.29008 0.0
C608 C 0.40525 0.62684 0.26534 0.0
C609 C 0.38551 0.5914 0.26351 0.0
C610 C 0.39554 0.57071 0.28639 0.0
C611 C 0.427 0.58587 0.30857 0.0
H612 H 0.47249 0.80332 0.33935 0.0
H613 H 0.51353 0.89225 0.25443 0.0
H614 H 0.45555 0.88376 0.24574 0.0
H615 H 0.38854 0.75293 0.28173 0.0
H616 H 0.36762 0.73595 0.33442 0.0
H617 H 0.41073 0.74582 0.32631 0.0
H618 H 0.42842 0.78407 0.3964 0.0
H619 H 0.38576 0.7753 0.40432 0.0
H620 H 0.41979 0.81856 0.39907 0.0
H621 H 0.39412 0.86941 0.25642 0.0
H622 H 0.33519 0.84906 0.27989 0.0
H623 H 0.33608 0.76958 0.35891 0.0
C624 C 0.46912 0.82 0.31692 0.0
C625 C 0.49726 0.84789 0.29652 0.0
C626 C 0.49213 0.8702 0.26923 0.0
C627 C 0.45934 0.86564 0.26452 0.0
C628 C 0.4323 0.83846 0.28686 0.0
C629 C 0.43693 0.81562 0.31176 0.0
C630 C 0.40491 0.7903 0.33594 0.0
C631 C 0.3922 0.75412 0.31854 0.0
C632 C 0.41006 0.79221 0.38693 0.0
C633 C 0.38154 0.80315 0.32236 0.0
C634 C 0.39757 0.83066 0.29366 0.0
C635 C 0.38131 0.84763 0.27832 0.0
C636 C 0.34785 0.83595 0.29215 0.0
C637 C 0.33096 0.80774 0.32153 0.0
C638 C 0.34823 0.79125 0.33669 0.0
H639 H 0.47847 0.76242 0.84095 0.0
H640 H 0.5677 0.86225 0.82943 0.0
H641 H 0.53188 0.88627 0.80731 0.0
H642 H 0.43535 0.77184 0.74437 0.0
H643 H 0.39411 0.74784 0.76984 0.0
H644 H 0.42725 0.73913 0.78454 0.0
H645 H 0.4193 0.74867 0.86822 0.0
H646 H 0.38624 0.75729 0.85324 0.0
H647 H 0.42209 0.78803 0.88494 0.0
H648 H 0.48564 0.8998 0.79003 0.0
H649 H 0.4326 0.90173 0.78314 0.0
H650 H 0.37467 0.79229 0.79922 0.0
C651 C 0.49035 0.78939 0.83428 0.0
C652 C 0.52574 0.81059 0.83742 0.0
C653 C 0.54055 0.84563 0.82742 0.0
C654 C 0.52046 0.85946 0.8146 0.0
C655 C 0.48566 0.83779 0.81097 0.0
C656 C 0.47075 0.80348 0.82044 0.0
C657 C 0.43284 0.78567 0.81391 0.0
C658 C 0.42173 0.75958 0.77589 0.0
C659 C 0.41402 0.76896 0.85769 0.0
C660 C 0.42866 0.8155 0.8009 0.0
C661 C 0.45937 0.84534 0.79898 0.0
C662 C 0.46143 0.87653 0.79079 0.0
C663 C 0.4312 0.87738 0.78641 0.0
C664 C 0.39947 0.84719 0.79031 0.0
C665 C 0.3985 0.81582 0.79564 0.0
H666 H 0.27151 0.59756 0.8037 0.0
H667 H 0.16278 0.5479 0.78449 0.0
H668 H 0.16606 0.60373 0.78914 0.0
H669 H 0.27591 0.65153 0.88652 0.0
H670 H 0.31583 0.68736 0.86971 0.0
H671 H 0.30646 0.64501 0.85651 0.0
H672 H 0.31658 0.66 0.77205 0.0
H673 H 0.32746 0.70281 0.78571 0.0
H674 H 0.29476 0.67897 0.74537 0.0
H675 H 0.18064 0.66409 0.80307 0.0
H676 H 0.20539 0.72476 0.82148 0.0
H677 H 0.304 0.73397 0.83774 0.0
C678 C 0.24843 0.59843 0.79908 0.0
C679 C 0.21684 0.5683 0.79337 0.0
C680 C 0.18728 0.5706 0.78807 0.0
C681 C 0.18891 0.60219 0.7911 0.0
C682 C 0.22025 0.63108 0.79928 0.0
C683 C 0.24956 0.62952 0.80262 0.0
C684 C 0.27964 0.66366 0.81502 0.0
C685 C 0.29536 0.66174 0.85959 0.0
C686 C 0.30617 0.67716 0.77729 0.0
C687 C 0.26254 0.68463 0.81936 0.0
C688 C 0.2284 0.66547 0.80945 0.0
C689 C 0.20732 0.6793 0.8107 0.0
C690 C 0.22159 0.71372 0.82138 0.0
C691 C 0.2565 0.73387 0.83147 0.0
C692 C 0.27714 0.71898 0.83096 0.0
H693 H 0.32738 0.58339 0.84615 0.0
H694 H 0.33634 0.4969 0.80508 0.0
H695 H 0.39606 0.53515 0.78429 0.0
H696 H 0.37897 0.63904 0.75726 0.0
H697 H 0.398 0.67637 0.79192 0.0
H698 H 0.35604 0.64215 0.80442 0.0
H699 H 0.37452 0.63782 0.88464 0.0
H700 H 0.41633 0.67243 0.87264 0.0
H701 H 0.41078 0.63259 0.89256 0.0
H702 H 0.45587 0.58274 0.77159 0.0
H703 H 0.51121 0.63605 0.77039 0.0
H704 H 0.46143 0.69137 0.81294 0.0
C705 C 0.34208 0.57256 0.83328 0.0
C706 C 0.32739 0.53724 0.82758 0.0
C707 C 0.34719 0.52396 0.80981 0.0
C708 C 0.38108 0.54546 0.79773 0.0
C709 C 0.3947 0.58024 0.80293 0.0
C710 C 0.37584 0.59373 0.82026 0.0
C711 C 0.39656 0.632 0.82241 0.0
C712 C 0.38149 0.64834 0.79216 0.0
C713 C 0.39975 0.64443 0.87095 0.0
C714 C 0.4301 0.63779 0.80438 0.0
C715 C 0.42861 0.60768 0.79333 0.0
C716 C 0.45729 0.6066 0.77947 0.0
C717 C 0.4886 0.63702 0.77854 0.0
C718 C 0.49079 0.66798 0.79126 0.0
C719 C 0.46077 0.66827 0.80254 0.0
H720 H 0.9396 1.0219 0.64793 0.0
H721 H 0.8302 0.96545 0.63926 0.0
H722 H 0.83093 0.91189 0.64907 0.0
H723 H 0.95671 0.95714 0.59659 0.0
H724 H 0.99061 0.96704 0.63524 0.0
H725 H 0.98164 0.99963 0.61813 0.0
H726 H 0.97569 1.01147 0.7011 0.0
H727 H 0.98349 0.97827 0.71867 0.0
H728 H 0.94532 0.97755 0.73609 0.0
H729 H 0.84338 0.86561 0.67031 0.0
H730 H 0.86665 0.82917 0.69251 0.0
H731 H 0.96791 0.91678 0.69337 0.0
C732 C 0.91587 0.9982 0.64664 0.0
C733 C 0.88481 0.99786 0.64298 0.0
C734 C 0.85427 0.96634 0.64141 0.0
C735 C 0.85448 0.93582 0.64751 0.0
C736 C 0.88546 0.93741 0.65481 0.0
C737 C 0.91569 0.96778 0.65348 0.0
C738 C 0.94529 0.96316 0.66611 0.0
C739 C 0.97001 0.97227 0.62665 0.0
C740 C 0.96349 0.98384 0.70798 0.0
C741 C 0.92698 0.92547 0.67584 0.0
C742 C 0.89252 0.91106 0.66873 0.0
C743 C 0.8703 0.87662 0.67567 0.0
C744 C 0.88372 0.8562 0.68869 0.0
C745 C 0.91899 0.87029 0.69537 0.0
C746 C 0.94079 0.9055 0.68957 0.0
H747 H 0.20302 0.03786 0.69073 0.0
H748 H 0.14409 0.08838 0.69888 0.0
H749 H 0.09491 0.03796 0.66726 0.0
H750 H 0.16587 0.98636 0.59329 0.0
H751 H 0.16319 0.94841 0.61598 0.0
H752 H 0.19572 0.9895 0.63502 0.0
H753 H 0.17574 0.97295 0.71704 0.0
H754 H 0.14407 0.93152 0.69819 0.0
H755 H 0.13184 0.95689 0.73082 0.0
H756 H 0.05391 0.98477 0.62958 0.0
H757 H 1.01484 0.92406 0.61628 0.0
H758 H 0.09515 0.90246 0.64503 0.0
C759 C 0.17959 0.03804 0.68623 0.0
C760 C 0.17765 0.06747 0.69599 0.0
C761 C 0.14642 0.06651 0.69078 0.0
C762 C 0.1184 0.03805 0.67241 0.0
C763 C 0.12151 1.01006 0.66122 0.0
C764 C 0.15058 1.00896 0.67019 0.0
C765 C 0.14509 0.97363 0.66122 0.0
C766 C 0.1689 0.97455 0.62417 0.0
C767 C 0.14943 0.95781 0.70438 0.0
C768 C 0.10845 0.95527 0.6456 0.0
C769 C 0.09608 0.97743 0.64412 0.0
C770 C 0.06311 0.96704 0.63102 0.0
C771 C 0.04125 0.93256 0.62279 0.0
C772 C 0.052 0.9086 0.62917 0.0
C773 C 0.08651 0.92027 0.63859 0.0
H774 H 1.0214 0.17572 0.69248 0.0
H775 H 0.97191 0.06603 0.69644 0.0
H776 H 1.02279 0.0685 0.66365 0.0
H777 H 0.07361 0.19234 0.5938 0.0
H778 H 0.1107 0.22784 0.6176 0.0
H779 H 0.06914 0.21807 0.636 0.0
H780 H 0.0846 0.21382 0.71819 0.0
H781 H 0.12645 0.22481 0.70002 0.0
H782 H 0.10124 0.18642 0.7316 0.0
H783 H 0.07735 0.08243 0.62822 0.0
H784 H 0.13857 0.10576 0.61755 0.0
H785 H 0.15685 0.2065 0.64805 0.0
C786 C 1.0215 0.15232 0.68654 0.0
C787 C 0.99251 0.12052 0.6957 0.0
C788 C 0.99366 0.09046 0.68872 0.0
C789 C 1.0223 0.09166 0.66975 0.0
C790 C 0.05006 0.12329 0.65951 0.0
C791 C 0.05059 0.15315 0.66963 0.0
C792 C 0.08556 0.18364 0.66173 0.0
C793 C 0.08468 0.20684 0.6251 0.0
C794 C 0.10034 0.20331 0.70548 0.0
C795 C 0.1046 0.16615 0.64597 0.0
C796 C 0.08308 0.13144 0.64314 0.0
C797 C 0.09449 0.10952 0.6305 0.0
C798 C 0.12924 0.12302 0.62404 0.0
C799 C 0.1522 0.15782 0.63177 0.0
C800 C 0.13968 0.18 0.64062 0.0
H801 H 0.14182 0.08742 0.18053 0.0
H802 H 0.23022 0.18826 0.18579 0.0
H803 H 0.19537 0.21321 0.16381 0.0
H804 H 0.10313 0.10211 0.08444 0.0
H805 H 0.06059 0.07732 0.10584 0.0
H806 H 0.09244 0.06707 0.12184 0.0
H807 H 0.08142 0.07254 0.20554 0.0
H808 H 0.04898 0.08178 0.18977 0.0
H809 H 0.08316 0.11084 0.22505 0.0
H810 H 0.15073 0.22757 0.14396 0.0
H811 H 0.09803 0.23003 0.13727 0.0
H812 H 0.03968 0.12016 0.13854 0.0
C813 C 0.15363 0.11475 0.17773 0.0
C814 C 0.18859 0.13594 0.18514 0.0
C815 C 0.20336 0.17159 0.18037 0.0
C816 C 0.18389 0.18599 0.16749 0.0
C817 C 0.14971 0.16441 0.15891 0.0
C818 C 0.13461 0.1296 0.16423 0.0
C819 C 0.09713 0.11227 0.1545 0.0
C820 C 0.0878 0.08828 0.11424 0.0
C821 C 0.07647 0.09327 0.1962 0.0
C822 C 0.09351 0.14282 0.14359 0.0
C823 C 0.12417 0.17268 0.14596 0.0
C824 C 0.12659 0.20435 0.14128 0.0
C825 C 0.0966 0.20558 0.13682 0.0
C826 C 0.06486 0.17529 0.13727 0.0
C827 C 0.06365 0.14366 0.13794 0.0
H828 H 0.85809 0.90226 0.14598 0.0
H829 H 0.95825 0.92238 0.10866 0.0
H830 H 0.98068 0.98358 0.11886 0.0
H831 H 0.8691 0.98577 0.09471 0.0
H832 H 0.84451 0.98921 0.13948 0.0
H833 H 0.83488 0.94798 0.11953 0.0
H834 H 0.84067 0.93137 0.20021 0.0
H835 H 0.85183 0.97286 0.22039 0.0
H836 H 0.87989 0.9564 0.22979 0.0
H837 H 0.99492 0.03752 0.15498 0.0
H838 H 0.99799 0.08787 0.19064 0.0
H839 H 0.88852 0.03706 0.19498 0.0
C840 C 0.88416 0.91979 0.13693 0.0
C841 C 0.90645 0.90778 0.12606 0.0
C842 C 0.9408 0.93127 0.11634 0.0
C843 C 0.95384 0.96601 0.12262 0.0
C844 C 0.93197 0.97689 0.13737 0.0
C845 C 0.89756 0.95489 0.14228 0.0
C846 C 0.88029 0.97339 0.16102 0.0
C847 C 0.85575 0.97414 0.12662 0.0
C848 C 0.86211 0.95754 0.20547 0.0
C849 C 0.91068 1.00854 0.16813 0.0
C850 C 0.94022 1.00965 0.15491 0.0
C851 C 0.97195 0.03761 0.1636 0.0
C852 C 0.9735 0.06591 0.18422 0.0
C853 C 0.94362 0.06654 0.1944 0.0
C854 C 0.91175 0.03733 0.18672 0.0
H855 H 0.12959 1.01934 0.13435 0.0
H856 H 0.18283 0.96356 0.11768 0.0
H857 H 0.12901 0.90974 0.12982 0.0
H858 H 0.08323 0.97467 0.22459 0.0
H859 H 0.04518 0.97539 0.21092 0.0
H860 H 0.08549 1.0087 0.19113 0.0
H861 H 0.06451 0.99699 0.10945 0.0
H862 H 1.02367 0.96429 0.12896 0.0
H863 H 0.04614 0.95456 0.08741 0.0
H864 H 0.07018 0.86263 0.15257 0.0
H865 H 1.01125 0.82615 0.1788 0.0
H866 H 0.99871 0.91421 0.18753 0.0
C867 C 0.12978 0.99573 0.13147 0.0
C868 C 0.1605 0.9957 0.12475 0.0
C869 C 0.15966 0.96427 0.12202 0.0
C870 C 0.1292 0.93358 0.12938 0.0
C871 C 0.09991 0.93487 0.13926 0.0
C872 C 0.09994 0.96519 0.13963 0.0
C873 C 0.06624 0.96043 0.15538 0.0
C874 C 0.07031 0.98102 0.19803 0.0
C875 C 0.04914 0.96961 0.11804 0.0
C876 C 0.04728 0.92271 0.16485 0.0
C877 C 0.06692 0.90831 0.15475 0.0
C878 C 0.05465 0.8737 0.16043 0.0
C879 C 1.02125 0.85323 0.17567 0.0
C880 C 1.00067 0.86747 0.18598 0.0
C881 C 1.01412 0.90276 0.18099 0.0
H882 H 0.62691 0.15536 0.36636 0.0
H883 H 0.51973 0.08187 0.3613 0.0
H884 H 0.52412 0.07419 0.28067 0.0
H885 H 0.62816 0.19675 0.27022 0.0
H886 H 0.66906 0.20583 0.24985 0.0
H887 H 0.66005 0.2003 0.30878 0.0
H888 H 0.67539 0.1528 0.3115 0.0
H889 H 0.68492 0.15843 0.25253 0.0
H890 H 0.65467 0.11715 0.27412 0.0
H891 H 0.53708 0.08065 0.20105 0.0
H892 H 0.55835 0.09984 0.12494 0.0
H893 H 0.65751 0.17107 0.17817 0.0
C894 C 0.60488 0.13666 0.34832 0.0
C895 C 0.57325 0.11811 0.36992 0.0
C896 C 0.54435 0.09524 0.34533 0.0
C897 C 0.5466 0.09083 0.29957 0.0
C898 C 0.57786 0.11001 0.27875 0.0
C899 C 0.60661 0.13241 0.30211 0.0
C900 C 0.63592 0.15295 0.27035 0.0
C901 C 0.64905 0.19121 0.2751 0.0
C902 C 0.66441 0.14484 0.27755 0.0
C903 C 0.61864 0.13959 0.22568 0.0
C904 C 0.58531 0.11448 0.23159 0.0
C905 C 0.56329 0.09986 0.19584 0.0
C906 C 0.57556 0.11119 0.15274 0.0
C907 C 0.60957 0.13699 0.1456 0.0
C908 C 0.6315 0.15107 0.1826 0.0
H909 H 0.91962 0.48937 0.37443 0.0
H910 H 0.98074 0.44135 0.36559 0.0
H911 H 0.98642 0.45105 0.28419 0.0
H912 H 0.8722 0.45164 0.28035 0.0
H913 H 0.86907 0.48739 0.26079 0.0
H914 H 0.875 0.48311 0.31933 0.0
H915 H 0.92867 0.5427 0.31968 0.0
H916 H 0.92279 0.54743 0.2611 0.0
H917 H 0.96234 0.5523 0.28045 0.0
H918 H 0.97942 0.45835 0.20476 0.0
H919 H 0.9612 0.46406 0.12975 0.0
H920 H 0.90278 0.50619 0.18733 0.0
C921 C 0.9351 0.48207 0.35527 0.0
C922 C 0.95036 0.46528 0.37584 0.0
C923 C 0.96937 0.45472 0.35006 0.0
C924 C 0.97277 0.46017 0.30398 0.0
C925 C 0.95665 0.47588 0.2842 0.0
C926 C 0.93829 0.48687 0.30881 0.0
C927 C 0.92054 0.49964 0.27833 0.0
C928 C 0.88192 0.47921 0.28512 0.0
C929 C 0.93442 0.53779 0.2853 0.0
C930 C 0.93068 0.49271 0.23293 0.0
C931 C 0.95194 0.47953 0.23735 0.0
C932 C 0.96319 0.46913 0.20071 0.0
C933 C 0.95244 0.47224 0.15823 0.0
C934 C 0.93047 0.48549 0.1526 0.0
C935 C 0.91975 0.49618 0.19053 0.0
H936 H 0.57819 0.44649 0.3551 0.0
H937 H 0.6406 0.55602 0.34765 0.0
H938 H 0.62928 0.55433 0.26706 0.0
H939 H 0.60925 0.43166 0.25566 0.0
H940 H 0.56991 0.39573 0.2378 0.0
H941 H 0.57771 0.40538 0.29636 0.0
H942 H 0.5225 0.40799 0.30284 0.0
H943 H 0.51446 0.39826 0.2442 0.0
H944 H 0.51614 0.43584 0.26643 0.0
H945 H 0.61579 0.54145 0.18788 0.0
H946 H 0.60376 0.51779 0.11206 0.0
H947 H 0.55274 0.41575 0.16755 0.0
C948 C 0.58861 0.47002 0.33645 0.0
C949 C 0.60969 0.50146 0.35737 0.0
C950 C 0.62405 0.53178 0.33204 0.0
C951 C 0.61766 0.53109 0.28638 0.0
C952 C 0.59733 0.49978 0.26633 0.0
C953 C 0.58317 0.4697 0.29024 0.0
C954 C 0.56563 0.43943 0.25918 0.0
C955 C 0.58159 0.41672 0.26245 0.0
C956 C 0.5274 0.41919 0.26874 0.0
C957 C 0.57297 0.45731 0.21425 0.0
C958 C 0.5907 0.49211 0.21948 0.0
C959 C 0.60168 0.51423 0.18321 0.0
C960 C 0.5948 0.50049 0.14022 0.0
C961 C 0.57744 0.46489 0.13372 0.0
C962 C 0.56595 0.44306 0.17137 0.0
H963 H 0.92104 0.52229 0.84506 0.0
H964 H 0.96075 0.4604 0.898 0.0
H965 H 0.97067 0.44769 0.82134 0.0
H966 H 0.87704 0.46939 0.75422 0.0
H967 H 0.88646 0.50362 0.71598 0.0
H968 H 0.8846 0.50971 0.7751 0.0
H969 H 0.94534 0.56168 0.77214 0.0
H970 H 0.9475 0.55553 0.71298 0.0
H971 H 0.97935 0.55683 0.74972 0.0
H972 H 0.97153 0.43744 0.7402 0.0
H973 H 0.96262 0.42977 0.65869 0.0
H974 H 0.92514 0.50028 0.6572 0.0
C975 C 0.93201 0.50622 0.84058 0.0
C976 C 0.94003 0.49228 0.87761 0.0
C977 C 0.95427 0.4713 0.87023 0.0
C978 C 0.96021 0.46409 0.8268 0.0
C979 C 0.95206 0.47827 0.79112 0.0
C980 C 0.93831 0.49891 0.79743 0.0
C981 C 0.9304 0.5096 0.75319 0.0
C982 C 0.89237 0.49733 0.74941 0.0
C983 C 0.95194 0.54821 0.74663 0.0
C984 C 0.94098 0.49092 0.72105 0.0
C985 C 0.95364 0.47321 0.74376 0.0
C986 C 0.96237 0.45172 0.72193 0.0
C987 C 0.9573 0.44756 0.67577 0.0
C988 C 0.94403 0.4651 0.65203 0.0
C989 C 0.93643 0.48759 0.67466 0.0
H990 H 0.56511 0.43938 0.63802 0.0
H991 H 0.64397 0.54522 0.64065 0.0
H992 H 0.63546 0.54738 0.72158 0.0
H993 H 0.51057 0.44547 0.72829 0.0
H994 H 0.49982 0.40461 0.75104 0.0
H995 H 0.50807 0.41268 0.69205 0.0
H996 H 0.55385 0.39515 0.69727 0.0
H997 H 0.5462 0.38762 0.75632 0.0
H998 H 0.58826 0.4167 0.73617 0.0
H999 H 0.62481 0.53663 0.80205 0.0
H1000 H 0.60867 0.51462 0.87872 0.0
H1001 H 0.53642 0.41543 0.82598 0.0
C1002 C 0.57954 0.46321 0.65555 0.0
C1003 C 0.60488 0.49226 0.63337 0.0
C1004 C 0.62427 0.52282 0.6573 0.0
C1005 C 0.61964 0.5243 0.70318 0.0
C1006 C 0.59551 0.49496 0.72464 0.0
C1007 C 0.57542 0.46506 0.70177 0.0
C1008 C 0.5534 0.43661 0.73389 0.0
C1009 C 0.51573 0.42411 0.72584 0.0
C1010 C 0.5609 0.4073 0.73071 0.0
C1011 C 0.56511 0.45505 0.77816 0.0
C1012 C 0.58925 0.48871 0.77187 0.0
C1013 C 0.60541 0.51048 0.80751 0.0
C1014 C 0.59614 0.49771 0.85093 0.0
C1015 C 0.57095 0.46349 0.85835 0.0
C1016 C 0.55546 0.44185 0.82138 0.0
H1017 H 0.64617 0.14137 0.83701 0.0
H1018 H 0.54741 0.11264 0.89279 0.0
H1019 H 0.52428 0.10525 0.81658 0.0
H1020 H 0.64345 0.1893 0.74685 0.0
H1021 H 0.66457 0.17585 0.70794 0.0
H1022 H 0.67273 0.1767 0.76684 0.0
H1023 H 0.65582 0.11325 0.76402 0.0
H1024 H 0.64738 0.11215 0.70506 0.0
H1025 H 0.61496 0.08247 0.74238 0.0
H1026 H 0.51328 0.10623 0.73534 0.0
H1027 H 0.51488 0.11491 0.65372 0.0
H1028 H 0.61981 0.13992 0.65014 0.0
C1029 C 0.61961 0.13332 0.83329 0.0
C1030 C 0.59862 0.12772 0.8709 0.0
C1031 C 0.56401 0.11717 0.8645 0.0
C1032 C 0.55059 0.11275 0.82137 0.0
C1033 C 0.57203 0.11858 0.78508 0.0
C1034 C 0.60574 0.12846 0.79055 0.0
C1035 C 0.62363 0.13433 0.74595 0.0
C1036 C 0.65281 0.17123 0.74165 0.0
C1037 C 0.63618 0.10903 0.73895 0.0
C1038 C 0.59491 0.12716 0.7145 0.0
C1039 C 0.56533 0.11794 0.73786 0.0
C1040 C 0.53606 0.11277 0.71661 0.0
C1041 C 0.53721 0.11778 0.67038 0.0
C1042 C 0.5673 0.12752 0.64593 0.0
C1043 C 0.59628 0.13155 0.66807 0.0
H1044 H 0.30744 0.46637 0.50294 0.0
H1045 H 0.20883 0.43312 0.444 0.0
H1046 H 0.18385 0.42442 0.51909 0.0
H1047 H 0.27451 0.40683 0.60114 0.0
H1048 H 0.30592 0.43782 0.63804 0.0
H1049 H 0.31558 0.43757 0.57963 0.0
H1050 H 0.33168 0.50065 0.57328 0.0
H1051 H 0.3217 0.50099 0.6314 0.0
H1052 H 0.30128 0.51291 0.58953 0.0
H1053 H 0.17128 0.42808 0.59811 0.0
H1054 H 0.17022 0.43793 0.67883 0.0
H1055 H 0.27548 0.46481 0.68928 0.0
C1056 C 0.28046 0.45656 0.50585 0.0
C1057 C 0.26014 0.4506 0.46749 0.0
C1058 C 0.22496 0.43788 0.47275 0.0
C1059 C 0.21048 0.43281 0.51531 0.0
C1060 C 0.23136 0.43994 0.55232 0.0
C1061 C 0.26544 0.45089 0.54822 0.0
C1062 C 0.28234 0.45819 0.59369 0.0
C1063 C 0.29535 0.43363 0.60371 0.0
C1064 C 0.31093 0.49539 0.59715 0.0
C1065 C 0.25271 0.45116 0.62369 0.0
C1066 C 0.22358 0.44056 0.59891 0.0
C1067 C 0.19365 0.43557 0.61806 0.0
C1068 C 0.1934 0.44153 0.66378 0.0
C1069 C 0.22271 0.45189 0.69002 0.0
C1070 C 0.25263 0.4563 0.66991 0.0
H1071 H 0.58698 0.84601 0.50882 0.0
H1072 H 0.63895 0.7955 0.45683 0.0
H1073 H 0.65225 0.78667 0.53407 0.0
H1074 H 0.64568 0.88745 0.60619 0.0
H1075 H 0.61139 0.88213 0.64168 0.0
H1076 H 0.60993 0.88838 0.58239 0.0
H1077 H 0.5519 0.83292 0.57814 0.0
H1078 H 0.55329 0.82633 0.63716 0.0
H1079 H 0.54811 0.79385 0.59832 0.0
H1080 H 0.64928 0.77321 0.61474 0.0
H1081 H 0.63697 0.76193 0.69498 0.0
H1082 H 0.59284 0.82677 0.69726 0.0
C1083 C 0.60182 0.83374 0.51376 0.0
C1084 C 0.61187 0.82124 0.47705 0.0
C1085 C 0.63123 0.80538 0.48455 0.0
C1086 C 0.63885 0.80028 0.52825 0.0
C1087 C 0.6277 0.81204 0.5638 0.0
C1088 C 0.61027 0.82914 0.55707 0.0
C1089 C 0.59965 0.83761 0.60112 0.0
C1090 C 0.61775 0.87619 0.60826 0.0
C1091 C 0.56095 0.82171 0.60382 0.0
C1092 C 0.6122 0.82093 0.63371 0.0
C1093 C 0.62836 0.80641 0.61127 0.0
C1094 C 0.63802 0.78563 0.63291 0.0
C1095 C 0.63094 0.77941 0.6785 0.0
C1096 C 0.61537 0.79472 0.7025 0.0
C1097 C 0.60617 0.81607 0.67996 0.0
H1098 H 0.24021 0.78409 0.68978 0.0
H1099 H 0.30751 0.89296 0.68249 0.0
H1100 H 0.2973 0.89189 0.60162 0.0
H1101 H 0.27049 0.76673 0.59211 0.0
H1102 H 0.23046 0.73216 0.57351 0.0
H1103 H 0.23771 0.74173 0.63213 0.0
H1104 H 0.18441 0.74795 0.63642 0.0
H1105 H 0.17695 0.73832 0.57769 0.0
H1106 H 0.1806 0.77697 0.59919 0.0
H1107 H 0.28433 0.87933 0.52214 0.0
H1108 H 0.27271 0.85537 0.44636 0.0
H1109 H 0.21672 0.7537 0.50248 0.0
C1110 C 0.25195 0.80765 0.67109 0.0
C1111 C 0.27413 0.83869 0.69207 0.0
C1112 C 0.29017 0.86902 0.66675 0.0
C1113 C 0.28439 0.8687 0.62096 0.0
C1114 C 0.26293 0.83772 0.60084 0.0
C1115 C 0.24713 0.80765 0.6248 0.0
C1116 C 0.22877 0.77752 0.59378 0.0
C1117 C 0.24271 0.75311 0.59815 0.0
C1118 C 0.1904 0.75911 0.60228 0.0
C1119 C 0.23769 0.7954 0.54884 0.0
C1120 C 0.25671 0.83016 0.55393 0.0
C1121 C 0.26919 0.85216 0.51756 0.0
C1122 C 0.26251 0.83827 0.47463 0.0
C1123 C 0.24395 0.80266 0.46843 0.0
C1124 C 0.23097 0.78103 0.50613 0.0
H1125 H 0.59683 0.83393 0.98645 0.0
H1126 H 0.60969 0.74589 0.98748 0.0
H1127 H 0.61175 0.74719 0.06967 0.0
H1128 H 0.65118 0.87593 0.08804 0.0
H1129 H 0.62349 0.89092 0.10693 0.0
H1130 H 0.62829 0.88627 0.04799 0.0
H1131 H 0.56327 0.84763 0.04146 0.0
H1132 H 0.55834 0.8514 0.10049 0.0
H1133 H 0.5419 0.81004 0.07571 0.0
H1134 H 0.6038 0.75225 0.1508 0.0
H1135 H 0.5946 0.76632 0.22738 0.0
H1136 H 0.58804 0.85178 0.17526 0.0
C1137 C 0.60154 0.81595 0.00407 0.0
C1138 C 0.60346 0.79003 0.9808 0.0
C1139 C 0.60843 0.76609 0.00487 0.0
C1140 C 0.6095 0.76653 0.05153 0.0
C1141 C 0.60578 0.79122 0.07377 0.0
C1142 C 0.60266 0.816 0.05103 0.0
C1143 C 0.59709 0.83834 0.08346 0.0
C1144 C 0.62679 0.87504 0.08148 0.0
C1145 C 0.56313 0.83674 0.07474 0.0
C1146 C 0.59649 0.82149 0.12748 0.0
C1147 C 0.60155 0.79437 0.12109 0.0
C1148 C 0.60032 0.77377 0.15641 0.0
C1149 C 0.59466 0.78168 0.1997 0.0
C1150 C 0.59057 0.81007 0.20723 0.0
C1151 C 0.59125 0.82999 0.17049 0.0
H1152 H 0.23522 0.77118 0.97337 0.0
H1153 H 0.29162 0.88108 0.9749 0.0
H1154 H 0.28014 0.88071 0.05566 0.0
H1155 H 0.17143 0.75912 0.06189 0.0
H1156 H 0.17207 0.72304 0.08554 0.0
H1157 H 0.17942 0.73185 0.02655 0.0
H1158 H 0.23624 0.73245 0.03346 0.0
H1159 H 0.22937 0.72421 0.09248 0.0
H1160 H 0.26753 0.76086 0.07272 0.0
H1161 H 0.26877 0.869 0.13581 0.0
H1162 H 0.25713 0.84691 0.21241 0.0
H1163 H 0.20918 0.74374 0.16144 0.0
C1164 C 0.24391 0.79502 0.99064 0.0
C1165 C 0.26353 0.82622 0.96828 0.0
C1166 C 0.27599 0.85707 0.99175 0.0
C1167 C 0.26963 0.85706 0.03746 0.0
C1168 C 0.25107 0.82593 0.05909 0.0
C1169 C 0.23821 0.79542 0.03663 0.0
C1170 C 0.22217 0.7657 0.06894 0.0
C1171 C 0.184 0.74363 0.06021 0.0
C1172 C 0.2399 0.74458 0.06675 0.0
C1173 C 0.22892 0.78439 0.11302 0.0
C1174 C 0.24524 0.81907 0.10628 0.0
C1175 C 0.25562 0.84188 0.14157 0.0
C1176 C 0.249 0.82898 0.18505 0.0
C1177 C 0.23212 0.7935 0.1931 0.0
C1178 C 0.22197 0.77095 0.15644 0.0
H1179 H 0.20994 0.46757 0.00166 0.0
H1180 H 0.27646 0.43513 0.94394 0.0
H1181 H 0.29203 0.42649 0.01945 0.0
H1182 H 0.26168 0.51429 0.08902 0.0
H1183 H 0.22871 0.50214 0.13025 0.0
H1184 H 0.2192 0.50191 0.07191 0.0
H1185 H 0.17225 0.43875 0.0777 0.0
H1186 H 0.1814 0.43888 0.1363 0.0
H1187 H 0.18243 0.40807 0.09956 0.0
H1188 H 0.30704 0.42975 0.09892 0.0
H1189 H 0.31699 0.43954 0.17972 0.0
H1190 H 0.23835 0.46616 0.18861 0.0
C1191 C 0.22727 0.45801 0.00491 0.0
C1192 C 0.24209 0.45216 0.96679 0.0
C1193 C 0.26472 0.43974 0.9725 0.0
C1194 C 0.27372 0.43472 0.0153 0.0
C1195 C 0.25941 0.44162 0.05206 0.0
C1196 C 0.23622 0.45241 0.04748 0.0
C1197 C 0.22596 0.45952 0.09274 0.0
C1198 C 0.23441 0.49667 0.09615 0.0
C1199 C 0.18827 0.43483 0.10212 0.0
C1200 C 0.24822 0.45253 0.12326 0.0
C1201 C 0.26715 0.4421 0.09887 0.0
C1202 C 0.29185 0.43712 0.11854 0.0
C1203 C 0.29749 0.44302 0.16433 0.0
C1204 C 0.27822 0.45332 0.19019 0.0
C1205 C 0.25289 0.45765 0.16958 0.0
H1206 H 0.89839 0.79437 0.82684 0.0
H1207 H 0.98205 0.77498 0.82968 0.0
H1208 H 0.97538 0.76638 0.91148 0.0
H1209 H 0.92287 0.84476 0.92021 0.0
H1210 H 0.88099 0.83099 0.94151 0.0
H1211 H 0.88738 0.82874 0.88258 0.0
H1212 H 0.84324 0.76442 0.88266 0.0
H1213 H 0.83628 0.76658 0.94159 0.0
H1214 H 0.848 0.73666 0.92119 0.0
H1215 H 0.96322 0.7653 0.99317 0.0
H1216 H 0.94766 0.77369 0.06933 0.0
H1217 H 0.87489 0.79812 0.0131 0.0
C1218 C 0.91436 0.78702 0.84461 0.0
C1219 C 0.94024 0.78459 0.8223 0.0
C1220 C 0.96178 0.77643 0.84651 0.0
C1221 C 0.95814 0.77147 0.89281 0.0
C1222 C 0.93309 0.77516 0.91425 0.0
C1223 C 0.91155 0.78275 0.89098 0.0
C1224 C 0.88961 0.78946 0.92245 0.0
C1225 C 0.8956 0.82563 0.91631 0.0
C1226 C 0.85205 0.76267 0.91662 0.0
C1227 C 0.9029 0.78549 0.96691 0.0
C1228 C 0.92742 0.7765 0.96152 0.0
C1229 C 0.9439 0.77213 -0.00215 0.0
C1230 C 0.93503 0.77711 0.0409 0.0
C1231 C 0.9104 0.78694 0.04701 0.0
C1232 C 0.89412 0.79101 0.00945 0.0
H1233 H 0.26805 0.11849 0.82246 0.0
H1234 H 0.29477 0.22412 0.82677 0.0
H1235 H 0.30274 0.22479 0.90855 0.0
H1236 H 0.21744 0.09473 0.91526 0.0
H1237 H 0.22821 0.06422 0.93609 0.0
H1238 H 0.23154 0.07358 0.87731 0.0
H1239 H 0.2946 0.08962 0.87751 0.0
H1240 H 0.29132 0.07964 0.93625 0.0
H1241 H 0.32337 0.12083 0.91659 0.0
H1242 H 0.30166 0.21212 0.99062 0.0
H1243 H 0.29133 0.18692 0.06637 0.0
H1244 H 0.26141 0.08868 0.00769 0.0
C1245 C 0.27698 0.14208 0.84046 0.0
C1246 C 0.28152 0.17145 0.81852 0.0
C1247 C 0.2917 0.20154 0.8432 0.0
C1248 C 0.29626 0.20214 0.88955 0.0
C1249 C 0.29023 0.17234 0.91061 0.0
C1250 C 0.28094 0.14289 0.88684 0.0
C1251 C 0.27202 0.11331 0.9178 0.0
C1252 C 0.23512 0.0848 0.91121 0.0
C1253 C 0.29682 0.10008 0.91167 0.0
C1254 C 0.27679 0.13047 0.96257 0.0
C1255 C 0.2879 0.16463 0.95786 0.0
C1256 C 0.2932 0.18543 0.99474 0.0
C1257 C 0.28708 0.17089 0.03757 0.0
C1258 C 0.27525 0.1358 0.04296 0.0
C1259 C 0.27018 0.11554 0.0048 0.0
H1260 H 0.95024 0.15891 0.83592 0.0
H1261 H 0.84212 0.08863 0.83662 0.0
H1262 H 0.84063 0.09475 0.91849 0.0
H1263 H 0.96702 0.1259 0.92861 0.0
H1264 H 0.99992 0.16544 0.95114 0.0
H1265 H 0.99191 0.16138 0.89203 0.0
H1266 H 0.98267 0.21306 0.89305 0.0
H1267 H 0.99141 0.21779 0.95213 0.0
H1268 H 0.95241 0.2135 0.93146 0.0
H1269 H 0.85189 0.10333 0.00054 0.0
H1270 H 0.87513 0.11494 0.07713 0.0
H1271 H 0.97639 0.17674 0.02246 0.0
C1272 C 0.92614 0.14601 0.85324 0.0
C1273 C 0.89619 0.12385 0.83033 0.0
C1274 C 0.8652 0.10609 0.85394 0.0
C1275 C 0.86412 0.10939 0.90029 0.0
C1276 C 0.89433 0.13034 0.92239 0.0
C1277 C 0.92475 0.14854 0.89966 0.0
C1278 C 0.95405 0.16619 0.93169 0.0
C1279 C 0.97972 0.15398 0.92548 0.0
C1280 C 0.97113 0.20494 0.92679 0.0
C1281 C 0.93548 0.15426 0.97577 0.0
C1282 C 0.90102 0.13406 0.96979 0.0
C1283 C 0.87883 0.11936 0.00572 0.0
C1284 C 0.89227 0.12586 0.04903 0.0
C1285 C 0.92758 0.14652 0.0558 0.0
C1286 C 0.9493 0.1607 0.01851 0.0
H1287 H 0.25945 0.1554 0.32379 0.0
H1288 H 0.27438 0.06866 0.32665 0.0
H1289 H 0.27979 0.07292 0.40886 0.0
H1290 H 0.31484 0.20195 0.42043 0.0
H1291 H 0.28597 0.21529 0.43989 0.0
H1292 H 0.28915 0.20895 0.38103 0.0
H1293 H 0.22443 0.16702 0.3787 0.0
H1294 H 0.22117 0.17273 0.4376 0.0
H1295 H 0.20609 0.13076 0.41555 0.0
H1296 H 0.27935 0.08391 0.49068 0.0
H1297 H 0.2721 0.10045 0.56685 0.0
H1298 H 0.25312 0.1771 0.51022 0.0
C1299 C 0.26501 0.13812 0.34176 0.0
C1300 C 0.2671 0.1121 0.31929 0.0
C1301 C 0.27308 0.08899 0.34364 0.0
C1302 C 0.27622 0.09122 0.39018 0.0
C1303 C 0.27292 0.11648 0.4117 0.0
C1304 C 0.26748 0.13956 0.38834 0.0
C1305 C 0.26141 0.16197 0.41973 0.0
C1306 C 0.28952 0.19925 0.41499 0.0
C1307 C 0.22618 0.15785 0.41245 0.0
C1308 C 0.26346 0.14733 0.46419 0.0
C1309 C 0.27074 0.12156 0.45892 0.0
C1310 C 0.27373 0.10413 0.4953 0.0
C1311 C 0.2694 0.11354 0.53832 0.0
C1312 C 0.26159 0.13967 0.54432 0.0
C1313 C 0.25852 0.15662 0.50667 0.0
H1314 H 0.98887 0.18021 0.36218 0.0
H1315 H 0.8868 0.14181 0.31232 0.0
H1316 H 0.866 0.13694 0.38926 0.0
H1317 H 0.96812 0.12564 0.44956 0.0
H1318 H 0.99803 0.155 0.48935 0.0
H1319 H 1.00672 0.16218 0.43051 0.0
H1320 H 1.01349 0.22198 0.43782 0.0
H1321 H 1.00511 0.21503 0.49697 0.0
H1322 H 0.97991 0.22641 0.4627 0.0
H1323 H 0.85425 0.12559 0.46829 0.0
H1324 H 0.85231 0.11069 0.54764 0.0
H1325 H 0.96168 0.15879 0.55011 0.0
C1326 C 0.96233 0.17169 0.3675 0.0
C1327 C 0.9394 0.16125 0.33133 0.0
C1328 C 0.90477 0.14973 0.33954 0.0
C1329 C 0.89275 0.14715 0.38311 0.0
C1330 C 0.91572 0.15656 0.41809 0.0
C1331 C 0.94984 0.16897 0.411 0.0
C1332 C 0.96829 0.17377 0.45491 0.0
C1333 C 0.98633 0.15289 0.45613 0.0
C1334 C 0.99318 0.21155 0.4636 0.0
C1335 C 0.93879 0.15997 0.48735 0.0
C1336 C 0.90884 0.15083 0.46519 0.0
C1337 C 0.87755 0.13362 0.48636 0.0
C1338 C 0.87668 0.12509 0.53123 0.0
C1339 C 0.90691 0.13439 0.55472 0.0
C1340 C 0.93844 0.15252 0.5329 0.0
H1341 H 0.94031 0.78633 0.32795 0.0
H1342 H 0.84516 0.7858 0.32888 0.0
H1343 H 0.84158 0.77865 0.41081 0.0
H1344 H 0.92104 0.72675 0.42644 0.0
H1345 H 0.96402 0.75108 0.446 0.0
H1346 H 0.95524 0.74846 0.38698 0.0
H1347 H 0.98702 0.81421 0.3828 0.0
H1348 H 0.99519 0.81699 0.44181 0.0
H1349 H 0.97357 0.8373 0.41821 0.0
H1350 H 0.85208 0.77968 0.49272 0.0
H1351 H 0.87571 0.78723 0.56913 0.0
H1352 H 0.96527 0.79032 0.51449 0.0
C1353 C 0.91811 0.78323 0.34536 0.0
C1354 C 0.8928 0.78613 0.32246 0.0
C1355 C 0.86464 0.78333 0.34617 0.0
C1356 C 0.86235 0.77921 0.39258 0.0
C1357 C 0.88849 0.77804 0.41467 0.0
C1358 C 0.9157 0.77963 0.39188 0.0
C1359 C 0.94231 0.78191 0.42391 0.0
C1360 C 0.94585 0.75015 0.42063 0.0
C1361 C 0.97652 0.81454 0.41621 0.0
C1362 C 0.92651 0.78292 0.46791 0.0
C1363 C 0.89518 0.77997 0.46203 0.0
C1364 C 0.87644 0.78165 0.49785 0.0
C1365 C 0.89002 0.78605 0.54096 0.0
C1366 C 0.92231 0.78965 0.54733 0.0
C1367 C 0.94061 0.78792 0.51037 0.0
H1368 H 0.43352 0.91376 0.87717 0.0
H1369 H 0.37729 0.9639 0.91242 0.0
H1370 H 0.42906 1.01092 0.94618 0.0
H1371 H 0.48822 0.93766 0.97282 0.0
H1372 H 0.52574 0.94591 0.94246 0.0
H1373 H 0.48455 0.9157 0.92118 0.0
H1374 H 0.49838 0.94852 0.84654 0.0
H1375 H 0.53979 0.97864 0.86735 0.0
H1376 H 0.51214 0.99316 0.84688 0.0
H1377 H 0.48445 0.04939 0.98184 0.0
H1378 H 0.54192 0.0827 0.00889 0.0
H1379 H 0.56902 1.01411 0.94394 0.0
C1380 C 0.43217 0.93472 0.892 0.0
C1381 C 0.40086 0.93479 0.89253 0.0
C1382 C 0.40055 0.96302 0.91157 0.0
C1383 C 0.42995 0.98984 0.93097 0.0
C1384 C 0.46011 0.98884 0.9302 0.0
C1385 C 0.4618 0.96245 0.91037 0.0
C1386 C 0.49818 0.96884 0.91274 0.0
C1387 C 0.49922 0.94032 0.93886 0.0
C1388 C 0.513 0.97251 0.86556 0.0
C1389 C 0.51652 1.00257 0.93816 0.0
C1390 C 0.4935 1.013 0.94805 0.0
C1391 C 0.50273 0.04175 0.97347 0.0
C1392 C 0.53603 0.06059 0.98895 0.0
C1393 C 0.56141 0.05205 0.97848 0.0
C1394 C 0.5511 1.0222 0.95227 0.0
H1395 H 0.05323 0.57259 0.95134 0.0
H1396 H 0.98258 0.47591 0.01339 0.0
H1397 H 1.01452 0.45087 0.98443 0.0
H1398 H 0.07324 0.5374 0.85222 0.0
H1399 H 0.11798 0.56765 0.85251 0.0
H1400 H 0.08846 0.57935 0.87446 0.0
H1401 H 0.12046 0.5958 0.94967 0.0
H1402 H 0.15017 0.58436 0.92774 0.0
H1403 H 0.12748 0.56521 0.97877 0.0
H1404 H 0.05181 0.43318 0.94745 0.0
H1405 H 0.09815 0.42761 0.91301 0.0
H1406 H 0.15099 0.53505 0.88142 0.0
C1407 C 0.04437 0.54616 0.95856 0.0
C1408 C 1.01435 0.52665 0.98453 0.0
C1409 C 1.00483 0.49216 0.99364 0.0
C1410 C 1.02288 0.47718 0.97704 0.0
C1411 C 0.0518 0.49667 0.95189 0.0
C1412 C 0.06319 0.53061 0.94328 0.0
C1413 C 0.097 0.54576 0.91806 0.0
C1414 C 0.09398 0.55829 0.87154 0.0
C1415 C 0.12546 0.57449 0.94518 0.0
C1416 C 0.1023 0.51508 0.91441 0.0
C1417 C 0.07533 0.4869 0.93335 0.0
C1418 C 0.07334 0.4552 0.93289 0.0
C1419 C 0.09976 0.45215 0.91313 0.0
C1420 C 0.12853 0.48074 0.89496 0.0
C1421 C 0.1296 0.51268 0.89562 0.0
H1422 H 0.57143 0.63293 0.84227 0.0
H1423 H 0.56265 0.67661 0.96661 0.0
H1424 H 0.54035 0.62105 0.00391 0.0
H1425 H 0.49446 0.55232 0.85706 0.0
H1426 H 0.51058 0.52698 0.8329 0.0
H1427 H 0.52742 0.57041 0.81535 0.0
H1428 H 0.58853 0.58507 0.83666 0.0
H1429 H 0.57083 0.54099 0.85053 0.0
H1430 H 0.59579 0.57305 0.89122 0.0
H1431 H 0.51675 0.56022 0.02796 0.0
H1432 H 0.50219 0.5009 0.04023 0.0
H1433 H 0.52555 0.49375 0.90161 0.0
C1434 C 0.56593 0.63101 0.87771 0.0
C1435 C 0.56997 0.65982 0.90179 0.0
C1436 C 0.56076 0.65547 0.94763 0.0
C1437 C 0.5476 0.62375 0.96905 0.0
C1438 C 0.54313 0.59581 0.94436 0.0
C1439 C 0.55245 0.59909 0.89985 0.0
C1440 C 0.54457 0.56456 0.88136 0.0
C1441 C 0.51766 0.55289 0.84447 0.0
C1442 C 0.57694 0.56607 0.86398 0.0
C1443 C 0.53051 0.54169 0.92272 0.0
C1444 C 0.52923 0.56034 0.95832 0.0
C1445 C 0.51762 0.54545 0.00022 0.0
C1446 C 0.50883 0.51135 0.00677 0.0
C1447 C 0.51161 0.49177 0.97193 0.0
C1448 C 0.52183 0.50721 0.9288 0.0
H1449 H 1.01862 0.49397 0.41423 0.0
H1450 H 0.05477 0.50741 0.5505 0.0
H1451 H 0.09778 0.56662 0.5333 0.0
H1452 H 0.1034 0.55152 0.36067 0.0
H1453 H 0.08576 0.56769 0.32034 0.0
H1454 H 0.06054 0.52506 0.34151 0.0
H1455 H 1.01446 0.53874 0.36545 0.0
H1456 H 0.03972 0.58171 0.34562 0.0
H1457 H 1.02513 0.57372 0.40275 0.0
H1458 H 0.13312 0.62625 0.50465 0.0
H1459 H 0.16452 0.68019 0.46344 0.0
H1460 H 0.10706 0.63156 0.344 0.0
C1461 C 1.03638 0.50886 0.43996 0.0
C1462 C 1.03332 0.49514 0.48385 0.0
C1463 C 0.05679 0.51651 0.51654 0.0
C1464 C 0.08113 0.55056 0.50717 0.0
C1465 C 0.08217 0.56369 0.46463 0.0
C1466 C 0.06098 0.5434 0.43109 0.0
C1467 C 0.06704 0.56465 0.3886 0.0
C1468 C 0.07996 0.55144 0.35052 0.0
C1469 C 1.03466 0.5647 0.37481 0.0
C1470 C 0.09456 0.60006 0.4038 0.0
C1471 C 0.10261 0.59861 0.44797 0.0
C1472 C 0.12703 0.62754 0.47004 0.0
C1473 C 0.14459 0.65834 0.44634 0.0
C1474 C 0.13802 0.6609 0.40061 0.0
C1475 C 0.11213 0.6311 0.37923 0.0
H1476 H 0.54081 0.52901 0.51802 0.0
H1477 H 0.59751 0.56072 0.39393 0.0
H1478 H 0.54465 0.54451 0.35288 0.0
H1479 H 0.4669 0.45853 0.47845 0.0
H1480 H 0.43741 0.46548 0.51038 0.0
H1481 H 0.47973 0.48101 0.5308 0.0
H1482 H 0.48934 0.54192 0.53567 0.0
H1483 H 0.44674 0.52643 0.5163 0.0
H1484 H 0.48185 0.56068 0.48714 0.0
H1485 H 0.48325 0.51723 0.32392 0.0
H1486 H 0.42196 0.49368 0.31124 0.0
H1487 H 0.40476 0.48607 0.45424 0.0
C1488 C 0.54239 0.53359 0.48235 0.0
C1489 C 0.57396 0.54619 0.45946 0.0
C1490 C 0.57422 0.55129 0.41263 0.0
C1491 C 0.54401 0.54182 0.38886 0.0
C1492 C 0.51331 0.52811 0.41221 0.0
C1493 C 0.51249 0.52522 0.4582 0.0
C1494 C 0.47622 0.51061 0.47542 0.0
C1495 C 0.46438 0.47691 0.50024 0.0
C1496 C 0.47337 0.53645 0.50541 0.0
C1497 C 0.45658 0.50491 0.43197 0.0
C1498 C 0.47847 0.51465 0.39584 0.0
C1499 C 0.46615 0.51005 0.35216 0.0
C1500 C 0.43105 0.49617 0.3452 0.0
C1501 C 0.40808 0.48739 0.38151 0.0
C1502 C 0.42135 0.49204 0.4256 0.0
H1503 H 0.58196 0.95813 0.3517 0.0
H1504 H 0.57849 0.90978 0.47828 0.0
H1505 H 0.55401 0.941 0.51435 0.0
H1506 H 0.60493 0.04191 0.4016 0.0
H1507 H 0.57996 0.05002 0.36234 0.0
H1508 H 0.59796 1.02434 0.34607 0.0
H1509 H 0.53822 0.97609 0.32412 0.0
H1510 H 0.52014 1.00153 0.34142 0.0
H1511 H 0.50465 0.95987 0.36506 0.0
H1512 H 0.52683 0.97489 0.5374 0.0
H1513 H 0.50913 1.01733 0.54885 0.0
H1514 H 0.53101 0.04717 0.40995 0.0
C1515 C 0.57682 0.95468 0.38722 0.0
C1516 C 0.5825 0.93106 0.4118 0.0
C1517 C 0.57469 0.92738 0.45821 0.0
C1518 C 0.5604 0.94495 0.47917 0.0
C1519 C 0.55404 0.96687 0.4539 0.0
C1520 C 0.56276 0.9726 0.40918 0.0
C1521 C 0.55401 0.99866 0.39059 0.0
C1522 C 0.58612 0.03063 0.37419 0.0
C1523 C 0.52769 0.9831 0.35306 0.0
C1524 C 0.53898 1.00638 0.43176 0.0
C1525 C 0.53891 0.98726 0.46763 0.0
C1526 C 0.52685 0.98998 0.50944 0.0
C1527 C 0.5163 1.01396 0.51553 0.0
C1528 C 0.51773 0.03552 0.4803 0.0
C1529 C 0.52844 0.03074 0.43739 0.0
H1530 H 0.21269 0.34916 0.34923 0.0
H1531 H 0.26168 0.38536 0.22078 0.0
H1532 H 0.20623 0.35208 0.18331 0.0
H1533 H 0.15099 0.26155 0.30897 0.0
H1534 H 0.11846 0.2582 0.34639 0.0
H1535 H 0.16235 0.28357 0.36171 0.0
H1536 H 0.15363 0.33494 0.37357 0.0
H1537 H 0.11002 0.31006 0.35683 0.0
H1538 H 0.13793 0.34918 0.32818 0.0
H1539 H 0.14218 0.31965 0.1608 0.0
H1540 H 0.0802 0.2811 0.15394 0.0
H1541 H 0.07373 0.26094 0.29605 0.0
C1542 C 0.21209 0.3492 0.31306 0.0
C1543 C 0.24212 0.37052 0.28823 0.0
C1544 C 0.23955 0.36966 0.24092 0.0
C1545 C 0.20785 0.35093 0.21929 0.0
C1546 C 0.17859 0.33192 0.24507 0.0
C1547 C 0.18076 0.32984 0.2909 0.0
C1548 C 0.1458 0.30684 0.3111 0.0
C1549 C 0.14431 0.27569 0.33335 0.0
C1550 C 0.1363 0.32643 0.34439 0.0
C1551 C 0.12338 0.29678 0.26978 0.0
C1552 C 0.14264 0.312 0.23203 0.0
C1553 C 0.12716 0.30745 0.19027 0.0
C1554 C 0.09166 0.28589 0.18674 0.0
C1555 C 0.07157 0.2684 0.22449 0.0
C1556 C 0.088 0.27438 0.26659 0.0
H1557 H 0.67641 0.85926 0.23571 0.0
H1558 H 0.71579 0.9017 0.36589 0.0
H1559 H 0.76413 0.89234 0.35327 0.0
H1560 H 0.69248 0.7937 0.24081 0.0
H1561 H 0.70486 0.79442 0.1834 0.0
H1562 H 0.67699 0.8102 0.19791 0.0
H1563 H 0.71767 0.86822 0.1618 0.0
H1564 H 0.7452 0.85235 0.14559 0.0
H1565 H 0.7616 0.89074 0.17794 0.0
H1566 H 0.80365 0.87041 0.33099 0.0
H1567 H 0.83642 0.84669 0.29702 0.0
H1568 H 0.77229 0.81729 0.17979 0.0
C1569 C 0.69642 0.86869 0.26036 0.0
C1570 C 0.69284 0.88295 0.30115 0.0
C1571 C 0.71853 0.89255 0.33364 0.0
C1572 C 0.7458 0.88653 0.32699 0.0
C1573 C 0.74735 0.87072 0.28756 0.0
C1574 C 0.72378 0.86273 0.25418 0.0
C1575 C 0.7301 0.8441 0.21605 0.0
C1576 C 0.69927 0.8085 0.20916 0.0
C1577 C 0.73919 0.86511 0.17277 0.0
C1578 C 0.76043 0.84201 0.23355 0.0
C1579 C 0.76983 0.8576 0.27493 0.0
C1580 C 0.79659 0.85857 0.29845 0.0
C1581 C 0.81497 0.84462 0.27886 0.0
C1582 C 0.80705 0.82949 0.23576 0.0
C1583 C 0.77881 0.82782 0.21311 0.0
H1584 H 0.19066 0.85267 0.3508 0.0
H1585 H 0.16935 0.79745 0.22598 0.0
H1586 H 0.18893 0.85101 0.18434 0.0
H1587 H 0.16219 0.91231 0.31043 0.0
H1588 H 0.19377 0.94691 0.34311 0.0
H1589 H 0.17646 0.90386 0.36243 0.0
H1590 H 0.23714 0.91335 0.36774 0.0
H1591 H 0.25458 0.95608 0.34715 0.0
H1592 H 0.2639 0.92679 0.31882 0.0
H1593 H 0.21928 0.91335 0.15599 0.0
H1594 H 0.24278 0.97498 0.14355 0.0
H1595 H 0.23787 0.98929 0.28578 0.0
C1596 C 0.18896 0.85153 0.3147 0.0
C1597 C 0.1784 0.82025 0.29206 0.0
C1598 C 0.17698 0.82052 0.24463 0.0
C1599 C 0.18854 0.85114 0.2205 0.0
C1600 C 0.20057 0.88163 0.24391 0.0
C1601 C 0.19946 0.88179 0.29004 0.0
C1602 C 0.21267 0.91782 0.30725 0.0
C1603 C 0.1846 0.92038 0.33228 0.0
C1604 C 0.24392 0.92916 0.33701 0.0
C1605 C 0.22215 0.9381 0.26377 0.0
C1606 C 0.21565 0.91682 0.22761 0.0
C1607 C 0.22395 0.92997 0.18419 0.0
C1608 C 0.23786 0.96525 0.17742 0.0
C1609 C 0.24295 0.98741 0.21358 0.0
C1610 C 0.23499 0.97334 0.2574 0.0
H1611 H 0.79386 0.99422 0.79987 0.0
H1612 H 0.78396 0.97957 0.65664 0.0
H1613 H 0.74691 0.91766 0.66818 0.0
H1614 H 0.79415 0.91969 0.83023 0.0
H1615 H 0.76794 0.91025 0.87931 0.0
H1616 H 0.79317 0.95346 0.86032 0.0
H1617 H 0.73989 0.95955 0.85582 0.0
H1618 H 0.71466 0.91669 0.87609 0.0
H1619 H 0.7038 0.92903 0.82428 0.0
H1620 H 0.71665 0.85501 0.69675 0.0
H1621 H 0.68351 0.80091 0.73796 0.0
H1622 H 0.70488 0.85656 0.86213 0.0
C1623 C 0.78288 0.97813 0.77094 0.0
C1624 C 0.79152 0.99222 0.72715 0.0
C1625 C 0.77721 0.96985 0.69041 0.0
C1626 C 0.75648 0.93441 0.69672 0.0
C1627 C 0.74926 0.92127 0.74022 0.0
C1628 C 0.76096 0.9427 0.77672 0.0
C1629 C 0.74801 0.92231 0.81998 0.0
C1630 C 0.77759 0.9267 0.84918 0.0
C1631 C 0.72523 0.9325 0.84555 0.0
C1632 C 0.72767 0.88608 0.8023 0.0
C1633 C 0.72946 0.88591 0.75622 0.0
C1634 C 0.71436 0.85521 0.73274 0.0
C1635 C 0.69549 0.82434 0.7565 0.0
C1636 C 0.6902 0.82387 0.80331 0.0
C1637 C 0.7078 0.8555 0.82635 0.0
H1638 H 0.06992 0.8253 0.78693 0.0
H1639 H 0.08552 0.82829 0.64387 0.0
H1640 H 0.14695 0.85156 0.65597 0.0
H1641 H 0.14681 0.90045 0.81571 0.0
H1642 H 0.15448 0.88345 0.86587 0.0
H1643 H 0.1118 0.86726 0.84638 0.0
H1644 H 0.10217 0.80623 0.84471 0.0
H1645 H 0.1445 0.82211 0.86529 0.0
H1646 H 0.13136 0.79792 0.81427 0.0
H1647 H 0.2088 0.87948 0.68462 0.0
H1648 H 0.2618 0.89678 0.726 0.0
H1649 H 0.20567 0.86956 0.8506 0.0
C1650 C 0.08617 0.83007 0.75819 0.0
C1651 C 0.0725 0.82419 0.71429 0.0
C1652 C 0.09497 0.83158 0.67773 0.0
C1653 C 0.13012 0.84533 0.68435 0.0
C1654 C 0.14284 0.85125 0.72794 0.0
C1655 C 0.12131 0.84286 0.76429 0.0
C1656 C 0.14117 0.85004 0.80774 0.0
C1657 C 0.13839 0.87689 0.83557 0.0
C1658 C 0.12909 0.81712 0.83459 0.0
C1659 C 0.17719 0.86384 0.79033 0.0
C1660 C 0.17776 0.86515 0.74419 0.0
C1661 C 0.20833 0.87799 0.72073 0.0
C1662 C 0.2386 0.88809 0.74467 0.0
C1663 C 0.23846 0.88446 0.79181 0.0
C1664 C 0.20711 0.87294 0.81469 0.0
H1665 H 0.23706 0.26036 0.78296 0.0
H1666 H 0.24175 0.2784 0.6404 0.0
H1667 H 0.21853 0.31678 0.6521 0.0
H1668 H 0.16104 0.26058 0.80591 0.0
H1669 H 0.17486 0.28304 0.85816 0.0
H1670 H 0.19243 0.25763 0.83894 0.0
H1671 H 0.25308 0.3094 0.84371 0.0
H1672 H 0.23578 0.33469 0.86424 0.0
H1673 H 0.26277 0.34827 0.81557 0.0
H1674 H 0.18877 0.34965 0.68029 0.0
H1675 H 0.16893 0.38331 0.72205 0.0
H1676 H 0.18927 0.34867 0.84678 0.0
C1677 C 0.23414 0.27318 0.75429 0.0
C1678 C 0.24206 0.26675 0.71069 0.0
C1679 C 0.23696 0.28351 0.67415 0.0
C1680 C 0.22317 0.30499 0.68052 0.0
C1681 C 0.2149 0.3101 0.72383 0.0
C1682 C 0.22124 0.29542 0.76021 0.0
C1683 C 0.21146 0.30599 0.80351 0.0
C1684 C 0.18328 0.27496 0.82807 0.0
C1685 C 0.24263 0.32577 0.83353 0.0
C1686 C 0.1985 0.32881 0.78605 0.0
C1687 C 0.19988 0.33025 0.73991 0.0
C1688 C 0.18818 0.34895 0.71645 0.0
C1689 C 0.17656 0.36789 0.74058 0.0
C1690 C 0.17759 0.36922 0.78801 0.0
C1691 C 0.18786 0.34835 0.81065 0.0
H1692 H 0.76809 0.62278 0.50339 0.0
H1693 H 0.71695 0.57493 0.62719 0.0
H1694 H 0.77057 0.60784 0.66818 0.0
H1695 H 0.84589 0.62437 0.52942 0.0
H1696 H 0.87379 0.66507 0.5043 0.0
H1697 H 0.83128 0.6393 0.48359 0.0
H1698 H 0.81887 0.68834 0.49693 0.0
H1699 H 0.86199 0.71387 0.51522 0.0
H1700 H 0.82776 0.70853 0.55097 0.0
H1701 H 0.83015 0.64152 0.69564 0.0
H1702 H 0.88948 0.68331 0.71168 0.0
H1703 H 0.90521 0.71494 0.57268 0.0
C1704 C 0.76794 0.62036 0.53939 0.0
C1705 C 0.73753 0.59684 0.56222 0.0
C1706 C 0.73925 0.59329 0.60903 0.0
C1707 C 0.76988 0.61163 0.63258 0.0
C1708 C 0.79937 0.63374 0.60923 0.0
C1709 C 0.79872 0.63892 0.56383 0.0
C1710 C 0.83464 0.66433 0.54745 0.0
C1711 C 0.84713 0.64725 0.51421 0.0
C1712 C 0.83583 0.69564 0.52643 0.0
C1713 C 0.85516 0.67342 0.59094 0.0
C1714 C 0.83415 0.65438 0.62565 0.0
C1715 C 0.84665 0.65685 0.66876 0.0
C1716 C 0.88078 0.68059 0.67747 0.0
C1717 C 0.90279 0.70279 0.64384 0.0
C1718 C 0.88973 0.69825 0.59935 0.0
H1719 H 0.37936 0.20426 0.68132 0.0
H1720 H 0.32966 0.20359 0.55772 0.0
H1721 H 0.36452 0.18501 0.51692 0.0
H1722 H 0.46484 0.23808 0.62797 0.0
H1723 H 0.47613 0.21407 0.66483 0.0
H1724 H 0.4477 0.22809 0.68386 0.0
H1725 H 0.40347 0.16603 0.704 0.0
H1726 H 0.43143 0.15174 0.68398 0.0
H1727 H 0.38934 0.13379 0.66145 0.0
H1728 H 0.40074 0.15926 0.4906 0.0
H1729 H 0.44341 0.14167 0.47815 0.0
H1730 H 0.47571 0.16598 0.61576 0.0
C1731 C 0.37648 0.20123 0.64544 0.0
C1732 C 0.35135 0.2056 0.62312 0.0
C1733 C 0.34857 0.20087 0.57604 0.0
C1734 C 0.36819 0.18989 0.55245 0.0
C1735 C 0.39171 0.18466 0.5757 0.0
C1736 C 0.39688 0.19144 0.62092 0.0
C1737 C 0.42489 0.18516 0.63755 0.0
C1738 C 0.45519 0.21832 0.65456 0.0
C1739 C 0.41147 0.15754 0.67391 0.0
C1740 C 0.43405 0.17295 0.59505 0.0
C1741 C 0.41412 0.17224 0.55991 0.0
C1742 C 0.41671 0.16023 0.51788 0.0
C1743 C 0.4408 0.14979 0.5112 0.0
C1744 C 0.46281 0.15185 0.54594 0.0
C1745 C 0.45913 0.16365 0.5885 0.0
H1746 H 0.91539 0.30413 0.52051 0.0
H1747 H 0.90477 0.35047 0.64129 0.0
H1748 H 0.88322 0.2962 0.6814 0.0
H1749 H 0.8404 0.22329 0.53554 0.0
H1750 H 0.85781 0.1979 0.51547 0.0
H1751 H 0.87465 0.24078 0.4956 0.0
H1752 H 0.93469 0.25572 0.52084 0.0
H1753 H 0.91795 0.21265 0.53975 0.0
H1754 H 0.9413 0.24738 0.57773 0.0
H1755 H 0.85966 0.23615 0.70868 0.0
H1756 H 0.84376 0.17677 0.72405 0.0
H1757 H 0.86861 0.16624 0.58756 0.0
C1758 C 0.90974 0.30314 0.55582 0.0
C1759 C 0.91286 0.33239 0.57792 0.0
C1760 C 0.90352 0.32909 0.62369 0.0
C1761 C 0.89083 0.29807 0.64676 0.0
C1762 C 0.88713 0.26968 0.62401 0.0
C1763 C 0.8969 0.27188 0.57976 0.0
C1764 C 0.88985 0.2369 0.56373 0.0
C1765 C 0.86415 0.22396 0.52529 0.0
C1766 C 0.92292 0.23825 0.54969 0.0
C1767 C 0.87474 0.21502 0.60578 0.0
C1768 C 0.87317 0.2346 0.63988 0.0
C1769 C 0.86079 0.22067 0.68208 0.0
C1770 C 0.85128 0.18653 0.69041 0.0
C1771 C 0.85383 0.16582 0.65699 0.0
C1772 C 0.8651 0.18046 0.61364 0.0
H1773 H 0.38744 0.1577 0.10414 0.0
H1774 H 0.32311 0.18485 0.1798 0.0
H1775 H 0.35422 0.24233 0.15092 0.0
H1776 H 0.45954 0.2361 0.13765 0.0
H1777 H 0.48545 0.24601 0.08891 0.0
H1778 H 0.45654 0.20229 0.10317 0.0
H1779 H 0.42419 0.18748 0.03049 0.0
H1780 H 0.45265 0.22917 0.00852 0.0
H1781 H 0.40788 0.21352 0.0094 0.0
H1782 H 0.38962 0.29759 0.10976 0.0
H1783 H 0.43559 0.34956 0.0741 0.0
H1784 H 0.48597 0.29391 0.03731 0.0
C1785 C 0.37957 0.17553 0.1141 0.0
C1786 C 0.35101 0.165 0.14285 0.0
C1787 C 0.3436 0.19065 0.15674 0.0
C1788 C 0.36122 0.22397 0.14032 0.0
C1789 C 0.38832 0.23321 0.11157 0.0
C1790 C 0.39851 0.21026 0.09998 0.0
C1791 C 0.43221 0.22912 0.07484 0.0
C1792 C 0.46007 0.22826 0.10261 0.0
C1793 C 0.42909 0.21391 0.02807 0.0
C1794 C 0.43798 0.26534 0.07209 0.0
C1795 C 0.41187 0.26681 0.09304 0.0
C1796 C 0.41052 0.29687 0.09374 0.0
C1797 C 0.43671 0.32637 0.07317 0.0
C1798 C 0.46471 0.32629 0.05302 0.0
C1799 C 0.46511 0.29507 0.05265 0.0
H1800 H 0.90368 0.2336 0.11066 0.0
H1801 H 0.87073 0.14268 0.19098 0.0
H1802 H 0.81367 0.11872 0.16182 0.0
H1803 H 0.8269 0.23702 0.13086 0.0
H1804 H 0.82643 0.25251 0.07566 0.0
H1805 H 0.86587 0.26137 0.10006 0.0
H1806 H 0.87684 0.23519 0.02985 0.0
H1807 H 0.83616 0.22402 0.00661 0.0
H1808 H 0.84731 0.19175 0.0153 0.0
H1809 H 0.75848 0.10193 0.12247 0.0
H1810 H 0.70857 0.09921 0.08544 0.0
H1811 H 0.77218 0.20241 0.03905 0.0
C1812 C 0.88458 0.20863 0.12192 0.0
C1813 C 0.89294 0.1904 0.1532 0.0
C1814 C 0.86616 0.15786 0.16722 0.0
C1815 C 0.83315 0.14351 0.15051 0.0
C1816 C 0.82578 0.16186 0.12011 0.0
C1817 C 0.85045 0.19401 0.10654 0.0
C1818 C 0.83435 0.20914 0.07655 0.0
C1819 C 0.83863 0.24194 0.09707 0.0
C1820 C 0.84959 0.21542 0.02928 0.0
C1821 C 0.79711 0.1808 0.07631 0.0
C1822 C 0.79303 0.15328 0.10049 0.0
C1823 C 0.76136 0.12354 0.10369 0.0
C1824 C 0.73303 0.12205 0.08234 0.0
C1825 C 0.73599 0.15045 0.05904 0.0
C1826 C 0.76874 0.18014 0.05624 0.0
H1827 H 0.90429 0.59388 0.13346 0.0
H1828 H 0.91913 0.61956 0.99276 0.0
H1829 H 0.89719 0.65895 0.00406 0.0
H1830 H 0.82914 0.59698 0.15019 0.0
H1831 H 0.84028 0.61706 0.20423 0.0
H1832 H 0.85768 0.5913 0.18583 0.0
H1833 H 0.91854 0.6413 0.1977 0.0
H1834 H 0.90133 0.66691 0.21737 0.0
H1835 H 0.93121 0.68168 0.17173 0.0
H1836 H 0.86628 0.69089 0.03006 0.0
H1837 H 0.84438 0.7233 0.07019 0.0
H1838 H 0.85704 0.68391 0.19613 0.0
C1839 C 0.90403 0.60868 0.1053 0.0
C1840 C 0.91443 0.60399 0.06222 0.0
C1841 C 0.9125 0.62325 0.02624 0.0
C1842 C 0.89944 0.64536 0.03229 0.0
C1843 C 0.88874 0.64879 0.07487 0.0
C1844 C 0.8921 0.63186 0.1111 0.0
C1845 C 0.88024 0.64126 0.15376 0.0
C1846 C 0.85005 0.60977 0.17474 0.0
C1847 C 0.90958 0.65884 0.18711 0.0
C1848 C 0.86945 0.66586 0.13599 0.0
C1849 C 0.87364 0.66909 0.09016 0.0
C1850 C 0.86364 0.68892 0.06605 0.0
C1851 C 0.8508 0.70715 0.08931 0.0
C1852 C 0.84915 0.70696 0.13679 0.0
C1853 C 0.85788 0.68501 0.15998 0.0
loop_
_geom_bond_atom_site_label_1
_geom_bond_atom_site_label_2
_geom_bond_distance
_geom_bond_site_symmetry_2
_ccdc_geom_bond_type
Fe0 O2 1.918 1_556 S
Fe0 O5 1.997 . S
Fe0 O6 2.002 . S
Fe0 O11 1.976 . S
Fe0 O14 1.996 1_556 S
Fe1 O2 1.918 . S
Fe1 O9 1.997 1_554 S
Fe1 O12 1.996 1_554 S
Fe1 O16 1.976 . S
Fe1 O19 2.002 . S
O2 Fe0 1.918 1_554 S
O2 Fe1 1.918 . S
O2 Fe3 1.918 . S
Fe3 O2 1.918 . S
Fe3 O4 2.002 . S
Fe3 O13 1.976 . S
Fe3 O17 1.996 . S
Fe3 O20 1.997 . S
O4 Fe3 2.002 . S
O4 C21 1.295 1_554 S
O5 Fe0 1.997 . S
O5 C21 1.235 . S
O6 Fe0 2.002 . S
O6 C7 1.295 . S
C7 O6 1.295 . S
C7 O9 1.235 . S
C8 O13 1.287 . S
C8 O14 1.255 . S
O9 Fe1 1.997 1_556 S
O9 C7 1.235 . S
C10 O16 1.287 . S
C10 O17 1.255 . S
O11 Fe0 1.976 . S
O11 C18 1.287 . S
O12 Fe1 1.996 1_556 S
O12 C18 1.255 . S
O13 Fe3 1.976 . S
O13 C8 1.287 . S
O14 Fe0 1.996 1_554 S
O14 C8 1.255 . S
C15 O19 1.295 . S
C15 O20 1.235 . S
O16 Fe1 1.976 . S
O16 C10 1.287 . S
O17 Fe3 1.996 . S
O17 C10 1.255 . S
C18 O11 1.287 . S
C18 O12 1.255 . S
O19 Fe1 2.002 . S
O19 C15 1.295 . S
O20 Fe3 1.997 . S
O20 C15 1.235 . S
C21 O4 1.295 1_556 S
C21 O5 1.235 . S
Fe22 O24 1.918 1_556 S
Fe22 O27 1.997 . S
Fe22 O28 2.002 . S
Fe22 O33 1.976 . S
Fe22 O36 1.996 1_556 S
Fe23 O24 1.918 . S
Fe23 O31 1.997 1_554 S
Fe23 O34 1.996 1_554 S
Fe23 O38 1.976 . S
Fe23 O41 2.002 . S
O24 Fe22 1.918 1_554 S
O24 Fe23 1.918 . S
O24 Fe25 1.918 . S
Fe25 O24 1.918 . S
Fe25 O26 2.002 . S
Fe25 O35 1.976 . S
Fe25 O39 1.996 . S
Fe25 O42 1.997 . S
O26 Fe25 2.002 . S
O26 C43 1.295 1_554 S
O27 Fe22 1.997 . S
O27 C43 1.235 . S
O28 Fe22 2.002 . S
O28 C29 1.295 . S
C29 O28 1.295 . S
C29 O31 1.235 . S
C30 O35 1.287 . S
C30 O36 1.255 . S
O31 Fe23 1.997 1_556 S
O31 C29 1.235 . S
C32 O38 1.287 . S
C32 O39 1.255 . S
O33 Fe22 1.976 . S
O33 C40 1.287 . S
O34 Fe23 1.996 1_556 S
O34 C40 1.255 . S
O35 Fe25 1.976 . S
O35 C30 1.287 . S
O36 Fe22 1.996 1_554 S
O36 C30 1.255 . S
C37 O41 1.295 . S
C37 O42 1.235 . S
O38 Fe23 1.976 . S
O38 C32 1.287 . S
O39 Fe25 1.996 . S
O39 C32 1.255 . S
C40 O33 1.287 . S
C40 O34 1.255 . S
O41 Fe23 2.002 . S
O41 C37 1.295 . S
O42 Fe25 1.997 . S
O42 C37 1.235 . S
C43 O26 1.295 1_556 S
C43 O27 1.235 . S
Fe44 O46 1.918 1_556 S
Fe44 O49 1.997 . S
Fe44 O50 2.002 . S
Fe44 O55 1.976 . S
Fe44 O58 1.996 1_556 S
Fe45 O46 1.918 . S
Fe45 O53 1.997 1_554 S
Fe45 O56 1.996 1_554 S
Fe45 O60 1.976 . S
Fe45 O63 2.002 . S
O46 Fe44 1.918 1_554 S
O46 Fe45 1.918 . S
O46 Fe47 1.918 . S
Fe47 O46 1.918 . S
Fe47 O48 2.002 . S
Fe47 O57 1.976 . S
Fe47 O61 1.996 . S
Fe47 O64 1.997 . S
O48 Fe47 2.002 . S
O48 C65 1.295 1_554 S
O49 Fe44 1.997 . S
O49 C65 1.235 . S
O50 Fe44 2.002 . S
O50 C51 1.295 . S
C51 O50 1.295 . S
C51 O53 1.235 . S
C52 O57 1.287 . S
C52 O58 1.255 . S
O53 Fe45 1.997 1_556 S
O53 C51 1.235 . S
C54 O60 1.287 . S
C54 O61 1.255 . S
O55 Fe44 1.976 . S
O55 C62 1.287 . S
O56 Fe45 1.996 1_556 S
O56 C62 1.255 . S
O57 Fe47 1.976 . S
O57 C52 1.287 . S
O58 Fe44 1.996 1_554 S
O58 C52 1.255 . S
C59 O63 1.295 . S
C59 O64 1.235 . S
O60 Fe45 1.976 . S
O60 C54 1.287 . S
O61 Fe47 1.996 . S
O61 C54 1.255 . S
C62 O55 1.287 . S
C62 O56 1.255 . S
O63 Fe45 2.002 . S
O63 C59 1.295 . S
O64 Fe47 1.997 . S
O64 C59 1.235 . S
C65 O48 1.295 1_556 S
C65 O49 1.235 . S
Fe66 O68 1.918 . S
Fe66 O71 1.997 . S
Fe66 O72 2.002 . S
Fe66 O77 1.976 . S
Fe66 O80 1.996 . S
Fe67 O68 1.918 . S
Fe67 O75 1.997 . S
Fe67 O78 1.996 . S
Fe67 O82 1.976 . S
Fe67 O85 2.002 . S
O68 Fe66 1.918 . S
O68 Fe67 1.918 . S
O68 Fe69 1.918 . S
Fe69 O68 1.918 . S
Fe69 O70 2.002 . S
Fe69 O79 1.976 . S
Fe69 O83 1.996 . S
Fe69 O86 1.997 . S
O70 Fe69 2.002 . S
O70 C87 1.295 . S
O71 Fe66 1.997 . S
O71 C87 1.235 . S
O72 Fe66 2.002 . S
O72 C73 1.295 . S
C73 O72 1.295 . S
C73 O75 1.235 . S
C74 O79 1.287 . S
C74 O80 1.255 . S
O75 Fe67 1.997 . S
O75 C73 1.235 . S
C76 O82 1.287 . S
C76 O83 1.255 . S
O77 Fe66 1.976 . S
O77 C84 1.287 . S
O78 Fe67 1.996 . S
O78 C84 1.255 . S
O79 Fe69 1.976 . S
O79 C74 1.287 . S
O80 Fe66 1.996 . S
O80 C74 1.255 . S
C81 O85 1.295 . S
C81 O86 1.235 . S
O82 Fe67 1.976 . S
O82 C76 1.287 . S
O83 Fe69 1.996 . S
O83 C76 1.255 . S
C84 O77 1.287 . S
C84 O78 1.255 . S
O85 Fe67 2.002 . S
O85 C81 1.295 . S
O86 Fe69 1.997 . S
O86 C81 1.235 . S
C87 O70 1.295 . S
C87 O71 1.235 . S
Fe88 O90 1.918 . S
Fe88 O93 1.997 . S
Fe88 O94 2.002 . S
Fe88 O99 1.976 . S
Fe88 O102 1.996 . S
Fe89 O90 1.918 . S
Fe89 O97 1.997 . S
Fe89 O100 1.996 . S
Fe89 O104 1.976 . S
Fe89 O107 2.002 . S
O90 Fe88 1.918 . S
O90 Fe89 1.918 . S
O90 Fe91 1.918 . S
Fe91 O90 1.918 . S
Fe91 O92 2.002 . S
Fe91 O101 1.976 . S
Fe91 O105 1.996 . S
Fe91 O108 1.997 . S
O92 Fe91 2.002 . S
O92 C109 1.295 . S
O93 Fe88 1.997 . S
O93 C109 1.235 . S
O94 Fe88 2.002 . S
O94 C95 1.295 . S
C95 O94 1.295 . S
C95 O97 1.235 . S
C96 O101 1.287 . S
C96 O102 1.255 . S
O97 Fe89 1.997 . S
O97 C95 1.235 . S
C98 O104 1.287 . S
C98 O105 1.255 . S
O99 Fe88 1.976 . S
O99 C106 1.287 . S
O100 Fe89 1.996 . S
O100 C106 1.255 . S
O101 Fe91 1.976 . S
O101 C96 1.287 . S
O102 Fe88 1.996 . S
O102 C96 1.255 . S
C103 O107 1.295 . S
C103 O108 1.235 . S
O104 Fe89 1.976 . S
O104 C98 1.287 . S
O105 Fe91 1.996 . S
O105 C98 1.255 . S
C106 O99 1.287 . S
C106 O100 1.255 . S
O107 Fe89 2.002 . S
O107 C103 1.295 . S
O108 Fe91 1.997 . S
O108 C103 1.235 . S
C109 O92 1.295 . S
C109 O93 1.235 . S
Fe110 O112 1.918 . S
Fe110 O115 1.997 . S
Fe110 O116 2.002 . S
Fe110 O121 1.976 . S
Fe110 O124 1.996 . S
Fe111 O112 1.918 . S
Fe111 O119 1.997 . S
Fe111 O122 1.996 . S
Fe111 O126 1.976 . S
Fe111 O129 2.002 . S
O112 Fe110 1.918 . S
O112 Fe111 1.918 . S
O112 Fe113 1.918 . S
Fe113 O112 1.918 . S
Fe113 O114 2.002 . S
Fe113 O123 1.976 . S
Fe113 O127 1.996 . S
Fe113 O130 1.997 . S
O114 Fe113 2.002 . S
O114 C131 1.295 . S
O115 Fe110 1.997 . S
O115 C131 1.235 . S
O116 Fe110 2.002 . S
O116 C117 1.295 . S
C117 O116 1.295 . S
C117 O119 1.235 . S
C118 O123 1.287 . S
C118 O124 1.255 . S
O119 Fe111 1.997 . S
O119 C117 1.235 . S
C120 O126 1.287 . S
C120 O127 1.255 . S
O121 Fe110 1.976 . S
O121 C128 1.287 . S
O122 Fe111 1.996 . S
O122 C128 1.255 . S
O123 Fe113 1.976 . S
O123 C118 1.287 . S
O124 Fe110 1.996 . S
O124 C118 1.255 . S
C125 O129 1.295 . S
C125 O130 1.235 . S
O126 Fe111 1.976 . S
O126 C120 1.287 . S
O127 Fe113 1.996 . S
O127 C120 1.255 . S
C128 O121 1.287 . S
C128 O122 1.255 . S
O129 Fe111 2.002 . S
O129 C125 1.295 . S
O130 Fe113 1.997 . S
O130 C125 1.235 . S
C131 O114 1.295 . S
C131 O115 1.235 . S
Fe132 O134 1.918 . S
Fe132 O137 1.997 . S
Fe132 O138 2.002 . S
Fe132 O143 1.976 . S
Fe132 O146 1.996 . S
Fe133 O134 1.918 . S
Fe133 O141 1.997 . S
Fe133 O144 1.996 . S
Fe133 O148 1.976 . S
Fe133 O151 2.002 . S
O134 Fe132 1.918 . S
O134 Fe133 1.918 . S
O134 Fe135 1.918 . S
Fe135 O134 1.918 . S
Fe135 O136 2.002 . S
Fe135 O145 1.976 . S
Fe135 O149 1.996 . S
Fe135 O152 1.997 . S
O136 Fe135 2.002 . S
O136 C153 1.295 . S
O137 Fe132 1.997 . S
O137 C153 1.235 . S
O138 Fe132 2.002 . S
O138 C139 1.295 . S
C139 O138 1.295 . S
C139 O141 1.235 . S
C140 O145 1.287 . S
C140 O146 1.255 . S
O141 Fe133 1.997 . S
O141 C139 1.235 . S
C142 O148 1.287 . S
C142 O149 1.255 . S
O143 Fe132 1.976 . S
O143 C150 1.287 . S
O144 Fe133 1.996 . S
O144 C150 1.255 . S
O145 Fe135 1.976 . S
O145 C140 1.287 . S
O146 Fe132 1.996 . S
O146 C140 1.255 . S
C147 O151 1.295 . S
C147 O152 1.235 . S
O148 Fe133 1.976 . S
O148 C142 1.287 . S
O149 Fe135 1.996 . S
O149 C142 1.255 . S
C150 O143 1.287 . S
C150 O144 1.255 . S
O151 Fe133 2.002 . S
O151 C147 1.295 . S
O152 Fe135 1.997 . S
O152 C147 1.235 . S
C153 O136 1.295 . S
C153 O137 1.235 . S
Fe154 O156 1.918 . S
Fe154 O159 1.997 . S
Fe154 O160 2.002 . S
Fe154 O165 1.976 . S
Fe154 O168 1.996 . S
Fe155 O156 1.918 . S
Fe155 O163 1.997 . S
Fe155 O166 1.996 . S
Fe155 O170 1.976 . S
Fe155 O173 2.002 . S
O156 Fe154 1.918 . S
O156 Fe155 1.918 . S
O156 Fe157 1.918 . S
Fe157 O156 1.918 . S
Fe157 O158 2.002 . S
Fe157 O167 1.976 . S
Fe157 O171 1.996 . S
Fe157 O174 1.997 . S
O158 Fe157 2.002 . S
O158 C175 1.295 . S
O159 Fe154 1.997 . S
O159 C175 1.235 . S
O160 Fe154 2.002 . S
O160 C161 1.295 . S
C161 O160 1.295 . S
C161 O163 1.235 . S
C162 O167 1.287 . S
C162 O168 1.255 . S
O163 Fe155 1.997 . S
O163 C161 1.235 . S
C164 O170 1.287 . S
C164 O171 1.255 . S
O165 Fe154 1.976 . S
O165 C172 1.287 . S
O166 Fe155 1.996 . S
O166 C172 1.255 . S
O167 Fe157 1.976 . S
O167 C162 1.287 . S
O168 Fe154 1.996 . S
O168 C162 1.255 . S
C169 O173 1.295 . S
C169 O174 1.235 . S
O170 Fe155 1.976 . S
O170 C164 1.287 . S
O171 Fe157 1.996 . S
O171 C164 1.255 . S
C172 O165 1.287 . S
C172 O166 1.255 . S
O173 Fe155 2.002 . S
O173 C169 1.295 . S
O174 Fe157 1.997 . S
O174 C169 1.235 . S
C175 O158 1.295 . S
C175 O159 1.235 . S
Fe176 O178 1.918 . S
Fe176 O181 1.997 . S
Fe176 O182 2.002 . S
Fe176 O187 1.976 . S
Fe176 O190 1.996 . S
Fe177 O178 1.918 . S
Fe177 O185 1.997 . S
Fe177 O188 1.996 . S
Fe177 O192 1.976 . S
Fe177 O195 2.002 . S
O178 Fe176 1.918 . S
O178 Fe177 1.918 . S
O178 Fe179 1.918 . S
Fe179 O178 1.918 . S
Fe179 O180 2.002 . S
Fe179 O189 1.976 . S
Fe179 O193 1.996 . S
Fe179 O196 1.997 . S
O180 Fe179 2.002 . S
O180 C197 1.295 . S
O181 Fe176 1.997 . S
O181 C197 1.235 . S
O182 Fe176 2.002 . S
O182 C183 1.295 . S
C183 O182 1.295 . S
C183 O185 1.235 . S
C184 O189 1.287 . S
C184 O190 1.255 . S
O185 Fe177 1.997 . S
O185 C183 1.235 . S
C186 O192 1.287 . S
C186 O193 1.255 . S
O187 Fe176 1.976 . S
O187 C194 1.287 . S
O188 Fe177 1.996 . S
O188 C194 1.255 . S
O189 Fe179 1.976 . S
O189 C184 1.287 . S
O190 Fe176 1.996 . S
O190 C184 1.255 . S
C191 O195 1.295 . S
C191 O196 1.235 . S
O192 Fe177 1.976 . S
O192 C186 1.287 . S
O193 Fe179 1.996 . S
O193 C186 1.255 . S
C194 O187 1.287 . S
C194 O188 1.255 . S
O195 Fe177 2.002 . S
O195 C191 1.295 . S
O196 Fe179 1.997 . S
O196 C191 1.235 . S
C197 O180 1.295 . S
C197 O181 1.235 . S
Fe198 O200 1.918 . S
Fe198 O203 1.997 . S
Fe198 O204 2.002 . S
Fe198 O209 1.976 . S
Fe198 O212 1.996 . S
Fe199 O200 1.918 . S
Fe199 O207 1.997 . S
Fe199 O210 1.996 . S
Fe199 O214 1.976 . S
Fe199 O217 2.002 . S
O200 Fe198 1.918 . S
O200 Fe199 1.918 . S
O200 Fe201 1.918 . S
Fe201 O200 1.918 . S
Fe201 O202 2.002 . S
Fe201 O211 1.976 . S
Fe201 O215 1.996 . S
Fe201 O218 1.997 . S
O202 Fe201 2.002 . S
O202 C219 1.295 . S
O203 Fe198 1.997 . S
O203 C219 1.235 . S
O204 Fe198 2.002 . S
O204 C205 1.295 . S
C205 O204 1.295 . S
C205 O207 1.235 . S
C206 O211 1.287 . S
C206 O212 1.255 . S
O207 Fe199 1.997 . S
O207 C205 1.235 . S
C208 O214 1.287 . S
C208 O215 1.255 . S
O209 Fe198 1.976 . S
O209 C216 1.287 . S
O210 Fe199 1.996 . S
O210 C216 1.255 . S
O211 Fe201 1.976 . S
O211 C206 1.287 . S
O212 Fe198 1.996 . S
O212 C206 1.255 . S
C213 O217 1.295 . S
C213 O218 1.235 . S
O214 Fe199 1.976 . S
O214 C208 1.287 . S
O215 Fe201 1.996 . S
O215 C208 1.255 . S
C216 O209 1.287 . S
C216 O210 1.255 . S
O217 Fe199 2.002 . S
O217 C213 1.295 . S
O218 Fe201 1.997 . S
O218 C213 1.235 . S
C219 O202 1.295 . S
C219 O203 1.235 . S
Fe220 O222 1.918 . S
Fe220 O225 1.997 . S
Fe220 O226 2.002 . S
Fe220 O231 1.976 . S
Fe220 O234 1.996 . S
Fe221 O222 1.918 . S
Fe221 O229 1.997 . S
Fe221 O232 1.996 . S
Fe221 O236 1.976 . S
Fe221 O239 2.002 . S
O222 Fe220 1.918 . S
O222 Fe221 1.918 . S
O222 Fe223 1.918 . S
Fe223 O222 1.918 . S
Fe223 O224 2.002 . S
Fe223 O233 1.976 . S
Fe223 O237 1.996 . S
Fe223 O240 1.997 . S
O224 Fe223 2.002 . S
O224 C241 1.295 . S
O225 Fe220 1.997 . S
O225 C241 1.235 . S
O226 Fe220 2.002 . S
O226 C227 1.295 . S
C227 O226 1.295 . S
C227 O229 1.235 . S
C228 O233 1.287 . S
C228 O234 1.255 . S
O229 Fe221 1.997 . S
O229 C227 1.235 . S
C230 O236 1.287 . S
C230 O237 1.255 . S
O231 Fe220 1.976 . S
O231 C238 1.287 . S
O232 Fe221 1.996 . S
O232 C238 1.255 . S
O233 Fe223 1.976 . S
O233 C228 1.287 . S
O234 Fe220 1.996 . S
O234 C228 1.255 . S
C235 O239 1.295 . S
C235 O240 1.235 . S
O236 Fe221 1.976 . S
O236 C230 1.287 . S
O237 Fe223 1.996 . S
O237 C230 1.255 . S
C238 O231 1.287 . S
C238 O232 1.255 . S
O239 Fe221 2.002 . S
O239 C235 1.295 . S
O240 Fe223 1.997 . S
O240 C235 1.235 . S
C241 O224 1.295 . S
C241 O225 1.235 . S
Fe242 O244 1.918 . S
Fe242 O247 1.997 . S
Fe242 O248 2.002 . S
Fe242 O253 1.976 . S
Fe242 O256 1.996 . S
Fe243 O244 1.918 . S
Fe243 O251 1.997 . S
Fe243 O254 1.996 . S
Fe243 O258 1.976 . S
Fe243 O261 2.002 . S
O244 Fe242 1.918 . S
O244 Fe243 1.918 . S
O244 Fe245 1.918 . S
Fe245 O244 1.918 . S
Fe245 O246 2.002 . S
Fe245 O255 1.976 . S
Fe245 O259 1.996 . S
Fe245 O262 1.997 . S
O246 Fe245 2.002 . S
O246 C263 1.295 . S
O247 Fe242 1.997 . S
O247 C263 1.235 . S
O248 Fe242 2.002 . S
O248 C249 1.295 . S
C249 O248 1.295 . S
C249 O251 1.235 . S
C250 O255 1.287 . S
C250 O256 1.255 . S
O251 Fe243 1.997 . S
O251 C249 1.235 . S
C252 O258 1.287 . S
C252 O259 1.255 . S
O253 Fe242 1.976 . S
O253 C260 1.287 . S
O254 Fe243 1.996 . S
O254 C260 1.255 . S
O255 Fe245 1.976 . S
O255 C250 1.287 . S
O256 Fe242 1.996 . S
O256 C250 1.255 . S
C257 O261 1.295 . S
C257 O262 1.235 . S
O258 Fe243 1.976 . S
O258 C252 1.287 . S
O259 Fe245 1.996 . S
O259 C252 1.255 . S
C260 O253 1.287 . S
C260 O254 1.255 . S
O261 Fe243 2.002 . S
O261 C257 1.295 . S
O262 Fe245 1.997 . S
O262 C257 1.235 . S
C263 O246 1.295 . S
C263 O247 1.235 . S
Fe264 O266 1.918 . S
Fe264 O269 1.997 . S
Fe264 O270 2.002 . S
Fe264 O275 1.976 . S
Fe264 O278 1.996 . S
Fe265 O266 1.918 . S
Fe265 O273 1.997 . S
Fe265 O276 1.996 . S
Fe265 O280 1.976 . S
Fe265 O283 2.002 . S
O266 Fe264 1.918 . S
O266 Fe265 1.918 . S
O266 Fe267 1.918 . S
Fe267 O266 1.918 . S
Fe267 O268 2.002 1_655 S
Fe267 O277 1.976 . S
Fe267 O281 1.996 . S
Fe267 O284 1.997 . S
O268 Fe267 2.002 1_455 S
O268 C285 1.295 . S
O269 Fe264 1.997 . S
O269 C285 1.235 1_655 S
O270 Fe264 2.002 . S
O270 C271 1.295 . S
C271 O270 1.295 . S
C271 O273 1.235 . S
C272 O277 1.287 . S
C272 O278 1.255 . S
O273 Fe265 1.997 . S
O273 C271 1.235 . S
C274 O280 1.287 . S
C274 O281 1.255 . S
O275 Fe264 1.976 . S
O275 C282 1.287 . S
O276 Fe265 1.996 . S
O276 C282 1.255 . S
O277 Fe267 1.976 . S
O277 C272 1.287 . S
O278 Fe264 1.996 . S
O278 C272 1.255 . S
C279 O283 1.295 . S
C279 O284 1.235 . S
O280 Fe265 1.976 . S
O280 C274 1.287 . S
O281 Fe267 1.996 . S
O281 C274 1.255 . S
C282 O275 1.287 . S
C282 O276 1.255 . S
O283 Fe265 2.002 . S
O283 C279 1.295 . S
O284 Fe267 1.997 . S
O284 C279 1.235 . S
C285 O268 1.295 . S
C285 O269 1.235 1_455 S
Fe286 O288 1.918 . S
Fe286 O291 1.997 . S
Fe286 O292 2.002 . S
Fe286 O297 1.976 . S
Fe286 O300 1.996 . S
Fe287 O288 1.918 . S
Fe287 O295 1.997 . S
Fe287 O298 1.996 . S
Fe287 O302 1.976 . S
Fe287 O305 2.002 . S
O288 Fe286 1.918 . S
O288 Fe287 1.918 . S
O288 Fe289 1.918 . S
Fe289 O288 1.918 . S
Fe289 O290 2.002 . S
Fe289 O299 1.976 . S
Fe289 O303 1.996 . S
Fe289 O306 1.997 . S
O290 Fe289 2.002 . S
O290 C307 1.295 . S
O291 Fe286 1.997 . S
O291 C307 1.235 . S
O292 Fe286 2.002 . S
O292 C293 1.295 . S
C293 O292 1.295 . S
C293 O295 1.235 . S
C294 O299 1.287 . S
C294 O300 1.255 . S
O295 Fe287 1.997 . S
O295 C293 1.235 . S
C296 O302 1.287 . S
C296 O303 1.255 . S
O297 Fe286 1.976 . S
O297 C304 1.287 . S
O298 Fe287 1.996 . S
O298 C304 1.255 . S
O299 Fe289 1.976 . S
O299 C294 1.287 . S
O300 Fe286 1.996 . S
O300 C294 1.255 . S
C301 O305 1.295 . S
C301 O306 1.235 . S
O302 Fe287 1.976 . S
O302 C296 1.287 . S
O303 Fe289 1.996 . S
O303 C296 1.255 . S
C304 O297 1.287 . S
C304 O298 1.255 . S
O305 Fe287 2.002 . S
O305 C301 1.295 . S
O306 Fe289 1.997 . S
O306 C301 1.235 . S
C307 O290 1.295 . S
C307 O291 1.235 . S
Fe308 O310 1.918 . S
Fe308 O313 1.997 . S
Fe308 O314 2.002 . S
Fe308 O319 1.976 . S
Fe308 O322 1.996 . S
Fe309 O310 1.918 . S
Fe309 O317 1.997 . S
Fe309 O320 1.996 . S
Fe309 O324 1.976 . S
Fe309 O327 2.002 . S
O310 Fe308 1.918 . S
O310 Fe309 1.918 . S
O310 Fe311 1.918 . S
Fe311 O310 1.918 . S
Fe311 O312 2.002 1_545 S
Fe311 O321 1.976 . S
Fe311 O325 1.996 . S
Fe311 O328 1.997 . S
O312 Fe311 2.002 1_565 S
O312 C329 1.295 . S
O313 Fe308 1.997 . S
O313 C329 1.235 1_545 S
O314 Fe308 2.002 . S
O314 C315 1.295 . S
C315 O314 1.295 . S
C315 O317 1.235 . S
C316 O321 1.287 . S
C316 O322 1.255 . S
O317 Fe309 1.997 . S
O317 C315 1.235 . S
C318 O324 1.287 . S
C318 O325 1.255 . S
O319 Fe308 1.976 . S
O319 C326 1.287 . S
O320 Fe309 1.996 . S
O320 C326 1.255 . S
O321 Fe311 1.976 . S
O321 C316 1.287 . S
O322 Fe308 1.996 . S
O322 C316 1.255 . S
C323 O327 1.295 . S
C323 O328 1.235 . S
O324 Fe309 1.976 . S
O324 C318 1.287 . S
O325 Fe311 1.996 . S
O325 C318 1.255 . S
C326 O319 1.287 . S
C326 O320 1.255 . S
O327 Fe309 2.002 . S
O327 C323 1.295 . S
O328 Fe311 1.997 . S
O328 C323 1.235 . S
C329 O312 1.295 . S
C329 O313 1.235 1_565 S
Fe330 O332 1.918 . S
Fe330 O335 1.997 . S
Fe330 O336 2.002 . S
Fe330 O341 1.976 . S
Fe330 O344 1.996 . S
Fe331 O332 1.918 . S
Fe331 O339 1.997 . S
Fe331 O342 1.996 . S
Fe331 O346 1.976 . S
Fe331 O349 2.002 . S
O332 Fe330 1.918 . S
O332 Fe331 1.918 . S
O332 Fe333 1.918 . S
Fe333 O332 1.918 . S
Fe333 O334 2.002 1_545 S
Fe333 O343 1.976 . S
Fe333 O347 1.996 . S
Fe333 O350 1.997 . S
O334 Fe333 2.002 1_565 S
O334 C351 1.295 . S
O335 Fe330 1.997 . S
O335 C351 1.235 1_545 S
O336 Fe330 2.002 . S
O336 C337 1.295 . S
C337 O336 1.295 . S
C337 O339 1.235 . S
C338 O343 1.287 . S
C338 O344 1.255 . S
O339 Fe331 1.997 . S
O339 C337 1.235 . S
C340 O346 1.287 . S
C340 O347 1.255 . S
O341 Fe330 1.976 . S
O341 C348 1.287 . S
O342 Fe331 1.996 . S
O342 C348 1.255 . S
O343 Fe333 1.976 . S
O343 C338 1.287 . S
O344 Fe330 1.996 . S
O344 C338 1.255 . S
C345 O349 1.295 . S
C345 O350 1.235 . S
O346 Fe331 1.976 . S
O346 C340 1.287 . S
O347 Fe333 1.996 . S
O347 C340 1.255 . S
C348 O341 1.287 . S
C348 O342 1.255 . S
O349 Fe331 2.002 . S
O349 C345 1.295 . S
O350 Fe333 1.997 . S
O350 C345 1.235 . S
C351 O334 1.295 . S
C351 O335 1.235 1_565 S
Fe352 O354 1.918 . S
Fe352 O357 1.997 . S
Fe352 O358 2.002 . S
Fe352 O363 1.976 . S
Fe352 O366 1.996 . S
Fe353 O354 1.918 . S
Fe353 O361 1.997 . S
Fe353 O364 1.996 . S
Fe353 O368 1.976 . S
Fe353 O371 2.002 . S
O354 Fe352 1.918 . S
O354 Fe353 1.918 . S
O354 Fe355 1.918 . S
Fe355 O354 1.918 . S
Fe355 O356 2.002 1_655 S
Fe355 O365 1.976 . S
Fe355 O369 1.996 . S
Fe355 O372 1.997 . S
O356 Fe355 2.002 1_455 S
O356 C373 1.295 . S
O357 Fe352 1.997 . S
O357 C373 1.235 1_655 S
O358 Fe352 2.002 . S
O358 C359 1.295 . S
C359 O358 1.295 . S
C359 O361 1.235 . S
C360 O365 1.287 . S
C360 O366 1.255 . S
O361 Fe353 1.997 . S
O361 C359 1.235 . S
C362 O368 1.287 . S
C362 O369 1.255 . S
O363 Fe352 1.976 . S
O363 C370 1.287 . S
O364 Fe353 1.996 . S
O364 C370 1.255 . S
O365 Fe355 1.976 . S
O365 C360 1.287 . S
O366 Fe352 1.996 . S
O366 C360 1.255 . S
C367 O371 1.295 . S
C367 O372 1.235 . S
O368 Fe353 1.976 . S
O368 C362 1.287 . S
O369 Fe355 1.996 . S
O369 C362 1.255 . S
C370 O363 1.287 . S
C370 O364 1.255 . S
O371 Fe353 2.002 . S
O371 C367 1.295 . S
O372 Fe355 1.997 . S
O372 C367 1.235 . S
C373 O356 1.295 . S
C373 O357 1.235 1_455 S
Fe374 O376 1.918 . S
Fe374 O379 1.997 . S
Fe374 O380 2.002 . S
Fe374 O385 1.976 . S
Fe374 O388 1.996 . S
Fe375 O376 1.918 . S
Fe375 O383 1.997 . S
Fe375 O386 1.996 . S
Fe375 O390 1.976 . S
Fe375 O393 2.002 . S
O376 Fe374 1.918 . S
O376 Fe375 1.918 . S
O376 Fe377 1.918 . S
Fe377 O376 1.918 . S
Fe377 O378 2.002 . S
Fe377 O387 1.976 . S
Fe377 O391 1.996 . S
Fe377 O394 1.997 . S
O378 Fe377 2.002 . S
O378 C395 1.295 . S
O379 Fe374 1.997 . S
O379 C395 1.235 . S
O380 Fe374 2.002 . S
O380 C381 1.295 . S
C381 O380 1.295 . S
C381 O383 1.235 . S
C382 O387 1.287 . S
C382 O388 1.255 . S
O383 Fe375 1.997 . S
O383 C381 1.235 . S
C384 O390 1.287 . S
C384 O391 1.255 . S
O385 Fe374 1.976 . S
O385 C392 1.287 . S
O386 Fe375 1.996 . S
O386 C392 1.255 . S
O387 Fe377 1.976 . S
O387 C382 1.287 . S
O388 Fe374 1.996 . S
O388 C382 1.255 . S
C389 O393 1.295 . S
C389 O394 1.235 . S
O390 Fe375 1.976 . S
O390 C384 1.287 . S
O391 Fe377 1.996 . S
O391 C384 1.255 . S
C392 O385 1.287 . S
C392 O386 1.255 . S
O393 Fe375 2.002 . S
O393 C389 1.295 . S
O394 Fe377 1.997 . S
O394 C389 1.235 . S
C395 O378 1.295 . S
C395 O379 1.235 . S
H396 C408 0.930 . S
H397 C410 0.930 . S
H398 C411 0.930 . S
H399 C415 0.959 1_556 S
H400 C415 0.959 . S
H401 C415 0.961 . S
H402 C416 0.960 . S
H403 C416 0.961 . S
H404 C416 0.959 . S
H405 C419 0.929 . S
H406 C420 0.931 . S
H407 C422 0.930 . S
C408 H396 0.930 . S
C408 C409 1.399 . S
C408 C413 1.399 . S
C409 C408 1.399 . S
C409 C410 1.376 . S
C410 H397 0.930 . S
C410 C409 1.376 . S
C410 C411 1.388 1_554 S
C411 H398 0.930 . S
C411 C410 1.388 1_556 S
C411 C412 1.390 . S
C412 C411 1.390 . S
C412 C413 1.394 1_556 S
C412 C418 1.465 . S
C413 C408 1.399 . S
C413 C412 1.394 1_554 S
C413 C414 1.516 . S
C414 C413 1.516 . S
C414 C415 1.502 . S
C414 C416 1.561 . S
C414 C417 1.526 1_554 S
C415 H399 0.959 1_554 S
C415 H400 0.959 . S
C415 H401 0.961 . S
C415 C414 1.502 . S
C416 H402 0.960 . S
C416 H403 0.961 . S
C416 H404 0.959 . S
C416 C414 1.561 . S
C417 C414 1.526 1_556 S
C417 C418 1.396 . S
C417 C422 1.390 . S
C418 C412 1.465 . S
C418 C417 1.396 . S
C418 C419 1.399 . S
C419 H405 0.929 . S
C419 C418 1.399 . S
C419 C420 1.385 . S
C420 H406 0.931 . S
C420 C419 1.385 . S
C420 C421 1.389 . S
C421 C420 1.389 . S
C421 C422 1.387 . S
C422 H407 0.930 . S
C422 C417 1.390 . S
C422 C421 1.387 . S
H423 C435 0.930 . S
H424 C437 0.930 . S
H425 C438 0.930 . S
H426 C442 0.959 . S
H427 C442 0.959 . S
H428 C442 0.961 . S
H429 C443 0.960 . S
H430 C443 0.961 . S
H431 C443 0.959 . S
H432 C446 0.929 . S
H433 C447 0.931 . S
H434 C449 0.930 . S
C435 H423 0.930 . S
C435 C436 1.399 1_554 S
C435 C440 1.399 . S
C436 C435 1.399 1_556 S
C436 C437 1.376 . S
C437 H424 0.930 . S
C437 C436 1.376 . S
C437 C438 1.388 . S
C438 H425 0.930 . S
C438 C437 1.388 . S
C438 C439 1.390 . S
C439 C438 1.390 . S
C439 C440 1.394 1_556 S
C439 C445 1.465 . S
C440 C435 1.399 . S
C440 C439 1.394 1_554 S
C440 C441 1.516 . S
C441 C440 1.516 . S
C441 C442 1.502 . S
C441 C443 1.561 . S
C441 C444 1.526 . S
C442 H426 0.959 . S
C442 H427 0.959 . S
C442 H428 0.961 . S
C442 C441 1.502 . S
C443 H429 0.960 . S
C443 H430 0.961 . S
C443 H431 0.959 . S
C443 C441 1.561 . S
C444 C441 1.526 . S
C444 C445 1.396 1_554 S
C444 C449 1.390 . S
C445 C439 1.465 . S
C445 C444 1.396 1_556 S
C445 C446 1.399 . S
C446 H432 0.929 . S
C446 C445 1.399 . S
C446 C447 1.385 . S
C447 H433 0.931 . S
C447 C446 1.385 . S
C447 C448 1.389 1_556 S
C448 C447 1.389 1_554 S
C448 C449 1.387 . S
C449 H434 0.930 . S
C449 C444 1.390 . S
C449 C448 1.387 . S
H450 C462 0.930 . S
H451 C464 0.930 . S
H452 C465 0.930 . S
H453 C469 0.968 . S
H454 C469 0.959 . S
H455 C469 0.961 . S
H456 C470 0.960 . S
H457 C470 0.961 . S
H458 C470 0.959 . S
H459 C473 0.929 . S
H460 C474 0.931 . S
H461 C476 0.930 1_554 S
C462 H450 0.930 . S
C462 C463 1.399 . S
C462 C467 1.399 . S
C463 C462 1.399 . S
C463 C464 1.376 1_554 S
C464 H451 0.930 . S
C464 C463 1.376 1_556 S
C464 C465 1.388 . S
C465 H452 0.930 . S
C465 C464 1.388 . S
C465 C466 1.390 . S
C466 C465 1.390 . S
C466 C467 1.394 1_556 S
C466 C472 1.465 . S
C467 C462 1.399 . S
C467 C466 1.394 1_554 S
C467 C468 1.516 . S
C468 C467 1.516 . S
C468 C469 1.502 . S
C468 C470 1.561 . S
C468 C471 1.526 . S
C469 H453 0.968 . S
C469 H454 0.959 . S
C469 H455 0.961 . S
C469 C468 1.502 . S
C470 H456 0.960 . S
C470 H457 0.961 . S
C470 H458 0.959 . S
C470 C468 1.561 . S
C471 C468 1.526 . S
C471 C472 1.396 1_554 S
C471 C476 1.390 1_554 S
C472 C466 1.465 . S
C472 C471 1.396 1_556 S
C472 C473 1.399 . S
C473 H459 0.929 . S
C473 C472 1.399 . S
C473 C474 1.385 . S
C474 H460 0.931 . S
C474 C473 1.385 . S
C474 C475 1.389 . S
C475 C474 1.389 . S
C475 C476 1.387 . S
C476 H461 0.930 1_556 S
C476 C471 1.390 1_556 S
C476 C475 1.387 . S
H477 C489 0.930 . S
H478 C491 0.930 . S
H479 C492 0.930 . S
H480 C496 0.959 . S
H481 C496 0.959 . S
H482 C496 0.961 . S
H483 C497 0.960 . S
H484 C497 0.961 . S
H485 C497 0.959 . S
H486 C500 0.929 . S
H487 C501 0.931 . S
H488 C503 0.930 . S
C489 H477 0.930 . S
C489 C490 1.399 . S
C489 C494 1.399 . S
C490 C489 1.399 . S
C490 C491 1.376 . S
C491 H478 0.930 . S
C491 C490 1.376 . S
C491 C492 1.388 . S
C492 H479 0.930 . S
C492 C491 1.388 . S
C492 C493 1.390 . S
C493 C492 1.390 . S
C493 C494 1.394 . S
C493 C499 1.465 . S
C494 C489 1.399 . S
C494 C493 1.394 . S
C494 C495 1.516 . S
C495 C494 1.516 . S
C495 C496 1.502 . S
C495 C497 1.561 . S
C495 C498 1.526 . S
C496 H480 0.959 . S
C496 H481 0.959 . S
C496 H482 0.961 . S
C496 C495 1.502 . S
C497 H483 0.960 . S
C497 H484 0.961 . S
C497 H485 0.959 . S
C497 C495 1.561 . S
C498 C495 1.526 . S
C498 C499 1.396 . S
C498 C503 1.390 . S
C499 C493 1.465 . S
C499 C498 1.396 . S
C499 C500 1.399 . S
C500 H486 0.929 . S
C500 C499 1.399 . S
C500 C501 1.385 . S
C501 H487 0.931 . S
C501 C500 1.385 . S
C501 C502 1.389 . S
C502 C501 1.389 . S
C502 C503 1.387 . S
C503 H488 0.930 . S
C503 C498 1.390 . S
C503 C502 1.387 . S
H504 C516 0.930 . S
H505 C518 0.930 . S
H506 C519 0.930 . S
H507 C523 0.959 . S
H508 C523 0.959 . S
H509 C523 0.961 . S
H510 C524 0.960 . S
H511 C524 0.961 . S
H512 C524 0.959 . S
H513 C527 0.929 . S
H514 C528 0.931 . S
H515 C530 0.930 . S
C516 H504 0.930 . S
C516 C517 1.399 . S
C516 C521 1.399 . S
C517 C516 1.399 . S
C517 C518 1.376 . S
C518 H505 0.930 . S
C518 C517 1.376 . S
C518 C519 1.388 . S
C519 H506 0.930 . S
C519 C518 1.388 . S
C519 C520 1.390 . S
C520 C519 1.390 . S
C520 C521 1.394 . S
C520 C526 1.465 . S
C521 C516 1.399 . S
C521 C520 1.394 . S
C521 C522 1.516 . S
C522 C521 1.516 . S
C522 C523 1.502 . S
C522 C524 1.561 . S
C522 C525 1.526 . S
C523 H507 0.959 . S
C523 H508 0.959 . S
C523 H509 0.961 . S
C523 C522 1.502 . S
C524 H510 0.960 . S
C524 H511 0.961 . S
C524 H512 0.959 . S
C524 C522 1.561 . S
C525 C522 1.526 . S
C525 C526 1.396 . S
C525 C530 1.390 . S
C526 C520 1.465 . S
C526 C525 1.396 . S
C526 C527 1.399 . S
C527 H513 0.929 . S
C527 C526 1.399 . S
C527 C528 1.385 . S
C528 H514 0.931 . S
C528 C527 1.385 . S
C528 C529 1.389 . S
C529 C528 1.389 . S
C529 C530 1.387 . S
C530 H515 0.930 . S
C530 C525 1.390 . S
C530 C529 1.387 . S
H531 C543 0.930 . S
H532 C545 0.930 . S
H533 C546 0.930 . S
H534 C550 0.959 . S
H535 C550 0.959 . S
H536 C550 0.961 . S
H537 C551 0.960 . S
H538 C551 0.961 . S
H539 C551 0.959 . S
H540 C554 0.929 . S
H541 C555 0.931 . S
H542 C557 0.930 . S
C543 H531 0.930 . S
C543 C544 1.399 . S
C543 C548 1.399 . S
C544 C543 1.399 . S
C544 C545 1.376 . S
C545 H532 0.930 . S
C545 C544 1.376 . S
C545 C546 1.388 . S
C546 H533 0.930 . S
C546 C545 1.388 . S
C546 C547 1.390 . S
C547 C546 1.390 . S
C547 C548 1.394 . S
C547 C553 1.465 . S
C548 C543 1.399 . S
C548 C547 1.394 . S
C548 C549 1.516 . S
C549 C548 1.516 . S
C549 C550 1.502 . S
C549 C551 1.561 . S
C549 C552 1.526 . S
C550 H534 0.959 . S
C550 H535 0.959 . S
C550 H536 0.961 . S
C550 C549 1.502 . S
C551 H537 0.960 . S
C551 H538 0.961 . S
C551 H539 0.959 . S
C551 C549 1.561 . S
C552 C549 1.526 . S
C552 C553 1.396 . S
C552 C557 1.390 . S
C553 C547 1.465 . S
C553 C552 1.396 . S
C553 C554 1.399 . S
C554 H540 0.929 . S
C554 C553 1.399 . S
C554 C555 1.385 . S
C555 H541 0.931 . S
C555 C554 1.385 . S
C555 C556 1.389 . S
C556 C555 1.389 . S
C556 C557 1.387 . S
C557 H542 0.930 . S
C557 C552 1.390 . S
C557 C556 1.387 . S
H558 C570 0.930 . S
H559 C572 0.930 . S
H560 C573 0.930 . S
H561 C577 0.959 . S
H562 C577 0.959 . S
H563 C577 0.961 . S
H564 C578 0.960 . S
H565 C578 0.961 . S
H566 C578 0.959 . S
H567 C581 0.929 . S
H568 C582 0.931 . S
H569 C584 0.930 . S
C570 H558 0.930 . S
C570 C571 1.399 . S
C570 C575 1.399 . S
C571 C570 1.399 . S
C571 C572 1.376 . S
C572 H559 0.930 . S
C572 C571 1.376 . S
C572 C573 1.388 . S
C573 H560 0.930 . S
C573 C572 1.388 . S
C573 C574 1.390 . S
C574 C573 1.390 . S
C574 C575 1.394 . S
C574 C580 1.465 . S
C575 C570 1.399 . S
C575 C574 1.394 . S
C575 C576 1.516 . S
C576 C575 1.516 . S
C576 C577 1.502 . S
C576 C578 1.561 . S
C576 C579 1.526 . S
C577 H561 0.959 . S
C577 H562 0.959 . S
C577 H563 0.961 . S
C577 C576 1.502 . S
C578 H564 0.960 . S
C578 H565 0.961 . S
C578 H566 0.959 . S
C578 C576 1.561 . S
C579 C576 1.526 . S
C579 C580 1.396 . S
C579 C584 1.390 . S
C580 C574 1.465 . S
C580 C579 1.396 . S
C580 C581 1.399 . S
C581 H567 0.929 . S
C581 C580 1.399 . S
C581 C582 1.385 . S
C582 H568 0.931 . S
C582 C581 1.385 . S
C582 C583 1.389 . S
C583 C582 1.389 . S
C583 C584 1.387 . S
C584 H569 0.930 . S
C584 C579 1.390 . S
C584 C583 1.387 . S
H585 C597 0.930 . S
H586 C599 0.930 . S
H587 C600 0.930 . S
H588 C604 0.959 . S
H589 C604 0.959 . S
H590 C604 0.961 . S
H591 C605 0.960 . S
H592 C605 0.961 . S
H593 C605 0.959 . S
H594 C608 0.929 . S
H595 C609 0.931 . S
H596 C611 0.930 . S
C597 H585 0.930 . S
C597 C598 1.399 . S
C597 C602 1.399 . S
C598 C597 1.399 . S
C598 C599 1.376 . S
C599 H586 0.930 . S
C599 C598 1.376 . S
C599 C600 1.388 . S
C600 H587 0.930 . S
C600 C599 1.388 . S
C600 C601 1.390 . S
C601 C600 1.390 . S
C601 C602 1.394 . S
C601 C607 1.465 . S
C602 C597 1.399 . S
C602 C601 1.394 . S
C602 C603 1.516 . S
C603 C602 1.516 . S
C603 C604 1.502 . S
C603 C605 1.561 . S
C603 C606 1.526 . S
C604 H588 0.959 . S
C604 H589 0.959 . S
C604 H590 0.961 . S
C604 C603 1.502 . S
C605 H591 0.960 . S
C605 H592 0.961 . S
C605 H593 0.959 . S
C605 C603 1.561 . S
C606 C603 1.526 . S
C606 C607 1.396 . S
C606 C611 1.390 . S
C607 C601 1.465 . S
C607 C606 1.396 . S
C607 C608 1.399 . S
C608 H594 0.929 . S
C608 C607 1.399 . S
C608 C609 1.385 . S
C609 H595 0.931 . S
C609 C608 1.385 . S
C609 C610 1.389 . S
C610 C609 1.389 . S
C610 C611 1.387 . S
C611 H596 0.930 . S
C611 C606 1.390 . S
C611 C610 1.387 . S
H612 C624 0.930 . S
H613 C626 0.930 . S
H614 C627 0.930 . S
H615 C631 0.959 . S
H616 C631 0.959 . S
H617 C631 0.961 . S
H618 C632 0.960 . S
H619 C632 0.961 . S
H620 C632 0.959 . S
H621 C635 0.929 . S
H622 C636 0.931 . S
H623 C638 0.930 . S
C624 H612 0.930 . S
C624 C625 1.399 . S
C624 C629 1.399 . S
C625 C624 1.399 . S
C625 C626 1.376 . S
C626 H613 0.930 . S
C626 C625 1.376 . S
C626 C627 1.388 . S
C627 H614 0.930 . S
C627 C626 1.388 . S
C627 C628 1.390 . S
C628 C627 1.390 . S
C628 C629 1.394 . S
C628 C634 1.465 . S
C629 C624 1.399 . S
C629 C628 1.394 . S
C629 C630 1.516 . S
C630 C629 1.516 . S
C630 C631 1.502 . S
C630 C632 1.561 . S
C630 C633 1.526 . S
C631 H615 0.959 . S
C631 H616 0.959 . S
C631 H617 0.961 . S
C631 C630 1.502 . S
C632 H618 0.960 . S
C632 H619 0.961 . S
C632 H620 0.959 . S
C632 C630 1.561 . S
C633 C630 1.526 . S
C633 C634 1.396 . S
C633 C638 1.390 . S
C634 C628 1.465 . S
C634 C633 1.396 . S
C634 C635 1.399 . S
C635 H621 0.929 . S
C635 C634 1.399 . S
C635 C636 1.385 . S
C636 H622 0.931 . S
C636 C635 1.385 . S
C636 C637 1.389 . S
C637 C636 1.389 . S
C637 C638 1.387 . S
C638 H623 0.930 . S
C638 C633 1.390 . S
C638 C637 1.387 . S
H639 C651 0.930 . S
H640 C653 0.930 . S
H641 C654 0.930 . S
H642 C658 0.959 . S
H643 C658 0.959 . S
H644 C658 0.961 . S
H645 C659 0.960 . S
H646 C659 0.961 . S
H647 C659 0.959 . S
H648 C662 0.929 . S
H649 C663 0.931 . S
H650 C665 0.930 . S
C651 H639 0.930 . S
C651 C652 1.399 . S
C651 C656 1.399 . S
C652 C651 1.399 . S
C652 C653 1.376 . S
C653 H640 0.930 . S
C653 C652 1.376 . S
C653 C654 1.388 . S
C654 H641 0.930 . S
C654 C653 1.388 . S
C654 C655 1.390 . S
C655 C654 1.390 . S
C655 C656 1.394 . S
C655 C661 1.465 . S
C656 C651 1.399 . S
C656 C655 1.394 . S
C656 C657 1.516 . S
C657 C656 1.516 . S
C657 C658 1.502 . S
C657 C659 1.561 . S
C657 C660 1.526 . S
C658 H642 0.959 . S
C658 H643 0.959 . S
C658 H644 0.961 . S
C658 C657 1.502 . S
C659 H645 0.960 . S
C659 H646 0.961 . S
C659 H647 0.959 . S
C659 C657 1.561 . S
C660 C657 1.526 . S
C660 C661 1.396 . S
C660 C665 1.390 . S
C661 C655 1.465 . S
C661 C660 1.396 . S
C661 C662 1.399 . S
C662 H648 0.929 . S
C662 C661 1.399 . S
C662 C663 1.385 . S
C663 H649 0.931 . S
C663 C662 1.385 . S
C663 C664 1.389 . S
C664 C663 1.389 . S
C664 C665 1.387 . S
C665 H650 0.930 . S
C665 C660 1.390 . S
C665 C664 1.387 . S
H666 C678 0.930 . S
H667 C680 0.930 . S
H668 C681 0.930 . S
H669 C685 0.959 . S
H670 C685 0.959 . S
H671 C685 0.961 . S
H672 C686 0.960 . S
H673 C686 0.961 . S
H674 C686 0.959 . S
H675 C689 0.929 . S
H676 C690 0.931 . S
H677 C692 0.930 . S
C678 H666 0.930 . S
C678 C679 1.399 . S
C678 C683 1.399 . S
C679 C678 1.399 . S
C679 C680 1.376 . S
C680 H667 0.930 . S
C680 C679 1.376 . S
C680 C681 1.388 . S
C681 H668 0.930 . S
C681 C680 1.388 . S
C681 C682 1.390 . S
C682 C681 1.390 . S
C682 C683 1.394 . S
C682 C688 1.465 . S
C683 C678 1.399 . S
C683 C682 1.394 . S
C683 C684 1.516 . S
C684 C683 1.516 . S
C684 C685 1.502 . S
C684 C686 1.561 . S
C684 C687 1.526 . S
C685 H669 0.959 . S
C685 H670 0.959 . S
C685 H671 0.961 . S
C685 C684 1.502 . S
C686 H672 0.960 . S
C686 H673 0.961 . S
C686 H674 0.959 . S
C686 C684 1.561 . S
C687 C684 1.526 . S
C687 C688 1.396 . S
C687 C692 1.390 . S
C688 C682 1.465 . S
C688 C687 1.396 . S
C688 C689 1.399 . S
C689 H675 0.929 . S
C689 C688 1.399 . S
C689 C690 1.385 . S
C690 H676 0.931 . S
C690 C689 1.385 . S
C690 C691 1.389 . S
C691 C690 1.389 . S
C691 C692 1.387 . S
C692 H677 0.930 . S
C692 C687 1.390 . S
C692 C691 1.387 . S
H693 C705 0.930 . S
H694 C707 0.930 . S
H695 C708 0.930 . S
H696 C712 0.959 . S
H697 C712 0.959 . S
H698 C712 0.961 . S
H699 C713 0.960 . S
H700 C713 0.961 . S
H701 C713 0.959 . S
H702 C716 0.929 . S
H703 C717 0.931 . S
H704 C719 0.930 . S
C705 H693 0.930 . S
C705 C706 1.399 . S
C705 C710 1.399 . S
C706 C705 1.399 . S
C706 C707 1.376 . S
C707 H694 0.930 . S
C707 C706 1.376 . S
C707 C708 1.388 . S
C708 H695 0.930 . S
C708 C707 1.388 . S
C708 C709 1.390 . S
C709 C708 1.390 . S
C709 C710 1.394 . S
C709 C715 1.465 . S
C710 C705 1.399 . S
C710 C709 1.394 . S
C710 C711 1.516 . S
C711 C710 1.516 . S
C711 C712 1.502 . S
C711 C713 1.561 . S
C711 C714 1.526 . S
C712 H696 0.959 . S
C712 H697 0.959 . S
C712 H698 0.961 . S
C712 C711 1.502 . S
C713 H699 0.960 . S
C713 H700 0.961 . S
C713 H701 0.959 . S
C713 C711 1.561 . S
C714 C711 1.526 . S
C714 C715 1.396 . S
C714 C719 1.390 . S
C715 C709 1.465 . S
C715 C714 1.396 . S
C715 C716 1.399 . S
C716 H702 0.929 . S
C716 C715 1.399 . S
C716 C717 1.385 . S
C717 H703 0.931 . S
C717 C716 1.385 . S
C717 C718 1.389 . S
C718 C717 1.389 . S
C718 C719 1.387 . S
C719 H704 0.930 . S
C719 C714 1.390 . S
C719 C718 1.387 . S
H720 C732 0.930 . S
H721 C734 0.930 . S
H722 C735 0.930 . S
H723 C739 0.959 . S
H724 C739 0.959 . S
H725 C739 0.961 . S
H726 C740 0.968 . S
H727 C740 0.961 . S
H728 C740 0.959 . S
H729 C743 0.929 . S
H730 C744 0.931 . S
H731 C746 0.930 . S
C732 H720 0.930 . S
C732 C733 1.399 . S
C732 C737 1.399 . S
C733 C732 1.399 . S
C733 C734 1.376 . S
C734 H721 0.930 . S
C734 C733 1.376 . S
C734 C735 1.388 . S
C735 H722 0.930 . S
C735 C734 1.388 . S
C735 C736 1.390 . S
C736 C735 1.390 . S
C736 C737 1.394 . S
C736 C742 1.465 . S
C737 C732 1.399 . S
C737 C736 1.394 . S
C737 C738 1.516 . S
C738 C737 1.516 . S
C738 C739 1.502 . S
C738 C740 1.561 . S
C738 C741 1.526 . S
C739 H723 0.959 . S
C739 H724 0.959 . S
C739 H725 0.961 . S
C739 C738 1.502 . S
C740 H726 0.968 . S
C740 H727 0.961 . S
C740 H728 0.959 . S
C740 C738 1.561 . S
C741 C738 1.526 . S
C741 C742 1.396 . S
C741 C746 1.390 . S
C742 C736 1.465 . S
C742 C741 1.396 . S
C742 C743 1.399 . S
C743 H729 0.929 . S
C743 C742 1.399 . S
C743 C744 1.385 . S
C744 H730 0.931 . S
C744 C743 1.385 . S
C744 C745 1.389 . S
C745 C744 1.389 . S
C745 C746 1.387 . S
C746 H731 0.930 . S
C746 C741 1.390 . S
C746 C745 1.387 . S
H747 C759 0.930 . S
H748 C761 0.930 . S
H749 C762 0.930 . S
H750 C766 0.959 . S
H751 C766 0.959 . S
H752 C766 0.961 . S
H753 C767 0.960 . S
H754 C767 0.961 . S
H755 C767 0.959 . S
H756 C770 0.929 . S
H757 C771 0.931 . S
H758 C773 0.930 . S
C759 H747 0.930 . S
C759 C760 1.399 . S
C759 C764 1.399 1_545 S
C760 C759 1.399 . S
C760 C761 1.376 . S
C761 H748 0.930 . S
C761 C760 1.376 . S
C761 C762 1.388 . S
C762 H749 0.930 . S
C762 C761 1.388 . S
C762 C763 1.390 1_545 S
C763 C762 1.390 1_565 S
C763 C764 1.394 . S
C763 C769 1.465 . S
C764 C759 1.399 1_565 S
C764 C763 1.394 . S
C764 C765 1.516 . S
C765 C764 1.516 . S
C765 C766 1.502 . S
C765 C767 1.561 . S
C765 C768 1.526 . S
C766 H750 0.959 . S
C766 H751 0.959 . S
C766 H752 0.961 . S
C766 C765 1.502 . S
C767 H753 0.960 . S
C767 H754 0.961 . S
C767 H755 0.959 . S
C767 C765 1.561 . S
C768 C765 1.526 . S
C768 C769 1.396 . S
C768 C773 1.390 . S
C769 C763 1.465 . S
C769 C768 1.396 . S
C769 C770 1.399 . S
C770 H756 0.929 . S
C770 C769 1.399 . S
C770 C771 1.385 . S
C771 H757 0.931 . S
C771 C770 1.385 . S
C771 C772 1.389 . S
C772 C771 1.389 . S
C772 C773 1.387 . S
C773 H758 0.930 . S
C773 C768 1.390 . S
C773 C772 1.387 . S
H774 C786 0.930 . S
H775 C788 0.930 . S
H776 C789 0.930 . S
H777 C793 0.959 . S
H778 C793 0.959 . S
H779 C793 0.961 . S
H780 C794 0.960 . S
H781 C794 0.961 . S
H782 C794 0.959 . S
H783 C797 0.929 . S
H784 C798 0.931 . S
H785 C800 0.930 . S
C786 H774 0.930 . S
C786 C787 1.399 . S
C786 C791 1.399 1_655 S
C787 C786 1.399 . S
C787 C788 1.376 . S
C788 H775 0.930 . S
C788 C787 1.376 . S
C788 C789 1.388 . S
C789 H776 0.930 . S
C789 C788 1.388 . S
C789 C790 1.390 1_655 S
C790 C789 1.390 1_455 S
C790 C791 1.394 . S
C790 C796 1.465 . S
C791 C786 1.399 1_455 S
C791 C790 1.394 . S
C791 C792 1.516 . S
C792 C791 1.516 . S
C792 C793 1.502 . S
C792 C794 1.561 . S
C792 C795 1.526 . S
C793 H777 0.959 . S
C793 H778 0.959 . S
C793 H779 0.961 . S
C793 C792 1.502 . S
C794 H780 0.960 . S
C794 H781 0.961 . S
C794 H782 0.959 . S
C794 C792 1.561 . S
C795 C792 1.526 . S
C795 C796 1.396 . S
C795 C800 1.390 . S
C796 C790 1.465 . S
C796 C795 1.396 . S
C796 C797 1.399 . S
C797 H783 0.929 . S
C797 C796 1.399 . S
C797 C798 1.385 . S
C798 H784 0.931 . S
C798 C797 1.385 . S
C798 C799 1.389 . S
C799 C798 1.389 . S
C799 C800 1.387 . S
C800 H785 0.930 . S
C800 C795 1.390 . S
C800 C799 1.387 . S
H801 C813 0.930 . S
H802 C815 0.930 . S
H803 C816 0.930 . S
H804 C820 0.959 . S
H805 C820 0.959 . S
H806 C820 0.961 . S
H807 C821 0.960 . S
H808 C821 0.961 . S
H809 C821 0.959 . S
H810 C824 0.929 . S
H811 C825 0.931 . S
H812 C827 0.930 . S
C813 H801 0.930 . S
C813 C814 1.399 . S
C813 C818 1.399 . S
C814 C813 1.399 . S
C814 C815 1.376 . S
C815 H802 0.930 . S
C815 C814 1.376 . S
C815 C816 1.388 . S
C816 H803 0.930 . S
C816 C815 1.388 . S
C816 C817 1.390 . S
C817 C816 1.390 . S
C817 C818 1.394 . S
C817 C823 1.465 . S
C818 C813 1.399 . S
C818 C817 1.394 . S
C818 C819 1.516 . S
C819 C818 1.516 . S
C819 C820 1.502 . S
C819 C821 1.561 . S
C819 C822 1.526 . S
C820 H804 0.959 . S
C820 H805 0.959 . S
C820 H806 0.961 . S
C820 C819 1.502 . S
C821 H807 0.960 . S
C821 H808 0.961 . S
C821 H809 0.959 . S
C821 C819 1.561 . S
C822 C819 1.526 . S
C822 C823 1.396 . S
C822 C827 1.390 . S
C823 C817 1.465 . S
C823 C822 1.396 . S
C823 C824 1.399 . S
C824 H810 0.929 . S
C824 C823 1.399 . S
C824 C825 1.385 . S
C825 H811 0.931 . S
C825 C824 1.385 . S
C825 C826 1.389 . S
C826 C825 1.389 . S
C826 C827 1.387 . S
C827 H812 0.930 . S
C827 C822 1.390 . S
C827 C826 1.387 . S
H828 C840 0.930 . S
H829 C842 0.930 . S
H830 C843 0.930 . S
H831 C847 0.959 . S
H832 C847 0.959 . S
H833 C847 0.961 . S
H834 C848 0.960 . S
H835 C848 0.961 . S
H836 C848 0.959 . S
H837 C851 0.929 . S
H838 C852 0.931 . S
H839 C854 0.930 . S
C840 H828 0.930 . S
C840 C841 1.399 . S
C840 C845 1.399 . S
C841 C840 1.399 . S
C841 C842 1.376 . S
C842 H829 0.930 . S
C842 C841 1.376 . S
C842 C843 1.388 . S
C843 H830 0.930 . S
C843 C842 1.388 . S
C843 C844 1.390 . S
C844 C843 1.390 . S
C844 C845 1.394 . S
C844 C850 1.465 . S
C845 C840 1.399 . S
C845 C844 1.394 . S
C845 C846 1.516 . S
C846 C845 1.516 . S
C846 C847 1.502 . S
C846 C848 1.561 . S
C846 C849 1.526 . S
C847 H831 0.959 . S
C847 H832 0.959 . S
C847 H833 0.961 . S
C847 C846 1.502 . S
C848 H834 0.960 . S
C848 H835 0.961 . S
C848 H836 0.959 . S
C848 C846 1.561 . S
C849 C846 1.526 . S
C849 C850 1.396 . S
C849 C854 1.390 1_565 S
C850 C844 1.465 . S
C850 C849 1.396 . S
C850 C851 1.399 1_565 S
C851 H837 0.929 . S
C851 C850 1.399 1_545 S
C851 C852 1.385 . S
C852 H838 0.931 . S
C852 C851 1.385 . S
C852 C853 1.389 . S
C853 C852 1.389 . S
C853 C854 1.387 . S
C854 H839 0.930 . S
C854 C849 1.390 1_545 S
C854 C853 1.387 . S
H855 C867 0.930 . S
H856 C869 0.930 . S
H857 C870 0.930 . S
H858 C874 0.959 . S
H859 C874 0.938 1_655 S
H860 C874 0.961 . S
H861 C875 0.960 . S
H862 C875 0.961 . S
H863 C875 0.959 . S
H864 C878 0.929 . S
H865 C879 0.931 . S
H866 C881 0.930 . S
C867 H855 0.930 . S
C867 C868 1.399 . S
C867 C872 1.399 . S
C868 C867 1.399 . S
C868 C869 1.376 . S
C869 H856 0.930 . S
C869 C868 1.376 . S
C869 C870 1.388 . S
C870 H857 0.930 . S
C870 C869 1.388 . S
C870 C871 1.390 . S
C871 C870 1.390 . S
C871 C872 1.394 . S
C871 C877 1.465 . S
C872 C867 1.399 . S
C872 C871 1.394 . S
C872 C873 1.516 . S
C873 C872 1.516 . S
C873 C874 1.502 . S
C873 C875 1.561 . S
C873 C876 1.526 . S
C874 H858 0.959 . S
C874 H859 0.938 1_455 S
C874 H860 0.961 . S
C874 C873 1.502 . S
C875 H861 0.960 . S
C875 H862 0.961 . S
C875 H863 0.959 . S
C875 C873 1.561 . S
C876 C873 1.526 . S
C876 C877 1.396 . S
C876 C881 1.390 1_455 S
C877 C871 1.465 . S
C877 C876 1.396 . S
C877 C878 1.399 . S
C878 H864 0.929 . S
C878 C877 1.399 . S
C878 C879 1.385 1_455 S
C879 H865 0.931 . S
C879 C878 1.385 1_655 S
C879 C880 1.389 . S
C880 C879 1.389 . S
C880 C881 1.387 . S
C881 H866 0.930 . S
C881 C876 1.390 1_655 S
C881 C880 1.387 . S
H882 C894 0.930 . S
H883 C896 0.930 . S
H884 C897 0.930 . S
H885 C901 0.959 . S
H886 C901 0.959 . S
H887 C901 0.961 . S
H888 C902 0.960 . S
H889 C902 0.961 . S
H890 C902 0.959 . S
H891 C905 0.929 . S
H892 C906 0.931 . S
H893 C908 0.930 . S
C894 H882 0.930 . S
C894 C895 1.399 . S
C894 C899 1.399 . S
C895 C894 1.399 . S
C895 C896 1.376 . S
C896 H883 0.930 . S
C896 C895 1.376 . S
C896 C897 1.388 . S
C897 H884 0.930 . S
C897 C896 1.388 . S
C897 C898 1.390 . S
C898 C897 1.390 . S
C898 C899 1.394 . S
C898 C904 1.465 . S
C899 C894 1.399 . S
C899 C898 1.394 . S
C899 C900 1.516 . S
C900 C899 1.516 . S
C900 C901 1.502 . S
C900 C902 1.561 . S
C900 C903 1.526 . S
C901 H885 0.959 . S
C901 H886 0.959 . S
C901 H887 0.961 . S
C901 C900 1.502 . S
C902 H888 0.960 . S
C902 H889 0.961 . S
C902 H890 0.959 . S
C902 C900 1.561 . S
C903 C900 1.526 . S
C903 C904 1.396 . S
C903 C908 1.390 . S
C904 C898 1.465 . S
C904 C903 1.396 . S
C904 C905 1.399 . S
C905 H891 0.929 . S
C905 C904 1.399 . S
C905 C906 1.385 . S
C906 H892 0.931 . S
C906 C905 1.385 . S
C906 C907 1.389 . S
C907 C906 1.389 . S
C907 C908 1.387 . S
C908 H893 0.930 . S
C908 C903 1.390 . S
C908 C907 1.387 . S
H909 C921 0.930 . S
H910 C923 0.930 . S
H911 C924 0.930 . S
H912 C928 0.959 . S
H913 C928 0.959 . S
H914 C928 0.961 . S
H915 C929 0.960 . S
H916 C929 0.961 . S
H917 C929 0.959 . S
H918 C932 0.929 . S
H919 C933 0.931 . S
H920 C935 0.930 . S
C921 H909 0.930 . S
C921 C922 1.399 . S
C921 C926 1.399 . S
C922 C921 1.399 . S
C922 C923 1.376 . S
C923 H910 0.930 . S
C923 C922 1.376 . S
C923 C924 1.388 . S
C924 H911 0.930 . S
C924 C923 1.388 . S
C924 C925 1.390 . S
C925 C924 1.390 . S
C925 C926 1.394 . S
C925 C931 1.465 . S
C926 C921 1.399 . S
C926 C925 1.394 . S
C926 C927 1.516 . S
C927 C926 1.516 . S
C927 C928 1.502 . S
C927 C929 1.561 . S
C927 C930 1.526 . S
C928 H912 0.959 . S
C928 H913 0.959 . S
C928 H914 0.961 . S
C928 C927 1.502 . S
C929 H915 0.960 . S
C929 H916 0.961 . S
C929 H917 0.959 . S
C929 C927 1.561 . S
C930 C927 1.526 . S
C930 C931 1.396 . S
C930 C935 1.390 . S
C931 C925 1.465 . S
C931 C930 1.396 . S
C931 C932 1.399 . S
C932 H918 0.929 . S
C932 C931 1.399 . S
C932 C933 1.385 . S
C933 H919 0.931 . S
C933 C932 1.385 . S
C933 C934 1.389 . S
C934 C933 1.389 . S
C934 C935 1.387 . S
C935 H920 0.930 . S
C935 C930 1.390 . S
C935 C934 1.387 . S
H936 C948 0.930 . S
H937 C950 0.930 . S
H938 C951 0.930 . S
H939 C955 0.959 . S
H940 C955 0.959 . S
H941 C955 0.961 . S
H942 C956 0.960 . S
H943 C956 0.961 . S
H944 C956 0.959 . S
H945 C959 0.929 . S
H946 C960 0.931 . S
H947 C962 0.930 . S
C948 H936 0.930 . S
C948 C949 1.399 . S
C948 C953 1.399 . S
C949 C948 1.399 . S
C949 C950 1.376 . S
C950 H937 0.930 . S
C950 C949 1.376 . S
C950 C951 1.388 . S
C951 H938 0.930 . S
C951 C950 1.388 . S
C951 C952 1.390 . S
C952 C951 1.390 . S
C952 C953 1.394 . S
C952 C958 1.465 . S
C953 C948 1.399 . S
C953 C952 1.394 . S
C953 C954 1.516 . S
C954 C953 1.516 . S
C954 C955 1.502 . S
C954 C956 1.561 . S
C954 C957 1.526 . S
C955 H939 0.959 . S
C955 H940 0.959 . S
C955 H941 0.961 . S
C955 C954 1.502 . S
C956 H942 0.960 . S
C956 H943 0.961 . S
C956 H944 0.959 . S
C956 C954 1.561 . S
C957 C954 1.526 . S
C957 C958 1.396 . S
C957 C962 1.390 . S
C958 C952 1.465 . S
C958 C957 1.396 . S
C958 C959 1.399 . S
C959 H945 0.929 . S
C959 C958 1.399 . S
C959 C960 1.385 . S
C960 H946 0.931 . S
C960 C959 1.385 . S
C960 C961 1.389 . S
C961 C960 1.389 . S
C961 C962 1.387 . S
C962 H947 0.930 . S
C962 C957 1.390 . S
C962 C961 1.387 . S
H963 C975 0.930 . S
H964 C977 0.930 . S
H965 C978 0.930 . S
H966 C982 0.959 . S
H967 C982 0.959 . S
H968 C982 0.961 . S
H969 C983 0.960 . S
H970 C983 0.961 . S
H971 C983 0.959 . S
H972 C986 0.929 . S
H973 C987 0.931 . S
H974 C989 0.930 . S
C975 H963 0.930 . S
C975 C976 1.399 . S
C975 C980 1.399 . S
C976 C975 1.399 . S
C976 C977 1.376 . S
C977 H964 0.930 . S
C977 C976 1.376 . S
C977 C978 1.388 . S
C978 H965 0.930 . S
C978 C977 1.388 . S
C978 C979 1.390 . S
C979 C978 1.390 . S
C979 C980 1.394 . S
C979 C985 1.465 . S
C980 C975 1.399 . S
C980 C979 1.394 . S
C980 C981 1.516 . S
C981 C980 1.516 . S
C981 C982 1.502 . S
C981 C983 1.561 . S
C981 C984 1.526 . S
C982 H966 0.959 . S
C982 H967 0.959 . S
C982 H968 0.961 . S
C982 C981 1.502 . S
C983 H969 0.960 . S
C983 H970 0.961 . S
C983 H971 0.959 . S
C983 C981 1.561 . S
C984 C981 1.526 . S
C984 C985 1.396 . S
C984 C989 1.390 . S
C985 C979 1.465 . S
C985 C984 1.396 . S
C985 C986 1.399 . S
C986 H972 0.929 . S
C986 C985 1.399 . S
C986 C987 1.385 . S
C987 H973 0.931 . S
C987 C986 1.385 . S
C987 C988 1.389 . S
C988 C987 1.389 . S
C988 C989 1.387 . S
C989 H974 0.930 . S
C989 C984 1.390 . S
C989 C988 1.387 . S
H990 C1002 0.930 . S
H991 C1004 0.930 . S
H992 C1005 0.930 . S
H993 C1009 0.959 . S
H994 C1009 0.959 . S
H995 C1009 0.961 . S
H996 C1010 0.960 . S
H997 C1010 0.961 . S
H998 C1010 0.959 . S
H999 C1013 0.929 . S
H1000 C1014 0.931 . S
H1001 C1016 0.930 . S
C1002 H990 0.930 . S
C1002 C1003 1.399 . S
C1002 C1007 1.399 . S
C1003 C1002 1.399 . S
C1003 C1004 1.376 . S
C1004 H991 0.930 . S
C1004 C1003 1.376 . S
C1004 C1005 1.388 . S
C1005 H992 0.930 . S
C1005 C1004 1.388 . S
C1005 C1006 1.390 . S
C1006 C1005 1.390 . S
C1006 C1007 1.394 . S
C1006 C1012 1.465 . S
C1007 C1002 1.399 . S
C1007 C1006 1.394 . S
C1007 C1008 1.516 . S
C1008 C1007 1.516 . S
C1008 C1009 1.502 . S
C1008 C1010 1.561 . S
C1008 C1011 1.526 . S
C1009 H993 0.959 . S
C1009 H994 0.959 . S
C1009 H995 0.961 . S
C1009 C1008 1.502 . S
C1010 H996 0.960 . S
C1010 H997 0.961 . S
C1010 H998 0.959 . S
C1010 C1008 1.561 . S
C1011 C1008 1.526 . S
C1011 C1012 1.396 . S
C1011 C1016 1.390 . S
C1012 C1006 1.465 . S
C1012 C1011 1.396 . S
C1012 C1013 1.399 . S
C1013 H999 0.929 . S
C1013 C1012 1.399 . S
C1013 C1014 1.385 . S
C1014 H1000 0.931 . S
C1014 C1013 1.385 . S
C1014 C1015 1.389 . S
C1015 C1014 1.389 . S
C1015 C1016 1.387 . S
C1016 H1001 0.930 . S
C1016 C1011 1.390 . S
C1016 C1015 1.387 . S
H1017 C1029 0.930 . S
H1018 C1031 0.930 . S
H1019 C1032 0.930 . S
H1020 C1036 0.959 . S
H1021 C1036 0.959 . S
H1022 C1036 0.961 . S
H1023 C1037 0.960 . S
H1024 C1037 0.961 . S
H1025 C1037 0.959 . S
H1026 C1040 0.929 . S
H1027 C1041 0.931 . S
H1028 C1043 0.930 . S
C1029 H1017 0.930 . S
C1029 C1030 1.399 . S
C1029 C1034 1.399 . S
C1030 C1029 1.399 . S
C1030 C1031 1.376 . S
C1031 H1018 0.930 . S
C1031 C1030 1.376 . S
C1031 C1032 1.388 . S
C1032 H1019 0.930 . S
C1032 C1031 1.388 . S
C1032 C1033 1.390 . S
C1033 C1032 1.390 . S
C1033 C1034 1.394 . S
C1033 C1039 1.465 . S
C1034 C1029 1.399 . S
C1034 C1033 1.394 . S
C1034 C1035 1.516 . S
C1035 C1034 1.516 . S
C1035 C1036 1.502 . S
C1035 C1037 1.561 . S
C1035 C1038 1.526 . S
C1036 H1020 0.959 . S
C1036 H1021 0.959 . S
C1036 H1022 0.961 . S
C1036 C1035 1.502 . S
C1037 H1023 0.960 . S
C1037 H1024 0.961 . S
C1037 H1025 0.959 . S
C1037 C1035 1.561 . S
C1038 C1035 1.526 . S
C1038 C1039 1.396 . S
C1038 C1043 1.390 . S
C1039 C1033 1.465 . S
C1039 C1038 1.396 . S
C1039 C1040 1.399 . S
C1040 H1026 0.929 . S
C1040 C1039 1.399 . S
C1040 C1041 1.385 . S
C1041 H1027 0.931 . S
C1041 C1040 1.385 . S
C1041 C1042 1.389 . S
C1042 C1041 1.389 . S
C1042 C1043 1.387 . S
C1043 H1028 0.930 . S
C1043 C1038 1.390 . S
C1043 C1042 1.387 . S
H1044 C1056 0.930 . S
H1045 C1058 0.930 . S
H1046 C1059 0.930 . S
H1047 C1063 0.959 . S
H1048 C1063 0.959 . S
H1049 C1063 0.961 . S
H1050 C1064 0.960 . S
H1051 C1064 0.961 . S
H1052 C1064 0.959 . S
H1053 C1067 0.929 . S
H1054 C1068 0.931 . S
H1055 C1070 0.930 . S
C1056 H1044 0.930 . S
C1056 C1057 1.399 . S
C1056 C1061 1.399 . S
C1057 C1056 1.399 . S
C1057 C1058 1.376 . S
C1058 H1045 0.930 . S
C1058 C1057 1.376 . S
C1058 C1059 1.388 . S
C1059 H1046 0.930 . S
C1059 C1058 1.388 . S
C1059 C1060 1.390 . S
C1060 C1059 1.390 . S
C1060 C1061 1.394 . S
C1060 C1066 1.465 . S
C1061 C1056 1.399 . S
C1061 C1060 1.394 . S
C1061 C1062 1.516 . S
C1062 C1061 1.516 . S
C1062 C1063 1.502 . S
C1062 C1064 1.561 . S
C1062 C1065 1.526 . S
C1063 H1047 0.959 . S
C1063 H1048 0.959 . S
C1063 H1049 0.961 . S
C1063 C1062 1.502 . S
C1064 H1050 0.960 . S
C1064 H1051 0.961 . S
C1064 H1052 0.959 . S
C1064 C1062 1.561 . S
C1065 C1062 1.526 . S
C1065 C1066 1.396 . S
C1065 C1070 1.390 . S
C1066 C1060 1.465 . S
C1066 C1065 1.396 . S
C1066 C1067 1.399 . S
C1067 H1053 0.929 . S
C1067 C1066 1.399 . S
C1067 C1068 1.385 . S
C1068 H1054 0.931 . S
C1068 C1067 1.385 . S
C1068 C1069 1.389 . S
C1069 C1068 1.389 . S
C1069 C1070 1.387 . S
C1070 H1055 0.930 . S
C1070 C1065 1.390 . S
C1070 C1069 1.387 . S
H1071 C1083 0.930 . S
H1072 C1085 0.930 . S
H1073 C1086 0.930 . S
H1074 C1090 0.959 . S
H1075 C1090 0.959 . S
H1076 C1090 0.961 . S
H1077 C1091 0.960 . S
H1078 C1091 0.961 . S
H1079 C1091 0.959 . S
H1080 C1094 0.929 . S
H1081 C1095 0.931 . S
H1082 C1097 0.930 . S
C1083 H1071 0.930 . S
C1083 C1084 1.399 . S
C1083 C1088 1.399 . S
C1084 C1083 1.399 . S
C1084 C1085 1.376 . S
C1085 H1072 0.930 . S
C1085 C1084 1.376 . S
C1085 C1086 1.388 . S
C1086 H1073 0.930 . S
C1086 C1085 1.388 . S
C1086 C1087 1.390 . S
C1087 C1086 1.390 . S
C1087 C1088 1.394 . S
C1087 C1093 1.465 . S
C1088 C1083 1.399 . S
C1088 C1087 1.394 . S
C1088 C1089 1.516 . S
C1089 C1088 1.516 . S
C1089 C1090 1.502 . S
C1089 C1091 1.561 . S
C1089 C1092 1.526 . S
C1090 H1074 0.959 . S
C1090 H1075 0.959 . S
C1090 H1076 0.961 . S
C1090 C1089 1.502 . S
C1091 H1077 0.960 . S
C1091 H1078 0.961 . S
C1091 H1079 0.959 . S
C1091 C1089 1.561 . S
C1092 C1089 1.526 . S
C1092 C1093 1.396 . S
C1092 C1097 1.390 . S
C1093 C1087 1.465 . S
C1093 C1092 1.396 . S
C1093 C1094 1.399 . S
C1094 H1080 0.929 . S
C1094 C1093 1.399 . S
C1094 C1095 1.385 . S
C1095 H1081 0.931 . S
C1095 C1094 1.385 . S
C1095 C1096 1.389 . S
C1096 C1095 1.389 . S
C1096 C1097 1.387 . S
C1097 H1082 0.930 . S
C1097 C1092 1.390 . S
C1097 C1096 1.387 . S
H1098 C1110 0.930 . S
H1099 C1112 0.930 . S
H1100 C1113 0.930 . S
H1101 C1117 0.959 . S
H1102 C1117 0.959 . S
H1103 C1117 0.961 . S
H1104 C1118 0.960 . S
H1105 C1118 0.961 . S
H1106 C1118 0.959 . S
H1107 C1121 0.929 . S
H1108 C1122 0.931 . S
H1109 C1124 0.930 . S
C1110 H1098 0.930 . S
C1110 C1111 1.399 . S
C1110 C1115 1.399 . S
C1111 C1110 1.399 . S
C1111 C1112 1.376 . S
C1112 H1099 0.930 . S
C1112 C1111 1.376 . S
C1112 C1113 1.388 . S
C1113 H1100 0.930 . S
C1113 C1112 1.388 . S
C1113 C1114 1.390 . S
C1114 C1113 1.390 . S
C1114 C1115 1.394 . S
C1114 C1120 1.465 . S
C1115 C1110 1.399 . S
C1115 C1114 1.394 . S
C1115 C1116 1.516 . S
C1116 C1115 1.516 . S
C1116 C1117 1.502 . S
C1116 C1118 1.561 . S
C1116 C1119 1.526 . S
C1117 H1101 0.959 . S
C1117 H1102 0.959 . S
C1117 H1103 0.961 . S
C1117 C1116 1.502 . S
C1118 H1104 0.960 . S
C1118 H1105 0.961 . S
C1118 H1106 0.959 . S
C1118 C1116 1.561 . S
C1119 C1116 1.526 . S
C1119 C1120 1.396 . S
C1119 C1124 1.390 . S
C1120 C1114 1.465 . S
C1120 C1119 1.396 . S
C1120 C1121 1.399 . S
C1121 H1107 0.929 . S
C1121 C1120 1.399 . S
C1121 C1122 1.385 . S
C1122 H1108 0.931 . S
C1122 C1121 1.385 . S
C1122 C1123 1.389 . S
C1123 C1122 1.389 . S
C1123 C1124 1.387 . S
C1124 H1109 0.930 . S
C1124 C1119 1.390 . S
C1124 C1123 1.387 . S
H1125 C1137 0.930 1_556 S
H1126 C1139 0.930 . S
H1127 C1140 0.930 . S
H1128 C1144 0.959 . S
H1129 C1144 0.959 . S
H1130 C1144 0.961 . S
H1131 C1145 0.960 . S
H1132 C1145 0.961 . S
H1133 C1145 0.959 . S
H1134 C1148 0.929 . S
H1135 C1149 0.931 . S
H1136 C1151 0.930 . S
C1137 H1125 0.930 1_554 S
C1137 C1138 1.399 1_554 S
C1137 C1142 1.399 . S
C1138 C1137 1.399 1_556 S
C1138 C1139 1.376 . S
C1139 H1126 0.930 . S
C1139 C1138 1.376 . S
C1139 C1140 1.388 1_556 S
C1140 H1127 0.930 . S
C1140 C1139 1.388 1_554 S
C1140 C1141 1.390 . S
C1141 C1140 1.390 . S
C1141 C1142 1.394 . S
C1141 C1147 1.465 . S
C1142 C1137 1.399 . S
C1142 C1141 1.394 . S
C1142 C1143 1.516 . S
C1143 C1142 1.516 . S
C1143 C1144 1.502 . S
C1143 C1145 1.561 . S
C1143 C1146 1.526 . S
C1144 H1128 0.959 . S
C1144 H1129 0.959 . S
C1144 H1130 0.961 . S
C1144 C1143 1.502 . S
C1145 H1131 0.960 . S
C1145 H1132 0.961 . S
C1145 H1133 0.959 . S
C1145 C1143 1.561 . S
C1146 C1143 1.526 . S
C1146 C1147 1.396 . S
C1146 C1151 1.390 . S
C1147 C1141 1.465 . S
C1147 C1146 1.396 . S
C1147 C1148 1.399 . S
C1148 H1134 0.929 . S
C1148 C1147 1.399 . S
C1148 C1149 1.385 . S
C1149 H1135 0.931 . S
C1149 C1148 1.385 . S
C1149 C1150 1.389 . S
C1150 C1149 1.389 . S
C1150 C1151 1.387 . S
C1151 H1136 0.930 . S
C1151 C1146 1.390 . S
C1151 C1150 1.387 . S
H1152 C1164 0.926 1_556 S
H1153 C1166 0.930 . S
H1154 C1167 0.930 . S
H1155 C1171 0.959 . S
H1156 C1171 0.959 . S
H1157 C1171 0.961 . S
H1158 C1172 0.960 . S
H1159 C1172 0.961 . S
H1160 C1172 0.959 . S
H1161 C1175 0.929 . S
H1162 C1176 0.931 . S
H1163 C1178 0.930 . S
C1164 H1152 0.926 1_554 S
C1164 C1165 1.393 1_554 S
C1164 C1169 1.409 . S
C1165 C1164 1.393 1_556 S
C1165 C1166 1.376 . S
C1166 H1153 0.930 . S
C1166 C1165 1.376 . S
C1166 C1167 1.388 1_556 S
C1167 H1154 0.930 . S
C1167 C1166 1.388 1_554 S
C1167 C1168 1.390 . S
C1168 C1167 1.390 . S
C1168 C1169 1.394 . S
C1168 C1174 1.465 . S
C1169 C1164 1.409 . S
C1169 C1168 1.394 . S
C1169 C1170 1.516 . S
C1170 C1169 1.516 . S
C1170 C1171 1.502 . S
C1170 C1172 1.561 . S
C1170 C1173 1.526 . S
C1171 H1155 0.959 . S
C1171 H1156 0.959 . S
C1171 H1157 0.961 . S
C1171 C1170 1.502 . S
C1172 H1158 0.960 . S
C1172 H1159 0.961 . S
C1172 H1160 0.959 . S
C1172 C1170 1.561 . S
C1173 C1170 1.526 . S
C1173 C1174 1.396 . S
C1173 C1178 1.390 . S
C1174 C1168 1.465 . S
C1174 C1173 1.396 . S
C1174 C1175 1.399 . S
C1175 H1161 0.929 . S
C1175 C1174 1.399 . S
C1175 C1176 1.385 . S
C1176 H1162 0.931 . S
C1176 C1175 1.385 . S
C1176 C1177 1.389 . S
C1177 C1176 1.389 . S
C1177 C1178 1.387 . S
C1178 H1163 0.930 . S
C1178 C1173 1.390 . S
C1178 C1177 1.387 . S
H1179 C1191 0.934 . S
H1180 C1193 0.930 . S
H1181 C1194 0.930 . S
H1182 C1198 0.959 . S
H1183 C1198 0.959 . S
H1184 C1198 0.961 . S
H1185 C1199 0.960 . S
H1186 C1199 0.961 . S
H1187 C1199 0.959 . S
H1188 C1202 0.929 . S
H1189 C1203 0.931 . S
H1190 C1205 0.930 . S
C1191 H1179 0.934 . S
C1191 C1192 1.405 . S
C1191 C1196 1.389 1_556 S
C1192 C1191 1.405 . S
C1192 C1193 1.376 . S
C1193 H1180 0.930 . S
C1193 C1192 1.376 . S
C1193 C1194 1.388 1_556 S
C1194 H1181 0.930 . S
C1194 C1193 1.388 1_554 S
C1194 C1195 1.390 . S
C1195 C1194 1.390 . S
C1195 C1196 1.394 . S
C1195 C1201 1.465 . S
C1196 C1191 1.389 1_554 S
C1196 C1195 1.394 . S
C1196 C1197 1.516 . S
C1197 C1196 1.516 . S
C1197 C1198 1.502 . S
C1197 C1199 1.561 . S
C1197 C1200 1.526 . S
C1198 H1182 0.959 . S
C1198 H1183 0.959 . S
C1198 H1184 0.961 . S
C1198 C1197 1.502 . S
C1199 H1185 0.960 . S
C1199 H1186 0.961 . S
C1199 H1187 0.959 . S
C1199 C1197 1.561 . S
C1200 C1197 1.526 . S
C1200 C1201 1.396 . S
C1200 C1205 1.390 . S
C1201 C1195 1.465 . S
C1201 C1200 1.396 . S
C1201 C1202 1.399 . S
C1202 H1188 0.929 . S
C1202 C1201 1.399 . S
C1202 C1203 1.385 . S
C1203 H1189 0.931 . S
C1203 C1202 1.385 . S
C1203 C1204 1.389 . S
C1204 C1203 1.389 . S
C1204 C1205 1.387 . S
C1205 H1190 0.930 . S
C1205 C1200 1.390 . S
C1205 C1204 1.387 . S
H1206 C1218 0.930 . S
H1207 C1220 0.930 . S
H1208 C1221 0.930 . S
H1209 C1225 0.959 . S
H1210 C1225 0.959 . S
H1211 C1225 0.961 . S
H1212 C1226 0.960 . S
H1213 C1226 0.961 . S
H1214 C1226 0.959 . S
H1215 C1229 0.929 . S
H1216 C1230 0.931 . S
H1217 C1232 0.930 . S
C1218 H1206 0.930 . S
C1218 C1219 1.399 . S
C1218 C1223 1.399 . S
C1219 C1218 1.399 . S
C1219 C1220 1.376 . S
C1220 H1207 0.930 . S
C1220 C1219 1.376 . S
C1220 C1221 1.388 . S
C1221 H1208 0.930 . S
C1221 C1220 1.388 . S
C1221 C1222 1.390 . S
C1222 C1221 1.390 . S
C1222 C1223 1.394 . S
C1222 C1228 1.465 . S
C1223 C1218 1.399 . S
C1223 C1222 1.394 . S
C1223 C1224 1.516 . S
C1224 C1223 1.516 . S
C1224 C1225 1.502 . S
C1224 C1226 1.561 . S
C1224 C1227 1.526 . S
C1225 H1209 0.959 . S
C1225 H1210 0.959 . S
C1225 H1211 0.961 . S
C1225 C1224 1.502 . S
C1226 H1212 0.960 . S
C1226 H1213 0.961 . S
C1226 H1214 0.959 . S
C1226 C1224 1.561 . S
C1227 C1224 1.526 . S
C1227 C1228 1.396 . S
C1227 C1232 1.390 1_556 S
C1228 C1222 1.465 . S
C1228 C1227 1.396 . S
C1228 C1229 1.399 . S
C1229 H1215 0.929 . S
C1229 C1228 1.399 . S
C1229 C1230 1.385 1_556 S
C1230 H1216 0.931 . S
C1230 C1229 1.385 1_554 S
C1230 C1231 1.389 . S
C1231 C1230 1.389 . S
C1231 C1232 1.387 . S
C1232 H1217 0.930 . S
C1232 C1227 1.390 1_554 S
C1232 C1231 1.387 . S
H1233 C1245 0.930 . S
H1234 C1247 0.930 . S
H1235 C1248 0.930 . S
H1236 C1252 0.959 . S
H1237 C1252 0.959 . S
H1238 C1252 0.961 . S
H1239 C1253 0.960 . S
H1240 C1253 0.961 . S
H1241 C1253 0.959 . S
H1242 C1256 0.929 . S
H1243 C1257 0.931 . S
H1244 C1259 0.930 . S
C1245 H1233 0.930 . S
C1245 C1246 1.399 . S
C1245 C1250 1.399 . S
C1246 C1245 1.399 . S
C1246 C1247 1.376 . S
C1247 H1234 0.930 . S
C1247 C1246 1.376 . S
C1247 C1248 1.388 . S
C1248 H1235 0.930 . S
C1248 C1247 1.388 . S
C1248 C1249 1.390 . S
C1249 C1248 1.390 . S
C1249 C1250 1.394 . S
C1249 C1255 1.465 . S
C1250 C1245 1.399 . S
C1250 C1249 1.394 . S
C1250 C1251 1.516 . S
C1251 C1250 1.516 . S
C1251 C1252 1.502 . S
C1251 C1253 1.561 . S
C1251 C1254 1.526 . S
C1252 H1236 0.959 . S
C1252 H1237 0.959 . S
C1252 H1238 0.961 . S
C1252 C1251 1.502 . S
C1253 H1239 0.960 . S
C1253 H1240 0.961 . S
C1253 H1241 0.959 . S
C1253 C1251 1.561 . S
C1254 C1251 1.526 . S
C1254 C1255 1.396 . S
C1254 C1259 1.390 1_556 S
C1255 C1249 1.465 . S
C1255 C1254 1.396 . S
C1255 C1256 1.399 . S
C1256 H1242 0.929 . S
C1256 C1255 1.399 . S
C1256 C1257 1.385 1_556 S
C1257 H1243 0.931 . S
C1257 C1256 1.385 1_554 S
C1257 C1258 1.389 . S
C1258 C1257 1.389 . S
C1258 C1259 1.387 . S
C1259 H1244 0.930 . S
C1259 C1254 1.390 1_554 S
C1259 C1258 1.387 . S
H1260 C1272 0.930 . S
H1261 C1274 0.930 . S
H1262 C1275 0.930 . S
H1263 C1279 0.959 . S
H1264 C1279 0.959 . S
H1265 C1279 0.961 . S
H1266 C1280 0.960 . S
H1267 C1280 0.961 . S
H1268 C1280 0.959 . S
H1269 C1283 0.929 . S
H1270 C1284 0.931 . S
H1271 C1286 0.930 . S
C1272 H1260 0.930 . S
C1272 C1273 1.399 . S
C1272 C1277 1.399 . S
C1273 C1272 1.399 . S
C1273 C1274 1.376 . S
C1274 H1261 0.930 . S
C1274 C1273 1.376 . S
C1274 C1275 1.388 . S
C1275 H1262 0.930 . S
C1275 C1274 1.388 . S
C1275 C1276 1.390 . S
C1276 C1275 1.390 . S
C1276 C1277 1.394 . S
C1276 C1282 1.465 . S
C1277 C1272 1.399 . S
C1277 C1276 1.394 . S
C1277 C1278 1.516 . S
C1278 C1277 1.516 . S
C1278 C1279 1.502 . S
C1278 C1280 1.561 . S
C1278 C1281 1.526 . S
C1279 H1263 0.959 . S
C1279 H1264 0.959 . S
C1279 H1265 0.961 . S
C1279 C1278 1.502 . S
C1280 H1266 0.960 . S
C1280 H1267 0.961 . S
C1280 H1268 0.959 . S
C1280 C1278 1.561 . S
C1281 C1278 1.526 . S
C1281 C1282 1.396 . S
C1281 C1286 1.390 1_556 S
C1282 C1276 1.465 . S
C1282 C1281 1.396 . S
C1282 C1283 1.399 . S
C1283 H1269 0.929 . S
C1283 C1282 1.399 . S
C1283 C1284 1.385 1_556 S
C1284 H1270 0.931 . S
C1284 C1283 1.385 1_554 S
C1284 C1285 1.389 . S
C1285 C1284 1.389 . S
C1285 C1286 1.387 . S
C1286 H1271 0.930 . S
C1286 C1281 1.390 1_554 S
C1286 C1285 1.387 . S
H1287 C1299 0.930 . S
H1288 C1301 0.930 . S
H1289 C1302 0.930 . S
H1290 C1306 0.959 . S
H1291 C1306 0.959 . S
H1292 C1306 0.961 . S
H1293 C1307 0.960 . S
H1294 C1307 0.961 . S
H1295 C1307 0.959 . S
H1296 C1310 0.929 . S
H1297 C1311 0.931 . S
H1298 C1313 0.930 . S
C1299 H1287 0.930 . S
C1299 C1300 1.399 . S
C1299 C1304 1.399 . S
C1300 C1299 1.399 . S
C1300 C1301 1.376 . S
C1301 H1288 0.930 . S
C1301 C1300 1.376 . S
C1301 C1302 1.388 . S
C1302 H1289 0.930 . S
C1302 C1301 1.388 . S
C1302 C1303 1.390 . S
C1303 C1302 1.390 . S
C1303 C1304 1.394 . S
C1303 C1309 1.465 . S
C1304 C1299 1.399 . S
C1304 C1303 1.394 . S
C1304 C1305 1.516 . S
C1305 C1304 1.516 . S
C1305 C1306 1.502 . S
C1305 C1307 1.561 . S
C1305 C1308 1.526 . S
C1306 H1290 0.959 . S
C1306 H1291 0.959 . S
C1306 H1292 0.961 . S
C1306 C1305 1.502 . S
C1307 H1293 0.960 . S
C1307 H1294 0.961 . S
C1307 H1295 0.959 . S
C1307 C1305 1.561 . S
C1308 C1305 1.526 . S
C1308 C1309 1.396 . S
C1308 C1313 1.390 . S
C1309 C1303 1.465 . S
C1309 C1308 1.396 . S
C1309 C1310 1.399 . S
C1310 H1296 0.929 . S
C1310 C1309 1.399 . S
C1310 C1311 1.385 . S
C1311 H1297 0.931 . S
C1311 C1310 1.385 . S
C1311 C1312 1.389 . S
C1312 C1311 1.389 . S
C1312 C1313 1.387 . S
C1313 H1298 0.930 . S
C1313 C1308 1.390 . S
C1313 C1312 1.387 . S
H1314 C1326 0.930 . S
H1315 C1328 0.930 . S
H1316 C1329 0.930 . S
H1317 C1333 0.959 . S
H1318 C1333 0.959 . S
H1319 C1333 0.961 . S
H1320 C1334 0.960 . S
H1321 C1334 0.961 . S
H1322 C1334 0.959 . S
H1323 C1337 0.929 . S
H1324 C1338 0.931 . S
H1325 C1340 0.930 . S
C1326 H1314 0.930 . S
C1326 C1327 1.399 . S
C1326 C1331 1.399 . S
C1327 C1326 1.399 . S
C1327 C1328 1.376 . S
C1328 H1315 0.930 . S
C1328 C1327 1.376 . S
C1328 C1329 1.388 . S
C1329 H1316 0.930 . S
C1329 C1328 1.388 . S
C1329 C1330 1.390 . S
C1330 C1329 1.390 . S
C1330 C1331 1.394 . S
C1330 C1336 1.465 . S
C1331 C1326 1.399 . S
C1331 C1330 1.394 . S
C1331 C1332 1.516 . S
C1332 C1331 1.516 . S
C1332 C1333 1.502 . S
C1332 C1334 1.561 . S
C1332 C1335 1.526 . S
C1333 H1317 0.959 . S
C1333 H1318 0.959 . S
C1333 H1319 0.961 . S
C1333 C1332 1.502 . S
C1334 H1320 0.960 . S
C1334 H1321 0.961 . S
C1334 H1322 0.959 . S
C1334 C1332 1.561 . S
C1335 C1332 1.526 . S
C1335 C1336 1.396 . S
C1335 C1340 1.390 . S
C1336 C1330 1.465 . S
C1336 C1335 1.396 . S
C1336 C1337 1.399 . S
C1337 H1323 0.929 . S
C1337 C1336 1.399 . S
C1337 C1338 1.385 . S
C1338 H1324 0.931 . S
C1338 C1337 1.385 . S
C1338 C1339 1.389 . S
C1339 C1338 1.389 . S
C1339 C1340 1.387 . S
C1340 H1325 0.930 . S
C1340 C1335 1.390 . S
C1340 C1339 1.387 . S
H1341 C1353 0.930 . S
H1342 C1355 0.930 . S
H1343 C1356 0.930 . S
H1344 C1360 0.959 . S
H1345 C1360 0.959 . S
H1346 C1360 0.961 . S
H1347 C1361 0.960 . S
H1348 C1361 0.961 . S
H1349 C1361 0.959 . S
H1350 C1364 0.929 . S
H1351 C1365 0.931 . S
H1352 C1367 0.930 . S
C1353 H1341 0.930 . S
C1353 C1354 1.399 . S
C1353 C1358 1.399 . S
C1354 C1353 1.399 . S
C1354 C1355 1.376 . S
C1355 H1342 0.930 . S
C1355 C1354 1.376 . S
C1355 C1356 1.388 . S
C1356 H1343 0.930 . S
C1356 C1355 1.388 . S
C1356 C1357 1.390 . S
C1357 C1356 1.390 . S
C1357 C1358 1.394 . S
C1357 C1363 1.465 . S
C1358 C1353 1.399 . S
C1358 C1357 1.394 . S
C1358 C1359 1.516 . S
C1359 C1358 1.516 . S
C1359 C1360 1.502 . S
C1359 C1361 1.561 . S
C1359 C1362 1.526 . S
C1360 H1344 0.959 . S
C1360 H1345 0.959 . S
C1360 H1346 0.961 . S
C1360 C1359 1.502 . S
C1361 H1347 0.960 . S
C1361 H1348 0.961 . S
C1361 H1349 0.959 . S
C1361 C1359 1.561 . S
C1362 C1359 1.526 . S
C1362 C1363 1.396 . S
C1362 C1367 1.390 . S
C1363 C1357 1.465 . S
C1363 C1362 1.396 . S
C1363 C1364 1.399 . S
C1364 H1350 0.929 . S
C1364 C1363 1.399 . S
C1364 C1365 1.385 . S
C1365 H1351 0.931 . S
C1365 C1364 1.385 . S
C1365 C1366 1.389 . S
C1366 C1365 1.389 . S
C1366 C1367 1.387 . S
C1367 H1352 0.930 . S
C1367 C1362 1.390 . S
C1367 C1366 1.387 . S
H1368 C1380 0.930 . S
H1369 C1382 0.930 . S
H1370 C1383 0.930 . S
H1371 C1387 0.959 1_554 S
H1372 C1387 0.959 . S
H1373 C1387 0.961 . S
H1374 C1388 0.960 . S
H1375 C1388 0.961 . S
H1376 C1388 0.959 . S
H1377 C1391 0.929 . S
H1378 C1392 0.931 . S
H1379 C1394 0.930 . S
C1380 H1368 0.930 . S
C1380 C1381 1.399 . S
C1380 C1385 1.399 . S
C1381 C1380 1.399 . S
C1381 C1382 1.376 . S
C1382 H1369 0.930 . S
C1382 C1381 1.376 . S
C1382 C1383 1.388 . S
C1383 H1370 0.930 . S
C1383 C1382 1.388 . S
C1383 C1384 1.390 . S
C1384 C1383 1.390 . S
C1384 C1385 1.394 . S
C1384 C1390 1.465 . S
C1385 C1380 1.399 . S
C1385 C1384 1.394 . S
C1385 C1386 1.516 . S
C1386 C1385 1.516 . S
C1386 C1387 1.502 . S
C1386 C1388 1.561 . S
C1386 C1389 1.526 . S
C1387 H1371 0.959 1_556 S
C1387 H1372 0.959 . S
C1387 H1373 0.961 . S
C1387 C1386 1.502 . S
C1388 H1374 0.960 . S
C1388 H1375 0.961 . S
C1388 H1376 0.959 . S
C1388 C1386 1.561 . S
C1389 C1386 1.526 . S
C1389 C1390 1.396 . S
C1389 C1394 1.390 . S
C1390 C1384 1.465 . S
C1390 C1389 1.396 . S
C1390 C1391 1.399 1_565 S
C1391 H1377 0.929 . S
C1391 C1390 1.399 1_545 S
C1391 C1392 1.385 . S
C1392 H1378 0.931 . S
C1392 C1391 1.385 . S
C1392 C1393 1.389 . S
C1393 C1392 1.389 . S
C1393 C1394 1.387 1_545 S
C1394 H1379 0.930 . S
C1394 C1389 1.390 . S
C1394 C1393 1.387 1_565 S
H1395 C1407 0.930 . S
H1396 C1409 0.930 . S
H1397 C1410 0.930 . S
H1398 C1414 0.959 . S
H1399 C1414 0.959 . S
H1400 C1414 0.961 . S
H1401 C1415 0.960 . S
H1402 C1415 0.961 . S
H1403 C1415 0.959 . S
H1404 C1418 0.929 . S
H1405 C1419 0.931 . S
H1406 C1421 0.930 . S
C1407 H1395 0.930 . S
C1407 C1408 1.399 1_455 S
C1407 C1412 1.399 . S
C1408 C1407 1.399 1_655 S
C1408 C1409 1.376 . S
C1409 H1396 0.930 . S
C1409 C1408 1.376 . S
C1409 C1410 1.388 . S
C1410 H1397 0.930 . S
C1410 C1409 1.388 . S
C1410 C1411 1.390 1_655 S
C1411 C1410 1.390 1_455 S
C1411 C1412 1.394 . S
C1411 C1417 1.465 . S
C1412 C1407 1.399 . S
C1412 C1411 1.394 . S
C1412 C1413 1.516 . S
C1413 C1412 1.516 . S
C1413 C1414 1.502 . S
C1413 C1415 1.561 . S
C1413 C1416 1.526 . S
C1414 H1398 0.959 . S
C1414 H1399 0.959 . S
C1414 H1400 0.961 . S
C1414 C1413 1.502 . S
C1415 H1401 0.960 . S
C1415 H1402 0.961 . S
C1415 H1403 0.959 . S
C1415 C1413 1.561 . S
C1416 C1413 1.526 . S
C1416 C1417 1.396 . S
C1416 C1421 1.390 . S
C1417 C1411 1.465 . S
C1417 C1416 1.396 . S
C1417 C1418 1.399 . S
C1418 H1404 0.929 . S
C1418 C1417 1.399 . S
C1418 C1419 1.385 . S
C1419 H1405 0.931 . S
C1419 C1418 1.385 . S
C1419 C1420 1.389 . S
C1420 C1419 1.389 . S
C1420 C1421 1.387 . S
C1421 H1406 0.930 . S
C1421 C1416 1.390 . S
C1421 C1420 1.387 . S
H1422 C1434 0.930 . S
H1423 C1436 0.930 . S
H1424 C1437 0.937 . S
H1425 C1441 0.959 . S
H1426 C1441 0.959 . S
H1427 C1441 0.961 . S
H1428 C1442 0.960 . S
H1429 C1442 0.961 . S
H1430 C1442 0.959 . S
H1431 C1445 0.914 1_554 S
H1432 C1446 0.931 . S
H1433 C1448 0.930 . S
C1434 H1422 0.930 . S
C1434 C1435 1.399 . S
C1434 C1439 1.399 . S
C1435 C1434 1.399 . S
C1435 C1436 1.376 . S
C1436 H1423 0.930 . S
C1436 C1435 1.376 . S
C1436 C1437 1.388 . S
C1437 H1424 0.937 . S
C1437 C1436 1.388 . S
C1437 C1438 1.390 . S
C1438 C1437 1.390 . S
C1438 C1439 1.394 . S
C1438 C1444 1.465 . S
C1439 C1434 1.399 . S
C1439 C1438 1.394 . S
C1439 C1440 1.516 . S
C1440 C1439 1.516 . S
C1440 C1441 1.502 . S
C1440 C1442 1.561 . S
C1440 C1443 1.526 . S
C1441 H1425 0.959 . S
C1441 H1426 0.959 . S
C1441 H1427 0.961 . S
C1441 C1440 1.502 . S
C1442 H1428 0.960 . S
C1442 H1429 0.961 . S
C1442 H1430 0.959 . S
C1442 C1440 1.561 . S
C1443 C1440 1.526 . S
C1443 C1444 1.396 . S
C1443 C1448 1.390 . S
C1444 C1438 1.465 . S
C1444 C1443 1.396 . S
C1444 C1445 1.416 . S
C1445 H1431 0.914 1_556 S
C1445 C1444 1.416 . S
C1445 C1446 1.384 1_556 S
C1446 H1432 0.931 . S
C1446 C1445 1.384 1_554 S
C1446 C1447 1.389 1_554 S
C1447 C1446 1.389 1_556 S
C1447 C1448 1.387 . S
C1448 H1433 0.930 . S
C1448 C1443 1.390 . S
C1448 C1447 1.387 . S
H1449 C1461 0.930 . S
H1450 C1463 0.930 . S
H1451 C1464 0.930 . S
H1452 C1468 0.959 . S
H1453 C1468 0.959 . S
H1454 C1468 0.961 . S
H1455 C1469 0.960 1_655 S
H1456 C1469 0.961 . S
H1457 C1469 0.959 1_655 S
H1458 C1472 0.929 . S
H1459 C1473 0.931 . S
H1460 C1475 0.930 . S
C1461 H1449 0.930 . S
C1461 C1462 1.399 . S
C1461 C1466 1.399 1_655 S
C1462 C1461 1.399 . S
C1462 C1463 1.376 . S
C1463 H1450 0.930 . S
C1463 C1462 1.376 . S
C1463 C1464 1.388 1_655 S
C1464 H1451 0.930 . S
C1464 C1463 1.388 1_455 S
C1464 C1465 1.390 . S
C1465 C1464 1.390 . S
C1465 C1466 1.394 . S
C1465 C1471 1.465 . S
C1466 C1461 1.399 1_455 S
C1466 C1465 1.394 . S
C1466 C1467 1.516 . S
C1467 C1466 1.516 . S
C1467 C1468 1.502 . S
C1467 C1469 1.561 . S
C1467 C1470 1.526 . S
C1468 H1452 0.959 . S
C1468 H1453 0.959 . S
C1468 H1454 0.961 . S
C1468 C1467 1.502 . S
C1469 H1455 0.960 1_455 S
C1469 H1456 0.961 . S
C1469 H1457 0.959 1_455 S
C1469 C1467 1.561 . S
C1470 C1467 1.526 . S
C1470 C1471 1.396 . S
C1470 C1475 1.390 . S
C1471 C1465 1.465 . S
C1471 C1470 1.396 . S
C1471 C1472 1.399 . S
C1472 H1458 0.929 . S
C1472 C1471 1.399 . S
C1472 C1473 1.385 . S
C1473 H1459 0.931 . S
C1473 C1472 1.385 . S
C1473 C1474 1.389 . S
C1474 C1473 1.389 . S
C1474 C1475 1.387 . S
C1475 H1460 0.930 . S
C1475 C1470 1.390 . S
C1475 C1474 1.387 . S
H1476 C1488 0.930 . S
H1477 C1490 0.930 . S
H1478 C1491 0.930 . S
H1479 C1495 0.959 . S
H1480 C1495 0.959 . S
H1481 C1495 0.961 . S
H1482 C1496 0.960 . S
H1483 C1496 0.961 . S
H1484 C1496 0.959 . S
H1485 C1499 0.929 . S
H1486 C1500 0.931 . S
H1487 C1502 0.930 . S
C1488 H1476 0.930 . S
C1488 C1489 1.399 . S
C1488 C1493 1.399 . S
C1489 C1488 1.399 . S
C1489 C1490 1.376 . S
C1490 H1477 0.930 . S
C1490 C1489 1.376 . S
C1490 C1491 1.388 . S
C1491 H1478 0.930 . S
C1491 C1490 1.388 . S
C1491 C1492 1.390 . S
C1492 C1491 1.390 . S
C1492 C1493 1.394 . S
C1492 C1498 1.465 . S
C1493 C1488 1.399 . S
C1493 C1492 1.394 . S
C1493 C1494 1.516 . S
C1494 C1493 1.516 . S
C1494 C1495 1.502 . S
C1494 C1496 1.561 . S
C1494 C1497 1.526 . S
C1495 H1479 0.959 . S
C1495 H1480 0.959 . S
C1495 H1481 0.961 . S
C1495 C1494 1.502 . S
C1496 H1482 0.960 . S
C1496 H1483 0.961 . S
C1496 H1484 0.959 . S
C1496 C1494 1.561 . S
C1497 C1494 1.526 . S
C1497 C1498 1.396 . S
C1497 C1502 1.390 . S
C1498 C1492 1.465 . S
C1498 C1497 1.396 . S
C1498 C1499 1.399 . S
C1499 H1485 0.929 . S
C1499 C1498 1.399 . S
C1499 C1500 1.385 . S
C1500 H1486 0.931 . S
C1500 C1499 1.385 . S
C1500 C1501 1.389 . S
C1501 C1500 1.389 . S
C1501 C1502 1.387 . S
C1502 H1487 0.930 . S
C1502 C1497 1.390 . S
C1502 C1501 1.387 . S
H1503 C1515 0.930 . S
H1504 C1517 0.930 . S
H1505 C1518 0.930 . S
H1506 C1522 0.959 . S
H1507 C1522 0.959 . S
H1508 C1522 0.961 . S
H1509 C1523 0.960 . S
H1510 C1523 0.961 1_545 S
H1511 C1523 0.959 . S
H1512 C1526 0.929 . S
H1513 C1527 0.931 . S
H1514 C1529 0.930 . S
C1515 H1503 0.930 . S
C1515 C1516 1.399 . S
C1515 C1520 1.399 . S
C1516 C1515 1.399 . S
C1516 C1517 1.376 . S
C1517 H1504 0.930 . S
C1517 C1516 1.376 . S
C1517 C1518 1.388 . S
C1518 H1505 0.930 . S
C1518 C1517 1.388 . S
C1518 C1519 1.390 . S
C1519 C1518 1.390 . S
C1519 C1520 1.394 . S
C1519 C1525 1.465 . S
C1520 C1515 1.399 . S
C1520 C1519 1.394 . S
C1520 C1521 1.516 . S
C1521 C1520 1.516 . S
C1521 C1522 1.502 1_565 S
C1521 C1523 1.561 . S
C1521 C1524 1.526 . S
C1522 H1506 0.959 . S
C1522 H1507 0.959 . S
C1522 H1508 0.961 . S
C1522 C1521 1.502 1_545 S
C1523 H1509 0.960 . S
C1523 H1510 0.961 1_565 S
C1523 H1511 0.959 . S
C1523 C1521 1.561 . S
C1524 C1521 1.526 . S
C1524 C1525 1.396 . S
C1524 C1529 1.390 1_565 S
C1525 C1519 1.465 . S
C1525 C1524 1.396 . S
C1525 C1526 1.399 . S
C1526 H1512 0.929 . S
C1526 C1525 1.399 . S
C1526 C1527 1.385 . S
C1527 H1513 0.931 . S
C1527 C1526 1.385 . S
C1527 C1528 1.389 1_565 S
C1528 C1527 1.389 1_545 S
C1528 C1529 1.387 . S
C1529 H1514 0.930 . S
C1529 C1524 1.390 1_545 S
C1529 C1528 1.387 . S
H1530 C1542 0.930 . S
H1531 C1544 0.930 . S
H1532 C1545 0.930 . S
H1533 C1549 0.959 . S
H1534 C1549 0.959 . S
H1535 C1549 0.961 . S
H1536 C1550 0.960 . S
H1537 C1550 0.961 . S
H1538 C1550 0.959 . S
H1539 C1553 0.929 . S
H1540 C1554 0.931 . S
H1541 C1556 0.930 . S
C1542 H1530 0.930 . S
C1542 C1543 1.399 . S
C1542 C1547 1.399 . S
C1543 C1542 1.399 . S
C1543 C1544 1.376 . S
C1544 H1531 0.930 . S
C1544 C1543 1.376 . S
C1544 C1545 1.388 . S
C1545 H1532 0.930 . S
C1545 C1544 1.388 . S
C1545 C1546 1.390 . S
C1546 C1545 1.390 . S
C1546 C1547 1.394 . S
C1546 C1552 1.465 . S
C1547 C1542 1.399 . S
C1547 C1546 1.394 . S
C1547 C1548 1.516 . S
C1548 C1547 1.516 . S
C1548 C1549 1.502 . S
C1548 C1550 1.561 . S
C1548 C1551 1.526 . S
C1549 H1533 0.959 . S
C1549 H1534 0.959 . S
C1549 H1535 0.961 . S
C1549 C1548 1.502 . S
C1550 H1536 0.960 . S
C1550 H1537 0.961 . S
C1550 H1538 0.959 . S
C1550 C1548 1.561 . S
C1551 C1548 1.526 . S
C1551 C1552 1.396 . S
C1551 C1556 1.390 . S
C1552 C1546 1.465 . S
C1552 C1551 1.396 . S
C1552 C1553 1.399 . S
C1553 H1539 0.929 . S
C1553 C1552 1.399 . S
C1553 C1554 1.385 . S
C1554 H1540 0.931 . S
C1554 C1553 1.385 . S
C1554 C1555 1.389 . S
C1555 C1554 1.389 . S
C1555 C1556 1.387 . S
C1556 H1541 0.930 . S
C1556 C1551 1.390 . S
C1556 C1555 1.387 . S
H1557 C1569 0.930 . S
H1558 C1571 0.930 . S
H1559 C1572 0.930 . S
H1560 C1576 0.959 . S
H1561 C1576 0.959 . S
H1562 C1576 0.961 . S
H1563 C1577 0.960 . S
H1564 C1577 0.961 . S
H1565 C1577 0.959 . S
H1566 C1580 0.929 . S
H1567 C1581 0.931 . S
H1568 C1583 0.930 . S
C1569 H1557 0.930 . S
C1569 C1570 1.399 . S
C1569 C1574 1.399 . S
C1570 C1569 1.399 . S
C1570 C1571 1.376 . S
C1571 H1558 0.930 . S
C1571 C1570 1.376 . S
C1571 C1572 1.388 . S
C1572 H1559 0.930 . S
C1572 C1571 1.388 . S
C1572 C1573 1.390 . S
C1573 C1572 1.390 . S
C1573 C1574 1.394 . S
C1573 C1579 1.465 . S
C1574 C1569 1.399 . S
C1574 C1573 1.394 . S
C1574 C1575 1.516 . S
C1575 C1574 1.516 . S
C1575 C1576 1.502 . S
C1575 C1577 1.561 . S
C1575 C1578 1.526 . S
C1576 H1560 0.959 . S
C1576 H1561 0.959 . S
C1576 H1562 0.961 . S
C1576 C1575 1.502 . S
C1577 H1563 0.960 . S
C1577 H1564 0.961 . S
C1577 H1565 0.959 . S
C1577 C1575 1.561 . S
C1578 C1575 1.526 . S
C1578 C1579 1.396 . S
C1578 C1583 1.390 . S
C1579 C1573 1.465 . S
C1579 C1578 1.396 . S
C1579 C1580 1.399 . S
C1580 H1566 0.929 . S
C1580 C1579 1.399 . S
C1580 C1581 1.385 . S
C1581 H1567 0.931 . S
C1581 C1580 1.385 . S
C1581 C1582 1.389 . S
C1582 C1581 1.389 . S
C1582 C1583 1.387 . S
C1583 H1568 0.930 . S
C1583 C1578 1.390 . S
C1583 C1582 1.387 . S
H1584 C1596 0.930 . S
H1585 C1598 0.930 . S
H1586 C1599 0.930 . S
H1587 C1603 0.959 . S
H1588 C1603 0.959 . S
H1589 C1603 0.961 . S
H1590 C1604 0.960 . S
H1591 C1604 0.961 . S
H1592 C1604 0.959 . S
H1593 C1607 0.929 . S
H1594 C1608 0.931 . S
H1595 C1610 0.930 . S
C1596 H1584 0.930 . S
C1596 C1597 1.399 . S
C1596 C1601 1.399 . S
C1597 C1596 1.399 . S
C1597 C1598 1.376 . S
C1598 H1585 0.930 . S
C1598 C1597 1.376 . S
C1598 C1599 1.388 . S
C1599 H1586 0.930 . S
C1599 C1598 1.388 . S
C1599 C1600 1.390 . S
C1600 C1599 1.390 . S
C1600 C1601 1.394 . S
C1600 C1606 1.465 . S
C1601 C1596 1.399 . S
C1601 C1600 1.394 . S
C1601 C1602 1.516 . S
C1602 C1601 1.516 . S
C1602 C1603 1.502 . S
C1602 C1604 1.561 . S
C1602 C1605 1.526 . S
C1603 H1587 0.959 . S
C1603 H1588 0.959 . S
C1603 H1589 0.961 . S
C1603 C1602 1.502 . S
C1604 H1590 0.960 . S
C1604 H1591 0.961 . S
C1604 H1592 0.959 . S
C1604 C1602 1.561 . S
C1605 C1602 1.526 . S
C1605 C1606 1.396 . S
C1605 C1610 1.390 . S
C1606 C1600 1.465 . S
C1606 C1605 1.396 . S
C1606 C1607 1.399 . S
C1607 H1593 0.929 . S
C1607 C1606 1.399 . S
C1607 C1608 1.385 . S
C1608 H1594 0.931 . S
C1608 C1607 1.385 . S
C1608 C1609 1.389 . S
C1609 C1608 1.389 . S
C1609 C1610 1.387 . S
C1610 H1595 0.930 . S
C1610 C1605 1.390 . S
C1610 C1609 1.387 . S
H1611 C1623 0.930 . S
H1612 C1625 0.930 . S
H1613 C1626 0.930 . S
H1614 C1630 0.959 . S
H1615 C1630 0.959 . S
H1616 C1630 0.961 . S
H1617 C1631 0.960 . S
H1618 C1631 0.961 . S
H1619 C1631 0.959 . S
H1620 C1634 0.929 . S
H1621 C1635 0.931 . S
H1622 C1637 0.930 . S
C1623 H1611 0.930 . S
C1623 C1624 1.399 . S
C1623 C1628 1.399 . S
C1624 C1623 1.399 . S
C1624 C1625 1.376 . S
C1625 H1612 0.930 . S
C1625 C1624 1.376 . S
C1625 C1626 1.388 . S
C1626 H1613 0.930 . S
C1626 C1625 1.388 . S
C1626 C1627 1.390 . S
C1627 C1626 1.390 . S
C1627 C1628 1.394 . S
C1627 C1633 1.465 . S
C1628 C1623 1.399 . S
C1628 C1627 1.394 . S
C1628 C1629 1.516 . S
C1629 C1628 1.516 . S
C1629 C1630 1.502 . S
C1629 C1631 1.561 . S
C1629 C1632 1.526 . S
C1630 H1614 0.959 . S
C1630 H1615 0.959 . S
C1630 H1616 0.961 . S
C1630 C1629 1.502 . S
C1631 H1617 0.960 . S
C1631 H1618 0.961 . S
C1631 H1619 0.959 . S
C1631 C1629 1.561 . S
C1632 C1629 1.526 . S
C1632 C1633 1.396 . S
C1632 C1637 1.390 . S
C1633 C1627 1.465 . S
C1633 C1632 1.396 . S
C1633 C1634 1.399 . S
C1634 H1620 0.929 . S
C1634 C1633 1.399 . S
C1634 C1635 1.385 . S
C1635 H1621 0.931 . S
C1635 C1634 1.385 . S
C1635 C1636 1.389 . S
C1636 C1635 1.389 . S
C1636 C1637 1.387 . S
C1637 H1622 0.930 . S
C1637 C1632 1.390 . S
C1637 C1636 1.387 . S
H1638 C1650 0.930 . S
H1639 C1652 0.930 . S
H1640 C1653 0.930 . S
H1641 C1657 0.959 . S
H1642 C1657 0.959 . S
H1643 C1657 0.961 . S
H1644 C1658 0.960 . S
H1645 C1658 0.961 . S
H1646 C1658 0.959 . S
H1647 C1661 0.929 . S
H1648 C1662 0.931 . S
H1649 C1664 0.930 . S
C1650 H1638 0.930 . S
C1650 C1651 1.399 . S
C1650 C1655 1.399 . S
C1651 C1650 1.399 . S
C1651 C1652 1.376 . S
C1652 H1639 0.930 . S
C1652 C1651 1.376 . S
C1652 C1653 1.388 . S
C1653 H1640 0.930 . S
C1653 C1652 1.388 . S
C1653 C1654 1.390 . S
C1654 C1653 1.390 . S
C1654 C1655 1.394 . S
C1654 C1660 1.465 . S
C1655 C1650 1.399 . S
C1655 C1654 1.394 . S
C1655 C1656 1.516 . S
C1656 C1655 1.516 . S
C1656 C1657 1.502 . S
C1656 C1658 1.561 . S
C1656 C1659 1.526 . S
C1657 H1641 0.959 . S
C1657 H1642 0.959 . S
C1657 H1643 0.961 . S
C1657 C1656 1.502 . S
C1658 H1644 0.960 . S
C1658 H1645 0.961 . S
C1658 H1646 0.959 . S
C1658 C1656 1.561 . S
C1659 C1656 1.526 . S
C1659 C1660 1.396 . S
C1659 C1664 1.390 . S
C1660 C1654 1.465 . S
C1660 C1659 1.396 . S
C1660 C1661 1.399 . S
C1661 H1647 0.929 . S
C1661 C1660 1.399 . S
C1661 C1662 1.385 . S
C1662 H1648 0.931 . S
C1662 C1661 1.385 . S
C1662 C1663 1.389 . S
C1663 C1662 1.389 . S
C1663 C1664 1.387 . S
C1664 H1649 0.930 . S
C1664 C1659 1.390 . S
C1664 C1663 1.387 . S
H1665 C1677 0.930 . S
H1666 C1679 0.930 . S
H1667 C1680 0.930 . S
H1668 C1684 0.959 . S
H1669 C1684 0.959 . S
H1670 C1684 0.961 . S
H1671 C1685 0.960 . S
H1672 C1685 0.961 . S
H1673 C1685 0.959 . S
H1674 C1688 0.929 . S
H1675 C1689 0.931 . S
H1676 C1691 0.930 . S
C1677 H1665 0.930 . S
C1677 C1678 1.399 . S
C1677 C1682 1.399 . S
C1678 C1677 1.399 . S
C1678 C1679 1.376 . S
C1679 H1666 0.930 . S
C1679 C1678 1.376 . S
C1679 C1680 1.388 . S
C1680 H1667 0.930 . S
C1680 C1679 1.388 . S
C1680 C1681 1.390 . S
C1681 C1680 1.390 . S
C1681 C1682 1.394 . S
C1681 C1687 1.465 . S
C1682 C1677 1.399 . S
C1682 C1681 1.394 . S
C1682 C1683 1.516 . S
C1683 C1682 1.516 . S
C1683 C1684 1.502 . S
C1683 C1685 1.561 . S
C1683 C1686 1.526 . S
C1684 H1668 0.959 . S
C1684 H1669 0.959 . S
C1684 H1670 0.961 . S
C1684 C1683 1.502 . S
C1685 H1671 0.960 . S
C1685 H1672 0.961 . S
C1685 H1673 0.959 . S
C1685 C1683 1.561 . S
C1686 C1683 1.526 . S
C1686 C1687 1.396 . S
C1686 C1691 1.390 . S
C1687 C1681 1.465 . S
C1687 C1686 1.396 . S
C1687 C1688 1.399 . S
C1688 H1674 0.929 . S
C1688 C1687 1.399 . S
C1688 C1689 1.385 . S
C1689 H1675 0.931 . S
C1689 C1688 1.385 . S
C1689 C1690 1.389 . S
C1690 C1689 1.389 . S
C1690 C1691 1.387 . S
C1691 H1676 0.930 . S
C1691 C1686 1.390 . S
C1691 C1690 1.387 . S
H1692 C1704 0.930 . S
H1693 C1706 0.930 . S
H1694 C1707 0.930 . S
H1695 C1711 0.959 . S
H1696 C1711 0.959 . S
H1697 C1711 0.961 . S
H1698 C1712 0.960 . S
H1699 C1712 0.961 . S
H1700 C1712 0.959 . S
H1701 C1715 0.929 . S
H1702 C1716 0.931 . S
H1703 C1718 0.930 . S
C1704 H1692 0.930 . S
C1704 C1705 1.399 . S
C1704 C1709 1.399 . S
C1705 C1704 1.399 . S
C1705 C1706 1.376 . S
C1706 H1693 0.930 . S
C1706 C1705 1.376 . S
C1706 C1707 1.388 . S
C1707 H1694 0.930 . S
C1707 C1706 1.388 . S
C1707 C1708 1.390 . S
C1708 C1707 1.390 . S
C1708 C1709 1.394 . S
C1708 C1714 1.465 . S
C1709 C1704 1.399 . S
C1709 C1708 1.394 . S
C1709 C1710 1.516 . S
C1710 C1709 1.516 . S
C1710 C1711 1.502 . S
C1710 C1712 1.561 . S
C1710 C1713 1.526 . S
C1711 H1695 0.959 . S
C1711 H1696 0.959 . S
C1711 H1697 0.961 . S
C1711 C1710 1.502 . S
C1712 H1698 0.960 . S
C1712 H1699 0.961 . S
C1712 H1700 0.959 . S
C1712 C1710 1.561 . S
C1713 C1710 1.526 . S
C1713 C1714 1.396 . S
C1713 C1718 1.390 . S
C1714 C1708 1.465 . S
C1714 C1713 1.396 . S
C1714 C1715 1.399 . S
C1715 H1701 0.929 . S
C1715 C1714 1.399 . S
C1715 C1716 1.385 . S
C1716 H1702 0.931 . S
C1716 C1715 1.385 . S
C1716 C1717 1.389 . S
C1717 C1716 1.389 . S
C1717 C1718 1.387 . S
C1718 H1703 0.930 . S
C1718 C1713 1.390 . S
C1718 C1717 1.387 . S
H1719 C1731 0.930 . S
H1720 C1733 0.930 . S
H1721 C1734 0.930 . S
H1722 C1738 0.959 . S
H1723 C1738 0.959 . S
H1724 C1738 0.961 . S
H1725 C1739 0.960 . S
H1726 C1739 0.961 . S
H1727 C1739 0.959 . S
H1728 C1742 0.929 . S
H1729 C1743 0.931 . S
H1730 C1745 0.930 . S
C1731 H1719 0.930 . S
C1731 C1732 1.399 . S
C1731 C1736 1.399 . S
C1732 C1731 1.399 . S
C1732 C1733 1.376 . S
C1733 H1720 0.930 . S
C1733 C1732 1.376 . S
C1733 C1734 1.388 . S
C1734 H1721 0.930 . S
C1734 C1733 1.388 . S
C1734 C1735 1.390 . S
C1735 C1734 1.390 . S
C1735 C1736 1.394 . S
C1735 C1741 1.465 . S
C1736 C1731 1.399 . S
C1736 C1735 1.394 . S
C1736 C1737 1.516 . S
C1737 C1736 1.516 . S
C1737 C1738 1.502 . S
C1737 C1739 1.561 . S
C1737 C1740 1.526 . S
C1738 H1722 0.959 . S
C1738 H1723 0.959 . S
C1738 H1724 0.961 . S
C1738 C1737 1.502 . S
C1739 H1725 0.960 . S
C1739 H1726 0.961 . S
C1739 H1727 0.959 . S
C1739 C1737 1.561 . S
C1740 C1737 1.526 . S
C1740 C1741 1.396 . S
C1740 C1745 1.390 . S
C1741 C1735 1.465 . S
C1741 C1740 1.396 . S
C1741 C1742 1.399 . S
C1742 H1728 0.929 . S
C1742 C1741 1.399 . S
C1742 C1743 1.385 . S
C1743 H1729 0.931 . S
C1743 C1742 1.385 . S
C1743 C1744 1.389 . S
C1744 C1743 1.389 . S
C1744 C1745 1.387 . S
C1745 H1730 0.930 . S
C1745 C1740 1.390 . S
C1745 C1744 1.387 . S
H1746 C1758 0.930 . S
H1747 C1760 0.930 . S
H1748 C1761 0.930 . S
H1749 C1765 0.959 . S
H1750 C1765 0.959 . S
H1751 C1765 0.961 . S
H1752 C1766 0.960 . S
H1753 C1766 0.961 . S
H1754 C1766 0.959 . S
H1755 C1769 0.929 . S
H1756 C1770 0.931 . S
H1757 C1772 0.930 . S
C1758 H1746 0.930 . S
C1758 C1759 1.399 . S
C1758 C1763 1.399 . S
C1759 C1758 1.399 . S
C1759 C1760 1.376 . S
C1760 H1747 0.930 . S
C1760 C1759 1.376 . S
C1760 C1761 1.388 . S
C1761 H1748 0.930 . S
C1761 C1760 1.388 . S
C1761 C1762 1.390 . S
C1762 C1761 1.390 . S
C1762 C1763 1.394 . S
C1762 C1768 1.465 . S
C1763 C1758 1.399 . S
C1763 C1762 1.394 . S
C1763 C1764 1.516 . S
C1764 C1763 1.516 . S
C1764 C1765 1.502 . S
C1764 C1766 1.561 . S
C1764 C1767 1.526 . S
C1765 H1749 0.959 . S
C1765 H1750 0.959 . S
C1765 H1751 0.961 . S
C1765 C1764 1.502 . S
C1766 H1752 0.960 . S
C1766 H1753 0.961 . S
C1766 H1754 0.959 . S
C1766 C1764 1.561 . S
C1767 C1764 1.526 . S
C1767 C1768 1.396 . S
C1767 C1772 1.390 . S
C1768 C1762 1.465 . S
C1768 C1767 1.396 . S
C1768 C1769 1.399 . S
C1769 H1755 0.929 . S
C1769 C1768 1.399 . S
C1769 C1770 1.385 . S
C1770 H1756 0.931 . S
C1770 C1769 1.385 . S
C1770 C1771 1.389 . S
C1771 C1770 1.389 . S
C1771 C1772 1.387 . S
C1772 H1757 0.930 . S
C1772 C1767 1.390 . S
C1772 C1771 1.387 . S
H1773 C1785 0.930 . S
H1774 C1787 0.930 . S
H1775 C1788 0.930 . S
H1776 C1792 0.959 . S
H1777 C1792 0.959 . S
H1778 C1792 0.961 . S
H1779 C1793 0.960 . S
H1780 C1793 0.961 . S
H1781 C1793 0.959 . S
H1782 C1796 0.929 . S
H1783 C1797 0.931 . S
H1784 C1799 0.930 . S
C1785 H1773 0.930 . S
C1785 C1786 1.399 . S
C1785 C1790 1.399 . S
C1786 C1785 1.399 . S
C1786 C1787 1.376 . S
C1787 H1774 0.930 . S
C1787 C1786 1.376 . S
C1787 C1788 1.388 . S
C1788 H1775 0.930 . S
C1788 C1787 1.388 . S
C1788 C1789 1.390 . S
C1789 C1788 1.390 . S
C1789 C1790 1.394 . S
C1789 C1795 1.465 . S
C1790 C1785 1.399 . S
C1790 C1789 1.394 . S
C1790 C1791 1.516 . S
C1791 C1790 1.516 . S
C1791 C1792 1.502 . S
C1791 C1793 1.561 . S
C1791 C1794 1.526 . S
C1792 H1776 0.959 . S
C1792 H1777 0.959 . S
C1792 H1778 0.961 . S
C1792 C1791 1.502 . S
C1793 H1779 0.960 . S
C1793 H1780 0.961 . S
C1793 H1781 0.959 . S
C1793 C1791 1.561 . S
C1794 C1791 1.526 . S
C1794 C1795 1.396 . S
C1794 C1799 1.390 . S
C1795 C1789 1.465 . S
C1795 C1794 1.396 . S
C1795 C1796 1.399 . S
C1796 H1782 0.929 . S
C1796 C1795 1.399 . S
C1796 C1797 1.385 . S
C1797 H1783 0.931 . S
C1797 C1796 1.385 . S
C1797 C1798 1.389 . S
C1798 C1797 1.389 . S
C1798 C1799 1.387 . S
C1799 H1784 0.930 . S
C1799 C1794 1.390 . S
C1799 C1798 1.387 . S
H1800 C1812 0.930 . S
H1801 C1814 0.930 . S
H1802 C1815 0.930 . S
H1803 C1819 0.959 . S
H1804 C1819 0.959 . S
H1805 C1819 0.961 . S
H1806 C1820 0.960 . S
H1807 C1820 0.961 1_556 S
H1808 C1820 0.959 . S
H1809 C1823 0.929 . S
H1810 C1824 0.931 . S
H1811 C1826 0.930 . S
C1812 H1800 0.930 . S
C1812 C1813 1.399 . S
C1812 C1817 1.399 . S
C1813 C1812 1.399 . S
C1813 C1814 1.376 . S
C1814 H1801 0.930 . S
C1814 C1813 1.376 . S
C1814 C1815 1.388 . S
C1815 H1802 0.930 . S
C1815 C1814 1.388 . S
C1815 C1816 1.390 . S
C1816 C1815 1.390 . S
C1816 C1817 1.394 . S
C1816 C1822 1.465 . S
C1817 C1812 1.399 . S
C1817 C1816 1.394 . S
C1817 C1818 1.516 . S
C1818 C1817 1.516 . S
C1818 C1819 1.502 . S
C1818 C1820 1.561 . S
C1818 C1821 1.526 . S
C1819 H1803 0.959 . S
C1819 H1804 0.959 . S
C1819 H1805 0.961 . S
C1819 C1818 1.502 . S
C1820 H1806 0.960 . S
C1820 H1807 0.961 1_554 S
C1820 H1808 0.959 . S
C1820 C1818 1.561 . S
C1821 C1818 1.526 . S
C1821 C1822 1.396 . S
C1821 C1826 1.390 . S
C1822 C1816 1.465 . S
C1822 C1821 1.396 . S
C1822 C1823 1.399 . S
C1823 H1809 0.929 . S
C1823 C1822 1.399 . S
C1823 C1824 1.385 . S
C1824 H1810 0.931 . S
C1824 C1823 1.385 . S
C1824 C1825 1.389 . S
C1825 C1824 1.389 . S
C1825 C1826 1.387 . S
C1826 H1811 0.930 . S
C1826 C1821 1.390 . S
C1826 C1825 1.387 . S
H1827 C1839 0.930 . S
H1828 C1841 0.930 . S
H1829 C1842 0.930 . S
H1830 C1846 0.959 . S
H1831 C1846 0.959 . S
H1832 C1846 0.961 . S
H1833 C1847 0.960 . S
H1834 C1847 0.961 . S
H1835 C1847 0.959 . S
H1836 C1850 0.929 . S
H1837 C1851 0.931 . S
H1838 C1853 0.930 . S
C1839 H1827 0.930 . S
C1839 C1840 1.399 . S
C1839 C1844 1.399 . S
C1840 C1839 1.399 . S
C1840 C1841 1.376 . S
C1841 H1828 0.930 . S
C1841 C1840 1.376 . S
C1841 C1842 1.388 . S
C1842 H1829 0.930 . S
C1842 C1841 1.388 . S
C1842 C1843 1.390 . S
C1843 C1842 1.390 . S
C1843 C1844 1.394 . S
C1843 C1849 1.465 . S
C1844 C1839 1.399 . S
C1844 C1843 1.394 . S
C1844 C1845 1.516 . S
C1845 C1844 1.516 . S
C1845 C1846 1.502 . S
C1845 C1847 1.561 . S
C1845 C1848 1.526 . S
C1846 H1830 0.959 . S
C1846 H1831 0.959 . S
C1846 H1832 0.961 . S
C1846 C1845 1.502 . S
C1847 H1833 0.960 . S
C1847 H1834 0.961 . S
C1847 H1835 0.959 . S
C1847 C1845 1.561 . S
C1848 C1845 1.526 . S
C1848 C1849 1.396 . S
C1848 C1853 1.390 . S
C1849 C1843 1.465 . S
C1849 C1848 1.396 . S
C1849 C1850 1.399 . S
C1850 H1836 0.929 . S
C1850 C1849 1.399 . S
C1850 C1851 1.385 . S
C1851 H1837 0.931 . S
C1851 C1850 1.385 . S
C1851 C1852 1.389 . S
C1852 C1851 1.389 . S
C1852 C1853 1.387 . S
C1853 H1838 0.930 . S
C1853 C1848 1.390 . S
C1853 C1852 1.387 . S
C409 C15 0.834 . S
C421 C65 0.786 . S
C436 C21 0.877 . S
C448 C37 0.756 . S
C463 C59 0.824 . S
C475 C43 0.814 . S
C490 C103 0.868 . S
C502 C73 0.759 . S
C517 C125 0.766 . S
C529 C95 0.818 . S
C544 C117 0.830 . S
C556 C81 0.718 . S
C571 C197 0.688 . S
C583 C147 0.838 . S
C598 C169 0.799 . S
C610 C153 0.858 . S
C625 C175 0.854 . S
C637 C191 0.753 . S
C652 C213 0.822 . S
C664 C235 0.734 . S
C679 C263 0.748 . S
C691 C227 0.815 . S
C706 C257 0.772 . S
C718 C219 0.857 . S
C733 C329 0.735 . S
C745 C279 0.793 . S
C760 C301 0.789 . S
C772 C285 0.870 . S
C787 C323 0.807 . S
C799 C307 0.845 . S
C814 C345 0.841 . S
C826 C373 0.695 . S
C841 C389 0.790 . S
C853 C367 0.808 . S
C868 C351 0.705 . S
C880 C381 0.835 . S
C895 C131 1.135 . S
C907 C10 1.173 . S
C922 C87 1.110 . S
C934 C32 1.159 . S
C949 C109 1.106 . S
C961 C54 1.185 . S
C976 C29 1.117 . S
C988 C84 1.167 . S
C1003 C106 1.098 . S
C1015 C51 1.177 . S
C1030 C7 1.190 . S
C1042 C128 1.086 . S
C1057 C142 1.086 . S
C1069 C249 1.188 . S
C1084 C164 1.109 . S
C1096 C205 1.149 . S
C1111 C241 1.111 . S
C1123 C186 1.186 . S
C1138 C208 1.087 . S
C1150 C161 1.189 . S
C1165 C238 1.097 . S
C1177 C183 1.178 . S
C1192 C252 1.161 . S
C1204 C139 1.123 . S
C1219 C274 1.085 . S
C1231 C395 1.187 . S
C1246 C296 1.172 . S
C1258 C337 1.137 . S
C1273 C318 1.121 . S
C1285 C359 1.179 . S
C1300 C340 1.087 . S
C1312 C293 1.189 . S
C1327 C362 1.169 . S
C1339 C315 1.123 . S
C1354 C392 1.144 . S
C1366 C271 1.138 . S
C1381 C230 2.105 . S
C1393 C18 1.989 . S
C1408 C40 1.994 . S
C1420 C250 2.119 . S
C1435 C206 2.119 . S
C1447 C62 2.010 . S
C1462 C74 2.004 . S
C1474 C184 2.114 . S
C1489 C96 2.059 . S
C1501 C140 2.069 . S
C1516 C162 2.079 . S
C1528 C118 2.052 . S
C1543 C150 1.987 . S
C1555 C360 2.106 1_455 S
C1570 C172 2.056 . S
C1582 C384 2.090 . S
C1597 C194 1.997 . S
C1609 C338 2.092 1_565 S
C1624 C316 2.075 1_565 S
C1636 C216 2.043 . S
C1651 C272 2.073 1_455 S
C1663 C228 2.046 . S
C1678 C294 2.093 . S
C1690 C260 2.015 . S
C1705 C98 2.120 . S
C1717 C282 1.996 . S
C1732 C304 2.009 . S
C1744 C120 2.082 . S
C1759 C76 2.120 . S
C1771 C326 2.006 . S
C1786 C348 1.991 . S
C1798 C52 2.113 . S
C1813 C370 1.989 . S
C1825 C8 2.120 . S
C1840 C30 2.118 . S
C1852 C382 1.987 . S
