# Generated by pormake.
# Topology fnk, (5)-cn, num edge types: 1
# Building blocks:
#     Node 0, Type 0, BuildingBlock: BEQFEK_clean_sbu_0, # of connection points: 5
#     Node 1, Type 0, BuildingBlock: BEQFEK_clean_sbu_0, # of connection points: 5
#     Node 2, Type 0, BuildingBlock: BEQFEK_clean_sbu_0, # of connection points: 5
#     Node 3, Type 0, BuildingBlock: BEQFEK_clean_sbu_0, # of connection points: 5
#     Node 4, Type 0, BuildingBlock: BEQFEK_clean_sbu_0, # of connection points: 5
#     Node 5, Type 0, BuildingBlock: BEQFEK_clean_sbu_0, # of connection points: 5
#     Node 6, Type 0, BuildingBlock: BEQFEK_clean_sbu_0, # of connection points: 5
#     Node 7, Type 0, BuildingBlock: BEQFEK_clean_sbu_0, # of connection points: 5
#     Node 8, Type 0, BuildingBlock: BEQFEK_clean_sbu_0, # of connection points: 5
#     Node 9, Type 0, BuildingBlock: BEQFEK_clean_sbu_0, # of connection points: 5
#     Node 10, Type 0, BuildingBlock: BEQFEK_clean_sbu_0, # of connection points: 5
#     Node 11, Type 0, BuildingBlock: BEQFEK_clean_sbu_0, # of connection points: 5
#     Node 12, Type 0, BuildingBlock: BEQFEK_clean_sbu_0, # of connection points: 5
#     Node 13, Type 0, BuildingBlock: BEQFEK_clean_sbu_0, # of connection points: 5
#     Node 14, Type 0, BuildingBlock: BEQFEK_clean_sbu_0, # of connection points: 5
#     Node 15, Type 0, BuildingBlock: BEQFEK_clean_sbu_0, # of connection points: 5
#     Edge 16, Type (0, 0), BuildingBlock: KIFKEQ_clean_linker_1, # of connection points: 2
#     Edge 17, Type (0, 0), BuildingBlock: KIFKEQ_clean_linker_1, # of connection points: 2
#     Edge 18, Type (0, 0), BuildingBlock: KIFKEQ_clean_linker_1, # of connection points: 2
#     Edge 19, Type (0, 0), BuildingBlock: KIFKEQ_clean_linker_1, # of connection points: 2
#     Edge 20, Type (0, 0), BuildingBlock: KIFKEQ_clean_linker_1, # of connection points: 2
#     Edge 21, Type (0, 0), BuildingBlock: KIFKEQ_clean_linker_1, # of connection points: 2
#     Edge 22, Type (0, 0), BuildingBlock: KIFKEQ_clean_linker_1, # of connection points: 2
#     Edge 23, Type (0, 0), BuildingBlock: KIFKEQ_clean_linker_1, # of connection points: 2
#     Edge 24, Type (0, 0), BuildingBlock: KIFKEQ_clean_linker_1, # of connection points: 2
#     Edge 25, Type (0, 0), BuildingBlock: KIFKEQ_clean_linker_1, # of connection points: 2
#     Edge 26, Type (0, 0), BuildingBlock: KIFKEQ_clean_linker_1, # of connection points: 2
#     Edge 27, Type (0, 0), BuildingBlock: KIFKEQ_clean_linker_1, # of connection points: 2
#     Edge 28, Type (0, 0), BuildingBlock: KIFKEQ_clean_linker_1, # of connection points: 2
#     Edge 29, Type (0, 0), BuildingBlock: KIFKEQ_clean_linker_1, # of connection points: 2
#     Edge 30, Type (0, 0), BuildingBlock: KIFKEQ_clean_linker_1, # of connection points: 2
#     Edge 31, Type (0, 0), BuildingBlock: KIFKEQ_clean_linker_1, # of connection points: 2
#     Edge 32, Type (0, 0), BuildingBlock: KIFKEQ_clean_linker_1, # of connection points: 2
#     Edge 33, Type (0, 0), BuildingBlock: KIFKEQ_clean_linker_1, # of connection points: 2
#     Edge 34, Type (0, 0), BuildingBlock: KIFKEQ_clean_linker_1, # of connection points: 2
#     Edge 35, Type (0, 0), BuildingBlock: KIFKEQ_clean_linker_1, # of connection points: 2
#     Edge 36, Type (0, 0), BuildingBlock: KIFKEQ_clean_linker_1, # of connection points: 2
#     Edge 37, Type (0, 0), BuildingBlock: KIFKEQ_clean_linker_1, # of connection points: 2
#     Edge 38, Type (0, 0), BuildingBlock: KIFKEQ_clean_linker_1, # of connection points: 2
#     Edge 39, Type (0, 0), BuildingBlock: KIFKEQ_clean_linker_1, # of connection points: 2
#     Edge 40, Type (0, 0), BuildingBlock: KIFKEQ_clean_linker_1, # of connection points: 2
#     Edge 41, Type (0, 0), BuildingBlock: KIFKEQ_clean_linker_1, # of connection points: 2
#     Edge 42, Type (0, 0), BuildingBlock: KIFKEQ_clean_linker_1, # of connection points: 2
#     Edge 43, Type (0, 0), BuildingBlock: KIFKEQ_clean_linker_1, # of connection points: 2
#     Edge 44, Type (0, 0), BuildingBlock: KIFKEQ_clean_linker_1, # of connection points: 2
#     Edge 45, Type (0, 0), BuildingBlock: KIFKEQ_clean_linker_1, # of connection points: 2
#     Edge 46, Type (0, 0), BuildingBlock: KIFKEQ_clean_linker_1, # of connection points: 2
#     Edge 47, Type (0, 0), BuildingBlock: KIFKEQ_clean_linker_1, # of connection points: 2
#     Edge 48, Type (0, 0), BuildingBlock: KIFKEQ_clean_linker_1, # of connection points: 2
#     Edge 49, Type (0, 0), BuildingBlock: KIFKEQ_clean_linker_1, # of connection points: 2
#     Edge 50, Type (0, 0), BuildingBlock: KIFKEQ_clean_linker_1, # of connection points: 2
#     Edge 51, Type (0, 0), BuildingBlock: KIFKEQ_clean_linker_1, # of connection points: 2
#     Edge 52, Type (0, 0), BuildingBlock: KIFKEQ_clean_linker_1, # of connection points: 2
#     Edge 53, Type (0, 0), BuildingBlock: KIFKEQ_clean_linker_1, # of connection points: 2
#     Edge 54, Type (0, 0), BuildingBlock: KIFKEQ_clean_linker_1, # of connection points: 2
#     Edge 55, Type (0, 0), BuildingBlock: KIFKEQ_clean_linker_1, # of connection points: 2
# Relax obj value: 0.375
# Max RMSD: 0.200
# Mean RMSD: 0.200
data_MOF--net-fnk--node1-BEQFEK_clean_sbu_0--edge1-KIFKEQ_clean_linker_1
_symmetry_space_group_name_H-M    P1
_symmetry_Int_Tables_number       1
_symmetry_cell_setting            triclinic
loop_
_symmetry_equiv_pos_as_xyz
'x, y, z'
_cell_length_a     50.928469
_cell_length_b     50.913399
_cell_length_c     49.7582
_cell_angle_alpha  90.008826
_cell_angle_beta   90.003744
_cell_angle_gamma 89.998363
loop_
_atom_site_label
_atom_site_type_symbol
_atom_site_fract_x
_atom_site_fract_y
_atom_site_fract_z
_atom_type_partial_charge
Co0 Co 0.0954 0.40332 0.152 0.0
Co1 Co 0.1331 0.3647 0.18156 0.0
C2 C 0.13556 0.42178 0.19314 0.0
O3 O 0.11697 0.42552 0.17638 0.0
O4 O 0.14482 0.39884 0.19747 0.0
C5 C 0.07856 0.44973 0.1236 0.0
O6 O 0.10009 0.46054 0.13304 0.0
C7 C 0.17875 0.33403 0.20164 0.0
C8 C 0.16267 0.29392 0.19687 0.0
C9 C 0.18497 0.30763 0.20424 0.0
N10 N 0.15385 0.33575 0.19277 0.0
N11 N 0.14432 0.31173 0.19033 0.0
C12 C 0.19655 0.35706 0.20548 0.0
H13 H 0.19205 0.37245 0.19036 0.0
H14 H 0.21747 0.35112 0.20391 0.0
H15 H 0.1931 0.36551 0.22573 0.0
C16 C 0.11854 0.37874 0.10428 0.0
N17 N 0.11664 0.38152 0.13106 0.0
N18 N 0.13326 0.36558 0.14299 0.0
C19 C 0.14672 0.35234 0.12385 0.0
C20 C 0.13756 0.36008 0.09878 0.0
C21 C 0.10302 0.39453 0.08447 0.0
H22 H 0.08175 0.3914 0.08806 0.0
H23 H 0.10725 0.41568 0.08758 0.0
H24 H 0.10784 0.38938 0.06339 0.0
O25 O 0.07041 0.38239 0.17317 0.0
O26 O 0.09748 0.357 0.19645 0.0
H27 H 0.15809 0.31431 0.13759 0.0
H28 H 0.17826 0.32684 0.1108 0.0
C29 C 0.16745 0.33224 0.12935 0.0
H30 H 0.18146 0.33992 0.14448 0.0
H31 H 0.12544 0.3075 0.18339 0.0
O32 O 0.0736 0.42586 0.12893 0.0
C33 C 0.07441 0.3649 0.19088 0.0
Co34 Co 0.59536 0.09655 0.14884 0.0
Co35 Co 0.6351 0.13318 0.17838 0.0
C36 C 0.57698 0.1372 0.18807 0.0
O37 O 0.57213 0.11933 0.17079 0.0
O38 O 0.60042 0.14445 0.19337 0.0
C39 C 0.55292 0.07659 0.11423 0.0
O40 O 0.54206 0.1 0.11484 0.0
C41 C 0.6629 0.17757 0.20447 0.0
C42 C 0.70397 0.16434 0.1993 0.0
C43 C 0.68876 0.18414 0.2103 0.0
N44 N 0.663 0.15492 0.19052 0.0
N45 N 0.68759 0.14725 0.18742 0.0
C46 C 0.63844 0.19081 0.21414 0.0
H47 H 0.6268 0.17672 0.22629 0.0
H48 H 0.62628 0.19651 0.19657 0.0
H49 H 0.64276 0.20835 0.22656 0.0
C50 C 0.62041 0.11977 0.10104 0.0
N51 N 0.6182 0.11695 0.12781 0.0
N52 N 0.63473 0.13294 0.13988 0.0
C53 C 0.6479 0.14668 0.12091 0.0
C54 C 0.63915 0.13875 0.09578 0.0
C55 C 0.60504 0.10436 0.08083 0.0
H56 H 0.60486 0.08332 0.08657 0.0
H57 H 0.58452 0.11162 0.08054 0.0
H58 H 0.61345 0.10628 0.06035 0.0
O59 O 0.61485 0.07244 0.17257 0.0
O60 O 0.6432 0.09797 0.19378 0.0
H61 H 0.68612 0.15886 0.13322 0.0
H62 H 0.67123 0.17999 0.10847 0.0
C63 C 0.66739 0.16791 0.12663 0.0
H64 H 0.66006 0.18068 0.14305 0.0
H65 H 0.69314 0.12997 0.17768 0.0
O66 O 0.57437 0.07262 0.12653 0.0
C67 C 0.63325 0.07544 0.18952 0.0
Co68 Co 0.90092 0.59796 0.15059 0.0
Co69 Co 0.86142 0.63536 0.17938 0.0
C70 C 0.86097 0.57789 0.1907 0.0
O71 O 0.87995 0.57462 0.17432 0.0
O72 O 0.85109 0.60059 0.19484 0.0
C73 C 0.9198 0.55284 0.12145 0.0
O74 O 0.89786 0.54154 0.12911 0.0
C75 C 0.81455 0.66188 0.20198 0.0
C76 C 0.82518 0.70334 0.19439 0.0
C77 C 0.80555 0.68747 0.20468 0.0
N78 N 0.8384 0.66268 0.19039 0.0
N79 N 0.84467 0.68751 0.18613 0.0
C80 C 0.80028 0.63707 0.20871 0.0
H81 H 0.8032 0.62247 0.19242 0.0
H82 H 0.77898 0.64068 0.21158 0.0
H83 H 0.8086 0.62874 0.22747 0.0
C84 C 0.87642 0.62028 0.10237 0.0
N85 N 0.87892 0.61861 0.1292 0.0
N86 N 0.8619 0.63437 0.14082 0.0
C87 C 0.84781 0.64656 0.12141 0.0
C88 C 0.85662 0.63795 0.09654 0.0
C89 C 0.89315 0.60558 0.08272 0.0
H90 H 0.88824 0.58438 0.08377 0.0
H91 H 0.89014 0.61259 0.06184 0.0
H92 H 0.91414 0.60793 0.08816 0.0
O93 O 0.92446 0.61997 0.17241 0.0
O94 O 0.89635 0.64481 0.19504 0.0
H95 H 0.83384 0.68455 0.13249 0.0
H96 H 0.81368 0.66808 0.108 0.0
C97 C 0.8257 0.66525 0.12638 0.0
H98 H 0.81306 0.65779 0.14283 0.0
H99 H 0.86218 0.69362 0.17719 0.0
O100 O 0.92425 0.5765 0.12806 0.0
C101 C 0.91972 0.63749 0.1899 0.0
Co102 Co 0.40459 0.89907 0.15273 0.0
Co103 Co 0.3638 0.86296 0.18143 0.0
C104 C 0.4218 0.85812 0.19195 0.0
O105 O 0.4272 0.87579 0.17466 0.0
O106 O 0.39817 0.85136 0.19703 0.0
C107 C 0.44741 0.91864 0.11834 0.0
O108 O 0.4578 0.89502 0.11855 0.0
C109 C 0.33617 0.81591 0.20174 0.0
C110 C 0.29496 0.82925 0.19872 0.0
C111 C 0.31041 0.80796 0.20572 0.0
N112 N 0.33587 0.84077 0.19262 0.0
N113 N 0.3112 0.84865 0.19107 0.0
C114 C 0.36053 0.79976 0.20468 0.0
H115 H 0.36999 0.80454 0.22417 0.0
H116 H 0.37458 0.80465 0.18839 0.0
H117 H 0.35597 0.77845 0.20417 0.0
C118 C 0.37952 0.87709 0.10436 0.0
N119 N 0.38169 0.87933 0.13119 0.0
N120 N 0.36461 0.86366 0.14287 0.0
C121 C 0.35107 0.85075 0.12354 0.0
C122 C 0.36022 0.85882 0.09861 0.0
C123 C 0.39516 0.8927 0.08452 0.0
H124 H 0.39575 0.91358 0.09079 0.0
H125 H 0.41554 0.88504 0.08399 0.0
H126 H 0.3867 0.89147 0.06401 0.0
O127 O 0.38515 0.92305 0.17662 0.0
O128 O 0.35585 0.89806 0.19723 0.0
H129 H 0.31281 0.83989 0.13702 0.0
H130 H 0.32515 0.81982 0.10995 0.0
C131 C 0.33059 0.83032 0.12869 0.0
H132 H 0.33797 0.81596 0.14363 0.0
H133 H 0.30546 0.8672 0.18434 0.0
O134 O 0.42614 0.92291 0.13089 0.0
C135 C 0.36648 0.92035 0.19331 0.0
Co136 Co 0.09304 0.60085 0.34886 0.0
Co137 Co 0.13439 0.63608 0.32002 0.0
C138 C 0.13419 0.57837 0.31113 0.0
O139 O 0.11463 0.57618 0.32699 0.0
O140 O 0.14468 0.60067 0.30638 0.0
C141 C 0.07314 0.55886 0.38256 0.0
O142 O 0.09695 0.54897 0.38151 0.0
C143 C 0.18215 0.66151 0.29785 0.0
C144 C 0.17183 0.70322 0.30446 0.0
C145 C 0.19151 0.68696 0.29496 0.0
N146 N 0.15805 0.66277 0.30884 0.0
N147 N 0.15196 0.68775 0.31247 0.0
C148 C 0.19626 0.63645 0.29179 0.0
H149 H 0.19317 0.62227 0.30843 0.0
H150 H 0.2176 0.63982 0.28889 0.0
H151 H 0.18792 0.62771 0.27323 0.0
C152 C 0.11521 0.62619 0.397 0.0
N153 N 0.11422 0.62252 0.37026 0.0
N154 N 0.13259 0.63663 0.35857 0.0
C155 C 0.1465 0.64918 0.37785 0.0
C156 C 0.13567 0.64323 0.40273 0.0
C157 C 0.09784 0.61231 0.41669 0.0
H158 H 0.0771 0.61379 0.41008 0.0
H159 H 0.10334 0.59125 0.41725 0.0
H160 H 0.09973 0.62035 0.43729 0.0
O161 O 0.07075 0.62213 0.32521 0.0
O162 O 0.10014 0.64548 0.30264 0.0
H163 H 0.1627 0.68591 0.36562 0.0
H164 H 0.18142 0.66957 0.39122 0.0
C165 C 0.16969 0.66649 0.3727 0.0
H166 H 0.18231 0.65772 0.35692 0.0
H167 H 0.13432 0.6942 0.32087 0.0
O168 O 0.06829 0.58043 0.37077 0.0
C169 C 0.07647 0.63883 0.30721 0.0
Co170 Co 0.40731 0.10211 0.35003 0.0
Co171 Co 0.36446 0.13507 0.32041 0.0
C172 C 0.42181 0.14096 0.30741 0.0
O173 O 0.42823 0.12437 0.32542 0.0
O174 O 0.39787 0.14698 0.30291 0.0
C175 C 0.45487 0.08481 0.37696 0.0
O176 O 0.46663 0.10466 0.36515 0.0
C177 C 0.33307 0.17695 0.29415 0.0
C178 C 0.29312 0.16126 0.30101 0.0
C179 C 0.30665 0.18184 0.28924 0.0
N180 N 0.33489 0.15454 0.30837 0.0
N181 N 0.31095 0.14536 0.3124 0.0
C182 C 0.35632 0.19163 0.28355 0.0
H183 H 0.36945 0.17781 0.27276 0.0
H184 H 0.36756 0.19995 0.30065 0.0
H185 H 0.35055 0.20756 0.26958 0.0
C186 C 0.38325 0.12648 0.39744 0.0
N187 N 0.38459 0.12281 0.37074 0.0
N188 N 0.36644 0.13697 0.35878 0.0
C189 C 0.35278 0.15016 0.3778 0.0
C190 C 0.36312 0.14399 0.40284 0.0
C191 C 0.40028 0.1125 0.41737 0.0
H192 H 0.421 0.11852 0.4143 0.0
H193 H 0.39446 0.11674 0.4384 0.0
H194 H 0.399 0.09101 0.41388 0.0
O195 O 0.38801 0.07548 0.32886 0.0
O196 O 0.35767 0.0987 0.30771 0.0
H197 H 0.31298 0.15728 0.36665 0.0
H198 H 0.32607 0.18086 0.39013 0.0
C199 C 0.33069 0.16871 0.37221 0.0
H200 H 0.33588 0.1817 0.35513 0.0
H201 H 0.30685 0.12793 0.32262 0.0
O202 O 0.43044 0.08136 0.37348 0.0
C203 C 0.36878 0.07686 0.31264 0.0
Co204 Co 0.90079 0.40186 0.34801 0.0
Co205 Co 0.85951 0.36516 0.32099 0.0
C206 C 0.85893 0.42238 0.30984 0.0
O207 O 0.8787 0.42521 0.32534 0.0
O208 O 0.84843 0.39989 0.30602 0.0
C209 C 0.92072 0.44462 0.38111 0.0
O210 O 0.89666 0.45393 0.38136 0.0
C211 C 0.81212 0.33659 0.30146 0.0
C212 C 0.82479 0.29594 0.31034 0.0
C213 C 0.80397 0.31059 0.30068 0.0
N214 N 0.83665 0.33718 0.31153 0.0
N215 N 0.84413 0.31281 0.31646 0.0
C216 C 0.7965 0.36049 0.29452 0.0
H217 H 0.79992 0.37602 0.30978 0.0
H218 H 0.77522 0.35594 0.29327 0.0
H219 H 0.80326 0.36814 0.27482 0.0
C220 C 0.87846 0.3792 0.39744 0.0
N221 N 0.87983 0.38119 0.37053 0.0
N222 N 0.86177 0.36616 0.35954 0.0
C223 C 0.84797 0.3544 0.37943 0.0
C224 C 0.85817 0.36234 0.40397 0.0
C225 C 0.89665 0.39269 0.41662 0.0
H226 H 0.91695 0.39246 0.40858 0.0
H227 H 0.89032 0.41339 0.4191 0.0
H228 H 0.89647 0.38306 0.43663 0.0
O229 O 0.92308 0.37986 0.32507 0.0
O230 O 0.8936 0.35583 0.30342 0.0
H231 H 0.83123 0.31727 0.36936 0.0
H232 H 0.81281 0.33541 0.394 0.0
C233 C 0.82455 0.33716 0.37529 0.0
H234 H 0.81203 0.34523 0.35904 0.0
H235 H 0.86232 0.30776 0.32464 0.0
O236 O 0.92558 0.42337 0.36873 0.0
C237 C 0.91727 0.36271 0.30757 0.0
Co238 Co 0.59418 0.89942 0.35043 0.0
Co239 Co 0.63543 0.86357 0.32206 0.0
C240 C 0.57762 0.85935 0.31001 0.0
O241 O 0.57193 0.87681 0.32742 0.0
O242 O 0.60132 0.85251 0.30539 0.0
C243 C 0.54821 0.92006 0.3779 0.0
O244 O 0.53542 0.89968 0.36835 0.0
C245 C 0.66283 0.81662 0.30135 0.0
C246 C 0.70418 0.82923 0.30552 0.0
C247 C 0.68854 0.80837 0.29765 0.0
N248 N 0.66333 0.84125 0.31111 0.0
N249 N 0.68809 0.84869 0.31337 0.0
C250 C 0.63828 0.80095 0.29751 0.0
H251 H 0.62405 0.80558 0.31372 0.0
H252 H 0.6425 0.77957 0.29745 0.0
H253 H 0.6292 0.80644 0.27803 0.0
C254 C 0.61719 0.87587 0.39878 0.0
N255 N 0.61615 0.87883 0.37197 0.0
N256 N 0.63362 0.86344 0.36054 0.0
C257 C 0.64649 0.85012 0.38004 0.0
C258 C 0.63636 0.85754 0.40482 0.0
C259 C 0.60049 0.89093 0.41817 0.0
H260 H 0.60243 0.91226 0.41407 0.0
H261 H 0.57961 0.88543 0.41518 0.0
H262 H 0.60611 0.88712 0.43935 0.0
O263 O 0.61444 0.92383 0.32764 0.0
O264 O 0.6441 0.89895 0.3074 0.0
H265 H 0.68522 0.83984 0.36754 0.0
H266 H 0.67228 0.81917 0.39384 0.0
C267 C 0.6673 0.82997 0.37515 0.0
H268 H 0.6605 0.81583 0.3597 0.0
H269 H 0.69398 0.86698 0.32067 0.0
O270 O 0.5725 0.92259 0.37294 0.0
C271 C 0.63358 0.92128 0.31146 0.0
Co272 Co 0.90263 0.59635 0.84826 0.0
Co273 Co 0.8652 0.63582 0.81939 0.0
C274 C 0.92312 0.6367 0.80916 0.0
O275 O 0.92637 0.61789 0.82576 0.0
O276 O 0.90032 0.64609 0.80437 0.0
C277 C 0.94486 0.57676 0.8824 0.0
O278 O 0.95465 0.60063 0.88197 0.0
C279 C 0.83897 0.68346 0.79772 0.0
C280 C 0.79745 0.67251 0.80434 0.0
C281 C 0.81339 0.69253 0.79501 0.0
N282 N 0.83808 0.6592 0.80841 0.0
N283 N 0.8132 0.65275 0.81207 0.0
C284 C 0.86383 0.69804 0.79199 0.0
H285 H 0.87838 0.69414 0.8081 0.0
H286 H 0.86025 0.71949 0.79041 0.0
H287 H 0.87219 0.69084 0.77276 0.0
C288 C 0.87914 0.62008 0.89658 0.0
N289 N 0.88128 0.61775 0.86976 0.0
N290 N 0.86584 0.63501 0.85801 0.0
C291 C 0.8536 0.6492 0.87731 0.0
C292 C 0.86172 0.64015 0.90226 0.0
C293 C 0.89303 0.60298 0.9165 0.0
H294 H 0.89284 0.58231 0.90952 0.0
H295 H 0.91371 0.60957 0.91832 0.0
H296 H 0.88369 0.60406 0.93662 0.0
O297 O 0.88142 0.57345 0.8252 0.0
O298 O 0.85536 0.60097 0.80344 0.0
H299 H 0.81627 0.66428 0.86547 0.0
H300 H 0.83264 0.68375 0.89062 0.0
C301 C 0.8356 0.67185 0.87217 0.0
H302 H 0.8438 0.68448 0.85608 0.0
H303 H 0.80701 0.63495 0.82033 0.0
O304 O 0.92359 0.57196 0.87005 0.0
C305 C 0.86353 0.57775 0.808 0.0
Co306 Co 0.39947 0.90485 0.85004 0.0
Co307 Co 0.36435 0.86284 0.82179 0.0
C308 C 0.36111 0.91999 0.80712 0.0
O309 O 0.37803 0.92599 0.82493 0.0
O310 O 0.35402 0.89625 0.8031 0.0
C311 C 0.41628 0.95235 0.87677 0.0
O312 O 0.39494 0.96301 0.86672 0.0
C313 C 0.31836 0.83433 0.80022 0.0
C314 C 0.33085 0.79326 0.80692 0.0
C315 C 0.31031 0.80844 0.79739 0.0
N316 N 0.34254 0.83438 0.81108 0.0
N317 N 0.34992 0.80977 0.81484 0.0
C318 C 0.3028 0.85862 0.79457 0.0
H319 H 0.30681 0.87364 0.81021 0.0
H320 H 0.28145 0.85433 0.79391 0.0
H321 H 0.30897 0.86677 0.77487 0.0
C322 C 0.37423 0.88348 0.89831 0.0
N323 N 0.37786 0.88386 0.87157 0.0
N324 N 0.36263 0.86623 0.86016 0.0
C325 C 0.34866 0.85398 0.87961 0.0
C326 C 0.3555 0.86465 0.90433 0.0
C327 C 0.38946 0.90002 0.91771 0.0
H328 H 0.41071 0.89857 0.91308 0.0
H329 H 0.38348 0.92085 0.91538 0.0
H330 H 0.38625 0.89387 0.93884 0.0
O331 O 0.42491 0.88354 0.82952 0.0
O332 O 0.40041 0.85355 0.80928 0.0
H333 H 0.33872 0.81473 0.86857 0.0
H334 H 0.31684 0.82908 0.893 0.0
C335 C 0.32862 0.83307 0.87469 0.0
H336 H 0.31535 0.83918 0.85818 0.0
H337 H 0.36789 0.80428 0.82324 0.0
O338 O 0.42106 0.92827 0.8724 0.0
C339 C 0.42273 0.86383 0.81399 0.0
Co340 Co 0.09963 0.40388 0.85162 0.0
Co341 Co 0.13655 0.36436 0.82219 0.0
C342 C 0.07843 0.36316 0.81329 0.0
O343 O 0.07542 0.382 0.8299 0.0
O344 O 0.10118 0.3539 0.80806 0.0
C345 C 0.05745 0.42356 0.8855 0.0
O346 O 0.04731 0.39986 0.88421 0.0
C347 C 0.16212 0.31635 0.80075 0.0
C348 C 0.20382 0.32793 0.80443 0.0
C349 C 0.1876 0.30745 0.79677 0.0
N350 N 0.16336 0.34095 0.81055 0.0
N351 N 0.18832 0.34777 0.81246 0.0
C352 C 0.13715 0.30134 0.79703 0.0
H353 H 0.12329 0.30604 0.81355 0.0
H354 H 0.14085 0.27987 0.7965 0.0
H355 H 0.12791 0.30741 0.77781 0.0
C356 C 0.12573 0.38202 0.89937 0.0
N357 N 0.12201 0.38313 0.87265 0.0
N358 N 0.13695 0.36555 0.86075 0.0
C359 C 0.15023 0.35211 0.87987 0.0
C360 C 0.14377 0.3624 0.90486 0.0
C361 C 0.11119 0.39862 0.91925 0.0
H362 H 0.11251 0.41957 0.91329 0.0
H363 H 0.0902 0.39285 0.91916 0.0
H364 H 0.11882 0.39627 0.93996 0.0
O365 O 0.12002 0.42672 0.8278 0.0
O366 O 0.14596 0.39917 0.80589 0.0
H367 H 0.18735 0.3381 0.86613 0.0
H368 H 0.17355 0.31903 0.89309 0.0
C369 C 0.16884 0.33002 0.87445 0.0
H370 H 0.16021 0.31644 0.85945 0.0
H371 H 0.19476 0.3659 0.8197 0.0
O372 O 0.07909 0.42829 0.87382 0.0
C373 C 0.1377 0.42238 0.81037 0.0
Co374 Co 0.59556 0.09989 0.84764 0.0
Co375 Co 0.63575 0.13659 0.8188 0.0
C376 C 0.63579 0.07906 0.80812 0.0
O377 O 0.61659 0.07623 0.82433 0.0
O378 O 0.64599 0.10158 0.80378 0.0
C379 C 0.57592 0.05508 0.87681 0.0
O380 O 0.59779 0.04349 0.86937 0.0
C381 C 0.68315 0.16295 0.79686 0.0
C382 C 0.67249 0.20442 0.80432 0.0
C383 C 0.69228 0.18853 0.79442 0.0
N384 N 0.65906 0.16379 0.80793 0.0
N385 N 0.65278 0.18863 0.8121 0.0
C386 C 0.69753 0.13811 0.79051 0.0
H387 H 0.69405 0.12345 0.80662 0.0
H388 H 0.71893 0.14166 0.78835 0.0
H389 H 0.68979 0.12988 0.77144 0.0
C390 C 0.62033 0.1219 0.89584 0.0
N391 N 0.61763 0.12045 0.86903 0.0
N392 N 0.635 0.13582 0.85739 0.0
C393 C 0.64955 0.14749 0.87678 0.0
C394 C 0.64067 0.13898 0.90167 0.0
C395 C 0.60354 0.10728 0.91549 0.0
H396 H 0.58257 0.10963 0.91 0.0
H397 H 0.60845 0.08608 0.91454 0.0
H398 H 0.60651 0.11438 0.93635 0.0
O399 O 0.57243 0.12191 0.82544 0.0
O400 O 0.60096 0.14612 0.80267 0.0
H401 H 0.66508 0.18478 0.86539 0.0
H402 H 0.6845 0.16775 0.89012 0.0
C403 C 0.67241 0.16524 0.87173 0.0
H404 H 0.68478 0.15711 0.85538 0.0
H405 H 0.63513 0.19477 0.82073 0.0
O406 O 0.57182 0.07877 0.8701 0.0
C407 C 0.57748 0.13912 0.80773 0.0
Co408 Co 0.90557 0.40094 0.65124 0.0
Co409 Co 0.86595 0.36429 0.68089 0.0
C410 C 0.92358 0.36242 0.69325 0.0
O411 O 0.92793 0.38018 0.67576 0.0
O412 O 0.90037 0.35395 0.69774 0.0
C413 C 0.95155 0.41834 0.62229 0.0
O414 O 0.96279 0.3969 0.63143 0.0
C415 C 0.83837 0.3176 0.70246 0.0
C416 C 0.79713 0.33036 0.69765 0.0
C417 C 0.81256 0.30949 0.70589 0.0
N418 N 0.83809 0.34214 0.69243 0.0
N419 N 0.8134 0.34968 0.68985 0.0
C420 C 0.86279 0.30184 0.7067 0.0
H421 H 0.87734 0.30648 0.6908 0.0
H422 H 0.85848 0.28047 0.70662 0.0
H423 H 0.87151 0.30722 0.72638 0.0
C424 C 0.883 0.3755 0.60368 0.0
N425 N 0.88445 0.37884 0.63042 0.0
N426 N 0.86764 0.3631 0.64239 0.0
C427 C 0.85482 0.34916 0.62331 0.0
C428 C 0.86429 0.35653 0.59826 0.0
C429 C 0.89853 0.39107 0.58371 0.0
H430 H 0.89652 0.41231 0.58819 0.0
H431 H 0.91959 0.38577 0.58554 0.0
H432 H 0.89198 0.38739 0.56278 0.0
O433 O 0.88431 0.42584 0.67228 0.0
O434 O 0.8566 0.40016 0.69428 0.0
H435 H 0.81626 0.33863 0.63616 0.0
H436 H 0.82947 0.31752 0.61038 0.0
C437 C 0.83432 0.32884 0.62879 0.0
H438 H 0.84136 0.31519 0.64458 0.0
H439 H 0.80766 0.36789 0.68222 0.0
O440 O 0.92773 0.42298 0.62806 0.0
C441 C 0.86561 0.4229 0.68892 0.0
Co442 Co 0.59541 0.90076 0.65353 0.0
Co443 Co 0.63521 0.86351 0.68219 0.0
C444 C 0.63617 0.92148 0.69204 0.0
O445 O 0.6172 0.92462 0.67562 0.0
O446 O 0.64561 0.89871 0.6969 0.0
C447 C 0.57558 0.94309 0.6198 0.0
O448 O 0.59942 0.95293 0.62037 0.0
C449 C 0.68322 0.83751 0.70322 0.0
C450 C 0.67211 0.79589 0.69745 0.0
C451 C 0.69232 0.81195 0.70614 0.0
N452 N 0.65875 0.83648 0.69305 0.0
N453 N 0.65222 0.81156 0.68988 0.0
C454 C 0.69795 0.86244 0.70823 0.0
H455 H 0.69354 0.87683 0.6921 0.0
H456 H 0.71943 0.85888 0.70915 0.0
H457 H 0.69135 0.87098 0.7276 0.0
C458 C 0.61879 0.87721 0.6051 0.0
N459 N 0.61659 0.87932 0.63194 0.0
N460 N 0.63398 0.86395 0.64358 0.0
C461 C 0.64811 0.85177 0.62419 0.0
C462 C 0.6389 0.85988 0.5993 0.0
C463 C 0.60172 0.89127 0.58529 0.0
H464 H 0.58104 0.89101 0.59224 0.0
H465 H 0.60828 0.91198 0.58369 0.0
H466 H 0.60284 0.88211 0.56508 0.0
O467 O 0.57277 0.87969 0.67702 0.0
O468 O 0.60058 0.85382 0.69865 0.0
H469 H 0.66355 0.8147 0.6364 0.0
H470 H 0.68251 0.83072 0.61062 0.0
C471 C 0.67092 0.83394 0.62922 0.0
H472 H 0.68377 0.84245 0.64495 0.0
H473 H 0.63426 0.80527 0.68208 0.0
O474 O 0.57083 0.92167 0.63189 0.0
C475 C 0.5773 0.86195 0.69434 0.0
Co476 Co 0.09771 0.59679 0.65002 0.0
Co477 Co 0.13655 0.63433 0.67965 0.0
C478 C 0.07875 0.63667 0.69042 0.0
O479 O 0.07483 0.61845 0.67332 0.0
O480 O 0.10185 0.64523 0.6953 0.0
C481 C 0.05218 0.57832 0.62113 0.0
O482 O 0.04064 0.5997 0.63 0.0
C483 C 0.16412 0.68069 0.70218 0.0
C484 C 0.20535 0.66817 0.69664 0.0
C485 C 0.18994 0.68872 0.70569 0.0
N486 N 0.16436 0.65649 0.69132 0.0
N487 N 0.18905 0.64909 0.68831 0.0
C488 C 0.1397 0.69617 0.70743 0.0
H489 H 0.12529 0.69274 0.69107 0.0
H490 H 0.14403 0.71748 0.70902 0.0
H491 H 0.13077 0.68936 0.72653 0.0
C492 C 0.1226 0.61969 0.60241 0.0
N493 N 0.1198 0.61789 0.62918 0.0
N494 N 0.13583 0.63446 0.64108 0.0
C495 C 0.14916 0.64779 0.6219 0.0
C496 C 0.14139 0.63856 0.59686 0.0
C497 C 0.10668 0.60427 0.58262 0.0
H498 H 0.11002 0.58298 0.58592 0.0
H499 H 0.08555 0.60832 0.58604 0.0
H500 H 0.11153 0.60935 0.56153 0.0
O501 O 0.1182 0.57247 0.6723 0.0
O502 O 0.14544 0.59874 0.69422 0.0
H503 H 0.18756 0.65894 0.63461 0.0
H504 H 0.17404 0.6798 0.60892 0.0
C505 C 0.16933 0.66846 0.62734 0.0
H506 H 0.16214 0.68203 0.64314 0.0
H507 H 0.19476 0.6311 0.68012 0.0
O508 O 0.07608 0.57412 0.62691 0.0
C509 C 0.13651 0.57587 0.68929 0.0
Co510 Co 0.40214 0.09865 0.65171 0.0
Co511 Co 0.36192 0.13588 0.67985 0.0
C512 C 0.36175 0.07822 0.6908 0.0
O513 O 0.38055 0.07475 0.67427 0.0
O514 O 0.35228 0.10099 0.69545 0.0
C515 C 0.42219 0.05607 0.61843 0.0
O516 O 0.39834 0.04622 0.61892 0.0
C517 C 0.31413 0.16157 0.70172 0.0
C518 C 0.3239 0.20317 0.69379 0.0
C519 C 0.30452 0.18698 0.70407 0.0
N520 N 0.33808 0.16277 0.69035 0.0
N521 N 0.34381 0.1877 0.68587 0.0
C522 C 0.30035 0.13651 0.70855 0.0
H523 H 0.30851 0.12866 0.7276 0.0
H524 H 0.30392 0.12175 0.69255 0.0
H525 H 0.27891 0.13964 0.71095 0.0
C526 C 0.37833 0.12109 0.60292 0.0
N527 N 0.38058 0.11939 0.62979 0.0
N528 N 0.36297 0.13466 0.64122 0.0
C529 C 0.34863 0.14633 0.62168 0.0
C530 C 0.35793 0.13802 0.59688 0.0
C531 C 0.39588 0.10733 0.58333 0.0
H532 H 0.41644 0.10778 0.59061 0.0
H533 H 0.38956 0.08657 0.58146 0.0
H534 H 0.395 0.11661 0.56317 0.0
O535 O 0.42476 0.12066 0.67456 0.0
O536 O 0.39637 0.14612 0.69607 0.0
H537 H 0.33263 0.18361 0.6324 0.0
H538 H 0.3134 0.1659 0.60805 0.0
C539 C 0.32554 0.16386 0.62646 0.0
H540 H 0.31328 0.15586 0.64295 0.0
H541 H 0.36126 0.19411 0.67703 0.0
O542 O 0.42686 0.07758 0.63039 0.0
C543 C 0.41978 0.13852 0.69162 0.0
H544 H 0.96316 0.57118 0.09541 0.0
H545 H 0.92495 0.49954 0.12057 0.0
H546 H 0.00278 0.54649 0.0846 0.0
H547 H 0.96466 0.47502 0.11075 0.0
H548 H 0.03689 0.43286 0.0939 0.0
H549 H 0.99797 0.45819 0.08201 0.0
H550 H 0.03446 0.52812 0.11425 0.0
H551 H 0.07354 0.50302 0.12516 0.0
C552 C 0.96309 0.55007 0.09818 0.0
C553 C 0.9412 0.53732 0.10938 0.0
C554 C 0.98581 0.53595 0.09207 0.0
C555 C 0.98714 0.50887 0.09733 0.0
C556 C 0.96437 0.49582 0.10625 0.0
C557 C 0.94156 0.50991 0.11208 0.0
C558 C 0.03679 0.4538 0.09779 0.0
C559 C 0.05797 0.4659 0.11099 0.0
C560 C 0.01447 0.46828 0.09106 0.0
C561 C 0.01282 0.49505 0.0977 0.0
C562 C 0.03503 0.50758 0.10867 0.0
C563 C 0.05746 0.49315 0.11511 0.0
H564 H 0.5693 0.02577 0.11349 0.0
H565 H 0.50511 0.0757 0.08861 0.0
H566 H 0.54326 0.98734 0.10404 0.0
H567 H 0.4792 0.03681 0.07761 0.0
H568 H 0.43168 0.96964 0.11773 0.0
H569 H 0.45746 0.00764 0.10607 0.0
H570 H 0.52003 0.95714 0.07799 0.0
H571 H 0.49441 0.91869 0.09116 0.0
C572 C 0.5498 0.02856 0.10526 0.0
C573 C 0.53894 0.05382 0.10263 0.0
C574 C 0.53489 0.00636 0.09946 0.0
C575 C 0.50883 0.00884 0.09054 0.0
C576 C 0.49895 0.03417 0.0852 0.0
C577 C 0.51381 0.05648 0.09138 0.0
C578 C 0.45079 0.96651 0.10872 0.0
C579 C 0.46133 0.94113 0.10613 0.0
C580 C 0.46553 0.98846 0.10163 0.0
C581 C 0.49111 0.98561 0.09145 0.0
C582 C 0.50067 0.96009 0.08644 0.0
C583 C 0.48597 0.93803 0.09389 0.0
H584 H 0.91894 0.49158 0.40819 0.0
H585 H 0.97254 0.43183 0.37992 0.0
H586 H 0.95621 0.5194 0.42013 0.0
H587 H 0.00936 0.45978 0.39052 0.0
H588 H 0.07495 0.5111 0.40803 0.0
H589 H 0.03765 0.48302 0.41913 0.0
H590 H 0.98455 0.54417 0.39289 0.0
H591 H 0.02146 0.57236 0.38319 0.0
C592 C 0.93864 0.48426 0.40484 0.0
C593 C 0.94277 0.4598 0.39251 0.0
C594 C 0.96 0.50021 0.41159 0.0
C595 C 0.98585 0.4921 0.40585 0.0
C596 C 0.98987 0.46673 0.39551 0.0
C597 C 0.96861 0.45074 0.38907 0.0
C598 C 0.05527 0.51871 0.4053 0.0
C599 C 0.05116 0.54366 0.39408 0.0
C600 C 0.03388 0.5026 0.41155 0.0
C601 C 0.00804 0.51106 0.40635 0.0
C602 C 0.00405 0.53692 0.39736 0.0
C603 C 0.02534 0.55307 0.39145 0.0
H604 H 0.56924 0.96193 0.40444 0.0
H605 H 0.49529 0.92887 0.37857 0.0
H606 H 0.54731 0.00313 0.41524 0.0
H607 H 0.4735 0.97015 0.38878 0.0
H608 H 0.50777 0.07646 0.37388 0.0
H609 H 0.53061 0.03586 0.38447 0.0
H610 H 0.45957 0.00433 0.41937 0.0
H611 H 0.43653 0.04483 0.40818 0.0
C612 C 0.5482 0.96329 0.40155 0.0
C613 C 0.53405 0.94238 0.39008 0.0
C614 C 0.53568 0.98692 0.40769 0.0
C615 C 0.50878 0.99011 0.40241 0.0
C616 C 0.49423 0.96835 0.39326 0.0
C617 C 0.50674 0.94467 0.38724 0.0
C618 C 0.49721 0.06118 0.3845 0.0
C619 C 0.47022 0.06355 0.38958 0.0
C620 C 0.51035 0.03789 0.39073 0.0
C621 C 0.49674 0.01664 0.40231 0.0
C622 C 0.47041 0.02012 0.40989 0.0
C623 C 0.45726 0.04334 0.40355 0.0
H624 H 0.93142 0.52508 0.882 0.0
H625 H 0.99155 0.5784 0.90995 0.0
H626 H 0.95889 0.48809 0.89323 0.0
H627 H 0.01887 0.54098 0.9226 0.0
H628 H 0.07144 0.47511 0.88638 0.0
H629 H 0.04355 0.51226 0.89592 0.0
H630 H 0.98181 0.4597 0.92182 0.0
H631 H 0.00959 0.42214 0.91082 0.0
C632 C 0.9503 0.52891 0.89124 0.0
C633 C 0.95963 0.55471 0.89436 0.0
C634 C 0.96602 0.50756 0.89805 0.0
C635 C 0.99138 0.51144 0.90847 0.0
C636 C -0.0003 0.53728 0.91398 0.0
C637 C 0.98404 0.55873 0.90682 0.0
C638 C 0.05208 0.47139 0.89454 0.0
C639 C 0.04242 0.44565 0.89706 0.0
C640 C 0.0361 0.49283 0.90037 0.0
C641 C 0.01015 0.48908 0.90919 0.0
C642 C 0.00145 0.4633 0.91435 0.0
C643 C 0.01738 0.44176 0.90816 0.0
H644 H 0.45803 0.93615 0.90676 0.0
H645 H 0.4216 0.00557 0.87357 0.0
H646 H 0.49713 0.9616 0.91771 0.0
H647 H 0.46086 0.03078 0.88361 0.0
H648 H 0.53237 0.07406 0.90204 0.0
H649 H 0.49256 0.04975 0.913 0.0
H650 H 0.53049 0.97765 0.88843 0.0
H651 H 0.5704 0.00182 0.87841 0.0
C652 C 0.45821 0.95697 0.90225 0.0
C653 C 0.43702 0.9688 0.88878 0.0
C654 C 0.48064 0.97151 0.90843 0.0
C655 C 0.48239 0.99809 0.90103 0.0
C656 C 0.46021 0.0104 0.88978 0.0
C657 C 0.43767 0.99591 0.88384 0.0
C658 C 0.53235 0.05291 0.89963 0.0
C659 C 0.55427 0.03987 0.88883 0.0
C660 C 0.50952 0.03901 0.90582 0.0
C661 C 0.50811 0.01184 0.90109 0.0
C662 C 0.53086 0.99853 0.89252 0.0
C663 C 0.55377 0.01241 0.88659 0.0
H664 H 0.9336 0.46002 0.59328 0.0
H665 H 0.00479 0.42408 0.62286 0.0
H666 H 0.95811 0.49947 0.58145 0.0
H667 H 0.02911 0.46368 0.61196 0.0
H668 H 0.07067 0.53591 0.59355 0.0
H669 H 0.0464 0.49614 0.58231 0.0
H670 H 0.97487 0.53256 0.61066 0.0
H671 H 0.99895 0.57244 0.62098 0.0
C672 C 0.95459 0.46039 0.59679 0.0
C673 C 0.96722 0.43925 0.60955 0.0
C674 C 0.9686 0.48301 0.59009 0.0
C675 C 0.99544 0.485 0.59629 0.0
C676 C 0.00849 0.46285 0.60673 0.0
C677 C 0.99451 0.44012 0.61317 0.0
C678 C 0.04963 0.5356 0.59671 0.0
C679 C 0.03676 0.55702 0.60871 0.0
C680 C 0.03575 0.51279 0.59035 0.0
C681 C 0.00881 0.51092 0.59611 0.0
C682 C 0.99558 0.53329 0.60577 0.0
C683 C 0.00941 0.55618 0.61189 0.0
H684 H 0.47382 0.0697 0.6187 0.0
H685 H 0.42089 0.00849 0.59249 0.0
H686 H 0.51096 0.04189 0.60889 0.0
H687 H 0.45846 0.98078 0.58129 0.0
H688 H 0.52394 0.9295 0.61987 0.0
H689 H 0.48688 0.9572 0.60938 0.0
H690 H 0.53963 0.01791 0.5814 0.0
H691 H 0.5771 0.99035 0.59328 0.0
C692 C 0.47011 0.05049 0.61014 0.0
C693 C 0.44437 0.041 0.60711 0.0
C694 C 0.49155 0.03457 0.60415 0.0
C695 C 0.4878 0.00883 0.59469 0.0
C696 C 0.46204 0.00027 0.58921 0.0
C697 C 0.4405 0.01616 0.59552 0.0
C698 C 0.52772 0.9486 0.61109 0.0
C699 C 0.55349 0.95804 0.60814 0.0
C700 C 0.50634 0.96445 0.60471 0.0
C701 C 0.51017 0.99006 0.59493 0.0
C702 C 0.53597 0.99854 0.58955 0.0
C703 C 0.55746 0.98273 0.59626 0.0
H704 H 0.21418 0.31717 0.24923 0.0
H705 H 0.21079 0.26944 0.17771 0.0
H706 H 0.24892 0.28891 0.26724 0.0
H707 H 0.24611 0.24191 0.19492 0.0
H708 H 0.26741 0.17602 0.25353 0.0
H709 H 0.24319 0.20999 0.23009 0.0
H710 H 0.29304 0.26931 0.26561 0.0
H711 H 0.31689 0.23487 0.29003 0.0
C712 C 0.22161 0.30121 0.237 0.0
C713 C 0.20979 0.29517 0.21231 0.0
C714 C 0.24149 0.28505 0.24723 0.0
C715 C 0.24988 0.26283 0.23273 0.0
C716 C 0.2396 0.25845 0.2069 0.0
C717 C 0.21953 0.27426 0.19695 0.0
C718 C 0.27341 0.19629 0.25609 0.0
C719 C 0.29423 0.20281 0.27324 0.0
C720 C 0.25971 0.21579 0.24244 0.0
C721 C 0.2664 0.2424 0.24567 0.0
C722 C 0.28749 0.24898 0.26265 0.0
C723 C 0.30132 0.22931 0.27635 0.0
H724 H 0.77414 0.27541 0.32719 0.0
H725 H 0.77854 0.31919 0.25313 0.0
H726 H 0.73939 0.24813 0.30837 0.0
H727 H 0.74424 0.29125 0.23373 0.0
H728 H 0.67747 0.23684 0.20758 0.0
H729 H 0.69896 0.2723 0.23294 0.0
H730 H 0.74613 0.21457 0.27451 0.0
H731 H 0.72449 0.17968 0.24979 0.0
C732 C 0.76714 0.27955 0.30706 0.0
C733 C 0.77901 0.29916 0.29147 0.0
C734 C 0.74737 0.26389 0.29623 0.0
C735 C 0.73951 0.26715 0.26937 0.0
C736 C 0.74981 0.28831 0.25452 0.0
C737 C 0.76944 0.30429 0.26556 0.0
C738 C 0.69194 0.23189 0.2227 0.0
C739 C 0.69917 0.20561 0.22705 0.0
C740 C 0.70438 0.25211 0.23699 0.0
C741 C 0.72404 0.24624 0.25592 0.0
C742 C 0.73066 0.21981 0.26055 0.0
C743 C 0.71846 0.19979 0.24622 0.0
H744 H 0.67112 0.78185 0.25334 0.0
H745 H 0.72922 0.77966 0.31644 0.0
H746 H 0.6933 0.74533 0.23067 0.0
H747 H 0.75132 0.74329 0.29395 0.0
H748 H 0.78367 0.67308 0.25259 0.0
H749 H 0.7485 0.69617 0.27657 0.0
H750 H 0.7384 0.74788 0.20855 0.0
H751 H 0.77347 0.72495 0.18482 0.0
C752 C 0.68808 0.77296 0.2628 0.0
C753 C 0.69851 0.78344 0.2866 0.0
C754 C 0.70083 0.75221 0.24978 0.0
C755 C 0.724 0.74151 0.26057 0.0
C756 C 0.73332 0.7509 0.28534 0.0
C757 C 0.72082 0.77184 0.2981 0.0
C758 C 0.77326 0.68879 0.2425 0.0
C759 C 0.78114 0.69731 0.21692 0.0
C760 C 0.7533 0.70207 0.25624 0.0
C761 C 0.74077 0.7238 0.2444 0.0
C762 C 0.74746 0.73101 0.21803 0.0
C763 C 0.76764 0.71803 0.20453 0.0
H764 H 0.21383 0.67268 0.24727 0.0
H765 H 0.22409 0.72336 0.31597 0.0
H766 H 0.24955 0.69567 0.22401 0.0
H767 H 0.25977 0.7461 0.29302 0.0
H768 H 0.32775 0.78002 0.24912 0.0
H769 H 0.30518 0.74319 0.27088 0.0
H770 H 0.24694 0.74351 0.20779 0.0
H771 H 0.26936 0.78024 0.18627 0.0
C772 C 0.22439 0.68807 0.25772 0.0
C773 C 0.21635 0.69635 0.28333 0.0
C774 C 0.24467 0.70128 0.24441 0.0
C775 C 0.25738 0.72265 0.25673 0.0
C776 C 0.25057 0.72951 0.28317 0.0
C777 C 0.23006 0.71664 0.29623 0.0
C778 C 0.31064 0.77159 0.23951 0.0
C779 C 0.30022 0.78284 0.21607 0.0
C780 C 0.29768 0.75065 0.25199 0.0
C781 C 0.27436 0.74051 0.24098 0.0
C782 C 0.26506 0.75067 0.21653 0.0
C783 C 0.27774 0.77181 0.20434 0.0
H784 H 0.72259 0.77333 0.68553 0.0
H785 H 0.71782 0.82795 0.75167 0.0
H786 H 0.75903 0.7509 0.70748 0.0
H787 H 0.75444 0.80539 0.77384 0.0
H788 H 0.77542 0.72344 0.81584 0.0
H789 H 0.75258 0.75944 0.79356 0.0
H790 H 0.80544 0.75308 0.726 0.0
H791 H 0.82841 0.71692 0.74852 0.0
C792 C 0.72989 0.78095 0.70445 0.0
C793 C 0.71749 0.80231 0.71694 0.0
C794 C 0.75087 0.76825 0.71692 0.0
C795 C 0.75954 0.77639 0.74239 0.0
C796 C 0.74812 0.79875 0.7542 0.0
C797 C 0.72732 0.81173 0.74147 0.0
C798 C 0.7826 0.73028 0.79657 0.0
C799 C 0.80361 0.7175 0.78386 0.0
C800 C 0.76967 0.751 0.7839 0.0
C801 C 0.77722 0.75903 0.75803 0.0
C802 C 0.79925 0.74725 0.74595 0.0
C803 C 0.81247 0.72671 0.75887 0.0
H804 H 0.1749 0.71301 0.75219 0.0
H805 H 0.22918 0.71864 0.68586 0.0
H806 H 0.19833 0.74853 0.77535 0.0
H807 H 0.25239 0.7541 0.70872 0.0
H808 H 0.2855 0.82366 0.75123 0.0
H809 H 0.24966 0.80054 0.7284 0.0
H810 H 0.24516 0.7456 0.79436 0.0
H811 H 0.28091 0.7686 0.817 0.0
C812 C 0.19127 0.72247 0.74221 0.0
C813 C 0.20031 0.71323 0.7173 0.0
C814 C 0.20473 0.74263 0.75548 0.0
C815 C 0.22714 0.75403 0.7438 0.0
C816 C 0.235 0.74592 0.71805 0.0
C817 C 0.22185 0.72553 0.70505 0.0
C818 C 0.27623 0.80717 0.76118 0.0
C819 C 0.28584 0.79787 0.78585 0.0
C820 C 0.25587 0.79388 0.74808 0.0
C821 C 0.24465 0.77132 0.75965 0.0
C822 C 0.25319 0.76312 0.78514 0.0
C823 C 0.27376 0.77613 0.79799 0.0
H824 H 0.27217 0.22421 0.68408 0.0
H825 H 0.28223 0.17209 0.75168 0.0
H826 H 0.23678 0.24677 0.70763 0.0
H827 H 0.24667 0.19474 0.77543 0.0
H828 H 0.22733 0.27774 0.81591 0.0
H829 H 0.24913 0.24129 0.79333 0.0
H830 H 0.19178 0.24469 0.72947 0.0
H831 H 0.16986 0.28133 0.75229 0.0
C832 C 0.26623 0.21713 0.7037 0.0
C833 C 0.27983 0.19646 0.71609 0.0
C834 C 0.24585 0.22989 0.71711 0.0
C835 C 0.239 0.22253 0.74339 0.0
C836 C 0.25157 0.20079 0.75518 0.0
C837 C 0.27177 0.18774 0.74155 0.0
C838 C 0.21897 0.27018 0.79743 0.0
C839 C 0.19698 0.28225 0.7858 0.0
C840 C 0.23131 0.24919 0.78461 0.0
C841 C 0.22216 0.24018 0.75962 0.0
C842 C 0.19921 0.25128 0.74873 0.0
C843 C 0.1866 0.27209 0.76183 0.0
H844 H 0.7725 0.28089 0.68565 0.0
H845 H 0.82861 0.28273 0.75061 0.0
H846 H 0.74961 0.24452 0.70726 0.0
H847 H 0.80556 0.24623 0.77246 0.0
H848 H 0.72384 0.22585 0.81549 0.0
H849 H 0.75972 0.24876 0.79308 0.0
H850 H 0.7517 0.19734 0.72452 0.0
H851 H 0.71569 0.17426 0.74719 0.0
C852 C 0.7803 0.27299 0.70424 0.0
C853 C 0.80226 0.28452 0.71651 0.0
C854 C 0.76734 0.25205 0.71649 0.0
C855 C 0.77582 0.24257 0.74153 0.0
C856 C 0.79867 0.25318 0.75313 0.0
C857 C 0.81191 0.27392 0.7406 0.0
C858 C 0.73028 0.21899 0.79595 0.0
C859 C 0.71711 0.19834 0.78303 0.0
C860 C 0.75093 0.23195 0.78321 0.0
C861 C 0.75846 0.22483 0.75705 0.0
C862 C 0.74625 0.20318 0.7447 0.0
C863 C 0.72581 0.18991 0.75769 0.0
H864 H 0.1071 0.33437 0.06305 0.0
H865 H 0.18497 0.36566 0.07405 0.0
H866 H 0.11585 0.32786 0.0154 0.0
H867 H 0.19427 0.35867 0.0262 0.0
H868 H 0.17274 0.39081 0.93982 0.0
H869 H 0.1777 0.38273 0.98782 0.0
H870 H 0.13919 0.30758 0.97857 0.0
H871 H 0.13377 0.31626 0.93043 0.0
C872 C 0.12643 0.33899 0.05528 0.0
C873 C 0.14532 0.35063 0.07192 0.0
C874 C 0.13157 0.33514 0.02803 0.0
C875 C 0.15573 0.34294 0.01687 0.0
C876 C 0.17536 0.35275 0.03411 0.0
C877 C 0.17017 0.35657 0.06146 0.0
C878 C 0.16615 0.37222 0.94802 0.0
C879 C 0.15275 0.35422 0.93174 0.0
C880 C 0.16907 0.36748 0.97548 0.0
C881 C 0.15855 0.34461 0.98716 0.0
C882 C 0.14716 0.32555 0.97027 0.0
C883 C 0.14424 0.33036 0.94273 0.0
H884 H 0.63701 0.18575 0.92775 0.0
H885 H 0.66506 0.10635 0.9364 0.0
H886 H 0.64356 0.19312 0.97608 0.0
H887 H 0.67179 0.1135 0.98443 0.0
H888 H 0.68576 0.13169 0.07013 0.0
H889 H 0.69404 0.13805 0.02193 0.0
H890 H 0.61704 0.17264 0.01319 0.0
H891 H 0.60897 0.16611 0.06108 0.0
C892 C 0.64544 0.17024 0.93991 0.0
C893 C 0.65054 0.14552 0.92867 0.0
C894 C 0.64907 0.17436 0.96748 0.0
C895 C 0.65808 0.15385 0.98406 0.0
C896 C 0.66514 0.1298 0.9722 0.0
C897 C 0.66122 0.12563 0.94477 0.0
C898 C 0.6711 0.14147 0.05793 0.0
C899 C 0.64678 0.14844 0.06901 0.0
C900 C 0.67572 0.14498 0.03042 0.0
C901 C 0.65614 0.15573 0.01376 0.0
C902 C 0.63264 0.16462 0.02549 0.0
C903 C 0.62795 0.16082 0.05285 0.0
H904 H 0.81419 0.63695 0.92701 0.0
H905 H 0.89383 0.66336 0.93829 0.0
H906 H 0.80563 0.64313 0.97521 0.0
H907 H 0.88547 0.66977 0.98615 0.0
H908 H 0.86476 0.6844 0.0711 0.0
H909 H 0.8599 0.69268 0.02273 0.0
H910 H 0.82492 0.61596 0.01297 0.0
H911 H 0.83004 0.60785 0.06108 0.0
C912 C 0.82951 0.64494 0.93971 0.0
C913 C 0.85462 0.6497 0.92925 0.0
C914 C 0.82471 0.64835 0.96721 0.0
C915 C 0.8449 0.65686 0.98445 0.0
C916 C 0.86941 0.66352 0.97338 0.0
C917 C 0.87427 0.65978 0.94605 0.0
C918 C 0.85521 0.66981 0.05862 0.0
C919 C 0.8477 0.64556 0.0695 0.0
C920 C 0.85256 0.67443 0.03102 0.0
C921 C 0.84212 0.65493 0.01407 0.0
C922 C 0.83271 0.6315 0.02552 0.0
C923 C 0.83568 0.62679 0.05299 0.0
H924 H 0.36051 0.81731 0.92917 0.0
H925 H 0.331 0.89588 0.94047 0.0
H926 H 0.35463 0.80848 0.97729 0.0
H927 H 0.32518 0.88734 0.98836 0.0
H928 H 0.3133 0.86699 0.07383 0.0
H929 H 0.3043 0.86212 0.02559 0.0
H930 H 0.38104 0.82754 0.01461 0.0
H931 H 0.38978 0.8325 0.06254 0.0
C932 C 0.35198 0.83235 0.94187 0.0
C933 C 0.34635 0.85729 0.93142 0.0
C934 C 0.34875 0.82739 0.96934 0.0
C935 C 0.33963 0.84728 0.98665 0.0
C936 C 0.33197 0.87151 0.97558 0.0
C937 C 0.33542 0.87649 0.94823 0.0
C938 C 0.32775 0.85755 0.06111 0.0
C939 C 0.35219 0.85013 0.0716 0.0
C940 C 0.32272 0.8549 0.03357 0.0
C941 C 0.34202 0.84458 0.01627 0.0
C942 C 0.36564 0.83526 0.02737 0.0
C943 C 0.37072 0.83816 0.05476 0.0
H944 H 0.18182 0.63204 0.42782 0.0
H945 H 0.1082 0.67247 0.43831 0.0
H946 H 0.19159 0.63784 0.47567 0.0
H947 H 0.11727 0.67763 0.4861 0.0
H948 H 0.13582 0.68576 0.5717 0.0
H949 H 0.14199 0.69433 0.52361 0.0
H950 H 0.17255 0.61569 0.51351 0.0
H951 H 0.16696 0.60772 0.56139 0.0
C952 C 0.16812 0.64281 0.44031 0.0
C953 C 0.14423 0.65169 0.42969 0.0
C954 C 0.17355 0.64596 0.46769 0.0
C955 C 0.15507 0.6579 0.48486 0.0
C956 C 0.1321 0.66859 0.47356 0.0
C957 C 0.12677 0.66551 0.44622 0.0
C958 C 0.14474 0.67079 0.5592 0.0
C959 C 0.15084 0.64609 0.56994 0.0
C960 C 0.14806 0.67554 0.5317 0.0
C961 C 0.15746 0.6556 0.51458 0.0
C962 C 0.16555 0.63164 0.526 0.0
C963 C 0.16224 0.62696 0.55341 0.0
H964 H 0.39007 0.17333 0.43875 0.0
H965 H 0.31698 0.13217 0.4274 0.0
H966 H 0.3807 0.17779 0.48666 0.0
H967 H 0.30739 0.13649 0.47555 0.0
H968 H 0.33749 0.10465 0.56026 0.0
H969 H 0.33118 0.11286 0.51239 0.0
H970 H 0.35205 0.19431 0.5242 0.0
H971 H 0.35823 0.18586 0.57241 0.0
C972 C 0.37154 0.1661 0.44649 0.0
C973 C 0.35424 0.15238 0.42968 0.0
C974 C 0.3661 0.1687 0.47386 0.0
C975 C 0.34337 0.15732 0.48491 0.0
C976 C 0.32511 0.1453 0.46759 0.0
C977 C 0.33048 0.14296 0.44011 0.0
C978 C 0.33986 0.12447 0.55268 0.0
C979 C 0.34839 0.14463 0.56974 0.0
C980 C 0.33614 0.12924 0.52533 0.0
C981 C 0.34123 0.15423 0.5145 0.0
C982 C 0.34809 0.17485 0.532 0.0
C983 C 0.3515 0.17009 0.5595 0.0
H984 H 0.83756 0.39525 0.44088 0.0
H985 H 0.86039 0.31464 0.42852 0.0
H986 H 0.83192 0.38685 0.48884 0.0
H987 H 0.85503 0.30605 0.47682 0.0
H988 H 0.89279 0.32886 0.56226 0.0
H989 H 0.88369 0.32418 0.51429 0.0
H990 H 0.8084 0.36169 0.52551 0.0
H991 H 0.81766 0.36613 0.57373 0.0
C992 C 0.84056 0.37552 0.44845 0.0
C993 C 0.84939 0.35556 0.4313 0.0
C994 C 0.83724 0.37064 0.47583 0.0
C995 C 0.84309 0.34579 0.48659 0.0
C996 C 0.85043 0.32538 0.46905 0.0
C997 C 0.85339 0.33021 0.44151 0.0
C998 C 0.87392 0.33515 0.55453 0.0
C999 C 0.85588 0.34781 0.5714 0.0
C1000 C 0.86865 0.33244 0.52714 0.0
C1001 C 0.84539 0.34271 0.51614 0.0
C1002 C 0.82652 0.3537 0.53347 0.0
C1003 C 0.8317 0.35612 0.56098 0.0
H1004 H 0.60648 0.83043 0.44009 0.0
H1005 H 0.68273 0.86588 0.43048 0.0
H1006 H 0.6147 0.82466 0.48808 0.0
H1007 H 0.69119 0.86024 0.47873 0.0
H1008 H 0.66256 0.89236 0.56398 0.0
H1009 H 0.66888 0.88483 0.51598 0.0
H1010 H 0.64155 0.80501 0.52538 0.0
H1011 H 0.63539 0.81278 0.57372 0.0
C1012 C 0.62536 0.83617 0.44824 0.0
C1013 C 0.64397 0.84864 0.43189 0.0
C1014 C 0.63016 0.83279 0.47564 0.0
C1015 C 0.65355 0.84214 0.4872 0.0
C1016 C 0.67294 0.85298 0.47037 0.0
C1017 C 0.66821 0.85609 0.44284 0.0
C1018 C 0.65882 0.87297 0.55585 0.0
C1019 C 0.64854 0.85312 0.57226 0.0
C1020 C 0.66251 0.86858 0.52843 0.0
C1021 C 0.6556 0.84434 0.51688 0.0
C1022 C 0.64693 0.82391 0.53374 0.0
C1023 C 0.64355 0.82825 0.56132 0.0
H1024 H 0.1636 0.57632 0.26497 0.0
H1025 H 0.1242 0.52695 0.32294 0.0
H1026 H 0.17132 0.53795 0.23643 0.0
H1027 H 0.13197 0.48878 0.29451 0.0
H1028 H 0.15858 0.42121 0.24301 0.0
H1029 H 0.16538 0.45888 0.27289 0.0
H1030 H 0.13881 0.5111 0.21017 0.0
H1031 H 0.13194 0.4737 0.18052 0.0
C1032 C 0.1571 0.55724 0.27192 0.0
C1033 C 0.143 0.55476 0.2961 0.0
C1034 C 0.16143 0.53529 0.25552 0.0
C1035 C 0.15211 0.51037 0.26313 0.0
C1036 C 0.13959 0.50764 0.28815 0.0
C1037 C 0.13497 0.52959 0.30436 0.0
C1038 C 0.15481 0.44079 0.23542 0.0
C1039 C 0.14448 0.44445 0.20948 0.0
C1040 C 0.15855 0.46233 0.25258 0.0
C1041 C 0.15248 0.48794 0.24394 0.0
C1042 C 0.14388 0.49167 0.21739 0.0
C1043 C 0.13978 0.47019 0.20043 0.0
H1044 H 0.52829 0.15219 0.17123 0.0
H1045 H 0.57614 0.14354 0.24208 0.0
H1046 H 0.49031 0.16215 0.19911 0.0
H1047 H 0.53807 0.15056 0.27027 0.0
H1048 H 0.46854 0.16352 0.3206 0.0
H1049 H 0.50566 0.17151 0.29087 0.0
H1050 H 0.45947 0.143 0.22372 0.0
H1051 H 0.422 0.13802 0.25322 0.0
C1052 C 0.53059 0.15256 0.19288 0.0
C1053 C 0.55504 0.14712 0.20456 0.0
C1054 C 0.50871 0.15787 0.20902 0.0
C1055 C 0.51047 0.15663 0.23732 0.0
C1056 C 0.53547 0.15224 0.24878 0.0
C1057 C 0.55751 0.14798 0.23258 0.0
C1058 C 0.46631 0.15986 0.29926 0.0
C1059 C 0.44251 0.15029 0.28909 0.0
C1060 C 0.48774 0.16396 0.28215 0.0
C1061 C 0.48627 0.15731 0.25463 0.0
C1062 C 0.46178 0.14885 0.24447 0.0
C1063 C 0.4401 0.1458 0.26143 0.0
H1064 H 0.86604 0.47406 0.32203 0.0
H1065 H 0.83248 0.42297 0.26182 0.0
H1066 H 0.85916 0.51173 0.29272 0.0
H1067 H 0.8257 0.46088 0.23231 0.0
H1068 H 0.86776 0.52597 0.17917 0.0
H1069 H 0.85969 0.48857 0.20851 0.0
H1070 H 0.82644 0.54032 0.26823 0.0
H1071 H 0.83442 0.57797 0.2387 0.0
C1072 C 0.85667 0.47095 0.30274 0.0
C1073 C 0.85005 0.44548 0.29414 0.0
C1074 C 0.85258 0.49259 0.286 0.0
C1075 C 0.84205 0.48926 0.26012 0.0
C1076 C 0.83403 0.464 0.25208 0.0
C1077 C 0.83778 0.44233 0.26903 0.0
C1078 C 0.85826 0.52937 0.19833 0.0
C1079 C 0.852 0.555 0.20671 0.0
C1080 C 0.85345 0.50787 0.21507 0.0
C1081 C 0.84254 0.5115 0.24074 0.0
C1082 C 0.83503 0.53696 0.24861 0.0
C1083 C 0.8395 0.55849 0.23166 0.0
H1084 H 0.53033 0.83954 0.32546 0.0
H1085 H 0.57682 0.85805 0.2557 0.0
H1086 H 0.49277 0.82993 0.29687 0.0
H1087 H 0.53897 0.85144 0.22706 0.0
H1088 H 0.46962 0.83975 0.17608 0.0
H1089 H 0.5075 0.83087 0.20451 0.0
H1090 H 0.46066 0.84976 0.27467 0.0
H1091 H 0.42263 0.85564 0.24618 0.0
C1092 C 0.53243 0.84137 0.30387 0.0
C1093 C 0.55635 0.84946 0.2927 0.0
C1094 C 0.51077 0.8363 0.28736 0.0
C1095 C 0.51214 0.84047 0.25934 0.0
C1096 C 0.53671 0.84748 0.24827 0.0
C1097 C 0.5586 0.85149 0.26473 0.0
C1098 C 0.46747 0.84112 0.19769 0.0
C1099 C 0.44331 0.84829 0.20901 0.0
C1100 C 0.4893 0.83649 0.21412 0.0
C1101 C 0.48781 0.84019 0.24221 0.0
C1102 C 0.46304 0.84619 0.2534 0.0
C1103 C 0.44102 0.84977 0.23702 0.0
H1104 H 0.8661 0.52573 0.82029 0.0
H1105 H 0.84055 0.57913 0.75811 0.0
H1106 H 0.85885 0.48873 0.79032 0.0
H1107 H 0.83317 0.54183 0.72795 0.0
H1108 H 0.87421 0.47458 0.67728 0.0
H1109 H 0.86572 0.51234 0.70594 0.0
H1110 H 0.82746 0.462 0.76376 0.0
H1111 H 0.83611 0.42397 0.73507 0.0
C1112 C 0.85838 0.52953 0.80037 0.0
C1113 C 0.8542 0.5554 0.79147 0.0
C1114 C 0.85402 0.50826 0.78324 0.0
C1115 C 0.84561 0.51234 0.75668 0.0
C1116 C 0.83989 0.5381 0.74825 0.0
C1117 C 0.84397 0.55944 0.76556 0.0
C1118 C 0.86353 0.47157 0.69586 0.0
C1119 C 0.85619 0.44617 0.70406 0.0
C1120 C 0.85847 0.4933 0.71221 0.0
C1121 C 0.8461 0.49015 0.73724 0.0
C1122 C 0.83728 0.46499 0.7447 0.0
C1123 C 0.84214 0.44324 0.7282 0.0
H1124 H 0.57935 0.84045 0.74486 0.0
H1125 H 0.5252 0.86349 0.68234 0.0
H1126 H 0.54236 0.83337 0.77549 0.0
H1127 H 0.48849 0.85642 0.71276 0.0
H1128 H 0.42469 0.83275 0.76901 0.0
H1129 H 0.46284 0.82447 0.74042 0.0
H1130 H 0.51207 0.86644 0.79652 0.0
H1131 H 0.47413 0.87467 0.82507 0.0
C1132 C 0.55956 0.84336 0.73745 0.0
C1133 C 0.5552 0.85279 0.71127 0.0
C1134 C 0.53841 0.83945 0.75503 0.0
C1135 C 0.51252 0.84449 0.74659 0.0
C1136 C 0.50814 0.85214 0.71984 0.0
C1137 C 0.52923 0.85637 0.70244 0.0
C1138 C 0.44375 0.83969 0.77556 0.0
C1139 C 0.44629 0.85467 0.79916 0.0
C1140 C 0.46557 0.83503 0.75911 0.0
C1141 C 0.49042 0.84497 0.76611 0.0
C1142 C 0.49326 0.85834 0.79065 0.0
C1143 C 0.47144 0.86323 0.80693 0.0
H1144 H 0.13399 0.47449 0.82194 0.0
H1145 H 0.16153 0.42079 0.76089 0.0
H1146 H 0.1414 0.51127 0.79176 0.0
H1147 H 0.16913 0.45789 0.73055 0.0
H1148 H 0.1288 0.52399 0.67811 0.0
H1149 H 0.13692 0.4867 0.70745 0.0
H1150 H 0.17293 0.53818 0.76577 0.0
H1151 H 0.1646 0.57577 0.73637 0.0
C1152 C 0.14215 0.47058 0.80223 0.0
C1153 C 0.14684 0.44468 0.79368 0.0
C1154 C 0.14661 0.49173 0.78499 0.0
C1155 C 0.15569 0.4875 0.75869 0.0
C1156 C 0.16189 0.46173 0.75064 0.0
C1157 C 0.15767 0.44051 0.76805 0.0
C1158 C 0.13889 0.52736 0.69697 0.0
C1159 C 0.1457 0.55294 0.70507 0.0
C1160 C 0.14376 0.50589 0.7137 0.0
C1161 C 0.1554 0.50949 0.73903 0.0
C1162 C 0.16368 0.53484 0.74646 0.0
C1163 C 0.15901 0.55635 0.72958 0.0
H1164 H 0.42144 0.13947 0.74592 0.0
H1165 H 0.46708 0.15766 0.67548 0.0
H1166 H 0.45987 0.14547 0.77398 0.0
H1167 H 0.50528 0.16652 0.7035 0.0
H1168 H 0.5758 0.14002 0.7534 0.0
H1169 H 0.53733 0.14573 0.72534 0.0
H1170 H 0.49178 0.16654 0.79579 0.0
H1171 H 0.53002 0.15799 0.82382 0.0
C1172 C 0.43961 0.14583 0.73663 0.0
C1173 C 0.44143 0.14802 0.70864 0.0
C1174 C 0.46182 0.14947 0.75273 0.0
C1175 C 0.48629 0.1562 0.74128 0.0
C1176 C 0.48731 0.16041 0.71326 0.0
C1177 C 0.4653 0.15577 0.6971 0.0
C1178 C 0.55759 0.14627 0.76269 0.0
C1179 C 0.55575 0.14846 0.79068 0.0
C1180 C 0.53536 0.14973 0.74658 0.0
C1181 C 0.51084 0.1563 0.75803 0.0
C1182 C 0.50979 0.16054 0.78605 0.0
C1183 C 0.53183 0.15608 0.80221 0.0
H1184 H 0.66273 0.07795 0.76034 0.0
H1185 H 0.62845 0.02748 0.82066 0.0
H1186 H 0.67049 0.03964 0.73163 0.0
H1187 H 0.63624 0.98945 0.79214 0.0
H1188 H 0.66206 0.9224 0.74041 0.0
H1189 H 0.66948 0.96072 0.76918 0.0
H1190 H 0.63792 0.01114 0.70735 0.0
H1191 H 0.63048 0.97308 0.67874 0.0
C1192 C 0.65739 0.05866 0.76773 0.0
C1193 C 0.64469 0.0558 0.79264 0.0
C1194 C 0.66174 0.03675 0.75125 0.0
C1195 C 0.65386 0.01153 0.75956 0.0
C1196 C 0.64276 0.00854 0.78523 0.0
C1197 C 0.63811 0.0304 0.8015 0.0
C1198 C 0.6573 0.94173 0.73274 0.0
C1199 C 0.64538 0.94466 0.70743 0.0
C1200 C 0.66143 0.96365 0.74926 0.0
C1201 C 0.65411 0.98893 0.74061 0.0
C1202 C 0.64397 0.99199 0.71455 0.0
C1203 C 0.63953 0.97012 0.69821 0.0
H1204 H 0.97485 0.62954 0.82123 0.0
H1205 H 0.92377 0.66398 0.76153 0.0
H1206 H 0.01253 0.6372 0.79225 0.0
H1207 H 0.96174 0.67176 0.73243 0.0
H1208 H 0.02681 0.63224 0.67803 0.0
H1209 H 0.98945 0.63984 0.70742 0.0
H1210 H 0.04148 0.6693 0.76896 0.0
H1211 H 0.07915 0.66159 0.7394 0.0
C1212 C 0.97172 0.63924 0.80212 0.0
C1213 C 0.94622 0.64583 0.79356 0.0
C1214 C 0.9934 0.64383 0.78557 0.0
C1215 C 0.99014 0.65492 0.75993 0.0
C1216 C 0.96484 0.66294 0.75198 0.0
C1217 C 0.94312 0.65861 0.76871 0.0
C1218 C 0.0303 0.64083 0.69762 0.0
C1219 C 0.05602 0.64599 0.70649 0.0
C1220 C 0.00881 0.64538 0.71442 0.0
C1221 C 0.01248 0.655 0.74062 0.0
C1222 C 0.03805 0.66164 0.74896 0.0
C1223 C 0.05961 0.65735 0.73198 0.0
H1224 H 0.35524 0.07604 0.7448 0.0
H1225 H 0.34944 0.02923 0.67293 0.0
H1226 H 0.34966 0.03707 0.77216 0.0
H1227 H 0.341 0.99026 0.69991 0.0
H1228 H 0.36636 0.92171 0.75311 0.0
H1229 H 0.36125 0.95979 0.72435 0.0
H1230 H 0.32912 0.00347 0.79154 0.0
H1231 H 0.33709 0.96581 0.82059 0.0
C1232 C 0.35175 0.0574 0.7349 0.0
C1233 C 0.35291 0.05553 0.70684 0.0
C1234 C 0.34835 0.03485 0.7506 0.0
C1235 C 0.34515 0.00991 0.73857 0.0
C1236 C 0.34434 0.00865 0.71024 0.0
C1237 C 0.34877 0.03108 0.69461 0.0
C1238 C 0.35777 0.93939 0.76146 0.0
C1239 C 0.35212 0.94094 0.78894 0.0
C1240 C 0.35465 0.9614 0.74493 0.0
C1241 C 0.34502 0.98536 0.75537 0.0
C1242 C 0.33748 0.98598 0.78267 0.0
C1243 C 0.34158 0.96423 0.79936 0.0
H1244 H 0.92221 0.33921 0.7431 0.0
H1245 H 0.97569 0.36586 0.68148 0.0
H1246 H 0.95945 0.33182 0.77336 0.0
H1247 H 0.01259 0.35857 0.71153 0.0
H1248 H 0.07734 0.33455 0.76651 0.0
H1249 H 0.03935 0.32672 0.7375 0.0
H1250 H 0.98902 0.36382 0.79612 0.0
H1251 H 0.02674 0.37152 0.82506 0.0
C1252 C 0.9419 0.34293 0.7358 0.0
C1253 C 0.94595 0.35341 0.71 0.0
C1254 C 0.9632 0.33883 0.75317 0.0
C1255 C 0.98898 0.34476 0.74492 0.0
C1256 C 0.99307 0.35356 0.71849 0.0
C1257 C 0.97184 0.35794 0.7013 0.0
C1258 C 0.05808 0.34049 0.77347 0.0
C1259 C 0.05515 0.35398 0.79795 0.0
C1260 C 0.03634 0.33612 0.75679 0.0
C1261 C 0.01119 0.34486 0.76439 0.0
C1262 C 0.00804 0.35665 0.78972 0.0
C1263 C 0.02975 0.36125 0.80624 0.0
H1264 H 0.37285 0.97216 0.18145 0.0
H1265 H 0.34398 0.92012 0.24332 0.0
H1266 H 0.36719 0.00953 0.21151 0.0
H1267 H 0.33859 0.95771 0.27361 0.0
H1268 H 0.33974 0.07433 0.26643 0.0
H1269 H 0.33295 0.03602 0.23766 0.0
H1270 H 0.37376 0.98743 0.29516 0.0
H1271 H 0.38078 0.02566 0.32388 0.0
C1272 C 0.36485 0.96877 0.20132 0.0
C1273 C 0.35898 0.94318 0.21006 0.0
C1274 C 0.36148 0.9902 0.21849 0.0
C1275 C 0.35253 0.9865 0.24492 0.0
C1276 C 0.34563 0.96107 0.25336 0.0
C1277 C 0.34857 0.93962 0.23598 0.0
C1278 C 0.34682 0.05539 0.27321 0.0
C1279 C 0.36102 0.0531 0.29735 0.0
C1280 C 0.34301 0.03351 0.25667 0.0
C1281 C 0.35293 0.00881 0.26412 0.0
C1282 C 0.36572 0.00619 0.289 0.0
C1283 C 0.36987 0.02813 0.30536 0.0
H1284 H 0.02591 0.35033 0.17333 0.0
H1285 H 0.07242 0.35994 0.24499 0.0
H1286 H 0.98733 0.34101 0.20061 0.0
H1287 H 0.03376 0.35341 0.27253 0.0
H1288 H 0.96343 0.33953 0.32138 0.0
H1289 H 0.00104 0.33153 0.29225 0.0
H1290 H 0.95646 0.36146 0.22463 0.0
H1291 H 0.91849 0.3666 0.2535 0.0
C1292 C 0.02778 0.35034 0.19502 0.0
C1293 C 0.05201 0.35583 0.20713 0.0
C1294 C 0.00559 0.34536 0.21079 0.0
C1295 C 0.00687 0.34692 0.23908 0.0
C1296 C 0.03161 0.35147 0.251 0.0
C1297 C 0.05395 0.35544 0.23521 0.0
C1298 C 0.96166 0.34351 0.30006 0.0
C1299 C 0.9382 0.35352 0.28954 0.0
C1300 C 0.98334 0.33938 0.28333 0.0
C1301 C 0.98241 0.34639 0.25589 0.0
C1302 C 0.95827 0.35532 0.24535 0.0
C1303 C 0.93634 0.35846 0.26193 0.0
H1304 H 0.62483 0.97303 0.32244 0.0
H1305 H 0.66014 0.92161 0.26357 0.0
H1306 H 0.6315 0.01036 0.29256 0.0
H1307 H 0.66668 0.95912 0.23355 0.0
H1308 H 0.62574 0.02347 0.17864 0.0
H1309 H 0.63266 0.98638 0.20877 0.0
H1310 H 0.6652 0.03859 0.26848 0.0
H1311 H 0.65841 0.07587 0.23821 0.0
C1312 C 0.63447 0.96977 0.30332 0.0
C1313 C 0.64175 0.94431 0.29529 0.0
C1314 C 0.63844 0.99121 0.28627 0.0
C1315 C 0.64948 0.98763 0.26066 0.0
C1316 C 0.65797 0.9624 0.25312 0.0
C1317 C 0.65434 0.94097 0.27037 0.0
C1318 C 0.63483 0.02701 0.19799 0.0
C1319 C 0.64131 0.05266 0.20612 0.0
C1320 C 0.63896 0.00572 0.21519 0.0
C1321 C 0.64936 0.00961 0.24103 0.0
C1322 C 0.65699 0.03506 0.24872 0.0
C1323 C 0.65321 0.05636 0.23134 0.0
H1324 H 0.96772 0.65442 0.17322 0.0
H1325 H 0.92122 0.6407 0.24416 0.0
H1326 H 0.00599 0.66347 0.20107 0.0
H1327 H 0.95964 0.64694 0.27214 0.0
H1328 H 0.02965 0.66009 0.32183 0.0
H1329 H 0.99191 0.66845 0.29302 0.0
H1330 H 0.03727 0.64263 0.22419 0.0
H1331 H 0.07533 0.63709 0.25289 0.0
C1332 C 0.96577 0.65353 0.19489 0.0
C1333 C 0.94164 0.64694 0.20662 0.0
C1334 C 0.9878 0.65831 0.21096 0.0
C1335 C 0.9865 0.65544 0.23914 0.0
C1336 C 0.9618 0.64989 0.25074 0.0
C1337 C 0.9396 0.6461 0.23468 0.0
C1338 C 0.03154 0.65705 0.30036 0.0
C1339 C 0.05527 0.64806 0.28947 0.0
C1340 C 0.00979 0.6614 0.28378 0.0
C1341 C 0.01091 0.65568 0.25605 0.0
C1342 C 0.03528 0.64776 0.24518 0.0
C1343 C 0.05727 0.64439 0.26165 0.0
loop_
_geom_bond_atom_site_label_1
_geom_bond_atom_site_label_2
_geom_bond_distance
_geom_bond_site_symmetry_2
_ccdc_geom_bond_type
Co0 O3 1.970 . S
Co0 N17 1.989 . S
Co0 O25 1.967 . S
Co0 O32 1.920 . S
Co1 O4 1.966 . S
Co1 N10 2.022 . S
Co1 N18 1.993 . S
Co1 O26 1.941 . S
C2 O3 1.258 . S
C2 O4 1.263 . S
O3 Co0 1.970 . S
O3 C2 1.258 . S
O4 Co1 1.966 . S
O4 C2 1.263 . S
C5 O6 1.235 . S
C5 O32 1.289 . S
O6 C5 1.235 . S
C7 C9 1.400 . S
C7 N10 1.351 . S
C7 C12 1.501 . S
C8 C9 1.387 . S
C8 N11 1.341 . S
C9 C7 1.400 . S
C9 C8 1.387 . S
N10 Co1 2.022 . S
N10 C7 1.351 . S
N10 N11 1.365 . S
N11 C8 1.341 . S
N11 N10 1.365 . S
N11 H31 0.862 . S
C12 C7 1.501 . S
C12 H13 0.961 . S
C12 H14 0.961 . S
C12 H15 0.960 . S
H13 C12 0.961 . S
H14 C12 0.961 . S
H15 C12 0.960 . S
C16 N17 1.342 . S
C16 C20 1.401 . S
C16 C21 1.499 . S
N17 Co0 1.989 . S
N17 C16 1.342 . S
N17 N18 1.388 . S
N18 Co1 1.993 . S
N18 N17 1.388 . S
N18 C19 1.346 . S
C19 N18 1.346 . S
C19 C20 1.396 . S
C19 C29 1.510 . S
C20 C16 1.401 . S
C20 C19 1.396 . S
C21 C16 1.499 . S
C21 H22 0.959 . S
C21 H23 0.960 . S
C21 H24 0.961 . S
H22 C21 0.959 . S
H23 C21 0.960 . S
H24 C21 0.961 . S
O25 Co0 1.967 . S
O25 C33 1.258 . S
O26 Co1 1.941 . S
O26 C33 1.266 . S
H27 C29 0.959 . S
H28 C29 0.961 . S
C29 C19 1.510 . S
C29 H27 0.959 . S
C29 H28 0.961 . S
C29 H30 0.960 . S
H30 C29 0.960 . S
H31 N11 0.862 . S
O32 Co0 1.920 . S
O32 C5 1.289 . S
C33 O25 1.258 . S
C33 O26 1.266 . S
Co34 O37 1.970 . S
Co34 N51 1.989 . S
Co34 O59 1.967 . S
Co34 O66 1.920 . S
Co35 O38 1.966 . S
Co35 N44 2.022 . S
Co35 N52 1.993 . S
Co35 O60 1.941 . S
C36 O37 1.258 . S
C36 O38 1.263 . S
O37 Co34 1.970 . S
O37 C36 1.258 . S
O38 Co35 1.966 . S
O38 C36 1.263 . S
C39 O40 1.235 . S
C39 O66 1.289 . S
O40 C39 1.235 . S
C41 C43 1.400 . S
C41 N44 1.351 . S
C41 C46 1.501 . S
C42 C43 1.387 . S
C42 N45 1.341 . S
C43 C41 1.400 . S
C43 C42 1.387 . S
N44 Co35 2.022 . S
N44 C41 1.351 . S
N44 N45 1.365 . S
N45 C42 1.341 . S
N45 N44 1.365 . S
N45 H65 0.862 . S
C46 C41 1.501 . S
C46 H47 0.961 . S
C46 H48 0.961 . S
C46 H49 0.960 . S
H47 C46 0.961 . S
H48 C46 0.961 . S
H49 C46 0.960 . S
C50 N51 1.342 . S
C50 C54 1.401 . S
C50 C55 1.499 . S
N51 Co34 1.989 . S
N51 C50 1.342 . S
N51 N52 1.388 . S
N52 Co35 1.993 . S
N52 N51 1.388 . S
N52 C53 1.346 . S
C53 N52 1.346 . S
C53 C54 1.396 . S
C53 C63 1.510 . S
C54 C50 1.401 . S
C54 C53 1.396 . S
C55 C50 1.499 . S
C55 H56 0.959 . S
C55 H57 0.960 . S
C55 H58 0.961 . S
H56 C55 0.959 . S
H57 C55 0.960 . S
H58 C55 0.961 . S
O59 Co34 1.967 . S
O59 C67 1.258 . S
O60 Co35 1.941 . S
O60 C67 1.266 . S
H61 C63 0.959 . S
H62 C63 0.961 . S
C63 C53 1.510 . S
C63 H61 0.959 . S
C63 H62 0.961 . S
C63 H64 0.960 . S
H64 C63 0.960 . S
H65 N45 0.862 . S
O66 Co34 1.920 . S
O66 C39 1.289 . S
C67 O59 1.258 . S
C67 O60 1.266 . S
Co68 O71 1.970 . S
Co68 N85 1.989 . S
Co68 O93 1.967 . S
Co68 O100 1.920 . S
Co69 O72 1.966 . S
Co69 N78 2.022 . S
Co69 N86 1.993 . S
Co69 O94 1.941 . S
C70 O71 1.258 . S
C70 O72 1.263 . S
O71 Co68 1.970 . S
O71 C70 1.258 . S
O72 Co69 1.966 . S
O72 C70 1.263 . S
C73 O74 1.235 . S
C73 O100 1.289 . S
O74 C73 1.235 . S
C75 C77 1.400 . S
C75 N78 1.351 . S
C75 C80 1.501 . S
C76 C77 1.387 . S
C76 N79 1.341 . S
C77 C75 1.400 . S
C77 C76 1.387 . S
N78 Co69 2.022 . S
N78 C75 1.351 . S
N78 N79 1.365 . S
N79 C76 1.341 . S
N79 N78 1.365 . S
N79 H99 0.862 . S
C80 C75 1.501 . S
C80 H81 0.961 . S
C80 H82 0.961 . S
C80 H83 0.960 . S
H81 C80 0.961 . S
H82 C80 0.961 . S
H83 C80 0.960 . S
C84 N85 1.342 . S
C84 C88 1.401 . S
C84 C89 1.499 . S
N85 Co68 1.989 . S
N85 C84 1.342 . S
N85 N86 1.388 . S
N86 Co69 1.993 . S
N86 N85 1.388 . S
N86 C87 1.346 . S
C87 N86 1.346 . S
C87 C88 1.396 . S
C87 C97 1.510 . S
C88 C84 1.401 . S
C88 C87 1.396 . S
C89 C84 1.499 . S
C89 H90 0.959 . S
C89 H91 0.960 . S
C89 H92 0.961 . S
H90 C89 0.959 . S
H91 C89 0.960 . S
H92 C89 0.961 . S
O93 Co68 1.967 . S
O93 C101 1.258 . S
O94 Co69 1.941 . S
O94 C101 1.266 . S
H95 C97 0.959 . S
H96 C97 0.961 . S
C97 C87 1.510 . S
C97 H95 0.959 . S
C97 H96 0.961 . S
C97 H98 0.960 . S
H98 C97 0.960 . S
H99 N79 0.862 . S
O100 Co68 1.920 . S
O100 C73 1.289 . S
C101 O93 1.258 . S
C101 O94 1.266 . S
Co102 O105 1.970 . S
Co102 N119 1.989 . S
Co102 O127 1.967 . S
Co102 O134 1.920 . S
Co103 O106 1.966 . S
Co103 N112 2.022 . S
Co103 N120 1.993 . S
Co103 O128 1.941 . S
C104 O105 1.258 . S
C104 O106 1.263 . S
O105 Co102 1.970 . S
O105 C104 1.258 . S
O106 Co103 1.966 . S
O106 C104 1.263 . S
C107 O108 1.235 . S
C107 O134 1.289 . S
O108 C107 1.235 . S
C109 C111 1.400 . S
C109 N112 1.351 . S
C109 C114 1.501 . S
C110 C111 1.387 . S
C110 N113 1.341 . S
C111 C109 1.400 . S
C111 C110 1.387 . S
N112 Co103 2.022 . S
N112 C109 1.351 . S
N112 N113 1.365 . S
N113 C110 1.341 . S
N113 N112 1.365 . S
N113 H133 0.862 . S
C114 C109 1.501 . S
C114 H115 0.961 . S
C114 H116 0.961 . S
C114 H117 0.960 . S
H115 C114 0.961 . S
H116 C114 0.961 . S
H117 C114 0.960 . S
C118 N119 1.342 . S
C118 C122 1.401 . S
C118 C123 1.499 . S
N119 Co102 1.989 . S
N119 C118 1.342 . S
N119 N120 1.388 . S
N120 Co103 1.993 . S
N120 N119 1.388 . S
N120 C121 1.346 . S
C121 N120 1.346 . S
C121 C122 1.396 . S
C121 C131 1.510 . S
C122 C118 1.401 . S
C122 C121 1.396 . S
C123 C118 1.499 . S
C123 H124 0.959 . S
C123 H125 0.960 . S
C123 H126 0.961 . S
H124 C123 0.959 . S
H125 C123 0.960 . S
H126 C123 0.961 . S
O127 Co102 1.967 . S
O127 C135 1.258 . S
O128 Co103 1.941 . S
O128 C135 1.266 . S
H129 C131 0.959 . S
H130 C131 0.961 . S
C131 C121 1.510 . S
C131 H129 0.959 . S
C131 H130 0.961 . S
C131 H132 0.960 . S
H132 C131 0.960 . S
H133 N113 0.862 . S
O134 Co102 1.920 . S
O134 C107 1.289 . S
C135 O127 1.258 . S
C135 O128 1.266 . S
Co136 O139 1.970 . S
Co136 N153 1.989 . S
Co136 O161 1.967 . S
Co136 O168 1.920 . S
Co137 O140 1.966 . S
Co137 N146 2.022 . S
Co137 N154 1.993 . S
Co137 O162 1.941 . S
C138 O139 1.258 . S
C138 O140 1.263 . S
O139 Co136 1.970 . S
O139 C138 1.258 . S
O140 Co137 1.966 . S
O140 C138 1.263 . S
C141 O142 1.235 . S
C141 O168 1.289 . S
O142 C141 1.235 . S
C143 C145 1.400 . S
C143 N146 1.351 . S
C143 C148 1.501 . S
C144 C145 1.387 . S
C144 N147 1.341 . S
C145 C143 1.400 . S
C145 C144 1.387 . S
N146 Co137 2.022 . S
N146 C143 1.351 . S
N146 N147 1.365 . S
N147 C144 1.341 . S
N147 N146 1.365 . S
N147 H167 0.862 . S
C148 C143 1.501 . S
C148 H149 0.961 . S
C148 H150 0.961 . S
C148 H151 0.960 . S
H149 C148 0.961 . S
H150 C148 0.961 . S
H151 C148 0.960 . S
C152 N153 1.342 . S
C152 C156 1.401 . S
C152 C157 1.499 . S
N153 Co136 1.989 . S
N153 C152 1.342 . S
N153 N154 1.388 . S
N154 Co137 1.993 . S
N154 N153 1.388 . S
N154 C155 1.346 . S
C155 N154 1.346 . S
C155 C156 1.396 . S
C155 C165 1.510 . S
C156 C152 1.401 . S
C156 C155 1.396 . S
C157 C152 1.499 . S
C157 H158 0.959 . S
C157 H159 0.960 . S
C157 H160 0.961 . S
H158 C157 0.959 . S
H159 C157 0.960 . S
H160 C157 0.961 . S
O161 Co136 1.967 . S
O161 C169 1.258 . S
O162 Co137 1.941 . S
O162 C169 1.266 . S
H163 C165 0.959 . S
H164 C165 0.961 . S
C165 C155 1.510 . S
C165 H163 0.959 . S
C165 H164 0.961 . S
C165 H166 0.960 . S
H166 C165 0.960 . S
H167 N147 0.862 . S
O168 Co136 1.920 . S
O168 C141 1.289 . S
C169 O161 1.258 . S
C169 O162 1.266 . S
Co170 O173 1.970 . S
Co170 N187 1.989 . S
Co170 O195 1.967 . S
Co170 O202 1.920 . S
Co171 O174 1.966 . S
Co171 N180 2.022 . S
Co171 N188 1.993 . S
Co171 O196 1.941 . S
C172 O173 1.258 . S
C172 O174 1.263 . S
O173 Co170 1.970 . S
O173 C172 1.258 . S
O174 Co171 1.966 . S
O174 C172 1.263 . S
C175 O176 1.235 . S
C175 O202 1.289 . S
O176 C175 1.235 . S
C177 C179 1.400 . S
C177 N180 1.351 . S
C177 C182 1.501 . S
C178 C179 1.387 . S
C178 N181 1.341 . S
C179 C177 1.400 . S
C179 C178 1.387 . S
N180 Co171 2.022 . S
N180 C177 1.351 . S
N180 N181 1.365 . S
N181 C178 1.341 . S
N181 N180 1.365 . S
N181 H201 0.862 . S
C182 C177 1.501 . S
C182 H183 0.961 . S
C182 H184 0.961 . S
C182 H185 0.960 . S
H183 C182 0.961 . S
H184 C182 0.961 . S
H185 C182 0.960 . S
C186 N187 1.342 . S
C186 C190 1.401 . S
C186 C191 1.499 . S
N187 Co170 1.989 . S
N187 C186 1.342 . S
N187 N188 1.388 . S
N188 Co171 1.993 . S
N188 N187 1.388 . S
N188 C189 1.346 . S
C189 N188 1.346 . S
C189 C190 1.396 . S
C189 C199 1.510 . S
C190 C186 1.401 . S
C190 C189 1.396 . S
C191 C186 1.499 . S
C191 H192 0.959 . S
C191 H193 0.960 . S
C191 H194 0.961 . S
H192 C191 0.959 . S
H193 C191 0.960 . S
H194 C191 0.961 . S
O195 Co170 1.967 . S
O195 C203 1.258 . S
O196 Co171 1.941 . S
O196 C203 1.266 . S
H197 C199 0.959 . S
H198 C199 0.961 . S
C199 C189 1.510 . S
C199 H197 0.959 . S
C199 H198 0.961 . S
C199 H200 0.960 . S
H200 C199 0.960 . S
H201 N181 0.862 . S
O202 Co170 1.920 . S
O202 C175 1.289 . S
C203 O195 1.258 . S
C203 O196 1.266 . S
Co204 O207 1.970 . S
Co204 N221 1.989 . S
Co204 O229 1.967 . S
Co204 O236 1.920 . S
Co205 O208 1.966 . S
Co205 N214 2.022 . S
Co205 N222 1.993 . S
Co205 O230 1.941 . S
C206 O207 1.258 . S
C206 O208 1.263 . S
O207 Co204 1.970 . S
O207 C206 1.258 . S
O208 Co205 1.966 . S
O208 C206 1.263 . S
C209 O210 1.235 . S
C209 O236 1.289 . S
O210 C209 1.235 . S
C211 C213 1.400 . S
C211 N214 1.351 . S
C211 C216 1.501 . S
C212 C213 1.387 . S
C212 N215 1.341 . S
C213 C211 1.400 . S
C213 C212 1.387 . S
N214 Co205 2.022 . S
N214 C211 1.351 . S
N214 N215 1.365 . S
N215 C212 1.341 . S
N215 N214 1.365 . S
N215 H235 0.862 . S
C216 C211 1.501 . S
C216 H217 0.961 . S
C216 H218 0.961 . S
C216 H219 0.960 . S
H217 C216 0.961 . S
H218 C216 0.961 . S
H219 C216 0.960 . S
C220 N221 1.342 . S
C220 C224 1.401 . S
C220 C225 1.499 . S
N221 Co204 1.989 . S
N221 C220 1.342 . S
N221 N222 1.388 . S
N222 Co205 1.993 . S
N222 N221 1.388 . S
N222 C223 1.346 . S
C223 N222 1.346 . S
C223 C224 1.396 . S
C223 C233 1.510 . S
C224 C220 1.401 . S
C224 C223 1.396 . S
C225 C220 1.499 . S
C225 H226 0.959 . S
C225 H227 0.960 . S
C225 H228 0.961 . S
H226 C225 0.959 . S
H227 C225 0.960 . S
H228 C225 0.961 . S
O229 Co204 1.967 . S
O229 C237 1.258 . S
O230 Co205 1.941 . S
O230 C237 1.266 . S
H231 C233 0.959 . S
H232 C233 0.961 . S
C233 C223 1.510 . S
C233 H231 0.959 . S
C233 H232 0.961 . S
C233 H234 0.960 . S
H234 C233 0.960 . S
H235 N215 0.862 . S
O236 Co204 1.920 . S
O236 C209 1.289 . S
C237 O229 1.258 . S
C237 O230 1.266 . S
Co238 O241 1.970 . S
Co238 N255 1.989 . S
Co238 O263 1.967 . S
Co238 O270 1.920 . S
Co239 O242 1.966 . S
Co239 N248 2.022 . S
Co239 N256 1.993 . S
Co239 O264 1.941 . S
C240 O241 1.258 . S
C240 O242 1.263 . S
O241 Co238 1.970 . S
O241 C240 1.258 . S
O242 Co239 1.966 . S
O242 C240 1.263 . S
C243 O244 1.235 . S
C243 O270 1.289 . S
O244 C243 1.235 . S
C245 C247 1.400 . S
C245 N248 1.351 . S
C245 C250 1.501 . S
C246 C247 1.387 . S
C246 N249 1.341 . S
C247 C245 1.400 . S
C247 C246 1.387 . S
N248 Co239 2.022 . S
N248 C245 1.351 . S
N248 N249 1.365 . S
N249 C246 1.341 . S
N249 N248 1.365 . S
N249 H269 0.862 . S
C250 C245 1.501 . S
C250 H251 0.961 . S
C250 H252 0.961 . S
C250 H253 0.960 . S
H251 C250 0.961 . S
H252 C250 0.961 . S
H253 C250 0.960 . S
C254 N255 1.342 . S
C254 C258 1.401 . S
C254 C259 1.499 . S
N255 Co238 1.989 . S
N255 C254 1.342 . S
N255 N256 1.388 . S
N256 Co239 1.993 . S
N256 N255 1.388 . S
N256 C257 1.346 . S
C257 N256 1.346 . S
C257 C258 1.396 . S
C257 C267 1.510 . S
C258 C254 1.401 . S
C258 C257 1.396 . S
C259 C254 1.499 . S
C259 H260 0.959 . S
C259 H261 0.960 . S
C259 H262 0.961 . S
H260 C259 0.959 . S
H261 C259 0.960 . S
H262 C259 0.961 . S
O263 Co238 1.967 . S
O263 C271 1.258 . S
O264 Co239 1.941 . S
O264 C271 1.266 . S
H265 C267 0.959 . S
H266 C267 0.961 . S
C267 C257 1.510 . S
C267 H265 0.959 . S
C267 H266 0.961 . S
C267 H268 0.960 . S
H268 C267 0.960 . S
H269 N249 0.862 . S
O270 Co238 1.920 . S
O270 C243 1.289 . S
C271 O263 1.258 . S
C271 O264 1.266 . S
Co272 O275 1.970 . S
Co272 N289 1.989 . S
Co272 O297 1.967 . S
Co272 O304 1.920 . S
Co273 O276 1.966 . S
Co273 N282 2.022 . S
Co273 N290 1.993 . S
Co273 O298 1.941 . S
C274 O275 1.258 . S
C274 O276 1.263 . S
O275 Co272 1.970 . S
O275 C274 1.258 . S
O276 Co273 1.966 . S
O276 C274 1.263 . S
C277 O278 1.235 . S
C277 O304 1.289 . S
O278 C277 1.235 . S
C279 C281 1.400 . S
C279 N282 1.351 . S
C279 C284 1.501 . S
C280 C281 1.387 . S
C280 N283 1.341 . S
C281 C279 1.400 . S
C281 C280 1.387 . S
N282 Co273 2.022 . S
N282 C279 1.351 . S
N282 N283 1.365 . S
N283 C280 1.341 . S
N283 N282 1.365 . S
N283 H303 0.862 . S
C284 C279 1.501 . S
C284 H285 0.961 . S
C284 H286 0.961 . S
C284 H287 0.960 . S
H285 C284 0.961 . S
H286 C284 0.961 . S
H287 C284 0.960 . S
C288 N289 1.342 . S
C288 C292 1.401 . S
C288 C293 1.499 . S
N289 Co272 1.989 . S
N289 C288 1.342 . S
N289 N290 1.388 . S
N290 Co273 1.993 . S
N290 N289 1.388 . S
N290 C291 1.346 . S
C291 N290 1.346 . S
C291 C292 1.396 . S
C291 C301 1.510 . S
C292 C288 1.401 . S
C292 C291 1.396 . S
C293 C288 1.499 . S
C293 H294 0.959 . S
C293 H295 0.960 . S
C293 H296 0.961 . S
H294 C293 0.959 . S
H295 C293 0.960 . S
H296 C293 0.961 . S
O297 Co272 1.967 . S
O297 C305 1.258 . S
O298 Co273 1.941 . S
O298 C305 1.266 . S
H299 C301 0.959 . S
H300 C301 0.961 . S
C301 C291 1.510 . S
C301 H299 0.959 . S
C301 H300 0.961 . S
C301 H302 0.960 . S
H302 C301 0.960 . S
H303 N283 0.862 . S
O304 Co272 1.920 . S
O304 C277 1.289 . S
C305 O297 1.258 . S
C305 O298 1.266 . S
Co306 O309 1.970 . S
Co306 N323 1.989 . S
Co306 O331 1.967 . S
Co306 O338 1.920 . S
Co307 O310 1.966 . S
Co307 N316 2.022 . S
Co307 N324 1.993 . S
Co307 O332 1.941 . S
C308 O309 1.258 . S
C308 O310 1.263 . S
O309 Co306 1.970 . S
O309 C308 1.258 . S
O310 Co307 1.966 . S
O310 C308 1.263 . S
C311 O312 1.235 . S
C311 O338 1.289 . S
O312 C311 1.235 . S
C313 C315 1.400 . S
C313 N316 1.351 . S
C313 C318 1.501 . S
C314 C315 1.387 . S
C314 N317 1.341 . S
C315 C313 1.400 . S
C315 C314 1.387 . S
N316 Co307 2.022 . S
N316 C313 1.351 . S
N316 N317 1.365 . S
N317 C314 1.341 . S
N317 N316 1.365 . S
N317 H337 0.862 . S
C318 C313 1.501 . S
C318 H319 0.961 . S
C318 H320 0.961 . S
C318 H321 0.960 . S
H319 C318 0.961 . S
H320 C318 0.961 . S
H321 C318 0.960 . S
C322 N323 1.342 . S
C322 C326 1.401 . S
C322 C327 1.499 . S
N323 Co306 1.989 . S
N323 C322 1.342 . S
N323 N324 1.388 . S
N324 Co307 1.993 . S
N324 N323 1.388 . S
N324 C325 1.346 . S
C325 N324 1.346 . S
C325 C326 1.396 . S
C325 C335 1.510 . S
C326 C322 1.401 . S
C326 C325 1.396 . S
C327 C322 1.499 . S
C327 H328 0.959 . S
C327 H329 0.960 . S
C327 H330 0.961 . S
H328 C327 0.959 . S
H329 C327 0.960 . S
H330 C327 0.961 . S
O331 Co306 1.967 . S
O331 C339 1.258 . S
O332 Co307 1.941 . S
O332 C339 1.266 . S
H333 C335 0.959 . S
H334 C335 0.961 . S
C335 C325 1.510 . S
C335 H333 0.959 . S
C335 H334 0.961 . S
C335 H336 0.960 . S
H336 C335 0.960 . S
H337 N317 0.862 . S
O338 Co306 1.920 . S
O338 C311 1.289 . S
C339 O331 1.258 . S
C339 O332 1.266 . S
Co340 O343 1.970 . S
Co340 N357 1.989 . S
Co340 O365 1.967 . S
Co340 O372 1.920 . S
Co341 O344 1.966 . S
Co341 N350 2.022 . S
Co341 N358 1.993 . S
Co341 O366 1.941 . S
C342 O343 1.258 . S
C342 O344 1.263 . S
O343 Co340 1.970 . S
O343 C342 1.258 . S
O344 Co341 1.966 . S
O344 C342 1.263 . S
C345 O346 1.235 . S
C345 O372 1.289 . S
O346 C345 1.235 . S
C347 C349 1.400 . S
C347 N350 1.351 . S
C347 C352 1.501 . S
C348 C349 1.387 . S
C348 N351 1.341 . S
C349 C347 1.400 . S
C349 C348 1.387 . S
N350 Co341 2.022 . S
N350 C347 1.351 . S
N350 N351 1.365 . S
N351 C348 1.341 . S
N351 N350 1.365 . S
N351 H371 0.862 . S
C352 C347 1.501 . S
C352 H353 0.961 . S
C352 H354 0.961 . S
C352 H355 0.960 . S
H353 C352 0.961 . S
H354 C352 0.961 . S
H355 C352 0.960 . S
C356 N357 1.342 . S
C356 C360 1.401 . S
C356 C361 1.499 . S
N357 Co340 1.989 . S
N357 C356 1.342 . S
N357 N358 1.388 . S
N358 Co341 1.993 . S
N358 N357 1.388 . S
N358 C359 1.346 . S
C359 N358 1.346 . S
C359 C360 1.396 . S
C359 C369 1.510 . S
C360 C356 1.401 . S
C360 C359 1.396 . S
C361 C356 1.499 . S
C361 H362 0.959 . S
C361 H363 0.960 . S
C361 H364 0.961 . S
H362 C361 0.959 . S
H363 C361 0.960 . S
H364 C361 0.961 . S
O365 Co340 1.967 . S
O365 C373 1.258 . S
O366 Co341 1.941 . S
O366 C373 1.266 . S
H367 C369 0.959 . S
H368 C369 0.961 . S
C369 C359 1.510 . S
C369 H367 0.959 . S
C369 H368 0.961 . S
C369 H370 0.960 . S
H370 C369 0.960 . S
H371 N351 0.862 . S
O372 Co340 1.920 . S
O372 C345 1.289 . S
C373 O365 1.258 . S
C373 O366 1.266 . S
Co374 O377 1.970 . S
Co374 N391 1.989 . S
Co374 O399 1.967 . S
Co374 O406 1.920 . S
Co375 O378 1.966 . S
Co375 N384 2.022 . S
Co375 N392 1.993 . S
Co375 O400 1.941 . S
C376 O377 1.258 . S
C376 O378 1.263 . S
O377 Co374 1.970 . S
O377 C376 1.258 . S
O378 Co375 1.966 . S
O378 C376 1.263 . S
C379 O380 1.235 . S
C379 O406 1.289 . S
O380 C379 1.235 . S
C381 C383 1.400 . S
C381 N384 1.351 . S
C381 C386 1.501 . S
C382 C383 1.387 . S
C382 N385 1.341 . S
C383 C381 1.400 . S
C383 C382 1.387 . S
N384 Co375 2.022 . S
N384 C381 1.351 . S
N384 N385 1.365 . S
N385 C382 1.341 . S
N385 N384 1.365 . S
N385 H405 0.862 . S
C386 C381 1.501 . S
C386 H387 0.961 . S
C386 H388 0.961 . S
C386 H389 0.960 . S
H387 C386 0.961 . S
H388 C386 0.961 . S
H389 C386 0.960 . S
C390 N391 1.342 . S
C390 C394 1.401 . S
C390 C395 1.499 . S
N391 Co374 1.989 . S
N391 C390 1.342 . S
N391 N392 1.388 . S
N392 Co375 1.993 . S
N392 N391 1.388 . S
N392 C393 1.346 . S
C393 N392 1.346 . S
C393 C394 1.396 . S
C393 C403 1.510 . S
C394 C390 1.401 . S
C394 C393 1.396 . S
C395 C390 1.499 . S
C395 H396 0.959 . S
C395 H397 0.960 . S
C395 H398 0.961 . S
H396 C395 0.959 . S
H397 C395 0.960 . S
H398 C395 0.961 . S
O399 Co374 1.967 . S
O399 C407 1.258 . S
O400 Co375 1.941 . S
O400 C407 1.266 . S
H401 C403 0.959 . S
H402 C403 0.961 . S
C403 C393 1.510 . S
C403 H401 0.959 . S
C403 H402 0.961 . S
C403 H404 0.960 . S
H404 C403 0.960 . S
H405 N385 0.862 . S
O406 Co374 1.920 . S
O406 C379 1.289 . S
C407 O399 1.258 . S
C407 O400 1.266 . S
Co408 O411 1.970 . S
Co408 N425 1.989 . S
Co408 O433 1.967 . S
Co408 O440 1.920 . S
Co409 O412 1.966 . S
Co409 N418 2.022 . S
Co409 N426 1.993 . S
Co409 O434 1.941 . S
C410 O411 1.258 . S
C410 O412 1.263 . S
O411 Co408 1.970 . S
O411 C410 1.258 . S
O412 Co409 1.966 . S
O412 C410 1.263 . S
C413 O414 1.235 . S
C413 O440 1.289 . S
O414 C413 1.235 . S
C415 C417 1.400 . S
C415 N418 1.351 . S
C415 C420 1.501 . S
C416 C417 1.387 . S
C416 N419 1.341 . S
C417 C415 1.400 . S
C417 C416 1.387 . S
N418 Co409 2.022 . S
N418 C415 1.351 . S
N418 N419 1.365 . S
N419 C416 1.341 . S
N419 N418 1.365 . S
N419 H439 0.862 . S
C420 C415 1.501 . S
C420 H421 0.961 . S
C420 H422 0.961 . S
C420 H423 0.960 . S
H421 C420 0.961 . S
H422 C420 0.961 . S
H423 C420 0.960 . S
C424 N425 1.342 . S
C424 C428 1.401 . S
C424 C429 1.499 . S
N425 Co408 1.989 . S
N425 C424 1.342 . S
N425 N426 1.388 . S
N426 Co409 1.993 . S
N426 N425 1.388 . S
N426 C427 1.346 . S
C427 N426 1.346 . S
C427 C428 1.396 . S
C427 C437 1.510 . S
C428 C424 1.401 . S
C428 C427 1.396 . S
C429 C424 1.499 . S
C429 H430 0.959 . S
C429 H431 0.960 . S
C429 H432 0.961 . S
H430 C429 0.959 . S
H431 C429 0.960 . S
H432 C429 0.961 . S
O433 Co408 1.967 . S
O433 C441 1.258 . S
O434 Co409 1.941 . S
O434 C441 1.266 . S
H435 C437 0.959 . S
H436 C437 0.961 . S
C437 C427 1.510 . S
C437 H435 0.959 . S
C437 H436 0.961 . S
C437 H438 0.960 . S
H438 C437 0.960 . S
H439 N419 0.862 . S
O440 Co408 1.920 . S
O440 C413 1.289 . S
C441 O433 1.258 . S
C441 O434 1.266 . S
Co442 O445 1.970 . S
Co442 N459 1.989 . S
Co442 O467 1.967 . S
Co442 O474 1.920 . S
Co443 O446 1.966 . S
Co443 N452 2.022 . S
Co443 N460 1.993 . S
Co443 O468 1.941 . S
C444 O445 1.258 . S
C444 O446 1.263 . S
O445 Co442 1.970 . S
O445 C444 1.258 . S
O446 Co443 1.966 . S
O446 C444 1.263 . S
C447 O448 1.235 . S
C447 O474 1.289 . S
O448 C447 1.235 . S
C449 C451 1.400 . S
C449 N452 1.351 . S
C449 C454 1.501 . S
C450 C451 1.387 . S
C450 N453 1.341 . S
C451 C449 1.400 . S
C451 C450 1.387 . S
N452 Co443 2.022 . S
N452 C449 1.351 . S
N452 N453 1.365 . S
N453 C450 1.341 . S
N453 N452 1.365 . S
N453 H473 0.862 . S
C454 C449 1.501 . S
C454 H455 0.961 . S
C454 H456 0.961 . S
C454 H457 0.960 . S
H455 C454 0.961 . S
H456 C454 0.961 . S
H457 C454 0.960 . S
C458 N459 1.342 . S
C458 C462 1.401 . S
C458 C463 1.499 . S
N459 Co442 1.989 . S
N459 C458 1.342 . S
N459 N460 1.388 . S
N460 Co443 1.993 . S
N460 N459 1.388 . S
N460 C461 1.346 . S
C461 N460 1.346 . S
C461 C462 1.396 . S
C461 C471 1.510 . S
C462 C458 1.401 . S
C462 C461 1.396 . S
C463 C458 1.499 . S
C463 H464 0.959 . S
C463 H465 0.960 . S
C463 H466 0.961 . S
H464 C463 0.959 . S
H465 C463 0.960 . S
H466 C463 0.961 . S
O467 Co442 1.967 . S
O467 C475 1.258 . S
O468 Co443 1.941 . S
O468 C475 1.266 . S
H469 C471 0.959 . S
H470 C471 0.961 . S
C471 C461 1.510 . S
C471 H469 0.959 . S
C471 H470 0.961 . S
C471 H472 0.960 . S
H472 C471 0.960 . S
H473 N453 0.862 . S
O474 Co442 1.920 . S
O474 C447 1.289 . S
C475 O467 1.258 . S
C475 O468 1.266 . S
Co476 O479 1.970 . S
Co476 N493 1.989 . S
Co476 O501 1.967 . S
Co476 O508 1.920 . S
Co477 O480 1.966 . S
Co477 N486 2.022 . S
Co477 N494 1.993 . S
Co477 O502 1.941 . S
C478 O479 1.258 . S
C478 O480 1.263 . S
O479 Co476 1.970 . S
O479 C478 1.258 . S
O480 Co477 1.966 . S
O480 C478 1.263 . S
C481 O482 1.235 . S
C481 O508 1.289 . S
O482 C481 1.235 . S
C483 C485 1.400 . S
C483 N486 1.351 . S
C483 C488 1.501 . S
C484 C485 1.387 . S
C484 N487 1.341 . S
C485 C483 1.400 . S
C485 C484 1.387 . S
N486 Co477 2.022 . S
N486 C483 1.351 . S
N486 N487 1.365 . S
N487 C484 1.341 . S
N487 N486 1.365 . S
N487 H507 0.862 . S
C488 C483 1.501 . S
C488 H489 0.961 . S
C488 H490 0.961 . S
C488 H491 0.960 . S
H489 C488 0.961 . S
H490 C488 0.961 . S
H491 C488 0.960 . S
C492 N493 1.342 . S
C492 C496 1.401 . S
C492 C497 1.499 . S
N493 Co476 1.989 . S
N493 C492 1.342 . S
N493 N494 1.388 . S
N494 Co477 1.993 . S
N494 N493 1.388 . S
N494 C495 1.346 . S
C495 N494 1.346 . S
C495 C496 1.396 . S
C495 C505 1.510 . S
C496 C492 1.401 . S
C496 C495 1.396 . S
C497 C492 1.499 . S
C497 H498 0.959 . S
C497 H499 0.960 . S
C497 H500 0.961 . S
H498 C497 0.959 . S
H499 C497 0.960 . S
H500 C497 0.961 . S
O501 Co476 1.967 . S
O501 C509 1.258 . S
O502 Co477 1.941 . S
O502 C509 1.266 . S
H503 C505 0.959 . S
H504 C505 0.961 . S
C505 C495 1.510 . S
C505 H503 0.959 . S
C505 H504 0.961 . S
C505 H506 0.960 . S
H506 C505 0.960 . S
H507 N487 0.862 . S
O508 Co476 1.920 . S
O508 C481 1.289 . S
C509 O501 1.258 . S
C509 O502 1.266 . S
Co510 O513 1.970 . S
Co510 N527 1.989 . S
Co510 O535 1.967 . S
Co510 O542 1.920 . S
Co511 O514 1.966 . S
Co511 N520 2.022 . S
Co511 N528 1.993 . S
Co511 O536 1.941 . S
C512 O513 1.258 . S
C512 O514 1.263 . S
O513 Co510 1.970 . S
O513 C512 1.258 . S
O514 Co511 1.966 . S
O514 C512 1.263 . S
C515 O516 1.235 . S
C515 O542 1.289 . S
O516 C515 1.235 . S
C517 C519 1.400 . S
C517 N520 1.351 . S
C517 C522 1.501 . S
C518 C519 1.387 . S
C518 N521 1.341 . S
C519 C517 1.400 . S
C519 C518 1.387 . S
N520 Co511 2.022 . S
N520 C517 1.351 . S
N520 N521 1.365 . S
N521 C518 1.341 . S
N521 N520 1.365 . S
N521 H541 0.862 . S
C522 C517 1.501 . S
C522 H523 0.961 . S
C522 H524 0.961 . S
C522 H525 0.960 . S
H523 C522 0.961 . S
H524 C522 0.961 . S
H525 C522 0.960 . S
C526 N527 1.342 . S
C526 C530 1.401 . S
C526 C531 1.499 . S
N527 Co510 1.989 . S
N527 C526 1.342 . S
N527 N528 1.388 . S
N528 Co511 1.993 . S
N528 N527 1.388 . S
N528 C529 1.346 . S
C529 N528 1.346 . S
C529 C530 1.396 . S
C529 C539 1.510 . S
C530 C526 1.401 . S
C530 C529 1.396 . S
C531 C526 1.499 . S
C531 H532 0.959 . S
C531 H533 0.960 . S
C531 H534 0.961 . S
H532 C531 0.959 . S
H533 C531 0.960 . S
H534 C531 0.961 . S
O535 Co510 1.967 . S
O535 C543 1.258 . S
O536 Co511 1.941 . S
O536 C543 1.266 . S
H537 C539 0.959 . S
H538 C539 0.961 . S
C539 C529 1.510 . S
C539 H537 0.959 . S
C539 H538 0.961 . S
C539 H540 0.960 . S
H540 C539 0.960 . S
H541 N521 0.862 . S
O542 Co510 1.920 . S
O542 C515 1.289 . S
C543 O535 1.258 . S
C543 O536 1.266 . S
H544 C552 0.950 . S
H545 C557 0.950 . S
H546 C554 0.950 . S
H547 C556 0.950 . S
H548 C558 0.950 . S
H549 C560 0.950 . S
H550 C562 0.950 . S
H551 C563 0.950 . S
C552 H544 0.950 . S
C552 C553 1.386 . S
C552 C554 1.391 . S
C553 C552 1.386 . S
C553 C557 1.393 . S
C554 H546 0.950 . S
C554 C552 1.391 . S
C554 C555 1.400 . S
C555 C554 1.400 . S
C555 C556 1.398 . S
C555 C561 1.491 1_655 S
C556 H547 0.950 . S
C556 C555 1.398 . S
C556 C557 1.391 . S
C557 H545 0.950 . S
C557 C553 1.393 . S
C557 C556 1.391 . S
C558 H548 0.950 . S
C558 C559 1.386 . S
C558 C560 1.391 . S
C559 C558 1.386 . S
C559 C563 1.393 . S
C560 H549 0.950 . S
C560 C558 1.391 . S
C560 C561 1.400 . S
C561 C555 1.491 1_455 S
C561 C560 1.400 . S
C561 C562 1.398 . S
C562 H550 0.950 . S
C562 C561 1.398 . S
C562 C563 1.391 . S
C563 H551 0.950 . S
C563 C559 1.393 . S
C563 C562 1.391 . S
H564 C572 0.950 . S
H565 C577 0.950 . S
H566 C574 0.950 . S
H567 C576 0.950 . S
H568 C578 0.950 . S
H569 C580 0.950 . S
H570 C582 0.950 . S
H571 C583 0.950 . S
C572 H564 0.950 . S
C572 C573 1.386 . S
C572 C574 1.391 . S
C573 C572 1.386 . S
C573 C577 1.393 . S
C574 H566 0.950 . S
C574 C572 1.391 . S
C574 C575 1.400 . S
C575 C574 1.400 . S
C575 C576 1.398 . S
C575 C581 1.491 1_545 S
C576 H567 0.950 . S
C576 C575 1.398 . S
C576 C577 1.391 . S
C577 H565 0.950 . S
C577 C573 1.393 . S
C577 C576 1.391 . S
C578 H568 0.950 . S
C578 C579 1.386 . S
C578 C580 1.391 . S
C579 C578 1.386 . S
C579 C583 1.393 . S
C580 H569 0.950 . S
C580 C578 1.391 . S
C580 C581 1.400 . S
C581 C575 1.491 1_565 S
C581 C580 1.400 . S
C581 C582 1.398 . S
C582 H570 0.950 . S
C582 C581 1.398 . S
C582 C583 1.391 . S
C583 H571 0.950 . S
C583 C579 1.393 . S
C583 C582 1.391 . S
H584 C592 0.950 . S
H585 C597 0.950 . S
H586 C594 0.950 . S
H587 C596 0.950 . S
H588 C598 0.950 . S
H589 C600 0.950 . S
H590 C602 0.950 . S
H591 C603 0.950 . S
C592 H584 0.950 . S
C592 C593 1.386 . S
C592 C594 1.391 . S
C593 C592 1.386 . S
C593 C597 1.393 . S
C594 H586 0.950 . S
C594 C592 1.391 . S
C594 C595 1.400 . S
C595 C594 1.400 . S
C595 C596 1.398 . S
C595 C601 1.491 1_655 S
C596 H587 0.950 . S
C596 C595 1.398 . S
C596 C597 1.391 . S
C597 H585 0.950 . S
C597 C593 1.393 . S
C597 C596 1.391 . S
C598 H588 0.950 . S
C598 C599 1.386 . S
C598 C600 1.391 . S
C599 C598 1.386 . S
C599 C603 1.393 . S
C600 H589 0.950 . S
C600 C598 1.391 . S
C600 C601 1.400 . S
C601 C595 1.491 1_455 S
C601 C600 1.400 . S
C601 C602 1.398 . S
C602 H590 0.950 . S
C602 C601 1.398 . S
C602 C603 1.391 . S
C603 H591 0.950 . S
C603 C599 1.393 . S
C603 C602 1.391 . S
H604 C612 0.950 . S
H605 C617 0.950 . S
H606 C614 0.950 . S
H607 C616 0.950 . S
H608 C618 0.950 . S
H609 C620 0.950 . S
H610 C622 0.950 . S
H611 C623 0.950 . S
C612 H604 0.950 . S
C612 C613 1.386 . S
C612 C614 1.391 . S
C613 C612 1.386 . S
C613 C617 1.393 . S
C614 H606 0.950 . S
C614 C612 1.391 . S
C614 C615 1.400 . S
C615 C614 1.400 . S
C615 C616 1.398 . S
C615 C621 1.491 1_565 S
C616 H607 0.950 . S
C616 C615 1.398 . S
C616 C617 1.391 . S
C617 H605 0.950 . S
C617 C613 1.393 . S
C617 C616 1.391 . S
C618 H608 0.950 . S
C618 C619 1.386 . S
C618 C620 1.391 . S
C619 C618 1.386 . S
C619 C623 1.393 . S
C620 H609 0.950 . S
C620 C618 1.391 . S
C620 C621 1.400 . S
C621 C615 1.491 1_545 S
C621 C620 1.400 . S
C621 C622 1.398 . S
C622 H610 0.950 . S
C622 C621 1.398 . S
C622 C623 1.391 . S
C623 H611 0.950 . S
C623 C619 1.393 . S
C623 C622 1.391 . S
H624 C632 0.950 . S
H625 C637 0.950 . S
H626 C634 0.950 . S
H627 C636 0.950 . S
H628 C638 0.950 . S
H629 C640 0.950 . S
H630 C642 0.950 . S
H631 C643 0.950 . S
C632 H624 0.950 . S
C632 C633 1.386 . S
C632 C634 1.391 . S
C633 C632 1.386 . S
C633 C637 1.393 . S
C634 H626 0.950 . S
C634 C632 1.391 . S
C634 C635 1.400 . S
C635 C634 1.400 . S
C635 C636 1.398 1_655 S
C635 C641 1.491 1_655 S
C636 H627 0.950 . S
C636 C635 1.398 1_455 S
C636 C637 1.391 1_455 S
C637 H625 0.950 . S
C637 C633 1.393 . S
C637 C636 1.391 1_655 S
C638 H628 0.950 . S
C638 C639 1.386 . S
C638 C640 1.391 . S
C639 C638 1.386 . S
C639 C643 1.393 . S
C640 H629 0.950 . S
C640 C638 1.391 . S
C640 C641 1.400 . S
C641 C635 1.491 1_455 S
C641 C640 1.400 . S
C641 C642 1.398 1_455 S
C642 H630 0.950 . S
C642 C641 1.398 1_655 S
C642 C643 1.391 1_655 S
C643 H631 0.950 . S
C643 C639 1.393 . S
C643 C642 1.391 1_455 S
H644 C652 0.950 . S
H645 C657 0.950 1_545 S
H646 C654 0.950 . S
H647 C656 0.950 . S
H648 C658 0.950 . S
H649 C660 0.950 . S
H650 C662 0.950 . S
H651 C663 0.950 1_565 S
C652 H644 0.950 . S
C652 C653 1.386 . S
C652 C654 1.391 . S
C653 C652 1.386 . S
C653 C657 1.393 . S
C654 H646 0.950 . S
C654 C652 1.391 . S
C654 C655 1.400 . S
C655 C654 1.400 . S
C655 C656 1.398 1_565 S
C655 C661 1.491 1_565 S
C656 H647 0.950 . S
C656 C655 1.398 1_545 S
C656 C657 1.391 1_545 S
C657 H645 0.950 1_565 S
C657 C653 1.393 . S
C657 C656 1.391 1_565 S
C658 H648 0.950 . S
C658 C659 1.386 . S
C658 C660 1.391 . S
C659 C658 1.386 . S
C659 C663 1.393 . S
C660 H649 0.950 . S
C660 C658 1.391 . S
C660 C661 1.400 . S
C661 C655 1.491 1_545 S
C661 C660 1.400 . S
C661 C662 1.398 1_545 S
C662 H650 0.950 . S
C662 C661 1.398 1_565 S
C662 C663 1.391 1_565 S
C663 H651 0.950 1_545 S
C663 C659 1.393 . S
C663 C662 1.391 1_545 S
H664 C672 0.950 . S
H665 C677 0.950 1_455 S
H666 C674 0.950 . S
H667 C676 0.950 . S
H668 C678 0.950 . S
H669 C680 0.950 . S
H670 C682 0.950 . S
H671 C683 0.950 1_655 S
C672 H664 0.950 . S
C672 C673 1.386 . S
C672 C674 1.391 . S
C673 C672 1.386 . S
C673 C677 1.393 . S
C674 H666 0.950 . S
C674 C672 1.391 . S
C674 C675 1.400 . S
C675 C674 1.400 . S
C675 C676 1.398 1_655 S
C675 C681 1.491 1_655 S
C676 H667 0.950 . S
C676 C675 1.398 1_455 S
C676 C677 1.391 1_455 S
C677 H665 0.950 1_655 S
C677 C673 1.393 . S
C677 C676 1.391 1_655 S
C678 H668 0.950 . S
C678 C679 1.386 . S
C678 C680 1.391 . S
C679 C678 1.386 . S
C679 C683 1.393 . S
C680 H669 0.950 . S
C680 C678 1.391 . S
C680 C681 1.400 . S
C681 C675 1.491 1_455 S
C681 C680 1.400 . S
C681 C682 1.398 1_455 S
C682 H670 0.950 . S
C682 C681 1.398 1_655 S
C682 C683 1.391 1_655 S
C683 H671 0.950 1_455 S
C683 C679 1.393 . S
C683 C682 1.391 1_455 S
H684 C692 0.950 . S
H685 C697 0.950 . S
H686 C694 0.950 . S
H687 C696 0.939 1_565 S
H688 C698 0.950 . S
H689 C700 0.950 . S
H690 C702 0.939 1_545 S
H691 C703 0.950 . S
C692 H684 0.950 . S
C692 C693 1.386 . S
C692 C694 1.391 . S
C693 C692 1.386 . S
C693 C697 1.393 . S
C694 H686 0.950 . S
C694 C692 1.391 . S
C694 C695 1.400 . S
C695 C694 1.400 . S
C695 C696 1.402 . S
C695 C701 1.491 1_545 S
C696 H687 0.939 1_545 S
C696 C695 1.402 . S
C696 C697 1.398 . S
C697 H685 0.950 . S
C697 C693 1.393 . S
C697 C696 1.398 . S
C698 H688 0.950 . S
C698 C699 1.386 . S
C698 C700 1.391 . S
C699 C698 1.386 . S
C699 C703 1.393 . S
C700 H689 0.950 . S
C700 C698 1.391 . S
C700 C701 1.400 . S
C701 C695 1.491 1_565 S
C701 C700 1.400 . S
C701 C702 1.402 . S
C702 H690 0.939 1_565 S
C702 C701 1.402 . S
C702 C703 1.398 . S
C703 H691 0.950 . S
C703 C699 1.393 . S
C703 C702 1.398 . S
H704 C712 0.950 . S
H705 C717 0.950 . S
H706 C714 0.950 . S
H707 C716 0.950 . S
H708 C718 0.950 . S
H709 C720 0.950 . S
H710 C722 0.950 . S
H711 C723 0.950 . S
C712 H704 0.950 . S
C712 C713 1.386 . S
C712 C714 1.391 . S
C713 C712 1.386 . S
C713 C717 1.393 . S
C714 H706 0.950 . S
C714 C712 1.391 . S
C714 C715 1.400 . S
C715 C714 1.400 . S
C715 C716 1.398 . S
C715 C721 1.491 . S
C716 H707 0.950 . S
C716 C715 1.398 . S
C716 C717 1.391 . S
C717 H705 0.950 . S
C717 C713 1.393 . S
C717 C716 1.391 . S
C718 H708 0.950 . S
C718 C719 1.386 . S
C718 C720 1.391 . S
C719 C718 1.386 . S
C719 C723 1.393 . S
C720 H709 0.950 . S
C720 C718 1.391 . S
C720 C721 1.400 . S
C721 C715 1.491 . S
C721 C720 1.400 . S
C721 C722 1.398 . S
C722 H710 0.950 . S
C722 C721 1.398 . S
C722 C723 1.391 . S
C723 H711 0.950 . S
C723 C719 1.393 . S
C723 C722 1.391 . S
H724 C732 0.950 . S
H725 C737 0.950 . S
H726 C734 0.950 . S
H727 C736 0.950 . S
H728 C738 0.950 . S
H729 C740 0.950 . S
H730 C742 0.950 . S
H731 C743 0.950 . S
C732 H724 0.950 . S
C732 C733 1.386 . S
C732 C734 1.391 . S
C733 C732 1.386 . S
C733 C737 1.393 . S
C734 H726 0.950 . S
C734 C732 1.391 . S
C734 C735 1.400 . S
C735 C734 1.400 . S
C735 C736 1.398 . S
C735 C741 1.491 . S
C736 H727 0.950 . S
C736 C735 1.398 . S
C736 C737 1.391 . S
C737 H725 0.950 . S
C737 C733 1.393 . S
C737 C736 1.391 . S
C738 H728 0.950 . S
C738 C739 1.386 . S
C738 C740 1.391 . S
C739 C738 1.386 . S
C739 C743 1.393 . S
C740 H729 0.950 . S
C740 C738 1.391 . S
C740 C741 1.400 . S
C741 C735 1.491 . S
C741 C740 1.400 . S
C741 C742 1.398 . S
C742 H730 0.950 . S
C742 C741 1.398 . S
C742 C743 1.391 . S
C743 H731 0.950 . S
C743 C739 1.393 . S
C743 C742 1.391 . S
H744 C752 0.950 . S
H745 C757 0.950 . S
H746 C754 0.950 . S
H747 C756 0.950 . S
H748 C758 0.950 . S
H749 C760 0.950 . S
H750 C762 0.950 . S
H751 C763 0.950 . S
C752 H744 0.950 . S
C752 C753 1.386 . S
C752 C754 1.391 . S
C753 C752 1.386 . S
C753 C757 1.393 . S
C754 H746 0.950 . S
C754 C752 1.391 . S
C754 C755 1.400 . S
C755 C754 1.400 . S
C755 C756 1.398 . S
C755 C761 1.491 . S
C756 H747 0.950 . S
C756 C755 1.398 . S
C756 C757 1.391 . S
C757 H745 0.950 . S
C757 C753 1.393 . S
C757 C756 1.391 . S
C758 H748 0.950 . S
C758 C759 1.386 . S
C758 C760 1.391 . S
C759 C758 1.386 . S
C759 C763 1.393 . S
C760 H749 0.950 . S
C760 C758 1.391 . S
C760 C761 1.400 . S
C761 C755 1.491 . S
C761 C760 1.400 . S
C761 C762 1.398 . S
C762 H750 0.950 . S
C762 C761 1.398 . S
C762 C763 1.391 . S
C763 H751 0.950 . S
C763 C759 1.393 . S
C763 C762 1.391 . S
H764 C772 0.950 . S
H765 C777 0.950 . S
H766 C774 0.950 . S
H767 C776 0.950 . S
H768 C778 0.950 . S
H769 C780 0.950 . S
H770 C782 0.950 . S
H771 C783 0.950 . S
C772 H764 0.950 . S
C772 C773 1.386 . S
C772 C774 1.391 . S
C773 C772 1.386 . S
C773 C777 1.393 . S
C774 H766 0.950 . S
C774 C772 1.391 . S
C774 C775 1.400 . S
C775 C774 1.400 . S
C775 C776 1.398 . S
C775 C781 1.491 . S
C776 H767 0.950 . S
C776 C775 1.398 . S
C776 C777 1.391 . S
C777 H765 0.950 . S
C777 C773 1.393 . S
C777 C776 1.391 . S
C778 H768 0.950 . S
C778 C779 1.386 . S
C778 C780 1.391 . S
C779 C778 1.386 . S
C779 C783 1.393 . S
C780 H769 0.950 . S
C780 C778 1.391 . S
C780 C781 1.400 . S
C781 C775 1.491 . S
C781 C780 1.400 . S
C781 C782 1.398 . S
C782 H770 0.950 . S
C782 C781 1.398 . S
C782 C783 1.391 . S
C783 H771 0.950 . S
C783 C779 1.393 . S
C783 C782 1.391 . S
H784 C792 0.950 . S
H785 C797 0.950 . S
H786 C794 0.950 . S
H787 C796 0.950 . S
H788 C798 0.950 . S
H789 C800 0.950 . S
H790 C802 0.950 . S
H791 C803 0.950 . S
C792 H784 0.950 . S
C792 C793 1.386 . S
C792 C794 1.391 . S
C793 C792 1.386 . S
C793 C797 1.393 . S
C794 H786 0.950 . S
C794 C792 1.391 . S
C794 C795 1.400 . S
C795 C794 1.400 . S
C795 C796 1.398 . S
C795 C801 1.491 . S
C796 H787 0.950 . S
C796 C795 1.398 . S
C796 C797 1.391 . S
C797 H785 0.950 . S
C797 C793 1.393 . S
C797 C796 1.391 . S
C798 H788 0.950 . S
C798 C799 1.386 . S
C798 C800 1.391 . S
C799 C798 1.386 . S
C799 C803 1.393 . S
C800 H789 0.950 . S
C800 C798 1.391 . S
C800 C801 1.400 . S
C801 C795 1.491 . S
C801 C800 1.400 . S
C801 C802 1.398 . S
C802 H790 0.950 . S
C802 C801 1.398 . S
C802 C803 1.391 . S
C803 H791 0.950 . S
C803 C799 1.393 . S
C803 C802 1.391 . S
H804 C812 0.950 . S
H805 C817 0.950 . S
H806 C814 0.950 . S
H807 C816 0.950 . S
H808 C818 0.950 . S
H809 C820 0.950 . S
H810 C822 0.950 . S
H811 C823 0.950 . S
C812 H804 0.950 . S
C812 C813 1.386 . S
C812 C814 1.391 . S
C813 C812 1.386 . S
C813 C817 1.393 . S
C814 H806 0.950 . S
C814 C812 1.391 . S
C814 C815 1.400 . S
C815 C814 1.400 . S
C815 C816 1.398 . S
C815 C821 1.491 . S
C816 H807 0.950 . S
C816 C815 1.398 . S
C816 C817 1.391 . S
C817 H805 0.950 . S
C817 C813 1.393 . S
C817 C816 1.391 . S
C818 H808 0.950 . S
C818 C819 1.386 . S
C818 C820 1.391 . S
C819 C818 1.386 . S
C819 C823 1.393 . S
C820 H809 0.950 . S
C820 C818 1.391 . S
C820 C821 1.400 . S
C821 C815 1.491 . S
C821 C820 1.400 . S
C821 C822 1.398 . S
C822 H810 0.950 . S
C822 C821 1.398 . S
C822 C823 1.391 . S
C823 H811 0.950 . S
C823 C819 1.393 . S
C823 C822 1.391 . S
H824 C832 0.950 . S
H825 C837 0.950 . S
H826 C834 0.950 . S
H827 C836 0.950 . S
H828 C838 0.950 . S
H829 C840 0.950 . S
H830 C842 0.950 . S
H831 C843 0.950 . S
C832 H824 0.950 . S
C832 C833 1.386 . S
C832 C834 1.391 . S
C833 C832 1.386 . S
C833 C837 1.393 . S
C834 H826 0.950 . S
C834 C832 1.391 . S
C834 C835 1.400 . S
C835 C834 1.400 . S
C835 C836 1.398 . S
C835 C841 1.491 . S
C836 H827 0.950 . S
C836 C835 1.398 . S
C836 C837 1.391 . S
C837 H825 0.950 . S
C837 C833 1.393 . S
C837 C836 1.391 . S
C838 H828 0.950 . S
C838 C839 1.386 . S
C838 C840 1.391 . S
C839 C838 1.386 . S
C839 C843 1.393 . S
C840 H829 0.950 . S
C840 C838 1.391 . S
C840 C841 1.400 . S
C841 C835 1.491 . S
C841 C840 1.400 . S
C841 C842 1.398 . S
C842 H830 0.950 . S
C842 C841 1.398 . S
C842 C843 1.391 . S
C843 H831 0.950 . S
C843 C839 1.393 . S
C843 C842 1.391 . S
H844 C852 0.950 . S
H845 C857 0.950 . S
H846 C854 0.950 . S
H847 C856 0.950 . S
H848 C858 0.950 . S
H849 C860 0.950 . S
H850 C862 0.950 . S
H851 C863 0.950 . S
C852 H844 0.950 . S
C852 C853 1.386 . S
C852 C854 1.391 . S
C853 C852 1.386 . S
C853 C857 1.393 . S
C854 H846 0.950 . S
C854 C852 1.391 . S
C854 C855 1.400 . S
C855 C854 1.400 . S
C855 C856 1.398 . S
C855 C861 1.491 . S
C856 H847 0.950 . S
C856 C855 1.398 . S
C856 C857 1.391 . S
C857 H845 0.950 . S
C857 C853 1.393 . S
C857 C856 1.391 . S
C858 H848 0.950 . S
C858 C859 1.386 . S
C858 C860 1.391 . S
C859 C858 1.386 . S
C859 C863 1.393 . S
C860 H849 0.950 . S
C860 C858 1.391 . S
C860 C861 1.400 . S
C861 C855 1.491 . S
C861 C860 1.400 . S
C861 C862 1.398 . S
C862 H850 0.950 . S
C862 C861 1.398 . S
C862 C863 1.391 . S
C863 H851 0.950 . S
C863 C859 1.393 . S
C863 C862 1.391 . S
H864 C872 0.950 . S
H865 C877 0.950 . S
H866 C874 0.950 . S
H867 C876 0.950 . S
H868 C878 0.950 . S
H869 C880 0.950 . S
H870 C882 0.950 . S
H871 C883 0.950 . S
C872 H864 0.950 . S
C872 C873 1.386 . S
C872 C874 1.391 . S
C873 C872 1.386 . S
C873 C877 1.393 . S
C874 H866 0.950 . S
C874 C872 1.391 . S
C874 C875 1.400 . S
C875 C874 1.400 . S
C875 C876 1.398 . S
C875 C881 1.491 1_554 S
C876 H867 0.950 . S
C876 C875 1.398 . S
C876 C877 1.391 . S
C877 H865 0.950 . S
C877 C873 1.393 . S
C877 C876 1.391 . S
C878 H868 0.950 . S
C878 C879 1.386 . S
C878 C880 1.391 . S
C879 C878 1.386 . S
C879 C883 1.393 . S
C880 H869 0.950 . S
C880 C878 1.391 . S
C880 C881 1.400 . S
C881 C875 1.491 1_556 S
C881 C880 1.400 . S
C881 C882 1.398 . S
C882 H870 0.950 . S
C882 C881 1.398 . S
C882 C883 1.391 . S
C883 H871 0.950 . S
C883 C879 1.393 . S
C883 C882 1.391 . S
H884 C892 0.950 . S
H885 C897 0.950 . S
H886 C894 0.950 . S
H887 C896 0.950 . S
H888 C898 0.950 . S
H889 C900 0.950 . S
H890 C902 0.950 . S
H891 C903 0.950 . S
C892 H884 0.950 . S
C892 C893 1.386 . S
C892 C894 1.391 . S
C893 C892 1.386 . S
C893 C897 1.393 . S
C894 H886 0.950 . S
C894 C892 1.391 . S
C894 C895 1.400 . S
C895 C894 1.400 . S
C895 C896 1.398 . S
C895 C901 1.491 1_556 S
C896 H887 0.950 . S
C896 C895 1.398 . S
C896 C897 1.391 . S
C897 H885 0.950 . S
C897 C893 1.393 . S
C897 C896 1.391 . S
C898 H888 0.950 . S
C898 C899 1.386 . S
C898 C900 1.391 . S
C899 C898 1.386 . S
C899 C903 1.393 . S
C900 H889 0.950 . S
C900 C898 1.391 . S
C900 C901 1.400 . S
C901 C895 1.491 1_554 S
C901 C900 1.400 . S
C901 C902 1.398 . S
C902 H890 0.950 . S
C902 C901 1.398 . S
C902 C903 1.391 . S
C903 H891 0.950 . S
C903 C899 1.393 . S
C903 C902 1.391 . S
H904 C912 0.950 . S
H905 C917 0.950 . S
H906 C914 0.950 . S
H907 C916 0.950 . S
H908 C918 0.950 . S
H909 C920 0.950 . S
H910 C922 0.950 . S
H911 C923 0.950 . S
C912 H904 0.950 . S
C912 C913 1.386 . S
C912 C914 1.391 . S
C913 C912 1.386 . S
C913 C917 1.393 . S
C914 H906 0.950 . S
C914 C912 1.391 . S
C914 C915 1.400 . S
C915 C914 1.400 . S
C915 C916 1.398 . S
C915 C921 1.491 1_556 S
C916 H907 0.950 . S
C916 C915 1.398 . S
C916 C917 1.391 . S
C917 H905 0.950 . S
C917 C913 1.393 . S
C917 C916 1.391 . S
C918 H908 0.950 . S
C918 C919 1.386 . S
C918 C920 1.391 . S
C919 C918 1.386 . S
C919 C923 1.393 . S
C920 H909 0.950 . S
C920 C918 1.391 . S
C920 C921 1.400 . S
C921 C915 1.491 1_554 S
C921 C920 1.400 . S
C921 C922 1.398 . S
C922 H910 0.950 . S
C922 C921 1.398 . S
C922 C923 1.391 . S
C923 H911 0.950 . S
C923 C919 1.393 . S
C923 C922 1.391 . S
H924 C932 0.950 . S
H925 C937 0.950 . S
H926 C934 0.950 . S
H927 C936 0.950 . S
H928 C938 0.950 . S
H929 C940 0.950 . S
H930 C942 0.950 . S
H931 C943 0.950 . S
C932 H924 0.950 . S
C932 C933 1.386 . S
C932 C934 1.391 . S
C933 C932 1.386 . S
C933 C937 1.393 . S
C934 H926 0.950 . S
C934 C932 1.391 . S
C934 C935 1.400 . S
C935 C934 1.400 . S
C935 C936 1.398 . S
C935 C941 1.491 1_556 S
C936 H927 0.950 . S
C936 C935 1.398 . S
C936 C937 1.391 . S
C937 H925 0.950 . S
C937 C933 1.393 . S
C937 C936 1.391 . S
C938 H928 0.950 . S
C938 C939 1.386 . S
C938 C940 1.391 . S
C939 C938 1.386 . S
C939 C943 1.393 . S
C940 H929 0.950 . S
C940 C938 1.391 . S
C940 C941 1.400 . S
C941 C935 1.491 1_554 S
C941 C940 1.400 . S
C941 C942 1.398 . S
C942 H930 0.950 . S
C942 C941 1.398 . S
C942 C943 1.391 . S
C943 H931 0.950 . S
C943 C939 1.393 . S
C943 C942 1.391 . S
H944 C952 0.950 . S
H945 C957 0.950 . S
H946 C954 0.950 . S
H947 C956 0.950 . S
H948 C958 0.950 . S
H949 C960 0.950 . S
H950 C962 0.950 . S
H951 C963 0.950 . S
C952 H944 0.950 . S
C952 C953 1.386 . S
C952 C954 1.391 . S
C953 C952 1.386 . S
C953 C957 1.393 . S
C954 H946 0.950 . S
C954 C952 1.391 . S
C954 C955 1.400 . S
C955 C954 1.400 . S
C955 C956 1.398 . S
C955 C961 1.491 . S
C956 H947 0.950 . S
C956 C955 1.398 . S
C956 C957 1.391 . S
C957 H945 0.950 . S
C957 C953 1.393 . S
C957 C956 1.391 . S
C958 H948 0.950 . S
C958 C959 1.386 . S
C958 C960 1.391 . S
C959 C958 1.386 . S
C959 C963 1.393 . S
C960 H949 0.950 . S
C960 C958 1.391 . S
C960 C961 1.400 . S
C961 C955 1.491 . S
C961 C960 1.400 . S
C961 C962 1.398 . S
C962 H950 0.950 . S
C962 C961 1.398 . S
C962 C963 1.391 . S
C963 H951 0.950 . S
C963 C959 1.393 . S
C963 C962 1.391 . S
H964 C972 0.950 . S
H965 C977 0.950 . S
H966 C974 0.950 . S
H967 C976 0.950 . S
H968 C978 0.950 . S
H969 C980 0.950 . S
H970 C982 0.950 . S
H971 C983 0.950 . S
C972 H964 0.950 . S
C972 C973 1.386 . S
C972 C974 1.391 . S
C973 C972 1.386 . S
C973 C977 1.393 . S
C974 H966 0.950 . S
C974 C972 1.391 . S
C974 C975 1.400 . S
C975 C974 1.400 . S
C975 C976 1.398 . S
C975 C981 1.491 . S
C976 H967 0.950 . S
C976 C975 1.398 . S
C976 C977 1.391 . S
C977 H965 0.950 . S
C977 C973 1.393 . S
C977 C976 1.391 . S
C978 H968 0.950 . S
C978 C979 1.386 . S
C978 C980 1.391 . S
C979 C978 1.386 . S
C979 C983 1.393 . S
C980 H969 0.950 . S
C980 C978 1.391 . S
C980 C981 1.400 . S
C981 C975 1.491 . S
C981 C980 1.400 . S
C981 C982 1.398 . S
C982 H970 0.950 . S
C982 C981 1.398 . S
C982 C983 1.391 . S
C983 H971 0.950 . S
C983 C979 1.393 . S
C983 C982 1.391 . S
H984 C992 0.950 . S
H985 C997 0.950 . S
H986 C994 0.950 . S
H987 C996 0.950 . S
H988 C998 0.950 . S
H989 C1000 0.950 . S
H990 C1002 0.950 . S
H991 C1003 0.950 . S
C992 H984 0.950 . S
C992 C993 1.386 . S
C992 C994 1.391 . S
C993 C992 1.386 . S
C993 C997 1.393 . S
C994 H986 0.950 . S
C994 C992 1.391 . S
C994 C995 1.400 . S
C995 C994 1.400 . S
C995 C996 1.398 . S
C995 C1001 1.491 . S
C996 H987 0.950 . S
C996 C995 1.398 . S
C996 C997 1.391 . S
C997 H985 0.950 . S
C997 C993 1.393 . S
C997 C996 1.391 . S
C998 H988 0.950 . S
C998 C999 1.386 . S
C998 C1000 1.391 . S
C999 C998 1.386 . S
C999 C1003 1.393 . S
C1000 H989 0.950 . S
C1000 C998 1.391 . S
C1000 C1001 1.400 . S
C1001 C995 1.491 . S
C1001 C1000 1.400 . S
C1001 C1002 1.398 . S
C1002 H990 0.950 . S
C1002 C1001 1.398 . S
C1002 C1003 1.391 . S
C1003 H991 0.950 . S
C1003 C999 1.393 . S
C1003 C1002 1.391 . S
H1004 C1012 0.950 . S
H1005 C1017 0.950 . S
H1006 C1014 0.950 . S
H1007 C1016 0.950 . S
H1008 C1018 0.950 . S
H1009 C1020 0.950 . S
H1010 C1022 0.950 . S
H1011 C1023 0.950 . S
C1012 H1004 0.950 . S
C1012 C1013 1.386 . S
C1012 C1014 1.391 . S
C1013 C1012 1.386 . S
C1013 C1017 1.393 . S
C1014 H1006 0.950 . S
C1014 C1012 1.391 . S
C1014 C1015 1.400 . S
C1015 C1014 1.400 . S
C1015 C1016 1.398 . S
C1015 C1021 1.491 . S
C1016 H1007 0.950 . S
C1016 C1015 1.398 . S
C1016 C1017 1.391 . S
C1017 H1005 0.950 . S
C1017 C1013 1.393 . S
C1017 C1016 1.391 . S
C1018 H1008 0.950 . S
C1018 C1019 1.386 . S
C1018 C1020 1.391 . S
C1019 C1018 1.386 . S
C1019 C1023 1.393 . S
C1020 H1009 0.950 . S
C1020 C1018 1.391 . S
C1020 C1021 1.400 . S
C1021 C1015 1.491 . S
C1021 C1020 1.400 . S
C1021 C1022 1.398 . S
C1022 H1010 0.950 . S
C1022 C1021 1.398 . S
C1022 C1023 1.391 . S
C1023 H1011 0.950 . S
C1023 C1019 1.393 . S
C1023 C1022 1.391 . S
H1024 C1032 0.950 . S
H1025 C1037 0.950 . S
H1026 C1034 0.950 . S
H1027 C1036 0.950 . S
H1028 C1038 0.950 . S
H1029 C1040 0.950 . S
H1030 C1042 0.950 . S
H1031 C1043 0.950 . S
C1032 H1024 0.950 . S
C1032 C1033 1.386 . S
C1032 C1034 1.391 . S
C1033 C1032 1.386 . S
C1033 C1037 1.393 . S
C1034 H1026 0.950 . S
C1034 C1032 1.391 . S
C1034 C1035 1.400 . S
C1035 C1034 1.400 . S
C1035 C1036 1.398 . S
C1035 C1041 1.491 . S
C1036 H1027 0.950 . S
C1036 C1035 1.398 . S
C1036 C1037 1.391 . S
C1037 H1025 0.950 . S
C1037 C1033 1.393 . S
C1037 C1036 1.391 . S
C1038 H1028 0.950 . S
C1038 C1039 1.386 . S
C1038 C1040 1.391 . S
C1039 C1038 1.386 . S
C1039 C1043 1.393 . S
C1040 H1029 0.950 . S
C1040 C1038 1.391 . S
C1040 C1041 1.400 . S
C1041 C1035 1.491 . S
C1041 C1040 1.400 . S
C1041 C1042 1.398 . S
C1042 H1030 0.950 . S
C1042 C1041 1.398 . S
C1042 C1043 1.391 . S
C1043 H1031 0.950 . S
C1043 C1039 1.393 . S
C1043 C1042 1.391 . S
H1044 C1052 0.950 . S
H1045 C1057 0.950 . S
H1046 C1054 0.950 . S
H1047 C1056 0.950 . S
H1048 C1058 0.950 . S
H1049 C1060 0.950 . S
H1050 C1062 0.950 . S
H1051 C1063 0.950 . S
C1052 H1044 0.950 . S
C1052 C1053 1.386 . S
C1052 C1054 1.391 . S
C1053 C1052 1.386 . S
C1053 C1057 1.393 . S
C1054 H1046 0.950 . S
C1054 C1052 1.391 . S
C1054 C1055 1.400 . S
C1055 C1054 1.400 . S
C1055 C1056 1.398 . S
C1055 C1061 1.491 . S
C1056 H1047 0.950 . S
C1056 C1055 1.398 . S
C1056 C1057 1.391 . S
C1057 H1045 0.950 . S
C1057 C1053 1.393 . S
C1057 C1056 1.391 . S
C1058 H1048 0.950 . S
C1058 C1059 1.386 . S
C1058 C1060 1.391 . S
C1059 C1058 1.386 . S
C1059 C1063 1.393 . S
C1060 H1049 0.950 . S
C1060 C1058 1.391 . S
C1060 C1061 1.400 . S
C1061 C1055 1.491 . S
C1061 C1060 1.400 . S
C1061 C1062 1.398 . S
C1062 H1050 0.950 . S
C1062 C1061 1.398 . S
C1062 C1063 1.391 . S
C1063 H1051 0.950 . S
C1063 C1059 1.393 . S
C1063 C1062 1.391 . S
H1064 C1072 0.950 . S
H1065 C1077 0.950 . S
H1066 C1074 0.950 . S
H1067 C1076 0.950 . S
H1068 C1078 0.950 . S
H1069 C1080 0.950 . S
H1070 C1082 0.950 . S
H1071 C1083 0.950 . S
C1072 H1064 0.950 . S
C1072 C1073 1.386 . S
C1072 C1074 1.391 . S
C1073 C1072 1.386 . S
C1073 C1077 1.393 . S
C1074 H1066 0.950 . S
C1074 C1072 1.391 . S
C1074 C1075 1.400 . S
C1075 C1074 1.400 . S
C1075 C1076 1.398 . S
C1075 C1081 1.491 . S
C1076 H1067 0.950 . S
C1076 C1075 1.398 . S
C1076 C1077 1.391 . S
C1077 H1065 0.950 . S
C1077 C1073 1.393 . S
C1077 C1076 1.391 . S
C1078 H1068 0.950 . S
C1078 C1079 1.386 . S
C1078 C1080 1.391 . S
C1079 C1078 1.386 . S
C1079 C1083 1.393 . S
C1080 H1069 0.950 . S
C1080 C1078 1.391 . S
C1080 C1081 1.400 . S
C1081 C1075 1.491 . S
C1081 C1080 1.400 . S
C1081 C1082 1.398 . S
C1082 H1070 0.950 . S
C1082 C1081 1.398 . S
C1082 C1083 1.391 . S
C1083 H1071 0.950 . S
C1083 C1079 1.393 . S
C1083 C1082 1.391 . S
H1084 C1092 0.950 . S
H1085 C1097 0.950 . S
H1086 C1094 0.950 . S
H1087 C1096 0.950 . S
H1088 C1098 0.950 . S
H1089 C1100 0.950 . S
H1090 C1102 0.950 . S
H1091 C1103 0.950 . S
C1092 H1084 0.950 . S
C1092 C1093 1.386 . S
C1092 C1094 1.391 . S
C1093 C1092 1.386 . S
C1093 C1097 1.393 . S
C1094 H1086 0.950 . S
C1094 C1092 1.391 . S
C1094 C1095 1.400 . S
C1095 C1094 1.400 . S
C1095 C1096 1.398 . S
C1095 C1101 1.491 . S
C1096 H1087 0.950 . S
C1096 C1095 1.398 . S
C1096 C1097 1.391 . S
C1097 H1085 0.950 . S
C1097 C1093 1.393 . S
C1097 C1096 1.391 . S
C1098 H1088 0.950 . S
C1098 C1099 1.386 . S
C1098 C1100 1.391 . S
C1099 C1098 1.386 . S
C1099 C1103 1.393 . S
C1100 H1089 0.950 . S
C1100 C1098 1.391 . S
C1100 C1101 1.400 . S
C1101 C1095 1.491 . S
C1101 C1100 1.400 . S
C1101 C1102 1.398 . S
C1102 H1090 0.950 . S
C1102 C1101 1.398 . S
C1102 C1103 1.391 . S
C1103 H1091 0.950 . S
C1103 C1099 1.393 . S
C1103 C1102 1.391 . S
H1104 C1112 0.950 . S
H1105 C1117 0.950 . S
H1106 C1114 0.950 . S
H1107 C1116 0.950 . S
H1108 C1118 0.950 . S
H1109 C1120 0.950 . S
H1110 C1122 0.950 . S
H1111 C1123 0.950 . S
C1112 H1104 0.950 . S
C1112 C1113 1.386 . S
C1112 C1114 1.391 . S
C1113 C1112 1.386 . S
C1113 C1117 1.393 . S
C1114 H1106 0.950 . S
C1114 C1112 1.391 . S
C1114 C1115 1.400 . S
C1115 C1114 1.400 . S
C1115 C1116 1.398 . S
C1115 C1121 1.491 . S
C1116 H1107 0.950 . S
C1116 C1115 1.398 . S
C1116 C1117 1.391 . S
C1117 H1105 0.950 . S
C1117 C1113 1.393 . S
C1117 C1116 1.391 . S
C1118 H1108 0.950 . S
C1118 C1119 1.386 . S
C1118 C1120 1.391 . S
C1119 C1118 1.386 . S
C1119 C1123 1.393 . S
C1120 H1109 0.950 . S
C1120 C1118 1.391 . S
C1120 C1121 1.400 . S
C1121 C1115 1.491 . S
C1121 C1120 1.400 . S
C1121 C1122 1.398 . S
C1122 H1110 0.950 . S
C1122 C1121 1.398 . S
C1122 C1123 1.391 . S
C1123 H1111 0.950 . S
C1123 C1119 1.393 . S
C1123 C1122 1.391 . S
H1124 C1132 0.950 . S
H1125 C1137 0.950 . S
H1126 C1134 0.950 . S
H1127 C1136 0.950 . S
H1128 C1138 0.950 . S
H1129 C1140 0.950 . S
H1130 C1142 0.950 . S
H1131 C1143 0.950 . S
C1132 H1124 0.950 . S
C1132 C1133 1.386 . S
C1132 C1134 1.391 . S
C1133 C1132 1.386 . S
C1133 C1137 1.393 . S
C1134 H1126 0.950 . S
C1134 C1132 1.391 . S
C1134 C1135 1.400 . S
C1135 C1134 1.400 . S
C1135 C1136 1.398 . S
C1135 C1141 1.491 . S
C1136 H1127 0.950 . S
C1136 C1135 1.398 . S
C1136 C1137 1.391 . S
C1137 H1125 0.950 . S
C1137 C1133 1.393 . S
C1137 C1136 1.391 . S
C1138 H1128 0.950 . S
C1138 C1139 1.386 . S
C1138 C1140 1.391 . S
C1139 C1138 1.386 . S
C1139 C1143 1.393 . S
C1140 H1129 0.950 . S
C1140 C1138 1.391 . S
C1140 C1141 1.400 . S
C1141 C1135 1.491 . S
C1141 C1140 1.400 . S
C1141 C1142 1.398 . S
C1142 H1130 0.950 . S
C1142 C1141 1.398 . S
C1142 C1143 1.391 . S
C1143 H1131 0.950 . S
C1143 C1139 1.393 . S
C1143 C1142 1.391 . S
H1144 C1152 0.950 . S
H1145 C1157 0.950 . S
H1146 C1154 0.950 . S
H1147 C1156 0.950 . S
H1148 C1158 0.950 . S
H1149 C1160 0.950 . S
H1150 C1162 0.950 . S
H1151 C1163 0.950 . S
C1152 H1144 0.950 . S
C1152 C1153 1.386 . S
C1152 C1154 1.391 . S
C1153 C1152 1.386 . S
C1153 C1157 1.393 . S
C1154 H1146 0.950 . S
C1154 C1152 1.391 . S
C1154 C1155 1.400 . S
C1155 C1154 1.400 . S
C1155 C1156 1.398 . S
C1155 C1161 1.491 . S
C1156 H1147 0.950 . S
C1156 C1155 1.398 . S
C1156 C1157 1.391 . S
C1157 H1145 0.950 . S
C1157 C1153 1.393 . S
C1157 C1156 1.391 . S
C1158 H1148 0.950 . S
C1158 C1159 1.386 . S
C1158 C1160 1.391 . S
C1159 C1158 1.386 . S
C1159 C1163 1.393 . S
C1160 H1149 0.950 . S
C1160 C1158 1.391 . S
C1160 C1161 1.400 . S
C1161 C1155 1.491 . S
C1161 C1160 1.400 . S
C1161 C1162 1.398 . S
C1162 H1150 0.950 . S
C1162 C1161 1.398 . S
C1162 C1163 1.391 . S
C1163 H1151 0.950 . S
C1163 C1159 1.393 . S
C1163 C1162 1.391 . S
H1164 C1172 0.950 . S
H1165 C1177 0.950 . S
H1166 C1174 0.950 . S
H1167 C1176 0.950 . S
H1168 C1178 0.950 . S
H1169 C1180 0.950 . S
H1170 C1182 0.950 . S
H1171 C1183 0.950 . S
C1172 H1164 0.950 . S
C1172 C1173 1.386 . S
C1172 C1174 1.391 . S
C1173 C1172 1.386 . S
C1173 C1177 1.393 . S
C1174 H1166 0.950 . S
C1174 C1172 1.391 . S
C1174 C1175 1.400 . S
C1175 C1174 1.400 . S
C1175 C1176 1.398 . S
C1175 C1181 1.491 . S
C1176 H1167 0.950 . S
C1176 C1175 1.398 . S
C1176 C1177 1.391 . S
C1177 H1165 0.950 . S
C1177 C1173 1.393 . S
C1177 C1176 1.391 . S
C1178 H1168 0.950 . S
C1178 C1179 1.386 . S
C1178 C1180 1.391 . S
C1179 C1178 1.386 . S
C1179 C1183 1.393 . S
C1180 H1169 0.950 . S
C1180 C1178 1.391 . S
C1180 C1181 1.400 . S
C1181 C1175 1.491 . S
C1181 C1180 1.400 . S
C1181 C1182 1.398 . S
C1182 H1170 0.950 . S
C1182 C1181 1.398 . S
C1182 C1183 1.391 . S
C1183 H1171 0.950 . S
C1183 C1179 1.393 . S
C1183 C1182 1.391 . S
H1184 C1192 0.950 . S
H1185 C1197 0.950 . S
H1186 C1194 0.950 . S
H1187 C1196 0.950 . S
H1188 C1198 0.950 . S
H1189 C1200 0.950 . S
H1190 C1202 0.950 . S
H1191 C1203 0.950 . S
C1192 H1184 0.950 . S
C1192 C1193 1.386 . S
C1192 C1194 1.391 . S
C1193 C1192 1.386 . S
C1193 C1197 1.393 . S
C1194 H1186 0.950 . S
C1194 C1192 1.391 . S
C1194 C1195 1.400 . S
C1195 C1194 1.400 . S
C1195 C1196 1.398 . S
C1195 C1201 1.491 1_545 S
C1196 H1187 0.950 . S
C1196 C1195 1.398 . S
C1196 C1197 1.391 . S
C1197 H1185 0.950 . S
C1197 C1193 1.393 . S
C1197 C1196 1.391 . S
C1198 H1188 0.950 . S
C1198 C1199 1.386 . S
C1198 C1200 1.391 . S
C1199 C1198 1.386 . S
C1199 C1203 1.393 . S
C1200 H1189 0.950 . S
C1200 C1198 1.391 . S
C1200 C1201 1.400 . S
C1201 C1195 1.491 1_565 S
C1201 C1200 1.400 . S
C1201 C1202 1.398 . S
C1202 H1190 0.950 . S
C1202 C1201 1.398 . S
C1202 C1203 1.391 . S
C1203 H1191 0.950 . S
C1203 C1199 1.393 . S
C1203 C1202 1.391 . S
H1204 C1212 0.950 . S
H1205 C1217 0.950 . S
H1206 C1214 0.950 . S
H1207 C1216 0.950 . S
H1208 C1218 0.950 . S
H1209 C1220 0.950 . S
H1210 C1222 0.950 . S
H1211 C1223 0.950 . S
C1212 H1204 0.950 . S
C1212 C1213 1.386 . S
C1212 C1214 1.391 . S
C1213 C1212 1.386 . S
C1213 C1217 1.393 . S
C1214 H1206 0.950 . S
C1214 C1212 1.391 . S
C1214 C1215 1.400 . S
C1215 C1214 1.400 . S
C1215 C1216 1.398 . S
C1215 C1221 1.491 1_655 S
C1216 H1207 0.950 . S
C1216 C1215 1.398 . S
C1216 C1217 1.391 . S
C1217 H1205 0.950 . S
C1217 C1213 1.393 . S
C1217 C1216 1.391 . S
C1218 H1208 0.950 . S
C1218 C1219 1.386 . S
C1218 C1220 1.391 . S
C1219 C1218 1.386 . S
C1219 C1223 1.393 . S
C1220 H1209 0.950 . S
C1220 C1218 1.391 . S
C1220 C1221 1.400 . S
C1221 C1215 1.491 1_455 S
C1221 C1220 1.400 . S
C1221 C1222 1.398 . S
C1222 H1210 0.950 . S
C1222 C1221 1.398 . S
C1222 C1223 1.391 . S
C1223 H1211 0.950 . S
C1223 C1219 1.393 . S
C1223 C1222 1.391 . S
H1224 C1232 0.950 . S
H1225 C1237 0.950 . S
H1226 C1234 0.950 . S
H1227 C1236 0.950 1_565 S
H1228 C1238 0.950 . S
H1229 C1240 0.950 . S
H1230 C1242 0.950 1_545 S
H1231 C1243 0.950 . S
C1232 H1224 0.950 . S
C1232 C1233 1.386 . S
C1232 C1234 1.391 . S
C1233 C1232 1.386 . S
C1233 C1237 1.393 . S
C1234 H1226 0.950 . S
C1234 C1232 1.391 . S
C1234 C1235 1.400 . S
C1235 C1234 1.400 . S
C1235 C1236 1.398 . S
C1235 C1241 1.491 1_545 S
C1236 H1227 0.950 1_545 S
C1236 C1235 1.398 . S
C1236 C1237 1.391 . S
C1237 H1225 0.950 . S
C1237 C1233 1.393 . S
C1237 C1236 1.391 . S
C1238 H1228 0.950 . S
C1238 C1239 1.386 . S
C1238 C1240 1.391 . S
C1239 C1238 1.386 . S
C1239 C1243 1.393 . S
C1240 H1229 0.950 . S
C1240 C1238 1.391 . S
C1240 C1241 1.400 . S
C1241 C1235 1.491 1_565 S
C1241 C1240 1.400 . S
C1241 C1242 1.398 . S
C1242 H1230 0.950 1_565 S
C1242 C1241 1.398 . S
C1242 C1243 1.391 . S
C1243 H1231 0.950 . S
C1243 C1239 1.393 . S
C1243 C1242 1.391 . S
H1244 C1252 0.950 . S
H1245 C1257 0.950 . S
H1246 C1254 0.950 . S
H1247 C1256 0.950 . S
H1248 C1258 0.950 . S
H1249 C1260 0.950 . S
H1250 C1262 0.950 . S
H1251 C1263 0.950 . S
C1252 H1244 0.950 . S
C1252 C1253 1.386 . S
C1252 C1254 1.391 . S
C1253 C1252 1.386 . S
C1253 C1257 1.393 . S
C1254 H1246 0.950 . S
C1254 C1252 1.391 . S
C1254 C1255 1.400 . S
C1255 C1254 1.400 . S
C1255 C1256 1.398 . S
C1255 C1261 1.491 1_655 S
C1256 H1247 0.950 . S
C1256 C1255 1.398 . S
C1256 C1257 1.391 . S
C1257 H1245 0.950 . S
C1257 C1253 1.393 . S
C1257 C1256 1.391 . S
C1258 H1248 0.950 . S
C1258 C1259 1.386 . S
C1258 C1260 1.391 . S
C1259 C1258 1.386 . S
C1259 C1263 1.393 . S
C1260 H1249 0.950 . S
C1260 C1258 1.391 . S
C1260 C1261 1.400 . S
C1261 C1255 1.491 1_455 S
C1261 C1260 1.400 . S
C1261 C1262 1.398 . S
C1262 H1250 0.950 . S
C1262 C1261 1.398 . S
C1262 C1263 1.391 . S
C1263 H1251 0.950 . S
C1263 C1259 1.393 . S
C1263 C1262 1.391 . S
H1264 C1272 0.950 . S
H1265 C1277 0.950 . S
H1266 C1274 0.950 . S
H1267 C1276 0.959 . S
H1268 C1278 0.950 . S
H1269 C1280 0.950 . S
H1270 C1282 0.959 . S
H1271 C1283 0.950 . S
C1272 H1264 0.950 . S
C1272 C1273 1.386 . S
C1272 C1274 1.391 . S
C1273 C1272 1.386 . S
C1273 C1277 1.393 . S
C1274 H1266 0.950 . S
C1274 C1272 1.391 . S
C1274 C1275 1.400 . S
C1275 C1274 1.400 . S
C1275 C1276 1.398 . S
C1275 C1281 1.491 1_565 S
C1276 H1267 0.959 . S
C1276 C1275 1.398 . S
C1276 C1277 1.391 . S
C1277 H1265 0.950 . S
C1277 C1273 1.393 . S
C1277 C1276 1.391 . S
C1278 H1268 0.950 . S
C1278 C1279 1.386 . S
C1278 C1280 1.391 . S
C1279 C1278 1.386 . S
C1279 C1283 1.393 . S
C1280 H1269 0.950 . S
C1280 C1278 1.391 . S
C1280 C1281 1.400 . S
C1281 C1275 1.491 1_545 S
C1281 C1280 1.400 . S
C1281 C1282 1.398 . S
C1282 H1270 0.959 . S
C1282 C1281 1.398 . S
C1282 C1283 1.391 . S
C1283 H1271 0.950 . S
C1283 C1279 1.393 . S
C1283 C1282 1.391 . S
H1284 C1292 0.950 . S
H1285 C1297 0.950 . S
H1286 C1294 0.950 1_655 S
H1287 C1296 0.950 . S
H1288 C1298 0.950 . S
H1289 C1300 0.950 1_455 S
H1290 C1302 0.950 . S
H1291 C1303 0.950 . S
C1292 H1284 0.950 . S
C1292 C1293 1.386 . S
C1292 C1294 1.391 . S
C1293 C1292 1.386 . S
C1293 C1297 1.393 . S
C1294 H1286 0.950 1_455 S
C1294 C1292 1.391 . S
C1294 C1295 1.400 . S
C1295 C1294 1.400 . S
C1295 C1296 1.398 . S
C1295 C1301 1.491 1_455 S
C1296 H1287 0.950 . S
C1296 C1295 1.398 . S
C1296 C1297 1.391 . S
C1297 H1285 0.950 . S
C1297 C1293 1.393 . S
C1297 C1296 1.391 . S
C1298 H1288 0.950 . S
C1298 C1299 1.386 . S
C1298 C1300 1.391 . S
C1299 C1298 1.386 . S
C1299 C1303 1.393 . S
C1300 H1289 0.950 1_655 S
C1300 C1298 1.391 . S
C1300 C1301 1.400 . S
C1301 C1295 1.491 1_655 S
C1301 C1300 1.400 . S
C1301 C1302 1.398 . S
C1302 H1290 0.950 . S
C1302 C1301 1.398 . S
C1302 C1303 1.391 . S
C1303 H1291 0.950 . S
C1303 C1299 1.393 . S
C1303 C1302 1.391 . S
H1304 C1312 0.950 . S
H1305 C1317 0.950 . S
H1306 C1314 0.950 . S
H1307 C1316 0.950 . S
H1308 C1318 0.950 . S
H1309 C1320 0.950 . S
H1310 C1322 0.950 . S
H1311 C1323 0.950 . S
C1312 H1304 0.950 . S
C1312 C1313 1.386 . S
C1312 C1314 1.391 . S
C1313 C1312 1.386 . S
C1313 C1317 1.393 . S
C1314 H1306 0.950 . S
C1314 C1312 1.391 . S
C1314 C1315 1.400 . S
C1315 C1314 1.400 . S
C1315 C1316 1.398 . S
C1315 C1321 1.491 1_565 S
C1316 H1307 0.950 . S
C1316 C1315 1.398 . S
C1316 C1317 1.391 . S
C1317 H1305 0.950 . S
C1317 C1313 1.393 . S
C1317 C1316 1.391 . S
C1318 H1308 0.950 . S
C1318 C1319 1.386 . S
C1318 C1320 1.391 . S
C1319 C1318 1.386 . S
C1319 C1323 1.393 . S
C1320 H1309 0.950 . S
C1320 C1318 1.391 . S
C1320 C1321 1.400 . S
C1321 C1315 1.491 1_545 S
C1321 C1320 1.400 . S
C1321 C1322 1.398 . S
C1322 H1310 0.950 . S
C1322 C1321 1.398 . S
C1322 C1323 1.391 . S
C1323 H1311 0.950 . S
C1323 C1319 1.393 . S
C1323 C1322 1.391 . S
H1324 C1332 0.950 . S
H1325 C1337 0.950 . S
H1326 C1334 0.959 . S
H1327 C1336 0.950 . S
H1328 C1338 0.950 . S
H1329 C1340 0.959 . S
H1330 C1342 0.950 . S
H1331 C1343 0.950 . S
C1332 H1324 0.950 . S
C1332 C1333 1.386 . S
C1332 C1334 1.391 . S
C1333 C1332 1.386 . S
C1333 C1337 1.393 . S
C1334 H1326 0.959 . S
C1334 C1332 1.391 . S
C1334 C1335 1.400 . S
C1335 C1334 1.400 . S
C1335 C1336 1.398 . S
C1335 C1341 1.491 1_655 S
C1336 H1327 0.950 . S
C1336 C1335 1.398 . S
C1336 C1337 1.391 . S
C1337 H1325 0.950 . S
C1337 C1333 1.393 . S
C1337 C1336 1.391 . S
C1338 H1328 0.950 . S
C1338 C1339 1.386 . S
C1338 C1340 1.391 . S
C1339 C1338 1.386 . S
C1339 C1343 1.393 . S
C1340 H1329 0.959 . S
C1340 C1338 1.391 . S
C1340 C1341 1.400 . S
C1341 C1335 1.491 1_455 S
C1341 C1340 1.400 . S
C1341 C1342 1.398 . S
C1342 H1330 0.950 . S
C1342 C1341 1.398 . S
C1342 C1343 1.391 . S
C1343 H1331 0.950 . S
C1343 C1339 1.393 . S
C1343 C1342 1.391 . S
C553 C73 0.823 . S
C559 C5 0.842 . S
C573 C39 0.817 . S
C579 C107 0.830 . S
C593 C209 0.829 . S
C599 C141 0.817 . S
C613 C243 0.825 . S
C619 C175 0.820 . S
C633 C277 0.825 . S
C639 C345 0.841 . S
C653 C311 0.815 . S
C659 C379 0.838 . S
C673 C413 0.816 . S
C679 C481 0.838 . S
C693 C515 0.829 . S
C699 C447 0.840 . S
C713 C9 1.713 . S
C719 C179 1.719 . S
C733 C213 1.738 . S
C739 C43 1.726 . S
C753 C247 1.714 . S
C759 C77 1.739 . S
C773 C145 1.711 . S
C779 C111 1.737 . S
C793 C451 1.730 . S
C799 C281 1.708 . S
C813 C485 1.713 . S
C819 C315 1.739 . S
C833 C519 1.733 . S
C839 C349 1.709 . S
C853 C417 1.736 . S
C859 C383 1.710 . S
C873 C20 1.403 . S
C879 C360 1.419 . S
C893 C394 1.403 . S
C899 C54 1.413 . S
C913 C292 1.415 . S
C919 C88 1.424 . S
C933 C326 1.402 . S
C939 C122 1.418 . S
C953 C156 1.421 . S
C959 C496 1.404 . S
C973 C190 1.424 . S
C979 C530 1.416 . S
C993 C224 1.425 . S
C999 C428 1.411 . S
C1013 C258 1.417 . S
C1019 C462 1.402 . S
C1033 C138 1.035 . S
C1039 C2 1.015 . S
C1053 C36 1.013 . S
C1059 C172 1.035 . S
C1073 C206 0.998 . S
C1079 C70 1.020 . S
C1093 C240 1.011 . S
C1099 C104 1.035 . S
C1113 C305 1.245 . S
C1119 C441 1.245 . S
C1133 C475 1.241 . S
C1139 C339 1.245 . S
C1153 C373 1.247 . S
C1159 C509 1.242 . S
C1173 C543 1.234 . S
C1179 C407 1.254 . S
C1193 C376 1.033 . S
C1199 C444 1.021 . S
C1213 C274 1.021 . S
C1219 C478 1.033 . S
C1233 C512 1.028 . S
C1239 C308 1.000 . S
C1253 C410 1.032 . S
C1259 C342 1.024 . S
C1273 C135 1.236 . S
C1279 C203 1.250 . S
C1293 C33 1.254 . S
C1299 C237 1.234 . S
C1313 C271 1.247 . S
C1319 C67 1.240 . S
C1333 C101 1.252 . S
C1339 C169 1.237 . S
