# Generated by pormake.
# Topology wgl, (5)-cn, num edge types: 1
# Building blocks:
#     Node 0, Type 0, BuildingBlock: BEQFEK_clean_sbu_0, # of connection points: 5
#     Node 1, Type 0, BuildingBlock: BEQFEK_clean_sbu_0, # of connection points: 5
#     Node 2, Type 0, BuildingBlock: BEQFEK_clean_sbu_0, # of connection points: 5
#     Node 3, Type 0, BuildingBlock: BEQFEK_clean_sbu_0, # of connection points: 5
#     Node 4, Type 0, BuildingBlock: BEQFEK_clean_sbu_0, # of connection points: 5
#     Node 5, Type 0, BuildingBlock: BEQFEK_clean_sbu_0, # of connection points: 5
#     Node 6, Type 0, BuildingBlock: BEQFEK_clean_sbu_0, # of connection points: 5
#     Node 7, Type 0, BuildingBlock: BEQFEK_clean_sbu_0, # of connection points: 5
#     Node 8, Type 0, BuildingBlock: BEQFEK_clean_sbu_0, # of connection points: 5
#     Node 9, Type 0, BuildingBlock: BEQFEK_clean_sbu_0, # of connection points: 5
#     Node 10, Type 0, BuildingBlock: BEQFEK_clean_sbu_0, # of connection points: 5
#     Node 11, Type 0, BuildingBlock: BEQFEK_clean_sbu_0, # of connection points: 5
#     Node 12, Type 0, BuildingBlock: BEQFEK_clean_sbu_0, # of connection points: 5
#     Node 13, Type 0, BuildingBlock: BEQFEK_clean_sbu_0, # of connection points: 5
#     Node 14, Type 0, BuildingBlock: BEQFEK_clean_sbu_0, # of connection points: 5
#     Node 15, Type 0, BuildingBlock: BEQFEK_clean_sbu_0, # of connection points: 5
#     Node 16, Type 0, BuildingBlock: BEQFEK_clean_sbu_0, # of connection points: 5
#     Node 17, Type 0, BuildingBlock: BEQFEK_clean_sbu_0, # of connection points: 5
#     Node 18, Type 0, BuildingBlock: BEQFEK_clean_sbu_0, # of connection points: 5
#     Node 19, Type 0, BuildingBlock: BEQFEK_clean_sbu_0, # of connection points: 5
#     Node 20, Type 0, BuildingBlock: BEQFEK_clean_sbu_0, # of connection points: 5
#     Node 21, Type 0, BuildingBlock: BEQFEK_clean_sbu_0, # of connection points: 5
#     Node 22, Type 0, BuildingBlock: BEQFEK_clean_sbu_0, # of connection points: 5
#     Node 23, Type 0, BuildingBlock: BEQFEK_clean_sbu_0, # of connection points: 5
#     Node 24, Type 0, BuildingBlock: BEQFEK_clean_sbu_0, # of connection points: 5
#     Node 25, Type 0, BuildingBlock: BEQFEK_clean_sbu_0, # of connection points: 5
#     Node 26, Type 0, BuildingBlock: BEQFEK_clean_sbu_0, # of connection points: 5
#     Node 27, Type 0, BuildingBlock: BEQFEK_clean_sbu_0, # of connection points: 5
#     Node 28, Type 0, BuildingBlock: BEQFEK_clean_sbu_0, # of connection points: 5
#     Node 29, Type 0, BuildingBlock: BEQFEK_clean_sbu_0, # of connection points: 5
#     Node 30, Type 0, BuildingBlock: BEQFEK_clean_sbu_0, # of connection points: 5
#     Node 31, Type 0, BuildingBlock: BEQFEK_clean_sbu_0, # of connection points: 5
#     Edge 32, Type (0, 0), None
#     Edge 33, Type (0, 0), None
#     Edge 34, Type (0, 0), None
#     Edge 35, Type (0, 0), None
#     Edge 36, Type (0, 0), None
#     Edge 37, Type (0, 0), None
#     Edge 38, Type (0, 0), None
#     Edge 39, Type (0, 0), None
#     Edge 40, Type (0, 0), None
#     Edge 41, Type (0, 0), None
#     Edge 42, Type (0, 0), None
#     Edge 43, Type (0, 0), None
#     Edge 44, Type (0, 0), None
#     Edge 45, Type (0, 0), None
#     Edge 46, Type (0, 0), None
#     Edge 47, Type (0, 0), None
#     Edge 48, Type (0, 0), None
#     Edge 49, Type (0, 0), None
#     Edge 50, Type (0, 0), None
#     Edge 51, Type (0, 0), None
#     Edge 52, Type (0, 0), None
#     Edge 53, Type (0, 0), None
#     Edge 54, Type (0, 0), None
#     Edge 55, Type (0, 0), None
#     Edge 56, Type (0, 0), None
#     Edge 57, Type (0, 0), None
#     Edge 58, Type (0, 0), None
#     Edge 59, Type (0, 0), None
#     Edge 60, Type (0, 0), None
#     Edge 61, Type (0, 0), None
#     Edge 62, Type (0, 0), None
#     Edge 63, Type (0, 0), None
#     Edge 64, Type (0, 0), None
#     Edge 65, Type (0, 0), None
#     Edge 66, Type (0, 0), None
#     Edge 67, Type (0, 0), None
#     Edge 68, Type (0, 0), None
#     Edge 69, Type (0, 0), None
#     Edge 70, Type (0, 0), None
#     Edge 71, Type (0, 0), None
#     Edge 72, Type (0, 0), None
#     Edge 73, Type (0, 0), None
#     Edge 74, Type (0, 0), None
#     Edge 75, Type (0, 0), None
#     Edge 76, Type (0, 0), None
#     Edge 77, Type (0, 0), None
#     Edge 78, Type (0, 0), None
#     Edge 79, Type (0, 0), None
#     Edge 80, Type (0, 0), None
#     Edge 81, Type (0, 0), None
#     Edge 82, Type (0, 0), None
#     Edge 83, Type (0, 0), None
#     Edge 84, Type (0, 0), None
#     Edge 85, Type (0, 0), None
#     Edge 86, Type (0, 0), None
#     Edge 87, Type (0, 0), None
#     Edge 88, Type (0, 0), None
#     Edge 89, Type (0, 0), None
#     Edge 90, Type (0, 0), None
#     Edge 91, Type (0, 0), None
#     Edge 92, Type (0, 0), None
#     Edge 93, Type (0, 0), None
#     Edge 94, Type (0, 0), None
#     Edge 95, Type (0, 0), None
#     Edge 96, Type (0, 0), None
#     Edge 97, Type (0, 0), None
#     Edge 98, Type (0, 0), None
#     Edge 99, Type (0, 0), None
#     Edge 100, Type (0, 0), None
#     Edge 101, Type (0, 0), None
#     Edge 102, Type (0, 0), None
#     Edge 103, Type (0, 0), None
#     Edge 104, Type (0, 0), None
#     Edge 105, Type (0, 0), None
#     Edge 106, Type (0, 0), None
#     Edge 107, Type (0, 0), None
#     Edge 108, Type (0, 0), None
#     Edge 109, Type (0, 0), None
#     Edge 110, Type (0, 0), None
#     Edge 111, Type (0, 0), None
# Relax obj value: 0.122
# Max RMSD: 0.120
# Mean RMSD: 0.120
data_MOF--net-wgl--node1-BEQFEK_clean_sbu_0--edge1-none
_symmetry_space_group_name_H-M    P1
_symmetry_Int_Tables_number       1
_symmetry_cell_setting            triclinic
loop_
_symmetry_equiv_pos_as_xyz
'x, y, z'
_cell_length_a     30.736689
_cell_length_b     30.736691
_cell_length_c     27.153134
_cell_angle_alpha  90.000009
_cell_angle_beta   90.0
_cell_angle_gamma 89.999994
loop_
_atom_site_label
_atom_site_type_symbol
_atom_site_fract_x
_atom_site_fract_y
_atom_site_fract_z
_atom_type_partial_charge
Co0 Co 0.34519 0.25631 0.1293 0.0
Co1 Co 0.28905 0.33724 0.13553 0.0
C2 C 0.26808 0.27904 0.05218 0.0
O3 O 0.30188 0.25511 0.06324 0.0
O4 O 0.26061 0.31298 0.07742 0.0
C5 C 0.38181 0.16495 0.14649 0.0
O6 O 0.34507 0.14977 0.12881 0.0
C7 C 0.23444 0.41145 0.13246 0.0
C8 C 0.2606 0.44856 0.19608 0.0
C9 C 0.2329 0.45061 0.15626 0.0
N10 N 0.26338 0.38713 0.15614 0.0
N11 N 0.27929 0.40922 0.19386 0.0
C12 C 0.20763 0.39653 0.08958 0.0
H13 H 0.22881 0.39304 0.05687 0.0
H14 H 0.19339 0.36416 0.09778 0.0
H15 H 0.1811 0.41975 0.0808 0.0
C16 C 0.29474 0.23763 0.2237 0.0
N17 N 0.30767 0.26253 0.18555 0.0
N18 N 0.28561 0.29887 0.18709 0.0
C19 C 0.25769 0.29867 0.22492 0.0
C20 C 0.26598 0.26194 0.25315 0.0
C21 C 0.29559 0.18909 0.22014 0.0
H22 H 0.29014 0.17977 0.18133 0.0
H23 H 0.26875 0.17391 0.24121 0.0
H24 H 0.32763 0.17642 0.23225 0.0
O25 O 0.38939 0.30725 0.13848 0.0
O26 O 0.34593 0.36295 0.12848 0.0
H27 H 0.21821 0.35568 0.2372 0.0
H28 H 0.18863 0.30456 0.24065 0.0
C29 C 0.21507 0.32249 0.22169 0.0
H30 H 0.20543 0.32609 0.18252 0.0
H31 H 0.3035 0.39765 0.2174 0.0
O32 O 0.38835 0.20582 0.14528 0.0
C33 C 0.3831 0.34828 0.13832 0.0
Co34 Co 1.00605 0.09521 0.37928 0.0
Co35 Co 0.92513 0.03906 0.38552 0.0
C36 C 0.98333 0.01808 0.30217 0.0
O37 O 0.00726 0.05189 0.31323 0.0
O38 O 0.9494 0.01061 0.32742 0.0
C39 C 0.09741 0.13183 0.39648 0.0
O40 O 0.1126 0.0951 0.37881 0.0
C41 C 0.85092 0.98445 0.38245 0.0
C42 C 0.81381 0.01061 0.44606 0.0
C43 C 0.81177 0.98291 0.40624 0.0
N44 N 0.87524 0.01338 0.40613 0.0
N45 N 0.85314 0.02929 0.44384 0.0
C46 C 0.86586 0.95763 0.33957 0.0
H47 H 0.86935 0.9788 0.30686 0.0
H48 H 0.89822 0.9434 0.34778 0.0
H49 H 0.84264 0.9311 0.3308 0.0
C50 C 0.02475 0.04476 0.47367 0.0
N51 N 0.99984 0.0577 0.43553 0.0
N52 N 0.9635 0.03564 0.43708 0.0
C53 C 0.9637 0.00772 0.47491 0.0
C54 C 1.00044 0.01601 0.50313 0.0
C55 C 0.07328 0.04559 0.47009 0.0
H56 H 0.08259 0.04014 0.43128 0.0
H57 H 0.08846 0.01876 0.49117 0.0
H58 H 0.08597 0.07764 0.48219 0.0
O59 O 0.95511 0.13941 0.38844 0.0
O60 O 0.89941 0.09593 0.37846 0.0
H61 H 0.9067 0.96822 0.4872 0.0
H62 H 0.95783 0.93865 0.49064 0.0
C63 C 0.93989 0.96509 0.47169 0.0
H64 H 0.93629 0.95545 0.43251 0.0
H65 H 0.86471 0.0535 0.46739 0.0
O66 O 0.05653 0.13837 0.39526 0.0
C67 C 0.91408 0.13311 0.38829 0.0
Co68 Co 0.16718 0.75606 0.6293 0.0
Co69 Co 0.22332 0.67514 0.63553 0.0
C70 C 0.2443 0.73333 0.55218 0.0
O71 O 0.21049 0.75726 0.56324 0.0
O72 O 0.25177 0.6994 0.57742 0.0
C73 C 0.13056 0.84742 0.64649 0.0
O74 O 0.1673 0.86261 0.62881 0.0
C75 C 0.27793 0.60092 0.63246 0.0
C76 C 0.25177 0.56381 0.69608 0.0
C77 C 0.27947 0.56177 0.65626 0.0
N78 N 0.249 0.62524 0.65614 0.0
N79 N 0.23309 0.60315 0.69386 0.0
C80 C 0.30474 0.61584 0.58958 0.0
H81 H 0.28357 0.61933 0.55687 0.0
H82 H 0.31898 0.64821 0.59778 0.0
H83 H 0.33127 0.59263 0.5808 0.0
C84 C 0.21763 0.77475 0.7237 0.0
N85 N 0.2047 0.74984 0.68555 0.0
N86 N 0.22676 0.71351 0.68709 0.0
C87 C 0.25468 0.7137 0.72492 0.0
C88 C 0.24639 0.75043 0.75315 0.0
C89 C 0.21679 0.82328 0.72014 0.0
H90 H 0.22223 0.83261 0.68133 0.0
H91 H 0.24362 0.83846 0.74121 0.0
H92 H 0.18474 0.83595 0.73225 0.0
O93 O 0.12298 0.70512 0.63848 0.0
O94 O 0.16645 0.64943 0.62848 0.0
H95 H 0.29417 0.65669 0.7372 0.0
H96 H 0.32374 0.70781 0.74065 0.0
C97 C 0.29731 0.68988 0.72169 0.0
H98 H 0.30694 0.68628 0.68252 0.0
H99 H 0.20888 0.61473 0.7174 0.0
O100 O 0.12402 0.80655 0.64528 0.0
C101 C 0.12927 0.6641 0.63832 0.0
Co102 Co 0.50632 0.91717 0.87928 0.0
Co103 Co 0.58724 0.97331 0.88552 0.0
C104 C 0.52904 0.99429 0.80217 0.0
O105 O 0.50512 0.96048 0.81323 0.0
O106 O 0.56298 1.00176 0.82742 0.0
C107 C 0.41497 0.88054 0.89648 0.0
O108 O 0.39977 0.91727 0.87881 0.0
C109 C 0.66145 0.02793 0.88245 0.0
C110 C 0.69857 1.00177 0.94606 0.0
C111 C 0.70061 0.02947 0.90624 0.0
N112 N 0.63713 0.99899 0.90613 0.0
N113 N 0.65923 0.98308 0.94384 0.0
C114 C 0.64652 0.05474 0.83957 0.0
H115 H 0.64303 0.03357 0.80686 0.0
H116 H 0.61415 0.06897 0.84778 0.0
H117 H 0.66973 0.08128 0.8308 0.0
C118 C 0.48762 0.96761 0.97367 0.0
N119 N 0.51254 0.95468 0.93553 0.0
N120 N 0.54887 0.97674 0.93708 0.0
C121 C 0.54867 1.00466 0.97491 0.0
C122 C 0.51193 0.99636 1.00313 0.0
C123 C 0.43909 0.96678 0.97009 0.0
H124 H 0.42978 0.97224 0.93128 0.0
H125 H 0.42391 0.99362 0.99117 0.0
H126 H 0.4264 0.93474 0.98219 0.0
O127 O 0.55727 0.87297 0.88844 0.0
O128 O 0.61296 0.91644 0.87846 0.0
H129 H 0.60567 0.04415 0.9872 0.0
H130 H 0.55454 0.07372 0.99064 0.0
C131 C 0.57248 0.04729 0.97169 0.0
H132 H 0.57609 0.05692 0.93251 0.0
H133 H 0.64766 0.95887 0.96739 0.0
O134 O 0.45584 0.874 0.89526 0.0
C135 C 0.59829 0.87926 0.88829 0.0
Co136 Co 0.34519 0.75606 0.42568 0.0
Co137 Co 0.28905 0.67513 0.41945 0.0
C138 C 0.26809 0.73333 0.5028 0.0
O139 O 0.30188 0.75726 0.49174 0.0
O140 O 0.2606 0.69939 0.47756 0.0
C141 C 0.38181 0.84743 0.40849 0.0
O142 O 0.34508 0.86261 0.42617 0.0
C143 C 0.23444 0.60092 0.42251 0.0
C144 C 0.2606 0.56382 0.35888 0.0
C145 C 0.2329 0.56177 0.39871 0.0
N146 N 0.26337 0.62524 0.39884 0.0
N147 N 0.27928 0.60315 0.36111 0.0
C148 C 0.20763 0.61584 0.4654 0.0
H149 H 0.2288 0.61932 0.49811 0.0
H150 H 0.1934 0.64821 0.4572 0.0
H151 H 0.1811 0.59262 0.47417 0.0
C152 C 0.29474 0.77475 0.33128 0.0
N153 N 0.30767 0.74984 0.36943 0.0
N154 N 0.28561 0.71351 0.3679 0.0
C155 C 0.25769 0.7137 0.33007 0.0
C156 C 0.26598 0.75043 0.30183 0.0
C157 C 0.29559 0.82328 0.33483 0.0
H158 H 0.29015 0.83261 0.37364 0.0
H159 H 0.26876 0.83846 0.31376 0.0
H160 H 0.32764 0.83595 0.32272 0.0
O161 O 0.38939 0.70512 0.4165 0.0
O162 O 0.34592 0.64942 0.4265 0.0
H163 H 0.2182 0.6567 0.31778 0.0
H164 H 0.18862 0.70782 0.31434 0.0
C165 C 0.21506 0.68989 0.33329 0.0
H166 H 0.20542 0.68629 0.37246 0.0
H167 H 0.30349 0.61473 0.33757 0.0
O168 O 0.38835 0.80655 0.40969 0.0
C169 C 0.3831 0.6641 0.41666 0.0
Co170 Co 0.50632 0.09521 0.6757 0.0
Co171 Co 0.58724 0.03906 0.66945 0.0
C172 C 0.52905 0.01809 0.7528 0.0
O173 O 0.50511 0.05189 0.74175 0.0
O174 O 0.56298 0.01061 0.72756 0.0
C175 C 0.41497 0.13183 0.6585 0.0
O176 O 0.39977 0.0951 0.67618 0.0
C177 C 0.66145 0.98444 0.67252 0.0
C178 C 0.69856 0.0106 0.6089 0.0
C179 C 0.70061 0.9829 0.64873 0.0
N180 N 0.63713 0.01338 0.64884 0.0
N181 N 0.65923 0.02929 0.61112 0.0
C182 C 0.64652 0.95763 0.7154 0.0
H183 H 0.64304 0.9788 0.74811 0.0
H184 H 0.61415 0.9434 0.7072 0.0
H185 H 0.66974 0.93109 0.72417 0.0
C186 C 0.48762 0.04476 0.58131 0.0
N187 N 0.51254 0.05769 0.61945 0.0
N188 N 0.54887 0.03563 0.6179 0.0
C189 C 0.54867 0.00771 0.58007 0.0
C190 C 0.51193 0.01601 0.55185 0.0
C191 C 0.43909 0.0456 0.58488 0.0
H192 H 0.42978 0.04015 0.6237 0.0
H193 H 0.42391 0.01876 0.56381 0.0
H194 H 0.42641 0.07764 0.57278 0.0
O195 O 0.55727 0.13941 0.66654 0.0
O196 O 0.61296 0.09593 0.67651 0.0
H197 H 0.60567 0.96821 0.56779 0.0
H198 H 0.55454 0.93865 0.56435 0.0
C199 C 0.57248 0.96508 0.5833 0.0
H200 H 0.57608 0.95545 0.62247 0.0
H201 H 0.64765 0.0535 0.58758 0.0
O202 O 0.45584 0.13837 0.65971 0.0
C203 C 0.59829 0.13311 0.66669 0.0
Co204 Co 0.16718 0.25631 0.92568 0.0
Co205 Co 0.22333 0.33724 0.91945 0.0
C206 C 0.24429 0.27905 1.0028 0.0
O207 O 0.21049 0.25511 0.99174 0.0
O208 O 0.25177 0.31298 0.97756 0.0
C209 C 0.13056 0.16495 0.90849 0.0
O210 O 0.1673 0.14977 0.92617 0.0
C211 C 0.27793 0.41146 0.92251 0.0
C212 C 0.25178 0.44856 0.85888 0.0
C213 C 0.27947 0.45061 0.89871 0.0
N214 N 0.249 0.38713 0.89884 0.0
N215 N 0.23309 0.40922 0.86111 0.0
C216 C 0.30475 0.39654 0.9654 0.0
H217 H 0.28357 0.39305 0.99811 0.0
H218 H 0.31898 0.36417 0.9572 0.0
H219 H 0.33128 0.41975 0.97417 0.0
C220 C 0.21763 0.23763 0.83128 0.0
N221 N 0.2047 0.26253 0.86943 0.0
N222 N 0.22677 0.29887 0.86789 0.0
C223 C 0.25469 0.29867 0.83006 0.0
C224 C 0.24639 0.26194 0.80183 0.0
C225 C 0.21678 0.18909 0.83483 0.0
H226 H 0.22222 0.17977 0.87364 0.0
H227 H 0.24362 0.17391 0.81376 0.0
H228 H 0.18473 0.17642 0.82272 0.0
O229 O 0.12298 0.30725 0.9165 0.0
O230 O 0.16645 0.36295 0.9265 0.0
H231 H 0.29418 0.35568 0.81778 0.0
H232 H 0.32375 0.30455 0.81434 0.0
C233 C 0.29731 0.32249 0.83329 0.0
H234 H 0.30695 0.32609 0.87246 0.0
H235 H 0.20888 0.39764 0.83757 0.0
O236 O 0.12402 0.20582 0.90969 0.0
C237 C 0.12927 0.34828 0.91666 0.0
Co238 Co 1.00605 0.91717 0.1757 0.0
Co239 Co 0.92513 0.97332 0.16945 0.0
C240 C 0.98333 0.99428 0.2528 0.0
O241 O 0.00726 0.96048 0.24175 0.0
O242 O 0.94939 1.00176 0.22756 0.0
C243 C 0.09741 0.88054 0.1585 0.0
O244 O 0.1126 0.91727 0.17618 0.0
C245 C 0.85092 0.02793 0.17252 0.0
C246 C 0.81381 1.00177 0.1089 0.0
C247 C 0.81177 0.02947 0.14873 0.0
N248 N 0.87524 0.999 0.14884 0.0
N249 N 0.85315 0.98309 0.11112 0.0
C250 C 0.86585 0.05475 0.2154 0.0
H251 H 0.86933 0.03357 0.24811 0.0
H252 H 0.89822 0.06897 0.2072 0.0
H253 H 0.84264 0.08128 0.22417 0.0
C254 C 0.02475 0.96761 0.08131 0.0
N255 N 0.99984 0.95468 0.11945 0.0
N256 N 0.9635 0.97674 0.1179 0.0
C257 C 0.96371 1.00466 0.08007 0.0
C258 C 1.00044 0.99637 0.05185 0.0
C259 C 0.07328 0.96677 0.08488 0.0
H260 H 0.0826 0.97223 0.1237 0.0
H261 H 0.08847 0.99361 0.06381 0.0
H262 H 0.08597 0.93473 0.07278 0.0
O263 O 0.95511 0.87297 0.16654 0.0
O264 O 0.89941 0.91644 0.17651 0.0
H265 H 0.90671 0.04416 0.06779 0.0
H266 H 0.95784 0.07373 0.06435 0.0
C267 C 0.9399 0.04729 0.0833 0.0
H268 H 0.9363 0.05693 0.12247 0.0
H269 H 0.86472 0.95888 0.08758 0.0
O270 O 0.05653 0.874 0.15971 0.0
C271 C 0.91408 0.87926 0.16669 0.0
Co272 Co 0.66719 0.75607 0.92568 0.0
Co273 Co 0.72332 0.67514 0.91945 0.0
C274 C 0.7443 0.73334 1.0028 0.0
O275 O 0.71049 0.75727 0.99174 0.0
O276 O 0.75177 0.6994 0.97756 0.0
C277 C 0.63057 0.84743 0.90846 0.0
O278 O 0.66731 0.86262 0.92613 0.0
C279 C 0.77793 0.60092 0.92254 0.0
C280 C 0.75176 0.5638 0.85892 0.0
C281 C 0.77946 0.56176 0.89874 0.0
N282 N 0.74899 0.62524 0.89885 0.0
N283 N 0.73308 0.60314 0.86114 0.0
C284 C 0.80474 0.61585 0.96541 0.0
H285 H 0.78357 0.61934 0.99812 0.0
H286 H 0.81898 0.64822 0.9572 0.0
H287 H 0.83128 0.59264 0.97418 0.0
C288 C 0.71765 0.77475 0.83128 0.0
N289 N 0.70471 0.74984 0.86943 0.0
N290 N 0.72676 0.7135 0.86789 0.0
C291 C 0.75468 0.71369 0.83006 0.0
C292 C 0.7464 0.75043 0.80183 0.0
C293 C 0.71681 0.82328 0.83484 0.0
H294 H 0.72226 0.8326 0.87365 0.0
H295 H 0.74364 0.83845 0.81376 0.0
H296 H 0.68476 0.83596 0.82274 0.0
O297 O 0.62298 0.70513 0.9165 0.0
O298 O 0.66644 0.64943 0.92652 0.0
H299 H 0.79416 0.65668 0.81778 0.0
H300 H 0.82374 0.7078 0.81433 0.0
C301 C 0.7973 0.68987 0.83329 0.0
H302 H 0.80694 0.68627 0.87246 0.0
H303 H 0.70887 0.61472 0.83759 0.0
O304 O 0.62403 0.80656 0.90969 0.0
C305 C 0.62927 0.6641 0.91666 0.0
Co306 Co 0.00633 0.91717 0.6757 0.0
Co307 Co 0.08725 0.97331 0.66945 0.0
C308 C 0.02906 0.99429 0.75281 0.0
O309 O 1.00513 0.96049 0.74175 0.0
O310 O 0.06299 1.00175 0.72756 0.0
C311 C 0.91497 0.88055 0.6585 0.0
O312 O 0.89978 0.91728 0.67618 0.0
C313 C 0.16146 0.02792 0.67252 0.0
C314 C 0.19857 1.00177 0.60889 0.0
C315 C 0.20061 0.02946 0.64872 0.0
N316 N 0.13713 0.99899 0.64883 0.0
N317 N 0.15923 0.98309 0.61111 0.0
C318 C 0.14654 0.05473 0.7154 0.0
H319 H 0.14305 0.03356 0.74811 0.0
H320 H 0.11417 0.06897 0.7072 0.0
H321 H 0.16975 0.08127 0.72417 0.0
C322 C 0.98761 0.96764 0.58133 0.0
N323 N 0.01253 0.95469 0.61945 0.0
N324 N 0.04887 0.97675 0.6179 0.0
C325 C 0.04866 1.00469 0.58009 0.0
C326 C 0.0119 0.99642 0.55188 0.0
C327 C 0.93908 0.96681 0.58492 0.0
H328 H 0.92978 0.97227 0.62374 0.0
H329 H 0.92389 0.99365 0.56385 0.0
H330 H 0.92638 0.93477 0.57283 0.0
O331 O 0.05727 0.87297 0.66653 0.0
O332 O 0.11297 0.91644 0.67649 0.0
H333 H 0.10566 0.04418 0.56782 0.0
H334 H 0.05453 0.07376 0.56438 0.0
C335 C 0.07247 0.04732 0.58333 0.0
H336 H 0.07607 0.05694 0.6225 0.0
H337 H 0.14765 0.95888 0.58756 0.0
O338 O 0.95584 0.87401 0.65971 0.0
C339 C 0.09829 0.87926 0.66667 0.0
Co340 Co 0.84519 0.25631 0.42568 0.0
Co341 Co 0.78905 0.33724 0.41945 0.0
C342 C 0.76808 0.27903 0.5028 0.0
O343 O 0.80188 0.25511 0.49174 0.0
O344 O 0.76061 0.31297 0.47756 0.0
C345 C 0.8818 0.16495 0.40846 0.0
O346 O 0.84507 0.14976 0.42613 0.0
C347 C 0.73445 0.41145 0.42254 0.0
C348 C 0.76061 0.44857 0.35892 0.0
C349 C 0.73291 0.45061 0.39874 0.0
N350 N 0.76338 0.38713 0.39885 0.0
N351 N 0.7793 0.40923 0.36114 0.0
C352 C 0.70763 0.39652 0.46541 0.0
H353 H 0.7288 0.39303 0.49812 0.0
H354 H 0.6934 0.36416 0.4572 0.0
H355 H 0.6811 0.41974 0.47418 0.0
C356 C 0.79473 0.23763 0.33128 0.0
N357 N 0.80767 0.26253 0.36943 0.0
N358 N 0.78561 0.29887 0.36789 0.0
C359 C 0.75769 0.29868 0.33006 0.0
C360 C 0.76598 0.26195 0.30183 0.0
C361 C 0.79557 0.18909 0.33484 0.0
H362 H 0.79011 0.17977 0.37365 0.0
H363 H 0.76873 0.17392 0.31376 0.0
H364 H 0.82761 0.17641 0.32274 0.0
O365 O 0.88939 0.30724 0.4165 0.0
O366 O 0.84593 0.36294 0.42652 0.0
H367 H 0.71821 0.3557 0.31778 0.0
H368 H 0.68863 0.30458 0.31433 0.0
C369 C 0.71507 0.32251 0.33329 0.0
H370 H 0.70543 0.32611 0.37246 0.0
H371 H 0.80351 0.39766 0.33759 0.0
O372 O 0.88834 0.20582 0.40969 0.0
C373 C 0.8831 0.34827 0.41666 0.0
Co374 Co 0.50605 0.0952 0.1757 0.0
Co375 Co 0.42512 0.03906 0.16945 0.0
C376 C 0.48332 0.01808 0.25281 0.0
O377 O 0.50725 0.05189 0.24175 0.0
O378 O 0.44938 0.01062 0.22756 0.0
C379 C 0.59741 0.13183 0.1585 0.0
O380 O 0.6126 0.0951 0.17618 0.0
C381 C 0.35091 0.98445 0.17252 0.0
C382 C 0.31381 0.0106 0.10889 0.0
C383 C 0.31176 0.98291 0.14872 0.0
N384 N 0.37524 0.01338 0.14883 0.0
N385 N 0.35314 0.02928 0.11111 0.0
C386 C 0.36584 0.95764 0.2154 0.0
H387 H 0.36932 0.97881 0.24811 0.0
H388 H 0.39821 0.94341 0.2072 0.0
H389 H 0.34262 0.93111 0.22417 0.0
C390 C 0.52477 0.04473 0.08133 0.0
N391 N 0.49984 0.05768 0.11945 0.0
N392 N 0.4635 0.03562 0.1179 0.0
C393 C 0.46372 0.00769 0.08009 0.0
C394 C 0.50047 0.01596 0.05188 0.0
C395 C 0.5733 0.04556 0.08492 0.0
H396 H 0.58259 0.0401 0.12374 0.0
H397 H 0.58848 0.01872 0.06385 0.0
H398 H 0.58599 0.0776 0.07283 0.0
O399 O 0.45511 0.13941 0.16653 0.0
O400 O 0.39941 0.09593 0.17649 0.0
H401 H 0.40671 0.96819 0.06782 0.0
H402 H 0.45784 0.93862 0.06438 0.0
C403 C 0.4399 0.96506 0.08333 0.0
H404 H 0.4363 0.95544 0.1225 0.0
H405 H 0.36472 0.05349 0.08756 0.0
O406 O 0.55653 0.13836 0.15971 0.0
C407 C 0.41408 0.13311 0.16667 0.0
Co408 Co 0.66719 0.2563 0.6293 0.0
Co409 Co 0.72333 0.33724 0.63553 0.0
C410 C 0.74429 0.27904 0.55218 0.0
O411 O 0.71049 0.2551 0.56324 0.0
O412 O 0.75177 0.31298 0.57741 0.0
C413 C 0.63057 0.16494 0.64651 0.0
O414 O 0.66731 0.14976 0.62884 0.0
C415 C 0.77793 0.41146 0.63245 0.0
C416 C 0.75176 0.44857 0.69607 0.0
C417 C 0.77946 0.45061 0.65625 0.0
N418 N 0.74899 0.38713 0.65613 0.0
N419 N 0.73308 0.40923 0.69385 0.0
C420 C 0.80475 0.39653 0.58958 0.0
H421 H 0.78358 0.39305 0.55686 0.0
H422 H 0.81898 0.36416 0.59778 0.0
H423 H 0.83128 0.41974 0.58081 0.0
C424 C 0.71764 0.23763 0.7237 0.0
N425 N 0.70471 0.26253 0.68555 0.0
N426 N 0.72677 0.29887 0.68709 0.0
C427 C 0.75469 0.29868 0.72492 0.0
C428 C 0.7464 0.26195 0.75315 0.0
C429 C 0.7168 0.1891 0.72015 0.0
H430 H 0.72225 0.17977 0.68134 0.0
H431 H 0.74364 0.17392 0.74122 0.0
H432 H 0.68476 0.17642 0.73225 0.0
O433 O 0.62298 0.30724 0.63848 0.0
O434 O 0.66645 0.36294 0.62847 0.0
H435 H 0.79417 0.35569 0.73719 0.0
H436 H 0.82375 0.30457 0.74064 0.0
C437 C 0.79731 0.3225 0.72169 0.0
H438 H 0.80694 0.3261 0.68251 0.0
H439 H 0.70887 0.39765 0.71739 0.0
O440 O 0.62403 0.20582 0.64529 0.0
C441 C 0.62927 0.34827 0.63832 0.0
Co442 Co 0.50605 0.91717 0.37928 0.0
Co443 Co 0.42512 0.97332 0.38553 0.0
C444 C 0.48331 0.99428 0.30218 0.0
O445 O 0.50725 0.96049 0.31323 0.0
O446 O 0.44937 1.00176 0.32741 0.0
C447 C 0.59741 0.88055 0.39648 0.0
O448 O 0.6126 0.91727 0.37879 0.0
C449 C 0.35091 0.02793 0.38247 0.0
C450 C 0.31381 1.00178 0.4461 0.0
C451 C 0.31176 0.02947 0.40628 0.0
N452 N 0.37524 0.999 0.40615 0.0
N453 N 0.35315 0.98309 0.44388 0.0
C454 C 0.36583 0.05474 0.33959 0.0
H455 H 0.36931 0.03356 0.30687 0.0
H456 H 0.3982 0.06897 0.34778 0.0
H457 H 0.34262 0.08127 0.33082 0.0
C458 C 0.52477 0.96764 0.47365 0.0
N459 N 0.49984 0.95469 0.43553 0.0
N460 N 0.4635 0.97676 0.43708 0.0
C461 C 0.46372 1.00469 0.47489 0.0
C462 C 0.50047 0.99642 0.5031 0.0
C463 C 0.5733 0.96681 0.47006 0.0
H464 H 0.5826 0.97226 0.43124 0.0
H465 H 0.58848 0.99364 0.49113 0.0
H466 H 0.58598 0.93476 0.48215 0.0
O467 O 0.45511 0.87297 0.38845 0.0
O468 O 0.3994 0.91644 0.37849 0.0
H469 H 0.40672 0.04419 0.48716 0.0
H470 H 0.45785 0.07376 0.49059 0.0
C471 C 0.43991 0.04732 0.47165 0.0
H472 H 0.43631 0.05694 0.43247 0.0
H473 H 0.36473 0.95889 0.46743 0.0
O474 O 0.55653 0.87401 0.39527 0.0
C475 C 0.41408 0.87926 0.38831 0.0
Co476 Co 0.84519 0.75607 0.1293 0.0
Co477 Co 0.78905 0.67513 0.13553 0.0
C478 C 0.76808 0.73333 0.05218 0.0
O479 O 0.80188 0.75727 0.06324 0.0
O480 O 0.7606 0.69939 0.07741 0.0
C481 C 0.8818 0.84743 0.14651 0.0
O482 O 0.84507 0.86262 0.12884 0.0
C483 C 0.73444 0.60092 0.13245 0.0
C484 C 0.76061 0.56381 0.19607 0.0
C485 C 0.73291 0.56176 0.15625 0.0
N486 N 0.76338 0.62524 0.15613 0.0
N487 N 0.77929 0.60315 0.19385 0.0
C488 C 0.70763 0.61584 0.08958 0.0
H489 H 0.7288 0.61933 0.05686 0.0
H490 H 0.6934 0.64821 0.09778 0.0
H491 H 0.68109 0.59263 0.08081 0.0
C492 C 0.79473 0.77474 0.2237 0.0
N493 N 0.80766 0.74984 0.18555 0.0
N494 N 0.78561 0.7135 0.18709 0.0
C495 C 0.75769 0.71369 0.22492 0.0
C496 C 0.76598 0.75043 0.25315 0.0
C497 C 0.79557 0.82328 0.22015 0.0
H498 H 0.79012 0.8326 0.18134 0.0
H499 H 0.76874 0.83845 0.24122 0.0
H500 H 0.82762 0.83595 0.23225 0.0
O501 O 0.88939 0.70513 0.13848 0.0
O502 O 0.84593 0.64943 0.12847 0.0
H503 H 0.7182 0.65668 0.23719 0.0
H504 H 0.68862 0.7078 0.24064 0.0
C505 C 0.71506 0.68987 0.22169 0.0
H506 H 0.70543 0.68627 0.18251 0.0
H507 H 0.8035 0.61472 0.21739 0.0
O508 O 0.88834 0.80656 0.14529 0.0
C509 C 0.8831 0.6641 0.13832 0.0
Co510 Co 0.00632 0.0952 0.87928 0.0
Co511 Co 0.08725 0.03906 0.88553 0.0
C512 C 0.02906 0.01809 0.80218 0.0
O513 O 1.00512 0.05189 0.81323 0.0
O514 O 0.063 0.01062 0.82741 0.0
C515 C 0.91497 0.13183 0.89648 0.0
O516 O 0.89978 0.0951 0.87879 0.0
C517 C 0.16146 0.98445 0.88247 0.0
C518 C 0.19856 0.0106 0.9461 0.0
C519 C 0.20061 0.98291 0.90628 0.0
N520 N 0.13713 0.01338 0.90615 0.0
N521 N 0.15922 0.02928 0.94388 0.0
C522 C 0.14654 0.95764 0.83959 0.0
H523 H 0.14307 0.97881 0.80687 0.0
H524 H 0.11417 0.94341 0.84778 0.0
H525 H 0.16976 0.9311 0.83082 0.0
C526 C 0.98761 0.04473 0.97365 0.0
N527 N 0.01253 0.05768 0.93553 0.0
N528 N 0.04887 0.03562 0.93708 0.0
C529 C 0.04865 0.00768 0.97489 0.0
C530 C 0.0119 0.01595 1.0031 0.0
C531 C 0.93908 0.04557 0.97006 0.0
H532 H 0.92978 0.04011 0.93124 0.0
H533 H 0.92389 0.01873 0.99113 0.0
H534 H 0.92639 0.07761 0.98215 0.0
O535 O 0.05727 0.13941 0.88845 0.0
O536 O 0.11297 0.09593 0.87849 0.0
H537 H 0.10565 0.96818 0.98716 0.0
H538 H 0.05453 0.93861 0.99059 0.0
C539 C 0.07246 0.96505 0.97165 0.0
H540 H 0.07606 0.95543 0.93247 0.0
H541 H 0.14764 0.05349 0.96743 0.0
O542 O 0.95584 0.13836 0.89527 0.0
C543 C 0.09829 0.13311 0.88831 0.0
Co544 Co 0.84523 0.75632 0.62926 0.0
Co545 Co 0.78911 0.83724 0.63553 0.0
C546 C 0.76808 0.77909 0.55217 0.0
O547 O 0.80189 0.75516 0.56322 0.0
O548 O 0.76062 0.81303 0.57742 0.0
C549 C 0.88185 0.66496 0.64644 0.0
O550 O 0.84512 0.64976 0.62878 0.0
C551 C 0.73447 0.91146 0.63271 0.0
C552 C 0.76067 0.94843 0.69643 0.0
C553 C 0.73287 0.95051 0.6567 0.0
N554 N 0.76347 0.88711 0.65625 0.0
N555 N 0.7794 0.90912 0.69402 0.0
C556 C 0.70769 0.89665 0.58975 0.0
H557 H 0.7289 0.89324 0.55705 0.0
H558 H 0.69345 0.86426 0.59783 0.0
H559 H 0.68117 0.91988 0.58103 0.0
C560 C 0.79477 0.73758 0.72364 0.0
N561 N 0.80772 0.7625 0.68551 0.0
N562 N 0.78567 0.79884 0.68706 0.0
C563 C 0.75772 0.79863 0.72487 0.0
C564 C 0.76599 0.76188 0.75308 0.0
C565 C 0.79559 0.68904 0.72005 0.0
H566 H 0.79013 0.67975 0.68123 0.0
H567 H 0.76876 0.67386 0.74112 0.0
H568 H 0.82764 0.67635 0.73213 0.0
O569 O 0.88943 0.80725 0.63847 0.0
O570 O 0.84598 0.86296 0.62842 0.0
H571 H 0.71818 0.85561 0.73712 0.0
H572 H 0.68865 0.80446 0.74054 0.0
C573 C 0.71508 0.82241 0.72161 0.0
H574 H 0.70547 0.82601 0.68242 0.0
H575 H 0.80366 0.89751 0.71748 0.0
O576 O 0.88839 0.70583 0.64522 0.0
C577 C 0.88314 0.84828 0.63829 0.0
Co578 Co 0.50608 0.59521 0.87928 0.0
Co579 Co 0.42515 0.5391 0.88552 0.0
C580 C 0.4833 0.51808 0.80218 0.0
O581 O 0.50724 0.55189 0.81323 0.0
O582 O 0.44937 0.51061 0.82742 0.0
C583 C 0.59744 0.63183 0.89648 0.0
O584 O 0.61263 0.59508 0.87883 0.0
C585 C 0.35092 0.48447 0.88269 0.0
C586 C 0.31394 0.51068 0.9464 0.0
C587 C 0.31186 0.48288 0.90668 0.0
N588 N 0.37527 0.51347 0.90623 0.0
N589 N 0.35325 0.52941 0.94399 0.0
C590 C 0.36574 0.45768 0.83974 0.0
H591 H 0.36915 0.47888 0.80704 0.0
H592 H 0.39813 0.44344 0.84783 0.0
H593 H 0.3425 0.43116 0.83102 0.0
C594 C 0.52478 0.54476 0.97368 0.0
N595 N 0.49987 0.55771 0.93553 0.0
N596 N 0.46353 0.53566 0.93707 0.0
C597 C 0.46372 0.50773 0.9749 0.0
C598 C 0.50045 0.51601 1.00313 0.0
C599 C 0.57331 0.5456 0.97013 0.0
H600 H 0.58263 0.54014 0.93132 0.0
H601 H 0.58848 0.51876 0.99121 0.0
H602 H 0.58599 0.57764 0.98223 0.0
O603 O 0.45515 0.63941 0.8885 0.0
O604 O 0.39944 0.59597 0.87839 0.0
H605 H 0.40673 0.46821 0.98715 0.0
H606 H 0.45787 0.43866 0.99059 0.0
C607 C 0.43992 0.46509 0.97164 0.0
H608 H 0.43633 0.45547 0.93247 0.0
H609 H 0.36486 0.55367 0.96745 0.0
O610 O 0.55657 0.63837 0.89524 0.0
C611 C 0.41412 0.63313 0.8883 0.0
Co612 Co 0.66715 0.25606 0.12926 0.0
Co613 Co 0.72326 0.17513 0.13553 0.0
C614 C 0.74429 0.23328 0.05217 0.0
O615 O 0.71048 0.25722 0.06322 0.0
O616 O 0.75175 0.19935 0.07742 0.0
C617 C 0.63052 0.34742 0.14644 0.0
O618 O 0.66726 0.36261 0.12878 0.0
C619 C 0.77791 0.10092 0.13271 0.0
C620 C 0.7517 0.06395 0.19643 0.0
C621 C 0.7795 0.06186 0.1567 0.0
N622 N 0.7489 0.12527 0.15625 0.0
N623 N 0.73297 0.10325 0.19402 0.0
C624 C 0.80468 0.11573 0.08975 0.0
H625 H 0.78347 0.11913 0.05705 0.0
H626 H 0.81892 0.14812 0.09783 0.0
H627 H 0.83121 0.09249 0.08103 0.0
C628 C 0.71761 0.2748 0.22364 0.0
N629 N 0.70465 0.24987 0.18551 0.0
N630 N 0.7267 0.21353 0.18706 0.0
C631 C 0.75465 0.21375 0.22487 0.0
C632 C 0.74638 0.2505 0.25308 0.0
C633 C 0.71678 0.32333 0.22005 0.0
H634 H 0.72224 0.33263 0.18123 0.0
H635 H 0.74362 0.33851 0.24112 0.0
H636 H 0.68474 0.33602 0.23213 0.0
O637 O 0.62295 0.20512 0.13847 0.0
O638 O 0.6664 0.14942 0.12842 0.0
H639 H 0.79419 0.15677 0.23712 0.0
H640 H 0.82373 0.20791 0.24054 0.0
C641 C 0.79729 0.18996 0.22161 0.0
H642 H 0.8069 0.18637 0.18242 0.0
H643 H 0.70872 0.11486 0.21748 0.0
O644 O 0.62398 0.30655 0.14522 0.0
C645 C 0.62923 0.1641 0.13829 0.0
Co646 Co 0.0063 0.41716 0.37928 0.0
Co647 Co 0.08723 0.47327 0.38552 0.0
C648 C 0.02907 0.49429 0.30218 0.0
O649 O 1.00514 0.46049 0.31323 0.0
O650 O 0.063 0.50176 0.32742 0.0
C651 C 0.91493 0.38055 0.39648 0.0
O652 O 0.89975 0.41729 0.37883 0.0
C653 C 0.16145 0.52791 0.38269 0.0
C654 C 0.19843 0.50169 0.4464 0.0
C655 C 0.20051 0.5295 0.40668 0.0
N656 N 0.13711 0.4989 0.40623 0.0
N657 N 0.15912 0.48296 0.44399 0.0
C658 C 0.14663 0.55469 0.33974 0.0
H659 H 0.14322 0.53349 0.30704 0.0
H660 H 0.11425 0.56893 0.34783 0.0
H661 H 0.16987 0.58122 0.33102 0.0
C662 C 0.9876 0.46761 0.47368 0.0
N663 N 0.0125 0.45467 0.43553 0.0
N664 N 0.04884 0.47672 0.43707 0.0
C665 C 0.04865 0.50465 0.4749 0.0
C666 C 0.01192 0.49636 0.50313 0.0
C667 C 0.93906 0.46677 0.47013 0.0
H668 H 0.92974 0.47223 0.43132 0.0
H669 H 0.92389 0.49361 0.49121 0.0
H670 H 0.92638 0.43473 0.48223 0.0
O671 O 0.05723 0.37296 0.3885 0.0
O672 O 0.11293 0.4164 0.37839 0.0
H673 H 0.10564 0.54416 0.48715 0.0
H674 H 0.05451 0.57372 0.49059 0.0
C675 C 0.07245 0.54728 0.47164 0.0
H676 H 0.07604 0.5569 0.43247 0.0
H677 H 0.14752 0.4587 0.46745 0.0
O678 O 0.9558 0.374 0.39524 0.0
C679 C 0.09825 0.37924 0.3883 0.0
Co680 Co 0.84523 0.25606 0.92572 0.0
Co681 Co 0.7891 0.17513 0.91945 0.0
C682 C 0.76809 0.23328 1.00281 0.0
O683 O 0.80189 0.25722 0.99176 0.0
O684 O 0.76062 0.19934 0.97756 0.0
C685 C 0.88185 0.34742 0.90854 0.0
O686 O 0.84512 0.36261 0.92621 0.0
C687 C 0.73446 0.10092 0.92226 0.0
C688 C 0.76067 0.06395 0.85854 0.0
C689 C 0.73287 0.06186 0.89826 0.0
N690 N 0.76346 0.12527 0.89872 0.0
N691 N 0.77939 0.10326 0.86095 0.0
C692 C 0.70769 0.11572 0.96522 0.0
H693 H 0.7289 0.11912 0.99792 0.0
H694 H 0.69345 0.14811 0.95716 0.0
H695 H 0.68116 0.09248 0.97394 0.0
C696 C 0.79477 0.2748 0.83134 0.0
N697 N 0.80772 0.24987 0.86947 0.0
N698 N 0.78566 0.21353 0.86792 0.0
C699 C 0.75772 0.21375 0.83011 0.0
C700 C 0.76599 0.2505 0.8019 0.0
C701 C 0.7956 0.32333 0.83493 0.0
H702 H 0.79014 0.33263 0.87374 0.0
H703 H 0.76877 0.33851 0.81385 0.0
H704 H 0.82764 0.33602 0.82284 0.0
O705 O 0.88943 0.20512 0.91651 0.0
O706 O 0.84597 0.14942 0.92656 0.0
H707 H 0.71817 0.15677 0.81787 0.0
H708 H 0.68864 0.20792 0.81444 0.0
C709 C 0.71508 0.18997 0.83338 0.0
H710 H 0.70547 0.18638 0.87256 0.0
H711 H 0.80365 0.11487 0.83749 0.0
O712 O 0.88839 0.30655 0.90976 0.0
C713 C 0.88314 0.1641 0.91668 0.0
Co714 Co 0.00629 0.59521 0.1757 0.0
Co715 Co 0.08723 0.5391 0.16945 0.0
C716 C 0.02907 0.51809 0.2528 0.0
O717 O 1.00513 0.55189 0.24175 0.0
O718 O 0.06301 0.51061 0.22756 0.0
C719 C 0.91493 0.63183 0.1585 0.0
O720 O 0.89975 0.59509 0.17616 0.0
C721 C 0.16145 0.48446 0.17228 0.0
C722 C 0.19843 0.51068 0.10857 0.0
C723 C 0.20051 0.48287 0.14829 0.0
N724 N 0.13711 0.51347 0.14874 0.0
N725 N 0.15912 0.52941 0.11098 0.0
C726 C 0.14664 0.45768 0.21523 0.0
H727 H 0.14324 0.47888 0.24794 0.0
H728 H 0.11425 0.44344 0.20715 0.0
H729 H 0.16988 0.43115 0.22395 0.0
C730 C 0.9876 0.54477 0.0813 0.0
N731 N 0.0125 0.5577 0.11945 0.0
N732 N 0.04884 0.53565 0.11791 0.0
C733 C 0.04865 0.50772 0.08009 0.0
C734 C 0.01192 0.51601 0.05185 0.0
C735 C 0.93906 0.54561 0.08484 0.0
H736 H 0.92974 0.54015 0.12365 0.0
H737 H 0.92389 0.51877 0.06376 0.0
H738 H 0.92639 0.57765 0.07274 0.0
O739 O 0.05723 0.63941 0.16648 0.0
O740 O 0.11293 0.59597 0.17658 0.0
H741 H 0.10564 0.4682 0.06783 0.0
H742 H 0.0545 0.43865 0.06439 0.0
C743 C 0.07244 0.46509 0.08334 0.0
H744 H 0.07603 0.45547 0.12252 0.0
H745 H 0.14751 0.55367 0.08752 0.0
O746 O 0.9558 0.63837 0.15973 0.0
C747 C 0.09825 0.63313 0.16668 0.0
Co748 Co 0.66715 0.75631 0.42572 0.0
Co749 Co 0.72327 0.83724 0.41945 0.0
C750 C 0.74428 0.7791 0.50281 0.0
O751 O 0.71048 0.75515 0.49176 0.0
O752 O 0.75175 0.81303 0.47756 0.0
C753 C 0.63052 0.66495 0.40854 0.0
O754 O 0.66725 0.64976 0.42621 0.0
C755 C 0.77791 0.91146 0.42226 0.0
C756 C 0.75171 0.94842 0.35854 0.0
C757 C 0.7795 0.95051 0.39826 0.0
N758 N 0.74891 0.88711 0.39872 0.0
N759 N 0.73298 0.90912 0.36095 0.0
C760 C 0.80468 0.89665 0.46522 0.0
H761 H 0.78347 0.89326 0.49792 0.0
H762 H 0.81892 0.86426 0.45716 0.0
H763 H 0.83121 0.91989 0.47394 0.0
C764 C 0.71761 0.73758 0.33134 0.0
N765 N 0.70465 0.7625 0.36947 0.0
N766 N 0.72671 0.79884 0.36792 0.0
C767 C 0.75466 0.79862 0.33011 0.0
C768 C 0.74638 0.76188 0.3019 0.0
C769 C 0.71677 0.68905 0.33493 0.0
H770 H 0.72224 0.67974 0.37374 0.0
H771 H 0.74361 0.67386 0.31385 0.0
H772 H 0.68473 0.67636 0.32284 0.0
O773 O 0.62295 0.80725 0.41651 0.0
O774 O 0.6664 0.86296 0.42656 0.0
H775 H 0.7942 0.8556 0.31787 0.0
H776 H 0.82373 0.80445 0.31444 0.0
C777 C 0.7973 0.82241 0.33338 0.0
H778 H 0.80691 0.826 0.37256 0.0
H779 H 0.70872 0.8975 0.33749 0.0
O780 O 0.62398 0.70583 0.40976 0.0
C781 C 0.62923 0.84828 0.41668 0.0
Co782 Co 0.50608 0.41716 0.6757 0.0
Co783 Co 0.42514 0.47328 0.66945 0.0
C784 C 0.4833 0.49429 0.7528 0.0
O785 O 0.50724 0.46049 0.74175 0.0
O786 O 0.44936 0.50177 0.72756 0.0
C787 C 0.59744 0.38055 0.6585 0.0
O788 O 0.61263 0.41729 0.67616 0.0
C789 C 0.35092 0.52791 0.67228 0.0
C790 C 0.31394 0.5017 0.60857 0.0
C791 C 0.31186 0.5295 0.64829 0.0
N792 N 0.37527 0.49891 0.64874 0.0
N793 N 0.35325 0.48297 0.61098 0.0
C794 C 0.36573 0.55469 0.71523 0.0
H795 H 0.36914 0.53349 0.74794 0.0
H796 H 0.39812 0.56893 0.70715 0.0
H797 H 0.3425 0.58122 0.72395 0.0
C798 C 0.52478 0.46761 0.5813 0.0
N799 N 0.49987 0.45467 0.61945 0.0
N800 N 0.46353 0.47672 0.61791 0.0
C801 C 0.46373 0.50465 0.58009 0.0
C802 C 0.50045 0.49636 0.55185 0.0
C803 C 0.57331 0.46677 0.58484 0.0
H804 H 0.58264 0.47222 0.62365 0.0
H805 H 0.58848 0.4936 0.56376 0.0
H806 H 0.58599 0.43472 0.57274 0.0
O807 O 0.45515 0.37296 0.66648 0.0
O808 O 0.39944 0.4164 0.67658 0.0
H809 H 0.40674 0.54417 0.56783 0.0
H810 H 0.45787 0.57372 0.56439 0.0
C811 C 0.43993 0.54729 0.58334 0.0
H812 H 0.43634 0.55691 0.62252 0.0
H813 H 0.36486 0.45871 0.58752 0.0
O814 O 0.55657 0.374 0.65973 0.0
C815 C 0.41412 0.37924 0.66668 0.0
Co816 Co 0.16715 0.25606 0.42572 0.0
Co817 Co 0.22326 0.17513 0.41945 0.0
C818 C 0.24429 0.23329 0.50281 0.0
O819 O 0.21048 0.25722 0.49176 0.0
O820 O 0.25175 0.19935 0.47756 0.0
C821 C 0.13053 0.34742 0.40851 0.0
O822 O 0.16727 0.36262 0.42616 0.0
C823 C 0.2779 0.10092 0.42229 0.0
C824 C 0.25169 0.06394 0.35857 0.0
C825 C 0.27949 0.06186 0.3983 0.0
N826 N 0.2489 0.12526 0.39874 0.0
N827 N 0.23297 0.10325 0.36098 0.0
C828 C 0.30468 0.11573 0.46524 0.0
H829 H 0.28348 0.11914 0.49794 0.0
H830 H 0.31892 0.14812 0.45715 0.0
H831 H 0.33121 0.0925 0.47395 0.0
C832 C 0.21762 0.27479 0.33134 0.0
N833 N 0.20466 0.24987 0.36946 0.0
N834 N 0.2267 0.21353 0.36791 0.0
C835 C 0.25465 0.21374 0.33011 0.0
C836 C 0.24639 0.25049 0.3019 0.0
C837 C 0.2168 0.32333 0.33493 0.0
H838 H 0.22227 0.33262 0.37375 0.0
H839 H 0.24364 0.3385 0.31385 0.0
H840 H 0.18476 0.33603 0.32285 0.0
O841 O 0.12295 0.20513 0.4165 0.0
O842 O 0.16639 0.14942 0.42658 0.0
H843 H 0.29418 0.15675 0.31787 0.0
H844 H 0.32373 0.20789 0.31444 0.0
C845 C 0.29729 0.18995 0.33338 0.0
H846 H 0.3069 0.18635 0.37256 0.0
H847 H 0.2087 0.11486 0.33751 0.0
O848 O 0.12399 0.30655 0.40976 0.0
C849 C 0.12923 0.1641 0.41669 0.0
Co850 Co 0.5063 0.41717 0.17569 0.0
Co851 Co 0.58724 0.47327 0.16945 0.0
C852 C 0.52908 0.49429 0.2528 0.0
O853 O 0.50515 0.46049 0.24175 0.0
O854 O 0.56302 0.50176 0.22756 0.0
C855 C 0.41493 0.38055 0.1585 0.0
O856 O 0.39975 0.41729 0.17616 0.0
C857 C 0.66146 0.5279 0.17228 0.0
C858 C 0.69843 0.5017 0.10855 0.0
C859 C 0.70052 0.52949 0.14828 0.0
N860 N 0.63711 0.4989 0.14873 0.0
N861 N 0.65912 0.48297 0.11096 0.0
C862 C 0.64665 0.55468 0.21523 0.0
H863 H 0.64324 0.53348 0.24793 0.0
H864 H 0.61427 0.56892 0.20715 0.0
H865 H 0.66989 0.58121 0.22395 0.0
C866 C 0.48758 0.46764 0.08132 0.0
N867 N 0.5125 0.45468 0.11945 0.0
N868 N 0.54884 0.47673 0.11791 0.0
C869 C 0.54864 0.50468 0.0801 0.0
C870 C 0.51189 0.49641 0.05188 0.0
C871 C 0.43905 0.46681 0.08488 0.0
H872 H 0.42974 0.47227 0.1237 0.0
H873 H 0.42387 0.49364 0.0638 0.0
H874 H 0.42637 0.43476 0.07279 0.0
O875 O 0.55723 0.37296 0.16647 0.0
O876 O 0.61294 0.4164 0.17656 0.0
H877 H 0.60563 0.5442 0.06786 0.0
H878 H 0.5545 0.57375 0.06443 0.0
C879 C 0.57244 0.54731 0.08337 0.0
H880 H 0.57603 0.55692 0.12255 0.0
H881 H 0.64751 0.45871 0.0875 0.0
O882 O 0.4558 0.37401 0.15973 0.0
C883 C 0.59825 0.37924 0.16666 0.0
Co884 Co 0.34522 0.75631 0.92572 0.0
Co885 Co 0.28911 0.83724 0.91945 0.0
C886 C 0.26808 0.77908 1.00281 0.0
O887 O 0.30189 0.75515 0.99176 0.0
O888 O 0.26062 0.81302 0.97756 0.0
C889 C 0.38185 0.66495 0.90851 0.0
O890 O 0.34511 0.64976 0.92616 0.0
C891 C 0.23447 0.91146 0.92229 0.0
C892 C 0.26068 0.94844 0.85857 0.0
C893 C 0.23288 0.95052 0.8983 0.0
N894 N 0.26348 0.88711 0.89874 0.0
N895 N 0.27941 0.90913 0.86098 0.0
C896 C 0.20769 0.89664 0.96524 0.0
H897 H 0.22889 0.89323 0.99794 0.0
H898 H 0.19346 0.86425 0.95715 0.0
H899 H 0.18116 0.91987 0.97395 0.0
C900 C 0.29476 0.73758 0.83134 0.0
N901 N 0.30772 0.7625 0.86946 0.0
N902 N 0.28567 0.79885 0.86791 0.0
C903 C 0.25772 0.79863 0.83011 0.0
C904 C 0.26599 0.76188 0.8019 0.0
C905 C 0.29557 0.68905 0.83493 0.0
H906 H 0.2901 0.67975 0.87375 0.0
H907 H 0.26874 0.67387 0.81385 0.0
H908 H 0.32761 0.67635 0.82285 0.0
O909 O 0.38942 0.80724 0.9165 0.0
O910 O 0.34598 0.86295 0.92658 0.0
H911 H 0.21819 0.85562 0.81787 0.0
H912 H 0.18865 0.80448 0.81444 0.0
C913 C 0.21508 0.82243 0.83338 0.0
H914 H 0.20548 0.82602 0.87256 0.0
H915 H 0.30368 0.89752 0.83751 0.0
O916 O 0.38839 0.70582 0.90976 0.0
C917 C 0.38314 0.84827 0.91669 0.0
Co918 Co 1.00607 0.59521 0.67569 0.0
Co919 Co 0.92514 0.5391 0.66945 0.0
C920 C 0.98329 0.51808 0.7528 0.0
O921 O 0.00723 0.55188 0.74175 0.0
O922 O 0.94935 0.51062 0.72756 0.0
C923 C 0.09744 0.63182 0.6585 0.0
O924 O 0.11263 0.59508 0.67616 0.0
C925 C 0.85091 0.48447 0.67228 0.0
C926 C 0.81394 0.51068 0.60855 0.0
C927 C 0.81186 0.48288 0.64828 0.0
N928 N 0.87526 0.51347 0.64873 0.0
N929 N 0.85325 0.5294 0.61096 0.0
C930 C 0.86572 0.45769 0.71523 0.0
H931 H 0.86913 0.4789 0.74793 0.0
H932 H 0.89811 0.44345 0.70715 0.0
H933 H 0.84248 0.43117 0.72395 0.0
C934 C 0.02479 0.54473 0.58132 0.0
N935 N 0.99987 0.55769 0.61945 0.0
N936 N 0.96353 0.53564 0.61791 0.0
C937 C 0.96373 0.5077 0.5801 0.0
C938 C 1.00048 0.51596 0.55188 0.0
C939 C 0.07332 0.54556 0.58488 0.0
H940 H 0.08263 0.5401 0.6237 0.0
H941 H 0.0885 0.51873 0.5638 0.0
H942 H 0.08601 0.57761 0.57279 0.0
O943 O 0.95515 0.63941 0.66647 0.0
O944 O 0.89943 0.59597 0.67656 0.0
H945 H 0.90674 0.46817 0.56786 0.0
H946 H 0.95788 0.43862 0.56443 0.0
C947 C 0.93994 0.46506 0.58337 0.0
H948 H 0.93635 0.45545 0.62255 0.0
H949 H 0.86487 0.55366 0.5875 0.0
O950 O 0.05657 0.63836 0.65973 0.0
C951 C 0.91412 0.63313 0.66666 0.0
Co952 Co 0.16715 0.75631 0.12926 0.0
Co953 Co 0.22327 0.83724 0.13553 0.0
C954 C 0.24428 0.77909 0.05217 0.0
O955 O 0.21048 0.75515 0.06322 0.0
O956 O 0.25175 0.81303 0.07742 0.0
C957 C 0.13053 0.66495 0.14647 0.0
O958 O 0.16726 0.64976 0.12881 0.0
C959 C 0.2779 0.91146 0.1327 0.0
C960 C 0.2517 0.94843 0.19642 0.0
C961 C 0.27949 0.95052 0.15669 0.0
N962 N 0.2489 0.88711 0.15625 0.0
N963 N 0.23297 0.90912 0.19402 0.0
C964 C 0.30469 0.89665 0.08975 0.0
H965 H 0.28348 0.89325 0.05705 0.0
H966 H 0.31892 0.86426 0.09783 0.0
H967 H 0.33122 0.91988 0.08104 0.0
C968 C 0.21762 0.73758 0.22364 0.0
N969 N 0.20466 0.7625 0.18551 0.0
N970 N 0.22671 0.79884 0.18706 0.0
C971 C 0.25466 0.79863 0.22487 0.0
C972 C 0.24639 0.76188 0.25308 0.0
C973 C 0.21679 0.68905 0.22005 0.0
H974 H 0.22226 0.67975 0.18124 0.0
H975 H 0.24363 0.67387 0.24113 0.0
H976 H 0.18475 0.67635 0.23213 0.0
O977 O 0.12295 0.80724 0.13847 0.0
O978 O 0.1664 0.86295 0.12841 0.0
H979 H 0.29419 0.85561 0.23711 0.0
H980 H 0.32373 0.80447 0.24053 0.0
C981 C 0.2973 0.82242 0.2216 0.0
H982 H 0.3069 0.82601 0.18242 0.0
H983 H 0.20871 0.89751 0.21747 0.0
O984 O 0.12399 0.70582 0.14523 0.0
C985 C 0.12923 0.84827 0.13829 0.0
Co986 Co 1.00608 0.41717 0.87929 0.0
Co987 Co 0.92514 0.47328 0.88553 0.0
C988 C 0.98328 0.49428 0.80218 0.0
O989 O 0.00723 0.46049 0.81323 0.0
O990 O 0.94934 0.50176 0.82742 0.0
C991 C 0.09744 0.38055 0.89647 0.0
O992 O 0.11263 0.41729 0.87881 0.0
C993 C 0.85091 0.52791 0.88271 0.0
C994 C 0.81395 0.5017 0.94644 0.0
C995 C 0.81186 0.5295 0.90671 0.0
N996 N 0.87526 0.49891 0.90625 0.0
N997 N 0.85326 0.48298 0.94403 0.0
C998 C 0.86571 0.55469 0.83975 0.0
H999 H 0.86911 0.53348 0.80705 0.0
H1000 H 0.8981 0.56892 0.84782 0.0
H1001 H 0.84247 0.58121 0.83104 0.0
C1002 C 0.02479 0.46764 0.97366 0.0
N1003 N 0.99987 0.45468 0.93553 0.0
N1004 N 0.96353 0.47673 0.93707 0.0
C1005 C 0.96374 0.50468 0.97488 0.0
C1006 C 1.00048 0.49641 1.00309 0.0
C1007 C 0.07332 0.4668 0.9701 0.0
H1008 H 0.08264 0.47226 0.93129 0.0
H1009 H 0.0885 0.49363 0.99118 0.0
H1010 H 0.086 0.43476 0.98219 0.0
O1011 O 0.95515 0.37296 0.88851 0.0
O1012 O 0.89943 0.4164 0.87843 0.0
H1013 H 0.90675 0.54421 0.98711 0.0
H1014 H 0.95789 0.57376 0.99054 0.0
C1015 C 0.93994 0.54732 0.97161 0.0
H1016 H 0.93635 0.55693 0.93242 0.0
H1017 H 0.86487 0.45872 0.96749 0.0
O1018 O 0.05657 0.37401 0.89525 0.0
C1019 C 0.91412 0.37924 0.88832 0.0
Co1020 Co 0.34522 0.25606 0.62926 0.0
Co1021 Co 0.28911 0.17513 0.63553 0.0
C1022 C 0.26809 0.23328 0.55217 0.0
O1023 O 0.30189 0.25723 0.56322 0.0
O1024 O 0.26062 0.19935 0.57742 0.0
C1025 C 0.38185 0.34742 0.64647 0.0
O1026 O 0.34511 0.36262 0.62881 0.0
C1027 C 0.23447 0.10091 0.6327 0.0
C1028 C 0.26068 0.06394 0.69642 0.0
C1029 C 0.23288 0.06186 0.65669 0.0
N1030 N 0.26347 0.12526 0.65625 0.0
N1031 N 0.2794 0.10325 0.69402 0.0
C1032 C 0.20769 0.11572 0.58975 0.0
H1033 H 0.22889 0.11913 0.55705 0.0
H1034 H 0.19346 0.14812 0.59783 0.0
H1035 H 0.18116 0.09249 0.58104 0.0
C1036 C 0.29476 0.27479 0.72364 0.0
N1037 N 0.30772 0.24987 0.68551 0.0
N1038 N 0.28566 0.21353 0.68706 0.0
C1039 C 0.25772 0.21374 0.72487 0.0
C1040 C 0.26598 0.25049 0.75308 0.0
C1041 C 0.29558 0.32332 0.72005 0.0
H1042 H 0.29011 0.33263 0.68124 0.0
H1043 H 0.26875 0.3385 0.74113 0.0
H1044 H 0.32762 0.33602 0.73213 0.0
O1045 O 0.38942 0.20513 0.63847 0.0
O1046 O 0.34598 0.14942 0.62841 0.0
H1047 H 0.21818 0.15676 0.73711 0.0
H1048 H 0.18864 0.2079 0.74053 0.0
C1049 C 0.21508 0.18995 0.7216 0.0
H1050 H 0.20547 0.18636 0.68242 0.0
H1051 H 0.30366 0.11486 0.71747 0.0
O1052 O 0.38839 0.30655 0.64523 0.0
C1053 C 0.38314 0.1641 0.63829 0.0
Co1054 Co 0.5063 0.59521 0.37929 0.0
Co1055 Co 0.58724 0.53909 0.38553 0.0
C1056 C 0.52909 0.51809 0.30218 0.0
O1057 O 0.50514 0.55188 0.31323 0.0
O1058 O 0.56303 0.51061 0.32742 0.0
C1059 C 0.41493 0.63182 0.39647 0.0
O1060 O 0.39975 0.59508 0.37881 0.0
C1061 C 0.66146 0.48447 0.38271 0.0
C1062 C 0.69843 0.51067 0.44644 0.0
C1063 C 0.70052 0.48288 0.40671 0.0
N1064 N 0.63711 0.51346 0.40625 0.0
N1065 N 0.65912 0.5294 0.44403 0.0
C1066 C 0.64666 0.45769 0.33975 0.0
H1067 H 0.64326 0.47889 0.30705 0.0
H1068 H 0.61427 0.44345 0.34782 0.0
H1069 H 0.6699 0.43116 0.33104 0.0
C1070 C 0.48758 0.54473 0.47366 0.0
N1071 N 0.5125 0.55769 0.43553 0.0
N1072 N 0.54884 0.53564 0.43707 0.0
C1073 C 0.54864 0.50769 0.47488 0.0
C1074 C 0.51189 0.51596 0.50309 0.0
C1075 C 0.43905 0.54557 0.4701 0.0
H1076 H 0.42974 0.54011 0.43129 0.0
H1077 H 0.42387 0.51874 0.49118 0.0
H1078 H 0.42637 0.57762 0.48219 0.0
O1079 O 0.55723 0.63941 0.38851 0.0
O1080 O 0.61294 0.59597 0.37843 0.0
H1081 H 0.60562 0.46816 0.48711 0.0
H1082 H 0.55449 0.43862 0.49054 0.0
C1083 C 0.57243 0.46506 0.47161 0.0
H1084 H 0.57602 0.45545 0.43242 0.0
H1085 H 0.6475 0.55366 0.46749 0.0
O1086 O 0.4558 0.63836 0.39525 0.0
C1087 C 0.59825 0.63313 0.38832 0.0
loop_
_geom_bond_atom_site_label_1
_geom_bond_atom_site_label_2
_geom_bond_distance
_geom_bond_site_symmetry_2
_ccdc_geom_bond_type
Co0 O3 1.970 . S
Co0 N17 1.989 . S
Co0 O25 1.967 . S
Co0 O32 1.920 . S
Co1 O4 1.966 . S
Co1 N10 2.022 . S
Co1 N18 1.993 . S
Co1 O26 1.941 . S
C2 O3 1.258 . S
C2 O4 1.263 . S
O3 Co0 1.970 . S
O3 C2 1.258 . S
O4 Co1 1.966 . S
O4 C2 1.263 . S
C5 O6 1.235 . S
C5 O32 1.289 . S
O6 C5 1.235 . S
C7 C9 1.400 . S
C7 N10 1.351 . S
C7 C12 1.501 . S
C8 C9 1.387 . S
C8 N11 1.341 . S
C9 C7 1.400 . S
C9 C8 1.387 . S
N10 Co1 2.022 . S
N10 C7 1.351 . S
N10 N11 1.365 . S
N11 C8 1.341 . S
N11 N10 1.365 . S
N11 H31 0.862 . S
C12 C7 1.501 . S
C12 H13 0.961 . S
C12 H14 0.961 . S
C12 H15 0.960 . S
H13 C12 0.961 . S
H14 C12 0.961 . S
H15 C12 0.960 . S
C16 N17 1.342 . S
C16 C20 1.401 . S
C16 C21 1.499 . S
N17 Co0 1.989 . S
N17 C16 1.342 . S
N17 N18 1.388 . S
N18 Co1 1.993 . S
N18 N17 1.388 . S
N18 C19 1.346 . S
C19 N18 1.346 . S
C19 C20 1.396 . S
C19 C29 1.510 . S
C20 C16 1.401 . S
C20 C19 1.396 . S
C21 C16 1.499 . S
C21 H22 0.959 . S
C21 H23 0.960 . S
C21 H24 0.961 . S
H22 C21 0.959 . S
H23 C21 0.960 . S
H24 C21 0.961 . S
O25 Co0 1.967 . S
O25 C33 1.258 . S
O26 Co1 1.941 . S
O26 C33 1.266 . S
H27 C29 0.959 . S
H28 C29 0.961 . S
C29 C19 1.510 . S
C29 H27 0.959 . S
C29 H28 0.961 . S
C29 H30 0.960 . S
H30 C29 0.960 . S
H31 N11 0.862 . S
O32 Co0 1.920 . S
O32 C5 1.289 . S
C33 O25 1.258 . S
C33 O26 1.266 . S
Co34 O37 1.970 . S
Co34 N51 1.989 . S
Co34 O59 1.967 1_455 S
Co34 O66 1.920 . S
Co35 O38 1.966 . S
Co35 N44 2.022 1_545 S
Co35 N52 1.993 . S
Co35 O60 1.941 . S
C36 O37 1.258 1_655 S
C36 O38 1.263 . S
O37 Co34 1.970 . S
O37 C36 1.258 1_455 S
O38 Co35 1.966 . S
O38 C36 1.263 . S
C39 O40 1.235 . S
C39 O66 1.289 . S
O40 C39 1.235 . S
C41 C43 1.400 . S
C41 N44 1.351 . S
C41 C46 1.501 . S
C42 C43 1.387 . S
C42 N45 1.341 . S
C43 C41 1.400 . S
C43 C42 1.387 . S
N44 Co35 2.022 1_565 S
N44 C41 1.351 . S
N44 N45 1.365 . S
N45 C42 1.341 . S
N45 N44 1.365 . S
N45 H65 0.862 1_565 S
C46 C41 1.501 . S
C46 H47 0.961 . S
C46 H48 0.961 . S
C46 H49 0.960 . S
H47 C46 0.961 . S
H48 C46 0.961 . S
H49 C46 0.960 . S
C50 N51 1.342 . S
C50 C54 1.401 . S
C50 C55 1.499 . S
N51 Co34 1.989 . S
N51 C50 1.342 . S
N51 N52 1.388 1_455 S
N52 Co35 1.993 . S
N52 N51 1.388 1_655 S
N52 C53 1.346 1_545 S
C53 N52 1.346 1_565 S
C53 C54 1.396 1_665 S
C53 C63 1.510 . S
C54 C50 1.401 . S
C54 C53 1.396 1_445 S
C55 C50 1.499 . S
C55 H56 0.959 . S
C55 H57 0.960 . S
C55 H58 0.961 . S
H56 C55 0.959 . S
H57 C55 0.960 . S
H58 C55 0.961 . S
O59 Co34 1.967 1_655 S
O59 C67 1.258 . S
O60 Co35 1.941 . S
O60 C67 1.266 . S
H61 C63 0.959 . S
H62 C63 0.961 . S
C63 C53 1.510 . S
C63 H61 0.959 . S
C63 H62 0.961 . S
C63 H64 0.960 . S
H64 C63 0.960 . S
H65 N45 0.862 1_545 S
O66 Co34 1.920 . S
O66 C39 1.289 . S
C67 O59 1.258 . S
C67 O60 1.266 . S
Co68 O71 1.970 . S
Co68 N85 1.989 . S
Co68 O93 1.967 . S
Co68 O100 1.920 . S
Co69 O72 1.966 . S
Co69 N78 2.022 . S
Co69 N86 1.993 . S
Co69 O94 1.941 . S
C70 O71 1.258 . S
C70 O72 1.263 . S
O71 Co68 1.970 . S
O71 C70 1.258 . S
O72 Co69 1.966 . S
O72 C70 1.263 . S
C73 O74 1.235 . S
C73 O100 1.289 . S
O74 C73 1.235 . S
C75 C77 1.400 . S
C75 N78 1.351 . S
C75 C80 1.501 . S
C76 C77 1.387 . S
C76 N79 1.341 . S
C77 C75 1.400 . S
C77 C76 1.387 . S
N78 Co69 2.022 . S
N78 C75 1.351 . S
N78 N79 1.365 . S
N79 C76 1.341 . S
N79 N78 1.365 . S
N79 H99 0.862 . S
C80 C75 1.501 . S
C80 H81 0.961 . S
C80 H82 0.961 . S
C80 H83 0.960 . S
H81 C80 0.961 . S
H82 C80 0.961 . S
H83 C80 0.960 . S
C84 N85 1.342 . S
C84 C88 1.401 . S
C84 C89 1.499 . S
N85 Co68 1.989 . S
N85 C84 1.342 . S
N85 N86 1.388 . S
N86 Co69 1.993 . S
N86 N85 1.388 . S
N86 C87 1.346 . S
C87 N86 1.346 . S
C87 C88 1.396 . S
C87 C97 1.510 . S
C88 C84 1.401 . S
C88 C87 1.396 . S
C89 C84 1.499 . S
C89 H90 0.959 . S
C89 H91 0.960 . S
C89 H92 0.961 . S
H90 C89 0.959 . S
H91 C89 0.960 . S
H92 C89 0.961 . S
O93 Co68 1.967 . S
O93 C101 1.258 . S
O94 Co69 1.941 . S
O94 C101 1.266 . S
H95 C97 0.959 . S
H96 C97 0.961 . S
C97 C87 1.510 . S
C97 H95 0.959 . S
C97 H96 0.961 . S
C97 H98 0.960 . S
H98 C97 0.960 . S
H99 N79 0.862 . S
O100 Co68 1.920 . S
O100 C73 1.289 . S
C101 O93 1.258 . S
C101 O94 1.266 . S
Co102 O105 1.970 . S
Co102 N119 1.989 . S
Co102 O127 1.967 . S
Co102 O134 1.920 . S
Co103 O106 1.966 . S
Co103 N112 2.022 1_565 S
Co103 N120 1.993 . S
Co103 O128 1.941 . S
C104 O105 1.258 . S
C104 O106 1.263 . S
O105 Co102 1.970 . S
O105 C104 1.258 . S
O106 Co103 1.966 . S
O106 C104 1.263 . S
C107 O108 1.235 . S
C107 O134 1.289 . S
O108 C107 1.235 . S
C109 C111 1.400 . S
C109 N112 1.351 . S
C109 C114 1.501 . S
C110 C111 1.387 . S
C110 N113 1.341 . S
C111 C109 1.400 . S
C111 C110 1.387 . S
N112 Co103 2.022 1_545 S
N112 C109 1.351 . S
N112 N113 1.365 . S
N113 C110 1.341 . S
N113 N112 1.365 . S
N113 H133 0.862 1_545 S
C114 C109 1.501 . S
C114 H115 0.961 . S
C114 H116 0.961 . S
C114 H117 0.960 . S
H115 C114 0.961 . S
H116 C114 0.961 . S
H117 C114 0.960 . S
C118 N119 1.342 . S
C118 C122 1.401 . S
C118 C123 1.499 . S
N119 Co102 1.989 . S
N119 C118 1.342 . S
N119 N120 1.388 . S
N120 Co103 1.993 . S
N120 N119 1.388 . S
N120 C121 1.346 1_565 S
C121 N120 1.346 1_545 S
C121 C122 1.396 1_545 S
C121 C131 1.510 . S
C122 C118 1.401 . S
C122 C121 1.396 1_565 S
C123 C118 1.499 . S
C123 H124 0.959 . S
C123 H125 0.960 . S
C123 H126 0.961 . S
H124 C123 0.959 . S
H125 C123 0.960 . S
H126 C123 0.961 . S
O127 Co102 1.967 . S
O127 C135 1.258 . S
O128 Co103 1.941 . S
O128 C135 1.266 . S
H129 C131 0.959 . S
H130 C131 0.961 . S
C131 C121 1.510 . S
C131 H129 0.959 . S
C131 H130 0.961 . S
C131 H132 0.960 . S
H132 C131 0.960 . S
H133 N113 0.862 1_565 S
O134 Co102 1.920 . S
O134 C107 1.289 . S
C135 O127 1.258 . S
C135 O128 1.266 . S
Co136 O139 1.970 . S
Co136 N153 1.989 . S
Co136 O161 1.967 . S
Co136 O168 1.920 . S
Co137 O140 1.966 . S
Co137 N146 2.022 . S
Co137 N154 1.993 . S
Co137 O162 1.941 . S
C138 O139 1.258 . S
C138 O140 1.263 . S
O139 Co136 1.970 . S
O139 C138 1.258 . S
O140 Co137 1.966 . S
O140 C138 1.263 . S
C141 O142 1.235 . S
C141 O168 1.289 . S
O142 C141 1.235 . S
C143 C145 1.400 . S
C143 N146 1.351 . S
C143 C148 1.501 . S
C144 C145 1.387 . S
C144 N147 1.341 . S
C145 C143 1.400 . S
C145 C144 1.387 . S
N146 Co137 2.022 . S
N146 C143 1.351 . S
N146 N147 1.365 . S
N147 C144 1.341 . S
N147 N146 1.365 . S
N147 H167 0.862 . S
C148 C143 1.501 . S
C148 H149 0.961 . S
C148 H150 0.961 . S
C148 H151 0.960 . S
H149 C148 0.961 . S
H150 C148 0.961 . S
H151 C148 0.960 . S
C152 N153 1.342 . S
C152 C156 1.401 . S
C152 C157 1.499 . S
N153 Co136 1.989 . S
N153 C152 1.342 . S
N153 N154 1.388 . S
N154 Co137 1.993 . S
N154 N153 1.388 . S
N154 C155 1.346 . S
C155 N154 1.346 . S
C155 C156 1.396 . S
C155 C165 1.510 . S
C156 C152 1.401 . S
C156 C155 1.396 . S
C157 C152 1.499 . S
C157 H158 0.959 . S
C157 H159 0.960 . S
C157 H160 0.961 . S
H158 C157 0.959 . S
H159 C157 0.960 . S
H160 C157 0.961 . S
O161 Co136 1.967 . S
O161 C169 1.258 . S
O162 Co137 1.941 . S
O162 C169 1.266 . S
H163 C165 0.959 . S
H164 C165 0.961 . S
C165 C155 1.510 . S
C165 H163 0.959 . S
C165 H164 0.961 . S
C165 H166 0.960 . S
H166 C165 0.960 . S
H167 N147 0.862 . S
O168 Co136 1.920 . S
O168 C141 1.289 . S
C169 O161 1.258 . S
C169 O162 1.266 . S
Co170 O173 1.970 . S
Co170 N187 1.989 . S
Co170 O195 1.967 . S
Co170 O202 1.920 . S
Co171 O174 1.966 . S
Co171 N180 2.022 1_545 S
Co171 N188 1.993 . S
Co171 O196 1.941 . S
C172 O173 1.258 . S
C172 O174 1.263 . S
O173 Co170 1.970 . S
O173 C172 1.258 . S
O174 Co171 1.966 . S
O174 C172 1.263 . S
C175 O176 1.235 . S
C175 O202 1.289 . S
O176 C175 1.235 . S
C177 C179 1.400 . S
C177 N180 1.351 . S
C177 C182 1.501 . S
C178 C179 1.387 . S
C178 N181 1.341 . S
C179 C177 1.400 . S
C179 C178 1.387 . S
N180 Co171 2.022 1_565 S
N180 C177 1.351 . S
N180 N181 1.365 . S
N181 C178 1.341 . S
N181 N180 1.365 . S
N181 H201 0.862 1_565 S
C182 C177 1.501 . S
C182 H183 0.961 . S
C182 H184 0.961 . S
C182 H185 0.960 . S
H183 C182 0.961 . S
H184 C182 0.961 . S
H185 C182 0.960 . S
C186 N187 1.342 . S
C186 C190 1.401 . S
C186 C191 1.499 . S
N187 Co170 1.989 . S
N187 C186 1.342 . S
N187 N188 1.388 . S
N188 Co171 1.993 . S
N188 N187 1.388 . S
N188 C189 1.346 1_545 S
C189 N188 1.346 1_565 S
C189 C190 1.396 1_565 S
C189 C199 1.510 . S
C190 C186 1.401 . S
C190 C189 1.396 1_545 S
C191 C186 1.499 . S
C191 H192 0.959 . S
C191 H193 0.960 . S
C191 H194 0.961 . S
H192 C191 0.959 . S
H193 C191 0.960 . S
H194 C191 0.961 . S
O195 Co170 1.967 . S
O195 C203 1.258 . S
O196 Co171 1.941 . S
O196 C203 1.266 . S
H197 C199 0.959 . S
H198 C199 0.961 . S
C199 C189 1.510 . S
C199 H197 0.959 . S
C199 H198 0.961 . S
C199 H200 0.960 . S
H200 C199 0.960 . S
H201 N181 0.862 1_545 S
O202 Co170 1.920 . S
O202 C175 1.289 . S
C203 O195 1.258 . S
C203 O196 1.266 . S
Co204 O207 1.970 . S
Co204 N221 1.989 . S
Co204 O229 1.967 . S
Co204 O236 1.920 . S
Co205 O208 1.966 . S
Co205 N214 2.022 . S
Co205 N222 1.993 . S
Co205 O230 1.941 . S
C206 O207 1.258 . S
C206 O208 1.263 . S
O207 Co204 1.970 . S
O207 C206 1.258 . S
O208 Co205 1.966 . S
O208 C206 1.263 . S
C209 O210 1.235 . S
C209 O236 1.289 . S
O210 C209 1.235 . S
C211 C213 1.400 . S
C211 N214 1.351 . S
C211 C216 1.501 . S
C212 C213 1.387 . S
C212 N215 1.341 . S
C213 C211 1.400 . S
C213 C212 1.387 . S
N214 Co205 2.022 . S
N214 C211 1.351 . S
N214 N215 1.365 . S
N215 C212 1.341 . S
N215 N214 1.365 . S
N215 H235 0.862 . S
C216 C211 1.501 . S
C216 H217 0.961 . S
C216 H218 0.961 . S
C216 H219 0.960 . S
H217 C216 0.961 . S
H218 C216 0.961 . S
H219 C216 0.960 . S
C220 N221 1.342 . S
C220 C224 1.401 . S
C220 C225 1.499 . S
N221 Co204 1.989 . S
N221 C220 1.342 . S
N221 N222 1.388 . S
N222 Co205 1.993 . S
N222 N221 1.388 . S
N222 C223 1.346 . S
C223 N222 1.346 . S
C223 C224 1.396 . S
C223 C233 1.510 . S
C224 C220 1.401 . S
C224 C223 1.396 . S
C225 C220 1.499 . S
C225 H226 0.959 . S
C225 H227 0.960 . S
C225 H228 0.961 . S
H226 C225 0.959 . S
H227 C225 0.960 . S
H228 C225 0.961 . S
O229 Co204 1.967 . S
O229 C237 1.258 . S
O230 Co205 1.941 . S
O230 C237 1.266 . S
H231 C233 0.959 . S
H232 C233 0.961 . S
C233 C223 1.510 . S
C233 H231 0.959 . S
C233 H232 0.961 . S
C233 H234 0.960 . S
H234 C233 0.960 . S
H235 N215 0.862 . S
O236 Co204 1.920 . S
O236 C209 1.289 . S
C237 O229 1.258 . S
C237 O230 1.266 . S
Co238 O241 1.970 . S
Co238 N255 1.989 . S
Co238 O263 1.967 1_455 S
Co238 O270 1.920 . S
Co239 O242 1.966 . S
Co239 N248 2.022 1_565 S
Co239 N256 1.993 . S
Co239 O264 1.941 . S
C240 O241 1.258 1_655 S
C240 O242 1.263 . S
O241 Co238 1.970 . S
O241 C240 1.258 1_455 S
O242 Co239 1.966 . S
O242 C240 1.263 . S
C243 O244 1.235 . S
C243 O270 1.289 . S
O244 C243 1.235 . S
C245 C247 1.400 . S
C245 N248 1.351 . S
C245 C250 1.501 . S
C246 C247 1.387 . S
C246 N249 1.341 . S
C247 C245 1.400 . S
C247 C246 1.387 . S
N248 Co239 2.022 1_545 S
N248 C245 1.351 . S
N248 N249 1.365 . S
N249 C246 1.341 . S
N249 N248 1.365 . S
N249 H269 0.862 1_545 S
C250 C245 1.501 . S
C250 H251 0.961 . S
C250 H252 0.961 . S
C250 H253 0.960 . S
H251 C250 0.961 . S
H252 C250 0.961 . S
H253 C250 0.960 . S
C254 N255 1.342 . S
C254 C258 1.401 . S
C254 C259 1.499 . S
N255 Co238 1.989 . S
N255 C254 1.342 . S
N255 N256 1.388 1_455 S
N256 Co239 1.993 . S
N256 N255 1.388 1_655 S
N256 C257 1.346 1_565 S
C257 N256 1.346 1_545 S
C257 C258 1.396 1_645 S
C257 C267 1.510 . S
C258 C254 1.401 . S
C258 C257 1.396 1_465 S
C259 C254 1.499 . S
C259 H260 0.959 . S
C259 H261 0.960 . S
C259 H262 0.961 . S
H260 C259 0.959 . S
H261 C259 0.960 . S
H262 C259 0.961 . S
O263 Co238 1.967 1_655 S
O263 C271 1.258 . S
O264 Co239 1.941 . S
O264 C271 1.266 . S
H265 C267 0.959 . S
H266 C267 0.961 . S
C267 C257 1.510 . S
C267 H265 0.959 . S
C267 H266 0.961 . S
C267 H268 0.960 . S
H268 C267 0.960 . S
H269 N249 0.862 1_565 S
O270 Co238 1.920 . S
O270 C243 1.289 . S
C271 O263 1.258 . S
C271 O264 1.266 . S
Co272 O275 1.970 . S
Co272 N289 1.989 . S
Co272 O297 1.967 . S
Co272 O304 1.920 . S
Co273 O276 1.966 . S
Co273 N282 2.022 . S
Co273 N290 1.993 . S
Co273 O298 1.941 . S
C274 O275 1.258 . S
C274 O276 1.263 . S
O275 Co272 1.970 . S
O275 C274 1.258 . S
O276 Co273 1.966 . S
O276 C274 1.263 . S
C277 O278 1.235 . S
C277 O304 1.289 . S
O278 C277 1.235 . S
C279 C281 1.400 . S
C279 N282 1.351 . S
C279 C284 1.501 . S
C280 C281 1.387 . S
C280 N283 1.341 . S
C281 C279 1.400 . S
C281 C280 1.387 . S
N282 Co273 2.022 . S
N282 C279 1.351 . S
N282 N283 1.365 . S
N283 C280 1.341 . S
N283 N282 1.365 . S
N283 H303 0.862 . S
C284 C279 1.501 . S
C284 H285 0.961 . S
C284 H286 0.961 . S
C284 H287 0.960 . S
H285 C284 0.961 . S
H286 C284 0.961 . S
H287 C284 0.960 . S
C288 N289 1.342 . S
C288 C292 1.401 . S
C288 C293 1.499 . S
N289 Co272 1.989 . S
N289 C288 1.342 . S
N289 N290 1.388 . S
N290 Co273 1.993 . S
N290 N289 1.388 . S
N290 C291 1.346 . S
C291 N290 1.346 . S
C291 C292 1.396 . S
C291 C301 1.510 . S
C292 C288 1.401 . S
C292 C291 1.396 . S
C293 C288 1.499 . S
C293 H294 0.959 . S
C293 H295 0.960 . S
C293 H296 0.961 . S
H294 C293 0.959 . S
H295 C293 0.960 . S
H296 C293 0.961 . S
O297 Co272 1.967 . S
O297 C305 1.258 . S
O298 Co273 1.941 . S
O298 C305 1.266 . S
H299 C301 0.959 . S
H300 C301 0.961 . S
C301 C291 1.510 . S
C301 H299 0.959 . S
C301 H300 0.961 . S
C301 H302 0.960 . S
H302 C301 0.960 . S
H303 N283 0.862 . S
O304 Co272 1.920 . S
O304 C277 1.289 . S
C305 O297 1.258 . S
C305 O298 1.266 . S
Co306 O309 1.970 . S
Co306 N323 1.989 . S
Co306 O331 1.967 1_655 S
Co306 O338 1.920 . S
Co307 O310 1.966 . S
Co307 N316 2.022 1_565 S
Co307 N324 1.993 . S
Co307 O332 1.941 . S
C308 O309 1.258 1_455 S
C308 O310 1.263 . S
O309 Co306 1.970 . S
O309 C308 1.258 1_655 S
O310 Co307 1.966 . S
O310 C308 1.263 . S
C311 O312 1.235 . S
C311 O338 1.289 . S
O312 C311 1.235 . S
C313 C315 1.400 . S
C313 N316 1.351 . S
C313 C318 1.501 . S
C314 C315 1.387 . S
C314 N317 1.341 . S
C315 C313 1.400 . S
C315 C314 1.387 . S
N316 Co307 2.022 1_545 S
N316 C313 1.351 . S
N316 N317 1.365 . S
N317 C314 1.341 . S
N317 N316 1.365 . S
N317 H337 0.862 1_545 S
C318 C313 1.501 . S
C318 H319 0.961 . S
C318 H320 0.961 . S
C318 H321 0.960 . S
H319 C318 0.961 . S
H320 C318 0.961 . S
H321 C318 0.960 . S
C322 N323 1.342 . S
C322 C326 1.401 . S
C322 C327 1.499 . S
N323 Co306 1.989 . S
N323 C322 1.342 . S
N323 N324 1.388 1_655 S
N324 Co307 1.993 . S
N324 N323 1.388 1_455 S
N324 C325 1.346 1_565 S
C325 N324 1.346 1_545 S
C325 C326 1.396 1_445 S
C325 C335 1.510 . S
C326 C322 1.401 . S
C326 C325 1.396 1_665 S
C327 C322 1.499 . S
C327 H328 0.959 . S
C327 H329 0.960 . S
C327 H330 0.961 . S
H328 C327 0.959 . S
H329 C327 0.960 . S
H330 C327 0.961 . S
O331 Co306 1.967 1_455 S
O331 C339 1.258 . S
O332 Co307 1.941 . S
O332 C339 1.266 . S
H333 C335 0.959 . S
H334 C335 0.961 . S
C335 C325 1.510 . S
C335 H333 0.959 . S
C335 H334 0.961 . S
C335 H336 0.960 . S
H336 C335 0.960 . S
H337 N317 0.862 1_565 S
O338 Co306 1.920 . S
O338 C311 1.289 . S
C339 O331 1.258 . S
C339 O332 1.266 . S
Co340 O343 1.970 . S
Co340 N357 1.989 . S
Co340 O365 1.967 . S
Co340 O372 1.920 . S
Co341 O344 1.966 . S
Co341 N350 2.022 . S
Co341 N358 1.993 . S
Co341 O366 1.941 . S
C342 O343 1.258 . S
C342 O344 1.263 . S
O343 Co340 1.970 . S
O343 C342 1.258 . S
O344 Co341 1.966 . S
O344 C342 1.263 . S
C345 O346 1.235 . S
C345 O372 1.289 . S
O346 C345 1.235 . S
C347 C349 1.400 . S
C347 N350 1.351 . S
C347 C352 1.501 . S
C348 C349 1.387 . S
C348 N351 1.341 . S
C349 C347 1.400 . S
C349 C348 1.387 . S
N350 Co341 2.022 . S
N350 C347 1.351 . S
N350 N351 1.365 . S
N351 C348 1.341 . S
N351 N350 1.365 . S
N351 H371 0.862 . S
C352 C347 1.501 . S
C352 H353 0.961 . S
C352 H354 0.961 . S
C352 H355 0.960 . S
H353 C352 0.961 . S
H354 C352 0.961 . S
H355 C352 0.960 . S
C356 N357 1.342 . S
C356 C360 1.401 . S
C356 C361 1.499 . S
N357 Co340 1.989 . S
N357 C356 1.342 . S
N357 N358 1.388 . S
N358 Co341 1.993 . S
N358 N357 1.388 . S
N358 C359 1.346 . S
C359 N358 1.346 . S
C359 C360 1.396 . S
C359 C369 1.510 . S
C360 C356 1.401 . S
C360 C359 1.396 . S
C361 C356 1.499 . S
C361 H362 0.959 . S
C361 H363 0.960 . S
C361 H364 0.961 . S
H362 C361 0.959 . S
H363 C361 0.960 . S
H364 C361 0.961 . S
O365 Co340 1.967 . S
O365 C373 1.258 . S
O366 Co341 1.941 . S
O366 C373 1.266 . S
H367 C369 0.959 . S
H368 C369 0.961 . S
C369 C359 1.510 . S
C369 H367 0.959 . S
C369 H368 0.961 . S
C369 H370 0.960 . S
H370 C369 0.960 . S
H371 N351 0.862 . S
O372 Co340 1.920 . S
O372 C345 1.289 . S
C373 O365 1.258 . S
C373 O366 1.266 . S
Co374 O377 1.970 . S
Co374 N391 1.989 . S
Co374 O399 1.967 . S
Co374 O406 1.920 . S
Co375 O378 1.966 . S
Co375 N384 2.022 1_545 S
Co375 N392 1.993 . S
Co375 O400 1.941 . S
C376 O377 1.258 . S
C376 O378 1.263 . S
O377 Co374 1.970 . S
O377 C376 1.258 . S
O378 Co375 1.966 . S
O378 C376 1.263 . S
C379 O380 1.235 . S
C379 O406 1.289 . S
O380 C379 1.235 . S
C381 C383 1.400 . S
C381 N384 1.351 . S
C381 C386 1.501 . S
C382 C383 1.387 . S
C382 N385 1.341 . S
C383 C381 1.400 . S
C383 C382 1.387 . S
N384 Co375 2.022 1_565 S
N384 C381 1.351 . S
N384 N385 1.365 . S
N385 C382 1.341 . S
N385 N384 1.365 . S
N385 H405 0.862 1_565 S
C386 C381 1.501 . S
C386 H387 0.961 . S
C386 H388 0.961 . S
C386 H389 0.960 . S
H387 C386 0.961 . S
H388 C386 0.961 . S
H389 C386 0.960 . S
C390 N391 1.342 . S
C390 C394 1.401 . S
C390 C395 1.499 . S
N391 Co374 1.989 . S
N391 C390 1.342 . S
N391 N392 1.388 . S
N392 Co375 1.993 . S
N392 N391 1.388 . S
N392 C393 1.346 1_545 S
C393 N392 1.346 1_565 S
C393 C394 1.396 1_565 S
C393 C403 1.510 . S
C394 C390 1.401 . S
C394 C393 1.396 1_545 S
C395 C390 1.499 . S
C395 H396 0.959 . S
C395 H397 0.960 . S
C395 H398 0.961 . S
H396 C395 0.959 . S
H397 C395 0.960 . S
H398 C395 0.961 . S
O399 Co374 1.967 . S
O399 C407 1.258 . S
O400 Co375 1.941 . S
O400 C407 1.266 . S
H401 C403 0.959 . S
H402 C403 0.961 . S
C403 C393 1.510 . S
C403 H401 0.959 . S
C403 H402 0.961 . S
C403 H404 0.960 . S
H404 C403 0.960 . S
H405 N385 0.862 1_545 S
O406 Co374 1.920 . S
O406 C379 1.289 . S
C407 O399 1.258 . S
C407 O400 1.266 . S
Co408 O411 1.970 . S
Co408 N425 1.989 . S
Co408 O433 1.967 . S
Co408 O440 1.920 . S
Co409 O412 1.966 . S
Co409 N418 2.022 . S
Co409 N426 1.993 . S
Co409 O434 1.941 . S
C410 O411 1.258 . S
C410 O412 1.263 . S
O411 Co408 1.970 . S
O411 C410 1.258 . S
O412 Co409 1.966 . S
O412 C410 1.263 . S
C413 O414 1.235 . S
C413 O440 1.289 . S
O414 C413 1.235 . S
C415 C417 1.400 . S
C415 N418 1.351 . S
C415 C420 1.501 . S
C416 C417 1.387 . S
C416 N419 1.341 . S
C417 C415 1.400 . S
C417 C416 1.387 . S
N418 Co409 2.022 . S
N418 C415 1.351 . S
N418 N419 1.365 . S
N419 C416 1.341 . S
N419 N418 1.365 . S
N419 H439 0.862 . S
C420 C415 1.501 . S
C420 H421 0.961 . S
C420 H422 0.961 . S
C420 H423 0.960 . S
H421 C420 0.961 . S
H422 C420 0.961 . S
H423 C420 0.960 . S
C424 N425 1.342 . S
C424 C428 1.401 . S
C424 C429 1.499 . S
N425 Co408 1.989 . S
N425 C424 1.342 . S
N425 N426 1.388 . S
N426 Co409 1.993 . S
N426 N425 1.388 . S
N426 C427 1.346 . S
C427 N426 1.346 . S
C427 C428 1.396 . S
C427 C437 1.510 . S
C428 C424 1.401 . S
C428 C427 1.396 . S
C429 C424 1.499 . S
C429 H430 0.959 . S
C429 H431 0.960 . S
C429 H432 0.961 . S
H430 C429 0.959 . S
H431 C429 0.960 . S
H432 C429 0.961 . S
O433 Co408 1.967 . S
O433 C441 1.258 . S
O434 Co409 1.941 . S
O434 C441 1.266 . S
H435 C437 0.959 . S
H436 C437 0.961 . S
C437 C427 1.510 . S
C437 H435 0.959 . S
C437 H436 0.961 . S
C437 H438 0.960 . S
H438 C437 0.960 . S
H439 N419 0.862 . S
O440 Co408 1.920 . S
O440 C413 1.289 . S
C441 O433 1.258 . S
C441 O434 1.266 . S
Co442 O445 1.970 . S
Co442 N459 1.989 . S
Co442 O467 1.967 . S
Co442 O474 1.920 . S
Co443 O446 1.966 . S
Co443 N452 2.022 1_565 S
Co443 N460 1.993 . S
Co443 O468 1.941 . S
C444 O445 1.258 . S
C444 O446 1.263 . S
O445 Co442 1.970 . S
O445 C444 1.258 . S
O446 Co443 1.966 . S
O446 C444 1.263 . S
C447 O448 1.235 . S
C447 O474 1.289 . S
O448 C447 1.235 . S
C449 C451 1.400 . S
C449 N452 1.351 . S
C449 C454 1.501 . S
C450 C451 1.387 . S
C450 N453 1.341 . S
C451 C449 1.400 . S
C451 C450 1.387 . S
N452 Co443 2.022 1_545 S
N452 C449 1.351 . S
N452 N453 1.365 . S
N453 C450 1.341 . S
N453 N452 1.365 . S
N453 H473 0.862 1_545 S
C454 C449 1.501 . S
C454 H455 0.961 . S
C454 H456 0.961 . S
C454 H457 0.960 . S
H455 C454 0.961 . S
H456 C454 0.961 . S
H457 C454 0.960 . S
C458 N459 1.342 . S
C458 C462 1.401 . S
C458 C463 1.499 . S
N459 Co442 1.989 . S
N459 C458 1.342 . S
N459 N460 1.388 . S
N460 Co443 1.993 . S
N460 N459 1.388 . S
N460 C461 1.346 1_565 S
C461 N460 1.346 1_545 S
C461 C462 1.396 1_545 S
C461 C471 1.510 . S
C462 C458 1.401 . S
C462 C461 1.396 1_565 S
C463 C458 1.499 . S
C463 H464 0.959 . S
C463 H465 0.960 . S
C463 H466 0.961 . S
H464 C463 0.959 . S
H465 C463 0.960 . S
H466 C463 0.961 . S
O467 Co442 1.967 . S
O467 C475 1.258 . S
O468 Co443 1.941 . S
O468 C475 1.266 . S
H469 C471 0.959 . S
H470 C471 0.961 . S
C471 C461 1.510 . S
C471 H469 0.959 . S
C471 H470 0.961 . S
C471 H472 0.960 . S
H472 C471 0.960 . S
H473 N453 0.862 1_565 S
O474 Co442 1.920 . S
O474 C447 1.289 . S
C475 O467 1.258 . S
C475 O468 1.266 . S
Co476 O479 1.970 . S
Co476 N493 1.989 . S
Co476 O501 1.967 . S
Co476 O508 1.920 . S
Co477 O480 1.966 . S
Co477 N486 2.022 . S
Co477 N494 1.993 . S
Co477 O502 1.941 . S
C478 O479 1.258 . S
C478 O480 1.263 . S
O479 Co476 1.970 . S
O479 C478 1.258 . S
O480 Co477 1.966 . S
O480 C478 1.263 . S
C481 O482 1.235 . S
C481 O508 1.289 . S
O482 C481 1.235 . S
C483 C485 1.400 . S
C483 N486 1.351 . S
C483 C488 1.501 . S
C484 C485 1.387 . S
C484 N487 1.341 . S
C485 C483 1.400 . S
C485 C484 1.387 . S
N486 Co477 2.022 . S
N486 C483 1.351 . S
N486 N487 1.365 . S
N487 C484 1.341 . S
N487 N486 1.365 . S
N487 H507 0.862 . S
C488 C483 1.501 . S
C488 H489 0.961 . S
C488 H490 0.961 . S
C488 H491 0.960 . S
H489 C488 0.961 . S
H490 C488 0.961 . S
H491 C488 0.960 . S
C492 N493 1.342 . S
C492 C496 1.401 . S
C492 C497 1.499 . S
N493 Co476 1.989 . S
N493 C492 1.342 . S
N493 N494 1.388 . S
N494 Co477 1.993 . S
N494 N493 1.388 . S
N494 C495 1.346 . S
C495 N494 1.346 . S
C495 C496 1.396 . S
C495 C505 1.510 . S
C496 C492 1.401 . S
C496 C495 1.396 . S
C497 C492 1.499 . S
C497 H498 0.959 . S
C497 H499 0.960 . S
C497 H500 0.961 . S
H498 C497 0.959 . S
H499 C497 0.960 . S
H500 C497 0.961 . S
O501 Co476 1.967 . S
O501 C509 1.258 . S
O502 Co477 1.941 . S
O502 C509 1.266 . S
H503 C505 0.959 . S
H504 C505 0.961 . S
C505 C495 1.510 . S
C505 H503 0.959 . S
C505 H504 0.961 . S
C505 H506 0.960 . S
H506 C505 0.960 . S
H507 N487 0.862 . S
O508 Co476 1.920 . S
O508 C481 1.289 . S
C509 O501 1.258 . S
C509 O502 1.266 . S
Co510 O513 1.970 . S
Co510 N527 1.989 . S
Co510 O535 1.967 1_655 S
Co510 O542 1.920 . S
Co511 O514 1.966 . S
Co511 N520 2.022 1_545 S
Co511 N528 1.993 . S
Co511 O536 1.941 . S
C512 O513 1.258 1_455 S
C512 O514 1.263 . S
O513 Co510 1.970 . S
O513 C512 1.258 1_655 S
O514 Co511 1.966 . S
O514 C512 1.263 . S
C515 O516 1.235 . S
C515 O542 1.289 . S
O516 C515 1.235 . S
C517 C519 1.400 . S
C517 N520 1.351 . S
C517 C522 1.501 . S
C518 C519 1.387 . S
C518 N521 1.341 . S
C519 C517 1.400 . S
C519 C518 1.387 . S
N520 Co511 2.022 1_565 S
N520 C517 1.351 . S
N520 N521 1.365 . S
N521 C518 1.341 . S
N521 N520 1.365 . S
N521 H541 0.862 1_565 S
C522 C517 1.501 . S
C522 H523 0.961 . S
C522 H524 0.961 . S
C522 H525 0.960 . S
H523 C522 0.961 . S
H524 C522 0.961 . S
H525 C522 0.960 . S
C526 N527 1.342 . S
C526 C530 1.401 . S
C526 C531 1.499 . S
N527 Co510 1.989 . S
N527 C526 1.342 . S
N527 N528 1.388 1_655 S
N528 Co511 1.993 . S
N528 N527 1.388 1_455 S
N528 C529 1.346 1_545 S
C529 N528 1.346 1_565 S
C529 C530 1.396 1_465 S
C529 C539 1.510 . S
C530 C526 1.401 . S
C530 C529 1.396 1_645 S
C531 C526 1.499 . S
C531 H532 0.959 . S
C531 H533 0.960 . S
C531 H534 0.961 . S
H532 C531 0.959 . S
H533 C531 0.960 . S
H534 C531 0.961 . S
O535 Co510 1.967 1_455 S
O535 C543 1.258 . S
O536 Co511 1.941 . S
O536 C543 1.266 . S
H537 C539 0.959 . S
H538 C539 0.961 . S
C539 C529 1.510 . S
C539 H537 0.959 . S
C539 H538 0.961 . S
C539 H540 0.960 . S
H540 C539 0.960 . S
H541 N521 0.862 1_545 S
O542 Co510 1.920 . S
O542 C515 1.289 . S
C543 O535 1.258 . S
C543 O536 1.266 . S
Co544 O547 1.970 . S
Co544 N561 1.989 . S
Co544 O569 1.967 . S
Co544 O576 1.920 . S
Co545 O548 1.966 . S
Co545 N554 2.022 . S
Co545 N562 1.993 . S
Co545 O570 1.941 . S
C546 O547 1.258 . S
C546 O548 1.263 . S
O547 Co544 1.970 . S
O547 C546 1.258 . S
O548 Co545 1.966 . S
O548 C546 1.263 . S
C549 O550 1.235 . S
C549 O576 1.289 . S
O550 C549 1.235 . S
C551 C553 1.400 . S
C551 N554 1.351 . S
C551 C556 1.501 . S
C552 C553 1.387 . S
C552 N555 1.341 . S
C553 C551 1.400 . S
C553 C552 1.387 . S
N554 Co545 2.022 . S
N554 C551 1.351 . S
N554 N555 1.365 . S
N555 C552 1.341 . S
N555 N554 1.365 . S
N555 H575 0.862 . S
C556 C551 1.501 . S
C556 H557 0.961 . S
C556 H558 0.961 . S
C556 H559 0.960 . S
H557 C556 0.961 . S
H558 C556 0.961 . S
H559 C556 0.960 . S
C560 N561 1.342 . S
C560 C564 1.401 . S
C560 C565 1.499 . S
N561 Co544 1.989 . S
N561 C560 1.342 . S
N561 N562 1.388 . S
N562 Co545 1.993 . S
N562 N561 1.388 . S
N562 C563 1.346 . S
C563 N562 1.346 . S
C563 C564 1.396 . S
C563 C573 1.510 . S
C564 C560 1.401 . S
C564 C563 1.396 . S
C565 C560 1.499 . S
C565 H566 0.959 . S
C565 H567 0.960 . S
C565 H568 0.961 . S
H566 C565 0.959 . S
H567 C565 0.960 . S
H568 C565 0.961 . S
O569 Co544 1.967 . S
O569 C577 1.258 . S
O570 Co545 1.941 . S
O570 C577 1.266 . S
H571 C573 0.959 . S
H572 C573 0.961 . S
C573 C563 1.510 . S
C573 H571 0.959 . S
C573 H572 0.961 . S
C573 H574 0.960 . S
H574 C573 0.960 . S
H575 N555 0.862 . S
O576 Co544 1.920 . S
O576 C549 1.289 . S
C577 O569 1.258 . S
C577 O570 1.266 . S
Co578 O581 1.970 . S
Co578 N595 1.989 . S
Co578 O603 1.967 . S
Co578 O610 1.920 . S
Co579 O582 1.966 . S
Co579 N588 2.022 . S
Co579 N596 1.993 . S
Co579 O604 1.941 . S
C580 O581 1.258 . S
C580 O582 1.263 . S
O581 Co578 1.970 . S
O581 C580 1.258 . S
O582 Co579 1.966 . S
O582 C580 1.263 . S
C583 O584 1.235 . S
C583 O610 1.289 . S
O584 C583 1.235 . S
C585 C587 1.400 . S
C585 N588 1.351 . S
C585 C590 1.501 . S
C586 C587 1.387 . S
C586 N589 1.341 . S
C587 C585 1.400 . S
C587 C586 1.387 . S
N588 Co579 2.022 . S
N588 C585 1.351 . S
N588 N589 1.365 . S
N589 C586 1.341 . S
N589 N588 1.365 . S
N589 H609 0.862 . S
C590 C585 1.501 . S
C590 H591 0.961 . S
C590 H592 0.961 . S
C590 H593 0.960 . S
H591 C590 0.961 . S
H592 C590 0.961 . S
H593 C590 0.960 . S
C594 N595 1.342 . S
C594 C598 1.401 . S
C594 C599 1.499 . S
N595 Co578 1.989 . S
N595 C594 1.342 . S
N595 N596 1.388 . S
N596 Co579 1.993 . S
N596 N595 1.388 . S
N596 C597 1.346 . S
C597 N596 1.346 . S
C597 C598 1.396 . S
C597 C607 1.510 . S
C598 C594 1.401 . S
C598 C597 1.396 . S
C599 C594 1.499 . S
C599 H600 0.959 . S
C599 H601 0.960 . S
C599 H602 0.961 . S
H600 C599 0.959 . S
H601 C599 0.960 . S
H602 C599 0.961 . S
O603 Co578 1.967 . S
O603 C611 1.258 . S
O604 Co579 1.941 . S
O604 C611 1.266 . S
H605 C607 0.959 . S
H606 C607 0.961 . S
C607 C597 1.510 . S
C607 H605 0.959 . S
C607 H606 0.961 . S
C607 H608 0.960 . S
H608 C607 0.960 . S
H609 N589 0.862 . S
O610 Co578 1.920 . S
O610 C583 1.289 . S
C611 O603 1.258 . S
C611 O604 1.266 . S
Co612 O615 1.970 . S
Co612 N629 1.989 . S
Co612 O637 1.967 . S
Co612 O644 1.920 . S
Co613 O616 1.966 . S
Co613 N622 2.022 . S
Co613 N630 1.993 . S
Co613 O638 1.941 . S
C614 O615 1.258 . S
C614 O616 1.263 . S
O615 Co612 1.970 . S
O615 C614 1.258 . S
O616 Co613 1.966 . S
O616 C614 1.263 . S
C617 O618 1.235 . S
C617 O644 1.289 . S
O618 C617 1.235 . S
C619 C621 1.400 . S
C619 N622 1.351 . S
C619 C624 1.501 . S
C620 C621 1.387 . S
C620 N623 1.341 . S
C621 C619 1.400 . S
C621 C620 1.387 . S
N622 Co613 2.022 . S
N622 C619 1.351 . S
N622 N623 1.365 . S
N623 C620 1.341 . S
N623 N622 1.365 . S
N623 H643 0.862 . S
C624 C619 1.501 . S
C624 H625 0.961 . S
C624 H626 0.961 . S
C624 H627 0.960 . S
H625 C624 0.961 . S
H626 C624 0.961 . S
H627 C624 0.960 . S
C628 N629 1.342 . S
C628 C632 1.401 . S
C628 C633 1.499 . S
N629 Co612 1.989 . S
N629 C628 1.342 . S
N629 N630 1.388 . S
N630 Co613 1.993 . S
N630 N629 1.388 . S
N630 C631 1.346 . S
C631 N630 1.346 . S
C631 C632 1.396 . S
C631 C641 1.510 . S
C632 C628 1.401 . S
C632 C631 1.396 . S
C633 C628 1.499 . S
C633 H634 0.959 . S
C633 H635 0.960 . S
C633 H636 0.961 . S
H634 C633 0.959 . S
H635 C633 0.960 . S
H636 C633 0.961 . S
O637 Co612 1.967 . S
O637 C645 1.258 . S
O638 Co613 1.941 . S
O638 C645 1.266 . S
H639 C641 0.959 . S
H640 C641 0.961 . S
C641 C631 1.510 . S
C641 H639 0.959 . S
C641 H640 0.961 . S
C641 H642 0.960 . S
H642 C641 0.960 . S
H643 N623 0.862 . S
O644 Co612 1.920 . S
O644 C617 1.289 . S
C645 O637 1.258 . S
C645 O638 1.266 . S
Co646 O649 1.970 . S
Co646 N663 1.989 . S
Co646 O671 1.967 1_655 S
Co646 O678 1.920 . S
Co647 O650 1.966 . S
Co647 N656 2.022 . S
Co647 N664 1.993 . S
Co647 O672 1.941 . S
C648 O649 1.258 1_455 S
C648 O650 1.263 . S
O649 Co646 1.970 . S
O649 C648 1.258 1_655 S
O650 Co647 1.966 . S
O650 C648 1.263 . S
C651 O652 1.235 . S
C651 O678 1.289 . S
O652 C651 1.235 . S
C653 C655 1.400 . S
C653 N656 1.351 . S
C653 C658 1.501 . S
C654 C655 1.387 . S
C654 N657 1.341 . S
C655 C653 1.400 . S
C655 C654 1.387 . S
N656 Co647 2.022 . S
N656 C653 1.351 . S
N656 N657 1.365 . S
N657 C654 1.341 . S
N657 N656 1.365 . S
N657 H677 0.862 . S
C658 C653 1.501 . S
C658 H659 0.961 . S
C658 H660 0.961 . S
C658 H661 0.960 . S
H659 C658 0.961 . S
H660 C658 0.961 . S
H661 C658 0.960 . S
C662 N663 1.342 . S
C662 C666 1.401 . S
C662 C667 1.499 . S
N663 Co646 1.989 . S
N663 C662 1.342 . S
N663 N664 1.388 1_655 S
N664 Co647 1.993 . S
N664 N663 1.388 1_455 S
N664 C665 1.346 . S
C665 N664 1.346 . S
C665 C666 1.396 1_455 S
C665 C675 1.510 . S
C666 C662 1.401 . S
C666 C665 1.396 1_655 S
C667 C662 1.499 . S
C667 H668 0.959 . S
C667 H669 0.960 . S
C667 H670 0.961 . S
H668 C667 0.959 . S
H669 C667 0.960 . S
H670 C667 0.961 . S
O671 Co646 1.967 1_455 S
O671 C679 1.258 . S
O672 Co647 1.941 . S
O672 C679 1.266 . S
H673 C675 0.959 . S
H674 C675 0.961 . S
C675 C665 1.510 . S
C675 H673 0.959 . S
C675 H674 0.961 . S
C675 H676 0.960 . S
H676 C675 0.960 . S
H677 N657 0.862 . S
O678 Co646 1.920 . S
O678 C651 1.289 . S
C679 O671 1.258 . S
C679 O672 1.266 . S
Co680 O683 1.970 . S
Co680 N697 1.989 . S
Co680 O705 1.967 . S
Co680 O712 1.920 . S
Co681 O684 1.966 . S
Co681 N690 2.022 . S
Co681 N698 1.993 . S
Co681 O706 1.941 . S
C682 O683 1.258 . S
C682 O684 1.263 . S
O683 Co680 1.970 . S
O683 C682 1.258 . S
O684 Co681 1.966 . S
O684 C682 1.263 . S
C685 O686 1.235 . S
C685 O712 1.289 . S
O686 C685 1.235 . S
C687 C689 1.400 . S
C687 N690 1.351 . S
C687 C692 1.501 . S
C688 C689 1.387 . S
C688 N691 1.341 . S
C689 C687 1.400 . S
C689 C688 1.387 . S
N690 Co681 2.022 . S
N690 C687 1.351 . S
N690 N691 1.365 . S
N691 C688 1.341 . S
N691 N690 1.365 . S
N691 H711 0.862 . S
C692 C687 1.501 . S
C692 H693 0.961 . S
C692 H694 0.961 . S
C692 H695 0.960 . S
H693 C692 0.961 . S
H694 C692 0.961 . S
H695 C692 0.960 . S
C696 N697 1.342 . S
C696 C700 1.401 . S
C696 C701 1.499 . S
N697 Co680 1.989 . S
N697 C696 1.342 . S
N697 N698 1.388 . S
N698 Co681 1.993 . S
N698 N697 1.388 . S
N698 C699 1.346 . S
C699 N698 1.346 . S
C699 C700 1.396 . S
C699 C709 1.510 . S
C700 C696 1.401 . S
C700 C699 1.396 . S
C701 C696 1.499 . S
C701 H702 0.959 . S
C701 H703 0.960 . S
C701 H704 0.961 . S
H702 C701 0.959 . S
H703 C701 0.960 . S
H704 C701 0.961 . S
O705 Co680 1.967 . S
O705 C713 1.258 . S
O706 Co681 1.941 . S
O706 C713 1.266 . S
H707 C709 0.959 . S
H708 C709 0.961 . S
C709 C699 1.510 . S
C709 H707 0.959 . S
C709 H708 0.961 . S
C709 H710 0.960 . S
H710 C709 0.960 . S
H711 N691 0.862 . S
O712 Co680 1.920 . S
O712 C685 1.289 . S
C713 O705 1.258 . S
C713 O706 1.266 . S
Co714 O717 1.970 . S
Co714 N731 1.989 . S
Co714 O739 1.967 1_655 S
Co714 O746 1.920 . S
Co715 O718 1.966 . S
Co715 N724 2.022 . S
Co715 N732 1.993 . S
Co715 O740 1.941 . S
C716 O717 1.258 1_455 S
C716 O718 1.263 . S
O717 Co714 1.970 . S
O717 C716 1.258 1_655 S
O718 Co715 1.966 . S
O718 C716 1.263 . S
C719 O720 1.235 . S
C719 O746 1.289 . S
O720 C719 1.235 . S
C721 C723 1.400 . S
C721 N724 1.351 . S
C721 C726 1.501 . S
C722 C723 1.387 . S
C722 N725 1.341 . S
C723 C721 1.400 . S
C723 C722 1.387 . S
N724 Co715 2.022 . S
N724 C721 1.351 . S
N724 N725 1.365 . S
N725 C722 1.341 . S
N725 N724 1.365 . S
N725 H745 0.862 . S
C726 C721 1.501 . S
C726 H727 0.961 . S
C726 H728 0.961 . S
C726 H729 0.960 . S
H727 C726 0.961 . S
H728 C726 0.961 . S
H729 C726 0.960 . S
C730 N731 1.342 . S
C730 C734 1.401 . S
C730 C735 1.499 . S
N731 Co714 1.989 . S
N731 C730 1.342 . S
N731 N732 1.388 1_655 S
N732 Co715 1.993 . S
N732 N731 1.388 1_455 S
N732 C733 1.346 . S
C733 N732 1.346 . S
C733 C734 1.396 1_455 S
C733 C743 1.510 . S
C734 C730 1.401 . S
C734 C733 1.396 1_655 S
C735 C730 1.499 . S
C735 H736 0.959 . S
C735 H737 0.960 . S
C735 H738 0.961 . S
H736 C735 0.959 . S
H737 C735 0.960 . S
H738 C735 0.961 . S
O739 Co714 1.967 1_455 S
O739 C747 1.258 . S
O740 Co715 1.941 . S
O740 C747 1.266 . S
H741 C743 0.959 . S
H742 C743 0.961 . S
C743 C733 1.510 . S
C743 H741 0.959 . S
C743 H742 0.961 . S
C743 H744 0.960 . S
H744 C743 0.960 . S
H745 N725 0.862 . S
O746 Co714 1.920 . S
O746 C719 1.289 . S
C747 O739 1.258 . S
C747 O740 1.266 . S
Co748 O751 1.970 . S
Co748 N765 1.989 . S
Co748 O773 1.967 . S
Co748 O780 1.920 . S
Co749 O752 1.966 . S
Co749 N758 2.022 . S
Co749 N766 1.993 . S
Co749 O774 1.941 . S
C750 O751 1.258 . S
C750 O752 1.263 . S
O751 Co748 1.970 . S
O751 C750 1.258 . S
O752 Co749 1.966 . S
O752 C750 1.263 . S
C753 O754 1.235 . S
C753 O780 1.289 . S
O754 C753 1.235 . S
C755 C757 1.400 . S
C755 N758 1.351 . S
C755 C760 1.501 . S
C756 C757 1.387 . S
C756 N759 1.341 . S
C757 C755 1.400 . S
C757 C756 1.387 . S
N758 Co749 2.022 . S
N758 C755 1.351 . S
N758 N759 1.365 . S
N759 C756 1.341 . S
N759 N758 1.365 . S
N759 H779 0.862 . S
C760 C755 1.501 . S
C760 H761 0.961 . S
C760 H762 0.961 . S
C760 H763 0.960 . S
H761 C760 0.961 . S
H762 C760 0.961 . S
H763 C760 0.960 . S
C764 N765 1.342 . S
C764 C768 1.401 . S
C764 C769 1.499 . S
N765 Co748 1.989 . S
N765 C764 1.342 . S
N765 N766 1.388 . S
N766 Co749 1.993 . S
N766 N765 1.388 . S
N766 C767 1.346 . S
C767 N766 1.346 . S
C767 C768 1.396 . S
C767 C777 1.510 . S
C768 C764 1.401 . S
C768 C767 1.396 . S
C769 C764 1.499 . S
C769 H770 0.959 . S
C769 H771 0.960 . S
C769 H772 0.961 . S
H770 C769 0.959 . S
H771 C769 0.960 . S
H772 C769 0.961 . S
O773 Co748 1.967 . S
O773 C781 1.258 . S
O774 Co749 1.941 . S
O774 C781 1.266 . S
H775 C777 0.959 . S
H776 C777 0.961 . S
C777 C767 1.510 . S
C777 H775 0.959 . S
C777 H776 0.961 . S
C777 H778 0.960 . S
H778 C777 0.960 . S
H779 N759 0.862 . S
O780 Co748 1.920 . S
O780 C753 1.289 . S
C781 O773 1.258 . S
C781 O774 1.266 . S
Co782 O785 1.970 . S
Co782 N799 1.989 . S
Co782 O807 1.967 . S
Co782 O814 1.920 . S
Co783 O786 1.966 . S
Co783 N792 2.022 . S
Co783 N800 1.993 . S
Co783 O808 1.941 . S
C784 O785 1.258 . S
C784 O786 1.263 . S
O785 Co782 1.970 . S
O785 C784 1.258 . S
O786 Co783 1.966 . S
O786 C784 1.263 . S
C787 O788 1.235 . S
C787 O814 1.289 . S
O788 C787 1.235 . S
C789 C791 1.400 . S
C789 N792 1.351 . S
C789 C794 1.501 . S
C790 C791 1.387 . S
C790 N793 1.341 . S
C791 C789 1.400 . S
C791 C790 1.387 . S
N792 Co783 2.022 . S
N792 C789 1.351 . S
N792 N793 1.365 . S
N793 C790 1.341 . S
N793 N792 1.365 . S
N793 H813 0.862 . S
C794 C789 1.501 . S
C794 H795 0.961 . S
C794 H796 0.961 . S
C794 H797 0.960 . S
H795 C794 0.961 . S
H796 C794 0.961 . S
H797 C794 0.960 . S
C798 N799 1.342 . S
C798 C802 1.401 . S
C798 C803 1.499 . S
N799 Co782 1.989 . S
N799 C798 1.342 . S
N799 N800 1.388 . S
N800 Co783 1.993 . S
N800 N799 1.388 . S
N800 C801 1.346 . S
C801 N800 1.346 . S
C801 C802 1.396 . S
C801 C811 1.510 . S
C802 C798 1.401 . S
C802 C801 1.396 . S
C803 C798 1.499 . S
C803 H804 0.959 . S
C803 H805 0.960 . S
C803 H806 0.961 . S
H804 C803 0.959 . S
H805 C803 0.960 . S
H806 C803 0.961 . S
O807 Co782 1.967 . S
O807 C815 1.258 . S
O808 Co783 1.941 . S
O808 C815 1.266 . S
H809 C811 0.959 . S
H810 C811 0.961 . S
C811 C801 1.510 . S
C811 H809 0.959 . S
C811 H810 0.961 . S
C811 H812 0.960 . S
H812 C811 0.960 . S
H813 N793 0.862 . S
O814 Co782 1.920 . S
O814 C787 1.289 . S
C815 O807 1.258 . S
C815 O808 1.266 . S
Co816 O819 1.970 . S
Co816 N833 1.989 . S
Co816 O841 1.967 . S
Co816 O848 1.920 . S
Co817 O820 1.966 . S
Co817 N826 2.022 . S
Co817 N834 1.993 . S
Co817 O842 1.941 . S
C818 O819 1.258 . S
C818 O820 1.263 . S
O819 Co816 1.970 . S
O819 C818 1.258 . S
O820 Co817 1.966 . S
O820 C818 1.263 . S
C821 O822 1.235 . S
C821 O848 1.289 . S
O822 C821 1.235 . S
C823 C825 1.400 . S
C823 N826 1.351 . S
C823 C828 1.501 . S
C824 C825 1.387 . S
C824 N827 1.341 . S
C825 C823 1.400 . S
C825 C824 1.387 . S
N826 Co817 2.022 . S
N826 C823 1.351 . S
N826 N827 1.365 . S
N827 C824 1.341 . S
N827 N826 1.365 . S
N827 H847 0.862 . S
C828 C823 1.501 . S
C828 H829 0.961 . S
C828 H830 0.961 . S
C828 H831 0.960 . S
H829 C828 0.961 . S
H830 C828 0.961 . S
H831 C828 0.960 . S
C832 N833 1.342 . S
C832 C836 1.401 . S
C832 C837 1.499 . S
N833 Co816 1.989 . S
N833 C832 1.342 . S
N833 N834 1.388 . S
N834 Co817 1.993 . S
N834 N833 1.388 . S
N834 C835 1.346 . S
C835 N834 1.346 . S
C835 C836 1.396 . S
C835 C845 1.510 . S
C836 C832 1.401 . S
C836 C835 1.396 . S
C837 C832 1.499 . S
C837 H838 0.959 . S
C837 H839 0.960 . S
C837 H840 0.961 . S
H838 C837 0.959 . S
H839 C837 0.960 . S
H840 C837 0.961 . S
O841 Co816 1.967 . S
O841 C849 1.258 . S
O842 Co817 1.941 . S
O842 C849 1.266 . S
H843 C845 0.959 . S
H844 C845 0.961 . S
C845 C835 1.510 . S
C845 H843 0.959 . S
C845 H844 0.961 . S
C845 H846 0.960 . S
H846 C845 0.960 . S
H847 N827 0.862 . S
O848 Co816 1.920 . S
O848 C821 1.289 . S
C849 O841 1.258 . S
C849 O842 1.266 . S
Co850 O853 1.970 . S
Co850 N867 1.989 . S
Co850 O875 1.967 . S
Co850 O882 1.920 . S
Co851 O854 1.966 . S
Co851 N860 2.022 . S
Co851 N868 1.993 . S
Co851 O876 1.941 . S
C852 O853 1.258 . S
C852 O854 1.263 . S
O853 Co850 1.970 . S
O853 C852 1.258 . S
O854 Co851 1.966 . S
O854 C852 1.263 . S
C855 O856 1.235 . S
C855 O882 1.289 . S
O856 C855 1.235 . S
C857 C859 1.400 . S
C857 N860 1.351 . S
C857 C862 1.501 . S
C858 C859 1.387 . S
C858 N861 1.341 . S
C859 C857 1.400 . S
C859 C858 1.387 . S
N860 Co851 2.022 . S
N860 C857 1.351 . S
N860 N861 1.365 . S
N861 C858 1.341 . S
N861 N860 1.365 . S
N861 H881 0.862 . S
C862 C857 1.501 . S
C862 H863 0.961 . S
C862 H864 0.961 . S
C862 H865 0.960 . S
H863 C862 0.961 . S
H864 C862 0.961 . S
H865 C862 0.960 . S
C866 N867 1.342 . S
C866 C870 1.401 . S
C866 C871 1.499 . S
N867 Co850 1.989 . S
N867 C866 1.342 . S
N867 N868 1.388 . S
N868 Co851 1.993 . S
N868 N867 1.388 . S
N868 C869 1.346 . S
C869 N868 1.346 . S
C869 C870 1.396 . S
C869 C879 1.510 . S
C870 C866 1.401 . S
C870 C869 1.396 . S
C871 C866 1.499 . S
C871 H872 0.959 . S
C871 H873 0.960 . S
C871 H874 0.961 . S
H872 C871 0.959 . S
H873 C871 0.960 . S
H874 C871 0.961 . S
O875 Co850 1.967 . S
O875 C883 1.258 . S
O876 Co851 1.941 . S
O876 C883 1.266 . S
H877 C879 0.959 . S
H878 C879 0.961 . S
C879 C869 1.510 . S
C879 H877 0.959 . S
C879 H878 0.961 . S
C879 H880 0.960 . S
H880 C879 0.960 . S
H881 N861 0.862 . S
O882 Co850 1.920 . S
O882 C855 1.289 . S
C883 O875 1.258 . S
C883 O876 1.266 . S
Co884 O887 1.970 . S
Co884 N901 1.989 . S
Co884 O909 1.967 . S
Co884 O916 1.920 . S
Co885 O888 1.966 . S
Co885 N894 2.022 . S
Co885 N902 1.993 . S
Co885 O910 1.941 . S
C886 O887 1.258 . S
C886 O888 1.263 . S
O887 Co884 1.970 . S
O887 C886 1.258 . S
O888 Co885 1.966 . S
O888 C886 1.263 . S
C889 O890 1.235 . S
C889 O916 1.289 . S
O890 C889 1.235 . S
C891 C893 1.400 . S
C891 N894 1.351 . S
C891 C896 1.501 . S
C892 C893 1.387 . S
C892 N895 1.341 . S
C893 C891 1.400 . S
C893 C892 1.387 . S
N894 Co885 2.022 . S
N894 C891 1.351 . S
N894 N895 1.365 . S
N895 C892 1.341 . S
N895 N894 1.365 . S
N895 H915 0.862 . S
C896 C891 1.501 . S
C896 H897 0.961 . S
C896 H898 0.961 . S
C896 H899 0.960 . S
H897 C896 0.961 . S
H898 C896 0.961 . S
H899 C896 0.960 . S
C900 N901 1.342 . S
C900 C904 1.401 . S
C900 C905 1.499 . S
N901 Co884 1.989 . S
N901 C900 1.342 . S
N901 N902 1.388 . S
N902 Co885 1.993 . S
N902 N901 1.388 . S
N902 C903 1.346 . S
C903 N902 1.346 . S
C903 C904 1.396 . S
C903 C913 1.510 . S
C904 C900 1.401 . S
C904 C903 1.396 . S
C905 C900 1.499 . S
C905 H906 0.959 . S
C905 H907 0.960 . S
C905 H908 0.961 . S
H906 C905 0.959 . S
H907 C905 0.960 . S
H908 C905 0.961 . S
O909 Co884 1.967 . S
O909 C917 1.258 . S
O910 Co885 1.941 . S
O910 C917 1.266 . S
H911 C913 0.959 . S
H912 C913 0.961 . S
C913 C903 1.510 . S
C913 H911 0.959 . S
C913 H912 0.961 . S
C913 H914 0.960 . S
H914 C913 0.960 . S
H915 N895 0.862 . S
O916 Co884 1.920 . S
O916 C889 1.289 . S
C917 O909 1.258 . S
C917 O910 1.266 . S
Co918 O921 1.970 . S
Co918 N935 1.989 . S
Co918 O943 1.967 1_455 S
Co918 O950 1.920 . S
Co919 O922 1.966 . S
Co919 N928 2.022 . S
Co919 N936 1.993 . S
Co919 O944 1.941 . S
C920 O921 1.258 1_655 S
C920 O922 1.263 . S
O921 Co918 1.970 . S
O921 C920 1.258 1_455 S
O922 Co919 1.966 . S
O922 C920 1.263 . S
C923 O924 1.235 . S
C923 O950 1.289 . S
O924 C923 1.235 . S
C925 C927 1.400 . S
C925 N928 1.351 . S
C925 C930 1.501 . S
C926 C927 1.387 . S
C926 N929 1.341 . S
C927 C925 1.400 . S
C927 C926 1.387 . S
N928 Co919 2.022 . S
N928 C925 1.351 . S
N928 N929 1.365 . S
N929 C926 1.341 . S
N929 N928 1.365 . S
N929 H949 0.862 . S
C930 C925 1.501 . S
C930 H931 0.961 . S
C930 H932 0.961 . S
C930 H933 0.960 . S
H931 C930 0.961 . S
H932 C930 0.961 . S
H933 C930 0.960 . S
C934 N935 1.342 . S
C934 C938 1.401 . S
C934 C939 1.499 . S
N935 Co918 1.989 . S
N935 C934 1.342 . S
N935 N936 1.388 1_455 S
N936 Co919 1.993 . S
N936 N935 1.388 1_655 S
N936 C937 1.346 . S
C937 N936 1.346 . S
C937 C938 1.396 1_655 S
C937 C947 1.510 . S
C938 C934 1.401 . S
C938 C937 1.396 1_455 S
C939 C934 1.499 . S
C939 H940 0.959 . S
C939 H941 0.960 . S
C939 H942 0.961 . S
H940 C939 0.959 . S
H941 C939 0.960 . S
H942 C939 0.961 . S
O943 Co918 1.967 1_655 S
O943 C951 1.258 . S
O944 Co919 1.941 . S
O944 C951 1.266 . S
H945 C947 0.959 . S
H946 C947 0.961 . S
C947 C937 1.510 . S
C947 H945 0.959 . S
C947 H946 0.961 . S
C947 H948 0.960 . S
H948 C947 0.960 . S
H949 N929 0.862 . S
O950 Co918 1.920 . S
O950 C923 1.289 . S
C951 O943 1.258 . S
C951 O944 1.266 . S
Co952 O955 1.970 . S
Co952 N969 1.989 . S
Co952 O977 1.967 . S
Co952 O984 1.920 . S
Co953 O956 1.966 . S
Co953 N962 2.022 . S
Co953 N970 1.993 . S
Co953 O978 1.941 . S
C954 O955 1.258 . S
C954 O956 1.263 . S
O955 Co952 1.970 . S
O955 C954 1.258 . S
O956 Co953 1.966 . S
O956 C954 1.263 . S
C957 O958 1.235 . S
C957 O984 1.289 . S
O958 C957 1.235 . S
C959 C961 1.400 . S
C959 N962 1.351 . S
C959 C964 1.501 . S
C960 C961 1.387 . S
C960 N963 1.341 . S
C961 C959 1.400 . S
C961 C960 1.387 . S
N962 Co953 2.022 . S
N962 C959 1.351 . S
N962 N963 1.365 . S
N963 C960 1.341 . S
N963 N962 1.365 . S
N963 H983 0.862 . S
C964 C959 1.501 . S
C964 H965 0.961 . S
C964 H966 0.961 . S
C964 H967 0.960 . S
H965 C964 0.961 . S
H966 C964 0.961 . S
H967 C964 0.960 . S
C968 N969 1.342 . S
C968 C972 1.401 . S
C968 C973 1.499 . S
N969 Co952 1.989 . S
N969 C968 1.342 . S
N969 N970 1.388 . S
N970 Co953 1.993 . S
N970 N969 1.388 . S
N970 C971 1.346 . S
C971 N970 1.346 . S
C971 C972 1.396 . S
C971 C981 1.510 . S
C972 C968 1.401 . S
C972 C971 1.396 . S
C973 C968 1.499 . S
C973 H974 0.959 . S
C973 H975 0.960 . S
C973 H976 0.961 . S
H974 C973 0.959 . S
H975 C973 0.960 . S
H976 C973 0.961 . S
O977 Co952 1.967 . S
O977 C985 1.258 . S
O978 Co953 1.941 . S
O978 C985 1.266 . S
H979 C981 0.959 . S
H980 C981 0.961 . S
C981 C971 1.510 . S
C981 H979 0.959 . S
C981 H980 0.961 . S
C981 H982 0.960 . S
H982 C981 0.960 . S
H983 N963 0.862 . S
O984 Co952 1.920 . S
O984 C957 1.289 . S
C985 O977 1.258 . S
C985 O978 1.266 . S
Co986 O989 1.970 . S
Co986 N1003 1.989 . S
Co986 O1011 1.967 1_455 S
Co986 O1018 1.920 . S
Co987 O990 1.966 . S
Co987 N996 2.022 . S
Co987 N1004 1.993 . S
Co987 O1012 1.941 . S
C988 O989 1.258 1_655 S
C988 O990 1.263 . S
O989 Co986 1.970 . S
O989 C988 1.258 1_455 S
O990 Co987 1.966 . S
O990 C988 1.263 . S
C991 O992 1.235 . S
C991 O1018 1.289 . S
O992 C991 1.235 . S
C993 C995 1.400 . S
C993 N996 1.351 . S
C993 C998 1.501 . S
C994 C995 1.387 . S
C994 N997 1.341 . S
C995 C993 1.400 . S
C995 C994 1.387 . S
N996 Co987 2.022 . S
N996 C993 1.351 . S
N996 N997 1.365 . S
N997 C994 1.341 . S
N997 N996 1.365 . S
N997 H1017 0.862 . S
C998 C993 1.501 . S
C998 H999 0.961 . S
C998 H1000 0.961 . S
C998 H1001 0.960 . S
H999 C998 0.961 . S
H1000 C998 0.961 . S
H1001 C998 0.960 . S
C1002 N1003 1.342 . S
C1002 C1006 1.401 . S
C1002 C1007 1.499 . S
N1003 Co986 1.989 . S
N1003 C1002 1.342 . S
N1003 N1004 1.388 1_455 S
N1004 Co987 1.993 . S
N1004 N1003 1.388 1_655 S
N1004 C1005 1.346 . S
C1005 N1004 1.346 . S
C1005 C1006 1.396 1_655 S
C1005 C1015 1.510 . S
C1006 C1002 1.401 . S
C1006 C1005 1.396 1_455 S
C1007 C1002 1.499 . S
C1007 H1008 0.959 . S
C1007 H1009 0.960 . S
C1007 H1010 0.961 . S
H1008 C1007 0.959 . S
H1009 C1007 0.960 . S
H1010 C1007 0.961 . S
O1011 Co986 1.967 1_655 S
O1011 C1019 1.258 . S
O1012 Co987 1.941 . S
O1012 C1019 1.266 . S
H1013 C1015 0.959 . S
H1014 C1015 0.961 . S
C1015 C1005 1.510 . S
C1015 H1013 0.959 . S
C1015 H1014 0.961 . S
C1015 H1016 0.960 . S
H1016 C1015 0.960 . S
H1017 N997 0.862 . S
O1018 Co986 1.920 . S
O1018 C991 1.289 . S
C1019 O1011 1.258 . S
C1019 O1012 1.266 . S
Co1020 O1023 1.970 . S
Co1020 N1037 1.989 . S
Co1020 O1045 1.967 . S
Co1020 O1052 1.920 . S
Co1021 O1024 1.966 . S
Co1021 N1030 2.022 . S
Co1021 N1038 1.993 . S
Co1021 O1046 1.941 . S
C1022 O1023 1.258 . S
C1022 O1024 1.263 . S
O1023 Co1020 1.970 . S
O1023 C1022 1.258 . S
O1024 Co1021 1.966 . S
O1024 C1022 1.263 . S
C1025 O1026 1.235 . S
C1025 O1052 1.289 . S
O1026 C1025 1.235 . S
C1027 C1029 1.400 . S
C1027 N1030 1.351 . S
C1027 C1032 1.501 . S
C1028 C1029 1.387 . S
C1028 N1031 1.341 . S
C1029 C1027 1.400 . S
C1029 C1028 1.387 . S
N1030 Co1021 2.022 . S
N1030 C1027 1.351 . S
N1030 N1031 1.365 . S
N1031 C1028 1.341 . S
N1031 N1030 1.365 . S
N1031 H1051 0.862 . S
C1032 C1027 1.501 . S
C1032 H1033 0.961 . S
C1032 H1034 0.961 . S
C1032 H1035 0.960 . S
H1033 C1032 0.961 . S
H1034 C1032 0.961 . S
H1035 C1032 0.960 . S
C1036 N1037 1.342 . S
C1036 C1040 1.401 . S
C1036 C1041 1.499 . S
N1037 Co1020 1.989 . S
N1037 C1036 1.342 . S
N1037 N1038 1.388 . S
N1038 Co1021 1.993 . S
N1038 N1037 1.388 . S
N1038 C1039 1.346 . S
C1039 N1038 1.346 . S
C1039 C1040 1.396 . S
C1039 C1049 1.510 . S
C1040 C1036 1.401 . S
C1040 C1039 1.396 . S
C1041 C1036 1.499 . S
C1041 H1042 0.959 . S
C1041 H1043 0.960 . S
C1041 H1044 0.961 . S
H1042 C1041 0.959 . S
H1043 C1041 0.960 . S
H1044 C1041 0.961 . S
O1045 Co1020 1.967 . S
O1045 C1053 1.258 . S
O1046 Co1021 1.941 . S
O1046 C1053 1.266 . S
H1047 C1049 0.959 . S
H1048 C1049 0.961 . S
C1049 C1039 1.510 . S
C1049 H1047 0.959 . S
C1049 H1048 0.961 . S
C1049 H1050 0.960 . S
H1050 C1049 0.960 . S
H1051 N1031 0.862 . S
O1052 Co1020 1.920 . S
O1052 C1025 1.289 . S
C1053 O1045 1.258 . S
C1053 O1046 1.266 . S
Co1054 O1057 1.970 . S
Co1054 N1071 1.989 . S
Co1054 O1079 1.967 . S
Co1054 O1086 1.920 . S
Co1055 O1058 1.966 . S
Co1055 N1064 2.022 . S
Co1055 N1072 1.993 . S
Co1055 O1080 1.941 . S
C1056 O1057 1.258 . S
C1056 O1058 1.263 . S
O1057 Co1054 1.970 . S
O1057 C1056 1.258 . S
O1058 Co1055 1.966 . S
O1058 C1056 1.263 . S
C1059 O1060 1.235 . S
C1059 O1086 1.289 . S
O1060 C1059 1.235 . S
C1061 C1063 1.400 . S
C1061 N1064 1.351 . S
C1061 C1066 1.501 . S
C1062 C1063 1.387 . S
C1062 N1065 1.341 . S
C1063 C1061 1.400 . S
C1063 C1062 1.387 . S
N1064 Co1055 2.022 . S
N1064 C1061 1.351 . S
N1064 N1065 1.365 . S
N1065 C1062 1.341 . S
N1065 N1064 1.365 . S
N1065 H1085 0.862 . S
C1066 C1061 1.501 . S
C1066 H1067 0.961 . S
C1066 H1068 0.961 . S
C1066 H1069 0.960 . S
H1067 C1066 0.961 . S
H1068 C1066 0.961 . S
H1069 C1066 0.960 . S
C1070 N1071 1.342 . S
C1070 C1074 1.401 . S
C1070 C1075 1.499 . S
N1071 Co1054 1.989 . S
N1071 C1070 1.342 . S
N1071 N1072 1.388 . S
N1072 Co1055 1.993 . S
N1072 N1071 1.388 . S
N1072 C1073 1.346 . S
C1073 N1072 1.346 . S
C1073 C1074 1.396 . S
C1073 C1083 1.510 . S
C1074 C1070 1.401 . S
C1074 C1073 1.396 . S
C1075 C1070 1.499 . S
C1075 H1076 0.959 . S
C1075 H1077 0.960 . S
C1075 H1078 0.961 . S
H1076 C1075 0.959 . S
H1077 C1075 0.960 . S
H1078 C1075 0.961 . S
O1079 Co1054 1.967 . S
O1079 C1087 1.258 . S
O1080 Co1055 1.941 . S
O1080 C1087 1.266 . S
H1081 C1083 0.959 . S
H1082 C1083 0.961 . S
C1083 C1073 1.510 . S
C1083 H1081 0.959 . S
C1083 H1082 0.961 . S
C1083 H1084 0.960 . S
H1084 C1083 0.960 . S
H1085 N1065 0.862 . S
O1086 Co1054 1.920 . S
O1086 C1059 1.289 . S
C1087 O1079 1.258 . S
C1087 O1080 1.266 . S
C20 C836 1.328 . S
C326 C54 1.328 1_665 S
C904 C88 1.328 . S
C394 C122 1.327 1_544 S
C972 C156 1.328 . S
C462 C190 1.327 1_565 S
C1040 C224 1.328 . S
C530 C258 1.328 1_646 S
C292 C564 1.328 . S
C360 C632 1.328 . S
C428 C700 1.328 . S
C768 C496 1.328 . S
C598 C870 1.327 1_556 S
C938 C666 1.328 1_455 S
C734 C1006 1.328 1_654 S
C1074 C802 1.327 . S
C5 C407 2.277 . S
C39 C849 2.277 . S
C339 C73 2.277 . S
C107 C917 2.277 . S
C475 C141 2.277 . S
C1053 C175 2.277 . S
C209 C543 2.277 . S
C985 C243 2.277 . S
C277 C135 2.277 . S
C311 C577 2.277 . S
C67 C345 2.277 . S
C379 C645 2.277 . S
C413 C203 2.277 . S
C781 C447 2.277 . S
C271 C481 2.277 . S
C515 C713 2.277 . S
C951 C549 2.277 . S
C305 C583 2.277 . S
C883 C617 2.277 . S
C651 C373 2.277 . S
C1019 C685 2.277 . S
C509 C719 2.277 . S
C753 C1087 2.277 . S
C441 C787 2.277 . S
C679 C821 2.277 . S
C855 C33 2.277 . S
C889 C611 2.277 . S
C101 C923 2.277 . S
C747 C957 2.277 . S
C991 C237 2.277 . S
C815 C1025 2.277 . S
C169 C1059 2.277 . S
C2 C206 2.750 1_554 S
C240 C36 2.750 1_565 S
C70 C138 2.750 . S
C104 C172 2.750 1_565 S
C478 C274 2.750 1_554 S
C512 C308 2.750 1_545 S
C410 C342 2.750 . S
C444 C376 2.750 1_565 S
C546 C750 2.750 . S
C580 C784 2.750 . S
C614 C682 2.750 1_554 S
C648 C716 2.750 . S
C1022 C818 2.750 . S
C1056 C852 2.750 . S
C886 C954 2.750 1_556 S
C920 C988 2.750 . S
C9 C723 0.809 . S
C43 C757 0.809 . S
C77 C791 0.809 . S
C111 C689 0.809 . S
C655 C145 0.809 . S
C179 C553 0.809 . S
C587 C213 0.809 . S
C247 C621 0.809 . S
C995 C281 0.809 . S
C315 C1029 0.809 . S
C1063 C349 0.809 . S
C383 C961 0.809 . S
C417 C927 0.809 . S
C825 C451 0.809 . S
C485 C859 0.809 . S
C519 C893 0.809 . S
