# Generated by pormake.
# Topology umv, (4)-cn, num edge types: 1
# Building blocks:
#     Node 0, Type 0, BuildingBlock: KUFVIS_clean_sbu_0, # of connection points: 4
#     Node 1, Type 0, BuildingBlock: KUFVIS_clean_sbu_0, # of connection points: 4
#     Node 2, Type 0, BuildingBlock: KUFVIS_clean_sbu_0, # of connection points: 4
#     Node 3, Type 0, BuildingBlock: KUFVIS_clean_sbu_0, # of connection points: 4
#     Node 4, Type 0, BuildingBlock: KUFVIS_clean_sbu_0, # of connection points: 4
#     Node 5, Type 0, BuildingBlock: KUFVIS_clean_sbu_0, # of connection points: 4
#     Node 6, Type 0, BuildingBlock: KUFVIS_clean_sbu_0, # of connection points: 4
#     Node 7, Type 0, BuildingBlock: KUFVIS_clean_sbu_0, # of connection points: 4
#     Node 8, Type 0, BuildingBlock: KUFVIS_clean_sbu_0, # of connection points: 4
#     Node 9, Type 0, BuildingBlock: KUFVIS_clean_sbu_0, # of connection points: 4
#     Node 10, Type 0, BuildingBlock: KUFVIS_clean_sbu_0, # of connection points: 4
#     Node 11, Type 0, BuildingBlock: KUFVIS_clean_sbu_0, # of connection points: 4
#     Node 12, Type 0, BuildingBlock: KUFVIS_clean_sbu_0, # of connection points: 4
#     Node 13, Type 0, BuildingBlock: KUFVIS_clean_sbu_0, # of connection points: 4
#     Node 14, Type 0, BuildingBlock: KUFVIS_clean_sbu_0, # of connection points: 4
#     Node 15, Type 0, BuildingBlock: KUFVIS_clean_sbu_0, # of connection points: 4
#     Node 16, Type 0, BuildingBlock: KUFVIS_clean_sbu_0, # of connection points: 4
#     Node 17, Type 0, BuildingBlock: KUFVIS_clean_sbu_0, # of connection points: 4
#     Node 18, Type 0, BuildingBlock: KUFVIS_clean_sbu_0, # of connection points: 4
#     Node 19, Type 0, BuildingBlock: KUFVIS_clean_sbu_0, # of connection points: 4
#     Node 20, Type 0, BuildingBlock: KUFVIS_clean_sbu_0, # of connection points: 4
#     Node 21, Type 0, BuildingBlock: KUFVIS_clean_sbu_0, # of connection points: 4
#     Node 22, Type 0, BuildingBlock: KUFVIS_clean_sbu_0, # of connection points: 4
#     Node 23, Type 0, BuildingBlock: KUFVIS_clean_sbu_0, # of connection points: 4
#     Node 24, Type 0, BuildingBlock: KUFVIS_clean_sbu_0, # of connection points: 4
#     Node 25, Type 0, BuildingBlock: KUFVIS_clean_sbu_0, # of connection points: 4
#     Node 26, Type 0, BuildingBlock: KUFVIS_clean_sbu_0, # of connection points: 4
#     Node 27, Type 0, BuildingBlock: KUFVIS_clean_sbu_0, # of connection points: 4
#     Node 28, Type 0, BuildingBlock: KUFVIS_clean_sbu_0, # of connection points: 4
#     Node 29, Type 0, BuildingBlock: KUFVIS_clean_sbu_0, # of connection points: 4
#     Node 30, Type 0, BuildingBlock: KUFVIS_clean_sbu_0, # of connection points: 4
#     Node 31, Type 0, BuildingBlock: KUFVIS_clean_sbu_0, # of connection points: 4
#     Edge 32, Type (0, 0), None
#     Edge 33, Type (0, 0), None
#     Edge 34, Type (0, 0), None
#     Edge 35, Type (0, 0), None
#     Edge 36, Type (0, 0), None
#     Edge 37, Type (0, 0), None
#     Edge 38, Type (0, 0), None
#     Edge 39, Type (0, 0), None
#     Edge 40, Type (0, 0), None
#     Edge 41, Type (0, 0), None
#     Edge 42, Type (0, 0), None
#     Edge 43, Type (0, 0), None
#     Edge 44, Type (0, 0), None
#     Edge 45, Type (0, 0), None
#     Edge 46, Type (0, 0), None
#     Edge 47, Type (0, 0), None
#     Edge 48, Type (0, 0), None
#     Edge 49, Type (0, 0), None
#     Edge 50, Type (0, 0), None
#     Edge 51, Type (0, 0), None
#     Edge 52, Type (0, 0), None
#     Edge 53, Type (0, 0), None
#     Edge 54, Type (0, 0), None
#     Edge 55, Type (0, 0), None
#     Edge 56, Type (0, 0), None
#     Edge 57, Type (0, 0), None
#     Edge 58, Type (0, 0), None
#     Edge 59, Type (0, 0), None
#     Edge 60, Type (0, 0), None
#     Edge 61, Type (0, 0), None
#     Edge 62, Type (0, 0), None
#     Edge 63, Type (0, 0), None
#     Edge 64, Type (0, 0), None
#     Edge 65, Type (0, 0), None
#     Edge 66, Type (0, 0), None
#     Edge 67, Type (0, 0), None
#     Edge 68, Type (0, 0), None
#     Edge 69, Type (0, 0), None
#     Edge 70, Type (0, 0), None
#     Edge 71, Type (0, 0), None
#     Edge 72, Type (0, 0), None
#     Edge 73, Type (0, 0), None
#     Edge 74, Type (0, 0), None
#     Edge 75, Type (0, 0), None
#     Edge 76, Type (0, 0), None
#     Edge 77, Type (0, 0), None
#     Edge 78, Type (0, 0), None
#     Edge 79, Type (0, 0), None
#     Edge 80, Type (0, 0), None
#     Edge 81, Type (0, 0), None
#     Edge 82, Type (0, 0), None
#     Edge 83, Type (0, 0), None
#     Edge 84, Type (0, 0), None
#     Edge 85, Type (0, 0), None
#     Edge 86, Type (0, 0), None
#     Edge 87, Type (0, 0), None
#     Edge 88, Type (0, 0), None
#     Edge 89, Type (0, 0), None
#     Edge 90, Type (0, 0), None
#     Edge 91, Type (0, 0), None
#     Edge 92, Type (0, 0), None
#     Edge 93, Type (0, 0), None
#     Edge 94, Type (0, 0), None
#     Edge 95, Type (0, 0), None
# Relax obj value: 0.115
# Max RMSD: 0.106
# Mean RMSD: 0.106
data_MOF--net-umv--node1-KUFVIS_clean_sbu_0--edge1-none
_symmetry_space_group_name_H-M    P1
_symmetry_Int_Tables_number       1
_symmetry_cell_setting            triclinic
loop_
_symmetry_equiv_pos_as_xyz
'x, y, z'
_cell_length_a     47.940347
_cell_length_b     11.676458
_cell_length_c     28.109505
_cell_angle_alpha  90.001492
_cell_angle_beta   90.00009
_cell_angle_gamma 89.994496
loop_
_atom_site_label
_atom_site_type_symbol
_atom_site_fract_x
_atom_site_fract_y
_atom_site_fract_z
_atom_type_partial_charge
Mn0 Mn 0.06234 0.13158 0.33151 0.0
Mn1 Mn 0.08712 0.10328 0.44593 0.0
C2 C 0.07058 0.28867 0.37696 0.0
C3 C 0.02425 0.18263 0.27991 0.0
C4 C 0.12325 0.09033 0.35575 0.0
O5 O 0.05672 0.95705 0.34767 0.0
O6 O 0.06847 0.95691 0.42616 0.0
C7 C 0.04433 0.05041 0.51737 0.0
N8 N 0.06216 0.12836 0.49833 0.0
C9 C 0.06004 0.24057 0.57061 0.0
C10 C 0.03847 0.17116 0.58688 0.0
C11 C 0.03175 0.07199 0.56158 0.0
C12 C 0.07187 0.21467 0.52626 0.0
H13 H 0.04195 -0.03209 0.50121 0.0
C14 C 0.05987 0.90567 0.38841 0.0
O15 O 0.04731 0.13919 0.26344 0.0
O16 O 0.02114 0.17234 0.3254 0.0
N17 N 0.10676 0.23516 0.46981 0.0
C18 C 0.13083 0.28303 0.45344 0.0
C19 C 0.14586 0.35897 0.48221 0.0
C20 C 0.13478 0.39459 0.52584 0.0
C21 C 0.10916 0.35014 0.54094 0.0
C22 C 0.09614 0.26737 0.51225 0.0
H23 H 0.13851 0.26464 0.41858 0.0
O24 O 0.06828 0.29404 0.33177 0.0
O25 O 0.06594 0.19011 0.39741 0.0
O26 O 0.10619 0.10886 0.32148 0.0
O27 O 0.11471 0.08282 0.39817 0.0
C28 C 0.09656 0.38192 0.58413 0.0
C29 C 0.07188 0.32745 0.59889 0.0
H30 H 0.02876 0.18781 0.62079 0.0
H31 H 0.01839 0.00911 0.57792 0.0
H32 H 0.16592 0.3903 0.4705 0.0
H33 H 0.1461 0.45581 0.54742 0.0
H34 H 0.10608 0.4459 0.60685 0.0
H35 H 0.06293 0.34905 0.63313 0.0
Mn36 Mn 0.21571 0.05073 0.33151 0.0
Mn37 Mn 0.19093 0.07906 0.44592 0.0
C38 C 0.20746 0.89364 0.37696 0.0
C39 C 0.25379 -0.00032 0.27991 0.0
C40 C 0.1548 0.09202 0.35575 0.0
O41 O 0.22133 0.22526 0.34767 0.0
O42 O 0.20959 0.22541 0.42617 0.0
C43 C 0.23373 0.13181 0.51736 0.0
N44 N 0.21588 0.05392 0.49832 0.0
C45 C 0.218 0.94167 0.57059 0.0
C46 C 0.23958 0.01101 0.58686 0.0
C47 C 0.24631 0.11018 0.56157 0.0
C48 C 0.20617 -0.03239 0.52625 0.0
H49 H 0.23611 0.21431 0.50121 0.0
C50 C 0.21818 0.27665 0.38841 0.0
O51 O 0.23073 0.0431 0.26344 0.0
O52 O 0.2569 0.00997 0.3254 0.0
N53 N 0.17127 0.9472 0.4698 0.0
C54 C 0.14721 0.89934 0.45341 0.0
C55 C 0.13217 0.82339 0.48217 0.0
C56 C 0.14325 0.78776 0.5258 0.0
C57 C 0.16887 0.83218 0.54091 0.0
C58 C 0.18189 0.91496 0.51223 0.0
H59 H 0.13953 0.91775 0.41856 0.0
O60 O 0.20976 0.88826 0.33177 0.0
O61 O 0.2121 -0.00779 0.39741 0.0
O62 O 0.17185 0.07343 0.32149 0.0
O63 O 0.16334 0.09959 0.39818 0.0
C64 C 0.18147 0.80037 0.5841 0.0
C65 C 0.20615 0.85479 0.59886 0.0
H66 H 0.2493 -0.00568 0.62076 0.0
H67 H 0.25968 0.17302 0.57791 0.0
H68 H 0.11212 0.79207 0.47045 0.0
H69 H 0.13192 0.72653 0.54737 0.0
H70 H 0.17195 0.73639 0.60681 0.0
H71 H 0.2151 0.83316 0.6331 0.0
Mn72 Mn 0.06234 0.05083 0.94789 0.0
Mn73 Mn 0.08713 0.07919 0.83348 0.0
C74 C 0.07059 0.89377 0.90242 0.0
C75 C 0.02425 -0.0003 0.99946 0.0
C76 C 0.12325 0.09205 0.92367 0.0
O77 O 0.05671 0.22538 0.93175 0.0
O78 O 0.06849 0.22557 0.85327 0.0
C79 C 0.04437 0.13229 0.76202 0.0
N80 N 0.06218 0.05424 0.78107 0.0
C81 C 0.06003 0.94202 0.70879 0.0
C82 C 0.03848 0.01154 0.69252 0.0
C83 C 0.03179 0.11077 0.71781 0.0
C84 C 0.07187 -0.03213 0.75314 0.0
H85 H 0.04202 0.21482 0.77817 0.0
C86 C 0.05987 0.27679 0.89102 0.0
O87 O 0.04731 0.04314 0.01595 0.0
O88 O 0.02114 0.01003 0.95398 0.0
N89 N 0.10677 0.9473 0.80957 0.0
C90 C 0.13084 0.8994 0.82593 0.0
C91 C 0.14585 0.82335 0.79716 0.0
C92 C 0.13474 0.78774 0.75355 0.0
C93 C 0.10913 0.83227 0.73846 0.0
C94 C 0.09613 0.91509 0.76714 0.0
H95 H 0.13854 0.91786 0.86076 0.0
O96 O 0.0683 0.88838 0.9476 0.0
O97 O 0.06594 -0.00766 0.88197 0.0
O98 O 0.10619 0.07355 0.95793 0.0
O99 O 0.11471 0.09954 0.88125 0.0
C100 C 0.09652 0.80052 0.69527 0.0
C101 C 0.07185 0.85508 0.68052 0.0
H102 H 0.02876 -0.00506 0.65861 0.0
H103 H 0.01845 0.17373 0.70147 0.0
H104 H 0.16589 0.79196 0.80887 0.0
H105 H 0.14605 0.72645 0.73197 0.0
H106 H 0.10602 0.7365 0.67255 0.0
H107 H 0.06289 0.83351 0.64628 0.0
Mn108 Mn 0.21571 0.13148 0.94789 0.0
Mn109 Mn 0.19092 0.10315 0.83347 0.0
C110 C 0.20746 0.28854 0.90242 0.0
C111 C 0.2538 0.18261 0.99947 0.0
C112 C 0.15479 0.09039 0.92366 0.0
O113 O 0.22135 0.95694 0.93175 0.0
O114 O 0.20953 0.95674 0.85328 0.0
C115 C 0.23366 0.0498 0.76202 0.0
N116 N 0.21588 0.12796 0.78106 0.0
C117 C 0.21805 0.24012 0.70877 0.0
C118 C 0.23959 0.17049 0.69251 0.0
C119 C 0.24624 0.07123 0.7178 0.0
C120 C 0.20621 0.21436 0.75313 0.0
H121 H 0.23598 -0.03275 0.77818 0.0
C122 C 0.21817 0.90553 0.89102 0.0
O123 O 0.23075 0.13918 0.01595 0.0
O124 O 0.25691 0.17228 0.95398 0.0
N125 N 0.1713 0.23507 0.80954 0.0
C126 C 0.14723 0.283 0.82586 0.0
C127 C 0.13223 0.35902 0.79707 0.0
C128 C 0.14335 0.39461 0.75347 0.0
C129 C 0.16897 0.35004 0.73841 0.0
C130 C 0.18195 0.26722 0.76711 0.0
H131 H 0.13951 0.26457 0.86069 0.0
O132 O 0.20975 0.29393 0.9476 0.0
O133 O 0.21211 0.18998 0.88197 0.0
O134 O 0.17186 0.10875 0.95794 0.0
O135 O 0.16333 0.08297 0.88124 0.0
C136 C 0.18159 0.38172 0.69522 0.0
C137 C 0.20625 0.32708 0.68049 0.0
H138 H 0.24931 0.18703 0.6586 0.0
H139 H 0.25956 0.00818 0.70148 0.0
H140 H 0.11218 0.39042 0.80874 0.0
H141 H 0.13205 0.45588 0.73187 0.0
H142 H 0.1721 0.44574 0.67249 0.0
H143 H 0.21522 0.34858 0.64625 0.0
Mn144 Mn 0.96571 0.80073 0.69786 0.0
Mn145 Mn 0.94093 0.82902 0.58344 0.0
C146 C 0.95747 0.64363 0.65241 0.0
C147 C 1.0038 0.74968 0.74946 0.0
C148 C 0.9048 0.84198 0.67362 0.0
O149 O 0.97133 -0.02474 0.6817 0.0
O150 O 0.95958 -0.0246 0.60321 0.0
C151 C 0.98373 0.88189 0.512 0.0
N152 N 0.96589 0.80395 0.53104 0.0
C153 C 0.968 0.69173 0.45875 0.0
C154 C 0.98958 0.76114 0.44249 0.0
C155 C 0.9963 0.86031 0.46779 0.0
C156 C 0.95618 0.71763 0.50311 0.0
H157 H 0.9861 0.96439 0.52816 0.0
C158 C 0.96818 0.02664 0.64096 0.0
O159 O 0.98074 0.79312 0.76593 0.0
O160 O 1.00691 0.75997 0.70397 0.0
N161 N 0.92128 0.69715 0.55955 0.0
C162 C 0.89722 0.64928 0.57593 0.0
C163 C 0.88219 0.57334 0.54716 0.0
C164 C 0.89327 0.53772 0.50353 0.0
C165 C 0.91889 0.58216 0.48843 0.0
C166 C 0.93191 0.66493 0.51712 0.0
H167 H 0.88954 0.66767 0.61079 0.0
O168 O 0.95977 0.63826 0.6976 0.0
O169 O 0.96211 0.74219 0.63196 0.0
O170 O 0.92186 0.82345 0.70788 0.0
O171 O 0.91334 0.84948 0.63119 0.0
C172 C 0.93149 0.55039 0.44524 0.0
C173 C 0.95616 0.60486 0.43048 0.0
H174 H 0.99929 0.74449 0.40858 0.0
H175 H 1.00966 0.92319 0.45145 0.0
H176 H 0.86213 0.54201 0.55887 0.0
H177 H 0.88194 0.47649 0.48195 0.0
H178 H 0.92197 0.48641 0.42252 0.0
H179 H 0.96512 0.58326 0.39624 0.0
Mn180 Mn 0.81234 0.88158 0.69786 0.0
Mn181 Mn 0.83712 0.85325 0.58344 0.0
C182 C 0.82059 0.03866 0.65241 0.0
C183 C 0.77426 0.93263 0.74945 0.0
C184 C 0.87325 0.84028 0.67361 0.0
O185 O 0.80672 0.70704 0.6817 0.0
O186 O 0.81846 0.70689 0.6032 0.0
C187 C 0.79432 0.80049 0.51201 0.0
N188 N 0.81217 0.87838 0.53105 0.0
C189 C 0.81005 -0.00937 0.45877 0.0
C190 C 0.78847 0.92128 0.44251 0.0
C191 C 0.78174 0.82212 0.4678 0.0
C192 C 0.82188 0.96469 0.50312 0.0
H193 H 0.79194 0.71799 0.52816 0.0
C194 C 0.80987 0.65565 0.64096 0.0
O195 O 0.79732 0.8892 0.76593 0.0
O196 O 0.77115 0.92233 0.70397 0.0
N197 N 0.85678 -0.01489 0.55957 0.0
C198 C 0.88084 0.03297 0.57595 0.0
C199 C 0.89588 0.10891 0.54719 0.0
C200 C 0.8848 0.14454 0.50357 0.0
C201 C 0.85918 0.10012 0.48846 0.0
C202 C 0.84616 0.01735 0.51713 0.0
H203 H 0.88852 0.01456 0.61081 0.0
O204 O 0.81829 0.04405 0.6976 0.0
O205 O 0.81595 0.9401 0.63196 0.0
O206 O 0.8562 0.85888 0.70788 0.0
O207 O 0.86471 0.83271 0.63119 0.0
C208 C 0.84658 0.13193 0.44527 0.0
C209 C 0.8219 0.07751 0.43051 0.0
H210 H 0.77875 0.93797 0.40861 0.0
H211 H 0.76837 0.75928 0.45146 0.0
H212 H 0.91593 0.14023 0.55892 0.0
H213 H 0.89613 0.20578 0.48199 0.0
H214 H 0.8561 0.19592 0.42255 0.0
H215 H 0.81295 0.09914 0.39627 0.0
Mn216 Mn 0.96571 0.88147 0.08148 0.0
Mn217 Mn 0.94092 0.85311 0.19589 0.0
C218 C 0.95746 0.03853 0.12695 0.0
C219 C 1.00379 0.93264 0.02991 0.0
C220 C 0.9048 0.84025 0.1057 0.0
O221 O 0.97134 0.70693 0.09762 0.0
O222 O 0.95956 0.70673 0.1761 0.0
C223 C 0.98368 0.80001 0.26735 0.0
N224 N 0.96588 0.87806 0.2483 0.0
C225 C 0.96802 -0.00972 0.32058 0.0
C226 C 0.98957 0.92076 0.33685 0.0
C227 C 0.99626 0.82153 0.31156 0.0
C228 C 0.95618 0.96443 0.27623 0.0
H229 H 0.98603 0.71748 0.25119 0.0
C230 C 0.96818 0.65552 0.13835 0.0
O231 O 0.98074 0.88918 1.01341 0.0
O232 O 1.00691 0.92228 0.07539 0.0
N233 N 0.92128 -0.015 0.2198 0.0
C234 C 0.89721 0.03291 0.20344 0.0
C235 C 0.8822 0.10895 0.2322 0.0
C236 C 0.89331 0.14457 0.27582 0.0
C237 C 0.91892 0.10004 0.29091 0.0
C238 C 0.93192 0.01721 0.26222 0.0
H239 H 0.88951 0.01445 0.16861 0.0
O240 O 0.95975 0.04393 0.08176 0.0
O241 O 0.96211 0.93997 0.14739 0.0
O242 O 0.92186 0.85875 0.07143 0.0
O243 O 0.91334 0.83277 0.14812 0.0
C244 C 0.93153 0.13178 0.3341 0.0
C245 C 0.9562 0.07722 0.34885 0.0
H246 H 0.99929 0.93736 0.37076 0.0
H247 H 1.0096 0.75856 0.32789 0.0
H248 H 0.86216 0.14035 0.2205 0.0
H249 H 0.882 0.20586 0.2974 0.0
H250 H 0.92203 0.19581 0.35682 0.0
H251 H 0.96516 0.09879 0.38309 0.0
Mn252 Mn 0.81234 0.80083 0.08148 0.0
Mn253 Mn 0.83713 0.82916 0.1959 0.0
C254 C 0.82059 0.64376 0.12695 0.0
C255 C 0.77425 0.74969 0.0299 0.0
C256 C 0.87326 0.84192 0.1057 0.0
O257 O 0.8067 -0.02464 0.09762 0.0
O258 O 0.81852 -0.02443 0.17609 0.0
C259 C 0.79439 0.8825 0.26735 0.0
N260 N 0.81217 0.80434 0.2483 0.0
C261 C 0.81 0.69218 0.32059 0.0
C262 C 0.78846 0.76181 0.33686 0.0
C263 C 0.78181 0.86107 0.31156 0.0
C264 C 0.82184 0.71795 0.27624 0.0
H265 H 0.79207 0.96505 0.25119 0.0
C266 C 0.80988 0.02678 0.13835 0.0
O267 O 0.7973 0.79313 1.01342 0.0
O268 O 0.77114 0.76003 0.07539 0.0
N269 N 0.85675 0.69724 0.21983 0.0
C270 C 0.88082 0.64931 0.20351 0.0
C271 C 0.89582 0.57329 0.2323 0.0
C272 C 0.8847 0.5377 0.2759 0.0
C273 C 0.85908 0.58227 0.29096 0.0
C274 C 0.8461 0.66508 0.26225 0.0
H275 H 0.88854 0.66774 0.16868 0.0
O276 O 0.8183 0.63837 0.08176 0.0
O277 O 0.81594 0.74233 0.1474 0.0
O278 O 0.85619 0.82355 0.07143 0.0
O279 O 0.86472 0.84934 0.14813 0.0
C280 C 0.84646 0.55058 0.33414 0.0
C281 C 0.8218 0.60522 0.34888 0.0
H282 H 0.77874 0.74527 0.37076 0.0
H283 H 0.76848 0.92412 0.32789 0.0
H284 H 0.91588 0.54189 0.22062 0.0
H285 H 0.896 0.47643 0.2975 0.0
H286 H 0.85595 0.48657 0.35688 0.0
H287 H 0.81283 0.58372 0.38312 0.0
Mn288 Mn 0.06234 0.63162 0.83152 0.0
Mn289 Mn 0.08711 0.60333 0.94594 0.0
C290 C 0.07058 0.78871 0.87695 0.0
C291 C 0.02426 0.68267 0.77992 0.0
C292 C 0.12325 0.59024 0.85577 0.0
O293 O 0.05672 0.45709 0.84769 0.0
O294 O 0.06844 0.45698 0.92621 0.0
C295 C 0.04428 0.55081 0.01738 0.0
N296 N 0.06216 0.62859 0.99834 0.0
C297 C 0.06009 0.74086 0.07061 0.0
C298 C 0.03849 0.67161 0.08689 0.0
C299 C 0.03172 0.5725 0.06159 0.0
C300 C 0.07191 0.71486 0.02626 0.0
H301 H 0.04187 0.46833 1.00122 0.0
C302 C 0.05985 0.40574 0.88844 0.0
O303 O 0.04732 0.63921 0.76345 0.0
O304 O 0.02114 0.67237 0.82541 0.0
N305 N 0.10679 0.73517 0.96979 0.0
C306 C 0.13085 0.78299 0.95338 0.0
C307 C 0.14591 0.85891 0.98213 0.0
C308 C 0.13484 0.89457 0.02576 0.0
C309 C 0.10923 0.85021 0.0409 0.0
C310 C 0.09618 0.76745 1.01223 0.0
H311 H 0.13851 0.76457 0.91851 0.0
O312 O 0.06829 0.7941 0.83177 0.0
O313 O 0.06594 0.69016 0.89741 0.0
O314 O 0.1062 0.60891 0.82151 0.0
O315 O 0.11471 0.58266 0.8982 0.0
C316 C 0.09664 0.88206 0.08409 0.0
C317 C 0.07196 0.82771 0.09887 0.0
H318 H 0.02878 0.68832 0.1208 0.0
H319 H 0.01833 0.50974 0.07793 0.0
H320 H 0.16596 0.89019 0.97038 0.0
H321 H 0.14619 0.95578 0.04732 0.0
H322 H 0.10618 0.94603 0.1068 0.0
H323 H 0.06301 0.84938 0.13311 0.0
Mn324 Mn 0.21571 0.55071 0.83152 0.0
Mn325 Mn 0.19093 0.57897 0.94595 0.0
C326 C 0.20747 0.39362 0.87696 0.0
C327 C 0.25379 0.49967 0.77992 0.0
C328 C 0.15479 0.59193 0.85578 0.0
O329 O 0.22133 0.72523 0.84769 0.0
O330 O 0.20957 0.72535 0.92619 0.0
C331 C 0.23373 0.63182 0.01738 0.0
N332 N 0.21589 0.55389 0.99835 0.0
C333 C 0.21801 0.44169 0.07063 0.0
C334 C 0.23958 0.51109 0.0869 0.0
C335 C 0.2463 0.61024 0.06159 0.0
C336 C 0.20618 0.46758 0.02628 0.0
H337 H 0.23611 0.71431 1.00122 0.0
C338 C 0.21819 0.77658 0.88844 0.0
O339 O 0.23073 0.54311 0.76345 0.0
O340 O 0.25691 0.50996 0.82541 0.0
N341 N 0.17129 0.44709 0.96983 0.0
C342 C 0.14721 0.39924 0.95346 0.0
C343 C 0.13218 0.32333 0.98224 0.0
C344 C 0.14327 0.28771 0.02586 0.0
C345 C 0.16889 0.33213 0.04096 0.0
C346 C 0.18191 0.41488 1.01227 0.0
H347 H 0.13954 0.41763 0.91861 0.0
O348 O 0.20977 0.38824 0.83177 0.0
O349 O 0.21211 0.49217 0.89742 0.0
O350 O 0.17185 0.57342 0.82151 0.0
O351 O 0.16334 0.59944 0.8982 0.0
C352 C 0.18149 0.30036 0.08415 0.0
C353 C 0.20616 0.35482 0.09891 0.0
H354 H 0.24929 0.49446 0.12081 0.0
H355 H 0.25967 0.67312 0.07793 0.0
H356 H 0.11212 0.29203 0.97053 0.0
H357 H 0.13194 0.2265 0.04745 0.0
H358 H 0.17197 0.23639 0.10688 0.0
H359 H 0.21512 0.33323 0.13315 0.0
Mn360 Mn 0.06234 0.55081 0.44787 0.0
Mn361 Mn 0.08712 0.57911 0.33345 0.0
C362 C 0.07058 0.39375 0.40242 0.0
C363 C 0.02425 0.4997 0.49946 0.0
C364 C 0.12325 0.59196 0.42364 0.0
O365 O 0.0567 0.72535 0.43172 0.0
O366 O 0.0685 0.72551 0.35325 0.0
C367 C 0.04437 0.6323 0.262 0.0
N368 N 0.06217 0.55421 0.28104 0.0
C369 C 0.06002 0.44204 0.20875 0.0
C370 C 0.03848 0.51162 0.19248 0.0
C371 C 0.0318 0.61083 0.21778 0.0
C372 C 0.07185 0.46784 0.25311 0.0
H373 H 0.04203 0.71483 0.27816 0.0
C374 C 0.05986 0.77672 0.39098 0.0
O375 O 0.04731 0.54314 0.51594 0.0
O376 O 0.02114 0.51002 0.45397 0.0
N377 N 0.10675 0.44719 0.30954 0.0
C378 C 0.13083 0.39929 0.32588 0.0
C379 C 0.14584 0.32329 0.2971 0.0
C380 C 0.13473 0.28769 0.25349 0.0
C381 C 0.10911 0.33221 0.23841 0.0
C382 C 0.09611 0.41502 0.26711 0.0
H383 H 0.13853 0.41774 0.36071 0.0
O384 O 0.0683 0.38835 0.4476 0.0
O385 O 0.06593 0.4923 0.38196 0.0
O386 O 0.10619 0.57355 0.45791 0.0
O387 O 0.11471 0.59938 0.38122 0.0
C388 C 0.0965 0.30051 0.19522 0.0
C389 C 0.07184 0.35511 0.18047 0.0
H390 H 0.02877 0.49507 0.15856 0.0
H391 H 0.01846 0.67384 0.20145 0.0
H392 H 0.16589 0.29192 0.30879 0.0
H393 H 0.14604 0.22643 0.2319 0.0
H394 H 0.106 0.2365 0.17249 0.0
H395 H 0.06288 0.33358 0.14622 0.0
Mn396 Mn 0.21571 0.63152 0.44787 0.0
Mn397 Mn 0.19093 0.60319 0.33346 0.0
C398 C 0.20746 0.78858 0.40242 0.0
C399 C 0.2538 0.68262 0.49946 0.0
C400 C 0.1548 0.5903 0.42364 0.0
O401 O 0.22134 0.45698 0.43172 0.0
O402 O 0.20957 0.45681 0.35323 0.0
C403 C 0.2337 0.55019 0.26201 0.0
N404 N 0.21588 0.6282 0.28105 0.0
C405 C 0.21801 0.74042 0.20877 0.0
C406 C 0.23957 0.67094 0.1925 0.0
C407 C 0.24627 0.57174 0.21779 0.0
C408 C 0.20618 0.71455 0.25313 0.0
H409 H 0.23606 0.46767 0.27816 0.0
C410 C 0.21819 0.4056 0.39098 0.0
O411 O 0.23074 0.63919 0.51594 0.0
O412 O 0.25691 0.67229 0.45397 0.0
N413 N 0.17128 0.73508 0.30956 0.0
C414 C 0.14721 0.78295 0.32592 0.0
C415 C 0.13219 0.85896 0.29715 0.0
C416 C 0.14329 0.89459 0.25354 0.0
C417 C 0.1689 0.8501 0.23845 0.0
C418 C 0.18191 0.7673 0.26713 0.0
H419 H 0.13951 0.76449 0.36076 0.0
O420 O 0.20975 0.79398 0.44761 0.0
O421 O 0.21211 0.69002 0.38196 0.0
O422 O 0.17185 0.60881 0.45791 0.0
O423 O 0.16334 0.5828 0.38122 0.0
C424 C 0.18151 0.88186 0.19526 0.0
C425 C 0.20618 0.82734 0.18051 0.0
H426 H 0.24929 0.68755 0.15859 0.0
H427 H 0.25963 0.50881 0.20146 0.0
H428 H 0.11213 0.89031 0.30886 0.0
H429 H 0.13197 0.95585 0.23196 0.0
H430 H 0.172 0.94587 0.17254 0.0
H431 H 0.21514 0.84892 0.14626 0.0
Mn432 Mn 0.96571 0.30069 0.19785 0.0
Mn433 Mn 0.94094 0.32898 0.08343 0.0
C434 C 0.95747 0.1436 0.15241 0.0
C435 C 1.00379 0.24964 0.24945 0.0
C436 C 0.9048 0.34206 0.17359 0.0
O437 O 0.97133 0.47522 0.18167 0.0
O438 O 0.95961 0.47532 0.10316 0.0
C439 C 0.98377 0.38149 1.01199 0.0
N440 N 0.96589 0.30372 0.03103 0.0
C441 C 0.96796 0.19144 0.95875 0.0
C442 C 0.98956 0.26069 0.94248 0.0
C443 C 0.99633 0.3598 0.96778 0.0
C444 C 0.95614 0.21744 1.00311 0.0
H445 H 0.98618 0.46397 0.02815 0.0
C446 C 0.9682 0.52657 0.14092 0.0
O447 O 0.98073 0.2931 0.26592 0.0
O448 O 1.00691 0.25994 0.20396 0.0
N449 N 0.92126 0.19713 0.05958 0.0
C450 C 0.8972 0.14932 0.07599 0.0
C451 C 0.88214 0.0734 0.04724 0.0
C452 C 0.89321 0.03774 1.00361 0.0
C453 C 0.91882 0.0821 0.98847 0.0
C454 C 0.93186 0.16485 0.01714 0.0
H455 H 0.88954 0.16774 0.11085 0.0
O456 O 0.95976 0.13821 0.1976 0.0
O457 O 0.96211 0.24215 0.13195 0.0
O458 O 0.92185 0.32339 0.20785 0.0
O459 O 0.91334 0.34965 0.13117 0.0
C460 C 0.9314 0.05025 0.94527 0.0
C461 C 0.95609 0.1046 0.9305 0.0
H462 H 0.99927 0.24398 0.90857 0.0
H463 H 1.00972 0.42255 0.95144 0.0
H464 H 0.86209 0.04212 0.05899 0.0
H465 H 0.88186 -0.02348 0.98205 0.0
H466 H 0.92187 -0.01372 0.92257 0.0
H467 H 0.96503 0.08292 0.89625 0.0
Mn468 Mn 0.81234 0.3816 0.19785 0.0
Mn469 Mn 0.83712 0.35333 0.08342 0.0
C470 C 0.82058 0.53869 0.15241 0.0
C471 C 0.77426 0.43263 0.24945 0.0
C472 C 0.87326 0.34038 0.17359 0.0
O473 O 0.80672 0.20707 0.18167 0.0
O474 O 0.81848 0.20695 0.10318 0.0
C475 C 0.79432 0.30048 1.01199 0.0
N476 N 0.81216 0.37841 0.03102 0.0
C477 C 0.81004 0.49061 0.95874 0.0
C478 C 0.78847 0.42121 0.94247 0.0
C479 C 0.78175 0.32205 0.96777 0.0
C480 C 0.82187 0.46472 1.00309 0.0
H481 H 0.79195 0.21799 0.02815 0.0
C482 C 0.80986 0.15572 0.14093 0.0
O483 O 0.79732 0.3892 0.26592 0.0
O484 O 0.77114 0.42235 0.20396 0.0
N485 N 0.85676 0.48521 0.05953 0.0
C486 C 0.88084 0.53307 0.0759 0.0
C487 C 0.89587 0.60898 0.04713 0.0
C488 C 0.88478 0.64459 1.0035 0.0
C489 C 0.85916 0.60017 0.98841 0.0
C490 C 0.84614 0.51742 0.0171 0.0
H491 H 0.88851 0.51468 0.11076 0.0
O492 O 0.81828 0.54407 0.19759 0.0
O493 O 0.81594 0.44014 0.13194 0.0
O494 O 0.8562 0.35888 0.20786 0.0
O495 O 0.86471 0.33287 0.13117 0.0
C496 C 0.84656 0.63194 0.94521 0.0
C497 C 0.82188 0.57748 0.93046 0.0
H498 H 0.77876 0.43784 0.90856 0.0
H499 H 0.76839 0.25918 0.95144 0.0
H500 H 0.91593 0.64027 0.05883 0.0
H501 H 0.89611 0.7058 0.98192 0.0
H502 H 0.85608 0.69591 0.92249 0.0
H503 H 0.81293 0.59907 0.89622 0.0
Mn504 Mn 0.96571 0.38149 0.58149 0.0
Mn505 Mn 0.94093 0.3532 0.69592 0.0
C506 C 0.95747 0.53856 0.62695 0.0
C507 C 1.00379 0.43264 0.52991 0.0
C508 C 0.9048 0.34034 0.60573 0.0
O509 O 0.97135 0.20696 0.59764 0.0
O510 O 0.95955 0.20679 0.67612 0.0
C511 C 0.98368 0.3 0.76737 0.0
N512 N 0.96588 0.37809 0.74832 0.0
C513 C 0.96803 0.49026 0.82062 0.0
C514 C 0.98957 0.42068 0.83689 0.0
C515 C 0.99625 0.32147 0.81159 0.0
C516 C 0.9562 0.46447 0.77626 0.0
H517 H 0.98602 0.21748 0.7512 0.0
C518 C 0.96819 0.15558 0.63838 0.0
O519 O 0.98074 0.38917 0.51343 0.0
O520 O 1.00691 0.4223 0.57539 0.0
N521 N 0.9213 0.48511 0.71983 0.0
C522 C 0.89722 0.53301 0.70349 0.0
C523 C 0.88221 0.60902 0.73227 0.0
C524 C 0.89333 0.64462 0.77588 0.0
C525 C 0.91894 0.60009 0.79096 0.0
C526 C 0.93194 0.51729 0.76226 0.0
H527 H 0.88952 0.51457 0.66866 0.0
O528 O 0.95975 0.54395 0.58177 0.0
O529 O 0.96212 0.44001 0.64741 0.0
O530 O 0.92186 0.35875 0.57145 0.0
O531 O 0.91334 0.33293 0.64815 0.0
C532 C 0.93155 0.6318 0.83415 0.0
C533 C 0.95622 0.57719 0.8489 0.0
H534 H 0.99928 0.43722 0.87081 0.0
H535 H 1.00959 0.25846 0.82791 0.0
H536 H 0.86216 0.64039 0.72058 0.0
H537 H 0.88201 0.70588 0.79747 0.0
H538 H 0.92205 0.6958 0.85688 0.0
H539 H 0.96517 0.59872 0.88314 0.0
Mn540 Mn 0.81234 0.30078 0.58149 0.0
Mn541 Mn 0.83712 0.32911 0.69591 0.0
C542 C 0.82059 0.14372 0.62695 0.0
C543 C 0.77425 0.24969 0.52991 0.0
C544 C 0.87325 0.342 0.60573 0.0
O545 O 0.80671 0.47532 0.59765 0.0
O546 O 0.81848 0.47549 0.67614 0.0
C547 C 0.79435 0.38211 0.76736 0.0
N548 N 0.81217 0.3041 0.74832 0.0
C549 C 0.81004 0.19188 0.82059 0.0
C550 C 0.78848 0.26136 0.83687 0.0
C551 C 0.78178 0.36056 0.81157 0.0
C552 C 0.82187 0.21775 0.77624 0.0
H553 H 0.79199 0.46463 0.75121 0.0
C554 C 0.80986 0.5267 0.63839 0.0
O555 O 0.79731 0.29312 0.51343 0.0
O556 O 0.77114 0.26001 0.5754 0.0
N557 N 0.85677 0.19722 0.71981 0.0
C558 C 0.88085 0.14935 0.70345 0.0
C559 C 0.89586 0.07335 0.73221 0.0
C560 C 0.88476 0.03772 0.77583 0.0
C561 C 0.85915 0.0822 0.79092 0.0
C562 C 0.84614 0.165 0.76223 0.0
H563 H 0.88854 0.16781 0.66861 0.0
O564 O 0.8183 0.13832 0.58176 0.0
O565 O 0.81594 0.24228 0.6474 0.0
O566 O 0.8562 0.3235 0.57146 0.0
O567 O 0.86471 0.34951 0.64815 0.0
C568 C 0.84654 0.05044 0.83411 0.0
C569 C 0.82187 0.10496 0.84886 0.0
H570 H 0.77876 0.24475 0.87078 0.0
H571 H 0.76842 0.42349 0.82791 0.0
H572 H 0.91592 0.042 0.72051 0.0
H573 H 0.89608 -0.02354 0.7974 0.0
H574 H 0.85605 -0.01357 0.85683 0.0
H575 H 0.81291 0.08338 0.8831 0.0
Mn576 Mn 0.56234 0.13153 0.8315 0.0
Mn577 Mn 0.58712 0.10323 0.94592 0.0
C578 C 0.57058 0.28862 0.87696 0.0
C579 C 0.52425 0.18262 0.77991 0.0
C580 C 0.62325 0.09034 0.85574 0.0
O581 O 0.55671 0.95701 0.84765 0.0
O582 O 0.56849 0.95684 0.92613 0.0
C583 C 0.54435 0.05018 0.01736 0.0
N584 N 0.56216 0.1282 0.99832 0.0
C585 C 0.56003 0.24039 0.07061 0.0
C586 C 0.53847 0.17089 0.08688 0.0
C587 C 0.53177 0.0717 0.06158 0.0
C588 C 0.57186 0.21454 0.02626 0.0
H589 H 0.542 -0.03233 1.0012 0.0
C590 C 0.55987 0.90561 0.88839 0.0
O591 O 0.54731 0.13918 0.76343 0.0
O592 O 0.52114 0.17232 0.82539 0.0
N593 N 0.60676 0.23511 0.96983 0.0
C594 C 0.63082 0.28302 0.95347 0.0
C595 C 0.64584 0.35898 0.98225 0.0
C596 C 0.63474 0.39458 0.02587 0.0
C597 C 0.60913 0.35009 0.04095 0.0
C598 C 0.59612 0.2673 1.01226 0.0
H599 H 0.63851 0.26462 0.91862 0.0
O600 O 0.56829 0.29399 0.83177 0.0
O601 O 0.56594 0.19006 0.89741 0.0
O602 O 0.6062 0.1088 0.82147 0.0
O603 O 0.61471 0.08287 0.89816 0.0
C604 C 0.59652 0.38182 0.08415 0.0
C605 C 0.57185 0.32729 0.09889 0.0
H606 H 0.52875 0.18749 0.12079 0.0
H607 H 0.51843 0.00875 0.07791 0.0
H608 H 0.66589 0.39034 0.97055 0.0
H609 H 0.64606 0.45582 0.04746 0.0
H610 H 0.60603 0.44581 0.10687 0.0
H611 H 0.56289 0.34885 0.13314 0.0
Mn612 Mn 0.71571 0.05072 0.8315 0.0
Mn613 Mn 0.69093 0.07906 0.94592 0.0
C614 C 0.70746 0.89364 0.87695 0.0
C615 C 0.75379 -0.00036 0.77991 0.0
C616 C 0.6548 0.09202 0.85574 0.0
O617 O 0.72133 0.22526 0.84766 0.0
O618 O 0.70959 0.22541 0.92616 0.0
C619 C 0.73373 0.1318 0.01736 0.0
N620 N 0.71588 0.05392 0.99832 0.0
C621 C 0.71799 0.94166 0.07059 0.0
C622 C 0.73958 0.011 0.08685 0.0
C623 C 0.74631 0.11016 0.06156 0.0
C624 C 0.70616 -0.03239 0.02624 0.0
H625 H 0.73611 0.2143 1.00121 0.0
C626 C 0.71818 0.27665 0.8884 0.0
O627 O 0.73074 0.04309 0.76343 0.0
O628 O 0.75691 0.00996 0.8254 0.0
N629 N 0.67127 0.9472 0.96979 0.0
C630 C 0.6472 0.89935 0.9534 0.0
C631 C 0.63217 0.82339 0.98216 0.0
C632 C 0.64325 0.78776 0.02579 0.0
C633 C 0.66886 0.83218 0.0409 0.0
C634 C 0.68189 0.91496 1.01223 0.0
H635 H 0.63953 0.91777 0.91855 0.0
O636 O 0.70976 0.88825 0.83177 0.0
O637 O 0.7121 -0.0078 0.8974 0.0
O638 O 0.67185 0.07342 0.82148 0.0
O639 O 0.66334 0.0996 0.89817 0.0
C640 C 0.68146 0.80036 0.08409 0.0
C641 C 0.70614 0.85479 0.09885 0.0
H642 H 0.7493 -0.00569 0.12075 0.0
H643 H 0.75968 0.173 0.0779 0.0
H644 H 0.61212 0.79207 0.97043 0.0
H645 H 0.63192 0.72652 0.04736 0.0
H646 H 0.67194 0.73638 0.1068 0.0
H647 H 0.7151 0.83315 0.13309 0.0
Mn648 Mn 0.56234 0.05079 0.44788 0.0
Mn649 Mn 0.58712 0.07914 0.33347 0.0
C650 C 0.57059 0.89372 0.40242 0.0
C651 C 0.52425 -0.00031 0.49946 0.0
C652 C 0.62325 0.09205 0.42366 0.0
O653 O 0.55671 0.22533 0.43173 0.0
O654 O 0.56847 0.22551 0.35324 0.0
C655 C 0.54434 0.13206 0.26202 0.0
N656 N 0.56217 0.05409 0.28106 0.0
C657 C 0.56005 0.94184 0.20879 0.0
C658 C 0.53848 0.01128 0.19252 0.0
C659 C 0.53177 0.11048 0.2178 0.0
C660 C 0.57188 -0.03226 0.25314 0.0
H661 H 0.54198 0.21458 0.27817 0.0
C662 C 0.55987 0.27674 0.391 0.0
O663 O 0.54731 0.04313 0.51595 0.0
O664 O 0.52114 0.01002 0.45398 0.0
N665 N 0.60677 0.94725 0.30958 0.0
C666 C 0.63085 0.89938 0.32596 0.0
C667 C 0.64587 0.82336 0.2972 0.0
C668 C 0.63477 0.78773 0.25358 0.0
C669 C 0.60916 0.83221 0.23847 0.0
C670 C 0.59615 0.91502 0.26715 0.0
H671 H 0.63854 0.91784 0.3608 0.0
O672 O 0.5683 0.88833 0.44761 0.0
O673 O 0.56594 -0.00771 0.38198 0.0
O674 O 0.60619 0.0735 0.45792 0.0
O675 O 0.61471 0.09958 0.38123 0.0
C676 C 0.59656 0.80042 0.19529 0.0
C677 C 0.57188 0.85493 0.18053 0.0
H678 H 0.52876 -0.00536 0.15861 0.0
H679 H 0.51841 0.17339 0.20147 0.0
H680 H 0.66592 0.792 0.30891 0.0
H681 H 0.6461 0.72646 0.23201 0.0
H682 H 0.60607 0.73641 0.17257 0.0
H683 H 0.56293 0.83332 0.14628 0.0
Mn684 Mn 0.71571 0.13147 0.44788 0.0
Mn685 Mn 0.69092 0.10314 0.33346 0.0
C686 C 0.70746 0.28854 0.40241 0.0
C687 C 0.75379 0.18264 0.49946 0.0
C688 C 0.65479 0.09038 0.42365 0.0
O689 O 0.72135 0.95694 0.43174 0.0
O690 O 0.70953 0.95673 0.35328 0.0
C691 C 0.73366 0.04979 0.26201 0.0
N692 N 0.71588 0.12796 0.28106 0.0
C693 C 0.71806 0.24011 0.20877 0.0
C694 C 0.73959 0.17048 0.19251 0.0
C695 C 0.74624 0.07122 0.2178 0.0
C696 C 0.70621 0.21435 0.25312 0.0
H697 H 0.73598 -0.03275 0.27817 0.0
C698 C 0.71817 0.90552 0.39101 0.0
O699 O 0.73074 0.13918 0.51595 0.0
O700 O 0.75691 0.17228 0.45398 0.0
N701 N 0.6713 0.23507 0.30953 0.0
C702 C 0.64723 0.283 0.32585 0.0
C703 C 0.63223 0.35902 0.29706 0.0
C704 C 0.64336 0.3946 0.25346 0.0
C705 C 0.66897 0.35003 0.2384 0.0
C706 C 0.68196 0.26721 0.26711 0.0
H707 H 0.63951 0.26458 0.36068 0.0
O708 O 0.70975 0.29392 0.4476 0.0
O709 O 0.71211 0.18997 0.38196 0.0
O710 O 0.67185 0.10873 0.45793 0.0
O711 O 0.66333 0.08297 0.38123 0.0
C712 C 0.68159 0.38171 0.19521 0.0
C713 C 0.70626 0.32706 0.18048 0.0
H714 H 0.74932 0.18702 0.1586 0.0
H715 H 0.75957 0.00816 0.20147 0.0
H716 H 0.61218 0.39042 0.30873 0.0
H717 H 0.63205 0.45587 0.23186 0.0
H718 H 0.67211 0.44573 0.17248 0.0
H719 H 0.71522 0.34857 0.14624 0.0
Mn720 Mn 0.46571 0.80077 0.19787 0.0
Mn721 Mn 0.44093 0.82908 0.08345 0.0
C722 C 0.45747 0.64369 0.15241 0.0
C723 C 0.5038 0.74968 0.24946 0.0
C724 C 0.4048 0.84197 0.17363 0.0
O725 O 0.47134 -0.0247 0.18171 0.0
O726 O 0.45956 -0.02453 0.10323 0.0
C727 C 0.4837 0.88212 1.012 0.0
N728 N 0.46589 0.8041 0.03104 0.0
C729 C 0.46802 0.69192 0.95875 0.0
C730 C 0.48958 0.76141 0.94249 0.0
C731 C 0.49628 0.8606 0.96779 0.0
C732 C 0.45619 0.71776 1.00311 0.0
H733 H 0.48605 0.96464 0.02817 0.0
C734 C 0.46818 0.02669 0.14098 0.0
O735 O 0.48074 0.79312 0.26593 0.0
O736 O 0.50691 0.75998 0.20397 0.0
N737 N 0.42129 0.69719 0.05954 0.0
C738 C 0.39723 0.64929 0.0759 0.0
C739 C 0.38221 0.57333 0.04712 0.0
C740 C 0.39331 0.53773 1.0035 0.0
C741 C 0.41892 0.58222 0.98841 0.0
C742 C 0.43193 0.665 0.01711 0.0
H743 H 0.38954 0.66768 0.11075 0.0
O744 O 0.45976 0.63831 0.19759 0.0
O745 O 0.46211 0.74224 0.13196 0.0
O746 O 0.42185 0.8235 0.2079 0.0
O747 O 0.41334 0.84944 0.13121 0.0
C748 C 0.43153 0.55049 0.94522 0.0
C749 C 0.4562 0.60502 0.93047 0.0
H750 H 0.4993 0.74481 0.90858 0.0
H751 H 0.50962 0.92355 0.95146 0.0
H752 H 0.36216 0.54197 0.05882 0.0
H753 H 0.38199 0.47649 0.98191 0.0
H754 H 0.42202 0.4865 0.92249 0.0
H755 H 0.46515 0.58346 0.89623 0.0
Mn756 Mn 0.31234 0.88158 0.19787 0.0
Mn757 Mn 0.33712 0.85325 0.08345 0.0
C758 C 0.32059 0.03867 0.15242 0.0
C759 C 0.27426 0.93267 0.24945 0.0
C760 C 0.37325 0.84028 0.17362 0.0
O761 O 0.30672 0.70705 0.18171 0.0
O762 O 0.31846 0.7069 0.10321 0.0
C763 C 0.29432 0.8005 1.01201 0.0
N764 N 0.31217 0.87839 0.03105 0.0
C765 C 0.31006 -0.00935 0.95878 0.0
C766 C 0.28847 0.92131 0.94251 0.0
C767 C 0.28174 0.82215 0.9678 0.0
C768 C 0.32189 0.9647 1.00313 0.0
H769 H 0.29193 0.718 0.02816 0.0
C770 C 0.30987 0.65566 0.14097 0.0
O771 O 0.29731 0.88921 0.26593 0.0
O772 O 0.27114 0.92234 0.20397 0.0
N773 N 0.35678 -0.0149 0.05958 0.0
C774 C 0.38085 0.03296 0.07596 0.0
C775 C 0.39588 0.10891 0.04721 0.0
C776 C 0.3848 0.14455 1.00358 0.0
C777 C 0.35919 0.10012 0.98847 0.0
C778 C 0.34616 0.01735 0.01714 0.0
H779 H 0.38852 0.01454 0.11082 0.0
O780 O 0.31829 0.04405 0.1976 0.0
O781 O 0.31595 0.9401 0.13197 0.0
O782 O 0.3562 0.85888 0.20789 0.0
O783 O 0.36471 0.8327 0.1312 0.0
C784 C 0.34659 0.13194 0.94528 0.0
C785 C 0.32191 0.07752 0.93052 0.0
H786 H 0.27875 0.938 0.90861 0.0
H787 H 0.26837 0.75931 0.95147 0.0
H788 H 0.41593 0.14024 0.05893 0.0
H789 H 0.39613 0.20578 0.98201 0.0
H790 H 0.35611 0.19592 0.92256 0.0
H791 H 0.31295 0.09916 0.89628 0.0
Mn792 Mn 0.46571 0.88151 0.58148 0.0
Mn793 Mn 0.44093 0.85317 0.6959 0.0
C794 C 0.45746 0.03859 0.62695 0.0
C795 C 0.50379 0.93265 0.52991 0.0
C796 C 0.4048 0.84025 0.60571 0.0
O797 O 0.47134 0.70697 0.59763 0.0
O798 O 0.45958 0.7068 0.67612 0.0
C799 C 0.48371 0.80024 0.76735 0.0
N800 N 0.46588 0.87821 0.7483 0.0
C801 C 0.468 -0.00954 0.82058 0.0
C802 C 0.48957 0.92102 0.83685 0.0
C803 C 0.49628 0.82182 0.81156 0.0
C804 C 0.45617 0.96456 0.77623 0.0
H805 H 0.48607 0.71772 0.7512 0.0
C806 C 0.46819 0.65557 0.63837 0.0
O807 O 0.48074 0.88919 0.51342 0.0
O808 O 0.50691 0.9223 0.57539 0.0
N809 N 0.42128 -0.01495 0.71979 0.0
C810 C 0.39721 0.03293 0.70341 0.0
C811 C 0.38218 0.10894 0.73217 0.0
C812 C 0.39328 0.14458 0.77579 0.0
C813 C 0.41889 0.10009 0.79089 0.0
C814 C 0.4319 0.01728 0.76222 0.0
H815 H 0.38951 0.01447 0.66857 0.0
O816 O 0.45975 0.04398 0.58176 0.0
O817 O 0.46211 0.94002 0.64739 0.0
O818 O 0.42186 0.8588 0.57145 0.0
O819 O 0.41334 0.83273 0.64813 0.0
C820 C 0.43149 0.13188 0.83408 0.0
C821 C 0.45617 0.07738 0.84884 0.0
H822 H 0.49929 0.93766 0.87076 0.0
H823 H 0.50964 0.75891 0.8279 0.0
H824 H 0.36213 0.14031 0.72045 0.0
H825 H 0.38195 0.20585 0.79736 0.0
H826 H 0.42198 0.19589 0.8568 0.0
H827 H 0.46512 0.09898 0.88308 0.0
Mn828 Mn 0.31234 0.80083 0.58149 0.0
Mn829 Mn 0.33713 0.82916 0.6959 0.0
C830 C 0.32059 0.64377 0.62696 0.0
C831 C 0.27426 0.74967 0.52991 0.0
C832 C 0.37326 0.84192 0.60571 0.0
O833 O 0.3067 -0.02463 0.59763 0.0
O834 O 0.31852 -0.02443 0.67609 0.0
C835 C 0.29439 0.88252 0.76735 0.0
N836 N 0.31217 0.80435 0.74831 0.0
C837 C 0.30999 0.6922 0.8206 0.0
C838 C 0.28846 0.76183 0.83686 0.0
C839 C 0.28181 0.86109 0.81157 0.0
C840 C 0.32184 0.71796 0.77624 0.0
H841 H 0.29207 0.96506 0.75119 0.0
C842 C 0.30988 0.02678 0.63835 0.0
O843 O 0.29731 0.79313 0.51342 0.0
O844 O 0.27114 0.76002 0.57539 0.0
N845 N 0.35675 0.69724 0.71984 0.0
C846 C 0.38082 0.6493 0.70351 0.0
C847 C 0.39582 0.57329 0.73231 0.0
C848 C 0.38469 0.53771 0.77591 0.0
C849 C 0.35908 0.58227 0.79097 0.0
C850 C 0.34609 0.66509 0.76226 0.0
H851 H 0.38854 0.66772 0.66869 0.0
O852 O 0.3183 0.63838 0.58177 0.0
O853 O 0.31594 0.74233 0.64741 0.0
O854 O 0.3562 0.82357 0.57144 0.0
O855 O 0.36472 0.84933 0.64814 0.0
C856 C 0.34645 0.5506 0.83415 0.0
C857 C 0.32179 0.60524 0.84889 0.0
H858 H 0.27873 0.74529 0.87077 0.0
H859 H 0.26848 0.92415 0.82789 0.0
H860 H 0.41587 0.54189 0.72063 0.0
H861 H 0.396 0.47644 0.79751 0.0
H862 H 0.35594 0.48658 0.85689 0.0
H863 H 0.31283 0.58374 0.88313 0.0
Mn864 Mn 0.56234 0.63158 0.33151 0.0
Mn865 Mn 0.58711 0.60327 0.44593 0.0
C866 C 0.57058 0.78865 0.37696 0.0
C867 C 0.52426 0.68266 0.27992 0.0
C868 C 0.62325 0.59025 0.35576 0.0
O869 O 0.55672 0.45705 0.34768 0.0
O870 O 0.56845 0.45691 0.42618 0.0
C871 C 0.54431 0.55057 0.51737 0.0
N872 N 0.56217 0.62843 0.49833 0.0
C873 C 0.56007 0.74068 0.57061 0.0
C874 C 0.53848 0.67133 0.58689 0.0
C875 C 0.53174 0.5722 0.56159 0.0
C876 C 0.57189 0.71473 0.52626 0.0
H877 H 0.54192 0.46808 0.50121 0.0
C878 C 0.55985 0.40569 0.38842 0.0
O879 O 0.54732 0.6392 0.26344 0.0
O880 O 0.52114 0.67235 0.3254 0.0
N881 N 0.60678 0.73513 0.4698 0.0
C882 C 0.63084 0.78297 0.45341 0.0
C883 C 0.64589 0.85892 0.48216 0.0
C884 C 0.63481 0.89456 0.5258 0.0
C885 C 0.60919 0.85015 0.54091 0.0
C886 C 0.59616 0.76738 0.51224 0.0
H887 H 0.63852 0.76455 0.41855 0.0
O888 O 0.56829 0.79405 0.33177 0.0
O889 O 0.56594 0.6901 0.39741 0.0
O890 O 0.6062 0.60886 0.3215 0.0
O891 O 0.61471 0.58271 0.39818 0.0
C892 C 0.5966 0.88196 0.58411 0.0
C893 C 0.57192 0.82754 0.59888 0.0
H894 H 0.52878 0.688 0.6208 0.0
H895 H 0.51837 0.50937 0.57792 0.0
H896 H 0.66593 0.89023 0.47043 0.0
H897 H 0.64614 0.95579 0.54736 0.0
H898 H 0.60613 0.94594 0.60682 0.0
H899 H 0.56297 0.84918 0.63312 0.0
Mn900 Mn 0.71571 0.5507 0.33152 0.0
Mn901 Mn 0.69093 0.57897 0.44594 0.0
C902 C 0.70747 0.39361 0.37695 0.0
C903 C 0.75379 0.49964 0.27992 0.0
C904 C 0.6548 0.59193 0.35577 0.0
O905 O 0.72133 0.72523 0.34769 0.0
O906 O 0.70958 0.72535 0.42618 0.0
C907 C 0.73373 0.63181 0.51738 0.0
N908 N 0.71589 0.55389 0.49834 0.0
C909 C 0.718 0.44168 0.57063 0.0
C910 C 0.73958 0.51108 0.58689 0.0
C911 C 0.7463 0.61023 0.56159 0.0
C912 C 0.70617 0.46758 0.52627 0.0
H913 H 0.7361 0.71431 0.50122 0.0
C914 C 0.71819 0.77658 0.38844 0.0
O915 O 0.73074 0.5431 0.26345 0.0
O916 O 0.75691 0.50994 0.3254 0.0
N917 N 0.67128 0.4471 0.46983 0.0
C918 C 0.64721 0.39925 0.45345 0.0
C919 C 0.63218 0.32333 0.48223 0.0
C920 C 0.64326 0.28771 0.52585 0.0
C921 C 0.66888 0.33213 0.54095 0.0
C922 C 0.6819 0.41488 0.51226 0.0
H923 H 0.63953 0.41765 0.4186 0.0
O924 O 0.70977 0.38823 0.33177 0.0
O925 O 0.71211 0.49216 0.39742 0.0
O926 O 0.67185 0.57342 0.3215 0.0
O927 O 0.66334 0.59944 0.39819 0.0
C928 C 0.68148 0.30035 0.58414 0.0
C929 C 0.70616 0.35481 0.5989 0.0
H930 H 0.74929 0.49444 0.6208 0.0
H931 H 0.75967 0.6731 0.57792 0.0
H932 H 0.61212 0.29203 0.47052 0.0
H933 H 0.63193 0.2265 0.54743 0.0
H934 H 0.67196 0.23639 0.60687 0.0
H935 H 0.71511 0.33322 0.63314 0.0
Mn936 Mn 0.56234 0.55077 0.94787 0.0
Mn937 Mn 0.58712 0.57905 0.83345 0.0
C938 C 0.57058 0.39369 0.90242 0.0
C939 C 0.52425 0.49969 0.99946 0.0
C940 C 0.62325 0.59196 0.92363 0.0
O941 O 0.55671 0.7253 0.93171 0.0
O942 O 0.56849 0.72544 0.85322 0.0
C943 C 0.54435 0.63208 0.762 0.0
N944 N 0.56217 0.55406 0.78104 0.0
C945 C 0.56004 0.44186 0.70875 0.0
C946 C 0.53848 0.51136 0.69248 0.0
C947 C 0.53178 0.61055 0.71778 0.0
C948 C 0.57187 0.46771 0.75311 0.0
H949 H 0.54199 0.71459 0.77816 0.0
C950 C 0.55986 0.77667 0.89097 0.0
O951 O 0.54731 0.54313 0.01593 0.0
O952 O 0.52114 0.51 0.95397 0.0
N953 N 0.60676 0.44715 0.80955 0.0
C954 C 0.63084 0.39928 0.82591 0.0
C955 C 0.64586 0.3233 0.79713 0.0
C956 C 0.63476 0.28768 0.75351 0.0
C957 C 0.60914 0.33216 0.73843 0.0
C958 C 0.59613 0.41494 0.76712 0.0
H959 H 0.63853 0.41772 0.86075 0.0
O960 O 0.56829 0.38831 0.9476 0.0
O961 O 0.56593 0.49225 0.88196 0.0
O962 O 0.60619 0.57349 0.9579 0.0
O963 O 0.61471 0.59941 0.88121 0.0
C964 C 0.59654 0.30041 0.69523 0.0
C965 C 0.57187 0.35495 0.68048 0.0
H966 H 0.52877 0.49477 0.65856 0.0
H967 H 0.51843 0.67349 0.70145 0.0
H968 H 0.66591 0.29196 0.80883 0.0
H969 H 0.64608 0.22643 0.73193 0.0
H970 H 0.60605 0.23642 0.67251 0.0
H971 H 0.56291 0.33338 0.64623 0.0
Mn972 Mn 0.71571 0.63151 0.94787 0.0
Mn973 Mn 0.69093 0.60319 0.83345 0.0
C974 C 0.70746 0.78858 0.90241 0.0
C975 C 0.75379 0.68265 0.99945 0.0
C976 C 0.65479 0.5903 0.92363 0.0
O977 O 0.72134 0.45698 0.93172 0.0
O978 O 0.70957 0.45681 0.85323 0.0
C979 C 0.7337 0.55018 0.762 0.0
N980 N 0.71588 0.62819 0.78105 0.0
C981 C 0.71801 0.74041 0.70877 0.0
C982 C 0.73958 0.67093 0.6925 0.0
C983 C 0.74628 0.57173 0.71779 0.0
C984 C 0.70618 0.71454 0.75312 0.0
H985 H 0.73606 0.46766 0.77816 0.0
C986 C 0.71819 0.4056 0.89098 0.0
O987 O 0.73074 0.63919 0.01594 0.0
O988 O 0.7569 0.6723 0.95397 0.0
N989 N 0.67128 0.73508 0.80955 0.0
C990 C 0.64721 0.78296 0.82591 0.0
C991 C 0.63219 0.85896 0.79714 0.0
C992 C 0.64329 0.89458 0.75353 0.0
C993 C 0.6689 0.8501 0.73844 0.0
C994 C 0.68191 0.76729 0.76713 0.0
H995 H 0.63951 0.76451 0.86075 0.0
O996 O 0.70975 0.79398 0.9476 0.0
O997 O 0.71211 0.69002 0.88196 0.0
O998 O 0.67185 0.60879 0.9579 0.0
O999 O 0.66334 0.5828 0.88121 0.0
C1000 C 0.68151 0.88185 0.69525 0.0
C1001 C 0.70619 0.82733 0.6805 0.0
H1002 H 0.74929 0.68753 0.65859 0.0
H1003 H 0.75963 0.50879 0.70146 0.0
H1004 H 0.61214 0.89031 0.80885 0.0
H1005 H 0.63197 0.95584 0.73195 0.0
H1006 H 0.67201 0.94586 0.67253 0.0
H1007 H 0.71514 0.84891 0.64626 0.0
Mn1008 Mn 0.46571 0.30073 0.69785 0.0
Mn1009 Mn 0.44094 0.32904 0.58343 0.0
C1010 C 0.45747 0.14365 0.65241 0.0
C1011 C 0.50379 0.24964 0.74945 0.0
C1012 C 0.4048 0.34206 0.6736 0.0
O1013 O 0.47133 0.47526 0.68169 0.0
O1014 O 0.4596 0.47539 0.60318 0.0
C1015 C 0.48374 0.38174 0.51199 0.0
N1016 N 0.46588 0.30387 0.53103 0.0
C1017 C 0.46798 0.19163 0.45875 0.0
C1018 C 0.48957 0.26097 0.44248 0.0
C1019 C 0.49631 0.3601 0.46778 0.0
C1020 C 0.45616 0.21757 0.50311 0.0
H1021 H 0.48613 0.46422 0.52815 0.0
C1022 C 0.4682 0.52662 0.64094 0.0
O1023 O 0.48073 0.29311 0.76592 0.0
O1024 O 0.50691 0.25996 0.70396 0.0
N1025 N 0.42127 0.19718 0.55956 0.0
C1026 C 0.39721 0.14933 0.57596 0.0
C1027 C 0.38216 0.07339 0.5472 0.0
C1028 C 0.39324 0.03775 0.50357 0.0
C1029 C 0.41886 0.08216 0.48845 0.0
C1030 C 0.43188 0.16493 0.51713 0.0
H1031 H 0.38954 0.16776 0.61082 0.0
O1032 O 0.45976 0.13826 0.6976 0.0
O1033 O 0.46211 0.2422 0.63195 0.0
O1034 O 0.42185 0.32345 0.70787 0.0
O1035 O 0.41334 0.3496 0.63118 0.0
C1036 C 0.43145 0.05034 0.44526 0.0
C1037 C 0.45613 0.10476 0.43049 0.0
H1038 H 0.49927 0.2443 0.40857 0.0
H1039 H 0.50968 0.42292 0.45144 0.0
H1040 H 0.36211 0.04208 0.55894 0.0
H1041 H 0.3819 -0.02348 0.482 0.0
H1042 H 0.42192 -0.01363 0.42255 0.0
H1043 H 0.46507 0.08313 0.39624 0.0
Mn1044 Mn 0.31234 0.3816 0.69785 0.0
Mn1045 Mn 0.33712 0.35333 0.58342 0.0
C1046 C 0.32058 0.53869 0.65241 0.0
C1047 C 0.27426 0.43267 0.74945 0.0
C1048 C 0.37325 0.34037 0.6736 0.0
O1049 O 0.30672 0.20708 0.68168 0.0
O1050 O 0.31847 0.20696 0.60318 0.0
C1051 C 0.29432 0.3005 0.51199 0.0
N1052 N 0.31216 0.37842 0.53103 0.0
C1053 C 0.31005 0.49063 0.45874 0.0
C1054 C 0.28847 0.42123 0.44247 0.0
C1055 C 0.28175 0.32208 0.46778 0.0
C1056 C 0.32188 0.46473 0.5031 0.0
H1057 H 0.29194 0.218 0.52815 0.0
C1058 C 0.30986 0.15573 0.64093 0.0
O1059 O 0.29731 0.38921 0.76592 0.0
O1060 O 0.27114 0.42236 0.70396 0.0
N1061 N 0.35677 0.48521 0.55954 0.0
C1062 C 0.38084 0.53306 0.57591 0.0
C1063 C 0.39587 0.60897 0.54714 0.0
C1064 C 0.38479 0.6446 0.50352 0.0
C1065 C 0.35917 0.60018 0.48842 0.0
C1066 C 0.34615 0.51742 0.51711 0.0
H1067 H 0.38852 0.51466 0.61077 0.0
O1068 O 0.31828 0.54408 0.6976 0.0
O1069 O 0.31594 0.44014 0.63195 0.0
O1070 O 0.3562 0.35889 0.70787 0.0
O1071 O 0.36471 0.33286 0.63118 0.0
C1072 C 0.34657 0.63195 0.44522 0.0
C1073 C 0.32189 0.57749 0.43047 0.0
H1074 H 0.27876 0.43787 0.40856 0.0
H1075 H 0.26838 0.25921 0.45144 0.0
H1076 H 0.41593 0.64028 0.55885 0.0
H1077 H 0.39612 0.70581 0.48193 0.0
H1078 H 0.35609 0.69592 0.4225 0.0
H1079 H 0.31294 0.59909 0.39622 0.0
Mn1080 Mn 0.46571 0.38153 0.0815 0.0
Mn1081 Mn 0.44093 0.35325 0.19592 0.0
C1082 C 0.45747 0.53861 0.12695 0.0
C1083 C 0.50379 0.43265 0.02991 0.0
C1084 C 0.4048 0.34034 0.10574 0.0
O1085 O 0.47134 0.207 0.09766 0.0
O1086 O 0.45956 0.20686 0.17614 0.0
C1087 C 0.4837 0.30023 0.26737 0.0
N1088 N 0.46588 0.37824 0.24833 0.0
C1089 C 0.46801 0.49044 0.32061 0.0
C1090 C 0.48957 0.42094 0.33689 0.0
C1091 C 0.49627 0.32175 0.31159 0.0
C1092 C 0.45618 0.4646 0.27626 0.0
H1093 H 0.48606 0.21771 0.25121 0.0
C1094 C 0.46819 0.15564 0.1384 0.0
O1095 O 0.48074 0.38918 1.01343 0.0
O1096 O 0.50691 0.42231 0.0754 0.0
N1097 N 0.42129 0.48516 0.21982 0.0
C1098 C 0.39721 0.53303 0.20346 0.0
C1099 C 0.38219 0.60901 0.23224 0.0
C1100 C 0.39329 0.64463 0.27585 0.0
C1101 C 0.41891 0.60015 0.29094 0.0
C1102 C 0.43192 0.51736 0.26225 0.0
H1103 H 0.38952 0.51459 0.16862 0.0
O1104 O 0.45976 0.544 0.08176 0.0
O1105 O 0.46212 0.44006 0.14741 0.0
O1106 O 0.42186 0.35881 0.07147 0.0
O1107 O 0.41334 0.33289 0.14816 0.0
C1108 C 0.43151 0.63189 0.33413 0.0
C1109 C 0.45618 0.57735 0.34889 0.0
H1110 H 0.49928 0.43753 0.3708 0.0
H1111 H 0.50962 0.25881 0.32792 0.0
H1112 H 0.36214 0.64035 0.22054 0.0
H1113 H 0.38197 0.70588 0.29744 0.0
H1114 H 0.42201 0.69589 0.35686 0.0
H1115 H 0.46514 0.59892 0.38313 0.0
Mn1116 Mn 0.31234 0.30079 0.0815 0.0
Mn1117 Mn 0.33712 0.32912 0.19592 0.0
C1118 C 0.32059 0.14373 0.12695 0.0
C1119 C 0.27426 0.24966 0.02992 0.0
C1120 C 0.37326 0.34201 0.10574 0.0
O1121 O 0.30671 0.47533 0.09765 0.0
O1122 O 0.31849 0.4755 0.17614 0.0
C1123 C 0.29435 0.38213 0.26737 0.0
N1124 N 0.31217 0.30412 0.24832 0.0
C1125 C 0.31004 0.1919 0.3206 0.0
C1126 C 0.28847 0.26139 0.33687 0.0
C1127 C 0.28177 0.36058 0.31158 0.0
C1128 C 0.32187 0.21777 0.27625 0.0
H1129 H 0.29199 0.46465 0.25121 0.0
C1130 C 0.30986 0.52671 0.13839 0.0
O1131 O 0.29731 0.29312 1.01343 0.0
O1132 O 0.27115 0.26001 0.0754 0.0
N1133 N 0.35677 0.19722 0.21981 0.0
C1134 C 0.38084 0.14935 0.20346 0.0
C1135 C 0.39586 0.07335 0.23222 0.0
C1136 C 0.38476 0.03772 0.27584 0.0
C1137 C 0.35915 0.08221 0.29093 0.0
C1138 C 0.34614 0.16501 0.26224 0.0
H1139 H 0.38854 0.1678 0.16862 0.0
O1140 O 0.3183 0.13833 0.08177 0.0
O1141 O 0.31594 0.24229 0.14741 0.0
O1142 O 0.3562 0.32351 0.07147 0.0
O1143 O 0.36471 0.3495 0.14816 0.0
C1144 C 0.34654 0.05045 0.33412 0.0
C1145 C 0.32186 0.10498 0.34887 0.0
H1146 H 0.27876 0.24478 0.37078 0.0
H1147 H 0.26842 0.42352 0.32791 0.0
H1148 H 0.41591 0.042 0.22052 0.0
H1149 H 0.39608 -0.02354 0.29742 0.0
H1150 H 0.35604 -0.01355 0.35684 0.0
H1151 H 0.31291 0.0834 0.38311 0.0
loop_
_geom_bond_atom_site_label_1
_geom_bond_atom_site_label_2
_geom_bond_distance
_geom_bond_site_symmetry_2
_ccdc_geom_bond_type
Mn0 O5 2.095 1_545 S
Mn0 O15 2.162 . S
Mn0 O16 2.297 . S
Mn0 O24 2.385 . S
Mn0 O25 2.209 . S
Mn0 O26 2.094 . S
Mn1 O6 2.121 1_545 S
Mn1 N8 2.257 . S
Mn1 N17 2.282 . S
Mn1 O25 2.215 . S
Mn1 O27 2.117 . S
C2 O24 1.234 . S
C2 O25 1.283 . S
C3 O15 1.281 . S
C3 O16 1.236 . S
C4 O26 1.240 . S
C4 O27 1.264 . S
O5 Mn0 2.095 1_565 S
O5 C14 1.250 . S
O6 Mn1 2.121 1_565 S
O6 C14 1.258 . S
C7 N8 1.326 . S
C7 C11 1.460 . S
C7 H13 0.929 . S
N8 Mn1 2.257 . S
N8 C7 1.326 . S
N8 C12 1.362 . S
C9 C10 1.258 . S
C9 C12 1.431 . S
C9 C29 1.449 . S
C10 C9 1.258 . S
C10 C11 1.477 . S
C10 H30 0.931 . S
C11 C7 1.460 . S
C11 C10 1.477 . S
C11 H31 0.930 . S
C12 N8 1.362 . S
C12 C9 1.431 . S
C12 C22 1.476 . S
H13 C7 0.929 . S
C14 O5 1.250 . S
C14 O6 1.258 . S
O15 Mn0 2.162 . S
O15 C3 1.281 . S
O16 Mn0 2.297 . S
O16 C3 1.236 . S
N17 Mn1 2.282 . S
N17 C18 1.328 . S
N17 C22 1.318 . S
C18 N17 1.328 . S
C18 C19 1.457 . S
C18 H23 0.929 . S
C19 C18 1.457 . S
C19 C20 1.291 . S
C19 H32 0.931 . S
C20 C19 1.291 . S
C20 C21 1.373 . S
C20 H33 0.929 . S
C21 C20 1.373 . S
C21 C22 1.396 . S
C21 C28 1.403 . S
C22 C12 1.476 . S
C22 N17 1.318 . S
C22 C21 1.396 . S
H23 C18 0.929 . S
O24 Mn0 2.385 . S
O24 C2 1.234 . S
O25 Mn0 2.209 . S
O25 Mn1 2.215 . S
O25 C2 1.283 . S
O26 Mn0 2.094 . S
O26 C4 1.240 . S
O27 Mn1 2.117 . S
O27 C4 1.264 . S
C28 C21 1.403 . S
C28 C29 1.399 . S
C28 H34 0.929 . S
C29 C9 1.449 . S
C29 C28 1.399 . S
C29 H35 0.930 . S
H30 C10 0.931 . S
H31 C11 0.930 . S
H32 C19 0.931 . S
H33 C20 0.929 . S
H34 C28 0.929 . S
H35 C29 0.930 . S
Mn36 O41 2.095 . S
Mn36 O51 2.162 . S
Mn36 O52 2.297 . S
Mn36 O60 2.385 1_545 S
Mn36 O61 2.209 . S
Mn36 O62 2.094 . S
Mn37 O42 2.121 . S
Mn37 N44 2.257 . S
Mn37 N53 2.282 1_545 S
Mn37 O61 2.215 . S
Mn37 O63 2.117 . S
C38 O60 1.234 . S
C38 O61 1.283 1_565 S
C39 O51 1.281 . S
C39 O52 1.236 . S
C40 O62 1.240 . S
C40 O63 1.264 . S
O41 Mn36 2.095 . S
O41 C50 1.250 . S
O42 Mn37 2.121 . S
O42 C50 1.258 . S
C43 N44 1.326 . S
C43 C47 1.460 . S
C43 H49 0.929 . S
N44 Mn37 2.257 . S
N44 C43 1.326 . S
N44 C48 1.362 1_545 S
C45 C46 1.258 1_565 S
C45 C48 1.431 . S
C45 C65 1.449 . S
C46 C45 1.258 1_545 S
C46 C47 1.477 . S
C46 H66 0.931 . S
C47 C43 1.460 . S
C47 C46 1.477 . S
C47 H67 0.930 . S
C48 N44 1.362 1_565 S
C48 C45 1.431 . S
C48 C58 1.476 . S
H49 C43 0.929 . S
C50 O41 1.250 . S
C50 O42 1.258 . S
O51 Mn36 2.162 . S
O51 C39 1.281 . S
O52 Mn36 2.297 . S
O52 C39 1.236 . S
N53 Mn37 2.282 1_565 S
N53 C54 1.328 . S
N53 C58 1.318 . S
C54 N53 1.328 . S
C54 C55 1.457 . S
C54 H59 0.929 . S
C55 C54 1.457 . S
C55 C56 1.291 . S
C55 H68 0.931 . S
C56 C55 1.291 . S
C56 C57 1.373 . S
C56 H69 0.929 . S
C57 C56 1.373 . S
C57 C58 1.396 . S
C57 C64 1.403 . S
C58 C48 1.476 . S
C58 N53 1.318 . S
C58 C57 1.396 . S
H59 C54 0.929 . S
O60 Mn36 2.385 1_565 S
O60 C38 1.234 . S
O61 Mn36 2.209 . S
O61 Mn37 2.215 . S
O61 C38 1.283 1_545 S
O62 Mn36 2.094 . S
O62 C40 1.240 . S
O63 Mn37 2.117 . S
O63 C40 1.264 . S
C64 C57 1.403 . S
C64 C65 1.399 . S
C64 H70 0.929 . S
C65 C45 1.449 . S
C65 C64 1.399 . S
C65 H71 0.930 . S
H66 C46 0.931 . S
H67 C47 0.930 . S
H68 C55 0.931 . S
H69 C56 0.929 . S
H70 C64 0.929 . S
H71 C65 0.930 . S
Mn72 O77 2.095 . S
Mn72 O87 2.162 1_556 S
Mn72 O88 2.297 . S
Mn72 O96 2.385 1_545 S
Mn72 O97 2.209 . S
Mn72 O98 2.094 . S
Mn73 O78 2.121 . S
Mn73 N80 2.257 . S
Mn73 N89 2.282 1_545 S
Mn73 O97 2.215 . S
Mn73 O99 2.117 . S
C74 O96 1.234 . S
C74 O97 1.283 1_565 S
C75 O87 1.281 1_556 S
C75 O88 1.236 . S
C76 O98 1.240 . S
C76 O99 1.264 . S
O77 Mn72 2.095 . S
O77 C86 1.250 . S
O78 Mn73 2.121 . S
O78 C86 1.258 . S
C79 N80 1.326 . S
C79 C83 1.460 . S
C79 H85 0.929 . S
N80 Mn73 2.257 . S
N80 C79 1.326 . S
N80 C84 1.362 1_545 S
C81 C82 1.258 1_565 S
C81 C84 1.431 . S
C81 C101 1.449 . S
C82 C81 1.258 1_545 S
C82 C83 1.477 . S
C82 H102 0.931 . S
C83 C79 1.460 . S
C83 C82 1.477 . S
C83 H103 0.930 . S
C84 N80 1.362 1_565 S
C84 C81 1.431 . S
C84 C94 1.476 . S
H85 C79 0.929 . S
C86 O77 1.250 . S
C86 O78 1.258 . S
O87 Mn72 2.162 1_554 S
O87 C75 1.281 1_554 S
O88 Mn72 2.297 . S
O88 C75 1.236 . S
N89 Mn73 2.282 1_565 S
N89 C90 1.328 . S
N89 C94 1.318 . S
C90 N89 1.328 . S
C90 C91 1.457 . S
C90 H95 0.929 . S
C91 C90 1.457 . S
C91 C92 1.291 . S
C91 H104 0.931 . S
C92 C91 1.291 . S
C92 C93 1.373 . S
C92 H105 0.929 . S
C93 C92 1.373 . S
C93 C94 1.396 . S
C93 C100 1.403 . S
C94 C84 1.476 . S
C94 N89 1.318 . S
C94 C93 1.396 . S
H95 C90 0.929 . S
O96 Mn72 2.385 1_565 S
O96 C74 1.234 . S
O97 Mn72 2.209 . S
O97 Mn73 2.215 . S
O97 C74 1.283 1_545 S
O98 Mn72 2.094 . S
O98 C76 1.240 . S
O99 Mn73 2.117 . S
O99 C76 1.264 . S
C100 C93 1.403 . S
C100 C101 1.399 . S
C100 H106 0.929 . S
C101 C81 1.449 . S
C101 C100 1.399 . S
C101 H107 0.930 . S
H102 C82 0.931 . S
H103 C83 0.930 . S
H104 C91 0.931 . S
H105 C92 0.929 . S
H106 C100 0.929 . S
H107 C101 0.930 . S
Mn108 O113 2.095 1_545 S
Mn108 O123 2.162 1_556 S
Mn108 O124 2.297 . S
Mn108 O132 2.385 . S
Mn108 O133 2.209 . S
Mn108 O134 2.094 . S
Mn109 O114 2.121 1_545 S
Mn109 N116 2.257 . S
Mn109 N125 2.282 . S
Mn109 O133 2.215 . S
Mn109 O135 2.117 . S
C110 O132 1.234 . S
C110 O133 1.283 . S
C111 O123 1.281 1_556 S
C111 O124 1.236 . S
C112 O134 1.240 . S
C112 O135 1.264 . S
O113 Mn108 2.095 1_565 S
O113 C122 1.250 . S
O114 Mn109 2.121 1_565 S
O114 C122 1.258 . S
C115 N116 1.326 . S
C115 C119 1.460 . S
C115 H121 0.929 . S
N116 Mn109 2.257 . S
N116 C115 1.326 . S
N116 C120 1.362 . S
C117 C118 1.258 . S
C117 C120 1.431 . S
C117 C137 1.449 . S
C118 C117 1.258 . S
C118 C119 1.477 . S
C118 H138 0.931 . S
C119 C115 1.460 . S
C119 C118 1.477 . S
C119 H139 0.930 . S
C120 N116 1.362 . S
C120 C117 1.431 . S
C120 C130 1.476 . S
H121 C115 0.929 . S
C122 O113 1.250 . S
C122 O114 1.258 . S
O123 Mn108 2.162 1_554 S
O123 C111 1.281 1_554 S
O124 Mn108 2.297 . S
O124 C111 1.236 . S
N125 Mn109 2.282 . S
N125 C126 1.328 . S
N125 C130 1.318 . S
C126 N125 1.328 . S
C126 C127 1.457 . S
C126 H131 0.929 . S
C127 C126 1.457 . S
C127 C128 1.291 . S
C127 H140 0.931 . S
C128 C127 1.291 . S
C128 C129 1.373 . S
C128 H141 0.929 . S
C129 C128 1.373 . S
C129 C130 1.396 . S
C129 C136 1.403 . S
C130 C120 1.476 . S
C130 N125 1.318 . S
C130 C129 1.396 . S
H131 C126 0.929 . S
O132 Mn108 2.385 . S
O132 C110 1.234 . S
O133 Mn108 2.209 . S
O133 Mn109 2.215 . S
O133 C110 1.283 . S
O134 Mn108 2.094 . S
O134 C112 1.240 . S
O135 Mn109 2.117 . S
O135 C112 1.264 . S
C136 C129 1.403 . S
C136 C137 1.399 . S
C136 H142 0.929 . S
C137 C117 1.449 . S
C137 C136 1.399 . S
C137 H143 0.930 . S
H138 C118 0.931 . S
H139 C119 0.930 . S
H140 C127 0.931 . S
H141 C128 0.929 . S
H142 C136 0.929 . S
H143 C137 0.930 . S
Mn144 O149 2.095 1_565 S
Mn144 O159 2.162 . S
Mn144 O160 2.297 . S
Mn144 O168 2.385 . S
Mn144 O169 2.209 . S
Mn144 O170 2.094 . S
Mn145 O150 2.121 1_565 S
Mn145 N152 2.257 . S
Mn145 N161 2.282 . S
Mn145 O169 2.215 . S
Mn145 O171 2.117 . S
C146 O168 1.234 . S
C146 O169 1.283 . S
C147 O159 1.281 . S
C147 O160 1.236 . S
C148 O170 1.240 . S
C148 O171 1.264 . S
O149 Mn144 2.095 1_545 S
O149 C158 1.250 . S
O150 Mn145 2.121 1_545 S
O150 C158 1.258 . S
C151 N152 1.326 . S
C151 C155 1.460 . S
C151 H157 0.929 . S
N152 Mn145 2.257 . S
N152 C151 1.326 . S
N152 C156 1.362 . S
C153 C154 1.258 . S
C153 C156 1.431 . S
C153 C173 1.449 . S
C154 C153 1.258 . S
C154 C155 1.477 . S
C154 H174 0.931 . S
C155 C151 1.460 . S
C155 C154 1.477 . S
C155 H175 0.930 . S
C156 N152 1.362 . S
C156 C153 1.431 . S
C156 C166 1.476 . S
H157 C151 0.929 . S
C158 O149 1.250 . S
C158 O150 1.258 . S
O159 Mn144 2.162 . S
O159 C147 1.281 . S
O160 Mn144 2.297 . S
O160 C147 1.236 . S
N161 Mn145 2.282 . S
N161 C162 1.328 . S
N161 C166 1.318 . S
C162 N161 1.328 . S
C162 C163 1.457 . S
C162 H167 0.929 . S
C163 C162 1.457 . S
C163 C164 1.291 . S
C163 H176 0.931 . S
C164 C163 1.291 . S
C164 C165 1.373 . S
C164 H177 0.929 . S
C165 C164 1.373 . S
C165 C166 1.396 . S
C165 C172 1.403 . S
C166 C156 1.476 . S
C166 N161 1.318 . S
C166 C165 1.396 . S
H167 C162 0.929 . S
O168 Mn144 2.385 . S
O168 C146 1.234 . S
O169 Mn144 2.209 . S
O169 Mn145 2.215 . S
O169 C146 1.283 . S
O170 Mn144 2.094 . S
O170 C148 1.240 . S
O171 Mn145 2.117 . S
O171 C148 1.264 . S
C172 C165 1.403 . S
C172 C173 1.399 . S
C172 H178 0.929 . S
C173 C153 1.449 . S
C173 C172 1.399 . S
C173 H179 0.930 . S
H174 C154 0.931 . S
H175 C155 0.930 . S
H176 C163 0.931 . S
H177 C164 0.929 . S
H178 C172 0.929 . S
H179 C173 0.930 . S
Mn180 O185 2.095 . S
Mn180 O195 2.162 . S
Mn180 O196 2.297 . S
Mn180 O204 2.385 1_565 S
Mn180 O205 2.209 . S
Mn180 O206 2.094 . S
Mn181 O186 2.121 . S
Mn181 N188 2.257 . S
Mn181 N197 2.282 1_565 S
Mn181 O205 2.215 . S
Mn181 O207 2.117 . S
C182 O204 1.234 . S
C182 O205 1.283 1_545 S
C183 O195 1.281 . S
C183 O196 1.236 . S
C184 O206 1.240 . S
C184 O207 1.264 . S
O185 Mn180 2.095 . S
O185 C194 1.250 . S
O186 Mn181 2.121 . S
O186 C194 1.258 . S
C187 N188 1.326 . S
C187 C191 1.460 . S
C187 H193 0.929 . S
N188 Mn181 2.257 . S
N188 C187 1.326 . S
N188 C192 1.362 1_565 S
C189 C190 1.258 1_545 S
C189 C192 1.431 . S
C189 C209 1.449 . S
C190 C189 1.258 1_565 S
C190 C191 1.477 . S
C190 H210 0.931 . S
C191 C187 1.460 . S
C191 C190 1.477 . S
C191 H211 0.930 . S
C192 N188 1.362 1_545 S
C192 C189 1.431 . S
C192 C202 1.476 . S
H193 C187 0.929 . S
C194 O185 1.250 . S
C194 O186 1.258 . S
O195 Mn180 2.162 . S
O195 C183 1.281 . S
O196 Mn180 2.297 . S
O196 C183 1.236 . S
N197 Mn181 2.282 1_545 S
N197 C198 1.328 . S
N197 C202 1.318 . S
C198 N197 1.328 . S
C198 C199 1.457 . S
C198 H203 0.929 . S
C199 C198 1.457 . S
C199 C200 1.291 . S
C199 H212 0.931 . S
C200 C199 1.291 . S
C200 C201 1.373 . S
C200 H213 0.929 . S
C201 C200 1.373 . S
C201 C202 1.396 . S
C201 C208 1.403 . S
C202 C192 1.476 . S
C202 N197 1.318 . S
C202 C201 1.396 . S
H203 C198 0.929 . S
O204 Mn180 2.385 1_545 S
O204 C182 1.234 . S
O205 Mn180 2.209 . S
O205 Mn181 2.215 . S
O205 C182 1.283 1_565 S
O206 Mn180 2.094 . S
O206 C184 1.240 . S
O207 Mn181 2.117 . S
O207 C184 1.264 . S
C208 C201 1.403 . S
C208 C209 1.399 . S
C208 H214 0.929 . S
C209 C189 1.449 . S
C209 C208 1.399 . S
C209 H215 0.930 . S
H210 C190 0.931 . S
H211 C191 0.930 . S
H212 C199 0.931 . S
H213 C200 0.929 . S
H214 C208 0.929 . S
H215 C209 0.930 . S
Mn216 O221 2.095 . S
Mn216 O231 2.162 1_554 S
Mn216 O232 2.297 . S
Mn216 O240 2.385 1_565 S
Mn216 O241 2.209 . S
Mn216 O242 2.094 . S
Mn217 O222 2.121 . S
Mn217 N224 2.257 . S
Mn217 N233 2.282 1_565 S
Mn217 O241 2.215 . S
Mn217 O243 2.117 . S
C218 O240 1.234 . S
C218 O241 1.283 1_545 S
C219 O231 1.281 1_554 S
C219 O232 1.236 . S
C220 O242 1.240 . S
C220 O243 1.264 . S
O221 Mn216 2.095 . S
O221 C230 1.250 . S
O222 Mn217 2.121 . S
O222 C230 1.258 . S
C223 N224 1.326 . S
C223 C227 1.460 . S
C223 H229 0.929 . S
N224 Mn217 2.257 . S
N224 C223 1.326 . S
N224 C228 1.362 1_565 S
C225 C226 1.258 1_545 S
C225 C228 1.431 . S
C225 C245 1.449 . S
C226 C225 1.258 1_565 S
C226 C227 1.477 . S
C226 H246 0.931 . S
C227 C223 1.460 . S
C227 C226 1.477 . S
C227 H247 0.930 . S
C228 N224 1.362 1_545 S
C228 C225 1.431 . S
C228 C238 1.476 . S
H229 C223 0.929 . S
C230 O221 1.250 . S
C230 O222 1.258 . S
O231 Mn216 2.162 1_556 S
O231 C219 1.281 1_556 S
O232 Mn216 2.297 . S
O232 C219 1.236 . S
N233 Mn217 2.282 1_545 S
N233 C234 1.328 . S
N233 C238 1.318 . S
C234 N233 1.328 . S
C234 C235 1.457 . S
C234 H239 0.929 . S
C235 C234 1.457 . S
C235 C236 1.291 . S
C235 H248 0.931 . S
C236 C235 1.291 . S
C236 C237 1.373 . S
C236 H249 0.929 . S
C237 C236 1.373 . S
C237 C238 1.396 . S
C237 C244 1.403 . S
C238 C228 1.476 . S
C238 N233 1.318 . S
C238 C237 1.396 . S
H239 C234 0.929 . S
O240 Mn216 2.385 1_545 S
O240 C218 1.234 . S
O241 Mn216 2.209 . S
O241 Mn217 2.215 . S
O241 C218 1.283 1_565 S
O242 Mn216 2.094 . S
O242 C220 1.240 . S
O243 Mn217 2.117 . S
O243 C220 1.264 . S
C244 C237 1.403 . S
C244 C245 1.399 . S
C244 H250 0.929 . S
C245 C225 1.449 . S
C245 C244 1.399 . S
C245 H251 0.930 . S
H246 C226 0.931 . S
H247 C227 0.930 . S
H248 C235 0.931 . S
H249 C236 0.929 . S
H250 C244 0.929 . S
H251 C245 0.930 . S
Mn252 O257 2.095 1_565 S
Mn252 O267 2.162 1_554 S
Mn252 O268 2.297 . S
Mn252 O276 2.385 . S
Mn252 O277 2.209 . S
Mn252 O278 2.094 . S
Mn253 O258 2.121 1_565 S
Mn253 N260 2.257 . S
Mn253 N269 2.282 . S
Mn253 O277 2.215 . S
Mn253 O279 2.117 . S
C254 O276 1.234 . S
C254 O277 1.283 . S
C255 O267 1.281 1_554 S
C255 O268 1.236 . S
C256 O278 1.240 . S
C256 O279 1.264 . S
O257 Mn252 2.095 1_545 S
O257 C266 1.250 . S
O258 Mn253 2.121 1_545 S
O258 C266 1.258 . S
C259 N260 1.326 . S
C259 C263 1.460 . S
C259 H265 0.929 . S
N260 Mn253 2.257 . S
N260 C259 1.326 . S
N260 C264 1.362 . S
C261 C262 1.258 . S
C261 C264 1.431 . S
C261 C281 1.449 . S
C262 C261 1.258 . S
C262 C263 1.477 . S
C262 H282 0.931 . S
C263 C259 1.460 . S
C263 C262 1.477 . S
C263 H283 0.930 . S
C264 N260 1.362 . S
C264 C261 1.431 . S
C264 C274 1.476 . S
H265 C259 0.929 . S
C266 O257 1.250 . S
C266 O258 1.258 . S
O267 Mn252 2.162 1_556 S
O267 C255 1.281 1_556 S
O268 Mn252 2.297 . S
O268 C255 1.236 . S
N269 Mn253 2.282 . S
N269 C270 1.328 . S
N269 C274 1.318 . S
C270 N269 1.328 . S
C270 C271 1.457 . S
C270 H275 0.929 . S
C271 C270 1.457 . S
C271 C272 1.291 . S
C271 H284 0.931 . S
C272 C271 1.291 . S
C272 C273 1.373 . S
C272 H285 0.929 . S
C273 C272 1.373 . S
C273 C274 1.396 . S
C273 C280 1.403 . S
C274 C264 1.476 . S
C274 N269 1.318 . S
C274 C273 1.396 . S
H275 C270 0.929 . S
O276 Mn252 2.385 . S
O276 C254 1.234 . S
O277 Mn252 2.209 . S
O277 Mn253 2.215 . S
O277 C254 1.283 . S
O278 Mn252 2.094 . S
O278 C256 1.240 . S
O279 Mn253 2.117 . S
O279 C256 1.264 . S
C280 C273 1.403 . S
C280 C281 1.399 . S
C280 H286 0.929 . S
C281 C261 1.449 . S
C281 C280 1.399 . S
C281 H287 0.930 . S
H282 C262 0.931 . S
H283 C263 0.930 . S
H284 C271 0.931 . S
H285 C272 0.929 . S
H286 C280 0.929 . S
H287 C281 0.930 . S
Mn288 O293 2.095 . S
Mn288 O303 2.162 . S
Mn288 O304 2.297 . S
Mn288 O312 2.385 . S
Mn288 O313 2.209 . S
Mn288 O314 2.094 . S
Mn289 O294 2.121 . S
Mn289 N296 2.257 . S
Mn289 N305 2.282 . S
Mn289 O313 2.215 . S
Mn289 O315 2.117 . S
C290 O312 1.234 . S
C290 O313 1.283 . S
C291 O303 1.281 . S
C291 O304 1.236 . S
C292 O314 1.240 . S
C292 O315 1.264 . S
O293 Mn288 2.095 . S
O293 C302 1.250 . S
O294 Mn289 2.121 . S
O294 C302 1.258 . S
C295 N296 1.326 1_554 S
C295 C299 1.460 . S
C295 H301 0.929 1_554 S
N296 Mn289 2.257 . S
N296 C295 1.326 1_556 S
N296 C300 1.362 1_556 S
C297 C298 1.258 . S
C297 C300 1.431 . S
C297 C317 1.449 . S
C298 C297 1.258 . S
C298 C299 1.477 . S
C298 H318 0.931 . S
C299 C295 1.460 . S
C299 C298 1.477 . S
C299 H319 0.930 . S
C300 N296 1.362 1_554 S
C300 C297 1.431 . S
C300 C310 1.476 1_554 S
H301 C295 0.929 1_556 S
C302 O293 1.250 . S
C302 O294 1.258 . S
O303 Mn288 2.162 . S
O303 C291 1.281 . S
O304 Mn288 2.297 . S
O304 C291 1.236 . S
N305 Mn289 2.282 . S
N305 C306 1.328 . S
N305 C310 1.318 . S
C306 N305 1.328 . S
C306 C307 1.457 . S
C306 H311 0.929 . S
C307 C306 1.457 . S
C307 C308 1.291 1_565 S
C307 H320 0.931 1_565 S
C308 C307 1.291 1_545 S
C308 C309 1.373 1_546 S
C308 H321 0.929 . S
C309 C308 1.373 1_564 S
C309 C310 1.396 1_554 S
C309 C316 1.403 . S
C310 C300 1.476 1_556 S
C310 N305 1.318 . S
C310 C309 1.396 1_556 S
H311 C306 0.929 . S
O312 Mn288 2.385 . S
O312 C290 1.234 . S
O313 Mn288 2.209 . S
O313 Mn289 2.215 . S
O313 C290 1.283 . S
O314 Mn288 2.094 . S
O314 C292 1.240 . S
O315 Mn289 2.117 . S
O315 C292 1.264 . S
C316 C309 1.403 . S
C316 C317 1.399 . S
C316 H322 0.929 1_565 S
C317 C297 1.449 . S
C317 C316 1.399 . S
C317 H323 0.930 . S
H318 C298 0.931 . S
H319 C299 0.930 . S
H320 C307 0.931 1_545 S
H321 C308 0.929 . S
H322 C316 0.929 1_545 S
H323 C317 0.930 . S
Mn324 O329 2.095 . S
Mn324 O339 2.162 . S
Mn324 O340 2.297 . S
Mn324 O348 2.385 . S
Mn324 O349 2.209 . S
Mn324 O350 2.094 . S
Mn325 O330 2.121 . S
Mn325 N332 2.257 . S
Mn325 N341 2.282 . S
Mn325 O349 2.215 . S
Mn325 O351 2.117 . S
C326 O348 1.234 . S
C326 O349 1.283 . S
C327 O339 1.281 . S
C327 O340 1.236 . S
C328 O350 1.240 . S
C328 O351 1.264 . S
O329 Mn324 2.095 . S
O329 C338 1.250 . S
O330 Mn325 2.121 . S
O330 C338 1.258 . S
C331 N332 1.326 1_554 S
C331 C335 1.460 . S
C331 H337 0.929 1_554 S
N332 Mn325 2.257 . S
N332 C331 1.326 1_556 S
N332 C336 1.362 1_556 S
C333 C334 1.258 . S
C333 C336 1.431 . S
C333 C353 1.449 . S
C334 C333 1.258 . S
C334 C335 1.477 . S
C334 H354 0.931 . S
C335 C331 1.460 . S
C335 C334 1.477 . S
C335 H355 0.930 . S
C336 N332 1.362 1_554 S
C336 C333 1.431 . S
C336 C346 1.476 1_554 S
H337 C331 0.929 1_556 S
C338 O329 1.250 . S
C338 O330 1.258 . S
O339 Mn324 2.162 . S
O339 C327 1.281 . S
O340 Mn324 2.297 . S
O340 C327 1.236 . S
N341 Mn325 2.282 . S
N341 C342 1.328 . S
N341 C346 1.318 . S
C342 N341 1.328 . S
C342 C343 1.457 . S
C342 H347 0.929 . S
C343 C342 1.457 . S
C343 C344 1.291 . S
C343 H356 0.931 . S
C344 C343 1.291 . S
C344 C345 1.373 1_556 S
C344 H357 0.929 . S
C345 C344 1.373 1_554 S
C345 C346 1.396 1_554 S
C345 C352 1.403 . S
C346 C336 1.476 1_556 S
C346 N341 1.318 . S
C346 C345 1.396 1_556 S
H347 C342 0.929 . S
O348 Mn324 2.385 . S
O348 C326 1.234 . S
O349 Mn324 2.209 . S
O349 Mn325 2.215 . S
O349 C326 1.283 . S
O350 Mn324 2.094 . S
O350 C328 1.240 . S
O351 Mn325 2.117 . S
O351 C328 1.264 . S
C352 C345 1.403 . S
C352 C353 1.399 . S
C352 H358 0.929 . S
C353 C333 1.449 . S
C353 C352 1.399 . S
C353 H359 0.930 . S
H354 C334 0.931 . S
H355 C335 0.930 . S
H356 C343 0.931 . S
H357 C344 0.929 . S
H358 C352 0.929 . S
H359 C353 0.930 . S
Mn360 O365 2.095 . S
Mn360 O375 2.162 . S
Mn360 O376 2.297 . S
Mn360 O384 2.385 . S
Mn360 O385 2.209 . S
Mn360 O386 2.094 . S
Mn361 O366 2.121 . S
Mn361 N368 2.257 . S
Mn361 N377 2.282 . S
Mn361 O385 2.215 . S
Mn361 O387 2.117 . S
C362 O384 1.234 . S
C362 O385 1.283 . S
C363 O375 1.281 . S
C363 O376 1.236 . S
C364 O386 1.240 . S
C364 O387 1.264 . S
O365 Mn360 2.095 . S
O365 C374 1.250 . S
O366 Mn361 2.121 . S
O366 C374 1.258 . S
C367 N368 1.326 . S
C367 C371 1.460 . S
C367 H373 0.929 . S
N368 Mn361 2.257 . S
N368 C367 1.326 . S
N368 C372 1.362 . S
C369 C370 1.258 . S
C369 C372 1.431 . S
C369 C389 1.449 . S
C370 C369 1.258 . S
C370 C371 1.477 . S
C370 H390 0.931 . S
C371 C367 1.460 . S
C371 C370 1.477 . S
C371 H391 0.930 . S
C372 N368 1.362 . S
C372 C369 1.431 . S
C372 C382 1.476 . S
H373 C367 0.929 . S
C374 O365 1.250 . S
C374 O366 1.258 . S
O375 Mn360 2.162 . S
O375 C363 1.281 . S
O376 Mn360 2.297 . S
O376 C363 1.236 . S
N377 Mn361 2.282 . S
N377 C378 1.328 . S
N377 C382 1.318 . S
C378 N377 1.328 . S
C378 C379 1.457 . S
C378 H383 0.929 . S
C379 C378 1.457 . S
C379 C380 1.291 . S
C379 H392 0.931 . S
C380 C379 1.291 . S
C380 C381 1.373 . S
C380 H393 0.929 . S
C381 C380 1.373 . S
C381 C382 1.396 . S
C381 C388 1.403 . S
C382 C372 1.476 . S
C382 N377 1.318 . S
C382 C381 1.396 . S
H383 C378 0.929 . S
O384 Mn360 2.385 . S
O384 C362 1.234 . S
O385 Mn360 2.209 . S
O385 Mn361 2.215 . S
O385 C362 1.283 . S
O386 Mn360 2.094 . S
O386 C364 1.240 . S
O387 Mn361 2.117 . S
O387 C364 1.264 . S
C388 C381 1.403 . S
C388 C389 1.399 . S
C388 H394 0.929 . S
C389 C369 1.449 . S
C389 C388 1.399 . S
C389 H395 0.930 . S
H390 C370 0.931 . S
H391 C371 0.930 . S
H392 C379 0.931 . S
H393 C380 0.929 . S
H394 C388 0.929 . S
H395 C389 0.930 . S
Mn396 O401 2.095 . S
Mn396 O411 2.162 . S
Mn396 O412 2.297 . S
Mn396 O420 2.385 . S
Mn396 O421 2.209 . S
Mn396 O422 2.094 . S
Mn397 O402 2.121 . S
Mn397 N404 2.257 . S
Mn397 N413 2.282 . S
Mn397 O421 2.215 . S
Mn397 O423 2.117 . S
C398 O420 1.234 . S
C398 O421 1.283 . S
C399 O411 1.281 . S
C399 O412 1.236 . S
C400 O422 1.240 . S
C400 O423 1.264 . S
O401 Mn396 2.095 . S
O401 C410 1.250 . S
O402 Mn397 2.121 . S
O402 C410 1.258 . S
C403 N404 1.326 . S
C403 C407 1.460 . S
C403 H409 0.929 . S
N404 Mn397 2.257 . S
N404 C403 1.326 . S
N404 C408 1.362 . S
C405 C406 1.258 . S
C405 C408 1.431 . S
C405 C425 1.449 . S
C406 C405 1.258 . S
C406 C407 1.477 . S
C406 H426 0.931 . S
C407 C403 1.460 . S
C407 C406 1.477 . S
C407 H427 0.930 . S
C408 N404 1.362 . S
C408 C405 1.431 . S
C408 C418 1.476 . S
H409 C403 0.929 . S
C410 O401 1.250 . S
C410 O402 1.258 . S
O411 Mn396 2.162 . S
O411 C399 1.281 . S
O412 Mn396 2.297 . S
O412 C399 1.236 . S
N413 Mn397 2.282 . S
N413 C414 1.328 . S
N413 C418 1.318 . S
C414 N413 1.328 . S
C414 C415 1.457 . S
C414 H419 0.929 . S
C415 C414 1.457 . S
C415 C416 1.291 1_565 S
C415 H428 0.931 1_565 S
C416 C415 1.291 1_545 S
C416 C417 1.373 1_545 S
C416 H429 0.929 . S
C417 C416 1.373 1_565 S
C417 C418 1.396 . S
C417 C424 1.403 . S
C418 C408 1.476 . S
C418 N413 1.318 . S
C418 C417 1.396 . S
H419 C414 0.929 . S
O420 Mn396 2.385 . S
O420 C398 1.234 . S
O421 Mn396 2.209 . S
O421 Mn397 2.215 . S
O421 C398 1.283 . S
O422 Mn396 2.094 . S
O422 C400 1.240 . S
O423 Mn397 2.117 . S
O423 C400 1.264 . S
C424 C417 1.403 . S
C424 C425 1.399 . S
C424 H430 0.929 1_565 S
C425 C405 1.449 . S
C425 C424 1.399 . S
C425 H431 0.930 . S
H426 C406 0.931 . S
H427 C407 0.930 . S
H428 C415 0.931 1_545 S
H429 C416 0.929 . S
H430 C424 0.929 1_545 S
H431 C425 0.930 . S
Mn432 O437 2.095 . S
Mn432 O447 2.162 . S
Mn432 O448 2.297 . S
Mn432 O456 2.385 . S
Mn432 O457 2.209 . S
Mn432 O458 2.094 . S
Mn433 O438 2.121 . S
Mn433 N440 2.257 . S
Mn433 N449 2.282 . S
Mn433 O457 2.215 . S
Mn433 O459 2.117 . S
C434 O456 1.234 . S
C434 O457 1.283 . S
C435 O447 1.281 . S
C435 O448 1.236 . S
C436 O458 1.240 . S
C436 O459 1.264 . S
O437 Mn432 2.095 . S
O437 C446 1.250 . S
O438 Mn433 2.121 . S
O438 C446 1.258 . S
C439 N440 1.326 1_556 S
C439 C443 1.460 . S
C439 H445 0.929 1_556 S
N440 Mn433 2.257 . S
N440 C439 1.326 1_554 S
N440 C444 1.362 1_554 S
C441 C442 1.258 . S
C441 C444 1.431 . S
C441 C461 1.449 . S
C442 C441 1.258 . S
C442 C443 1.477 . S
C442 H462 0.931 . S
C443 C439 1.460 . S
C443 C442 1.477 . S
C443 H463 0.930 . S
C444 N440 1.362 1_556 S
C444 C441 1.431 . S
C444 C454 1.476 1_556 S
H445 C439 0.929 1_554 S
C446 O437 1.250 . S
C446 O438 1.258 . S
O447 Mn432 2.162 . S
O447 C435 1.281 . S
O448 Mn432 2.297 . S
O448 C435 1.236 . S
N449 Mn433 2.282 . S
N449 C450 1.328 . S
N449 C454 1.318 . S
C450 N449 1.328 . S
C450 C451 1.457 . S
C450 H455 0.929 . S
C451 C450 1.457 . S
C451 C452 1.291 1_545 S
C451 H464 0.931 1_545 S
C452 C451 1.291 1_565 S
C452 C453 1.373 1_564 S
C452 H465 0.929 . S
C453 C452 1.373 1_546 S
C453 C454 1.396 1_556 S
C453 C460 1.403 . S
C454 C444 1.476 1_554 S
C454 N449 1.318 . S
C454 C453 1.396 1_554 S
H455 C450 0.929 . S
O456 Mn432 2.385 . S
O456 C434 1.234 . S
O457 Mn432 2.209 . S
O457 Mn433 2.215 . S
O457 C434 1.283 . S
O458 Mn432 2.094 . S
O458 C436 1.240 . S
O459 Mn433 2.117 . S
O459 C436 1.264 . S
C460 C453 1.403 . S
C460 C461 1.399 . S
C460 H466 0.929 1_545 S
C461 C441 1.449 . S
C461 C460 1.399 . S
C461 H467 0.930 . S
H462 C442 0.931 . S
H463 C443 0.930 . S
H464 C451 0.931 1_565 S
H465 C452 0.929 . S
H466 C460 0.929 1_565 S
H467 C461 0.930 . S
Mn468 O473 2.095 . S
Mn468 O483 2.162 . S
Mn468 O484 2.297 . S
Mn468 O492 2.385 . S
Mn468 O493 2.209 . S
Mn468 O494 2.094 . S
Mn469 O474 2.121 . S
Mn469 N476 2.257 . S
Mn469 N485 2.282 . S
Mn469 O493 2.215 . S
Mn469 O495 2.117 . S
C470 O492 1.234 . S
C470 O493 1.283 . S
C471 O483 1.281 . S
C471 O484 1.236 . S
C472 O494 1.240 . S
C472 O495 1.264 . S
O473 Mn468 2.095 . S
O473 C482 1.250 . S
O474 Mn469 2.121 . S
O474 C482 1.258 . S
C475 N476 1.326 1_556 S
C475 C479 1.460 . S
C475 H481 0.929 1_556 S
N476 Mn469 2.257 . S
N476 C475 1.326 1_554 S
N476 C480 1.362 1_554 S
C477 C478 1.258 . S
C477 C480 1.431 . S
C477 C497 1.449 . S
C478 C477 1.258 . S
C478 C479 1.477 . S
C478 H498 0.931 . S
C479 C475 1.460 . S
C479 C478 1.477 . S
C479 H499 0.930 . S
C480 N476 1.362 1_556 S
C480 C477 1.431 . S
C480 C490 1.476 1_556 S
H481 C475 0.929 1_554 S
C482 O473 1.250 . S
C482 O474 1.258 . S
O483 Mn468 2.162 . S
O483 C471 1.281 . S
O484 Mn468 2.297 . S
O484 C471 1.236 . S
N485 Mn469 2.282 . S
N485 C486 1.328 . S
N485 C490 1.318 . S
C486 N485 1.328 . S
C486 C487 1.457 . S
C486 H491 0.929 . S
C487 C486 1.457 . S
C487 C488 1.291 . S
C487 H500 0.931 . S
C488 C487 1.291 . S
C488 C489 1.373 1_554 S
C488 H501 0.929 . S
C489 C488 1.373 1_556 S
C489 C490 1.396 1_556 S
C489 C496 1.403 . S
C490 C480 1.476 1_554 S
C490 N485 1.318 . S
C490 C489 1.396 1_554 S
H491 C486 0.929 . S
O492 Mn468 2.385 . S
O492 C470 1.234 . S
O493 Mn468 2.209 . S
O493 Mn469 2.215 . S
O493 C470 1.283 . S
O494 Mn468 2.094 . S
O494 C472 1.240 . S
O495 Mn469 2.117 . S
O495 C472 1.264 . S
C496 C489 1.403 . S
C496 C497 1.399 . S
C496 H502 0.929 . S
C497 C477 1.449 . S
C497 C496 1.399 . S
C497 H503 0.930 . S
H498 C478 0.931 . S
H499 C479 0.930 . S
H500 C487 0.931 . S
H501 C488 0.929 . S
H502 C496 0.929 . S
H503 C497 0.930 . S
Mn504 O509 2.095 . S
Mn504 O519 2.162 . S
Mn504 O520 2.297 . S
Mn504 O528 2.385 . S
Mn504 O529 2.209 . S
Mn504 O530 2.094 . S
Mn505 O510 2.121 . S
Mn505 N512 2.257 . S
Mn505 N521 2.282 . S
Mn505 O529 2.215 . S
Mn505 O531 2.117 . S
C506 O528 1.234 . S
C506 O529 1.283 . S
C507 O519 1.281 . S
C507 O520 1.236 . S
C508 O530 1.240 . S
C508 O531 1.264 . S
O509 Mn504 2.095 . S
O509 C518 1.250 . S
O510 Mn505 2.121 . S
O510 C518 1.258 . S
C511 N512 1.326 . S
C511 C515 1.460 . S
C511 H517 0.929 . S
N512 Mn505 2.257 . S
N512 C511 1.326 . S
N512 C516 1.362 . S
C513 C514 1.258 . S
C513 C516 1.431 . S
C513 C533 1.449 . S
C514 C513 1.258 . S
C514 C515 1.477 . S
C514 H534 0.931 . S
C515 C511 1.460 . S
C515 C514 1.477 . S
C515 H535 0.930 . S
C516 N512 1.362 . S
C516 C513 1.431 . S
C516 C526 1.476 . S
H517 C511 0.929 . S
C518 O509 1.250 . S
C518 O510 1.258 . S
O519 Mn504 2.162 . S
O519 C507 1.281 . S
O520 Mn504 2.297 . S
O520 C507 1.236 . S
N521 Mn505 2.282 . S
N521 C522 1.328 . S
N521 C526 1.318 . S
C522 N521 1.328 . S
C522 C523 1.457 . S
C522 H527 0.929 . S
C523 C522 1.457 . S
C523 C524 1.291 . S
C523 H536 0.931 . S
C524 C523 1.291 . S
C524 C525 1.373 . S
C524 H537 0.929 . S
C525 C524 1.373 . S
C525 C526 1.396 . S
C525 C532 1.403 . S
C526 C516 1.476 . S
C526 N521 1.318 . S
C526 C525 1.396 . S
H527 C522 0.929 . S
O528 Mn504 2.385 . S
O528 C506 1.234 . S
O529 Mn504 2.209 . S
O529 Mn505 2.215 . S
O529 C506 1.283 . S
O530 Mn504 2.094 . S
O530 C508 1.240 . S
O531 Mn505 2.117 . S
O531 C508 1.264 . S
C532 C525 1.403 . S
C532 C533 1.399 . S
C532 H538 0.929 . S
C533 C513 1.449 . S
C533 C532 1.399 . S
C533 H539 0.930 . S
H534 C514 0.931 . S
H535 C515 0.930 . S
H536 C523 0.931 . S
H537 C524 0.929 . S
H538 C532 0.929 . S
H539 C533 0.930 . S
Mn540 O545 2.095 . S
Mn540 O555 2.162 . S
Mn540 O556 2.297 . S
Mn540 O564 2.385 . S
Mn540 O565 2.209 . S
Mn540 O566 2.094 . S
Mn541 O546 2.121 . S
Mn541 N548 2.257 . S
Mn541 N557 2.282 . S
Mn541 O565 2.215 . S
Mn541 O567 2.117 . S
C542 O564 1.234 . S
C542 O565 1.283 . S
C543 O555 1.281 . S
C543 O556 1.236 . S
C544 O566 1.240 . S
C544 O567 1.264 . S
O545 Mn540 2.095 . S
O545 C554 1.250 . S
O546 Mn541 2.121 . S
O546 C554 1.258 . S
C547 N548 1.326 . S
C547 C551 1.460 . S
C547 H553 0.929 . S
N548 Mn541 2.257 . S
N548 C547 1.326 . S
N548 C552 1.362 . S
C549 C550 1.258 . S
C549 C552 1.431 . S
C549 C569 1.449 . S
C550 C549 1.258 . S
C550 C551 1.477 . S
C550 H570 0.931 . S
C551 C547 1.460 . S
C551 C550 1.477 . S
C551 H571 0.930 . S
C552 N548 1.362 . S
C552 C549 1.431 . S
C552 C562 1.476 . S
H553 C547 0.929 . S
C554 O545 1.250 . S
C554 O546 1.258 . S
O555 Mn540 2.162 . S
O555 C543 1.281 . S
O556 Mn540 2.297 . S
O556 C543 1.236 . S
N557 Mn541 2.282 . S
N557 C558 1.328 . S
N557 C562 1.318 . S
C558 N557 1.328 . S
C558 C559 1.457 . S
C558 H563 0.929 . S
C559 C558 1.457 . S
C559 C560 1.291 1_545 S
C559 H572 0.931 1_545 S
C560 C559 1.291 1_565 S
C560 C561 1.373 1_565 S
C560 H573 0.929 . S
C561 C560 1.373 1_545 S
C561 C562 1.396 . S
C561 C568 1.403 . S
C562 C552 1.476 . S
C562 N557 1.318 . S
C562 C561 1.396 . S
H563 C558 0.929 . S
O564 Mn540 2.385 . S
O564 C542 1.234 . S
O565 Mn540 2.209 . S
O565 Mn541 2.215 . S
O565 C542 1.283 . S
O566 Mn540 2.094 . S
O566 C544 1.240 . S
O567 Mn541 2.117 . S
O567 C544 1.264 . S
C568 C561 1.403 . S
C568 C569 1.399 . S
C568 H574 0.929 1_545 S
C569 C549 1.449 . S
C569 C568 1.399 . S
C569 H575 0.930 . S
H570 C550 0.931 . S
H571 C551 0.930 . S
H572 C559 0.931 1_565 S
H573 C560 0.929 . S
H574 C568 0.929 1_565 S
H575 C569 0.930 . S
Mn576 O581 2.095 1_545 S
Mn576 O591 2.162 . S
Mn576 O592 2.297 . S
Mn576 O600 2.385 . S
Mn576 O601 2.209 . S
Mn576 O602 2.094 . S
Mn577 O582 2.121 1_545 S
Mn577 N584 2.257 . S
Mn577 N593 2.282 . S
Mn577 O601 2.215 . S
Mn577 O603 2.117 . S
C578 O600 1.234 . S
C578 O601 1.283 . S
C579 O591 1.281 . S
C579 O592 1.236 . S
C580 O602 1.240 . S
C580 O603 1.264 . S
O581 Mn576 2.095 1_565 S
O581 C590 1.250 . S
O582 Mn577 2.121 1_565 S
O582 C590 1.258 . S
C583 N584 1.326 1_554 S
C583 C587 1.460 . S
C583 H589 0.929 1_554 S
N584 Mn577 2.257 . S
N584 C583 1.326 1_556 S
N584 C588 1.362 1_556 S
C585 C586 1.258 . S
C585 C588 1.431 . S
C585 C605 1.449 . S
C586 C585 1.258 . S
C586 C587 1.477 . S
C586 H606 0.931 . S
C587 C583 1.460 . S
C587 C586 1.477 . S
C587 H607 0.930 . S
C588 N584 1.362 1_554 S
C588 C585 1.431 . S
C588 C598 1.476 1_554 S
H589 C583 0.929 1_556 S
C590 O581 1.250 . S
C590 O582 1.258 . S
O591 Mn576 2.162 . S
O591 C579 1.281 . S
O592 Mn576 2.297 . S
O592 C579 1.236 . S
N593 Mn577 2.282 . S
N593 C594 1.328 . S
N593 C598 1.318 . S
C594 N593 1.328 . S
C594 C595 1.457 . S
C594 H599 0.929 . S
C595 C594 1.457 . S
C595 C596 1.291 . S
C595 H608 0.931 . S
C596 C595 1.291 . S
C596 C597 1.373 1_556 S
C596 H609 0.929 . S
C597 C596 1.373 1_554 S
C597 C598 1.396 1_554 S
C597 C604 1.403 . S
C598 C588 1.476 1_556 S
C598 N593 1.318 . S
C598 C597 1.396 1_556 S
H599 C594 0.929 . S
O600 Mn576 2.385 . S
O600 C578 1.234 . S
O601 Mn576 2.209 . S
O601 Mn577 2.215 . S
O601 C578 1.283 . S
O602 Mn576 2.094 . S
O602 C580 1.240 . S
O603 Mn577 2.117 . S
O603 C580 1.264 . S
C604 C597 1.403 . S
C604 C605 1.399 . S
C604 H610 0.929 . S
C605 C585 1.449 . S
C605 C604 1.399 . S
C605 H611 0.930 . S
H606 C586 0.931 . S
H607 C587 0.930 . S
H608 C595 0.931 . S
H609 C596 0.929 . S
H610 C604 0.929 . S
H611 C605 0.930 . S
Mn612 O617 2.095 . S
Mn612 O627 2.162 . S
Mn612 O628 2.297 . S
Mn612 O636 2.385 1_545 S
Mn612 O637 2.209 . S
Mn612 O638 2.094 . S
Mn613 O618 2.121 . S
Mn613 N620 2.257 . S
Mn613 N629 2.282 1_545 S
Mn613 O637 2.215 . S
Mn613 O639 2.117 . S
C614 O636 1.234 . S
C614 O637 1.283 1_565 S
C615 O627 1.281 . S
C615 O628 1.236 . S
C616 O638 1.240 . S
C616 O639 1.264 . S
O617 Mn612 2.095 . S
O617 C626 1.250 . S
O618 Mn613 2.121 . S
O618 C626 1.258 . S
C619 N620 1.326 1_554 S
C619 C623 1.460 . S
C619 H625 0.929 1_554 S
N620 Mn613 2.257 . S
N620 C619 1.326 1_556 S
N620 C624 1.362 1_546 S
C621 C622 1.258 1_565 S
C621 C624 1.431 . S
C621 C641 1.449 . S
C622 C621 1.258 1_545 S
C622 C623 1.477 . S
C622 H642 0.931 . S
C623 C619 1.460 . S
C623 C622 1.477 . S
C623 H643 0.930 . S
C624 N620 1.362 1_564 S
C624 C621 1.431 . S
C624 C634 1.476 1_554 S
H625 C619 0.929 1_556 S
C626 O617 1.250 . S
C626 O618 1.258 . S
O627 Mn612 2.162 . S
O627 C615 1.281 . S
O628 Mn612 2.297 . S
O628 C615 1.236 . S
N629 Mn613 2.282 1_565 S
N629 C630 1.328 . S
N629 C634 1.318 . S
C630 N629 1.328 . S
C630 C631 1.457 . S
C630 H635 0.929 . S
C631 C630 1.457 . S
C631 C632 1.291 . S
C631 H644 0.931 . S
C632 C631 1.291 . S
C632 C633 1.373 1_556 S
C632 H645 0.929 . S
C633 C632 1.373 1_554 S
C633 C634 1.396 1_554 S
C633 C640 1.403 . S
C634 C624 1.476 1_556 S
C634 N629 1.318 . S
C634 C633 1.396 1_556 S
H635 C630 0.929 . S
O636 Mn612 2.385 1_565 S
O636 C614 1.234 . S
O637 Mn612 2.209 . S
O637 Mn613 2.215 . S
O637 C614 1.283 1_545 S
O638 Mn612 2.094 . S
O638 C616 1.240 . S
O639 Mn613 2.117 . S
O639 C616 1.264 . S
C640 C633 1.403 . S
C640 C641 1.399 . S
C640 H646 0.929 . S
C641 C621 1.449 . S
C641 C640 1.399 . S
C641 H647 0.930 . S
H642 C622 0.931 . S
H643 C623 0.930 . S
H644 C631 0.931 . S
H645 C632 0.929 . S
H646 C640 0.929 . S
H647 C641 0.930 . S
Mn648 O653 2.095 . S
Mn648 O663 2.162 . S
Mn648 O664 2.297 . S
Mn648 O672 2.385 1_545 S
Mn648 O673 2.209 . S
Mn648 O674 2.094 . S
Mn649 O654 2.121 . S
Mn649 N656 2.257 . S
Mn649 N665 2.282 1_545 S
Mn649 O673 2.215 . S
Mn649 O675 2.117 . S
C650 O672 1.234 . S
C650 O673 1.283 1_565 S
C651 O663 1.281 . S
C651 O664 1.236 . S
C652 O674 1.240 . S
C652 O675 1.264 . S
O653 Mn648 2.095 . S
O653 C662 1.250 . S
O654 Mn649 2.121 . S
O654 C662 1.258 . S
C655 N656 1.326 . S
C655 C659 1.460 . S
C655 H661 0.929 . S
N656 Mn649 2.257 . S
N656 C655 1.326 . S
N656 C660 1.362 1_545 S
C657 C658 1.258 1_565 S
C657 C660 1.431 . S
C657 C677 1.449 . S
C658 C657 1.258 1_545 S
C658 C659 1.477 . S
C658 H678 0.931 . S
C659 C655 1.460 . S
C659 C658 1.477 . S
C659 H679 0.930 . S
C660 N656 1.362 1_565 S
C660 C657 1.431 . S
C660 C670 1.476 . S
H661 C655 0.929 . S
C662 O653 1.250 . S
C662 O654 1.258 . S
O663 Mn648 2.162 . S
O663 C651 1.281 . S
O664 Mn648 2.297 . S
O664 C651 1.236 . S
N665 Mn649 2.282 1_565 S
N665 C666 1.328 . S
N665 C670 1.318 . S
C666 N665 1.328 . S
C666 C667 1.457 . S
C666 H671 0.929 . S
C667 C666 1.457 . S
C667 C668 1.291 . S
C667 H680 0.931 . S
C668 C667 1.291 . S
C668 C669 1.373 . S
C668 H681 0.929 . S
C669 C668 1.373 . S
C669 C670 1.396 . S
C669 C676 1.403 . S
C670 C660 1.476 . S
C670 N665 1.318 . S
C670 C669 1.396 . S
H671 C666 0.929 . S
O672 Mn648 2.385 1_565 S
O672 C650 1.234 . S
O673 Mn648 2.209 . S
O673 Mn649 2.215 . S
O673 C650 1.283 1_545 S
O674 Mn648 2.094 . S
O674 C652 1.240 . S
O675 Mn649 2.117 . S
O675 C652 1.264 . S
C676 C669 1.403 . S
C676 C677 1.399 . S
C676 H682 0.929 . S
C677 C657 1.449 . S
C677 C676 1.399 . S
C677 H683 0.930 . S
H678 C658 0.931 . S
H679 C659 0.930 . S
H680 C667 0.931 . S
H681 C668 0.929 . S
H682 C676 0.929 . S
H683 C677 0.930 . S
Mn684 O689 2.095 1_545 S
Mn684 O699 2.162 . S
Mn684 O700 2.297 . S
Mn684 O708 2.385 . S
Mn684 O709 2.209 . S
Mn684 O710 2.094 . S
Mn685 O690 2.121 1_545 S
Mn685 N692 2.257 . S
Mn685 N701 2.282 . S
Mn685 O709 2.215 . S
Mn685 O711 2.117 . S
C686 O708 1.234 . S
C686 O709 1.283 . S
C687 O699 1.281 . S
C687 O700 1.236 . S
C688 O710 1.240 . S
C688 O711 1.264 . S
O689 Mn684 2.095 1_565 S
O689 C698 1.250 . S
O690 Mn685 2.121 1_565 S
O690 C698 1.258 . S
C691 N692 1.326 . S
C691 C695 1.460 . S
C691 H697 0.929 . S
N692 Mn685 2.257 . S
N692 C691 1.326 . S
N692 C696 1.362 . S
C693 C694 1.258 . S
C693 C696 1.431 . S
C693 C713 1.449 . S
C694 C693 1.258 . S
C694 C695 1.477 . S
C694 H714 0.931 . S
C695 C691 1.460 . S
C695 C694 1.477 . S
C695 H715 0.930 . S
C696 N692 1.362 . S
C696 C693 1.431 . S
C696 C706 1.476 . S
H697 C691 0.929 . S
C698 O689 1.250 . S
C698 O690 1.258 . S
O699 Mn684 2.162 . S
O699 C687 1.281 . S
O700 Mn684 2.297 . S
O700 C687 1.236 . S
N701 Mn685 2.282 . S
N701 C702 1.328 . S
N701 C706 1.318 . S
C702 N701 1.328 . S
C702 C703 1.457 . S
C702 H707 0.929 . S
C703 C702 1.457 . S
C703 C704 1.291 . S
C703 H716 0.931 . S
C704 C703 1.291 . S
C704 C705 1.373 . S
C704 H717 0.929 . S
C705 C704 1.373 . S
C705 C706 1.396 . S
C705 C712 1.403 . S
C706 C696 1.476 . S
C706 N701 1.318 . S
C706 C705 1.396 . S
H707 C702 0.929 . S
O708 Mn684 2.385 . S
O708 C686 1.234 . S
O709 Mn684 2.209 . S
O709 Mn685 2.215 . S
O709 C686 1.283 . S
O710 Mn684 2.094 . S
O710 C688 1.240 . S
O711 Mn685 2.117 . S
O711 C688 1.264 . S
C712 C705 1.403 . S
C712 C713 1.399 . S
C712 H718 0.929 . S
C713 C693 1.449 . S
C713 C712 1.399 . S
C713 H719 0.930 . S
H714 C694 0.931 . S
H715 C695 0.930 . S
H716 C703 0.931 . S
H717 C704 0.929 . S
H718 C712 0.929 . S
H719 C713 0.930 . S
Mn720 O725 2.095 1_565 S
Mn720 O735 2.162 . S
Mn720 O736 2.297 . S
Mn720 O744 2.385 . S
Mn720 O745 2.209 . S
Mn720 O746 2.094 . S
Mn721 O726 2.121 1_565 S
Mn721 N728 2.257 . S
Mn721 N737 2.282 . S
Mn721 O745 2.215 . S
Mn721 O747 2.117 . S
C722 O744 1.234 . S
C722 O745 1.283 . S
C723 O735 1.281 . S
C723 O736 1.236 . S
C724 O746 1.240 . S
C724 O747 1.264 . S
O725 Mn720 2.095 1_545 S
O725 C734 1.250 . S
O726 Mn721 2.121 1_545 S
O726 C734 1.258 . S
C727 N728 1.326 1_556 S
C727 C731 1.460 . S
C727 H733 0.929 1_556 S
N728 Mn721 2.257 . S
N728 C727 1.326 1_554 S
N728 C732 1.362 1_554 S
C729 C730 1.258 . S
C729 C732 1.431 . S
C729 C749 1.449 . S
C730 C729 1.258 . S
C730 C731 1.477 . S
C730 H750 0.931 . S
C731 C727 1.460 . S
C731 C730 1.477 . S
C731 H751 0.930 . S
C732 N728 1.362 1_556 S
C732 C729 1.431 . S
C732 C742 1.476 1_556 S
H733 C727 0.929 1_554 S
C734 O725 1.250 . S
C734 O726 1.258 . S
O735 Mn720 2.162 . S
O735 C723 1.281 . S
O736 Mn720 2.297 . S
O736 C723 1.236 . S
N737 Mn721 2.282 . S
N737 C738 1.328 . S
N737 C742 1.318 . S
C738 N737 1.328 . S
C738 C739 1.457 . S
C738 H743 0.929 . S
C739 C738 1.457 . S
C739 C740 1.291 . S
C739 H752 0.931 . S
C740 C739 1.291 . S
C740 C741 1.373 1_554 S
C740 H753 0.929 . S
C741 C740 1.373 1_556 S
C741 C742 1.396 1_556 S
C741 C748 1.403 . S
C742 C732 1.476 1_554 S
C742 N737 1.318 . S
C742 C741 1.396 1_554 S
H743 C738 0.929 . S
O744 Mn720 2.385 . S
O744 C722 1.234 . S
O745 Mn720 2.209 . S
O745 Mn721 2.215 . S
O745 C722 1.283 . S
O746 Mn720 2.094 . S
O746 C724 1.240 . S
O747 Mn721 2.117 . S
O747 C724 1.264 . S
C748 C741 1.403 . S
C748 C749 1.399 . S
C748 H754 0.929 . S
C749 C729 1.449 . S
C749 C748 1.399 . S
C749 H755 0.930 . S
H750 C730 0.931 . S
H751 C731 0.930 . S
H752 C739 0.931 . S
H753 C740 0.929 . S
H754 C748 0.929 . S
H755 C749 0.930 . S
Mn756 O761 2.095 . S
Mn756 O771 2.162 . S
Mn756 O772 2.297 . S
Mn756 O780 2.385 1_565 S
Mn756 O781 2.209 . S
Mn756 O782 2.094 . S
Mn757 O762 2.121 . S
Mn757 N764 2.257 . S
Mn757 N773 2.282 1_565 S
Mn757 O781 2.215 . S
Mn757 O783 2.117 . S
C758 O780 1.234 . S
C758 O781 1.283 1_545 S
C759 O771 1.281 . S
C759 O772 1.236 . S
C760 O782 1.240 . S
C760 O783 1.264 . S
O761 Mn756 2.095 . S
O761 C770 1.250 . S
O762 Mn757 2.121 . S
O762 C770 1.258 . S
C763 N764 1.326 1_556 S
C763 C767 1.460 . S
C763 H769 0.929 1_556 S
N764 Mn757 2.257 . S
N764 C763 1.326 1_554 S
N764 C768 1.362 1_564 S
C765 C766 1.258 1_545 S
C765 C768 1.431 . S
C765 C785 1.449 . S
C766 C765 1.258 1_565 S
C766 C767 1.477 . S
C766 H786 0.931 . S
C767 C763 1.460 . S
C767 C766 1.477 . S
C767 H787 0.930 . S
C768 N764 1.362 1_546 S
C768 C765 1.431 . S
C768 C778 1.476 1_556 S
H769 C763 0.929 1_554 S
C770 O761 1.250 . S
C770 O762 1.258 . S
O771 Mn756 2.162 . S
O771 C759 1.281 . S
O772 Mn756 2.297 . S
O772 C759 1.236 . S
N773 Mn757 2.282 1_545 S
N773 C774 1.328 . S
N773 C778 1.318 . S
C774 N773 1.328 . S
C774 C775 1.457 . S
C774 H779 0.929 . S
C775 C774 1.457 . S
C775 C776 1.291 . S
C775 H788 0.931 . S
C776 C775 1.291 . S
C776 C777 1.373 1_554 S
C776 H789 0.929 . S
C777 C776 1.373 1_556 S
C777 C778 1.396 1_556 S
C777 C784 1.403 . S
C778 C768 1.476 1_554 S
C778 N773 1.318 . S
C778 C777 1.396 1_554 S
H779 C774 0.929 . S
O780 Mn756 2.385 1_545 S
O780 C758 1.234 . S
O781 Mn756 2.209 . S
O781 Mn757 2.215 . S
O781 C758 1.283 1_565 S
O782 Mn756 2.094 . S
O782 C760 1.240 . S
O783 Mn757 2.117 . S
O783 C760 1.264 . S
C784 C777 1.403 . S
C784 C785 1.399 . S
C784 H790 0.929 . S
C785 C765 1.449 . S
C785 C784 1.399 . S
C785 H791 0.930 . S
H786 C766 0.931 . S
H787 C767 0.930 . S
H788 C775 0.931 . S
H789 C776 0.929 . S
H790 C784 0.929 . S
H791 C785 0.930 . S
Mn792 O797 2.095 . S
Mn792 O807 2.162 . S
Mn792 O808 2.297 . S
Mn792 O816 2.385 1_565 S
Mn792 O817 2.209 . S
Mn792 O818 2.094 . S
Mn793 O798 2.121 . S
Mn793 N800 2.257 . S
Mn793 N809 2.282 1_565 S
Mn793 O817 2.215 . S
Mn793 O819 2.117 . S
C794 O816 1.234 . S
C794 O817 1.283 1_545 S
C795 O807 1.281 . S
C795 O808 1.236 . S
C796 O818 1.240 . S
C796 O819 1.264 . S
O797 Mn792 2.095 . S
O797 C806 1.250 . S
O798 Mn793 2.121 . S
O798 C806 1.258 . S
C799 N800 1.326 . S
C799 C803 1.460 . S
C799 H805 0.929 . S
N800 Mn793 2.257 . S
N800 C799 1.326 . S
N800 C804 1.362 1_565 S
C801 C802 1.258 1_545 S
C801 C804 1.431 . S
C801 C821 1.449 . S
C802 C801 1.258 1_565 S
C802 C803 1.477 . S
C802 H822 0.931 . S
C803 C799 1.460 . S
C803 C802 1.477 . S
C803 H823 0.930 . S
C804 N800 1.362 1_545 S
C804 C801 1.431 . S
C804 C814 1.476 . S
H805 C799 0.929 . S
C806 O797 1.250 . S
C806 O798 1.258 . S
O807 Mn792 2.162 . S
O807 C795 1.281 . S
O808 Mn792 2.297 . S
O808 C795 1.236 . S
N809 Mn793 2.282 1_545 S
N809 C810 1.328 . S
N809 C814 1.318 . S
C810 N809 1.328 . S
C810 C811 1.457 . S
C810 H815 0.929 . S
C811 C810 1.457 . S
C811 C812 1.291 . S
C811 H824 0.931 . S
C812 C811 1.291 . S
C812 C813 1.373 . S
C812 H825 0.929 . S
C813 C812 1.373 . S
C813 C814 1.396 . S
C813 C820 1.403 . S
C814 C804 1.476 . S
C814 N809 1.318 . S
C814 C813 1.396 . S
H815 C810 0.929 . S
O816 Mn792 2.385 1_545 S
O816 C794 1.234 . S
O817 Mn792 2.209 . S
O817 Mn793 2.215 . S
O817 C794 1.283 1_565 S
O818 Mn792 2.094 . S
O818 C796 1.240 . S
O819 Mn793 2.117 . S
O819 C796 1.264 . S
C820 C813 1.403 . S
C820 C821 1.399 . S
C820 H826 0.929 . S
C821 C801 1.449 . S
C821 C820 1.399 . S
C821 H827 0.930 . S
H822 C802 0.931 . S
H823 C803 0.930 . S
H824 C811 0.931 . S
H825 C812 0.929 . S
H826 C820 0.929 . S
H827 C821 0.930 . S
Mn828 O833 2.095 1_565 S
Mn828 O843 2.162 . S
Mn828 O844 2.297 . S
Mn828 O852 2.385 . S
Mn828 O853 2.209 . S
Mn828 O854 2.094 . S
Mn829 O834 2.121 1_565 S
Mn829 N836 2.257 . S
Mn829 N845 2.282 . S
Mn829 O853 2.215 . S
Mn829 O855 2.117 . S
C830 O852 1.234 . S
C830 O853 1.283 . S
C831 O843 1.281 . S
C831 O844 1.236 . S
C832 O854 1.240 . S
C832 O855 1.264 . S
O833 Mn828 2.095 1_545 S
O833 C842 1.250 . S
O834 Mn829 2.121 1_545 S
O834 C842 1.258 . S
C835 N836 1.326 . S
C835 C839 1.460 . S
C835 H841 0.929 . S
N836 Mn829 2.257 . S
N836 C835 1.326 . S
N836 C840 1.362 . S
C837 C838 1.258 . S
C837 C840 1.431 . S
C837 C857 1.449 . S
C838 C837 1.258 . S
C838 C839 1.477 . S
C838 H858 0.931 . S
C839 C835 1.460 . S
C839 C838 1.477 . S
C839 H859 0.930 . S
C840 N836 1.362 . S
C840 C837 1.431 . S
C840 C850 1.476 . S
H841 C835 0.929 . S
C842 O833 1.250 . S
C842 O834 1.258 . S
O843 Mn828 2.162 . S
O843 C831 1.281 . S
O844 Mn828 2.297 . S
O844 C831 1.236 . S
N845 Mn829 2.282 . S
N845 C846 1.328 . S
N845 C850 1.318 . S
C846 N845 1.328 . S
C846 C847 1.457 . S
C846 H851 0.929 . S
C847 C846 1.457 . S
C847 C848 1.291 . S
C847 H860 0.931 . S
C848 C847 1.291 . S
C848 C849 1.373 . S
C848 H861 0.929 . S
C849 C848 1.373 . S
C849 C850 1.396 . S
C849 C856 1.403 . S
C850 C840 1.476 . S
C850 N845 1.318 . S
C850 C849 1.396 . S
H851 C846 0.929 . S
O852 Mn828 2.385 . S
O852 C830 1.234 . S
O853 Mn828 2.209 . S
O853 Mn829 2.215 . S
O853 C830 1.283 . S
O854 Mn828 2.094 . S
O854 C832 1.240 . S
O855 Mn829 2.117 . S
O855 C832 1.264 . S
C856 C849 1.403 . S
C856 C857 1.399 . S
C856 H862 0.929 . S
C857 C837 1.449 . S
C857 C856 1.399 . S
C857 H863 0.930 . S
H858 C838 0.931 . S
H859 C839 0.930 . S
H860 C847 0.931 . S
H861 C848 0.929 . S
H862 C856 0.929 . S
H863 C857 0.930 . S
Mn864 O869 2.095 . S
Mn864 O879 2.162 . S
Mn864 O880 2.297 . S
Mn864 O888 2.385 . S
Mn864 O889 2.209 . S
Mn864 O890 2.094 . S
Mn865 O870 2.121 . S
Mn865 N872 2.257 . S
Mn865 N881 2.282 . S
Mn865 O889 2.215 . S
Mn865 O891 2.117 . S
C866 O888 1.234 . S
C866 O889 1.283 . S
C867 O879 1.281 . S
C867 O880 1.236 . S
C868 O890 1.240 . S
C868 O891 1.264 . S
O869 Mn864 2.095 . S
O869 C878 1.250 . S
O870 Mn865 2.121 . S
O870 C878 1.258 . S
C871 N872 1.326 . S
C871 C875 1.460 . S
C871 H877 0.929 . S
N872 Mn865 2.257 . S
N872 C871 1.326 . S
N872 C876 1.362 . S
C873 C874 1.258 . S
C873 C876 1.431 . S
C873 C893 1.449 . S
C874 C873 1.258 . S
C874 C875 1.477 . S
C874 H894 0.931 . S
C875 C871 1.460 . S
C875 C874 1.477 . S
C875 H895 0.930 . S
C876 N872 1.362 . S
C876 C873 1.431 . S
C876 C886 1.476 . S
H877 C871 0.929 . S
C878 O869 1.250 . S
C878 O870 1.258 . S
O879 Mn864 2.162 . S
O879 C867 1.281 . S
O880 Mn864 2.297 . S
O880 C867 1.236 . S
N881 Mn865 2.282 . S
N881 C882 1.328 . S
N881 C886 1.318 . S
C882 N881 1.328 . S
C882 C883 1.457 . S
C882 H887 0.929 . S
C883 C882 1.457 . S
C883 C884 1.291 1_565 S
C883 H896 0.931 1_565 S
C884 C883 1.291 1_545 S
C884 C885 1.373 1_545 S
C884 H897 0.929 . S
C885 C884 1.373 1_565 S
C885 C886 1.396 . S
C885 C892 1.403 . S
C886 C876 1.476 . S
C886 N881 1.318 . S
C886 C885 1.396 . S
H887 C882 0.929 . S
O888 Mn864 2.385 . S
O888 C866 1.234 . S
O889 Mn864 2.209 . S
O889 Mn865 2.215 . S
O889 C866 1.283 . S
O890 Mn864 2.094 . S
O890 C868 1.240 . S
O891 Mn865 2.117 . S
O891 C868 1.264 . S
C892 C885 1.403 . S
C892 C893 1.399 . S
C892 H898 0.929 1_565 S
C893 C873 1.449 . S
C893 C892 1.399 . S
C893 H899 0.930 . S
H894 C874 0.931 . S
H895 C875 0.930 . S
H896 C883 0.931 1_545 S
H897 C884 0.929 . S
H898 C892 0.929 1_545 S
H899 C893 0.930 . S
Mn900 O905 2.095 . S
Mn900 O915 2.162 . S
Mn900 O916 2.297 . S
Mn900 O924 2.385 . S
Mn900 O925 2.209 . S
Mn900 O926 2.094 . S
Mn901 O906 2.121 . S
Mn901 N908 2.257 . S
Mn901 N917 2.282 . S
Mn901 O925 2.215 . S
Mn901 O927 2.117 . S
C902 O924 1.234 . S
C902 O925 1.283 . S
C903 O915 1.281 . S
C903 O916 1.236 . S
C904 O926 1.240 . S
C904 O927 1.264 . S
O905 Mn900 2.095 . S
O905 C914 1.250 . S
O906 Mn901 2.121 . S
O906 C914 1.258 . S
C907 N908 1.326 . S
C907 C911 1.460 . S
C907 H913 0.929 . S
N908 Mn901 2.257 . S
N908 C907 1.326 . S
N908 C912 1.362 . S
C909 C910 1.258 . S
C909 C912 1.431 . S
C909 C929 1.449 . S
C910 C909 1.258 . S
C910 C911 1.477 . S
C910 H930 0.931 . S
C911 C907 1.460 . S
C911 C910 1.477 . S
C911 H931 0.930 . S
C912 N908 1.362 . S
C912 C909 1.431 . S
C912 C922 1.476 . S
H913 C907 0.929 . S
C914 O905 1.250 . S
C914 O906 1.258 . S
O915 Mn900 2.162 . S
O915 C903 1.281 . S
O916 Mn900 2.297 . S
O916 C903 1.236 . S
N917 Mn901 2.282 . S
N917 C918 1.328 . S
N917 C922 1.318 . S
C918 N917 1.328 . S
C918 C919 1.457 . S
C918 H923 0.929 . S
C919 C918 1.457 . S
C919 C920 1.291 . S
C919 H932 0.931 . S
C920 C919 1.291 . S
C920 C921 1.373 . S
C920 H933 0.929 . S
C921 C920 1.373 . S
C921 C922 1.396 . S
C921 C928 1.403 . S
C922 C912 1.476 . S
C922 N917 1.318 . S
C922 C921 1.396 . S
H923 C918 0.929 . S
O924 Mn900 2.385 . S
O924 C902 1.234 . S
O925 Mn900 2.209 . S
O925 Mn901 2.215 . S
O925 C902 1.283 . S
O926 Mn900 2.094 . S
O926 C904 1.240 . S
O927 Mn901 2.117 . S
O927 C904 1.264 . S
C928 C921 1.403 . S
C928 C929 1.399 . S
C928 H934 0.929 . S
C929 C909 1.449 . S
C929 C928 1.399 . S
C929 H935 0.930 . S
H930 C910 0.931 . S
H931 C911 0.930 . S
H932 C919 0.931 . S
H933 C920 0.929 . S
H934 C928 0.929 . S
H935 C929 0.930 . S
Mn936 O941 2.095 . S
Mn936 O951 2.162 1_556 S
Mn936 O952 2.297 . S
Mn936 O960 2.385 . S
Mn936 O961 2.209 . S
Mn936 O962 2.094 . S
Mn937 O942 2.121 . S
Mn937 N944 2.257 . S
Mn937 N953 2.282 . S
Mn937 O961 2.215 . S
Mn937 O963 2.117 . S
C938 O960 1.234 . S
C938 O961 1.283 . S
C939 O951 1.281 1_556 S
C939 O952 1.236 . S
C940 O962 1.240 . S
C940 O963 1.264 . S
O941 Mn936 2.095 . S
O941 C950 1.250 . S
O942 Mn937 2.121 . S
O942 C950 1.258 . S
C943 N944 1.326 . S
C943 C947 1.460 . S
C943 H949 0.929 . S
N944 Mn937 2.257 . S
N944 C943 1.326 . S
N944 C948 1.362 . S
C945 C946 1.258 . S
C945 C948 1.431 . S
C945 C965 1.449 . S
C946 C945 1.258 . S
C946 C947 1.477 . S
C946 H966 0.931 . S
C947 C943 1.460 . S
C947 C946 1.477 . S
C947 H967 0.930 . S
C948 N944 1.362 . S
C948 C945 1.431 . S
C948 C958 1.476 . S
H949 C943 0.929 . S
C950 O941 1.250 . S
C950 O942 1.258 . S
O951 Mn936 2.162 1_554 S
O951 C939 1.281 1_554 S
O952 Mn936 2.297 . S
O952 C939 1.236 . S
N953 Mn937 2.282 . S
N953 C954 1.328 . S
N953 C958 1.318 . S
C954 N953 1.328 . S
C954 C955 1.457 . S
C954 H959 0.929 . S
C955 C954 1.457 . S
C955 C956 1.291 . S
C955 H968 0.931 . S
C956 C955 1.291 . S
C956 C957 1.373 . S
C956 H969 0.929 . S
C957 C956 1.373 . S
C957 C958 1.396 . S
C957 C964 1.403 . S
C958 C948 1.476 . S
C958 N953 1.318 . S
C958 C957 1.396 . S
H959 C954 0.929 . S
O960 Mn936 2.385 . S
O960 C938 1.234 . S
O961 Mn936 2.209 . S
O961 Mn937 2.215 . S
O961 C938 1.283 . S
O962 Mn936 2.094 . S
O962 C940 1.240 . S
O963 Mn937 2.117 . S
O963 C940 1.264 . S
C964 C957 1.403 . S
C964 C965 1.399 . S
C964 H970 0.929 . S
C965 C945 1.449 . S
C965 C964 1.399 . S
C965 H971 0.930 . S
H966 C946 0.931 . S
H967 C947 0.930 . S
H968 C955 0.931 . S
H969 C956 0.929 . S
H970 C964 0.929 . S
H971 C965 0.930 . S
Mn972 O977 2.095 . S
Mn972 O987 2.162 1_556 S
Mn972 O988 2.297 . S
Mn972 O996 2.385 . S
Mn972 O997 2.209 . S
Mn972 O998 2.094 . S
Mn973 O978 2.121 . S
Mn973 N980 2.257 . S
Mn973 N989 2.282 . S
Mn973 O997 2.215 . S
Mn973 O999 2.117 . S
C974 O996 1.234 . S
C974 O997 1.283 . S
C975 O987 1.281 1_556 S
C975 O988 1.236 . S
C976 O998 1.240 . S
C976 O999 1.264 . S
O977 Mn972 2.095 . S
O977 C986 1.250 . S
O978 Mn973 2.121 . S
O978 C986 1.258 . S
C979 N980 1.326 . S
C979 C983 1.460 . S
C979 H985 0.929 . S
N980 Mn973 2.257 . S
N980 C979 1.326 . S
N980 C984 1.362 . S
C981 C982 1.258 . S
C981 C984 1.431 . S
C981 C1001 1.449 . S
C982 C981 1.258 . S
C982 C983 1.477 . S
C982 H1002 0.931 . S
C983 C979 1.460 . S
C983 C982 1.477 . S
C983 H1003 0.930 . S
C984 N980 1.362 . S
C984 C981 1.431 . S
C984 C994 1.476 . S
H985 C979 0.929 . S
C986 O977 1.250 . S
C986 O978 1.258 . S
O987 Mn972 2.162 1_554 S
O987 C975 1.281 1_554 S
O988 Mn972 2.297 . S
O988 C975 1.236 . S
N989 Mn973 2.282 . S
N989 C990 1.328 . S
N989 C994 1.318 . S
C990 N989 1.328 . S
C990 C991 1.457 . S
C990 H995 0.929 . S
C991 C990 1.457 . S
C991 C992 1.291 1_565 S
C991 H1004 0.931 1_565 S
C992 C991 1.291 1_545 S
C992 C993 1.373 1_545 S
C992 H1005 0.929 . S
C993 C992 1.373 1_565 S
C993 C994 1.396 . S
C993 C1000 1.403 . S
C994 C984 1.476 . S
C994 N989 1.318 . S
C994 C993 1.396 . S
H995 C990 0.929 . S
O996 Mn972 2.385 . S
O996 C974 1.234 . S
O997 Mn972 2.209 . S
O997 Mn973 2.215 . S
O997 C974 1.283 . S
O998 Mn972 2.094 . S
O998 C976 1.240 . S
O999 Mn973 2.117 . S
O999 C976 1.264 . S
C1000 C993 1.403 . S
C1000 C1001 1.399 . S
C1000 H1006 0.929 1_565 S
C1001 C981 1.449 . S
C1001 C1000 1.399 . S
C1001 H1007 0.930 . S
H1002 C982 0.931 . S
H1003 C983 0.930 . S
H1004 C991 0.931 1_545 S
H1005 C992 0.929 . S
H1006 C1000 0.929 1_545 S
H1007 C1001 0.930 . S
Mn1008 O1013 2.095 . S
Mn1008 O1023 2.162 . S
Mn1008 O1024 2.297 . S
Mn1008 O1032 2.385 . S
Mn1008 O1033 2.209 . S
Mn1008 O1034 2.094 . S
Mn1009 O1014 2.121 . S
Mn1009 N1016 2.257 . S
Mn1009 N1025 2.282 . S
Mn1009 O1033 2.215 . S
Mn1009 O1035 2.117 . S
C1010 O1032 1.234 . S
C1010 O1033 1.283 . S
C1011 O1023 1.281 . S
C1011 O1024 1.236 . S
C1012 O1034 1.240 . S
C1012 O1035 1.264 . S
O1013 Mn1008 2.095 . S
O1013 C1022 1.250 . S
O1014 Mn1009 2.121 . S
O1014 C1022 1.258 . S
C1015 N1016 1.326 . S
C1015 C1019 1.460 . S
C1015 H1021 0.929 . S
N1016 Mn1009 2.257 . S
N1016 C1015 1.326 . S
N1016 C1020 1.362 . S
C1017 C1018 1.258 . S
C1017 C1020 1.431 . S
C1017 C1037 1.449 . S
C1018 C1017 1.258 . S
C1018 C1019 1.477 . S
C1018 H1038 0.931 . S
C1019 C1015 1.460 . S
C1019 C1018 1.477 . S
C1019 H1039 0.930 . S
C1020 N1016 1.362 . S
C1020 C1017 1.431 . S
C1020 C1030 1.476 . S
H1021 C1015 0.929 . S
C1022 O1013 1.250 . S
C1022 O1014 1.258 . S
O1023 Mn1008 2.162 . S
O1023 C1011 1.281 . S
O1024 Mn1008 2.297 . S
O1024 C1011 1.236 . S
N1025 Mn1009 2.282 . S
N1025 C1026 1.328 . S
N1025 C1030 1.318 . S
C1026 N1025 1.328 . S
C1026 C1027 1.457 . S
C1026 H1031 0.929 . S
C1027 C1026 1.457 . S
C1027 C1028 1.291 1_545 S
C1027 H1040 0.931 1_545 S
C1028 C1027 1.291 1_565 S
C1028 C1029 1.373 1_565 S
C1028 H1041 0.929 . S
C1029 C1028 1.373 1_545 S
C1029 C1030 1.396 . S
C1029 C1036 1.403 . S
C1030 C1020 1.476 . S
C1030 N1025 1.318 . S
C1030 C1029 1.396 . S
H1031 C1026 0.929 . S
O1032 Mn1008 2.385 . S
O1032 C1010 1.234 . S
O1033 Mn1008 2.209 . S
O1033 Mn1009 2.215 . S
O1033 C1010 1.283 . S
O1034 Mn1008 2.094 . S
O1034 C1012 1.240 . S
O1035 Mn1009 2.117 . S
O1035 C1012 1.264 . S
C1036 C1029 1.403 . S
C1036 C1037 1.399 . S
C1036 H1042 0.929 1_545 S
C1037 C1017 1.449 . S
C1037 C1036 1.399 . S
C1037 H1043 0.930 . S
H1038 C1018 0.931 . S
H1039 C1019 0.930 . S
H1040 C1027 0.931 1_565 S
H1041 C1028 0.929 . S
H1042 C1036 0.929 1_565 S
H1043 C1037 0.930 . S
Mn1044 O1049 2.095 . S
Mn1044 O1059 2.162 . S
Mn1044 O1060 2.297 . S
Mn1044 O1068 2.385 . S
Mn1044 O1069 2.209 . S
Mn1044 O1070 2.094 . S
Mn1045 O1050 2.121 . S
Mn1045 N1052 2.257 . S
Mn1045 N1061 2.282 . S
Mn1045 O1069 2.215 . S
Mn1045 O1071 2.117 . S
C1046 O1068 1.234 . S
C1046 O1069 1.283 . S
C1047 O1059 1.281 . S
C1047 O1060 1.236 . S
C1048 O1070 1.240 . S
C1048 O1071 1.264 . S
O1049 Mn1044 2.095 . S
O1049 C1058 1.250 . S
O1050 Mn1045 2.121 . S
O1050 C1058 1.258 . S
C1051 N1052 1.326 . S
C1051 C1055 1.460 . S
C1051 H1057 0.929 . S
N1052 Mn1045 2.257 . S
N1052 C1051 1.326 . S
N1052 C1056 1.362 . S
C1053 C1054 1.258 . S
C1053 C1056 1.431 . S
C1053 C1073 1.449 . S
C1054 C1053 1.258 . S
C1054 C1055 1.477 . S
C1054 H1074 0.931 . S
C1055 C1051 1.460 . S
C1055 C1054 1.477 . S
C1055 H1075 0.930 . S
C1056 N1052 1.362 . S
C1056 C1053 1.431 . S
C1056 C1066 1.476 . S
H1057 C1051 0.929 . S
C1058 O1049 1.250 . S
C1058 O1050 1.258 . S
O1059 Mn1044 2.162 . S
O1059 C1047 1.281 . S
O1060 Mn1044 2.297 . S
O1060 C1047 1.236 . S
N1061 Mn1045 2.282 . S
N1061 C1062 1.328 . S
N1061 C1066 1.318 . S
C1062 N1061 1.328 . S
C1062 C1063 1.457 . S
C1062 H1067 0.929 . S
C1063 C1062 1.457 . S
C1063 C1064 1.291 . S
C1063 H1076 0.931 . S
C1064 C1063 1.291 . S
C1064 C1065 1.373 . S
C1064 H1077 0.929 . S
C1065 C1064 1.373 . S
C1065 C1066 1.396 . S
C1065 C1072 1.403 . S
C1066 C1056 1.476 . S
C1066 N1061 1.318 . S
C1066 C1065 1.396 . S
H1067 C1062 0.929 . S
O1068 Mn1044 2.385 . S
O1068 C1046 1.234 . S
O1069 Mn1044 2.209 . S
O1069 Mn1045 2.215 . S
O1069 C1046 1.283 . S
O1070 Mn1044 2.094 . S
O1070 C1048 1.240 . S
O1071 Mn1045 2.117 . S
O1071 C1048 1.264 . S
C1072 C1065 1.403 . S
C1072 C1073 1.399 . S
C1072 H1078 0.929 . S
C1073 C1053 1.449 . S
C1073 C1072 1.399 . S
C1073 H1079 0.930 . S
H1074 C1054 0.931 . S
H1075 C1055 0.930 . S
H1076 C1063 0.931 . S
H1077 C1064 0.929 . S
H1078 C1072 0.929 . S
H1079 C1073 0.930 . S
Mn1080 O1085 2.095 . S
Mn1080 O1095 2.162 1_554 S
Mn1080 O1096 2.297 . S
Mn1080 O1104 2.385 . S
Mn1080 O1105 2.209 . S
Mn1080 O1106 2.094 . S
Mn1081 O1086 2.121 . S
Mn1081 N1088 2.257 . S
Mn1081 N1097 2.282 . S
Mn1081 O1105 2.215 . S
Mn1081 O1107 2.117 . S
C1082 O1104 1.234 . S
C1082 O1105 1.283 . S
C1083 O1095 1.281 1_554 S
C1083 O1096 1.236 . S
C1084 O1106 1.240 . S
C1084 O1107 1.264 . S
O1085 Mn1080 2.095 . S
O1085 C1094 1.250 . S
O1086 Mn1081 2.121 . S
O1086 C1094 1.258 . S
C1087 N1088 1.326 . S
C1087 C1091 1.460 . S
C1087 H1093 0.929 . S
N1088 Mn1081 2.257 . S
N1088 C1087 1.326 . S
N1088 C1092 1.362 . S
C1089 C1090 1.258 . S
C1089 C1092 1.431 . S
C1089 C1109 1.449 . S
C1090 C1089 1.258 . S
C1090 C1091 1.477 . S
C1090 H1110 0.931 . S
C1091 C1087 1.460 . S
C1091 C1090 1.477 . S
C1091 H1111 0.930 . S
C1092 N1088 1.362 . S
C1092 C1089 1.431 . S
C1092 C1102 1.476 . S
H1093 C1087 0.929 . S
C1094 O1085 1.250 . S
C1094 O1086 1.258 . S
O1095 Mn1080 2.162 1_556 S
O1095 C1083 1.281 1_556 S
O1096 Mn1080 2.297 . S
O1096 C1083 1.236 . S
N1097 Mn1081 2.282 . S
N1097 C1098 1.328 . S
N1097 C1102 1.318 . S
C1098 N1097 1.328 . S
C1098 C1099 1.457 . S
C1098 H1103 0.929 . S
C1099 C1098 1.457 . S
C1099 C1100 1.291 . S
C1099 H1112 0.931 . S
C1100 C1099 1.291 . S
C1100 C1101 1.373 . S
C1100 H1113 0.929 . S
C1101 C1100 1.373 . S
C1101 C1102 1.396 . S
C1101 C1108 1.403 . S
C1102 C1092 1.476 . S
C1102 N1097 1.318 . S
C1102 C1101 1.396 . S
H1103 C1098 0.929 . S
O1104 Mn1080 2.385 . S
O1104 C1082 1.234 . S
O1105 Mn1080 2.209 . S
O1105 Mn1081 2.215 . S
O1105 C1082 1.283 . S
O1106 Mn1080 2.094 . S
O1106 C1084 1.240 . S
O1107 Mn1081 2.117 . S
O1107 C1084 1.264 . S
C1108 C1101 1.403 . S
C1108 C1109 1.399 . S
C1108 H1114 0.929 . S
C1109 C1089 1.449 . S
C1109 C1108 1.399 . S
C1109 H1115 0.930 . S
H1110 C1090 0.931 . S
H1111 C1091 0.930 . S
H1112 C1099 0.931 . S
H1113 C1100 0.929 . S
H1114 C1108 0.929 . S
H1115 C1109 0.930 . S
Mn1116 O1121 2.095 . S
Mn1116 O1131 2.162 1_554 S
Mn1116 O1132 2.297 . S
Mn1116 O1140 2.385 . S
Mn1116 O1141 2.209 . S
Mn1116 O1142 2.094 . S
Mn1117 O1122 2.121 . S
Mn1117 N1124 2.257 . S
Mn1117 N1133 2.282 . S
Mn1117 O1141 2.215 . S
Mn1117 O1143 2.117 . S
C1118 O1140 1.234 . S
C1118 O1141 1.283 . S
C1119 O1131 1.281 1_554 S
C1119 O1132 1.236 . S
C1120 O1142 1.240 . S
C1120 O1143 1.264 . S
O1121 Mn1116 2.095 . S
O1121 C1130 1.250 . S
O1122 Mn1117 2.121 . S
O1122 C1130 1.258 . S
C1123 N1124 1.326 . S
C1123 C1127 1.460 . S
C1123 H1129 0.929 . S
N1124 Mn1117 2.257 . S
N1124 C1123 1.326 . S
N1124 C1128 1.362 . S
C1125 C1126 1.258 . S
C1125 C1128 1.431 . S
C1125 C1145 1.449 . S
C1126 C1125 1.258 . S
C1126 C1127 1.477 . S
C1126 H1146 0.931 . S
C1127 C1123 1.460 . S
C1127 C1126 1.477 . S
C1127 H1147 0.930 . S
C1128 N1124 1.362 . S
C1128 C1125 1.431 . S
C1128 C1138 1.476 . S
H1129 C1123 0.929 . S
C1130 O1121 1.250 . S
C1130 O1122 1.258 . S
O1131 Mn1116 2.162 1_556 S
O1131 C1119 1.281 1_556 S
O1132 Mn1116 2.297 . S
O1132 C1119 1.236 . S
N1133 Mn1117 2.282 . S
N1133 C1134 1.328 . S
N1133 C1138 1.318 . S
C1134 N1133 1.328 . S
C1134 C1135 1.457 . S
C1134 H1139 0.929 . S
C1135 C1134 1.457 . S
C1135 C1136 1.291 1_545 S
C1135 H1148 0.931 1_545 S
C1136 C1135 1.291 1_565 S
C1136 C1137 1.373 1_565 S
C1136 H1149 0.929 . S
C1137 C1136 1.373 1_545 S
C1137 C1138 1.396 . S
C1137 C1144 1.403 . S
C1138 C1128 1.476 . S
C1138 N1133 1.318 . S
C1138 C1137 1.396 . S
H1139 C1134 0.929 . S
O1140 Mn1116 2.385 . S
O1140 C1118 1.234 . S
O1141 Mn1116 2.209 . S
O1141 Mn1117 2.215 . S
O1141 C1118 1.283 . S
O1142 Mn1116 2.094 . S
O1142 C1120 1.240 . S
O1143 Mn1117 2.117 . S
O1143 C1120 1.264 . S
C1144 C1137 1.403 . S
C1144 C1145 1.399 . S
C1144 H1150 0.929 1_545 S
C1145 C1125 1.449 . S
C1145 C1144 1.399 . S
C1145 H1151 0.930 . S
H1146 C1126 0.931 . S
H1147 C1127 0.930 . S
H1148 C1135 0.931 1_565 S
H1149 C1136 0.929 . S
H1150 C1144 0.929 1_565 S
H1151 C1145 0.930 . S
C4 C40 1.393 . S
C112 C76 1.393 . S
C148 C184 1.393 . S
C220 C256 1.393 . S
C292 C328 1.393 . S
C364 C400 1.393 . S
C436 C472 1.393 . S
C508 C544 1.393 . S
C616 C580 1.393 . S
C688 C652 1.393 . S
C760 C724 1.393 . S
C832 C796 1.393 . S
C904 C868 1.393 . S
C976 C940 1.393 . S
C1048 C1012 1.393 . S
C1120 C1084 1.393 . S
C3 C435 1.839 1_455 S
C39 C759 1.839 1_545 S
C75 C219 1.839 1_446 S
C111 C1119 1.839 1_556 S
C147 C291 1.839 1_655 S
C615 C183 1.839 1_545 S
C975 C255 1.839 1_556 S
C327 C1047 1.839 . S
C363 C507 1.839 1_455 S
C399 C831 1.839 . S
C471 C903 1.839 . S
C543 C687 1.839 . S
C1011 C579 1.839 . S
C795 C651 1.839 1_565 S
C723 C867 1.839 . S
C1083 C939 1.839 1_554 S
C362 C2 0.955 . S
C398 C38 0.954 . S
C74 C290 0.955 . S
C326 C110 0.954 . S
C146 C506 0.955 . S
C182 C542 0.954 . S
C434 C218 0.955 . S
C470 C254 0.954 . S
C578 C938 0.954 . S
C974 C614 0.954 . S
C866 C650 0.954 . S
C686 C902 0.954 . S
C1082 C722 0.954 . S
C758 C1118 0.954 . S
C1010 C794 0.954 . S
C1046 C830 0.954 . S
C374 C14 1.160 . S
C410 C50 1.160 . S
C302 C86 1.160 . S
C122 C338 1.160 . S
C518 C158 1.160 . S
C554 C194 1.160 . S
C446 C230 1.160 . S
C482 C266 1.160 . S
C950 C590 1.160 . S
C986 C626 1.160 . S
C878 C662 1.160 . S
C698 C914 1.160 . S
C1094 C734 1.160 . S
C770 C1130 1.160 . S
C1022 C806 1.160 . S
C842 C1058 1.160 . S
