# Generated by pormake.
# Topology ukk, (4)-cn, num edge types: 1
# Building blocks:
#     Node 0, Type 0, BuildingBlock: KOZSID_clean_sbu_0, # of connection points: 4
#     Node 1, Type 0, BuildingBlock: KOZSID_clean_sbu_0, # of connection points: 4
#     Node 2, Type 0, BuildingBlock: KOZSID_clean_sbu_0, # of connection points: 4
#     Node 3, Type 0, BuildingBlock: KOZSID_clean_sbu_0, # of connection points: 4
#     Node 4, Type 0, BuildingBlock: KOZSID_clean_sbu_0, # of connection points: 4
#     Node 5, Type 0, BuildingBlock: KOZSID_clean_sbu_0, # of connection points: 4
#     Node 6, Type 0, BuildingBlock: KOZSID_clean_sbu_0, # of connection points: 4
#     Node 7, Type 0, BuildingBlock: KOZSID_clean_sbu_0, # of connection points: 4
#     Node 8, Type 0, BuildingBlock: KOZSID_clean_sbu_0, # of connection points: 4
#     Node 9, Type 0, BuildingBlock: KOZSID_clean_sbu_0, # of connection points: 4
#     Node 10, Type 0, BuildingBlock: KOZSID_clean_sbu_0, # of connection points: 4
#     Node 11, Type 0, BuildingBlock: KOZSID_clean_sbu_0, # of connection points: 4
#     Node 12, Type 0, BuildingBlock: KOZSID_clean_sbu_0, # of connection points: 4
#     Node 13, Type 0, BuildingBlock: KOZSID_clean_sbu_0, # of connection points: 4
#     Node 14, Type 0, BuildingBlock: KOZSID_clean_sbu_0, # of connection points: 4
#     Node 15, Type 0, BuildingBlock: KOZSID_clean_sbu_0, # of connection points: 4
#     Edge 16, Type (0, 0), BuildingBlock: TEMPAE_clean_linker_10, # of connection points: 2
#     Edge 17, Type (0, 0), BuildingBlock: TEMPAE_clean_linker_10, # of connection points: 2
#     Edge 18, Type (0, 0), BuildingBlock: TEMPAE_clean_linker_10, # of connection points: 2
#     Edge 19, Type (0, 0), BuildingBlock: TEMPAE_clean_linker_10, # of connection points: 2
#     Edge 20, Type (0, 0), BuildingBlock: TEMPAE_clean_linker_10, # of connection points: 2
#     Edge 21, Type (0, 0), BuildingBlock: TEMPAE_clean_linker_10, # of connection points: 2
#     Edge 22, Type (0, 0), BuildingBlock: TEMPAE_clean_linker_10, # of connection points: 2
#     Edge 23, Type (0, 0), BuildingBlock: TEMPAE_clean_linker_10, # of connection points: 2
#     Edge 24, Type (0, 0), BuildingBlock: TEMPAE_clean_linker_10, # of connection points: 2
#     Edge 25, Type (0, 0), BuildingBlock: TEMPAE_clean_linker_10, # of connection points: 2
#     Edge 26, Type (0, 0), BuildingBlock: TEMPAE_clean_linker_10, # of connection points: 2
#     Edge 27, Type (0, 0), BuildingBlock: TEMPAE_clean_linker_10, # of connection points: 2
#     Edge 28, Type (0, 0), BuildingBlock: TEMPAE_clean_linker_10, # of connection points: 2
#     Edge 29, Type (0, 0), BuildingBlock: TEMPAE_clean_linker_10, # of connection points: 2
#     Edge 30, Type (0, 0), BuildingBlock: TEMPAE_clean_linker_10, # of connection points: 2
#     Edge 31, Type (0, 0), BuildingBlock: TEMPAE_clean_linker_10, # of connection points: 2
#     Edge 32, Type (0, 0), BuildingBlock: TEMPAE_clean_linker_10, # of connection points: 2
#     Edge 33, Type (0, 0), BuildingBlock: TEMPAE_clean_linker_10, # of connection points: 2
#     Edge 34, Type (0, 0), BuildingBlock: TEMPAE_clean_linker_10, # of connection points: 2
#     Edge 35, Type (0, 0), BuildingBlock: TEMPAE_clean_linker_10, # of connection points: 2
#     Edge 36, Type (0, 0), BuildingBlock: TEMPAE_clean_linker_10, # of connection points: 2
#     Edge 37, Type (0, 0), BuildingBlock: TEMPAE_clean_linker_10, # of connection points: 2
#     Edge 38, Type (0, 0), BuildingBlock: TEMPAE_clean_linker_10, # of connection points: 2
#     Edge 39, Type (0, 0), BuildingBlock: TEMPAE_clean_linker_10, # of connection points: 2
#     Edge 40, Type (0, 0), BuildingBlock: TEMPAE_clean_linker_10, # of connection points: 2
#     Edge 41, Type (0, 0), BuildingBlock: TEMPAE_clean_linker_10, # of connection points: 2
#     Edge 42, Type (0, 0), BuildingBlock: TEMPAE_clean_linker_10, # of connection points: 2
#     Edge 43, Type (0, 0), BuildingBlock: TEMPAE_clean_linker_10, # of connection points: 2
#     Edge 44, Type (0, 0), BuildingBlock: TEMPAE_clean_linker_10, # of connection points: 2
#     Edge 45, Type (0, 0), BuildingBlock: TEMPAE_clean_linker_10, # of connection points: 2
#     Edge 46, Type (0, 0), BuildingBlock: TEMPAE_clean_linker_10, # of connection points: 2
#     Edge 47, Type (0, 0), BuildingBlock: TEMPAE_clean_linker_10, # of connection points: 2
# Relax obj value: 0.060
# Max RMSD: 0.202
# Mean RMSD: 0.202
data_MOF--net-ukk--node1-KOZSID_clean_sbu_0--edge1-TEMPAE_clean_linker_10
_symmetry_space_group_name_H-M    P1
_symmetry_Int_Tables_number       1
_symmetry_cell_setting            triclinic
loop_
_symmetry_equiv_pos_as_xyz
'x, y, z'
_cell_length_a     65.928807
_cell_length_b     65.969035
_cell_length_c     26.54773
_cell_angle_alpha  90.030759
_cell_angle_beta   89.955923
_cell_angle_gamma 90.002274
loop_
_atom_site_label
_atom_site_type_symbol
_atom_site_fract_x
_atom_site_fract_y
_atom_site_fract_z
_atom_type_partial_charge
C0 C 0.36564 0.08613 0.17429 0.0
C1 C 0.35483 0.07658 0.21243 0.0
C2 C 0.34288 0.0911 0.23429 0.0
C3 C 0.347 0.10861 0.20834 0.0
N4 N 0.36079 0.10606 0.1715 0.0
Co5 Co 0.37066 0.12747 0.12476 0.0
N6 N 0.3608 0.14961 0.16941 0.0
C7 C 0.34895 0.14721 0.21035 0.0
C8 C 0.3483 0.16408 0.24038 0.0
C9 C 0.36017 0.17809 0.2165 0.0
C10 C 0.3667 0.16935 0.17163 0.0
N11 N 0.37976 0.1489 0.07709 0.0
C12 C 0.38059 0.16942 0.08242 0.0
C13 C 0.3844 0.17854 0.03609 0.0
C14 C 0.38654 0.16331 1.00143 0.0
C15 C 0.38353 0.14572 0.02781 0.0
N16 N 0.3811 0.10525 0.08121 0.0
C17 C 0.38591 0.10695 0.03221 0.0
C18 C 0.39265 0.08904 0.01169 0.0
C19 C 0.39191 0.07517 0.05026 0.0
C20 C 0.38469 0.08543 0.09219 0.0
N21 N 0.34434 0.12667 0.08861 0.0
C22 C 0.311 0.12593 0.02128 0.0
C23 C 0.32032 0.10795 0.03762 0.0
C24 C 0.33668 0.10862 0.07154 0.0
C25 C 0.31808 0.14421 0.04199 0.0
C26 C 0.33465 0.14426 0.07536 0.0
N27 N 0.39715 0.12822 0.15955 0.0
C28 C 0.43357 0.13206 0.15556 0.0
C29 C 0.43567 0.12881 0.2078 0.0
C30 C 0.41757 0.12535 0.23493 0.0
C31 C 0.39864 0.12554 0.2105 0.0
C32 C 0.4145 0.13121 0.13236 0.0
H33 H 0.38524 0.12331 0.23306 0.0
H34 H 0.4139 0.13302 0.09208 0.0
H35 H 0.34357 0.09448 0.0825 0.0
H36 H 0.3401 0.15869 0.0888 0.0
C37 C 0.34205 0.12806 0.22468 0.0
C38 C 0.37973 0.07565 0.14045 0.0
C39 C 0.37628 0.18072 0.12958 0.0
C40 C 0.386 0.126 0.00896 0.0
H41 H 0.35566 0.06083 0.22371 0.0
H42 H 0.33328 0.08932 0.26708 0.0
H43 H 0.3411 0.16563 0.27684 0.0
H44 H 0.36353 0.19303 0.23099 0.0
H45 H 0.38503 0.19453 0.0274 0.0
H46 H 0.38993 0.16489 0.96173 0.0
H47 H 0.39789 0.08645 0.97358 0.0
H48 H 0.39589 0.05929 0.04766 0.0
H49 H 0.31515 0.09338 0.02388 0.0
H50 H 0.31143 0.15854 0.0309 0.0
H51 H 0.44643 0.13545 0.13181 0.0
H52 H 0.41769 0.12229 0.27488 0.0
C53 C 0.0851 0.63255 0.91112 0.0
C54 C 0.07426 0.61969 0.94249 0.0
C55 C 0.0882 0.60805 0.96733 0.0
C56 C 0.10672 0.61446 0.94993 0.0
N57 N 0.10547 0.62968 0.91623 0.0
Co58 Co 0.12896 0.6424 0.8802 0.0
N59 N 0.14935 0.62884 0.92485 0.0
C60 C 0.14543 0.61361 0.95721 0.0
C61 C 0.16234 0.60663 0.98177 0.0
C62 C 0.17807 0.61795 0.96335 0.0
C63 C 0.16982 0.63126 0.92847 0.0
N64 N 0.15237 0.6551 0.84388 0.0
C65 C 0.17249 0.65551 0.85504 0.0
C66 C 0.18337 0.66628 0.81911 0.0
C67 C 0.16975 0.67247 0.78363 0.0
C68 C 0.15139 0.66527 0.79994 0.0
N69 N 0.10867 0.65588 0.83514 0.0
C70 C 0.1129 0.66587 0.7921 0.0
C71 C 0.09611 0.67334 0.76807 0.0
C72 C 0.0801 0.66752 0.79721 0.0
C73 C 0.08807 0.65676 0.83761 0.0
N74 N 0.12793 0.66582 0.92728 0.0
C75 C 0.12706 0.69881 0.99642 0.0
C76 C 0.12822 0.70199 0.94401 0.0
C77 C 0.12867 0.68542 0.91037 0.0
C78 C 0.12635 0.67858 0.01286 0.0
C79 C 0.12671 0.66252 0.97812 0.0
N80 N 0.13002 0.61868 0.83422 0.0
C81 C 0.11273 0.59133 0.79103 0.0
C82 C 0.13112 0.58122 0.78187 0.0
C83 C 0.14901 0.59099 0.79726 0.0
C84 C 0.14814 0.60956 0.82304 0.0
C85 C 0.11254 0.60995 0.81668 0.0
H86 H 0.16223 0.61616 0.83504 0.0
H87 H 0.09805 0.61684 0.82358 0.0
H88 H 0.1296 0.68857 0.87065 0.0
H89 H 0.12612 0.64737 0.99288 0.0
C90 C 0.12553 0.60741 0.96642 0.0
C91 C 0.07531 0.64563 0.87347 0.0
C92 C 0.18228 0.6443 0.89603 0.0
C93 C 0.13283 0.66936 0.77742 0.0
H94 H 0.05795 0.61847 0.94595 0.0
H95 H 0.08519 0.5963 0.99477 0.0
H96 H 0.16314 0.5948 0.00994 0.0
H97 H 0.19388 0.61628 0.97349 0.0
H98 H 0.19956 0.66903 0.81811 0.0
H99 H 0.17283 0.68138 0.75027 0.0
H100 H 0.09558 0.68207 0.73358 0.0
H101 H 0.0643 0.67039 0.78879 0.0
H102 H 0.12855 0.7172 0.92875 0.0
H103 H 0.12585 0.67499 0.05262 0.0
H104 H 0.0984 0.58462 0.78017 0.0
H105 H 0.1637 0.58427 0.78996 0.0
C106 C 0.65147 0.93127 0.17645 0.0
C107 C 0.66226 0.94047 0.21513 0.0
C108 C 0.67401 0.9257 0.2365 0.0
C109 C 0.66981 0.90841 0.20975 0.0
N110 N 0.65613 0.91131 0.17286 0.0
Co111 Co 0.64615 0.89032 0.12512 0.0
N112 N 0.65573 0.86781 0.16894 0.0
C113 C 0.66762 0.86982 0.20993 0.0
C114 C 0.668 0.85279 0.23936 0.0
C115 C 0.65596 0.83908 0.215 0.0
C116 C 0.64961 0.84814 0.17041 0.0
N117 N 0.63673 0.86928 0.07672 0.0
C118 C 0.63572 0.84872 0.08121 0.0
C119 C 0.63173 0.83994 0.03457 0.0
C120 C 0.62972 0.85541 1.00056 0.0
C121 C 0.63295 0.87279 0.02761 0.0
N122 N 0.63616 0.91295 0.08226 0.0
C123 C 0.63149 0.91159 0.03313 0.0
C124 C 0.62508 0.92971 0.01317 0.0
C125 C 0.62589 0.94335 0.05227 0.0
C126 C 0.63282 0.93275 0.09393 0.0
N127 N 0.67256 0.89095 0.0891 0.0
C128 C 0.70608 0.89157 0.02206 0.0
C129 C 0.69698 0.90959 0.039 0.0
C130 C 0.68054 0.90898 0.07279 0.0
C131 C 0.69865 0.87329 0.04198 0.0
C132 C 0.682 0.8733 0.07517 0.0
N133 N 0.61962 0.88971 0.15969 0.0
C134 C 0.58302 0.88831 0.15488 0.0
C135 C 0.58128 0.88876 0.20756 0.0
C136 C 0.5993 0.88985 0.23567 0.0
C137 C 0.61823 0.8902 0.21115 0.0
C138 C 0.60216 0.8889 0.13187 0.0
H139 H 0.63172 0.89084 0.23396 0.0
H140 H 0.6028 0.88876 0.09132 0.0
H141 H 0.67385 0.92316 0.08429 0.0
H142 H 0.6763 0.85888 0.08797 0.0
C143 C 0.67465 0.88882 0.22514 0.0
C144 C 0.63767 0.94215 0.14271 0.0
C145 C 0.64017 0.83707 0.12773 0.0
C146 C 0.63098 0.89265 0.00934 0.0
H147 H 0.66158 0.95616 0.22701 0.0
H148 H 0.68358 0.92718 0.26942 0.0
H149 H 0.67515 0.85095 0.27577 0.0
H150 H 0.65244 0.82408 0.22881 0.0
H151 H 0.63098 0.82402 0.02517 0.0
H152 H 0.62634 0.85409 0.9608 0.0
H153 H 0.61994 0.93258 0.97512 0.0
H154 H 0.62211 0.95929 0.05023 0.0
H155 H 0.70241 0.92416 0.02586 0.0
H156 H 0.70511 0.85892 0.03041 0.0
H157 H 0.56962 0.8878 0.13133 0.0
H158 H 0.59885 0.89008 0.27644 0.0
C159 C 0.93161 0.38678 0.91263 0.0
C160 C 0.94349 0.39413 0.95167 0.0
C161 C 0.93088 0.39642 0.99252 0.0
C162 C 0.91203 0.39038 0.97625 0.0
N163 N 0.91202 0.38455 0.92769 0.0
Co164 Co 0.88805 0.37454 0.88973 0.0
N165 N 0.86866 0.386 0.9395 0.0
C166 C 0.87332 0.39167 0.98681 0.0
C167 C 0.8568 0.39872 0.01307 0.0
C168 C 0.84074 0.3972 0.98037 0.0
C169 C 0.84835 0.38923 0.93582 0.0
N170 N 0.86422 0.3645 0.85132 0.0
C171 C 0.84437 0.36976 0.8545 0.0
C172 C 0.83274 0.3585 0.82099 0.0
C173 C 0.84577 0.3457 0.79639 0.0
C174 C 0.86456 0.3498 0.81612 0.0
N175 N 0.90734 0.36284 0.84013 0.0
C176 C 0.90307 0.34821 0.80641 0.0
C177 C 0.91944 0.34295 0.77725 0.0
C178 C 0.93504 0.35495 0.79381 0.0
C179 C 0.92726 0.3669 0.83233 0.0
N180 N 0.88873 0.34899 0.92918 0.0
C181 C 0.88982 0.3155 0.996 0.0
C182 C 0.87135 0.32403 0.98042 0.0
C183 C 0.87113 0.34071 0.94748 0.0
C184 C 0.9077 0.32373 0.97572 0.0
C185 C 0.90682 0.3402 0.9421 0.0
N186 N 0.88737 0.40025 0.85173 0.0
C187 C 0.88476 0.41914 0.77384 0.0
C188 C 0.88599 0.43769 0.7999 0.0
C189 C 0.88818 0.43687 0.8524 0.0
C190 C 0.88884 0.4182 0.87733 0.0
C191 C 0.88541 0.40064 0.8004 0.0
H192 H 0.89055 0.41836 0.91763 0.0
H193 H 0.88422 0.38667 0.77946 0.0
H194 H 0.85665 0.34724 0.93803 0.0
H195 H 0.9209 0.34613 0.92756 0.0
C196 C 0.89366 0.39289 1.00227 0.0
C197 C 0.93955 0.38076 0.86297 0.0
C198 C 0.83573 0.38363 0.89216 0.0
C199 C 0.883 0.34234 0.79777 0.0
H200 H 0.95958 0.39736 0.95076 0.0
H201 H 0.93486 0.40244 0.02913 0.0
H202 H 0.85654 0.40482 0.05092 0.0
H203 H 0.8252 0.40134 0.98851 0.0
H204 H 0.81649 0.35918 0.81552 0.0
H205 H 0.84205 0.33505 0.76678 0.0
H206 H 0.91984 0.33223 0.74639 0.0
H207 H 0.95041 0.35481 0.77941 0.0
H208 H 0.85711 0.31833 0.99499 0.0
H209 H 0.92234 0.31751 0.98582 0.0
H210 H 0.88295 0.41887 0.73332 0.0
H211 H 0.88961 0.45063 0.8744 0.0
C212 C 0.36717 0.43103 0.08624 0.0
C213 C 0.35612 0.4403 0.04816 0.0
C214 C 0.34455 0.42549 0.02633 0.0
C215 C 0.34908 0.40809 0.05232 0.0
N216 N 0.36278 0.41099 0.08916 0.0
Co217 Co 0.37304 0.38987 0.1362 0.0
N218 N 0.36363 0.36745 0.09179 0.0
C219 C 0.35165 0.36953 0.05099 0.0
C220 C 0.3512 0.35254 0.02134 0.0
C221 C 0.36327 0.33878 0.0454 0.0
C222 C 0.36974 0.34778 0.08999 0.0
N223 N 0.38284 0.36871 0.18385 0.0
C224 C 0.38399 0.34816 0.17886 0.0
C225 C 0.38829 0.33925 0.22517 0.0
C226 C 0.39033 0.35462 0.25948 0.0
C227 C 0.38681 0.37206 0.23295 0.0
N228 N 0.38276 0.41244 0.17975 0.0
C229 C 0.38762 0.41089 0.22874 0.0
C230 C 0.39397 0.42894 0.24918 0.0
C231 C 0.3929 0.44277 0.21061 0.0
C232 C 0.38585 0.43234 0.16875 0.0
N233 N 0.34669 0.39001 0.17234 0.0
C234 C 0.31313 0.38998 0.23912 0.0
C235 C 0.32141 0.40819 0.22087 0.0
C236 C 0.33807 0.40788 0.18766 0.0
C237 C 0.32138 0.37182 0.22057 0.0
C238 C 0.33789 0.37216 0.18709 0.0
N239 N 0.3995 0.38973 0.10134 0.0
C240 C 0.43611 0.38861 0.10553 0.0
C241 C 0.43768 0.38907 0.05281 0.0
C242 C 0.41958 0.39007 0.02503 0.0
C243 C 0.40074 0.39029 0.04987 0.0
C244 C 0.41703 0.38905 0.12888 0.0
H245 H 0.38719 0.39085 0.02729 0.0
H246 H 0.4165 0.38887 0.16943 0.0
H247 H 0.34441 0.42218 0.17589 0.0
H248 H 0.34394 0.35785 0.17457 0.0
C249 C 0.34443 0.38852 0.03637 0.0
C250 C 0.38086 0.44194 0.1203 0.0
C251 C 0.37922 0.33659 0.13237 0.0
C252 C 0.38853 0.39184 0.25179 0.0
H253 H 0.35646 0.45609 0.03707 0.0
H254 H 0.33485 0.42702 0.99368 0.0
H255 H 0.34391 0.35074 0.98509 0.0
H256 H 0.36668 0.32375 0.03153 0.0
H257 H 0.38918 0.32332 0.23426 0.0
H258 H 0.39385 0.3532 0.29914 0.0
H259 H 0.39929 0.43164 0.28716 0.0
H260 H 0.39668 0.4587 0.21314 0.0
H261 H 0.31562 0.42267 0.23367 0.0
H262 H 0.31526 0.35733 0.23224 0.0
H263 H 0.44958 0.38817 0.12882 0.0
H264 H 0.41991 0.3903 0.98425 0.0
C265 C 0.43263 0.62965 0.84842 0.0
C266 C 0.44343 0.61787 0.81446 0.0
C267 C 0.42977 0.61104 0.77962 0.0
C268 C 0.41145 0.61896 0.79423 0.0
N269 N 0.41263 0.63074 0.83586 0.0
Co270 Co 0.38929 0.64375 0.87241 0.0
N271 N 0.36878 0.63166 0.82512 0.0
C272 C 0.3728 0.62071 0.78319 0.0
C273 C 0.3557 0.6143 0.75845 0.0
C274 C 0.33981 0.62152 0.78632 0.0
C275 C 0.34814 0.63193 0.8267 0.0
N276 N 0.36603 0.65617 0.9103 0.0
C277 C 0.34569 0.65379 0.90464 0.0
C278 C 0.33491 0.66471 0.94051 0.0
C279 C 0.34889 0.67418 0.97012 0.0
C280 C 0.36731 0.66852 0.95081 0.0
N281 N 0.40972 0.65617 0.91924 0.0
C282 C 0.40588 0.66939 0.95696 0.0
C283 C 0.42279 0.67515 0.98328 0.0
C284 C 0.43841 0.66483 0.96146 0.0
C285 C 0.43006 0.65329 0.92294 0.0
N286 N 0.39104 0.66834 0.82727 0.0
C287 C 0.39218 0.70244 0.76054 0.0
C288 C 0.38891 0.70481 0.81256 0.0
C289 C 0.3884 0.68778 0.84483 0.0
C290 C 0.39492 0.6826 0.74321 0.0
C291 C 0.39447 0.66616 0.77655 0.0
N292 N 0.38756 0.61918 0.91622 0.0
C293 C 0.38752 0.60269 0.99813 0.0
C294 C 0.38593 0.58346 0.97573 0.0
C295 C 0.38529 0.58262 0.92321 0.0
C296 C 0.38618 0.60035 0.89466 0.0
C297 C 0.38812 0.62028 0.96786 0.0
H298 H 0.38586 0.59835 0.85495 0.0
H299 H 0.38905 0.63463 0.98671 0.0
H300 H 0.38583 0.69075 0.88381 0.0
H301 H 0.39683 0.6518 0.75978 0.0
C302 C 0.39273 0.61498 0.7711 0.0
C303 C 0.44197 0.6392 0.89252 0.0
C304 C 0.33583 0.64139 0.86621 0.0
C305 C 0.38605 0.67428 0.97034 0.0
H306 H 0.45947 0.61437 0.81531 0.0
H307 H 0.43277 0.60108 0.74806 0.0
H308 H 0.35487 0.60494 0.72501 0.0
H309 H 0.32389 0.6191 0.7784 0.0
H310 H 0.31862 0.66565 0.94499 0.0
H311 H 0.34597 0.68386 1.00225 0.0
H312 H 0.42355 0.68504 0.01577 0.0
H313 H 0.45409 0.66533 0.97345 0.0
H314 H 0.38694 0.71976 0.82866 0.0
H315 H 0.39708 0.67951 0.70351 0.0
H316 H 0.38799 0.60418 0.03874 0.0
H317 H 0.38443 0.56819 0.90382 0.0
C318 C 0.6532 0.5872 0.07889 0.0
C319 C 0.66432 0.57813 0.04055 0.0
C320 C 0.6761 0.59303 0.01976 0.0
C321 C 0.6716 0.61026 0.04652 0.0
N322 N 0.65771 0.60718 0.08286 0.0
Co323 Co 0.64719 0.62801 0.13034 0.0
N324 N 0.65679 0.65066 0.08701 0.0
C325 C 0.66906 0.64883 0.04661 0.0
C326 C 0.6695 0.6659 0.01732 0.0
C327 C 0.65709 0.67945 0.04118 0.0
C328 C 0.65046 0.67026 0.08539 0.0
N329 N 0.63708 0.64888 0.17837 0.0
C330 C 0.63574 0.66943 0.17383 0.0
C331 C 0.6312 0.67813 0.22029 0.0
C332 C 0.62921 0.66262 0.2542 0.0
C333 C 0.63298 0.64531 0.22732 0.0
N334 N 0.63731 0.60523 0.17285 0.0
C335 C 0.63239 0.60648 0.22186 0.0
C336 C 0.62609 0.58827 0.24154 0.0
C337 C 0.62724 0.57469 0.20238 0.0
C338 C 0.63425 0.58541 0.16097 0.0
N339 N 0.67335 0.62774 0.16726 0.0
C340 C 0.70646 0.62743 0.23535 0.0
C341 C 0.69835 0.60932 0.21599 0.0
C342 C 0.68193 0.6098 0.18214 0.0
C343 C 0.69828 0.64569 0.21721 0.0
C344 C 0.68199 0.64552 0.18308 0.0
N345 N 0.62092 0.62828 0.09479 0.0
C346 C 0.58428 0.62886 0.09813 0.0
C347 C 0.58294 0.6291 0.04534 0.0
C348 C 0.6012 0.62871 0.01798 0.0
C349 C 0.61993 0.62833 0.04328 0.0
C350 C 0.60326 0.62842 0.12191 0.0
H351 H 0.63359 0.62817 0.02103 0.0
H352 H 0.60361 0.62816 0.16248 0.0
H353 H 0.67571 0.59555 0.16954 0.0
H354 H 0.67596 0.65988 0.17095 0.0
C355 C 0.67639 0.62992 0.03153 0.0
C356 C 0.63929 0.57617 0.11212 0.0
C357 C 0.64052 0.68119 0.12764 0.0
C358 C 0.63134 0.62542 0.24558 0.0
H359 H 0.66383 0.56245 0.02856 0.0
H360 H 0.6859 0.59167 0.98719 0.0
H361 H 0.67693 0.66786 0.98127 0.0
H362 H 0.65353 0.69443 0.02732 0.0
H363 H 0.63012 0.69403 0.22969 0.0
H364 H 0.62553 0.66387 0.29382 0.0
H365 H 0.62074 0.58532 0.27938 0.0
H366 H 0.62357 0.55871 0.2042 0.0
H367 H 0.70408 0.59478 0.22842 0.0
H368 H 0.70427 0.66012 0.2297 0.0
H369 H 0.57073 0.62877 0.12118 0.0
H370 H 0.6011 0.62905 0.97721 0.0
C371 C 0.58667 0.38576 0.85026 0.0
C372 C 0.5748 0.39368 0.81192 0.0
C373 C 0.58732 0.39605 0.77087 0.0
C374 C 0.6061 0.38949 0.78635 0.0
N375 N 0.60614 0.38325 0.83456 0.0
Co376 Co 0.63002 0.37268 0.87172 0.0
N377 N 0.64945 0.38449 0.82267 0.0
C378 C 0.64483 0.3905 0.7756 0.0
C379 C 0.66141 0.39771 0.74981 0.0
C380 C 0.67743 0.39594 0.78259 0.0
C381 C 0.66974 0.38769 0.82672 0.0
N382 N 0.65377 0.36214 0.90945 0.0
C383 C 0.67361 0.36747 0.90685 0.0
C384 C 0.6852 0.35586 0.93963 0.0
C385 C 0.67213 0.34274 0.96311 0.0
C386 C 0.65336 0.34703 0.94351 0.0
N387 N 0.61068 0.36059 0.92048 0.0
C388 C 0.61482 0.34548 0.95289 0.0
C389 C 0.5984 0.34013 0.98186 0.0
C390 C 0.58297 0.35263 0.96656 0.0
C391 C 0.59089 0.36495 0.92899 0.0
N392 N 0.6292 0.34756 0.83068 0.0
C393 C 0.62797 0.31477 0.76184 0.0
C394 C 0.64647 0.32297 0.77816 0.0
C395 C 0.64676 0.33932 0.8121 0.0
C396 C 0.6101 0.32295 0.78235 0.0
C397 C 0.61105 0.33907 0.81701 0.0
N398 N 0.63084 0.39794 0.91131 0.0
C399 C 0.63272 0.41596 0.99055 0.0
C400 C 0.63203 0.43473 0.96553 0.0
C401 C 0.63054 0.43452 0.9129 0.0
C402 C 0.62986 0.41614 0.88676 0.0
C403 C 0.63226 0.39776 0.96276 0.0
H404 H 0.62851 0.41673 0.84639 0.0
H405 H 0.63308 0.38357 0.98283 0.0
H406 H 0.66128 0.34565 0.8221 0.0
H407 H 0.59699 0.34499 0.83176 0.0
C408 C 0.62448 0.39201 0.76027 0.0
C409 C 0.57889 0.37959 0.89998 0.0
C410 C 0.68224 0.38183 0.87035 0.0
C411 C 0.63487 0.33939 0.96116 0.0
H412 H 0.5588 0.3973 0.81342 0.0
H413 H 0.58335 0.40251 0.73474 0.0
H414 H 0.66172 0.40411 0.71229 0.0
H415 H 0.69299 0.40012 0.7748 0.0
H416 H 0.70144 0.35653 0.94534 0.0
H417 H 0.67583 0.33177 0.992 0.0
H418 H 0.59791 0.32907 0.01193 0.0
H419 H 0.56765 0.35262 0.98123 0.0
H420 H 0.6607 0.31728 0.76341 0.0
H421 H 0.59543 0.31696 0.77162 0.0
H422 H 0.63396 0.41532 0.03118 0.0
H423 H 0.62962 0.44855 0.89183 0.0
C424 C 0.86482 0.59209 0.67866 0.0
C425 C 0.85223 0.58465 0.71631 0.0
C426 C 0.84002 0.6004 0.73099 0.0
C427 C 0.84582 0.61654 0.7017 0.0
N428 N 0.86099 0.61197 0.6697 0.0
Co429 Co 0.8737 0.6309 0.62082 0.0
N430 N 0.86304 0.655 0.65706 0.0
C431 C 0.84764 0.65496 0.69041 0.0
C432 C 0.84332 0.67389 0.70905 0.0
C433 C 0.85674 0.68667 0.6857 0.0
C434 C 0.86855 0.67477 0.65398 0.0
N435 N 0.88633 0.64991 0.57197 0.0
C436 C 0.88978 0.67017 0.57564 0.0
C437 C 0.89866 0.6775 0.53189 0.0
C438 C 0.90058 0.66129 0.49973 0.0
C439 C 0.89284 0.64497 0.52549 0.0
N440 N 0.88418 0.60666 0.58477 0.0
C441 C 0.89081 0.60634 0.53684 0.0
C442 C 0.89695 0.58737 0.52177 0.0
C443 C 0.89387 0.57501 0.56273 0.0
C444 C 0.88601 0.58716 0.60065 0.0
N445 N 0.84893 0.63018 0.57846 0.0
C446 C 0.81673 0.62891 0.50772 0.0
C447 C 0.82358 0.61124 0.53198 0.0
C448 C 0.83961 0.61219 0.56697 0.0
C449 C 0.82592 0.64729 0.52154 0.0
C450 C 0.84175 0.64762 0.55687 0.0
N451 N 0.89864 0.63173 0.66173 0.0
C452 C 0.93523 0.63093 0.66525 0.0
C453 C 0.93511 0.63458 0.71732 0.0
C454 C 0.91609 0.63632 0.74108 0.0
C455 C 0.89809 0.63485 0.7127 0.0
C456 C 0.91703 0.62963 0.63842 0.0
H457 H 0.88374 0.63647 0.73186 0.0
H458 H 0.91793 0.62706 0.59845 0.0
H459 H 0.84482 0.59823 0.58368 0.0
H460 H 0.84853 0.66206 0.56569 0.0
C461 C 0.83983 0.63668 0.70876 0.0
C462 C 0.87913 0.57953 0.64989 0.0
C463 C 0.88345 0.68303 0.61827 0.0
C464 C 0.89404 0.62456 0.51065 0.0
H465 H 0.85182 0.56941 0.73139 0.0
H466 H 0.82878 0.60027 0.76074 0.0
H467 H 0.83218 0.67785 0.73735 0.0
H468 H 0.85754 0.70293 0.69094 0.0
H469 H 0.90309 0.69297 0.5239 0.0
H470 H 0.90737 0.66132 0.4626 0.0
H471 H 0.90355 0.58314 0.48593 0.0
H472 H 0.89693 0.5589 0.56445 0.0
H473 H 0.81709 0.59662 0.52283 0.0
H474 H 0.82097 0.66145 0.50499 0.0
H475 H 0.94936 0.62897 0.645 0.0
H476 H 0.91506 0.63923 0.78114 0.0
C477 C 0.58627 0.13431 0.40244 0.0
C478 C 0.57391 0.12727 0.44099 0.0
C479 C 0.58613 0.1245 0.48229 0.0
C480 C 0.60523 0.13007 0.46694 0.0
N481 N 0.60579 0.13604 0.4185 0.0
Co482 Co 0.63031 0.14592 0.38247 0.0
N483 N 0.649 0.13386 0.43299 0.0
C484 C 0.64378 0.12813 0.47988 0.0
C485 C 0.6599 0.12071 0.50694 0.0
C486 C 0.67631 0.12204 0.47521 0.0
C487 C 0.66928 0.13026 0.43042 0.0
N488 N 0.65477 0.15574 0.34602 0.0
C489 C 0.67448 0.15008 0.35023 0.0
C490 C 0.68668 0.1612 0.31772 0.0
C491 C 0.67417 0.1743 0.2926 0.0
C492 C 0.6551 0.1705 0.31108 0.0
N493 N 0.61169 0.15819 0.33209 0.0
C494 C 0.61681 0.17234 0.29778 0.0
C495 C 0.60135 0.17685 0.26519 0.0
C496 C 0.58544 0.16497 0.28008 0.0
C497 C 0.59191 0.1541 0.32198 0.0
N498 N 0.62962 0.17121 0.42281 0.0
C499 C 0.62834 0.2041 0.49137 0.0
C500 C 0.64684 0.19545 0.47639 0.0
C501 C 0.64715 0.17907 0.44255 0.0
C502 C 0.61055 0.19635 0.46956 0.0
C503 C 0.61153 0.18019 0.43504 0.0
N504 N 0.63097 0.12047 0.34353 0.0
C505 C 0.63327 0.10215 0.26478 0.0
C506 C 0.63171 0.08348 0.29001 0.0
C507 C 0.62965 0.08389 0.34254 0.0
C508 C 0.62921 0.10237 0.36834 0.0
C509 C 0.63302 0.12042 0.29221 0.0
H510 H 0.62739 0.10196 0.40862 0.0
H511 H 0.63452 0.1345 0.27191 0.0
H512 H 0.66162 0.17239 0.43363 0.0
H513 H 0.59752 0.17461 0.41928 0.0
C514 C 0.62328 0.12721 0.49402 0.0
C515 C 0.57866 0.14101 0.3529 0.0
C516 C 0.68242 0.13575 0.38766 0.0
C517 C 0.63704 0.17797 0.29099 0.0
H518 H 0.55771 0.12468 0.43967 0.0
H519 H 0.58168 0.11863 0.51872 0.0
H520 H 0.65967 0.1145 0.54466 0.0
H521 H 0.6917 0.11763 0.48415 0.0
H522 H 0.70296 0.16014 0.31305 0.0
H523 H 0.67839 0.18486 0.26319 0.0
H524 H 0.60192 0.18672 0.23265 0.0
H525 H 0.57089 0.16434 0.26145 0.0
H526 H 0.661 0.20082 0.49214 0.0
H527 H 0.5959 0.20271 0.4792 0.0
H528 H 0.63502 0.10264 0.22424 0.0
H529 H 0.62808 0.06995 0.36375 0.0
C530 C 0.15118 0.42503 0.67333 0.0
C531 C 0.16361 0.43288 0.71081 0.0
C532 C 0.17578 0.4173 0.7267 0.0
C533 C 0.17017 0.40088 0.69813 0.0
N534 N 0.15519 0.40512 0.6654 0.0
Co535 Co 0.143 0.3858 0.61671 0.0
N536 N 0.15331 0.36202 0.65473 0.0
C537 C 0.16838 0.36237 0.68894 0.0
C538 C 0.17259 0.34362 0.70864 0.0
C539 C 0.15948 0.3306 0.68507 0.0
C540 C 0.14794 0.34219 0.65213 0.0
N541 N 0.13095 0.36636 0.56795 0.0
C542 C 0.12761 0.34609 0.57219 0.0
C543 C 0.11924 0.3384 0.52821 0.0
C544 C 0.11754 0.35437 0.49531 0.0
C545 C 0.12491 0.37092 0.52088 0.0
N546 N 0.13279 0.40971 0.57899 0.0
C547 C 0.1265 0.40963 0.5308 0.0
C548 C 0.12021 0.42841 0.51477 0.0
C549 C 0.12283 0.44108 0.55537 0.0
C550 C 0.13067 0.42931 0.59401 0.0
N551 N 0.16818 0.38631 0.57582 0.0
C552 C 0.201 0.38745 0.50681 0.0
C553 C 0.19382 0.40518 0.53021 0.0
C554 C 0.17749 0.4043 0.56432 0.0
C555 C 0.1918 0.36906 0.52062 0.0
C556 C 0.17565 0.3688 0.55516 0.0
N557 N 0.11765 0.38533 0.65619 0.0
C558 C 0.08103 0.38627 0.65762 0.0
C559 C 0.08072 0.3847 0.71026 0.0
C560 C 0.09949 0.38365 0.73532 0.0
C561 C 0.11773 0.38385 0.70763 0.0
C562 C 0.09947 0.38664 0.63157 0.0
H563 H 0.1319 0.38277 0.72777 0.0
H564 H 0.09893 0.38804 0.59121 0.0
H565 H 0.17203 0.41832 0.58027 0.0
H566 H 0.16889 0.35437 0.56409 0.0
C567 C 0.17609 0.38081 0.70658 0.0
C568 C 0.13703 0.43728 0.64343 0.0
C569 C 0.13357 0.33356 0.61567 0.0
C570 C 0.12366 0.39121 0.5052 0.0
H571 H 0.16397 0.44828 0.72487 0.0
H572 H 0.18686 0.41774 0.75674 0.0
H573 H 0.18351 0.33991 0.73763 0.0
H574 H 0.15875 0.31437 0.69086 0.0
H575 H 0.115 0.32286 0.52057 0.0
H576 H 0.11114 0.35404 0.45779 0.0
H577 H 0.11374 0.4323 0.47859 0.0
H578 H 0.11938 0.45711 0.55634 0.0
H579 H 0.2003 0.4198 0.52099 0.0
H580 H 0.19699 0.35487 0.50465 0.0
H581 H 0.06704 0.38748 0.63646 0.0
H582 H 0.10008 0.38232 0.77595 0.0
C583 C 0.43138 0.88636 0.40634 0.0
C584 C 0.44319 0.89448 0.44454 0.0
C585 C 0.4306 0.89717 0.48531 0.0
C586 C 0.41182 0.89058 0.46983 0.0
N587 N 0.41186 0.88402 0.42187 0.0
Co588 Co 0.38799 0.87327 0.38487 0.0
N589 N 0.36849 0.88543 0.43331 0.0
C590 C 0.37307 0.89178 0.48013 0.0
C591 C 0.35648 0.89914 0.50559 0.0
C592 C 0.34047 0.8971 0.47288 0.0
C593 C 0.34818 0.88853 0.42913 0.0
N594 N 0.36427 0.86251 0.34734 0.0
C595 C 0.34439 0.86777 0.34976 0.0
C596 C 0.33286 0.85593 0.3173 0.0
C597 C 0.34598 0.84275 0.29423 0.0
C598 C 0.36473 0.84722 0.31373 0.0
N599 N 0.4074 0.86088 0.33668 0.0
C600 C 0.40329 0.84561 0.30466 0.0
C601 C 0.41972 0.84007 0.276 0.0
C602 C 0.43517 0.8526 0.29108 0.0
C603 C 0.42723 0.86513 0.32822 0.0
N604 N 0.38872 0.84841 0.42685 0.0
C605 C 0.38988 0.81608 0.49707 0.0
C606 C 0.3714 0.82436 0.48075 0.0
C607 C 0.37115 0.84044 0.44605 0.0
C608 C 0.40775 0.82396 0.47581 0.0
C609 C 0.40684 0.83988 0.4406 0.0
N610 N 0.38727 0.89829 0.34437 0.0
C611 C 0.38551 0.91585 0.26452 0.0
C612 C 0.38637 0.93478 0.28886 0.0
C613 C 0.38789 0.93486 0.3415 0.0
C614 C 0.38839 0.91663 0.36828 0.0
C615 C 0.38584 0.89782 0.29293 0.0
H616 H 0.38974 0.91746 0.40862 0.0
H617 H 0.38492 0.88351 0.27336 0.0
H618 H 0.35665 0.84677 0.43593 0.0
H619 H 0.4209 0.8456 0.42543 0.0
C620 C 0.3934 0.89335 0.49557 0.0
C621 C 0.43927 0.87986 0.35695 0.0
C622 C 0.33565 0.88226 0.38585 0.0
C623 C 0.38324 0.8395 0.29644 0.0
H624 H 0.45921 0.89803 0.44311 0.0
H625 H 0.43452 0.90385 0.52124 0.0
H626 H 0.35614 0.90579 0.54287 0.0
H627 H 0.32489 0.90127 0.48051 0.0
H628 H 0.31662 0.8565 0.31157 0.0
H629 H 0.34234 0.8316 0.2657 0.0
H630 H 0.42023 0.82885 0.24627 0.0
H631 H 0.45052 0.85246 0.27657 0.0
H632 H 0.35716 0.81893 0.49598 0.0
H633 H 0.4224 0.81789 0.48634 0.0
H634 H 0.38423 0.91497 0.22392 0.0
H635 H 0.38896 0.949 0.36211 0.0
C636 C 0.86717 0.928 0.58456 0.0
C637 C 0.85483 0.93592 0.54704 0.0
C638 C 0.84251 0.92043 0.53123 0.0
C639 C 0.84799 0.90399 0.55983 0.0
N640 N 0.86303 0.90813 0.59249 0.0
Co641 Co 0.87517 0.8887 0.64097 0.0
N642 N 0.86463 0.86501 0.60291 0.0
C643 C 0.84956 0.86547 0.56875 0.0
C644 C 0.84523 0.84675 0.54893 0.0
C645 C 0.85828 0.83364 0.57236 0.0
C646 C 0.8699 0.84515 0.60533 0.0
N647 N 0.88705 0.86918 0.68966 0.0
C648 C 0.89019 0.84888 0.68541 0.0
C649 C 0.89851 0.84114 0.72936 0.0
C650 C 0.90037 0.85711 0.76226 0.0
C651 C 0.89315 0.87372 0.73671 0.0
N652 N 0.88572 0.91254 0.6785 0.0
C653 C 0.89204 0.91245 0.72665 0.0
C654 C 0.89842 0.93121 0.74264 0.0
C655 C 0.89583 0.94388 0.70204 0.0
C656 C 0.88797 0.93211 0.66341 0.0
N657 N 0.85003 0.88942 0.68218 0.0
C658 C 0.81725 0.89053 0.75143 0.0
C659 C 0.8253 0.9084 0.73064 0.0
C660 C 0.84143 0.90751 0.69589 0.0
C661 C 0.82559 0.87207 0.73509 0.0
C662 C 0.8419 0.87184 0.70091 0.0
N663 N 0.90049 0.88798 0.60124 0.0
C664 C 0.93714 0.88814 0.5996 0.0
C665 C 0.93737 0.88661 0.54694 0.0
C666 C 0.91856 0.88603 0.52197 0.0
C667 C 0.90034 0.88657 0.54977 0.0
C668 C 0.91872 0.8889 0.62575 0.0
H669 H 0.88613 0.8858 0.52969 0.0
H670 H 0.91931 0.89025 0.66612 0.0
H671 H 0.84725 0.92158 0.68109 0.0
H672 H 0.84828 0.85735 0.69084 0.0
C673 C 0.84195 0.88396 0.55127 0.0
C674 C 0.88155 0.94012 0.61415 0.0
C675 C 0.88421 0.83641 0.64179 0.0
C676 C 0.89467 0.89402 0.75232 0.0
H677 H 0.85466 0.95128 0.53277 0.0
H678 H 0.83146 0.92093 0.50114 0.0
H679 H 0.83427 0.84312 0.51995 0.0
H680 H 0.85892 0.81741 0.56648 0.0
H681 H 0.90265 0.82557 0.73697 0.0
H682 H 0.90682 0.85674 0.79973 0.0
H683 H 0.90486 0.93511 0.77887 0.0
H684 H 0.89921 0.95993 0.70103 0.0
H685 H 0.81922 0.92304 0.74121 0.0
H686 H 0.82004 0.85783 0.74996 0.0
H687 H 0.95117 0.88899 0.62069 0.0
H688 H 0.91792 0.88477 0.48134 0.0
C689 C 0.93158 0.13054 0.34379 0.0
C690 C 0.94323 0.12278 0.30479 0.0
C691 C 0.93045 0.12037 0.26434 0.0
C692 C 0.91173 0.12675 0.28081 0.0
N693 N 0.91197 0.13292 0.3291 0.0
Co694 Co 0.88827 0.1434 0.36734 0.0
N695 N 0.86857 0.13174 0.3187 0.0
C696 C 0.87297 0.12576 0.27144 0.0
C697 C 0.85628 0.11864 0.24604 0.0
C698 C 0.84039 0.12044 0.27924 0.0
C699 C 0.84827 0.12865 0.32322 0.0
N700 N 0.8647 0.15385 0.40611 0.0
C701 C 0.84481 0.14866 0.40387 0.0
C702 C 0.83341 0.16021 0.43729 0.0
C703 C 0.84663 0.17313 0.46084 0.0
C704 C 0.8653 0.1688 0.44062 0.0
N705 N 0.90788 0.15533 0.41571 0.0
C706 C 0.90388 0.17026 0.44881 0.0
C707 C 0.92043 0.17557 0.47726 0.0
C708 C 0.93584 0.16326 0.46087 0.0
C709 C 0.92777 0.1511 0.42317 0.0
N710 N 0.88893 0.16866 0.3268 0.0
C711 C 0.88994 0.20193 0.25929 0.0
C712 C 0.87149 0.19358 0.27566 0.0
C713 C 0.87131 0.17701 0.30892 0.0
C714 C 0.90786 0.1936 0.279 0.0
C715 C 0.90703 0.17724 0.31297 0.0
N716 N 0.88762 0.11799 0.40652 0.0
C717 C 0.88619 0.09977 0.48555 0.0
C718 C 0.88679 0.08102 0.4603 0.0
C719 C 0.88798 0.08136 0.40758 0.0
C720 C 0.88848 0.09982 0.38167 0.0
C721 C 0.88648 0.11803 0.45802 0.0
H722 H 0.88961 0.09932 0.34125 0.0
H723 H 0.88574 0.13217 0.47836 0.0
H724 H 0.85683 0.17063 0.31906 0.0
H725 H 0.92114 0.17125 0.32713 0.0
C726 C 0.89323 0.12425 0.25541 0.0
C727 C 0.93973 0.13677 0.39304 0.0
C728 C 0.83591 0.13455 0.36714 0.0
C729 C 0.88388 0.17631 0.45792 0.0
H730 H 0.95928 0.11936 0.30545 0.0
H731 H 0.93423 0.11405 0.22789 0.0
H732 H 0.8558 0.11229 0.20846 0.0
H733 H 0.82479 0.11633 0.2718 0.0
H734 H 0.81718 0.15963 0.44336 0.0
H735 H 0.84311 0.184 0.4901 0.0
H736 H 0.92105 0.1865 0.50764 0.0
H737 H 0.95125 0.16331 0.47491 0.0
H738 H 0.85722 0.19937 0.26153 0.0
H739 H 0.9225 0.19967 0.26826 0.0
H740 H 0.88516 0.10034 0.52624 0.0
H741 H 0.88881 0.06738 0.38626 0.0
C742 C 0.15115 0.0886 0.58206 0.0
C743 C 0.16352 0.08076 0.54443 0.0
C744 C 0.17576 0.0963 0.52864 0.0
C745 C 0.17023 0.11271 0.55735 0.0
N746 N 0.15521 0.1085 0.59007 0.0
Co747 Co 0.14298 0.12786 0.63866 0.0
N748 N 0.1534 0.15162 0.60066 0.0
C749 C 0.16849 0.15123 0.56646 0.0
C750 C 0.17274 0.16998 0.54673 0.0
C751 C 0.15962 0.18302 0.57026 0.0
C752 C 0.14803 0.17145 0.60318 0.0
N753 N 0.13099 0.14732 0.68746 0.0
C754 C 0.12774 0.1676 0.68328 0.0
C755 C 0.11934 0.17528 0.72727 0.0
C756 C 0.11756 0.15929 0.76012 0.0
C757 C 0.12489 0.14274 0.7345 0.0
N758 N 0.13257 0.10396 0.67616 0.0
C759 C 0.12627 0.10401 0.72435 0.0
C760 C 0.11998 0.08521 0.74031 0.0
C761 C 0.12262 0.07256 0.69963 0.0
C762 C 0.1304 0.08438 0.66101 0.0
N763 N 0.1681 0.12729 0.67975 0.0
C764 C 0.20075 0.12636 0.74916 0.0
C765 C 0.19288 0.10845 0.72817 0.0
C766 C 0.17681 0.10924 0.69334 0.0
C767 C 0.19231 0.14477 0.7329 0.0
C768 C 0.17608 0.14491 0.69861 0.0
N769 N 0.11768 0.12846 0.59908 0.0
C770 C 0.08106 0.12798 0.59765 0.0
C771 C 0.0808 0.12973 0.54505 0.0
C772 C 0.09959 0.13057 0.51998 0.0
C773 C 0.11782 0.13004 0.54766 0.0
C774 C 0.09947 0.12729 0.62368 0.0
H775 H 0.13202 0.13099 0.52753 0.0
H776 H 0.0989 0.12582 0.66402 0.0
H777 H 0.1711 0.09514 0.67841 0.0
H778 H 0.16962 0.15936 0.6886 0.0
C779 C 0.17618 0.13277 0.54887 0.0
C780 C 0.13682 0.07642 0.61166 0.0
C781 C 0.13368 0.18012 0.63971 0.0
C782 C 0.12352 0.12242 0.75007 0.0
H783 H 0.16374 0.0654 0.53008 0.0
H784 H 0.18682 0.09586 0.49849 0.0
H785 H 0.1837 0.17366 0.51777 0.0
H786 H 0.15894 0.19925 0.56448 0.0
H787 H 0.11509 0.19082 0.73495 0.0
H788 H 0.1111 0.15962 0.79759 0.0
H789 H 0.11357 0.08127 0.77655 0.0
H790 H 0.11931 0.0565 0.69858 0.0
H791 H 0.19906 0.09384 0.73867 0.0
H792 H 0.19772 0.15905 0.74794 0.0
H793 H 0.06704 0.12691 0.61881 0.0
H794 H 0.10022 0.13201 0.47938 0.0
C795 C 0.08619 0.88539 0.34263 0.0
C796 C 0.07435 0.89306 0.30392 0.0
C797 C 0.08699 0.89555 0.26316 0.0
C798 C 0.1058 0.8893 0.27915 0.0
N799 N 0.10576 0.88314 0.32743 0.0
Co800 Co 0.12968 0.87288 0.36506 0.0
N801 N 0.14914 0.88471 0.31602 0.0
C802 C 0.14454 0.89065 0.2689 0.0
C803 C 0.1611 0.89787 0.24308 0.0
C804 C 0.17712 0.89617 0.27588 0.0
C805 C 0.16944 0.88795 0.32005 0.0
N806 N 0.15347 0.86259 0.40319 0.0
C807 C 0.17332 0.86791 0.40046 0.0
C808 C 0.1849 0.85645 0.43361 0.0
C809 C 0.17184 0.84346 0.45747 0.0
C810 C 0.15308 0.84765 0.4377 0.0
N811 N 0.11032 0.86082 0.41391 0.0
C812 C 0.11453 0.84593 0.44689 0.0
C813 C 0.09812 0.84053 0.47579 0.0
C814 C 0.08258 0.85274 0.45984 0.0
C815 C 0.09043 0.86495 0.42196 0.0
N816 N 0.1291 0.8476 0.32441 0.0
C817 C 0.12812 0.81428 0.25663 0.0
C818 C 0.14653 0.82314 0.27169 0.0
C819 C 0.14669 0.83964 0.30526 0.0
C820 C 0.11024 0.82219 0.2779 0.0
C821 C 0.11106 0.83863 0.31173 0.0
N822 N 0.13027 0.89831 0.40428 0.0
C823 C 0.13198 0.91661 0.48325 0.0
C824 C 0.13119 0.93533 0.45799 0.0
C825 C 0.12973 0.93494 0.40533 0.0
C826 C 0.12918 0.91646 0.37946 0.0
C827 C 0.13165 0.89832 0.45575 0.0
H828 H 0.12785 0.91693 0.33908 0.0
H829 H 0.13256 0.88419 0.47607 0.0
H830 H 0.16115 0.84628 0.31459 0.0
H831 H 0.09698 0.84436 0.32678 0.0
C832 C 0.12421 0.89197 0.25335 0.0
C833 C 0.07826 0.87921 0.39218 0.0
C834 C 0.182 0.88209 0.3636 0.0
C835 C 0.13461 0.84002 0.45547 0.0
H836 H 0.05829 0.89642 0.30501 0.0
H837 H 0.08304 0.90186 0.22684 0.0
H838 H 0.16142 0.90419 0.20547 0.0
H839 H 0.19268 0.90034 0.26805 0.0
H840 H 0.20114 0.85716 0.43934 0.0
H841 H 0.17553 0.83262 0.48665 0.0
H842 H 0.09768 0.8296 0.50617 0.0
H843 H 0.06722 0.8526 0.47427 0.0
H844 H 0.1608 0.81782 0.25642 0.0
H845 H 0.09562 0.81575 0.26851 0.0
H846 H 0.13321 0.91607 0.5239 0.0
H847 H 0.12873 0.9489 0.38401 0.0
C848 C 0.39721 0.95737 0.21647 0.0
C849 C 0.38566 0.95442 0.26038 0.0
C850 C 0.39757 0.97631 0.19163 0.0
C851 C 0.38596 0.99272 0.21071 0.0
C852 C 0.37389 0.98964 0.25427 0.0
C853 C 0.37394 0.97066 0.27849 0.0
C854 C 0.41074 0.9789 0.14558 0.0
C855 C 0.36104 1.00652 0.27576 0.0
C856 C 0.39877 0.04835 0.18595 0.0
C857 C 0.38412 0.05375 0.15023 0.0
C858 C 0.40031 0.02828 0.20379 0.0
C859 C 0.38659 0.01328 0.18621 0.0
C860 C 0.37227 0.01857 0.14855 0.0
C861 C 0.37123 0.03872 0.13101 0.0
C862 C 0.41592 0.02341 0.2435 0.0
C863 C 0.35721 1.00326 0.12898 0.0
H864 H 0.40646 0.94503 0.20233 0.0
H865 H 0.36471 0.96851 0.31187 0.0
H866 H 0.4015 0.98441 0.11348 0.0
H867 H 0.42253 0.99053 0.15304 0.0
H868 H 0.41834 0.96456 0.13439 0.0
H869 H 0.35201 1.00154 0.30885 0.0
H870 H 0.37088 0.01934 0.28743 0.0
H871 H 0.35051 0.01235 0.24658 0.0
H872 H 0.40848 0.06005 0.20149 0.0
H873 H 0.35959 0.04301 0.10421 0.0
H874 H 0.42447 0.00955 0.23307 0.0
H875 H 0.40821 0.02035 0.27987 0.0
H876 H 0.42685 0.03604 0.24912 0.0
H877 H 0.36506 0.9891 0.11764 0.0
H878 H 0.34851 0.00912 0.09627 0.0
H879 H 0.34636 0.99928 0.15937 0.0
C880 C 0.03911 0.65798 0.87033 0.0
C881 C 0.05335 0.64269 0.8606 0.0
C882 C 0.0191 0.65663 0.85169 0.0
C883 C 0.01322 0.63967 0.82214 0.0
C884 C 0.02746 0.62389 0.81375 0.0
C885 C 0.0473 0.6256 0.83306 0.0
C886 C 1.00451 0.67376 0.86189 0.0
C887 C 0.02205 0.60559 0.78237 0.0
C888 C 0.95711 0.62867 0.79453 0.0
C889 C 0.95476 0.63667 0.74577 0.0
C890 C 0.97586 0.6298 0.82019 0.0
C891 C 0.99281 0.63912 0.79673 0.0
C892 C 0.99043 0.64753 0.74799 0.0
C893 C 0.97154 0.6463 0.72339 0.0
C894 C 0.97763 0.62072 0.87215 0.0
C895 C 1.00796 0.65764 0.72135 0.0
H896 H 0.04384 0.6713 0.89113 0.0
H897 H 0.05837 0.61389 0.82498 0.0
H898 H 1.00109 0.6818 0.82619 0.0
H899 H 0.98996 0.66776 0.87672 0.0
H900 H 0.01071 0.68489 0.88925 0.0
H901 H 0.03427 0.594 0.78236 0.0
H902 H 1.00789 0.59853 0.79662 0.0
H903 H 0.0192 0.61035 0.74292 0.0
H904 H 0.94442 0.62105 0.81226 0.0
H905 H 0.96994 0.65298 0.68633 0.0
H906 H 0.98342 0.63223 0.89903 0.0
H907 H 0.98871 0.60807 0.87156 0.0
H908 H 0.96288 0.61487 0.8863 0.0
H909 H 0.01392 0.67029 0.74458 0.0
H910 H 1.00362 0.6637 0.68384 0.0
H911 H 0.02052 0.64663 0.7162 0.0
C912 C 0.64666 0.979 0.13431 0.0
C913 C 0.63357 0.96406 0.15314 0.0
C914 C 0.64573 0.99913 0.15205 0.0
C915 C 0.63132 1.0045 0.1895 0.0
C916 C 0.61745 0.98958 0.2068 0.0
C917 C 0.61888 0.96952 0.18877 0.0
C918 C 0.66096 0.01435 0.13281 0.0
C919 C 0.60174 0.99455 0.24626 0.0
C920 C 0.64372 0.04738 0.28139 0.0
C921 C 0.63227 0.06363 0.26243 0.0
C922 C 0.64376 0.02829 0.2576 0.0
C923 C 0.6319 0.02511 0.21377 0.0
C924 C 0.62048 0.04151 0.19402 0.0
C925 C 0.62089 0.06056 0.21833 0.0
C926 C 0.65643 0.01143 0.27972 0.0
C927 C 0.60748 0.0388 0.14776 0.0
H928 H 0.65831 0.97465 0.10757 0.0
H929 H 0.60902 0.95789 0.204 0.0
H930 H 0.65321 0.02848 0.12095 0.0
H931 H 0.67161 0.01841 0.16354 0.0
H932 H 0.66987 1.00838 0.10051 0.0
H933 H 0.59077 0.98196 0.25183 0.0
H934 H 0.60935 0.99767 0.2827 0.0
H935 H 0.59324 1.00841 0.23557 0.0
H936 H 0.65278 0.04962 0.31499 0.0
H937 H 0.61185 0.07292 0.20358 0.0
H938 H 0.66708 1.00547 0.25091 0.0
H939 H 0.64649 0.99869 0.29135 0.0
H940 H 0.66533 0.01649 0.31296 0.0
H941 H 0.61685 0.03328 0.11586 0.0
H942 H 0.59987 0.0531 0.13631 0.0
H943 H 0.5957 0.02715 0.15508 0.0
C944 C 0.05776 0.39566 0.78192 0.0
C945 C 0.06086 0.38415 0.73802 0.0
C946 C 0.03868 0.39612 0.80623 0.0
C947 C 0.02227 0.38464 0.78665 0.0
C948 C 0.02549 0.37264 0.74304 0.0
C949 C 0.04461 0.37261 0.71931 0.0
C950 C 0.03596 0.40923 0.85232 0.0
C951 C 1.00863 0.35992 0.72105 0.0
C952 C 0.97625 0.37051 0.86747 0.0
C953 C 0.96137 0.38379 0.84921 0.0
C954 C 0.99628 0.37106 0.84879 0.0
C955 C 1.00163 0.38528 0.81094 0.0
C956 C 0.98673 0.3992 0.79378 0.0
C957 C 0.96677 0.39816 0.81279 0.0
C958 C 0.01146 0.35579 0.86791 0.0
C959 C 0.99167 0.41471 0.75386 0.0
H960 H 0.0701 0.40478 0.79651 0.0
H961 H 0.04686 0.36342 0.68591 0.0
H962 H 0.0243 0.42097 0.84486 0.0
H963 H 0.03043 0.39993 0.88433 0.0
H964 H 0.05026 0.41686 0.86368 0.0
H965 H 0.01369 0.35096 0.6879 0.0
H966 H 1.00267 0.34934 0.74997 0.0
H967 H 0.99588 0.36982 0.70932 0.0
H968 H 0.97197 0.35915 0.89499 0.0
H969 H 0.95519 0.40822 0.79814 0.0
H970 H 0.02555 0.36353 0.88019 0.0
H971 H 0.01565 0.34525 0.83702 0.0
H972 H 1.00543 0.34677 0.89991 0.0
H973 H 1.00545 0.42336 0.76451 0.0
H974 H 0.97901 0.42555 0.74773 0.0
H975 H 0.99497 0.40693 0.71772 0.0
C976 C 0.37374 0.47902 0.13452 0.0
C977 C 0.385 0.46389 0.1101 0.0
C978 C 0.37463 0.4994 0.11851 0.0
C979 C 0.38697 0.50479 0.07678 0.0
C980 C 0.399 0.4896 0.05343 0.0
C981 C 0.39777 0.46937 0.07017 0.0
C982 C 0.36148 0.51493 0.14449 0.0
C983 C 0.41239 0.49452 0.00895 0.0
C984 C 0.37136 0.5488 0.99186 0.0
C985 C 0.38503 0.56418 0.00565 0.0
C986 C 0.37154 0.52972 0.01556 0.0
C987 C 0.38578 0.52568 0.05424 0.0
C988 C 0.3992 0.54134 0.06957 0.0
C989 C 0.39862 0.5604 0.04527 0.0
C990 C 0.35677 0.51368 0.99816 0.0
C991 C 0.41462 0.53774 0.11054 0.0
H992 H 0.36349 0.47474 0.16465 0.0
H993 H 0.40619 0.45762 0.05069 0.0
H994 H 0.37044 0.52866 0.15375 0.0
H995 H 0.3491 0.51966 0.11877 0.0
H996 H 0.35459 0.50892 0.17965 0.0
H997 H 0.42227 0.48157 0.99823 0.0
H998 H 0.40282 0.49855 0.97609 0.0
H999 H 0.4221 0.50781 0.01748 0.0
H1000 H 0.36059 0.55162 0.96185 0.0
H1001 H 0.40933 0.57209 0.05601 0.0
H1002 H 0.34786 0.50792 0.0306 0.0
H1003 H 0.3652 0.50063 0.98209 0.0
H1004 H 0.34608 0.51946 0.96919 0.0
H1005 H 0.40706 0.53185 0.14489 0.0
H1006 H 0.42309 0.55174 0.12044 0.0
H1007 H 0.42564 0.52606 0.09802 0.0
C1008 C 0.47905 0.64817 0.89039 0.0
C1009 C 0.46358 0.63518 0.90676 0.0
C1010 C 0.4989 0.64658 0.90979 0.0
C1011 C 0.50342 0.63165 0.9466 0.0
C1012 C 0.4879 0.61805 0.96186 0.0
C1013 C 0.46817 0.62004 0.94194 0.0
C1014 C 0.51483 0.66144 0.89239 0.0
C1015 C 0.49192 0.60188 1.00077 0.0
C1016 C 0.55896 0.61866 0.97526 0.0
C1017 C 0.56267 0.62988 0.01938 0.0
C1018 C 0.53987 0.61909 0.95117 0.0
C1019 C 0.52396 0.63107 0.97136 0.0
C1020 C 0.52763 0.64252 0.01564 0.0
C1021 C 0.54683 0.64179 0.03897 0.0
C1022 C 0.53668 0.60658 0.90424 0.0
C1023 C 0.51124 0.65561 0.03849 0.0
H1024 H 0.47539 0.66006 0.86374 0.0
H1025 H 0.45613 0.61019 0.9551 0.0
H1026 H 0.51935 0.67133 0.92429 0.0
H1027 H 0.52861 0.65325 0.8797 0.0
H1028 H 0.50934 0.67118 0.8611 0.0
H1029 H 0.47876 0.59157 0.00581 0.0
H1030 H 0.50535 0.59274 0.98985 0.0
H1031 H 0.49539 0.6091 0.03753 0.0
H1032 H 0.57091 0.60921 0.95994 0.0
H1033 H 0.54948 0.6508 0.07245 0.0
H1034 H 0.5319 0.61649 0.87265 0.0
H1035 H 0.52431 0.59546 0.91059 0.0
H1036 H 0.55058 0.59824 0.89284 0.0
H1037 H 0.50604 0.66701 0.01061 0.0
H1038 H 0.51648 0.66369 0.07284 0.0
H1039 H 0.49793 0.64615 0.04853 0.0
C1040 C 0.62108 0.45796 0.03651 0.0
C1041 C 0.63292 0.45451 0.99332 0.0
C1042 C 0.62089 0.47706 0.06062 0.0
C1043 C 0.63301 0.49311 0.04158 0.0
C1044 C 0.64537 0.48951 0.99879 0.0
C1045 C 0.64511 0.47039 0.9752 0.0
C1046 C 0.60736 0.48021 0.10581 0.0
C1047 C 0.65877 0.50598 0.97744 0.0
C1048 C 0.62086 0.54903 0.0644 0.0
C1049 C 0.63515 0.55432 0.10113 0.0
C1050 C 0.61927 0.52896 0.04661 0.0
C1051 C 0.63257 0.51381 0.06534 0.0
C1052 C 0.64659 0.51902 0.10378 0.0
C1053 C 0.6477 0.53919 0.1212 0.0
C1054 C 0.604 0.52419 0.00599 0.0
C1055 C 0.6612 0.50354 0.12457 0.0
H1056 H 0.61149 0.44588 0.0506 0.0
H1057 H 0.65454 0.46784 0.94232 0.0
H1058 H 0.61643 0.4857 0.13826 0.0
H1059 H 0.59591 0.49205 0.09729 0.0
H1060 H 0.59934 0.46611 0.11703 0.0
H1061 H 0.66801 0.5006 0.94509 0.0
H1062 H 0.64931 0.51891 0.9647 0.0
H1063 H 0.66913 0.51179 0.00703 0.0
H1064 H 0.61141 0.56081 0.04828 0.0
H1065 H 0.65905 0.54337 0.14884 0.0
H1066 H 0.59501 0.5106 0.01638 0.0
H1067 H 0.61204 0.52068 0.97031 0.0
H1068 H 0.59345 0.53702 0.99912 0.0
H1069 H 0.65297 0.48964 0.13617 0.0
H1070 H 0.66982 0.50944 0.15739 0.0
H1071 H 0.67215 0.4991 0.0948 0.0
C1072 C 0.46236 0.40081 0.98566 0.0
C1073 C 0.45804 0.38839 0.02731 0.0
C1074 C 0.48159 0.40053 0.96216 0.0
C1075 C 0.49695 0.38736 0.98024 0.0
C1076 C 0.49261 0.37464 0.02191 0.0
C1077 C 0.47334 0.37536 0.04495 0.0
C1078 C 0.48554 0.41451 0.91826 0.0
C1079 C 0.50834 0.36016 0.04222 0.0
C1080 C 0.54155 0.37183 0.89602 0.0
C1081 C 0.55742 0.38358 0.91555 0.0
C1082 C 0.52173 0.37328 0.91572 0.0
C1083 C 0.5176 0.38686 0.95595 0.0
C1084 C 0.53355 0.39919 0.97468 0.0
C1085 C 0.55328 0.39726 0.95458 0.0
C1086 C 0.50537 0.35968 0.8948 0.0
C1087 C 0.52995 0.41399 0.01712 0.0
H1088 H 0.45079 0.4111 0.97195 0.0
H1089 H 0.47016 0.36547 0.07657 0.0
H1090 H 0.49832 0.42483 0.9273 0.0
H1091 H 0.49006 0.40556 0.88469 0.0
H1092 H 0.47205 0.42379 0.90848 0.0
H1093 H 0.50254 0.35105 0.07432 0.0
H1094 H 0.51337 0.34968 0.012 0.0
H1095 H 0.52189 0.36872 0.05494 0.0
H1096 H 0.54485 0.36095 0.86651 0.0
H1097 H 0.56562 0.40612 0.97021 0.0
H1098 H 0.492 0.3688 0.88345 0.0
H1099 H 0.50025 0.34896 0.92439 0.0
H1100 H 0.51068 0.35081 0.86175 0.0
H1101 H 0.51695 0.42402 0.00805 0.0
H1102 H 0.54347 0.42354 0.02484 0.0
H1103 H 0.52598 0.40559 0.05196 0.0
C1104 C 0.87432 0.47415 0.79495 0.0
C1105 C 0.88495 0.45783 0.77331 0.0
C1106 C 0.87387 0.49342 0.77209 0.0
C1107 C 0.88431 0.49674 0.72612 0.0
C1108 C 0.89483 0.4803 0.70357 0.0
C1109 C 0.89499 0.4611 0.72726 0.0
C1110 C 0.86227 0.51033 0.79746 0.0
C1111 C 0.9062 0.48308 0.65472 0.0
C1112 C 0.86774 0.54311 0.64955 0.0
C1113 C 0.88194 0.55776 0.66442 0.0
C1114 C 0.86867 0.52308 0.66805 0.0
C1115 C 0.88424 0.51747 0.70223 0.0
C1116 C 0.899 0.53215 0.71598 0.0
C1117 C 0.89759 0.55211 0.69715 0.0
C1118 C 0.85253 0.50813 0.65247 0.0
C1119 C 0.91591 0.52695 0.75196 0.0
H1120 H 0.86618 0.47183 0.82995 0.0
H1121 H 0.90341 0.44877 0.71025 0.0
H1122 H 0.87271 0.52297 0.80675 0.0
H1123 H 0.85059 0.51642 0.77148 0.0
H1124 H 0.85468 0.50527 0.83265 0.0
H1125 H 0.91326 0.46876 0.64132 0.0
H1126 H 0.89579 0.48878 0.62513 0.0
H1127 H 0.91828 0.49462 0.65968 0.0
H1128 H 0.85549 0.54755 0.62465 0.0
H1129 H 0.90846 0.56349 0.70901 0.0
H1130 H 0.84329 0.50385 0.68576 0.0
H1131 H 0.8596 0.49406 0.63778 0.0
H1132 H 0.84227 0.5144 0.62318 0.0
H1133 H 0.90949 0.52347 0.78962 0.0
H1134 H 0.92701 0.53952 0.75599 0.0
H1135 H 0.92406 0.51321 0.73885 0.0
C1136 C 0.54411 0.15524 0.3313 0.0
C1137 C 0.55664 0.13833 0.33923 0.0
C1138 C 0.52432 0.15313 0.31211 0.0
C1139 C 0.51614 0.13352 0.30396 0.0
C1140 C 0.52812 0.11632 0.31627 0.0
C1141 C 0.54832 0.11893 0.33281 0.0
C1142 C 0.51254 0.17195 0.29834 0.0
C1143 C 0.51972 0.09515 0.31125 0.0
C1144 C 0.45844 0.13194 0.28577 0.0
C1145 C 0.45638 0.12916 0.23325 0.0
C1146 C 0.47761 0.13234 0.30949 0.0
C1147 C 0.49554 0.13113 0.28018 0.0
C1148 C 0.49376 0.12848 0.22744 0.0
C1149 C 0.47443 0.12689 0.20509 0.0
C1150 C 0.47861 0.13425 0.36611 0.0
C1151 C 0.51235 0.12776 0.19417 0.0
H1152 H 0.55016 0.17027 0.33809 0.0
H1153 H 0.55774 0.10577 0.34004 0.0
H1154 H 0.50829 0.1714 0.2579 0.0
H1155 H 0.49828 0.1727 0.32038 0.0
H1156 H 0.52132 0.18605 0.30525 0.0
H1157 H 0.5297 0.08369 0.32927 0.0
H1158 H 0.50442 0.09424 0.3286 0.0
H1159 H 0.51809 0.09121 0.27086 0.0
H1160 H 0.44516 0.1341 0.30903 0.0
H1161 H 0.47376 0.1239 0.16513 0.0
H1162 H 0.48322 0.14986 0.37651 0.0
H1163 H 0.49009 0.1237 0.38184 0.0
H1164 H 0.46374 0.13104 0.38413 0.0
H1165 H 0.50845 0.12697 0.15352 0.0
H1166 H 0.52172 0.11437 0.20379 0.0
H1167 H 0.52183 0.14143 0.20062 0.0
C1168 C 0.11753 0.55489 0.72069 0.0
C1169 C 0.13158 0.56046 0.75813 0.0
C1170 C 0.11742 0.53523 0.69961 0.0
C1171 C 0.13177 0.52063 0.71586 0.0
C1172 C 0.14611 0.52618 0.75318 0.0
C1173 C 0.14579 0.54587 0.77387 0.0
C1174 C 0.10184 0.53005 0.66003 0.0
C1175 C 0.16174 0.51121 0.77171 0.0
C1176 C 0.12174 0.46379 0.69984 0.0
C1177 C 0.13374 0.459 0.6579 0.0
C1178 C 0.12048 0.48383 0.71815 0.0
C1179 C 0.13173 0.49949 0.69439 0.0
C1180 C 0.14364 0.4947 0.65144 0.0
C1181 C 0.14453 0.47454 0.63382 0.0
C1182 C 0.10755 0.48812 0.76384 0.0
C1183 C 0.15601 0.51076 0.62507 0.0
H1184 H 0.10663 0.56595 0.70746 0.0
H1185 H 0.15651 0.54968 0.80331 0.0
H1186 H 0.10951 0.5252 0.62483 0.0
H1187 H 0.0924 0.51713 0.67301 0.0
H1188 H 0.09171 0.54303 0.65131 0.0
H1189 H 0.17219 0.51797 0.79989 0.0
H1190 H 0.15406 0.49797 0.78908 0.0
H1191 H 0.17084 0.50545 0.73958 0.0
H1192 H 0.11368 0.45172 0.719 0.0
H1193 H 0.15419 0.47077 0.6021 0.0
H1194 H 0.09677 0.50061 0.7557 0.0
H1195 H 0.11731 0.49316 0.79549 0.0
H1196 H 0.0988 0.47461 0.77614 0.0
H1197 H 0.14621 0.52374 0.61443 0.0
H1198 H 0.16357 0.50487 0.59064 0.0
H1199 H 0.1678 0.51664 0.65104 0.0
C1200 C 0.47657 0.87186 0.36169 0.0
C1201 C 0.46082 0.88363 0.34163 0.0
C1202 C 0.49649 0.87319 0.34248 0.0
C1203 C 0.50086 0.88665 0.30221 0.0
C1204 C 0.48501 0.89898 0.28286 0.0
C1205 C 0.46519 0.89718 0.30248 0.0
C1206 C 0.51271 0.85959 0.36405 0.0
C1207 C 0.48886 0.91365 0.24034 0.0
C1208 C 0.55629 0.90052 0.27411 0.0
C1209 C 0.56082 0.88804 0.23264 0.0
C1210 C 0.53694 0.90028 0.29702 0.0
C1211 C 0.52165 0.88708 0.27859 0.0
C1212 C 0.52622 0.87428 0.23715 0.0
C1213 C 0.5456 0.87498 0.21468 0.0
C1214 C 0.53277 0.91434 0.34066 0.0
C1215 C 0.51058 0.85977 0.21648 0.0
H1216 H 0.4731 0.86109 0.39131 0.0
H1217 H 0.45296 0.90605 0.28643 0.0
H1218 H 0.51798 0.84883 0.3347 0.0
H1219 H 0.52602 0.86871 0.37583 0.0
H1220 H 0.50719 0.85077 0.39696 0.0
H1221 H 0.47538 0.92318 0.232 0.0
H1222 H 0.50181 0.92372 0.24973 0.0
H1223 H 0.49303 0.90516 0.20577 0.0
H1224 H 0.56779 0.91083 0.28807 0.0
H1225 H 0.54893 0.86505 0.1832 0.0
H1226 H 0.52804 0.90546 0.37416 0.0
H1227 H 0.52007 0.92467 0.33109 0.0
H1228 H 0.54623 0.92361 0.35082 0.0
H1229 H 0.50536 0.84937 0.24666 0.0
H1230 H 0.51656 0.85056 0.18471 0.0
H1231 H 0.49712 0.86831 0.20316 0.0
C1232 C 0.89894 0.96687 0.56247 0.0
C1233 C 0.88485 0.96184 0.59993 0.0
C1234 C 0.90019 0.98676 0.54314 0.0
C1235 C 0.88674 1.00197 0.56102 0.0
C1236 C 0.8728 0.99698 0.59986 0.0
C1237 C 0.87205 0.97702 0.61885 0.0
C1238 C 0.9154 0.99129 0.50218 0.0
C1239 C 0.85802 0.0125 0.61981 0.0
C1240 C 0.898 0.05784 0.53118 0.0
C1241 C 0.88615 0.06116 0.48797 0.0
C1242 C 0.89831 0.03877 0.55547 0.0
C1243 C 0.88631 0.02259 0.53665 0.0
C1244 C 0.87398 0.02603 0.49374 0.0
C1245 C 0.87413 0.04513 0.46995 0.0
C1246 C 0.91181 0.03582 0.60074 0.0
C1247 C 0.8607 0.00944 0.4726 0.0
H1248 H 0.90863 0.95507 0.5473 0.0
H1249 H 0.86088 0.97303 0.64717 0.0
H1250 H 0.90732 0.9947 0.46653 0.0
H1251 H 0.92445 1.00489 0.51216 0.0
H1252 H 0.92591 0.9784 0.49546 0.0
H1253 H 0.84916 1.0067 0.65236 0.0
H1254 H 0.86618 0.02642 0.63156 0.0
H1255 H 0.84729 0.01688 0.58952 0.0
H1256 H 0.90748 0.07 0.54524 0.0
H1257 H 0.86469 0.04754 0.43708 0.0
H1258 H 0.92321 0.02387 0.59262 0.0
H1259 H 0.9027 0.03057 0.63337 0.0
H1260 H 0.9199 0.04994 0.61149 0.0
H1261 H 0.87021 0.99648 0.4603 0.0
H1262 H 0.85153 0.01466 0.44001 0.0
H1263 H 0.85027 1.00373 0.50219 0.0
C1264 C 0.96663 0.11869 0.44265 0.0
C1265 C 0.96149 0.13333 0.40668 0.0
C1266 C 0.98658 0.1172 0.46151 0.0
C1267 C 1.00172 0.13093 0.44467 0.0
C1268 C 0.99661 0.14542 0.40726 0.0
C1269 C 0.9766 0.14642 0.3887 0.0
C1270 C 0.99124 0.10142 0.50096 0.0
C1271 C 0.01206 0.16051 0.38847 0.0
C1272 C 0.04491 0.14248 0.53644 0.0
C1273 C 0.06096 0.13073 0.51737 0.0
C1274 C 0.02579 0.14287 0.51279 0.0
C1275 C 0.02237 0.13112 0.46889 0.0
C1276 C 0.03857 0.11944 0.44893 0.0
C1277 C 0.05766 0.11947 0.47318 0.0
C1278 C 0.00915 0.15578 0.53519 0.0
C1279 C 0.03563 0.10659 0.40249 0.0
H1280 H 0.95488 0.10876 0.45705 0.0
H1281 H 0.97251 0.15797 0.36151 0.0
H1282 H 1.00487 0.09258 0.48999 0.0
H1283 H 0.99468 0.10898 0.53731 0.0
H1284 H 0.97839 0.09078 0.50684 0.0
H1285 H 1.00619 0.16977 0.35674 0.0
H1286 H 0.01644 0.17084 0.41962 0.0
H1287 H 0.02602 0.15258 0.37593 0.0
H1288 H 0.04732 0.15149 0.57006 0.0
H1289 H 0.06984 0.11021 0.45829 0.0
H1290 H 0.99623 0.14605 0.5467 0.0
H1291 H 1.00337 0.16659 0.50659 0.0
H1292 H 0.01436 0.1645 0.56856 0.0
H1293 H 0.02377 0.09501 0.40969 0.0
H1294 H 0.0498 0.09876 0.39086 0.0
H1295 H 0.03026 0.11611 0.37077 0.0
C1296 C 0.14385 0.97126 0.46715 0.0
C1297 C 0.13192 0.95523 0.48559 0.0
C1298 C 0.14408 0.99038 0.49086 0.0
C1299 C 0.13193 0.99386 0.53411 0.0
C1300 C 0.12001 0.9777 0.55333 0.0
C1301 C 0.12025 0.9586 0.52912 0.0
C1302 C 0.15728 1.00695 0.46929 0.0
C1303 C 0.10668 0.9807 0.59895 0.0
C1304 C 0.14646 0.03953 0.61587 0.0
C1305 C 0.13357 0.05468 0.59731 0.0
C1306 C 0.14567 0.01955 0.5969 0.0
C1307 C 0.13159 0.01452 0.55843 0.0
C1308 C 0.11807 0.02972 0.54089 0.0
C1309 C 0.11935 0.04961 0.5602 0.0
C1310 C 0.16053 1.00406 0.61647 0.0
C1311 C 0.1027 0.02515 0.50035 0.0
H1312 H 0.15315 0.96881 0.43402 0.0
H1313 H 0.11083 0.94644 0.5435 0.0
H1314 H 0.14771 0.0199 0.45719 0.0
H1315 H 0.16782 0.0127 0.49857 0.0
H1316 H 0.16633 1.00169 0.43647 0.0
H1317 H 0.09863 0.96658 0.60996 0.0
H1318 H 0.11592 0.98597 0.63132 0.0
H1319 H 0.09526 0.99264 0.59111 0.0
H1320 H 0.15771 0.04354 0.64393 0.0
H1321 H 0.10959 0.0614 0.54531 0.0
H1322 H 0.17113 0.99963 0.58588 0.0
H1323 H 0.15242 0.99015 0.62855 0.0
H1324 H 0.16954 0.0099 0.64872 0.0
H1325 H 0.11065 0.02169 0.4645 0.0
H1326 H 0.09218 0.03803 0.49384 0.0
H1327 H 0.09368 0.01156 0.51062 0.0
C1328 C 0.96068 0.89723 0.47561 0.0
C1329 C 0.95721 0.88559 0.51909 0.0
C1330 C 0.97976 0.89721 0.45125 0.0
C1331 C 0.99579 0.88507 0.47026 0.0
C1332 C 0.99219 0.87293 0.51343 0.0
C1333 C 0.97309 0.87342 0.5373 0.0
C1334 C 0.9829 0.91053 0.40571 0.0
C1335 C 1.00861 0.8595 0.53478 0.0
C1336 C 0.04123 0.87002 0.38815 0.0
C1337 C 0.05657 0.88269 0.40674 0.0
C1338 C 0.02126 0.87106 0.40723 0.0
C1339 C 0.01644 0.88516 0.44583 0.0
C1340 C 0.03184 0.89845 0.46343 0.0
C1341 C 0.05171 0.89693 0.44401 0.0
C1342 C 1.00555 0.85642 0.3876 0.0
C1343 C 0.02749 0.91383 0.50412 0.0
H1344 H 0.94862 0.90682 0.4614 0.0
H1345 H 0.97055 0.86414 0.57039 0.0
H1346 H 0.99498 0.92179 0.4136 0.0
H1347 H 0.98805 0.90126 0.37325 0.0
H1348 H 0.96886 0.91875 0.39482 0.0
H1349 H 1.00325 0.85049 0.56752 0.0
H1350 H 0.0142 0.84893 0.50535 0.0
H1351 H 0.02169 0.86888 0.54692 0.0
H1352 H 0.04507 0.85875 0.35997 0.0
H1353 H 0.06364 0.90652 0.45891 0.0
H1354 H 0.99174 0.86472 0.37565 0.0
H1355 H 1.001 0.84587 0.41812 0.0
H1356 H 0.01126 0.84738 0.35525 0.0
H1357 H 0.01402 0.92304 0.49398 0.0
H1358 H 0.04053 0.92417 0.51068 0.0
H1359 H 0.02395 0.9059 0.53991 0.0
C1360 C 0.36339 0.30217 0.11394 0.0
C1361 C 0.37982 0.31356 0.13228 0.0
C1362 C 0.36446 0.281 0.10868 0.0
C1363 C 0.38068 0.27008 0.13127 0.0
C1364 C 0.39658 0.28144 0.15421 0.0
C1365 C 0.39661 0.30283 0.15103 0.0
C1366 C 0.34804 0.27087 0.07795 0.0
C1367 C 0.41358 0.27156 0.18324 0.0
C1368 C 0.36197 0.21564 0.15035 0.0
C1369 C 0.37779 0.20371 0.13079 0.0
C1370 C 0.36389 0.23674 0.15593 0.0
C1371 C 0.38029 0.24712 0.13252 0.0
C1372 C 0.39556 0.23525 0.10849 0.0
C1373 C 0.3948 0.21386 0.11128 0.0
C1374 C 0.34813 0.24739 0.1877 0.0
C1375 C 0.41264 0.24458 0.07855 0.0
H1376 H 0.34967 0.30978 0.10198 0.0
H1377 H 0.40955 0.31119 0.16529 0.0
H1378 H 0.35185 0.25514 0.06673 0.0
H1379 H 0.33362 0.27094 0.09951 0.0
H1380 H 0.34521 0.27974 0.04309 0.0
H1381 H 0.41691 0.2804 0.21789 0.0
H1382 H 0.41013 0.25574 0.19445 0.0
H1383 H 0.42758 0.27177 0.16003 0.0
H1384 H 0.34803 0.20853 0.16269 0.0
H1385 H 0.40726 0.20508 0.09596 0.0
H1386 H 0.33351 0.24782 0.16707 0.0
H1387 H 0.35257 0.26298 0.19871 0.0
H1388 H 0.34534 0.23859 0.22271 0.0
H1389 H 0.4154 0.23564 0.04372 0.0
H1390 H 0.4268 0.2439 0.10102 0.0
H1391 H 0.40963 0.2605 0.06753 0.0
C1392 C 0.2137 0.62927 0.85765 0.0
C1393 C 0.20486 0.64166 0.89455 0.0
C1394 C 0.23492 0.62799 0.85225 0.0
C1395 C 0.2477 0.63936 0.8846 0.0
C1396 C 0.23876 0.65153 0.9228 0.0
C1397 C 0.21745 0.65255 0.92726 0.0
C1398 C 0.24365 0.61482 0.8111 0.0
C1399 C 0.25172 0.66386 0.95824 0.0
C1400 C 0.30378 0.62516 0.89793 0.0
C1401 C 0.3132 0.63945 0.86668 0.0
C1402 C 0.28251 0.62471 0.90348 0.0
C1403 C 0.27034 0.63903 0.8775 0.0
C1404 C 0.27988 0.65329 0.84521 0.0
C1405 C 0.30118 0.65333 0.84023 0.0
C1406 C 0.27309 0.60919 0.93805 0.0
C1407 C 0.26762 0.66885 0.8168 0.0
H1408 H 0.20392 0.62091 0.83222 0.0
H1409 H 0.21059 0.6622 0.95561 0.0
H1410 H 0.25206 0.62436 0.78374 0.0
H1411 H 0.25464 0.60387 0.82723 0.0
H1412 H 0.23175 0.60626 0.79049 0.0
H1413 H 0.24255 0.6719 0.98713 0.0
H1414 H 0.26281 0.6539 0.97761 0.0
H1415 H 0.26053 0.67524 0.93656 0.0
H1416 H 0.31314 0.61461 0.91888 0.0
H1417 H 0.30852 0.66456 0.81665 0.0
H1418 H 0.26149 0.60026 0.91743 0.0
H1419 H 0.26524 0.61695 0.96962 0.0
H1420 H 0.28451 0.59859 0.95392 0.0
H1421 H 0.25599 0.66122 0.7933 0.0
H1422 H 0.27722 0.67848 0.79209 0.0
H1423 H 0.25947 0.67878 0.84382 0.0
C1424 C 0.65524 0.80236 0.14678 0.0
C1425 C 0.63916 0.81405 0.12773 0.0
C1426 C 0.65371 0.78123 0.1521 0.0
C1427 C 0.6375 0.77059 0.12863 0.0
C1428 C 0.622 0.78224 0.10486 0.0
C1429 C 0.62234 0.80363 0.10811 0.0
C1430 C 0.66964 0.77083 0.18379 0.0
C1431 C 0.6051 0.77266 0.07485 0.0
C1432 C 0.65563 0.71597 0.10981 0.0
C1433 C 0.63942 0.7042 0.12782 0.0
C1434 C 0.65407 0.7371 0.10451 0.0
C1435 C 0.63757 0.74765 0.12704 0.0
C1436 C 0.62189 0.73591 0.14983 0.0
C1437 C 0.62235 0.71452 0.1465 0.0
C1438 C 0.67027 0.7476 0.07382 0.0
C1439 C 0.60464 0.74539 0.17887 0.0
H1440 H 0.66904 0.8097 0.15924 0.0
H1441 H 0.60967 0.81221 0.09321 0.0
H1442 H 0.66548 0.75514 0.19462 0.0
H1443 H 0.68429 0.77072 0.16321 0.0
H1444 H 0.67222 0.77963 0.21891 0.0
H1445 H 0.60219 0.78161 0.04015 0.0
H1446 H 0.60839 0.75681 0.06361 0.0
H1447 H 0.59092 0.77305 0.09736 0.0
H1448 H 0.66958 0.7087 0.09811 0.0
H1449 H 0.60957 0.70587 0.16058 0.0
H1450 H 0.68469 0.74779 0.0953 0.0
H1451 H 0.66614 0.76326 0.06274 0.0
H1452 H 0.67328 0.73882 0.03887 0.0
H1453 H 0.60144 0.73642 0.2134 0.0
H1454 H 0.59069 0.74492 0.15558 0.0
H1455 H 0.60773 0.76126 0.19029 0.0
C1456 C 0.71726 0.37299 0.84006 0.0
C1457 C 0.70471 0.38513 0.87021 0.0
C1458 C 0.73855 0.37411 0.84381 0.0
C1459 C 0.7476 0.38774 0.87856 0.0
C1460 C 0.7349 0.40036 0.9083 0.0
C1461 C 0.71362 0.39877 0.90405 0.0
C1462 C 0.75136 0.36023 0.81168 0.0
C1463 C 0.74379 0.41518 0.94552 0.0
C1464 C 0.80102 0.37447 0.92404 0.0
C1465 C 0.81321 0.3866 0.89301 0.0
C1466 C 0.77969 0.37506 0.92057 0.0
C1467 C 0.77025 0.3881 0.88513 0.0
C1468 C 0.78258 0.40074 0.85454 0.0
C1469 C 0.80389 0.39971 0.85858 0.0
C1470 C 0.76729 0.36118 0.95365 0.0
C1471 C 0.77326 0.41494 0.81651 0.0
H1472 H 0.71034 0.36217 0.81456 0.0
H1473 H 0.7039 0.40794 0.92787 0.0
H1474 H 0.76248 0.36919 0.78959 0.0
H1475 H 0.76012 0.34978 0.83616 0.0
H1476 H 0.74208 0.35105 0.78523 0.0
H1477 H 0.73198 0.42478 0.9635 0.0
H1478 H 0.75203 0.40682 0.97543 0.0
H1479 H 0.75495 0.42516 0.92645 0.0
H1480 H 0.80824 0.36402 0.94994 0.0
H1481 H 0.81334 0.40885 0.83403 0.0
H1482 H 0.75888 0.35018 0.9299 0.0
H1483 H 0.75588 0.37005 0.97506 0.0
H1484 H 0.77683 0.35262 0.98077 0.0
H1485 H 0.76532 0.40605 0.78701 0.0
H1486 H 0.78478 0.42474 0.79806 0.0
H1487 H 0.76177 0.42474 0.83498 0.0
C1488 C 0.90026 0.71449 0.6519 0.0
C1489 C 0.88688 0.70547 0.61759 0.0
C1490 C 0.9017 0.73577 0.65617 0.0
C1491 C 0.88918 0.74837 0.626 0.0
C1492 C 0.87588 0.73922 0.59065 0.0
C1493 C 0.87491 0.71792 0.58686 0.0
C1494 C 0.9162 0.74476 0.694 0.0
C1495 C 0.86209 0.75191 0.55804 0.0
C1496 C 0.87507 0.8015 0.67216 0.0
C1497 C 0.88727 0.81391 0.64186 0.0
C1498 C 0.87586 0.78021 0.66812 0.0
C1499 C 0.88922 0.77101 0.63293 0.0
C1500 C 0.90193 0.78356 0.60307 0.0
C1501 C 0.90067 0.80484 0.6076 0.0
C1502 C 0.86188 0.76757 0.7004 0.0
C1503 C 0.91648 0.77451 0.56539 0.0
H1504 H 0.90928 0.70485 0.6762 0.0
H1505 H 0.86428 0.71093 0.56099 0.0
H1506 H 0.92611 0.75614 0.6755 0.0
H1507 H 0.90755 0.75276 0.72387 0.0
H1508 H 0.9259 0.73305 0.71199 0.0
H1509 H 0.85326 0.74257 0.53099 0.0
H1510 H 0.85132 0.76046 0.58216 0.0
H1511 H 0.87109 0.7632 0.53659 0.0
H1512 H 0.86443 0.80853 0.69796 0.0
H1513 H 0.90988 0.81445 0.58363 0.0
H1514 H 0.87075 0.75628 0.72212 0.0
H1515 H 0.8512 0.75903 0.67603 0.0
H1516 H 0.85294 0.77694 0.72719 0.0
H1517 H 0.92632 0.76312 0.58402 0.0
H1518 H 0.92625 0.78619 0.54747 0.0
H1519 H 0.90788 0.76653 0.53547 0.0
C1520 C 0.80103 0.14351 0.33614 0.0
C1521 C 0.81339 0.13159 0.36723 0.0
C1522 C 0.77972 0.14274 0.33995 0.0
C1523 C 0.77045 0.12974 0.37579 0.0
C1524 C 0.78294 0.11737 0.40658 0.0
C1525 C 0.80425 0.11856 0.40219 0.0
C1526 C 0.76714 0.15635 0.30663 0.0
C1527 C 0.77381 0.10322 0.44503 0.0
C1528 C 0.71718 0.1445 0.41975 0.0
C1529 C 0.70484 0.13221 0.38947 0.0
C1530 C 0.7385 0.14348 0.41659 0.0
C1531 C 0.74778 0.1298 0.38232 0.0
C1532 C 0.7353 0.11695 0.35268 0.0
C1533 C 0.714 0.11845 0.35631 0.0
C1534 C 0.75107 0.15761 0.44859 0.0
C1535 C 0.74445 0.10206 0.31599 0.0
H1536 H 0.80811 0.15388 0.30979 0.0
H1537 H 0.81381 0.10958 0.42676 0.0
H1538 H 0.75592 0.14724 0.28525 0.0
H1539 H 0.75849 0.16724 0.3302 0.0
H1540 H 0.77657 0.16503 0.27947 0.0
H1541 H 0.78546 0.0937 0.46384 0.0
H1542 H 0.76569 0.11212 0.47421 0.0
H1543 H 0.76251 0.09314 0.42683 0.0
H1544 H 0.71008 0.15543 0.44466 0.0
H1545 H 0.70445 0.10918 0.33233 0.0
H1546 H 0.75963 0.16818 0.42398 0.0
H1547 H 0.76235 0.14887 0.47068 0.0
H1548 H 0.74163 0.16665 0.47501 0.0
H1549 H 0.7525 0.11039 0.28569 0.0
H1550 H 0.73281 0.09213 0.29847 0.0
H1551 H 0.75581 0.0924 0.33533 0.0
C1552 C 0.11682 0.302 0.64898 0.0
C1553 C 0.13046 0.31106 0.61534 0.0
C1554 C 0.11552 0.28071 0.65338 0.0
C1555 C 0.12842 0.26816 0.62402 0.0
C1556 C 0.14202 0.27735 0.5894 0.0
C1557 C 0.14285 0.29865 0.58547 0.0
C1558 C 0.10071 0.27167 0.69042 0.0
C1559 C 0.15621 0.26471 0.55767 0.0
C1560 C 0.14234 0.21507 0.67081 0.0
C1561 C 0.13049 0.20261 0.6398 0.0
C1562 C 0.14147 0.23637 0.66683 0.0
C1563 C 0.12841 0.24551 0.63093 0.0
C1564 C 0.11607 0.2329 0.60032 0.0
C1565 C 0.11738 0.21162 0.60485 0.0
C1566 C 0.15507 0.24907 0.69994 0.0
C1567 C 0.10184 0.24189 0.56184 0.0
H1568 H 0.10746 0.31161 0.67261 0.0
H1569 H 0.15366 0.30568 0.56013 0.0
H1570 H 0.091 0.26027 0.67135 0.0
H1571 H 0.10911 0.26369 0.72069 0.0
H1572 H 0.09082 0.28334 0.70795 0.0
H1573 H 0.16529 0.27408 0.53121 0.0
H1574 H 0.16675 0.2562 0.58245 0.0
H1575 H 0.14749 0.25339 0.53564 0.0
H1576 H 0.15278 0.20809 0.69715 0.0
H1577 H 0.10845 0.20198 0.58033 0.0
H1578 H 0.14594 0.26035 0.7211 0.0
H1579 H 0.16597 0.25763 0.67623 0.0
H1580 H 0.16374 0.23974 0.72728 0.0
H1581 H 0.09178 0.25324 0.57992 0.0
H1582 H 0.0923 0.23017 0.54334 0.0
H1583 H 0.11071 0.2499 0.53243 0.0
C1584 C 0.21689 0.87277 0.3331 0.0
C1585 C 0.20452 0.88515 0.3631 0.0
C1586 C 0.23821 0.87361 0.33674 0.0
C1587 C 0.24748 0.8872 0.37122 0.0
C1588 C 0.23497 0.90007 0.40077 0.0
C1589 C 0.21366 0.89877 0.39665 0.0
C1590 C 0.2508 0.85945 0.30482 0.0
C1591 C 0.24409 0.91488 0.43769 0.0
C1592 C 0.30075 0.87342 0.41722 0.0
C1593 C 0.31313 0.88531 0.38604 0.0
C1594 C 0.27943 0.87422 0.41352 0.0
C1595 C 0.27017 0.88725 0.37776 0.0
C1596 C 0.28268 0.89962 0.34696 0.0
C1597 C 0.30399 0.89837 0.35119 0.0
C1598 C 0.26684 0.8606 0.44682 0.0
C1599 C 0.27357 0.91382 0.30862 0.0
H1600 H 0.20981 0.86197 0.30783 0.0
H1601 H 0.20409 0.90813 0.42039 0.0
H1602 H 0.26205 0.86818 0.28257 0.0
H1603 H 0.2594 0.84894 0.32946 0.0
H1604 H 0.24137 0.85034 0.27854 0.0
H1605 H 0.23244 0.92473 0.45547 0.0
H1606 H 0.25219 0.90649 0.46779 0.0
H1607 H 0.25542 0.92462 0.41844 0.0
H1608 H 0.30783 0.86303 0.4435 0.0
H1609 H 0.31356 0.90734 0.32656 0.0
H1610 H 0.25822 0.8497 0.42324 0.0
H1611 H 0.2556 0.8697 0.46821 0.0
H1612 H 0.27626 0.85192 0.47397 0.0
H1613 H 0.26545 0.90495 0.27939 0.0
H1614 H 0.28523 0.92336 0.28988 0.0
H1615 H 0.26226 0.92388 0.32692 0.0
C1616 C 0.23338 0.13978 0.78732 0.0
C1617 C 0.2172 0.12589 0.78856 0.0
C1618 C 0.24868 0.13973 0.82461 0.0
C1619 C 0.24779 0.12567 0.86502 0.0
C1620 C 0.23146 0.11166 0.86656 0.0
C1621 C 0.21654 0.11183 0.82834 0.0
C1622 C 0.26588 0.15474 0.82063 0.0
C1623 C 0.2296 0.09658 0.90904 0.0
C1624 C 0.29625 0.11313 0.9391 0.0
C1625 C 0.29456 0.12564 0.98183 0.0
C1626 C 0.2813 0.11307 0.90097 0.0
C1627 C 0.26391 0.12561 0.90552 0.0
C1628 C 0.262 0.13813 0.9488 0.0
C1629 C 0.27734 0.13811 0.98602 0.0
C1630 C 0.28427 0.09971 0.85539 0.0
C1631 C 0.24367 0.15153 0.95592 0.0
H1632 H 0.23423 0.15059 0.75667 0.0
H1633 H 0.20404 0.1012 0.83027 0.0
H1634 H 0.2661 0.16467 0.85436 0.0
H1635 H 0.28059 0.14658 0.81948 0.0
H1636 H 0.26467 0.16442 0.78653 0.0
H1637 H 0.21596 0.08681 0.90524 0.0
H1638 H 0.24324 0.08674 0.91023 0.0
H1639 H 0.22878 0.1047 0.9456 0.0
H1640 H 0.30956 0.10365 0.93486 0.0
H1641 H 0.2757 0.14772 0.0189 0.0
H1642 H 0.28439 0.10911 0.82074 0.0
H1643 H 0.27146 0.08891 0.85198 0.0
H1644 H 0.29865 0.09095 0.85714 0.0
H1645 H 0.2426 0.16253 0.92447 0.0
H1646 H 0.24418 0.16006 0.99199 0.0
H1647 H 0.22966 0.14221 0.9552 0.0
C1648 C 0.11254 0.7965 0.18097 0.0
C1649 C 0.12761 0.79726 0.21846 0.0
C1650 C 0.11216 0.78095 0.14427 0.0
C1651 C 0.12712 0.76547 0.14474 0.0
C1652 C 0.1423 0.76607 0.18262 0.0
C1653 C 0.1424 0.78188 0.21864 0.0
C1654 C 0.09578 0.78119 0.1046 0.0
C1655 C 0.15844 0.74988 0.18532 0.0
C1656 C 0.11569 0.71476 0.07915 0.0
C1657 C 0.12668 0.71622 0.03374 0.0
C1658 C 0.11571 0.73053 0.11522 0.0
C1659 C 0.12679 0.74859 0.10608 0.0
C1660 C 0.13766 0.75036 0.06011 0.0
C1661 C 0.13755 0.73425 0.02484 0.0
C1662 C 0.10388 0.72779 0.16346 0.0
C1663 C 0.14963 0.76927 0.04829 0.0
H1664 H 0.10118 0.80836 0.17964 0.0
H1665 H 0.154 0.78201 0.24752 0.0
H1666 H 0.10274 0.78189 0.06658 0.0
H1667 H 0.08681 0.76698 0.10648 0.0
H1668 H 0.0853 0.79425 0.10902 0.0
H1669 H 0.1692 0.75242 0.21688 0.0
H1670 H 0.15126 0.7348 0.19015 0.0
H1671 H 0.16713 0.74946 0.14954 0.0
H1672 H 0.10684 0.70126 0.08659 0.0
H1673 H 0.14635 0.73571 0.99057 0.0
H1674 H 0.09231 0.7399 0.16705 0.0
H1675 H 0.1142 0.72915 0.19628 0.0
H1676 H 0.09614 0.71285 0.16529 0.0
H1677 H 0.13959 0.78275 0.05014 0.0
H1678 H 0.15676 0.76867 0.0104 0.0
H1679 H 0.16171 0.77142 0.07685 0.0
C1680 C 0.73972 0.87911 0.98699 0.0
C1681 C 0.72267 0.89181 0.98286 0.0
C1682 C 0.75518 0.87903 0.95001 0.0
C1683 C 0.75357 0.8917 0.90696 0.0
C1684 C 0.73634 0.90447 0.90247 0.0
C1685 C 0.72128 0.90448 0.94041 0.0
C1686 C 0.77332 0.8654 0.95714 0.0
C1687 C 0.73366 0.91799 0.85711 0.0
C1688 C 0.80135 0.90508 0.83063 0.0
C1689 C 0.80068 0.8911 0.79064 0.0
C1690 C 0.78631 0.90536 0.86863 0.0
C1691 C 0.76982 0.89154 0.86665 0.0
C1692 C 0.76891 0.87757 0.82601 0.0
C1693 C 0.78434 0.8774 0.78897 0.0
C1694 C 0.78822 0.92032 0.91138 0.0
C1695 C 0.75153 0.86279 0.82149 0.0
H1696 H 0.74113 0.86937 0.01966 0.0
H1697 H 0.7081 0.91416 0.93621 0.0
H1698 H 0.77434 0.85444 0.92554 0.0
H1699 H 0.78745 0.87454 0.95672 0.0
H1700 H 0.77262 0.8568 0.99307 0.0
H1701 H 0.71938 0.92691 0.85883 0.0
H1702 H 0.74661 0.92865 0.85409 0.0
H1703 H 0.73354 0.90869 0.82228 0.0
H1704 H 0.81397 0.91557 0.83289 0.0
H1705 H 0.78347 0.86665 0.75817 0.0
H1706 H 0.78882 0.91211 0.94781 0.0
H1707 H 0.77471 0.93032 0.91251 0.0
H1708 H 0.802 0.92992 0.90795 0.0
H1709 H 0.7511 0.85276 0.85501 0.0
H1710 H 0.75272 0.85319 0.78721 0.0
H1711 H 0.73693 0.87114 0.82033 0.0
C1712 C 0.90381 0.21812 0.17986 0.0
C1713 C 0.89044 0.21883 0.22113 0.0
C1714 C 0.90397 0.23349 0.14279 0.0
C1715 C 0.89074 0.25038 0.14719 0.0
C1716 C 0.87743 0.25133 0.1892 0.0
C1717 C 0.87729 0.23553 0.22517 0.0
C1718 C 0.91815 0.2315 0.0984 0.0
C1719 C 0.86333 0.26913 0.19632 0.0
C1720 C 0.90397 0.2991 0.07476 0.0
C1721 C 0.89038 0.29855 0.03399 0.0
C1722 C 0.90417 0.2837 0.11178 0.0
C1723 C 0.89073 0.26696 0.10784 0.0
C1724 C 0.87719 0.26617 0.0663 0.0
C1725 C 0.87704 0.28199 0.03039 0.0
C1726 C 0.9186 0.28552 0.15565 0.0
C1727 C 0.86287 0.24853 0.05966 0.0
H1728 H 0.91386 0.20522 0.17588 0.0
H1729 H 0.86703 0.23639 0.257 0.0
H1730 H 0.90931 0.23151 0.06285 0.0
H1731 H 0.92858 0.24468 0.09698 0.0
H1732 H 0.92733 0.2174 0.10001 0.0
H1733 H 0.85435 0.26798 0.23163 0.0
H1734 H 0.87218 0.28343 0.19719 0.0
H1735 H 0.8527 0.27015 0.16407 0.0
H1736 H 0.91418 0.31189 0.07843 0.0
H1737 H 0.86659 0.28125 0.99894 0.0
H1738 H 0.92888 0.27222 0.15671 0.0
H1739 H 0.90995 0.28562 0.19152 0.0
H1740 H 0.92795 0.29951 0.1537 0.0
H1741 H 0.87155 0.23412 0.05851 0.0
H1742 H 0.85374 0.24978 0.02465 0.0
H1743 H 0.85238 0.24762 0.09227 0.0
C1744 C 0.21632 0.37606 0.42392 0.0
C1745 C 0.21754 0.38811 0.46755 0.0
C1746 C 0.23155 0.37656 0.3865 0.0
C1747 C 0.24872 0.38929 0.39254 0.0
C1748 C 0.25008 0.40148 0.4365 0.0
C1749 C 0.23451 0.40084 0.47313 0.0
C1750 C 0.22921 0.36345 0.34024 0.0
C1751 C 0.26813 0.41512 0.44511 0.0
C1752 C 0.29695 0.37596 0.31837 0.0
C1753 C 0.29651 0.38986 0.2782 0.0
C1754 C 0.28171 0.37574 0.35578 0.0
C1755 C 0.26531 0.38964 0.35323 0.0
C1756 C 0.26473 0.40368 0.31275 0.0
C1757 C 0.28031 0.4037 0.27609 0.0
C1758 C 0.28322 0.36065 0.39832 0.0
C1759 C 0.24752 0.41863 0.30791 0.0
H1760 H 0.20321 0.36639 0.41854 0.0
H1761 H 0.23581 0.41009 0.50671 0.0
H1762 H 0.22952 0.37303 0.3059 0.0
H1763 H 0.24211 0.3527 0.33749 0.0
H1764 H 0.21486 0.35463 0.3406 0.0
H1765 H 0.26699 0.42368 0.48103 0.0
H1766 H 0.28224 0.40596 0.44574 0.0
H1767 H 0.26956 0.42609 0.41366 0.0
H1768 H 0.30948 0.3654 0.32113 0.0
H1769 H 0.27961 0.4144 0.24519 0.0
H1770 H 0.2697 0.35063 0.39839 0.0
H1771 H 0.28346 0.36873 0.43498 0.0
H1772 H 0.29702 0.35105 0.3955 0.0
H1773 H 0.2329 0.41039 0.30508 0.0
H1774 H 0.24919 0.42856 0.27438 0.0
H1775 H 0.24673 0.42831 0.34205 0.0
C1776 C 0.37668 0.78344 0.53547 0.0
C1777 C 0.39047 0.79969 0.53659 0.0
C1778 C 0.37698 0.76806 0.57252 0.0
C1779 C 0.39122 0.76894 0.61255 0.0
C1780 C 0.40505 0.78542 0.61418 0.0
C1781 C 0.40461 0.80042 0.5762 0.0
C1782 C 0.36217 0.7507 0.56844 0.0
C1783 C 0.4203 0.78726 0.65629 0.0
C1784 C 0.38018 0.73726 0.73121 0.0
C1785 C 0.39262 0.72014 0.72422 0.0
C1786 C 0.37982 0.75333 0.69587 0.0
C1787 C 0.39199 0.75235 0.65178 0.0
C1788 C 0.40475 0.73529 0.64482 0.0
C1789 C 0.40506 0.71964 0.68103 0.0
C1790 C 0.36616 0.77127 0.70545 0.0
C1791 C 0.41796 0.7334 0.59856 0.0
H1792 H 0.3658 0.78254 0.50497 0.0
H1793 H 0.41516 0.813 0.57805 0.0
H1794 H 0.37056 0.73617 0.56537 0.0
H1795 H 0.35272 0.74986 0.60296 0.0
H1796 H 0.352 0.75219 0.5353 0.0
H1797 H 0.42964 0.80123 0.65312 0.0
H1798 H 0.41237 0.78741 0.69317 0.0
H1799 H 0.43056 0.77394 0.65617 0.0
H1800 H 0.37031 0.73797 0.7638 0.0
H1801 H 0.41519 0.70692 0.67529 0.0
H1802 H 0.35446 0.7722 0.67552 0.0
H1803 H 0.37508 0.78553 0.704 0.0
H1804 H 0.35841 0.77034 0.74256 0.0
H1805 H 0.40839 0.73377 0.56419 0.0
H1806 H 0.42696 0.71916 0.59836 0.0
H1807 H 0.42855 0.74643 0.59631 0.0
C1808 C 0.73896 0.61341 0.27336 0.0
C1809 C 0.72282 0.62734 0.27511 0.0
C1810 C 0.75426 0.61321 0.31067 0.0
C1811 C 0.75349 0.62713 0.35144 0.0
C1812 C 0.73716 0.64112 0.35362 0.0
C1813 C 0.72217 0.6411 0.3156 0.0
C1814 C 0.7714 0.59816 0.30621 0.0
C1815 C 0.73545 0.65611 0.39638 0.0
C1816 C 0.78345 0.61557 0.47239 0.0
C1817 C 0.80052 0.62823 0.46761 0.0
C1818 C 0.76813 0.61504 0.43512 0.0
C1819 C 0.76983 0.62729 0.39136 0.0
C1820 C 0.78712 0.63993 0.38609 0.0
C1821 C 0.8021 0.64029 0.42409 0.0
C1822 C 0.74996 0.60148 0.44288 0.0
C1823 C 0.78983 0.6531 0.34011 0.0
H1824 H 0.73983 0.60281 0.24224 0.0
H1825 H 0.70968 0.65173 0.31813 0.0
H1826 H 0.7861 0.60631 0.30396 0.0
H1827 H 0.77194 0.58843 0.34025 0.0
H1828 H 0.76987 0.58829 0.2725 0.0
H1829 H 0.72172 0.66579 0.39324 0.0
H1830 H 0.73492 0.64793 0.43288 0.0
H1831 H 0.74902 0.66604 0.39713 0.0
H1832 H 0.78185 0.60631 0.50585 0.0
H1833 H 0.8153 0.6499 0.41927 0.0
H1834 H 0.74864 0.59062 0.41113 0.0
H1835 H 0.7359 0.61072 0.44331 0.0
H1836 H 0.75086 0.59279 0.47863 0.0
H1837 H 0.78967 0.6436 0.30562 0.0
H1838 H 0.80424 0.66182 0.34107 0.0
H1839 H 0.77702 0.66394 0.33709 0.0
C1840 C 0.61386 0.2197 0.57076 0.0
C1841 C 0.62764 0.22064 0.53039 0.0
C1842 C 0.61358 0.23467 0.60885 0.0
C1843 C 0.62712 0.25138 0.60636 0.0
C1844 C 0.64083 0.25258 0.5652 0.0
C1845 C 0.64108 0.23716 0.52822 0.0
C1846 C 0.59898 0.23242 0.65229 0.0
C1847 C 0.65525 0.27022 0.56012 0.0
C1848 C 0.61408 0.29946 0.68151 0.0
C1849 C 0.62736 0.29823 0.7228 0.0
C1850 C 0.61392 0.28448 0.64343 0.0
C1851 C 0.62705 0.26748 0.64686 0.0
C1852 C 0.64024 0.266 0.68895 0.0
C1853 C 0.64039 0.28142 0.72592 0.0
C1854 C 0.59988 0.28703 0.599 0.0
C1855 C 0.6542 0.24804 0.69505 0.0
H1856 H 0.60359 0.20691 0.57326 0.0
H1857 H 0.65167 0.23817 0.49709 0.0
H1858 H 0.6075 0.23186 0.6883 0.0
H1859 H 0.58877 0.24576 0.65416 0.0
H1860 H 0.58956 0.21851 0.64913 0.0
H1861 H 0.66448 0.26935 0.52516 0.0
H1862 H 0.64664 0.28467 0.55994 0.0
H1863 H 0.66565 0.27069 0.59292 0.0
H1864 H 0.60413 0.31246 0.67828 0.0
H1865 H 0.65059 0.28019 0.75778 0.0
H1866 H 0.58941 0.27391 0.59644 0.0
H1867 H 0.60883 0.2874 0.5636 0.0
H1868 H 0.59073 0.30113 0.60152 0.0
H1869 H 0.64527 0.23378 0.69462 0.0
H1870 H 0.66303 0.24872 0.73063 0.0
H1871 H 0.66497 0.24734 0.66298 0.0
loop_
_geom_bond_atom_site_label_1
_geom_bond_atom_site_label_2
_geom_bond_distance
_geom_bond_site_symmetry_2
_ccdc_geom_bond_type
C0 C1 1.443 . S
C0 N4 1.376 . S
C0 C38 1.389 . S
C1 C0 1.443 . S
C1 C2 1.340 . S
C1 H41 0.951 . S
C2 C1 1.340 . S
C2 C3 1.439 . S
C2 H42 0.950 . S
C3 C2 1.439 . S
C3 N4 1.374 . S
C3 C37 1.395 . S
N4 C0 1.376 . S
N4 C3 1.374 . S
N4 Co5 2.008 . S
Co5 N4 2.008 . S
Co5 N6 1.995 . S
Co5 N11 2.008 . S
Co5 N16 1.995 . S
Co5 N21 2.282 . S
Co5 N27 2.282 . S
N6 Co5 1.995 . S
N6 C7 1.376 . S
N6 C10 1.383 . S
C7 N6 1.376 . S
C7 C8 1.446 . S
C7 C37 1.391 . S
C8 C7 1.446 . S
C8 C9 1.339 . S
C8 H43 0.949 . S
C9 C8 1.339 . S
C9 C10 1.439 . S
C9 H44 0.950 . S
C10 N6 1.383 . S
C10 C9 1.439 . S
C10 C39 1.392 . S
N11 Co5 2.008 . S
N11 C12 1.376 . S
N11 C15 1.374 . S
C12 N11 1.376 . S
C12 C13 1.443 . S
C12 C39 1.389 . S
C13 C12 1.443 . S
C13 C14 1.340 . S
C13 H45 0.951 . S
C14 C13 1.340 . S
C14 C15 1.439 . S
C14 H46 0.950 1_554 S
C15 N11 1.374 . S
C15 C14 1.439 . S
C15 C40 1.395 . S
N16 Co5 1.995 . S
N16 C17 1.376 . S
N16 C20 1.383 . S
C17 N16 1.376 . S
C17 C18 1.446 . S
C17 C40 1.391 . S
C18 C17 1.446 . S
C18 C19 1.339 . S
C18 H47 0.949 . S
C19 C18 1.339 . S
C19 C20 1.439 . S
C19 H48 0.950 . S
C20 N16 1.383 . S
C20 C19 1.439 . S
C20 C38 1.392 . S
N21 Co5 2.282 . S
N21 C24 1.332 . S
N21 C26 1.332 . S
C22 C23 1.386 . S
C22 C25 1.388 . S
C23 C22 1.386 . S
C23 C24 1.382 . S
C23 H49 0.950 1_554 S
C24 N21 1.332 . S
C24 C23 1.382 . S
C24 H35 0.952 . S
C25 C22 1.388 . S
C25 C26 1.382 . S
C25 H50 0.950 . S
C26 N21 1.332 . S
C26 C25 1.382 . S
C26 H36 0.948 . S
N27 Co5 2.282 . S
N27 C31 1.332 . S
N27 C32 1.332 . S
C28 C29 1.388 . S
C28 C32 1.382 . S
C28 H51 0.950 . S
C29 C28 1.388 . S
C29 C30 1.386 . S
C30 C29 1.386 . S
C30 C31 1.382 . S
C30 H52 0.950 . S
C31 N27 1.332 . S
C31 C30 1.382 . S
C31 H33 0.952 . S
C32 N27 1.332 . S
C32 C28 1.382 . S
C32 H34 0.948 . S
H33 C31 0.952 . S
H34 C32 0.948 . S
H35 C24 0.952 . S
H36 C26 0.948 . S
C37 C3 1.395 . S
C37 C7 1.391 . S
C38 C0 1.389 . S
C38 C20 1.392 . S
C39 C10 1.392 . S
C39 C12 1.389 . S
C40 C15 1.395 . S
C40 C17 1.391 . S
H41 C1 0.951 . S
H42 C2 0.950 . S
H43 C8 0.949 . S
H44 C9 0.950 . S
H45 C13 0.951 . S
H46 C14 0.950 1_556 S
H47 C18 0.949 . S
H48 C19 0.950 . S
H49 C23 0.950 1_556 S
H50 C25 0.950 . S
H51 C28 0.950 . S
H52 C30 0.950 . S
C53 C54 1.443 . S
C53 N57 1.376 . S
C53 C91 1.389 . S
C54 C53 1.443 . S
C54 C55 1.340 . S
C54 H94 0.951 . S
C55 C54 1.340 . S
C55 C56 1.439 . S
C55 H95 0.950 . S
C56 C55 1.439 . S
C56 N57 1.374 . S
C56 C90 1.395 . S
N57 C53 1.376 . S
N57 C56 1.374 . S
N57 Co58 2.008 . S
Co58 N57 2.008 . S
Co58 N59 1.995 . S
Co58 N64 2.008 . S
Co58 N69 1.995 . S
Co58 N74 2.282 . S
Co58 N80 2.282 . S
N59 Co58 1.995 . S
N59 C60 1.376 . S
N59 C63 1.383 . S
C60 N59 1.376 . S
C60 C61 1.446 . S
C60 C90 1.391 . S
C61 C60 1.446 . S
C61 C62 1.339 . S
C61 H96 0.949 1_556 S
C62 C61 1.339 . S
C62 C63 1.439 . S
C62 H97 0.950 . S
C63 N59 1.383 . S
C63 C62 1.439 . S
C63 C92 1.392 . S
N64 Co58 2.008 . S
N64 C65 1.376 . S
N64 C68 1.374 . S
C65 N64 1.376 . S
C65 C66 1.443 . S
C65 C92 1.389 . S
C66 C65 1.443 . S
C66 C67 1.340 . S
C66 H98 0.951 . S
C67 C66 1.340 . S
C67 C68 1.439 . S
C67 H99 0.950 . S
C68 N64 1.374 . S
C68 C67 1.439 . S
C68 C93 1.395 . S
N69 Co58 1.995 . S
N69 C70 1.376 . S
N69 C73 1.383 . S
C70 N69 1.376 . S
C70 C71 1.446 . S
C70 C93 1.391 . S
C71 C70 1.446 . S
C71 C72 1.339 . S
C71 H100 0.949 . S
C72 C71 1.339 . S
C72 C73 1.439 . S
C72 H101 0.950 . S
C73 N69 1.383 . S
C73 C72 1.439 . S
C73 C91 1.392 . S
N74 Co58 2.282 . S
N74 C77 1.332 . S
N74 C79 1.332 . S
C75 C76 1.386 . S
C75 C78 1.388 . S
C76 C75 1.386 . S
C76 C77 1.382 . S
C76 H102 0.950 . S
C77 N74 1.332 . S
C77 C76 1.382 . S
C77 H88 0.952 . S
C78 C75 1.388 . S
C78 C79 1.382 . S
C78 H103 0.950 1_556 S
C79 N74 1.332 . S
C79 C78 1.382 . S
C79 H89 0.948 . S
N80 Co58 2.282 . S
N80 C84 1.332 . S
N80 C85 1.332 . S
C81 C82 1.388 . S
C81 C85 1.382 . S
C81 H104 0.950 . S
C82 C81 1.388 . S
C82 C83 1.386 . S
C83 C82 1.386 . S
C83 C84 1.382 . S
C83 H105 0.950 . S
C84 N80 1.332 . S
C84 C83 1.382 . S
C84 H86 0.952 . S
C85 N80 1.332 . S
C85 C81 1.382 . S
C85 H87 0.948 . S
H86 C84 0.952 . S
H87 C85 0.948 . S
H88 C77 0.952 . S
H89 C79 0.948 . S
C90 C56 1.395 . S
C90 C60 1.391 . S
C91 C53 1.389 . S
C91 C73 1.392 . S
C92 C63 1.392 . S
C92 C65 1.389 . S
C93 C68 1.395 . S
C93 C70 1.391 . S
H94 C54 0.951 . S
H95 C55 0.950 . S
H96 C61 0.949 1_554 S
H97 C62 0.950 . S
H98 C66 0.951 . S
H99 C67 0.950 . S
H100 C71 0.949 . S
H101 C72 0.950 . S
H102 C76 0.950 . S
H103 C78 0.950 1_554 S
H104 C81 0.950 . S
H105 C83 0.950 . S
C106 C107 1.443 . S
C106 N110 1.376 . S
C106 C144 1.389 . S
C107 C106 1.443 . S
C107 C108 1.340 . S
C107 H147 0.951 . S
C108 C107 1.340 . S
C108 C109 1.439 . S
C108 H148 0.950 . S
C109 C108 1.439 . S
C109 N110 1.374 . S
C109 C143 1.395 . S
N110 C106 1.376 . S
N110 C109 1.374 . S
N110 Co111 2.008 . S
Co111 N110 2.008 . S
Co111 N112 1.995 . S
Co111 N117 2.008 . S
Co111 N122 1.995 . S
Co111 N127 2.282 . S
Co111 N133 2.282 . S
N112 Co111 1.995 . S
N112 C113 1.376 . S
N112 C116 1.383 . S
C113 N112 1.376 . S
C113 C114 1.446 . S
C113 C143 1.391 . S
C114 C113 1.446 . S
C114 C115 1.339 . S
C114 H149 0.949 . S
C115 C114 1.339 . S
C115 C116 1.439 . S
C115 H150 0.950 . S
C116 N112 1.383 . S
C116 C115 1.439 . S
C116 C145 1.392 . S
N117 Co111 2.008 . S
N117 C118 1.376 . S
N117 C121 1.374 . S
C118 N117 1.376 . S
C118 C119 1.443 . S
C118 C145 1.389 . S
C119 C118 1.443 . S
C119 C120 1.340 . S
C119 H151 0.951 . S
C120 C119 1.340 . S
C120 C121 1.439 . S
C120 H152 0.950 1_554 S
C121 N117 1.374 . S
C121 C120 1.439 . S
C121 C146 1.395 . S
N122 Co111 1.995 . S
N122 C123 1.376 . S
N122 C126 1.383 . S
C123 N122 1.376 . S
C123 C124 1.446 . S
C123 C146 1.391 . S
C124 C123 1.446 . S
C124 C125 1.339 . S
C124 H153 0.949 . S
C125 C124 1.339 . S
C125 C126 1.439 . S
C125 H154 0.950 . S
C126 N122 1.383 . S
C126 C125 1.439 . S
C126 C144 1.392 . S
N127 Co111 2.282 . S
N127 C130 1.332 . S
N127 C132 1.332 . S
C128 C129 1.386 . S
C128 C131 1.388 . S
C129 C128 1.386 . S
C129 C130 1.382 . S
C129 H155 0.950 1_554 S
C130 N127 1.332 . S
C130 C129 1.382 . S
C130 H141 0.952 . S
C131 C128 1.388 . S
C131 C132 1.382 . S
C131 H156 0.950 . S
C132 N127 1.332 . S
C132 C131 1.382 . S
C132 H142 0.948 . S
N133 Co111 2.282 . S
N133 C137 1.332 . S
N133 C138 1.332 . S
C134 C135 1.388 . S
C134 C138 1.382 . S
C134 H157 0.950 . S
C135 C134 1.388 . S
C135 C136 1.386 . S
C136 C135 1.386 . S
C136 C137 1.382 . S
C136 H158 0.950 . S
C137 N133 1.332 . S
C137 C136 1.382 . S
C137 H139 0.952 . S
C138 N133 1.332 . S
C138 C134 1.382 . S
C138 H140 0.948 . S
H139 C137 0.952 . S
H140 C138 0.948 . S
H141 C130 0.952 . S
H142 C132 0.948 . S
C143 C109 1.395 . S
C143 C113 1.391 . S
C144 C106 1.389 . S
C144 C126 1.392 . S
C145 C116 1.392 . S
C145 C118 1.389 . S
C146 C121 1.395 . S
C146 C123 1.391 . S
H147 C107 0.951 . S
H148 C108 0.950 . S
H149 C114 0.949 . S
H150 C115 0.950 . S
H151 C119 0.951 . S
H152 C120 0.950 1_556 S
H153 C124 0.949 . S
H154 C125 0.950 . S
H155 C129 0.950 1_556 S
H156 C131 0.950 . S
H157 C134 0.950 . S
H158 C136 0.950 . S
C159 C160 1.443 . S
C159 N163 1.376 . S
C159 C197 1.389 . S
C160 C159 1.443 . S
C160 C161 1.340 . S
C160 H200 0.951 . S
C161 C160 1.340 . S
C161 C162 1.439 . S
C161 H201 0.950 . S
C162 C161 1.439 . S
C162 N163 1.374 . S
C162 C196 1.395 . S
N163 C159 1.376 . S
N163 C162 1.374 . S
N163 Co164 2.008 . S
Co164 N163 2.008 . S
Co164 N165 1.995 . S
Co164 N170 2.008 . S
Co164 N175 1.995 . S
Co164 N180 2.282 . S
Co164 N186 2.282 . S
N165 Co164 1.995 . S
N165 C166 1.376 . S
N165 C169 1.383 . S
C166 N165 1.376 . S
C166 C167 1.446 . S
C166 C196 1.391 . S
C167 C166 1.446 . S
C167 C168 1.339 . S
C167 H202 0.949 1_556 S
C168 C167 1.339 . S
C168 C169 1.439 . S
C168 H203 0.950 . S
C169 N165 1.383 . S
C169 C168 1.439 . S
C169 C198 1.392 . S
N170 Co164 2.008 . S
N170 C171 1.376 . S
N170 C174 1.374 . S
C171 N170 1.376 . S
C171 C172 1.443 . S
C171 C198 1.389 . S
C172 C171 1.443 . S
C172 C173 1.340 . S
C172 H204 0.951 . S
C173 C172 1.340 . S
C173 C174 1.439 . S
C173 H205 0.950 . S
C174 N170 1.374 . S
C174 C173 1.439 . S
C174 C199 1.395 . S
N175 Co164 1.995 . S
N175 C176 1.376 . S
N175 C179 1.383 . S
C176 N175 1.376 . S
C176 C177 1.446 . S
C176 C199 1.391 . S
C177 C176 1.446 . S
C177 C178 1.339 . S
C177 H206 0.949 . S
C178 C177 1.339 . S
C178 C179 1.439 . S
C178 H207 0.950 . S
C179 N175 1.383 . S
C179 C178 1.439 . S
C179 C197 1.392 . S
N180 Co164 2.282 . S
N180 C183 1.332 . S
N180 C185 1.332 . S
C181 C182 1.386 . S
C181 C184 1.388 . S
C182 C181 1.386 . S
C182 C183 1.382 . S
C182 H208 0.950 . S
C183 N180 1.332 . S
C183 C182 1.382 . S
C183 H194 0.952 . S
C184 C181 1.388 . S
C184 C185 1.382 . S
C184 H209 0.950 1_556 S
C185 N180 1.332 . S
C185 C184 1.382 . S
C185 H195 0.948 . S
N186 Co164 2.282 . S
N186 C190 1.332 . S
N186 C191 1.332 . S
C187 C188 1.388 . S
C187 C191 1.382 . S
C187 H210 0.950 . S
C188 C187 1.388 . S
C188 C189 1.386 . S
C189 C188 1.386 . S
C189 C190 1.382 . S
C189 H211 0.950 . S
C190 N186 1.332 . S
C190 C189 1.382 . S
C190 H192 0.952 . S
C191 N186 1.332 . S
C191 C187 1.382 . S
C191 H193 0.948 . S
H192 C190 0.952 . S
H193 C191 0.948 . S
H194 C183 0.952 . S
H195 C185 0.948 . S
C196 C162 1.395 . S
C196 C166 1.391 . S
C197 C159 1.389 . S
C197 C179 1.392 . S
C198 C169 1.392 . S
C198 C171 1.389 . S
C199 C174 1.395 . S
C199 C176 1.391 . S
H200 C160 0.951 . S
H201 C161 0.950 . S
H202 C167 0.949 1_554 S
H203 C168 0.950 . S
H204 C172 0.951 . S
H205 C173 0.950 . S
H206 C177 0.949 . S
H207 C178 0.950 . S
H208 C182 0.950 . S
H209 C184 0.950 1_554 S
H210 C187 0.950 . S
H211 C189 0.950 . S
C212 C213 1.443 1_554 S
C212 N216 1.376 . S
C212 C250 1.389 . S
C213 C212 1.443 1_556 S
C213 C214 1.340 . S
C213 H253 0.951 . S
C214 C213 1.340 . S
C214 C215 1.439 1_556 S
C214 H254 0.950 . S
C215 C214 1.439 1_554 S
C215 N216 1.374 . S
C215 C249 1.395 1_554 S
N216 C212 1.376 . S
N216 C215 1.374 . S
N216 Co217 2.008 . S
Co217 N216 2.008 . S
Co217 N218 1.995 . S
Co217 N223 2.008 . S
Co217 N228 1.995 . S
Co217 N233 2.282 . S
Co217 N239 2.282 . S
N218 Co217 1.995 . S
N218 C219 1.376 . S
N218 C222 1.383 . S
C219 N218 1.376 . S
C219 C220 1.446 . S
C219 C249 1.391 1_554 S
C220 C219 1.446 . S
C220 C221 1.339 . S
C220 H255 0.949 1_554 S
C221 C220 1.339 . S
C221 C222 1.439 . S
C221 H256 0.950 . S
C222 N218 1.383 . S
C222 C221 1.439 . S
C222 C251 1.392 . S
N223 Co217 2.008 . S
N223 C224 1.376 . S
N223 C227 1.374 . S
C224 N223 1.376 . S
C224 C225 1.443 . S
C224 C251 1.389 . S
C225 C224 1.443 . S
C225 C226 1.340 . S
C225 H257 0.951 . S
C226 C225 1.340 . S
C226 C227 1.439 . S
C226 H258 0.950 . S
C227 N223 1.374 . S
C227 C226 1.439 . S
C227 C252 1.395 . S
N228 Co217 1.995 . S
N228 C229 1.376 . S
N228 C232 1.383 . S
C229 N228 1.376 . S
C229 C230 1.446 . S
C229 C252 1.391 . S
C230 C229 1.446 . S
C230 C231 1.339 . S
C230 H259 0.949 . S
C231 C230 1.339 . S
C231 C232 1.439 . S
C231 H260 0.950 . S
C232 N228 1.383 . S
C232 C231 1.439 . S
C232 C250 1.392 . S
N233 Co217 2.282 . S
N233 C236 1.332 . S
N233 C238 1.332 . S
C234 C235 1.386 . S
C234 C237 1.388 . S
C235 C234 1.386 . S
C235 C236 1.382 . S
C235 H261 0.950 . S
C236 N233 1.332 . S
C236 C235 1.382 . S
C236 H247 0.952 . S
C237 C234 1.388 . S
C237 C238 1.382 . S
C237 H262 0.950 . S
C238 N233 1.332 . S
C238 C237 1.382 . S
C238 H248 0.948 . S
N239 Co217 2.282 . S
N239 C243 1.332 . S
N239 C244 1.332 . S
C240 C241 1.388 . S
C240 C244 1.382 . S
C240 H263 0.950 . S
C241 C240 1.388 . S
C241 C242 1.386 1_554 S
C242 C241 1.386 1_556 S
C242 C243 1.382 1_556 S
C242 H264 0.950 . S
C243 N239 1.332 . S
C243 C242 1.382 1_554 S
C243 H245 0.952 . S
C244 N239 1.332 . S
C244 C240 1.382 . S
C244 H246 0.948 . S
H245 C243 0.952 . S
H246 C244 0.948 . S
H247 C236 0.952 . S
H248 C238 0.948 . S
C249 C215 1.395 1_556 S
C249 C219 1.391 1_556 S
C250 C212 1.389 . S
C250 C232 1.392 . S
C251 C222 1.392 . S
C251 C224 1.389 . S
C252 C227 1.395 . S
C252 C229 1.391 . S
H253 C213 0.951 . S
H254 C214 0.950 . S
H255 C220 0.949 1_556 S
H256 C221 0.950 . S
H257 C225 0.951 . S
H258 C226 0.950 . S
H259 C230 0.949 . S
H260 C231 0.950 . S
H261 C235 0.950 . S
H262 C237 0.950 . S
H263 C240 0.950 . S
H264 C242 0.950 . S
C265 C266 1.443 . S
C265 N269 1.376 . S
C265 C303 1.389 . S
C266 C265 1.443 . S
C266 C267 1.340 . S
C266 H306 0.951 . S
C267 C266 1.340 . S
C267 C268 1.439 . S
C267 H307 0.950 . S
C268 C267 1.439 . S
C268 N269 1.374 . S
C268 C302 1.395 . S
N269 C265 1.376 . S
N269 C268 1.374 . S
N269 Co270 2.008 . S
Co270 N269 2.008 . S
Co270 N271 1.995 . S
Co270 N276 2.008 . S
Co270 N281 1.995 . S
Co270 N286 2.282 . S
Co270 N292 2.282 . S
N271 Co270 1.995 . S
N271 C272 1.376 . S
N271 C275 1.383 . S
C272 N271 1.376 . S
C272 C273 1.446 . S
C272 C302 1.391 . S
C273 C272 1.446 . S
C273 C274 1.339 . S
C273 H308 0.949 . S
C274 C273 1.339 . S
C274 C275 1.439 . S
C274 H309 0.950 . S
C275 N271 1.383 . S
C275 C274 1.439 . S
C275 C304 1.392 . S
N276 Co270 2.008 . S
N276 C277 1.376 . S
N276 C280 1.374 . S
C277 N276 1.376 . S
C277 C278 1.443 . S
C277 C304 1.389 . S
C278 C277 1.443 . S
C278 C279 1.340 . S
C278 H310 0.951 . S
C279 C278 1.340 . S
C279 C280 1.439 . S
C279 H311 0.947 1_556 S
C280 N276 1.374 . S
C280 C279 1.439 . S
C280 C305 1.395 . S
N281 Co270 1.995 . S
N281 C282 1.376 . S
N281 C285 1.383 . S
C282 N281 1.376 . S
C282 C283 1.446 1_556 S
C282 C305 1.391 . S
C283 C282 1.446 1_554 S
C283 C284 1.339 1_554 S
C283 H312 0.949 . S
C284 C283 1.339 1_556 S
C284 C285 1.439 . S
C284 H313 0.950 1_556 S
C285 N281 1.383 . S
C285 C284 1.439 . S
C285 C303 1.392 . S
N286 Co270 2.282 . S
N286 C289 1.332 . S
N286 C291 1.332 . S
C287 C288 1.386 . S
C287 C290 1.388 . S
C288 C287 1.386 . S
C288 C289 1.382 . S
C288 H314 0.950 . S
C289 N286 1.332 . S
C289 C288 1.382 . S
C289 H300 0.952 . S
C290 C287 1.388 . S
C290 C291 1.382 . S
C290 H315 0.950 . S
C291 N286 1.332 . S
C291 C290 1.382 . S
C291 H301 0.948 . S
N292 Co270 2.282 . S
N292 C296 1.332 . S
N292 C297 1.332 . S
C293 C294 1.388 1_554 S
C293 C297 1.382 1_554 S
C293 H316 0.950 . S
C294 C293 1.388 1_556 S
C294 C295 1.386 . S
C295 C294 1.386 . S
C295 C296 1.382 . S
C295 H317 0.950 . S
C296 N292 1.332 . S
C296 C295 1.382 . S
C296 H298 0.952 . S
C297 N292 1.332 . S
C297 C293 1.382 1_556 S
C297 H299 0.948 1_556 S
H298 C296 0.952 . S
H299 C297 0.948 1_554 S
H300 C289 0.952 . S
H301 C291 0.948 . S
C302 C268 1.395 . S
C302 C272 1.391 . S
C303 C265 1.389 . S
C303 C285 1.392 . S
C304 C275 1.392 . S
C304 C277 1.389 . S
C305 C280 1.395 . S
C305 C282 1.391 . S
H306 C266 0.951 . S
H307 C267 0.950 . S
H308 C273 0.949 . S
H309 C274 0.950 . S
H310 C278 0.951 . S
H311 C279 0.947 1_554 S
H312 C283 0.949 . S
H313 C284 0.950 1_554 S
H314 C288 0.950 . S
H315 C290 0.950 . S
H316 C293 0.950 . S
H317 C295 0.950 . S
C318 C319 1.443 1_554 S
C318 N322 1.376 . S
C318 C356 1.389 . S
C319 C318 1.443 1_556 S
C319 C320 1.340 . S
C319 H359 0.951 . S
C320 C319 1.340 . S
C320 C321 1.439 1_556 S
C320 H360 0.950 . S
C321 C320 1.439 1_554 S
C321 N322 1.374 . S
C321 C355 1.395 1_554 S
N322 C318 1.376 . S
N322 C321 1.374 . S
N322 Co323 2.008 . S
Co323 N322 2.008 . S
Co323 N324 1.995 . S
Co323 N329 2.008 . S
Co323 N334 1.995 . S
Co323 N339 2.282 . S
Co323 N345 2.282 . S
N324 Co323 1.995 . S
N324 C325 1.376 . S
N324 C328 1.383 . S
C325 N324 1.376 . S
C325 C326 1.446 . S
C325 C355 1.391 1_554 S
C326 C325 1.446 . S
C326 C327 1.339 . S
C326 H361 0.949 1_554 S
C327 C326 1.339 . S
C327 C328 1.439 . S
C327 H362 0.950 . S
C328 N324 1.383 . S
C328 C327 1.439 . S
C328 C357 1.392 . S
N329 Co323 2.008 . S
N329 C330 1.376 . S
N329 C333 1.374 . S
C330 N329 1.376 . S
C330 C331 1.443 . S
C330 C357 1.389 . S
C331 C330 1.443 . S
C331 C332 1.340 . S
C331 H363 0.951 . S
C332 C331 1.340 . S
C332 C333 1.439 . S
C332 H364 0.950 . S
C333 N329 1.374 . S
C333 C332 1.439 . S
C333 C358 1.395 . S
N334 Co323 1.995 . S
N334 C335 1.376 . S
N334 C338 1.383 . S
C335 N334 1.376 . S
C335 C336 1.446 . S
C335 C358 1.391 . S
C336 C335 1.446 . S
C336 C337 1.339 . S
C336 H365 0.949 . S
C337 C336 1.339 . S
C337 C338 1.439 . S
C337 H366 0.950 . S
C338 N334 1.383 . S
C338 C337 1.439 . S
C338 C356 1.392 . S
N339 Co323 2.282 . S
N339 C342 1.332 . S
N339 C344 1.332 . S
C340 C341 1.386 . S
C340 C343 1.388 . S
C341 C340 1.386 . S
C341 C342 1.382 . S
C341 H367 0.950 . S
C342 N339 1.332 . S
C342 C341 1.382 . S
C342 H353 0.952 . S
C343 C340 1.388 . S
C343 C344 1.382 . S
C343 H368 0.950 . S
C344 N339 1.332 . S
C344 C343 1.382 . S
C344 H354 0.948 . S
N345 Co323 2.282 . S
N345 C349 1.332 . S
N345 C350 1.332 . S
C346 C347 1.388 . S
C346 C350 1.382 . S
C346 H369 0.950 . S
C347 C346 1.388 . S
C347 C348 1.386 1_554 S
C348 C347 1.386 1_556 S
C348 C349 1.382 1_556 S
C348 H370 0.950 . S
C349 N345 1.332 . S
C349 C348 1.382 1_554 S
C349 H351 0.952 . S
C350 N345 1.332 . S
C350 C346 1.382 . S
C350 H352 0.948 . S
H351 C349 0.952 . S
H352 C350 0.948 . S
H353 C342 0.952 . S
H354 C344 0.948 . S
C355 C321 1.395 1_556 S
C355 C325 1.391 1_556 S
C356 C318 1.389 . S
C356 C338 1.392 . S
C357 C328 1.392 . S
C357 C330 1.389 . S
C358 C333 1.395 . S
C358 C335 1.391 . S
H359 C319 0.951 . S
H360 C320 0.950 . S
H361 C326 0.949 1_556 S
H362 C327 0.950 . S
H363 C331 0.951 . S
H364 C332 0.950 . S
H365 C336 0.949 . S
H366 C337 0.950 . S
H367 C341 0.950 . S
H368 C343 0.950 . S
H369 C346 0.950 . S
H370 C348 0.950 . S
C371 C372 1.443 . S
C371 N375 1.376 . S
C371 C409 1.389 . S
C372 C371 1.443 . S
C372 C373 1.340 . S
C372 H412 0.951 . S
C373 C372 1.340 . S
C373 C374 1.439 . S
C373 H413 0.950 . S
C374 C373 1.439 . S
C374 N375 1.374 . S
C374 C408 1.395 . S
N375 C371 1.376 . S
N375 C374 1.374 . S
N375 Co376 2.008 . S
Co376 N375 2.008 . S
Co376 N377 1.995 . S
Co376 N382 2.008 . S
Co376 N387 1.995 . S
Co376 N392 2.282 . S
Co376 N398 2.282 . S
N377 Co376 1.995 . S
N377 C378 1.376 . S
N377 C381 1.383 . S
C378 N377 1.376 . S
C378 C379 1.446 . S
C378 C408 1.391 . S
C379 C378 1.446 . S
C379 C380 1.339 . S
C379 H414 0.949 . S
C380 C379 1.339 . S
C380 C381 1.439 . S
C380 H415 0.950 . S
C381 N377 1.383 . S
C381 C380 1.439 . S
C381 C410 1.392 . S
N382 Co376 2.008 . S
N382 C383 1.376 . S
N382 C386 1.374 . S
C383 N382 1.376 . S
C383 C384 1.443 . S
C383 C410 1.389 . S
C384 C383 1.443 . S
C384 C385 1.340 . S
C384 H416 0.951 . S
C385 C384 1.340 . S
C385 C386 1.439 . S
C385 H417 0.947 1_556 S
C386 N382 1.374 . S
C386 C385 1.439 . S
C386 C411 1.395 . S
N387 Co376 1.995 . S
N387 C388 1.376 . S
N387 C391 1.383 . S
C388 N387 1.376 . S
C388 C389 1.446 1_556 S
C388 C411 1.391 . S
C389 C388 1.446 1_554 S
C389 C390 1.339 1_554 S
C389 H418 0.949 . S
C390 C389 1.339 1_556 S
C390 C391 1.439 . S
C390 H419 0.950 1_556 S
C391 N387 1.383 . S
C391 C390 1.439 . S
C391 C409 1.392 . S
N392 Co376 2.282 . S
N392 C395 1.332 . S
N392 C397 1.332 . S
C393 C394 1.386 . S
C393 C396 1.388 . S
C394 C393 1.386 . S
C394 C395 1.382 . S
C394 H420 0.950 . S
C395 N392 1.332 . S
C395 C394 1.382 . S
C395 H406 0.952 . S
C396 C393 1.388 . S
C396 C397 1.382 . S
C396 H421 0.950 . S
C397 N392 1.332 . S
C397 C396 1.382 . S
C397 H407 0.948 . S
N398 Co376 2.282 . S
N398 C402 1.332 . S
N398 C403 1.332 . S
C399 C400 1.388 1_554 S
C399 C403 1.382 1_554 S
C399 H422 0.950 . S
C400 C399 1.388 1_556 S
C400 C401 1.386 . S
C401 C400 1.386 . S
C401 C402 1.382 . S
C401 H423 0.950 . S
C402 N398 1.332 . S
C402 C401 1.382 . S
C402 H404 0.952 . S
C403 N398 1.332 . S
C403 C399 1.382 1_556 S
C403 H405 0.948 1_556 S
H404 C402 0.952 . S
H405 C403 0.948 1_554 S
H406 C395 0.952 . S
H407 C397 0.948 . S
C408 C374 1.395 . S
C408 C378 1.391 . S
C409 C371 1.389 . S
C409 C391 1.392 . S
C410 C381 1.392 . S
C410 C383 1.389 . S
C411 C386 1.395 . S
C411 C388 1.391 . S
H412 C372 0.951 . S
H413 C373 0.950 . S
H414 C379 0.949 . S
H415 C380 0.950 . S
H416 C384 0.951 . S
H417 C385 0.947 1_554 S
H418 C389 0.949 . S
H419 C390 0.950 1_554 S
H420 C394 0.950 . S
H421 C396 0.950 . S
H422 C399 0.950 . S
H423 C401 0.950 . S
C424 C425 1.443 . S
C424 N428 1.376 . S
C424 C462 1.389 . S
C425 C424 1.443 . S
C425 C426 1.340 . S
C425 H465 0.951 . S
C426 C425 1.340 . S
C426 C427 1.439 . S
C426 H466 0.950 . S
C427 C426 1.439 . S
C427 N428 1.374 . S
C427 C461 1.395 . S
N428 C424 1.376 . S
N428 C427 1.374 . S
N428 Co429 2.008 . S
Co429 N428 2.008 . S
Co429 N430 1.995 . S
Co429 N435 2.008 . S
Co429 N440 1.995 . S
Co429 N445 2.282 . S
Co429 N451 2.282 . S
N430 Co429 1.995 . S
N430 C431 1.376 . S
N430 C434 1.383 . S
C431 N430 1.376 . S
C431 C432 1.446 . S
C431 C461 1.391 . S
C432 C431 1.446 . S
C432 C433 1.339 . S
C432 H467 0.949 . S
C433 C432 1.339 . S
C433 C434 1.439 . S
C433 H468 0.950 . S
C434 N430 1.383 . S
C434 C433 1.439 . S
C434 C463 1.392 . S
N435 Co429 2.008 . S
N435 C436 1.376 . S
N435 C439 1.374 . S
C436 N435 1.376 . S
C436 C437 1.443 . S
C436 C463 1.389 . S
C437 C436 1.443 . S
C437 C438 1.340 . S
C437 H469 0.951 . S
C438 C437 1.340 . S
C438 C439 1.439 . S
C438 H470 0.950 . S
C439 N435 1.374 . S
C439 C438 1.439 . S
C439 C464 1.395 . S
N440 Co429 1.995 . S
N440 C441 1.376 . S
N440 C444 1.383 . S
C441 N440 1.376 . S
C441 C442 1.446 . S
C441 C464 1.391 . S
C442 C441 1.446 . S
C442 C443 1.339 . S
C442 H471 0.949 . S
C443 C442 1.339 . S
C443 C444 1.439 . S
C443 H472 0.950 . S
C444 N440 1.383 . S
C444 C443 1.439 . S
C444 C462 1.392 . S
N445 Co429 2.282 . S
N445 C448 1.332 . S
N445 C450 1.332 . S
C446 C447 1.386 . S
C446 C449 1.388 . S
C447 C446 1.386 . S
C447 C448 1.382 . S
C447 H473 0.950 . S
C448 N445 1.332 . S
C448 C447 1.382 . S
C448 H459 0.952 . S
C449 C446 1.388 . S
C449 C450 1.382 . S
C449 H474 0.950 . S
C450 N445 1.332 . S
C450 C449 1.382 . S
C450 H460 0.948 . S
N451 Co429 2.282 . S
N451 C455 1.332 . S
N451 C456 1.332 . S
C452 C453 1.388 . S
C452 C456 1.382 . S
C452 H475 0.950 . S
C453 C452 1.388 . S
C453 C454 1.386 . S
C454 C453 1.386 . S
C454 C455 1.382 . S
C454 H476 0.950 . S
C455 N451 1.332 . S
C455 C454 1.382 . S
C455 H457 0.952 . S
C456 N451 1.332 . S
C456 C452 1.382 . S
C456 H458 0.948 . S
H457 C455 0.952 . S
H458 C456 0.948 . S
H459 C448 0.952 . S
H460 C450 0.948 . S
C461 C427 1.395 . S
C461 C431 1.391 . S
C462 C424 1.389 . S
C462 C444 1.392 . S
C463 C434 1.392 . S
C463 C436 1.389 . S
C464 C439 1.395 . S
C464 C441 1.391 . S
H465 C425 0.951 . S
H466 C426 0.950 . S
H467 C432 0.949 . S
H468 C433 0.950 . S
H469 C437 0.951 . S
H470 C438 0.950 . S
H471 C442 0.949 . S
H472 C443 0.950 . S
H473 C447 0.950 . S
H474 C449 0.950 . S
H475 C452 0.950 . S
H476 C454 0.950 . S
C477 C478 1.443 . S
C477 N481 1.376 . S
C477 C515 1.389 . S
C478 C477 1.443 . S
C478 C479 1.340 . S
C478 H518 0.951 . S
C479 C478 1.340 . S
C479 C480 1.439 . S
C479 H519 0.950 . S
C480 C479 1.439 . S
C480 N481 1.374 . S
C480 C514 1.395 . S
N481 C477 1.376 . S
N481 C480 1.374 . S
N481 Co482 2.008 . S
Co482 N481 2.008 . S
Co482 N483 1.995 . S
Co482 N488 2.008 . S
Co482 N493 1.995 . S
Co482 N498 2.282 . S
Co482 N504 2.282 . S
N483 Co482 1.995 . S
N483 C484 1.376 . S
N483 C487 1.383 . S
C484 N483 1.376 . S
C484 C485 1.446 . S
C484 C514 1.391 . S
C485 C484 1.446 . S
C485 C486 1.339 . S
C485 H520 0.949 . S
C486 C485 1.339 . S
C486 C487 1.439 . S
C486 H521 0.950 . S
C487 N483 1.383 . S
C487 C486 1.439 . S
C487 C516 1.392 . S
N488 Co482 2.008 . S
N488 C489 1.376 . S
N488 C492 1.374 . S
C489 N488 1.376 . S
C489 C490 1.443 . S
C489 C516 1.389 . S
C490 C489 1.443 . S
C490 C491 1.340 . S
C490 H522 0.951 . S
C491 C490 1.340 . S
C491 C492 1.439 . S
C491 H523 0.950 . S
C492 N488 1.374 . S
C492 C491 1.439 . S
C492 C517 1.395 . S
N493 Co482 1.995 . S
N493 C494 1.376 . S
N493 C497 1.383 . S
C494 N493 1.376 . S
C494 C495 1.446 . S
C494 C517 1.391 . S
C495 C494 1.446 . S
C495 C496 1.339 . S
C495 H524 0.949 . S
C496 C495 1.339 . S
C496 C497 1.439 . S
C496 H525 0.950 . S
C497 N493 1.383 . S
C497 C496 1.439 . S
C497 C515 1.392 . S
N498 Co482 2.282 . S
N498 C501 1.332 . S
N498 C503 1.332 . S
C499 C500 1.386 . S
C499 C502 1.388 . S
C500 C499 1.386 . S
C500 C501 1.382 . S
C500 H526 0.950 . S
C501 N498 1.332 . S
C501 C500 1.382 . S
C501 H512 0.952 . S
C502 C499 1.388 . S
C502 C503 1.382 . S
C502 H527 0.950 . S
C503 N498 1.332 . S
C503 C502 1.382 . S
C503 H513 0.948 . S
N504 Co482 2.282 . S
N504 C508 1.332 . S
N504 C509 1.332 . S
C505 C506 1.388 . S
C505 C509 1.382 . S
C505 H528 0.950 . S
C506 C505 1.388 . S
C506 C507 1.386 . S
C507 C506 1.386 . S
C507 C508 1.382 . S
C507 H529 0.950 . S
C508 N504 1.332 . S
C508 C507 1.382 . S
C508 H510 0.952 . S
C509 N504 1.332 . S
C509 C505 1.382 . S
C509 H511 0.948 . S
H510 C508 0.952 . S
H511 C509 0.948 . S
H512 C501 0.952 . S
H513 C503 0.948 . S
C514 C480 1.395 . S
C514 C484 1.391 . S
C515 C477 1.389 . S
C515 C497 1.392 . S
C516 C487 1.392 . S
C516 C489 1.389 . S
C517 C492 1.395 . S
C517 C494 1.391 . S
H518 C478 0.951 . S
H519 C479 0.950 . S
H520 C485 0.949 . S
H521 C486 0.950 . S
H522 C490 0.951 . S
H523 C491 0.950 . S
H524 C495 0.949 . S
H525 C496 0.950 . S
H526 C500 0.950 . S
H527 C502 0.950 . S
H528 C505 0.950 . S
H529 C507 0.950 . S
C530 C531 1.443 . S
C530 N534 1.376 . S
C530 C568 1.389 . S
C531 C530 1.443 . S
C531 C532 1.340 . S
C531 H571 0.951 . S
C532 C531 1.340 . S
C532 C533 1.439 . S
C532 H572 0.950 . S
C533 C532 1.439 . S
C533 N534 1.374 . S
C533 C567 1.395 . S
N534 C530 1.376 . S
N534 C533 1.374 . S
N534 Co535 2.008 . S
Co535 N534 2.008 . S
Co535 N536 1.995 . S
Co535 N541 2.008 . S
Co535 N546 1.995 . S
Co535 N551 2.282 . S
Co535 N557 2.282 . S
N536 Co535 1.995 . S
N536 C537 1.376 . S
N536 C540 1.383 . S
C537 N536 1.376 . S
C537 C538 1.446 . S
C537 C567 1.391 . S
C538 C537 1.446 . S
C538 C539 1.339 . S
C538 H573 0.949 . S
C539 C538 1.339 . S
C539 C540 1.439 . S
C539 H574 0.950 . S
C540 N536 1.383 . S
C540 C539 1.439 . S
C540 C569 1.392 . S
N541 Co535 2.008 . S
N541 C542 1.376 . S
N541 C545 1.374 . S
C542 N541 1.376 . S
C542 C543 1.443 . S
C542 C569 1.389 . S
C543 C542 1.443 . S
C543 C544 1.340 . S
C543 H575 0.951 . S
C544 C543 1.340 . S
C544 C545 1.439 . S
C544 H576 0.950 . S
C545 N541 1.374 . S
C545 C544 1.439 . S
C545 C570 1.395 . S
N546 Co535 1.995 . S
N546 C547 1.376 . S
N546 C550 1.383 . S
C547 N546 1.376 . S
C547 C548 1.446 . S
C547 C570 1.391 . S
C548 C547 1.446 . S
C548 C549 1.339 . S
C548 H577 0.949 . S
C549 C548 1.339 . S
C549 C550 1.439 . S
C549 H578 0.950 . S
C550 N546 1.383 . S
C550 C549 1.439 . S
C550 C568 1.392 . S
N551 Co535 2.282 . S
N551 C554 1.332 . S
N551 C556 1.332 . S
C552 C553 1.386 . S
C552 C555 1.388 . S
C553 C552 1.386 . S
C553 C554 1.382 . S
C553 H579 0.950 . S
C554 N551 1.332 . S
C554 C553 1.382 . S
C554 H565 0.952 . S
C555 C552 1.388 . S
C555 C556 1.382 . S
C555 H580 0.950 . S
C556 N551 1.332 . S
C556 C555 1.382 . S
C556 H566 0.948 . S
N557 Co535 2.282 . S
N557 C561 1.332 . S
N557 C562 1.332 . S
C558 C559 1.388 . S
C558 C562 1.382 . S
C558 H581 0.950 . S
C559 C558 1.388 . S
C559 C560 1.386 . S
C560 C559 1.386 . S
C560 C561 1.382 . S
C560 H582 0.950 . S
C561 N557 1.332 . S
C561 C560 1.382 . S
C561 H563 0.952 . S
C562 N557 1.332 . S
C562 C558 1.382 . S
C562 H564 0.948 . S
H563 C561 0.952 . S
H564 C562 0.948 . S
H565 C554 0.952 . S
H566 C556 0.948 . S
C567 C533 1.395 . S
C567 C537 1.391 . S
C568 C530 1.389 . S
C568 C550 1.392 . S
C569 C540 1.392 . S
C569 C542 1.389 . S
C570 C545 1.395 . S
C570 C547 1.391 . S
H571 C531 0.951 . S
H572 C532 0.950 . S
H573 C538 0.949 . S
H574 C539 0.950 . S
H575 C543 0.951 . S
H576 C544 0.950 . S
H577 C548 0.949 . S
H578 C549 0.950 . S
H579 C553 0.950 . S
H580 C555 0.950 . S
H581 C558 0.950 . S
H582 C560 0.950 . S
C583 C584 1.443 . S
C583 N587 1.376 . S
C583 C621 1.389 . S
C584 C583 1.443 . S
C584 C585 1.340 . S
C584 H624 0.951 . S
C585 C584 1.340 . S
C585 C586 1.439 . S
C585 H625 0.950 . S
C586 C585 1.439 . S
C586 N587 1.374 . S
C586 C620 1.395 . S
N587 C583 1.376 . S
N587 C586 1.374 . S
N587 Co588 2.008 . S
Co588 N587 2.008 . S
Co588 N589 1.995 . S
Co588 N594 2.008 . S
Co588 N599 1.995 . S
Co588 N604 2.282 . S
Co588 N610 2.282 . S
N589 Co588 1.995 . S
N589 C590 1.376 . S
N589 C593 1.383 . S
C590 N589 1.376 . S
C590 C591 1.446 . S
C590 C620 1.391 . S
C591 C590 1.446 . S
C591 C592 1.339 . S
C591 H626 0.949 . S
C592 C591 1.339 . S
C592 C593 1.439 . S
C592 H627 0.950 . S
C593 N589 1.383 . S
C593 C592 1.439 . S
C593 C622 1.392 . S
N594 Co588 2.008 . S
N594 C595 1.376 . S
N594 C598 1.374 . S
C595 N594 1.376 . S
C595 C596 1.443 . S
C595 C622 1.389 . S
C596 C595 1.443 . S
C596 C597 1.340 . S
C596 H628 0.951 . S
C597 C596 1.340 . S
C597 C598 1.439 . S
C597 H629 0.950 . S
C598 N594 1.374 . S
C598 C597 1.439 . S
C598 C623 1.395 . S
N599 Co588 1.995 . S
N599 C600 1.376 . S
N599 C603 1.383 . S
C600 N599 1.376 . S
C600 C601 1.446 . S
C600 C623 1.391 . S
C601 C600 1.446 . S
C601 C602 1.339 . S
C601 H630 0.949 . S
C602 C601 1.339 . S
C602 C603 1.439 . S
C602 H631 0.950 . S
C603 N599 1.383 . S
C603 C602 1.439 . S
C603 C621 1.392 . S
N604 Co588 2.282 . S
N604 C607 1.332 . S
N604 C609 1.332 . S
C605 C606 1.386 . S
C605 C608 1.388 . S
C606 C605 1.386 . S
C606 C607 1.382 . S
C606 H632 0.950 . S
C607 N604 1.332 . S
C607 C606 1.382 . S
C607 H618 0.952 . S
C608 C605 1.388 . S
C608 C609 1.382 . S
C608 H633 0.950 . S
C609 N604 1.332 . S
C609 C608 1.382 . S
C609 H619 0.948 . S
N610 Co588 2.282 . S
N610 C614 1.332 . S
N610 C615 1.332 . S
C611 C612 1.388 . S
C611 C615 1.382 . S
C611 H634 0.950 . S
C612 C611 1.388 . S
C612 C613 1.386 . S
C613 C612 1.386 . S
C613 C614 1.382 . S
C613 H635 0.950 . S
C614 N610 1.332 . S
C614 C613 1.382 . S
C614 H616 0.952 . S
C615 N610 1.332 . S
C615 C611 1.382 . S
C615 H617 0.948 . S
H616 C614 0.952 . S
H617 C615 0.948 . S
H618 C607 0.952 . S
H619 C609 0.948 . S
C620 C586 1.395 . S
C620 C590 1.391 . S
C621 C583 1.389 . S
C621 C603 1.392 . S
C622 C593 1.392 . S
C622 C595 1.389 . S
C623 C598 1.395 . S
C623 C600 1.391 . S
H624 C584 0.951 . S
H625 C585 0.950 . S
H626 C591 0.949 . S
H627 C592 0.950 . S
H628 C596 0.951 . S
H629 C597 0.950 . S
H630 C601 0.949 . S
H631 C602 0.950 . S
H632 C606 0.950 . S
H633 C608 0.950 . S
H634 C611 0.950 . S
H635 C613 0.950 . S
C636 C637 1.443 . S
C636 N640 1.376 . S
C636 C674 1.389 . S
C637 C636 1.443 . S
C637 C638 1.340 . S
C637 H677 0.951 . S
C638 C637 1.340 . S
C638 C639 1.439 . S
C638 H678 0.950 . S
C639 C638 1.439 . S
C639 N640 1.374 . S
C639 C673 1.395 . S
N640 C636 1.376 . S
N640 C639 1.374 . S
N640 Co641 2.008 . S
Co641 N640 2.008 . S
Co641 N642 1.995 . S
Co641 N647 2.008 . S
Co641 N652 1.995 . S
Co641 N657 2.282 . S
Co641 N663 2.282 . S
N642 Co641 1.995 . S
N642 C643 1.376 . S
N642 C646 1.383 . S
C643 N642 1.376 . S
C643 C644 1.446 . S
C643 C673 1.391 . S
C644 C643 1.446 . S
C644 C645 1.339 . S
C644 H679 0.949 . S
C645 C644 1.339 . S
C645 C646 1.439 . S
C645 H680 0.950 . S
C646 N642 1.383 . S
C646 C645 1.439 . S
C646 C675 1.392 . S
N647 Co641 2.008 . S
N647 C648 1.376 . S
N647 C651 1.374 . S
C648 N647 1.376 . S
C648 C649 1.443 . S
C648 C675 1.389 . S
C649 C648 1.443 . S
C649 C650 1.340 . S
C649 H681 0.951 . S
C650 C649 1.340 . S
C650 C651 1.439 . S
C650 H682 0.950 . S
C651 N647 1.374 . S
C651 C650 1.439 . S
C651 C676 1.395 . S
N652 Co641 1.995 . S
N652 C653 1.376 . S
N652 C656 1.383 . S
C653 N652 1.376 . S
C653 C654 1.446 . S
C653 C676 1.391 . S
C654 C653 1.446 . S
C654 C655 1.339 . S
C654 H683 0.949 . S
C655 C654 1.339 . S
C655 C656 1.439 . S
C655 H684 0.950 . S
C656 N652 1.383 . S
C656 C655 1.439 . S
C656 C674 1.392 . S
N657 Co641 2.282 . S
N657 C660 1.332 . S
N657 C662 1.332 . S
C658 C659 1.386 . S
C658 C661 1.388 . S
C659 C658 1.386 . S
C659 C660 1.382 . S
C659 H685 0.950 . S
C660 N657 1.332 . S
C660 C659 1.382 . S
C660 H671 0.952 . S
C661 C658 1.388 . S
C661 C662 1.382 . S
C661 H686 0.950 . S
C662 N657 1.332 . S
C662 C661 1.382 . S
C662 H672 0.948 . S
N663 Co641 2.282 . S
N663 C667 1.332 . S
N663 C668 1.332 . S
C664 C665 1.388 . S
C664 C668 1.382 . S
C664 H687 0.950 . S
C665 C664 1.388 . S
C665 C666 1.386 . S
C666 C665 1.386 . S
C666 C667 1.382 . S
C666 H688 0.950 . S
C667 N663 1.332 . S
C667 C666 1.382 . S
C667 H669 0.952 . S
C668 N663 1.332 . S
C668 C664 1.382 . S
C668 H670 0.948 . S
H669 C667 0.952 . S
H670 C668 0.948 . S
H671 C660 0.952 . S
H672 C662 0.948 . S
C673 C639 1.395 . S
C673 C643 1.391 . S
C674 C636 1.389 . S
C674 C656 1.392 . S
C675 C646 1.392 . S
C675 C648 1.389 . S
C676 C651 1.395 . S
C676 C653 1.391 . S
H677 C637 0.951 . S
H678 C638 0.950 . S
H679 C644 0.949 . S
H680 C645 0.950 . S
H681 C649 0.951 . S
H682 C650 0.950 . S
H683 C654 0.949 . S
H684 C655 0.950 . S
H685 C659 0.950 . S
H686 C661 0.950 . S
H687 C664 0.950 . S
H688 C666 0.950 . S
C689 C690 1.443 . S
C689 N693 1.376 . S
C689 C727 1.389 . S
C690 C689 1.443 . S
C690 C691 1.340 . S
C690 H730 0.951 . S
C691 C690 1.340 . S
C691 C692 1.439 . S
C691 H731 0.950 . S
C692 C691 1.439 . S
C692 N693 1.374 . S
C692 C726 1.395 . S
N693 C689 1.376 . S
N693 C692 1.374 . S
N693 Co694 2.008 . S
Co694 N693 2.008 . S
Co694 N695 1.995 . S
Co694 N700 2.008 . S
Co694 N705 1.995 . S
Co694 N710 2.282 . S
Co694 N716 2.282 . S
N695 Co694 1.995 . S
N695 C696 1.376 . S
N695 C699 1.383 . S
C696 N695 1.376 . S
C696 C697 1.446 . S
C696 C726 1.391 . S
C697 C696 1.446 . S
C697 C698 1.339 . S
C697 H732 0.949 . S
C698 C697 1.339 . S
C698 C699 1.439 . S
C698 H733 0.950 . S
C699 N695 1.383 . S
C699 C698 1.439 . S
C699 C728 1.392 . S
N700 Co694 2.008 . S
N700 C701 1.376 . S
N700 C704 1.374 . S
C701 N700 1.376 . S
C701 C702 1.443 . S
C701 C728 1.389 . S
C702 C701 1.443 . S
C702 C703 1.340 . S
C702 H734 0.951 . S
C703 C702 1.340 . S
C703 C704 1.439 . S
C703 H735 0.950 . S
C704 N700 1.374 . S
C704 C703 1.439 . S
C704 C729 1.395 . S
N705 Co694 1.995 . S
N705 C706 1.376 . S
N705 C709 1.383 . S
C706 N705 1.376 . S
C706 C707 1.446 . S
C706 C729 1.391 . S
C707 C706 1.446 . S
C707 C708 1.339 . S
C707 H736 0.949 . S
C708 C707 1.339 . S
C708 C709 1.439 . S
C708 H737 0.950 . S
C709 N705 1.383 . S
C709 C708 1.439 . S
C709 C727 1.392 . S
N710 Co694 2.282 . S
N710 C713 1.332 . S
N710 C715 1.332 . S
C711 C712 1.386 . S
C711 C714 1.388 . S
C712 C711 1.386 . S
C712 C713 1.382 . S
C712 H738 0.950 . S
C713 N710 1.332 . S
C713 C712 1.382 . S
C713 H724 0.952 . S
C714 C711 1.388 . S
C714 C715 1.382 . S
C714 H739 0.950 . S
C715 N710 1.332 . S
C715 C714 1.382 . S
C715 H725 0.948 . S
N716 Co694 2.282 . S
N716 C720 1.332 . S
N716 C721 1.332 . S
C717 C718 1.388 . S
C717 C721 1.382 . S
C717 H740 0.950 . S
C718 C717 1.388 . S
C718 C719 1.386 . S
C719 C718 1.386 . S
C719 C720 1.382 . S
C719 H741 0.950 . S
C720 N716 1.332 . S
C720 C719 1.382 . S
C720 H722 0.952 . S
C721 N716 1.332 . S
C721 C717 1.382 . S
C721 H723 0.948 . S
H722 C720 0.952 . S
H723 C721 0.948 . S
H724 C713 0.952 . S
H725 C715 0.948 . S
C726 C692 1.395 . S
C726 C696 1.391 . S
C727 C689 1.389 . S
C727 C709 1.392 . S
C728 C699 1.392 . S
C728 C701 1.389 . S
C729 C704 1.395 . S
C729 C706 1.391 . S
H730 C690 0.951 . S
H731 C691 0.950 . S
H732 C697 0.949 . S
H733 C698 0.950 . S
H734 C702 0.951 . S
H735 C703 0.950 . S
H736 C707 0.949 . S
H737 C708 0.950 . S
H738 C712 0.950 . S
H739 C714 0.950 . S
H740 C717 0.950 . S
H741 C719 0.950 . S
C742 C743 1.443 . S
C742 N746 1.376 . S
C742 C780 1.389 . S
C743 C742 1.443 . S
C743 C744 1.340 . S
C743 H783 0.951 . S
C744 C743 1.340 . S
C744 C745 1.439 . S
C744 H784 0.950 . S
C745 C744 1.439 . S
C745 N746 1.374 . S
C745 C779 1.395 . S
N746 C742 1.376 . S
N746 C745 1.374 . S
N746 Co747 2.008 . S
Co747 N746 2.008 . S
Co747 N748 1.995 . S
Co747 N753 2.008 . S
Co747 N758 1.995 . S
Co747 N763 2.282 . S
Co747 N769 2.282 . S
N748 Co747 1.995 . S
N748 C749 1.376 . S
N748 C752 1.383 . S
C749 N748 1.376 . S
C749 C750 1.446 . S
C749 C779 1.391 . S
C750 C749 1.446 . S
C750 C751 1.339 . S
C750 H785 0.949 . S
C751 C750 1.339 . S
C751 C752 1.439 . S
C751 H786 0.950 . S
C752 N748 1.383 . S
C752 C751 1.439 . S
C752 C781 1.392 . S
N753 Co747 2.008 . S
N753 C754 1.376 . S
N753 C757 1.374 . S
C754 N753 1.376 . S
C754 C755 1.443 . S
C754 C781 1.389 . S
C755 C754 1.443 . S
C755 C756 1.340 . S
C755 H787 0.951 . S
C756 C755 1.340 . S
C756 C757 1.439 . S
C756 H788 0.950 . S
C757 N753 1.374 . S
C757 C756 1.439 . S
C757 C782 1.395 . S
N758 Co747 1.995 . S
N758 C759 1.376 . S
N758 C762 1.383 . S
C759 N758 1.376 . S
C759 C760 1.446 . S
C759 C782 1.391 . S
C760 C759 1.446 . S
C760 C761 1.339 . S
C760 H789 0.949 . S
C761 C760 1.339 . S
C761 C762 1.439 . S
C761 H790 0.950 . S
C762 N758 1.383 . S
C762 C761 1.439 . S
C762 C780 1.392 . S
N763 Co747 2.282 . S
N763 C766 1.332 . S
N763 C768 1.332 . S
C764 C765 1.386 . S
C764 C767 1.388 . S
C765 C764 1.386 . S
C765 C766 1.382 . S
C765 H791 0.950 . S
C766 N763 1.332 . S
C766 C765 1.382 . S
C766 H777 0.952 . S
C767 C764 1.388 . S
C767 C768 1.382 . S
C767 H792 0.950 . S
C768 N763 1.332 . S
C768 C767 1.382 . S
C768 H778 0.948 . S
N769 Co747 2.282 . S
N769 C773 1.332 . S
N769 C774 1.332 . S
C770 C771 1.388 . S
C770 C774 1.382 . S
C770 H793 0.950 . S
C771 C770 1.388 . S
C771 C772 1.386 . S
C772 C771 1.386 . S
C772 C773 1.382 . S
C772 H794 0.950 . S
C773 N769 1.332 . S
C773 C772 1.382 . S
C773 H775 0.952 . S
C774 N769 1.332 . S
C774 C770 1.382 . S
C774 H776 0.948 . S
H775 C773 0.952 . S
H776 C774 0.948 . S
H777 C766 0.952 . S
H778 C768 0.948 . S
C779 C745 1.395 . S
C779 C749 1.391 . S
C780 C742 1.389 . S
C780 C762 1.392 . S
C781 C752 1.392 . S
C781 C754 1.389 . S
C782 C757 1.395 . S
C782 C759 1.391 . S
H783 C743 0.951 . S
H784 C744 0.950 . S
H785 C750 0.949 . S
H786 C751 0.950 . S
H787 C755 0.951 . S
H788 C756 0.950 . S
H789 C760 0.949 . S
H790 C761 0.950 . S
H791 C765 0.950 . S
H792 C767 0.950 . S
H793 C770 0.950 . S
H794 C772 0.950 . S
C795 C796 1.443 . S
C795 N799 1.376 . S
C795 C833 1.389 . S
C796 C795 1.443 . S
C796 C797 1.340 . S
C796 H836 0.951 . S
C797 C796 1.340 . S
C797 C798 1.439 . S
C797 H837 0.950 . S
C798 C797 1.439 . S
C798 N799 1.374 . S
C798 C832 1.395 . S
N799 C795 1.376 . S
N799 C798 1.374 . S
N799 Co800 2.008 . S
Co800 N799 2.008 . S
Co800 N801 1.995 . S
Co800 N806 2.008 . S
Co800 N811 1.995 . S
Co800 N816 2.282 . S
Co800 N822 2.282 . S
N801 Co800 1.995 . S
N801 C802 1.376 . S
N801 C805 1.383 . S
C802 N801 1.376 . S
C802 C803 1.446 . S
C802 C832 1.391 . S
C803 C802 1.446 . S
C803 C804 1.339 . S
C803 H838 0.949 . S
C804 C803 1.339 . S
C804 C805 1.439 . S
C804 H839 0.950 . S
C805 N801 1.383 . S
C805 C804 1.439 . S
C805 C834 1.392 . S
N806 Co800 2.008 . S
N806 C807 1.376 . S
N806 C810 1.374 . S
C807 N806 1.376 . S
C807 C808 1.443 . S
C807 C834 1.389 . S
C808 C807 1.443 . S
C808 C809 1.340 . S
C808 H840 0.951 . S
C809 C808 1.340 . S
C809 C810 1.439 . S
C809 H841 0.950 . S
C810 N806 1.374 . S
C810 C809 1.439 . S
C810 C835 1.395 . S
N811 Co800 1.995 . S
N811 C812 1.376 . S
N811 C815 1.383 . S
C812 N811 1.376 . S
C812 C813 1.446 . S
C812 C835 1.391 . S
C813 C812 1.446 . S
C813 C814 1.339 . S
C813 H842 0.949 . S
C814 C813 1.339 . S
C814 C815 1.439 . S
C814 H843 0.950 . S
C815 N811 1.383 . S
C815 C814 1.439 . S
C815 C833 1.392 . S
N816 Co800 2.282 . S
N816 C819 1.332 . S
N816 C821 1.332 . S
C817 C818 1.386 . S
C817 C820 1.388 . S
C818 C817 1.386 . S
C818 C819 1.382 . S
C818 H844 0.950 . S
C819 N816 1.332 . S
C819 C818 1.382 . S
C819 H830 0.952 . S
C820 C817 1.388 . S
C820 C821 1.382 . S
C820 H845 0.950 . S
C821 N816 1.332 . S
C821 C820 1.382 . S
C821 H831 0.948 . S
N822 Co800 2.282 . S
N822 C826 1.332 . S
N822 C827 1.332 . S
C823 C824 1.388 . S
C823 C827 1.382 . S
C823 H846 0.950 . S
C824 C823 1.388 . S
C824 C825 1.386 . S
C825 C824 1.386 . S
C825 C826 1.382 . S
C825 H847 0.950 . S
C826 N822 1.332 . S
C826 C825 1.382 . S
C826 H828 0.952 . S
C827 N822 1.332 . S
C827 C823 1.382 . S
C827 H829 0.948 . S
H828 C826 0.952 . S
H829 C827 0.948 . S
H830 C819 0.952 . S
H831 C821 0.948 . S
C832 C798 1.395 . S
C832 C802 1.391 . S
C833 C795 1.389 . S
C833 C815 1.392 . S
C834 C805 1.392 . S
C834 C807 1.389 . S
C835 C810 1.395 . S
C835 C812 1.391 . S
H836 C796 0.951 . S
H837 C797 0.950 . S
H838 C803 0.949 . S
H839 C804 0.950 . S
H840 C808 0.951 . S
H841 C809 0.950 . S
H842 C813 0.949 . S
H843 C814 0.950 . S
H844 C818 0.950 . S
H845 C820 0.950 . S
H846 C823 0.950 . S
H847 C825 0.950 . S
C848 C849 1.391 . S
C848 C850 1.394 . S
C848 H864 0.931 . S
C849 C848 1.391 . S
C849 C853 1.376 . S
C850 C848 1.394 . S
C850 C851 1.369 . S
C850 C854 1.531 . S
C851 C850 1.369 . S
C851 C852 1.410 . S
C851 C859 1.503 1_565 S
C852 C851 1.410 . S
C852 C853 1.392 . S
C852 C855 1.515 1_565 S
C853 C849 1.376 . S
C853 C852 1.392 . S
C853 H865 0.929 . S
C854 C850 1.531 . S
C854 H866 0.960 . S
C854 H867 0.962 . S
C854 H868 0.960 . S
C855 C852 1.515 1_545 S
C855 H869 0.963 1_545 S
C855 H870 0.956 . S
C855 H871 0.959 . S
C856 C857 1.370 . S
C856 C858 1.363 . S
C856 H872 0.931 . S
C857 C856 1.370 . S
C857 C861 1.408 . S
C858 C856 1.363 . S
C858 C859 1.370 . S
C858 C862 1.524 . S
C859 C851 1.503 1_545 S
C859 C858 1.370 . S
C859 C860 1.403 . S
C860 C859 1.403 . S
C860 C861 1.404 . S
C860 C863 1.539 . S
C861 C857 1.408 . S
C861 C860 1.404 . S
C861 H873 0.930 . S
C862 C858 1.524 . S
C862 H874 0.956 1_545 S
C862 H875 0.961 . S
C862 H876 0.961 . S
C863 C860 1.539 . S
C863 H877 0.958 . S
C863 H878 0.961 . S
C863 H879 0.960 . S
H864 C848 0.931 . S
H865 C853 0.929 . S
H866 C854 0.960 . S
H867 C854 0.962 . S
H868 C854 0.960 . S
H869 C855 0.963 1_565 S
H870 C855 0.956 . S
H871 C855 0.959 . S
H872 C856 0.931 . S
H873 C861 0.930 . S
H874 C862 0.956 1_565 S
H875 C862 0.961 . S
H876 C862 0.961 . S
H877 C863 0.958 . S
H878 C863 0.961 . S
H879 C863 0.960 . S
C880 C881 1.391 . S
C880 C882 1.394 . S
C880 H896 0.931 . S
C881 C880 1.391 . S
C881 C885 1.376 . S
C882 C880 1.394 . S
C882 C883 1.369 . S
C882 C886 1.531 . S
C883 C882 1.369 . S
C883 C884 1.410 . S
C883 C891 1.503 1_455 S
C884 C883 1.410 . S
C884 C885 1.392 . S
C884 C887 1.511 . S
C885 C881 1.376 . S
C885 C884 1.392 . S
C885 H897 0.929 . S
C886 C882 1.531 . S
C886 H898 0.960 1_455 S
C886 H899 0.962 . S
C886 H900 0.960 . S
C887 C884 1.511 . S
C887 H901 0.961 . S
C887 H902 0.961 . S
C887 H903 0.961 . S
C888 C889 1.370 . S
C888 C890 1.363 . S
C888 H904 0.931 . S
C889 C888 1.370 . S
C889 C893 1.408 . S
C890 C888 1.363 . S
C890 C891 1.370 . S
C890 C894 1.524 . S
C891 C883 1.503 1_655 S
C891 C890 1.370 . S
C891 C892 1.403 . S
C892 C891 1.403 . S
C892 C893 1.404 . S
C892 C895 1.539 . S
C893 C889 1.408 . S
C893 C892 1.404 . S
C893 H905 0.930 . S
C894 C890 1.524 . S
C894 H906 0.956 1_655 S
C894 H907 0.961 1_655 S
C894 H908 0.961 . S
C895 C892 1.539 . S
C895 H909 0.958 . S
C895 H910 0.961 . S
C895 H911 0.968 . S
H896 C880 0.931 . S
H897 C885 0.929 . S
H898 C886 0.960 1_655 S
H899 C886 0.962 . S
H900 C886 0.960 . S
H901 C887 0.961 . S
H902 C887 0.961 . S
H903 C887 0.961 . S
H904 C888 0.931 . S
H905 C893 0.930 . S
H906 C894 0.956 1_455 S
H907 C894 0.961 1_455 S
H908 C894 0.961 . S
H909 C895 0.958 . S
H910 C895 0.961 . S
H911 C895 0.968 . S
C912 C913 1.391 . S
C912 C914 1.394 . S
C912 H928 0.931 . S
C913 C912 1.391 . S
C913 C917 1.376 . S
C914 C912 1.394 . S
C914 C915 1.369 . S
C914 C918 1.531 . S
C915 C914 1.369 . S
C915 C916 1.410 . S
C915 C923 1.503 1_565 S
C916 C915 1.410 . S
C916 C917 1.392 . S
C916 C919 1.511 . S
C917 C913 1.376 . S
C917 C916 1.392 . S
C917 H929 0.929 . S
C918 C914 1.531 . S
C918 H930 0.960 1_565 S
C918 H931 0.981 . S
C918 H932 0.960 . S
C919 C916 1.511 . S
C919 H933 0.961 . S
C919 H934 0.961 . S
C919 H935 0.961 . S
C920 C921 1.370 . S
C920 C922 1.363 . S
C920 H936 0.931 . S
C921 C920 1.370 . S
C921 C925 1.408 . S
C922 C920 1.363 . S
C922 C923 1.370 . S
C922 C926 1.524 . S
C923 C915 1.503 1_545 S
C923 C922 1.370 . S
C923 C924 1.403 . S
C924 C923 1.403 . S
C924 C925 1.404 . S
C924 C927 1.539 . S
C925 C921 1.408 . S
C925 C924 1.404 . S
C925 H937 0.930 . S
C926 C922 1.524 . S
C926 H938 0.956 . S
C926 H939 0.961 1_545 S
C926 H940 0.961 . S
C927 C924 1.539 . S
C927 H941 0.958 . S
C927 H942 0.961 . S
C927 H943 0.960 1_545 S
H928 C912 0.931 . S
H929 C917 0.929 . S
H930 C918 0.960 1_545 S
H931 C918 0.981 . S
H932 C918 0.960 . S
H933 C919 0.961 . S
H934 C919 0.961 . S
H935 C919 0.961 . S
H936 C920 0.931 . S
H937 C925 0.930 . S
H938 C926 0.956 . S
H939 C926 0.961 1_565 S
H940 C926 0.961 . S
H941 C927 0.958 . S
H942 C927 0.961 . S
H943 C927 0.960 1_565 S
C944 C945 1.391 . S
C944 C946 1.394 . S
C944 H960 0.931 . S
C945 C944 1.391 . S
C945 C949 1.376 . S
C946 C944 1.394 . S
C946 C947 1.369 . S
C946 C950 1.531 . S
C947 C946 1.369 . S
C947 C948 1.410 . S
C947 C955 1.503 1_455 S
C948 C947 1.410 . S
C948 C949 1.392 . S
C948 C951 1.515 1_455 S
C949 C945 1.376 . S
C949 C948 1.392 . S
C949 H961 0.929 . S
C950 C946 1.531 . S
C950 H962 0.960 . S
C950 H963 0.962 . S
C950 H964 0.960 . S
C951 C948 1.515 1_655 S
C951 H965 0.963 1_655 S
C951 H966 0.956 . S
C951 H967 0.959 . S
C952 C953 1.370 . S
C952 C954 1.363 . S
C952 H968 0.931 . S
C953 C952 1.370 . S
C953 C957 1.408 . S
C954 C952 1.363 . S
C954 C955 1.370 . S
C954 C958 1.524 . S
C955 C947 1.503 1_655 S
C955 C954 1.370 . S
C955 C956 1.403 . S
C956 C955 1.403 . S
C956 C957 1.404 . S
C956 C959 1.539 . S
C957 C953 1.408 . S
C957 C956 1.404 . S
C957 H969 0.930 . S
C958 C954 1.524 . S
C958 H970 0.956 1_655 S
C958 H971 0.961 . S
C958 H972 0.961 . S
C959 C956 1.539 . S
C959 H973 0.958 . S
C959 H974 0.961 . S
C959 H975 0.960 . S
H960 C944 0.931 . S
H961 C949 0.929 . S
H962 C950 0.960 . S
H963 C950 0.962 . S
H964 C950 0.960 . S
H965 C951 0.963 1_455 S
H966 C951 0.956 . S
H967 C951 0.959 . S
H968 C952 0.931 . S
H969 C957 0.930 . S
H970 C958 0.956 1_455 S
H971 C958 0.961 . S
H972 C958 0.961 . S
H973 C959 0.958 . S
H974 C959 0.961 . S
H975 C959 0.960 . S
C976 C977 1.391 . S
C976 C978 1.394 . S
C976 H992 0.931 . S
C977 C976 1.391 . S
C977 C981 1.376 . S
C978 C976 1.394 . S
C978 C979 1.369 . S
C978 C982 1.531 . S
C979 C978 1.369 . S
C979 C980 1.410 . S
C979 C987 1.503 . S
C980 C979 1.410 . S
C980 C981 1.392 . S
C980 C983 1.511 . S
C981 C977 1.376 . S
C981 C980 1.392 . S
C981 H993 0.929 . S
C982 C978 1.531 . S
C982 H994 0.960 . S
C982 H995 0.962 . S
C982 H996 0.960 . S
C983 C980 1.511 . S
C983 H997 0.961 1_554 S
C983 H998 0.961 1_554 S
C983 H999 0.961 . S
C984 C985 1.370 1_556 S
C984 C986 1.363 . S
C984 H1000 0.931 . S
C985 C984 1.370 1_554 S
C985 C989 1.408 . S
C986 C984 1.363 . S
C986 C987 1.370 1_556 S
C986 C990 1.524 . S
C987 C979 1.503 . S
C987 C986 1.370 1_554 S
C987 C988 1.403 . S
C988 C987 1.403 . S
C988 C989 1.404 . S
C988 C991 1.539 . S
C989 C985 1.408 . S
C989 C988 1.404 . S
C989 H1001 0.930 . S
C990 C986 1.524 . S
C990 H1002 0.956 . S
C990 H1003 0.961 . S
C990 H1004 0.961 . S
C991 C988 1.539 . S
C991 H1005 0.958 . S
C991 H1006 0.961 . S
C991 H1007 0.960 . S
H992 C976 0.931 . S
H993 C981 0.929 . S
H994 C982 0.960 . S
H995 C982 0.962 . S
H996 C982 0.960 . S
H997 C983 0.961 1_556 S
H998 C983 0.961 1_556 S
H999 C983 0.961 . S
H1000 C984 0.931 . S
H1001 C989 0.930 . S
H1002 C990 0.956 . S
H1003 C990 0.961 . S
H1004 C990 0.961 . S
H1005 C991 0.958 . S
H1006 C991 0.961 . S
H1007 C991 0.960 . S
C1008 C1009 1.391 . S
C1008 C1010 1.394 . S
C1008 H1024 0.931 . S
C1009 C1008 1.391 . S
C1009 C1013 1.376 . S
C1010 C1008 1.394 . S
C1010 C1011 1.369 . S
C1010 C1014 1.531 . S
C1011 C1010 1.369 . S
C1011 C1012 1.410 . S
C1011 C1019 1.503 . S
C1012 C1011 1.410 . S
C1012 C1013 1.392 . S
C1012 C1015 1.511 1_556 S
C1013 C1009 1.376 . S
C1013 C1012 1.392 . S
C1013 H1025 0.929 . S
C1014 C1010 1.531 . S
C1014 H1026 0.960 . S
C1014 H1027 0.962 . S
C1014 H1028 0.960 . S
C1015 C1012 1.511 1_554 S
C1015 H1029 0.961 . S
C1015 H1030 0.961 . S
C1015 H1031 0.961 . S
C1016 C1017 1.370 . S
C1016 C1018 1.363 . S
C1016 H1032 0.931 . S
C1017 C1016 1.370 . S
C1017 C1021 1.408 1_556 S
C1018 C1016 1.363 . S
C1018 C1019 1.370 . S
C1018 C1022 1.524 . S
C1019 C1011 1.503 . S
C1019 C1018 1.370 . S
C1019 C1020 1.403 1_556 S
C1020 C1019 1.403 1_554 S
C1020 C1021 1.404 . S
C1020 C1023 1.539 . S
C1021 C1017 1.408 1_554 S
C1021 C1020 1.404 . S
C1021 H1033 0.930 . S
C1022 C1018 1.524 . S
C1022 H1034 0.956 . S
C1022 H1035 0.961 . S
C1022 H1036 0.961 . S
C1023 C1020 1.539 . S
C1023 H1037 0.958 . S
C1023 H1038 0.961 . S
C1023 H1039 0.960 . S
H1024 C1008 0.931 . S
H1025 C1013 0.929 . S
H1026 C1014 0.960 . S
H1027 C1014 0.962 . S
H1028 C1014 0.960 . S
H1029 C1015 0.961 . S
H1030 C1015 0.961 . S
H1031 C1015 0.961 . S
H1032 C1016 0.931 . S
H1033 C1021 0.930 . S
H1034 C1022 0.956 . S
H1035 C1022 0.961 . S
H1036 C1022 0.961 . S
H1037 C1023 0.958 . S
H1038 C1023 0.961 . S
H1039 C1023 0.960 . S
C1040 C1041 1.391 . S
C1040 C1042 1.394 . S
C1040 H1056 0.931 . S
C1041 C1040 1.391 . S
C1041 C1045 1.376 . S
C1042 C1040 1.394 . S
C1042 C1043 1.369 . S
C1042 C1046 1.531 . S
C1043 C1042 1.369 . S
C1043 C1044 1.410 . S
C1043 C1051 1.503 . S
C1044 C1043 1.410 . S
C1044 C1045 1.392 . S
C1044 C1047 1.511 . S
C1045 C1041 1.376 . S
C1045 C1044 1.392 . S
C1045 H1057 0.929 . S
C1046 C1042 1.531 . S
C1046 H1058 0.960 . S
C1046 H1059 0.962 1_554 S
C1046 H1060 0.960 . S
C1047 C1044 1.511 . S
C1047 H1061 0.961 . S
C1047 H1062 0.961 . S
C1047 H1063 0.961 . S
C1048 C1049 1.370 . S
C1048 C1050 1.363 . S
C1048 H1064 0.931 1_554 S
C1049 C1048 1.370 . S
C1049 C1053 1.408 . S
C1050 C1048 1.363 . S
C1050 C1051 1.370 . S
C1050 C1054 1.524 1_554 S
C1051 C1043 1.503 . S
C1051 C1050 1.370 . S
C1051 C1052 1.403 . S
C1052 C1051 1.403 . S
C1052 C1053 1.404 . S
C1052 C1055 1.539 . S
C1053 C1049 1.408 . S
C1053 C1052 1.404 . S
C1053 H1065 0.930 . S
C1054 C1050 1.524 1_556 S
C1054 H1066 0.956 . S
C1054 H1067 0.961 . S
C1054 H1068 0.961 . S
C1055 C1052 1.539 . S
C1055 H1069 0.958 . S
C1055 H1070 0.961 . S
C1055 H1071 0.960 . S
H1056 C1040 0.931 . S
H1057 C1045 0.929 . S
H1058 C1046 0.960 . S
H1059 C1046 0.962 1_556 S
H1060 C1046 0.960 . S
H1061 C1047 0.961 . S
H1062 C1047 0.961 . S
H1063 C1047 0.961 . S
H1064 C1048 0.931 1_556 S
H1065 C1053 0.930 . S
H1066 C1054 0.956 . S
H1067 C1054 0.961 . S
H1068 C1054 0.961 . S
H1069 C1055 0.958 . S
H1070 C1055 0.961 . S
H1071 C1055 0.960 . S
C1072 C1073 1.391 . S
C1072 C1074 1.394 . S
C1072 H1088 0.931 . S
C1073 C1072 1.391 . S
C1073 C1077 1.376 1_556 S
C1074 C1072 1.394 . S
C1074 C1075 1.369 . S
C1074 C1078 1.531 . S
C1075 C1074 1.369 . S
C1075 C1076 1.410 1_556 S
C1075 C1083 1.503 . S
C1076 C1075 1.410 1_554 S
C1076 C1077 1.392 . S
C1076 C1079 1.511 . S
C1077 C1073 1.376 1_554 S
C1077 C1076 1.392 . S
C1077 H1089 0.929 . S
C1078 C1074 1.531 . S
C1078 H1090 0.960 . S
C1078 H1091 0.962 . S
C1078 H1092 0.960 . S
C1079 C1076 1.511 . S
C1079 H1093 0.961 . S
C1079 H1094 0.961 . S
C1079 H1095 0.961 . S
C1080 C1081 1.370 . S
C1080 C1082 1.363 . S
C1080 H1096 0.931 . S
C1081 C1080 1.370 . S
C1081 C1085 1.408 . S
C1082 C1080 1.363 . S
C1082 C1083 1.370 . S
C1082 C1086 1.524 . S
C1083 C1075 1.503 . S
C1083 C1082 1.370 . S
C1083 C1084 1.403 . S
C1084 C1083 1.403 . S
C1084 C1085 1.404 . S
C1084 C1087 1.539 1_556 S
C1085 C1081 1.408 . S
C1085 C1084 1.404 . S
C1085 H1097 0.930 . S
C1086 C1082 1.524 . S
C1086 H1098 0.956 . S
C1086 H1099 0.961 . S
C1086 H1100 0.961 . S
C1087 C1084 1.539 1_554 S
C1087 H1101 0.958 . S
C1087 H1102 0.961 . S
C1087 H1103 0.960 . S
H1088 C1072 0.931 . S
H1089 C1077 0.929 . S
H1090 C1078 0.960 . S
H1091 C1078 0.962 . S
H1092 C1078 0.960 . S
H1093 C1079 0.961 . S
H1094 C1079 0.961 . S
H1095 C1079 0.961 . S
H1096 C1080 0.931 . S
H1097 C1085 0.930 . S
H1098 C1086 0.956 . S
H1099 C1086 0.961 . S
H1100 C1086 0.961 . S
H1101 C1087 0.958 . S
H1102 C1087 0.961 . S
H1103 C1087 0.960 . S
C1104 C1105 1.391 . S
C1104 C1106 1.394 . S
C1104 H1120 0.931 . S
C1105 C1104 1.391 . S
C1105 C1109 1.376 . S
C1106 C1104 1.394 . S
C1106 C1107 1.369 . S
C1106 C1110 1.531 . S
C1107 C1106 1.369 . S
C1107 C1108 1.410 . S
C1107 C1115 1.503 . S
C1108 C1107 1.410 . S
C1108 C1109 1.392 . S
C1108 C1111 1.511 . S
C1109 C1105 1.376 . S
C1109 C1108 1.392 . S
C1109 H1121 0.929 . S
C1110 C1106 1.531 . S
C1110 H1122 0.960 . S
C1110 H1123 0.962 . S
C1110 H1124 0.960 . S
C1111 C1108 1.511 . S
C1111 H1125 0.961 . S
C1111 H1126 0.961 . S
C1111 H1127 0.961 . S
C1112 C1113 1.370 . S
C1112 C1114 1.363 . S
C1112 H1128 0.931 . S
C1113 C1112 1.370 . S
C1113 C1117 1.408 . S
C1114 C1112 1.363 . S
C1114 C1115 1.370 . S
C1114 C1118 1.524 . S
C1115 C1107 1.503 . S
C1115 C1114 1.370 . S
C1115 C1116 1.403 . S
C1116 C1115 1.403 . S
C1116 C1117 1.404 . S
C1116 C1119 1.539 . S
C1117 C1113 1.408 . S
C1117 C1116 1.404 . S
C1117 H1129 0.930 . S
C1118 C1114 1.524 . S
C1118 H1130 0.956 . S
C1118 H1131 0.961 . S
C1118 H1132 0.961 . S
C1119 C1116 1.539 . S
C1119 H1133 0.958 . S
C1119 H1134 0.961 . S
C1119 H1135 0.960 . S
H1120 C1104 0.931 . S
H1121 C1109 0.929 . S
H1122 C1110 0.960 . S
H1123 C1110 0.962 . S
H1124 C1110 0.960 . S
H1125 C1111 0.961 . S
H1126 C1111 0.961 . S
H1127 C1111 0.961 . S
H1128 C1112 0.931 . S
H1129 C1117 0.930 . S
H1130 C1118 0.956 . S
H1131 C1118 0.961 . S
H1132 C1118 0.961 . S
H1133 C1119 0.958 . S
H1134 C1119 0.961 . S
H1135 C1119 0.960 . S
C1136 C1137 1.391 . S
C1136 C1138 1.394 . S
C1136 H1152 0.931 . S
C1137 C1136 1.391 . S
C1137 C1141 1.376 . S
C1138 C1136 1.394 . S
C1138 C1139 1.369 . S
C1138 C1142 1.531 . S
C1139 C1138 1.369 . S
C1139 C1140 1.410 . S
C1139 C1147 1.503 . S
C1140 C1139 1.410 . S
C1140 C1141 1.392 . S
C1140 C1143 1.511 . S
C1141 C1137 1.376 . S
C1141 C1140 1.392 . S
C1141 H1153 0.929 . S
C1142 C1138 1.531 . S
C1142 H1154 0.960 . S
C1142 H1155 0.962 . S
C1142 H1156 0.960 . S
C1143 C1140 1.511 . S
C1143 H1157 0.961 . S
C1143 H1158 0.961 . S
C1143 H1159 0.961 . S
C1144 C1145 1.370 . S
C1144 C1146 1.363 . S
C1144 H1160 0.931 . S
C1145 C1144 1.370 . S
C1145 C1149 1.408 . S
C1146 C1144 1.363 . S
C1146 C1147 1.370 . S
C1146 C1150 1.524 . S
C1147 C1139 1.503 . S
C1147 C1146 1.370 . S
C1147 C1148 1.403 . S
C1148 C1147 1.403 . S
C1148 C1149 1.404 . S
C1148 C1151 1.539 . S
C1149 C1145 1.408 . S
C1149 C1148 1.404 . S
C1149 H1161 0.930 . S
C1150 C1146 1.524 . S
C1150 H1162 0.956 . S
C1150 H1163 0.961 . S
C1150 H1164 0.961 . S
C1151 C1148 1.539 . S
C1151 H1165 0.958 . S
C1151 H1166 0.961 . S
C1151 H1167 0.960 . S
H1152 C1136 0.931 . S
H1153 C1141 0.929 . S
H1154 C1142 0.960 . S
H1155 C1142 0.962 . S
H1156 C1142 0.960 . S
H1157 C1143 0.961 . S
H1158 C1143 0.961 . S
H1159 C1143 0.961 . S
H1160 C1144 0.931 . S
H1161 C1149 0.930 . S
H1162 C1150 0.956 . S
H1163 C1150 0.961 . S
H1164 C1150 0.961 . S
H1165 C1151 0.958 . S
H1166 C1151 0.961 . S
H1167 C1151 0.960 . S
C1168 C1169 1.391 . S
C1168 C1170 1.394 . S
C1168 H1184 0.931 . S
C1169 C1168 1.391 . S
C1169 C1173 1.376 . S
C1170 C1168 1.394 . S
C1170 C1171 1.369 . S
C1170 C1174 1.531 . S
C1171 C1170 1.369 . S
C1171 C1172 1.410 . S
C1171 C1179 1.503 . S
C1172 C1171 1.410 . S
C1172 C1173 1.392 . S
C1172 C1175 1.511 . S
C1173 C1169 1.376 . S
C1173 C1172 1.392 . S
C1173 H1185 0.929 . S
C1174 C1170 1.531 . S
C1174 H1186 0.960 . S
C1174 H1187 0.962 . S
C1174 H1188 0.960 . S
C1175 C1172 1.511 . S
C1175 H1189 0.961 . S
C1175 H1190 0.961 . S
C1175 H1191 0.961 . S
C1176 C1177 1.370 . S
C1176 C1178 1.363 . S
C1176 H1192 0.931 . S
C1177 C1176 1.370 . S
C1177 C1181 1.408 . S
C1178 C1176 1.363 . S
C1178 C1179 1.370 . S
C1178 C1182 1.524 . S
C1179 C1171 1.503 . S
C1179 C1178 1.370 . S
C1179 C1180 1.403 . S
C1180 C1179 1.403 . S
C1180 C1181 1.404 . S
C1180 C1183 1.539 . S
C1181 C1177 1.408 . S
C1181 C1180 1.404 . S
C1181 H1193 0.930 . S
C1182 C1178 1.524 . S
C1182 H1194 0.956 . S
C1182 H1195 0.961 . S
C1182 H1196 0.961 . S
C1183 C1180 1.539 . S
C1183 H1197 0.958 . S
C1183 H1198 0.961 . S
C1183 H1199 0.960 . S
H1184 C1168 0.931 . S
H1185 C1173 0.929 . S
H1186 C1174 0.960 . S
H1187 C1174 0.962 . S
H1188 C1174 0.960 . S
H1189 C1175 0.961 . S
H1190 C1175 0.961 . S
H1191 C1175 0.961 . S
H1192 C1176 0.931 . S
H1193 C1181 0.930 . S
H1194 C1182 0.956 . S
H1195 C1182 0.961 . S
H1196 C1182 0.961 . S
H1197 C1183 0.958 . S
H1198 C1183 0.961 . S
H1199 C1183 0.960 . S
C1200 C1201 1.391 . S
C1200 C1202 1.394 . S
C1200 H1216 0.931 . S
C1201 C1200 1.391 . S
C1201 C1205 1.376 . S
C1202 C1200 1.394 . S
C1202 C1203 1.369 . S
C1202 C1206 1.531 . S
C1203 C1202 1.369 . S
C1203 C1204 1.410 . S
C1203 C1211 1.503 . S
C1204 C1203 1.410 . S
C1204 C1205 1.392 . S
C1204 C1207 1.511 . S
C1205 C1201 1.376 . S
C1205 C1204 1.392 . S
C1205 H1217 0.929 . S
C1206 C1202 1.531 . S
C1206 H1218 0.960 . S
C1206 H1219 0.962 . S
C1206 H1220 0.960 . S
C1207 C1204 1.511 . S
C1207 H1221 0.961 . S
C1207 H1222 0.961 . S
C1207 H1223 0.961 . S
C1208 C1209 1.370 . S
C1208 C1210 1.363 . S
C1208 H1224 0.931 . S
C1209 C1208 1.370 . S
C1209 C1213 1.408 . S
C1210 C1208 1.363 . S
C1210 C1211 1.370 . S
C1210 C1214 1.524 . S
C1211 C1203 1.503 . S
C1211 C1210 1.370 . S
C1211 C1212 1.403 . S
C1212 C1211 1.403 . S
C1212 C1213 1.404 . S
C1212 C1215 1.539 . S
C1213 C1209 1.408 . S
C1213 C1212 1.404 . S
C1213 H1225 0.930 . S
C1214 C1210 1.524 . S
C1214 H1226 0.956 . S
C1214 H1227 0.961 . S
C1214 H1228 0.961 . S
C1215 C1212 1.539 . S
C1215 H1229 0.958 . S
C1215 H1230 0.961 . S
C1215 H1231 0.960 . S
H1216 C1200 0.931 . S
H1217 C1205 0.929 . S
H1218 C1206 0.960 . S
H1219 C1206 0.962 . S
H1220 C1206 0.960 . S
H1221 C1207 0.961 . S
H1222 C1207 0.961 . S
H1223 C1207 0.961 . S
H1224 C1208 0.931 . S
H1225 C1213 0.930 . S
H1226 C1214 0.956 . S
H1227 C1214 0.961 . S
H1228 C1214 0.961 . S
H1229 C1215 0.958 . S
H1230 C1215 0.961 . S
H1231 C1215 0.960 . S
C1232 C1233 1.391 . S
C1232 C1234 1.394 . S
C1232 H1248 0.931 . S
C1233 C1232 1.391 . S
C1233 C1237 1.376 . S
C1234 C1232 1.394 . S
C1234 C1235 1.369 . S
C1234 C1238 1.531 . S
C1235 C1234 1.369 . S
C1235 C1236 1.410 . S
C1235 C1243 1.503 1_565 S
C1236 C1235 1.410 . S
C1236 C1237 1.392 . S
C1236 C1239 1.511 . S
C1237 C1233 1.376 . S
C1237 C1236 1.392 . S
C1237 H1249 0.929 . S
C1238 C1234 1.531 . S
C1238 H1250 0.960 . S
C1238 H1251 0.962 . S
C1238 H1252 0.960 . S
C1239 C1236 1.511 . S
C1239 H1253 0.961 . S
C1239 H1254 0.961 1_565 S
C1239 H1255 0.961 . S
C1240 C1241 1.370 . S
C1240 C1242 1.363 . S
C1240 H1256 0.931 . S
C1241 C1240 1.370 . S
C1241 C1245 1.408 . S
C1242 C1240 1.363 . S
C1242 C1243 1.370 . S
C1242 C1246 1.524 . S
C1243 C1235 1.503 1_545 S
C1243 C1242 1.370 . S
C1243 C1244 1.403 . S
C1244 C1243 1.403 . S
C1244 C1245 1.404 . S
C1244 C1247 1.539 . S
C1245 C1241 1.408 . S
C1245 C1244 1.404 . S
C1245 H1257 0.930 . S
C1246 C1242 1.524 . S
C1246 H1258 0.956 1_545 S
C1246 H1259 0.951 1_545 S
C1246 H1260 0.961 . S
C1247 C1244 1.539 . S
C1247 H1261 0.958 . S
C1247 H1262 0.961 . S
C1247 H1263 0.960 1_545 S
H1248 C1232 0.931 . S
H1249 C1237 0.929 . S
H1250 C1238 0.960 . S
H1251 C1238 0.962 . S
H1252 C1238 0.960 . S
H1253 C1239 0.961 . S
H1254 C1239 0.961 1_545 S
H1255 C1239 0.961 . S
H1256 C1240 0.931 . S
H1257 C1245 0.930 . S
H1258 C1246 0.956 1_565 S
H1259 C1246 0.951 1_565 S
H1260 C1246 0.961 . S
H1261 C1247 0.958 . S
H1262 C1247 0.961 . S
H1263 C1247 0.960 1_565 S
C1264 C1265 1.391 . S
C1264 C1266 1.394 . S
C1264 H1280 0.931 . S
C1265 C1264 1.391 . S
C1265 C1269 1.376 . S
C1266 C1264 1.394 . S
C1266 C1267 1.369 . S
C1266 C1270 1.531 . S
C1267 C1266 1.369 . S
C1267 C1268 1.410 . S
C1267 C1275 1.503 1_655 S
C1268 C1267 1.410 . S
C1268 C1269 1.392 . S
C1268 C1271 1.511 . S
C1269 C1265 1.376 . S
C1269 C1268 1.392 . S
C1269 H1281 0.929 . S
C1270 C1266 1.531 . S
C1270 H1282 0.934 1_655 S
C1270 H1283 0.962 . S
C1270 H1284 0.960 . S
C1271 C1268 1.511 . S
C1271 H1285 0.961 . S
C1271 H1286 0.951 1_655 S
C1271 H1287 0.961 . S
C1272 C1273 1.370 . S
C1272 C1274 1.363 . S
C1272 H1288 0.931 . S
C1273 C1272 1.370 . S
C1273 C1277 1.408 . S
C1274 C1272 1.363 . S
C1274 C1275 1.370 . S
C1274 C1278 1.524 1_455 S
C1275 C1267 1.503 1_455 S
C1275 C1274 1.370 . S
C1275 C1276 1.403 . S
C1276 C1275 1.403 . S
C1276 C1277 1.404 . S
C1276 C1279 1.539 . S
C1277 C1273 1.408 . S
C1277 C1276 1.404 . S
C1277 H1289 0.930 . S
C1278 C1274 1.524 1_655 S
C1278 H1290 0.956 . S
C1278 H1291 0.961 . S
C1278 H1292 0.961 1_655 S
C1279 C1276 1.539 . S
C1279 H1293 0.958 . S
C1279 H1294 0.961 . S
C1279 H1295 0.960 . S
H1280 C1264 0.931 . S
H1281 C1269 0.929 . S
H1282 C1270 0.934 1_455 S
H1283 C1270 0.962 . S
H1284 C1270 0.960 . S
H1285 C1271 0.961 . S
H1286 C1271 0.951 1_455 S
H1287 C1271 0.961 . S
H1288 C1272 0.931 . S
H1289 C1277 0.930 . S
H1290 C1278 0.956 . S
H1291 C1278 0.961 . S
H1292 C1278 0.961 1_455 S
H1293 C1279 0.958 . S
H1294 C1279 0.961 . S
H1295 C1279 0.960 . S
C1296 C1297 1.391 . S
C1296 C1298 1.394 . S
C1296 H1312 0.931 . S
C1297 C1296 1.391 . S
C1297 C1301 1.376 . S
C1298 C1296 1.394 . S
C1298 C1299 1.369 . S
C1298 C1302 1.531 . S
C1299 C1298 1.369 . S
C1299 C1300 1.410 . S
C1299 C1307 1.503 1_565 S
C1300 C1299 1.410 . S
C1300 C1301 1.392 . S
C1300 C1303 1.511 . S
C1301 C1297 1.376 . S
C1301 C1300 1.392 . S
C1301 H1313 0.929 . S
C1302 C1298 1.531 . S
C1302 H1314 0.960 1_565 S
C1302 H1315 0.962 . S
C1302 H1316 0.960 . S
C1303 C1300 1.511 . S
C1303 H1317 0.961 . S
C1303 H1318 0.961 1_565 S
C1303 H1319 0.961 1_565 S
C1304 C1305 1.370 . S
C1304 C1306 1.363 . S
C1304 H1320 0.931 . S
C1305 C1304 1.370 . S
C1305 C1309 1.408 . S
C1306 C1304 1.363 . S
C1306 C1307 1.370 . S
C1306 C1310 1.524 . S
C1307 C1299 1.503 1_545 S
C1307 C1306 1.370 . S
C1307 C1308 1.403 . S
C1308 C1307 1.403 . S
C1308 C1309 1.404 . S
C1308 C1311 1.539 . S
C1309 C1305 1.408 . S
C1309 C1308 1.404 . S
C1309 H1321 0.930 . S
C1310 C1306 1.524 . S
C1310 H1322 0.956 1_545 S
C1310 H1323 0.961 1_545 S
C1310 H1324 0.961 . S
C1311 C1308 1.539 . S
C1311 H1325 0.958 . S
C1311 H1326 0.961 . S
C1311 H1327 0.960 . S
H1312 C1296 0.931 . S
H1313 C1301 0.929 . S
H1314 C1302 0.960 1_545 S
H1315 C1302 0.962 . S
H1316 C1302 0.960 . S
H1317 C1303 0.961 . S
H1318 C1303 0.961 1_545 S
H1319 C1303 0.961 1_545 S
H1320 C1304 0.931 . S
H1321 C1309 0.930 . S
H1322 C1310 0.956 1_565 S
H1323 C1310 0.961 1_565 S
H1324 C1310 0.961 . S
H1325 C1311 0.958 . S
H1326 C1311 0.961 . S
H1327 C1311 0.960 . S
C1328 C1329 1.391 . S
C1328 C1330 1.394 . S
C1328 H1344 0.931 . S
C1329 C1328 1.391 . S
C1329 C1333 1.376 . S
C1330 C1328 1.394 . S
C1330 C1331 1.369 . S
C1330 C1334 1.531 . S
C1331 C1330 1.369 . S
C1331 C1332 1.410 . S
C1331 C1339 1.503 1_655 S
C1332 C1331 1.410 . S
C1332 C1333 1.392 . S
C1332 C1335 1.511 . S
C1333 C1329 1.376 . S
C1333 C1332 1.392 . S
C1333 H1345 0.929 . S
C1334 C1330 1.531 . S
C1334 H1346 0.960 1_655 S
C1334 H1347 0.962 . S
C1334 H1348 0.960 . S
C1335 C1332 1.511 . S
C1335 H1349 0.961 . S
C1335 H1350 0.961 1_655 S
C1335 H1351 0.961 . S
C1336 C1337 1.370 . S
C1336 C1338 1.363 . S
C1336 H1352 0.931 . S
C1337 C1336 1.370 . S
C1337 C1341 1.408 . S
C1338 C1336 1.363 . S
C1338 C1339 1.370 . S
C1338 C1342 1.524 . S
C1339 C1331 1.503 1_455 S
C1339 C1338 1.370 . S
C1339 C1340 1.403 . S
C1340 C1339 1.403 . S
C1340 C1341 1.404 . S
C1340 C1343 1.539 . S
C1341 C1337 1.408 . S
C1341 C1340 1.404 . S
C1341 H1353 0.930 . S
C1342 C1338 1.524 . S
C1342 H1354 0.956 1_455 S
C1342 H1355 0.961 1_455 S
C1342 H1356 0.961 . S
C1343 C1340 1.539 . S
C1343 H1357 0.958 . S
C1343 H1358 0.961 . S
C1343 H1359 0.960 . S
H1344 C1328 0.931 . S
H1345 C1333 0.929 . S
H1346 C1334 0.960 1_455 S
H1347 C1334 0.962 . S
H1348 C1334 0.960 . S
H1349 C1335 0.961 . S
H1350 C1335 0.961 1_455 S
H1351 C1335 0.961 . S
H1352 C1336 0.931 . S
H1353 C1341 0.930 . S
H1354 C1342 0.956 1_655 S
H1355 C1342 0.961 1_655 S
H1356 C1342 0.961 . S
H1357 C1343 0.958 . S
H1358 C1343 0.961 . S
H1359 C1343 0.960 . S
C1360 C1361 1.391 . S
C1360 C1362 1.394 . S
C1360 H1376 0.931 . S
C1361 C1360 1.391 . S
C1361 C1365 1.376 . S
C1362 C1360 1.394 . S
C1362 C1363 1.369 . S
C1362 C1366 1.531 . S
C1363 C1362 1.369 . S
C1363 C1364 1.410 . S
C1363 C1371 1.503 . S
C1364 C1363 1.410 . S
C1364 C1365 1.392 . S
C1364 C1367 1.511 . S
C1365 C1361 1.376 . S
C1365 C1364 1.392 . S
C1365 H1377 0.929 . S
C1366 C1362 1.531 . S
C1366 H1378 0.960 . S
C1366 H1379 0.962 . S
C1366 H1380 0.960 . S
C1367 C1364 1.511 . S
C1367 H1381 0.961 . S
C1367 H1382 0.961 . S
C1367 H1383 0.961 . S
C1368 C1369 1.370 . S
C1368 C1370 1.363 . S
C1368 H1384 0.931 . S
C1369 C1368 1.370 . S
C1369 C1373 1.408 . S
C1370 C1368 1.363 . S
C1370 C1371 1.370 . S
C1370 C1374 1.524 . S
C1371 C1363 1.503 . S
C1371 C1370 1.370 . S
C1371 C1372 1.403 . S
C1372 C1371 1.403 . S
C1372 C1373 1.404 . S
C1372 C1375 1.539 . S
C1373 C1369 1.408 . S
C1373 C1372 1.404 . S
C1373 H1385 0.930 . S
C1374 C1370 1.524 . S
C1374 H1386 0.956 . S
C1374 H1387 0.961 . S
C1374 H1388 0.961 . S
C1375 C1372 1.539 . S
C1375 H1389 0.958 . S
C1375 H1390 0.961 . S
C1375 H1391 0.960 . S
H1376 C1360 0.931 . S
H1377 C1365 0.929 . S
H1378 C1366 0.960 . S
H1379 C1366 0.962 . S
H1380 C1366 0.960 . S
H1381 C1367 0.961 . S
H1382 C1367 0.961 . S
H1383 C1367 0.961 . S
H1384 C1368 0.931 . S
H1385 C1373 0.930 . S
H1386 C1374 0.956 . S
H1387 C1374 0.961 . S
H1388 C1374 0.961 . S
H1389 C1375 0.958 . S
H1390 C1375 0.961 . S
H1391 C1375 0.960 . S
C1392 C1393 1.391 . S
C1392 C1394 1.394 . S
C1392 H1408 0.931 . S
C1393 C1392 1.391 . S
C1393 C1397 1.376 . S
C1394 C1392 1.394 . S
C1394 C1395 1.369 . S
C1394 C1398 1.531 . S
C1395 C1394 1.369 . S
C1395 C1396 1.410 . S
C1395 C1403 1.503 . S
C1396 C1395 1.410 . S
C1396 C1397 1.392 . S
C1396 C1399 1.511 . S
C1397 C1393 1.376 . S
C1397 C1396 1.392 . S
C1397 H1409 0.929 . S
C1398 C1394 1.531 . S
C1398 H1410 0.960 . S
C1398 H1411 0.962 . S
C1398 H1412 0.960 . S
C1399 C1396 1.511 . S
C1399 H1413 0.961 . S
C1399 H1414 0.961 . S
C1399 H1415 0.961 . S
C1400 C1401 1.370 . S
C1400 C1402 1.363 . S
C1400 H1416 0.931 . S
C1401 C1400 1.370 . S
C1401 C1405 1.408 . S
C1402 C1400 1.363 . S
C1402 C1403 1.370 . S
C1402 C1406 1.524 . S
C1403 C1395 1.503 . S
C1403 C1402 1.370 . S
C1403 C1404 1.403 . S
C1404 C1403 1.403 . S
C1404 C1405 1.404 . S
C1404 C1407 1.539 . S
C1405 C1401 1.408 . S
C1405 C1404 1.404 . S
C1405 H1417 0.930 . S
C1406 C1402 1.524 . S
C1406 H1418 0.956 . S
C1406 H1419 0.961 . S
C1406 H1420 0.961 . S
C1407 C1404 1.539 . S
C1407 H1421 0.958 . S
C1407 H1422 0.961 . S
C1407 H1423 0.960 . S
H1408 C1392 0.931 . S
H1409 C1397 0.929 . S
H1410 C1398 0.960 . S
H1411 C1398 0.962 . S
H1412 C1398 0.960 . S
H1413 C1399 0.961 . S
H1414 C1399 0.961 . S
H1415 C1399 0.961 . S
H1416 C1400 0.931 . S
H1417 C1405 0.930 . S
H1418 C1406 0.956 . S
H1419 C1406 0.961 . S
H1420 C1406 0.961 . S
H1421 C1407 0.958 . S
H1422 C1407 0.961 . S
H1423 C1407 0.960 . S
C1424 C1425 1.391 . S
C1424 C1426 1.394 . S
C1424 H1440 0.931 . S
C1425 C1424 1.391 . S
C1425 C1429 1.376 . S
C1426 C1424 1.394 . S
C1426 C1427 1.369 . S
C1426 C1430 1.531 . S
C1427 C1426 1.369 . S
C1427 C1428 1.410 . S
C1427 C1435 1.503 . S
C1428 C1427 1.410 . S
C1428 C1429 1.392 . S
C1428 C1431 1.511 . S
C1429 C1425 1.376 . S
C1429 C1428 1.392 . S
C1429 H1441 0.929 . S
C1430 C1426 1.531 . S
C1430 H1442 0.960 . S
C1430 H1443 0.962 . S
C1430 H1444 0.960 . S
C1431 C1428 1.511 . S
C1431 H1445 0.961 . S
C1431 H1446 0.961 . S
C1431 H1447 0.961 . S
C1432 C1433 1.370 . S
C1432 C1434 1.363 . S
C1432 H1448 0.931 . S
C1433 C1432 1.370 . S
C1433 C1437 1.408 . S
C1434 C1432 1.363 . S
C1434 C1435 1.370 . S
C1434 C1438 1.524 . S
C1435 C1427 1.503 . S
C1435 C1434 1.370 . S
C1435 C1436 1.403 . S
C1436 C1435 1.403 . S
C1436 C1437 1.404 . S
C1436 C1439 1.539 . S
C1437 C1433 1.408 . S
C1437 C1436 1.404 . S
C1437 H1449 0.930 . S
C1438 C1434 1.524 . S
C1438 H1450 0.956 . S
C1438 H1451 0.961 . S
C1438 H1452 0.961 . S
C1439 C1436 1.539 . S
C1439 H1453 0.958 . S
C1439 H1454 0.961 . S
C1439 H1455 0.960 . S
H1440 C1424 0.931 . S
H1441 C1429 0.929 . S
H1442 C1430 0.960 . S
H1443 C1430 0.962 . S
H1444 C1430 0.960 . S
H1445 C1431 0.961 . S
H1446 C1431 0.961 . S
H1447 C1431 0.961 . S
H1448 C1432 0.931 . S
H1449 C1437 0.930 . S
H1450 C1438 0.956 . S
H1451 C1438 0.961 . S
H1452 C1438 0.961 . S
H1453 C1439 0.958 . S
H1454 C1439 0.961 . S
H1455 C1439 0.960 . S
C1456 C1457 1.391 . S
C1456 C1458 1.394 . S
C1456 H1472 0.931 . S
C1457 C1456 1.391 . S
C1457 C1461 1.376 . S
C1458 C1456 1.394 . S
C1458 C1459 1.369 . S
C1458 C1462 1.531 . S
C1459 C1458 1.369 . S
C1459 C1460 1.410 . S
C1459 C1467 1.503 . S
C1460 C1459 1.410 . S
C1460 C1461 1.392 . S
C1460 C1463 1.511 . S
C1461 C1457 1.376 . S
C1461 C1460 1.392 . S
C1461 H1473 0.929 . S
C1462 C1458 1.531 . S
C1462 H1474 0.960 . S
C1462 H1475 0.962 . S
C1462 H1476 0.960 . S
C1463 C1460 1.511 . S
C1463 H1477 0.961 . S
C1463 H1478 0.961 . S
C1463 H1479 0.961 . S
C1464 C1465 1.370 . S
C1464 C1466 1.363 . S
C1464 H1480 0.931 . S
C1465 C1464 1.370 . S
C1465 C1469 1.408 . S
C1466 C1464 1.363 . S
C1466 C1467 1.370 . S
C1466 C1470 1.524 . S
C1467 C1459 1.503 . S
C1467 C1466 1.370 . S
C1467 C1468 1.403 . S
C1468 C1467 1.403 . S
C1468 C1469 1.404 . S
C1468 C1471 1.539 . S
C1469 C1465 1.408 . S
C1469 C1468 1.404 . S
C1469 H1481 0.930 . S
C1470 C1466 1.524 . S
C1470 H1482 0.956 . S
C1470 H1483 0.961 . S
C1470 H1484 0.961 . S
C1471 C1468 1.539 . S
C1471 H1485 0.958 . S
C1471 H1486 0.961 . S
C1471 H1487 0.960 . S
H1472 C1456 0.931 . S
H1473 C1461 0.929 . S
H1474 C1462 0.960 . S
H1475 C1462 0.962 . S
H1476 C1462 0.960 . S
H1477 C1463 0.961 . S
H1478 C1463 0.961 . S
H1479 C1463 0.961 . S
H1480 C1464 0.931 . S
H1481 C1469 0.930 . S
H1482 C1470 0.956 . S
H1483 C1470 0.961 . S
H1484 C1470 0.961 . S
H1485 C1471 0.958 . S
H1486 C1471 0.961 . S
H1487 C1471 0.960 . S
C1488 C1489 1.391 . S
C1488 C1490 1.394 . S
C1488 H1504 0.931 . S
C1489 C1488 1.391 . S
C1489 C1493 1.376 . S
C1490 C1488 1.394 . S
C1490 C1491 1.369 . S
C1490 C1494 1.531 . S
C1491 C1490 1.369 . S
C1491 C1492 1.410 . S
C1491 C1499 1.503 . S
C1492 C1491 1.410 . S
C1492 C1493 1.392 . S
C1492 C1495 1.511 . S
C1493 C1489 1.376 . S
C1493 C1492 1.392 . S
C1493 H1505 0.929 . S
C1494 C1490 1.531 . S
C1494 H1506 0.960 . S
C1494 H1507 0.962 . S
C1494 H1508 0.960 . S
C1495 C1492 1.511 . S
C1495 H1509 0.961 . S
C1495 H1510 0.961 . S
C1495 H1511 0.961 . S
C1496 C1497 1.370 . S
C1496 C1498 1.363 . S
C1496 H1512 0.931 . S
C1497 C1496 1.370 . S
C1497 C1501 1.408 . S
C1498 C1496 1.363 . S
C1498 C1499 1.370 . S
C1498 C1502 1.524 . S
C1499 C1491 1.503 . S
C1499 C1498 1.370 . S
C1499 C1500 1.403 . S
C1500 C1499 1.403 . S
C1500 C1501 1.404 . S
C1500 C1503 1.539 . S
C1501 C1497 1.408 . S
C1501 C1500 1.404 . S
C1501 H1513 0.930 . S
C1502 C1498 1.524 . S
C1502 H1514 0.956 . S
C1502 H1515 0.961 . S
C1502 H1516 0.961 . S
C1503 C1500 1.539 . S
C1503 H1517 0.958 . S
C1503 H1518 0.961 . S
C1503 H1519 0.960 . S
H1504 C1488 0.931 . S
H1505 C1493 0.929 . S
H1506 C1494 0.960 . S
H1507 C1494 0.962 . S
H1508 C1494 0.960 . S
H1509 C1495 0.961 . S
H1510 C1495 0.961 . S
H1511 C1495 0.961 . S
H1512 C1496 0.931 . S
H1513 C1501 0.930 . S
H1514 C1502 0.956 . S
H1515 C1502 0.961 . S
H1516 C1502 0.961 . S
H1517 C1503 0.958 . S
H1518 C1503 0.961 . S
H1519 C1503 0.960 . S
C1520 C1521 1.391 . S
C1520 C1522 1.394 . S
C1520 H1536 0.931 . S
C1521 C1520 1.391 . S
C1521 C1525 1.376 . S
C1522 C1520 1.394 . S
C1522 C1523 1.369 . S
C1522 C1526 1.531 . S
C1523 C1522 1.369 . S
C1523 C1524 1.410 . S
C1523 C1531 1.503 . S
C1524 C1523 1.410 . S
C1524 C1525 1.392 . S
C1524 C1527 1.511 . S
C1525 C1521 1.376 . S
C1525 C1524 1.392 . S
C1525 H1537 0.929 . S
C1526 C1522 1.531 . S
C1526 H1538 0.960 . S
C1526 H1539 0.962 . S
C1526 H1540 0.960 . S
C1527 C1524 1.511 . S
C1527 H1541 0.961 . S
C1527 H1542 0.961 . S
C1527 H1543 0.961 . S
C1528 C1529 1.370 . S
C1528 C1530 1.363 . S
C1528 H1544 0.931 . S
C1529 C1528 1.370 . S
C1529 C1533 1.408 . S
C1530 C1528 1.363 . S
C1530 C1531 1.370 . S
C1530 C1534 1.524 . S
C1531 C1523 1.503 . S
C1531 C1530 1.370 . S
C1531 C1532 1.403 . S
C1532 C1531 1.403 . S
C1532 C1533 1.404 . S
C1532 C1535 1.539 . S
C1533 C1529 1.408 . S
C1533 C1532 1.404 . S
C1533 H1545 0.930 . S
C1534 C1530 1.524 . S
C1534 H1546 0.956 . S
C1534 H1547 0.961 . S
C1534 H1548 0.961 . S
C1535 C1532 1.539 . S
C1535 H1549 0.958 . S
C1535 H1550 0.961 . S
C1535 H1551 0.960 . S
H1536 C1520 0.931 . S
H1537 C1525 0.929 . S
H1538 C1526 0.960 . S
H1539 C1526 0.962 . S
H1540 C1526 0.960 . S
H1541 C1527 0.961 . S
H1542 C1527 0.961 . S
H1543 C1527 0.961 . S
H1544 C1528 0.931 . S
H1545 C1533 0.930 . S
H1546 C1534 0.956 . S
H1547 C1534 0.961 . S
H1548 C1534 0.961 . S
H1549 C1535 0.958 . S
H1550 C1535 0.961 . S
H1551 C1535 0.960 . S
C1552 C1553 1.391 . S
C1552 C1554 1.394 . S
C1552 H1568 0.931 . S
C1553 C1552 1.391 . S
C1553 C1557 1.376 . S
C1554 C1552 1.394 . S
C1554 C1555 1.369 . S
C1554 C1558 1.531 . S
C1555 C1554 1.369 . S
C1555 C1556 1.410 . S
C1555 C1563 1.503 . S
C1556 C1555 1.410 . S
C1556 C1557 1.392 . S
C1556 C1559 1.511 . S
C1557 C1553 1.376 . S
C1557 C1556 1.392 . S
C1557 H1569 0.929 . S
C1558 C1554 1.531 . S
C1558 H1570 0.960 . S
C1558 H1571 0.962 . S
C1558 H1572 0.960 . S
C1559 C1556 1.511 . S
C1559 H1573 0.961 . S
C1559 H1574 0.961 . S
C1559 H1575 0.961 . S
C1560 C1561 1.370 . S
C1560 C1562 1.363 . S
C1560 H1576 0.931 . S
C1561 C1560 1.370 . S
C1561 C1565 1.408 . S
C1562 C1560 1.363 . S
C1562 C1563 1.370 . S
C1562 C1566 1.524 . S
C1563 C1555 1.503 . S
C1563 C1562 1.370 . S
C1563 C1564 1.403 . S
C1564 C1563 1.403 . S
C1564 C1565 1.404 . S
C1564 C1567 1.539 . S
C1565 C1561 1.408 . S
C1565 C1564 1.404 . S
C1565 H1577 0.930 . S
C1566 C1562 1.524 . S
C1566 H1578 0.956 . S
C1566 H1579 0.961 . S
C1566 H1580 0.961 . S
C1567 C1564 1.539 . S
C1567 H1581 0.958 . S
C1567 H1582 0.961 . S
C1567 H1583 0.960 . S
H1568 C1552 0.931 . S
H1569 C1557 0.929 . S
H1570 C1558 0.960 . S
H1571 C1558 0.962 . S
H1572 C1558 0.960 . S
H1573 C1559 0.961 . S
H1574 C1559 0.961 . S
H1575 C1559 0.961 . S
H1576 C1560 0.931 . S
H1577 C1565 0.930 . S
H1578 C1566 0.956 . S
H1579 C1566 0.961 . S
H1580 C1566 0.961 . S
H1581 C1567 0.958 . S
H1582 C1567 0.961 . S
H1583 C1567 0.960 . S
C1584 C1585 1.391 . S
C1584 C1586 1.394 . S
C1584 H1600 0.931 . S
C1585 C1584 1.391 . S
C1585 C1589 1.376 . S
C1586 C1584 1.394 . S
C1586 C1587 1.369 . S
C1586 C1590 1.531 . S
C1587 C1586 1.369 . S
C1587 C1588 1.410 . S
C1587 C1595 1.503 . S
C1588 C1587 1.410 . S
C1588 C1589 1.392 . S
C1588 C1591 1.511 . S
C1589 C1585 1.376 . S
C1589 C1588 1.392 . S
C1589 H1601 0.929 . S
C1590 C1586 1.531 . S
C1590 H1602 0.960 . S
C1590 H1603 0.962 . S
C1590 H1604 0.960 . S
C1591 C1588 1.511 . S
C1591 H1605 0.961 . S
C1591 H1606 0.961 . S
C1591 H1607 0.961 . S
C1592 C1593 1.370 . S
C1592 C1594 1.363 . S
C1592 H1608 0.931 . S
C1593 C1592 1.370 . S
C1593 C1597 1.408 . S
C1594 C1592 1.363 . S
C1594 C1595 1.370 . S
C1594 C1598 1.524 . S
C1595 C1587 1.503 . S
C1595 C1594 1.370 . S
C1595 C1596 1.403 . S
C1596 C1595 1.403 . S
C1596 C1597 1.404 . S
C1596 C1599 1.539 . S
C1597 C1593 1.408 . S
C1597 C1596 1.404 . S
C1597 H1609 0.930 . S
C1598 C1594 1.524 . S
C1598 H1610 0.956 . S
C1598 H1611 0.961 . S
C1598 H1612 0.961 . S
C1599 C1596 1.539 . S
C1599 H1613 0.958 . S
C1599 H1614 0.961 . S
C1599 H1615 0.960 . S
H1600 C1584 0.931 . S
H1601 C1589 0.929 . S
H1602 C1590 0.960 . S
H1603 C1590 0.962 . S
H1604 C1590 0.960 . S
H1605 C1591 0.961 . S
H1606 C1591 0.961 . S
H1607 C1591 0.961 . S
H1608 C1592 0.931 . S
H1609 C1597 0.930 . S
H1610 C1598 0.956 . S
H1611 C1598 0.961 . S
H1612 C1598 0.961 . S
H1613 C1599 0.958 . S
H1614 C1599 0.961 . S
H1615 C1599 0.960 . S
C1616 C1617 1.391 . S
C1616 C1618 1.394 . S
C1616 H1632 0.931 . S
C1617 C1616 1.391 . S
C1617 C1621 1.376 . S
C1618 C1616 1.394 . S
C1618 C1619 1.369 . S
C1618 C1622 1.531 . S
C1619 C1618 1.369 . S
C1619 C1620 1.410 . S
C1619 C1627 1.503 . S
C1620 C1619 1.410 . S
C1620 C1621 1.392 . S
C1620 C1623 1.511 . S
C1621 C1617 1.376 . S
C1621 C1620 1.392 . S
C1621 H1633 0.929 . S
C1622 C1618 1.531 . S
C1622 H1634 0.960 . S
C1622 H1635 0.962 . S
C1622 H1636 0.960 . S
C1623 C1620 1.511 . S
C1623 H1637 0.961 . S
C1623 H1638 0.961 . S
C1623 H1639 0.961 . S
C1624 C1625 1.370 . S
C1624 C1626 1.363 . S
C1624 H1640 0.931 . S
C1625 C1624 1.370 . S
C1625 C1629 1.408 . S
C1626 C1624 1.363 . S
C1626 C1627 1.370 . S
C1626 C1630 1.524 . S
C1627 C1619 1.503 . S
C1627 C1626 1.370 . S
C1627 C1628 1.403 . S
C1628 C1627 1.403 . S
C1628 C1629 1.404 . S
C1628 C1631 1.539 . S
C1629 C1625 1.408 . S
C1629 C1628 1.404 . S
C1629 H1641 0.930 1_556 S
C1630 C1626 1.524 . S
C1630 H1642 0.956 . S
C1630 H1643 0.961 . S
C1630 H1644 0.961 . S
C1631 C1628 1.539 . S
C1631 H1645 0.958 . S
C1631 H1646 0.961 . S
C1631 H1647 0.960 . S
H1632 C1616 0.931 . S
H1633 C1621 0.929 . S
H1634 C1622 0.960 . S
H1635 C1622 0.962 . S
H1636 C1622 0.960 . S
H1637 C1623 0.961 . S
H1638 C1623 0.961 . S
H1639 C1623 0.961 . S
H1640 C1624 0.931 . S
H1641 C1629 0.930 1_554 S
H1642 C1630 0.956 . S
H1643 C1630 0.961 . S
H1644 C1630 0.961 . S
H1645 C1631 0.958 . S
H1646 C1631 0.961 . S
H1647 C1631 0.960 . S
C1648 C1649 1.391 . S
C1648 C1650 1.394 . S
C1648 H1664 0.931 . S
C1649 C1648 1.391 . S
C1649 C1653 1.376 . S
C1650 C1648 1.394 . S
C1650 C1651 1.369 . S
C1650 C1654 1.531 . S
C1651 C1650 1.369 . S
C1651 C1652 1.410 . S
C1651 C1659 1.503 . S
C1652 C1651 1.410 . S
C1652 C1653 1.392 . S
C1652 C1655 1.511 . S
C1653 C1649 1.376 . S
C1653 C1652 1.392 . S
C1653 H1665 0.929 . S
C1654 C1650 1.531 . S
C1654 H1666 0.960 . S
C1654 H1667 0.962 . S
C1654 H1668 0.960 . S
C1655 C1652 1.511 . S
C1655 H1669 0.961 . S
C1655 H1670 0.961 . S
C1655 H1671 0.961 . S
C1656 C1657 1.370 . S
C1656 C1658 1.363 . S
C1656 H1672 0.931 . S
C1657 C1656 1.370 . S
C1657 C1661 1.408 . S
C1658 C1656 1.363 . S
C1658 C1659 1.370 . S
C1658 C1662 1.524 . S
C1659 C1651 1.503 . S
C1659 C1658 1.370 . S
C1659 C1660 1.403 . S
C1660 C1659 1.403 . S
C1660 C1661 1.404 . S
C1660 C1663 1.539 . S
C1661 C1657 1.408 . S
C1661 C1660 1.404 . S
C1661 H1673 0.930 1_554 S
C1662 C1658 1.524 . S
C1662 H1674 0.956 . S
C1662 H1675 0.961 . S
C1662 H1676 0.961 . S
C1663 C1660 1.539 . S
C1663 H1677 0.958 . S
C1663 H1678 0.961 . S
C1663 H1679 0.960 . S
H1664 C1648 0.931 . S
H1665 C1653 0.929 . S
H1666 C1654 0.960 . S
H1667 C1654 0.962 . S
H1668 C1654 0.960 . S
H1669 C1655 0.961 . S
H1670 C1655 0.961 . S
H1671 C1655 0.961 . S
H1672 C1656 0.931 . S
H1673 C1661 0.930 1_556 S
H1674 C1662 0.956 . S
H1675 C1662 0.961 . S
H1676 C1662 0.961 . S
H1677 C1663 0.958 . S
H1678 C1663 0.961 . S
H1679 C1663 0.960 . S
C1680 C1681 1.391 . S
C1680 C1682 1.394 . S
C1680 H1696 0.931 . S
C1681 C1680 1.391 . S
C1681 C1685 1.376 . S
C1682 C1680 1.394 . S
C1682 C1683 1.369 . S
C1682 C1686 1.531 . S
C1683 C1682 1.369 . S
C1683 C1684 1.410 . S
C1683 C1691 1.503 . S
C1684 C1683 1.410 . S
C1684 C1685 1.392 . S
C1684 C1687 1.511 . S
C1685 C1681 1.376 . S
C1685 C1684 1.392 . S
C1685 H1697 0.929 . S
C1686 C1682 1.531 . S
C1686 H1698 0.960 . S
C1686 H1699 0.962 . S
C1686 H1700 0.960 . S
C1687 C1684 1.511 . S
C1687 H1701 0.961 . S
C1687 H1702 0.961 . S
C1687 H1703 0.961 . S
C1688 C1689 1.370 . S
C1688 C1690 1.363 . S
C1688 H1704 0.931 . S
C1689 C1688 1.370 . S
C1689 C1693 1.408 . S
C1690 C1688 1.363 . S
C1690 C1691 1.370 . S
C1690 C1694 1.524 . S
C1691 C1683 1.503 . S
C1691 C1690 1.370 . S
C1691 C1692 1.403 . S
C1692 C1691 1.403 . S
C1692 C1693 1.404 . S
C1692 C1695 1.539 . S
C1693 C1689 1.408 . S
C1693 C1692 1.404 . S
C1693 H1705 0.930 . S
C1694 C1690 1.524 . S
C1694 H1706 0.956 . S
C1694 H1707 0.961 . S
C1694 H1708 0.961 . S
C1695 C1692 1.539 . S
C1695 H1709 0.958 . S
C1695 H1710 0.961 . S
C1695 H1711 0.960 . S
H1696 C1680 0.931 . S
H1697 C1685 0.929 . S
H1698 C1686 0.960 . S
H1699 C1686 0.962 . S
H1700 C1686 0.960 . S
H1701 C1687 0.961 . S
H1702 C1687 0.961 . S
H1703 C1687 0.961 . S
H1704 C1688 0.931 . S
H1705 C1693 0.930 . S
H1706 C1694 0.956 . S
H1707 C1694 0.961 . S
H1708 C1694 0.961 . S
H1709 C1695 0.958 . S
H1710 C1695 0.961 . S
H1711 C1695 0.960 . S
C1712 C1713 1.391 . S
C1712 C1714 1.394 . S
C1712 H1728 0.931 . S
C1713 C1712 1.391 . S
C1713 C1717 1.376 . S
C1714 C1712 1.394 . S
C1714 C1715 1.369 . S
C1714 C1718 1.531 . S
C1715 C1714 1.369 . S
C1715 C1716 1.410 . S
C1715 C1723 1.503 . S
C1716 C1715 1.410 . S
C1716 C1717 1.392 . S
C1716 C1719 1.511 . S
C1717 C1713 1.376 . S
C1717 C1716 1.392 . S
C1717 H1729 0.929 . S
C1718 C1714 1.531 . S
C1718 H1730 0.960 . S
C1718 H1731 0.962 . S
C1718 H1732 0.960 . S
C1719 C1716 1.511 . S
C1719 H1733 0.961 . S
C1719 H1734 0.961 . S
C1719 H1735 0.961 . S
C1720 C1721 1.370 . S
C1720 C1722 1.363 . S
C1720 H1736 0.931 . S
C1721 C1720 1.370 . S
C1721 C1725 1.408 . S
C1722 C1720 1.363 . S
C1722 C1723 1.370 . S
C1722 C1726 1.524 . S
C1723 C1715 1.503 . S
C1723 C1722 1.370 . S
C1723 C1724 1.403 . S
C1724 C1723 1.403 . S
C1724 C1725 1.404 . S
C1724 C1727 1.539 . S
C1725 C1721 1.408 . S
C1725 C1724 1.404 . S
C1725 H1737 0.930 . S
C1726 C1722 1.524 . S
C1726 H1738 0.956 . S
C1726 H1739 0.961 . S
C1726 H1740 0.961 . S
C1727 C1724 1.539 . S
C1727 H1741 0.958 . S
C1727 H1742 0.961 . S
C1727 H1743 0.960 . S
H1728 C1712 0.931 . S
H1729 C1717 0.929 . S
H1730 C1718 0.960 . S
H1731 C1718 0.962 . S
H1732 C1718 0.960 . S
H1733 C1719 0.961 . S
H1734 C1719 0.961 . S
H1735 C1719 0.961 . S
H1736 C1720 0.931 . S
H1737 C1725 0.930 . S
H1738 C1726 0.956 . S
H1739 C1726 0.961 . S
H1740 C1726 0.961 . S
H1741 C1727 0.958 . S
H1742 C1727 0.961 . S
H1743 C1727 0.960 . S
C1744 C1745 1.391 . S
C1744 C1746 1.394 . S
C1744 H1760 0.931 . S
C1745 C1744 1.391 . S
C1745 C1749 1.376 . S
C1746 C1744 1.394 . S
C1746 C1747 1.369 . S
C1746 C1750 1.531 . S
C1747 C1746 1.369 . S
C1747 C1748 1.410 . S
C1747 C1755 1.503 . S
C1748 C1747 1.410 . S
C1748 C1749 1.392 . S
C1748 C1751 1.511 . S
C1749 C1745 1.376 . S
C1749 C1748 1.392 . S
C1749 H1761 0.929 . S
C1750 C1746 1.531 . S
C1750 H1762 0.960 . S
C1750 H1763 0.962 . S
C1750 H1764 0.960 . S
C1751 C1748 1.511 . S
C1751 H1765 0.961 . S
C1751 H1766 0.961 . S
C1751 H1767 0.961 . S
C1752 C1753 1.370 . S
C1752 C1754 1.363 . S
C1752 H1768 0.931 . S
C1753 C1752 1.370 . S
C1753 C1757 1.408 . S
C1754 C1752 1.363 . S
C1754 C1755 1.370 . S
C1754 C1758 1.524 . S
C1755 C1747 1.503 . S
C1755 C1754 1.370 . S
C1755 C1756 1.403 . S
C1756 C1755 1.403 . S
C1756 C1757 1.404 . S
C1756 C1759 1.539 . S
C1757 C1753 1.408 . S
C1757 C1756 1.404 . S
C1757 H1769 0.930 . S
C1758 C1754 1.524 . S
C1758 H1770 0.956 . S
C1758 H1771 0.961 . S
C1758 H1772 0.961 . S
C1759 C1756 1.539 . S
C1759 H1773 0.958 . S
C1759 H1774 0.961 . S
C1759 H1775 0.960 . S
H1760 C1744 0.931 . S
H1761 C1749 0.929 . S
H1762 C1750 0.960 . S
H1763 C1750 0.962 . S
H1764 C1750 0.960 . S
H1765 C1751 0.961 . S
H1766 C1751 0.961 . S
H1767 C1751 0.961 . S
H1768 C1752 0.931 . S
H1769 C1757 0.930 . S
H1770 C1758 0.956 . S
H1771 C1758 0.961 . S
H1772 C1758 0.961 . S
H1773 C1759 0.958 . S
H1774 C1759 0.961 . S
H1775 C1759 0.960 . S
C1776 C1777 1.391 . S
C1776 C1778 1.394 . S
C1776 H1792 0.931 . S
C1777 C1776 1.391 . S
C1777 C1781 1.376 . S
C1778 C1776 1.394 . S
C1778 C1779 1.369 . S
C1778 C1782 1.531 . S
C1779 C1778 1.369 . S
C1779 C1780 1.410 . S
C1779 C1787 1.503 . S
C1780 C1779 1.410 . S
C1780 C1781 1.392 . S
C1780 C1783 1.511 . S
C1781 C1777 1.376 . S
C1781 C1780 1.392 . S
C1781 H1793 0.929 . S
C1782 C1778 1.531 . S
C1782 H1794 0.960 . S
C1782 H1795 0.962 . S
C1782 H1796 0.960 . S
C1783 C1780 1.511 . S
C1783 H1797 0.961 . S
C1783 H1798 0.961 . S
C1783 H1799 0.961 . S
C1784 C1785 1.370 . S
C1784 C1786 1.363 . S
C1784 H1800 0.931 . S
C1785 C1784 1.370 . S
C1785 C1789 1.408 . S
C1786 C1784 1.363 . S
C1786 C1787 1.370 . S
C1786 C1790 1.524 . S
C1787 C1779 1.503 . S
C1787 C1786 1.370 . S
C1787 C1788 1.403 . S
C1788 C1787 1.403 . S
C1788 C1789 1.404 . S
C1788 C1791 1.539 . S
C1789 C1785 1.408 . S
C1789 C1788 1.404 . S
C1789 H1801 0.930 . S
C1790 C1786 1.524 . S
C1790 H1802 0.956 . S
C1790 H1803 0.961 . S
C1790 H1804 0.961 . S
C1791 C1788 1.539 . S
C1791 H1805 0.958 . S
C1791 H1806 0.961 . S
C1791 H1807 0.960 . S
H1792 C1776 0.931 . S
H1793 C1781 0.929 . S
H1794 C1782 0.960 . S
H1795 C1782 0.962 . S
H1796 C1782 0.960 . S
H1797 C1783 0.961 . S
H1798 C1783 0.961 . S
H1799 C1783 0.961 . S
H1800 C1784 0.931 . S
H1801 C1789 0.930 . S
H1802 C1790 0.956 . S
H1803 C1790 0.961 . S
H1804 C1790 0.961 . S
H1805 C1791 0.958 . S
H1806 C1791 0.961 . S
H1807 C1791 0.960 . S
C1808 C1809 1.391 . S
C1808 C1810 1.394 . S
C1808 H1824 0.931 . S
C1809 C1808 1.391 . S
C1809 C1813 1.376 . S
C1810 C1808 1.394 . S
C1810 C1811 1.369 . S
C1810 C1814 1.531 . S
C1811 C1810 1.369 . S
C1811 C1812 1.410 . S
C1811 C1819 1.503 . S
C1812 C1811 1.410 . S
C1812 C1813 1.392 . S
C1812 C1815 1.511 . S
C1813 C1809 1.376 . S
C1813 C1812 1.392 . S
C1813 H1825 0.929 . S
C1814 C1810 1.531 . S
C1814 H1826 0.960 . S
C1814 H1827 0.962 . S
C1814 H1828 0.960 . S
C1815 C1812 1.511 . S
C1815 H1829 0.961 . S
C1815 H1830 0.961 . S
C1815 H1831 0.961 . S
C1816 C1817 1.370 . S
C1816 C1818 1.363 . S
C1816 H1832 0.931 . S
C1817 C1816 1.370 . S
C1817 C1821 1.408 . S
C1818 C1816 1.363 . S
C1818 C1819 1.370 . S
C1818 C1822 1.524 . S
C1819 C1811 1.503 . S
C1819 C1818 1.370 . S
C1819 C1820 1.403 . S
C1820 C1819 1.403 . S
C1820 C1821 1.404 . S
C1820 C1823 1.539 . S
C1821 C1817 1.408 . S
C1821 C1820 1.404 . S
C1821 H1833 0.930 . S
C1822 C1818 1.524 . S
C1822 H1834 0.956 . S
C1822 H1835 0.961 . S
C1822 H1836 0.961 . S
C1823 C1820 1.539 . S
C1823 H1837 0.958 . S
C1823 H1838 0.961 . S
C1823 H1839 0.960 . S
H1824 C1808 0.931 . S
H1825 C1813 0.929 . S
H1826 C1814 0.960 . S
H1827 C1814 0.962 . S
H1828 C1814 0.960 . S
H1829 C1815 0.961 . S
H1830 C1815 0.961 . S
H1831 C1815 0.961 . S
H1832 C1816 0.931 . S
H1833 C1821 0.930 . S
H1834 C1822 0.956 . S
H1835 C1822 0.961 . S
H1836 C1822 0.961 . S
H1837 C1823 0.958 . S
H1838 C1823 0.961 . S
H1839 C1823 0.960 . S
C1840 C1841 1.391 . S
C1840 C1842 1.394 . S
C1840 H1856 0.931 . S
C1841 C1840 1.391 . S
C1841 C1845 1.376 . S
C1842 C1840 1.394 . S
C1842 C1843 1.369 . S
C1842 C1846 1.531 . S
C1843 C1842 1.369 . S
C1843 C1844 1.410 . S
C1843 C1851 1.503 . S
C1844 C1843 1.410 . S
C1844 C1845 1.392 . S
C1844 C1847 1.511 . S
C1845 C1841 1.376 . S
C1845 C1844 1.392 . S
C1845 H1857 0.929 . S
C1846 C1842 1.531 . S
C1846 H1858 0.960 . S
C1846 H1859 0.962 . S
C1846 H1860 0.960 . S
C1847 C1844 1.511 . S
C1847 H1861 0.961 . S
C1847 H1862 0.961 . S
C1847 H1863 0.961 . S
C1848 C1849 1.370 . S
C1848 C1850 1.363 . S
C1848 H1864 0.931 . S
C1849 C1848 1.370 . S
C1849 C1853 1.408 . S
C1850 C1848 1.363 . S
C1850 C1851 1.370 . S
C1850 C1854 1.524 . S
C1851 C1843 1.503 . S
C1851 C1850 1.370 . S
C1851 C1852 1.403 . S
C1852 C1851 1.403 . S
C1852 C1853 1.404 . S
C1852 C1855 1.539 . S
C1853 C1849 1.408 . S
C1853 C1852 1.404 . S
C1853 H1865 0.930 . S
C1854 C1850 1.524 . S
C1854 H1866 0.956 . S
C1854 H1867 0.961 . S
C1854 H1868 0.961 . S
C1855 C1852 1.539 . S
C1855 H1869 0.958 . S
C1855 H1870 0.961 . S
C1855 H1871 0.960 . S
H1856 C1840 0.931 . S
H1857 C1845 0.929 . S
H1858 C1846 0.960 . S
H1859 C1846 0.962 . S
H1860 C1846 0.960 . S
H1861 C1847 0.961 . S
H1862 C1847 0.961 . S
H1863 C1847 0.961 . S
H1864 C1848 0.931 . S
H1865 C1853 0.930 . S
H1866 C1854 0.956 . S
H1867 C1854 0.961 . S
H1868 C1854 0.961 . S
H1869 C1855 0.958 . S
H1870 C1855 0.961 . S
H1871 C1855 0.960 . S
C849 C612 1.690 . S
C857 C38 1.743 . S
C881 C91 1.734 . S
C889 C453 1.703 . S
C913 C144 1.744 . S
C921 C506 1.717 . S
C945 C559 1.713 . S
C953 C197 1.745 . S
C977 C250 1.740 . S
C985 C294 1.721 1_554 S
C1009 C303 1.739 . S
C1017 C347 1.699 1_556 S
C1041 C400 1.728 1_554 S
C1049 C356 1.743 . S
C1073 C241 1.699 1_556 S
C1081 C409 1.746 . S
C1105 C188 1.728 . S
C1113 C462 1.743 . S
C1137 C515 1.745 . S
C1145 C29 1.707 . S
C1169 C82 1.699 . S
C1177 C568 1.742 . S
C1201 C621 1.735 . S
C1209 C135 1.703 . S
C1233 C674 1.736 . S
C1241 C718 1.706 . S
C1265 C727 1.734 . S
C1273 C771 1.714 . S
C1297 C824 1.689 . S
C1305 C780 1.744 . S
C1329 C665 1.683 . S
C1337 C833 1.745 . S
C1361 C251 1.393 . S
C1369 C39 1.419 . S
C1393 C92 1.423 . S
C1401 C304 1.415 . S
C1425 C145 1.394 . S
C1433 C357 1.418 . S
C1457 C410 1.435 . S
C1465 C198 1.407 . S
C1489 C463 1.423 . S
C1497 C675 1.408 . S
C1521 C728 1.388 . S
C1529 C516 1.419 . S
C1553 C569 1.429 . S
C1561 C781 1.408 . S
C1585 C834 1.423 . S
C1593 C622 1.405 . S
C1617 C764 2.123 . S
C1625 C22 2.136 1_556 S
C1649 C817 2.110 . S
C1657 C75 2.128 1_554 S
C1681 C128 2.114 1_556 S
C1689 C658 2.138 . S
C1713 C711 2.121 . S
C1721 C181 2.125 1_554 S
C1745 C552 2.109 . S
C1753 C234 2.134 . S
C1777 C605 2.128 . S
C1785 C287 2.116 . S
C1809 C340 2.139 . S
C1817 C446 2.129 . S
C1841 C499 2.100 . S
C1849 C393 2.130 . S
