# Generated by pormake.
# Topology xfa, (7)-cn, num edge types: 1
# Building blocks:
#     Node 0, Type 0, BuildingBlock: HICVOG_clean_sbu_0, # of connection points: 7
#     Node 1, Type 0, BuildingBlock: HICVOG_clean_sbu_0, # of connection points: 7
#     Node 2, Type 0, BuildingBlock: HICVOG_clean_sbu_0, # of connection points: 7
#     Node 3, Type 0, BuildingBlock: HICVOG_clean_sbu_0, # of connection points: 7
#     Node 4, Type 0, BuildingBlock: HICVOG_clean_sbu_0, # of connection points: 7
#     Node 5, Type 0, BuildingBlock: HICVOG_clean_sbu_0, # of connection points: 7
#     Node 6, Type 0, BuildingBlock: HICVOG_clean_sbu_0, # of connection points: 7
#     Node 7, Type 0, BuildingBlock: HICVOG_clean_sbu_0, # of connection points: 7
#     Edge 8, Type (0, 0), BuildingBlock: ZUJKAS_clean_linker_0, # of connection points: 2
#     Edge 9, Type (0, 0), BuildingBlock: ZUJKAS_clean_linker_0, # of connection points: 2
#     Edge 10, Type (0, 0), BuildingBlock: ZUJKAS_clean_linker_0, # of connection points: 2
#     Edge 11, Type (0, 0), BuildingBlock: ZUJKAS_clean_linker_0, # of connection points: 2
#     Edge 12, Type (0, 0), BuildingBlock: ZUJKAS_clean_linker_0, # of connection points: 2
#     Edge 13, Type (0, 0), BuildingBlock: ZUJKAS_clean_linker_0, # of connection points: 2
#     Edge 14, Type (0, 0), BuildingBlock: ZUJKAS_clean_linker_0, # of connection points: 2
#     Edge 15, Type (0, 0), BuildingBlock: ZUJKAS_clean_linker_0, # of connection points: 2
#     Edge 16, Type (0, 0), BuildingBlock: ZUJKAS_clean_linker_0, # of connection points: 2
#     Edge 17, Type (0, 0), BuildingBlock: ZUJKAS_clean_linker_0, # of connection points: 2
#     Edge 18, Type (0, 0), BuildingBlock: ZUJKAS_clean_linker_0, # of connection points: 2
#     Edge 19, Type (0, 0), BuildingBlock: ZUJKAS_clean_linker_0, # of connection points: 2
#     Edge 20, Type (0, 0), BuildingBlock: ZUJKAS_clean_linker_0, # of connection points: 2
#     Edge 21, Type (0, 0), BuildingBlock: ZUJKAS_clean_linker_0, # of connection points: 2
#     Edge 22, Type (0, 0), BuildingBlock: ZUJKAS_clean_linker_0, # of connection points: 2
#     Edge 23, Type (0, 0), BuildingBlock: ZUJKAS_clean_linker_0, # of connection points: 2
#     Edge 24, Type (0, 0), BuildingBlock: ZUJKAS_clean_linker_0, # of connection points: 2
#     Edge 25, Type (0, 0), BuildingBlock: ZUJKAS_clean_linker_0, # of connection points: 2
#     Edge 26, Type (0, 0), BuildingBlock: ZUJKAS_clean_linker_0, # of connection points: 2
#     Edge 27, Type (0, 0), BuildingBlock: ZUJKAS_clean_linker_0, # of connection points: 2
#     Edge 28, Type (0, 0), BuildingBlock: ZUJKAS_clean_linker_0, # of connection points: 2
#     Edge 29, Type (0, 0), BuildingBlock: ZUJKAS_clean_linker_0, # of connection points: 2
#     Edge 30, Type (0, 0), BuildingBlock: ZUJKAS_clean_linker_0, # of connection points: 2
#     Edge 31, Type (0, 0), BuildingBlock: ZUJKAS_clean_linker_0, # of connection points: 2
#     Edge 32, Type (0, 0), BuildingBlock: ZUJKAS_clean_linker_0, # of connection points: 2
#     Edge 33, Type (0, 0), BuildingBlock: ZUJKAS_clean_linker_0, # of connection points: 2
#     Edge 34, Type (0, 0), BuildingBlock: ZUJKAS_clean_linker_0, # of connection points: 2
#     Edge 35, Type (0, 0), BuildingBlock: ZUJKAS_clean_linker_0, # of connection points: 2
# Relax obj value: 0.155
# Max RMSD: 0.217
# Mean RMSD: 0.206
data_MOF--net-xfa--node1-HICVOG_clean_sbu_0--edge1-ZUJKAS_clean_linker_0
_symmetry_space_group_name_H-M    P1
_symmetry_Int_Tables_number       1
_symmetry_cell_setting            triclinic
loop_
_symmetry_equiv_pos_as_xyz
'x, y, z'
_cell_length_a     57.841982
_cell_length_b     57.839814
_cell_length_c     21.998446
_cell_angle_alpha  90.236233
_cell_angle_beta   89.816652
_cell_angle_gamma 90.024421
loop_
_atom_site_label
_atom_site_type_symbol
_atom_site_fract_x
_atom_site_fract_y
_atom_site_fract_z
_atom_type_partial_charge
Zn0 Zn 0.0898 0.27873 0.33059 0.0
C1 C 0.11385 0.22778 0.22115 0.0
N2 N 0.13344 0.23154 0.25194 0.0
C3 C 0.12676 0.24669 0.29504 0.0
N4 N 0.10405 0.25202 0.29059 0.0
N5 N 0.09588 0.2397 0.24449 0.0
C6 C 0.07172 0.24537 0.09946 0.0
O7 O 0.07874 0.26399 0.12848 0.0
O8 O 0.09044 0.27492 0.42185 0.0
Zn9 Zn 0.06426 0.23395 0.22162 0.0
N10 N 0.10853 0.30521 0.30643 0.0
C11 C 0.12648 0.32298 0.2212 0.0
C12 C 0.11357 0.3051 0.24609 0.0
C13 C 0.11592 0.32276 0.34345 0.0
N14 N 0.13373 0.34046 0.25758 0.0
C15 C 0.12892 0.34115 0.31825 0.0
O16 O 0.04271 0.26044 0.23886 0.0
C17 C 0.0405 0.27903 0.26948 0.0
O18 O 0.0566 0.28643 0.30409 0.0
H19 H 0.10743 0.29118 0.21741 0.0
H20 H 0.11129 0.32257 0.39111 0.0
C21 C 0.0337 0.19529 0.25188 0.0
C22 C 0.02632 0.17677 0.28889 0.0
C23 C 0.05892 0.18287 0.35252 0.0
C24 C 0.06604 0.20112 0.31608 0.0
N25 N 0.05339 0.20704 0.26653 0.0
N26 N 0.03933 0.17124 0.33825 0.0
H27 H 0.02373 0.20074 0.21297 0.0
C28 C 0.07838 0.25912 0.44659 0.0
O29 O 0.06587 0.24549 0.4119 0.0
O30 O 0.06387 0.22854 0.1304 0.0
H31 H 0.08147 0.21064 0.32773 0.0
H32 H 0.13061 0.32307 0.17321 0.0
H33 H 0.06881 0.17805 0.39216 0.0
Zn34 Zn 0.29613 0.56488 0.47796 0.0
C35 C 0.28228 0.62787 0.5477 0.0
N36 N 0.29603 0.63478 0.50187 0.0
C37 C 0.30038 0.61494 0.47217 0.0
N38 N 0.29004 0.59668 0.49868 0.0
N39 N 0.27818 0.60487 0.54563 0.0
C40 C 0.27116 0.5759 0.704 0.0
O41 O 0.27969 0.55937 0.66949 0.0
O42 O 0.3027 0.56369 0.38731 0.0
Zn43 Zn 0.25256 0.59043 0.58915 0.0
N44 N 0.32215 0.55447 0.52669 0.0
C45 C 0.34244 0.55919 0.61967 0.0
C46 C 0.32491 0.56576 0.58047 0.0
C47 C 0.33638 0.53667 0.51035 0.0
N48 N 0.35653 0.54147 0.60374 0.0
C49 C 0.35425 0.52973 0.55022 0.0
O50 O 0.24413 0.55744 0.56162 0.0
C51 C 0.25087 0.54152 0.52522 0.0
O52 O 0.26922 0.54365 0.49364 0.0
H53 H 0.31345 0.5797 0.59313 0.0
H54 H 0.33359 0.52828 0.46706 0.0
C55 C 0.21026 0.61895 0.60818 0.0
C56 C 0.19251 0.63323 0.58518 0.0
C57 C 0.20683 0.62695 0.48508 0.0
C58 C 0.22424 0.61292 0.50783 0.0
N59 N 0.22584 0.60932 0.56866 0.0
N60 N 0.19153 0.63678 0.52408 0.0
H61 H 0.21198 0.61597 0.65649 0.0
C62 C 0.28562 0.56982 0.3548 0.0
O63 O 0.26616 0.57544 0.38209 0.0
O64 O 0.25849 0.59128 0.67984 0.0
H65 H 0.23666 0.60507 0.47724 0.0
H66 H 0.34479 0.56801 0.6627 0.0
H67 H 0.20551 0.63009 0.43677 0.0
Zn68 Zn 0.93915 0.75207 0.83276 0.0
C69 C 0.91524 0.79956 0.71516 0.0
N70 N 0.89524 0.79529 0.74405 0.0
C71 C 0.9019 0.78182 0.79043 0.0
N72 N 0.92492 0.77777 0.78947 0.0
N73 N 0.93337 0.78944 0.74269 0.0
C74 C 0.96073 0.78392 0.6003 0.0
O75 O 0.95496 0.76471 0.62822 0.0
O76 O 0.93758 0.7575 0.92363 0.0
Zn77 Zn 0.96526 0.79555 0.72302 0.0
N78 N 0.92109 0.725 0.80941 0.0
C79 C 0.90437 0.70607 0.72405 0.0
C80 C 0.91661 0.72446 0.74883 0.0
C81 C 0.91384 0.70758 0.84673 0.0
N82 N 0.89729 0.68869 0.76071 0.0
C83 C 0.9016 0.68863 0.82157 0.0
O84 O 0.98673 0.76917 0.74088 0.0
C85 C 0.98878 0.75104 0.773 0.0
O86 O 0.97255 0.74421 0.80806 0.0
H87 H 0.92272 0.73824 0.71983 0.0
H88 H 0.91807 0.70824 0.89456 0.0
C89 C 0.99517 0.83407 0.75779 0.0
C90 C 1.00224 0.8521 0.79702 0.0
C91 C 0.9691 0.84534 0.85859 0.0
C92 C 0.9623 0.82752 0.82003 0.0
N93 N 0.97538 0.82215 0.77048 0.0
N94 N 0.98885 0.85708 0.84639 0.0
H95 H 1.00551 0.82908 0.71884 0.0
C96 C 0.95206 0.7712 0.94808 0.0
O97 O 0.96761 0.78129 0.9135 0.0
O98 O 0.96685 0.80125 0.63226 0.0
H99 H 0.94681 0.81782 0.83015 0.0
H100 H 0.90069 0.70547 0.67589 0.0
H101 H 0.9589 0.8497 0.8983 0.0
Zn102 Zn 0.7779 0.4392 0.07731 0.0
C103 C 0.72928 0.41601 0.9603 0.0
N104 N 0.73339 0.39585 0.98793 0.0
C105 C 0.74718 0.40204 0.0343 0.0
N106 N 0.75166 0.42505 0.0344 0.0
N107 N 0.73987 0.43385 0.98832 0.0
C108 C 0.7445 0.45908 0.84588 0.0
O109 O 0.76284 0.45094 0.87366 0.0
O110 O 0.77323 0.43952 0.16869 0.0
Zn111 Zn 0.73414 0.4659 0.96892 0.0
N112 N 0.8044 0.41998 0.05571 0.0
C113 C 0.82301 0.40164 0.9719 0.0
C114 C 0.80567 0.4158 0.99498 0.0
C115 C 0.82023 0.41077 0.09478 0.0
N116 N 0.83859 0.39225 0.01047 0.0
C117 C 0.83794 0.39635 0.07147 0.0
O118 O 0.76104 0.48694 0.98582 0.0
C119 C 0.77965 0.48846 0.01626 0.0
O120 O 0.78649 0.47205 0.05037 0.0
H121 H 0.79306 0.42333 0.96473 0.0
H122 H 0.81874 0.41421 0.14302 0.0
C123 C 0.69509 0.49563 0.0039 0.0
C124 C 0.67707 0.5025 0.04356 0.0
C125 C 0.68531 0.47023 0.10645 0.0
C126 C 0.70304 0.46359 0.0674 0.0
N127 N 0.70771 0.47634 0.01704 0.0
N128 N 0.67287 0.48944 0.09378 0.0
H129 H 0.69946 0.50567 0.96411 0.0
C130 C 0.75885 0.45335 0.19331 0.0
O131 O 0.74713 0.46755 0.15861 0.0
O132 O 0.72823 0.46761 0.87801 0.0
H133 H 0.7132 0.44847 0.07773 0.0
H134 H 0.82409 0.39805 0.92368 0.0
H135 H 0.68153 0.46028 0.14682 0.0
Zn136 Zn 0.59041 0.25154 0.42231 0.0
C137 C 0.6113 0.30374 0.53294 0.0
N138 N 0.63144 0.30069 0.50388 0.0
C139 C 0.62596 0.28527 0.46036 0.0
N140 N 0.6034 0.27895 0.46306 0.0
N141 N 0.59417 0.29105 0.50837 0.0
C142 C 0.5631 0.28384 0.6526 0.0
O143 O 0.56602 0.2638 0.62532 0.0
O144 O 0.58992 0.25587 0.33087 0.0
Zn145 Zn 0.5622 0.29518 0.52936 0.0
N146 N 0.61113 0.22639 0.44424 0.0
C147 C 0.63171 0.21046 0.52756 0.0
C148 C 0.61651 0.22672 0.50431 0.0
C149 C 0.62011 0.20994 0.4061 0.0
N150 N 0.64083 0.19426 0.48989 0.0
C151 C 0.63554 0.19327 0.42964 0.0
O152 O 0.54265 0.26713 0.5142 0.0
C153 C 0.5416 0.24803 0.4855 0.0
O154 O 0.55806 0.24126 0.45098 0.0
H155 H 0.60908 0.23974 0.53392 0.0
H156 H 0.61563 0.21011 0.3584 0.0
C157 C 0.53222 0.3341 0.49681 0.0
C158 C 0.52319 0.35007 0.45472 0.0
C159 C 0.55054 0.33709 0.38136 0.0
C160 C 0.55922 0.32123 0.42275 0.0
N161 N 0.54995 0.31996 0.47952 0.0
N162 N 0.53274 0.35097 0.39811 0.0
H163 H 0.52479 0.33235 0.54176 0.0
C164 C 0.57189 0.26305 0.30388 0.0
O165 O 0.55305 0.26697 0.33579 0.0
O166 O 0.56059 0.30184 0.62014 0.0
H167 H 0.57297 0.30965 0.40925 0.0
H168 H 0.63626 0.21066 0.57522 0.0
H169 H 0.55768 0.33816 0.33595 0.0
Zn170 Zn 0.23359 0.0628 0.78118 0.0
C171 C 0.24729 0.12562 0.71094 0.0
N172 N 0.23379 0.13265 0.7573 0.0
C173 C 0.22956 0.1129 0.78705 0.0
N174 N 0.23971 0.09455 0.76008 0.0
N175 N 0.25136 0.1026 0.71273 0.0
C176 C 0.25703 0.07784 0.55539 0.0
O177 O 0.24349 0.06523 0.59003 0.0
O178 O 0.22834 0.06172 0.87221 0.0
Zn179 Zn 0.27753 0.08817 0.67095 0.0
N180 N 0.20653 0.05253 0.73605 0.0
C181 C 0.18192 0.05886 0.65128 0.0
C182 C 0.20036 0.06564 0.68757 0.0
C183 C 0.19482 0.03275 0.74989 0.0
N184 N 0.17031 0.03917 0.66476 0.0
C185 C 0.17607 0.02576 0.71315 0.0
O186 O 0.28521 0.05481 0.69596 0.0
C187 C 0.27805 0.03873 0.73089 0.0
O188 O 0.25978 0.04105 0.76271 0.0
H189 H 0.20982 0.08119 0.67669 0.0
H190 H 0.20045 0.02245 0.78799 0.0
C191 C 0.32073 0.11568 0.65773 0.0
C192 C 0.33861 0.12929 0.68315 0.0
C193 C 0.32241 0.12339 0.78139 0.0
C194 C 0.30493 0.11 0.75625 0.0
N195 N 0.30422 0.10651 0.69519 0.0
N196 N 0.33869 0.13268 0.74447 0.0
H197 H 0.31967 0.11277 0.60921 0.0
C198 C 0.24495 0.06997 0.90328 0.0
O199 O 0.26337 0.07755 0.87445 0.0
O200 O 0.27317 0.08948 0.58 0.0
H201 H 0.29178 0.10251 0.78517 0.0
H202 H 0.17691 0.06909 0.61244 0.0
H203 H 0.32306 0.12642 0.82992 0.0
Zn204 Zn 0.43908 0.77668 0.92318 0.0
C205 C 0.4161 0.72866 0.04129 0.0
N206 N 0.39593 0.73285 0.01351 0.0
C207 C 0.40223 0.74673 0.96753 0.0
N208 N 0.4252 0.75109 0.96773 0.0
N209 N 0.43399 0.73919 0.01346 0.0
C210 C 0.46635 0.74452 0.15554 0.0
O211 O 0.46503 0.76496 0.13 0.0
O212 O 0.43797 0.77007 0.83291 0.0
Zn213 Zn 0.46597 0.73334 0.03139 0.0
N214 N 0.41989 0.80334 0.94357 0.0
C215 C 0.40183 0.82252 0.02695 0.0
C216 C 0.41597 0.80507 0.00435 0.0
C217 C 0.41046 0.81886 0.90398 0.0
N218 N 0.39224 0.83777 0.98789 0.0
C219 C 0.39609 0.83669 0.92683 0.0
O220 O 0.48688 0.76035 0.01421 0.0
C221 C 0.48848 0.77889 0.98349 0.0
O222 O 0.47211 0.78564 0.94899 0.0
H223 H 0.42368 0.79272 0.03502 0.0
H224 H 0.41372 0.81704 0.85573 0.0
C225 C 0.49395 0.69301 0.99832 0.0
C226 C 0.50059 0.67483 0.95888 0.0
C227 C 0.47134 0.68642 0.88966 0.0
C228 C 0.46502 0.70439 0.92842 0.0
N229 N 0.47626 0.7073 0.98208 0.0
N230 N 0.48884 0.67216 0.90572 0.0
H231 H 0.50245 0.69575 0.04146 0.0
C232 C 0.45537 0.76141 0.80574 0.0
O233 O 0.47427 0.75725 0.83683 0.0
O234 O 0.46771 0.72669 0.12166 0.0
H235 H 0.45126 0.71601 0.91568 0.0
H236 H 0.39845 0.82395 0.07521 0.0
H237 H 0.46247 0.68387 0.84692 0.0
Zn238 Zn 0.75235 0.93911 0.16958 0.0
C239 C 0.80128 0.91459 0.28254 0.0
N240 N 0.79674 0.89477 0.25311 0.0
C241 C 0.78273 0.90168 0.2081 0.0
N242 N 0.77863 0.92469 0.21036 0.0
N243 N 0.79079 0.93287 0.25667 0.0
C244 C 0.78597 0.95745 0.40049 0.0
O245 O 0.76748 0.95 0.37187 0.0
O246 O 0.75662 0.93813 0.07829 0.0
Zn247 Zn 0.79693 0.96463 0.27822 0.0
N248 N 0.72561 0.92069 0.19361 0.0
C249 C 0.7075 0.90325 0.27908 0.0
C250 C 0.72554 0.91589 0.25401 0.0
C251 C 0.70805 0.91336 0.15674 0.0
N252 N 0.69001 0.89606 0.24286 0.0
C253 C 0.68947 0.90066 0.18217 0.0
O254 O 0.7704 0.98607 0.26204 0.0
C255 C 0.75189 0.98834 0.23153 0.0
O256 O 0.74458 0.97231 0.19642 0.0
H257 H 0.73944 0.92202 0.28261 0.0
H258 H 0.70838 0.91783 0.10906 0.0
C259 C 0.83513 0.9952 0.2438 0.0
C260 C 0.85321 1.00237 0.20488 0.0
C261 C 0.84718 0.96888 0.14402 0.0
C262 C 0.82933 0.96196 0.18227 0.0
N263 N 0.82355 0.97517 0.23129 0.0
N264 N 0.85857 0.98885 0.15601 0.0
H265 H 0.82987 1.00561 0.28238 0.0
C266 C 0.77222 0.9504 0.05337 0.0
O267 O 0.78537 0.9635 0.08784 0.0
O268 O 0.8026 0.96564 0.3692 0.0
H269 H 0.81996 0.94625 0.17235 0.0
H270 H 0.70727 0.8993 0.3271 0.0
H271 H 0.85185 0.95857 0.10472 0.0
H272 H 0.13822 0.38411 0.27543 0.0
H273 H 0.15582 0.41664 0.32789 0.0
H274 H 0.15656 0.3778 0.4947 0.0
H275 H 0.1395 0.34452 0.44175 0.0
H276 H 0.14244 0.44313 0.42414 0.0
H277 H 0.22407 0.39664 0.47691 0.0
H278 H 0.20277 0.38502 0.42547 0.0
H279 H 0.19802 0.38384 0.50614 0.0
C280 C 0.14206 0.38232 0.32335 0.0
C281 C 0.13746 0.36146 0.35399 0.0
C282 C 0.15205 0.4011 0.35343 0.0
C283 C 0.15786 0.39967 0.41511 0.0
C284 C 0.1526 0.37922 0.44679 0.0
H285 H 0.21066 0.52894 0.58462 0.0
H286 H 0.18716 0.4942 0.56749 0.0
C287 C 0.14254 0.36026 0.41653 0.0
C288 C 0.17008 0.41953 0.44441 0.0
H289 H 0.22218 0.43591 0.50382 0.0
C290 C 0.15977 0.44152 0.44235 0.0
C291 C 0.19281 0.41748 0.46756 0.0
C292 C 0.20523 0.39455 0.46889 0.0
C293 C 0.17177 0.46154 0.46069 0.0
C294 C 0.19462 0.45953 0.483 0.0
C295 C 0.20464 0.43745 0.48704 0.0
C296 C 0.20922 0.4802 0.49669 0.0
C297 C 0.16029 0.48476 0.45288 0.0
C298 C 0.22983 0.48364 0.46412 0.0
C299 C 0.24338 0.5033 0.47418 0.0
C300 C 0.23671 0.52015 0.51723 0.0
C301 C 0.21628 0.51646 0.55085 0.0
C302 C 0.20273 0.49664 0.54085 0.0
H303 H 0.14483 0.48368 0.42314 0.0
H304 H 0.15463 0.49135 0.49796 0.0
H305 H 0.17254 0.49748 0.4331 0.0
H306 H 0.23527 0.47125 0.42988 0.0
H307 H 0.25897 0.50541 0.44738 0.0
H308 H 0.02678 0.76088 0.7035 0.0
H309 H 0.06204 0.73835 0.69138 0.0
H310 H 0.03628 0.68794 0.81856 0.0
H311 H 1.00049 0.71033 0.83047 0.0
H312 H 0.0949 0.72544 0.7763 0.0
H313 H 0.05373 0.64802 0.67143 0.0
H314 H 0.03873 0.67523 0.67941 0.0
H315 H 0.04255 0.65686 0.74422 0.0
C316 C 0.02847 0.74501 0.72906 0.0
C317 C 1.0106 0.73742 0.76779 0.0
C318 C 0.04876 0.73214 0.7221 0.0
C319 C 0.05177 0.71128 0.75342 0.0
C320 C 0.03421 0.70376 0.79302 0.0
H321 H 0.1697 0.61631 0.68652 0.0
H322 H 0.13664 0.63424 0.73951 0.0
C323 C 1.01379 0.71667 0.80005 0.0
C324 C 0.07338 0.69767 0.74374 0.0
H325 H 0.09419 0.64763 0.68067 0.0
C326 C 0.09471 0.70831 0.75606 0.0
C327 C 0.0732 0.67523 0.71764 0.0
C328 C 0.05088 0.66313 0.70189 0.0
C329 C 0.11576 0.69752 0.74114 0.0
C330 C 0.11557 0.67559 0.71241 0.0
C331 C 0.09432 0.66442 0.70284 0.0
C332 C 0.13687 0.66537 0.68527 0.0
C333 C 0.13808 0.70992 0.75511 0.0
C334 C 0.14804 0.67692 0.63757 0.0
C335 C 0.16672 0.66675 0.60733 0.0
C336 C 0.17483 0.64477 0.62408 0.0
C337 C 0.16413 0.63342 0.67318 0.0
C338 C 0.14514 0.64357 0.70316 0.0
H339 H 0.13586 0.72252 0.79294 0.0
H340 H 0.15194 0.69751 0.76733 0.0
H341 H 0.14376 0.71962 0.7143 0.0
H342 H 0.14178 0.69355 0.62219 0.0
H343 H 0.17452 0.67593 0.56963 0.0
H344 H 0.81999 0.50004 0.0758 0.0
H345 H 0.84329 0.53516 0.06318 0.0
H346 H 0.79518 0.56001 0.92921 0.0
H347 H 0.77168 0.52548 0.94227 0.0
H348 H 0.8656 0.55118 0.96478 0.0
H349 H 0.80121 0.6164 0.03534 0.0
H350 H 0.7973 0.58593 0.04967 0.0
H351 H 0.7898 0.59799 0.97694 0.0
C352 C 0.81424 0.51309 0.04409 0.0
C353 C 0.79382 0.50989 0.01036 0.0
C354 C 0.8276 0.53318 0.03693 0.0
C355 C 0.82077 0.55054 0.99619 0.0
C356 C 0.8005 0.54728 0.96229 0.0
H357 H 0.89495 0.64494 0.78009 0.0
H358 H 0.87796 0.61222 0.83249 0.0
C359 C 0.78714 0.52733 0.96952 0.0
C360 C 0.83537 0.57146 0.98592 0.0
H361 H 0.8324 0.63022 0.97147 0.0
C362 C 0.85844 0.56848 0.9673 0.0
C363 C 0.82633 0.59417 0.99044 0.0
C364 C 0.80238 0.59884 0.01487 0.0
C365 C 0.87212 0.58738 0.9493 0.0
C366 C 0.86238 0.60985 0.94858 0.0
C367 C 0.83985 0.61301 0.97109 0.0
C368 C 0.87431 0.62975 0.91904 0.0
C369 C 0.89682 0.58297 0.93033 0.0
C370 C 0.87761 0.6509 0.94969 0.0
C371 C 0.88724 0.67 0.91935 0.0
C372 C 0.8935 0.66833 0.85754 0.0
C373 C 0.89038 0.64699 0.8276 0.0
C374 C 0.88086 0.62806 0.85777 0.0
H375 H 0.904 0.56764 0.95396 0.0
H376 H 0.89741 0.57936 0.88077 0.0
H377 H 0.90803 0.59812 0.94008 0.0
H378 H 0.87243 0.65273 0.99682 0.0
H379 H 0.88895 0.68619 0.94374 0.0
H380 H 0.02879 0.32105 0.32132 0.0
H381 H 0.99292 0.34308 0.30718 0.0
H382 H 0.96723 0.28981 0.18756 0.0
H383 H 1.00254 0.26769 0.20185 0.0
H384 H 0.97423 0.3607 0.20138 0.0
H385 H 0.91309 0.29828 0.30276 0.0
H386 H 0.94394 0.29636 0.31402 0.0
H387 H 0.93098 0.28498 0.24583 0.0
C388 C 0.01541 0.31392 0.29247 0.0
C389 C 0.01862 0.29247 0.26305 0.0
C390 C 0.99491 0.32656 0.28438 0.0
C391 C 0.97712 0.31793 0.24722 0.0
C392 C 0.98037 0.29661 0.21771 0.0
H393 H 0.85746 0.35429 0.05405 0.0
H394 H 0.89028 0.33732 0.10687 0.0
C395 C 1.00076 0.28402 0.22567 0.0
C396 C 0.95556 0.33144 0.23645 0.0
H397 H 0.89666 0.32628 0.23437 0.0
C398 C 0.95725 0.35341 0.20978 0.0
C399 C 0.93334 0.32201 0.24766 0.0
C400 C 0.9302 0.29921 0.27974 0.0
C401 C 0.93745 0.36548 0.19048 0.0
C402 C 0.91534 0.35542 0.19863 0.0
C403 C 0.91359 0.33397 0.22796 0.0
C404 C 0.8942 0.36552 0.17081 0.0
C405 C 0.94035 0.38829 0.15835 0.0
C406 C 0.885 0.38683 0.19017 0.0
C407 C 0.86595 0.39661 0.16009 0.0
C408 C 0.85593 0.38526 0.10991 0.0
C409 C 0.86481 0.36358 0.09225 0.0
C410 C 0.88358 0.3538 0.12249 0.0
H411 H 0.95879 0.39233 0.14885 0.0
H412 H 0.93073 0.38817 0.11474 0.0
H413 H 0.9331 0.40234 0.18712 0.0
H414 H 0.89279 0.39608 0.2278 0.0
H415 H 0.85974 0.41342 0.17452 0.0
H416 H 0.67793 0.17447 0.44527 0.0
H417 H 0.69411 0.1401 0.39718 0.0
H418 H 0.63386 0.13422 0.28335 0.0
H419 H 0.61737 0.16895 0.33163 0.0
H420 H 0.67157 0.09666 0.40253 0.0
H421 H 0.68907 0.12345 0.16386 0.0
H422 H 0.68562 0.14422 0.22479 0.0
H423 H 0.66084 0.12948 0.19484 0.0
C424 C 0.66818 0.16614 0.40936 0.0
C425 C 0.64631 0.17453 0.39246 0.0
C426 C 0.67751 0.14645 0.38185 0.0
C427 C 0.66526 0.13455 0.33659 0.0
C428 C 0.64378 0.1433 0.3176 0.0
H429 H 0.71 1.00017 0.18007 0.0
H430 H 0.68679 0.03498 0.2006 0.0
C431 C 0.6344 0.16321 0.34517 0.0
C432 C 0.67446 0.11205 0.31389 0.0
H433 H 0.69939 0.0854 0.19093 0.0
C434 C 0.67743 0.09415 0.35608 0.0
C435 C 0.68194 0.10868 0.25318 0.0
C436 C 0.67939 0.12745 0.20633 0.0
C437 C 0.68832 0.07333 0.33986 0.0
C438 C 0.6968 0.07034 0.27998 0.0
C439 C 0.69294 0.08777 0.23687 0.0
C440 C 0.71129 0.04999 0.26344 0.0
C441 C 0.69102 0.05478 0.38736 0.0
C442 C 0.73295 0.04715 0.29085 0.0
C443 C 0.74621 0.02743 0.27928 0.0
C444 C 0.73817 1.00997 0.23982 0.0
C445 C 0.71672 1.01318 0.21083 0.0
C446 C 0.70344 0.03308 0.22241 0.0
H447 H 0.67851 0.05705 0.42535 0.0
H448 H 0.68859 0.03731 0.3672 0.0
H449 H 0.70873 0.05568 0.40651 0.0
H450 H 0.73949 0.06012 0.32207 0.0
H451 H 0.76266 0.02576 0.30224 0.0
H452 H 0.36026 0.16978 0.70725 0.0
H453 H 0.39457 0.18577 0.65885 0.0
H454 H 0.39499 0.12953 0.52968 0.0
H455 H 0.36028 0.11324 0.57822 0.0
H456 H 0.43687 0.16163 0.65192 0.0
H457 H 0.40587 0.1878 0.42282 0.0
H458 H 0.38625 0.183 0.4856 0.0
H459 H 0.39944 0.15887 0.4476 0.0
C460 C 0.36739 0.16088 0.66802 0.0
C461 C 0.35744 0.14018 0.64676 0.0
C462 C 0.38705 0.1701 0.64035 0.0
C463 C 0.39739 0.15892 0.59057 0.0
C464 C 0.38713 0.13865 0.56753 0.0
H465 H 0.53023 0.20665 0.42943 0.0
H466 H 0.49611 0.1823 0.44916 0.0
C467 C 0.36724 0.12938 0.59526 0.0
C468 C 0.41978 0.16791 0.56675 0.0
H469 H 0.44468 0.19619 0.44687 0.0
C470 C 0.43863 0.16892 0.60678 0.0
C471 C 0.42217 0.17728 0.50772 0.0
C472 C 0.40239 0.17689 0.46327 0.0
C473 C 0.45942 0.17978 0.59035 0.0
C474 C 0.46144 0.19018 0.53253 0.0
C475 C 0.44307 0.18822 0.49121 0.0
C476 C 0.48156 0.20512 0.51736 0.0
C477 C 0.47894 0.18062 0.63566 0.0
C478 C 0.48448 0.22612 0.54841 0.0
C479 C 0.50376 0.24001 0.53728 0.0
C480 C 0.52074 0.23327 0.4947 0.0
C481 C 0.51758 0.21236 0.46266 0.0
C482 C 0.49808 0.19845 0.47373 0.0
H483 H 0.47701 0.16713 0.67115 0.0
H484 H 0.4959 0.1783 0.61262 0.0
H485 H 0.47899 0.19776 0.65853 0.0
H486 H 0.47185 0.23169 0.5819 0.0
H487 H 0.50545 0.25596 0.56285 0.0
H488 H 0.31982 0.02708 0.67769 0.0
H489 H 0.3419 0.99118 0.69084 0.0
H490 H 0.28904 0.96526 0.81116 0.0
H491 H 0.26687 1.00059 0.79787 0.0
H492 H 0.35985 0.97246 0.79629 0.0
H493 H 0.29735 0.91123 0.69532 0.0
H494 H 0.29534 0.94208 0.68429 0.0
H495 H 0.28414 0.92905 0.75254 0.0
C496 C 0.31278 1.01363 0.70645 0.0
C497 C 0.29144 0.01679 0.73642 0.0
C498 C 0.32546 0.99312 0.71399 0.0
C499 C 0.31696 0.97527 0.75109 0.0
C500 C 0.29573 0.97846 0.78105 0.0
H501 H 0.35387 0.85588 0.94379 0.0
H502 H 0.33671 0.88851 0.89062 0.0
C503 C 0.28311 0.99885 0.77367 0.0
C504 C 0.33056 0.95373 0.76146 0.0
H505 H 0.32553 0.89482 0.76332 0.0
C506 C 0.35258 0.95547 0.78788 0.0
C507 C 0.32116 0.9315 0.75024 0.0
C508 C 0.2983 0.92832 0.71844 0.0
C509 C 0.36473 0.93568 0.80696 0.0
C510 C 0.3547 0.91356 0.79882 0.0
C511 C 0.3332 0.91177 0.76971 0.0
C512 C 0.36486 0.89245 0.82662 0.0
C513 C 0.38759 0.93864 0.83888 0.0
C514 C 0.3862 0.88329 0.80729 0.0
C515 C 0.39608 0.86435 0.83757 0.0
C516 C 0.38481 0.8544 0.88791 0.0
C517 C 0.36309 0.86318 0.90545 0.0
C518 C 0.35321 0.88184 0.87502 0.0
H519 H 0.39161 0.95708 0.84839 0.0
H520 H 0.38756 0.92902 0.88247 0.0
H521 H 0.4016 0.93141 0.80997 0.0
H522 H 0.3954 0.89107 0.7696 0.0
H523 H 0.41293 0.8582 0.82325 0.0
H524 H 0.64641 0.89192 0.22568 0.0
H525 H 0.61375 0.8745 0.1738 0.0
H526 H 0.65258 0.87305 0.00623 0.0
H527 H 0.68602 0.88989 0.05864 0.0
H528 H 0.58732 0.88773 0.07858 0.0
H529 H 0.63334 0.80578 0.02383 0.0
H530 H 0.64517 0.82714 0.07495 0.0
H531 H 0.64617 0.83171 0.99426 0.0
C532 C 0.64819 0.88796 0.17772 0.0
C533 C 0.66909 0.89227 0.14672 0.0
C534 C 0.62932 0.87808 0.14797 0.0
C535 C 0.6307 0.87211 0.08625 0.0
C536 C 0.65119 0.87712 0.05418 0.0
H537 H 0.50054 0.81898 0.9233 0.0
H538 H 0.53534 0.8426 0.93819 0.0
C539 C 0.67025 0.88705 0.08414 0.0
C540 C 0.61076 0.85995 0.05739 0.0
H541 H 0.59401 0.80775 0.99867 0.0
C542 C 0.58881 0.87035 0.0603 0.0
C543 C 0.61265 0.83716 0.03411 0.0
C544 C 0.63553 0.82463 0.03187 0.0
C545 C 0.56869 0.85837 0.04288 0.0
C546 C 0.57055 0.83543 0.02057 0.0
C547 C 0.59258 0.82535 0.01548 0.0
C548 C 0.5498 0.8208 0.00824 0.0
C549 C 0.54554 0.86993 0.05177 0.0
C550 C 0.54659 0.80031 0.04114 0.0
C551 C 0.5269 0.78669 0.03233 0.0
C552 C 0.5098 0.79318 0.99026 0.0
C553 C 0.51322 0.81351 0.95636 0.0
C554 C 0.53308 0.82712 0.96508 0.0
H555 H 0.54678 0.88551 0.0813 0.0
H556 H 0.53875 0.87542 0.00698 0.0
H557 H 0.53288 0.8578 0.07232 0.0
H558 H 0.55918 0.79501 0.07466 0.0
H559 H 0.52499 0.77119 0.05935 0.0
H560 H 0.23648 0.13478 0.89309 0.0
H561 H 0.20787 0.14238 0.97242 0.0
H562 H 0.15867 0.09912 0.87845 0.0
H563 H 0.1876 0.09151 0.79856 0.0
H564 H 0.1422 0.14277 0.89971 0.0
H565 H 0.17789 0.10866 0.11315 0.0
H566 H 0.19962 0.12457 0.07275 0.0
H567 H 0.1876 0.09874 0.03939 0.0
C568 C 0.21983 0.12623 0.89065 0.0
C569 C 0.21427 0.11232 0.8405 0.0
C570 C 0.2035 0.13048 0.93609 0.0
C571 C 0.18116 0.12111 0.9319 0.0
C572 C 0.17588 0.10631 0.88299 0.0
H573 H 0.1002 0.18292 0.22855 0.0
H574 H 0.10945 0.15225 0.15473 0.0
C575 C 0.19241 0.10182 0.83766 0.0
C576 C 0.16285 0.12982 0.97359 0.0
H577 H 0.15407 0.14349 0.12285 0.0
C578 C 0.14438 0.14236 0.94864 0.0
C579 C 0.16532 0.12899 0.03748 0.0
C580 C 0.18356 0.11428 0.06722 0.0
C581 C 0.12978 0.15586 0.98558 0.0
C582 C 0.13403 0.15718 0.04873 0.0
C583 C 0.15101 0.14285 0.07425 0.0
C584 C 0.12363 0.17555 0.08749 0.0
C585 C 0.11054 0.16941 0.95644 0.0
C586 C 0.12792 0.19886 0.07357 0.0
C587 C 0.12261 0.21626 0.11549 0.0
C588 C 0.11272 0.21071 0.17176 0.0
C589 C 0.10718 0.18761 0.18455 0.0
C590 C 0.11264 0.17011 0.14269 0.0
H591 H 0.10475 0.1611 0.91349 0.0
H592 H 0.09549 0.1712 0.9876 0.0
H593 H 0.11693 0.18697 0.94538 0.0
H594 H 0.13695 0.20351 0.03219 0.0
H595 H 0.12757 0.23392 0.10555 0.0
H596 H 0.43712 0.68638 0.0453 0.0
H597 H 0.42883 0.65589 0.12017 0.0
H598 H 0.38815 0.70433 0.22493 0.0
H599 H 0.39643 0.73451 0.15069 0.0
H600 H 0.41346 0.67223 0.29686 0.0
H601 H 0.36199 0.63002 0.11325 0.0
H602 H 0.39235 0.63482 0.10027 0.0
H603 H 0.37304 0.65902 0.10541 0.0
C604 C 0.42723 0.69062 0.08571 0.0
C605 C 0.4175 0.71271 0.09287 0.0
C606 C 0.42228 0.67319 0.12799 0.0
C607 C 0.40753 0.67776 0.17755 0.0
C608 C 0.39952 0.70039 0.18705 0.0
H609 H 0.29542 0.63765 0.36712 0.0
H610 H 0.32541 0.64526 0.29142 0.0
C611 C 0.4043 0.71765 0.1448 0.0
C612 C 0.3977 0.65898 0.2155 0.0
H613 H 0.35447 0.61869 0.21306 0.0
C614 C 0.40108 0.65996 0.27859 0.0
C615 C 0.38143 0.64313 0.19133 0.0
C616 C 0.37678 0.6416 0.12394 0.0
C617 C 0.38735 0.64686 0.31849 0.0
C618 C 0.36997 0.63221 0.29446 0.0
C619 C 0.36789 0.62984 0.23122 0.0
C620 C 0.35101 0.62327 0.33349 0.0
C621 C 0.39016 0.65036 0.3861 0.0
C622 C 0.35505 0.60745 0.38064 0.0
C623 C 0.33773 0.60294 0.42382 0.0
C624 C 0.31627 0.61417 0.41996 0.0
C625 C 0.3118 0.62867 0.37053 0.0
C626 C 0.32893 0.63302 0.32738 0.0
H627 H 0.40301 0.66403 0.39705 0.0
H628 H 0.37335 0.65516 0.40715 0.0
H629 H 0.39599 0.63397 0.40711 0.0
H630 H 0.37191 0.59957 0.38582 0.0
H631 H 0.34164 0.592 0.46225 0.0
H632 H 0.9379 0.84094 0.70474 0.0
H633 H 0.9302 0.87067 0.62766 0.0
H634 H 0.8855 0.82304 0.53277 0.0
H635 H 0.89326 0.79355 0.60916 0.0
H636 H 0.91138 0.8529 0.45456 0.0
H637 H 0.86518 0.90016 0.64001 0.0
H638 H 0.89528 0.89355 0.65003 0.0
H639 H 0.87438 0.8706 0.64913 0.0
C640 C 0.92719 0.83664 0.66606 0.0
C641 C 0.91622 0.81503 0.66238 0.0
C642 C 0.92261 0.85367 0.62246 0.0
C643 C 0.90695 0.84918 0.57507 0.0
C644 C 0.8976 0.82691 0.56893 0.0
H645 H 0.79538 0.89299 0.38901 0.0
H646 H 0.82519 0.88454 0.46415 0.0
C647 C 0.90203 0.81006 0.6125 0.0
C648 C 0.89754 0.86793 0.53647 0.0
H649 H 0.85661 0.91054 0.54022 0.0
C650 C 0.89997 0.86604 0.47316 0.0
C651 C 0.88251 0.88493 0.56103 0.0
C652 C 0.87898 0.88752 0.62871 0.0
C653 C 0.88653 0.87953 0.43372 0.0
C654 C 0.87034 0.89539 0.45837 0.0
C655 C 0.86915 0.89848 0.52157 0.0
C656 C 0.85161 0.90516 0.42034 0.0
C657 C 0.88831 0.87533 0.3661 0.0
C658 C 0.85622 0.92056 0.37254 0.0
C659 C 0.83901 0.92558 0.32975 0.0
C660 C 0.81712 0.91526 0.3346 0.0
C661 C 0.81211 0.90127 0.38481 0.0
C662 C 0.82914 0.89644 0.42764 0.0
H663 H 0.90045 0.8611 0.35468 0.0
H664 H 0.87105 0.87099 0.34723 0.0
H665 H 0.89448 0.89127 0.34336 0.0
H666 H 0.8734 0.92762 0.36641 0.0
H667 H 0.84334 0.93609 0.29075 0.0
H668 H 0.62341 0.29698 0.64925 0.0
H669 H 0.63286 0.32717 0.72291 0.0
H670 H 0.60612 0.37884 0.6009 0.0
H671 H 0.59684 0.34833 0.52665 0.0
H672 H 0.65012 0.38754 0.63043 0.0
H673 H 0.6027 0.37008 0.84294 0.0
H674 H 0.61559 0.344 0.81461 0.0
H675 H 0.59365 0.35834 0.7706 0.0
C676 C 0.61854 0.31467 0.63956 0.0
C677 C 0.60905 0.3204 0.58309 0.0
C678 C 0.62393 0.33197 0.68166 0.0
C679 C 0.62002 0.35536 0.66789 0.0
C680 C 0.6091 0.36094 0.61283 0.0
H681 H 0.68743 0.43783 0.95352 0.0
H682 H 0.65766 0.43086 0.87582 0.0
C683 C 0.60361 0.34353 0.5707 0.0
C684 C 0.63094 0.37359 0.70618 0.0
H685 H 0.64102 0.38754 0.8546 0.0
C686 C 0.64764 0.38802 0.67931 0.0
C687 C 0.62753 0.37469 0.76984 0.0
C688 C 0.60869 0.36111 0.801 0.0
C689 C 0.66244 0.40176 0.71489 0.0
C690 C 0.66075 0.40074 0.77898 0.0
C691 C 0.6426 0.38811 0.80548 0.0
C692 C 0.67956 0.40934 0.81906 0.0
C693 C 0.68038 0.41649 0.68357 0.0
C694 C 0.70186 0.40009 0.81225 0.0
C695 C 0.71867 0.40399 0.85642 0.0
C696 C 0.71364 0.41742 0.90793 0.0
C697 C 0.69184 0.42789 0.91333 0.0
C698 C 0.67482 0.42377 0.86924 0.0
H699 H 0.67416 0.42233 0.63844 0.0
H700 H 0.68495 0.43189 0.71133 0.0
H701 H 0.69627 0.40611 0.67593 0.0
H702 H 0.70583 0.38846 0.77495 0.0
H703 H 0.73527 0.39544 0.85202 0.0
H704 H 0.05849 0.22426 0.51217 0.0
H705 H 0.05752 0.2199 0.62288 0.0
H706 H 0.09721 0.28253 0.64309 0.0
H707 H 0.09839 0.28703 0.53246 0.0
H708 H 0.09783 0.21885 0.7086 0.0
H709 H 0.03635 0.29132 0.74801 0.0
H710 H 0.03934 0.2771 0.67512 0.0
H711 H 0.06079 0.29746 0.69992 0.0
C712 C 0.06704 0.23711 0.54011 0.0
C713 C 0.07838 0.2561 0.51348 0.0
C714 C 0.06651 0.23454 0.60333 0.0
C715 C 0.07708 0.25101 0.64104 0.0
C716 C 0.08873 0.26977 0.61468 0.0
H717 H 0.08772 0.27883 0.02352 0.0
H718 H 0.08937 0.27824 0.91289 0.0
C719 C 0.08943 0.27227 0.55147 0.0
C720 C 0.07575 0.24876 0.70804 0.0
H721 H 0.05299 0.27426 0.83494 0.0
C722 C 0.08792 0.23083 0.73638 0.0
C723 C 0.06281 0.26445 0.74389 0.0
C724 C 0.0489 0.2836 0.71542 0.0
C725 C 0.08809 0.22863 0.80004 0.0
C726 C 0.07528 0.24445 0.83606 0.0
C727 C 0.0628 0.26213 0.80739 0.0
C728 C 0.07531 0.24375 0.90365 0.0
C729 C 0.10269 0.20998 0.82826 0.0
C730 C 0.06693 0.22447 0.93561 0.0
C731 C 0.066 0.22471 0.99936 0.0
C732 C 0.07325 0.24435 0.03215 0.0
C733 C 0.08187 0.26346 0.99988 0.0
C734 C 0.08284 0.26317 0.93647 0.0
H735 H 0.11536 0.20261 0.79544 0.0
H736 H 0.11223 0.21688 0.86811 0.0
H737 H 0.0913 0.19576 0.84399 0.0
H738 H 0.06066 0.20942 0.91131 0.0
H739 H 0.05934 0.20969 0.02284 0.0
H740 H 0.25029 0.57525 0.27494 0.0
H741 H 0.25219 0.57669 0.16431 0.0
H742 H 0.32625 0.56883 0.17082 0.0
H743 H 0.32454 0.5674 0.28254 0.0
H744 H 0.30846 0.60463 0.08726 0.0
H745 H 0.26664 0.51903 0.05619 0.0
H746 H 0.2514 0.53826 0.10659 0.0
H747 H 0.27959 0.52792 0.12714 0.0
C748 C 0.26703 0.57381 0.25308 0.0
C749 C 0.28724 0.5709 0.28759 0.0
C750 C 0.26806 0.57459 0.18974 0.0
C751 C 0.2893 0.57253 0.15935 0.0
C752 C 0.30966 0.57026 0.19348 0.0
H753 H 0.29525 0.54412 0.76997 0.0
H754 H 0.30238 0.54411 0.8794 0.0
C755 C 0.30864 0.56932 0.25719 0.0
C756 C 0.28986 0.57243 0.0919 0.0
H757 H 0.26933 0.5429 0.9687 0.0
C758 C 0.30012 0.59105 0.06117 0.0
C759 C 0.27917 0.55458 0.05802 0.0
C760 C 0.26874 0.53369 0.08851 0.0
C761 C 0.29922 0.59266 0.99737 0.0
C762 C 0.28758 0.5753 0.96372 0.0
C763 C 0.27807 0.55631 0.99449 0.0
C764 C 0.28474 0.57646 0.89664 0.0
C765 C 0.31078 0.61287 0.96658 0.0
C766 C 0.27243 0.59467 0.86978 0.0
C767 C 0.26825 0.5947 0.80709 0.0
C768 C 0.27619 0.57643 0.77011 0.0
C769 C 0.28882 0.55842 0.79706 0.0
C770 C 0.29294 0.55839 0.85966 0.0
H771 H 0.32412 0.62092 0.99613 0.0
H772 H 0.31902 0.60748 0.92312 0.0
H773 H 0.29759 0.62621 0.9563 0.0
H774 H 0.26554 0.60858 0.89751 0.0
H775 H 0.25854 0.60888 0.78779 0.0
H776 H 0.96506 0.82213 0.52692 0.0
H777 H 0.96303 0.82325 0.41541 0.0
H778 H 0.95106 0.74968 0.41097 0.0
H779 H 0.95329 0.74834 0.52153 0.0
H780 H 0.98606 0.76499 0.33063 0.0
H781 H 0.9051 0.81615 0.3065 0.0
H782 H 0.92701 0.82763 0.3561 0.0
H783 H 0.91246 0.80134 0.37598 0.0
C784 C 0.96203 0.80621 0.50209 0.0
C785 C 0.95947 0.78513 0.5331 0.0
C786 C 0.96068 0.80691 0.43846 0.0
C787 C 0.95669 0.78656 0.40495 0.0
C788 C 0.9541 0.76558 0.43591 0.0
H789 H 0.91993 0.75675 0.03177 0.0
H790 H 0.92098 0.76218 0.14236 0.0
C791 C 0.95538 0.76487 0.49921 0.0
C792 C 0.95593 0.78667 0.33749 0.0
H793 H 0.92417 0.80489 0.21594 0.0
C794 C 0.97261 0.77383 0.30552 0.0
C795 C 0.93822 0.79802 0.30495 0.0
C796 C 0.91952 0.81147 0.33734 0.0
C797 C 0.97205 0.77194 0.2419 0.0
C798 C 0.95443 0.78338 0.20927 0.0
C799 C 0.93772 0.79626 0.24113 0.0
C800 C 0.95293 0.78162 0.14207 0.0
C801 C 0.98997 0.75724 0.21012 0.0
C802 C 0.9703 0.79116 0.10526 0.0
C803 C 0.96976 0.78811 0.04218 0.0
C804 C 0.95186 0.77539 0.01466 0.0
C805 C 0.9341 0.76643 0.05156 0.0
C806 C 0.9346 0.7696 0.1147 0.0
H807 H 0.99939 0.74591 0.24233 0.0
H808 H 0.98183 0.74625 0.17462 0.0
H809 H 1.00278 0.76864 0.1875 0.0
H810 H 0.98445 0.80073 0.12545 0.0
H811 H 0.98363 0.79539 0.01515 0.0
H812 H 0.7829 0.42929 0.27942 0.0
H813 H 0.77715 0.43002 0.38976 0.0
H814 H 0.72039 0.47755 0.36874 0.0
H815 H 0.72602 0.47702 0.25835 0.0
H816 H 0.77826 0.47273 0.46375 0.0
H817 H 0.69518 0.42461 0.48248 0.0
H818 H 0.71404 0.42189 0.41717 0.0
H819 H 0.69672 0.44735 0.42695 0.0
C820 C 0.76911 0.43981 0.29816 0.0
C821 C 0.75499 0.45318 0.26003 0.0
C822 C 0.76583 0.44018 0.36122 0.0
C823 C 0.74821 0.45366 0.38731 0.0
C824 C 0.73389 0.46679 0.34943 0.0
H825 H 0.71113 0.47715 0.77053 0.0
H826 H 0.71077 0.47637 0.65876 0.0
C827 C 0.73725 0.46657 0.28637 0.0
C828 C 0.74576 0.45501 0.45439 0.0
H829 H 0.71073 0.43993 0.57329 0.0
C830 C 0.76351 0.46556 0.48773 0.0
C831 C 0.72634 0.44591 0.48538 0.0
C832 C 0.70698 0.43415 0.45148 0.0
C833 C 0.76244 0.4672 0.55134 0.0
C834 C 0.74337 0.45746 0.58269 0.0
C835 C 0.72535 0.44731 0.54925 0.0
C836 C 0.74252 0.45683 0.65019 0.0
C837 C 0.78167 0.47961 0.58432 0.0
C838 C 0.76004 0.44551 0.68236 0.0
C839 C 0.76039 0.44607 0.74576 0.0
C840 C 0.74306 0.45778 0.77864 0.0
C841 C 0.72489 0.46824 0.74651 0.0
C842 C 0.72463 0.46776 0.68272 0.0
H843 H 0.79089 0.49188 0.55397 0.0
H844 H 0.77497 0.48932 0.6243 0.0
H845 H 0.79444 0.46674 0.60053 0.0
H846 H 0.77368 0.43642 0.65831 0.0
H847 H 0.77443 0.43745 0.76893 0.0
H848 H 0.5348 0.26806 0.22867 0.0
H849 H 0.53503 0.27434 0.1189 0.0
H850 H 0.60962 0.27547 0.1196 0.0
H851 H 0.60948 0.26802 0.22899 0.0
H852 H 0.55005 0.30802 0.0491 0.0
H853 H 0.59886 0.22851 0.99015 0.0
H854 H 0.58808 0.23399 0.06576 0.0
H855 H 0.61446 0.2474 0.04014 0.0
C856 C 0.55127 0.26951 0.2054 0.0
C857 C 0.57213 0.26727 0.23745 0.0
C858 C 0.55138 0.2732 0.1426 0.0
C859 C 0.57234 0.27497 0.11049 0.0
C860 C 0.59321 0.27348 0.14281 0.0
H861 H 0.57374 0.32078 0.7267 0.0
H862 H 0.57698 0.3206 0.83807 0.0
C863 C 0.59312 0.26936 0.2055 0.0
C864 C 0.57215 0.27813 0.04327 0.0
H865 H 0.59126 0.25438 0.90991 0.0
C866 C 0.55905 0.29628 0.01862 0.0
C867 C 0.58373 0.26271 0.00333 0.0
C868 C 0.59688 0.24193 0.02608 0.0
C869 C 0.55689 0.2992 0.9554 0.0
C870 C 0.56875 0.28397 0.91555 0.0
C871 C 0.58224 0.26614 0.94031 0.0
C872 C 0.56622 0.28493 0.84817 0.0
C873 C 0.54117 0.31799 0.93217 0.0
C874 C 0.5595 0.26492 0.81647 0.0
C875 C 0.55818 0.26487 0.75318 0.0
C876 C 0.56325 0.28491 0.71984 0.0
C877 C 0.5695 0.30516 0.75132 0.0
C878 C 0.57125 0.30509 0.81497 0.0
H879 H 0.52872 0.32384 0.9676 0.0
H880 H 0.55176 0.33313 0.91865 0.0
H881 H 0.53127 0.31202 0.89191 0.0
H882 H 0.55543 0.24918 0.84078 0.0
H883 H 0.55321 0.24902 0.73029 0.0
H884 H 0.28428 0.09863 0.46957 0.0
H885 H 0.27926 0.09803 0.3591 0.0
H886 H 0.21704 0.05773 0.37966 0.0
H887 H 0.22188 0.0582 0.49017 0.0
H888 H 0.27635 0.05576 0.28679 0.0
H889 H 0.19874 0.1118 0.26306 0.0
H890 H 0.21702 0.11262 0.32952 0.0
H891 H 0.1971 0.08918 0.31882 0.0
C892 C 0.26943 0.08978 0.45069 0.0
C893 C 0.25354 0.07838 0.4887 0.0
C894 C 0.26659 0.08947 0.38757 0.0
C895 C 0.24767 0.07802 0.36132 0.0
C896 C 0.23157 0.06694 0.39909 0.0
H897 H 0.21056 0.05446 0.97969 0.0
H898 H 0.21017 0.05593 0.09135 0.0
C899 C 0.23447 0.06711 0.46221 0.0
C900 C 0.24561 0.07652 0.29428 0.0
H901 H 0.21289 0.09383 0.1737 0.0
C902 C 0.26249 0.06409 0.26202 0.0
C903 C 0.22736 0.0872 0.26228 0.0
C904 C 0.20905 0.10111 0.2949 0.0
C905 C 0.26166 0.06206 0.1985 0.0
C906 C 0.24375 0.07322 0.16621 0.0
C907 C 0.2266 0.08533 0.19854 0.0
C908 C 0.24321 0.07324 0.09877 0.0
C909 C 0.27987 0.04775 0.16657 0.0
C910 C 0.26159 0.08301 0.06606 0.0
C911 C 0.26193 0.08208 0.00268 0.0
C912 C 0.24379 0.07151 0.97047 0.0
C913 C 0.22493 0.06246 0.00319 0.0
C914 C 0.22465 0.06334 0.06691 0.0
H915 H 0.28803 0.03516 0.1979 0.0
H916 H 0.27243 0.03814 0.12744 0.0
H917 H 0.29365 0.05934 0.14917 0.0
H918 H 0.27582 0.09123 0.08966 0.0
H919 H 0.27657 0.08954 0.979 0.0
H920 H 0.47726 0.7777 0.23787 0.0
H921 H 0.47342 0.77621 0.34811 0.0
H922 H 0.44746 0.70639 0.33523 0.0
H923 H 0.45228 0.70749 0.22433 0.0
H924 H 0.43581 0.7717 0.41427 0.0
H925 H 0.49493 0.69885 0.46627 0.0
H926 H 0.4939 0.71215 0.39233 0.0
H927 H 0.47208 0.69165 0.41451 0.0
C928 C 0.47099 0.76191 0.25851 0.0
C929 C 0.46519 0.74267 0.22252 0.0
C930 C 0.46874 0.7611 0.3216 0.0
C931 C 0.46036 0.74113 0.35031 0.0
C932 C 0.45451 0.72181 0.31445 0.0
H933 H 0.41719 0.7565 0.73343 0.0
H934 H 0.41628 0.749 0.62382 0.0
C935 C 0.45717 0.72248 0.25106 0.0
C936 C 0.45717 0.74126 0.4175 0.0
H937 H 0.4743 0.71509 0.54883 0.0
C938 C 0.44417 0.75926 0.44369 0.0
C939 C 0.46817 0.7251 0.45595 0.0
C940 C 0.48322 0.70596 0.43102 0.0
C941 C 0.44246 0.76204 0.50698 0.0
C942 C 0.45337 0.74584 0.54551 0.0
C943 C 0.46583 0.72743 0.51935 0.0
C944 C 0.45352 0.74864 0.61282 0.0
C945 C 0.42992 0.78299 0.53163 0.0
C946 C 0.47469 0.74987 0.64379 0.0
C947 C 0.47523 0.75363 0.70656 0.0
C948 C 0.45461 0.75649 0.73968 0.0
C949 C 0.43338 0.75474 0.70898 0.0
C950 C 0.43285 0.75057 0.64624 0.0
H951 H 0.42804 0.79666 0.49667 0.0
H952 H 0.4123 0.77784 0.54645 0.0
H953 H 0.43912 0.79048 0.5713 0.0
H954 H 0.49087 0.74838 0.61916 0.0
H955 H 0.49185 0.75482 0.7289 0.0
H956 H 0.80577 0.97229 0.98711 0.0
H957 H 0.81031 0.97291 0.87639 0.0
H958 H 0.75105 0.92828 0.85747 0.0
H959 H 0.74634 0.92751 0.96811 0.0
H960 H 0.81501 0.93346 0.79007 0.0
H961 H 0.7368 0.98742 0.75339 0.0
H962 H 0.751 0.9855 0.8262 0.0
H963 H 0.73282 0.96233 0.80031 0.0
C964 C 0.79371 0.96256 0.95946 0.0
C965 C 0.77554 0.95004 0.98647 0.0
C966 C 0.7964 0.96289 0.89622 0.0
C967 C 0.78087 0.95087 0.85882 0.0
C968 C 0.76305 0.93791 0.88559 0.0
H969 H 0.75417 0.93815 0.47625 0.0
H970 H 0.75491 0.93624 0.58679 0.0
C971 C 0.76041 0.93746 0.94883 0.0
C972 C 0.78294 0.95229 0.79172 0.0
H973 H 0.75525 0.97239 0.66581 0.0
C974 C 0.80204 0.94205 0.76274 0.0
C975 C 0.76601 0.96357 0.75642 0.0
C976 C 0.74556 0.97552 0.78546 0.0
C977 C 0.80427 0.94216 0.69901 0.0
C978 C 0.7872 0.95328 0.66361 0.0
C979 C 0.76831 0.96383 0.6929 0.0
C980 C 0.78791 0.95347 0.59603 0.0
C981 C 0.82442 0.92969 0.67012 0.0
C982 C 0.80633 0.96372 0.56411 0.0
C983 C 0.80601 0.96479 0.50041 0.0
C984 C 0.78715 0.95583 0.46768 0.0
C985 C 0.76892 0.94537 0.49989 0.0
C986 C 0.7693 0.94423 0.56323 0.0
H987 H 0.83251 0.91728 0.70208 0.0
H988 H 0.81896 0.92014 0.62869 0.0
H989 H 0.83776 0.94249 0.65666 0.0
H990 H 0.8207 0.97134 0.58845 0.0
H991 H 0.82033 0.97293 0.47695 0.0
H992 H 0.26499 0.16898 0.70363 0.0
H993 H 0.25268 0.19803 0.62958 0.0
H994 H 0.2181 0.14481 0.52625 0.0
H995 H 0.23088 0.11591 0.59917 0.0
H996 H 0.23306 0.17853 0.45276 0.0
H997 H 0.18617 0.21702 0.64942 0.0
H998 H 0.21706 0.21715 0.65656 0.0
H999 H 0.20168 0.19011 0.65467 0.0
C1000 C 0.25585 0.16339 0.66324 0.0
C1001 C 0.24925 0.14016 0.65643 0.0
C1002 C 0.24841 0.18004 0.6216 0.0
C1003 C 0.23373 0.17375 0.57353 0.0
C1004 C 0.22928 0.15017 0.56314 0.0
H1005 H 0.11651 0.23176 0.40772 0.0
H1006 H 0.14523 0.21904 0.48123 0.0
C1007 C 0.23698 0.13351 0.60429 0.0
C1008 C 0.22071 0.1915 0.5386 0.0
H1009 H 0.17957 0.23368 0.55409 0.0
C1010 C 0.22161 0.19082 0.47488 0.0
C1011 C 0.20535 0.20724 0.56755 0.0
C1012 C 0.20226 0.20787 0.63574 0.0
C1013 C 0.20719 0.20487 0.43932 0.0
C1014 C 0.19193 0.22071 0.46826 0.0
C1015 C 0.19151 0.22186 0.53197 0.0
C1016 C 0.17437 0.23399 0.43338 0.0
C1017 C 0.20747 0.2015 0.3712 0.0
C1018 C 0.18085 0.24836 0.38488 0.0
C1019 C 0.1643 0.25578 0.34294 0.0
C1020 C 0.14099 0.24947 0.34983 0.0
C1021 C 0.13417 0.23765 0.40251 0.0
C1022 C 0.15073 0.22996 0.44399 0.0
H1023 H 0.21622 0.18517 0.35768 0.0
H1024 H 0.18962 0.20122 0.35275 0.0
H1025 H 0.21697 0.21602 0.34976 0.0
H1026 H 0.19889 0.25229 0.37671 0.0
H1027 H 0.17003 0.26453 0.30211 0.0
H1028 H 0.41127 0.73352 0.85209 0.0
H1029 H 0.3822 0.72191 0.77827 0.0
H1030 H 0.32872 0.75086 0.89261 0.0
H1031 H 0.35801 0.76207 0.96732 0.0
H1032 H 0.32041 0.70719 0.87239 0.0
H1033 H 0.34058 0.74644 0.65051 0.0
H1034 H 0.36584 0.73299 0.68127 0.0
H1035 H 0.35289 0.75721 0.72042 0.0
C1036 C 0.39352 0.73883 0.85953 0.0
C1037 C 0.38694 0.74923 0.91465 0.0
C1038 C 0.37677 0.73192 0.81748 0.0
C1039 C 0.35314 0.73554 0.82952 0.0
C1040 C 0.34679 0.74787 0.88215 0.0
H1041 H 0.266 0.67175 0.55282 0.0
H1042 H 0.27698 0.70047 0.6296 0.0
C1043 C 0.36354 0.75456 0.92447 0.0
C1044 C 0.33531 0.7232 0.79293 0.0
H1045 H 0.32025 0.70967 0.64731 0.0
C1046 C 0.32002 0.70815 0.82317 0.0
C1047 C 0.3345 0.72449 0.7288 0.0
C1048 C 0.34919 0.74136 0.69352 0.0
C1049 C 0.30497 0.69349 0.79101 0.0
C1050 C 0.30552 0.69346 0.72671 0.0
C1051 C 0.31984 0.70946 0.6966 0.0
C1052 C 0.29321 0.67574 0.68948 0.0
C1053 C 0.2889 0.678 0.8265 0.0
C1054 C 0.29738 0.65208 0.69914 0.0
C1055 C 0.29057 0.63563 0.65597 0.0
C1056 C 0.27974 0.64257 0.60206 0.0
C1057 C 0.27386 0.66593 0.59471 0.0
C1058 C 0.28041 0.68237 0.63822 0.0
H1059 H 0.28396 0.6861 0.87054 0.0
H1060 H 0.27292 0.674 0.80067 0.0
H1061 H 0.29789 0.66154 0.83687 0.0
H1062 H 0.30775 0.64645 0.73717 0.0
H1063 H 0.29628 0.61793 0.66147 0.0
H1064 H 0.9109 0.79561 0.90527 0.0
H1065 H 0.88177 0.80698 0.97964 0.0
H1066 H 0.8286 0.77666 0.86757 0.0
H1067 H 0.85795 0.76569 0.79234 0.0
H1068 H 0.81961 0.82016 0.88631 0.0
H1069 H 0.84056 0.78271 0.10936 0.0
H1070 H 0.86564 0.79633 0.07767 0.0
H1071 H 0.85302 0.7717 0.03969 0.0
C1072 C 0.89325 0.78994 0.89851 0.0
C1073 C 0.88675 0.77924 0.84383 0.0
C1074 C 0.87645 0.79671 0.94088 0.0
C1075 C 0.85286 0.79265 0.92958 0.0
C1076 C 0.84664 0.77999 0.87747 0.0
H1077 H 0.76567 0.85809 0.20518 0.0
H1078 H 0.77638 0.82874 0.12962 0.0
C1079 C 0.86343 0.77345 0.83484 0.0
C1080 C 0.83488 0.80494 0.9661 0.0
H1081 H 0.82 0.81943 0.1115 0.0
C1082 C 0.81936 0.81956 0.93558 0.0
C1083 C 0.8342 0.8041 0.03033 0.0
C1084 C 0.84911 0.78765 0.06601 0.0
C1085 C 0.80424 0.8343 0.96746 0.0
C1086 C 0.80498 0.83489 0.0317 0.0
C1087 C 0.81948 0.81924 0.06222 0.0
C1088 C 0.79278 0.85292 0.06823 0.0
C1089 C 0.78792 0.84936 0.93178 0.0
C1090 C 0.79714 0.87648 0.05733 0.0
C1091 C 0.79054 0.89327 0.09988 0.0
C1092 C 0.77966 0.88681 0.15431 0.0
C1093 C 0.77353 0.86356 0.16283 0.0
C1094 C 0.77994 0.84676 0.12003 0.0
H1095 H 0.78301 0.84091 0.88824 0.0
H1096 H 0.77195 0.85331 0.95794 0.0
H1097 H 0.79669 0.86586 0.92047 0.0
H1098 H 0.80756 0.88174 0.01883 0.0
H1099 H 0.79653 0.91084 0.0936 0.0
H1100 H 0.61599 0.28903 0.3405 0.0
H1101 H 0.64351 0.29807 0.26032 0.0
H1102 H 0.69944 0.29002 0.38791 0.0
H1103 H 0.67197 0.27796 0.46545 0.0
H1104 H 0.66347 0.33544 0.26788 0.0
H1105 H 0.73428 0.27256 0.24257 0.0
H1106 H 0.70769 0.26531 0.28112 0.0
H1107 H 0.73078 0.27971 0.32129 0.0
C1108 C 0.63419 0.28677 0.34961 0.0
C1109 C 0.64179 0.28173 0.40851 0.0
C1110 C 0.65005 0.29279 0.30421 0.0
C1111 C 0.67376 0.2949 0.3176 0.0
C1112 C 0.68149 0.28803 0.37525 0.0
H1113 H 0.74049 0.41203 0.15368 0.0
H1114 H 0.72887 0.38443 0.2311 0.0
C1115 C 0.66568 0.28119 0.41992 0.0
C1116 C 0.68917 0.30865 0.27682 0.0
H1117 H 0.74386 0.31243 0.21773 0.0
C1118 C 0.6809 0.33007 0.25622 0.0
C1119 C 0.71201 0.30194 0.26119 0.0
C1120 C 0.72156 0.2785 0.27723 0.0
C1121 C 0.69463 0.34492 0.22129 0.0
C1122 C 0.71799 0.33899 0.20933 0.0
C1123 C 0.72623 0.31737 0.22858 0.0
C1124 C 0.73324 0.35445 0.17293 0.0
C1125 C 0.68354 0.36652 0.19618 0.0
C1126 C 0.74259 0.34658 0.11767 0.0
C1127 C 0.75094 0.3624 0.07495 0.0
C1128 C 0.74974 0.38631 0.08648 0.0
C1129 C 0.74298 0.39387 0.14452 0.0
C1130 C 0.7354 0.378 0.18805 0.0
H1131 H 0.66441 0.36491 0.19419 0.0
H1132 H 0.6876 0.38141 0.22626 0.0
H1133 H 0.68997 0.37036 0.14969 0.0
H1134 H 0.74141 0.32849 0.10509 0.0
H1135 H 0.75584 0.35609 0.03028 0.0
H1136 H 0.99942 0.15483 0.37211 0.0
H1137 H 0.96694 0.12883 0.35424 0.0
H1138 H 0.97198 0.14134 0.16164 0.0
H1139 H 1.00498 0.16708 0.17881 0.0
H1140 H 0.92353 0.13479 0.29739 0.0
H1141 H 0.97871 0.07069 0.17614 0.0
H1142 H 0.99068 0.09424 0.21994 0.0
H1143 H 0.97914 0.09944 0.14552 0.0
C1144 C 0.99361 0.1522 0.32583 0.0
C1145 C 1.00498 0.16307 0.27694 0.0
C1146 C 0.97492 0.13738 0.3158 0.0
C1147 C 0.96721 0.13289 0.25662 0.0
C1148 C 0.97786 0.14434 0.2077 0.0
H1149 H 0.87199 0.02965 0.11767 0.0
H1150 H 0.89748 0.06287 0.13039 0.0
C1151 C 0.9966 0.15928 0.2177 0.0
C1152 C 0.9488 0.11535 0.24651 0.0
H1153 H 0.93913 0.06195 0.18486 0.0
C1154 C 0.92687 0.11889 0.27257 0.0
C1155 C 0.95325 0.09455 0.21451 0.0
C1156 C 0.97675 0.0893 0.18778 0.0
C1157 C 0.90919 0.10229 0.26688 0.0
C1158 C 0.91372 0.0814 0.23532 0.0
C1159 C 0.93562 0.07798 0.20897 0.0
C1160 C 0.89616 0.06273 0.22865 0.0
C1161 C 0.88574 0.10744 0.29389 0.0
C1162 C 0.8866 0.05166 0.27971 0.0
C1163 C 0.8718 0.0326 0.27258 0.0
C1164 C 0.86653 0.02412 0.21418 0.0
C1165 C 0.87575 0.03562 0.16332 0.0
C1166 C 0.89034 0.05467 0.17047 0.0
H1167 H 0.88318 0.12629 0.30119 0.0
H1168 H 0.87169 0.10086 0.2642 0.0
H1169 H 0.88424 0.0988 0.33867 0.0
H1170 H 0.89125 0.05719 0.32514 0.0
H1171 H 0.8654 0.02393 0.31278 0.0
H1172 H 0.51289 0.37243 0.56261 0.0
H1173 H 0.48229 0.40119 0.58003 0.0
H1174 H 0.45879 0.39207 0.3958 0.0
H1175 H 0.48923 0.36352 0.37786 0.0
H1176 H 0.47755 0.44359 0.49447 0.0
H1177 H 0.39922 0.38805 0.51323 0.0
H1178 H 0.42775 0.37772 0.53266 0.0
H1179 H 0.41994 0.38128 0.45447 0.0
C1180 C 0.50091 0.37618 0.52625 0.0
C1181 C 0.50344 0.36561 0.46889 0.0
C1182 C 0.48353 0.3927 0.53616 0.0
C1183 C 0.46822 0.39859 0.48929 0.0
C1184 C 0.4703 0.38759 0.43269 0.0
H1185 H 0.35406 0.49659 0.45608 0.0
H1186 H 0.38178 0.46549 0.43944 0.0
C1187 C 0.48777 0.37136 0.42251 0.0
C1188 C 0.45114 0.41745 0.49759 0.0
H1189 H 0.39331 0.42845 0.51076 0.0
C1190 C 0.45914 0.44032 0.49844 0.0
C1191 C 0.42714 0.41308 0.50143 0.0
C1192 C 0.41784 0.38872 0.50074 0.0
C1193 C 0.44374 0.45903 0.50274 0.0
C1194 C 0.4197 0.45472 0.50814 0.0
C1195 C 0.4117 0.43177 0.50671 0.0
C1196 C 0.40277 0.47377 0.51776 0.0
C1197 C 0.4534 0.48326 0.49997 0.0
C1198 C 0.40508 0.48862 0.56778 0.0
C1199 C 0.38947 0.50667 0.57719 0.0
C1200 C 0.37076 0.5103 0.53731 0.0
C1201 C 0.36823 0.49499 0.48761 0.0
C1202 C 0.38406 0.47693 0.47807 0.0
H1203 H 0.47043 0.48364 0.47647 0.0
H1204 H 0.44143 0.49513 0.47604 0.0
H1205 H 0.45598 0.48985 0.54689 0.0
H1206 H 0.41898 0.48619 0.60003 0.0
H1207 H 0.39219 0.51775 0.61631 0.0
H1208 H 0.15358 0.99945 0.62949 0.0
H1209 H 0.12758 0.96692 0.6469 0.0
H1210 H 0.14115 0.97081 0.83921 0.0
H1211 H 0.16688 1.00383 0.82255 0.0
H1212 H 0.13394 0.92306 0.70256 0.0
H1213 H 0.07034 0.97794 0.8266 0.0
H1214 H 0.09367 0.99002 0.78226 0.0
H1215 H 0.09925 0.97831 0.85628 0.0
C1216 C 0.15118 0.99337 0.67559 0.0
C1217 C 0.16235 1.0044 0.72457 0.0
C1218 C 0.13637 0.97466 0.68535 0.0
C1219 C 0.1322 0.96661 0.74436 0.0
C1220 C 0.14393 0.97694 0.79331 0.0
H1221 H 0.02962 0.87098 0.88399 0.0
H1222 H 0.06269 0.89665 0.87096 0.0
C1223 C 0.15885 0.99569 0.78358 0.0
C1224 C 0.11469 0.9482 0.75437 0.0
H1225 H 0.06156 0.93838 0.81722 0.0
C1226 C 0.11814 0.92633 0.72783 0.0
C1227 C 0.09402 0.95258 0.78699 0.0
C1228 C 0.08889 0.97601 0.81432 0.0
C1229 C 0.10158 0.90863 0.73367 0.0
C1230 C 0.08082 0.91309 0.76585 0.0
C1231 C 0.07748 0.93493 0.79264 0.0
C1232 C 0.0622 0.89551 0.77268 0.0
C1233 C 0.10665 0.88524 0.70616 0.0
C1234 C 0.05097 0.88604 0.72171 0.0
C1235 C 0.03201 0.87115 0.72902 0.0
C1236 C 0.02378 0.8657 0.78751 0.0
C1237 C 0.0354 0.87488 0.83827 0.0
C1238 C 0.05436 0.88956 0.83095 0.0
H1239 H 0.12547 0.8827 0.69842 0.0
H1240 H 0.10018 0.87113 0.73577 0.0
H1241 H 0.09786 0.88383 0.66155 0.0
H1242 H 0.05632 0.89081 0.67624 0.0
H1243 H 0.02324 0.86479 0.6889 0.0
H1244 H 0.65674 0.52934 0.12995 0.0
H1245 H 0.62902 0.5606 0.11628 0.0
H1246 H 0.63588 0.55425 0.92181 0.0
H1247 H 0.66378 0.52273 0.93491 0.0
H1248 H 0.63373 0.60162 0.96814 0.0
H1249 H 0.56281 0.5462 0.05616 0.0
H1250 H 0.58743 0.54847 0.10541 0.0
H1251 H 0.5904 0.53463 0.03251 0.0
C1252 C 0.65254 0.53463 0.08412 0.0
C1253 C 0.66247 0.52335 0.03356 0.0
C1254 C 0.63665 0.55254 0.07647 0.0
C1255 C 0.63009 0.5595 0.01809 0.0
C1256 C 0.64068 0.54909 0.96732 0.0
H1257 H 0.50516 0.63071 0.91779 0.0
H1258 H 0.53718 0.60403 0.93274 0.0
C1259 C 0.65673 0.53112 0.97492 0.0
C1260 C 0.61128 0.57675 0.01056 0.0
H1261 H 0.55388 0.58557 0.03949 0.0
C1262 C 0.61626 0.59815 0.98363 0.0
C1263 C 0.58844 0.57209 0.03037 0.0
C1264 C 0.58181 0.54904 0.05725 0.0
C1265 C 0.59902 0.61512 0.97659 0.0
C1266 C 0.5763 0.61061 0.99762 0.0
C1267 C 0.57134 0.58912 0.02403 0.0
C1268 C 0.557 0.6273 0.98942 0.0
C1269 C 0.60512 0.63751 0.94549 0.0
C1270 C 0.55726 0.64925 0.01712 0.0
C1271 C 0.53884 0.66469 0.00868 0.0
C1272 C 0.51976 0.65842 0.97247 0.0
C1273 C 0.51954 0.63626 0.9457 0.0
C1274 C 0.53785 0.6209 0.95426 0.0
H1275 H 0.62179 0.63628 0.92042 0.0
H1276 H 0.59136 0.64262 0.91315 0.0
H1277 H 0.60675 0.6514 0.98016 0.0
H1278 H 0.5717 0.65443 0.04526 0.0
H1279 H 0.53989 0.68167 0.02933 0.0
loop_
_geom_bond_atom_site_label_1
_geom_bond_atom_site_label_2
_geom_bond_distance
_geom_bond_site_symmetry_2
_ccdc_geom_bond_type
Zn0 N4 2.020 . S
Zn0 O8 2.019 . S
Zn0 N10 2.119 . S
Zn0 O18 1.975 . S
C1 N2 1.334 . S
C1 N5 1.336 . S
N2 C1 1.334 . S
N2 C3 1.334 . S
C3 N2 1.334 . S
C3 N4 1.336 . S
N4 Zn0 2.020 . S
N4 C3 1.336 . S
N4 N5 1.354 . S
N5 C1 1.336 . S
N5 N4 1.354 . S
N5 Zn9 2.020 . S
C6 O7 1.244 . S
C6 O30 1.257 . S
O7 C6 1.244 . S
O8 Zn0 2.019 . S
O8 C28 1.257 . S
Zn9 N5 2.020 . S
Zn9 O16 1.975 . S
Zn9 N25 2.119 . S
Zn9 O30 2.019 . S
N10 Zn0 2.119 . S
N10 C12 1.334 . S
N10 C13 1.328 . S
C11 C12 1.391 . S
C11 N14 1.329 . S
C11 H32 0.930 . S
C12 N10 1.334 . S
C12 C11 1.391 . S
C12 H19 0.930 . S
C13 N10 1.328 . S
C13 C15 1.392 . S
C13 H20 0.930 . S
N14 C11 1.329 . S
N14 C15 1.331 . S
C15 C13 1.392 . S
C15 N14 1.331 . S
O16 Zn9 1.975 . S
O16 C17 1.252 . S
C17 O16 1.252 . S
C17 O18 1.252 . S
O18 Zn0 1.975 . S
O18 C17 1.252 . S
H19 C12 0.930 . S
H20 C13 0.930 . S
C21 C22 1.392 . S
C21 N25 1.328 1_655 S
C21 H27 0.930 1_655 S
C22 C21 1.392 . S
C22 N26 1.331 . S
C23 C24 1.391 1_655 S
C23 N26 1.329 . S
C23 H33 0.930 . S
C24 C23 1.391 1_455 S
C24 N25 1.334 . S
C24 H31 0.930 . S
N25 Zn9 2.119 . S
N25 C21 1.328 1_455 S
N25 C24 1.334 . S
N26 C22 1.331 . S
N26 C23 1.329 . S
H27 C21 0.930 1_455 S
C28 O8 1.257 . S
C28 O29 1.244 . S
O29 C28 1.244 . S
O30 C6 1.257 . S
O30 Zn9 2.019 . S
H31 C24 0.930 . S
H32 C11 0.930 . S
H33 C23 0.930 . S
Zn34 N38 2.020 . S
Zn34 O42 2.019 . S
Zn34 N44 2.119 . S
Zn34 O52 1.975 . S
C35 N36 1.334 . S
C35 N39 1.336 . S
N36 C35 1.334 . S
N36 C37 1.334 . S
C37 N36 1.334 . S
C37 N38 1.336 . S
N38 Zn34 2.020 . S
N38 C37 1.336 . S
N38 N39 1.354 . S
N39 C35 1.336 . S
N39 N38 1.354 . S
N39 Zn43 2.020 . S
C40 O41 1.244 . S
C40 O64 1.257 . S
O41 C40 1.244 . S
O42 Zn34 2.019 . S
O42 C62 1.257 . S
Zn43 N39 2.020 . S
Zn43 O50 1.975 . S
Zn43 N59 2.119 . S
Zn43 O64 2.019 . S
N44 Zn34 2.119 . S
N44 C46 1.334 . S
N44 C47 1.328 . S
C45 C46 1.391 . S
C45 N48 1.329 . S
C45 H66 0.930 . S
C46 N44 1.334 . S
C46 C45 1.391 . S
C46 H53 0.930 . S
C47 N44 1.328 . S
C47 C49 1.392 . S
C47 H54 0.930 . S
N48 C45 1.329 . S
N48 C49 1.331 . S
C49 C47 1.392 . S
C49 N48 1.331 . S
O50 Zn43 1.975 . S
O50 C51 1.252 . S
C51 O50 1.252 . S
C51 O52 1.252 . S
O52 Zn34 1.975 . S
O52 C51 1.252 . S
H53 C46 0.930 . S
H54 C47 0.930 . S
C55 C56 1.392 . S
C55 N59 1.328 . S
C55 H61 0.930 . S
C56 C55 1.392 . S
C56 N60 1.331 . S
C57 C58 1.391 . S
C57 N60 1.329 . S
C57 H67 0.930 . S
C58 C57 1.391 . S
C58 N59 1.334 . S
C58 H65 0.930 . S
N59 Zn43 2.119 . S
N59 C55 1.328 . S
N59 C58 1.334 . S
N60 C56 1.331 . S
N60 C57 1.329 . S
H61 C55 0.930 . S
C62 O42 1.257 . S
C62 O63 1.244 . S
O63 C62 1.244 . S
O64 C40 1.257 . S
O64 Zn43 2.019 . S
H65 C58 0.930 . S
H66 C45 0.930 . S
H67 C57 0.930 . S
Zn68 N72 2.020 . S
Zn68 O76 2.019 . S
Zn68 N78 2.119 . S
Zn68 O86 1.975 . S
C69 N70 1.334 . S
C69 N73 1.336 . S
N70 C69 1.334 . S
N70 C71 1.334 . S
C71 N70 1.334 . S
C71 N72 1.336 . S
N72 Zn68 2.020 . S
N72 C71 1.336 . S
N72 N73 1.354 . S
N73 C69 1.336 . S
N73 N72 1.354 . S
N73 Zn77 2.020 . S
C74 O75 1.244 . S
C74 O98 1.257 . S
O75 C74 1.244 . S
O76 Zn68 2.019 . S
O76 C96 1.257 1_556 S
Zn77 N73 2.020 . S
Zn77 O84 1.975 . S
Zn77 N93 2.119 . S
Zn77 O98 2.019 . S
N78 Zn68 2.119 . S
N78 C80 1.334 . S
N78 C81 1.328 . S
C79 C80 1.391 . S
C79 N82 1.329 . S
C79 H100 0.930 . S
C80 N78 1.334 . S
C80 C79 1.391 . S
C80 H87 0.930 . S
C81 N78 1.328 . S
C81 C83 1.392 . S
C81 H88 0.930 . S
N82 C79 1.329 . S
N82 C83 1.331 . S
C83 C81 1.392 . S
C83 N82 1.331 . S
O84 Zn77 1.975 . S
O84 C85 1.252 . S
C85 O84 1.252 . S
C85 O86 1.252 . S
O86 Zn68 1.975 . S
O86 C85 1.252 . S
H87 C80 0.930 . S
H88 C81 0.930 . S
C89 C90 1.392 . S
C89 N93 1.328 1_455 S
C89 H95 0.924 1_455 S
C90 C89 1.392 . S
C90 N94 1.331 . S
C91 C92 1.391 1_455 S
C91 N94 1.329 . S
C91 H101 0.930 . S
C92 C91 1.391 1_655 S
C92 N93 1.334 . S
C92 H99 0.930 . S
N93 Zn77 2.119 . S
N93 C89 1.328 1_655 S
N93 C92 1.334 . S
N94 C90 1.331 . S
N94 C91 1.329 . S
H95 C89 0.924 1_655 S
C96 O76 1.257 1_554 S
C96 O97 1.244 1_554 S
O97 C96 1.244 1_556 S
O98 C74 1.257 . S
O98 Zn77 2.019 . S
H99 C92 0.930 . S
H100 C79 0.930 . S
H101 C91 0.930 . S
Zn102 N106 2.020 . S
Zn102 O110 2.019 . S
Zn102 N112 2.119 . S
Zn102 O120 1.975 . S
C103 N104 1.345 . S
C103 N107 1.336 . S
N104 C103 1.345 . S
N104 C105 1.323 1_556 S
C105 N104 1.323 1_554 S
C105 N106 1.336 . S
N106 Zn102 2.020 . S
N106 C105 1.336 . S
N106 N107 1.354 1_554 S
N107 C103 1.336 . S
N107 N106 1.354 1_556 S
N107 Zn111 2.020 . S
C108 O109 1.244 . S
C108 O132 1.257 . S
O109 C108 1.244 . S
O110 Zn102 2.019 . S
O110 C130 1.257 . S
Zn111 N107 2.020 . S
Zn111 O118 1.975 . S
Zn111 N127 2.119 . S
Zn111 O132 2.019 . S
N112 Zn102 2.119 . S
N112 C114 1.334 1_554 S
N112 C115 1.328 . S
C113 C114 1.391 . S
C113 N116 1.329 1_556 S
C113 H134 0.930 . S
C114 N112 1.334 1_556 S
C114 C113 1.391 . S
C114 H121 0.930 . S
C115 N112 1.328 . S
C115 C117 1.392 . S
C115 H122 0.930 . S
N116 C113 1.329 1_554 S
N116 C117 1.331 . S
C117 C115 1.392 . S
C117 N116 1.331 . S
O118 Zn111 1.975 . S
O118 C119 1.246 1_556 S
C119 O118 1.246 1_554 S
C119 O120 1.258 . S
O120 Zn102 1.975 . S
O120 C119 1.258 . S
H121 C114 0.930 . S
H122 C115 0.930 . S
C123 C124 1.392 . S
C123 N127 1.328 . S
C123 H129 0.930 . S
C124 C123 1.392 . S
C124 N128 1.331 . S
C125 C126 1.391 . S
C125 N128 1.329 1_554 S
C125 H135 0.930 . S
C126 C125 1.391 . S
C126 N127 1.334 1_554 S
C126 H133 0.930 . S
N127 Zn111 2.119 . S
N127 C123 1.328 . S
N127 C126 1.334 1_556 S
N128 C124 1.331 . S
N128 C125 1.329 1_556 S
H129 C123 0.930 . S
C130 O110 1.257 . S
C130 O131 1.244 . S
O131 C130 1.244 . S
O132 C108 1.257 . S
O132 Zn111 2.019 . S
H133 C126 0.930 . S
H134 C113 0.930 . S
H135 C125 0.930 . S
Zn136 N140 2.020 . S
Zn136 O144 2.019 . S
Zn136 N146 2.119 . S
Zn136 O154 1.975 . S
C137 N138 1.334 . S
C137 N141 1.336 . S
N138 C137 1.334 . S
N138 C139 1.334 . S
C139 N138 1.334 . S
C139 N140 1.336 . S
N140 Zn136 2.020 . S
N140 C139 1.336 . S
N140 N141 1.354 . S
N141 C137 1.336 . S
N141 N140 1.354 . S
N141 Zn145 2.020 . S
C142 O143 1.244 . S
C142 O166 1.257 . S
O143 C142 1.244 . S
O144 Zn136 2.019 . S
O144 C164 1.257 . S
Zn145 N141 2.020 . S
Zn145 O152 1.975 . S
Zn145 N161 2.119 . S
Zn145 O166 2.019 . S
N146 Zn136 2.119 . S
N146 C148 1.334 . S
N146 C149 1.328 . S
C147 C148 1.391 . S
C147 N150 1.329 . S
C147 H168 0.930 . S
C148 N146 1.334 . S
C148 C147 1.391 . S
C148 H155 0.930 . S
C149 N146 1.328 . S
C149 C151 1.392 . S
C149 H156 0.930 . S
N150 C147 1.329 . S
N150 C151 1.331 . S
C151 C149 1.392 . S
C151 N150 1.331 . S
O152 Zn145 1.975 . S
O152 C153 1.252 . S
C153 O152 1.252 . S
C153 O154 1.252 . S
O154 Zn136 1.975 . S
O154 C153 1.252 . S
H155 C148 0.930 . S
H156 C149 0.930 . S
C157 C158 1.392 . S
C157 N161 1.328 . S
C157 H163 0.930 . S
C158 C157 1.392 . S
C158 N162 1.331 . S
C159 C160 1.391 . S
C159 N162 1.329 . S
C159 H169 0.930 . S
C160 C159 1.391 . S
C160 N161 1.334 . S
C160 H167 0.930 . S
N161 Zn145 2.119 . S
N161 C157 1.328 . S
N161 C160 1.334 . S
N162 C158 1.331 . S
N162 C159 1.329 . S
H163 C157 0.930 . S
C164 O144 1.257 . S
C164 O165 1.244 . S
O165 C164 1.244 . S
O166 C142 1.257 . S
O166 Zn145 2.019 . S
H167 C160 0.930 . S
H168 C147 0.930 . S
H169 C159 0.930 . S
Zn170 N174 2.020 . S
Zn170 O178 2.019 . S
Zn170 N180 2.119 . S
Zn170 O188 1.975 . S
C171 N172 1.334 . S
C171 N175 1.336 . S
N172 C171 1.334 . S
N172 C173 1.334 . S
C173 N172 1.334 . S
C173 N174 1.336 . S
N174 Zn170 2.020 . S
N174 C173 1.336 . S
N174 N175 1.354 . S
N175 C171 1.336 . S
N175 N174 1.354 . S
N175 Zn179 2.020 . S
C176 O177 1.244 . S
C176 O200 1.257 . S
O177 C176 1.244 . S
O178 Zn170 2.019 . S
O178 C198 1.257 . S
Zn179 N175 2.020 . S
Zn179 O186 1.975 . S
Zn179 N195 2.119 . S
Zn179 O200 2.019 . S
N180 Zn170 2.119 . S
N180 C182 1.334 . S
N180 C183 1.328 1_545 S
C181 C182 1.391 1_565 S
C181 N184 1.329 . S
C181 H202 0.930 . S
C182 N180 1.334 . S
C182 C181 1.391 1_545 S
C182 H189 0.930 . S
C183 N180 1.328 1_565 S
C183 C185 1.392 . S
C183 H190 0.930 1_565 S
N184 C181 1.329 . S
N184 C185 1.331 . S
C185 C183 1.392 . S
C185 N184 1.331 . S
O186 Zn179 1.975 . S
O186 C187 1.252 . S
C187 O186 1.252 . S
C187 O188 1.252 . S
O188 Zn170 1.975 . S
O188 C187 1.252 . S
H189 C182 0.930 . S
H190 C183 0.930 1_545 S
C191 C192 1.392 . S
C191 N195 1.328 . S
C191 H197 0.930 . S
C192 C191 1.392 . S
C192 N196 1.331 . S
C193 C194 1.391 . S
C193 N196 1.329 . S
C193 H203 0.930 . S
C194 C193 1.391 . S
C194 N195 1.334 . S
C194 H201 0.930 . S
N195 Zn179 2.119 . S
N195 C191 1.328 . S
N195 C194 1.334 . S
N196 C192 1.331 . S
N196 C193 1.329 . S
H197 C191 0.930 . S
C198 O178 1.257 . S
C198 O199 1.244 . S
O199 C198 1.244 . S
O200 C176 1.257 . S
O200 Zn179 2.019 . S
H201 C194 0.930 . S
H202 C181 0.930 . S
H203 C193 0.930 . S
Zn204 N208 2.020 . S
Zn204 O212 2.019 . S
Zn204 N214 2.119 . S
Zn204 O222 1.975 . S
C205 N206 1.345 . S
C205 N209 1.336 . S
N206 C205 1.345 . S
N206 C207 1.323 1_554 S
C207 N206 1.323 1_556 S
C207 N208 1.336 . S
N208 Zn204 2.020 . S
N208 C207 1.336 . S
N208 N209 1.354 1_556 S
N209 C205 1.336 . S
N209 N208 1.354 1_554 S
N209 Zn213 2.020 . S
C210 O211 1.244 . S
C210 O234 1.257 . S
O211 C210 1.244 . S
O212 Zn204 2.019 . S
O212 C232 1.257 . S
Zn213 N209 2.020 . S
Zn213 O220 1.975 . S
Zn213 N229 2.119 . S
Zn213 O234 2.019 . S
N214 Zn204 2.119 . S
N214 C216 1.334 1_556 S
N214 C217 1.328 . S
C215 C216 1.391 . S
C215 N218 1.329 1_554 S
C215 H236 0.930 . S
C216 N214 1.334 1_554 S
C216 C215 1.391 . S
C216 H223 0.930 . S
C217 N214 1.328 . S
C217 C219 1.392 . S
C217 H224 0.930 . S
N218 C215 1.329 1_556 S
N218 C219 1.331 . S
C219 C217 1.392 . S
C219 N218 1.331 . S
O220 Zn213 1.975 . S
O220 C221 1.246 1_554 S
C221 O220 1.246 1_556 S
C221 O222 1.258 . S
O222 Zn204 1.975 . S
O222 C221 1.258 . S
H223 C216 0.930 . S
H224 C217 0.930 . S
C225 C226 1.392 . S
C225 N229 1.328 . S
C225 H231 0.930 . S
C226 C225 1.392 . S
C226 N230 1.331 . S
C227 C228 1.391 . S
C227 N230 1.329 1_556 S
C227 H237 0.930 . S
C228 C227 1.391 . S
C228 N229 1.334 1_556 S
C228 H235 0.930 . S
N229 Zn213 2.119 . S
N229 C225 1.328 . S
N229 C228 1.334 1_554 S
N230 C226 1.331 . S
N230 C227 1.329 1_554 S
H231 C225 0.930 . S
C232 O212 1.257 . S
C232 O233 1.244 . S
O233 C232 1.244 . S
O234 C210 1.257 . S
O234 Zn213 2.019 . S
H235 C228 0.930 . S
H236 C215 0.930 . S
H237 C227 0.930 . S
Zn238 N242 2.020 . S
Zn238 O246 2.019 . S
Zn238 N248 2.119 . S
Zn238 O256 1.975 . S
C239 N240 1.334 . S
C239 N243 1.336 . S
N240 C239 1.334 . S
N240 C241 1.334 . S
C241 N240 1.334 . S
C241 N242 1.336 . S
N242 Zn238 2.020 . S
N242 C241 1.336 . S
N242 N243 1.354 . S
N243 C239 1.336 . S
N243 N242 1.354 . S
N243 Zn247 2.020 . S
C244 O245 1.244 . S
C244 O268 1.257 . S
O245 C244 1.244 . S
O246 Zn238 2.019 . S
O246 C266 1.257 1_554 S
Zn247 N243 2.020 . S
Zn247 O254 1.975 . S
Zn247 N263 2.119 . S
Zn247 O268 2.019 . S
N248 Zn238 2.119 . S
N248 C250 1.334 . S
N248 C251 1.328 . S
C249 C250 1.391 . S
C249 N252 1.329 . S
C249 H270 0.930 . S
C250 N248 1.334 . S
C250 C249 1.391 . S
C250 H257 0.930 . S
C251 N248 1.328 . S
C251 C253 1.392 . S
C251 H258 0.930 . S
N252 C249 1.329 . S
N252 C253 1.331 . S
C253 C251 1.392 . S
C253 N252 1.331 . S
O254 Zn247 1.975 . S
O254 C255 1.252 . S
C255 O254 1.252 . S
C255 O256 1.252 . S
O256 Zn238 1.975 . S
O256 C255 1.252 . S
H257 C250 0.930 . S
H258 C251 0.930 . S
C259 C260 1.392 . S
C259 N263 1.328 1_545 S
C259 H265 0.924 1_545 S
C260 C259 1.392 . S
C260 N264 1.331 . S
C261 C262 1.391 1_545 S
C261 N264 1.329 . S
C261 H271 0.930 . S
C262 C261 1.391 1_565 S
C262 N263 1.334 . S
C262 H269 0.930 . S
N263 Zn247 2.119 . S
N263 C259 1.328 1_565 S
N263 C262 1.334 . S
N264 C260 1.331 . S
N264 C261 1.329 . S
H265 C259 0.924 1_565 S
C266 O246 1.257 1_556 S
C266 O267 1.244 1_556 S
O267 C266 1.244 1_554 S
O268 C244 1.257 . S
O268 Zn247 2.019 . S
H269 C262 0.930 . S
H270 C249 0.930 . S
H271 C261 0.930 . S
H272 C280 0.929 . S
H273 C282 0.930 . S
H274 C284 0.930 . S
H275 C287 0.929 . S
H276 C290 0.930 . S
H277 C292 0.960 . S
H278 C292 0.960 . S
H279 C292 0.960 . S
C280 H272 0.929 . S
C280 C281 1.377 . S
C280 C282 1.384 . S
C281 C280 1.377 . S
C281 C287 1.390 . S
C282 H273 0.930 . S
C282 C280 1.384 . S
C282 C283 1.372 . S
C283 C282 1.372 . S
C283 C284 1.400 . S
C283 C288 1.490 . S
C284 H274 0.930 . S
C284 C283 1.400 . S
C284 C287 1.386 . S
H285 C301 0.930 . S
H286 C302 0.931 . S
C287 H275 0.929 . S
C287 C281 1.390 . S
C287 C284 1.386 . S
C288 C283 1.490 . S
C288 C290 1.395 . S
C288 C291 1.403 . S
H289 C295 0.930 . S
C290 H276 0.930 . S
C290 C288 1.395 . S
C290 C293 1.403 . S
C291 C288 1.403 . S
C291 C292 1.524 . S
C291 C295 1.400 . S
C292 H277 0.960 . S
C292 H278 0.960 . S
C292 H279 0.960 . S
C292 C291 1.524 . S
C293 C290 1.403 . S
C293 C294 1.392 . S
C293 C297 1.495 . S
C294 C293 1.392 . S
C294 C295 1.385 . S
C294 C296 1.478 . S
C295 H289 0.930 . S
C295 C291 1.400 . S
C295 C294 1.385 . S
C296 C294 1.478 . S
C296 C298 1.381 . S
C296 C302 1.383 . S
C297 C293 1.495 . S
C297 H303 0.959 . S
C297 H304 0.961 . S
C297 H305 0.960 . S
C298 C296 1.381 . S
C298 C299 1.394 . S
C298 H306 0.930 . S
C299 C298 1.394 . S
C299 C300 1.383 . S
C299 H307 0.929 . S
C300 C299 1.383 . S
C300 C301 1.377 . S
C301 H285 0.930 . S
C301 C300 1.377 . S
C301 C302 1.379 . S
C302 H286 0.931 . S
C302 C296 1.383 . S
C302 C301 1.379 . S
H303 C297 0.959 . S
H304 C297 0.961 . S
H305 C297 0.960 . S
H306 C298 0.930 . S
H307 C299 0.929 . S
H308 C316 0.929 . S
H309 C318 0.930 . S
H310 C320 0.930 . S
H311 C323 0.929 1_655 S
H312 C326 0.930 . S
H313 C328 0.960 . S
H314 C328 0.960 . S
H315 C328 0.960 . S
C316 H308 0.929 . S
C316 C317 1.377 . S
C316 C318 1.384 . S
C317 C316 1.377 . S
C317 C323 1.390 . S
C318 H309 0.930 . S
C318 C316 1.384 . S
C318 C319 1.372 . S
C319 C318 1.372 . S
C319 C320 1.400 . S
C319 C324 1.490 . S
C320 H310 0.930 . S
C320 C319 1.400 . S
C320 C323 1.386 . S
H321 C337 0.930 . S
H322 C338 0.931 . S
C323 H311 0.929 1_455 S
C323 C317 1.390 . S
C323 C320 1.386 . S
C324 C319 1.490 . S
C324 C326 1.395 . S
C324 C327 1.403 . S
H325 C331 0.930 . S
C326 H312 0.930 . S
C326 C324 1.395 . S
C326 C329 1.403 . S
C327 C324 1.403 . S
C327 C328 1.524 . S
C327 C331 1.400 . S
C328 H313 0.960 . S
C328 H314 0.960 . S
C328 H315 0.960 . S
C328 C327 1.524 . S
C329 C326 1.403 . S
C329 C330 1.392 . S
C329 C333 1.495 . S
C330 C329 1.392 . S
C330 C331 1.385 . S
C330 C332 1.478 . S
C331 H325 0.930 . S
C331 C327 1.400 . S
C331 C330 1.385 . S
C332 C330 1.478 . S
C332 C334 1.381 . S
C332 C338 1.383 . S
C333 C329 1.495 . S
C333 H339 0.959 . S
C333 H340 0.961 . S
C333 H341 0.960 . S
C334 C332 1.381 . S
C334 C335 1.394 . S
C334 H342 0.930 . S
C335 C334 1.394 . S
C335 C336 1.383 . S
C335 H343 0.929 . S
C336 C335 1.383 . S
C336 C337 1.377 . S
C337 H321 0.930 . S
C337 C336 1.377 . S
C337 C338 1.379 . S
C338 H322 0.931 . S
C338 C332 1.383 . S
C338 C337 1.379 . S
H339 C333 0.959 . S
H340 C333 0.961 . S
H341 C333 0.960 . S
H342 C334 0.930 . S
H343 C335 0.929 . S
H344 C352 0.929 . S
H345 C354 0.930 . S
H346 C356 0.930 . S
H347 C359 0.929 . S
H348 C362 0.930 1_554 S
H349 C364 0.960 . S
H350 C364 0.960 . S
H351 C364 0.960 . S
C352 H344 0.929 . S
C352 C353 1.377 1_554 S
C352 C354 1.384 . S
C353 C352 1.377 1_556 S
C353 C359 1.390 . S
C354 H345 0.930 . S
C354 C352 1.384 . S
C354 C355 1.372 1_554 S
C355 C354 1.372 1_556 S
C355 C356 1.400 . S
C355 C360 1.490 . S
C356 H346 0.930 . S
C356 C355 1.400 . S
C356 C359 1.386 . S
H357 C373 0.930 . S
H358 C374 0.931 . S
C359 H347 0.929 . S
C359 C353 1.390 . S
C359 C356 1.386 . S
C360 C355 1.490 . S
C360 C362 1.395 . S
C360 C363 1.403 . S
H361 C367 0.930 . S
C362 H348 0.930 1_556 S
C362 C360 1.395 . S
C362 C365 1.403 . S
C363 C360 1.403 . S
C363 C364 1.524 . S
C363 C367 1.400 . S
C364 H349 0.960 . S
C364 H350 0.960 . S
C364 H351 0.960 . S
C364 C363 1.524 . S
C365 C362 1.403 . S
C365 C366 1.392 . S
C365 C369 1.495 . S
C366 C365 1.392 . S
C366 C367 1.385 . S
C366 C368 1.478 . S
C367 H361 0.930 . S
C367 C363 1.400 . S
C367 C366 1.385 . S
C368 C366 1.478 . S
C368 C370 1.381 . S
C368 C374 1.383 . S
C369 C365 1.495 . S
C369 H375 0.959 1_556 S
C369 H376 0.961 . S
C369 H377 0.960 1_556 S
C370 C368 1.381 . S
C370 C371 1.394 . S
C370 H378 0.930 1_556 S
C371 C370 1.394 . S
C371 C372 1.383 . S
C371 H379 0.929 1_556 S
C372 C371 1.383 . S
C372 C373 1.377 . S
C373 H357 0.930 . S
C373 C372 1.377 . S
C373 C374 1.379 . S
C374 H358 0.931 . S
C374 C368 1.383 . S
C374 C373 1.379 . S
H375 C369 0.959 1_554 S
H376 C369 0.961 . S
H377 C369 0.960 1_554 S
H378 C370 0.930 1_554 S
H379 C371 0.929 1_554 S
H380 C388 0.929 . S
H381 C390 0.930 . S
H382 C392 0.930 . S
H383 C395 0.929 . S
H384 C398 0.930 . S
H385 C400 0.960 . S
H386 C400 0.960 . S
H387 C400 0.960 . S
C388 H380 0.929 . S
C388 C389 1.377 . S
C388 C390 1.384 . S
C389 C388 1.377 . S
C389 C395 1.390 . S
C390 H381 0.930 . S
C390 C388 1.384 . S
C390 C391 1.372 . S
C391 C390 1.372 . S
C391 C392 1.400 . S
C391 C396 1.490 . S
C392 H382 0.930 . S
C392 C391 1.400 . S
C392 C395 1.386 . S
H393 C409 0.930 . S
H394 C410 0.931 . S
C395 H383 0.929 . S
C395 C389 1.390 . S
C395 C392 1.386 . S
C396 C391 1.490 . S
C396 C398 1.395 . S
C396 C399 1.403 . S
H397 C403 0.930 . S
C398 H384 0.930 . S
C398 C396 1.395 . S
C398 C401 1.403 . S
C399 C396 1.403 . S
C399 C400 1.524 . S
C399 C403 1.400 . S
C400 H385 0.960 . S
C400 H386 0.960 . S
C400 H387 0.960 . S
C400 C399 1.524 . S
C401 C398 1.403 . S
C401 C402 1.392 . S
C401 C405 1.495 . S
C402 C401 1.392 . S
C402 C403 1.385 . S
C402 C404 1.478 . S
C403 H397 0.930 . S
C403 C399 1.400 . S
C403 C402 1.385 . S
C404 C402 1.478 . S
C404 C406 1.381 . S
C404 C410 1.383 . S
C405 C401 1.495 . S
C405 H411 0.959 . S
C405 H412 0.961 . S
C405 H413 0.960 . S
C406 C404 1.381 . S
C406 C407 1.394 . S
C406 H414 0.930 . S
C407 C406 1.394 . S
C407 C408 1.383 . S
C407 H415 0.929 . S
C408 C407 1.383 . S
C408 C409 1.377 . S
C409 H393 0.930 . S
C409 C408 1.377 . S
C409 C410 1.379 . S
C410 H394 0.931 . S
C410 C404 1.383 . S
C410 C409 1.379 . S
H411 C405 0.959 . S
H412 C405 0.961 . S
H413 C405 0.960 . S
H414 C406 0.930 . S
H415 C407 0.929 . S
H416 C424 0.929 . S
H417 C426 0.930 . S
H418 C428 0.930 . S
H419 C431 0.929 . S
H420 C434 0.930 . S
H421 C436 0.960 . S
H422 C436 0.960 . S
H423 C436 0.960 . S
C424 H416 0.929 . S
C424 C425 1.377 . S
C424 C426 1.384 . S
C425 C424 1.377 . S
C425 C431 1.390 . S
C426 H417 0.930 . S
C426 C424 1.384 . S
C426 C427 1.372 . S
C427 C426 1.372 . S
C427 C428 1.400 . S
C427 C432 1.490 . S
C428 H418 0.930 . S
C428 C427 1.400 . S
C428 C431 1.386 . S
H429 C445 0.930 1_565 S
H430 C446 0.931 . S
C431 H419 0.929 . S
C431 C425 1.390 . S
C431 C428 1.386 . S
C432 C427 1.490 . S
C432 C434 1.395 . S
C432 C435 1.403 . S
H433 C439 0.930 . S
C434 H420 0.930 . S
C434 C432 1.395 . S
C434 C437 1.403 . S
C435 C432 1.403 . S
C435 C436 1.524 . S
C435 C439 1.400 . S
C436 H421 0.960 . S
C436 H422 0.960 . S
C436 H423 0.960 . S
C436 C435 1.524 . S
C437 C434 1.403 . S
C437 C438 1.392 . S
C437 C441 1.495 . S
C438 C437 1.392 . S
C438 C439 1.385 . S
C438 C440 1.478 . S
C439 H433 0.930 . S
C439 C435 1.400 . S
C439 C438 1.385 . S
C440 C438 1.478 . S
C440 C442 1.381 . S
C440 C446 1.383 . S
C441 C437 1.495 . S
C441 H447 0.959 . S
C441 H448 0.961 . S
C441 H449 0.960 . S
C442 C440 1.381 . S
C442 C443 1.394 . S
C442 H450 0.930 . S
C443 C442 1.394 . S
C443 C444 1.383 . S
C443 H451 0.929 . S
C444 C443 1.383 . S
C444 C445 1.377 . S
C445 H429 0.930 1_545 S
C445 C444 1.377 . S
C445 C446 1.379 . S
C446 H430 0.931 . S
C446 C440 1.383 . S
C446 C445 1.379 . S
H447 C441 0.959 . S
H448 C441 0.961 . S
H449 C441 0.960 . S
H450 C442 0.930 . S
H451 C443 0.929 . S
H452 C460 0.929 . S
H453 C462 0.930 . S
H454 C464 0.930 . S
H455 C467 0.929 . S
H456 C470 0.930 . S
H457 C472 0.960 . S
H458 C472 0.960 . S
H459 C472 0.960 . S
C460 H452 0.929 . S
C460 C461 1.377 . S
C460 C462 1.384 . S
C461 C460 1.377 . S
C461 C467 1.390 . S
C462 H453 0.930 . S
C462 C460 1.384 . S
C462 C463 1.372 . S
C463 C462 1.372 . S
C463 C464 1.400 . S
C463 C468 1.490 . S
C464 H454 0.930 . S
C464 C463 1.400 . S
C464 C467 1.386 . S
H465 C481 0.930 . S
H466 C482 0.931 . S
C467 H455 0.929 . S
C467 C461 1.390 . S
C467 C464 1.386 . S
C468 C463 1.490 . S
C468 C470 1.395 . S
C468 C471 1.403 . S
H469 C475 0.930 . S
C470 H456 0.930 . S
C470 C468 1.395 . S
C470 C473 1.403 . S
C471 C468 1.403 . S
C471 C472 1.524 . S
C471 C475 1.400 . S
C472 H457 0.960 . S
C472 H458 0.960 . S
C472 H459 0.960 . S
C472 C471 1.524 . S
C473 C470 1.403 . S
C473 C474 1.392 . S
C473 C477 1.495 . S
C474 C473 1.392 . S
C474 C475 1.385 . S
C474 C476 1.478 . S
C475 H469 0.930 . S
C475 C471 1.400 . S
C475 C474 1.385 . S
C476 C474 1.478 . S
C476 C478 1.381 . S
C476 C482 1.383 . S
C477 C473 1.495 . S
C477 H483 0.959 . S
C477 H484 0.961 . S
C477 H485 0.960 . S
C478 C476 1.381 . S
C478 C479 1.394 . S
C478 H486 0.930 . S
C479 C478 1.394 . S
C479 C480 1.383 . S
C479 H487 0.929 . S
C480 C479 1.383 . S
C480 C481 1.377 . S
C481 H465 0.930 . S
C481 C480 1.377 . S
C481 C482 1.379 . S
C482 H466 0.931 . S
C482 C476 1.383 . S
C482 C481 1.379 . S
H483 C477 0.959 . S
H484 C477 0.961 . S
H485 C477 0.960 . S
H486 C478 0.930 . S
H487 C479 0.929 . S
H488 C496 0.929 . S
H489 C498 0.930 . S
H490 C500 0.930 . S
H491 C503 0.929 . S
H492 C506 0.930 . S
H493 C508 0.960 . S
H494 C508 0.960 . S
H495 C508 0.960 . S
C496 H488 0.929 . S
C496 C497 1.377 . S
C496 C498 1.384 . S
C497 C496 1.377 . S
C497 C503 1.390 . S
C498 H489 0.930 . S
C498 C496 1.384 . S
C498 C499 1.372 . S
C499 C498 1.372 . S
C499 C500 1.400 . S
C499 C504 1.490 . S
C500 H490 0.930 . S
C500 C499 1.400 . S
C500 C503 1.386 . S
H501 C517 0.930 . S
H502 C518 0.931 . S
C503 H491 0.929 . S
C503 C497 1.390 . S
C503 C500 1.386 . S
C504 C499 1.490 . S
C504 C506 1.395 . S
C504 C507 1.403 . S
H505 C511 0.930 . S
C506 H492 0.930 . S
C506 C504 1.395 . S
C506 C509 1.403 . S
C507 C504 1.403 . S
C507 C508 1.524 . S
C507 C511 1.400 . S
C508 H493 0.960 . S
C508 H494 0.960 . S
C508 H495 0.960 . S
C508 C507 1.524 . S
C509 C506 1.403 . S
C509 C510 1.392 . S
C509 C513 1.495 . S
C510 C509 1.392 . S
C510 C511 1.385 . S
C510 C512 1.478 . S
C511 H505 0.930 . S
C511 C507 1.400 . S
C511 C510 1.385 . S
C512 C510 1.478 . S
C512 C514 1.381 . S
C512 C518 1.383 . S
C513 C509 1.495 . S
C513 H519 0.959 . S
C513 H520 0.961 . S
C513 H521 0.960 . S
C514 C512 1.381 . S
C514 C515 1.394 . S
C514 H522 0.930 . S
C515 C514 1.394 . S
C515 C516 1.383 . S
C515 H523 0.929 . S
C516 C515 1.383 . S
C516 C517 1.377 . S
C517 H501 0.930 . S
C517 C516 1.377 . S
C517 C518 1.379 . S
C518 H502 0.931 . S
C518 C512 1.383 . S
C518 C517 1.379 . S
H519 C513 0.959 . S
H520 C513 0.961 . S
H521 C513 0.960 . S
H522 C514 0.930 . S
H523 C515 0.929 . S
H524 C532 0.929 . S
H525 C534 0.930 . S
H526 C536 0.930 1_556 S
H527 C539 0.929 1_556 S
H528 C542 0.930 . S
H529 C544 0.962 . S
H530 C544 0.960 . S
H531 C544 0.960 1_556 S
C532 H524 0.929 . S
C532 C533 1.377 . S
C532 C534 1.384 . S
C533 C532 1.377 . S
C533 C539 1.390 . S
C534 H525 0.930 . S
C534 C532 1.384 . S
C534 C535 1.372 . S
C535 C534 1.372 . S
C535 C536 1.400 . S
C535 C540 1.490 . S
C536 H526 0.930 1_554 S
C536 C535 1.400 . S
C536 C539 1.386 . S
H537 C553 0.930 . S
H538 C554 0.931 . S
C539 H527 0.929 1_554 S
C539 C533 1.390 . S
C539 C536 1.386 . S
C540 C535 1.490 . S
C540 C542 1.395 . S
C540 C543 1.403 . S
H541 C547 0.930 . S
C542 H528 0.930 . S
C542 C540 1.395 . S
C542 C545 1.403 . S
C543 C540 1.403 . S
C543 C544 1.524 . S
C543 C547 1.400 . S
C544 H529 0.962 . S
C544 H530 0.960 . S
C544 H531 0.960 1_554 S
C544 C543 1.524 . S
C545 C542 1.403 . S
C545 C546 1.392 . S
C545 C549 1.495 . S
C546 C545 1.392 . S
C546 C547 1.385 . S
C546 C548 1.478 . S
C547 H541 0.930 . S
C547 C543 1.400 . S
C547 C546 1.385 . S
C548 C546 1.478 . S
C548 C550 1.381 . S
C548 C554 1.383 1_554 S
C549 C545 1.495 . S
C549 H555 0.959 . S
C549 H556 0.961 . S
C549 H557 0.960 . S
C550 C548 1.381 . S
C550 C551 1.394 . S
C550 H558 0.930 . S
C551 C550 1.394 . S
C551 C552 1.383 . S
C551 H559 0.929 . S
C552 C551 1.383 . S
C552 C553 1.377 1_554 S
C553 H537 0.930 . S
C553 C552 1.377 1_556 S
C553 C554 1.379 . S
C554 H538 0.931 . S
C554 C548 1.383 1_556 S
C554 C553 1.379 . S
H555 C549 0.959 . S
H556 C549 0.961 . S
H557 C549 0.960 . S
H558 C550 0.930 . S
H559 C551 0.929 . S
H560 C568 0.929 . S
H561 C570 0.930 . S
H562 C572 0.930 . S
H563 C575 0.929 . S
H564 C578 0.930 . S
H565 C580 0.960 . S
H566 C580 0.960 . S
H567 C580 0.960 1_556 S
C568 H560 0.929 . S
C568 C569 1.377 . S
C568 C570 1.384 . S
C569 C568 1.377 . S
C569 C575 1.390 . S
C570 H561 0.930 . S
C570 C568 1.384 . S
C570 C571 1.372 . S
C571 C570 1.372 . S
C571 C572 1.400 . S
C571 C576 1.490 . S
C572 H562 0.930 . S
C572 C571 1.400 . S
C572 C575 1.386 . S
H573 C589 0.930 . S
H574 C590 0.931 . S
C575 H563 0.929 . S
C575 C569 1.390 . S
C575 C572 1.386 . S
C576 C571 1.490 . S
C576 C578 1.395 . S
C576 C579 1.403 1_556 S
H577 C583 0.930 . S
C578 H564 0.930 . S
C578 C576 1.395 . S
C578 C581 1.403 . S
C579 C576 1.403 1_554 S
C579 C580 1.524 . S
C579 C583 1.400 . S
C580 H565 0.960 . S
C580 H566 0.960 . S
C580 H567 0.960 1_554 S
C580 C579 1.524 . S
C581 C578 1.403 . S
C581 C582 1.392 1_556 S
C581 C585 1.495 . S
C582 C581 1.392 1_554 S
C582 C583 1.385 . S
C582 C584 1.478 . S
C583 H577 0.930 . S
C583 C579 1.400 . S
C583 C582 1.385 . S
C584 C582 1.478 . S
C584 C586 1.381 . S
C584 C590 1.383 . S
C585 C581 1.495 . S
C585 H591 0.959 . S
C585 H592 0.961 . S
C585 H593 0.960 1_556 S
C586 C584 1.381 . S
C586 C587 1.394 . S
C586 H594 0.930 . S
C587 C586 1.394 . S
C587 C588 1.383 . S
C587 H595 0.929 . S
C588 C587 1.383 . S
C588 C589 1.377 . S
C589 H573 0.930 . S
C589 C588 1.377 . S
C589 C590 1.379 . S
C590 H574 0.931 . S
C590 C584 1.383 . S
C590 C589 1.379 . S
H591 C585 0.959 . S
H592 C585 0.961 . S
H593 C585 0.960 1_554 S
H594 C586 0.930 . S
H595 C587 0.929 . S
H596 C604 0.929 . S
H597 C606 0.930 . S
H598 C608 0.930 . S
H599 C611 0.929 . S
H600 C614 0.930 . S
H601 C616 0.960 . S
H602 C616 0.960 . S
H603 C616 0.960 . S
C604 H596 0.929 . S
C604 C605 1.377 . S
C604 C606 1.384 . S
C605 C604 1.377 . S
C605 C611 1.390 . S
C606 H597 0.930 . S
C606 C604 1.384 . S
C606 C607 1.372 . S
C607 C606 1.372 . S
C607 C608 1.400 . S
C607 C612 1.490 . S
C608 H598 0.930 . S
C608 C607 1.400 . S
C608 C611 1.386 . S
H609 C625 0.930 . S
H610 C626 0.931 . S
C611 H599 0.929 . S
C611 C605 1.390 . S
C611 C608 1.386 . S
C612 C607 1.490 . S
C612 C614 1.395 . S
C612 C615 1.403 . S
H613 C619 0.930 . S
C614 H600 0.930 . S
C614 C612 1.395 . S
C614 C617 1.403 . S
C615 C612 1.403 . S
C615 C616 1.524 . S
C615 C619 1.400 . S
C616 H601 0.960 . S
C616 H602 0.960 . S
C616 H603 0.960 . S
C616 C615 1.524 . S
C617 C614 1.403 . S
C617 C618 1.392 . S
C617 C621 1.495 . S
C618 C617 1.392 . S
C618 C619 1.385 . S
C618 C620 1.478 . S
C619 H613 0.930 . S
C619 C615 1.400 . S
C619 C618 1.385 . S
C620 C618 1.478 . S
C620 C622 1.381 . S
C620 C626 1.383 . S
C621 C617 1.495 . S
C621 H627 0.959 . S
C621 H628 0.961 . S
C621 H629 0.960 . S
C622 C620 1.381 . S
C622 C623 1.394 . S
C622 H630 0.930 . S
C623 C622 1.394 . S
C623 C624 1.383 . S
C623 H631 0.929 . S
C624 C623 1.383 . S
C624 C625 1.377 . S
C625 H609 0.930 . S
C625 C624 1.377 . S
C625 C626 1.379 . S
C626 H610 0.931 . S
C626 C620 1.383 . S
C626 C625 1.379 . S
H627 C621 0.959 . S
H628 C621 0.961 . S
H629 C621 0.960 . S
H630 C622 0.930 . S
H631 C623 0.929 . S
H632 C640 0.929 . S
H633 C642 0.930 . S
H634 C644 0.930 . S
H635 C647 0.929 . S
H636 C650 0.930 . S
H637 C652 0.960 . S
H638 C652 0.960 . S
H639 C652 0.960 . S
C640 H632 0.929 . S
C640 C641 1.377 . S
C640 C642 1.384 . S
C641 C640 1.377 . S
C641 C647 1.390 . S
C642 H633 0.930 . S
C642 C640 1.384 . S
C642 C643 1.372 . S
C643 C642 1.372 . S
C643 C644 1.400 . S
C643 C648 1.490 . S
C644 H634 0.930 . S
C644 C643 1.400 . S
C644 C647 1.386 . S
H645 C661 0.930 . S
H646 C662 0.931 . S
C647 H635 0.929 . S
C647 C641 1.390 . S
C647 C644 1.386 . S
C648 C643 1.490 . S
C648 C650 1.395 . S
C648 C651 1.403 . S
H649 C655 0.930 . S
C650 H636 0.930 . S
C650 C648 1.395 . S
C650 C653 1.403 . S
C651 C648 1.403 . S
C651 C652 1.524 . S
C651 C655 1.400 . S
C652 H637 0.960 . S
C652 H638 0.960 . S
C652 H639 0.960 . S
C652 C651 1.524 . S
C653 C650 1.403 . S
C653 C654 1.392 . S
C653 C657 1.495 . S
C654 C653 1.392 . S
C654 C655 1.385 . S
C654 C656 1.478 . S
C655 H649 0.930 . S
C655 C651 1.400 . S
C655 C654 1.385 . S
C656 C654 1.478 . S
C656 C658 1.381 . S
C656 C662 1.383 . S
C657 C653 1.495 . S
C657 H663 0.959 . S
C657 H664 0.961 . S
C657 H665 0.960 . S
C658 C656 1.381 . S
C658 C659 1.394 . S
C658 H666 0.930 . S
C659 C658 1.394 . S
C659 C660 1.383 . S
C659 H667 0.929 . S
C660 C659 1.383 . S
C660 C661 1.377 . S
C661 H645 0.930 . S
C661 C660 1.377 . S
C661 C662 1.379 . S
C662 H646 0.931 . S
C662 C656 1.383 . S
C662 C661 1.379 . S
H663 C657 0.959 . S
H664 C657 0.961 . S
H665 C657 0.960 . S
H666 C658 0.930 . S
H667 C659 0.929 . S
H668 C676 0.929 . S
H669 C678 0.930 . S
H670 C680 0.930 . S
H671 C683 0.929 . S
H672 C686 0.930 . S
H673 C688 0.960 . S
H674 C688 0.960 . S
H675 C688 0.960 . S
C676 H668 0.929 . S
C676 C677 1.377 . S
C676 C678 1.384 . S
C677 C676 1.377 . S
C677 C683 1.390 . S
C678 H669 0.930 . S
C678 C676 1.384 . S
C678 C679 1.372 . S
C679 C678 1.372 . S
C679 C680 1.400 . S
C679 C684 1.490 . S
C680 H670 0.930 . S
C680 C679 1.400 . S
C680 C683 1.386 . S
H681 C697 0.930 . S
H682 C698 0.931 . S
C683 H671 0.929 . S
C683 C677 1.390 . S
C683 C680 1.386 . S
C684 C679 1.490 . S
C684 C686 1.395 . S
C684 C687 1.403 . S
H685 C691 0.930 . S
C686 H672 0.930 . S
C686 C684 1.395 . S
C686 C689 1.403 . S
C687 C684 1.403 . S
C687 C688 1.524 . S
C687 C691 1.400 . S
C688 H673 0.960 . S
C688 H674 0.960 . S
C688 H675 0.960 . S
C688 C687 1.524 . S
C689 C686 1.403 . S
C689 C690 1.392 . S
C689 C693 1.495 . S
C690 C689 1.392 . S
C690 C691 1.385 . S
C690 C692 1.478 . S
C691 H685 0.930 . S
C691 C687 1.400 . S
C691 C690 1.385 . S
C692 C690 1.478 . S
C692 C694 1.381 . S
C692 C698 1.383 . S
C693 C689 1.495 . S
C693 H699 0.959 . S
C693 H700 0.961 . S
C693 H701 0.960 . S
C694 C692 1.381 . S
C694 C695 1.394 . S
C694 H702 0.930 . S
C695 C694 1.394 . S
C695 C696 1.383 . S
C695 H703 0.929 . S
C696 C695 1.383 . S
C696 C697 1.377 . S
C697 H681 0.930 . S
C697 C696 1.377 . S
C697 C698 1.379 . S
C698 H682 0.931 . S
C698 C692 1.383 . S
C698 C697 1.379 . S
H699 C693 0.959 . S
H700 C693 0.961 . S
H701 C693 0.960 . S
H702 C694 0.930 . S
H703 C695 0.929 . S
H704 C712 0.929 . S
H705 C714 0.930 . S
H706 C716 0.930 . S
H707 C719 0.929 . S
H708 C722 0.930 . S
H709 C724 0.960 . S
H710 C724 0.960 . S
H711 C724 0.960 . S
C712 H704 0.929 . S
C712 C713 1.377 . S
C712 C714 1.384 . S
C713 C712 1.377 . S
C713 C719 1.390 . S
C714 H705 0.930 . S
C714 C712 1.384 . S
C714 C715 1.372 . S
C715 C714 1.372 . S
C715 C716 1.400 . S
C715 C720 1.490 . S
C716 H706 0.930 . S
C716 C715 1.400 . S
C716 C719 1.386 . S
H717 C733 0.930 . S
H718 C734 0.931 . S
C719 H707 0.929 . S
C719 C713 1.390 . S
C719 C716 1.386 . S
C720 C715 1.490 . S
C720 C722 1.395 . S
C720 C723 1.403 . S
H721 C727 0.930 . S
C722 H708 0.930 . S
C722 C720 1.395 . S
C722 C725 1.403 . S
C723 C720 1.403 . S
C723 C724 1.524 . S
C723 C727 1.400 . S
C724 H709 0.960 . S
C724 H710 0.960 . S
C724 H711 0.960 . S
C724 C723 1.524 . S
C725 C722 1.403 . S
C725 C726 1.392 . S
C725 C729 1.495 . S
C726 C725 1.392 . S
C726 C727 1.385 . S
C726 C728 1.478 . S
C727 H721 0.930 . S
C727 C723 1.400 . S
C727 C726 1.385 . S
C728 C726 1.478 . S
C728 C730 1.381 . S
C728 C734 1.383 . S
C729 C725 1.495 . S
C729 H735 0.959 . S
C729 H736 0.961 . S
C729 H737 0.960 . S
C730 C728 1.381 . S
C730 C731 1.394 1_556 S
C730 H738 0.930 . S
C731 C730 1.394 1_554 S
C731 C732 1.383 . S
C731 H739 0.929 . S
C732 C731 1.383 . S
C732 C733 1.377 . S
C733 H717 0.930 . S
C733 C732 1.377 . S
C733 C734 1.379 1_554 S
C734 H718 0.931 . S
C734 C728 1.383 . S
C734 C733 1.379 1_556 S
H735 C729 0.959 . S
H736 C729 0.961 . S
H737 C729 0.960 . S
H738 C730 0.930 . S
H739 C731 0.929 . S
H740 C748 0.929 . S
H741 C750 0.930 . S
H742 C752 0.930 . S
H743 C755 0.929 . S
H744 C758 0.930 . S
H745 C760 0.960 . S
H746 C760 0.960 . S
H747 C760 0.960 . S
C748 H740 0.929 . S
C748 C749 1.377 . S
C748 C750 1.384 . S
C749 C748 1.377 . S
C749 C755 1.390 . S
C750 H741 0.930 . S
C750 C748 1.384 . S
C750 C751 1.372 . S
C751 C750 1.372 . S
C751 C752 1.400 . S
C751 C756 1.490 . S
C752 H742 0.930 . S
C752 C751 1.400 . S
C752 C755 1.386 . S
H753 C769 0.930 . S
H754 C770 0.931 . S
C755 H743 0.929 . S
C755 C749 1.390 . S
C755 C752 1.386 . S
C756 C751 1.490 . S
C756 C758 1.395 . S
C756 C759 1.403 . S
H757 C763 0.930 . S
C758 H744 0.930 . S
C758 C756 1.395 . S
C758 C761 1.403 . S
C759 C756 1.403 . S
C759 C760 1.524 . S
C759 C763 1.400 . S
C760 H745 0.960 . S
C760 H746 0.960 . S
C760 H747 0.960 . S
C760 C759 1.524 . S
C761 C758 1.403 . S
C761 C762 1.392 . S
C761 C765 1.495 . S
C762 C761 1.392 . S
C762 C763 1.385 . S
C762 C764 1.478 1_554 S
C763 H757 0.930 . S
C763 C759 1.400 . S
C763 C762 1.385 . S
C764 C762 1.478 1_556 S
C764 C766 1.381 . S
C764 C770 1.383 . S
C765 C761 1.495 . S
C765 H771 0.959 . S
C765 H772 0.961 . S
C765 H773 0.960 . S
C766 C764 1.381 . S
C766 C767 1.394 . S
C766 H774 0.930 . S
C767 C766 1.394 . S
C767 C768 1.383 . S
C767 H775 0.929 . S
C768 C767 1.383 . S
C768 C769 1.377 . S
C769 H753 0.930 . S
C769 C768 1.377 . S
C769 C770 1.379 . S
C770 H754 0.931 . S
C770 C764 1.383 . S
C770 C769 1.379 . S
H771 C765 0.959 . S
H772 C765 0.961 . S
H773 C765 0.960 . S
H774 C766 0.930 . S
H775 C767 0.929 . S
H776 C784 0.929 . S
H777 C786 0.930 . S
H778 C788 0.930 . S
H779 C791 0.929 . S
H780 C794 0.930 . S
H781 C796 0.960 . S
H782 C796 0.960 . S
H783 C796 0.960 . S
C784 H776 0.929 . S
C784 C785 1.377 . S
C784 C786 1.384 . S
C785 C784 1.377 . S
C785 C791 1.390 . S
C786 H777 0.930 . S
C786 C784 1.384 . S
C786 C787 1.372 . S
C787 C786 1.372 . S
C787 C788 1.400 . S
C787 C792 1.490 . S
C788 H778 0.930 . S
C788 C787 1.400 . S
C788 C791 1.386 . S
H789 C805 0.930 . S
H790 C806 0.931 . S
C791 H779 0.929 . S
C791 C785 1.390 . S
C791 C788 1.386 . S
C792 C787 1.490 . S
C792 C794 1.395 . S
C792 C795 1.403 . S
H793 C799 0.930 . S
C794 H780 0.930 . S
C794 C792 1.395 . S
C794 C797 1.403 . S
C795 C792 1.403 . S
C795 C796 1.524 . S
C795 C799 1.400 . S
C796 H781 0.960 . S
C796 H782 0.960 . S
C796 H783 0.960 . S
C796 C795 1.524 . S
C797 C794 1.403 . S
C797 C798 1.392 . S
C797 C801 1.495 . S
C798 C797 1.392 . S
C798 C799 1.385 . S
C798 C800 1.478 . S
C799 H793 0.930 . S
C799 C795 1.400 . S
C799 C798 1.385 . S
C800 C798 1.478 . S
C800 C802 1.381 . S
C800 C806 1.383 . S
C801 C797 1.495 . S
C801 H807 0.959 . S
C801 H808 0.961 . S
C801 H809 0.960 . S
C802 C800 1.381 . S
C802 C803 1.394 . S
C802 H810 0.930 . S
C803 C802 1.394 . S
C803 C804 1.383 . S
C803 H811 0.929 . S
C804 C803 1.383 . S
C804 C805 1.377 . S
C805 H789 0.930 . S
C805 C804 1.377 . S
C805 C806 1.379 . S
C806 H790 0.931 . S
C806 C800 1.383 . S
C806 C805 1.379 . S
H807 C801 0.959 . S
H808 C801 0.961 . S
H809 C801 0.960 . S
H810 C802 0.930 . S
H811 C803 0.929 . S
H812 C820 0.929 . S
H813 C822 0.930 . S
H814 C824 0.930 . S
H815 C827 0.929 . S
H816 C830 0.930 . S
H817 C832 0.960 . S
H818 C832 0.960 . S
H819 C832 0.960 . S
C820 H812 0.929 . S
C820 C821 1.377 . S
C820 C822 1.384 . S
C821 C820 1.377 . S
C821 C827 1.390 . S
C822 H813 0.930 . S
C822 C820 1.384 . S
C822 C823 1.372 . S
C823 C822 1.372 . S
C823 C824 1.400 . S
C823 C828 1.490 . S
C824 H814 0.930 . S
C824 C823 1.400 . S
C824 C827 1.386 . S
H825 C841 0.930 . S
H826 C842 0.931 . S
C827 H815 0.929 . S
C827 C821 1.390 . S
C827 C824 1.386 . S
C828 C823 1.490 . S
C828 C830 1.395 . S
C828 C831 1.403 . S
H829 C835 0.930 . S
C830 H816 0.930 . S
C830 C828 1.395 . S
C830 C833 1.403 . S
C831 C828 1.403 . S
C831 C832 1.524 . S
C831 C835 1.400 . S
C832 H817 0.960 . S
C832 H818 0.960 . S
C832 H819 0.960 . S
C832 C831 1.524 . S
C833 C830 1.403 . S
C833 C834 1.392 . S
C833 C837 1.495 . S
C834 C833 1.392 . S
C834 C835 1.385 . S
C834 C836 1.478 . S
C835 H829 0.930 . S
C835 C831 1.400 . S
C835 C834 1.385 . S
C836 C834 1.478 . S
C836 C838 1.381 . S
C836 C842 1.383 . S
C837 C833 1.495 . S
C837 H843 0.959 . S
C837 H844 0.961 . S
C837 H845 0.960 . S
C838 C836 1.381 . S
C838 C839 1.394 . S
C838 H846 0.930 . S
C839 C838 1.394 . S
C839 C840 1.383 . S
C839 H847 0.929 . S
C840 C839 1.383 . S
C840 C841 1.377 . S
C841 H825 0.930 . S
C841 C840 1.377 . S
C841 C842 1.379 . S
C842 H826 0.931 . S
C842 C836 1.383 . S
C842 C841 1.379 . S
H843 C837 0.959 . S
H844 C837 0.961 . S
H845 C837 0.960 . S
H846 C838 0.930 . S
H847 C839 0.929 . S
H848 C856 0.929 . S
H849 C858 0.930 . S
H850 C860 0.930 . S
H851 C863 0.929 . S
H852 C866 0.930 . S
H853 C868 0.960 . S
H854 C868 0.960 . S
H855 C868 0.960 . S
C856 H848 0.929 . S
C856 C857 1.377 . S
C856 C858 1.384 . S
C857 C856 1.377 . S
C857 C863 1.390 . S
C858 H849 0.930 . S
C858 C856 1.384 . S
C858 C859 1.372 . S
C859 C858 1.372 . S
C859 C860 1.400 . S
C859 C864 1.490 1_554 S
C860 H850 0.930 . S
C860 C859 1.400 . S
C860 C863 1.386 . S
H861 C877 0.930 . S
H862 C878 0.931 . S
C863 H851 0.929 . S
C863 C857 1.390 . S
C863 C860 1.386 . S
C864 C859 1.490 1_556 S
C864 C866 1.395 . S
C864 C867 1.403 . S
H865 C871 0.930 . S
C866 H852 0.930 . S
C866 C864 1.395 . S
C866 C869 1.403 . S
C867 C864 1.403 . S
C867 C868 1.524 . S
C867 C871 1.400 . S
C868 H853 0.960 . S
C868 H854 0.960 . S
C868 H855 0.960 . S
C868 C867 1.524 . S
C869 C866 1.403 . S
C869 C870 1.392 . S
C869 C873 1.495 . S
C870 C869 1.392 . S
C870 C871 1.385 . S
C870 C872 1.478 . S
C871 H865 0.930 . S
C871 C867 1.400 . S
C871 C870 1.385 . S
C872 C870 1.478 . S
C872 C874 1.381 . S
C872 C878 1.383 . S
C873 C869 1.495 . S
C873 H879 0.959 . S
C873 H880 0.961 . S
C873 H881 0.960 . S
C874 C872 1.381 . S
C874 C875 1.394 . S
C874 H882 0.930 . S
C875 C874 1.394 . S
C875 C876 1.383 . S
C875 H883 0.929 . S
C876 C875 1.383 . S
C876 C877 1.377 . S
C877 H861 0.930 . S
C877 C876 1.377 . S
C877 C878 1.379 . S
C878 H862 0.931 . S
C878 C872 1.383 . S
C878 C877 1.379 . S
H879 C873 0.959 . S
H880 C873 0.961 . S
H881 C873 0.960 . S
H882 C874 0.930 . S
H883 C875 0.929 . S
H884 C892 0.929 . S
H885 C894 0.930 . S
H886 C896 0.930 . S
H887 C899 0.929 . S
H888 C902 0.930 . S
H889 C904 0.960 . S
H890 C904 0.960 . S
H891 C904 0.960 . S
C892 H884 0.929 . S
C892 C893 1.377 . S
C892 C894 1.384 . S
C893 C892 1.377 . S
C893 C899 1.390 . S
C894 H885 0.930 . S
C894 C892 1.384 . S
C894 C895 1.372 . S
C895 C894 1.372 . S
C895 C896 1.400 . S
C895 C900 1.490 . S
C896 H886 0.930 . S
C896 C895 1.400 . S
C896 C899 1.386 . S
H897 C913 0.930 . S
H898 C914 0.931 . S
C899 H887 0.929 . S
C899 C893 1.390 . S
C899 C896 1.386 . S
C900 C895 1.490 . S
C900 C902 1.395 . S
C900 C903 1.403 . S
H901 C907 0.930 . S
C902 H888 0.930 . S
C902 C900 1.395 . S
C902 C905 1.403 . S
C903 C900 1.403 . S
C903 C904 1.524 . S
C903 C907 1.400 . S
C904 H889 0.960 . S
C904 H890 0.960 . S
C904 H891 0.960 . S
C904 C903 1.524 . S
C905 C902 1.403 . S
C905 C906 1.392 . S
C905 C909 1.495 . S
C906 C905 1.392 . S
C906 C907 1.385 . S
C906 C908 1.478 . S
C907 H901 0.930 . S
C907 C903 1.400 . S
C907 C906 1.385 . S
C908 C906 1.478 . S
C908 C910 1.381 . S
C908 C914 1.383 . S
C909 C905 1.495 . S
C909 H915 0.959 . S
C909 H916 0.961 . S
C909 H917 0.960 . S
C910 C908 1.381 . S
C910 C911 1.394 1_554 S
C910 H918 0.930 . S
C911 C910 1.394 1_556 S
C911 C912 1.383 . S
C911 H919 0.929 . S
C912 C911 1.383 . S
C912 C913 1.377 . S
C913 H897 0.930 . S
C913 C912 1.377 . S
C913 C914 1.379 1_556 S
C914 H898 0.931 . S
C914 C908 1.383 . S
C914 C913 1.379 1_554 S
H915 C909 0.959 . S
H916 C909 0.961 . S
H917 C909 0.960 . S
H918 C910 0.930 . S
H919 C911 0.929 . S
H920 C928 0.929 . S
H921 C930 0.930 . S
H922 C932 0.930 . S
H923 C935 0.929 . S
H924 C938 0.930 . S
H925 C940 0.960 . S
H926 C940 0.960 . S
H927 C940 0.960 . S
C928 H920 0.929 . S
C928 C929 1.377 . S
C928 C930 1.384 . S
C929 C928 1.377 . S
C929 C935 1.390 . S
C930 H921 0.930 . S
C930 C928 1.384 . S
C930 C931 1.372 . S
C931 C930 1.372 . S
C931 C932 1.400 . S
C931 C936 1.490 . S
C932 H922 0.930 . S
C932 C931 1.400 . S
C932 C935 1.386 . S
H933 C949 0.930 . S
H934 C950 0.931 . S
C935 H923 0.929 . S
C935 C929 1.390 . S
C935 C932 1.386 . S
C936 C931 1.490 . S
C936 C938 1.395 . S
C936 C939 1.403 . S
H937 C943 0.930 . S
C938 H924 0.930 . S
C938 C936 1.395 . S
C938 C941 1.403 . S
C939 C936 1.403 . S
C939 C940 1.524 . S
C939 C943 1.400 . S
C940 H925 0.960 . S
C940 H926 0.960 . S
C940 H927 0.960 . S
C940 C939 1.524 . S
C941 C938 1.403 . S
C941 C942 1.392 . S
C941 C945 1.495 . S
C942 C941 1.392 . S
C942 C943 1.385 . S
C942 C944 1.478 . S
C943 H937 0.930 . S
C943 C939 1.400 . S
C943 C942 1.385 . S
C944 C942 1.478 . S
C944 C946 1.381 . S
C944 C950 1.383 . S
C945 C941 1.495 . S
C945 H951 0.959 . S
C945 H952 0.961 . S
C945 H953 0.960 . S
C946 C944 1.381 . S
C946 C947 1.394 . S
C946 H954 0.930 . S
C947 C946 1.394 . S
C947 C948 1.383 . S
C947 H955 0.929 . S
C948 C947 1.383 . S
C948 C949 1.377 . S
C949 H933 0.930 . S
C949 C948 1.377 . S
C949 C950 1.379 . S
C950 H934 0.931 . S
C950 C944 1.383 . S
C950 C949 1.379 . S
H951 C945 0.959 . S
H952 C945 0.961 . S
H953 C945 0.960 . S
H954 C946 0.930 . S
H955 C947 0.929 . S
H956 C964 0.929 . S
H957 C966 0.930 . S
H958 C968 0.930 . S
H959 C971 0.929 . S
H960 C974 0.930 . S
H961 C976 0.960 . S
H962 C976 0.960 . S
H963 C976 0.960 . S
C964 H956 0.929 . S
C964 C965 1.377 . S
C964 C966 1.384 . S
C965 C964 1.377 . S
C965 C971 1.390 . S
C966 H957 0.930 . S
C966 C964 1.384 . S
C966 C967 1.372 . S
C967 C966 1.372 . S
C967 C968 1.400 . S
C967 C972 1.490 . S
C968 H958 0.930 . S
C968 C967 1.400 . S
C968 C971 1.386 . S
H969 C985 0.930 . S
H970 C986 0.931 . S
C971 H959 0.929 . S
C971 C965 1.390 . S
C971 C968 1.386 . S
C972 C967 1.490 . S
C972 C974 1.395 . S
C972 C975 1.403 . S
H973 C979 0.930 . S
C974 H960 0.930 . S
C974 C972 1.395 . S
C974 C977 1.403 . S
C975 C972 1.403 . S
C975 C976 1.524 . S
C975 C979 1.400 . S
C976 H961 0.960 . S
C976 H962 0.960 . S
C976 H963 0.960 . S
C976 C975 1.524 . S
C977 C974 1.403 . S
C977 C978 1.392 . S
C977 C981 1.495 . S
C978 C977 1.392 . S
C978 C979 1.385 . S
C978 C980 1.478 . S
C979 H973 0.930 . S
C979 C975 1.400 . S
C979 C978 1.385 . S
C980 C978 1.478 . S
C980 C982 1.381 . S
C980 C986 1.383 . S
C981 C977 1.495 . S
C981 H987 0.959 . S
C981 H988 0.961 . S
C981 H989 0.960 . S
C982 C980 1.381 . S
C982 C983 1.394 . S
C982 H990 0.930 . S
C983 C982 1.394 . S
C983 C984 1.383 . S
C983 H991 0.929 . S
C984 C983 1.383 . S
C984 C985 1.377 . S
C985 H969 0.930 . S
C985 C984 1.377 . S
C985 C986 1.379 . S
C986 H970 0.931 . S
C986 C980 1.383 . S
C986 C985 1.379 . S
H987 C981 0.959 . S
H988 C981 0.961 . S
H989 C981 0.960 . S
H990 C982 0.930 . S
H991 C983 0.929 . S
H992 C1000 0.929 . S
H993 C1002 0.930 . S
H994 C1004 0.930 . S
H995 C1007 0.929 . S
H996 C1010 0.930 . S
H997 C1012 0.960 . S
H998 C1012 0.960 . S
H999 C1012 0.960 . S
C1000 H992 0.929 . S
C1000 C1001 1.377 . S
C1000 C1002 1.384 . S
C1001 C1000 1.377 . S
C1001 C1007 1.390 . S
C1002 H993 0.930 . S
C1002 C1000 1.384 . S
C1002 C1003 1.372 . S
C1003 C1002 1.372 . S
C1003 C1004 1.400 . S
C1003 C1008 1.490 . S
C1004 H994 0.930 . S
C1004 C1003 1.400 . S
C1004 C1007 1.386 . S
H1005 C1021 0.930 . S
H1006 C1022 0.931 . S
C1007 H995 0.929 . S
C1007 C1001 1.390 . S
C1007 C1004 1.386 . S
C1008 C1003 1.490 . S
C1008 C1010 1.395 . S
C1008 C1011 1.403 . S
H1009 C1015 0.930 . S
C1010 H996 0.930 . S
C1010 C1008 1.395 . S
C1010 C1013 1.403 . S
C1011 C1008 1.403 . S
C1011 C1012 1.524 . S
C1011 C1015 1.400 . S
C1012 H997 0.960 . S
C1012 H998 0.960 . S
C1012 H999 0.960 . S
C1012 C1011 1.524 . S
C1013 C1010 1.403 . S
C1013 C1014 1.392 . S
C1013 C1017 1.495 . S
C1014 C1013 1.392 . S
C1014 C1015 1.385 . S
C1014 C1016 1.478 . S
C1015 H1009 0.930 . S
C1015 C1011 1.400 . S
C1015 C1014 1.385 . S
C1016 C1014 1.478 . S
C1016 C1018 1.381 . S
C1016 C1022 1.383 . S
C1017 C1013 1.495 . S
C1017 H1023 0.959 . S
C1017 H1024 0.961 . S
C1017 H1025 0.960 . S
C1018 C1016 1.381 . S
C1018 C1019 1.394 . S
C1018 H1026 0.930 . S
C1019 C1018 1.394 . S
C1019 C1020 1.383 . S
C1019 H1027 0.929 . S
C1020 C1019 1.383 . S
C1020 C1021 1.377 . S
C1021 H1005 0.930 . S
C1021 C1020 1.377 . S
C1021 C1022 1.379 . S
C1022 H1006 0.931 . S
C1022 C1016 1.383 . S
C1022 C1021 1.379 . S
H1023 C1017 0.959 . S
H1024 C1017 0.961 . S
H1025 C1017 0.960 . S
H1026 C1018 0.930 . S
H1027 C1019 0.929 . S
H1028 C1036 0.929 . S
H1029 C1038 0.930 . S
H1030 C1040 0.930 . S
H1031 C1043 0.929 . S
H1032 C1046 0.930 . S
H1033 C1048 0.960 . S
H1034 C1048 0.960 . S
H1035 C1048 0.960 . S
C1036 H1028 0.929 . S
C1036 C1037 1.377 . S
C1036 C1038 1.384 . S
C1037 C1036 1.377 . S
C1037 C1043 1.390 . S
C1038 H1029 0.930 . S
C1038 C1036 1.384 . S
C1038 C1039 1.372 . S
C1039 C1038 1.372 . S
C1039 C1040 1.400 . S
C1039 C1044 1.490 . S
C1040 H1030 0.930 . S
C1040 C1039 1.400 . S
C1040 C1043 1.386 . S
H1041 C1057 0.930 . S
H1042 C1058 0.931 . S
C1043 H1031 0.929 . S
C1043 C1037 1.390 . S
C1043 C1040 1.386 . S
C1044 C1039 1.490 . S
C1044 C1046 1.395 . S
C1044 C1047 1.403 . S
H1045 C1051 0.930 . S
C1046 H1032 0.930 . S
C1046 C1044 1.395 . S
C1046 C1049 1.403 . S
C1047 C1044 1.403 . S
C1047 C1048 1.524 . S
C1047 C1051 1.400 . S
C1048 H1033 0.960 . S
C1048 H1034 0.960 . S
C1048 H1035 0.960 . S
C1048 C1047 1.524 . S
C1049 C1046 1.403 . S
C1049 C1050 1.392 . S
C1049 C1053 1.495 . S
C1050 C1049 1.392 . S
C1050 C1051 1.385 . S
C1050 C1052 1.478 . S
C1051 H1045 0.930 . S
C1051 C1047 1.400 . S
C1051 C1050 1.385 . S
C1052 C1050 1.478 . S
C1052 C1054 1.381 . S
C1052 C1058 1.383 . S
C1053 C1049 1.495 . S
C1053 H1059 0.959 . S
C1053 H1060 0.961 . S
C1053 H1061 0.960 . S
C1054 C1052 1.381 . S
C1054 C1055 1.394 . S
C1054 H1062 0.930 . S
C1055 C1054 1.394 . S
C1055 C1056 1.383 . S
C1055 H1063 0.929 . S
C1056 C1055 1.383 . S
C1056 C1057 1.377 . S
C1057 H1041 0.930 . S
C1057 C1056 1.377 . S
C1057 C1058 1.379 . S
C1058 H1042 0.931 . S
C1058 C1052 1.383 . S
C1058 C1057 1.379 . S
H1059 C1053 0.959 . S
H1060 C1053 0.961 . S
H1061 C1053 0.960 . S
H1062 C1054 0.930 . S
H1063 C1055 0.929 . S
H1064 C1072 0.929 . S
H1065 C1074 0.930 . S
H1066 C1076 0.930 . S
H1067 C1079 0.929 . S
H1068 C1082 0.930 . S
H1069 C1084 0.960 . S
H1070 C1084 0.960 . S
H1071 C1084 0.960 . S
C1072 H1064 0.929 . S
C1072 C1073 1.377 . S
C1072 C1074 1.384 . S
C1073 C1072 1.377 . S
C1073 C1079 1.390 . S
C1074 H1065 0.930 . S
C1074 C1072 1.384 . S
C1074 C1075 1.372 . S
C1075 C1074 1.372 . S
C1075 C1076 1.400 . S
C1075 C1080 1.490 . S
C1076 H1066 0.930 . S
C1076 C1075 1.400 . S
C1076 C1079 1.386 . S
H1077 C1093 0.930 . S
H1078 C1094 0.931 . S
C1079 H1067 0.929 . S
C1079 C1073 1.390 . S
C1079 C1076 1.386 . S
C1080 C1075 1.490 . S
C1080 C1082 1.395 . S
C1080 C1083 1.403 1_556 S
H1081 C1087 0.930 . S
C1082 H1068 0.930 . S
C1082 C1080 1.395 . S
C1082 C1085 1.403 . S
C1083 C1080 1.403 1_554 S
C1083 C1084 1.524 . S
C1083 C1087 1.400 . S
C1084 H1069 0.960 . S
C1084 H1070 0.960 . S
C1084 H1071 0.960 . S
C1084 C1083 1.524 . S
C1085 C1082 1.403 . S
C1085 C1086 1.392 1_556 S
C1085 C1089 1.495 . S
C1086 C1085 1.392 1_554 S
C1086 C1087 1.385 . S
C1086 C1088 1.478 . S
C1087 H1081 0.930 . S
C1087 C1083 1.400 . S
C1087 C1086 1.385 . S
C1088 C1086 1.478 . S
C1088 C1090 1.381 . S
C1088 C1094 1.383 . S
C1089 C1085 1.495 . S
C1089 H1095 0.959 . S
C1089 H1096 0.961 . S
C1089 H1097 0.960 . S
C1090 C1088 1.381 . S
C1090 C1091 1.394 . S
C1090 H1098 0.930 . S
C1091 C1090 1.394 . S
C1091 C1092 1.383 . S
C1091 H1099 0.929 . S
C1092 C1091 1.383 . S
C1092 C1093 1.377 . S
C1093 H1077 0.930 . S
C1093 C1092 1.377 . S
C1093 C1094 1.379 . S
C1094 H1078 0.931 . S
C1094 C1088 1.383 . S
C1094 C1093 1.379 . S
H1095 C1089 0.959 . S
H1096 C1089 0.961 . S
H1097 C1089 0.960 . S
H1098 C1090 0.930 . S
H1099 C1091 0.929 . S
H1100 C1108 0.929 . S
H1101 C1110 0.930 . S
H1102 C1112 0.930 . S
H1103 C1115 0.929 . S
H1104 C1118 0.930 . S
H1105 C1120 0.960 . S
H1106 C1120 0.960 . S
H1107 C1120 0.960 . S
C1108 H1100 0.929 . S
C1108 C1109 1.377 . S
C1108 C1110 1.384 . S
C1109 C1108 1.377 . S
C1109 C1115 1.390 . S
C1110 H1101 0.930 . S
C1110 C1108 1.384 . S
C1110 C1111 1.372 . S
C1111 C1110 1.372 . S
C1111 C1112 1.400 . S
C1111 C1116 1.490 . S
C1112 H1102 0.930 . S
C1112 C1111 1.400 . S
C1112 C1115 1.386 . S
H1113 C1129 0.930 . S
H1114 C1130 0.931 . S
C1115 H1103 0.929 . S
C1115 C1109 1.390 . S
C1115 C1112 1.386 . S
C1116 C1111 1.490 . S
C1116 C1118 1.395 . S
C1116 C1119 1.403 . S
H1117 C1123 0.930 . S
C1118 H1104 0.930 . S
C1118 C1116 1.395 . S
C1118 C1121 1.403 . S
C1119 C1116 1.403 . S
C1119 C1120 1.524 . S
C1119 C1123 1.400 . S
C1120 H1105 0.960 . S
C1120 H1106 0.960 . S
C1120 H1107 0.960 . S
C1120 C1119 1.524 . S
C1121 C1118 1.403 . S
C1121 C1122 1.392 . S
C1121 C1125 1.495 . S
C1122 C1121 1.392 . S
C1122 C1123 1.385 . S
C1122 C1124 1.478 . S
C1123 H1117 0.930 . S
C1123 C1119 1.400 . S
C1123 C1122 1.385 . S
C1124 C1122 1.478 . S
C1124 C1126 1.381 . S
C1124 C1130 1.383 . S
C1125 C1121 1.495 . S
C1125 H1131 0.959 . S
C1125 H1132 0.961 . S
C1125 H1133 0.960 . S
C1126 C1124 1.381 . S
C1126 C1127 1.394 . S
C1126 H1134 0.930 . S
C1127 C1126 1.394 . S
C1127 C1128 1.383 . S
C1127 H1135 0.929 . S
C1128 C1127 1.383 . S
C1128 C1129 1.377 . S
C1129 H1113 0.930 . S
C1129 C1128 1.377 . S
C1129 C1130 1.379 . S
C1130 H1114 0.931 . S
C1130 C1124 1.383 . S
C1130 C1129 1.379 . S
H1131 C1125 0.959 . S
H1132 C1125 0.961 . S
H1133 C1125 0.960 . S
H1134 C1126 0.930 . S
H1135 C1127 0.929 . S
H1136 C1144 0.929 . S
H1137 C1146 0.930 . S
H1138 C1148 0.930 . S
H1139 C1151 0.929 . S
H1140 C1154 0.930 . S
H1141 C1156 0.960 . S
H1142 C1156 0.960 . S
H1143 C1156 0.960 . S
C1144 H1136 0.929 . S
C1144 C1145 1.377 . S
C1144 C1146 1.384 . S
C1145 C1144 1.377 . S
C1145 C1151 1.390 . S
C1146 H1137 0.930 . S
C1146 C1144 1.384 . S
C1146 C1147 1.372 . S
C1147 C1146 1.372 . S
C1147 C1148 1.400 . S
C1147 C1152 1.490 . S
C1148 H1138 0.930 . S
C1148 C1147 1.400 . S
C1148 C1151 1.386 . S
H1149 C1165 0.930 . S
H1150 C1166 0.931 . S
C1151 H1139 0.929 . S
C1151 C1145 1.390 . S
C1151 C1148 1.386 . S
C1152 C1147 1.490 . S
C1152 C1154 1.395 . S
C1152 C1155 1.403 . S
H1153 C1159 0.930 . S
C1154 H1140 0.930 . S
C1154 C1152 1.395 . S
C1154 C1157 1.403 . S
C1155 C1152 1.403 . S
C1155 C1156 1.524 . S
C1155 C1159 1.400 . S
C1156 H1141 0.960 . S
C1156 H1142 0.960 . S
C1156 H1143 0.960 . S
C1156 C1155 1.524 . S
C1157 C1154 1.403 . S
C1157 C1158 1.392 . S
C1157 C1161 1.495 . S
C1158 C1157 1.392 . S
C1158 C1159 1.385 . S
C1158 C1160 1.478 . S
C1159 H1153 0.930 . S
C1159 C1155 1.400 . S
C1159 C1158 1.385 . S
C1160 C1158 1.478 . S
C1160 C1162 1.381 . S
C1160 C1166 1.383 . S
C1161 C1157 1.495 . S
C1161 H1167 0.959 . S
C1161 H1168 0.961 . S
C1161 H1169 0.960 . S
C1162 C1160 1.381 . S
C1162 C1163 1.394 . S
C1162 H1170 0.930 . S
C1163 C1162 1.394 . S
C1163 C1164 1.383 . S
C1163 H1171 0.929 . S
C1164 C1163 1.383 . S
C1164 C1165 1.377 . S
C1165 H1149 0.930 . S
C1165 C1164 1.377 . S
C1165 C1166 1.379 . S
C1166 H1150 0.931 . S
C1166 C1160 1.383 . S
C1166 C1165 1.379 . S
H1167 C1161 0.959 . S
H1168 C1161 0.961 . S
H1169 C1161 0.960 . S
H1170 C1162 0.930 . S
H1171 C1163 0.929 . S
H1172 C1180 0.929 . S
H1173 C1182 0.930 . S
H1174 C1184 0.930 . S
H1175 C1187 0.929 . S
H1176 C1190 0.930 . S
H1177 C1192 0.960 . S
H1178 C1192 0.960 . S
H1179 C1192 0.960 . S
C1180 H1172 0.929 . S
C1180 C1181 1.377 . S
C1180 C1182 1.384 . S
C1181 C1180 1.377 . S
C1181 C1187 1.390 . S
C1182 H1173 0.930 . S
C1182 C1180 1.384 . S
C1182 C1183 1.372 . S
C1183 C1182 1.372 . S
C1183 C1184 1.400 . S
C1183 C1188 1.490 . S
C1184 H1174 0.930 . S
C1184 C1183 1.400 . S
C1184 C1187 1.386 . S
H1185 C1201 0.930 . S
H1186 C1202 0.931 . S
C1187 H1175 0.929 . S
C1187 C1181 1.390 . S
C1187 C1184 1.386 . S
C1188 C1183 1.490 . S
C1188 C1190 1.395 . S
C1188 C1191 1.403 . S
H1189 C1195 0.930 . S
C1190 H1176 0.930 . S
C1190 C1188 1.395 . S
C1190 C1193 1.403 . S
C1191 C1188 1.403 . S
C1191 C1192 1.524 . S
C1191 C1195 1.400 . S
C1192 H1177 0.960 . S
C1192 H1178 0.960 . S
C1192 H1179 0.960 . S
C1192 C1191 1.524 . S
C1193 C1190 1.403 . S
C1193 C1194 1.392 . S
C1193 C1197 1.495 . S
C1194 C1193 1.392 . S
C1194 C1195 1.385 . S
C1194 C1196 1.478 . S
C1195 H1189 0.930 . S
C1195 C1191 1.400 . S
C1195 C1194 1.385 . S
C1196 C1194 1.478 . S
C1196 C1198 1.381 . S
C1196 C1202 1.383 . S
C1197 C1193 1.495 . S
C1197 H1203 0.959 . S
C1197 H1204 0.961 . S
C1197 H1205 0.960 . S
C1198 C1196 1.381 . S
C1198 C1199 1.394 . S
C1198 H1206 0.930 . S
C1199 C1198 1.394 . S
C1199 C1200 1.383 . S
C1199 H1207 0.929 . S
C1200 C1199 1.383 . S
C1200 C1201 1.377 . S
C1201 H1185 0.930 . S
C1201 C1200 1.377 . S
C1201 C1202 1.379 . S
C1202 H1186 0.931 . S
C1202 C1196 1.383 . S
C1202 C1201 1.379 . S
H1203 C1197 0.959 . S
H1204 C1197 0.961 . S
H1205 C1197 0.960 . S
H1206 C1198 0.930 . S
H1207 C1199 0.929 . S
H1208 C1216 0.929 . S
H1209 C1218 0.930 . S
H1210 C1220 0.930 . S
H1211 C1223 0.929 . S
H1212 C1226 0.930 . S
H1213 C1228 0.960 . S
H1214 C1228 0.960 . S
H1215 C1228 0.960 . S
C1216 H1208 0.929 . S
C1216 C1217 1.377 . S
C1216 C1218 1.384 . S
C1217 C1216 1.377 . S
C1217 C1223 1.390 . S
C1218 H1209 0.930 . S
C1218 C1216 1.384 . S
C1218 C1219 1.372 . S
C1219 C1218 1.372 . S
C1219 C1220 1.400 . S
C1219 C1224 1.490 . S
C1220 H1210 0.930 . S
C1220 C1219 1.400 . S
C1220 C1223 1.386 . S
H1221 C1237 0.930 . S
H1222 C1238 0.931 . S
C1223 H1211 0.929 . S
C1223 C1217 1.390 . S
C1223 C1220 1.386 . S
C1224 C1219 1.490 . S
C1224 C1226 1.395 . S
C1224 C1227 1.403 . S
H1225 C1231 0.930 . S
C1226 H1212 0.930 . S
C1226 C1224 1.395 . S
C1226 C1229 1.403 . S
C1227 C1224 1.403 . S
C1227 C1228 1.524 . S
C1227 C1231 1.400 . S
C1228 H1213 0.960 . S
C1228 H1214 0.960 . S
C1228 H1215 0.960 . S
C1228 C1227 1.524 . S
C1229 C1226 1.403 . S
C1229 C1230 1.392 . S
C1229 C1233 1.495 . S
C1230 C1229 1.392 . S
C1230 C1231 1.385 . S
C1230 C1232 1.478 . S
C1231 H1225 0.930 . S
C1231 C1227 1.400 . S
C1231 C1230 1.385 . S
C1232 C1230 1.478 . S
C1232 C1234 1.381 . S
C1232 C1238 1.383 . S
C1233 C1229 1.495 . S
C1233 H1239 0.959 . S
C1233 H1240 0.961 . S
C1233 H1241 0.960 . S
C1234 C1232 1.381 . S
C1234 C1235 1.394 . S
C1234 H1242 0.930 . S
C1235 C1234 1.394 . S
C1235 C1236 1.383 . S
C1235 H1243 0.929 . S
C1236 C1235 1.383 . S
C1236 C1237 1.377 . S
C1237 H1221 0.930 . S
C1237 C1236 1.377 . S
C1237 C1238 1.379 . S
C1238 H1222 0.931 . S
C1238 C1232 1.383 . S
C1238 C1237 1.379 . S
H1239 C1233 0.959 . S
H1240 C1233 0.961 . S
H1241 C1233 0.960 . S
H1242 C1234 0.930 . S
H1243 C1235 0.929 . S
H1244 C1252 0.929 . S
H1245 C1254 0.930 . S
H1246 C1256 0.930 . S
H1247 C1259 0.929 . S
H1248 C1262 0.930 . S
H1249 C1264 0.960 . S
H1250 C1264 0.960 . S
H1251 C1264 0.960 . S
C1252 H1244 0.929 . S
C1252 C1253 1.377 . S
C1252 C1254 1.384 . S
C1253 C1252 1.377 . S
C1253 C1259 1.390 . S
C1254 H1245 0.930 . S
C1254 C1252 1.384 . S
C1254 C1255 1.372 . S
C1255 C1254 1.372 . S
C1255 C1256 1.400 . S
C1255 C1260 1.490 . S
C1256 H1246 0.930 . S
C1256 C1255 1.400 . S
C1256 C1259 1.386 . S
H1257 C1273 0.930 . S
H1258 C1274 0.931 1_556 S
C1259 H1247 0.929 . S
C1259 C1253 1.390 . S
C1259 C1256 1.386 . S
C1260 C1255 1.490 . S
C1260 C1262 1.395 . S
C1260 C1263 1.403 1_556 S
H1261 C1267 0.930 . S
C1262 H1248 0.930 . S
C1262 C1260 1.395 . S
C1262 C1265 1.403 . S
C1263 C1260 1.403 1_554 S
C1263 C1264 1.524 . S
C1263 C1267 1.400 . S
C1264 H1249 0.960 . S
C1264 H1250 0.960 . S
C1264 H1251 0.960 . S
C1264 C1263 1.524 . S
C1265 C1262 1.403 . S
C1265 C1266 1.392 1_556 S
C1265 C1269 1.495 . S
C1266 C1265 1.392 1_554 S
C1266 C1267 1.385 . S
C1266 C1268 1.478 . S
C1267 H1261 0.930 . S
C1267 C1263 1.400 . S
C1267 C1266 1.385 . S
C1268 C1266 1.478 . S
C1268 C1270 1.381 . S
C1268 C1274 1.383 . S
C1269 C1265 1.495 . S
C1269 H1275 0.959 . S
C1269 H1276 0.961 . S
C1269 H1277 0.960 . S
C1270 C1268 1.381 . S
C1270 C1271 1.394 . S
C1270 H1278 0.930 . S
C1271 C1270 1.394 . S
C1271 C1272 1.383 . S
C1271 H1279 0.929 . S
C1272 C1271 1.383 . S
C1272 C1273 1.377 . S
C1273 H1257 0.930 . S
C1273 C1272 1.377 . S
C1273 C1274 1.379 . S
C1274 H1258 0.931 1_554 S
C1274 C1268 1.383 . S
C1274 C1273 1.379 . S
H1275 C1269 0.959 . S
H1276 C1269 0.961 . S
H1277 C1269 0.960 . S
H1278 C1270 0.930 . S
H1279 C1271 0.929 . S
C281 C15 1.699 . S
C300 C51 1.746 . S
C317 C85 1.629 1_455 S
C336 C56 1.583 . S
C353 C119 1.587 1_556 S
C372 C83 1.520 . S
C389 C17 1.800 1_655 S
C408 C117 1.779 . S
C425 C151 1.573 . S
C444 C255 1.617 1_545 S
C461 C192 1.702 . S
C480 C153 1.732 . S
C497 C187 1.799 1_565 S
C516 C219 1.788 . S
C533 C253 1.514 . S
C552 C221 1.587 1_554 S
C569 C173 2.686 . S
C588 C1 2.681 . S
C605 C205 2.435 . S
C624 C37 2.425 . S
C641 C69 2.689 . S
C660 C239 2.688 . S
C677 C137 2.440 . S
C696 C103 2.433 . S
C713 C28 1.158 . S
C732 C6 1.154 . S
C749 C62 1.160 . S
C768 C40 1.149 . S
C785 C74 1.166 . S
C804 C96 1.170 . S
C821 C130 1.164 . S
C840 C108 1.166 . S
C857 C164 1.159 . S
C876 C142 1.159 . S
C893 C176 1.155 . S
C912 C198 1.160 . S
C929 C210 1.166 . S
C948 C232 1.165 . S
C965 C266 1.167 . S
C984 C244 1.158 . S
C1001 C171 1.183 . S
C1020 C3 1.124 . S
C1037 C207 1.300 . S
C1056 C35 1.265 . S
C1073 C71 1.070 . S
C1092 C241 1.118 . S
C1109 C139 1.300 . S
C1128 C105 1.254 . S
C1145 C22 1.456 . S
C1164 C260 1.496 . S
C1181 C158 1.415 . S
C1200 C49 1.421 . S
C1217 C185 1.448 . S
C1236 C90 1.477 . S
C1253 C124 1.721 . S
C1272 C226 1.701 . S
