# Generated by pormake.
# Topology son, (6)-cn, num edge types: 1
# Building blocks:
#     Node 0, Type 0, BuildingBlock: CUKXOW_clean_sbu_0, # of connection points: 6
#     Node 1, Type 0, BuildingBlock: CUKXOW_clean_sbu_0, # of connection points: 6
#     Node 2, Type 0, BuildingBlock: CUKXOW_clean_sbu_0, # of connection points: 6
#     Node 3, Type 0, BuildingBlock: CUKXOW_clean_sbu_0, # of connection points: 6
#     Node 4, Type 0, BuildingBlock: CUKXOW_clean_sbu_0, # of connection points: 6
#     Node 5, Type 0, BuildingBlock: CUKXOW_clean_sbu_0, # of connection points: 6
#     Node 6, Type 0, BuildingBlock: CUKXOW_clean_sbu_0, # of connection points: 6
#     Node 7, Type 0, BuildingBlock: CUKXOW_clean_sbu_0, # of connection points: 6
#     Node 8, Type 0, BuildingBlock: CUKXOW_clean_sbu_0, # of connection points: 6
#     Node 9, Type 0, BuildingBlock: CUKXOW_clean_sbu_0, # of connection points: 6
#     Node 10, Type 0, BuildingBlock: CUKXOW_clean_sbu_0, # of connection points: 6
#     Node 11, Type 0, BuildingBlock: CUKXOW_clean_sbu_0, # of connection points: 6
#     Node 12, Type 0, BuildingBlock: CUKXOW_clean_sbu_0, # of connection points: 6
#     Node 13, Type 0, BuildingBlock: CUKXOW_clean_sbu_0, # of connection points: 6
#     Node 14, Type 0, BuildingBlock: CUKXOW_clean_sbu_0, # of connection points: 6
#     Node 15, Type 0, BuildingBlock: CUKXOW_clean_sbu_0, # of connection points: 6
#     Node 16, Type 0, BuildingBlock: CUKXOW_clean_sbu_0, # of connection points: 6
#     Node 17, Type 0, BuildingBlock: CUKXOW_clean_sbu_0, # of connection points: 6
#     Node 18, Type 0, BuildingBlock: CUKXOW_clean_sbu_0, # of connection points: 6
#     Node 19, Type 0, BuildingBlock: CUKXOW_clean_sbu_0, # of connection points: 6
#     Node 20, Type 0, BuildingBlock: CUKXOW_clean_sbu_0, # of connection points: 6
#     Node 21, Type 0, BuildingBlock: CUKXOW_clean_sbu_0, # of connection points: 6
#     Node 22, Type 0, BuildingBlock: CUKXOW_clean_sbu_0, # of connection points: 6
#     Node 23, Type 0, BuildingBlock: CUKXOW_clean_sbu_0, # of connection points: 6
#     Node 24, Type 0, BuildingBlock: CUKXOW_clean_sbu_0, # of connection points: 6
#     Node 25, Type 0, BuildingBlock: CUKXOW_clean_sbu_0, # of connection points: 6
#     Node 26, Type 0, BuildingBlock: CUKXOW_clean_sbu_0, # of connection points: 6
#     Node 27, Type 0, BuildingBlock: CUKXOW_clean_sbu_0, # of connection points: 6
#     Node 28, Type 0, BuildingBlock: CUKXOW_clean_sbu_0, # of connection points: 6
#     Node 29, Type 0, BuildingBlock: CUKXOW_clean_sbu_0, # of connection points: 6
#     Node 30, Type 0, BuildingBlock: CUKXOW_clean_sbu_0, # of connection points: 6
#     Node 31, Type 0, BuildingBlock: CUKXOW_clean_sbu_0, # of connection points: 6
#     Edge 32, Type (0, 0), BuildingBlock: EZIPEK_clean_linker_0, # of connection points: 2
#     Edge 33, Type (0, 0), BuildingBlock: EZIPEK_clean_linker_0, # of connection points: 2
#     Edge 34, Type (0, 0), BuildingBlock: EZIPEK_clean_linker_0, # of connection points: 2
#     Edge 35, Type (0, 0), BuildingBlock: EZIPEK_clean_linker_0, # of connection points: 2
#     Edge 36, Type (0, 0), BuildingBlock: EZIPEK_clean_linker_0, # of connection points: 2
#     Edge 37, Type (0, 0), BuildingBlock: EZIPEK_clean_linker_0, # of connection points: 2
#     Edge 38, Type (0, 0), BuildingBlock: EZIPEK_clean_linker_0, # of connection points: 2
#     Edge 39, Type (0, 0), BuildingBlock: EZIPEK_clean_linker_0, # of connection points: 2
#     Edge 40, Type (0, 0), BuildingBlock: EZIPEK_clean_linker_0, # of connection points: 2
#     Edge 41, Type (0, 0), BuildingBlock: EZIPEK_clean_linker_0, # of connection points: 2
#     Edge 42, Type (0, 0), BuildingBlock: EZIPEK_clean_linker_0, # of connection points: 2
#     Edge 43, Type (0, 0), BuildingBlock: EZIPEK_clean_linker_0, # of connection points: 2
#     Edge 44, Type (0, 0), BuildingBlock: EZIPEK_clean_linker_0, # of connection points: 2
#     Edge 45, Type (0, 0), BuildingBlock: EZIPEK_clean_linker_0, # of connection points: 2
#     Edge 46, Type (0, 0), BuildingBlock: EZIPEK_clean_linker_0, # of connection points: 2
#     Edge 47, Type (0, 0), BuildingBlock: EZIPEK_clean_linker_0, # of connection points: 2
#     Edge 48, Type (0, 0), BuildingBlock: EZIPEK_clean_linker_0, # of connection points: 2
#     Edge 49, Type (0, 0), BuildingBlock: EZIPEK_clean_linker_0, # of connection points: 2
#     Edge 50, Type (0, 0), BuildingBlock: EZIPEK_clean_linker_0, # of connection points: 2
#     Edge 51, Type (0, 0), BuildingBlock: EZIPEK_clean_linker_0, # of connection points: 2
#     Edge 52, Type (0, 0), BuildingBlock: EZIPEK_clean_linker_0, # of connection points: 2
#     Edge 53, Type (0, 0), BuildingBlock: EZIPEK_clean_linker_0, # of connection points: 2
#     Edge 54, Type (0, 0), BuildingBlock: EZIPEK_clean_linker_0, # of connection points: 2
#     Edge 55, Type (0, 0), BuildingBlock: EZIPEK_clean_linker_0, # of connection points: 2
#     Edge 56, Type (0, 0), BuildingBlock: EZIPEK_clean_linker_0, # of connection points: 2
#     Edge 57, Type (0, 0), BuildingBlock: EZIPEK_clean_linker_0, # of connection points: 2
#     Edge 58, Type (0, 0), BuildingBlock: EZIPEK_clean_linker_0, # of connection points: 2
#     Edge 59, Type (0, 0), BuildingBlock: EZIPEK_clean_linker_0, # of connection points: 2
#     Edge 60, Type (0, 0), BuildingBlock: EZIPEK_clean_linker_0, # of connection points: 2
#     Edge 61, Type (0, 0), BuildingBlock: EZIPEK_clean_linker_0, # of connection points: 2
#     Edge 62, Type (0, 0), BuildingBlock: EZIPEK_clean_linker_0, # of connection points: 2
#     Edge 63, Type (0, 0), BuildingBlock: EZIPEK_clean_linker_0, # of connection points: 2
#     Edge 64, Type (0, 0), BuildingBlock: EZIPEK_clean_linker_0, # of connection points: 2
#     Edge 65, Type (0, 0), BuildingBlock: EZIPEK_clean_linker_0, # of connection points: 2
#     Edge 66, Type (0, 0), BuildingBlock: EZIPEK_clean_linker_0, # of connection points: 2
#     Edge 67, Type (0, 0), BuildingBlock: EZIPEK_clean_linker_0, # of connection points: 2
#     Edge 68, Type (0, 0), BuildingBlock: EZIPEK_clean_linker_0, # of connection points: 2
#     Edge 69, Type (0, 0), BuildingBlock: EZIPEK_clean_linker_0, # of connection points: 2
#     Edge 70, Type (0, 0), BuildingBlock: EZIPEK_clean_linker_0, # of connection points: 2
#     Edge 71, Type (0, 0), BuildingBlock: EZIPEK_clean_linker_0, # of connection points: 2
#     Edge 72, Type (0, 0), BuildingBlock: EZIPEK_clean_linker_0, # of connection points: 2
#     Edge 73, Type (0, 0), BuildingBlock: EZIPEK_clean_linker_0, # of connection points: 2
#     Edge 74, Type (0, 0), BuildingBlock: EZIPEK_clean_linker_0, # of connection points: 2
#     Edge 75, Type (0, 0), BuildingBlock: EZIPEK_clean_linker_0, # of connection points: 2
#     Edge 76, Type (0, 0), BuildingBlock: EZIPEK_clean_linker_0, # of connection points: 2
#     Edge 77, Type (0, 0), BuildingBlock: EZIPEK_clean_linker_0, # of connection points: 2
#     Edge 78, Type (0, 0), BuildingBlock: EZIPEK_clean_linker_0, # of connection points: 2
#     Edge 79, Type (0, 0), BuildingBlock: EZIPEK_clean_linker_0, # of connection points: 2
#     Edge 80, Type (0, 0), BuildingBlock: EZIPEK_clean_linker_0, # of connection points: 2
#     Edge 81, Type (0, 0), BuildingBlock: EZIPEK_clean_linker_0, # of connection points: 2
#     Edge 82, Type (0, 0), BuildingBlock: EZIPEK_clean_linker_0, # of connection points: 2
#     Edge 83, Type (0, 0), BuildingBlock: EZIPEK_clean_linker_0, # of connection points: 2
#     Edge 84, Type (0, 0), BuildingBlock: EZIPEK_clean_linker_0, # of connection points: 2
#     Edge 85, Type (0, 0), BuildingBlock: EZIPEK_clean_linker_0, # of connection points: 2
#     Edge 86, Type (0, 0), BuildingBlock: EZIPEK_clean_linker_0, # of connection points: 2
#     Edge 87, Type (0, 0), BuildingBlock: EZIPEK_clean_linker_0, # of connection points: 2
#     Edge 88, Type (0, 0), BuildingBlock: EZIPEK_clean_linker_0, # of connection points: 2
#     Edge 89, Type (0, 0), BuildingBlock: EZIPEK_clean_linker_0, # of connection points: 2
#     Edge 90, Type (0, 0), BuildingBlock: EZIPEK_clean_linker_0, # of connection points: 2
#     Edge 91, Type (0, 0), BuildingBlock: EZIPEK_clean_linker_0, # of connection points: 2
#     Edge 92, Type (0, 0), BuildingBlock: EZIPEK_clean_linker_0, # of connection points: 2
#     Edge 93, Type (0, 0), BuildingBlock: EZIPEK_clean_linker_0, # of connection points: 2
#     Edge 94, Type (0, 0), BuildingBlock: EZIPEK_clean_linker_0, # of connection points: 2
#     Edge 95, Type (0, 0), BuildingBlock: EZIPEK_clean_linker_0, # of connection points: 2
#     Edge 96, Type (0, 0), BuildingBlock: EZIPEK_clean_linker_0, # of connection points: 2
#     Edge 97, Type (0, 0), BuildingBlock: EZIPEK_clean_linker_0, # of connection points: 2
#     Edge 98, Type (0, 0), BuildingBlock: EZIPEK_clean_linker_0, # of connection points: 2
#     Edge 99, Type (0, 0), BuildingBlock: EZIPEK_clean_linker_0, # of connection points: 2
#     Edge 100, Type (0, 0), BuildingBlock: EZIPEK_clean_linker_0, # of connection points: 2
#     Edge 101, Type (0, 0), BuildingBlock: EZIPEK_clean_linker_0, # of connection points: 2
#     Edge 102, Type (0, 0), BuildingBlock: EZIPEK_clean_linker_0, # of connection points: 2
#     Edge 103, Type (0, 0), BuildingBlock: EZIPEK_clean_linker_0, # of connection points: 2
#     Edge 104, Type (0, 0), BuildingBlock: EZIPEK_clean_linker_0, # of connection points: 2
#     Edge 105, Type (0, 0), BuildingBlock: EZIPEK_clean_linker_0, # of connection points: 2
#     Edge 106, Type (0, 0), BuildingBlock: EZIPEK_clean_linker_0, # of connection points: 2
#     Edge 107, Type (0, 0), BuildingBlock: EZIPEK_clean_linker_0, # of connection points: 2
#     Edge 108, Type (0, 0), BuildingBlock: EZIPEK_clean_linker_0, # of connection points: 2
#     Edge 109, Type (0, 0), BuildingBlock: EZIPEK_clean_linker_0, # of connection points: 2
#     Edge 110, Type (0, 0), BuildingBlock: EZIPEK_clean_linker_0, # of connection points: 2
#     Edge 111, Type (0, 0), BuildingBlock: EZIPEK_clean_linker_0, # of connection points: 2
#     Edge 112, Type (0, 0), BuildingBlock: EZIPEK_clean_linker_0, # of connection points: 2
#     Edge 113, Type (0, 0), BuildingBlock: EZIPEK_clean_linker_0, # of connection points: 2
#     Edge 114, Type (0, 0), BuildingBlock: EZIPEK_clean_linker_0, # of connection points: 2
#     Edge 115, Type (0, 0), BuildingBlock: EZIPEK_clean_linker_0, # of connection points: 2
#     Edge 116, Type (0, 0), BuildingBlock: EZIPEK_clean_linker_0, # of connection points: 2
#     Edge 117, Type (0, 0), BuildingBlock: EZIPEK_clean_linker_0, # of connection points: 2
#     Edge 118, Type (0, 0), BuildingBlock: EZIPEK_clean_linker_0, # of connection points: 2
#     Edge 119, Type (0, 0), BuildingBlock: EZIPEK_clean_linker_0, # of connection points: 2
#     Edge 120, Type (0, 0), BuildingBlock: EZIPEK_clean_linker_0, # of connection points: 2
#     Edge 121, Type (0, 0), BuildingBlock: EZIPEK_clean_linker_0, # of connection points: 2
#     Edge 122, Type (0, 0), BuildingBlock: EZIPEK_clean_linker_0, # of connection points: 2
#     Edge 123, Type (0, 0), BuildingBlock: EZIPEK_clean_linker_0, # of connection points: 2
#     Edge 124, Type (0, 0), BuildingBlock: EZIPEK_clean_linker_0, # of connection points: 2
#     Edge 125, Type (0, 0), BuildingBlock: EZIPEK_clean_linker_0, # of connection points: 2
#     Edge 126, Type (0, 0), BuildingBlock: EZIPEK_clean_linker_0, # of connection points: 2
#     Edge 127, Type (0, 0), BuildingBlock: EZIPEK_clean_linker_0, # of connection points: 2
# Relax obj value: 0.063
# Max RMSD: 0.132
# Mean RMSD: 0.132
data_MOF--net-son--node1-CUKXOW_clean_sbu_0--edge1-EZIPEK_clean_linker_0
_symmetry_space_group_name_H-M    P1
_symmetry_Int_Tables_number       1
_symmetry_cell_setting            triclinic
loop_
_symmetry_equiv_pos_as_xyz
'x, y, z'
_cell_length_a     106.8526
_cell_length_b     43.894966
_cell_length_c     10.752765
_cell_angle_alpha  90.099491
_cell_angle_beta   90.029661
_cell_angle_gamma 89.926064
loop_
_atom_site_label
_atom_site_type_symbol
_atom_site_fract_x
_atom_site_fract_y
_atom_site_fract_z
_atom_type_partial_charge
Tb0 Tb 0.30055 0.25503 0.24395 0.0
C1 C 0.31477 0.31637 0.2855 0.0
Tb2 Tb 0.32782 0.25164 0.24959 0.0
O3 O 0.29843 0.2682 0.43977 0.0
O4 O 0.31372 0.2423 0.38692 0.0
O5 O 0.30398 0.30373 0.2546 0.0
C6 C 0.35187 0.25274 0.31988 0.0
O7 O 0.325 0.29958 0.2958 0.0
C8 C 0.31852 0.24851 1.01887 0.0
C9 C 0.31397 0.19048 0.21302 0.0
O10 O 0.34734 0.26591 0.22167 0.0
O11 O 0.34288 0.23908 0.37795 0.0
O12 O 0.32895 0.23622 0.05567 0.0
O13 O 0.31455 0.26489 0.10833 0.0
O14 O 0.32464 0.20284 0.24857 0.0
O15 O 0.3037 0.20686 0.1965 0.0
C16 C 0.277 0.25396 0.15546 0.0
O17 O 0.28219 0.23294 0.22294 0.0
O18 O 0.28493 0.27596 0.14283 0.0
C19 C 0.30925 0.25804 0.47657 0.0
Tb20 Tb 0.95171 0.98948 0.20853 0.0
C21 C 0.93804 0.92747 0.2473 0.0
Tb22 Tb 0.92423 0.99171 0.21422 0.0
O23 O 0.95305 0.97391 0.40206 0.0
O24 O 0.93832 0.00191 0.35003 0.0
O25 O 0.9487 0.94066 0.21575 0.0
C26 C 0.90037 0.99129 0.29082 0.0
O27 O 0.92772 0.94389 0.2617 0.0
C28 C 0.93336 -0.00519 0.98294 0.0
C29 C 0.93804 0.05368 0.17975 0.0
O30 O 0.90471 0.97638 0.19571 0.0
O31 O 0.90943 0.00619 0.34248 0.0
O32 O 0.92256 0.00519 1.01859 0.0
O33 O 0.93763 0.97915 0.07341 0.0
O34 O 0.92724 0.0407 0.20739 0.0
O35 O 0.94861 0.03798 0.17129 0.0
C36 C 0.97532 0.99084 0.12448 0.0
O37 O 0.97157 0.00191 0.23027 0.0
O38 O 0.96583 0.97916 0.06687 0.0
C39 C 0.9425 0.98561 0.43927 0.0
Tb40 Tb 0.29786 -0.0013 0.0802 0.0
C41 C 0.31175 0.93629 1.02347 0.0
Tb42 Tb 0.3266 -0.00149 0.07046 0.0
O43 O 0.29628 0.01793 0.89089 0.0
O44 O 0.31176 0.99264 0.93695 0.0
O45 O 0.30092 0.94986 0.04995 0.0
C46 C 0.35027 7e-05 0.99019 0.0
O47 O 0.32262 0.951 1.02028 0.0
C48 C 0.31921 -0.00177 0.31047 0.0
C49 C 0.31216 0.05997 0.12223 0.0
O50 O 0.3457 0.98009 0.06652 0.0
O51 O 0.34156 0.01932 0.9599 0.0
O52 O 0.33074 -0.00268 0.27275 0.0
O53 O 0.31269 -0.00186 0.21139 0.0
O54 O 0.32228 0.0474 0.0717 0.0
O55 O 0.30207 0.04397 0.15007 0.0
C56 C 0.27448 0.99314 0.16771 0.0
O57 O 0.27812 0.01281 0.08542 0.0
O58 O 0.28389 0.97593 0.19715 0.0
C59 C 0.30723 0.00922 0.85104 0.0
Tb60 Tb 0.95622 0.24463 0.03738 0.0
C61 C 0.94256 0.30763 0.98777 0.0
Tb62 Tb 0.92743 0.24599 1.03087 0.0
O63 O 0.95716 0.22336 0.85118 0.0
O64 O 0.94217 0.25084 0.89611 0.0
O65 O 0.95313 0.2939 1.02226 0.0
C66 C 0.90383 0.2451 0.95085 0.0
O67 O 0.93167 0.2931 0.97989 0.0
C68 C 0.93519 0.24692 0.26963 0.0
C69 C 0.94162 0.18296 0.06915 0.0
O70 O 0.90835 0.26423 1.03139 0.0
O71 O 0.91254 0.22631 0.91608 0.0
O72 O 0.92358 0.24737 0.23382 0.0
O73 O 0.9415 0.24687 0.16916 0.0
O74 O 0.9311 0.19683 0.03507 0.0
O75 O 0.95245 0.19727 0.08048 0.0
C76 C 0.97932 0.24729 0.13382 0.0
O77 O 0.96935 0.23793 0.19029 0.0
O78 O 0.97629 0.25561 1.02152 0.0
C79 C 0.94638 0.23338 0.81097 0.0
Tb80 Tb 0.67398 0.73814 0.79874 0.0
C81 C 0.68874 0.79727 0.84502 0.0
Tb82 Tb 0.70101 0.73305 0.80837 0.0
O83 O 0.67186 0.7497 0.99526 0.0
O84 O 0.6867 0.72236 0.94268 0.0
O85 O 0.67874 0.78619 0.78891 0.0
C86 C 0.72504 0.73217 0.8811 0.0
O87 O 0.69827 0.77966 0.87467 0.0
C88 C 0.69262 0.73513 0.57403 0.0
C89 C 0.68668 0.67444 0.73616 0.0
O90 O 0.72011 0.75166 0.80483 0.0
O91 O 0.71653 0.71278 0.91359 0.0
O92 O 0.70278 0.72163 0.61068 0.0
O93 O 0.68825 0.74974 0.66682 0.0
O94 O 0.69714 0.68493 0.78554 0.0
O95 O 0.67664 0.69195 0.72367 0.0
C96 C 0.6495 0.73983 0.73757 0.0
O97 O 0.65599 0.71548 0.7598 0.0
O98 O 0.65676 0.76309 0.75164 0.0
C99 C 0.68215 0.73743 0.03366 0.0
Tb100 Tb 0.07631 -0.00462 0.82305 0.0
C101 C 0.06273 0.93312 0.85849 0.0
Tb102 Tb 0.04886 -0.00283 0.82839 0.0
O103 O 0.07819 0.98267 1.01897 0.0
O104 O 0.06286 0.00791 0.96384 0.0
O105 O 0.07349 0.94634 0.83124 0.0
C106 C 0.02525 -0.00435 0.91239 0.0
O107 O 0.05209 0.94862 0.86587 0.0
C108 C 0.05812 0.00082 0.5977 0.0
C109 C 0.06234 0.05921 0.78358 0.0
O110 O 0.02903 0.98445 0.80693 0.0
O111 O 0.03471 0.00753 0.96976 0.0
O112 O 0.04752 0.01238 0.63426 0.0
O113 O 0.06228 0.98469 0.68747 0.0
O114 O 0.0517 0.04614 0.81702 0.0
O115 O 0.07266 0.04276 0.77095 0.0
C116 C 0.10017 -0.00357 0.74739 0.0
O117 O 0.09558 0.01262 0.83772 0.0
O118 O 0.09137 0.97984 0.70007 0.0
C119 C 0.06732 0.99257 0.05443 0.0
Tb120 Tb 0.67588 0.98714 1.01346 0.0
C121 C 0.68942 0.92584 0.96419 0.0
Tb122 Tb 0.70327 0.98902 1.00346 0.0
O123 O 0.67388 0.97511 0.81661 0.0
O124 O 0.68906 0.00091 0.8713 0.0
O125 O 0.67899 0.93831 1.00597 0.0
C126 C 0.72695 0.98855 0.92006 0.0
O127 O 0.69981 0.94165 0.94889 0.0
C128 C 0.69483 0.98913 0.23754 0.0
C129 C 0.68977 0.04946 0.07102 0.0
O130 O 0.72258 0.97125 1.00772 0.0
O131 O 0.71811 0.00639 0.88194 0.0
O132 O 0.70521 0.00142 0.19982 0.0
O133 O 0.69015 0.97469 0.14538 0.0
O134 O 0.70011 0.03761 1.02387 0.0
O135 O 0.67946 0.03317 0.0856 0.0
C136 C 0.65161 0.98891 0.07774 0.0
O137 O 0.65737 0.00925 1.01186 0.0
O138 O 0.65944 0.96746 0.10562 0.0
C139 C 0.68446 0.98622 0.77972 0.0
Tb140 Tb 0.07526 0.74189 1.02779 0.0
C141 C 0.06078 0.80351 0.97326 0.0
Tb142 Tb 0.04559 0.74179 1.01444 0.0
O143 O 0.07885 0.73968 0.82405 0.0
O144 O 0.06108 0.73891 0.89137 0.0
O145 O 0.0714 0.79065 1.01163 0.0
C146 C 0.023 0.73957 0.91016 0.0
O147 O 0.05007 0.78848 0.96085 0.0
C148 C 0.05339 0.74568 0.25266 0.0
C149 C 0.05979 0.68108 0.08942 0.0
O150 O 0.02665 0.75987 0.99044 0.0
O151 O 0.03198 0.72019 0.89016 0.0
O152 O 0.04172 0.74577 0.21665 0.0
O153 O 0.05975 0.74485 0.15214 0.0
O154 O 0.04912 0.69349 0.04981 0.0
O155 O 0.07064 0.69596 0.09235 0.0
C156 C 0.09889 0.74285 0.10664 0.0
O157 O 0.09409 0.72236 0.03372 0.0
O158 O 0.09041 0.76292 0.13524 0.0
C159 C 0.06718 0.73905 0.78984 0.0
Tb160 Tb 0.29736 0.74917 0.78475 0.0
C161 C 0.31041 0.80985 0.86264 0.0
Tb162 Tb 0.32459 0.74866 0.79571 0.0
O163 O 0.29448 0.75811 0.98273 0.0
O164 O 0.31052 0.73516 0.92709 0.0
O165 O 0.30012 0.7979 0.81503 0.0
C166 C 0.34885 0.75119 0.86022 0.0
O167 O 0.32086 0.79398 0.87334 0.0
C168 C 0.31611 0.74803 0.5608 0.0
C169 C 0.31171 0.68645 0.75395 0.0
O170 O 0.34205 0.77413 0.8255 0.0
O171 O 0.34202 0.72692 0.85656 0.0
O172 O 0.32694 0.7382 0.59695 0.0
O173 O 0.3114 0.76209 0.65315 0.0
O174 O 0.32169 0.69969 0.80191 0.0
O175 O 0.3014 0.70195 0.72919 0.0
C176 C 0.27407 0.75056 0.69108 0.0
O177 O 0.27873 0.72869 0.75803 0.0
O178 O 0.28239 0.77173 0.68091 0.0
C179 C 0.30533 0.74817 1.01987 0.0
Tb180 Tb 0.95409 0.49747 0.75188 0.0
C181 C 0.94278 0.43214 0.80536 0.0
Tb182 Tb 0.9273 0.49151 0.75892 0.0
O183 O 0.95523 0.51751 0.93959 0.0
O184 O 0.94132 0.48632 0.90079 0.0
O185 O 0.95266 0.44741 0.76433 0.0
C186 C 0.90296 0.49379 0.81925 0.0
O187 O 0.93201 0.44608 0.82634 0.0
C188 C 0.93639 0.48535 0.52651 0.0
C189 C 0.93859 0.55731 0.72144 0.0
O190 O 0.90792 0.47562 0.73794 0.0
O191 O 0.91166 0.51094 0.86511 0.0
O192 O 0.9267 0.47134 0.57072 0.0
O193 O 0.94003 0.50347 0.61127 0.0
O194 O 0.92873 0.54148 0.75846 0.0
O195 O 0.9494 0.54388 0.69729 0.0
C196 C 0.97765 0.49377 0.66737 0.0
O197 O 0.97401 0.51038 0.76068 0.0
O198 O 0.96813 0.47899 0.62441 0.0
C199 C 0.94533 0.50433 0.98457 0.0
Tb200 Tb 0.29893 0.49502 0.60274 0.0
C201 C 0.3119 0.43216 0.5444 0.0
Tb202 Tb 0.32606 0.4937 0.60071 0.0
O203 O 0.29769 0.51408 0.413 0.0
O204 O 0.31247 0.48659 0.45779 0.0
O205 O 0.30186 0.44538 0.59273 0.0
C206 C 0.35032 0.49913 0.54097 0.0
O207 O 0.32216 0.44844 0.5243 0.0
C208 C 0.31663 0.48489 0.83019 0.0
C209 C 0.3126 0.55704 0.64286 0.0
O210 O 0.3458 0.48075 0.62372 0.0
O211 O 0.34122 0.51484 0.49361 0.0
O212 O 0.32689 0.47303 0.78735 0.0
O213 O 0.31263 0.50264 0.74588 0.0
O214 O 0.323 0.54333 0.6051 0.0
O215 O 0.30226 0.54151 0.66498 0.0
C216 C 0.275 0.49005 0.67477 0.0
O217 O 0.27909 0.50791 0.58799 0.0
O218 O 0.2843 0.47451 0.71855 0.0
C219 C 0.30831 0.50365 0.37228 0.0
Tb220 Tb 0.95328 0.74632 0.54226 0.0
C221 C 0.94003 0.80852 0.48227 0.0
Tb222 Tb 0.92485 0.74887 0.53471 0.0
O223 O 0.95752 0.74563 0.33984 0.0
O224 O 0.9394 0.74695 0.40106 0.0
O225 O 0.94963 0.79557 0.54 0.0
C226 C 0.90088 0.74439 0.46706 0.0
O227 O 0.92985 0.79265 0.45458 0.0
C228 C 0.93482 0.75931 0.76114 0.0
C229 C 0.93781 0.68494 0.58245 0.0
O230 O 0.905 0.76006 0.56073 0.0
O231 O 0.91017 0.73095 0.41237 0.0
O232 O 0.92439 0.77078 0.71988 0.0
O233 O 0.93862 0.74113 0.67715 0.0
O234 O 0.92715 0.69974 0.5618 0.0
O235 O 0.9489 0.69862 0.58276 0.0
C236 C 0.97627 0.74661 0.63861 0.0
O237 O 0.97214 0.72704 0.55769 0.0
O238 O 0.96756 0.76631 0.66344 0.0
C239 C 0.94595 0.74672 0.30214 0.0
Tb240 Tb 0.67778 0.23739 0.2896 0.0
C241 C 0.69088 0.29941 0.33769 0.0
Tb242 Tb 0.70543 0.23727 0.2952 0.0
O243 O 0.67631 0.25104 0.48487 0.0
O244 O 0.69145 0.22485 0.42873 0.0
O245 O 0.68045 0.28631 0.29943 0.0
C246 C 0.72892 0.23888 0.3818 0.0
O247 O 0.70152 0.28435 0.35033 0.0
C248 C 0.69663 0.23625 0.06283 0.0
C249 C 0.69233 0.17548 0.23429 0.0
O250 O 0.72444 0.25646 0.29543 0.0
O251 O 0.72028 0.22011 0.41694 0.0
O252 O 0.70778 0.22773 0.09691 0.0
O253 O 0.69177 0.24989 0.15618 0.0
O254 O 0.70305 0.18854 0.26494 0.0
O255 O 0.6815 0.19006 0.23784 0.0
C256 C 0.65358 0.23627 0.22183 0.0
O257 O 0.65844 0.22131 0.31415 0.0
O258 O 0.66238 0.25153 0.16745 0.0
C259 C 0.687 0.23994 0.52026 0.0
Tb260 Tb 0.07575 0.49717 0.32145 0.0
C261 C 0.0646 0.43102 0.36368 0.0
Tb262 Tb 0.04884 0.49069 0.32497 0.0
O263 O 0.07613 0.51683 0.51049 0.0
O264 O 0.06275 0.48519 0.46573 0.0
O265 O 0.07461 0.44725 0.33324 0.0
C266 C 0.02545 0.49476 0.41285 0.0
O267 O 0.05348 0.444 0.37653 0.0
C268 C 0.05797 0.48372 0.09359 0.0
C269 C 0.06004 0.5564 0.2746 0.0
O270 O 0.0288 0.47907 0.31579 0.0
O271 O 0.03516 0.50839 0.45802 0.0
O272 O 0.04802 0.47052 0.13754 0.0
O273 O 0.06178 0.50196 0.17781 0.0
O274 O 0.05017 0.54075 0.31344 0.0
O275 O 0.07098 0.54291 0.25698 0.0
C276 C 0.10005 0.49431 0.26021 0.0
O277 O 0.0953 0.51158 0.34604 0.0
O278 O 0.09116 0.47857 0.2098 0.0
C279 C 0.06619 0.50322 0.55143 0.0
Tb280 Tb 0.67573 0.49005 0.47074 0.0
C281 C 0.68993 0.42892 0.43605 0.0
Tb282 Tb 0.70444 0.49156 0.46661 0.0
O283 O 0.67476 0.47584 0.2756 0.0
O284 O 0.68985 0.5016 0.33488 0.0
O285 O 0.67961 0.44157 0.48022 0.0
C286 C 0.72758 0.49523 0.37221 0.0
O287 O 0.70016 0.4447 0.41089 0.0
C288 C 0.6967 0.48518 0.70317 0.0
C289 C 0.6901 0.55201 0.53265 0.0
O290 O 0.72312 0.4723 0.43388 0.0
O291 O 0.71911 0.51639 0.36639 0.0
O292 O 0.70835 0.48659 0.66791 0.0
O293 O 0.69033 0.48693 0.6034 0.0
O294 O 0.70115 0.53938 0.50918 0.0
O295 O 0.67927 0.5376 0.51929 0.0
C296 C 0.65162 0.49162 0.53657 0.0
O297 O 0.6565 0.50662 0.4445 0.0
O298 O 0.66032 0.476 0.59168 0.0
C299 C 0.68561 0.48646 0.24276 0.0
Tb300 Tb 0.07741 0.23583 0.4953 0.0
C301 C 0.06634 0.30188 0.47564 0.0
Tb302 Tb 0.05038 0.24179 0.48429 0.0
O303 O 0.07833 0.21896 0.30133 0.0
O304 O 0.06467 0.24949 0.35006 0.0
O305 O 0.07601 0.28545 0.51292 0.0
C306 C 0.02733 0.24071 0.38634 0.0
O307 O 0.05566 0.28883 0.44283 0.0
C308 C 0.05885 0.24617 0.71805 0.0
C309 C 0.06173 0.17594 0.53192 0.0
O310 O 0.03102 0.25837 0.47614 0.0
O311 O 0.03648 0.22277 0.35617 0.0
O312 O 0.04857 0.25843 0.67694 0.0
O313 O 0.06303 0.22929 0.63155 0.0
O314 O 0.05199 0.19158 0.48947 0.0
O315 O 0.07233 0.1903 0.55762 0.0
C316 C 0.10154 0.23644 0.56198 0.0
O317 O 0.09668 0.21906 0.47728 0.0
O318 O 0.09286 0.25378 0.60775 0.0
C319 C 0.06841 0.23286 0.26111 0.0
Tb320 Tb 0.8004 0.24643 0.71859 0.0
C321 C 0.81429 0.30778 0.7666 0.0
Tb322 Tb 0.8278 0.2435 0.72303 0.0
O323 O 0.79887 0.26145 0.91223 0.0
O324 O 0.81376 0.23359 0.86022 0.0
O325 O 0.80353 0.29514 0.73423 0.0
C326 C 0.85191 0.2437 0.79346 0.0
O327 O 0.82454 0.29101 0.7767 0.0
C328 C 0.81856 0.24167 0.49226 0.0
C329 C 0.81368 0.18182 0.68712 0.0
O330 O 0.84697 0.26154 0.71064 0.0
O331 O 0.84328 0.22581 0.83573 0.0
O332 O 0.82937 0.23103 0.52598 0.0
O333 O 0.81443 0.25696 0.58423 0.0
O334 O 0.82461 0.19459 0.71159 0.0
O335 O 0.80314 0.19767 0.6829 0.0
C336 C 0.77721 0.24599 0.6255 0.0
O337 O 0.78049 0.23408 0.73127 0.0
O338 O 0.78688 0.25831 0.5738 0.0
C339 C 0.80943 0.24979 0.9496 0.0
Tb340 Tb 0.45282 -0.00355 0.74298 0.0
C341 C 0.44058 0.93242 0.79734 0.0
Tb342 Tb 0.42571 0.99325 0.7486 0.0
O343 O 0.4542 0.01456 0.93457 0.0
O344 O 0.4396 0.98659 0.88905 0.0
O345 O 0.45041 0.94657 0.74949 0.0
C346 C 0.40153 -0.00097 0.81282 0.0
O347 O 0.4301 0.94778 0.81944 0.0
C348 C 0.43492 0.98553 0.5175 0.0
C349 C 0.43828 0.05772 0.71265 0.0
O350 O 0.4058 0.9818 0.72426 0.0
O351 O 0.41088 0.01279 0.86491 0.0
O352 O 0.42493 0.97268 0.56153 0.0
O353 O 0.43883 0.00355 0.60173 0.0
O354 O 0.4281 0.04298 0.74836 0.0
O355 O 0.44879 0.04315 0.68699 0.0
C356 C 0.4767 0.99234 0.66654 0.0
O357 O 0.47253 0.01096 0.75068 0.0
O358 O 0.46752 0.97561 0.6281 0.0
C359 C 0.44368 0.00362 0.97527 0.0
Tb360 Tb 0.79644 0.98999 0.54306 0.0
C361 C 0.81037 0.92882 0.46669 0.0
Tb362 Tb 0.82505 0.98862 0.53673 0.0
O363 O 0.79211 0.9926 0.342 0.0
O364 O 0.8104 0.99054 0.4025 0.0
O365 O 0.80006 0.94116 0.51487 0.0
C366 C 0.84917 0.99302 0.47059 0.0
O367 O 0.821 0.94411 0.45838 0.0
C368 C 0.81506 0.97822 0.76331 0.0
C369 C 0.81137 0.05213 0.57903 0.0
O370 O 0.84006 0.00896 0.42468 0.0
O371 O 0.84475 0.9752 0.55589 0.0
O372 O 0.8258 0.96815 0.72435 0.0
O373 O 0.8111 -0.00436 0.67768 0.0
O374 O 0.82218 0.03775 0.55985 0.0
O375 O 0.80035 0.03808 0.58022 0.0
C376 C 0.77398 0.9857 0.65061 0.0
O377 O 0.77701 0.0054 0.56547 0.0
O378 O 0.78351 0.96819 0.67302 0.0
C379 C 0.80369 0.99123 0.30404 0.0
Tb380 Tb 0.4557 0.24676 0.57665 0.0
C381 C 0.44374 0.31085 0.52414 0.0
Tb382 Tb 0.42729 0.25275 0.5638 0.0
O383 O 0.46013 0.24518 0.37454 0.0
O384 O 0.44206 0.24971 0.43294 0.0
O385 O 0.45308 0.29633 0.57973 0.0
C386 C 0.40333 0.25174 0.49142 0.0
O387 O 0.43337 0.29654 0.49011 0.0
C388 C 0.43677 0.26054 0.79396 0.0
C389 C 0.43909 0.18712 0.60606 0.0
O390 O 0.40825 0.27142 0.56692 0.0
O391 O 0.41185 0.23233 0.45818 0.0
O392 O 0.42636 0.27216 0.75339 0.0
O393 O 0.44063 0.2429 0.7083 0.0
O394 O 0.42878 0.20306 0.58182 0.0
O395 O 0.45034 0.19971 0.61579 0.0
C396 C 0.47861 0.24448 0.67566 0.0
O397 O 0.47408 0.22488 0.59709 0.0
O398 O 0.47038 0.26563 0.69609 0.0
C399 C 0.4487 0.24862 0.33481 0.0
Tb400 Tb 0.17473 0.73789 0.33327 0.0
C401 C 0.18661 0.80356 0.37365 0.0
Tb402 Tb 0.20298 0.74392 0.345 0.0
O403 O 0.17406 0.71731 0.52005 0.0
O404 O 0.18802 0.74796 0.47854 0.0
O405 O 0.17626 0.78755 0.35281 0.0
C406 C 0.22585 0.74495 0.44424 0.0
O407 O 0.19787 0.7911 0.38159 0.0
C408 C 0.19606 0.742 0.10332 0.0
C409 C 0.19132 0.68009 0.28812 0.0
O410 O 0.22159 0.7644 0.36365 0.0
O411 O 0.21735 0.72464 0.46651 0.0
O412 O 0.20747 0.74548 0.14327 0.0
O413 O 0.18937 0.74092 0.2011 0.0
O414 O 0.20051 0.69451 0.34596 0.0
O415 O 0.18082 0.69425 0.25639 0.0
C416 C 0.15065 0.74094 0.26609 0.0
O417 O 0.15526 0.72241 0.348 0.0
O418 O 0.15956 0.75777 0.22245 0.0
C419 C 0.18421 0.7298 0.56248 0.0
Tb420 Tb 0.57689 0.99277 0.3455 0.0
C421 C 0.56282 0.93166 0.38385 0.0
Tb422 Tb 0.54947 -0.00379 0.35264 0.0
O423 O 0.57829 0.97797 0.53938 0.0
O424 O 0.56369 0.0064 0.48712 0.0
O425 O 0.57356 0.94402 0.35036 0.0
C426 C 0.52587 -0.00405 0.43739 0.0
O427 O 0.55245 0.94787 0.39719 0.0
C428 C 0.55853 -0.00119 0.1208 0.0
C429 C 0.56357 0.05764 0.3108 0.0
O430 O 0.52985 0.98106 0.3406 0.0
O431 O 0.53508 0.01127 0.48436 0.0
O432 O 0.54797 0.01054 0.15738 0.0
O433 O 0.56267 0.98282 0.21108 0.0
O434 O 0.55268 0.0449 0.33777 0.0
O435 O 0.57389 0.04101 0.30364 0.0
C436 C 0.60066 0.99302 0.26514 0.0
O437 O 0.59678 0.00451 0.36965 0.0
O438 O 0.59119 0.98146 0.20688 0.0
C439 C 0.56791 0.99044 0.57704 0.0
Tb440 Tb 0.17589 -0.00163 0.51349 0.0
C441 C 0.18763 0.93278 0.47814 0.0
Tb442 Tb 0.20309 0.99279 0.5099 0.0
O443 O 0.17548 0.018 0.32468 0.0
O444 O 0.18908 0.98681 0.36924 0.0
O445 O 0.17754 0.94847 0.51085 0.0
C446 C 0.22647 -0.0038 0.42083 0.0
O447 O 0.1985 0.94619 0.45721 0.0
C448 C 0.19374 0.98543 0.74013 0.0
C449 C 0.19131 0.05792 0.5674 0.0
O450 O 0.22305 0.98019 0.51648 0.0
O451 O 0.21686 0.01089 0.37886 0.0
O452 O 0.20404 0.9732 0.69857 0.0
O453 O 0.18992 0.00324 0.65493 0.0
O454 O 0.20146 0.04267 0.53181 0.0
O455 O 0.18032 0.04426 0.57808 0.0
C456 C 0.15166 -0.00394 0.57715 0.0
O457 O 0.16065 0.98134 0.63092 0.0
O458 O 0.15625 0.01171 0.48586 0.0
C459 C 0.18549 0.00462 0.28328 0.0
Tb460 Tb 0.5736 0.73656 0.5093 0.0
C461 C 0.5612 0.80138 0.47266 0.0
Tb462 Tb 0.54665 0.74052 0.50328 0.0
O463 O 0.57469 0.71783 0.31902 0.0
O464 O 0.56056 0.74753 0.36309 0.0
O465 O 0.5713 0.78643 0.51064 0.0
C466 C 0.52298 0.73719 0.42323 0.0
O467 O 0.55066 0.78702 0.44706 0.0
C468 C 0.55563 0.74807 0.73543 0.0
C469 C 0.55869 0.67602 0.5504 0.0
O470 O 0.52675 0.75265 0.51909 0.0
O471 O 0.53244 0.72316 0.37484 0.0
O472 O 0.5456 0.76073 0.69079 0.0
O473 O 0.55968 0.73011 0.65154 0.0
O474 O 0.54866 0.69068 0.50946 0.0
O475 O 0.56924 0.69066 0.57404 0.0
C476 C 0.59787 0.73985 0.57049 0.0
O477 O 0.593 0.72014 0.49505 0.0
O478 O 0.58916 0.75785 0.61035 0.0
C479 C 0.56448 0.73009 0.27738 0.0
Tb480 Tb 0.79678 0.74221 0.21126 0.0
C481 C 0.80903 0.80533 0.26828 0.0
Tb482 Tb 0.82559 0.74622 0.22077 0.0
O483 O 0.79441 0.75249 0.40934 0.0
O484 O 0.81104 0.73352 0.34959 0.0
O485 O 0.79925 0.79154 0.21774 0.0
C486 C 0.84931 0.74462 0.30115 0.0
O487 O 0.81983 0.79125 0.28782 0.0
C488 C 0.81759 0.75107 0.98253 0.0
C489 C 0.81333 0.68237 0.16495 0.0
O490 O 0.84393 0.76777 0.24815 0.0
O491 O 0.84134 0.72246 0.30865 0.0
O492 O 0.82922 0.75141 1.01837 0.0
O493 O 0.81149 0.7483 0.08309 0.0
O494 O 0.82371 0.69741 0.19311 0.0
O495 O 0.80207 0.69538 0.16074 0.0
C496 C 0.77335 0.73919 0.12551 0.0
O497 O 0.77823 0.72064 0.20652 0.0
O498 O 0.78157 0.75954 0.09494 0.0
C499 C 0.80581 0.74628 0.44299 0.0
Tb500 Tb 0.45512 0.4976 0.27713 0.0
C501 C 0.44159 0.43608 0.35094 0.0
Tb502 Tb 0.42545 0.49619 0.29041 0.0
O503 O 0.45889 0.5016 0.47987 0.0
O504 O 0.44092 0.49972 0.41442 0.0
O505 O 0.45212 0.44946 0.31439 0.0
C506 C 0.4019 0.49781 0.37334 0.0
O507 O 0.43051 0.45012 0.35201 0.0
C508 C 0.43342 0.49343 0.05239 0.0
C509 C 0.43961 0.55854 0.23515 0.0
O510 O 0.40655 0.47699 0.30079 0.0
O511 O 0.41049 0.51776 0.39913 0.0
O512 O 0.42176 0.49324 0.08719 0.0
O513 O 0.43962 0.49412 0.15348 0.0
O514 O 0.42906 0.54519 0.27271 0.0
O515 O 0.45046 0.54405 0.22332 0.0
C516 C 0.47759 0.49342 0.17182 0.0
O517 O 0.47424 0.51435 0.25097 0.0
O518 O 0.46836 0.47472 0.15342 0.0
C519 C 0.44721 0.50068 0.51529 0.0
Tb520 Tb 0.79959 0.4917 0.04398 0.0
C521 C 0.81183 0.42669 1.00154 0.0
Tb522 Tb 0.82675 0.48786 0.03561 0.0
O523 O 0.79784 0.50818 0.85187 0.0
O524 O 0.81258 0.47986 0.8983 0.0
O525 O 0.80192 0.44172 0.04352 0.0
C526 C 0.85091 0.49147 0.97109 0.0
O527 O 0.82235 0.4415 0.97651 0.0
C528 C 0.81753 0.48469 0.26848 0.0
C529 C 0.8146 0.55302 0.05488 0.0
O530 O 0.84641 0.47436 0.05843 0.0
O531 O 0.84183 0.50672 0.92097 0.0
O532 O 0.82764 0.47134 0.22963 0.0
O533 O 0.81371 0.50087 0.17878 0.0
O534 O 0.82462 0.53739 1.02067 0.0
O535 O 0.80398 0.53925 0.08402 0.0
C536 C 0.77624 0.48926 0.13396 0.0
O537 O 0.77985 0.50556 0.04005 0.0
O538 O 0.78568 0.47348 0.17377 0.0
C539 C 0.80823 0.49639 0.81164 0.0
Tb540 Tb 0.45171 0.75195 0.08963 0.0
C541 C 0.43839 0.81387 0.03706 0.0
Tb542 Tb 0.42454 0.75062 0.08445 0.0
O543 O 0.45348 0.76641 0.8961 0.0
O544 O 0.43842 0.73906 0.94752 0.0
O545 O 0.44897 0.80095 0.07351 0.0
C546 C 0.40044 0.75368 1.02115 0.0
O547 O 0.42819 0.79723 1.02246 0.0
C548 C 0.43355 0.74853 0.31598 0.0
C549 C 0.43778 0.68824 0.12367 0.0
O550 O 0.40586 0.77105 0.10241 0.0
O551 O 0.40847 0.73451 0.97649 0.0
O552 O 0.42277 0.73814 0.28068 0.0
O553 O 0.43791 0.76366 0.22489 0.0
O554 O 0.42708 0.70149 0.09439 0.0
O555 O 0.44839 0.70366 0.13109 0.0
C556 C 0.4751 0.74933 0.1767 0.0
O557 O 0.47114 0.73563 0.0771 0.0
O558 O 0.46602 0.7648 0.22525 0.0
C559 C 0.44299 0.75465 0.85799 0.0
Tb560 Tb 0.17694 0.24183 0.80092 0.0
C561 C 0.18881 0.30588 0.83344 0.0
Tb562 Tb 0.20564 0.24611 0.80826 0.0
O563 O 0.17518 0.256 0.99618 0.0
O564 O 0.19127 0.23433 0.93901 0.0
O565 O 0.1791 0.29092 0.78816 0.0
C566 C 0.22849 0.24549 0.91113 0.0
O567 O 0.19963 0.29238 0.85838 0.0
C568 C 0.19788 0.24952 0.57042 0.0
C569 C 0.19344 0.18236 0.74965 0.0
O570 O 0.22394 0.2673 0.84305 0.0
O571 O 0.22033 0.22374 0.91772 0.0
O572 O 0.20953 0.25072 0.6064 0.0
O573 O 0.19155 0.24692 0.67002 0.0
O574 O 0.20397 0.19748 0.77132 0.0
O575 O 0.18211 0.1947 0.75935 0.0
C576 C 0.15319 0.23669 0.72661 0.0
O577 O 0.15821 0.2218 0.8185 0.0
O578 O 0.16157 0.25415 0.67659 0.0
C579 C 0.18647 0.24881 1.03008 0.0
Tb580 Tb 0.57644 0.49111 0.7807 0.0
C581 C 0.56307 0.42839 0.84019 0.0
Tb582 Tb 0.54684 0.48854 0.79429 0.0
O583 O 0.5801 0.49417 0.9842 0.0
O584 O 0.56228 0.49282 0.9176 0.0
O585 O 0.5735 0.44217 0.80259 0.0
C586 C 0.52428 0.49131 0.89881 0.0
O587 O 0.55205 0.44234 0.84911 0.0
C588 C 0.55461 0.48535 0.55595 0.0
C589 C 0.56012 0.55061 0.72212 0.0
O590 O 0.52793 0.4704 0.82098 0.0
O591 O 0.53326 0.51073 0.91655 0.0
O592 O 0.54297 0.48405 0.59219 0.0
O593 O 0.56098 0.48684 0.65629 0.0
O594 O 0.54966 0.53714 0.76061 0.0
O595 O 0.57118 0.53672 0.71779 0.0
C596 C 0.59988 0.49147 0.697 0.0
O597 O 0.59498 0.5119 0.76976 0.0
O598 O 0.59161 0.47069 0.67163 0.0
C599 C 0.56845 0.4935 1.01889 0.0
Tb600 Tb 0.17571 0.49708 1.02721 0.0
C601 C 0.18867 0.43305 0.9803 0.0
Tb602 Tb 0.20418 0.49396 1.02558 0.0
O603 O 0.17537 0.51838 0.84168 0.0
O604 O 0.18974 0.48943 0.88781 0.0
O605 O 0.17798 0.44822 0.99424 0.0
C606 C 0.22696 0.49554 0.92451 0.0
O607 O 0.19983 0.44617 0.98869 0.0
C608 C 0.19675 0.49347 0.2631 0.0
C609 C 0.19082 0.55625 0.0964 0.0
O610 O 0.22334 0.47651 1.00976 0.0
O611 O 0.21783 0.514 0.89799 0.0
O612 O 0.20834 0.49159 0.2265 0.0
O613 O 0.19006 0.49439 0.16456 0.0
O614 O 0.20116 0.54294 0.05354 0.0
O615 O 0.17996 0.54186 0.10063 0.0
C616 C 0.15165 0.49238 0.09367 0.0
O617 O 0.16088 0.47774 0.1443 0.0
O618 O 0.15593 0.50922 1.00441 0.0
C619 C 0.18597 0.50735 0.80295 0.0
Tb620 Tb 0.57683 0.23585 1.01942 0.0
C621 C 0.56483 0.30075 0.98109 0.0
Tb622 Tb 0.54991 0.24011 1.01347 0.0
O623 O 0.57754 0.21516 0.83244 0.0
O624 O 0.56384 0.24663 0.87161 0.0
O625 O 0.57486 0.28571 1.01947 0.0
C626 C 0.52625 0.23664 0.93171 0.0
O627 O 0.55423 0.2865 0.95633 0.0
C628 C 0.55898 0.24749 0.2459 0.0
C629 C 0.56167 0.1759 0.07174 0.0
O630 O 0.53018 0.25467 1.01908 0.0
O631 O 0.53551 0.22005 0.89411 0.0
O632 O 0.54856 0.25887 0.2041 0.0
O633 O 0.56297 0.23006 0.16062 0.0
O634 O 0.55195 0.19014 1.022 0.0
O635 O 0.57213 0.19112 0.09488 0.0
C636 C 0.60113 0.23844 0.07997 0.0
O637 O 0.59621 0.22 0.99951 0.0
O638 O 0.59242 0.25584 0.12465 0.0
C639 C 0.56769 0.22848 0.78768 0.0
C640 C 0.25173 0.25266 0.90249 0.0
C641 C 0.24094 0.24584 0.97355 0.0
C642 C 0.25388 0.24247 0.16288 0.0
C643 C 0.26453 0.25183 0.09331 0.0
N644 N 0.27332 0.26877 0.89705 0.0
N645 N 0.23138 0.236 0.17304 0.0
C646 C 0.26336 0.25798 0.96349 0.0
C647 C 0.24193 0.24082 0.10394 0.0
N648 N 0.25106 0.25204 0.77534 0.0
N649 N 0.25513 0.23548 0.28625 0.0
H650 H 0.22255 0.23295 0.13443 0.0
H651 H 0.23113 0.2367 0.26974 0.0
H652 H 0.26315 0.24019 0.33783 0.0
H653 H 0.24835 0.22401 0.33745 0.0
H654 H 0.25885 0.25311 0.71737 0.0
H655 H 0.24284 0.24722 0.72689 0.0
H656 H 0.27249 0.278 0.80827 0.0
H657 H 0.28239 0.27017 0.93123 0.0
C658 C 0.00218 0.00724 0.90021 0.0
C659 C 0.01237 -0.00629 0.96443 0.0
C660 C 0.99839 0.97919 0.13651 0.0
C661 C 0.98819 0.99274 0.07233 0.0
N662 N 0.98053 0.02423 0.90542 0.0
N663 N 0.02003 0.9622 0.13124 0.0
C664 C 0.9901 0.0077 0.95663 0.0
C665 C 0.01046 0.97874 0.08009 0.0
N666 N 0.00405 0.01961 0.78499 0.0
N667 N 0.99651 0.96678 0.25166 0.0
H668 H 0.02877 0.96006 0.08926 0.0
H669 H 0.01915 0.94837 0.20914 0.0
H670 H 0.9877 0.96455 0.29207 0.0
H671 H 0.0037 0.96003 0.31088 0.0
H672 H 0.99687 0.02635 0.72576 0.0
H673 H 0.01286 0.02178 0.7445 0.0
H674 H 0.98142 0.03806 0.82752 0.0
H675 H 0.97179 0.02637 0.94725 0.0
C676 C 0.23941 0.98668 0.22956 0.0
C677 C 0.23884 -0.00533 0.35772 0.0
C678 C 0.26175 -0.00038 0.36312 0.0
C679 C 0.2622 0.99366 0.23292 0.0
N680 N 0.25145 0.98557 0.03842 0.0
N681 N 0.24909 0.01268 0.54329 0.0
C682 C 0.25101 0.9886 0.16495 0.0
C683 C 0.24993 0.0019 0.42408 0.0
N684 N 0.22899 0.9755 0.17117 0.0
N685 N 0.27261 0.00372 0.42835 0.0
H686 H 0.24062 0.01493 0.59054 0.0
H687 H 0.2566 0.02166 0.59281 0.0
H688 H 0.28135 0.00581 0.38632 0.0
H689 H 0.27309 0.00393 0.52501 0.0
H690 H 0.22905 0.96639 0.08173 0.0
H691 H 0.22043 0.97245 0.21589 0.0
H692 H 0.24353 0.98584 0.98192 0.0
H693 H 0.2598 0.98478 0.98831 0.0
C694 C 0.01466 0.24031 0.18742 0.0
C695 C 0.01517 0.24318 0.31936 0.0
C696 C 0.99294 0.25657 0.31966 0.0
C697 C 0.99195 0.2482 0.19244 0.0
N698 N 0.0019 0.2264 1.01064 0.0
N699 N 0.00381 0.24789 0.5131 0.0
C700 C 0.00282 0.23853 0.12734 0.0
C701 C 0.00404 0.24962 0.38625 0.0
N702 N 0.02538 0.24086 0.11814 0.0
N703 N 0.98352 0.27243 0.376 0.0
H704 H 0.01151 0.24114 0.56592 0.0
H705 H 0.99557 0.24975 0.56448 0.0
H706 H 0.97571 0.28019 0.32741 0.0
H707 H 0.9843 0.28131 0.46562 0.0
H708 H 0.02533 0.2415 1.02123 0.0
H709 H 0.03422 0.24453 0.15613 0.0
H710 H 0.00945 0.21623 0.96533 0.0
H711 H 0.99343 0.2236 0.96408 0.0
C712 C 0.74566 0.70859 0.93877 0.0
C713 C 0.73762 0.73441 0.93956 0.0
C714 C 0.75268 0.76243 0.0699 0.0
C715 C 0.76075 0.73668 0.06825 0.0
N716 N 0.766 0.68696 0.98728 0.0
N717 N 0.73243 0.78429 1.02044 0.0
C718 C 0.75746 0.71003 1.00038 0.0
C719 C 0.74092 0.76109 1.00756 0.0
N720 N 0.74193 0.68251 0.87953 0.0
N721 N 0.75633 0.78834 0.13094 0.0
H722 H 0.72366 0.78444 0.97826 0.0
H723 H 0.73352 0.80266 0.08063 0.0
H724 H 0.76412 0.78924 0.18933 0.0
H725 H 0.75199 0.80941 0.12087 0.0
H726 H 0.74634 0.66152 0.88968 0.0
H727 H 0.73399 0.68136 0.82327 0.0
H728 H 0.76491 0.66859 0.92707 0.0
H729 H 0.77476 0.68699 1.02976 0.0
C730 C 0.75479 0.95893 0.73147 0.0
C731 C 0.76215 0.98581 0.72359 0.0
C732 C 0.74713 0.01316 0.85658 0.0
C733 C 0.73958 0.98659 0.86208 0.0
N734 N 0.73548 0.93477 0.79864 0.0
N735 N 0.76707 0.03591 0.80213 0.0
C736 C 0.74333 0.95941 0.79978 0.0
C737 C 0.75876 0.01232 0.79184 0.0
N738 N 0.75882 0.9329 0.67367 0.0
N739 N 0.74309 0.03943 0.91235 0.0
H740 H 0.77585 0.03589 0.76001 0.0
H741 H 0.76585 0.05443 0.8614 0.0
H742 H 0.73528 0.04037 0.97032 0.0
H743 H 0.74711 0.06068 0.89709 0.0
H744 H 0.75493 0.91149 0.6874 0.0
H745 H 0.76654 0.93226 0.61445 0.0
H746 H 0.73681 0.91544 0.74425 0.0
H747 H 0.72706 0.934 0.84721 0.0
C748 C 0.99716 0.76857 0.69627 0.0
C749 C 0.98839 0.7444 0.7052 0.0
C750 C 0.00243 0.71665 0.84688 0.0
C751 C 0.01113 0.74097 0.83897 0.0
N752 N 0.01812 0.78712 0.73943 0.0
N753 N 0.98151 0.6979 0.80294 0.0
C754 C 0.00881 0.7663 0.76 0.0
C755 C 0.99077 0.71888 0.78307 0.0
N756 N 0.99423 0.79388 0.62801 0.0
N757 N 0.00539 0.69128 0.91461 0.0
H758 H 0.97275 0.69898 0.7604 0.0
H759 H 0.98201 0.68061 0.86871 0.0
H760 H 0.01344 0.6896 0.96901 0.0
H761 H 1.00029 0.67112 0.91212 0.0
H762 H 0.99937 0.81399 0.63004 0.0
H763 H 0.9862 0.79553 0.57324 0.0
H764 H 0.01764 0.80433 0.67325 0.0
H765 H 0.0269 0.78587 0.78144 0.0
C766 C 0.23876 0.74592 0.63956 0.0
C767 C 0.23813 0.74684 0.5077 0.0
C768 C 0.26073 0.75554 0.4979 0.0
C769 C 0.26164 0.75048 0.62866 0.0
N770 N 0.25147 0.73869 0.82362 0.0
N771 N 0.24879 0.74642 0.31019 0.0
C772 C 0.25064 0.74467 0.69914 0.0
C773 C 0.24918 0.75009 0.43651 0.0
N774 N 0.22803 0.74832 0.70834 0.0
N775 N 0.27075 0.76583 0.43122 0.0
H776 H 0.24058 0.74165 0.26154 0.0
H777 H 0.25678 0.74491 0.25507 0.0
H778 H 0.27955 0.76979 0.46872 0.0
H779 H 0.27005 0.77313 0.33933 0.0
H780 H 0.22794 0.75073 0.8047 0.0
H781 H 0.21922 0.75125 0.66852 0.0
H782 H 0.24402 0.73028 0.87566 0.0
H783 H 0.25974 0.7407 0.87434 0.0
C784 C 0.99463 0.52184 0.55373 0.0
C785 C 0.99015 0.49432 0.60721 0.0
C786 C 0.00854 0.46673 0.52721 0.0
C787 C 0.01301 0.49427 0.47396 0.0
N788 N 0.0114 0.54866 0.44815 0.0
N789 N 0.99193 0.44005 0.63617 0.0
C790 C 0.00637 0.52201 0.49093 0.0
C791 C 0.99685 0.46661 0.59119 0.0
N792 N 0.98721 0.54731 0.55484 0.0
N793 N 0.01591 0.4412 0.52434 0.0
H794 H 0.98401 0.43931 0.6927 0.0
H795 H 0.9953 0.4185 0.61365 0.0
H796 H 0.02457 0.44032 0.47993 0.0
H797 H 0.01399 0.42132 0.57317 0.0
H798 H 0.98916 0.56704 0.50511 0.0
H799 H 0.97848 0.5482 0.59781 0.0
H800 H 0.00805 0.57016 0.472 0.0
H801 H 0.01943 0.54952 0.39316 0.0
C802 C 0.25455 0.46593 0.73366 0.0
C803 C 0.26246 0.49187 0.7337 0.0
C804 C 0.24705 0.52042 0.85812 0.0
C805 C 0.23916 0.4944 0.85859 0.0
N806 N 0.23406 0.44466 0.7775 0.0
N807 N 0.26742 0.54204 0.81147 0.0
C808 C 0.24259 0.46763 0.79204 0.0
C809 C 0.25896 0.51883 0.79866 0.0
N810 N 0.2586 0.43947 0.67952 0.0
N811 N 0.2431 0.54676 0.91408 0.0
H812 H 0.27631 0.54169 0.77172 0.0
H813 H 0.26613 0.56083 0.8691 0.0
H814 H 0.23498 0.54821 0.96739 0.0
H815 H 0.24748 0.56773 0.90316 0.0
H816 H 0.25412 0.41859 0.68953 0.0
H817 H 0.26694 0.43787 0.62951 0.0
H818 H 0.23536 0.42597 0.71929 0.0
H819 H 0.22509 0.44532 0.81549 0.0
C820 C 0.75763 0.27113 0.54779 0.0
C821 C 0.76469 0.24412 0.56671 0.0
C822 C 0.74909 0.21473 0.44954 0.0
C823 C 0.74149 0.2412 0.44011 0.0
N824 N 0.73751 0.29354 0.49817 0.0
N825 N 0.76682 0.18961 0.54653 0.0
C826 C 0.74551 0.26921 0.49321 0.0
C827 C 0.76027 0.2157 0.52152 0.0
N828 N 0.76251 0.2987 0.58191 0.0
N829 N 0.74593 0.18911 0.38407 0.0
H830 H 0.77543 0.18948 0.59212 0.0
H831 H 0.76336 0.16784 0.52931 0.0
H832 H 0.73802 0.1878 0.32759 0.0
H833 H 0.75171 0.1701 0.37597 0.0
H834 H 0.75858 0.31948 0.5563 0.0
H835 H 0.77097 0.30097 0.62956 0.0
H836 H 0.73934 0.31328 0.54874 0.0
H837 H 0.72851 0.29319 0.46106 0.0
C838 C 0.75104 0.49247 0.38542 0.0
C839 C 0.74009 0.49605 0.31205 0.0
C840 C 0.75275 0.49231 0.12234 0.0
C841 C 0.7638 0.49135 0.19543 0.0
N842 N 0.77348 0.49902 0.3967 0.0
N843 N 0.73097 0.50686 0.11064 0.0
C844 C 0.76298 0.49362 0.32722 0.0
C845 C 0.74108 0.49851 0.1806 0.0
N846 N 0.75009 0.48853 0.51115 0.0
N847 N 0.75325 0.48565 0.99816 0.0
H848 H 0.72221 0.51157 0.14816 0.0
H849 H 0.73157 0.51194 1.01621 0.0
H850 H 0.76149 0.4796 0.95256 0.0
H851 H 0.74529 0.48284 0.94327 0.0
H852 H 0.75761 0.48191 0.56665 0.0
H853 H 0.74165 0.49019 0.55936 0.0
H854 H 0.77324 0.50379 0.4916 0.0
H855 H 0.78232 0.50235 0.35821 0.0
C856 C 0.49688 0.96661 0.60685 0.0
C857 C 0.48932 0.99322 0.6085 0.0
C858 C 0.50584 0.0217 0.50025 0.0
C859 C 0.51309 -0.00536 0.49159 0.0
N860 N 0.51523 0.94055 0.52602 0.0
N861 N 0.48543 0.04431 0.53515 0.0
C862 C 0.50847 0.96679 0.54095 0.0
C863 C 0.4935 0.02037 0.55004 0.0
N864 N 0.49324 0.94163 0.67355 0.0
N865 N 0.51072 0.04878 0.46051 0.0
H866 H 0.47622 0.0441 0.56707 0.0
H867 H 0.48742 0.06334 0.48107 0.0
H868 H 0.51927 0.05052 0.41434 0.0
H869 H 0.50664 0.06983 0.47954 0.0
H870 H 0.49888 0.92261 0.68798 0.0
H871 H 0.48489 0.94078 0.72357 0.0
H872 H 0.51175 0.91897 0.54598 0.0
H873 H 0.52414 0.93997 0.48686 0.0
C874 C 0.49101 0.23825 0.87277 0.0
C875 C 0.49078 0.24171 0.7412 0.0
C876 C 0.51369 0.24455 0.73737 0.0
C877 C 0.51399 0.23885 0.8675 0.0
N878 N 0.50321 0.22649 0.05745 0.0
N879 N 0.50178 0.2438 0.54549 0.0
C880 C 0.50271 0.23493 0.93512 0.0
C881 C 0.50209 0.24328 0.67263 0.0
N882 N 0.48003 0.23772 0.93802 0.0
N883 N 0.52438 0.25317 0.67685 0.0
H884 H 0.4935 0.24492 0.49438 0.0
H885 H 0.5097 0.24099 0.49017 0.0
H886 H 0.53296 0.25602 0.7215 0.0
H887 H 0.52456 0.26057 0.58495 0.0
H888 H 0.47952 0.23952 0.03442 0.0
H889 H 0.47127 0.23671 0.89549 0.0
H890 H 0.49542 0.22002 0.1091 0.0
H891 H 0.5116 0.22368 0.1058 0.0
C892 C 0.49134 0.71695 0.28143 0.0
C893 C 0.48761 0.74581 0.23426 0.0
C894 C 0.50699 0.76896 0.31256 0.0
C895 C 0.51063 0.74025 0.36191 0.0
N896 N 0.50739 0.68616 0.3811 0.0
N897 N 0.49095 0.79989 0.21441 0.0
C898 C 0.50312 0.714 0.34253 0.0
C899 C 0.49517 0.77199 0.25278 0.0
N900 N 0.48323 0.69286 0.27529 0.0
N901 N 0.51525 0.7928 0.31467 0.0
H902 H 0.48288 0.8028 0.16118 0.0
H903 H 0.49506 0.82044 0.24017 0.0
H904 H 0.52411 0.79153 0.35478 0.0
H905 H 0.51385 0.81324 0.26785 0.0
H906 H 0.48465 0.67218 0.32018 0.0
H907 H 0.47452 0.69401 0.23194 0.0
H908 H 0.50328 0.66554 0.35665 0.0
H909 H 0.51554 0.68338 0.4333 0.0
C910 C 0.51251 0.48894 0.10001 0.0
C911 C 0.51229 0.49124 0.96812 0.0
C912 C 0.48936 0.49504 0.97034 0.0
C913 C 0.48957 0.49282 0.10229 0.0
N914 N 0.50106 0.49064 0.29512 0.0
N915 N 0.50079 0.49275 0.77528 0.0
C916 C 0.50108 0.49074 0.16783 0.0
C917 C 0.50079 0.49305 0.90256 0.0
N918 N 0.52357 0.48283 0.15941 0.0
N919 N 0.47833 0.50132 0.91069 0.0
H920 H 0.50895 0.49359 0.72228 0.0
H921 H 0.4928 0.49 0.7212 0.0
H922 H 0.46985 0.5043 0.95709 0.0
H923 H 0.47758 0.50618 0.81637 0.0
H924 H 0.52437 0.47805 0.25374 0.0
H925 H 0.53204 0.48001 0.11273 0.0
H926 H 0.50904 0.49315 0.34954 0.0
H927 H 0.4929 0.48948 0.34798 0.0
C928 C 0.38025 0.25588 0.53285 0.0
C929 C 0.39019 0.25215 0.44664 0.0
C930 C 0.37494 0.24649 0.27747 0.0
C931 C 0.36511 0.25348 0.36169 0.0
N932 N 0.35885 0.27206 0.56397 0.0
N933 N 0.39704 0.25089 0.23235 0.0
C934 C 0.36788 0.26023 0.48792 0.0
C935 C 0.38757 0.24938 0.31752 0.0
N936 N 0.38249 0.25395 0.65779 0.0
N937 N 0.37228 0.23577 0.161 0.0
H938 H 0.40638 0.25432 0.25682 0.0
H939 H 0.3955 0.25203 0.13679 0.0
H940 H 0.36319 0.23244 0.12869 0.0
H941 H 0.3791 0.22729 0.10092 0.0
H942 H 0.37536 0.25339 0.72387 0.0
H943 H 0.39132 0.24964 0.695 0.0
H944 H 0.36069 0.28015 0.65326 0.0
H945 H 0.34983 0.27697 0.53324 0.0
C946 C 0.86792 0.96458 0.38933 0.0
C947 C 0.86223 0.99268 0.42327 0.0
C948 C 0.88097 0.01997 0.35322 0.0
C949 C 0.88716 0.99169 0.33387 0.0
N950 N 0.88728 0.93702 0.35741 0.0
N951 N 0.8641 0.04686 0.45672 0.0
C952 C 0.88085 0.96395 0.35832 0.0
C953 C 0.86895 0.02035 0.41027 0.0
N954 N 0.86088 0.93868 0.38064 0.0
N955 N 0.88632 0.04641 0.31251 0.0
H956 H 0.85544 0.04806 0.50111 0.0
H957 H 0.86917 0.06708 0.46186 0.0
H958 H 0.89494 0.04708 0.26714 0.0
H959 H 0.88166 0.06727 0.31236 0.0
H960 H 0.86431 0.91832 0.34402 0.0
H961 H 0.85127 0.93823 0.39706 0.0
H962 H 0.88344 0.91653 0.38765 0.0
H963 H 0.89683 0.93563 0.33851 0.0
C964 C 0.38592 2e-05 0.9854 0.0
C965 C 0.38831 0.0006 0.85614 0.0
C966 C 0.36575 -0.00081 0.81407 0.0
C967 C 0.36335 0.00062 0.94398 0.0
N968 N 0.37101 0.00826 0.15279 0.0
N969 N 0.38062 0.00761 0.64731 0.0
C970 C 0.37341 0.00259 1.02997 0.0
C971 C 0.37826 0.00205 0.7701 0.0
N972 N 0.39585 -0.00431 0.06299 0.0
N973 N 0.35614 -0.00614 0.73284 0.0
H974 H 0.38962 0.01101 0.61257 0.0
H975 H 0.37363 0.012 0.58225 0.0
H976 H 0.34687 0.99115 0.76114 0.0
H977 H 0.35747 0.98938 0.63864 0.0
H978 H 0.39519 0.99248 0.15881 0.0
H979 H 0.39519 0.99248 0.15881 0.0
H980 H 0.37791 0.01354 0.21764 0.0
H981 H 0.36198 0.01058 0.18829 0.0
C982 C 0.87495 0.2442 0.74287 0.0
C983 C 0.86526 0.24352 0.8334 0.0
C984 C 0.88105 0.2396 0.99887 0.0
C985 C 0.89062 0.24402 0.90969 0.0
N986 N 0.89677 0.25488 0.6986 0.0
N987 N 0.85919 0.2453 0.05021 0.0
C988 C 0.88761 0.24749 0.78205 0.0
C989 C 0.86833 0.24238 0.96217 0.0
N990 N 0.87218 0.24007 0.61984 0.0
N991 N 0.88408 0.23151 0.11796 0.0
H992 H 0.84976 0.24748 1.02873 0.0
H993 H 0.86105 0.24835 0.14451 0.0
H994 H 0.89329 0.22884 0.1484 0.0
H995 H 0.87749 0.22452 0.18328 0.0
H996 H 0.87898 0.23724 0.55136 0.0
H997 H 0.86313 0.23622 0.58728 0.0
H998 H 0.89491 0.26108 0.60695 0.0
H999 H 0.90614 0.25743 0.72346 0.0
C1000 C 0.61506 0.71858 0.70296 0.0
C1001 C 0.61102 0.74012 0.61346 0.0
C1002 C 0.63227 0.76071 0.59979 0.0
C1003 C 0.63616 0.74073 0.69693 0.0
N1004 N 0.63032 0.70607 0.86128 0.0
N1005 N 0.61501 0.78522 0.49262 0.0
C1006 C 0.62731 0.72102 0.75385 0.0
C1007 C 0.61938 0.76238 0.56736 0.0
N1008 N 0.60719 0.69579 0.73992 0.0
N1009 N 0.6409 0.77685 0.53304 0.0
H1010 H 0.60574 0.78646 0.46239 0.0
H1011 H 0.62032 0.80419 0.46852 0.0
H1012 H 0.65047 0.77613 0.54986 0.0
H1013 H 0.6387 0.7888 0.45233 0.0
H1014 H 0.6101 0.67736 0.79358 0.0
H1015 H 0.59794 0.69406 0.70956 0.0
H1016 H 0.62386 0.69382 0.9136 0.0
H1017 H 0.6389 0.70862 0.90628 0.0
C1018 C 0.12009 0.96863 0.69697 0.0
C1019 C 0.11337 -0.00352 0.70471 0.0
C1020 C 0.13211 0.02434 0.63935 0.0
C1021 C 0.13841 -0.00375 0.6187 0.0
N1022 N 0.13751 0.94139 0.605 0.0
N1023 N 0.11216 0.05014 0.65806 0.0
C1024 C 0.13216 0.96828 0.6413 0.0
C1025 C 0.11915 0.02418 0.66897 0.0
N1026 N 0.11519 0.94267 0.74724 0.0
N1027 N 0.1386 0.05117 0.63681 0.0
H1028 H 0.10257 0.05073 0.67544 0.0
H1029 H 0.11561 0.07023 0.61973 0.0
H1030 H 0.14819 0.05239 0.62012 0.0
H1031 H 0.13471 0.07192 0.66399 0.0
H1032 H 0.12024 0.92247 0.75607 0.0
H1033 H 0.10651 0.94205 0.7915 0.0
H1034 H 0.13281 0.92061 0.60734 0.0
H1035 H 0.14618 0.94014 0.5607 0.0
C1036 C 0.63057 0.96485 0.11028 0.0
C1037 C 0.63848 0.99062 0.1227 0.0
C1038 C 0.62123 0.01903 0.21965 0.0
C1039 C 0.61381 0.9922 0.21966 0.0
N1040 N 0.61263 0.93769 0.19011 0.0
N1041 N 0.64212 0.0402 0.21403 0.0
C1042 C 0.61881 0.96456 0.17179 0.0
C1043 C 0.63404 0.01721 0.18405 0.0
N1044 N 0.63408 0.94102 0.03601 0.0
N1045 N 0.61598 0.04653 0.24844 0.0
H1046 H 0.65164 0.03959 0.19336 0.0
H1047 H 0.63963 0.05851 0.27066 0.0
H1048 H 0.6066 0.04903 0.2725 0.0
H1049 H 0.62061 0.06719 0.23652 0.0
H1050 H 0.62811 0.92309 1.01346 0.0
H1051 H 0.64245 0.94068 0.98627 0.0
H1052 H 0.61647 0.91654 0.16811 0.0
H1053 H 0.60428 0.93612 0.23981 0.0
C1054 C 0.12182 0.74327 0.05806 0.0
C1055 C 0.11212 0.74345 0.14807 0.0
C1056 C 0.12773 0.74567 0.31511 0.0
C1057 C 0.13739 0.74204 0.22561 0.0
N1058 N 0.14354 0.73205 1.01315 0.0
N1059 N 0.10568 0.74009 0.36278 0.0
C1060 C 0.13443 0.73948 0.09726 0.0
C1061 C 0.11502 0.74347 0.27689 0.0
N1062 N 0.11905 0.74788 0.93533 0.0
N1063 N 0.13068 0.75246 0.43578 0.0
H1064 H 0.09627 0.73805 0.33877 0.0
H1065 H 0.10736 0.73659 0.45711 0.0
H1066 H 0.13987 0.75485 0.46714 0.0
H1067 H 0.12404 0.75857 0.50217 0.0
H1068 H 0.12585 0.75129 0.86734 0.0
H1069 H 0.10996 0.75134 0.90294 0.0
H1070 H 0.14168 0.72671 0.92057 0.0
H1071 H 0.15285 0.72829 0.03784 0.0
C1072 C 0.3658 0.73506 1.0094 0.0
C1073 C 0.36199 0.75266 0.90475 0.0
C1074 C 0.38294 0.77526 0.89473 0.0
C1075 C 0.38708 0.75463 0.98696 0.0
N1076 N 0.38301 0.7121 0.12237 0.0
N1077 N 0.36785 0.78496 0.7321 0.0
C1078 C 0.37868 0.73361 0.04109 0.0
C1079 C 0.37078 0.77173 0.84344 0.0
N1080 N 0.35711 0.72109 0.08317 0.0
N1081 N 0.39059 0.79828 0.85628 0.0
H1082 H 0.35936 0.78152 0.68654 0.0
H1083 H 0.37436 0.79658 0.67797 0.0
H1084 H 0.39959 0.80131 0.89159 0.0
H1085 H 0.38762 0.81586 0.79835 0.0
H1086 H 0.35934 0.71076 0.1675 0.0
H1087 H 0.34752 0.72255 0.06834 0.0
H1088 H 0.37759 0.69385 0.15285 0.0
H1089 H 0.39228 0.7112 0.15253 0.0
C1090 C 0.8865 0.49322 0.98652 0.0
C1091 C 0.88964 0.49383 0.85813 0.0
C1092 C 0.8674 0.48984 0.80427 0.0
C1093 C 0.86422 0.49265 0.93206 0.0
N1094 N 0.87075 0.50376 0.14238 0.0
N1095 N 0.88289 0.49941 0.64497 0.0
C1096 C 0.87377 0.49626 1.02265 0.0
C1097 C 0.88004 0.49403 0.76689 0.0
N1098 N 0.89556 0.48823 0.07408 0.0
N1099 N 0.85851 0.48173 0.71895 0.0
H1100 H 0.89197 0.50356 0.61396 0.0
H1101 H 0.87611 0.50292 0.57679 0.0
H1102 H 0.84923 0.47725 0.7424 0.0
H1103 H 0.86062 0.47632 0.62693 0.0
H1104 H 0.89357 0.48455 0.16771 0.0
H1105 H 0.90493 0.48446 0.05204 0.0
H1106 H 0.8774 0.50976 0.20889 0.0
H1107 H 0.86156 0.50715 0.17212 0.0
C1108 C 0.37337 0.50345 0.58565 0.0
C1109 C 0.36353 0.49969 0.49815 0.0
C1110 C 0.37886 0.49867 0.32827 0.0
C1111 C 0.38872 0.49905 0.41666 0.0
N1112 N 0.39545 0.49694 0.63079 0.0
N1113 N 0.35704 0.48776 0.28818 0.0
C1114 C 0.38602 0.50022 0.54587 0.0
C1115 C 0.36629 0.49577 0.36984 0.0
N1116 N 0.37066 0.51119 0.70589 0.0
N1117 N 0.38144 0.50224 0.20459 0.0
H1118 H 0.34776 0.48435 0.31458 0.0
H1119 H 0.35877 0.48146 0.19634 0.0
H1120 H 0.39049 0.50502 0.17028 0.0
H1121 H 0.37454 0.5055 0.13742 0.0
H1122 H 0.37745 0.5174 0.77066 0.0
H1123 H 0.36154 0.51421 0.73818 0.0
H1124 H 0.39391 0.49435 0.72581 0.0
H1125 H 0.4048 0.494 0.60561 0.0
C1126 C 0.86557 0.73343 0.46531 0.0
C1127 C 0.86255 0.74337 0.34295 0.0
C1128 C 0.88464 0.75548 0.30523 0.0
C1129 C 0.88773 0.7437 0.42407 0.0
N1130 N 0.88166 0.71656 0.60894 0.0
N1131 N 0.8696 0.757 0.13704 0.0
C1132 C 0.87834 0.73133 0.50195 0.0
C1133 C 0.87219 0.75255 0.26025 0.0
N1134 N 0.85626 0.72711 0.5485 0.0
N1135 N 0.89349 0.77053 0.23701 0.0
H1136 H 0.86071 0.75396 0.09895 0.0
H1137 H 0.87648 0.76054 0.07005 0.0
H1138 H 0.90271 0.77332 0.26664 0.0
H1139 H 0.89142 0.78262 0.1563 0.0
H1140 H 0.85784 0.72367 0.643 0.0
H1141 H 0.8468 0.7275 0.52578 0.0
H1142 H 0.87541 0.70398 0.66245 0.0
H1143 H 0.89091 0.71461 0.63894 0.0
C1144 C 0.63659 0.23424 0.05906 0.0
C1145 C 0.64011 0.23689 0.18619 0.0
C1146 C 0.6179 0.23825 0.24486 0.0
C1147 C 0.61451 0.23879 0.11712 0.0
N1148 N 0.62083 0.24443 0.90293 0.0
N1149 N 0.63399 0.24881 0.39726 0.0
C1150 C 0.62391 0.23882 1.02421 0.0
C1151 C 0.63073 0.24094 0.27853 0.0
N1152 N 0.64523 0.22598 0.97172 0.0
N1153 N 0.60899 0.23385 0.33425 0.0
H1154 H 0.64322 0.25236 0.42519 0.0
H1155 H 0.62747 0.25508 0.46462 0.0
H1156 H 0.59953 0.23079 0.31417 0.0
H1157 H 0.61115 0.23013 0.42751 0.0
H1158 H 0.64291 0.22057 0.88019 0.0
H1159 H 0.6545 0.22134 0.99363 0.0
H1160 H 0.62749 0.24784 0.83354 0.0
H1161 H 0.61171 0.24895 0.87375 0.0
C1162 C 0.11972 0.46543 0.2079 0.0
C1163 C 0.11337 0.49372 0.22094 0.0
C1164 C 0.13267 0.5208 0.16756 0.0
C1165 C 0.13856 0.4926 0.13949 0.0
N1166 N 0.13709 0.43807 0.11487 0.0
N1167 N 0.11314 0.54816 0.18743 0.0
C1168 C 0.13194 0.46486 0.155 0.0
C1169 C 0.11966 0.5214 0.19402 0.0
N1170 N 0.11432 0.43924 0.25053 0.0
N1171 N 0.1396 0.54693 0.1745 0.0
H1172 H 0.1035 0.54965 0.20138 0.0
H1173 H 0.11706 0.56838 0.15517 0.0
H1174 H 0.14925 0.54743 0.16077 0.0
H1175 H 0.13599 0.5675 0.20726 0.0
H1176 H 0.11903 0.41849 0.25519 0.0
H1177 H 0.10555 0.43874 0.29288 0.0
H1178 H 0.13215 0.41764 0.11131 0.0
H1179 H 0.14594 0.43669 0.07439 0.0
C1180 C 0.62862 0.4865 0.48789 0.0
C1181 C 0.63829 0.49247 0.57534 0.0
C1182 C 0.6228 0.49405 0.74333 0.0
C1183 C 0.61306 0.49132 0.65454 0.0
N1184 N 0.60652 0.49053 0.4396 0.0
N1185 N 0.64421 0.50885 0.7815 0.0
C1186 C 0.6159 0.48906 0.52588 0.0
C1187 C 0.63528 0.49815 0.70183 0.0
N1188 N 0.63154 0.4771 0.37016 0.0
N1189 N 0.62026 0.49144 0.86749 0.0
H1190 H 0.6533 0.51355 0.75303 0.0
H1191 H 0.64226 0.51629 0.8715 0.0
H1192 H 0.6113 0.48743 0.90214 0.0
H1193 H 0.62721 0.49005 0.93525 0.0
H1194 H 0.62489 0.4693 0.3069 0.0
H1195 H 0.64071 0.47433 0.33911 0.0
H1196 H 0.60814 0.4922 0.34434 0.0
H1197 H 0.59711 0.49302 0.46341 0.0
C1198 C 0.13008 0.23738 0.77385 0.0
C1199 C 0.13993 0.23494 0.68577 0.0
C1200 C 0.1246 0.23624 0.51599 0.0
C1201 C 0.11474 0.23556 0.60428 0.0
N1202 N 0.10822 0.22797 0.81723 0.0
N1203 N 0.14633 0.22481 0.47423 0.0
C1204 C 0.1175 0.23397 0.73333 0.0
C1205 C 0.13713 0.23228 0.55706 0.0
N1206 N 0.13262 0.2445 0.89509 0.0
N1207 N 0.1221 0.24204 0.39357 0.0
H1208 H 0.15552 0.22047 0.50118 0.0
H1209 H 0.14457 0.21965 0.38124 0.0
H1210 H 0.11311 0.24608 0.3598 0.0
H1211 H 0.12908 0.24594 0.32783 0.0
H1212 H 0.12567 0.24971 0.95967 0.0
H1213 H 0.14163 0.24835 0.92855 0.0
H1214 H 0.10997 0.22354 0.91083 0.0
H1215 H 0.09895 0.2241 0.79155 0.0
C1216 C 0.32103 0.27402 0.6751 0.0
C1217 C 0.31229 0.25435 0.61452 0.0
C1218 C 0.30593 0.23555 0.82281 0.0
C1219 C 0.31554 0.25287 0.88154 0.0
N1220 N 0.33318 0.28652 0.85939 0.0
N1221 N 0.29747 0.21338 0.63267 0.0
C1222 C 0.32337 0.27139 0.80611 0.0
C1223 C 0.30506 0.23424 0.68936 0.0
N1224 N 0.32673 0.29643 0.60869 0.0
N1225 N 0.29731 0.22101 0.89486 0.0
H1226 H 0.29647 0.21202 0.53633 0.0
H1227 H 0.29301 0.19578 0.67983 0.0
H1228 H 0.29734 0.22284 0.99118 0.0
H1229 H 0.28938 0.21023 0.85986 0.0
H1230 H 0.33183 0.31413 0.64864 0.0
H1231 H 0.32562 0.29843 0.51358 0.0
H1232 H 0.34027 0.29685 0.80815 0.0
H1233 H 0.33465 0.28736 0.95523 0.0
C1234 C 0.9465 0.01056 0.65146 0.0
C1235 C 0.93955 0.98965 0.57739 0.0
C1236 C 0.93038 0.96869 0.77216 0.0
C1237 C 0.93655 0.99117 0.84525 0.0
N1238 N 0.94878 0.03723 0.84801 0.0
N1239 N 0.92285 0.95301 0.56851 0.0
C1240 C 0.94414 0.01309 0.78279 0.0
C1241 C 0.93094 0.96988 0.63845 0.0
N1242 N 0.95558 0.02788 0.5968 0.0
N1243 N 0.92402 0.94584 0.83065 0.0
H1244 H 0.92253 0.9548 0.47235 0.0
H1245 H 0.91557 0.94017 0.6055 0.0
H1246 H 0.9233 0.94443 0.92722 0.0
H1247 H 0.92045 0.92688 0.78449 0.0
H1248 H 0.96206 0.04065 0.64703 0.0
H1249 H 0.95715 0.028 0.5011 0.0
H1250 H 0.95292 0.05612 0.80654 0.0
H1251 H 0.94773 0.03926 0.94359 0.0
C1252 C 0.32192 0.02299 0.52473 0.0
C1253 C 0.31531 0.00196 0.44697 0.0
C1254 C 0.30299 0.9864 0.63308 0.0
C1255 C 0.31022 0.0059 0.71203 0.0
N1256 N 0.32744 0.04065 0.73217 0.0
N1257 N 0.30092 0.96 0.43422 0.0
C1258 C 0.31996 0.02339 0.65716 0.0
C1259 C 0.30612 0.98291 0.50308 0.0
N1260 N 0.32964 0.04406 0.47109 0.0
N1261 N 0.2931 0.97084 0.68244 0.0
H1262 H 0.30306 0.95654 0.34075 0.0
H1263 H 0.2953 0.94296 0.47136 0.0
H1264 H 0.29117 0.97039 0.7774 0.0
H1265 H 0.28646 0.9595 0.62887 0.0
H1266 H 0.33372 0.06208 0.51917 0.0
H1267 H 0.33088 0.04597 0.37534 0.0
H1268 H 0.3358 0.0505 0.70337 0.0
H1269 H 0.32569 0.04341 0.82658 0.0
C1270 C 0.93322 0.21921 0.47799 0.0
C1271 C 0.93926 0.24212 0.40517 0.0
C1272 C 0.95041 0.25873 0.59749 0.0
C1273 C 0.94364 0.23729 0.67153 0.0
N1274 N 0.92697 0.20073 0.68181 0.0
N1275 N 0.95204 0.28706 0.40297 0.0
C1276 C 0.93459 0.21865 0.61121 0.0
C1277 C 0.94752 0.26262 0.46701 0.0
N1278 N 0.92651 0.19694 0.41914 0.0
N1279 N 0.95964 0.27563 0.65198 0.0
H1280 H 0.9504 0.29019 0.30828 0.0
H1281 H 0.9567 0.3052 0.44483 0.0
H1282 H 0.96151 0.27496 0.74711 0.0
H1283 H 0.96584 0.28922 0.60232 0.0
H1284 H 0.92303 0.17775 0.46404 0.0
H1285 H 0.92561 0.1957 0.32272 0.0
H1286 H 0.91916 0.18942 0.64705 0.0
H1287 H 0.92784 0.1994 0.77797 0.0
C1288 C 0.69726 0.74334 0.21965 0.0
C1289 C 0.68529 0.73495 0.17203 0.0
C1290 C 0.67737 0.73337 0.38901 0.0
C1291 C 0.68951 0.73972 0.43678 0.0
N1292 N 0.7101 0.75909 0.39589 0.0
N1293 N 0.66484 0.71472 0.21641 0.0
C1294 C 0.69925 0.74664 0.35125 0.0
C1295 C 0.67556 0.7283 0.25839 0.0
N1296 N 0.70684 0.74806 0.13876 0.0
N1297 N 0.66749 0.73209 0.46885 0.0
H1298 H 0.66355 0.70842 0.12375 0.0
H1299 H 0.65789 0.70628 0.27467 0.0
H1300 H 0.66857 0.73551 0.56377 0.0
H1301 H 0.65821 0.73025 0.44041 0.0
H1302 H 0.71619 0.74959 0.16474 0.0
H1303 H 0.70541 0.74843 0.04369 0.0
H1304 H 0.71728 0.76745 0.34035 0.0
H1305 H 0.71141 0.76425 0.48972 0.0
C1306 C 0.07043 0.01794 0.26626 0.0
C1307 C 0.06409 -0.00404 0.19207 0.0
C1308 C 0.05406 0.97633 0.38496 0.0
C1309 C 0.06116 -0.00325 0.4599 0.0
N1310 N 0.0783 0.03211 0.47038 0.0
N1311 N 0.05171 0.95015 0.18754 0.0
C1312 C 0.06995 0.01621 0.39981 0.0
C1313 C 0.05641 0.97407 0.25357 0.0
N1314 N 0.07688 0.04082 0.20904 0.0
N1315 N 0.04492 0.9591 0.43891 0.0
H1316 H 0.05281 0.94826 0.09202 0.0
H1317 H 0.04749 0.93128 0.22836 0.0
H1318 H 0.04341 0.95858 0.53471 0.0
H1319 H 0.03835 0.94674 0.38809 0.0
H1320 H 0.08061 0.05942 0.25648 0.0
H1321 H 0.07752 0.04266 0.11252 0.0
H1322 H 0.08564 0.0448 0.43368 0.0
H1323 H 0.0788 0.0294 0.56609 0.0
C1324 C 0.69913 0.97683 0.59263 0.0
C1325 C 0.68779 0.9891 0.64187 0.0
C1326 C 0.68002 -0.00539 0.42534 0.0
C1327 C 0.69176 0.9851 0.37566 0.0
N1328 N 0.71259 0.96639 0.41517 0.0
N1329 N 0.66853 0.01563 0.60069 0.0
C1330 C 0.70133 0.97615 0.46067 0.0
C1331 C 0.67852 -0.00062 0.55663 0.0
N1332 N 0.70761 0.96418 0.6718 0.0
N1333 N 0.67025 -0.00036 0.34671 0.0
H1334 H 0.66747 0.02113 0.69451 0.0
H1335 H 0.66208 0.02661 0.54354 0.0
H1336 H 0.67128 -0.00153 0.25105 0.0
H1337 H 0.66106 0.00283 0.37629 0.0
H1338 H 0.71513 0.95077 0.64372 0.0
H1339 H 0.70666 0.96584 0.76723 0.0
H1340 H 0.72065 0.96442 0.46897 0.0
H1341 H 0.71396 0.96063 0.32204 0.0
C1342 C 0.06663 0.76269 0.44187 0.0
C1343 C 0.05754 0.74278 0.38918 0.0
C1344 C 0.05447 0.72021 0.60087 0.0
C1345 C 0.0628 0.7418 0.65459 0.0
N1346 N 0.07532 0.78692 0.62642 0.0
N1347 N 0.04263 0.70225 0.42209 0.0
C1348 C 0.06853 0.76375 0.57459 0.0
C1349 C 0.05134 0.72172 0.47038 0.0
N1350 N 0.07353 0.7808 0.3651 0.0
N1351 N 0.05018 0.69682 0.67283 0.0
H1352 H 0.04153 0.69854 0.327 0.0
H1353 H 0.03632 0.69001 0.47617 0.0
H1354 H 0.05222 0.69499 0.76725 0.0
H1355 H 0.04537 0.67803 0.63824 0.0
H1356 H 0.08139 0.79292 0.39379 0.0
H1357 H 0.072 0.78184 0.26979 0.0
H1358 H 0.07862 0.80556 0.57669 0.0
H1359 H 0.0765 0.78947 0.7221 0.0
C1360 C 0.31982 0.75816 0.20624 0.0
C1361 C 0.30868 0.74492 0.15756 0.0
C1362 C 0.30184 0.73512 0.37498 0.0
C1363 C 0.31252 0.75056 0.42339 0.0
N1364 N 0.33041 0.78205 0.38168 0.0
N1365 N 0.28897 0.72031 0.19817 0.0
C1366 C 0.32115 0.76348 0.3376 0.0
C1367 C 0.29968 0.73333 0.24311 0.0
N1368 N 0.32935 0.765 0.12702 0.0
N1369 N 0.29389 0.72115 0.45552 0.0
H1370 H 0.28782 0.71444 0.10485 0.0
H1371 H 0.28114 0.71569 0.25246 0.0
H1372 H 0.29409 0.72591 0.54979 0.0
H1373 H 0.28715 0.70525 0.42969 0.0
H1374 H 0.33813 0.77248 0.15576 0.0
H1375 H 0.32894 0.75948 0.03324 0.0
H1376 H 0.33627 0.79481 0.3247 0.0
H1377 H 0.33136 0.78732 0.47588 0.0
C1378 C 0.94929 0.47767 0.3284 0.0
C1379 C 0.93851 0.49015 0.38706 0.0
C1380 C 0.93215 0.5117 0.18182 0.0
C1381 C 0.94315 0.49988 0.12424 0.0
N1382 N 0.9637 0.4779 0.15437 0.0
N1383 N 0.91824 0.51361 0.36109 0.0
C1384 C 0.95214 0.48472 0.20098 0.0
C1385 C 0.92955 0.50568 0.31118 0.0
N1386 N 0.95631 0.45675 0.39144 0.0
N1387 N 0.92461 0.53075 0.11481 0.0
H1388 H 0.91602 0.51054 0.45446 0.0
H1389 H 0.91067 0.52123 0.30874 0.0
H1390 H 0.92652 0.53667 1.02293 0.0
H1391 H 0.9172 0.54306 0.15252 0.0
H1392 H 0.96347 0.44408 0.35062 0.0
H1393 H 0.954 0.44935 0.48061 0.0
H1394 H 0.97114 0.47073 0.20971 0.0
H1395 H 0.96624 0.48153 0.06222 0.0
C1396 C 0.32233 0.5099 0.03936 0.0
C1397 C 0.31453 0.48973 0.96952 0.0
C1398 C 0.30352 0.47634 0.16607 0.0
C1399 C 0.3107 0.49819 0.2339 0.0
N1400 N 0.32621 0.53776 0.23205 0.0
N1401 N 0.29761 0.45375 0.96677 0.0
C1402 C 0.31995 0.51535 0.16945 0.0
C1403 C 0.3051 0.47301 0.03346 0.0
N1404 N 0.33225 0.52354 0.98175 0.0
N1405 N 0.29544 0.45795 0.22957 0.0
H1406 H 0.29922 0.44874 0.87334 0.0
H1407 H 0.28955 0.4436 1.00147 0.0
H1408 H 0.29387 0.46004 0.32483 0.0
H1409 H 0.29083 0.43938 0.1907 0.0
H1410 H 0.33928 0.53519 1.02888 0.0
H1411 H 0.33388 0.52191 0.88639 0.0
H1412 H 0.33193 0.55379 0.18927 0.0
H1413 H 0.32506 0.54163 0.32703 0.0
C1414 C 0.94611 0.77568 0.96048 0.0
C1415 C 0.93747 0.75589 0.90039 0.0
C1416 C 0.93358 0.73087 0.10531 0.0
C1417 C 0.94198 0.75127 0.16608 0.0
N1418 N 0.9545 0.79669 0.15261 0.0
N1419 N 0.92166 0.71715 0.91971 0.0
C1420 C 0.94779 0.77453 0.09335 0.0
C1421 C 0.93082 0.73427 0.97439 0.0
N1422 N 0.95287 0.79561 0.88987 0.0
N1423 N 0.92866 0.70723 0.17154 0.0
H1424 H 0.9198 0.7178 0.82455 0.0
H1425 H 0.9154 0.70362 0.969 0.0
H1426 H 0.9302 0.70461 0.26657 0.0
H1427 H 0.92374 0.68924 0.13186 0.0
H1428 H 0.96052 0.80783 0.92289 0.0
H1429 H 0.9513 0.79861 0.79499 0.0
H1430 H 0.95785 0.81623 0.10938 0.0
H1431 H 0.95578 0.79701 0.24849 0.0
C1432 C 0.70022 0.25308 0.71254 0.0
C1433 C 0.69022 0.23625 0.6578 0.0
C1434 C 0.68378 0.22069 0.8703 0.0
C1435 C 0.69315 0.23951 0.92546 0.0
N1436 N 0.70889 0.27785 0.89626 0.0
N1437 N 0.67204 0.20479 0.6874 0.0
C1438 C 0.70098 0.25681 0.84529 0.0
C1439 C 0.68192 0.22027 0.7379 0.0
N1440 N 0.70923 0.26502 0.63754 0.0
N1441 N 0.67683 0.20231 0.94465 0.0
H1442 H 0.67104 0.20127 0.59195 0.0
H1443 H 0.66461 0.19633 0.73944 0.0
H1444 H 0.67641 0.20577 0.03973 0.0
H1445 H 0.67154 0.184 0.91246 0.0
H1446 H 0.71745 0.27482 0.67042 0.0
H1447 H 0.70901 0.26219 0.54176 0.0
H1448 H 0.71392 0.29359 0.8441 0.0
H1449 H 0.70945 0.28166 0.99192 0.0
C1450 C 0.05143 0.50596 0.88088 0.0
C1451 C 0.05997 0.48834 0.9536 0.0
C1452 C 0.07169 0.47711 0.75829 0.0
C1453 C 0.06398 0.49766 0.68974 0.0
N1454 N 0.04794 0.5361 0.69447 0.0
N1455 N 0.0786 0.45762 0.95913 0.0
C1456 C 0.05426 0.51329 0.75374 0.0
C1457 C 0.07023 0.47417 0.89118 0.0
N1458 N 0.04026 0.51479 0.93087 0.0
N1459 N 0.0802 0.45959 0.69568 0.0
H1460 H 0.07725 0.45298 0.05306 0.0
H1461 H 0.08712 0.44979 0.92461 0.0
H1462 H 0.08165 0.46134 0.60006 0.0
H1463 H 0.08515 0.44172 0.73605 0.0
H1464 H 0.0331 0.52458 0.87856 0.0
H1465 H 0.03763 0.50986 1.02178 0.0
H1466 H 0.04172 0.55068 0.73975 0.0
H1467 H 0.04981 0.54235 0.60277 0.0
C1468 C 0.69919 0.47208 0.05591 0.0
C1469 C 0.68924 0.4897 0.10634 0.0
C1470 C 0.68334 0.50404 0.89066 0.0
C1471 C 0.69266 0.48422 0.83992 0.0
N1472 N 0.70727 0.44354 0.8799 0.0
N1473 N 0.67128 0.52152 0.06917 0.0
C1474 C 0.69995 0.46665 0.92461 0.0
C1475 C 0.68119 0.50541 1.02261 0.0
N1476 N 0.70816 0.46097 0.13355 0.0
N1477 N 0.67672 0.52249 0.81354 0.0
H1478 H 0.6701 0.52567 0.16401 0.0
H1479 H 0.664 0.52986 1.01446 0.0
H1480 H 0.67636 0.51865 0.71892 0.0
H1481 H 0.6717 0.5415 0.84346 0.0
H1482 H 0.71622 0.44987 0.10307 0.0
H1483 H 0.70834 0.4668 0.22707 0.0
H1484 H 0.7118 0.42785 0.93689 0.0
H1485 H 0.70762 0.43776 0.78586 0.0
C1486 C 0.05931 0.21412 0.91865 0.0
C1487 C 0.06148 0.24228 0.85649 0.0
C1488 C 0.06619 0.2657 0.0615 0.0
C1489 C 0.06541 0.23677 0.12241 0.0
N1490 N 0.06248 0.18251 0.10167 0.0
N1491 N 0.06887 0.29387 0.86846 0.0
C1492 C 0.06243 0.21074 0.04825 0.0
C1493 C 0.06539 0.26775 0.92827 0.0
N1494 N 0.05351 0.19101 0.85606 0.0
N1495 N 0.0676 0.29159 0.13013 0.0
H1496 H 0.06847 0.29625 0.77206 0.0
H1497 H 0.07325 0.3121 0.91265 0.0
H1498 H 0.06882 0.29139 0.22546 0.0
H1499 H 0.06656 0.31343 0.09388 0.0
H1500 H 0.05045 0.17106 0.8984 0.0
H1501 H 0.05055 0.1931 0.76418 0.0
H1502 H 0.06198 0.16237 0.05052 0.0
H1503 H 0.06379 0.17905 0.19672 0.0
C1504 C 0.8215 0.26453 0.14719 0.0
C1505 C 0.81231 0.24594 0.08796 0.0
C1506 C 0.8063 0.22634 0.2965 0.0
C1507 C 0.81516 0.24589 0.35561 0.0
N1508 N 0.82963 0.28746 0.33775 0.0
N1509 N 0.79506 0.21112 0.10904 0.0
C1510 C 0.82227 0.26614 0.28066 0.0
C1511 C 0.80446 0.22744 0.16386 0.0
N1512 N 0.82982 0.28007 0.07531 0.0
N1513 N 0.79979 0.20604 0.36727 0.0
H1514 H 0.79403 0.20935 1.01284 0.0
H1515 H 0.78793 0.20038 0.15811 0.0
H1516 H 0.80013 0.20639 0.46372 0.0
H1517 H 0.79448 0.18824 0.33132 0.0
H1518 H 0.83728 0.29273 0.10975 0.0
H1519 H 0.83016 0.27717 0.97969 0.0
H1520 H 0.83412 0.30509 0.29121 0.0
H1521 H 0.83035 0.28927 0.43426 0.0
C1522 C 0.42882 0.00839 0.30498 0.0
C1523 C 0.43702 0.98981 0.37764 0.0
C1524 C 0.44861 0.97717 0.18303 0.0
C1525 C 0.44122 -0.00173 0.11359 0.0
N1526 N 0.42526 0.03693 0.11407 0.0
N1527 N 0.45458 0.95562 0.38369 0.0
C1528 C 0.43156 0.01454 0.17632 0.0
C1529 C 0.44689 0.97404 0.31558 0.0
N1530 N 0.41811 0.01956 0.35758 0.0
N1531 N 0.45702 0.95922 0.12115 0.0
H1532 H 0.45276 0.95018 0.47623 0.0
H1533 H 0.46293 0.94649 0.35068 0.0
H1534 H 0.45866 0.96117 1.02599 0.0
H1535 H 0.46179 0.94105 0.16123 0.0
H1536 H 0.41097 0.0298 0.30664 0.0
H1537 H 0.41594 0.01688 0.45139 0.0
H1538 H 0.41916 0.05217 0.15708 0.0
H1539 H 0.42692 0.04193 1.02075 0.0
C1540 C 0.80358 0.962 0.9616 0.0
C1541 C 0.81222 0.98187 0.90218 0.0
C1542 C 0.81648 0.00608 0.10847 0.0
C1543 C 0.80747 0.98696 0.16718 0.0
N1544 N 0.79418 0.94273 0.15235 0.0
N1545 N 0.82636 0.02431 0.91745 0.0
C1546 C 0.80137 0.96411 0.09367 0.0
C1547 C 0.81858 0.00416 0.97576 0.0
N1548 N 0.79739 0.94099 0.8907 0.0
N1549 N 0.8232 0.02587 0.18028 0.0
H1550 H 0.82824 0.02341 0.82238 0.0
H1551 H 0.83039 0.04317 0.96012 0.0
H1552 H 0.82167 0.02834 0.27527 0.0
H1553 H 0.83077 0.03854 0.1489 0.0
H1554 H 0.78977 0.92829 0.92093 0.0
H1555 H 0.79953 0.93715 0.79747 0.0
H1556 H 0.79032 0.92373 0.10919 0.0
H1557 H 0.79294 0.94209 0.24836 0.0
C1558 C 0.43206 0.23884 1.01196 0.0
C1559 C 0.43966 0.25728 0.9328 0.0
C1560 C 0.452 0.27266 0.11873 0.0
C1561 C 0.44494 0.2527 0.19742 0.0
N1562 N 0.42888 0.21456 0.21336 0.0
N1563 N 0.45664 0.29256 0.91212 0.0
C1564 C 0.43504 0.2355 0.1424 0.0
C1565 C 0.44955 0.27434 0.98714 0.0
N1566 N 0.42179 0.22475 0.96265 0.0
N1567 N 0.46074 0.29139 0.17105 0.0
H1568 H 0.45424 0.29718 0.82022 0.0
H1569 H 0.46514 0.30218 0.93786 0.0
H1570 H 0.46306 0.2907 0.26453 0.0
H1571 H 0.46521 0.30912 0.12505 0.0
H1572 H 0.41486 0.21442 1.01579 0.0
H1573 H 0.41979 0.22472 0.86775 0.0
H1574 H 0.4227 0.19845 0.17793 0.0
H1575 H 0.43055 0.21194 0.30803 0.0
C1576 C 0.19946 0.7178 0.88719 0.0
C1577 C 0.19234 0.73774 0.96599 0.0
C1578 C 0.17914 0.75049 0.78182 0.0
C1579 C 0.18694 0.73266 0.7018 0.0
N1580 N 0.20398 0.69747 0.68054 0.0
N1581 N 0.17624 0.77597 0.98128 0.0
C1582 C 0.19694 0.71587 0.7557 0.0
C1583 C 0.18232 0.75456 0.91137 0.0
N1584 N 0.20834 0.69942 0.93925 0.0
N1585 N 0.16844 0.76307 0.73479 0.0
H1586 H 0.17823 0.77971 0.07484 0.0
H1587 H 0.16995 0.79172 0.94479 0.0
H1588 H 0.16609 0.76212 0.64077 0.0
H1589 H 0.16148 0.77276 0.78981 0.0
H1590 H 0.21299 0.68195 0.89307 0.0
H1591 H 0.21065 0.7002 0.03273 0.0
H1592 H 0.2125 0.68782 0.70574 0.0
H1593 H 0.20147 0.69252 0.58912 0.0
C1594 C 0.55459 0.9796 0.7711 0.0
C1595 C 0.565 -0.00537 0.71529 0.0
C1596 C 0.57168 0.01124 0.92665 0.0
C1597 C 0.56166 -0.00522 0.98286 0.0
N1598 N 0.54483 0.95902 0.95786 0.0
N1599 N 0.58394 0.02354 0.74239 0.0
C1600 C 0.55346 0.97788 0.90441 0.0
C1601 C 0.57366 0.01005 0.79422 0.0
N1602 N 0.54562 0.96724 0.69636 0.0
N1603 N 0.57915 0.02895 0.99978 0.0
H1604 H 0.58508 0.02605 0.64664 0.0
H1605 H 0.59157 0.03135 0.79342 0.0
H1606 H 0.57872 0.0282 0.09596 0.0
H1607 H 0.58542 0.04508 0.96607 0.0
H1608 H 0.53708 0.95899 0.72851 0.0
H1609 H 0.54627 0.96761 0.60006 0.0
H1610 H 0.53943 0.94349 0.90823 0.0
H1611 H 0.54389 0.95679 0.05398 0.0
C1612 C 0.19968 0.00977 0.95016 0.0
C1613 C 0.19149 0.99076 0.8792 0.0
C1614 C 0.17942 0.9805 0.07304 0.0
C1615 C 0.18771 -0.00077 0.14419 0.0
N1616 N 0.204 0.03688 0.1436 0.0
N1617 N 0.1745 0.95499 0.8771 0.0
C1618 C 0.19743 0.01504 0.0807 0.0
C1619 C 0.18156 0.97553 0.94199 0.0
N1620 N 0.20976 0.02272 0.89273 0.0
N1621 N 0.16918 0.96819 0.13017 0.0
H1622 H 0.17562 0.95127 0.78203 0.0
H1623 H 0.16812 0.94014 0.9176 0.0
H1624 H 0.16766 0.96963 0.22574 0.0
H1625 H 0.16184 0.95775 0.08306 0.0
H1626 H 0.2171 0.03312 0.94017 0.0
H1627 H 0.21117 0.02181 0.79689 0.0
H1628 H 0.21026 0.05184 0.10198 0.0
H1629 H 0.20238 0.04194 0.23693 0.0
C1630 C 0.56836 0.75739 0.93484 0.0
C1631 C 0.55779 0.74388 0.8753 0.0
C1632 C 0.55213 0.72017 0.07764 0.0
C1633 C 0.56217 0.73518 0.13887 0.0
N1634 N 0.5793 0.77065 0.12692 0.0
N1635 N 0.53797 0.71818 0.90153 0.0
C1636 C 0.57017 0.75439 0.06732 0.0
C1637 C 0.5492 0.72701 0.95019 0.0
N1638 N 0.57663 0.7736 0.86448 0.0
N1639 N 0.54566 0.69806 0.13956 0.0
H1640 H 0.53538 0.72209 0.80964 0.0
H1641 H 0.53076 0.70918 0.95521 0.0
H1642 H 0.54769 0.69192 0.23104 0.0
H1643 H 0.53918 0.68377 0.09666 0.0
H1644 H 0.58536 0.78078 0.89566 0.0
H1645 H 0.57488 0.77901 0.77186 0.0
H1646 H 0.58466 0.78747 0.08477 0.0
H1647 H 0.58092 0.76905 0.22232 0.0
C1648 C 0.80139 0.73025 0.66693 0.0
C1649 C 0.80956 0.74445 0.57997 0.0
C1650 C 0.82122 0.76681 0.75738 0.0
C1651 C 0.81348 0.75142 0.84543 0.0
N1652 N 0.79398 0.72499 0.87864 0.0
N1653 N 0.82905 0.77013 0.54621 0.0
C1654 C 0.80292 0.73506 0.79858 0.0
C1655 C 0.81998 0.76095 0.62662 0.0
N1656 N 0.79274 0.70987 0.62382 0.0
N1657 N 0.82914 0.78916 0.79799 0.0
H1658 H 0.82896 0.76343 0.45372 0.0
H1659 H 0.83743 0.78019 0.57371 0.0
H1660 H 0.82944 0.79643 0.8903 0.0
H1661 H 0.83412 0.80341 0.73863 0.0
H1662 H 0.78741 0.69586 0.68112 0.0
H1663 H 0.79188 0.70431 0.52985 0.0
H1664 H 0.78518 0.71752 0.85049 0.0
H1665 H 0.79507 0.72577 0.9741 0.0
C1666 C 0.44606 0.47465 0.86278 0.0
C1667 C 0.43765 0.49608 0.91661 0.0
C1668 C 0.43379 0.5171 0.70394 0.0
C1669 C 0.44298 0.4974 0.65137 0.0
N1670 N 0.45803 0.45709 0.68399 0.0
N1671 N 0.42463 0.54046 0.88824 0.0
C1672 C 0.44921 0.4763 0.73234 0.0
C1673 C 0.43175 0.51782 0.83652 0.0
N1674 N 0.45044 0.4513 0.93468 0.0
N1675 N 0.42696 0.53541 0.62706 0.0
H1676 H 0.42329 0.54276 0.98379 0.0
H1677 H 0.42114 0.55898 0.83893 0.0
H1678 H 0.42867 0.53687 0.53217 0.0
H1679 H 0.41903 0.54739 0.65482 0.0
H1680 H 0.4554 0.43271 0.90016 0.0
H1681 H 0.44834 0.44929 1.0289 0.0
H1682 H 0.46436 0.44487 0.73806 0.0
H1683 H 0.45925 0.45375 0.5888 0.0
C1684 C 0.81351 0.51706 0.46749 0.0
C1685 C 0.81423 0.48806 0.40663 0.0
C1686 C 0.80976 0.46418 0.61154 0.0
C1687 C 0.81092 0.49276 0.67343 0.0
N1688 N 0.81627 0.54578 0.65898 0.0
N1689 N 0.81396 0.43329 0.4285 0.0
C1690 C 0.81347 0.51895 0.6007 0.0
C1691 C 0.81276 0.46146 0.48157 0.0
N1692 N 0.81247 0.54312 0.39978 0.0
N1693 N 0.80493 0.43993 0.67435 0.0
H1694 H 0.81495 0.42992 0.33301 0.0
H1695 H 0.81462 0.41332 0.48033 0.0
H1696 H 0.80188 0.44161 0.76592 0.0
H1697 H 0.80261 0.41935 0.63195 0.0
H1698 H 0.81057 0.56433 0.4392 0.0
H1699 H 0.81202 0.54329 0.30394 0.0
H1700 H 0.81959 0.56489 0.61212 0.0
H1701 H 0.81656 0.54794 0.75555 0.0
C1702 C 0.44901 0.73647 0.63963 0.0
C1703 C 0.44012 0.75073 0.7199 0.0
C1704 C 0.42848 0.76817 0.53307 0.0
C1705 C 0.43685 0.75228 0.45304 0.0
N1706 N 0.45456 0.71881 0.43235 0.0
N1707 N 0.42007 0.77504 0.74078 0.0
C1708 C 0.44702 0.73593 0.50723 0.0
C1709 C 0.42948 0.76504 0.66565 0.0
N1710 N 0.45941 0.72317 0.69016 0.0
N1711 N 0.4198 0.78735 0.48214 0.0
H1712 H 0.42037 0.77246 0.83664 0.0
H1713 H 0.41147 0.78269 0.70759 0.0
H1714 H 0.41901 0.7908 0.38647 0.0
H1715 H 0.41428 0.80219 0.53429 0.0
H1716 H 0.46714 0.71631 0.6384 0.0
H1717 H 0.46049 0.71976 0.78551 0.0
H1718 H 0.46105 0.70301 0.46465 0.0
H1719 H 0.4539 0.71954 0.3362 0.0
C1720 C 0.18295 0.22785 0.24932 0.0
C1721 C 0.19011 0.2463 0.16691 0.0
C1722 C 0.2 0.27051 0.35086 0.0
C1723 C 0.19374 0.25029 0.43373 0.0
N1724 N 0.17982 0.20754 0.45623 0.0
N1725 N 0.20743 0.28051 0.14191 0.0
C1726 C 0.1853 0.22854 0.38119 0.0
C1727 C 0.19919 0.26624 0.21882 0.0
N1728 N 0.17377 0.20958 0.20163 0.0
N1729 N 0.20636 0.2949 0.39826 0.0
H1730 H 0.20785 0.27534 0.04791 0.0
H1731 H 0.21496 0.29349 0.17303 0.0
H1732 H 0.20676 0.29964 0.49311 0.0
H1733 H 0.20999 0.31233 0.34357 0.0
H1734 H 0.16698 0.19902 0.25589 0.0
H1735 H 0.17262 0.20587 0.10647 0.0
H1736 H 0.17536 0.18799 0.42395 0.0
H1737 H 0.18005 0.20942 0.55184 0.0
C1738 C 0.55217 0.50893 0.33793 0.0
C1739 C 0.55869 0.48848 0.41938 0.0
C1740 C 0.57023 0.46889 0.23454 0.0
C1741 C 0.56416 0.49035 0.15444 0.0
N1742 N 0.55071 0.53393 0.13606 0.0
N1743 N 0.57503 0.45128 0.44407 0.0
C1744 C 0.55539 0.51094 0.20789 0.0
C1745 C 0.56811 0.46937 0.36708 0.0
N1746 N 0.54299 0.52729 0.3854 0.0
N1747 N 0.57754 0.44663 0.18273 0.0
H1748 H 0.57319 0.44935 0.53865 0.0
H1749 H 0.5831 0.43981 0.41662 0.0
H1750 H 0.57887 0.44441 0.08713 0.0
H1751 H 0.5812 0.42829 0.23202 0.0
H1752 H 0.53646 0.53868 0.33062 0.0
H1753 H 0.54171 0.53081 0.48036 0.0
H1754 H 0.54552 0.55215 0.17056 0.0
H1755 H 0.55278 0.53603 0.0419 0.0
C1756 C 0.18492 0.47724 0.46126 0.0
C1757 C 0.19295 0.49812 0.39906 0.0
C1758 C 0.19704 0.5235 0.60293 0.0
C1759 C 0.18868 0.50333 0.66436 0.0
N1760 N 0.17346 0.46308 0.64869 0.0
N1761 N 0.2052 0.54416 0.40937 0.0
C1762 C 0.18228 0.48083 0.59221 0.0
C1763 C 0.19867 0.52193 0.47012 0.0
N1764 N 0.18025 0.45303 0.39624 0.0
N1765 N 0.20361 0.54414 0.67233 0.0
H1766 H 0.20648 0.54428 0.31338 0.0
H1767 H 0.20837 0.56407 0.45138 0.0
H1768 H 0.2021 0.54724 0.7673 0.0
H1769 H 0.21106 0.55688 0.6384 0.0
H1770 H 0.17559 0.43479 0.43693 0.0
H1771 H 0.18173 0.45018 0.30113 0.0
H1772 H 0.16738 0.44875 0.60084 0.0
H1773 H 0.17168 0.46394 0.74395 0.0
C1774 C 0.57121 0.25746 0.44674 0.0
C1775 C 0.56131 0.24211 0.38439 0.0
C1776 C 0.55554 0.21785 0.58597 0.0
C1777 C 0.56563 0.23281 0.64773 0.0
N1778 N 0.58495 0.26075 0.6265 0.0
N1779 N 0.54482 0.20487 0.39235 0.0
C1780 C 0.57399 0.25086 0.57496 0.0
C1781 C 0.55365 0.22162 0.45388 0.0
N1782 N 0.57778 0.27932 0.38437 0.0
N1783 N 0.54787 0.1994 0.65384 0.0
H1784 H 0.54306 0.20731 0.29759 0.0
H1785 H 0.53968 0.18733 0.43217 0.0
H1786 H 0.5499 0.19318 0.74517 0.0
H1787 H 0.53939 0.19079 0.62194 0.0
H1788 H 0.58411 0.294 0.42724 0.0
H1789 H 0.57614 0.28456 0.29119 0.0
H1790 H 0.59212 0.27071 0.57533 0.0
H1791 H 0.58739 0.25669 0.71874 0.0
C1792 C 0.3016 0.39062 0.41178 0.0
C1793 C 0.31156 0.40053 0.49064 0.0
C1794 C 0.32498 0.36007 0.40457 0.0
C1795 C 0.31484 0.3489 0.33221 0.0
N1796 N 0.29608 0.3633 0.2237 0.0
N1797 N 0.33131 0.38854 0.5867 0.0
C1798 C 0.30383 0.36688 0.32376 0.0
C1799 C 0.32282 0.38334 0.49405 0.0
N1800 N 0.28984 0.4025 0.42337 0.0
N1801 N 0.33694 0.35093 0.37933 0.0
H1802 H 0.32972 0.40434 0.65765 0.0
H1803 H 0.33911 0.37471 0.60148 0.0
H1804 H 0.33922 0.33853 0.2998 0.0
H1805 H 0.34476 0.35993 0.42406 0.0
H1806 H 0.28212 0.39364 0.37653 0.0
H1807 H 0.28727 0.41843 0.48995 0.0
H1808 H 0.28855 0.37767 0.20498 0.0
H1809 H 0.29834 0.34899 0.14942 0.0
C1810 C 0.95112 0.85304 0.37458 0.0
C1811 C 0.94048 0.84099 0.43756 0.0
C1812 C 0.9275 0.88168 0.34745 0.0
C1813 C 0.93816 0.89455 0.28901 0.0
N1814 N 0.95821 0.88263 0.19877 0.0
N1815 N 0.91972 0.8506 0.51562 0.0
C1816 C 0.9495 0.8776 0.28935 0.0
C1817 C 0.92903 0.85739 0.43318 0.0
N1818 N 0.96287 0.84223 0.39819 0.0
N1819 N 0.91576 0.89013 0.31091 0.0
H1820 H 0.92084 0.83427 0.58526 0.0
H1821 H 0.91163 0.8637 0.52472 0.0
H1822 H 0.9142 0.90354 0.23248 0.0
H1823 H 0.90766 0.87978 0.34416 0.0
H1824 H 0.97092 0.85259 0.36366 0.0
H1825 H 0.96489 0.82556 0.46347 0.0
H1826 H 0.9662 0.86926 0.18744 0.0
H1827 H 0.95645 0.8967 0.12273 0.0
C1828 C 0.30923 0.88068 0.07045 0.0
C1829 C 0.31153 0.90394 0.98244 0.0
C1830 C 0.31369 0.8654 0.81693 0.0
C1831 C 0.31042 0.84234 0.90323 0.0
N1832 N 0.3034 0.82833 0.10849 0.0
N1833 N 0.31472 0.91937 0.76959 0.0
C1834 C 0.30772 0.85009 1.02903 0.0
C1835 C 0.31346 0.89654 0.85497 0.0
N1836 N 0.30895 0.88771 0.19442 0.0
N1837 N 0.31731 0.85743 0.69922 0.0
H1838 H 0.3151 0.94228 0.79427 0.0
H1839 H 0.31456 0.9159 0.67382 0.0
H1840 H 0.3172 0.83501 0.66684 0.0
H1841 H 0.3212 0.87263 0.63592 0.0
H1842 H 0.30879 0.87145 0.26476 0.0
H1843 H 0.30999 0.90988 0.22788 0.0
H1844 H 0.29996 0.83292 0.19715 0.0
H1845 H 0.30225 0.80584 0.08177 0.0
C1846 C 0.93824 0.37654 0.77426 0.0
C1847 C 0.94405 0.39981 0.84493 0.0
C1848 C 0.94836 0.36313 1.01255 0.0
C1849 C 0.94321 0.33941 0.93884 0.0
N1850 N 0.93596 0.32251 0.73681 0.0
N1851 N 0.95677 0.41435 1.02017 0.0
C1852 C 0.93888 0.34583 0.8161 0.0
C1853 C 0.94983 0.39274 0.96038 0.0
N1854 N 0.93198 0.38381 0.66735 0.0
N1855 N 0.95124 0.35783 0.13452 0.0
H1856 H 0.95793 0.43619 0.98475 0.0
H1857 H 0.96226 0.40989 0.0981 0.0
H1858 H 0.95002 0.3367 0.17679 0.0
H1859 H 0.95373 0.37495 0.19694 0.0
H1860 H 0.9262 0.36859 0.62021 0.0
H1861 H 0.93196 0.4057 0.62963 0.0
H1862 H 0.93417 0.3256 0.64244 0.0
H1863 H 0.93651 0.29967 0.76161 0.0
C1864 C 0.68357 0.63697 0.55826 0.0
C1865 C 0.6867 0.64269 0.68516 0.0
C1866 C 0.69372 0.58965 0.70573 0.0
C1867 C 0.68965 0.58353 0.58221 0.0
N1868 N 0.67909 0.60016 0.39614 0.0
N1869 N 0.69206 0.62253 0.8865 0.0
C1870 C 0.68399 0.60679 0.51061 0.0
C1871 C 0.69105 0.61845 0.76077 0.0
N1872 N 0.68099 0.66058 0.48033 0.0
N1873 N 0.70021 0.56807 0.77074 0.0
H1874 H 0.68973 0.64295 0.93059 0.0
H1875 H 0.69389 0.60487 0.94847 0.0
H1876 H 0.70212 0.54648 0.73569 0.0
H1877 H 0.70459 0.57237 0.85553 0.0
H1878 H 0.68023 0.65846 0.38413 0.0
H1879 H 0.68072 0.68285 0.5109 0.0
H1880 H 0.67334 0.61509 0.34705 0.0
H1881 H 0.68014 0.57902 0.35289 0.0
C1882 C 0.07313 0.1036 0.6776 0.0
C1883 C 0.06229 0.09169 0.73609 0.0
C1884 C 0.0498 0.13263 0.63929 0.0
C1885 C 0.06066 0.14351 0.57662 0.0
N1886 N 0.08136 0.13157 0.50286 0.0
N1887 N 0.04194 0.10472 0.8169 0.0
C1888 C 0.0719 0.12649 0.58564 0.0
C1889 C 0.05101 0.10884 0.72909 0.0
N1890 N 0.08475 0.09577 0.71965 0.0
N1891 N 0.03821 0.14355 0.60932 0.0
H1892 H 0.04335 0.09115 0.89515 0.0
H1893 H 0.034 0.1184 0.82369 0.0
H1894 H 0.03658 0.15804 0.53479 0.0
H1895 H 0.02997 0.13453 0.64547 0.0
H1896 H 0.09294 0.10572 0.68609 0.0
H1897 H 0.08608 0.08347 0.8015 0.0
H1898 H 0.08934 0.11794 0.49835 0.0
H1899 H 0.08043 0.14692 0.4293 0.0
C1900 C 0.69339 0.10483 1.02744 0.0
C1901 C 0.68999 0.08183 0.11294 0.0
C1902 C 0.68745 0.12067 0.27663 0.0
C1903 C 0.6922 0.14304 0.19466 0.0
N1904 N 0.70167 0.15534 0.99704 0.0
N1905 N 0.68597 0.06722 0.32542 0.0
C1906 C 0.69578 0.13479 0.0716 0.0
C1907 C 0.68751 0.0896 0.23922 0.0
N1908 N 0.69383 0.09839 0.903 0.0
N1909 N 0.68291 0.12903 0.39063 0.0
H1910 H 0.68644 0.04442 0.3018 0.0
H1911 H 0.68551 0.07111 0.42088 0.0
H1912 H 0.68342 0.15125 0.42487 0.0
H1913 H 0.6779 0.11434 0.44795 0.0
H1914 H 0.69489 0.115 0.83473 0.0
H1915 H 0.69186 0.07686 0.86676 0.0
H1916 H 0.70567 0.14976 0.9117 0.0
H1917 H 0.70362 0.17731 1.02583 0.0
C1918 C 0.05344 0.62575 0.07244 0.0
C1919 C 0.05949 0.6493 0.14004 0.0
C1920 C 0.06561 0.61182 0.29983 0.0
C1921 C 0.0587 0.58897 0.23672 0.0
N1922 N 0.04349 0.57639 0.07877 0.0
N1923 N 0.06898 0.66566 0.33367 0.0
C1924 C 0.05176 0.59668 0.12845 0.0
C1925 C 0.06496 0.6426 0.25806 0.0
N1926 N 0.04995 0.63041 0.95161 0.0
N1927 N 0.07281 0.60417 0.40017 0.0
H1928 H 0.06851 0.68853 0.30925 0.0
H1929 H 0.07165 0.66243 0.42589 0.0
H1930 H 0.07278 0.58247 0.43965 0.0
H1931 H 0.07934 0.61887 0.43991 0.0
H1932 H 0.04672 0.61305 0.89374 0.0
H1933 H 0.0516 0.65074 0.90461 0.0
H1934 H 0.03729 0.58192 1.00739 0.0
H1935 H 0.04186 0.55513 0.11761 0.0
C1936 C 0.82212 0.37618 0.97123 0.0
C1937 C 0.8111 0.39399 0.96028 0.0
C1938 C 0.8034 0.35862 0.79976 0.0
C1939 C 0.81432 0.34038 0.81299 0.0
N1940 N 0.83629 0.34177 0.86804 0.0
N1941 N 0.78948 0.39571 0.89151 0.0
C1942 C 0.82433 0.35169 0.88736 0.0
C1943 C 0.80118 0.38332 0.88322 0.0
N1944 N 0.83037 0.38227 0.0651 0.0
N1945 N 0.7958 0.35447 0.69891 0.0
H1946 H 0.78697 0.41221 0.95613 0.0
H1947 H 0.78175 0.38666 0.84539 0.0
H1948 H 0.79815 0.33975 0.62628 0.0
H1949 H 0.78834 0.36883 0.67736 0.0
H1950 H 0.83794 0.36818 0.08618 0.0
H1951 H 0.82873 0.39931 0.131 0.0
H1952 H 0.84401 0.35069 0.91476 0.0
H1953 H 0.83885 0.32896 0.79052 0.0
C1954 C 0.45124 0.89029 0.92423 0.0
C1955 C 0.4413 0.90031 0.84527 0.0
C1956 C 0.42829 0.85809 0.92032 0.0
C1957 C 0.43844 0.84654 0.9917 0.0
N1958 N 0.45693 0.86068 0.10578 0.0
N1959 N 0.42198 0.88778 0.7421 0.0
C1960 C 0.44927 0.86501 1.0055 0.0
C1961 C 0.43035 0.88228 0.83551 0.0
N1962 N 0.46273 0.90385 0.91991 0.0
N1963 N 0.41634 0.84879 0.94398 0.0
H1964 H 0.42348 0.90446 0.67462 0.0
H1965 H 0.41443 0.87347 0.72326 0.0
H1966 H 0.41402 0.83617 1.0226 0.0
H1967 H 0.40854 0.85811 0.89993 0.0
H1968 H 0.47057 0.89502 0.9649 0.0
H1969 H 0.46502 0.92173 0.86132 0.0
H1970 H 0.46429 0.87518 0.12873 0.0
H1971 H 0.45471 0.84561 0.17727 0.0
C1972 C 0.81576 0.86 0.25064 0.0
C1973 C 0.80807 0.83781 0.30794 0.0
C1974 C 0.80321 0.87398 0.47553 0.0
C1975 C 0.80984 0.89732 0.41248 0.0
N1976 N 0.8203 0.91335 0.22273 0.0
N1977 N 0.79184 0.82672 0.45735 0.0
C1978 C 0.81558 0.89058 0.29534 0.0
C1979 C 0.80091 0.8458 0.41438 0.0
N1980 N 0.82323 0.85195 0.15271 0.0
N1981 N 0.79977 0.87781 0.59695 0.0
H1982 H 0.78944 0.80664 0.41217 0.0
H1983 H 0.78565 0.83271 0.52828 0.0
H1984 H 0.80214 0.89706 0.64859 0.0
H1985 H 0.796 0.86037 0.65076 0.0
H1986 H 0.8303 0.86589 0.11826 0.0
H1987 H 0.82284 0.83059 0.11015 0.0
H1988 H 0.82317 0.91004 0.13114 0.0
H1989 H 0.82017 0.93621 0.24734 0.0
C1990 C 0.45338 0.3552 0.41012 0.0
C1991 C 0.44461 0.34418 0.49786 0.0
C1992 C 0.43567 0.3957 0.51002 0.0
C1993 C 0.44247 0.40433 0.40147 0.0
N1994 N 0.456 0.38809 0.23302 0.0
N1995 N 0.42696 0.35439 0.63141 0.0
C1996 C 0.45088 0.38296 0.34744 0.0
C1997 C 0.43554 0.36454 0.5471 0.0
N1998 N 0.46423 0.33982 0.38804 0.0
N1999 N 0.43007 0.41727 0.58307 0.0
H2000 H 0.42726 0.33257 0.66955 0.0
H2001 H 0.41923 0.36728 0.65872 0.0
H2002 H 0.43081 0.44056 0.56671 0.0
H2003 H 0.42602 0.41231 0.66882 0.0
H2004 H 0.4713 0.34852 0.33147 0.0
H2005 H 0.46678 0.32034 0.43699 0.0
H2006 H 0.46138 0.3718 0.18677 0.0
H2007 H 0.45358 0.40669 0.17788 0.0
C2008 C 0.20009 0.60948 0.10634 0.0
C2009 C 0.19155 0.58749 0.15287 0.0
C2010 C 0.18342 0.62613 0.29853 0.0
C2011 C 0.19258 0.64709 0.25704 0.0
N2012 N 0.2129 0.65262 0.16027 0.0
N2013 N 0.17834 0.57316 0.32759 0.0
C2014 C 0.202 0.63688 0.17388 0.0
C2015 C 0.18408 0.59524 0.25874 0.0
N2016 N 0.20584 0.60547 0.9941 0.0
N2017 N 0.17426 0.63536 0.37886 0.0
H2018 H 0.17949 0.54996 0.31164 0.0
H2019 H 0.1738 0.57763 0.41144 0.0
H2020 H 0.1742 0.65679 0.42092 0.0
H2021 H 0.16644 0.62207 0.3991 0.0
H2022 H 0.21139 0.62226 0.9535 0.0
H2023 H 0.20379 0.58745 0.93442 0.0
H2024 H 0.22036 0.6443 0.10766 0.0
H2025 H 0.21503 0.67208 0.21135 0.0
C2026 C 0.55303 0.10915 0.28255 0.0
C2027 C 0.56377 0.09041 0.26767 0.0
C2028 C 0.57175 0.12561 0.10949 0.0
C2029 C 0.56088 0.14396 0.12055 0.0
N2030 N 0.53969 0.14875 0.19968 0.0
N2031 N 0.58578 0.0917 0.21632 0.0
C2032 C 0.55106 0.13452 0.2017 0.0
C2033 C 0.57385 0.10149 0.19454 0.0
N2034 N 0.54541 0.10472 0.38299 0.0
N2035 N 0.58001 0.13081 1.01489 0.0
H2036 H 0.58815 0.07945 0.29575 0.0
H2037 H 0.59356 0.10043 0.1702 0.0
H2038 H 0.57849 0.14753 0.94756 0.0
H2039 H 0.58747 0.11627 0.99512 0.0
H2040 H 0.53812 0.11933 0.40725 0.0
H2041 H 0.54757 0.0891 0.45282 0.0
H2042 H 0.53187 0.14045 0.24633 0.0
H2043 H 0.53747 0.16684 0.14177 0.0
C2044 C 0.19707 0.11316 0.53757 0.0
C2045 C 0.19259 0.08962 0.61599 0.0
C2046 C 0.18916 0.12691 0.78422 0.0
C2047 C 0.19417 0.15013 0.70775 0.0
N2048 N 0.20468 0.16496 0.51843 0.0
N2049 N 0.18656 0.07303 0.82176 0.0
C2050 C 0.19876 0.14306 0.58682 0.0
C2051 C 0.18921 0.09622 0.74143 0.0
N2052 N 0.199 0.10735 0.41404 0.0
N2053 N 0.18424 0.13423 0.89789 0.0
H2054 H 0.18633 0.05032 0.79494 0.0
H2055 H 0.18561 0.07588 0.91743 0.0
H2056 H 0.18496 0.15589 0.93728 0.0
H2057 H 0.17886 0.11931 0.95067 0.0
H2058 H 0.20084 0.12417 0.34846 0.0
H2059 H 0.1977 0.0859 0.37439 0.0
H2060 H 0.20948 0.16047 0.43616 0.0
H2061 H 0.20562 0.18742 0.54796 0.0
C2062 C 0.55346 0.6055 0.74815 0.0
C2063 C 0.55933 0.58259 0.67513 0.0
C2064 C 0.56453 0.62115 0.51703 0.0
C2065 C 0.55784 0.64336 0.58602 0.0
N2066 N 0.54376 0.65531 0.75428 0.0
N2067 N 0.5682 0.56765 0.47699 0.0
C2068 C 0.55156 0.63502 0.69709 0.0
C2069 C 0.56427 0.59015 0.5559 0.0
N2070 N 0.55042 0.59974 0.86928 0.0
N2071 N 0.57122 0.6297 0.41453 0.0
H2072 H 0.5681 0.54467 0.50012 0.0
H2073 H 0.57047 0.57142 0.38411 0.0
H2074 H 0.57097 0.65175 0.37849 0.0
H2075 H 0.57757 0.61544 0.36963 0.0
H2076 H 0.54737 0.61648 0.93105 0.0
H2077 H 0.5522 0.57895 0.91225 0.0
H2078 H 0.53793 0.64957 0.8282 0.0
H2079 H 0.54222 0.67714 0.72011 0.0
C2080 C 0.3108 0.13707 0.29114 0.0
C2081 C 0.31343 0.15706 0.1909 0.0
C2082 C 0.31346 0.11394 0.04572 0.0
C2083 C 0.31193 0.09342 0.14626 0.0
N2084 N 0.30891 0.0851 0.36617 0.0
N2085 N 0.31716 0.16454 0.97135 0.0
C2086 C 0.31041 0.10493 0.2695 0.0
C2087 C 0.31478 0.14545 0.06847 0.0
N2088 N 0.30837 0.14902 0.40628 0.0
N2089 N 0.31321 0.1043 0.92527 0.0
H2090 H 0.31831 0.18784 0.98263 0.0
H2091 H 0.3182 0.15687 0.87996 0.0
H2092 H 0.3114 0.08192 0.89801 0.0
H2093 H 0.3114 0.08192 0.89801 0.0
H2094 H 0.30505 0.13649 0.48131 0.0
H2095 H 0.30903 0.17224 0.42584 0.0
H2096 H 0.30917 0.09131 0.45947 0.0
H2097 H 0.30793 0.06172 0.35388 0.0
C2098 C 0.93659 0.12928 1.00719 0.0
C2099 C 0.94123 0.14977 0.0977 0.0
C2100 C 0.94451 0.10679 0.24126 0.0
C2101 C 0.93846 0.08708 0.15544 0.0
N2102 N 0.92653 0.08126 0.96574 0.0
N2103 N 0.94851 0.15871 0.30757 0.0
C2104 C 0.93377 0.09888 0.0415 0.0
C2105 C 0.94497 0.13871 0.21654 0.0
N2106 N 0.93567 0.1383 0.88604 0.0
N2107 N 0.94981 0.09502 0.34654 0.0
H2108 H 0.94911 0.18214 0.29381 0.0
H2109 H 0.9499 0.15249 0.39993 0.0
H2110 H 0.9489 0.07222 0.37207 0.0
H2111 H 0.95569 0.10738 0.40501 0.0
H2112 H 0.93347 0.12352 0.81336 0.0
H2113 H 0.93874 0.1596 0.85636 0.0
H2114 H 0.92184 0.08976 0.88817 0.0
H2115 H 0.92421 0.05896 0.98694 0.0
C2116 C 0.68862 0.88329 0.80752 0.0
C2117 C 0.68955 0.89295 0.93348 0.0
C2118 C 0.68961 0.83982 1.00208 0.0
C2119 C 0.68932 0.83016 0.87567 0.0
N2120 N 0.69106 0.84228 0.65796 0.0
N2121 N 0.69311 0.88098 0.14906 0.0
C2122 C 0.68952 0.85179 0.77826 0.0
C2123 C 0.69069 0.87135 1.03037 0.0
N2124 N 0.6865 0.90415 0.71595 0.0
N2125 N 0.68832 0.81897 0.09526 0.0
H2126 H 0.69373 0.90394 0.17352 0.0
H2127 H 0.69548 0.86634 0.22142 0.0
H2128 H 0.68761 0.79576 0.07842 0.0
H2129 H 0.68698 0.82471 0.18828 0.0
H2130 H 0.68425 0.89842 0.62463 0.0
H2131 H 0.68604 0.92734 0.73355 0.0
H2132 H 0.6927 0.85703 0.58406 0.0
H2133 H 0.69182 0.81937 0.63299 0.0
C2134 C 0.06767 0.88833 0.99757 0.0
C2135 C 0.06252 0.89971 0.88481 0.0
C2136 C 0.05661 0.84746 0.82555 0.0
C2137 C 0.06085 0.8367 0.94331 0.0
N2138 N 0.06702 0.8487 0.15319 0.0
N2139 N 0.05073 0.89069 0.69712 0.0
C2140 C 0.06547 0.85763 1.03244 0.0
C2141 C 0.05651 0.87943 0.80084 0.0
N2142 N 0.07478 0.90663 0.07189 0.0
N2143 N 0.0532 0.82716 0.73516 0.0
H2144 H 0.0512 0.91355 0.67136 0.0
H2145 H 0.04487 0.87777 0.64051 0.0
H2146 H 0.05309 0.80368 0.74855 0.0
H2147 H 0.05145 0.8333 0.64329 0.0
H2148 H 0.07991 0.89856 0.1474 0.0
H2149 H 0.07648 0.9293 0.05177 0.0
H2150 H 0.06911 0.86375 0.22528 0.0
H2151 H 0.0647 0.82695 0.18409 0.0
C2152 C 0.31362 0.6432 0.60104 0.0
C2153 C 0.31211 0.65328 0.7259 0.0
C2154 C 0.31196 0.60018 0.79724 0.0
C2155 C 0.3127 0.59015 0.67157 0.0
N2156 N 0.31204 0.60162 0.45278 0.0
N2157 N 0.30825 0.64194 0.94148 0.0
C2158 C 0.31297 0.61154 0.57312 0.0
C2159 C 0.31088 0.6319 0.82379 0.0
N2160 N 0.31604 0.66385 0.50937 0.0
N2161 N 0.31258 0.57935 0.89135 0.0
H2162 H 0.30758 0.66498 0.9645 0.0
H2163 H 0.30586 0.6276 1.01468 0.0
H2164 H 0.31291 0.55598 0.87533 0.0
H2165 H 0.3136 0.58509 0.98475 0.0
H2166 H 0.31865 0.65789 0.41929 0.0
H2167 H 0.31639 0.68715 0.52589 0.0
H2168 H 0.31074 0.61608 0.37722 0.0
H2169 H 0.3115 0.57863 0.42892 0.0
C2170 C 0.93202 0.63016 0.54068 0.0
C2171 C 0.93726 0.65241 0.6212 0.0
C2172 C 0.94303 0.61225 0.77014 0.0
C2173 C 0.93727 0.59025 0.69234 0.0
N2174 N 0.92443 0.57854 0.51423 0.0
N2175 N 0.94522 0.66558 0.82463 0.0
C2176 C 0.93112 0.59937 0.58124 0.0
C2177 C 0.94208 0.64372 0.73937 0.0
N2178 N 0.92853 0.63812 0.42281 0.0
N2179 N 0.94953 0.60305 0.87303 0.0
H2180 H 0.94445 0.68884 0.80709 0.0
H2181 H 0.94748 0.66082 0.91678 0.0
H2182 H 0.94979 0.58045 0.90275 0.0
H2183 H 0.95527 0.61746 0.92474 0.0
H2184 H 0.92601 0.62244 0.35452 0.0
H2185 H 0.92913 0.66032 0.38943 0.0
H2186 H 0.91862 0.58424 0.44008 0.0
H2187 H 0.9239 0.55569 0.53909 0.0
C2188 C 0.69009 0.38477 0.28674 0.0
C2189 C 0.69005 0.39571 0.41131 0.0
C2190 C 0.68978 0.34326 0.4882 0.0
C2191 C 0.69078 0.33247 0.36385 0.0
N2192 N 0.69401 0.3426 0.14613 0.0
N2193 N 0.6917 0.38586 0.63107 0.0
C2194 C 0.69158 0.35315 0.26349 0.0
C2195 C 0.6904 0.37507 0.51233 0.0
N2196 N 0.6881 0.40442 0.19062 0.0
N2197 N 0.68786 0.32315 0.58292 0.0
H2198 H 0.69194 0.40904 0.65243 0.0
H2199 H 0.6935 0.37199 0.70748 0.0
H2200 H 0.68751 0.29979 0.56866 0.0
H2201 H 0.68566 0.3296 0.67354 0.0
H2202 H 0.68672 0.39758 0.09887 0.0
H2203 H 0.68662 0.42749 0.20458 0.0
H2204 H 0.69617 0.35676 0.07158 0.0
H2205 H 0.6949 0.31948 0.12502 0.0
C2206 C 0.07541 0.34775 0.36676 0.0
C2207 C 0.06754 0.33548 0.46061 0.0
C2208 C 0.06034 0.38723 0.50969 0.0
C2209 C 0.06612 0.39833 0.39951 0.0
N2210 N 0.07763 0.38705 0.21141 0.0
N2211 N 0.05189 0.3437 0.61894 0.0
C2212 C 0.07337 0.37812 0.32539 0.0
C2213 C 0.05978 0.35528 0.53104 0.0
N2214 N 0.08482 0.33065 0.31637 0.0
N2215 N 0.05601 0.40713 0.59772 0.0
H2216 H 0.05178 0.32074 0.64352 0.0
H2217 H 0.04496 0.35666 0.66214 0.0
H2218 H 0.05704 0.43065 0.59058 0.0
H2219 H 0.05279 0.40023 0.68464 0.0
H2220 H 0.09154 0.33972 0.2567 0.0
H2221 H 0.08665 0.30824 0.34233 0.0
H2222 H 0.08183 0.37211 0.14856 0.0
H2223 H 0.07572 0.40837 0.1737 0.0
C2224 C 0.81536 0.10595 0.51277 0.0
C2225 C 0.81165 0.08532 0.60674 0.0
C2226 C 0.80834 0.12818 0.75129 0.0
C2227 C 0.81317 0.14848 0.6606 0.0
N2228 N 0.82262 0.1563 0.45921 0.0
N2229 N 0.8057 0.07583 0.81955 0.0
C2230 C 0.81711 0.1372 0.54279 0.0
C2231 C 0.80836 0.09618 0.7271 0.0
N2232 N 0.81656 0.09592 0.39288 0.0
N2233 N 0.80363 0.13953 0.86021 0.0
H2234 H 0.80535 0.05237 0.80492 0.0
H2235 H 0.80469 0.08186 0.91266 0.0
H2236 H 0.80405 0.16257 0.88381 0.0
H2237 H 0.79864 0.12654 0.92406 0.0
H2238 H 0.81785 0.11031 0.3171 0.0
H2239 H 0.815 0.07336 0.3671 0.0
H2240 H 0.82713 0.14888 0.37886 0.0
H2241 H 0.82344 0.17953 0.47424 0.0
C2242 C 0.43615 0.13286 0.53661 0.0
C2243 C 0.43799 0.1541 0.63445 0.0
C2244 C 0.44001 0.11207 0.78448 0.0
C2245 C 0.43759 0.09095 0.68748 0.0
N2246 N 0.43182 0.08074 0.47508 0.0
N2247 N 0.44002 0.16478 0.85354 0.0
C2248 C 0.43516 0.10126 0.5647 0.0
C2249 C 0.43944 0.14392 0.75913 0.0
N2250 N 0.43599 0.14278 0.41616 0.0
N2251 N 0.44324 0.1016 0.89986 0.0
H2252 H 0.43992 0.18821 0.83814 0.0
H2253 H 0.4397 0.15912 0.94742 0.0
H2254 H 0.44342 0.07849 0.92232 0.0
H2255 H 0.44652 0.11549 0.97124 0.0
H2256 H 0.43606 0.12836 0.33926 0.0
H2257 H 0.43676 0.16569 0.39243 0.0
H2258 H 0.4285 0.08677 0.38749 0.0
H2259 H 0.43158 0.0574 0.4916 0.0
C2260 C 0.18655 0.88947 0.32582 0.0
C2261 C 0.1865 0.89973 0.45128 0.0
C2262 C 0.18467 0.84697 0.52405 0.0
C2263 C 0.18561 0.83665 0.39914 0.0
N2264 N 0.18874 0.84713 0.18168 0.0
N2265 N 0.18713 0.88874 0.67049 0.0
C2266 C 0.18683 0.85766 0.29999 0.0
C2267 C 0.18588 0.87862 0.55075 0.0
N2268 N 0.18617 0.91023 0.23132 0.0
N2269 N 0.18261 0.82638 0.61701 0.0
H2270 H 0.18818 0.91171 0.69299 0.0
H2271 H 0.1881 0.87446 0.74702 0.0
H2272 H 0.18222 0.803 0.60092 0.0
H2273 H 0.18048 0.83236 0.70827 0.0
H2274 H 0.18466 0.90457 0.1385 0.0
H2275 H 0.18661 0.9336 0.24672 0.0
H2276 H 0.19112 0.86097 0.10691 0.0
H2277 H 0.18872 0.82402 0.15918 0.0
C2278 C 0.56073 0.84606 0.32644 0.0
C2279 C 0.56184 0.83469 0.44979 0.0
C2280 C 0.56408 0.88681 0.52931 0.0
C2281 C 0.56236 0.8983 0.40688 0.0
N2282 N 0.55741 0.88967 0.19122 0.0
N2283 N 0.56239 0.84393 0.67055 0.0
C2284 C 0.56023 0.87812 0.306 0.0
C2285 C 0.56298 0.85498 0.55178 0.0
N2286 N 0.56052 0.82618 0.22848 0.0
N2287 N 0.56696 0.90632 0.62407 0.0
H2288 H 0.56152 0.8208 0.69062 0.0
H2289 H 0.56171 0.85766 0.74925 0.0
H2290 H 0.56722 0.92978 0.6126 0.0
H2291 H 0.56987 0.89929 0.71188 0.0
H2292 H 0.56123 0.83277 0.13584 0.0
H2293 H 0.56049 0.80263 0.23984 0.0
H2294 H 0.55436 0.87647 0.11669 0.0
H2295 H 0.55726 0.91298 0.17231 0.0
C2296 C 0.82064 0.62894 0.21437 0.0
C2297 C 0.81445 0.64941 0.13282 0.0
C2298 C 0.80854 0.60654 0.99837 0.0
C2299 C 0.8155 0.58643 0.07487 0.0
N2300 N 0.83093 0.58016 0.23772 0.0
N2301 N 0.80643 0.65841 0.92687 0.0
C2302 C 0.82251 0.59817 0.17665 0.0
C2303 C 0.80945 0.63842 1.019 0.0
N2304 N 0.82412 0.63826 0.33069 0.0
N2305 N 0.80112 0.59539 0.90537 0.0
H2306 H 0.80849 0.68148 0.93461 0.0
H2307 H 0.80364 0.65173 0.83809 0.0
H2308 H 0.80059 0.57228 0.88358 0.0
H2309 H 0.79486 0.60895 0.85577 0.0
H2310 H 0.82745 0.62335 0.3984 0.0
H2311 H 0.82249 0.66022 0.36415 0.0
H2312 H 0.83716 0.58861 0.30391 0.0
H2313 H 0.83242 0.55732 0.21573 0.0
C2314 C 0.43569 0.61278 0.29918 0.0
C2315 C 0.43937 0.59175 0.206 0.0
C2316 C 0.44302 0.63437 0.06122 0.0
C2317 C 0.43803 0.65492 0.15046 0.0
N2318 N 0.42834 0.66327 0.35044 0.0
N2319 N 0.44583 0.58197 0.99436 0.0
C2320 C 0.43393 0.64394 0.26792 0.0
C2321 C 0.44293 0.60241 0.08601 0.0
N2322 N 0.4347 0.60335 0.41991 0.0
N2323 N 0.44799 0.64547 0.9532 0.0
H2324 H 0.44622 0.55855 1.00897 0.0
H2325 H 0.447 0.58785 0.90138 0.0
H2326 H 0.44764 0.66846 0.92896 0.0
H2327 H 0.45315 0.63234 0.89088 0.0
H2328 H 0.43338 0.6181 0.49469 0.0
H2329 H 0.43664 0.5811 0.44745 0.0
H2330 H 0.42372 0.65601 0.43028 0.0
H2331 H 0.42755 0.68647 0.33477 0.0
C2332 C 0.17967 0.34919 0.95919 0.0
C2333 C 0.18763 0.33903 0.86131 0.0
C2334 C 0.19447 0.39175 0.8284 0.0
C2335 C 0.18813 0.40079 0.93873 0.0
N2336 N 0.17622 0.38685 0.12034 0.0
N2337 N 0.2034 0.35048 0.70781 0.0
C2338 C 0.18109 0.3792 1.00693 0.0
C2339 C 0.19531 0.36027 0.79782 0.0
N2340 N 0.17062 0.33053 1.00599 0.0
N2341 N 0.19911 0.41327 0.74903 0.0
H2342 H 0.20368 0.32802 0.67654 0.0
H2343 H 0.21032 0.36428 0.66952 0.0
H2344 H 0.19821 0.43661 0.76449 0.0
H2345 H 0.20268 0.40813 0.66131 0.0
H2346 H 0.16383 0.33788 0.06876 0.0
H2347 H 0.16892 0.30882 0.97185 0.0
H2348 H 0.17225 0.37102 0.18066 0.0
H2349 H 0.17723 0.40839 0.15983 0.0
C2350 C 0.57164 0.34382 0.84336 0.0
C2351 C 0.56558 0.33387 0.95333 0.0
C2352 C 0.55902 0.38648 0.9967 0.0
C2353 C 0.56383 0.39577 0.87904 0.0
N2354 N 0.57233 0.38143 0.67935 0.0
N2355 N 0.55246 0.34485 0.12988 0.0
C2356 C 0.56958 0.37398 0.79965 0.0
C2357 C 0.55894 0.35497 1.02841 0.0
N2358 N 0.57935 0.32443 0.78006 0.0
N2359 N 0.55501 0.40775 0.08081 0.0
H2360 H 0.5529 0.32238 0.16105 0.0
H2361 H 0.5461 0.35827 0.17891 0.0
H2362 H 0.55499 0.43105 0.06327 0.0
H2363 H 0.55281 0.40267 0.17275 0.0
H2364 H 0.58502 0.33124 0.7064 0.0
H2365 H 0.58099 0.30218 0.8089 0.0
H2366 H 0.57532 0.36564 0.61335 0.0
H2367 H 0.57026 0.40265 0.64132 0.0
loop_
_geom_bond_atom_site_label_1
_geom_bond_atom_site_label_2
_geom_bond_distance
_geom_bond_site_symmetry_2
_ccdc_geom_bond_type
Tb0 O3 2.453 . S
Tb0 O4 2.596 . S
Tb0 O5 2.374 . S
Tb0 O13 2.343 . S
Tb0 O15 2.353 . S
Tb0 O17 2.427 . S
Tb0 O18 2.513 . S
C1 O5 1.251 . S
C1 O7 1.263 . S
Tb2 O4 2.343 . S
Tb2 O7 2.353 . S
Tb2 O10 2.427 . S
Tb2 O11 2.513 . S
Tb2 O12 2.453 1_554 S
Tb2 O13 2.596 . S
Tb2 O14 2.374 . S
O3 Tb0 2.453 . S
O3 C19 1.245 . S
O4 Tb0 2.596 . S
O4 Tb2 2.343 . S
O4 C19 1.259 . S
O5 Tb0 2.374 . S
O5 C1 1.251 . S
C6 O10 1.275 . S
C6 O11 1.246 . S
O7 C1 1.263 . S
O7 Tb2 2.353 . S
C8 O12 1.245 . S
C8 O13 1.259 1_556 S
C9 O14 1.250 . S
C9 O15 1.263 . S
O10 Tb2 2.427 . S
O10 C6 1.275 . S
O11 Tb2 2.513 . S
O11 C6 1.246 . S
O12 Tb2 2.453 1_556 S
O12 C8 1.245 . S
O13 Tb0 2.343 . S
O13 Tb2 2.596 . S
O13 C8 1.259 1_554 S
O14 Tb2 2.374 . S
O14 C9 1.250 . S
O15 Tb0 2.353 . S
O15 C9 1.263 . S
C16 O17 1.275 . S
C16 O18 1.246 . S
O17 Tb0 2.427 . S
O17 C16 1.275 . S
O18 Tb0 2.513 . S
O18 C16 1.246 . S
C19 O3 1.245 . S
C19 O4 1.259 . S
Tb20 O23 2.453 . S
Tb20 O24 2.594 1_545 S
Tb20 O25 2.374 1_545 S
Tb20 O33 2.343 1_545 S
Tb20 O35 2.353 . S
Tb20 O37 2.427 . S
Tb20 O38 2.513 1_545 S
C21 O25 1.251 . S
C21 O27 1.263 . S
Tb22 O24 2.346 . S
Tb22 O27 2.353 . S
Tb22 O30 2.427 . S
Tb22 O31 2.513 1_565 S
Tb22 O32 2.453 1_554 S
Tb22 O33 2.596 . S
Tb22 O34 2.374 1_565 S
O23 Tb20 2.453 . S
O23 C39 1.245 . S
O24 Tb20 2.594 1_565 S
O24 Tb22 2.346 . S
O24 C39 1.258 1_565 S
O25 Tb20 2.374 1_565 S
O25 C21 1.251 . S
C26 O30 1.275 . S
C26 O31 1.246 1_565 S
O27 C21 1.263 . S
O27 Tb22 2.353 . S
C28 O32 1.245 . S
C28 O33 1.259 1_556 S
C29 O34 1.250 . S
C29 O35 1.263 . S
O30 Tb22 2.427 . S
O30 C26 1.275 . S
O31 Tb22 2.513 1_545 S
O31 C26 1.246 1_545 S
O32 Tb22 2.453 1_556 S
O32 C28 1.245 . S
O33 Tb20 2.343 1_565 S
O33 Tb22 2.596 . S
O33 C28 1.259 1_554 S
O34 Tb22 2.374 1_545 S
O34 C29 1.250 . S
O35 Tb20 2.353 . S
O35 C29 1.263 . S
C36 O37 1.275 1_565 S
C36 O38 1.246 . S
O37 Tb20 2.427 . S
O37 C36 1.275 1_545 S
O38 Tb20 2.513 1_565 S
O38 C36 1.246 . S
C39 O23 1.245 . S
C39 O24 1.258 1_545 S
Tb40 O43 2.453 . S
Tb40 O44 2.594 1_545 S
Tb40 O45 2.374 1_545 S
Tb40 O53 2.343 1_546 S
Tb40 O55 2.353 1_556 S
Tb40 O57 2.427 1_556 S
Tb40 O58 2.513 1_546 S
C41 O45 1.251 . S
C41 O47 1.263 1_556 S
Tb42 O44 2.346 1_554 S
Tb42 O47 2.353 . S
Tb42 O50 2.427 1_554 S
Tb42 O51 2.513 1_564 S
Tb42 O52 2.453 . S
Tb42 O53 2.596 . S
Tb42 O54 2.374 1_565 S
O43 Tb40 2.453 . S
O43 C59 1.245 . S
O44 Tb40 2.594 1_565 S
O44 Tb42 2.346 1_556 S
O44 C59 1.258 1_565 S
O45 Tb40 2.374 1_565 S
O45 C41 1.251 . S
C46 O50 1.275 . S
C46 O51 1.246 1_565 S
O47 C41 1.263 1_554 S
O47 Tb42 2.353 . S
C48 O52 1.245 . S
C48 O53 1.259 . S
C49 O54 1.250 . S
C49 O55 1.263 . S
O50 Tb42 2.427 1_556 S
O50 C46 1.275 . S
O51 Tb42 2.513 1_546 S
O51 C46 1.246 1_545 S
O52 Tb42 2.453 . S
O52 C48 1.245 . S
O53 Tb40 2.343 1_564 S
O53 Tb42 2.596 . S
O53 C48 1.259 . S
O54 Tb42 2.374 1_545 S
O54 C49 1.250 . S
O55 Tb40 2.353 1_554 S
O55 C49 1.263 . S
C56 O57 1.275 1_565 S
C56 O58 1.246 . S
O57 Tb40 2.427 1_554 S
O57 C56 1.275 1_545 S
O58 Tb40 2.513 1_564 S
O58 C56 1.246 . S
C59 O43 1.245 . S
C59 O44 1.258 1_545 S
Tb60 O63 2.453 . S
Tb60 O64 2.596 . S
Tb60 O65 2.374 . S
Tb60 O73 2.343 1_556 S
Tb60 O75 2.353 1_556 S
Tb60 O77 2.427 1_556 S
Tb60 O78 2.513 1_556 S
C61 O65 1.251 . S
C61 O67 1.263 1_556 S
Tb62 O64 2.343 1_554 S
Tb62 O67 2.353 . S
Tb62 O70 2.427 1_554 S
Tb62 O71 2.513 1_554 S
Tb62 O72 2.453 . S
Tb62 O73 2.596 . S
Tb62 O74 2.374 . S
O63 Tb60 2.453 . S
O63 C79 1.245 . S
O64 Tb60 2.596 . S
O64 Tb62 2.343 1_556 S
O64 C79 1.259 . S
O65 Tb60 2.374 . S
O65 C61 1.251 . S
C66 O70 1.275 . S
C66 O71 1.246 . S
O67 C61 1.263 1_554 S
O67 Tb62 2.353 . S
C68 O72 1.245 . S
C68 O73 1.259 . S
C69 O74 1.250 . S
C69 O75 1.263 . S
O70 Tb62 2.427 1_556 S
O70 C66 1.275 . S
O71 Tb62 2.513 1_556 S
O71 C66 1.246 . S
O72 Tb62 2.453 . S
O72 C68 1.245 . S
O73 Tb60 2.343 1_554 S
O73 Tb62 2.596 . S
O73 C68 1.259 . S
O74 Tb62 2.374 . S
O74 C69 1.250 . S
O75 Tb60 2.353 1_554 S
O75 C69 1.263 . S
C76 O77 1.275 . S
C76 O78 1.246 . S
O77 Tb60 2.427 1_554 S
O77 C76 1.275 . S
O78 Tb60 2.513 1_554 S
O78 C76 1.246 . S
C79 O63 1.245 . S
C79 O64 1.259 . S
Tb80 O83 2.453 1_556 S
Tb80 O84 2.596 . S
Tb80 O85 2.374 . S
Tb80 O93 2.343 . S
Tb80 O95 2.353 . S
Tb80 O97 2.427 . S
Tb80 O98 2.513 . S
C81 O85 1.251 . S
C81 O87 1.263 . S
Tb82 O84 2.343 . S
Tb82 O87 2.353 . S
Tb82 O90 2.427 . S
Tb82 O91 2.513 . S
Tb82 O92 2.453 . S
Tb82 O93 2.596 . S
Tb82 O94 2.374 . S
O83 Tb80 2.453 1_554 S
O83 C99 1.245 . S
O84 Tb80 2.596 . S
O84 Tb82 2.343 . S
O84 C99 1.259 1_556 S
O85 Tb80 2.374 . S
O85 C81 1.251 . S
C86 O90 1.275 . S
C86 O91 1.246 . S
O87 C81 1.263 . S
O87 Tb82 2.353 . S
C88 O92 1.245 . S
C88 O93 1.259 . S
C89 O94 1.250 . S
C89 O95 1.263 . S
O90 Tb82 2.427 . S
O90 C86 1.275 . S
O91 Tb82 2.513 . S
O91 C86 1.246 . S
O92 Tb82 2.453 . S
O92 C88 1.245 . S
O93 Tb80 2.343 . S
O93 Tb82 2.596 . S
O93 C88 1.259 . S
O94 Tb82 2.374 . S
O94 C89 1.250 . S
O95 Tb80 2.353 . S
O95 C89 1.263 . S
C96 O97 1.275 . S
C96 O98 1.246 . S
O97 Tb80 2.427 . S
O97 C96 1.275 . S
O98 Tb80 2.513 . S
O98 C96 1.246 . S
C99 O83 1.245 . S
C99 O84 1.259 1_554 S
Tb100 O103 2.453 1_556 S
Tb100 O104 2.596 . S
Tb100 O105 2.374 1_545 S
Tb100 O113 2.346 . S
Tb100 O115 2.353 . S
Tb100 O117 2.427 . S
Tb100 O118 2.513 1_545 S
C101 O105 1.251 . S
C101 O107 1.263 . S
Tb102 O104 2.343 1_565 S
Tb102 O107 2.353 . S
Tb102 O110 2.427 . S
Tb102 O111 2.513 1_565 S
Tb102 O112 2.453 . S
Tb102 O113 2.594 1_565 S
Tb102 O114 2.374 1_565 S
O103 Tb100 2.453 1_554 S
O103 C119 1.245 . S
O104 Tb100 2.596 . S
O104 Tb102 2.343 1_545 S
O104 C119 1.259 1_556 S
O105 Tb100 2.374 1_565 S
O105 C101 1.251 . S
C106 O110 1.275 1_545 S
C106 O111 1.246 . S
O107 C101 1.263 . S
O107 Tb102 2.353 . S
C108 O112 1.245 . S
C108 O113 1.258 1_565 S
C109 O114 1.250 . S
C109 O115 1.263 . S
O110 Tb102 2.427 . S
O110 C106 1.275 1_565 S
O111 Tb102 2.513 1_545 S
O111 C106 1.246 . S
O112 Tb102 2.453 . S
O112 C108 1.245 . S
O113 Tb100 2.346 . S
O113 Tb102 2.594 1_545 S
O113 C108 1.258 1_545 S
O114 Tb102 2.374 1_545 S
O114 C109 1.250 . S
O115 Tb100 2.353 . S
O115 C109 1.263 . S
C116 O117 1.275 . S
C116 O118 1.246 1_545 S
O117 Tb100 2.427 . S
O117 C116 1.275 . S
O118 Tb100 2.513 1_565 S
O118 C116 1.246 1_565 S
C119 O103 1.245 . S
C119 O104 1.259 1_554 S
Tb120 O123 2.453 . S
Tb120 O124 2.596 . S
Tb120 O125 2.374 1_545 S
Tb120 O133 2.346 1_556 S
Tb120 O135 2.353 . S
Tb120 O137 2.427 1_556 S
Tb120 O138 2.513 1_546 S
C121 O125 1.251 . S
C121 O127 1.263 . S
Tb122 O124 2.343 1_564 S
Tb122 O127 2.353 1_554 S
Tb122 O130 2.427 1_554 S
Tb122 O131 2.513 1_564 S
Tb122 O132 2.453 . S
Tb122 O133 2.594 1_565 S
Tb122 O134 2.374 1_565 S
O123 Tb120 2.453 . S
O123 C139 1.245 . S
O124 Tb120 2.596 . S
O124 Tb122 2.343 1_546 S
O124 C139 1.259 . S
O125 Tb120 2.374 1_565 S
O125 C121 1.251 . S
C126 O130 1.275 1_545 S
C126 O131 1.246 . S
O127 C121 1.263 . S
O127 Tb122 2.353 1_556 S
C128 O132 1.245 . S
C128 O133 1.258 1_565 S
C129 O134 1.250 . S
C129 O135 1.263 1_554 S
O130 Tb122 2.427 1_556 S
O130 C126 1.275 1_565 S
O131 Tb122 2.513 1_546 S
O131 C126 1.246 . S
O132 Tb122 2.453 . S
O132 C128 1.245 . S
O133 Tb120 2.346 1_554 S
O133 Tb122 2.594 1_545 S
O133 C128 1.258 1_545 S
O134 Tb122 2.374 1_545 S
O134 C129 1.250 . S
O135 Tb120 2.353 . S
O135 C129 1.263 1_556 S
C136 O137 1.275 . S
C136 O138 1.246 1_545 S
O137 Tb120 2.427 1_554 S
O137 C136 1.275 . S
O138 Tb120 2.513 1_564 S
O138 C136 1.246 1_565 S
C139 O123 1.245 . S
C139 O124 1.259 . S
Tb140 O143 2.453 . S
Tb140 O144 2.596 . S
Tb140 O145 2.374 . S
Tb140 O153 2.343 1_556 S
Tb140 O155 2.353 . S
Tb140 O157 2.427 1_556 S
Tb140 O158 2.513 1_556 S
C141 O145 1.251 . S
C141 O147 1.263 . S
Tb142 O144 2.343 1_554 S
Tb142 O147 2.353 1_554 S
Tb142 O150 2.427 1_554 S
Tb142 O151 2.513 1_554 S
Tb142 O152 2.453 . S
Tb142 O153 2.596 . S
Tb142 O154 2.374 . S
O143 Tb140 2.453 . S
O143 C159 1.245 . S
O144 Tb140 2.596 . S
O144 Tb142 2.343 1_556 S
O144 C159 1.259 . S
O145 Tb140 2.374 . S
O145 C141 1.251 . S
C146 O150 1.275 . S
C146 O151 1.246 . S
O147 C141 1.263 . S
O147 Tb142 2.353 1_556 S
C148 O152 1.245 . S
C148 O153 1.259 . S
C149 O154 1.250 . S
C149 O155 1.263 1_554 S
O150 Tb142 2.427 1_556 S
O150 C146 1.275 . S
O151 Tb142 2.513 1_556 S
O151 C146 1.246 . S
O152 Tb142 2.453 . S
O152 C148 1.245 . S
O153 Tb140 2.343 1_554 S
O153 Tb142 2.596 . S
O153 C148 1.259 . S
O154 Tb142 2.374 . S
O154 C149 1.250 . S
O155 Tb140 2.353 . S
O155 C149 1.263 1_556 S
C156 O157 1.275 . S
C156 O158 1.246 . S
O157 Tb140 2.427 1_554 S
O157 C156 1.275 . S
O158 Tb140 2.513 1_554 S
O158 C156 1.246 . S
C159 O143 1.245 . S
C159 O144 1.259 . S
Tb160 O163 2.453 . S
Tb160 O164 2.596 . S
Tb160 O165 2.374 . S
Tb160 O173 2.343 . S
Tb160 O175 2.353 . S
Tb160 O177 2.427 . S
Tb160 O178 2.513 . S
C161 O165 1.251 . S
C161 O167 1.263 . S
Tb162 O164 2.343 . S
Tb162 O167 2.353 . S
Tb162 O170 2.427 . S
Tb162 O171 2.513 . S
Tb162 O172 2.453 . S
Tb162 O173 2.596 . S
Tb162 O174 2.374 . S
O163 Tb160 2.453 . S
O163 C179 1.245 . S
O164 Tb160 2.596 . S
O164 Tb162 2.343 . S
O164 C179 1.259 . S
O165 Tb160 2.374 . S
O165 C161 1.251 . S
C166 O170 1.275 . S
C166 O171 1.246 . S
O167 C161 1.263 . S
O167 Tb162 2.353 . S
C168 O172 1.245 . S
C168 O173 1.259 . S
C169 O174 1.250 . S
C169 O175 1.263 . S
O170 Tb162 2.427 . S
O170 C166 1.275 . S
O171 Tb162 2.513 . S
O171 C166 1.246 . S
O172 Tb162 2.453 . S
O172 C168 1.245 . S
O173 Tb160 2.343 . S
O173 Tb162 2.596 . S
O173 C168 1.259 . S
O174 Tb162 2.374 . S
O174 C169 1.250 . S
O175 Tb160 2.353 . S
O175 C169 1.263 . S
C176 O177 1.275 . S
C176 O178 1.246 . S
O177 Tb160 2.427 . S
O177 C176 1.275 . S
O178 Tb160 2.513 . S
O178 C176 1.246 . S
C179 O163 1.245 . S
C179 O164 1.259 . S
Tb180 O183 2.453 . S
Tb180 O184 2.596 . S
Tb180 O185 2.374 . S
Tb180 O193 2.343 . S
Tb180 O195 2.353 . S
Tb180 O197 2.427 . S
Tb180 O198 2.513 . S
C181 O185 1.251 . S
C181 O187 1.263 . S
Tb182 O184 2.343 . S
Tb182 O187 2.353 . S
Tb182 O190 2.427 . S
Tb182 O191 2.513 . S
Tb182 O192 2.453 . S
Tb182 O193 2.596 . S
Tb182 O194 2.374 . S
O183 Tb180 2.453 . S
O183 C199 1.245 . S
O184 Tb180 2.596 . S
O184 Tb182 2.343 . S
O184 C199 1.259 . S
O185 Tb180 2.374 . S
O185 C181 1.251 . S
C186 O190 1.275 . S
C186 O191 1.246 . S
O187 C181 1.263 . S
O187 Tb182 2.353 . S
C188 O192 1.245 . S
C188 O193 1.259 . S
C189 O194 1.250 . S
C189 O195 1.263 . S
O190 Tb182 2.427 . S
O190 C186 1.275 . S
O191 Tb182 2.513 . S
O191 C186 1.246 . S
O192 Tb182 2.453 . S
O192 C188 1.245 . S
O193 Tb180 2.343 . S
O193 Tb182 2.596 . S
O193 C188 1.259 . S
O194 Tb182 2.374 . S
O194 C189 1.250 . S
O195 Tb180 2.353 . S
O195 C189 1.263 . S
C196 O197 1.275 . S
C196 O198 1.246 . S
O197 Tb180 2.427 . S
O197 C196 1.275 . S
O198 Tb180 2.513 . S
O198 C196 1.246 . S
C199 O183 1.245 . S
C199 O184 1.259 . S
Tb200 O203 2.453 . S
Tb200 O204 2.596 . S
Tb200 O205 2.374 . S
Tb200 O213 2.343 . S
Tb200 O215 2.353 . S
Tb200 O217 2.427 . S
Tb200 O218 2.513 . S
C201 O205 1.251 . S
C201 O207 1.263 . S
Tb202 O204 2.343 . S
Tb202 O207 2.353 . S
Tb202 O210 2.427 . S
Tb202 O211 2.513 . S
Tb202 O212 2.453 . S
Tb202 O213 2.596 . S
Tb202 O214 2.374 . S
O203 Tb200 2.453 . S
O203 C219 1.245 . S
O204 Tb200 2.596 . S
O204 Tb202 2.343 . S
O204 C219 1.259 . S
O205 Tb200 2.374 . S
O205 C201 1.251 . S
C206 O210 1.275 . S
C206 O211 1.246 . S
O207 C201 1.263 . S
O207 Tb202 2.353 . S
C208 O212 1.245 . S
C208 O213 1.259 . S
C209 O214 1.250 . S
C209 O215 1.263 . S
O210 Tb202 2.427 . S
O210 C206 1.275 . S
O211 Tb202 2.513 . S
O211 C206 1.246 . S
O212 Tb202 2.453 . S
O212 C208 1.245 . S
O213 Tb200 2.343 . S
O213 Tb202 2.596 . S
O213 C208 1.259 . S
O214 Tb202 2.374 . S
O214 C209 1.250 . S
O215 Tb200 2.353 . S
O215 C209 1.263 . S
C216 O217 1.275 . S
C216 O218 1.246 . S
O217 Tb200 2.427 . S
O217 C216 1.275 . S
O218 Tb200 2.513 . S
O218 C216 1.246 . S
C219 O203 1.245 . S
C219 O204 1.259 . S
Tb220 O223 2.453 . S
Tb220 O224 2.596 . S
Tb220 O225 2.374 . S
Tb220 O233 2.343 . S
Tb220 O235 2.353 . S
Tb220 O237 2.427 . S
Tb220 O238 2.513 . S
C221 O225 1.251 . S
C221 O227 1.263 . S
Tb222 O224 2.343 . S
Tb222 O227 2.353 . S
Tb222 O230 2.427 . S
Tb222 O231 2.513 . S
Tb222 O232 2.453 . S
Tb222 O233 2.596 . S
Tb222 O234 2.374 . S
O223 Tb220 2.453 . S
O223 C239 1.245 . S
O224 Tb220 2.596 . S
O224 Tb222 2.343 . S
O224 C239 1.259 . S
O225 Tb220 2.374 . S
O225 C221 1.251 . S
C226 O230 1.275 . S
C226 O231 1.246 . S
O227 C221 1.263 . S
O227 Tb222 2.353 . S
C228 O232 1.245 . S
C228 O233 1.259 . S
C229 O234 1.250 . S
C229 O235 1.263 . S
O230 Tb222 2.427 . S
O230 C226 1.275 . S
O231 Tb222 2.513 . S
O231 C226 1.246 . S
O232 Tb222 2.453 . S
O232 C228 1.245 . S
O233 Tb220 2.343 . S
O233 Tb222 2.596 . S
O233 C228 1.259 . S
O234 Tb222 2.374 . S
O234 C229 1.250 . S
O235 Tb220 2.353 . S
O235 C229 1.263 . S
C236 O237 1.275 . S
C236 O238 1.246 . S
O237 Tb220 2.427 . S
O237 C236 1.275 . S
O238 Tb220 2.513 . S
O238 C236 1.246 . S
C239 O223 1.245 . S
C239 O224 1.259 . S
Tb240 O243 2.453 . S
Tb240 O244 2.596 . S
Tb240 O245 2.374 . S
Tb240 O253 2.343 . S
Tb240 O255 2.353 . S
Tb240 O257 2.427 . S
Tb240 O258 2.513 . S
C241 O245 1.251 . S
C241 O247 1.263 . S
Tb242 O244 2.343 . S
Tb242 O247 2.353 . S
Tb242 O250 2.427 . S
Tb242 O251 2.513 . S
Tb242 O252 2.453 . S
Tb242 O253 2.596 . S
Tb242 O254 2.374 . S
O243 Tb240 2.453 . S
O243 C259 1.245 . S
O244 Tb240 2.596 . S
O244 Tb242 2.343 . S
O244 C259 1.259 . S
O245 Tb240 2.374 . S
O245 C241 1.251 . S
C246 O250 1.275 . S
C246 O251 1.246 . S
O247 C241 1.263 . S
O247 Tb242 2.353 . S
C248 O252 1.245 . S
C248 O253 1.259 . S
C249 O254 1.250 . S
C249 O255 1.263 . S
O250 Tb242 2.427 . S
O250 C246 1.275 . S
O251 Tb242 2.513 . S
O251 C246 1.246 . S
O252 Tb242 2.453 . S
O252 C248 1.245 . S
O253 Tb240 2.343 . S
O253 Tb242 2.596 . S
O253 C248 1.259 . S
O254 Tb242 2.374 . S
O254 C249 1.250 . S
O255 Tb240 2.353 . S
O255 C249 1.263 . S
C256 O257 1.275 . S
C256 O258 1.246 . S
O257 Tb240 2.427 . S
O257 C256 1.275 . S
O258 Tb240 2.513 . S
O258 C256 1.246 . S
C259 O243 1.245 . S
C259 O244 1.259 . S
Tb260 O263 2.453 . S
Tb260 O264 2.596 . S
Tb260 O265 2.374 . S
Tb260 O273 2.343 . S
Tb260 O275 2.353 . S
Tb260 O277 2.427 . S
Tb260 O278 2.513 . S
C261 O265 1.251 . S
C261 O267 1.263 . S
Tb262 O264 2.343 . S
Tb262 O267 2.353 . S
Tb262 O270 2.427 . S
Tb262 O271 2.513 . S
Tb262 O272 2.453 . S
Tb262 O273 2.596 . S
Tb262 O274 2.374 . S
O263 Tb260 2.453 . S
O263 C279 1.245 . S
O264 Tb260 2.596 . S
O264 Tb262 2.343 . S
O264 C279 1.259 . S
O265 Tb260 2.374 . S
O265 C261 1.251 . S
C266 O270 1.275 . S
C266 O271 1.246 . S
O267 C261 1.263 . S
O267 Tb262 2.353 . S
C268 O272 1.245 . S
C268 O273 1.259 . S
C269 O274 1.250 . S
C269 O275 1.263 . S
O270 Tb262 2.427 . S
O270 C266 1.275 . S
O271 Tb262 2.513 . S
O271 C266 1.246 . S
O272 Tb262 2.453 . S
O272 C268 1.245 . S
O273 Tb260 2.343 . S
O273 Tb262 2.596 . S
O273 C268 1.259 . S
O274 Tb262 2.374 . S
O274 C269 1.250 . S
O275 Tb260 2.353 . S
O275 C269 1.263 . S
C276 O277 1.275 . S
C276 O278 1.246 . S
O277 Tb260 2.427 . S
O277 C276 1.275 . S
O278 Tb260 2.513 . S
O278 C276 1.246 . S
C279 O263 1.245 . S
C279 O264 1.259 . S
Tb280 O283 2.453 . S
Tb280 O284 2.596 . S
Tb280 O285 2.374 . S
Tb280 O293 2.343 . S
Tb280 O295 2.353 . S
Tb280 O297 2.427 . S
Tb280 O298 2.513 . S
C281 O285 1.251 . S
C281 O287 1.263 . S
Tb282 O284 2.343 . S
Tb282 O287 2.353 . S
Tb282 O290 2.427 . S
Tb282 O291 2.513 . S
Tb282 O292 2.453 . S
Tb282 O293 2.596 . S
Tb282 O294 2.374 . S
O283 Tb280 2.453 . S
O283 C299 1.245 . S
O284 Tb280 2.596 . S
O284 Tb282 2.343 . S
O284 C299 1.259 . S
O285 Tb280 2.374 . S
O285 C281 1.251 . S
C286 O290 1.275 . S
C286 O291 1.246 . S
O287 C281 1.263 . S
O287 Tb282 2.353 . S
C288 O292 1.245 . S
C288 O293 1.259 . S
C289 O294 1.250 . S
C289 O295 1.263 . S
O290 Tb282 2.427 . S
O290 C286 1.275 . S
O291 Tb282 2.513 . S
O291 C286 1.246 . S
O292 Tb282 2.453 . S
O292 C288 1.245 . S
O293 Tb280 2.343 . S
O293 Tb282 2.596 . S
O293 C288 1.259 . S
O294 Tb282 2.374 . S
O294 C289 1.250 . S
O295 Tb280 2.353 . S
O295 C289 1.263 . S
C296 O297 1.275 . S
C296 O298 1.246 . S
O297 Tb280 2.427 . S
O297 C296 1.275 . S
O298 Tb280 2.513 . S
O298 C296 1.246 . S
C299 O283 1.245 . S
C299 O284 1.259 . S
Tb300 O303 2.453 . S
Tb300 O304 2.596 . S
Tb300 O305 2.374 . S
Tb300 O313 2.343 . S
Tb300 O315 2.353 . S
Tb300 O317 2.427 . S
Tb300 O318 2.513 . S
C301 O305 1.251 . S
C301 O307 1.263 . S
Tb302 O304 2.343 . S
Tb302 O307 2.353 . S
Tb302 O310 2.427 . S
Tb302 O311 2.513 . S
Tb302 O312 2.453 . S
Tb302 O313 2.596 . S
Tb302 O314 2.374 . S
O303 Tb300 2.453 . S
O303 C319 1.245 . S
O304 Tb300 2.596 . S
O304 Tb302 2.343 . S
O304 C319 1.259 . S
O305 Tb300 2.374 . S
O305 C301 1.251 . S
C306 O310 1.275 . S
C306 O311 1.246 . S
O307 C301 1.263 . S
O307 Tb302 2.353 . S
C308 O312 1.245 . S
C308 O313 1.259 . S
C309 O314 1.250 . S
C309 O315 1.263 . S
O310 Tb302 2.427 . S
O310 C306 1.275 . S
O311 Tb302 2.513 . S
O311 C306 1.246 . S
O312 Tb302 2.453 . S
O312 C308 1.245 . S
O313 Tb300 2.343 . S
O313 Tb302 2.596 . S
O313 C308 1.259 . S
O314 Tb302 2.374 . S
O314 C309 1.250 . S
O315 Tb300 2.353 . S
O315 C309 1.263 . S
C316 O317 1.275 . S
C316 O318 1.246 . S
O317 Tb300 2.427 . S
O317 C316 1.275 . S
O318 Tb300 2.513 . S
O318 C316 1.246 . S
C319 O303 1.245 . S
C319 O304 1.259 . S
Tb320 O323 2.453 . S
Tb320 O324 2.596 . S
Tb320 O325 2.374 . S
Tb320 O333 2.343 . S
Tb320 O335 2.353 . S
Tb320 O337 2.427 . S
Tb320 O338 2.513 . S
C321 O325 1.251 . S
C321 O327 1.263 . S
Tb322 O324 2.343 . S
Tb322 O327 2.353 . S
Tb322 O330 2.427 . S
Tb322 O331 2.513 . S
Tb322 O332 2.453 . S
Tb322 O333 2.596 . S
Tb322 O334 2.374 . S
O323 Tb320 2.453 . S
O323 C339 1.245 . S
O324 Tb320 2.596 . S
O324 Tb322 2.343 . S
O324 C339 1.259 . S
O325 Tb320 2.374 . S
O325 C321 1.251 . S
C326 O330 1.275 . S
C326 O331 1.246 . S
O327 C321 1.263 . S
O327 Tb322 2.353 . S
C328 O332 1.245 . S
C328 O333 1.259 . S
C329 O334 1.250 . S
C329 O335 1.263 . S
O330 Tb322 2.427 . S
O330 C326 1.275 . S
O331 Tb322 2.513 . S
O331 C326 1.246 . S
O332 Tb322 2.453 . S
O332 C328 1.245 . S
O333 Tb320 2.343 . S
O333 Tb322 2.596 . S
O333 C328 1.259 . S
O334 Tb322 2.374 . S
O334 C329 1.250 . S
O335 Tb320 2.353 . S
O335 C329 1.263 . S
C336 O337 1.275 . S
C336 O338 1.246 . S
O337 Tb320 2.427 . S
O337 C336 1.275 . S
O338 Tb320 2.513 . S
O338 C336 1.246 . S
C339 O323 1.245 . S
C339 O324 1.259 . S
Tb340 O343 2.453 . S
Tb340 O344 2.594 1_545 S
Tb340 O345 2.374 1_545 S
Tb340 O353 2.343 1_545 S
Tb340 O355 2.353 . S
Tb340 O357 2.427 . S
Tb340 O358 2.513 1_545 S
C341 O345 1.251 . S
C341 O347 1.263 . S
Tb342 O344 2.346 . S
Tb342 O347 2.353 . S
Tb342 O350 2.427 . S
Tb342 O351 2.513 1_565 S
Tb342 O352 2.453 . S
Tb342 O353 2.596 . S
Tb342 O354 2.374 1_565 S
O343 Tb340 2.453 . S
O343 C359 1.245 . S
O344 Tb340 2.594 1_565 S
O344 Tb342 2.346 . S
O344 C359 1.258 1_565 S
O345 Tb340 2.374 1_565 S
O345 C341 1.251 . S
C346 O350 1.275 . S
C346 O351 1.246 1_565 S
O347 C341 1.263 . S
O347 Tb342 2.353 . S
C348 O352 1.245 . S
C348 O353 1.259 . S
C349 O354 1.250 . S
C349 O355 1.263 . S
O350 Tb342 2.427 . S
O350 C346 1.275 . S
O351 Tb342 2.513 1_545 S
O351 C346 1.246 1_545 S
O352 Tb342 2.453 . S
O352 C348 1.245 . S
O353 Tb340 2.343 1_565 S
O353 Tb342 2.596 . S
O353 C348 1.259 . S
O354 Tb342 2.374 1_545 S
O354 C349 1.250 . S
O355 Tb340 2.353 . S
O355 C349 1.263 . S
C356 O357 1.275 1_565 S
C356 O358 1.246 . S
O357 Tb340 2.427 . S
O357 C356 1.275 1_545 S
O358 Tb340 2.513 1_565 S
O358 C356 1.246 . S
C359 O343 1.245 . S
C359 O344 1.258 1_545 S
Tb360 O363 2.453 . S
Tb360 O364 2.594 1_545 S
Tb360 O365 2.374 1_545 S
Tb360 O373 2.343 1_545 S
Tb360 O375 2.353 . S
Tb360 O377 2.427 . S
Tb360 O378 2.513 1_545 S
C361 O365 1.251 . S
C361 O367 1.263 . S
Tb362 O364 2.346 . S
Tb362 O367 2.353 . S
Tb362 O370 2.427 . S
Tb362 O371 2.513 1_565 S
Tb362 O372 2.453 . S
Tb362 O373 2.596 . S
Tb362 O374 2.374 1_565 S
O363 Tb360 2.453 . S
O363 C379 1.245 . S
O364 Tb360 2.594 1_565 S
O364 Tb362 2.346 . S
O364 C379 1.258 1_565 S
O365 Tb360 2.374 1_565 S
O365 C361 1.251 . S
C366 O370 1.275 . S
C366 O371 1.246 1_565 S
O367 C361 1.263 . S
O367 Tb362 2.353 . S
C368 O372 1.245 . S
C368 O373 1.259 . S
C369 O374 1.250 . S
C369 O375 1.263 . S
O370 Tb362 2.427 . S
O370 C366 1.275 . S
O371 Tb362 2.513 1_545 S
O371 C366 1.246 1_545 S
O372 Tb362 2.453 . S
O372 C368 1.245 . S
O373 Tb360 2.343 1_565 S
O373 Tb362 2.596 . S
O373 C368 1.259 . S
O374 Tb362 2.374 1_545 S
O374 C369 1.250 . S
O375 Tb360 2.353 . S
O375 C369 1.263 . S
C376 O377 1.275 1_565 S
C376 O378 1.246 . S
O377 Tb360 2.427 . S
O377 C376 1.275 1_545 S
O378 Tb360 2.513 1_565 S
O378 C376 1.246 . S
C379 O363 1.245 . S
C379 O364 1.258 1_545 S
Tb380 O383 2.453 . S
Tb380 O384 2.596 . S
Tb380 O385 2.374 . S
Tb380 O393 2.343 . S
Tb380 O395 2.353 . S
Tb380 O397 2.427 . S
Tb380 O398 2.513 . S
C381 O385 1.251 . S
C381 O387 1.263 . S
Tb382 O384 2.343 . S
Tb382 O387 2.353 . S
Tb382 O390 2.427 . S
Tb382 O391 2.513 . S
Tb382 O392 2.453 . S
Tb382 O393 2.596 . S
Tb382 O394 2.374 . S
O383 Tb380 2.453 . S
O383 C399 1.245 . S
O384 Tb380 2.596 . S
O384 Tb382 2.343 . S
O384 C399 1.259 . S
O385 Tb380 2.374 . S
O385 C381 1.251 . S
C386 O390 1.275 . S
C386 O391 1.246 . S
O387 C381 1.263 . S
O387 Tb382 2.353 . S
C388 O392 1.245 . S
C388 O393 1.259 . S
C389 O394 1.250 . S
C389 O395 1.263 . S
O390 Tb382 2.427 . S
O390 C386 1.275 . S
O391 Tb382 2.513 . S
O391 C386 1.246 . S
O392 Tb382 2.453 . S
O392 C388 1.245 . S
O393 Tb380 2.343 . S
O393 Tb382 2.596 . S
O393 C388 1.259 . S
O394 Tb382 2.374 . S
O394 C389 1.250 . S
O395 Tb380 2.353 . S
O395 C389 1.263 . S
C396 O397 1.275 . S
C396 O398 1.246 . S
O397 Tb380 2.427 . S
O397 C396 1.275 . S
O398 Tb380 2.513 . S
O398 C396 1.246 . S
C399 O383 1.245 . S
C399 O384 1.259 . S
Tb400 O403 2.453 . S
Tb400 O404 2.596 . S
Tb400 O405 2.374 . S
Tb400 O413 2.343 . S
Tb400 O415 2.353 . S
Tb400 O417 2.427 . S
Tb400 O418 2.513 . S
C401 O405 1.251 . S
C401 O407 1.263 . S
Tb402 O404 2.343 . S
Tb402 O407 2.353 . S
Tb402 O410 2.427 . S
Tb402 O411 2.513 . S
Tb402 O412 2.453 . S
Tb402 O413 2.596 . S
Tb402 O414 2.374 . S
O403 Tb400 2.453 . S
O403 C419 1.245 . S
O404 Tb400 2.596 . S
O404 Tb402 2.343 . S
O404 C419 1.259 . S
O405 Tb400 2.374 . S
O405 C401 1.251 . S
C406 O410 1.275 . S
C406 O411 1.246 . S
O407 C401 1.263 . S
O407 Tb402 2.353 . S
C408 O412 1.245 . S
C408 O413 1.259 . S
C409 O414 1.250 . S
C409 O415 1.263 . S
O410 Tb402 2.427 . S
O410 C406 1.275 . S
O411 Tb402 2.513 . S
O411 C406 1.246 . S
O412 Tb402 2.453 . S
O412 C408 1.245 . S
O413 Tb400 2.343 . S
O413 Tb402 2.596 . S
O413 C408 1.259 . S
O414 Tb402 2.374 . S
O414 C409 1.250 . S
O415 Tb400 2.353 . S
O415 C409 1.263 . S
C416 O417 1.275 . S
C416 O418 1.246 . S
O417 Tb400 2.427 . S
O417 C416 1.275 . S
O418 Tb400 2.513 . S
O418 C416 1.246 . S
C419 O403 1.245 . S
C419 O404 1.259 . S
Tb420 O423 2.453 . S
Tb420 O424 2.596 . S
Tb420 O425 2.374 1_545 S
Tb420 O433 2.346 . S
Tb420 O435 2.353 . S
Tb420 O437 2.427 . S
Tb420 O438 2.513 1_545 S
C421 O425 1.251 . S
C421 O427 1.263 . S
Tb422 O424 2.343 1_565 S
Tb422 O427 2.353 . S
Tb422 O430 2.427 . S
Tb422 O431 2.513 1_565 S
Tb422 O432 2.453 . S
Tb422 O433 2.594 1_565 S
Tb422 O434 2.374 1_565 S
O423 Tb420 2.453 . S
O423 C439 1.245 . S
O424 Tb420 2.596 . S
O424 Tb422 2.343 1_545 S
O424 C439 1.259 . S
O425 Tb420 2.374 1_565 S
O425 C421 1.251 . S
C426 O430 1.275 1_545 S
C426 O431 1.246 . S
O427 C421 1.263 . S
O427 Tb422 2.353 . S
C428 O432 1.245 . S
C428 O433 1.258 1_565 S
C429 O434 1.250 . S
C429 O435 1.263 . S
O430 Tb422 2.427 . S
O430 C426 1.275 1_565 S
O431 Tb422 2.513 1_545 S
O431 C426 1.246 . S
O432 Tb422 2.453 . S
O432 C428 1.245 . S
O433 Tb420 2.346 . S
O433 Tb422 2.594 1_545 S
O433 C428 1.258 1_545 S
O434 Tb422 2.374 1_545 S
O434 C429 1.250 . S
O435 Tb420 2.353 . S
O435 C429 1.263 . S
C436 O437 1.275 . S
C436 O438 1.246 1_545 S
O437 Tb420 2.427 . S
O437 C436 1.275 . S
O438 Tb420 2.513 1_565 S
O438 C436 1.246 1_565 S
C439 O423 1.245 . S
C439 O424 1.259 . S
Tb440 O443 2.453 . S
Tb440 O444 2.596 . S
Tb440 O445 2.374 1_545 S
Tb440 O453 2.346 . S
Tb440 O455 2.353 . S
Tb440 O457 2.427 . S
Tb440 O458 2.513 1_545 S
C441 O445 1.251 . S
C441 O447 1.263 . S
Tb442 O444 2.343 1_565 S
Tb442 O447 2.353 . S
Tb442 O450 2.427 . S
Tb442 O451 2.513 1_565 S
Tb442 O452 2.453 . S
Tb442 O453 2.594 1_565 S
Tb442 O454 2.374 1_565 S
O443 Tb440 2.453 . S
O443 C459 1.245 . S
O444 Tb440 2.596 . S
O444 Tb442 2.343 1_545 S
O444 C459 1.259 . S
O445 Tb440 2.374 1_565 S
O445 C441 1.251 . S
C446 O450 1.275 1_545 S
C446 O451 1.246 . S
O447 C441 1.263 . S
O447 Tb442 2.353 . S
C448 O452 1.245 . S
C448 O453 1.258 1_565 S
C449 O454 1.250 . S
C449 O455 1.263 . S
O450 Tb442 2.427 . S
O450 C446 1.275 1_565 S
O451 Tb442 2.513 1_545 S
O451 C446 1.246 . S
O452 Tb442 2.453 . S
O452 C448 1.245 . S
O453 Tb440 2.346 . S
O453 Tb442 2.594 1_545 S
O453 C448 1.258 1_545 S
O454 Tb442 2.374 1_545 S
O454 C449 1.250 . S
O455 Tb440 2.353 . S
O455 C449 1.263 . S
C456 O457 1.275 . S
C456 O458 1.246 1_545 S
O457 Tb440 2.427 . S
O457 C456 1.275 . S
O458 Tb440 2.513 1_565 S
O458 C456 1.246 1_565 S
C459 O443 1.245 . S
C459 O444 1.259 . S
Tb460 O463 2.453 . S
Tb460 O464 2.596 . S
Tb460 O465 2.374 . S
Tb460 O473 2.343 . S
Tb460 O475 2.353 . S
Tb460 O477 2.427 . S
Tb460 O478 2.513 . S
C461 O465 1.251 . S
C461 O467 1.263 . S
Tb462 O464 2.343 . S
Tb462 O467 2.353 . S
Tb462 O470 2.427 . S
Tb462 O471 2.513 . S
Tb462 O472 2.453 . S
Tb462 O473 2.596 . S
Tb462 O474 2.374 . S
O463 Tb460 2.453 . S
O463 C479 1.245 . S
O464 Tb460 2.596 . S
O464 Tb462 2.343 . S
O464 C479 1.259 . S
O465 Tb460 2.374 . S
O465 C461 1.251 . S
C466 O470 1.275 . S
C466 O471 1.246 . S
O467 C461 1.263 . S
O467 Tb462 2.353 . S
C468 O472 1.245 . S
C468 O473 1.259 . S
C469 O474 1.250 . S
C469 O475 1.263 . S
O470 Tb462 2.427 . S
O470 C466 1.275 . S
O471 Tb462 2.513 . S
O471 C466 1.246 . S
O472 Tb462 2.453 . S
O472 C468 1.245 . S
O473 Tb460 2.343 . S
O473 Tb462 2.596 . S
O473 C468 1.259 . S
O474 Tb462 2.374 . S
O474 C469 1.250 . S
O475 Tb460 2.353 . S
O475 C469 1.263 . S
C476 O477 1.275 . S
C476 O478 1.246 . S
O477 Tb460 2.427 . S
O477 C476 1.275 . S
O478 Tb460 2.513 . S
O478 C476 1.246 . S
C479 O463 1.245 . S
C479 O464 1.259 . S
Tb480 O483 2.453 . S
Tb480 O484 2.596 . S
Tb480 O485 2.374 . S
Tb480 O493 2.343 . S
Tb480 O495 2.353 . S
Tb480 O497 2.427 . S
Tb480 O498 2.513 . S
C481 O485 1.251 . S
C481 O487 1.263 . S
Tb482 O484 2.343 . S
Tb482 O487 2.353 . S
Tb482 O490 2.427 . S
Tb482 O491 2.513 . S
Tb482 O492 2.453 1_554 S
Tb482 O493 2.596 . S
Tb482 O494 2.374 . S
O483 Tb480 2.453 . S
O483 C499 1.245 . S
O484 Tb480 2.596 . S
O484 Tb482 2.343 . S
O484 C499 1.259 . S
O485 Tb480 2.374 . S
O485 C481 1.251 . S
C486 O490 1.275 . S
C486 O491 1.246 . S
O487 C481 1.263 . S
O487 Tb482 2.353 . S
C488 O492 1.245 . S
C488 O493 1.259 1_556 S
C489 O494 1.250 . S
C489 O495 1.263 . S
O490 Tb482 2.427 . S
O490 C486 1.275 . S
O491 Tb482 2.513 . S
O491 C486 1.246 . S
O492 Tb482 2.453 1_556 S
O492 C488 1.245 . S
O493 Tb480 2.343 . S
O493 Tb482 2.596 . S
O493 C488 1.259 1_554 S
O494 Tb482 2.374 . S
O494 C489 1.250 . S
O495 Tb480 2.353 . S
O495 C489 1.263 . S
C496 O497 1.275 . S
C496 O498 1.246 . S
O497 Tb480 2.427 . S
O497 C496 1.275 . S
O498 Tb480 2.513 . S
O498 C496 1.246 . S
C499 O483 1.245 . S
C499 O484 1.259 . S
Tb500 O503 2.453 . S
Tb500 O504 2.596 . S
Tb500 O505 2.374 . S
Tb500 O513 2.343 . S
Tb500 O515 2.353 . S
Tb500 O517 2.427 . S
Tb500 O518 2.513 . S
C501 O505 1.251 . S
C501 O507 1.263 . S
Tb502 O504 2.343 . S
Tb502 O507 2.353 . S
Tb502 O510 2.427 . S
Tb502 O511 2.513 . S
Tb502 O512 2.453 1_554 S
Tb502 O513 2.596 . S
Tb502 O514 2.374 . S
O503 Tb500 2.453 . S
O503 C519 1.245 . S
O504 Tb500 2.596 . S
O504 Tb502 2.343 . S
O504 C519 1.259 . S
O505 Tb500 2.374 . S
O505 C501 1.251 . S
C506 O510 1.275 . S
C506 O511 1.246 . S
O507 C501 1.263 . S
O507 Tb502 2.353 . S
C508 O512 1.245 . S
C508 O513 1.259 1_556 S
C509 O514 1.250 . S
C509 O515 1.263 . S
O510 Tb502 2.427 . S
O510 C506 1.275 . S
O511 Tb502 2.513 . S
O511 C506 1.246 . S
O512 Tb502 2.453 1_556 S
O512 C508 1.245 . S
O513 Tb500 2.343 . S
O513 Tb502 2.596 . S
O513 C508 1.259 1_554 S
O514 Tb502 2.374 . S
O514 C509 1.250 . S
O515 Tb500 2.353 . S
O515 C509 1.263 . S
C516 O517 1.275 . S
C516 O518 1.246 . S
O517 Tb500 2.427 . S
O517 C516 1.275 . S
O518 Tb500 2.513 . S
O518 C516 1.246 . S
C519 O503 1.245 . S
C519 O504 1.259 . S
Tb520 O523 2.453 . S
Tb520 O524 2.596 . S
Tb520 O525 2.374 . S
Tb520 O533 2.343 1_556 S
Tb520 O535 2.353 1_556 S
Tb520 O537 2.427 1_556 S
Tb520 O538 2.513 1_556 S
C521 O525 1.251 . S
C521 O527 1.263 1_556 S
Tb522 O524 2.343 1_554 S
Tb522 O527 2.353 . S
Tb522 O530 2.427 1_554 S
Tb522 O531 2.513 1_554 S
Tb522 O532 2.453 . S
Tb522 O533 2.596 . S
Tb522 O534 2.374 . S
O523 Tb520 2.453 . S
O523 C539 1.245 . S
O524 Tb520 2.596 . S
O524 Tb522 2.343 1_556 S
O524 C539 1.259 . S
O525 Tb520 2.374 . S
O525 C521 1.251 . S
C526 O530 1.275 . S
C526 O531 1.246 . S
O527 C521 1.263 1_554 S
O527 Tb522 2.353 . S
C528 O532 1.245 . S
C528 O533 1.259 . S
C529 O534 1.250 . S
C529 O535 1.263 . S
O530 Tb522 2.427 1_556 S
O530 C526 1.275 . S
O531 Tb522 2.513 1_556 S
O531 C526 1.246 . S
O532 Tb522 2.453 . S
O532 C528 1.245 . S
O533 Tb520 2.343 1_554 S
O533 Tb522 2.596 . S
O533 C528 1.259 . S
O534 Tb522 2.374 . S
O534 C529 1.250 . S
O535 Tb520 2.353 1_554 S
O535 C529 1.263 . S
C536 O537 1.275 . S
C536 O538 1.246 . S
O537 Tb520 2.427 1_554 S
O537 C536 1.275 . S
O538 Tb520 2.513 1_554 S
O538 C536 1.246 . S
C539 O523 1.245 . S
C539 O524 1.259 . S
Tb540 O543 2.453 . S
Tb540 O544 2.596 . S
Tb540 O545 2.374 . S
Tb540 O553 2.343 1_556 S
Tb540 O555 2.353 1_556 S
Tb540 O557 2.427 1_556 S
Tb540 O558 2.513 1_556 S
C541 O545 1.251 . S
C541 O547 1.263 1_556 S
Tb542 O544 2.343 1_554 S
Tb542 O547 2.353 . S
Tb542 O550 2.427 1_554 S
Tb542 O551 2.513 1_554 S
Tb542 O552 2.453 . S
Tb542 O553 2.596 . S
Tb542 O554 2.374 . S
O543 Tb540 2.453 . S
O543 C559 1.245 . S
O544 Tb540 2.596 . S
O544 Tb542 2.343 1_556 S
O544 C559 1.259 . S
O545 Tb540 2.374 . S
O545 C541 1.251 . S
C546 O550 1.275 . S
C546 O551 1.246 . S
O547 C541 1.263 1_554 S
O547 Tb542 2.353 . S
C548 O552 1.245 . S
C548 O553 1.259 . S
C549 O554 1.250 . S
C549 O555 1.263 . S
O550 Tb542 2.427 1_556 S
O550 C546 1.275 . S
O551 Tb542 2.513 1_556 S
O551 C546 1.246 . S
O552 Tb542 2.453 . S
O552 C548 1.245 . S
O553 Tb540 2.343 1_554 S
O553 Tb542 2.596 . S
O553 C548 1.259 . S
O554 Tb542 2.374 . S
O554 C549 1.250 . S
O555 Tb540 2.353 1_554 S
O555 C549 1.263 . S
C556 O557 1.275 . S
C556 O558 1.246 . S
O557 Tb540 2.427 1_554 S
O557 C556 1.275 . S
O558 Tb540 2.513 1_554 S
O558 C556 1.246 . S
C559 O543 1.245 . S
C559 O544 1.259 . S
Tb560 O563 2.453 1_556 S
Tb560 O564 2.596 . S
Tb560 O565 2.374 . S
Tb560 O573 2.343 . S
Tb560 O575 2.353 . S
Tb560 O577 2.427 . S
Tb560 O578 2.513 . S
C561 O565 1.251 . S
C561 O567 1.263 . S
Tb562 O564 2.343 . S
Tb562 O567 2.353 . S
Tb562 O570 2.427 . S
Tb562 O571 2.513 . S
Tb562 O572 2.453 . S
Tb562 O573 2.596 . S
Tb562 O574 2.374 . S
O563 Tb560 2.453 1_554 S
O563 C579 1.245 . S
O564 Tb560 2.596 . S
O564 Tb562 2.343 . S
O564 C579 1.259 1_556 S
O565 Tb560 2.374 . S
O565 C561 1.251 . S
C566 O570 1.275 . S
C566 O571 1.246 . S
O567 C561 1.263 . S
O567 Tb562 2.353 . S
C568 O572 1.245 . S
C568 O573 1.259 . S
C569 O574 1.250 . S
C569 O575 1.263 . S
O570 Tb562 2.427 . S
O570 C566 1.275 . S
O571 Tb562 2.513 . S
O571 C566 1.246 . S
O572 Tb562 2.453 . S
O572 C568 1.245 . S
O573 Tb560 2.343 . S
O573 Tb562 2.596 . S
O573 C568 1.259 . S
O574 Tb562 2.374 . S
O574 C569 1.250 . S
O575 Tb560 2.353 . S
O575 C569 1.263 . S
C576 O577 1.275 . S
C576 O578 1.246 . S
O577 Tb560 2.427 . S
O577 C576 1.275 . S
O578 Tb560 2.513 . S
O578 C576 1.246 . S
C579 O563 1.245 . S
C579 O564 1.259 1_554 S
Tb580 O583 2.453 1_556 S
Tb580 O584 2.596 . S
Tb580 O585 2.374 . S
Tb580 O593 2.343 . S
Tb580 O595 2.353 . S
Tb580 O597 2.427 . S
Tb580 O598 2.513 . S
C581 O585 1.251 . S
C581 O587 1.263 . S
Tb582 O584 2.343 . S
Tb582 O587 2.353 . S
Tb582 O590 2.427 . S
Tb582 O591 2.513 . S
Tb582 O592 2.453 . S
Tb582 O593 2.596 . S
Tb582 O594 2.374 . S
O583 Tb580 2.453 1_554 S
O583 C599 1.245 . S
O584 Tb580 2.596 . S
O584 Tb582 2.343 . S
O584 C599 1.259 1_556 S
O585 Tb580 2.374 . S
O585 C581 1.251 . S
C586 O590 1.275 . S
C586 O591 1.246 . S
O587 C581 1.263 . S
O587 Tb582 2.353 . S
C588 O592 1.245 . S
C588 O593 1.259 . S
C589 O594 1.250 . S
C589 O595 1.263 . S
O590 Tb582 2.427 . S
O590 C586 1.275 . S
O591 Tb582 2.513 . S
O591 C586 1.246 . S
O592 Tb582 2.453 . S
O592 C588 1.245 . S
O593 Tb580 2.343 . S
O593 Tb582 2.596 . S
O593 C588 1.259 . S
O594 Tb582 2.374 . S
O594 C589 1.250 . S
O595 Tb580 2.353 . S
O595 C589 1.263 . S
C596 O597 1.275 . S
C596 O598 1.246 . S
O597 Tb580 2.427 . S
O597 C596 1.275 . S
O598 Tb580 2.513 . S
O598 C596 1.246 . S
C599 O583 1.245 . S
C599 O584 1.259 1_554 S
Tb600 O603 2.453 . S
Tb600 O604 2.596 . S
Tb600 O605 2.374 . S
Tb600 O613 2.343 1_556 S
Tb600 O615 2.353 . S
Tb600 O617 2.427 1_556 S
Tb600 O618 2.513 1_556 S
C601 O605 1.251 . S
C601 O607 1.263 . S
Tb602 O604 2.343 1_554 S
Tb602 O607 2.353 1_554 S
Tb602 O610 2.427 1_554 S
Tb602 O611 2.513 1_554 S
Tb602 O612 2.453 . S
Tb602 O613 2.596 . S
Tb602 O614 2.374 . S
O603 Tb600 2.453 . S
O603 C619 1.245 . S
O604 Tb600 2.596 . S
O604 Tb602 2.343 1_556 S
O604 C619 1.259 . S
O605 Tb600 2.374 . S
O605 C601 1.251 . S
C606 O610 1.275 . S
C606 O611 1.246 . S
O607 C601 1.263 . S
O607 Tb602 2.353 1_556 S
C608 O612 1.245 . S
C608 O613 1.259 . S
C609 O614 1.250 . S
C609 O615 1.263 1_554 S
O610 Tb602 2.427 1_556 S
O610 C606 1.275 . S
O611 Tb602 2.513 1_556 S
O611 C606 1.246 . S
O612 Tb602 2.453 . S
O612 C608 1.245 . S
O613 Tb600 2.343 1_554 S
O613 Tb602 2.596 . S
O613 C608 1.259 . S
O614 Tb602 2.374 . S
O614 C609 1.250 . S
O615 Tb600 2.353 . S
O615 C609 1.263 1_556 S
C616 O617 1.275 . S
C616 O618 1.246 . S
O617 Tb600 2.427 1_554 S
O617 C616 1.275 . S
O618 Tb600 2.513 1_554 S
O618 C616 1.246 . S
C619 O603 1.245 . S
C619 O604 1.259 . S
Tb620 O623 2.453 . S
Tb620 O624 2.596 . S
Tb620 O625 2.374 . S
Tb620 O633 2.343 1_556 S
Tb620 O635 2.353 . S
Tb620 O637 2.427 1_556 S
Tb620 O638 2.513 1_556 S
C621 O625 1.251 . S
C621 O627 1.263 . S
Tb622 O624 2.343 1_554 S
Tb622 O627 2.353 1_554 S
Tb622 O630 2.427 1_554 S
Tb622 O631 2.513 1_554 S
Tb622 O632 2.453 . S
Tb622 O633 2.596 . S
Tb622 O634 2.374 . S
O623 Tb620 2.453 . S
O623 C639 1.245 . S
O624 Tb620 2.596 . S
O624 Tb622 2.343 1_556 S
O624 C639 1.259 . S
O625 Tb620 2.374 . S
O625 C621 1.251 . S
C626 O630 1.275 . S
C626 O631 1.246 . S
O627 C621 1.263 . S
O627 Tb622 2.353 1_556 S
C628 O632 1.245 . S
C628 O633 1.259 . S
C629 O634 1.250 . S
C629 O635 1.263 1_554 S
O630 Tb622 2.427 1_556 S
O630 C626 1.275 . S
O631 Tb622 2.513 1_556 S
O631 C626 1.246 . S
O632 Tb622 2.453 . S
O632 C628 1.245 . S
O633 Tb620 2.343 1_554 S
O633 Tb622 2.596 . S
O633 C628 1.259 . S
O634 Tb622 2.374 . S
O634 C629 1.250 . S
O635 Tb620 2.353 . S
O635 C629 1.263 1_556 S
C636 O637 1.275 . S
C636 O638 1.246 . S
O637 Tb620 2.427 1_554 S
O637 C636 1.275 . S
O638 Tb620 2.513 1_554 S
O638 C636 1.246 . S
C639 O623 1.245 . S
C639 O624 1.259 . S
C640 C641 1.363 . S
C640 C646 1.379 . S
C640 N648 1.356 . S
C641 C640 1.363 . S
C641 C647 1.363 1_556 S
C642 C643 1.363 . S
C642 C647 1.379 . S
C642 N649 1.356 . S
C643 C642 1.363 . S
C643 C646 1.363 1_554 S
N644 C646 1.356 . S
N644 H656 0.984 . S
N644 H657 0.985 . S
N645 C647 1.356 . S
N645 H650 0.984 . S
N645 H651 0.985 . S
C646 C640 1.379 . S
C646 C643 1.363 1_556 S
C646 N644 1.356 . S
C647 C641 1.363 1_554 S
C647 C642 1.379 . S
C647 N645 1.356 . S
N648 C640 1.356 . S
N648 H654 0.984 . S
N648 H655 0.984 . S
N649 C642 1.356 . S
N649 H652 0.984 . S
N649 H653 0.985 . S
H650 N645 0.984 . S
H651 N645 0.985 . S
H652 N649 0.984 . S
H653 N649 0.985 . S
H654 N648 0.984 . S
H655 N648 0.984 . S
H656 N644 0.984 . S
H657 N644 0.985 . S
C658 C659 1.363 1_565 S
C658 C664 1.379 1_455 S
C658 N666 1.356 . S
C659 C658 1.363 1_545 S
C659 C665 1.363 1_556 S
C660 C661 1.363 1_545 S
C660 C665 1.379 1_655 S
C660 N667 1.356 . S
C661 C660 1.363 1_565 S
C661 C664 1.363 1_554 S
N662 C664 1.356 . S
N662 H674 0.984 . S
N662 H675 0.985 . S
N663 C665 1.356 . S
N663 H668 0.984 . S
N663 H669 0.985 . S
C664 C658 1.379 1_655 S
C664 C661 1.363 1_556 S
C664 N662 1.356 . S
C665 C659 1.363 1_554 S
C665 C660 1.379 1_455 S
C665 N663 1.356 . S
N666 C658 1.356 . S
N666 H672 0.984 . S
N666 H673 0.984 . S
N667 C660 1.356 . S
N667 H670 0.984 . S
N667 H671 0.985 . S
H668 N663 0.984 . S
H669 N663 0.985 . S
H670 N667 0.984 . S
H671 N667 0.985 . S
H672 N666 0.984 . S
H673 N666 0.984 . S
H674 N662 0.984 . S
H675 N662 0.985 . S
C676 C677 1.363 . S
C676 C682 1.379 . S
C676 N684 1.356 . S
C677 C676 1.363 . S
C677 C683 1.363 1_545 S
C678 C679 1.363 . S
C678 C683 1.379 . S
C678 N685 1.356 . S
C679 C678 1.363 . S
C679 C682 1.363 1_565 S
N680 C682 1.356 . S
N680 H692 0.984 . S
N680 H693 0.985 . S
N681 C683 1.356 . S
N681 H686 0.984 . S
N681 H687 0.985 . S
C682 C676 1.379 . S
C682 C679 1.363 1_545 S
C682 N680 1.356 . S
C683 C677 1.363 1_565 S
C683 C678 1.379 . S
C683 N681 1.356 . S
N684 C676 1.356 . S
N684 H690 0.984 . S
N684 H691 0.984 . S
N685 C678 1.356 . S
N685 H688 0.984 . S
N685 H689 0.985 . S
H686 N681 0.984 . S
H687 N681 0.985 . S
H688 N685 0.984 . S
H689 N685 0.985 . S
H690 N684 0.984 . S
H691 N684 0.984 . S
H692 N680 0.984 . S
H693 N680 0.985 . S
C694 C695 1.363 . S
C694 C700 1.379 1_455 S
C694 N702 1.356 . S
C695 C694 1.363 . S
C695 C701 1.363 . S
C696 C697 1.363 . S
C696 C701 1.379 1_655 S
C696 N703 1.356 . S
C697 C696 1.363 . S
C697 C700 1.363 . S
N698 C700 1.356 . S
N698 H710 0.984 . S
N698 H711 0.985 . S
N699 C701 1.356 . S
N699 H704 0.984 . S
N699 H705 0.985 . S
C700 C694 1.379 1_655 S
C700 C697 1.363 . S
C700 N698 1.356 . S
C701 C695 1.363 . S
C701 C696 1.379 1_455 S
C701 N699 1.356 . S
N702 C694 1.356 . S
N702 H708 0.984 . S
N702 H709 0.984 . S
N703 C696 1.356 . S
N703 H706 0.984 . S
N703 H707 0.985 . S
H704 N699 0.984 . S
H705 N699 0.985 . S
H706 N703 0.984 . S
H707 N703 0.985 . S
H708 N702 0.984 . S
H709 N702 0.984 . S
H710 N698 0.984 . S
H711 N698 0.985 . S
C712 C713 1.363 1_554 S
C712 C718 1.379 . S
C712 N720 1.356 . S
C713 C712 1.363 1_556 S
C713 C719 1.363 . S
C714 C715 1.363 1_556 S
C714 C719 1.379 . S
C714 N721 1.356 . S
C715 C714 1.363 1_554 S
C715 C718 1.363 . S
N716 C718 1.356 . S
N716 H728 0.984 . S
N716 H729 0.985 . S
N717 C719 1.356 . S
N717 H722 0.984 . S
N717 H723 0.985 . S
C718 C712 1.379 . S
C718 C715 1.363 . S
C718 N716 1.356 . S
C719 C713 1.363 . S
C719 C714 1.379 . S
C719 N717 1.356 . S
N720 C712 1.356 . S
N720 H726 0.984 . S
N720 H727 0.984 . S
N721 C714 1.356 . S
N721 H724 0.984 . S
N721 H725 0.985 . S
H722 N717 0.984 . S
H723 N717 0.985 . S
H724 N721 0.984 . S
H725 N721 0.985 . S
H726 N720 0.984 . S
H727 N720 0.984 . S
H728 N716 0.984 . S
H729 N716 0.985 . S
C730 C731 1.363 . S
C730 C736 1.379 . S
C730 N738 1.356 . S
C731 C730 1.363 . S
C731 C737 1.363 1_565 S
C732 C733 1.363 . S
C732 C737 1.379 . S
C732 N739 1.356 . S
C733 C732 1.363 . S
C733 C736 1.363 1_545 S
N734 C736 1.356 . S
N734 H746 0.984 . S
N734 H747 0.985 . S
N735 C737 1.356 . S
N735 H740 0.984 . S
N735 H741 0.985 . S
C736 C730 1.379 . S
C736 C733 1.363 1_565 S
C736 N734 1.356 . S
C737 C731 1.363 1_545 S
C737 C732 1.379 . S
C737 N735 1.356 . S
N738 C730 1.356 . S
N738 H744 0.984 . S
N738 H745 0.984 . S
N739 C732 1.356 . S
N739 H742 0.984 . S
N739 H743 0.985 . S
H740 N735 0.984 . S
H741 N735 0.985 . S
H742 N739 0.984 . S
H743 N739 0.985 . S
H744 N738 0.984 . S
H745 N738 0.984 . S
H746 N734 0.984 . S
H747 N734 0.985 . S
C748 C749 1.363 . S
C748 C754 1.379 1_655 S
C748 N756 1.356 . S
C749 C748 1.363 . S
C749 C755 1.363 . S
C750 C751 1.363 . S
C750 C755 1.379 1_455 S
C750 N757 1.356 . S
C751 C750 1.363 . S
C751 C754 1.363 . S
N752 C754 1.356 . S
N752 H764 0.984 . S
N752 H765 0.985 . S
N753 C755 1.356 . S
N753 H758 0.984 . S
N753 H759 0.985 . S
C754 C748 1.379 1_455 S
C754 C751 1.363 . S
C754 N752 1.356 . S
C755 C749 1.363 . S
C755 C750 1.379 1_655 S
C755 N753 1.356 . S
N756 C748 1.356 . S
N756 H762 0.984 . S
N756 H763 0.984 . S
N757 C750 1.356 . S
N757 H760 0.984 . S
N757 H761 0.985 . S
H758 N753 0.984 . S
H759 N753 0.985 . S
H760 N757 0.984 . S
H761 N757 0.985 . S
H762 N756 0.984 . S
H763 N756 0.984 . S
H764 N752 0.984 . S
H765 N752 0.985 . S
C766 C767 1.363 . S
C766 C772 1.379 . S
C766 N774 1.356 . S
C767 C766 1.363 . S
C767 C773 1.363 . S
C768 C769 1.363 . S
C768 C773 1.379 . S
C768 N775 1.356 . S
C769 C768 1.363 . S
C769 C772 1.363 . S
N770 C772 1.356 . S
N770 H782 0.984 . S
N770 H783 0.985 . S
N771 C773 1.356 . S
N771 H776 0.984 . S
N771 H777 0.985 . S
C772 C766 1.379 . S
C772 C769 1.363 . S
C772 N770 1.356 . S
C773 C767 1.363 . S
C773 C768 1.379 . S
C773 N771 1.356 . S
N774 C766 1.356 . S
N774 H780 0.984 . S
N774 H781 0.984 . S
N775 C768 1.356 . S
N775 H778 0.984 . S
N775 H779 0.985 . S
H776 N771 0.984 . S
H777 N771 0.985 . S
H778 N775 0.984 . S
H779 N775 0.985 . S
H780 N774 0.984 . S
H781 N774 0.984 . S
H782 N770 0.984 . S
H783 N770 0.985 . S
C784 C785 1.363 . S
C784 C790 1.379 1_655 S
C784 N792 1.356 . S
C785 C784 1.363 . S
C785 C791 1.363 . S
C786 C787 1.363 . S
C786 C791 1.379 1_455 S
C786 N793 1.356 . S
C787 C786 1.363 . S
C787 C790 1.363 . S
N788 C790 1.356 . S
N788 H800 0.984 . S
N788 H801 0.985 . S
N789 C791 1.356 . S
N789 H794 0.984 . S
N789 H795 0.985 . S
C790 C784 1.379 1_455 S
C790 C787 1.363 . S
C790 N788 1.356 . S
C791 C785 1.363 . S
C791 C786 1.379 1_655 S
C791 N789 1.356 . S
N792 C784 1.356 . S
N792 H798 0.984 . S
N792 H799 0.984 . S
N793 C786 1.356 . S
N793 H796 0.984 . S
N793 H797 0.985 . S
H794 N789 0.984 . S
H795 N789 0.985 . S
H796 N793 0.984 . S
H797 N793 0.985 . S
H798 N792 0.984 . S
H799 N792 0.984 . S
H800 N788 0.984 . S
H801 N788 0.985 . S
C802 C803 1.363 . S
C802 C808 1.379 . S
C802 N810 1.356 . S
C803 C802 1.363 . S
C803 C809 1.363 . S
C804 C805 1.363 . S
C804 C809 1.379 . S
C804 N811 1.356 . S
C805 C804 1.363 . S
C805 C808 1.363 . S
N806 C808 1.356 . S
N806 H818 0.984 . S
N806 H819 0.985 . S
N807 C809 1.356 . S
N807 H812 0.984 . S
N807 H813 0.985 . S
C808 C802 1.379 . S
C808 C805 1.363 . S
C808 N806 1.356 . S
C809 C803 1.363 . S
C809 C804 1.379 . S
C809 N807 1.356 . S
N810 C802 1.356 . S
N810 H816 0.984 . S
N810 H817 0.984 . S
N811 C804 1.356 . S
N811 H814 0.984 . S
N811 H815 0.985 . S
H812 N807 0.984 . S
H813 N807 0.985 . S
H814 N811 0.984 . S
H815 N811 0.985 . S
H816 N810 0.984 . S
H817 N810 0.984 . S
H818 N806 0.984 . S
H819 N806 0.985 . S
C820 C821 1.363 . S
C820 C826 1.379 . S
C820 N828 1.356 . S
C821 C820 1.363 . S
C821 C827 1.363 . S
C822 C823 1.363 . S
C822 C827 1.379 . S
C822 N829 1.356 . S
C823 C822 1.363 . S
C823 C826 1.363 . S
N824 C826 1.356 . S
N824 H836 0.984 . S
N824 H837 0.985 . S
N825 C827 1.356 . S
N825 H830 0.984 . S
N825 H831 0.985 . S
C826 C820 1.379 . S
C826 C823 1.363 . S
C826 N824 1.356 . S
C827 C821 1.363 . S
C827 C822 1.379 . S
C827 N825 1.356 . S
N828 C820 1.356 . S
N828 H834 0.984 . S
N828 H835 0.984 . S
N829 C822 1.356 . S
N829 H832 0.984 . S
N829 H833 0.985 . S
H830 N825 0.984 . S
H831 N825 0.985 . S
H832 N829 0.984 . S
H833 N829 0.985 . S
H834 N828 0.984 . S
H835 N828 0.984 . S
H836 N824 0.984 . S
H837 N824 0.985 . S
C838 C839 1.363 . S
C838 C844 1.379 . S
C838 N846 1.356 . S
C839 C838 1.363 . S
C839 C845 1.363 . S
C840 C841 1.363 . S
C840 C845 1.379 . S
C840 N847 1.356 . S
C841 C840 1.363 . S
C841 C844 1.363 . S
N842 C844 1.356 . S
N842 H854 0.984 . S
N842 H855 0.985 . S
N843 C845 1.356 . S
N843 H848 0.984 . S
N843 H849 0.985 . S
C844 C838 1.379 . S
C844 C841 1.363 . S
C844 N842 1.356 . S
C845 C839 1.363 . S
C845 C840 1.379 . S
C845 N843 1.356 . S
N846 C838 1.356 . S
N846 H852 0.984 . S
N846 H853 0.984 . S
N847 C840 1.356 . S
N847 H850 0.984 . S
N847 H851 0.985 . S
H848 N843 0.984 . S
H849 N843 0.985 . S
H850 N847 0.984 . S
H851 N847 0.985 . S
H852 N846 0.984 . S
H853 N846 0.984 . S
H854 N842 0.984 . S
H855 N842 0.985 . S
C856 C857 1.363 . S
C856 C862 1.379 . S
C856 N864 1.356 . S
C857 C856 1.363 . S
C857 C863 1.363 1_565 S
C858 C859 1.363 . S
C858 C863 1.379 . S
C858 N865 1.356 . S
C859 C858 1.363 . S
C859 C862 1.363 1_545 S
N860 C862 1.356 . S
N860 H872 0.984 . S
N860 H873 0.985 . S
N861 C863 1.356 . S
N861 H866 0.984 . S
N861 H867 0.985 . S
C862 C856 1.379 . S
C862 C859 1.363 1_565 S
C862 N860 1.356 . S
C863 C857 1.363 1_545 S
C863 C858 1.379 . S
C863 N861 1.356 . S
N864 C856 1.356 . S
N864 H870 0.984 . S
N864 H871 0.984 . S
N865 C858 1.356 . S
N865 H868 0.984 . S
N865 H869 0.985 . S
H866 N861 0.984 . S
H867 N861 0.985 . S
H868 N865 0.984 . S
H869 N865 0.985 . S
H870 N864 0.984 . S
H871 N864 0.984 . S
H872 N860 0.984 . S
H873 N860 0.985 . S
C874 C875 1.363 . S
C874 C880 1.379 . S
C874 N882 1.356 . S
C875 C874 1.363 . S
C875 C881 1.363 . S
C876 C877 1.363 . S
C876 C881 1.379 . S
C876 N883 1.356 . S
C877 C876 1.363 . S
C877 C880 1.363 . S
N878 C880 1.356 . S
N878 H890 0.984 1_556 S
N878 H891 0.985 . S
N879 C881 1.356 . S
N879 H884 0.984 . S
N879 H885 0.985 . S
C880 C874 1.379 . S
C880 C877 1.363 . S
C880 N878 1.356 . S
C881 C875 1.363 . S
C881 C876 1.379 . S
C881 N879 1.356 . S
N882 C874 1.356 . S
N882 H888 0.984 . S
N882 H889 0.984 . S
N883 C876 1.356 . S
N883 H886 0.984 . S
N883 H887 0.985 . S
H884 N879 0.984 . S
H885 N879 0.985 . S
H886 N883 0.984 . S
H887 N883 0.985 . S
H888 N882 0.984 . S
H889 N882 0.984 . S
H890 N878 0.984 1_554 S
H891 N878 0.985 . S
C892 C893 1.363 . S
C892 C898 1.379 . S
C892 N900 1.356 . S
C893 C892 1.363 . S
C893 C899 1.363 . S
C894 C895 1.363 . S
C894 C899 1.379 . S
C894 N901 1.356 . S
C895 C894 1.363 . S
C895 C898 1.363 . S
N896 C898 1.356 . S
N896 H908 0.984 . S
N896 H909 0.985 . S
N897 C899 1.356 . S
N897 H902 0.984 . S
N897 H903 0.985 . S
C898 C892 1.379 . S
C898 C895 1.363 . S
C898 N896 1.356 . S
C899 C893 1.363 . S
C899 C894 1.379 . S
C899 N897 1.356 . S
N900 C892 1.356 . S
N900 H906 0.984 . S
N900 H907 0.984 . S
N901 C894 1.356 . S
N901 H904 0.984 . S
N901 H905 0.985 . S
H902 N897 0.984 . S
H903 N897 0.985 . S
H904 N901 0.984 . S
H905 N901 0.985 . S
H906 N900 0.984 . S
H907 N900 0.984 . S
H908 N896 0.984 . S
H909 N896 0.985 . S
C910 C911 1.363 1_554 S
C910 C916 1.379 . S
C910 N918 1.356 . S
C911 C910 1.363 1_556 S
C911 C917 1.363 . S
C912 C913 1.363 1_556 S
C912 C917 1.379 . S
C912 N919 1.356 . S
C913 C912 1.363 1_554 S
C913 C916 1.363 . S
N914 C916 1.356 . S
N914 H926 0.984 . S
N914 H927 0.985 . S
N915 C917 1.356 . S
N915 H920 0.984 . S
N915 H921 0.985 . S
C916 C910 1.379 . S
C916 C913 1.363 . S
C916 N914 1.356 . S
C917 C911 1.363 . S
C917 C912 1.379 . S
C917 N915 1.356 . S
N918 C910 1.356 . S
N918 H924 0.984 . S
N918 H925 0.984 . S
N919 C912 1.356 . S
N919 H922 0.984 . S
N919 H923 0.985 . S
H920 N915 0.984 . S
H921 N915 0.985 . S
H922 N919 0.984 . S
H923 N919 0.985 . S
H924 N918 0.984 . S
H925 N918 0.984 . S
H926 N914 0.984 . S
H927 N914 0.985 . S
C928 C929 1.363 . S
C928 C934 1.379 . S
C928 N936 1.356 . S
C929 C928 1.363 . S
C929 C935 1.363 . S
C930 C931 1.363 . S
C930 C935 1.379 . S
C930 N937 1.356 . S
C931 C930 1.363 . S
C931 C934 1.363 . S
N932 C934 1.356 . S
N932 H944 0.984 . S
N932 H945 0.985 . S
N933 C935 1.356 . S
N933 H938 0.984 . S
N933 H939 0.985 . S
C934 C928 1.379 . S
C934 C931 1.363 . S
C934 N932 1.356 . S
C935 C929 1.363 . S
C935 C930 1.379 . S
C935 N933 1.356 . S
N936 C928 1.356 . S
N936 H942 0.984 . S
N936 H943 0.984 . S
N937 C930 1.356 . S
N937 H940 0.984 . S
N937 H941 0.985 . S
H938 N933 0.984 . S
H939 N933 0.985 . S
H940 N937 0.984 . S
H941 N937 0.985 . S
H942 N936 0.984 . S
H943 N936 0.984 . S
H944 N932 0.984 . S
H945 N932 0.985 . S
C946 C947 1.363 . S
C946 C952 1.379 . S
C946 N954 1.356 . S
C947 C946 1.363 . S
C947 C953 1.363 1_565 S
C948 C949 1.363 1_545 S
C948 C953 1.379 . S
C948 N955 1.356 . S
C949 C948 1.363 1_565 S
C949 C952 1.363 . S
N950 C952 1.356 . S
N950 H962 0.984 . S
N950 H963 0.985 . S
N951 C953 1.356 . S
N951 H956 0.984 . S
N951 H957 0.985 . S
C952 C946 1.379 . S
C952 C949 1.363 . S
C952 N950 1.356 . S
C953 C947 1.363 1_545 S
C953 C948 1.379 . S
C953 N951 1.356 . S
N954 C946 1.356 . S
N954 H960 0.984 . S
N954 H961 0.984 . S
N955 C948 1.356 . S
N955 H958 0.984 . S
N955 H959 0.985 . S
H956 N951 0.984 . S
H957 N951 0.985 . S
H958 N955 0.984 . S
H959 N955 0.985 . S
H960 N954 0.984 . S
H961 N954 0.984 . S
H962 N950 0.984 . S
H963 N950 0.985 . S
C964 C965 1.363 1_545 S
C964 C970 1.379 . S
C964 N972 1.356 1_556 S
C965 C964 1.363 1_565 S
C965 C971 1.363 . S
C966 C967 1.363 . S
C966 C971 1.379 . S
C966 N973 1.356 . S
C967 C966 1.363 . S
C967 C970 1.363 1_565 S
N968 C970 1.356 . S
N968 H980 0.984 1_556 S
N968 H981 0.985 . S
N969 C971 1.356 . S
N969 H974 0.984 . S
N969 H975 0.985 . S
C970 C964 1.379 . S
C970 C967 1.363 1_545 S
C970 N968 1.356 . S
C971 C965 1.363 . S
C971 C966 1.379 . S
C971 N969 1.356 . S
N972 C964 1.356 1_554 S
N972 H978 0.984 . S
N972 H979 0.984 1_554 S
N973 C966 1.356 . S
N973 H976 0.984 . S
N973 H977 0.985 . S
H974 N969 0.984 . S
H975 N969 0.985 . S
H976 N973 0.984 . S
H977 N973 0.985 . S
H978 N972 0.984 . S
H979 N972 0.984 1_556 S
H980 N968 0.984 1_554 S
H981 N968 0.985 . S
C982 C983 1.363 . S
C982 C988 1.379 . S
C982 N990 1.356 . S
C983 C982 1.363 . S
C983 C989 1.363 . S
C984 C985 1.363 . S
C984 C989 1.379 . S
C984 N991 1.356 . S
C985 C984 1.363 . S
C985 C988 1.363 . S
N986 C988 1.356 . S
N986 H998 0.984 . S
N986 H999 0.985 . S
N987 C989 1.351 1_554 S
N987 H992 0.984 1_554 S
N987 H993 0.990 . S
C988 C982 1.379 . S
C988 C985 1.363 . S
C988 N986 1.356 . S
C989 C983 1.363 . S
C989 C984 1.379 . S
C989 N987 1.351 1_556 S
N990 C982 1.356 . S
N990 H996 0.984 . S
N990 H997 0.984 . S
N991 C984 1.356 . S
N991 H994 0.984 . S
N991 H995 0.985 1_556 S
H992 N987 0.984 1_556 S
H993 N987 0.990 . S
H994 N991 0.984 . S
H995 N991 0.985 1_554 S
H996 N990 0.984 . S
H997 N990 0.984 . S
H998 N986 0.984 . S
H999 N986 0.985 . S
C1000 C1001 1.363 . S
C1000 C1006 1.379 . S
C1000 N1008 1.356 . S
C1001 C1000 1.363 . S
C1001 C1007 1.363 . S
C1002 C1003 1.363 . S
C1002 C1007 1.379 . S
C1002 N1009 1.356 . S
C1003 C1002 1.363 . S
C1003 C1006 1.363 . S
N1004 C1006 1.356 . S
N1004 H1016 0.984 . S
N1004 H1017 0.985 . S
N1005 C1007 1.356 . S
N1005 H1010 0.984 . S
N1005 H1011 0.985 . S
C1006 C1000 1.379 . S
C1006 C1003 1.363 . S
C1006 N1004 1.356 . S
C1007 C1001 1.363 . S
C1007 C1002 1.379 . S
C1007 N1005 1.356 . S
N1008 C1000 1.356 . S
N1008 H1014 0.984 . S
N1008 H1015 0.984 . S
N1009 C1002 1.356 . S
N1009 H1012 0.984 . S
N1009 H1013 0.985 . S
H1010 N1005 0.984 . S
H1011 N1005 0.985 . S
H1012 N1009 0.984 . S
H1013 N1009 0.985 . S
H1014 N1008 0.984 . S
H1015 N1008 0.984 . S
H1016 N1004 0.984 . S
H1017 N1004 0.985 . S
C1018 C1019 1.363 1_565 S
C1018 C1024 1.379 . S
C1018 N1026 1.356 . S
C1019 C1018 1.363 1_545 S
C1019 C1025 1.363 . S
C1020 C1021 1.363 . S
C1020 C1025 1.379 . S
C1020 N1027 1.356 . S
C1021 C1020 1.363 . S
C1021 C1024 1.363 1_545 S
N1022 C1024 1.356 . S
N1022 H1034 0.984 . S
N1022 H1035 0.985 . S
N1023 C1025 1.356 . S
N1023 H1028 0.984 . S
N1023 H1029 0.985 . S
C1024 C1018 1.379 . S
C1024 C1021 1.363 1_565 S
C1024 N1022 1.356 . S
C1025 C1019 1.363 . S
C1025 C1020 1.379 . S
C1025 N1023 1.356 . S
N1026 C1018 1.356 . S
N1026 H1032 0.984 . S
N1026 H1033 0.984 . S
N1027 C1020 1.356 . S
N1027 H1030 0.984 . S
N1027 H1031 0.985 . S
H1028 N1023 0.984 . S
H1029 N1023 0.985 . S
H1030 N1027 0.984 . S
H1031 N1027 0.985 . S
H1032 N1026 0.984 . S
H1033 N1026 0.984 . S
H1034 N1022 0.984 . S
H1035 N1022 0.985 . S
C1036 C1037 1.363 1_565 S
C1036 C1042 1.379 . S
C1036 N1044 1.356 . S
C1037 C1036 1.363 1_545 S
C1037 C1043 1.363 . S
C1038 C1039 1.363 . S
C1038 C1043 1.379 . S
C1038 N1045 1.356 . S
C1039 C1038 1.363 . S
C1039 C1042 1.363 1_545 S
N1040 C1042 1.356 1_556 S
N1040 H1052 0.984 . S
N1040 H1053 0.984 1_556 S
N1041 C1043 1.356 . S
N1041 H1046 0.984 . S
N1041 H1047 0.985 . S
C1042 C1036 1.379 . S
C1042 C1039 1.363 1_565 S
C1042 N1040 1.356 1_554 S
C1043 C1037 1.363 . S
C1043 C1038 1.379 . S
C1043 N1041 1.356 . S
N1044 C1036 1.356 . S
N1044 H1050 0.984 1_554 S
N1044 H1051 0.984 . S
N1045 C1038 1.356 . S
N1045 H1048 0.984 . S
N1045 H1049 0.985 . S
H1046 N1041 0.984 . S
H1047 N1041 0.985 . S
H1048 N1045 0.984 . S
H1049 N1045 0.985 . S
H1050 N1044 0.984 1_556 S
H1051 N1044 0.984 . S
H1052 N1040 0.984 . S
H1053 N1040 0.984 1_554 S
C1054 C1055 1.363 . S
C1054 C1060 1.379 . S
C1054 N1062 1.356 . S
C1055 C1054 1.363 . S
C1055 C1061 1.363 . S
C1056 C1057 1.363 . S
C1056 C1061 1.379 . S
C1056 N1063 1.356 . S
C1057 C1056 1.363 . S
C1057 C1060 1.363 . S
N1058 C1060 1.356 1_556 S
N1058 H1070 0.984 . S
N1058 H1071 0.985 1_556 S
N1059 C1061 1.356 . S
N1059 H1064 0.984 . S
N1059 H1065 0.985 . S
C1060 C1054 1.379 . S
C1060 C1057 1.363 . S
C1060 N1058 1.356 1_554 S
C1061 C1055 1.363 . S
C1061 C1056 1.379 . S
C1061 N1059 1.356 . S
N1062 C1054 1.356 . S
N1062 H1068 0.984 1_554 S
N1062 H1069 0.984 . S
N1063 C1056 1.356 . S
N1063 H1066 0.984 . S
N1063 H1067 0.985 . S
H1064 N1059 0.984 . S
H1065 N1059 0.985 . S
H1066 N1063 0.984 . S
H1067 N1063 0.985 . S
H1068 N1062 0.984 1_556 S
H1069 N1062 0.984 . S
H1070 N1058 0.984 . S
H1071 N1058 0.985 1_554 S
C1072 C1073 1.363 . S
C1072 C1078 1.379 . S
C1072 N1080 1.356 1_556 S
C1073 C1072 1.363 . S
C1073 C1079 1.363 . S
C1074 C1075 1.363 . S
C1074 C1079 1.379 . S
C1074 N1081 1.356 . S
C1075 C1074 1.363 . S
C1075 C1078 1.363 . S
N1076 C1078 1.356 . S
N1076 H1088 0.984 1_556 S
N1076 H1089 0.985 . S
N1077 C1079 1.356 . S
N1077 H1082 0.984 . S
N1077 H1083 0.985 . S
C1078 C1072 1.379 . S
C1078 C1075 1.363 . S
C1078 N1076 1.356 . S
C1079 C1073 1.363 . S
C1079 C1074 1.379 . S
C1079 N1077 1.356 . S
N1080 C1072 1.356 1_554 S
N1080 H1086 0.984 . S
N1080 H1087 0.984 . S
N1081 C1074 1.356 . S
N1081 H1084 0.984 . S
N1081 H1085 0.985 . S
H1082 N1077 0.984 . S
H1083 N1077 0.985 . S
H1084 N1081 0.984 . S
H1085 N1081 0.985 . S
H1086 N1080 0.984 . S
H1087 N1080 0.984 . S
H1088 N1076 0.984 1_554 S
H1089 N1076 0.985 . S
C1090 C1091 1.363 . S
C1090 C1096 1.379 . S
C1090 N1098 1.356 1_556 S
C1091 C1090 1.363 . S
C1091 C1097 1.363 . S
C1092 C1093 1.363 . S
C1092 C1097 1.379 . S
C1092 N1099 1.356 . S
C1093 C1092 1.363 . S
C1093 C1096 1.363 . S
N1094 C1096 1.356 . S
N1094 H1106 0.984 1_556 S
N1094 H1107 0.985 . S
N1095 C1097 1.356 . S
N1095 H1100 0.984 . S
N1095 H1101 0.985 . S
C1096 C1090 1.379 . S
C1096 C1093 1.363 . S
C1096 N1094 1.356 . S
C1097 C1091 1.363 . S
C1097 C1092 1.379 . S
C1097 N1095 1.356 . S
N1098 C1090 1.356 1_554 S
N1098 H1104 0.984 . S
N1098 H1105 0.984 1_554 S
N1099 C1092 1.356 . S
N1099 H1102 0.984 . S
N1099 H1103 0.985 . S
H1100 N1095 0.984 . S
H1101 N1095 0.985 . S
H1102 N1099 0.984 . S
H1103 N1099 0.985 . S
H1104 N1098 0.984 . S
H1105 N1098 0.984 1_556 S
H1106 N1094 0.984 1_554 S
H1107 N1094 0.985 . S
C1108 C1109 1.363 . S
C1108 C1114 1.379 . S
C1108 N1116 1.356 . S
C1109 C1108 1.363 . S
C1109 C1115 1.363 . S
C1110 C1111 1.363 . S
C1110 C1115 1.379 . S
C1110 N1117 1.356 . S
C1111 C1110 1.363 . S
C1111 C1114 1.363 . S
N1112 C1114 1.356 . S
N1112 H1124 0.984 . S
N1112 H1125 0.985 . S
N1113 C1115 1.356 . S
N1113 H1118 0.984 . S
N1113 H1119 0.985 . S
C1114 C1108 1.379 . S
C1114 C1111 1.363 . S
C1114 N1112 1.356 . S
C1115 C1109 1.363 . S
C1115 C1110 1.379 . S
C1115 N1113 1.356 . S
N1116 C1108 1.356 . S
N1116 H1122 0.984 . S
N1116 H1123 0.984 . S
N1117 C1110 1.356 . S
N1117 H1120 0.984 . S
N1117 H1121 0.985 . S
H1118 N1113 0.984 . S
H1119 N1113 0.985 . S
H1120 N1117 0.984 . S
H1121 N1117 0.985 . S
H1122 N1116 0.984 . S
H1123 N1116 0.984 . S
H1124 N1112 0.984 . S
H1125 N1112 0.985 . S
C1126 C1127 1.363 . S
C1126 C1132 1.379 . S
C1126 N1134 1.356 . S
C1127 C1126 1.363 . S
C1127 C1133 1.363 . S
C1128 C1129 1.363 . S
C1128 C1133 1.379 . S
C1128 N1135 1.356 . S
C1129 C1128 1.363 . S
C1129 C1132 1.363 . S
N1130 C1132 1.356 . S
N1130 H1142 0.984 . S
N1130 H1143 0.985 . S
N1131 C1133 1.356 . S
N1131 H1136 0.984 . S
N1131 H1137 0.985 . S
C1132 C1126 1.379 . S
C1132 C1129 1.363 . S
C1132 N1130 1.356 . S
C1133 C1127 1.363 . S
C1133 C1128 1.379 . S
C1133 N1131 1.356 . S
N1134 C1126 1.356 . S
N1134 H1140 0.984 . S
N1134 H1141 0.984 . S
N1135 C1128 1.356 . S
N1135 H1138 0.984 . S
N1135 H1139 0.985 . S
H1136 N1131 0.984 . S
H1137 N1131 0.985 . S
H1138 N1135 0.984 . S
H1139 N1135 0.985 . S
H1140 N1134 0.984 . S
H1141 N1134 0.984 . S
H1142 N1130 0.984 . S
H1143 N1130 0.985 . S
C1144 C1145 1.363 . S
C1144 C1150 1.379 . S
C1144 N1152 1.356 1_554 S
C1145 C1144 1.363 . S
C1145 C1151 1.363 . S
C1146 C1147 1.363 . S
C1146 C1151 1.379 . S
C1146 N1153 1.356 . S
C1147 C1146 1.363 . S
C1147 C1150 1.363 . S
N1148 C1150 1.356 . S
N1148 H1160 0.984 1_554 S
N1148 H1161 0.985 . S
N1149 C1151 1.356 . S
N1149 H1154 0.984 . S
N1149 H1155 0.985 . S
C1150 C1144 1.379 . S
C1150 C1147 1.363 . S
C1150 N1148 1.356 . S
C1151 C1145 1.363 . S
C1151 C1146 1.379 . S
C1151 N1149 1.356 . S
N1152 C1144 1.356 1_556 S
N1152 H1158 0.984 . S
N1152 H1159 0.984 1_556 S
N1153 C1146 1.356 . S
N1153 H1156 0.984 . S
N1153 H1157 0.985 . S
H1154 N1149 0.984 . S
H1155 N1149 0.985 . S
H1156 N1153 0.984 . S
H1157 N1153 0.985 . S
H1158 N1152 0.984 . S
H1159 N1152 0.984 1_554 S
H1160 N1148 0.984 1_556 S
H1161 N1148 0.985 . S
C1162 C1163 1.363 . S
C1162 C1168 1.379 . S
C1162 N1170 1.356 . S
C1163 C1162 1.363 . S
C1163 C1169 1.363 . S
C1164 C1165 1.363 . S
C1164 C1169 1.379 . S
C1164 N1171 1.356 . S
C1165 C1164 1.363 . S
C1165 C1168 1.363 . S
N1166 C1168 1.356 . S
N1166 H1178 0.984 . S
N1166 H1179 0.985 . S
N1167 C1169 1.356 1_556 S
N1167 H1172 0.984 1_556 S
N1167 H1173 0.985 . S
C1168 C1162 1.379 . S
C1168 C1165 1.363 . S
C1168 N1166 1.356 . S
C1169 C1163 1.363 . S
C1169 C1164 1.379 . S
C1169 N1167 1.356 1_554 S
N1170 C1162 1.356 . S
N1170 H1176 0.984 . S
N1170 H1177 0.984 . S
N1171 C1164 1.356 . S
N1171 H1174 0.984 . S
N1171 H1175 0.985 1_554 S
H1172 N1167 0.984 1_554 S
H1173 N1167 0.985 . S
H1174 N1171 0.984 . S
H1175 N1171 0.985 1_556 S
H1176 N1170 0.984 . S
H1177 N1170 0.984 . S
H1178 N1166 0.984 . S
H1179 N1166 0.985 . S
C1180 C1181 1.363 . S
C1180 C1186 1.379 . S
C1180 N1188 1.356 . S
C1181 C1180 1.363 . S
C1181 C1187 1.363 . S
C1182 C1183 1.363 . S
C1182 C1187 1.379 . S
C1182 N1189 1.356 . S
C1183 C1182 1.363 . S
C1183 C1186 1.363 . S
N1184 C1186 1.356 . S
N1184 H1196 0.984 . S
N1184 H1197 0.985 . S
N1185 C1187 1.356 . S
N1185 H1190 0.984 . S
N1185 H1191 0.985 . S
C1186 C1180 1.379 . S
C1186 C1183 1.363 . S
C1186 N1184 1.356 . S
C1187 C1181 1.363 . S
C1187 C1182 1.379 . S
C1187 N1185 1.356 . S
N1188 C1180 1.356 . S
N1188 H1194 0.984 . S
N1188 H1195 0.984 . S
N1189 C1182 1.356 . S
N1189 H1192 0.984 . S
N1189 H1193 0.985 . S
H1190 N1185 0.984 . S
H1191 N1185 0.985 . S
H1192 N1189 0.984 . S
H1193 N1189 0.985 . S
H1194 N1188 0.984 . S
H1195 N1188 0.984 . S
H1196 N1184 0.984 . S
H1197 N1184 0.985 . S
C1198 C1199 1.363 . S
C1198 C1204 1.379 . S
C1198 N1206 1.356 . S
C1199 C1198 1.363 . S
C1199 C1205 1.363 . S
C1200 C1201 1.363 . S
C1200 C1205 1.379 . S
C1200 N1207 1.356 . S
C1201 C1200 1.363 . S
C1201 C1204 1.363 . S
N1202 C1204 1.356 . S
N1202 H1214 0.984 . S
N1202 H1215 0.985 . S
N1203 C1205 1.356 . S
N1203 H1208 0.984 . S
N1203 H1209 0.985 . S
C1204 C1198 1.379 . S
C1204 C1201 1.363 . S
C1204 N1202 1.356 . S
C1205 C1199 1.363 . S
C1205 C1200 1.379 . S
C1205 N1203 1.356 . S
N1206 C1198 1.356 . S
N1206 H1212 0.984 . S
N1206 H1213 0.984 . S
N1207 C1200 1.356 . S
N1207 H1210 0.984 . S
N1207 H1211 0.985 . S
H1208 N1203 0.984 . S
H1209 N1203 0.985 . S
H1210 N1207 0.984 . S
H1211 N1207 0.985 . S
H1212 N1206 0.984 . S
H1213 N1206 0.984 . S
H1214 N1202 0.984 . S
H1215 N1202 0.985 . S
C1216 C1217 1.363 . S
C1216 C1222 1.379 . S
C1216 N1224 1.356 . S
C1217 C1216 1.363 . S
C1217 C1223 1.363 . S
C1218 C1219 1.363 . S
C1218 C1223 1.379 . S
C1218 N1225 1.356 . S
C1219 C1218 1.363 . S
C1219 C1222 1.363 . S
N1220 C1222 1.356 . S
N1220 H1232 0.984 . S
N1220 H1233 0.985 . S
N1221 C1223 1.356 . S
N1221 H1226 0.984 . S
N1221 H1227 0.985 . S
C1222 C1216 1.379 . S
C1222 C1219 1.363 . S
C1222 N1220 1.356 . S
C1223 C1217 1.363 . S
C1223 C1218 1.379 . S
C1223 N1221 1.356 . S
N1224 C1216 1.356 . S
N1224 H1230 0.984 . S
N1224 H1231 0.984 . S
N1225 C1218 1.356 . S
N1225 H1228 0.984 . S
N1225 H1229 0.985 . S
H1226 N1221 0.984 . S
H1227 N1221 0.985 . S
H1228 N1225 0.984 . S
H1229 N1225 0.985 . S
H1230 N1224 0.984 . S
H1231 N1224 0.984 . S
H1232 N1220 0.984 . S
H1233 N1220 0.985 . S
C1234 C1235 1.363 1_545 S
C1234 C1240 1.379 . S
C1234 N1242 1.356 . S
C1235 C1234 1.363 1_565 S
C1235 C1241 1.363 . S
C1236 C1237 1.363 . S
C1236 C1241 1.379 . S
C1236 N1243 1.356 . S
C1237 C1236 1.363 . S
C1237 C1240 1.363 1_565 S
N1238 C1240 1.356 . S
N1238 H1250 0.984 . S
N1238 H1251 0.985 . S
N1239 C1241 1.356 . S
N1239 H1244 0.984 . S
N1239 H1245 0.985 . S
C1240 C1234 1.379 . S
C1240 C1237 1.363 1_545 S
C1240 N1238 1.356 . S
C1241 C1235 1.363 . S
C1241 C1236 1.379 . S
C1241 N1239 1.356 . S
N1242 C1234 1.356 . S
N1242 H1248 0.984 . S
N1242 H1249 0.984 . S
N1243 C1236 1.356 . S
N1243 H1246 0.984 . S
N1243 H1247 0.985 . S
H1244 N1239 0.984 . S
H1245 N1239 0.985 . S
H1246 N1243 0.984 . S
H1247 N1243 0.985 . S
H1248 N1242 0.984 . S
H1249 N1242 0.984 . S
H1250 N1238 0.984 . S
H1251 N1238 0.985 . S
C1252 C1253 1.363 1_545 S
C1252 C1258 1.379 . S
C1252 N1260 1.356 . S
C1253 C1252 1.363 1_565 S
C1253 C1259 1.363 . S
C1254 C1255 1.363 . S
C1254 C1259 1.379 . S
C1254 N1261 1.356 . S
C1255 C1254 1.363 . S
C1255 C1258 1.363 1_565 S
N1256 C1258 1.356 . S
N1256 H1268 0.984 . S
N1256 H1269 0.985 . S
N1257 C1259 1.356 . S
N1257 H1262 0.984 . S
N1257 H1263 0.985 . S
C1258 C1252 1.379 . S
C1258 C1255 1.363 1_545 S
C1258 N1256 1.356 . S
C1259 C1253 1.363 . S
C1259 C1254 1.379 . S
C1259 N1257 1.356 . S
N1260 C1252 1.356 . S
N1260 H1266 0.984 . S
N1260 H1267 0.984 . S
N1261 C1254 1.356 . S
N1261 H1264 0.984 . S
N1261 H1265 0.985 . S
H1262 N1257 0.984 . S
H1263 N1257 0.985 . S
H1264 N1261 0.984 . S
H1265 N1261 0.985 . S
H1266 N1260 0.984 . S
H1267 N1260 0.984 . S
H1268 N1256 0.984 . S
H1269 N1256 0.985 . S
C1270 C1271 1.363 . S
C1270 C1276 1.379 . S
C1270 N1278 1.356 . S
C1271 C1270 1.363 . S
C1271 C1277 1.363 . S
C1272 C1273 1.363 . S
C1272 C1277 1.379 . S
C1272 N1279 1.356 . S
C1273 C1272 1.363 . S
C1273 C1276 1.363 . S
N1274 C1276 1.356 . S
N1274 H1286 0.984 . S
N1274 H1287 0.985 . S
N1275 C1277 1.356 . S
N1275 H1280 0.984 . S
N1275 H1281 0.985 . S
C1276 C1270 1.379 . S
C1276 C1273 1.363 . S
C1276 N1274 1.356 . S
C1277 C1271 1.363 . S
C1277 C1272 1.379 . S
C1277 N1275 1.356 . S
N1278 C1270 1.356 . S
N1278 H1284 0.984 . S
N1278 H1285 0.984 . S
N1279 C1272 1.356 . S
N1279 H1282 0.984 . S
N1279 H1283 0.985 . S
H1280 N1275 0.984 . S
H1281 N1275 0.985 . S
H1282 N1279 0.984 . S
H1283 N1279 0.985 . S
H1284 N1278 0.984 . S
H1285 N1278 0.984 . S
H1286 N1274 0.984 . S
H1287 N1274 0.985 . S
C1288 C1289 1.363 . S
C1288 C1294 1.379 . S
C1288 N1296 1.356 . S
C1289 C1288 1.363 . S
C1289 C1295 1.363 . S
C1290 C1291 1.363 . S
C1290 C1295 1.379 . S
C1290 N1297 1.356 . S
C1291 C1290 1.363 . S
C1291 C1294 1.363 . S
N1292 C1294 1.356 . S
N1292 H1304 0.984 . S
N1292 H1305 0.985 . S
N1293 C1295 1.356 . S
N1293 H1298 0.984 . S
N1293 H1299 0.985 . S
C1294 C1288 1.379 . S
C1294 C1291 1.363 . S
C1294 N1292 1.356 . S
C1295 C1289 1.363 . S
C1295 C1290 1.379 . S
C1295 N1293 1.356 . S
N1296 C1288 1.356 . S
N1296 H1302 0.984 . S
N1296 H1303 0.984 . S
N1297 C1290 1.356 . S
N1297 H1300 0.984 . S
N1297 H1301 0.985 . S
H1298 N1293 0.984 . S
H1299 N1293 0.985 . S
H1300 N1297 0.984 . S
H1301 N1297 0.985 . S
H1302 N1296 0.984 . S
H1303 N1296 0.984 . S
H1304 N1292 0.984 . S
H1305 N1292 0.985 . S
C1306 C1307 1.363 . S
C1306 C1312 1.379 . S
C1306 N1314 1.356 . S
C1307 C1306 1.363 . S
C1307 C1313 1.363 1_545 S
C1308 C1309 1.363 1_565 S
C1308 C1313 1.379 . S
C1308 N1315 1.356 . S
C1309 C1308 1.363 1_545 S
C1309 C1312 1.363 . S
N1310 C1312 1.356 . S
N1310 H1322 0.984 . S
N1310 H1323 0.985 . S
N1311 C1313 1.356 . S
N1311 H1316 0.984 . S
N1311 H1317 0.985 . S
C1312 C1306 1.379 . S
C1312 C1309 1.363 . S
C1312 N1310 1.356 . S
C1313 C1307 1.363 1_565 S
C1313 C1308 1.379 . S
C1313 N1311 1.356 . S
N1314 C1306 1.356 . S
N1314 H1320 0.984 . S
N1314 H1321 0.984 . S
N1315 C1308 1.356 . S
N1315 H1318 0.984 . S
N1315 H1319 0.985 . S
H1316 N1311 0.984 . S
H1317 N1311 0.985 . S
H1318 N1315 0.984 . S
H1319 N1315 0.985 . S
H1320 N1314 0.984 . S
H1321 N1314 0.984 . S
H1322 N1310 0.984 . S
H1323 N1310 0.985 . S
C1324 C1325 1.363 1_565 S
C1324 C1330 1.379 . S
C1324 N1332 1.356 . S
C1325 C1324 1.363 1_545 S
C1325 C1331 1.363 . S
C1326 C1327 1.363 . S
C1326 C1331 1.379 . S
C1326 N1333 1.356 . S
C1327 C1326 1.363 . S
C1327 C1330 1.363 1_545 S
N1328 C1330 1.356 . S
N1328 H1340 0.984 . S
N1328 H1341 0.985 . S
N1329 C1331 1.356 . S
N1329 H1334 0.984 . S
N1329 H1335 0.985 . S
C1330 C1324 1.379 . S
C1330 C1327 1.363 1_565 S
C1330 N1328 1.356 . S
C1331 C1325 1.363 . S
C1331 C1326 1.379 . S
C1331 N1329 1.356 . S
N1332 C1324 1.356 . S
N1332 H1338 0.984 . S
N1332 H1339 0.984 . S
N1333 C1326 1.356 . S
N1333 H1336 0.984 . S
N1333 H1337 0.985 . S
H1334 N1329 0.984 . S
H1335 N1329 0.985 . S
H1336 N1333 0.984 . S
H1337 N1333 0.985 . S
H1338 N1332 0.984 . S
H1339 N1332 0.984 . S
H1340 N1328 0.984 . S
H1341 N1328 0.985 . S
C1342 C1343 1.363 . S
C1342 C1348 1.379 . S
C1342 N1350 1.356 . S
C1343 C1342 1.363 . S
C1343 C1349 1.363 . S
C1344 C1345 1.363 . S
C1344 C1349 1.379 . S
C1344 N1351 1.356 . S
C1345 C1344 1.363 . S
C1345 C1348 1.363 . S
N1346 C1348 1.356 . S
N1346 H1358 0.984 . S
N1346 H1359 0.985 . S
N1347 C1349 1.356 . S
N1347 H1352 0.984 . S
N1347 H1353 0.985 . S
C1348 C1342 1.379 . S
C1348 C1345 1.363 . S
C1348 N1346 1.356 . S
C1349 C1343 1.363 . S
C1349 C1344 1.379 . S
C1349 N1347 1.356 . S
N1350 C1342 1.356 . S
N1350 H1356 0.984 . S
N1350 H1357 0.984 . S
N1351 C1344 1.356 . S
N1351 H1354 0.984 . S
N1351 H1355 0.985 . S
H1352 N1347 0.984 . S
H1353 N1347 0.985 . S
H1354 N1351 0.984 . S
H1355 N1351 0.985 . S
H1356 N1350 0.984 . S
H1357 N1350 0.984 . S
H1358 N1346 0.984 . S
H1359 N1346 0.985 . S
C1360 C1361 1.363 . S
C1360 C1366 1.379 . S
C1360 N1368 1.356 . S
C1361 C1360 1.363 . S
C1361 C1367 1.363 . S
C1362 C1363 1.363 . S
C1362 C1367 1.379 . S
C1362 N1369 1.356 . S
C1363 C1362 1.363 . S
C1363 C1366 1.363 . S
N1364 C1366 1.356 . S
N1364 H1376 0.984 . S
N1364 H1377 0.985 . S
N1365 C1367 1.356 . S
N1365 H1370 0.984 1_554 S
N1365 H1371 0.985 . S
C1366 C1360 1.379 . S
C1366 C1363 1.363 . S
C1366 N1364 1.356 . S
C1367 C1361 1.363 . S
C1367 C1362 1.379 . S
C1367 N1365 1.356 . S
N1368 C1360 1.356 . S
N1368 H1374 0.984 . S
N1368 H1375 0.984 . S
N1369 C1362 1.356 . S
N1369 H1372 0.984 . S
N1369 H1373 0.985 . S
H1370 N1365 0.984 1_556 S
H1371 N1365 0.985 . S
H1372 N1369 0.984 . S
H1373 N1369 0.985 . S
H1374 N1368 0.984 . S
H1375 N1368 0.984 . S
H1376 N1364 0.984 . S
H1377 N1364 0.985 . S
C1378 C1379 1.363 . S
C1378 C1384 1.379 . S
C1378 N1386 1.356 . S
C1379 C1378 1.363 . S
C1379 C1385 1.363 . S
C1380 C1381 1.363 . S
C1380 C1385 1.379 . S
C1380 N1387 1.356 . S
C1381 C1380 1.363 . S
C1381 C1384 1.363 . S
N1382 C1384 1.356 . S
N1382 H1394 0.984 . S
N1382 H1395 0.985 1_554 S
N1383 C1385 1.356 . S
N1383 H1388 0.984 . S
N1383 H1389 0.985 . S
C1384 C1378 1.379 . S
C1384 C1381 1.363 . S
C1384 N1382 1.356 . S
C1385 C1379 1.363 . S
C1385 C1380 1.379 . S
C1385 N1383 1.356 . S
N1386 C1378 1.356 . S
N1386 H1392 0.984 . S
N1386 H1393 0.984 . S
N1387 C1380 1.356 . S
N1387 H1390 0.984 . S
N1387 H1391 0.985 . S
H1388 N1383 0.984 . S
H1389 N1383 0.985 . S
H1390 N1387 0.984 . S
H1391 N1387 0.985 . S
H1392 N1386 0.984 . S
H1393 N1386 0.984 . S
H1394 N1382 0.984 . S
H1395 N1382 0.985 1_556 S
C1396 C1397 1.363 . S
C1396 C1402 1.379 1_556 S
C1396 N1404 1.356 . S
C1397 C1396 1.363 . S
C1397 C1403 1.363 . S
C1398 C1399 1.363 . S
C1398 C1403 1.379 1_554 S
C1398 N1405 1.356 . S
C1399 C1398 1.363 . S
C1399 C1402 1.363 . S
N1400 C1402 1.356 . S
N1400 H1412 0.984 . S
N1400 H1413 0.985 . S
N1401 C1403 1.356 . S
N1401 H1406 0.984 . S
N1401 H1407 0.985 . S
C1402 C1396 1.379 1_554 S
C1402 C1399 1.363 . S
C1402 N1400 1.356 . S
C1403 C1397 1.363 . S
C1403 C1398 1.379 1_556 S
C1403 N1401 1.356 . S
N1404 C1396 1.356 . S
N1404 H1410 0.984 . S
N1404 H1411 0.984 . S
N1405 C1398 1.356 . S
N1405 H1408 0.984 . S
N1405 H1409 0.985 . S
H1406 N1401 0.984 . S
H1407 N1401 0.985 . S
H1408 N1405 0.984 . S
H1409 N1405 0.985 . S
H1410 N1404 0.984 . S
H1411 N1404 0.984 . S
H1412 N1400 0.984 . S
H1413 N1400 0.985 . S
C1414 C1415 1.363 . S
C1414 C1420 1.379 1_556 S
C1414 N1422 1.356 . S
C1415 C1414 1.363 . S
C1415 C1421 1.363 . S
C1416 C1417 1.363 . S
C1416 C1421 1.379 1_554 S
C1416 N1423 1.356 . S
C1417 C1416 1.363 . S
C1417 C1420 1.363 . S
N1418 C1420 1.356 . S
N1418 H1430 0.984 . S
N1418 H1431 0.985 . S
N1419 C1421 1.356 . S
N1419 H1424 0.984 . S
N1419 H1425 0.985 . S
C1420 C1414 1.379 1_554 S
C1420 C1417 1.363 . S
C1420 N1418 1.356 . S
C1421 C1415 1.363 . S
C1421 C1416 1.379 1_556 S
C1421 N1419 1.356 . S
N1422 C1414 1.356 . S
N1422 H1428 0.984 . S
N1422 H1429 0.984 . S
N1423 C1416 1.356 . S
N1423 H1426 0.984 . S
N1423 H1427 0.985 . S
H1424 N1419 0.984 . S
H1425 N1419 0.985 . S
H1426 N1423 0.984 . S
H1427 N1423 0.985 . S
H1428 N1422 0.984 . S
H1429 N1422 0.984 . S
H1430 N1418 0.984 . S
H1431 N1418 0.985 . S
C1432 C1433 1.363 . S
C1432 C1438 1.379 . S
C1432 N1440 1.356 . S
C1433 C1432 1.363 . S
C1433 C1439 1.363 . S
C1434 C1435 1.363 . S
C1434 C1439 1.379 . S
C1434 N1441 1.356 . S
C1435 C1434 1.363 . S
C1435 C1438 1.363 . S
N1436 C1438 1.356 . S
N1436 H1448 0.984 . S
N1436 H1449 0.985 1_556 S
N1437 C1439 1.356 . S
N1437 H1442 0.984 . S
N1437 H1443 0.985 . S
C1438 C1432 1.379 . S
C1438 C1435 1.363 . S
C1438 N1436 1.356 . S
C1439 C1433 1.363 . S
C1439 C1434 1.379 . S
C1439 N1437 1.356 . S
N1440 C1432 1.356 . S
N1440 H1446 0.984 . S
N1440 H1447 0.984 . S
N1441 C1434 1.356 . S
N1441 H1444 0.984 . S
N1441 H1445 0.985 . S
H1442 N1437 0.984 . S
H1443 N1437 0.985 . S
H1444 N1441 0.984 . S
H1445 N1441 0.985 . S
H1446 N1440 0.984 . S
H1447 N1440 0.984 . S
H1448 N1436 0.984 . S
H1449 N1436 0.985 1_554 S
C1450 C1451 1.363 . S
C1450 C1456 1.379 . S
C1450 N1458 1.356 . S
C1451 C1450 1.363 . S
C1451 C1457 1.363 . S
C1452 C1453 1.363 . S
C1452 C1457 1.379 . S
C1452 N1459 1.356 . S
C1453 C1452 1.363 . S
C1453 C1456 1.363 . S
N1454 C1456 1.356 . S
N1454 H1466 0.984 . S
N1454 H1467 0.985 . S
N1455 C1457 1.356 . S
N1455 H1460 0.984 . S
N1455 H1461 0.985 . S
C1456 C1450 1.379 . S
C1456 C1453 1.363 . S
C1456 N1454 1.356 . S
C1457 C1451 1.363 . S
C1457 C1452 1.379 . S
C1457 N1455 1.356 . S
N1458 C1450 1.356 . S
N1458 H1464 0.984 . S
N1458 H1465 0.984 1_556 S
N1459 C1452 1.356 . S
N1459 H1462 0.984 . S
N1459 H1463 0.985 . S
H1460 N1455 0.984 . S
H1461 N1455 0.985 . S
H1462 N1459 0.984 . S
H1463 N1459 0.985 . S
H1464 N1458 0.984 . S
H1465 N1458 0.984 1_554 S
H1466 N1454 0.984 . S
H1467 N1454 0.985 . S
C1468 C1469 1.363 . S
C1468 C1474 1.379 1_554 S
C1468 N1476 1.356 . S
C1469 C1468 1.363 . S
C1469 C1475 1.363 . S
C1470 C1471 1.363 . S
C1470 C1475 1.379 1_556 S
C1470 N1477 1.356 . S
C1471 C1470 1.363 . S
C1471 C1474 1.363 . S
N1472 C1474 1.356 . S
N1472 H1484 0.984 . S
N1472 H1485 0.985 . S
N1473 C1475 1.356 . S
N1473 H1478 0.984 . S
N1473 H1479 0.985 . S
C1474 C1468 1.379 1_556 S
C1474 C1471 1.363 . S
C1474 N1472 1.356 . S
C1475 C1469 1.363 . S
C1475 C1470 1.379 1_554 S
C1475 N1473 1.356 . S
N1476 C1468 1.356 . S
N1476 H1482 0.984 . S
N1476 H1483 0.984 . S
N1477 C1470 1.356 . S
N1477 H1480 0.984 . S
N1477 H1481 0.985 . S
H1478 N1473 0.984 . S
H1479 N1473 0.985 . S
H1480 N1477 0.984 . S
H1481 N1477 0.985 . S
H1482 N1476 0.984 . S
H1483 N1476 0.984 . S
H1484 N1472 0.984 . S
H1485 N1472 0.985 . S
C1486 C1487 1.363 . S
C1486 C1492 1.379 1_556 S
C1486 N1494 1.356 . S
C1487 C1486 1.363 . S
C1487 C1493 1.363 . S
C1488 C1489 1.363 . S
C1488 C1493 1.379 1_554 S
C1488 N1495 1.356 . S
C1489 C1488 1.363 . S
C1489 C1492 1.363 . S
N1490 C1492 1.356 . S
N1490 H1502 0.984 . S
N1490 H1503 0.985 . S
N1491 C1493 1.356 . S
N1491 H1496 0.984 . S
N1491 H1497 0.985 . S
C1492 C1486 1.379 1_554 S
C1492 C1489 1.363 . S
C1492 N1490 1.356 . S
C1493 C1487 1.363 . S
C1493 C1488 1.379 1_556 S
C1493 N1491 1.356 . S
N1494 C1486 1.356 . S
N1494 H1500 0.984 . S
N1494 H1501 0.984 . S
N1495 C1488 1.356 . S
N1495 H1498 0.984 . S
N1495 H1499 0.985 . S
H1496 N1491 0.984 . S
H1497 N1491 0.985 . S
H1498 N1495 0.984 . S
H1499 N1495 0.985 . S
H1500 N1494 0.984 . S
H1501 N1494 0.984 . S
H1502 N1490 0.984 . S
H1503 N1490 0.985 . S
C1504 C1505 1.363 . S
C1504 C1510 1.379 . S
C1504 N1512 1.356 . S
C1505 C1504 1.363 . S
C1505 C1511 1.363 . S
C1506 C1507 1.363 . S
C1506 C1511 1.379 . S
C1506 N1513 1.356 . S
C1507 C1506 1.363 . S
C1507 C1510 1.363 . S
N1508 C1510 1.356 . S
N1508 H1520 0.984 . S
N1508 H1521 0.985 . S
N1509 C1511 1.356 . S
N1509 H1514 0.984 1_554 S
N1509 H1515 0.985 . S
C1510 C1504 1.379 . S
C1510 C1507 1.363 . S
C1510 N1508 1.356 . S
C1511 C1505 1.363 . S
C1511 C1506 1.379 . S
C1511 N1509 1.356 . S
N1512 C1504 1.356 . S
N1512 H1518 0.984 . S
N1512 H1519 0.984 . S
N1513 C1506 1.356 . S
N1513 H1516 0.984 . S
N1513 H1517 0.985 . S
H1514 N1509 0.984 1_556 S
H1515 N1509 0.985 . S
H1516 N1513 0.984 . S
H1517 N1513 0.985 . S
H1518 N1512 0.984 . S
H1519 N1512 0.984 . S
H1520 N1508 0.984 . S
H1521 N1508 0.985 . S
C1522 C1523 1.363 1_545 S
C1522 C1528 1.379 . S
C1522 N1530 1.356 . S
C1523 C1522 1.363 1_565 S
C1523 C1529 1.363 . S
C1524 C1525 1.363 . S
C1524 C1529 1.379 . S
C1524 N1531 1.356 . S
C1525 C1524 1.363 . S
C1525 C1528 1.363 1_565 S
N1526 C1528 1.356 . S
N1526 H1538 0.984 . S
N1526 H1539 0.985 . S
N1527 C1529 1.356 . S
N1527 H1532 0.984 . S
N1527 H1533 0.985 . S
C1528 C1522 1.379 . S
C1528 C1525 1.363 1_545 S
C1528 N1526 1.356 . S
C1529 C1523 1.363 . S
C1529 C1524 1.379 . S
C1529 N1527 1.356 . S
N1530 C1522 1.356 . S
N1530 H1536 0.984 . S
N1530 H1537 0.984 . S
N1531 C1524 1.356 . S
N1531 H1534 0.984 1_554 S
N1531 H1535 0.985 . S
H1532 N1527 0.984 . S
H1533 N1527 0.985 . S
H1534 N1531 0.984 1_556 S
H1535 N1531 0.985 . S
H1536 N1530 0.984 . S
H1537 N1530 0.984 . S
H1538 N1526 0.984 . S
H1539 N1526 0.985 . S
C1540 C1541 1.363 . S
C1540 C1546 1.379 1_556 S
C1540 N1548 1.356 . S
C1541 C1540 1.363 . S
C1541 C1547 1.363 1_565 S
C1542 C1543 1.363 1_545 S
C1542 C1547 1.379 1_554 S
C1542 N1549 1.356 . S
C1543 C1542 1.363 1_565 S
C1543 C1546 1.363 . S
N1544 C1546 1.356 . S
N1544 H1556 0.984 . S
N1544 H1557 0.985 . S
N1545 C1547 1.356 . S
N1545 H1550 0.984 . S
N1545 H1551 0.985 . S
C1546 C1540 1.379 1_554 S
C1546 C1543 1.363 . S
C1546 N1544 1.356 . S
C1547 C1541 1.363 1_545 S
C1547 C1542 1.379 1_556 S
C1547 N1545 1.356 . S
N1548 C1540 1.356 . S
N1548 H1554 0.984 . S
N1548 H1555 0.984 . S
N1549 C1542 1.356 . S
N1549 H1552 0.984 . S
N1549 H1553 0.985 . S
H1550 N1545 0.984 . S
H1551 N1545 0.985 . S
H1552 N1549 0.984 . S
H1553 N1549 0.985 . S
H1554 N1548 0.984 . S
H1555 N1548 0.984 . S
H1556 N1544 0.984 . S
H1557 N1544 0.985 . S
C1558 C1559 1.363 . S
C1558 C1564 1.379 1_556 S
C1558 N1566 1.356 . S
C1559 C1558 1.363 . S
C1559 C1565 1.363 . S
C1560 C1561 1.363 . S
C1560 C1565 1.379 1_554 S
C1560 N1567 1.356 . S
C1561 C1560 1.363 . S
C1561 C1564 1.363 . S
N1562 C1564 1.356 . S
N1562 H1574 0.984 . S
N1562 H1575 0.985 . S
N1563 C1565 1.356 . S
N1563 H1568 0.984 . S
N1563 H1569 0.985 . S
C1564 C1558 1.379 1_554 S
C1564 C1561 1.363 . S
C1564 N1562 1.356 . S
C1565 C1559 1.363 . S
C1565 C1560 1.379 1_556 S
C1565 N1563 1.356 . S
N1566 C1558 1.356 . S
N1566 H1572 0.984 . S
N1566 H1573 0.984 . S
N1567 C1560 1.356 . S
N1567 H1570 0.984 . S
N1567 H1571 0.985 . S
H1568 N1563 0.984 . S
H1569 N1563 0.985 . S
H1570 N1567 0.984 . S
H1571 N1567 0.985 . S
H1572 N1566 0.984 . S
H1573 N1566 0.984 . S
H1574 N1562 0.984 . S
H1575 N1562 0.985 . S
C1576 C1577 1.363 . S
C1576 C1582 1.379 . S
C1576 N1584 1.356 . S
C1577 C1576 1.363 . S
C1577 C1583 1.363 . S
C1578 C1579 1.363 . S
C1578 C1583 1.379 . S
C1578 N1585 1.356 . S
C1579 C1578 1.363 . S
C1579 C1582 1.363 . S
N1580 C1582 1.356 . S
N1580 H1592 0.984 . S
N1580 H1593 0.985 . S
N1581 C1583 1.356 . S
N1581 H1586 0.984 . S
N1581 H1587 0.985 . S
C1582 C1576 1.379 . S
C1582 C1579 1.363 . S
C1582 N1580 1.356 . S
C1583 C1577 1.363 . S
C1583 C1578 1.379 . S
C1583 N1581 1.356 . S
N1584 C1576 1.356 . S
N1584 H1590 0.984 . S
N1584 H1591 0.984 1_556 S
N1585 C1578 1.356 . S
N1585 H1588 0.984 . S
N1585 H1589 0.985 . S
H1586 N1581 0.984 . S
H1587 N1581 0.985 . S
H1588 N1585 0.984 . S
H1589 N1585 0.985 . S
H1590 N1584 0.984 . S
H1591 N1584 0.984 1_554 S
H1592 N1580 0.984 . S
H1593 N1580 0.985 . S
C1594 C1595 1.363 1_565 S
C1594 C1600 1.379 . S
C1594 N1602 1.356 . S
C1595 C1594 1.363 1_545 S
C1595 C1601 1.363 . S
C1596 C1597 1.363 . S
C1596 C1601 1.379 . S
C1596 N1603 1.356 . S
C1597 C1596 1.363 . S
C1597 C1600 1.363 1_545 S
N1598 C1600 1.356 . S
N1598 H1610 0.984 . S
N1598 H1611 0.985 1_556 S
N1599 C1601 1.356 . S
N1599 H1604 0.984 . S
N1599 H1605 0.985 . S
C1600 C1594 1.379 . S
C1600 C1597 1.363 1_565 S
C1600 N1598 1.356 . S
C1601 C1595 1.363 . S
C1601 C1596 1.379 . S
C1601 N1599 1.356 . S
N1602 C1594 1.356 . S
N1602 H1608 0.984 . S
N1602 H1609 0.984 . S
N1603 C1596 1.356 . S
N1603 H1606 0.984 . S
N1603 H1607 0.985 . S
H1604 N1599 0.984 . S
H1605 N1599 0.985 . S
H1606 N1603 0.984 . S
H1607 N1603 0.985 . S
H1608 N1602 0.984 . S
H1609 N1602 0.984 . S
H1610 N1598 0.984 . S
H1611 N1598 0.985 1_554 S
C1612 C1613 1.363 . S
C1612 C1618 1.379 1_556 S
C1612 N1620 1.356 . S
C1613 C1612 1.363 . S
C1613 C1619 1.363 1_545 S
C1614 C1615 1.363 1_565 S
C1614 C1619 1.379 1_554 S
C1614 N1621 1.356 . S
C1615 C1614 1.363 1_545 S
C1615 C1618 1.363 . S
N1616 C1618 1.356 . S
N1616 H1628 0.984 . S
N1616 H1629 0.985 . S
N1617 C1619 1.356 . S
N1617 H1622 0.984 . S
N1617 H1623 0.985 . S
C1618 C1612 1.379 1_554 S
C1618 C1615 1.363 . S
C1618 N1616 1.356 . S
C1619 C1613 1.363 1_565 S
C1619 C1614 1.379 1_556 S
C1619 N1617 1.356 . S
N1620 C1612 1.356 . S
N1620 H1626 0.984 . S
N1620 H1627 0.984 . S
N1621 C1614 1.356 . S
N1621 H1624 0.984 . S
N1621 H1625 0.985 . S
H1622 N1617 0.984 . S
H1623 N1617 0.985 . S
H1624 N1621 0.984 . S
H1625 N1621 0.985 . S
H1626 N1620 0.984 . S
H1627 N1620 0.984 . S
H1628 N1616 0.984 . S
H1629 N1616 0.985 . S
C1630 C1631 1.363 . S
C1630 C1636 1.379 1_556 S
C1630 N1638 1.356 . S
C1631 C1630 1.363 . S
C1631 C1637 1.363 . S
C1632 C1633 1.363 . S
C1632 C1637 1.379 1_554 S
C1632 N1639 1.356 . S
C1633 C1632 1.363 . S
C1633 C1636 1.363 . S
N1634 C1636 1.356 . S
N1634 H1646 0.984 . S
N1634 H1647 0.985 . S
N1635 C1637 1.356 . S
N1635 H1640 0.984 . S
N1635 H1641 0.985 . S
C1636 C1630 1.379 1_554 S
C1636 C1633 1.363 . S
C1636 N1634 1.356 . S
C1637 C1631 1.363 . S
C1637 C1632 1.379 1_556 S
C1637 N1635 1.356 . S
N1638 C1630 1.356 . S
N1638 H1644 0.984 . S
N1638 H1645 0.984 . S
N1639 C1632 1.356 . S
N1639 H1642 0.984 . S
N1639 H1643 0.985 . S
H1640 N1635 0.984 . S
H1641 N1635 0.985 . S
H1642 N1639 0.984 . S
H1643 N1639 0.985 . S
H1644 N1638 0.984 . S
H1645 N1638 0.984 . S
H1646 N1634 0.984 . S
H1647 N1634 0.985 . S
C1648 C1649 1.363 . S
C1648 C1654 1.379 . S
C1648 N1656 1.356 . S
C1649 C1648 1.363 . S
C1649 C1655 1.363 . S
C1650 C1651 1.363 . S
C1650 C1655 1.379 . S
C1650 N1657 1.356 . S
C1651 C1650 1.363 . S
C1651 C1654 1.363 . S
N1652 C1654 1.356 . S
N1652 H1664 0.984 . S
N1652 H1665 0.985 . S
N1653 C1655 1.356 . S
N1653 H1658 0.984 . S
N1653 H1659 0.985 . S
C1654 C1648 1.379 . S
C1654 C1651 1.363 . S
C1654 N1652 1.356 . S
C1655 C1649 1.363 . S
C1655 C1650 1.379 . S
C1655 N1653 1.356 . S
N1656 C1648 1.356 . S
N1656 H1662 0.984 . S
N1656 H1663 0.984 . S
N1657 C1650 1.356 . S
N1657 H1660 0.984 . S
N1657 H1661 0.985 . S
H1658 N1653 0.984 . S
H1659 N1653 0.985 . S
H1660 N1657 0.984 . S
H1661 N1657 0.985 . S
H1662 N1656 0.984 . S
H1663 N1656 0.984 . S
H1664 N1652 0.984 . S
H1665 N1652 0.985 . S
C1666 C1667 1.363 . S
C1666 C1672 1.379 . S
C1666 N1674 1.356 . S
C1667 C1666 1.363 . S
C1667 C1673 1.363 . S
C1668 C1669 1.363 . S
C1668 C1673 1.379 . S
C1668 N1675 1.356 . S
C1669 C1668 1.363 . S
C1669 C1672 1.363 . S
N1670 C1672 1.356 . S
N1670 H1682 0.984 . S
N1670 H1683 0.985 . S
N1671 C1673 1.356 . S
N1671 H1676 0.984 . S
N1671 H1677 0.985 . S
C1672 C1666 1.379 . S
C1672 C1669 1.363 . S
C1672 N1670 1.356 . S
C1673 C1667 1.363 . S
C1673 C1668 1.379 . S
C1673 N1671 1.356 . S
N1674 C1666 1.356 . S
N1674 H1680 0.984 . S
N1674 H1681 0.984 . S
N1675 C1668 1.356 . S
N1675 H1678 0.984 . S
N1675 H1679 0.985 . S
H1676 N1671 0.984 . S
H1677 N1671 0.985 . S
H1678 N1675 0.984 . S
H1679 N1675 0.985 . S
H1680 N1674 0.984 . S
H1681 N1674 0.984 . S
H1682 N1670 0.984 . S
H1683 N1670 0.985 . S
C1684 C1685 1.363 . S
C1684 C1690 1.379 . S
C1684 N1692 1.356 . S
C1685 C1684 1.363 . S
C1685 C1691 1.363 . S
C1686 C1687 1.363 . S
C1686 C1691 1.379 . S
C1686 N1693 1.356 . S
C1687 C1686 1.363 . S
C1687 C1690 1.363 . S
N1688 C1690 1.356 . S
N1688 H1700 0.984 . S
N1688 H1701 0.985 . S
N1689 C1691 1.356 . S
N1689 H1694 0.984 . S
N1689 H1695 0.985 . S
C1690 C1684 1.379 . S
C1690 C1687 1.363 . S
C1690 N1688 1.356 . S
C1691 C1685 1.363 . S
C1691 C1686 1.379 . S
C1691 N1689 1.356 . S
N1692 C1684 1.356 . S
N1692 H1698 0.984 . S
N1692 H1699 0.984 . S
N1693 C1686 1.356 . S
N1693 H1696 0.984 . S
N1693 H1697 0.985 . S
H1694 N1689 0.984 . S
H1695 N1689 0.985 . S
H1696 N1693 0.984 . S
H1697 N1693 0.985 . S
H1698 N1692 0.984 . S
H1699 N1692 0.984 . S
H1700 N1688 0.984 . S
H1701 N1688 0.985 . S
C1702 C1703 1.363 . S
C1702 C1708 1.379 . S
C1702 N1710 1.356 . S
C1703 C1702 1.363 . S
C1703 C1709 1.363 . S
C1704 C1705 1.363 . S
C1704 C1709 1.379 . S
C1704 N1711 1.356 . S
C1705 C1704 1.363 . S
C1705 C1708 1.363 . S
N1706 C1708 1.356 . S
N1706 H1718 0.984 . S
N1706 H1719 0.985 . S
N1707 C1709 1.356 . S
N1707 H1712 0.984 . S
N1707 H1713 0.985 . S
C1708 C1702 1.379 . S
C1708 C1705 1.363 . S
C1708 N1706 1.356 . S
C1709 C1703 1.363 . S
C1709 C1704 1.379 . S
C1709 N1707 1.356 . S
N1710 C1702 1.356 . S
N1710 H1716 0.984 . S
N1710 H1717 0.984 . S
N1711 C1704 1.356 . S
N1711 H1714 0.984 . S
N1711 H1715 0.985 . S
H1712 N1707 0.984 . S
H1713 N1707 0.985 . S
H1714 N1711 0.984 . S
H1715 N1711 0.985 . S
H1716 N1710 0.984 . S
H1717 N1710 0.984 . S
H1718 N1706 0.984 . S
H1719 N1706 0.985 . S
C1720 C1721 1.363 . S
C1720 C1726 1.379 . S
C1720 N1728 1.356 . S
C1721 C1720 1.363 . S
C1721 C1727 1.363 . S
C1722 C1723 1.363 . S
C1722 C1727 1.379 . S
C1722 N1729 1.356 . S
C1723 C1722 1.363 . S
C1723 C1726 1.363 . S
N1724 C1726 1.356 . S
N1724 H1736 0.984 . S
N1724 H1737 0.985 . S
N1725 C1727 1.356 . S
N1725 H1730 0.984 . S
N1725 H1731 0.985 . S
C1726 C1720 1.379 . S
C1726 C1723 1.363 . S
C1726 N1724 1.356 . S
C1727 C1721 1.363 . S
C1727 C1722 1.379 . S
C1727 N1725 1.356 . S
N1728 C1720 1.356 . S
N1728 H1734 0.984 . S
N1728 H1735 0.984 . S
N1729 C1722 1.356 . S
N1729 H1732 0.984 . S
N1729 H1733 0.985 . S
H1730 N1725 0.984 . S
H1731 N1725 0.985 . S
H1732 N1729 0.984 . S
H1733 N1729 0.985 . S
H1734 N1728 0.984 . S
H1735 N1728 0.984 . S
H1736 N1724 0.984 . S
H1737 N1724 0.985 . S
C1738 C1739 1.363 . S
C1738 C1744 1.379 . S
C1738 N1746 1.356 . S
C1739 C1738 1.363 . S
C1739 C1745 1.363 . S
C1740 C1741 1.363 . S
C1740 C1745 1.379 . S
C1740 N1747 1.356 . S
C1741 C1740 1.363 . S
C1741 C1744 1.363 . S
N1742 C1744 1.356 . S
N1742 H1754 0.984 . S
N1742 H1755 0.985 . S
N1743 C1745 1.356 . S
N1743 H1748 0.984 . S
N1743 H1749 0.985 . S
C1744 C1738 1.379 . S
C1744 C1741 1.363 . S
C1744 N1742 1.356 . S
C1745 C1739 1.363 . S
C1745 C1740 1.379 . S
C1745 N1743 1.356 . S
N1746 C1738 1.356 . S
N1746 H1752 0.984 . S
N1746 H1753 0.984 . S
N1747 C1740 1.356 . S
N1747 H1750 0.984 . S
N1747 H1751 0.985 . S
H1748 N1743 0.984 . S
H1749 N1743 0.985 . S
H1750 N1747 0.984 . S
H1751 N1747 0.985 . S
H1752 N1746 0.984 . S
H1753 N1746 0.984 . S
H1754 N1742 0.984 . S
H1755 N1742 0.985 . S
C1756 C1757 1.363 . S
C1756 C1762 1.379 . S
C1756 N1764 1.356 . S
C1757 C1756 1.363 . S
C1757 C1763 1.363 . S
C1758 C1759 1.363 . S
C1758 C1763 1.379 . S
C1758 N1765 1.356 . S
C1759 C1758 1.363 . S
C1759 C1762 1.363 . S
N1760 C1762 1.356 . S
N1760 H1772 0.984 . S
N1760 H1773 0.985 . S
N1761 C1763 1.356 . S
N1761 H1766 0.984 . S
N1761 H1767 0.985 . S
C1762 C1756 1.379 . S
C1762 C1759 1.363 . S
C1762 N1760 1.356 . S
C1763 C1757 1.363 . S
C1763 C1758 1.379 . S
C1763 N1761 1.356 . S
N1764 C1756 1.356 . S
N1764 H1770 0.984 . S
N1764 H1771 0.984 . S
N1765 C1758 1.356 . S
N1765 H1768 0.984 . S
N1765 H1769 0.985 . S
H1766 N1761 0.984 . S
H1767 N1761 0.985 . S
H1768 N1765 0.984 . S
H1769 N1765 0.985 . S
H1770 N1764 0.984 . S
H1771 N1764 0.984 . S
H1772 N1760 0.984 . S
H1773 N1760 0.985 . S
C1774 C1775 1.363 . S
C1774 C1780 1.379 . S
C1774 N1782 1.356 . S
C1775 C1774 1.363 . S
C1775 C1781 1.363 . S
C1776 C1777 1.363 . S
C1776 C1781 1.379 . S
C1776 N1783 1.356 . S
C1777 C1776 1.363 . S
C1777 C1780 1.363 . S
N1778 C1780 1.356 . S
N1778 H1790 0.984 . S
N1778 H1791 0.985 . S
N1779 C1781 1.356 . S
N1779 H1784 0.984 . S
N1779 H1785 0.985 . S
C1780 C1774 1.379 . S
C1780 C1777 1.363 . S
C1780 N1778 1.356 . S
C1781 C1775 1.363 . S
C1781 C1776 1.379 . S
C1781 N1779 1.356 . S
N1782 C1774 1.356 . S
N1782 H1788 0.984 . S
N1782 H1789 0.984 . S
N1783 C1776 1.356 . S
N1783 H1786 0.984 . S
N1783 H1787 0.985 . S
H1784 N1779 0.984 . S
H1785 N1779 0.985 . S
H1786 N1783 0.984 . S
H1787 N1783 0.985 . S
H1788 N1782 0.984 . S
H1789 N1782 0.984 . S
H1790 N1778 0.984 . S
H1791 N1778 0.985 . S
C1792 C1793 1.363 . S
C1792 C1798 1.379 . S
C1792 N1800 1.356 . S
C1793 C1792 1.363 . S
C1793 C1799 1.363 . S
C1794 C1795 1.363 . S
C1794 C1799 1.379 . S
C1794 N1801 1.356 . S
C1795 C1794 1.363 . S
C1795 C1798 1.363 . S
N1796 C1798 1.356 . S
N1796 H1808 0.984 . S
N1796 H1809 0.985 . S
N1797 C1799 1.356 . S
N1797 H1802 0.984 . S
N1797 H1803 0.985 . S
C1798 C1792 1.379 . S
C1798 C1795 1.363 . S
C1798 N1796 1.356 . S
C1799 C1793 1.363 . S
C1799 C1794 1.379 . S
C1799 N1797 1.356 . S
N1800 C1792 1.356 . S
N1800 H1806 0.984 . S
N1800 H1807 0.984 . S
N1801 C1794 1.356 . S
N1801 H1804 0.984 . S
N1801 H1805 0.985 . S
H1802 N1797 0.984 . S
H1803 N1797 0.985 . S
H1804 N1801 0.984 . S
H1805 N1801 0.985 . S
H1806 N1800 0.984 . S
H1807 N1800 0.984 . S
H1808 N1796 0.984 . S
H1809 N1796 0.985 . S
C1810 C1811 1.363 . S
C1810 C1816 1.379 . S
C1810 N1818 1.356 . S
C1811 C1810 1.363 . S
C1811 C1817 1.363 . S
C1812 C1813 1.363 . S
C1812 C1817 1.379 . S
C1812 N1819 1.356 . S
C1813 C1812 1.363 . S
C1813 C1816 1.363 . S
N1814 C1816 1.356 . S
N1814 H1826 0.984 . S
N1814 H1827 0.985 . S
N1815 C1817 1.356 . S
N1815 H1820 0.984 . S
N1815 H1821 0.985 . S
C1816 C1810 1.379 . S
C1816 C1813 1.363 . S
C1816 N1814 1.356 . S
C1817 C1811 1.363 . S
C1817 C1812 1.379 . S
C1817 N1815 1.356 . S
N1818 C1810 1.356 . S
N1818 H1824 0.984 . S
N1818 H1825 0.984 . S
N1819 C1812 1.356 . S
N1819 H1822 0.984 . S
N1819 H1823 0.985 . S
H1820 N1815 0.984 . S
H1821 N1815 0.985 . S
H1822 N1819 0.984 . S
H1823 N1819 0.985 . S
H1824 N1818 0.984 . S
H1825 N1818 0.984 . S
H1826 N1814 0.984 . S
H1827 N1814 0.985 . S
C1828 C1829 1.363 . S
C1828 C1834 1.379 . S
C1828 N1836 1.356 1_556 S
C1829 C1828 1.363 . S
C1829 C1835 1.363 . S
C1830 C1831 1.363 . S
C1830 C1835 1.379 . S
C1830 N1837 1.356 . S
C1831 C1830 1.363 . S
C1831 C1834 1.363 . S
N1832 C1834 1.356 . S
N1832 H1844 0.984 1_556 S
N1832 H1845 0.985 . S
N1833 C1835 1.356 . S
N1833 H1838 0.984 . S
N1833 H1839 0.985 . S
C1834 C1828 1.379 . S
C1834 C1831 1.363 . S
C1834 N1832 1.356 . S
C1835 C1829 1.363 . S
C1835 C1830 1.379 . S
C1835 N1833 1.356 . S
N1836 C1828 1.356 1_554 S
N1836 H1842 0.984 . S
N1836 H1843 0.984 . S
N1837 C1830 1.356 . S
N1837 H1840 0.984 . S
N1837 H1841 0.985 . S
H1838 N1833 0.984 . S
H1839 N1833 0.985 . S
H1840 N1837 0.984 . S
H1841 N1837 0.985 . S
H1842 N1836 0.984 . S
H1843 N1836 0.984 . S
H1844 N1832 0.984 1_554 S
H1845 N1832 0.985 . S
C1846 C1847 1.363 . S
C1846 C1852 1.379 . S
C1846 N1854 1.356 . S
C1847 C1846 1.363 . S
C1847 C1853 1.363 . S
C1848 C1849 1.363 . S
C1848 C1853 1.379 . S
C1848 N1855 1.356 1_556 S
C1849 C1848 1.363 . S
C1849 C1852 1.363 . S
N1850 C1852 1.356 . S
N1850 H1862 0.984 . S
N1850 H1863 0.985 . S
N1851 C1853 1.356 . S
N1851 H1856 0.984 . S
N1851 H1857 0.985 1_556 S
C1852 C1846 1.379 . S
C1852 C1849 1.363 . S
C1852 N1850 1.356 . S
C1853 C1847 1.363 . S
C1853 C1848 1.379 . S
C1853 N1851 1.356 . S
N1854 C1846 1.356 . S
N1854 H1860 0.984 . S
N1854 H1861 0.984 . S
N1855 C1848 1.356 1_554 S
N1855 H1858 0.984 . S
N1855 H1859 0.985 . S
H1856 N1851 0.984 . S
H1857 N1851 0.985 1_554 S
H1858 N1855 0.984 . S
H1859 N1855 0.985 . S
H1860 N1854 0.984 . S
H1861 N1854 0.984 . S
H1862 N1850 0.984 . S
H1863 N1850 0.985 . S
C1864 C1865 1.363 . S
C1864 C1870 1.379 . S
C1864 N1872 1.356 . S
C1865 C1864 1.363 . S
C1865 C1871 1.363 . S
C1866 C1867 1.363 . S
C1866 C1871 1.379 . S
C1866 N1873 1.356 . S
C1867 C1866 1.363 . S
C1867 C1870 1.363 . S
N1868 C1870 1.356 . S
N1868 H1880 0.984 . S
N1868 H1881 0.985 . S
N1869 C1871 1.356 . S
N1869 H1874 0.984 . S
N1869 H1875 0.985 . S
C1870 C1864 1.379 . S
C1870 C1867 1.363 . S
C1870 N1868 1.356 . S
C1871 C1865 1.363 . S
C1871 C1866 1.379 . S
C1871 N1869 1.356 . S
N1872 C1864 1.356 . S
N1872 H1878 0.984 . S
N1872 H1879 0.984 . S
N1873 C1866 1.356 . S
N1873 H1876 0.984 . S
N1873 H1877 0.985 . S
H1874 N1869 0.984 . S
H1875 N1869 0.985 . S
H1876 N1873 0.984 . S
H1877 N1873 0.985 . S
H1878 N1872 0.984 . S
H1879 N1872 0.984 . S
H1880 N1868 0.984 . S
H1881 N1868 0.985 . S
C1882 C1883 1.363 . S
C1882 C1888 1.379 . S
C1882 N1890 1.356 . S
C1883 C1882 1.363 . S
C1883 C1889 1.363 . S
C1884 C1885 1.363 . S
C1884 C1889 1.379 . S
C1884 N1891 1.356 . S
C1885 C1884 1.363 . S
C1885 C1888 1.363 . S
N1886 C1888 1.356 . S
N1886 H1898 0.984 . S
N1886 H1899 0.985 . S
N1887 C1889 1.356 . S
N1887 H1892 0.984 . S
N1887 H1893 0.985 . S
C1888 C1882 1.379 . S
C1888 C1885 1.363 . S
C1888 N1886 1.356 . S
C1889 C1883 1.363 . S
C1889 C1884 1.379 . S
C1889 N1887 1.356 . S
N1890 C1882 1.356 . S
N1890 H1896 0.984 . S
N1890 H1897 0.984 . S
N1891 C1884 1.356 . S
N1891 H1894 0.984 . S
N1891 H1895 0.985 . S
H1892 N1887 0.984 . S
H1893 N1887 0.985 . S
H1894 N1891 0.984 . S
H1895 N1891 0.985 . S
H1896 N1890 0.984 . S
H1897 N1890 0.984 . S
H1898 N1886 0.984 . S
H1899 N1886 0.985 . S
C1900 C1901 1.363 . S
C1900 C1906 1.379 . S
C1900 N1908 1.356 1_554 S
C1901 C1900 1.363 . S
C1901 C1907 1.363 . S
C1902 C1903 1.363 . S
C1902 C1907 1.379 . S
C1902 N1909 1.356 . S
C1903 C1902 1.363 . S
C1903 C1906 1.363 . S
N1904 C1906 1.356 . S
N1904 H1916 0.984 1_554 S
N1904 H1917 0.985 . S
N1905 C1907 1.356 . S
N1905 H1910 0.984 . S
N1905 H1911 0.985 . S
C1906 C1900 1.379 . S
C1906 C1903 1.363 . S
C1906 N1904 1.356 . S
C1907 C1901 1.363 . S
C1907 C1902 1.379 . S
C1907 N1905 1.356 . S
N1908 C1900 1.356 1_556 S
N1908 H1914 0.984 . S
N1908 H1915 0.984 . S
N1909 C1902 1.356 . S
N1909 H1912 0.984 . S
N1909 H1913 0.985 . S
H1910 N1905 0.984 . S
H1911 N1905 0.985 . S
H1912 N1909 0.984 . S
H1913 N1909 0.985 . S
H1914 N1908 0.984 . S
H1915 N1908 0.984 . S
H1916 N1904 0.984 1_556 S
H1917 N1904 0.985 . S
C1918 C1919 1.363 . S
C1918 C1924 1.379 . S
C1918 N1926 1.356 1_554 S
C1919 C1918 1.363 . S
C1919 C1925 1.363 . S
C1920 C1921 1.363 . S
C1920 C1925 1.379 . S
C1920 N1927 1.356 . S
C1921 C1920 1.363 . S
C1921 C1924 1.363 . S
N1922 C1924 1.356 . S
N1922 H1934 0.984 1_554 S
N1922 H1935 0.985 . S
N1923 C1925 1.356 . S
N1923 H1928 0.984 . S
N1923 H1929 0.985 . S
C1924 C1918 1.379 . S
C1924 C1921 1.363 . S
C1924 N1922 1.356 . S
C1925 C1919 1.363 . S
C1925 C1920 1.379 . S
C1925 N1923 1.356 . S
N1926 C1918 1.356 1_556 S
N1926 H1932 0.984 . S
N1926 H1933 0.984 . S
N1927 C1920 1.356 . S
N1927 H1930 0.984 . S
N1927 H1931 0.985 . S
H1928 N1923 0.984 . S
H1929 N1923 0.985 . S
H1930 N1927 0.984 . S
H1931 N1927 0.985 . S
H1932 N1926 0.984 . S
H1933 N1926 0.984 . S
H1934 N1922 0.984 1_556 S
H1935 N1922 0.985 . S
C1936 C1937 1.363 . S
C1936 C1942 1.379 . S
C1936 N1944 1.356 1_556 S
C1937 C1936 1.363 . S
C1937 C1943 1.363 . S
C1938 C1939 1.363 . S
C1938 C1943 1.379 . S
C1938 N1945 1.356 . S
C1939 C1938 1.363 . S
C1939 C1942 1.363 . S
N1940 C1942 1.356 . S
N1940 H1952 0.984 1_556 S
N1940 H1953 0.985 . S
N1941 C1943 1.356 . S
N1941 H1946 0.984 . S
N1941 H1947 0.985 . S
C1942 C1936 1.379 . S
C1942 C1939 1.363 . S
C1942 N1940 1.356 . S
C1943 C1937 1.363 . S
C1943 C1938 1.379 . S
C1943 N1941 1.356 . S
N1944 C1936 1.356 1_554 S
N1944 H1950 0.984 . S
N1944 H1951 0.984 . S
N1945 C1938 1.356 . S
N1945 H1948 0.984 . S
N1945 H1949 0.985 . S
H1946 N1941 0.984 . S
H1947 N1941 0.985 . S
H1948 N1945 0.984 . S
H1949 N1945 0.985 . S
H1950 N1944 0.984 . S
H1951 N1944 0.984 . S
H1952 N1940 0.984 1_554 S
H1953 N1940 0.985 . S
C1954 C1955 1.363 . S
C1954 C1960 1.379 . S
C1954 N1962 1.356 . S
C1955 C1954 1.363 . S
C1955 C1961 1.363 . S
C1956 C1957 1.363 . S
C1956 C1961 1.379 . S
C1956 N1963 1.356 . S
C1957 C1956 1.363 . S
C1957 C1960 1.363 . S
N1958 C1960 1.356 1_554 S
N1958 H1970 0.984 . S
N1958 H1971 0.985 . S
N1959 C1961 1.356 . S
N1959 H1964 0.984 . S
N1959 H1965 0.985 . S
C1960 C1954 1.379 . S
C1960 C1957 1.363 . S
C1960 N1958 1.356 1_556 S
C1961 C1955 1.363 . S
C1961 C1956 1.379 . S
C1961 N1959 1.356 . S
N1962 C1954 1.356 . S
N1962 H1968 0.989 . S
N1962 H1969 0.984 . S
N1963 C1956 1.356 . S
N1963 H1966 0.984 . S
N1963 H1967 0.985 . S
H1964 N1959 0.984 . S
H1965 N1959 0.985 . S
H1966 N1963 0.984 . S
H1967 N1963 0.985 . S
H1968 N1962 0.989 . S
H1969 N1962 0.984 . S
H1970 N1958 0.984 . S
H1971 N1958 0.985 . S
C1972 C1973 1.363 . S
C1972 C1978 1.379 . S
C1972 N1980 1.356 . S
C1973 C1972 1.363 . S
C1973 C1979 1.363 . S
C1974 C1975 1.363 . S
C1974 C1979 1.379 . S
C1974 N1981 1.356 . S
C1975 C1974 1.363 . S
C1975 C1978 1.363 . S
N1976 C1978 1.356 . S
N1976 H1988 0.984 . S
N1976 H1989 0.985 . S
N1977 C1979 1.356 . S
N1977 H1982 0.984 . S
N1977 H1983 0.985 . S
C1978 C1972 1.379 . S
C1978 C1975 1.363 . S
C1978 N1976 1.356 . S
C1979 C1973 1.363 . S
C1979 C1974 1.379 . S
C1979 N1977 1.356 . S
N1980 C1972 1.356 . S
N1980 H1986 0.984 . S
N1980 H1987 0.984 . S
N1981 C1974 1.356 . S
N1981 H1984 0.984 . S
N1981 H1985 0.985 . S
H1982 N1977 0.984 . S
H1983 N1977 0.985 . S
H1984 N1981 0.984 . S
H1985 N1981 0.985 . S
H1986 N1980 0.984 . S
H1987 N1980 0.984 . S
H1988 N1976 0.984 . S
H1989 N1976 0.985 . S
C1990 C1991 1.363 . S
C1990 C1996 1.379 . S
C1990 N1998 1.356 . S
C1991 C1990 1.363 . S
C1991 C1997 1.363 . S
C1992 C1993 1.363 . S
C1992 C1997 1.379 . S
C1992 N1999 1.356 . S
C1993 C1992 1.363 . S
C1993 C1996 1.363 . S
N1994 C1996 1.356 . S
N1994 H2006 0.984 . S
N1994 H2007 0.985 . S
N1995 C1997 1.356 . S
N1995 H2000 0.984 . S
N1995 H2001 0.985 . S
C1996 C1990 1.379 . S
C1996 C1993 1.363 . S
C1996 N1994 1.356 . S
C1997 C1991 1.363 . S
C1997 C1992 1.379 . S
C1997 N1995 1.356 . S
N1998 C1990 1.356 . S
N1998 H2004 0.984 . S
N1998 H2005 0.984 . S
N1999 C1992 1.356 . S
N1999 H2002 0.984 . S
N1999 H2003 0.985 . S
H2000 N1995 0.984 . S
H2001 N1995 0.985 . S
H2002 N1999 0.984 . S
H2003 N1999 0.985 . S
H2004 N1998 0.984 . S
H2005 N1998 0.984 . S
H2006 N1994 0.984 . S
H2007 N1994 0.985 . S
C2008 C2009 1.363 . S
C2008 C2014 1.379 . S
C2008 N2016 1.356 1_554 S
C2009 C2008 1.363 . S
C2009 C2015 1.363 . S
C2010 C2011 1.363 . S
C2010 C2015 1.379 . S
C2010 N2017 1.356 . S
C2011 C2010 1.363 . S
C2011 C2014 1.363 . S
N2012 C2014 1.356 . S
N2012 H2024 0.984 1_554 S
N2012 H2025 0.985 . S
N2013 C2015 1.356 . S
N2013 H2018 0.984 . S
N2013 H2019 0.985 . S
C2014 C2008 1.379 . S
C2014 C2011 1.363 . S
C2014 N2012 1.356 . S
C2015 C2009 1.363 . S
C2015 C2010 1.379 . S
C2015 N2013 1.356 . S
N2016 C2008 1.356 1_556 S
N2016 H2022 0.984 . S
N2016 H2023 0.984 . S
N2017 C2010 1.356 . S
N2017 H2020 0.984 . S
N2017 H2021 0.985 . S
H2018 N2013 0.984 . S
H2019 N2013 0.985 . S
H2020 N2017 0.984 . S
H2021 N2017 0.985 . S
H2022 N2016 0.984 . S
H2023 N2016 0.984 . S
H2024 N2012 0.984 1_556 S
H2025 N2012 0.985 . S
C2026 C2027 1.363 . S
C2026 C2032 1.379 . S
C2026 N2034 1.356 . S
C2027 C2026 1.363 . S
C2027 C2033 1.363 . S
C2028 C2029 1.363 . S
C2028 C2033 1.379 . S
C2028 N2035 1.356 1_554 S
C2029 C2028 1.363 . S
C2029 C2032 1.363 . S
N2030 C2032 1.356 . S
N2030 H2042 0.984 . S
N2030 H2043 0.985 . S
N2031 C2033 1.356 . S
N2031 H2036 0.984 . S
N2031 H2037 0.985 1_554 S
C2032 C2026 1.379 . S
C2032 C2029 1.363 . S
C2032 N2030 1.356 . S
C2033 C2027 1.363 . S
C2033 C2028 1.379 . S
C2033 N2031 1.356 . S
N2034 C2026 1.356 . S
N2034 H2040 0.984 . S
N2034 H2041 0.984 . S
N2035 C2028 1.356 1_556 S
N2035 H2038 0.984 . S
N2035 H2039 0.985 . S
H2036 N2031 0.984 . S
H2037 N2031 0.985 1_556 S
H2038 N2035 0.984 . S
H2039 N2035 0.985 . S
H2040 N2034 0.984 . S
H2041 N2034 0.984 . S
H2042 N2030 0.984 . S
H2043 N2030 0.985 . S
C2044 C2045 1.363 . S
C2044 C2050 1.379 . S
C2044 N2052 1.356 . S
C2045 C2044 1.363 . S
C2045 C2051 1.363 . S
C2046 C2047 1.363 . S
C2046 C2051 1.379 . S
C2046 N2053 1.356 . S
C2047 C2046 1.363 . S
C2047 C2050 1.363 . S
N2048 C2050 1.356 . S
N2048 H2060 0.984 . S
N2048 H2061 0.985 . S
N2049 C2051 1.356 . S
N2049 H2054 0.984 . S
N2049 H2055 0.985 . S
C2050 C2044 1.379 . S
C2050 C2047 1.363 . S
C2050 N2048 1.356 . S
C2051 C2045 1.363 . S
C2051 C2046 1.379 . S
C2051 N2049 1.356 . S
N2052 C2044 1.356 . S
N2052 H2058 0.984 . S
N2052 H2059 0.984 . S
N2053 C2046 1.356 . S
N2053 H2056 0.984 . S
N2053 H2057 0.985 . S
H2054 N2049 0.984 . S
H2055 N2049 0.985 . S
H2056 N2053 0.984 . S
H2057 N2053 0.985 . S
H2058 N2052 0.984 . S
H2059 N2052 0.984 . S
H2060 N2048 0.984 . S
H2061 N2048 0.985 . S
C2062 C2063 1.363 . S
C2062 C2068 1.379 . S
C2062 N2070 1.356 . S
C2063 C2062 1.363 . S
C2063 C2069 1.363 . S
C2064 C2065 1.363 . S
C2064 C2069 1.379 . S
C2064 N2071 1.356 . S
C2065 C2064 1.363 . S
C2065 C2068 1.363 . S
N2066 C2068 1.356 . S
N2066 H2078 0.984 . S
N2066 H2079 0.985 . S
N2067 C2069 1.356 . S
N2067 H2072 0.984 . S
N2067 H2073 0.985 . S
C2068 C2062 1.379 . S
C2068 C2065 1.363 . S
C2068 N2066 1.356 . S
C2069 C2063 1.363 . S
C2069 C2064 1.379 . S
C2069 N2067 1.356 . S
N2070 C2062 1.356 . S
N2070 H2076 0.984 . S
N2070 H2077 0.984 . S
N2071 C2064 1.356 . S
N2071 H2074 0.984 . S
N2071 H2075 0.985 . S
H2072 N2067 0.984 . S
H2073 N2067 0.985 . S
H2074 N2071 0.984 . S
H2075 N2071 0.985 . S
H2076 N2070 0.984 . S
H2077 N2070 0.984 . S
H2078 N2066 0.984 . S
H2079 N2066 0.985 . S
C2080 C2081 1.363 . S
C2080 C2086 1.379 . S
C2080 N2088 1.356 . S
C2081 C2080 1.363 . S
C2081 C2087 1.363 . S
C2082 C2083 1.363 . S
C2082 C2087 1.379 . S
C2082 N2089 1.356 1_554 S
C2083 C2082 1.363 . S
C2083 C2086 1.363 . S
N2084 C2086 1.356 . S
N2084 H2096 0.984 . S
N2084 H2097 0.985 . S
N2085 C2087 1.356 1_556 S
N2085 H2090 0.984 1_556 S
N2085 H2091 0.985 . S
C2086 C2080 1.379 . S
C2086 C2083 1.363 . S
C2086 N2084 1.356 . S
C2087 C2081 1.363 . S
C2087 C2082 1.379 . S
C2087 N2085 1.356 1_554 S
N2088 C2080 1.356 . S
N2088 H2094 0.984 . S
N2088 H2095 0.984 . S
N2089 C2082 1.356 1_556 S
N2089 H2092 0.984 . S
N2089 H2093 0.985 . S
H2090 N2085 0.984 1_554 S
H2091 N2085 0.985 . S
H2092 N2089 0.984 . S
H2093 N2089 0.985 . S
H2094 N2088 0.984 . S
H2095 N2088 0.984 . S
H2096 N2084 0.984 . S
H2097 N2084 0.985 . S
C2098 C2099 1.363 . S
C2098 C2104 1.379 . S
C2098 N2106 1.356 1_554 S
C2099 C2098 1.363 . S
C2099 C2105 1.363 . S
C2100 C2101 1.363 . S
C2100 C2105 1.379 . S
C2100 N2107 1.356 . S
C2101 C2100 1.363 . S
C2101 C2104 1.363 . S
N2102 C2104 1.356 1_556 S
N2102 H2114 0.984 . S
N2102 H2115 0.985 1_556 S
N2103 C2105 1.356 . S
N2103 H2108 0.984 . S
N2103 H2109 0.985 . S
C2104 C2098 1.379 . S
C2104 C2101 1.363 . S
C2104 N2102 1.356 1_554 S
C2105 C2099 1.363 . S
C2105 C2100 1.379 . S
C2105 N2103 1.356 . S
N2106 C2098 1.356 1_556 S
N2106 H2112 0.984 . S
N2106 H2113 0.984 . S
N2107 C2100 1.356 . S
N2107 H2110 0.984 . S
N2107 H2111 0.985 . S
H2108 N2103 0.984 . S
H2109 N2103 0.985 . S
H2110 N2107 0.984 . S
H2111 N2107 0.985 . S
H2112 N2106 0.984 . S
H2113 N2106 0.984 . S
H2114 N2102 0.984 . S
H2115 N2102 0.985 1_554 S
C2116 C2117 1.363 . S
C2116 C2122 1.379 . S
C2116 N2124 1.356 . S
C2117 C2116 1.363 . S
C2117 C2123 1.363 . S
C2118 C2119 1.363 . S
C2118 C2123 1.379 . S
C2118 N2125 1.356 . S
C2119 C2118 1.363 . S
C2119 C2122 1.363 . S
N2120 C2122 1.356 . S
N2120 H2132 0.984 . S
N2120 H2133 0.985 . S
N2121 C2123 1.356 1_554 S
N2121 H2126 0.984 1_554 S
N2121 H2127 0.985 . S
C2122 C2116 1.379 . S
C2122 C2119 1.363 . S
C2122 N2120 1.356 . S
C2123 C2117 1.363 . S
C2123 C2118 1.379 . S
C2123 N2121 1.356 1_556 S
N2124 C2116 1.356 . S
N2124 H2130 0.984 . S
N2124 H2131 0.984 . S
N2125 C2118 1.356 . S
N2125 H2128 0.984 . S
N2125 H2129 0.985 1_556 S
H2126 N2121 0.984 1_556 S
H2127 N2121 0.985 . S
H2128 N2125 0.984 . S
H2129 N2125 0.985 1_554 S
H2130 N2124 0.984 . S
H2131 N2124 0.984 . S
H2132 N2120 0.984 . S
H2133 N2120 0.985 . S
C2134 C2135 1.363 . S
C2134 C2140 1.379 . S
C2134 N2142 1.356 . S
C2135 C2134 1.363 . S
C2135 C2141 1.363 . S
C2136 C2137 1.363 . S
C2136 C2141 1.379 . S
C2136 N2143 1.356 . S
C2137 C2136 1.363 . S
C2137 C2140 1.363 . S
N2138 C2140 1.356 . S
N2138 H2150 0.984 . S
N2138 H2151 0.985 . S
N2139 C2141 1.356 . S
N2139 H2144 0.984 . S
N2139 H2145 0.985 . S
C2140 C2134 1.379 . S
C2140 C2137 1.363 . S
C2140 N2138 1.356 . S
C2141 C2135 1.363 . S
C2141 C2136 1.379 . S
C2141 N2139 1.356 . S
N2142 C2134 1.356 . S
N2142 H2148 0.984 . S
N2142 H2149 0.984 . S
N2143 C2136 1.356 . S
N2143 H2146 0.984 . S
N2143 H2147 0.985 . S
H2144 N2139 0.984 . S
H2145 N2139 0.985 . S
H2146 N2143 0.984 . S
H2147 N2143 0.985 . S
H2148 N2142 0.984 . S
H2149 N2142 0.984 . S
H2150 N2138 0.984 . S
H2151 N2138 0.985 . S
C2152 C2153 1.363 . S
C2152 C2158 1.379 . S
C2152 N2160 1.356 . S
C2153 C2152 1.363 . S
C2153 C2159 1.363 . S
C2154 C2155 1.363 . S
C2154 C2159 1.379 . S
C2154 N2161 1.356 . S
C2155 C2154 1.363 . S
C2155 C2158 1.363 . S
N2156 C2158 1.356 . S
N2156 H2168 0.984 . S
N2156 H2169 0.985 . S
N2157 C2159 1.356 . S
N2157 H2162 0.984 . S
N2157 H2163 0.985 . S
C2158 C2152 1.379 . S
C2158 C2155 1.363 . S
C2158 N2156 1.356 . S
C2159 C2153 1.363 . S
C2159 C2154 1.379 . S
C2159 N2157 1.356 . S
N2160 C2152 1.356 . S
N2160 H2166 0.984 . S
N2160 H2167 0.984 . S
N2161 C2154 1.356 . S
N2161 H2164 0.984 . S
N2161 H2165 0.985 . S
H2162 N2157 0.984 . S
H2163 N2157 0.985 . S
H2164 N2161 0.984 . S
H2165 N2161 0.985 . S
H2166 N2160 0.984 . S
H2167 N2160 0.984 . S
H2168 N2156 0.984 . S
H2169 N2156 0.985 . S
C2170 C2171 1.363 . S
C2170 C2176 1.379 . S
C2170 N2178 1.356 . S
C2171 C2170 1.363 . S
C2171 C2177 1.363 . S
C2172 C2173 1.363 . S
C2172 C2177 1.379 . S
C2172 N2179 1.356 . S
C2173 C2172 1.363 . S
C2173 C2176 1.363 . S
N2174 C2176 1.356 . S
N2174 H2186 0.984 . S
N2174 H2187 0.985 . S
N2175 C2177 1.356 . S
N2175 H2180 0.984 . S
N2175 H2181 0.985 . S
C2176 C2170 1.379 . S
C2176 C2173 1.363 . S
C2176 N2174 1.356 . S
C2177 C2171 1.363 . S
C2177 C2172 1.379 . S
C2177 N2175 1.356 . S
N2178 C2170 1.356 . S
N2178 H2184 0.984 . S
N2178 H2185 0.984 . S
N2179 C2172 1.356 . S
N2179 H2182 0.984 . S
N2179 H2183 0.985 . S
H2180 N2175 0.984 . S
H2181 N2175 0.985 . S
H2182 N2179 0.984 . S
H2183 N2179 0.985 . S
H2184 N2178 0.984 . S
H2185 N2178 0.984 . S
H2186 N2174 0.984 . S
H2187 N2174 0.985 . S
C2188 C2189 1.363 . S
C2188 C2194 1.379 . S
C2188 N2196 1.356 . S
C2189 C2188 1.363 . S
C2189 C2195 1.363 . S
C2190 C2191 1.363 . S
C2190 C2195 1.379 . S
C2190 N2197 1.356 . S
C2191 C2190 1.363 . S
C2191 C2194 1.363 . S
N2192 C2194 1.356 . S
N2192 H2204 0.984 . S
N2192 H2205 0.985 . S
N2193 C2195 1.356 . S
N2193 H2198 0.984 . S
N2193 H2199 0.985 . S
C2194 C2188 1.379 . S
C2194 C2191 1.363 . S
C2194 N2192 1.356 . S
C2195 C2189 1.363 . S
C2195 C2190 1.379 . S
C2195 N2193 1.356 . S
N2196 C2188 1.356 . S
N2196 H2202 0.984 . S
N2196 H2203 0.984 . S
N2197 C2190 1.356 . S
N2197 H2200 0.984 . S
N2197 H2201 0.985 . S
H2198 N2193 0.984 . S
H2199 N2193 0.985 . S
H2200 N2197 0.984 . S
H2201 N2197 0.985 . S
H2202 N2196 0.984 . S
H2203 N2196 0.984 . S
H2204 N2192 0.984 . S
H2205 N2192 0.985 . S
C2206 C2207 1.363 . S
C2206 C2212 1.379 . S
C2206 N2214 1.356 . S
C2207 C2206 1.363 . S
C2207 C2213 1.363 . S
C2208 C2209 1.363 . S
C2208 C2213 1.379 . S
C2208 N2215 1.356 . S
C2209 C2208 1.363 . S
C2209 C2212 1.363 . S
N2210 C2212 1.356 . S
N2210 H2222 0.984 . S
N2210 H2223 0.985 . S
N2211 C2213 1.356 . S
N2211 H2216 0.984 . S
N2211 H2217 0.985 . S
C2212 C2206 1.379 . S
C2212 C2209 1.363 . S
C2212 N2210 1.356 . S
C2213 C2207 1.363 . S
C2213 C2208 1.379 . S
C2213 N2211 1.356 . S
N2214 C2206 1.356 . S
N2214 H2220 0.984 . S
N2214 H2221 0.984 . S
N2215 C2208 1.356 . S
N2215 H2218 0.984 . S
N2215 H2219 0.985 . S
H2216 N2211 0.984 . S
H2217 N2211 0.985 . S
H2218 N2215 0.984 . S
H2219 N2215 0.985 . S
H2220 N2214 0.984 . S
H2221 N2214 0.984 . S
H2222 N2210 0.984 . S
H2223 N2210 0.985 . S
C2224 C2225 1.363 . S
C2224 C2230 1.379 . S
C2224 N2232 1.356 . S
C2225 C2224 1.363 . S
C2225 C2231 1.363 . S
C2226 C2227 1.363 . S
C2226 C2231 1.379 . S
C2226 N2233 1.356 . S
C2227 C2226 1.363 . S
C2227 C2230 1.363 . S
N2228 C2230 1.356 . S
N2228 H2240 0.984 . S
N2228 H2241 0.985 . S
N2229 C2231 1.356 . S
N2229 H2234 0.984 . S
N2229 H2235 0.985 . S
C2230 C2224 1.379 . S
C2230 C2227 1.363 . S
C2230 N2228 1.356 . S
C2231 C2225 1.363 . S
C2231 C2226 1.379 . S
C2231 N2229 1.356 . S
N2232 C2224 1.356 . S
N2232 H2238 0.984 . S
N2232 H2239 0.984 . S
N2233 C2226 1.356 . S
N2233 H2236 0.984 . S
N2233 H2237 0.985 . S
H2234 N2229 0.984 . S
H2235 N2229 0.985 . S
H2236 N2233 0.984 . S
H2237 N2233 0.985 . S
H2238 N2232 0.984 . S
H2239 N2232 0.984 . S
H2240 N2228 0.984 . S
H2241 N2228 0.985 . S
C2242 C2243 1.363 . S
C2242 C2248 1.379 . S
C2242 N2250 1.356 . S
C2243 C2242 1.363 . S
C2243 C2249 1.363 . S
C2244 C2245 1.363 . S
C2244 C2249 1.379 . S
C2244 N2251 1.356 . S
C2245 C2244 1.363 . S
C2245 C2248 1.363 . S
N2246 C2248 1.356 . S
N2246 H2258 0.984 . S
N2246 H2259 0.985 . S
N2247 C2249 1.356 . S
N2247 H2252 0.984 . S
N2247 H2253 0.985 . S
C2248 C2242 1.379 . S
C2248 C2245 1.363 . S
C2248 N2246 1.356 . S
C2249 C2243 1.363 . S
C2249 C2244 1.379 . S
C2249 N2247 1.356 . S
N2250 C2242 1.356 . S
N2250 H2256 0.984 . S
N2250 H2257 0.984 . S
N2251 C2244 1.356 . S
N2251 H2254 0.984 . S
N2251 H2255 0.985 . S
H2252 N2247 0.984 . S
H2253 N2247 0.985 . S
H2254 N2251 0.984 . S
H2255 N2251 0.985 . S
H2256 N2250 0.984 . S
H2257 N2250 0.984 . S
H2258 N2246 0.984 . S
H2259 N2246 0.985 . S
C2260 C2261 1.363 . S
C2260 C2266 1.379 . S
C2260 N2268 1.356 . S
C2261 C2260 1.363 . S
C2261 C2267 1.363 . S
C2262 C2263 1.363 . S
C2262 C2267 1.379 . S
C2262 N2269 1.356 . S
C2263 C2262 1.363 . S
C2263 C2266 1.363 . S
N2264 C2266 1.356 . S
N2264 H2276 0.984 . S
N2264 H2277 0.985 . S
N2265 C2267 1.356 . S
N2265 H2270 0.984 . S
N2265 H2271 0.985 . S
C2266 C2260 1.379 . S
C2266 C2263 1.363 . S
C2266 N2264 1.356 . S
C2267 C2261 1.363 . S
C2267 C2262 1.379 . S
C2267 N2265 1.356 . S
N2268 C2260 1.356 . S
N2268 H2274 0.984 . S
N2268 H2275 0.984 . S
N2269 C2262 1.356 . S
N2269 H2272 0.984 . S
N2269 H2273 0.985 . S
H2270 N2265 0.984 . S
H2271 N2265 0.985 . S
H2272 N2269 0.984 . S
H2273 N2269 0.985 . S
H2274 N2268 0.984 . S
H2275 N2268 0.984 . S
H2276 N2264 0.984 . S
H2277 N2264 0.985 . S
C2278 C2279 1.363 . S
C2278 C2284 1.379 . S
C2278 N2286 1.356 . S
C2279 C2278 1.363 . S
C2279 C2285 1.363 . S
C2280 C2281 1.363 . S
C2280 C2285 1.379 . S
C2280 N2287 1.356 . S
C2281 C2280 1.363 . S
C2281 C2284 1.363 . S
N2282 C2284 1.356 . S
N2282 H2294 0.984 . S
N2282 H2295 0.985 . S
N2283 C2285 1.356 . S
N2283 H2288 0.984 . S
N2283 H2289 0.985 . S
C2284 C2278 1.379 . S
C2284 C2281 1.363 . S
C2284 N2282 1.356 . S
C2285 C2279 1.363 . S
C2285 C2280 1.379 . S
C2285 N2283 1.356 . S
N2286 C2278 1.356 . S
N2286 H2292 0.984 . S
N2286 H2293 0.984 . S
N2287 C2280 1.356 . S
N2287 H2290 0.984 . S
N2287 H2291 0.985 . S
H2288 N2283 0.984 . S
H2289 N2283 0.985 . S
H2290 N2287 0.984 . S
H2291 N2287 0.985 . S
H2292 N2286 0.984 . S
H2293 N2286 0.984 . S
H2294 N2282 0.984 . S
H2295 N2282 0.985 . S
C2296 C2297 1.363 . S
C2296 C2302 1.379 . S
C2296 N2304 1.356 . S
C2297 C2296 1.363 . S
C2297 C2303 1.363 . S
C2298 C2299 1.363 . S
C2298 C2303 1.379 . S
C2298 N2305 1.356 1_554 S
C2299 C2298 1.363 . S
C2299 C2302 1.363 . S
N2300 C2302 1.356 . S
N2300 H2312 0.984 . S
N2300 H2313 0.985 . S
N2301 C2303 1.356 1_556 S
N2301 H2306 0.984 1_556 S
N2301 H2307 0.985 . S
C2302 C2296 1.379 . S
C2302 C2299 1.363 . S
C2302 N2300 1.356 . S
C2303 C2297 1.363 . S
C2303 C2298 1.379 . S
C2303 N2301 1.356 1_554 S
N2304 C2296 1.356 . S
N2304 H2310 0.984 . S
N2304 H2311 0.984 . S
N2305 C2298 1.356 1_556 S
N2305 H2308 0.984 . S
N2305 H2309 0.985 . S
H2306 N2301 0.984 1_554 S
H2307 N2301 0.985 . S
H2308 N2305 0.984 . S
H2309 N2305 0.985 . S
H2310 N2304 0.984 . S
H2311 N2304 0.984 . S
H2312 N2300 0.984 . S
H2313 N2300 0.985 . S
C2314 C2315 1.363 . S
C2314 C2320 1.379 . S
C2314 N2322 1.356 . S
C2315 C2314 1.363 . S
C2315 C2321 1.363 . S
C2316 C2317 1.363 . S
C2316 C2321 1.379 . S
C2316 N2323 1.356 1_554 S
C2317 C2316 1.363 . S
C2317 C2320 1.363 . S
N2318 C2320 1.356 . S
N2318 H2330 0.984 . S
N2318 H2331 0.985 . S
N2319 C2321 1.356 . S
N2319 H2324 0.984 . S
N2319 H2325 0.985 1_554 S
C2320 C2314 1.379 . S
C2320 C2317 1.363 . S
C2320 N2318 1.356 . S
C2321 C2315 1.363 . S
C2321 C2316 1.379 . S
C2321 N2319 1.356 . S
N2322 C2314 1.356 . S
N2322 H2328 0.984 . S
N2322 H2329 0.984 . S
N2323 C2316 1.356 1_556 S
N2323 H2326 0.984 1_556 S
N2323 H2327 0.985 . S
H2324 N2319 0.984 . S
H2325 N2319 0.985 1_556 S
H2326 N2323 0.984 1_554 S
H2327 N2323 0.985 . S
H2328 N2322 0.984 . S
H2329 N2322 0.984 . S
H2330 N2318 0.984 . S
H2331 N2318 0.985 . S
C2332 C2333 1.363 . S
C2332 C2338 1.379 . S
C2332 N2340 1.356 1_556 S
C2333 C2332 1.363 . S
C2333 C2339 1.363 . S
C2334 C2335 1.363 . S
C2334 C2339 1.379 . S
C2334 N2341 1.356 . S
C2335 C2334 1.363 . S
C2335 C2338 1.363 . S
N2336 C2338 1.356 1_554 S
N2336 H2348 0.984 . S
N2336 H2349 0.985 . S
N2337 C2339 1.356 . S
N2337 H2342 0.984 . S
N2337 H2343 0.985 . S
C2338 C2332 1.379 . S
C2338 C2335 1.363 . S
C2338 N2336 1.356 1_556 S
C2339 C2333 1.363 . S
C2339 C2334 1.379 . S
C2339 N2337 1.356 . S
N2340 C2332 1.356 1_554 S
N2340 H2346 0.984 . S
N2340 H2347 0.984 1_554 S
N2341 C2334 1.356 . S
N2341 H2344 0.984 . S
N2341 H2345 0.985 . S
H2342 N2337 0.984 . S
H2343 N2337 0.985 . S
H2344 N2341 0.984 . S
H2345 N2341 0.985 . S
H2346 N2340 0.984 . S
H2347 N2340 0.984 1_556 S
H2348 N2336 0.984 . S
H2349 N2336 0.985 . S
C2350 C2351 1.363 . S
C2350 C2356 1.379 . S
C2350 N2358 1.356 . S
C2351 C2350 1.363 . S
C2351 C2357 1.363 . S
C2352 C2353 1.363 . S
C2352 C2357 1.379 . S
C2352 N2359 1.356 1_556 S
C2353 C2352 1.363 . S
C2353 C2356 1.363 . S
N2354 C2356 1.356 . S
N2354 H2366 0.984 . S
N2354 H2367 0.985 . S
N2355 C2357 1.356 1_554 S
N2355 H2360 0.984 . S
N2355 H2361 0.985 . S
C2356 C2350 1.379 . S
C2356 C2353 1.363 . S
C2356 N2354 1.356 . S
C2357 C2351 1.363 . S
C2357 C2352 1.379 . S
C2357 N2355 1.356 1_556 S
N2358 C2350 1.356 . S
N2358 H2364 0.984 . S
N2358 H2365 0.984 . S
N2359 C2352 1.356 1_554 S
N2359 H2362 0.984 1_554 S
N2359 H2363 0.985 . S
H2360 N2355 0.984 . S
H2361 N2355 0.985 . S
H2362 N2359 0.984 1_556 S
H2363 N2359 0.985 . S
H2364 N2358 0.984 . S
H2365 N2358 0.984 . S
H2366 N2354 0.984 . S
H2367 N2354 0.985 . S
C641 C566 1.496 . S
C643 C16 1.496 . S
C659 C106 1.496 . S
C661 C36 1.496 . S
C677 C446 1.496 . S
C679 C56 1.496 . S
C695 C306 1.496 . S
C697 C76 1.496 . S
C713 C86 1.496 . S
C715 C496 1.496 . S
C731 C376 1.496 . S
C733 C126 1.496 . S
C749 C236 1.496 . S
C751 C146 1.496 . S
C767 C406 1.496 . S
C769 C176 1.496 . S
C785 C196 1.496 . S
C787 C266 1.496 . S
C803 C216 1.496 . S
C805 C606 1.496 . S
C821 C336 1.496 . S
C823 C246 1.496 . S
C839 C286 1.496 . S
C841 C536 1.496 . S
C857 C356 1.496 . S
C859 C426 1.496 . S
C875 C396 1.496 . S
C877 C626 1.496 . S
C893 C556 1.496 . S
C895 C466 1.496 . S
C911 C586 1.496 . S
C913 C516 1.496 . S
C929 C386 1.613 . S
C931 C6 1.613 . S
C947 C366 1.613 . S
C949 C26 1.613 . S
C965 C346 1.613 . S
C967 C46 1.613 . S
C983 C326 1.613 . S
C985 C66 1.613 . S
C1001 C476 1.613 . S
C1003 C96 1.613 . S
C1019 C116 1.613 . S
C1021 C456 1.613 . S
C1037 C136 1.613 . S
C1039 C436 1.613 . S
C1055 C156 1.613 . S
C1057 C416 1.613 . S
C1073 C166 1.613 . S
C1075 C546 1.613 . S
C1091 C186 1.613 . S
C1093 C526 1.613 . S
C1109 C206 1.613 . S
C1111 C506 1.613 . S
C1127 C486 1.613 . S
C1129 C226 1.613 . S
C1145 C256 1.613 . S
C1147 C636 1.613 . S
C1163 C276 1.613 . S
C1165 C616 1.613 . S
C1181 C296 1.613 . S
C1183 C596 1.613 . S
C1199 C576 1.613 . S
C1201 C316 1.613 . S
C1217 C19 1.796 . S
C1219 C8 1.796 . S
C1235 C39 1.796 1_565 S
C1237 C28 1.796 . S
C1253 C48 1.796 . S
C1255 C59 1.796 1_565 S
C1271 C68 1.796 . S
C1273 C79 1.796 . S
C1289 C99 1.796 . S
C1291 C88 1.796 . S
C1307 C119 1.796 . S
C1309 C108 1.796 1_545 S
C1325 C139 1.796 . S
C1327 C128 1.796 1_545 S
C1343 C148 1.796 . S
C1345 C159 1.796 . S
C1361 C179 1.796 1_554 S
C1363 C168 1.796 . S
C1379 C188 1.796 . S
C1381 C199 1.796 1_554 S
C1397 C208 1.796 . S
C1399 C219 1.796 . S
C1415 C228 1.796 . S
C1417 C239 1.796 . S
C1433 C259 1.796 . S
C1435 C248 1.796 1_556 S
C1451 C268 1.796 1_556 S
C1453 C279 1.796 . S
C1469 C299 1.796 . S
C1471 C288 1.796 . S
C1487 C308 1.796 . S
C1489 C319 1.796 . S
C1505 C339 1.796 1_554 S
C1507 C328 1.796 . S
C1523 C348 1.796 . S
C1525 C359 1.796 1_564 S
C1541 C368 1.796 . S
C1543 C379 1.796 1_565 S
C1559 C388 1.796 . S
C1561 C399 1.796 . S
C1577 C408 1.796 1_556 S
C1579 C419 1.796 . S
C1595 C439 1.796 . S
C1597 C428 1.796 1_546 S
C1613 C448 1.796 1_545 S
C1615 C459 1.796 . S
C1631 C468 1.796 . S
C1633 C479 1.796 . S
C1649 C499 1.796 . S
C1651 C488 1.796 . S
C1667 C508 1.796 . S
C1669 C519 1.796 . S
C1685 C528 1.796 . S
C1687 C539 1.796 . S
C1703 C559 1.796 . S
C1705 C548 1.796 . S
C1721 C579 1.796 . S
C1723 C568 1.796 . S
C1739 C588 1.796 . S
C1741 C599 1.796 . S
C1757 C608 1.796 . S
C1759 C619 1.796 . S
C1775 C628 1.796 . S
C1777 C639 1.796 . S
C1793 C201 1.527 . S
C1795 C1 1.526 . S
C1811 C221 1.526 . S
C1813 C21 1.526 . S
C1829 C41 1.526 . S
C1831 C161 1.526 . S
C1847 C181 1.526 . S
C1849 C61 1.526 . S
C1865 C89 1.526 . S
C1867 C289 1.527 . S
C1883 C109 1.526 . S
C1885 C309 1.526 . S
C1901 C129 1.526 . S
C1903 C249 1.526 . S
C1919 C149 1.526 . S
C1921 C269 1.526 . S
C1937 C521 1.526 . S
C1939 C321 1.526 . S
C1955 C341 1.526 . S
C1957 C541 1.526 . S
C1973 C481 1.527 . S
C1975 C361 1.527 . S
C1991 C381 1.527 . S
C1993 C501 1.527 . S
C2009 C609 1.526 . S
C2011 C409 1.526 . S
C2027 C429 1.526 . S
C2029 C629 1.526 . S
C2045 C449 1.527 . S
C2047 C569 1.527 . S
C2063 C589 1.527 . S
C2065 C469 1.527 . S
C2081 C9 1.488 . S
C2083 C49 1.488 . S
C2099 C69 1.488 . S
C2101 C29 1.488 . S
C2117 C121 1.488 . S
C2119 C81 1.488 . S
C2135 C101 1.488 . S
C2137 C141 1.488 . S
C2153 C169 1.488 . S
C2155 C209 1.488 . S
C2171 C229 1.488 . S
C2173 C189 1.488 . S
C2189 C281 1.488 . S
C2191 C241 1.488 . S
C2207 C301 1.488 . S
C2209 C261 1.488 . S
C2225 C369 1.488 . S
C2227 C329 1.488 . S
C2243 C389 1.488 . S
C2245 C349 1.488 . S
C2261 C441 1.488 . S
C2263 C401 1.488 . S
C2279 C461 1.488 . S
C2281 C421 1.488 . S
C2297 C489 1.488 . S
C2299 C529 1.488 . S
C2315 C509 1.488 . S
C2317 C549 1.488 . S
C2333 C561 1.488 . S
C2335 C601 1.488 . S
C2351 C621 1.488 . S
C2353 C581 1.488 . S
