# Generated by pormake.
# Topology dei, (4)-cn, num edge types: 1
# Building blocks:
#     Node 0, Type 0, BuildingBlock: NAHDIM_clean_sbu_0, # of connection points: 4
#     Node 1, Type 0, BuildingBlock: NAHDIM_clean_sbu_0, # of connection points: 4
#     Node 2, Type 0, BuildingBlock: NAHDIM_clean_sbu_0, # of connection points: 4
#     Node 3, Type 0, BuildingBlock: NAHDIM_clean_sbu_0, # of connection points: 4
#     Node 4, Type 0, BuildingBlock: NAHDIM_clean_sbu_0, # of connection points: 4
#     Node 5, Type 0, BuildingBlock: NAHDIM_clean_sbu_0, # of connection points: 4
#     Node 6, Type 0, BuildingBlock: NAHDIM_clean_sbu_0, # of connection points: 4
#     Node 7, Type 0, BuildingBlock: NAHDIM_clean_sbu_0, # of connection points: 4
#     Node 8, Type 0, BuildingBlock: NAHDIM_clean_sbu_0, # of connection points: 4
#     Node 9, Type 0, BuildingBlock: NAHDIM_clean_sbu_0, # of connection points: 4
#     Node 10, Type 0, BuildingBlock: NAHDIM_clean_sbu_0, # of connection points: 4
#     Node 11, Type 0, BuildingBlock: NAHDIM_clean_sbu_0, # of connection points: 4
#     Node 12, Type 0, BuildingBlock: NAHDIM_clean_sbu_0, # of connection points: 4
#     Node 13, Type 0, BuildingBlock: NAHDIM_clean_sbu_0, # of connection points: 4
#     Node 14, Type 0, BuildingBlock: NAHDIM_clean_sbu_0, # of connection points: 4
#     Node 15, Type 0, BuildingBlock: NAHDIM_clean_sbu_0, # of connection points: 4
#     Node 16, Type 0, BuildingBlock: NAHDIM_clean_sbu_0, # of connection points: 4
#     Node 17, Type 0, BuildingBlock: NAHDIM_clean_sbu_0, # of connection points: 4
#     Node 18, Type 0, BuildingBlock: NAHDIM_clean_sbu_0, # of connection points: 4
#     Node 19, Type 0, BuildingBlock: NAHDIM_clean_sbu_0, # of connection points: 4
#     Node 20, Type 0, BuildingBlock: NAHDIM_clean_sbu_0, # of connection points: 4
#     Node 21, Type 0, BuildingBlock: NAHDIM_clean_sbu_0, # of connection points: 4
#     Node 22, Type 0, BuildingBlock: NAHDIM_clean_sbu_0, # of connection points: 4
#     Node 23, Type 0, BuildingBlock: NAHDIM_clean_sbu_0, # of connection points: 4
#     Node 24, Type 0, BuildingBlock: NAHDIM_clean_sbu_0, # of connection points: 4
#     Node 25, Type 0, BuildingBlock: NAHDIM_clean_sbu_0, # of connection points: 4
#     Node 26, Type 0, BuildingBlock: NAHDIM_clean_sbu_0, # of connection points: 4
#     Node 27, Type 0, BuildingBlock: NAHDIM_clean_sbu_0, # of connection points: 4
#     Node 28, Type 0, BuildingBlock: NAHDIM_clean_sbu_0, # of connection points: 4
#     Node 29, Type 0, BuildingBlock: NAHDIM_clean_sbu_0, # of connection points: 4
#     Node 30, Type 0, BuildingBlock: NAHDIM_clean_sbu_0, # of connection points: 4
#     Node 31, Type 0, BuildingBlock: NAHDIM_clean_sbu_0, # of connection points: 4
#     Edge 32, Type (0, 0), BuildingBlock: EZIPEK_clean_linker_0, # of connection points: 2
#     Edge 33, Type (0, 0), BuildingBlock: EZIPEK_clean_linker_0, # of connection points: 2
#     Edge 34, Type (0, 0), BuildingBlock: EZIPEK_clean_linker_0, # of connection points: 2
#     Edge 35, Type (0, 0), BuildingBlock: EZIPEK_clean_linker_0, # of connection points: 2
#     Edge 36, Type (0, 0), BuildingBlock: EZIPEK_clean_linker_0, # of connection points: 2
#     Edge 37, Type (0, 0), BuildingBlock: EZIPEK_clean_linker_0, # of connection points: 2
#     Edge 38, Type (0, 0), BuildingBlock: EZIPEK_clean_linker_0, # of connection points: 2
#     Edge 39, Type (0, 0), BuildingBlock: EZIPEK_clean_linker_0, # of connection points: 2
#     Edge 40, Type (0, 0), BuildingBlock: EZIPEK_clean_linker_0, # of connection points: 2
#     Edge 41, Type (0, 0), BuildingBlock: EZIPEK_clean_linker_0, # of connection points: 2
#     Edge 42, Type (0, 0), BuildingBlock: EZIPEK_clean_linker_0, # of connection points: 2
#     Edge 43, Type (0, 0), BuildingBlock: EZIPEK_clean_linker_0, # of connection points: 2
#     Edge 44, Type (0, 0), BuildingBlock: EZIPEK_clean_linker_0, # of connection points: 2
#     Edge 45, Type (0, 0), BuildingBlock: EZIPEK_clean_linker_0, # of connection points: 2
#     Edge 46, Type (0, 0), BuildingBlock: EZIPEK_clean_linker_0, # of connection points: 2
#     Edge 47, Type (0, 0), BuildingBlock: EZIPEK_clean_linker_0, # of connection points: 2
#     Edge 48, Type (0, 0), BuildingBlock: EZIPEK_clean_linker_0, # of connection points: 2
#     Edge 49, Type (0, 0), BuildingBlock: EZIPEK_clean_linker_0, # of connection points: 2
#     Edge 50, Type (0, 0), BuildingBlock: EZIPEK_clean_linker_0, # of connection points: 2
#     Edge 51, Type (0, 0), BuildingBlock: EZIPEK_clean_linker_0, # of connection points: 2
#     Edge 52, Type (0, 0), BuildingBlock: EZIPEK_clean_linker_0, # of connection points: 2
#     Edge 53, Type (0, 0), BuildingBlock: EZIPEK_clean_linker_0, # of connection points: 2
#     Edge 54, Type (0, 0), BuildingBlock: EZIPEK_clean_linker_0, # of connection points: 2
#     Edge 55, Type (0, 0), BuildingBlock: EZIPEK_clean_linker_0, # of connection points: 2
#     Edge 56, Type (0, 0), BuildingBlock: EZIPEK_clean_linker_0, # of connection points: 2
#     Edge 57, Type (0, 0), BuildingBlock: EZIPEK_clean_linker_0, # of connection points: 2
#     Edge 58, Type (0, 0), BuildingBlock: EZIPEK_clean_linker_0, # of connection points: 2
#     Edge 59, Type (0, 0), BuildingBlock: EZIPEK_clean_linker_0, # of connection points: 2
#     Edge 60, Type (0, 0), BuildingBlock: EZIPEK_clean_linker_0, # of connection points: 2
#     Edge 61, Type (0, 0), BuildingBlock: EZIPEK_clean_linker_0, # of connection points: 2
#     Edge 62, Type (0, 0), BuildingBlock: EZIPEK_clean_linker_0, # of connection points: 2
#     Edge 63, Type (0, 0), BuildingBlock: EZIPEK_clean_linker_0, # of connection points: 2
#     Edge 64, Type (0, 0), BuildingBlock: EZIPEK_clean_linker_0, # of connection points: 2
#     Edge 65, Type (0, 0), BuildingBlock: EZIPEK_clean_linker_0, # of connection points: 2
#     Edge 66, Type (0, 0), BuildingBlock: EZIPEK_clean_linker_0, # of connection points: 2
#     Edge 67, Type (0, 0), BuildingBlock: EZIPEK_clean_linker_0, # of connection points: 2
#     Edge 68, Type (0, 0), BuildingBlock: EZIPEK_clean_linker_0, # of connection points: 2
#     Edge 69, Type (0, 0), BuildingBlock: EZIPEK_clean_linker_0, # of connection points: 2
#     Edge 70, Type (0, 0), BuildingBlock: EZIPEK_clean_linker_0, # of connection points: 2
#     Edge 71, Type (0, 0), BuildingBlock: EZIPEK_clean_linker_0, # of connection points: 2
#     Edge 72, Type (0, 0), BuildingBlock: EZIPEK_clean_linker_0, # of connection points: 2
#     Edge 73, Type (0, 0), BuildingBlock: EZIPEK_clean_linker_0, # of connection points: 2
#     Edge 74, Type (0, 0), BuildingBlock: EZIPEK_clean_linker_0, # of connection points: 2
#     Edge 75, Type (0, 0), BuildingBlock: EZIPEK_clean_linker_0, # of connection points: 2
#     Edge 76, Type (0, 0), BuildingBlock: EZIPEK_clean_linker_0, # of connection points: 2
#     Edge 77, Type (0, 0), BuildingBlock: EZIPEK_clean_linker_0, # of connection points: 2
#     Edge 78, Type (0, 0), BuildingBlock: EZIPEK_clean_linker_0, # of connection points: 2
#     Edge 79, Type (0, 0), BuildingBlock: EZIPEK_clean_linker_0, # of connection points: 2
#     Edge 80, Type (0, 0), BuildingBlock: EZIPEK_clean_linker_0, # of connection points: 2
#     Edge 81, Type (0, 0), BuildingBlock: EZIPEK_clean_linker_0, # of connection points: 2
#     Edge 82, Type (0, 0), BuildingBlock: EZIPEK_clean_linker_0, # of connection points: 2
#     Edge 83, Type (0, 0), BuildingBlock: EZIPEK_clean_linker_0, # of connection points: 2
#     Edge 84, Type (0, 0), BuildingBlock: EZIPEK_clean_linker_0, # of connection points: 2
#     Edge 85, Type (0, 0), BuildingBlock: EZIPEK_clean_linker_0, # of connection points: 2
#     Edge 86, Type (0, 0), BuildingBlock: EZIPEK_clean_linker_0, # of connection points: 2
#     Edge 87, Type (0, 0), BuildingBlock: EZIPEK_clean_linker_0, # of connection points: 2
#     Edge 88, Type (0, 0), BuildingBlock: EZIPEK_clean_linker_0, # of connection points: 2
#     Edge 89, Type (0, 0), BuildingBlock: EZIPEK_clean_linker_0, # of connection points: 2
#     Edge 90, Type (0, 0), BuildingBlock: EZIPEK_clean_linker_0, # of connection points: 2
#     Edge 91, Type (0, 0), BuildingBlock: EZIPEK_clean_linker_0, # of connection points: 2
#     Edge 92, Type (0, 0), BuildingBlock: EZIPEK_clean_linker_0, # of connection points: 2
#     Edge 93, Type (0, 0), BuildingBlock: EZIPEK_clean_linker_0, # of connection points: 2
#     Edge 94, Type (0, 0), BuildingBlock: EZIPEK_clean_linker_0, # of connection points: 2
#     Edge 95, Type (0, 0), BuildingBlock: EZIPEK_clean_linker_0, # of connection points: 2
# Relax obj value: 0.224
# Max RMSD: 0.094
# Mean RMSD: 0.094
data_MOF--net-dei--node1-NAHDIM_clean_sbu_0--edge1-EZIPEK_clean_linker_0
_symmetry_space_group_name_H-M    P1
_symmetry_Int_Tables_number       1
_symmetry_cell_setting            triclinic
loop_
_symmetry_equiv_pos_as_xyz
'x, y, z'
_cell_length_a     39.372749
_cell_length_b     39.352132
_cell_length_c     68.986629
_cell_angle_alpha  90.02549
_cell_angle_beta   89.996098
_cell_angle_gamma 89.941052
loop_
_atom_site_label
_atom_site_type_symbol
_atom_site_fract_x
_atom_site_fract_y
_atom_site_fract_z
_atom_type_partial_charge
C0 C 0.17895 0.56356 0.0301 0.0
O1 O 0.20246 0.58661 0.03315 0.0
O2 O 0.14407 0.60539 0.081 0.0
Zn3 Zn 0.13286 0.60666 0.05268 0.0
O4 O 0.08209 0.6071 0.05032 0.0
C5 C 0.13848 0.67616 0.05047 0.0
O6 O 0.11947 0.67186 0.06591 0.0
O7 O 0.14977 0.56675 0.0377 0.0
C8 C 0.06832 0.6095 0.03374 0.0
O9 O 0.08737 0.61143 0.01815 0.0
C10 C 0.15274 0.57977 0.09101 0.0
O11 O 0.15629 0.54991 0.08276 0.0
O12 O 0.14977 0.65038 0.0415 0.0
C13 C 0.70049 0.89474 0.27784 0.0
O14 O 0.70623 0.8693 0.28972 0.0
O15 O 0.63949 0.89547 0.32054 0.0
Zn16 Zn 0.63435 0.88517 0.29213 0.0
O17 O 0.63622 0.83427 0.2879 0.0
C18 C 0.56391 0.88636 0.29075 0.0
O19 O 0.56939 0.8598 0.30182 0.0
O20 O 0.67092 0.90737 0.27673 0.0
C21 C 0.62671 0.82029 0.27221 0.0
O22 O 0.61547 0.83903 0.25784 0.0
C23 C 0.65263 0.8739 0.332 0.0
O24 O 0.6653 0.84551 0.32507 0.0
O25 O 0.58888 0.90279 0.28395 0.0
C26 C 0.35427 0.4624 0.53279 0.0
O27 O 0.37393 0.46813 0.54782 0.0
O28 O 0.35176 0.40267 0.57329 0.0
Zn29 Zn 0.36326 0.39453 0.54519 0.0
O30 O 0.41424 0.39049 0.54177 0.0
C31 C 0.35413 0.32501 0.54627 0.0
O32 O 0.37864 0.3294 0.55892 0.0
O33 O 0.34528 0.43223 0.52885 0.0
C34 C 0.42814 0.38457 0.52549 0.0
O35 O 0.40932 0.38116 0.50991 0.0
C36 C 0.37516 0.4068 0.58574 0.0
O37 O 0.40691 0.40855 0.58004 0.0
O38 O 0.34196 0.35047 0.53741 0.0
C39 C 0.78863 0.06963 0.77281 0.0
O40 O 0.7967 0.04969 0.78737 0.0
O41 O 0.83635 0.10026 0.81369 0.0
Zn42 Zn 0.84492 0.11182 0.78548 0.0
O43 O 0.8481 0.163 0.78238 0.0
C44 C 0.91405 0.09659 0.78754 0.0
O45 O 0.91019 0.11766 0.80213 0.0
O46 O 0.80605 0.09602 0.7693 0.0
C47 C 0.87066 0.1782 0.77249 0.0
O48 O 0.89393 0.1607 0.76325 0.0
C49 C 0.83838 0.12315 0.82664 0.0
O50 O 0.8442 0.15475 0.82158 0.0
O51 O 0.8885 0.08902 0.7772 0.0
C52 C 0.16049 0.45697 0.97574 0.0
O53 O 0.13756 0.46671 0.96306 0.0
O54 O 0.15837 0.40521 0.93035 0.0
Zn55 Zn 0.14454 0.3952 0.95814 0.0
O56 O 0.09393 0.40385 0.9624 0.0
C57 C 0.15121 0.32371 0.95184 0.0
O58 O 0.14098 0.33254 0.93447 0.0
O59 O 0.16984 0.42612 0.97604 0.0
C60 C 0.07124 0.3817 0.95889 0.0
O61 O 0.08026 0.35138 0.95289 0.0
C62 C 0.13681 0.40241 0.91675 0.0
O63 O 0.10507 0.39557 0.92095 0.0
O64 O 0.15583 0.34641 0.96466 0.0
C65 C 0.81178 0.92077 0.22666 0.0
O66 O 0.83379 0.9458 0.226 0.0
O67 O 0.84336 0.90475 0.17135 0.0
Zn68 Zn 0.8543 0.88633 0.19806 0.0
O69 O 0.85909 0.83499 0.197 0.0
C70 C 0.92162 0.91427 0.19834 0.0
O71 O 0.9176 0.91224 0.17951 0.0
O72 O 0.81549 0.89495 0.21585 0.0
C73 C 0.88715 0.8194 0.19488 0.0
O74 O 0.91543 0.83671 0.19295 0.0
C75 C 0.8568 0.88996 0.1569 0.0
O76 O 0.8773 0.86416 0.15971 0.0
O77 O 0.89699 0.90675 0.20937 0.0
C78 C 0.33398 0.57743 0.48326 0.0
O79 O 0.30629 0.5939 0.47831 0.0
O80 O 0.35269 0.6058 0.42998 0.0
Zn81 Zn 0.3717 0.62032 0.45583 0.0
O82 O 0.42236 0.62451 0.45384 0.0
C83 C 0.32464 0.67681 0.45787 0.0
O84 O 0.30322 0.65591 0.4495 0.0
O85 O 0.36233 0.5851 0.47573 0.0
C86 C 0.43945 0.63543 0.46814 0.0
O87 O 0.42394 0.64349 0.48436 0.0
C88 C 0.36971 0.61324 0.41494 0.0
O89 O 0.39868 0.6294 0.41668 0.0
O90 O 0.35392 0.66636 0.46273 0.0
C91 C 0.67508 0.08493 0.72361 0.0
O92 O 0.68008 0.11441 0.7152 0.0
O93 O 0.61651 0.07676 0.67612 0.0
Zn94 Zn 0.61252 0.09164 0.70386 0.0
O95 O 0.61825 0.1425 0.7048 0.0
C96 C 0.5522 0.05199 0.71192 0.0
O97 O 0.56986 0.02636 0.70502 0.0
O98 O 0.64763 0.06889 0.72059 0.0
C99 C 0.59562 0.16169 0.69755 0.0
O100 O 0.56839 0.14829 0.68967 0.0
C101 C 0.64302 0.08248 0.66614 0.0
O102 O 0.66941 0.09707 0.67425 0.0
O103 O 0.56564 0.08119 0.71327 0.0
C104 C 0.83993 0.46634 0.9668 0.0
O105 O 0.86552 0.47477 0.95558 0.0
O106 O 0.84521 0.41152 0.92186 0.0
Zn107 Zn 0.8548 0.40275 0.95038 0.0
O108 O 0.90507 0.40935 0.95631 0.0
C109 C 0.84182 0.33127 0.94598 0.0
O110 O 0.85284 0.33721 0.92837 0.0
O111 O 0.82892 0.43608 0.96651 0.0
C112 C 0.92645 0.38521 0.95514 0.0
O113 O 0.91607 0.35465 0.9504 0.0
C114 C 0.86758 0.40395 0.90929 0.0
O115 O 0.89691 0.39168 0.91496 0.0
O116 O 0.83983 0.35549 0.95809 0.0
C117 C 0.30736 0.06886 0.72902 0.0
O118 O 0.31647 0.04644 0.71591 0.0
O119 O 0.33815 0.10287 0.68333 0.0
Zn120 Zn 0.35512 0.11364 0.71 0.0
O121 O 0.35847 0.16459 0.7118 0.0
C122 C 0.41038 0.06873 0.72469 0.0
O123 O 0.38852 0.0545 0.73654 0.0
O124 O 0.32113 0.09798 0.72935 0.0
C125 C 0.38652 0.18052 0.71183 0.0
O126 O 0.41528 0.16364 0.71119 0.0
C127 C 0.35967 0.10633 0.6698 0.0
O128 O 0.39105 0.11486 0.67401 0.0
O129 O 0.40109 0.09235 0.71335 0.0
C130 C 0.65127 0.55342 0.4682 0.0
O131 O 0.62611 0.55224 0.45572 0.0
O132 O 0.66235 0.61193 0.42449 0.0
Zn133 Zn 0.65222 0.61836 0.45292 0.0
O134 O 0.60156 0.62018 0.45698 0.0
C135 C 0.69764 0.67553 0.45338 0.0
O136 O 0.71528 0.65713 0.44108 0.0
O137 O 0.66961 0.57991 0.46908 0.0
C138 C 0.58471 0.64755 0.45865 0.0
O139 O 0.6003 0.677 0.4578 0.0
C140 C 0.63863 0.60563 0.41254 0.0
O141 O 0.60747 0.60141 0.41884 0.0
O142 O 0.67119 0.66323 0.46116 0.0
C143 C 0.19854 0.91452 0.21701 0.0
O144 O 0.20623 0.89169 0.20382 0.0
O145 O 0.14076 0.90939 0.17534 0.0
Zn146 Zn 0.13281 0.89885 0.20373 0.0
O147 O 0.13737 0.84789 0.20883 0.0
C148 C 0.06192 0.91468 0.20056 0.0
O149 O 0.0669 0.9045 0.18268 0.0
O150 O 0.16779 0.92318 0.21936 0.0
C151 C 0.1122 0.82774 0.20756 0.0
O152 O 0.08202 0.83989 0.2034 0.0
C153 C 0.13178 0.88811 0.16248 0.0
O154 O 0.11846 0.85902 0.16776 0.0
O155 O 0.08668 0.91547 0.21231 0.0
C156 C 0.81394 0.5726 0.02076 0.0
O157 O 0.7905 0.59625 0.02213 0.0
O158 O 0.84027 0.60981 0.07481 0.0
Zn159 Zn 0.85485 0.61393 0.04709 0.0
O160 O 0.90577 0.61506 0.04701 0.0
C161 C 0.84639 0.68369 0.046 0.0
O162 O 0.8622 0.67949 0.06259 0.0
O163 O 0.84098 0.57472 0.03067 0.0
C164 C 0.9218 0.61243 0.03111 0.0
O165 O 0.90495 0.60923 0.01478 0.0
C166 C 0.83675 0.58198 0.08389 0.0
O167 O 0.84056 0.55298 0.07473 0.0
O168 O 0.8386 0.65793 0.0359 0.0
C169 C 0.19176 0.07825 0.77862 0.0
O170 O 0.19831 0.09593 0.79433 0.0
O171 O 0.13192 0.08071 0.81843 0.0
Zn172 Zn 0.12559 0.09405 0.79032 0.0
O173 O 0.13199 0.14515 0.78729 0.0
C174 C 0.05429 0.08626 0.79207 0.0
O175 O 0.0598 0.10106 0.80883 0.0
O176 O 0.16118 0.07193 0.77411 0.0
C177 C 0.10837 0.16649 0.78408 0.0
O178 O 0.07698 0.15604 0.78204 0.0
C179 C 0.13133 0.10379 0.83131 0.0
O180 O 0.12814 0.13569 0.8261 0.0
O181 O 0.07928 0.07947 0.78111 0.0
C182 C 0.64314 0.44249 0.52187 0.0
O183 O 0.61729 0.4459 0.53375 0.0
O184 O 0.65826 0.38294 0.56642 0.0
Zn185 Zn 0.64231 0.37776 0.53888 0.0
O186 O 0.59097 0.37844 0.53837 0.0
C187 C 0.6489 0.30829 0.54094 0.0
O188 O 0.63108 0.31548 0.5565 0.0
O189 O 0.65996 0.41495 0.52184 0.0
C190 C 0.57447 0.37269 0.5229 0.0
O191 O 0.5908 0.36548 0.50682 0.0
C192 C 0.63975 0.39731 0.57906 0.0
O193 O 0.61095 0.41147 0.57385 0.0
O194 O 0.65815 0.33212 0.52975 0.0
C195 C 0.31175 0.93721 0.26587 0.0
O196 O 0.33388 0.96152 0.26908 0.0
O197 O 0.34292 0.9051 0.3185 0.0
Zn198 Zn 0.35154 0.88996 0.29077 0.0
O199 O 0.34742 0.83875 0.28784 0.0
C200 C 0.42201 0.90201 0.29409 0.0
O201 O 0.41501 0.89259 0.31188 0.0
O202 O 0.3153 0.90827 0.27368 0.0
C203 C 0.37121 0.81764 0.29104 0.0
O204 O 0.40122 0.82862 0.2964 0.0
C205 C 0.34707 0.88408 0.33227 0.0
O206 O 0.35538 0.85256 0.32835 0.0
O207 O 0.39803 0.90492 0.2819 0.0
C208 C 0.68182 0.04948 0.52585 0.0
O209 O 0.70731 0.06806 0.53203 0.0
O210 O 0.64466 0.09324 0.57358 0.0
Zn211 Zn 0.63571 0.09796 0.545 0.0
O212 O 0.58508 0.10094 0.54139 0.0
C213 C 0.65701 0.16647 0.54608 0.0
O214 O 0.65067 0.16161 0.56456 0.0
O215 O 0.6515 0.05748 0.53009 0.0
C216 C 0.56767 0.12156 0.55151 0.0
O217 O 0.58279 0.14125 0.56419 0.0
C218 C 0.64088 0.06585 0.58306 0.0
O219 O 0.63194 0.03786 0.57405 0.0
O220 O 0.65561 0.14142 0.53452 0.0
C221 C 0.18919 0.421 0.77249 0.0
O222 O 0.17637 0.44733 0.78162 0.0
O223 O 0.15326 0.39864 0.82126 0.0
Zn224 Zn 0.14225 0.37903 0.79505 0.0
O225 O 0.14088 0.32805 0.79675 0.0
C226 C 0.08356 0.42336 0.79006 0.0
O227 O 0.10319 0.44746 0.79694 0.0
O228 O 0.17802 0.39135 0.77586 0.0
C229 C 0.13269 0.31129 0.78172 0.0
O230 O 0.12679 0.32742 0.7654 0.0
C231 C 0.14133 0.38304 0.83584 0.0
O232 O 0.1235 0.35524 0.83328 0.0
O233 O 0.09546 0.39375 0.78736 0.0
C234 C 0.80585 0.93824 0.01248 0.0
O235 O 0.78048 0.91911 0.01825 0.0
O236 O 0.83739 0.90208 0.06246 0.0
Zn237 Zn 0.85199 0.89415 0.03478 0.0
O238 O 0.90306 0.89294 0.03299 0.0
C239 C 0.84868 0.82501 0.03653 0.0
O240 O 0.87137 0.83302 0.04969 0.0
O241 O 0.83598 0.93172 0.01782 0.0
C242 C 0.91802 0.88575 0.01721 0.0
O243 O 0.90021 0.87909 0.00157 0.0
C244 C 0.85945 0.90782 0.07548 0.0
O245 O 0.89136 0.91204 0.07054 0.0
O246 O 0.83456 0.84838 0.02673 0.0
C247 C 0.2963 0.5584 0.28082 0.0
O248 O 0.29904 0.54224 0.29739 0.0
O249 O 0.34613 0.58621 0.3212 0.0
Zn250 Zn 0.35413 0.59992 0.29317 0.0
O251 O 0.34862 0.65097 0.29023 0.0
C252 C 0.42543 0.58847 0.29577 0.0
O253 O 0.41918 0.59751 0.31371 0.0
O254 O 0.31764 0.58115 0.27626 0.0
C255 C 0.37278 0.67222 0.29149 0.0
O256 O 0.40384 0.66147 0.29461 0.0
C257 C 0.35346 0.60755 0.33438 0.0
O258 O 0.36563 0.63736 0.32961 0.0
O259 O 0.4009 0.58564 0.28392 0.0
C260 C 0.66628 0.94091 0.47245 0.0
O261 O 0.64673 0.95145 0.45824 0.0
O262 O 0.65961 0.89301 0.42746 0.0
Zn263 Zn 0.64927 0.87949 0.45487 0.0
O264 O 0.59854 0.88456 0.45868 0.0
C265 C 0.69348 0.82054 0.45956 0.0
O266 O 0.71843 0.84261 0.46031 0.0
O267 O 0.67318 0.90951 0.47387 0.0
C268 C 0.57935 0.85963 0.46278 0.0
O269 O 0.59247 0.82919 0.46504 0.0
C270 C 0.64538 0.87395 0.41503 0.0
O271 O 0.62585 0.84902 0.421 0.0
O272 O 0.66304 0.83071 0.4578 0.0
C273 C 0.3043 0.41224 0.7218 0.0
O274 O 0.29784 0.39654 0.70541 0.0
O275 O 0.3622 0.41356 0.68172 0.0
Zn276 Zn 0.37095 0.39866 0.70949 0.0
O277 O 0.36706 0.34722 0.71183 0.0
C278 C 0.44164 0.41585 0.70709 0.0
O279 O 0.43574 0.41166 0.68854 0.0
O280 O 0.33488 0.41801 0.72661 0.0
C281 C 0.39203 0.32715 0.70932 0.0
O282 O 0.42206 0.3395 0.70506 0.0
C283 C 0.37129 0.39417 0.66793 0.0
O284 O 0.38602 0.3651 0.67187 0.0
O285 O 0.41726 0.41345 0.71905 0.0
C286 C 0.82041 0.05334 0.96362 0.0
O287 O 0.84087 0.04557 0.94924 0.0
O288 O 0.8256 0.10953 0.92219 0.0
Zn289 Zn 0.83821 0.1175 0.95031 0.0
O290 O 0.88865 0.10866 0.95493 0.0
C291 C 0.8313 0.18921 0.94622 0.0
O292 O 0.84268 0.18193 0.92884 0.0
O293 O 0.81308 0.08426 0.96676 0.0
C294 C 0.91147 0.1313 0.95315 0.0
O295 O 0.90272 0.16256 0.94882 0.0
C296 C 0.84759 0.11407 0.90897 0.0
O297 O 0.87871 0.12252 0.91372 0.0
O298 O 0.826 0.16539 0.95826 0.0
C299 C 0.18928 0.58521 0.2277 0.0
O300 O 0.20162 0.59622 0.21119 0.0
O301 O 0.13595 0.59389 0.18455 0.0
Zn302 Zn 0.12708 0.61027 0.21168 0.0
O303 O 0.13331 0.66146 0.21272 0.0
C304 C 0.06856 0.56794 0.21496 0.0
O305 O 0.09029 0.5443 0.20975 0.0
O306 O 0.15763 0.58743 0.23096 0.0
C307 C 0.10796 0.68152 0.21218 0.0
O308 O 0.07707 0.66906 0.21135 0.0
C309 C 0.15662 0.60798 0.17294 0.0
O310 O 0.17528 0.63362 0.1788 0.0
O311 O 0.07869 0.59827 0.21731 0.0
C312 C 0.36343 0.94246 0.47468 0.0
O313 O 0.38795 0.94848 0.46223 0.0
O314 O 0.3467 0.89631 0.42768 0.0
Zn315 Zn 0.36494 0.88233 0.45366 0.0
O316 O 0.41618 0.88297 0.4529 0.0
C317 C 0.3217 0.82245 0.45722 0.0
O318 O 0.29629 0.84286 0.45315 0.0
O319 O 0.34791 0.91424 0.47399 0.0
C320 C 0.43348 0.87562 0.46787 0.0
O321 O 0.41793 0.86896 0.48427 0.0
C322 C 0.36286 0.88548 0.41302 0.0
O323 O 0.39027 0.86696 0.41549 0.0
O324 O 0.35161 0.83417 0.45864 0.0
C325 C 0.81808 0.56597 0.22858 0.0
O326 O 0.83428 0.53803 0.22378 0.0
O327 O 0.85881 0.58827 0.17737 0.0
Zn328 Zn 0.86569 0.6062 0.20428 0.0
O329 O 0.86655 0.65695 0.20271 0.0
C330 C 0.92342 0.56228 0.21006 0.0
O331 O 0.90449 0.53939 0.2014 0.0
O332 O 0.82747 0.5945 0.22195 0.0
C333 C 0.89205 0.67262 0.1959 0.0
O334 O 0.91849 0.65551 0.18959 0.0
C335 C 0.8342 0.59839 0.16697 0.0
O336 O 0.81115 0.61866 0.17445 0.0
O337 O 0.91126 0.5914 0.21379 0.0
C338 C 0.14862 0.0456 0.96861 0.0
O339 O 0.13007 0.03626 0.95371 0.0
O340 O 0.14172 0.09882 0.92697 0.0
Zn341 Zn 0.12854 0.10942 0.95475 0.0
O342 O 0.07776 0.10256 0.95892 0.0
C343 C 0.14185 0.18061 0.94956 0.0
O344 O 0.13383 0.17351 0.93156 0.0
O345 O 0.15306 0.07697 0.97196 0.0
C346 C 0.05641 0.1261 0.95555 0.0
O347 O 0.06717 0.15588 0.94962 0.0
C348 C 0.12097 0.10424 0.91322 0.0
O349 O 0.09069 0.11637 0.91706 0.0
O350 O 0.14213 0.15713 0.96217 0.0
C351 C 0.69733 0.41385 0.71899 0.0
O352 O 0.67843 0.43985 0.71385 0.0
O353 O 0.64825 0.38833 0.67248 0.0
Zn354 Zn 0.64594 0.37285 0.70014 0.0
O355 O 0.63969 0.32178 0.70053 0.0
C356 C 0.58063 0.40294 0.7029 0.0
O357 O 0.5824 0.39854 0.68406 0.0
O358 O 0.68869 0.3839 0.71428 0.0
C359 C 0.61109 0.30781 0.69744 0.0
O360 O 0.58427 0.32668 0.69399 0.0
C361 C 0.66702 0.37356 0.66012 0.0
O362 O 0.68731 0.34891 0.66564 0.0
O363 O 0.60605 0.39516 0.7133 0.0
C364 C 0.35014 0.04937 0.5307 0.0
O365 O 0.37313 0.04645 0.54441 0.0
O366 O 0.33511 0.10298 0.57463 0.0
Zn367 Zn 0.34984 0.11336 0.54705 0.0
O368 O 0.40133 0.11129 0.5449 0.0
C369 C 0.33485 0.18399 0.55003 0.0
O370 O 0.3414 0.17765 0.56832 0.0
O371 O 0.33312 0.07671 0.5294 0.0
C372 C 0.42183 0.13537 0.54856 0.0
O373 O 0.40998 0.16523 0.55373 0.0
C374 C 0.35487 0.1108 0.58849 0.0
O375 O 0.3839 0.1257 0.58483 0.0
O376 O 0.33409 0.15957 0.53801 0.0
C377 C 0.70475 0.59263 0.27816 0.0
O378 O 0.71246 0.61208 0.29298 0.0
O379 O 0.64296 0.59823 0.31879 0.0
Zn380 Zn 0.63739 0.60812 0.29032 0.0
O381 O 0.63814 0.65902 0.28658 0.0
C382 C 0.56714 0.60404 0.2913 0.0
O383 O 0.57314 0.62746 0.30442 0.0
O384 O 0.67385 0.58624 0.27444 0.0
C385 C 0.62963 0.67352 0.27087 0.0
O386 O 0.62043 0.6552 0.25585 0.0
C387 C 0.65643 0.62006 0.32996 0.0
O388 O 0.66892 0.64824 0.3227 0.0
O389 O 0.59178 0.59048 0.28234 0.0
C390 C 0.17389 0.93274 0.01759 0.0
O391 O 0.20051 0.9154 0.02342 0.0
O392 O 0.1426 0.89401 0.06717 0.0
Zn393 Zn 0.12904 0.88593 0.03939 0.0
O394 O 0.07815 0.88367 0.03683 0.0
C395 C 0.13413 0.81716 0.04096 0.0
O396 O 0.11056 0.82455 0.05374 0.0
O397 O 0.14424 0.92417 0.02278 0.0
C398 C 0.06439 0.8863 0.02025 0.0
O399 O 0.08343 0.89018 0.00478 0.0
C400 C 0.12009 0.89792 0.08017 0.0
O401 O 0.08792 0.89939 0.07524 0.0
O402 O 0.14799 0.84087 0.03134 0.0
C403 C 0.8119 0.40375 0.76933 0.0
O404 O 0.80374 0.3852 0.78446 0.0
O405 O 0.86382 0.41002 0.81336 0.0
Zn406 Zn 0.8746 0.39272 0.78646 0.0
O407 O 0.86947 0.34179 0.78607 0.0
C408 C 0.93753 0.43002 0.78623 0.0
O409 O 0.91929 0.4539 0.79451 0.0
O410 O 0.84263 0.41251 0.7669 0.0
C411 C 0.87591 0.32479 0.77087 0.0
O412 O 0.88558 0.34047 0.75501 0.0
C413 C 0.86925 0.39009 0.82751 0.0
O414 O 0.88065 0.35927 0.82425 0.0
O415 O 0.92334 0.40282 0.78057 0.0
C416 C 0.12533 0.60433 0.14154 0.0
C417 C 0.15569 0.59889 0.15217 0.0
C418 C 0.18456 0.57965 0.12262 0.0
C419 C 0.15358 0.58321 0.11233 0.0
N420 N 0.09278 0.59088 0.1128 0.0
N421 N 0.21245 0.5761 0.15396 0.0
C422 C 0.12342 0.59308 0.12206 0.0
C423 C 0.18486 0.58499 0.14304 0.0
N424 N 0.09888 0.62181 0.14969 0.0
N425 N 0.21387 0.57254 0.1128 0.0
H426 H 0.21349 0.57978 0.16892 0.0
H427 H 0.23312 0.56264 0.14849 0.0
H428 H 0.21446 0.56797 0.09791 0.0
H429 H 0.23786 0.57344 0.11911 0.0
H430 H 0.07763 0.62969 0.14191 0.0
H431 H 0.09943 0.63138 0.16379 0.0
H432 H 0.0696 0.59436 0.1198 0.0
H433 H 0.09029 0.58215 0.09859 0.0
C434 C 0.61869 0.88628 0.38315 0.0
C435 C 0.64864 0.88043 0.39402 0.0
C436 C 0.68197 0.87919 0.36403 0.0
C437 C 0.65134 0.87928 0.35321 0.0
N438 N 0.58989 0.87935 0.35249 0.0
N439 N 0.70901 0.86983 0.39513 0.0
C440 C 0.61948 0.88233 0.36273 0.0
C441 C 0.68049 0.87693 0.38459 0.0
N442 N 0.58957 0.89614 0.3924 0.0
N443 N 0.71242 0.88205 0.35464 0.0
H444 H 0.70927 0.86902 0.41023 0.0
H445 H 0.73203 0.86268 0.3889 0.0
H446 H 0.71431 0.88419 0.3396 0.0
H447 H 0.73547 0.88552 0.36177 0.0
H448 H 0.56781 0.9041 0.38511 0.0
H449 H 0.58832 0.89977 0.40738 0.0
H450 H 0.56611 0.87741 0.35901 0.0
H451 H 0.58906 0.87581 0.33755 0.0
C452 C 0.34644 0.37939 0.63604 0.0
C453 C 0.36478 0.40295 0.64744 0.0
C454 C 0.37959 0.43479 0.61816 0.0
C455 C 0.36735 0.40744 0.60673 0.0
N456 N 0.34127 0.35179 0.60495 0.0
N457 N 0.39948 0.45337 0.64965 0.0
C458 C 0.35075 0.37945 0.61564 0.0
C459 C 0.38107 0.43115 0.63865 0.0
N460 N 0.32479 0.35702 0.64479 0.0
N461 N 0.38929 0.46438 0.60941 0.0
H462 H 0.40032 0.45233 0.66472 0.0
H463 H 0.41547 0.47174 0.64377 0.0
H464 H 0.38786 0.46796 0.59444 0.0
H465 H 0.39547 0.48637 0.61703 0.0
H466 H 0.30834 0.34122 0.63714 0.0
H467 H 0.32065 0.35702 0.65974 0.0
H468 H 0.3328 0.32917 0.61111 0.0
H469 H 0.34447 0.35012 0.59002 0.0
C470 C 0.85893 0.08823 0.87676 0.0
C471 C 0.83889 0.11035 0.88822 0.0
C472 C 0.81096 0.13164 0.85889 0.0
C473 C 0.83561 0.11461 0.84749 0.0
N474 N 0.88474 0.07788 0.84556 0.0
N475 N 0.79592 0.15415 0.89039 0.0
C476 C 0.8597 0.09269 0.85636 0.0
C477 C 0.81442 0.13194 0.8794 0.0
N478 N 0.87703 0.06277 0.88544 0.0
N479 N 0.78399 0.14712 0.85007 0.0
H480 H 0.79674 0.15463 0.90546 0.0
H481 H 0.78116 0.17355 0.88451 0.0
H482 H 0.78057 0.14684 0.83506 0.0
H483 H 0.7634 0.15719 0.85762 0.0
H484 H 0.88964 0.04379 0.87775 0.0
H485 H 0.87646 0.0586 0.90038 0.0
H486 H 0.90543 0.06518 0.85158 0.0
H487 H 0.88631 0.08041 0.8306 0.0
C488 C 0.12816 0.42725 0.88401 0.0
C489 C 0.14677 0.40481 0.89608 0.0
C490 C 0.17143 0.3776 0.86736 0.0
C491 C 0.14769 0.39524 0.85572 0.0
N492 N 0.10489 0.43849 0.85207 0.0
N493 N 0.18798 0.35955 0.89953 0.0
C494 C 0.1269 0.42107 0.86373 0.0
C495 C 0.16963 0.38078 0.88786 0.0
N496 N 0.11197 0.45455 0.89209 0.0
N497 N 0.19571 0.35792 0.85869 0.0
H498 H 0.18933 0.36228 0.91449 0.0
H499 H 0.20106 0.33832 0.89447 0.0
H500 H 0.19744 0.3553 0.84366 0.0
H501 H 0.21588 0.34681 0.8661 0.0
H502 H 0.1001 0.47355 0.88407 0.0
H503 H 0.11319 0.45983 0.9069 0.0
H504 H 0.08595 0.45457 0.85726 0.0
H505 H 0.10477 0.43582 0.83704 0.0
C506 C 0.85993 0.93463 0.10828 0.0
C507 C 0.85034 0.90694 0.0963 0.0
C508 C 0.83231 0.87517 0.125 0.0
C509 C 0.8484 0.89965 0.13683 0.0
N510 N 0.8772 0.95331 0.14032 0.0
N511 N 0.82882 0.84947 0.09333 0.0
C512 C 0.86156 0.92995 0.1287 0.0
C513 C 0.83617 0.87706 0.10461 0.0
N514 N 0.8671 0.96541 0.10009 0.0
N515 N 0.81343 0.85002 0.13339 0.0
H516 H 0.83134 0.84928 0.07835 0.0
H517 H 0.82259 0.82573 0.09897 0.0
H518 H 0.81002 0.84838 0.14837 0.0
H519 H 0.79842 0.83314 0.12553 0.0
H520 H 0.8714 0.98742 0.10809 0.0
H521 H 0.86547 0.96961 0.08518 0.0
H522 H 0.8911 0.97378 0.13501 0.0
H523 H 0.87766 0.95128 0.15538 0.0
C524 C 0.33239 0.62423 0.38627 0.0
C525 C 0.35754 0.60404 0.39542 0.0
C526 C 0.3723 0.57738 0.36449 0.0
C527 C 0.34923 0.59969 0.35514 0.0
N528 N 0.30049 0.63629 0.3569 0.0
N529 N 0.39408 0.55509 0.39492 0.0
C530 C 0.32685 0.62036 0.36605 0.0
C531 C 0.37499 0.57837 0.38503 0.0
N532 N 0.31531 0.64836 0.39668 0.0
N533 N 0.39299 0.55688 0.35369 0.0
H534 H 0.39617 0.55538 0.41001 0.0
H535 H 0.40532 0.53395 0.38851 0.0
H536 H 0.39038 0.55418 0.33874 0.0
H537 H 0.41342 0.54336 0.35937 0.0
H538 H 0.29977 0.6668 0.39048 0.0
H539 H 0.3178 0.65081 0.41164 0.0
H540 H 0.28151 0.64972 0.36409 0.0
H541 H 0.29596 0.63337 0.34207 0.0
C542 C 0.61754 0.09409 0.63365 0.0
C543 C 0.64234 0.077 0.64494 0.0
C544 C 0.66691 0.05222 0.61543 0.0
C545 C 0.64049 0.06736 0.60445 0.0
N546 N 0.58601 0.09534 0.60362 0.0
N547 N 0.68738 0.03561 0.64725 0.0
C548 C 0.61439 0.08609 0.61373 0.0
C549 C 0.6662 0.05485 0.63603 0.0
N550 N 0.59811 0.11926 0.64167 0.0
N551 N 0.69312 0.03625 0.60615 0.0
H552 H 0.68744 0.03684 0.66236 0.0
H553 H 0.70292 0.01648 0.64174 0.0
H554 H 0.69396 0.03325 0.59113 0.0
H555 H 0.71505 0.02801 0.61315 0.0
H556 H 0.58224 0.13496 0.63355 0.0
H557 H 0.60039 0.12691 0.65607 0.0
H558 H 0.56464 0.10608 0.6101 0.0
H559 H 0.58237 0.08888 0.58913 0.0
C560 C 0.83608 0.38653 0.85817 0.0
C561 C 0.86334 0.40109 0.84769 0.0
C562 C 0.88451 0.42775 0.87737 0.0
C563 C 0.86129 0.40797 0.88826 0.0
N564 N 0.81416 0.36871 0.88935 0.0
N565 N 0.91369 0.43586 0.8468 0.0
C566 C 0.83629 0.38795 0.87877 0.0
C567 C 0.88729 0.42236 0.85708 0.0
N568 N 0.80996 0.37152 0.84832 0.0
N569 N 0.90364 0.45188 0.88653 0.0
H570 H 0.91587 0.43339 0.83181 0.0
H571 H 0.93437 0.44795 0.85317 0.0
H572 H 0.90155 0.45666 0.90137 0.0
H573 H 0.91897 0.46925 0.87928 0.0
H574 H 0.78768 0.36319 0.8549 0.0
H575 H 0.80927 0.37027 0.83321 0.0
H576 H 0.79858 0.35012 0.88334 0.0
H577 H 0.81232 0.37009 0.90438 0.0
C578 C 0.32922 0.12622 0.63997 0.0
C579 C 0.3499 0.10163 0.64934 0.0
C580 C 0.36536 0.07656 0.61814 0.0
C581 C 0.34664 0.10253 0.60875 0.0
N582 N 0.3033 0.14555 0.60995 0.0
N583 N 0.3793 0.04807 0.64833 0.0
C584 C 0.32581 0.12504 0.61946 0.0
C585 C 0.36522 0.07495 0.63869 0.0
N586 N 0.31478 0.15191 0.65048 0.0
N587 N 0.38421 0.05435 0.60733 0.0
H588 H 0.37876 0.04618 0.66342 0.0
H589 H 0.38869 0.02641 0.64153 0.0
H590 H 0.38296 0.05365 0.59221 0.0
H591 H 0.40179 0.03745 0.61317 0.0
H592 H 0.30303 0.17297 0.64429 0.0
H593 H 0.31602 0.15317 0.66556 0.0
H594 H 0.28535 0.16067 0.61691 0.0
H595 H 0.30048 0.14502 0.59492 0.0
C596 C 0.63064 0.63813 0.38191 0.0
C597 C 0.64473 0.60962 0.39156 0.0
C598 C 0.66986 0.58978 0.36106 0.0
C599 C 0.65282 0.61641 0.35117 0.0
N600 N 0.61181 0.66214 0.35151 0.0
N601 N 0.6748 0.5563 0.39051 0.0
C602 C 0.63185 0.63964 0.3614 0.0
C603 C 0.66367 0.58489 0.38121 0.0
N604 N 0.61707 0.66435 0.3924 0.0
N605 N 0.69267 0.56988 0.35132 0.0
H606 H 0.67113 0.55224 0.40531 0.0
H607 H 0.68553 0.53558 0.38339 0.0
H608 H 0.69768 0.57275 0.33656 0.0
H609 H 0.70853 0.55234 0.35808 0.0
H610 H 0.60984 0.68743 0.38625 0.0
H611 H 0.61607 0.66444 0.40751 0.0
H612 H 0.59324 0.67699 0.35814 0.0
H613 H 0.61136 0.66376 0.33642 0.0
C614 C 0.11858 0.92353 0.13294 0.0
C615 C 0.13557 0.89548 0.14157 0.0
C616 C 0.14639 0.87083 0.1096 0.0
C617 C 0.12946 0.89886 0.10092 0.0
N618 N 0.10838 0.95613 0.10369 0.0
N619 N 0.17457 0.84869 0.13815 0.0
C620 C 0.11846 0.92663 0.11242 0.0
C621 C 0.15246 0.87121 0.12986 0.0
N622 N 0.10088 0.94609 0.14413 0.0
N623 N 0.15467 0.84283 0.09885 0.0
H624 H 0.18005 0.8489 0.15296 0.0
H625 H 0.19006 0.83243 0.13016 0.0
H626 H 0.15031 0.84101 0.08401 0.0
H627 H 0.16331 0.82019 0.10492 0.0
H628 H 0.08443 0.96424 0.13841 0.0
H629 H 0.1008 0.94549 0.1592 0.0
H630 H 0.10321 0.97841 0.1113 0.0
H631 H 0.10853 0.95932 0.08867 0.0
C632 C 0.80741 0.57288 0.11589 0.0
C633 C 0.8366 0.58288 0.1053 0.0
C634 C 0.86315 0.60432 0.13489 0.0
C635 C 0.835 0.5924 0.1458 0.0
N636 N 0.78281 0.56053 0.1474 0.0
N637 N 0.8954 0.60012 0.10517 0.0
C638 C 0.80776 0.57528 0.1365 0.0
C639 C 0.86545 0.59613 0.11496 0.0
N640 N 0.77908 0.56218 0.10621 0.0
N641 N 0.88679 0.62511 0.14326 0.0
H642 H 0.8983 0.59391 0.09056 0.0
H643 H 0.9182 0.60626 0.11198 0.0
H644 H 0.88561 0.63286 0.15768 0.0
H645 H 0.90567 0.63754 0.13542 0.0
H646 H 0.75573 0.55813 0.1129 0.0
H647 H 0.77834 0.55946 0.09117 0.0
H648 H 0.76411 0.54479 0.14165 0.0
H649 H 0.78238 0.56179 0.16251 0.0
C650 C 0.10879 0.07622 0.86163 0.0
C651 C 0.13425 0.09564 0.85217 0.0
C652 C 0.15642 0.1149 0.88347 0.0
C653 C 0.12999 0.09675 0.89286 0.0
N654 N 0.08845 0.052 0.89181 0.0
N655 N 0.18823 0.12408 0.8538 0.0
C656 C 0.10863 0.07467 0.88219 0.0
C657 C 0.16008 0.11187 0.86306 0.0
N658 N 0.08361 0.061 0.85113 0.0
N659 N 0.17666 0.13658 0.89376 0.0
H660 H 0.19171 0.12161 0.83886 0.0
H661 H 0.20947 0.13343 0.86103 0.0
H662 H 0.17569 0.13882 0.90878 0.0
H663 H 0.19324 0.1538 0.88731 0.0
H664 H 0.06193 0.05049 0.85735 0.0
H665 H 0.08332 0.06038 0.83606 0.0
H666 H 0.07453 0.03304 0.8849 0.0
H667 H 0.08837 0.04998 0.9069 0.0
C668 C 0.62546 0.36963 0.61056 0.0
C669 C 0.647 0.39153 0.5998 0.0
C670 C 0.68399 0.39863 0.62814 0.0
C671 C 0.66069 0.37935 0.63929 0.0
N672 N 0.60752 0.34911 0.64199 0.0
N673 N 0.69469 0.42973 0.59834 0.0
C674 C 0.63085 0.36571 0.63076 0.0
C675 C 0.67585 0.40671 0.60856 0.0
N676 N 0.60093 0.35115 0.60126 0.0
N677 N 0.71394 0.40894 0.63626 0.0
H678 H 0.68943 0.43607 0.58396 0.0
H679 H 0.71393 0.4444 0.6044 0.0
H680 H 0.7201 0.40441 0.65075 0.0
H681 H 0.73365 0.41996 0.62843 0.0
H682 H 0.58713 0.33179 0.60785 0.0
H683 H 0.59626 0.35289 0.58641 0.0
H684 H 0.58332 0.34261 0.63717 0.0
H685 H 0.61137 0.34362 0.65661 0.0
C686 C 0.31956 0.8769 0.36435 0.0
C687 C 0.34364 0.89429 0.35279 0.0
C688 C 0.3713 0.91639 0.38198 0.0
C689 C 0.3516 0.89363 0.39317 0.0
N690 N 0.30459 0.85488 0.3961 0.0
N691 N 0.39022 0.93379 0.35003 0.0
C692 C 0.32447 0.87519 0.38473 0.0
C693 C 0.36839 0.9157 0.36144 0.0
N694 N 0.29205 0.86219 0.35565 0.0
N695 N 0.39256 0.93868 0.39113 0.0
H696 H 0.38716 0.93603 0.3351 0.0
H697 H 0.41177 0.94609 0.3552 0.0
H698 H 0.39477 0.93967 0.4062 0.0
H699 H 0.40575 0.95797 0.3841 0.0
H700 H 0.27202 0.8511 0.36317 0.0
H701 H 0.28789 0.86373 0.34073 0.0
H702 H 0.28712 0.83746 0.3907 0.0
H703 H 0.30624 0.85481 0.41118 0.0
C704 C 0.01333 0.64032 0.03859 0.0
C705 C 0.03093 0.61093 0.0321 0.0
C706 C 0.97693 0.58226 0.02541 0.0
C707 C 0.95935 0.61216 0.03109 0.0
N708 N 0.96004 0.67127 0.04027 0.0
N709 N 0.03054 0.55578 0.01683 0.0
C710 C 0.97733 0.64164 0.03698 0.0
C711 C 0.01302 0.58253 0.02463 0.0
N712 N 0.03108 0.66691 0.04636 0.0
N713 N 0.95917 0.55306 0.02179 0.0
H714 H 0.05697 0.55414 0.01695 0.0
H715 H 0.01908 0.53622 0.00906 0.0
H716 H 0.93274 0.55171 0.02237 0.0
H717 H 0.97052 0.52944 0.01973 0.0
H718 H 0.01978 0.68719 0.0536 0.0
H719 H 0.05753 0.66802 0.04643 0.0
H720 H 0.97173 0.69465 0.0425 0.0
H721 H 0.93368 0.67316 0.03936 0.0
C722 C 0.6597 0.72957 0.26922 0.0
C723 C 0.62877 0.71109 0.26991 0.0
C724 C 0.59635 0.76434 0.2718 0.0
C725 C 0.62722 0.7828 0.2705 0.0
N726 N 0.68754 0.78413 0.2648 0.0
N727 N 0.56753 0.70993 0.26974 0.0
C728 C 0.65873 0.76572 0.26834 0.0
C729 C 0.59702 0.72824 0.27045 0.0
N730 N 0.68998 0.7125 0.26964 0.0
N731 N 0.56658 0.78131 0.2752 0.0
H732 H 0.56694 0.68346 0.27 0.0
H733 H 0.54363 0.72071 0.2678 0.0
H734 H 0.56497 0.80772 0.2758 0.0
H735 H 0.54375 0.76944 0.27861 0.0
H736 H 0.7134 0.72429 0.27147 0.0
H737 H 0.6917 0.68605 0.26919 0.0
H738 H 0.71079 0.77336 0.2611 0.0
H739 H 0.68767 0.81062 0.26406 0.0
C740 C 0.48134 0.35103 0.53115 0.0
C741 C 0.46552 0.38106 0.5242 0.0
C742 C 0.52095 0.40392 0.5145 0.0
C743 C 0.53696 0.37516 0.52294 0.0
N744 N 0.53343 0.32266 0.54084 0.0
N745 N 0.46967 0.43784 0.51138 0.0
C746 C 0.51743 0.34911 0.53176 0.0
C747 C 0.48515 0.40794 0.51633 0.0
N748 N 0.46179 0.32387 0.53647 0.0
N749 N 0.54 0.42735 0.50469 0.0
H750 H 0.44351 0.44159 0.51242 0.0
H751 H 0.48278 0.4598 0.50759 0.0
H752 H 0.56642 0.42621 0.50383 0.0
H753 H 0.52963 0.44678 0.49633 0.0
H754 H 0.47157 0.29996 0.53972 0.0
H755 H 0.43532 0.32438 0.53612 0.0
H756 H 0.52094 0.30502 0.54952 0.0
H757 H 0.55972 0.31937 0.54066 0.0
C758 C 0.84781 0.27016 0.76148 0.0
C759 C 0.87434 0.2873 0.77135 0.0
C760 C 0.89661 0.233 0.7833 0.0
C761 C 0.8717 0.21573 0.77219 0.0
N762 N 0.82618 0.21681 0.74884 0.0
N763 N 0.92672 0.28566 0.78946 0.0
C764 C 0.84794 0.23402 0.76077 0.0
C765 C 0.89948 0.2689 0.78171 0.0
N766 N 0.82193 0.28845 0.75333 0.0
N767 N 0.91682 0.21515 0.79581 0.0
H768 H 0.92959 0.31198 0.78874 0.0
H769 H 0.94782 0.27341 0.79528 0.0
H770 H 0.9157 0.18879 0.7972 0.0
H771 H 0.9328 0.22654 0.80592 0.0
H772 H 0.79995 0.27752 0.74774 0.0
H773 H 0.82114 0.31495 0.75349 0.0
H774 H 0.81082 0.22859 0.73856 0.0
H775 H 0.82523 0.19034 0.74819 0.0
C776 C 0.98251 0.41279 0.9471 0.0
C777 C 0.96303 0.39086 0.9591 0.0
C778 C 0.01502 0.36862 0.974 0.0
C779 C 0.03458 0.3893 0.96137 0.0
N780 N 0.0374 0.43745 0.93969 0.0
N781 N 0.95956 0.3554 0.98743 0.0
C782 C 0.01846 0.41369 0.94927 0.0
C783 C 0.979 0.37109 0.97366 0.0
N784 N 0.96699 0.43108 0.93276 0.0
N785 N 0.03101 0.34623 0.98611 0.0
H786 H 0.93314 0.35751 0.98778 0.0
H787 H 0.96946 0.34297 -0.00052 0.0
H788 H 0.05729 0.34599 0.98806 0.0
H789 H 0.0185 0.32719 0.99376 0.0
H790 H 0.98007 0.44357 0.92176 0.0
H791 H 0.94076 0.43236 0.93107 0.0
H792 H 0.02691 0.45811 0.93241 0.0
H793 H 0.06377 0.4385 0.94032 0.0
C794 C 0.86936 0.76291 0.18114 0.0
C795 C 0.88815 0.78175 0.19506 0.0
C796 C 0.91252 0.72897 0.20793 0.0
C797 C 0.89167 0.71011 0.19508 0.0
N798 N 0.84771 0.70819 0.17074 0.0
N799 N 0.92229 0.7827 0.2241 0.0
C800 C 0.86924 0.72683 0.18211 0.0
C801 C 0.9085 0.7648 0.20904 0.0
N802 N 0.85289 0.77939 0.16644 0.0
N803 N 0.93603 0.71265 0.21918 0.0
H804 H 0.91869 0.80875 0.22592 0.0
H805 H 0.9344 0.77141 0.23587 0.0
H806 H 0.93845 0.68628 0.21968 0.0
H807 H 0.95476 0.7253 0.22702 0.0
H808 H 0.84224 0.7671 0.15454 0.0
H809 H 0.85202 0.80572 0.16524 0.0
H810 H 0.82774 0.71875 0.16289 0.0
H811 H 0.84847 0.68175 0.16997 0.0
C812 C 0.49877 0.62104 0.47852 0.0
C813 C 0.4766 0.63971 0.4663 0.0
C814 C 0.52531 0.66232 0.44839 0.0
C815 C 0.54753 0.64594 0.46163 0.0
N816 N 0.55551 0.61551 0.49169 0.0
N817 N 0.46856 0.68355 0.44227 0.0
C818 C 0.53429 0.62694 0.47741 0.0
C819 C 0.48981 0.66196 0.452 0.0
N820 N 0.48607 0.59663 0.49062 0.0
N821 N 0.53787 0.67678 0.43186 0.0
H822 H 0.44241 0.6844 0.44469 0.0
H823 H 0.47722 0.70284 0.4332 0.0
H824 H 0.56364 0.677 0.4284 0.0
H825 H 0.52248 0.68573 0.42069 0.0
H826 H 0.50134 0.57963 0.49823 0.0
H827 H 0.46021 0.59126 0.49173 0.0
H828 H 0.54685 0.60452 0.5045 0.0
H829 H 0.58161 0.62 0.49167 0.0
C830 C 0.57991 0.21916 0.71037 0.0
C831 C 0.60008 0.19899 0.69778 0.0
C832 C 0.62612 0.25031 0.68417 0.0
C833 C 0.60784 0.27032 0.69777 0.0
N834 N 0.57176 0.27383 0.72596 0.0
N835 N 0.64534 0.19432 0.67434 0.0
C836 C 0.5858 0.25478 0.71142 0.0
C837 C 0.62423 0.21426 0.68525 0.0
N838 N 0.55504 0.20429 0.7213 0.0
N839 N 0.64378 0.26576 0.66955 0.0
H840 H 0.64351 0.16791 0.67385 0.0
H841 H 0.66616 0.20373 0.66674 0.0
H842 H 0.64533 0.29206 0.66805 0.0
H843 H 0.65446 0.25271 0.65792 0.0
H844 H 0.53677 0.21799 0.72893 0.0
H845 H 0.55122 0.17808 0.72181 0.0
H846 H 0.55839 0.26352 0.73756 0.0
H847 H 0.57597 0.29986 0.72744 0.0
C848 C 0.36906 0.27186 0.69676 0.0
C849 C 0.38767 0.28988 0.71108 0.0
C850 C 0.4019 0.23614 0.72726 0.0
C851 C 0.38665 0.21813 0.71172 0.0
N852 N 0.36061 0.21836 0.68006 0.0
N853 N 0.42317 0.28976 0.73958 0.0
C854 C 0.3713 0.23584 0.69609 0.0
C855 C 0.40457 0.27214 0.7262 0.0
N856 N 0.34922 0.28906 0.68379 0.0
N857 N 0.41247 0.21893 0.7434 0.0
H858 H 0.42318 0.31621 0.74039 0.0
H859 H 0.43978 0.27828 0.74933 0.0
H860 H 0.41059 0.1926 0.74477 0.0
H861 H 0.42049 0.23079 0.75608 0.0
H862 H 0.33226 0.27715 0.67442 0.0
H863 H 0.34735 0.31542 0.68349 0.0
H864 H 0.35269 0.23008 0.66731 0.0
H865 H 0.36267 0.19205 0.67874 0.0
C866 C 0.09927 0.73853 0.22762 0.0
C867 C 0.11292 0.71888 0.21223 0.0
C868 C 0.13414 0.77079 0.19668 0.0
C869 C 0.11625 0.7906 0.21056 0.0
N870 N 0.0811 0.7939 0.23913 0.0
N871 N 0.1395 0.71614 0.18076 0.0
C872 C 0.09867 0.77459 0.22604 0.0
C873 C 0.12974 0.7349 0.1965 0.0
N874 N 0.08788 0.72269 0.24402 0.0
N875 N 0.15511 0.78616 0.18356 0.0
H876 H 0.13595 0.68996 0.17981 0.0
H877 H 0.14828 0.72681 0.16789 0.0
H878 H 0.15861 0.81234 0.18291 0.0
H879 H 0.17148 0.7728 0.17447 0.0
H880 H 0.08074 0.73556 0.25656 0.0
H881 H 0.08838 0.69636 0.24575 0.0
H882 H 0.06411 0.78384 0.24916 0.0
H883 H 0.08234 0.82038 0.23942 0.0
C884 C 0.09953 0.22491 0.79757 0.0
C885 C 0.11581 0.20335 0.78393 0.0
C886 C 0.14677 0.25217 0.77074 0.0
C887 C 0.12756 0.27409 0.78285 0.0
N888 N 0.08114 0.28199 0.80533 0.0
N889 N 0.15095 0.19683 0.7555 0.0
C890 C 0.10276 0.26067 0.79566 0.0
C891 C 0.13849 0.21703 0.76998 0.0
N892 N 0.08191 0.21122 0.81275 0.0
N893 N 0.17362 0.26471 0.76042 0.0
H894 H 0.14499 0.17112 0.75425 0.0
H895 H 0.16466 0.20616 0.74375 0.0
H896 H 0.18069 0.29025 0.76078 0.0
H897 H 0.19075 0.24937 0.75294 0.0
H898 H 0.07268 0.22564 0.82428 0.0
H899 H 0.07931 0.18512 0.81487 0.0
H900 H 0.0602 0.27345 0.81316 0.0
H901 H 0.08204 0.30838 0.80407 0.0
C902 C 0.34482 0.72696 0.30185 0.0
C903 C 0.36654 0.70906 0.28893 0.0
C904 C 0.3864 0.76271 0.27499 0.0
C905 C 0.36581 0.78068 0.28844 0.0
N906 N 0.31897 0.78045 0.31111 0.0
N907 N 0.40018 0.7088 0.2598 0.0
C908 C 0.34275 0.76298 0.30063 0.0
C909 C 0.38501 0.72666 0.27445 0.0
N910 N 0.32771 0.70986 0.31607 0.0
N911 N 0.40742 0.78021 0.2628 0.0
H912 H 0.39856 0.68241 0.25866 0.0
H913 H 0.41157 0.72002 0.24779 0.0
H914 H 0.4064 0.80654 0.2613 0.0
H915 H 0.42654 0.76888 0.25461 0.0
H916 H 0.31571 0.72175 0.32769 0.0
H917 H 0.32686 0.68352 0.31699 0.0
H918 H 0.29902 0.7688 0.31844 0.0
H919 H 0.31713 0.80681 0.31125 0.0
C920 C 0.47982 0.15344 0.53787 0.0
C921 C 0.45906 0.12965 0.54779 0.0
C922 C 0.50983 0.09685 0.55658 0.0
C923 C 0.53045 0.12337 0.54921 0.0
N924 N 0.5354 0.17896 0.53473 0.0
N925 N 0.45493 0.08117 0.56933 0.0
C926 C 0.51554 0.15234 0.54046 0.0
C927 C 0.47413 0.10175 0.55773 0.0
N928 N 0.46553 0.17608 0.52525 0.0
N929 N 0.52426 0.06708 0.56264 0.0
H930 H 0.42886 0.08395 0.57115 0.0
H931 H 0.46531 0.06316 0.57868 0.0
H932 H 0.55039 0.06283 0.56267 0.0
H933 H 0.51016 0.04552 0.56607 0.0
H934 H 0.47968 0.19193 0.51626 0.0
H935 H 0.43964 0.1763 0.52212 0.0
H936 H 0.52556 0.20231 0.53034 0.0
H937 H 0.5618 0.17862 0.53574 0.0
C938 C 0.97349 0.91382 0.00997 0.0
C939 C 0.95549 0.88488 0.01658 0.0
C940 C 0.00911 0.85538 0.02326 0.0
C941 C 0.02699 0.88552 0.01846 0.0
N942 N 0.0267 0.94481 0.00957 0.0
N943 N 0.95504 0.82873 0.03051 0.0
C944 C 0.00936 0.91507 0.01227 0.0
C945 C 0.973 0.85579 0.0235 0.0
N946 N 0.95627 0.94001 0.0014 0.0
N947 N 0.02671 0.82606 0.02687 0.0
H948 H 0.92866 0.82724 0.02973 0.0
H949 H 0.966 0.80852 0.03797 0.0
H950 H 0.05315 0.82483 0.02681 0.0
H951 H 0.01534 0.80235 0.02841 0.0
H952 H 0.96814 0.96012 0.99433 0.0
H953 H 0.92988 0.94042 3e-05 0.0
H954 H 0.01495 0.96814 0.00718 0.0
H955 H 0.05295 0.94686 0.01123 0.0
C956 C 0.49229 0.89311 0.47778 0.0
C957 C 0.47083 0.87204 0.46644 0.0
C958 C 0.52064 0.84603 0.45112 0.0
C959 C 0.54206 0.86445 0.46389 0.0
N960 N 0.54836 0.90179 0.49143 0.0
N961 N 0.4643 0.82399 0.44498 0.0
C962 C 0.52794 0.88709 0.47777 0.0
C963 C 0.48491 0.84729 0.45381 0.0
N964 N 0.47872 0.91959 0.48803 0.0
N965 N 0.53431 0.8284 0.43591 0.0
H966 H 0.438 0.82358 0.44678 0.0
H967 H 0.47353 0.80308 0.43735 0.0
H968 H 0.56033 0.82737 0.43316 0.0
H969 H 0.51971 0.81758 0.42494 0.0
H970 H 0.49339 0.93805 0.49488 0.0
H971 H 0.45276 0.92489 0.48831 0.0
H972 H 0.53906 0.91558 0.50317 0.0
H973 H 0.57453 0.89779 0.49203 0.0
C974 C 0.00155 0.14122 0.97154 0.0
C975 C 0.01939 0.12058 0.95808 0.0
C976 C 0.9654 0.0999 0.94459 0.0
C977 C 0.94785 0.12345 0.95661 0.0
N978 N 0.94728 0.15901 0.98499 0.0
N979 N 0.01948 0.07889 0.93245 0.0
C980 C 0.96543 0.14191 0.97115 0.0
C981 C 0.00162 0.09882 0.94512 0.0
N982 N 0.01942 0.16082 0.98436 0.0
N983 N 0.94748 0.07874 0.93263 0.0
H984 H 0.04573 0.07599 0.93307 0.0
H985 H 0.00883 0.06577 0.92087 0.0
H986 H 0.92121 0.07961 0.93118 0.0
H987 H 0.95808 0.0587 0.92489 0.0
H988 H 0.00874 0.17976 0.99294 0.0
H989 H 0.04565 0.15866 0.98613 0.0
H990 H 0.95797 0.17104 0.99693 0.0
H991 H 0.92079 0.15887 0.98545 0.0
C992 C 0.18679 0.51298 0.98348 0.0
C993 C 0.17341 0.48165 0.99013 0.0
C994 C 0.1783 0.50162 0.0236 0.0
C995 C 0.1845 0.53486 0.01666 0.0
N996 N 0.19312 0.57312 0.98969 0.0
N997 N 0.15353 0.44681 0.01676 0.0
C998 C 0.18904 0.54079 0.99653 0.0
C999 C 0.16898 0.47577 0.01029 0.0
N1000 N 0.19749 0.516 0.96472 0.0
N1001 N 0.18109 0.49498 0.04297 0.0
H1002 H 0.1452 0.42746 0.00763 0.0
H1003 H 0.14624 0.44323 0.03113 0.0
H1004 H 0.18839 0.51357 0.05293 0.0
H1005 H 0.1798 0.47057 0.04877 0.0
H1006 H 0.21036 0.53723 0.9595 0.0
H1007 H 0.19662 0.49581 0.95491 0.0
H1008 H 0.19224 0.57922 0.97501 0.0
H1009 H 0.19508 0.59431 -0.00133 0.0
C1010 C 0.74964 0.91686 0.23219 0.0
C1011 C 0.78253 0.92154 0.24003 0.0
C1012 C 0.75916 0.91731 0.27282 0.0
C1013 C 0.72774 0.90666 0.26483 0.0
N1014 N 0.69441 0.89148 0.23664 0.0
N1015 N 0.81972 0.92314 0.26789 0.0
C1016 C 0.72309 0.90553 0.24443 0.0
C1017 C 0.78763 0.92143 0.2604 0.0
N1018 N 0.74384 0.9234 0.21302 0.0
N1019 N 0.76163 0.92399 0.29221 0.0
H1020 H 0.84136 0.9261 0.25937 0.0
H1021 H 0.82514 0.91903 0.28249 0.0
H1022 H 0.74109 0.92165 0.30168 0.0
H1023 H 0.78297 0.93498 0.29855 0.0
H1024 H 0.71966 0.9235 0.20688 0.0
H1025 H 0.76281 0.93225 0.20373 0.0
H1026 H 0.69156 0.88671 0.22187 0.0
H1027 H 0.67474 0.88145 0.24496 0.0
C1028 C 0.32806 0.51969 0.52727 0.0
C1029 C 0.34485 0.4906 0.51971 0.0
C1030 C 0.34369 0.51566 0.48731 0.0
C1031 C 0.3324 0.54671 0.49543 0.0
N1032 N 0.3155 0.57964 0.52329 0.0
N1033 N 0.37332 0.46291 0.49289 0.0
C1034 C 0.32461 0.54907 0.51544 0.0
C1035 C 0.3536 0.48888 0.49977 0.0
N1036 N 0.31473 0.51891 0.54556 0.0
N1037 N 0.34466 0.51174 0.46762 0.0
H1038 H 0.38235 0.44324 0.50157 0.0
H1039 H 0.38355 0.46261 0.47897 0.0
H1040 H 0.33697 0.53082 0.45807 0.0
H1041 H 0.34959 0.48856 0.46088 0.0
H1042 H 0.2994 0.53811 0.55118 0.0
H1043 H 0.31633 0.49758 0.5545 0.0
H1044 H 0.31344 0.58383 0.53815 0.0
H1045 H 0.31209 0.60151 0.51498 0.0
C1046 C 0.76137 0.05622 0.74125 0.0
C1047 C 0.75775 0.06358 0.76123 0.0
C1048 C 0.69662 0.07233 0.7569 0.0
C1049 C 0.70157 0.07119 0.73655 0.0
N1050 N 0.73717 0.05973 0.70893 0.0
N1051 N 0.7226 0.0786 0.78857 0.0
C1052 C 0.73348 0.06197 0.7286 0.0
C1053 C 0.72539 0.07079 0.76931 0.0
N1054 N 0.79153 0.04358 0.73453 0.0
N1055 N 0.66457 0.07564 0.7643 0.0
H1056 H 0.74294 0.07714 0.79821 0.0
H1057 H 0.70066 0.08836 0.79489 0.0
H1058 H 0.64304 0.07804 0.75562 0.0
H1059 H 0.65887 0.0732 0.77897 0.0
H1060 H 0.79535 0.03511 0.72041 0.0
H1061 H 0.81213 0.03887 0.74367 0.0
H1062 H 0.76046 0.05715 0.70196 0.0
H1063 H 0.71665 0.06153 0.69941 0.0
C1064 C 0.81089 0.55101 0.9865 0.0
C1065 C 0.81105 0.54441 0.00673 0.0
C1066 C 0.8264 0.48511 0.0008 0.0
C1067 C 0.82589 0.49155 0.98054 0.0
N1068 N 0.80803 0.52734 0.9541 0.0
N1069 N 0.80859 0.50376 0.03272 0.0
C1070 C 0.81489 0.52347 0.97339 0.0
C1071 C 0.81519 0.51085 0.0137 0.0
N1072 N 0.80932 0.58363 0.97976 0.0
N1073 N 0.83993 0.45561 0.0079 0.0
H1074 H 0.79997 0.52226 0.0424 0.0
H1075 H 0.8082 0.47917 0.0383 0.0
H1076 H 0.84965 0.43635 -0.00085 0.0
H1077 H 0.84438 0.45149 0.0226 0.0
H1078 H 0.81338 0.59003 0.96529 0.0
H1079 H 0.80642 0.6047 0.98874 0.0
H1080 H 0.79687 0.54912 0.94833 0.0
H1081 H 0.81027 0.50743 0.94418 0.0
C1082 C 0.24736 0.05063 0.77071 0.0
C1083 C 0.21938 0.07088 0.76477 0.0
C1084 C 0.24593 0.07974 0.73313 0.0
C1085 C 0.27589 0.06421 0.74018 0.0
N1086 N 0.30643 0.03523 0.76545 0.0
N1087 N 0.19382 0.10878 0.74127 0.0
C1088 C 0.27691 0.04939 0.75886 0.0
C1089 C 0.21882 0.08614 0.74611 0.0
N1090 N 0.24534 0.03222 0.78746 0.0
N1091 N 0.24356 0.08859 0.71401 0.0
H1092 H 0.17386 0.11525 0.75047 0.0
H1093 H 0.19449 0.12365 0.7288 0.0
H1094 H 0.26321 0.0845 0.70413 0.0
H1095 H 0.22109 0.09687 0.70758 0.0
H1096 H 0.26358 0.01458 0.79174 0.0
H1097 H 0.22388 0.03246 0.79634 0.0
H1098 H 0.31017 0.02756 0.77973 0.0
H1099 H 0.32793 0.03266 0.75673 0.0
C1100 C 0.65535 0.5036 0.51541 0.0
C1101 C 0.65123 0.47017 0.50815 0.0
C1102 C 0.65772 0.49157 0.47505 0.0
C1103 C 0.65557 0.52528 0.48217 0.0
N1104 N 0.64703 0.56343 0.50932 0.0
N1105 N 0.64371 0.43266 0.48066 0.0
C1106 C 0.65339 0.53146 0.50243 0.0
C1107 C 0.65155 0.46406 0.48786 0.0
N1108 N 0.66154 0.5087 0.53469 0.0
N1109 N 0.66595 0.48587 0.45608 0.0
H1110 H 0.63791 0.41185 0.48937 0.0
H1111 H 0.63986 0.428 0.46596 0.0
H1112 H 0.6712 0.50555 0.4464 0.0
H1113 H 0.67102 0.46176 0.45054 0.0
H1114 H 0.66794 0.53233 0.54044 0.0
H1115 H 0.66384 0.48873 0.54455 0.0
H1116 H 0.64141 0.56838 0.52381 0.0
H1117 H 0.64408 0.58463 0.50045 0.0
C1118 C 0.22239 0.92461 0.25033 0.0
C1119 C 0.22535 0.92802 0.22989 0.0
C1120 C 0.28448 0.94639 0.2334 0.0
C1121 C 0.28139 0.94262 0.25374 0.0
N1122 N 0.2453 0.93961 0.28178 0.0
N1123 N 0.25534 0.95164 0.20256 0.0
C1124 C 0.24943 0.93583 0.26223 0.0
C1125 C 0.25519 0.94209 0.22161 0.0
N1126 N 0.19524 0.90816 0.25837 0.0
N1127 N 0.31559 0.95198 0.22524 0.0
H1128 H 0.23402 0.94937 0.19368 0.0
H1129 H 0.27533 0.96483 0.19616 0.0
H1130 H 0.33746 0.95607 0.23343 0.0
H1131 H 0.32006 0.95068 0.21038 0.0
H1132 H 0.19393 0.9018 0.27301 0.0
H1133 H 0.17541 0.89785 0.25031 0.0
H1134 H 0.2218 0.93793 0.28865 0.0
H1135 H 0.26493 0.94802 0.29076 0.0
C1136 C 0.67496 0.98761 0.52043 0.0
C1137 C 0.68734 0.01917 0.51363 0.0
C1138 C 0.69636 0.99438 0.4815 0.0
C1139 C 0.67767 0.96536 0.48735 0.0
N1140 N 0.6466 0.93512 0.51222 0.0
N1141 N 0.7093 0.05361 0.48756 0.0
C1142 C 0.66681 0.96177 0.50688 0.0
C1143 C 0.69857 0.02273 0.49421 0.0
N1144 N 0.67094 0.98256 0.53989 0.0
N1145 N 0.71214 0.99464 0.46386 0.0
H1146 H 0.71184 0.07484 0.49647 0.0
H1147 H 0.71375 0.05875 0.47297 0.0
H1148 H 0.71122 0.97401 0.45436 0.0
H1149 H 0.72874 0.01374 0.45947 0.0
H1150 H 0.66486 0.95909 0.54593 0.0
H1151 H 0.67728 0.0011 0.55009 0.0
H1152 H 0.63473 0.93356 0.52568 0.0
H1153 H 0.63928 0.91583 0.50277 0.0
C1154 C 0.2192 0.44017 0.74228 0.0
C1155 C 0.22027 0.42437 0.76072 0.0
C1156 C 0.27685 0.40174 0.75397 0.0
C1157 C 0.27648 0.41845 0.73573 0.0
N1158 N 0.25085 0.45916 0.7141 0.0
N1159 N 0.25309 0.39852 0.78626 0.0
C1160 C 0.2487 0.43946 0.73036 0.0
C1161 C 0.25015 0.40792 0.76725 0.0
N1162 N 0.18964 0.45446 0.73583 0.0
N1163 N 0.30138 0.37821 0.75815 0.0
H1164 H 0.23406 0.4031 0.79647 0.0
H1165 H 0.27561 0.38948 0.79229 0.0
H1166 H 0.32092 0.37177 0.74864 0.0
H1167 H 0.30052 0.36258 0.77033 0.0
H1168 H 0.18606 0.46284 0.72166 0.0
H1169 H 0.16782 0.45603 0.74436 0.0
H1170 H 0.23285 0.47744 0.71039 0.0
H1171 H 0.27223 0.45935 0.70516 0.0
C1172 C 0.81058 0.00066 0.0094 0.0
C1173 C 0.80006 0.96948 0.00116 0.0
C1174 C 0.7925 0.99739 0.96979 0.0
C1175 C 0.80944 0.02645 0.97718 0.0
N1176 N 0.83812 0.0545 0.00383 0.0
N1177 N 0.78133 0.93714 0.97348 0.0
C1178 C 0.81889 0.02813 0.99704 0.0
C1179 C 0.79047 0.96763 0.9814 0.0
N1180 N 0.81284 0.00376 0.02909 0.0
N1181 N 0.77815 -0.00155 0.95176 0.0
H1182 H 0.77884 0.91502 0.98167 0.0
H1183 H 0.7781 0.93335 0.95866 0.0
H1184 H 0.7789 0.02012 0.94305 0.0
H1185 H 0.76284 0.97919 0.94623 0.0
H1186 H 0.81736 0.02681 0.03607 0.0
H1187 H 0.80663 0.98392 0.03848 0.0
H1188 H 0.8489 0.05478 0.01762 0.0
H1189 H 0.84611 0.07476 0.99526 0.0
C1190 C 0.23776 0.57938 0.27526 0.0
C1191 C 0.26444 0.55733 0.26963 0.0
C1192 C 0.23592 0.54655 0.23873 0.0
C1193 C 0.21272 0.57318 0.24297 0.0
N1194 N 0.19397 0.61805 0.26451 0.0
N1195 N 0.28992 0.51979 0.24627 0.0
C1196 C 0.21377 0.59004 0.26118 0.0
C1197 C 0.26363 0.54055 0.25149 0.0
N1198 N 0.23587 0.59082 0.29394 0.0
N1199 N 0.23106 0.52674 0.22269 0.0
H1200 H 0.3096 0.51359 0.25578 0.0
H1201 H 0.29304 0.51001 0.23236 0.0
H1202 H 0.21062 0.53019 0.21326 0.0
H1203 H 0.24533 0.50509 0.21968 0.0
H1204 H 0.21507 0.60413 0.29939 0.0
H1205 H 0.25356 0.58422 0.30454 0.0
H1206 H 0.19667 0.63361 0.27662 0.0
H1207 H 0.17695 0.6279 0.25441 0.0
C1208 C 0.34506 0.98791 0.52231 0.0
C1209 C 0.34706 0.02215 0.51601 0.0
C1210 C 0.34901 0.00263 0.48238 0.0
C1211 C 0.35397 0.96887 0.48894 0.0
N1212 N 0.36113 0.92979 0.51574 0.0
N1213 N 0.35684 0.06195 0.48975 0.0
C1214 C 0.35278 0.96142 0.50907 0.0
C1215 C 0.3502 0.02964 0.49594 0.0
N1216 N 0.33546 0.98072 0.54089 0.0
N1217 N 0.34273 0.00889 0.46323 0.0
H1218 H 0.35987 0.08258 0.49903 0.0
H1219 H 0.3629 0.06766 0.4754 0.0
H1220 H 0.34058 0.98952 0.45296 0.0
H1221 H 0.33589 0.03279 0.45802 0.0
H1222 H 0.33062 0.95612 0.54574 0.0
H1223 H 0.32876 -0.00041 0.55082 0.0
H1224 H 0.36419 0.92431 0.53041 0.0
H1225 H 0.36816 0.90977 0.50671 0.0
C1226 C 0.73077 0.59027 0.24501 0.0
C1227 C 0.73178 0.58088 0.26488 0.0
C1228 C 0.78854 0.55639 0.26043 0.0
C1229 C 0.78696 0.56507 0.24051 0.0
N1230 N 0.75326 0.58076 0.2128 0.0
N1231 N 0.75752 0.54789 0.29042 0.0
C1232 C 0.75684 0.57878 0.23247 0.0
C1233 C 0.75941 0.56163 0.27226 0.0
N1234 N 0.70637 0.6121 0.23834 0.0
N1235 N 0.81829 0.54492 0.26827 0.0
H1236 H 0.73635 0.55094 0.29936 0.0
H1237 H 0.77543 0.53094 0.2959 0.0
H1238 H 0.83997 0.54023 0.26001 0.0
H1239 H 0.82215 0.54212 0.28312 0.0
H1240 H 0.70682 0.62261 0.22449 0.0
H1241 H 0.68749 0.6225 0.24712 0.0
H1242 H 0.7306 0.58762 0.20604 0.0
H1243 H 0.77188 0.57203 0.20323 0.0
C1244 C 0.16396 0.99442 0.01446 0.0
C1245 C 0.17738 0.96431 0.0063 0.0
C1246 C 0.18164 0.99238 0.97479 0.0
C1247 C 0.16183 0.01966 0.98213 0.0
N1248 N 0.13077 0.045 0.00881 0.0
N1249 N 0.19886 0.93359 0.97866 0.0
C1250 C 0.15258 0.02068 0.00203 0.0
C1251 C 0.18682 0.96313 0.9865 0.0
N1252 N 0.16175 0.99756 0.03415 0.0
N1253 N 0.19579 0.99469 0.95675 0.0
H1254 H 0.20379 0.91199 0.98694 0.0
H1255 H 0.20219 0.92993 0.96383 0.0
H1256 H 0.19289 0.01609 0.94797 0.0
H1257 H 0.21297 0.97698 0.95128 0.0
H1258 H 0.15501 0.02013 0.04106 0.0
H1259 H 0.17018 0.97857 0.04356 0.0
H1260 H 0.12035 0.04444 0.02269 0.0
H1261 H 0.12036 0.06404 0.00017 0.0
C1262 C 0.78732 0.40071 0.73573 0.0
C1263 C 0.78537 0.41289 0.75509 0.0
C1264 C 0.72644 0.43065 0.74993 0.0
C1265 C 0.72849 0.41861 0.73057 0.0
N1266 N 0.76289 0.40123 0.70347 0.0
N1267 N 0.757 0.4476 0.77887 0.0
C1268 C 0.7597 0.40666 0.72296 0.0
C1269 C 0.75614 0.43058 0.7616 0.0
N1270 N 0.81443 0.38157 0.72986 0.0
N1271 N 0.69582 0.44015 0.75756 0.0
H1272 H 0.77862 0.44834 0.78762 0.0
H1273 H 0.73762 0.46365 0.78357 0.0
H1274 H 0.6734 0.44066 0.74954 0.0
H1275 H 0.69213 0.44518 0.77223 0.0
H1276 H 0.81511 0.36851 0.71673 0.0
H1277 H 0.83528 0.37646 0.73867 0.0
H1278 H 0.78593 0.39564 0.69677 0.0
H1279 H 0.74308 0.4057 0.69374 0.0
C1280 C 0.12546 0.76046 0.0258 0.0
C1281 C 0.14431 0.78144 0.03852 0.0
C1282 C 0.16725 0.73184 0.05529 0.0
C1283 C 0.14589 0.71095 0.04382 0.0
N1284 N 0.11114 0.70321 0.01541 0.0
N1285 N 0.18978 0.78841 0.06135 0.0
C1286 C 0.12738 0.72458 0.02798 0.0
C1287 C 0.16763 0.76743 0.05189 0.0
N1288 N 0.10456 0.77512 0.01236 0.0
N1289 N 0.18606 0.71761 0.06985 0.0
H1290 H 0.19054 0.81453 0.05876 0.0
H1291 H 0.20905 0.77998 0.07047 0.0
H1292 H 0.18766 0.69137 0.0719 0.0
H1293 H 0.1993 0.73151 0.0802 0.0
H1294 H 0.08696 0.76187 0.00405 0.0
H1295 H 0.10439 0.80126 0.00981 0.0
H1296 H 0.09909 0.71113 0.00278 0.0
H1297 H 0.11167 0.67687 0.0169 0.0
C1298 C 0.50901 0.88278 0.27312 0.0
C1299 C 0.52886 0.89819 0.28773 0.0
C1300 C 0.47863 0.9271 0.30042 0.0
C1301 C 0.45804 0.90617 0.28854 0.0
N1302 N 0.45329 0.8639 0.26315 0.0
N1303 N 0.53389 0.93587 0.31511 0.0
C1304 C 0.47305 0.88455 0.27439 0.0
C1305 C 0.51415 0.92113 0.30114 0.0
N1306 N 0.52467 0.86632 0.25813 0.0
N1307 N 0.46398 0.95264 0.31094 0.0
H1308 H 0.56023 0.93298 0.31557 0.0
H1309 H 0.52409 0.94953 0.32677 0.0
H1310 H 0.43798 0.95778 0.31029 0.0
H1311 H 0.47774 0.97061 0.31874 0.0
H1312 H 0.51187 0.85713 0.24601 0.0
H1313 H 0.55105 0.86482 0.25696 0.0
H1314 H 0.463 0.84431 0.25464 0.0
H1315 H 0.42691 0.86496 0.26298 0.0
C1316 C 0.35559 0.23398 0.53041 0.0
C1317 C 0.3319 0.21986 0.54377 0.0
C1318 C 0.31594 0.2768 0.55482 0.0
C1319 C 0.34133 0.2905 0.54261 0.0
N1320 N 0.37754 0.2848 0.51479 0.0
N1321 N 0.28249 0.22744 0.56381 0.0
C1322 C 0.35839 0.26989 0.52895 0.0
C1323 C 0.30964 0.2413 0.55433 0.0
N1324 N 0.37715 0.21344 0.5202 0.0
N1325 N 0.29897 0.29758 0.56741 0.0
H1326 H 0.27714 0.20148 0.56326 0.0
H1327 H 0.26368 0.24174 0.5706 0.0
H1328 H 0.30174 0.32395 0.56726 0.0
H1329 H 0.2832 0.28874 0.57842 0.0
H1330 H 0.39786 0.22246 0.51237 0.0
H1331 H 0.37563 0.18708 0.52013 0.0
H1332 H 0.38815 0.27156 0.50321 0.0
H1333 H 0.38014 0.31111 0.51363 0.0
C1334 C 0.96306 0.06148 0.79829 0.0
C1335 C 0.94806 0.08207 0.78383 0.0
C1336 C 0.00379 0.09516 0.77021 0.0
C1337 C 0.01896 0.07847 0.78631 0.0
N1338 N 0.01467 0.03704 0.81178 0.0
N1339 N 0.9521 0.10708 0.75217 0.0
C1340 C -0.00102 0.05859 0.79907 0.0
C1341 C 0.96782 0.09497 0.7684 0.0
N1342 N 0.94265 0.04542 0.81141 0.0
N1343 N 0.0234 0.11302 0.75744 0.0
H1344 H 0.92583 0.10618 0.75042 0.0
H1345 H 0.96495 0.11455 0.7397 0.0
H1346 H 0.04981 0.11231 0.75754 0.0
H1347 H 0.01358 0.12958 0.7471 0.0
H1348 H 0.95141 0.03305 0.82375 0.0
H1349 H 0.91632 0.04462 0.8097 0.0
H1350 H 0.00192 0.02043 0.82096 0.0
H1351 H 0.041 0.0339 0.81202 0.0
C1352 C 0.17747 0.23216 0.94518 0.0
C1353 C 0.15009 0.21606 0.9548 0.0
C1354 C 0.13241 0.27062 0.96872 0.0
C1355 C 0.15565 0.2872 0.95617 0.0
N1356 N 0.20248 0.28482 0.93378 0.0
N1357 N 0.1017 0.21894 0.97625 0.0
C1358 C 0.17917 0.26819 0.94498 0.0
C1359 C 0.12811 0.23486 0.96713 0.0
N1360 N 0.20196 0.21275 0.9365 0.0
N1361 N 0.11405 0.28905 0.98187 0.0
H1362 H 0.09849 0.1927 0.97622 0.0
H1363 H 0.08191 0.2317 0.98311 0.0
H1364 H 0.1157 0.31535 0.98312 0.0
H1365 H 0.09926 0.27817 0.99272 0.0
H1366 H 0.22413 0.22254 0.9305 0.0
H1367 H 0.2015 0.18623 0.93679 0.0
H1368 H 0.2175 0.27302 0.92334 0.0
H1369 H 0.20616 0.31104 0.93461 0.0
C1370 C 0.9735 0.8989 0.21807 0.0
C1371 C 0.95582 0.92237 0.20602 0.0
C1372 C 0.00934 0.94907 0.19659 0.0
C1373 C 0.02702 0.92323 0.2067 0.0
N1374 N 0.02712 0.88169 0.23239 0.0
N1375 N 0.95527 0.97654 0.19001 0.0
C1376 C 0.00947 0.90108 0.2194 0.0
C1377 C 0.97336 0.9499 0.19744 0.0
N1378 N 0.95655 0.87301 0.22702 0.0
N1379 N 0.02706 0.97184 0.18558 0.0
H1380 H 0.92881 0.97763 0.19091 0.0
H1381 H 0.96631 -0.00133 0.18469 0.0
H1382 H 0.05356 0.97301 0.18574 0.0
H1383 H 0.01576 0.98876 0.17594 0.0
H1384 H 0.9686 0.85211 0.23322 0.0
H1385 H 0.93026 0.8715 0.22784 0.0
H1386 H 0.01563 0.86746 0.24328 0.0
H1387 H 0.05345 0.88234 0.23362 0.0
C1388 C 0.29907 0.7311 0.47014 0.0
C1389 C 0.31931 0.7138 0.4563 0.0
C1390 C 0.33347 0.76767 0.44057 0.0
C1391 C 0.31739 0.78524 0.456 0.0
N1392 N 0.28547 0.78479 0.48578 0.0
N1393 N 0.35686 0.71483 0.42859 0.0
C1394 C 0.29986 0.76729 0.47075 0.0
C1395 C 0.33661 0.73185 0.44149 0.0
N1396 N 0.27929 0.71287 0.48266 0.0
N1397 N 0.34495 0.78526 0.42478 0.0
H1398 H 0.35842 0.68841 0.42797 0.0
H1399 H 0.3737 0.72682 0.4192 0.0
H1400 H 0.3431 0.81159 0.4236 0.0
H1401 H 0.35347 0.77374 0.41209 0.0
H1402 H 0.26154 0.72379 0.49195 0.0
H1403 H 0.27886 0.68636 0.48274 0.0
H1404 H 0.27554 0.77327 0.49812 0.0
H1405 H 0.28513 0.81127 0.48644 0.0
C1406 C 0.45693 0.04344 0.70512 0.0
C1407 C 0.44567 0.05623 0.72321 0.0
C1408 C 0.50406 0.05503 0.73538 0.0
C1409 C 0.51567 0.04837 0.71629 0.0
N1410 N 0.50346 0.03862 0.6824 0.0
N1411 N 0.458 0.07524 0.75569 0.0
C1412 C 0.49222 0.0426 0.70102 0.0
C1413 C 0.469 0.06174 0.73854 0.0
N1414 N 0.43372 0.03195 0.69193 0.0
N1415 N 0.52664 0.05473 0.75043 0.0
H1416 H 0.43246 0.07998 0.75864 0.0
H1417 H 0.4743 0.08367 0.76656 0.0
H1418 H 0.55245 0.0497 0.74847 0.0
H1419 H 0.51943 0.05628 0.76492 0.0
H1420 H 0.44037 0.01953 0.67914 0.0
H1421 H 0.40768 0.03175 0.69477 0.0
H1422 H 0.48736 0.03856 0.67042 0.0
H1423 H 0.52909 0.03795 0.67865 0.0
C1424 C 0.85226 0.27704 0.96415 0.0
C1425 C 0.83186 0.29631 0.95123 0.0
C1426 C 0.80331 0.24482 0.93996 0.0
C1427 C 0.82599 0.22526 0.95139 0.0
N1428 N 0.86527 0.22197 0.9782 0.0
N1429 N 0.78194 0.30081 0.93137 0.0
C1430 C 0.84799 0.24116 0.96493 0.0
C1431 C 0.80527 0.28082 0.94064 0.0
N1432 N 0.87717 0.29273 0.97465 0.0
N1433 N 0.78072 0.22872 0.92804 0.0
H1434 H 0.78272 0.32731 0.93202 0.0
H1435 H 0.76039 0.29155 0.92444 0.0
H1436 H 0.77698 0.20247 0.92843 0.0
H1437 H 0.76627 0.24096 0.91752 0.0
H1438 H 0.8961 0.27989 0.98221 0.0
H1439 H 0.87977 0.31903 0.97532 0.0
H1440 H 0.87928 0.23215 0.98959 0.0
H1441 H 0.86349 0.19562 0.9789 0.0
C1442 C 0.69375 0.76844 0.43919 0.0
C1443 C 0.70065 0.78392 0.45731 0.0
C1444 C 0.714 0.72829 0.47134 0.0
C1445 C 0.70231 0.71268 0.45406 0.0
N1446 N 0.67729 0.71736 0.42215 0.0
N1447 N 0.71636 0.77953 0.49096 0.0
C1448 C 0.69153 0.73257 0.43804 0.0
C1449 C 0.71097 0.76416 0.47346 0.0
N1450 N 0.68986 0.78811 0.42302 0.0
N1451 N 0.72819 0.70874 0.48557 0.0
H1452 H 0.71511 0.80581 0.49283 0.0
H1453 H 0.72018 0.76629 0.50383 0.0
H1454 H 0.73053 0.6824 0.48436 0.0
H1455 H 0.74006 0.71868 0.4978 0.0
H1456 H 0.68816 0.77825 0.40904 0.0
H1457 H 0.69172 0.81452 0.42337 0.0
H1458 H 0.66509 0.7308 0.41117 0.0
H1459 H 0.67518 0.69111 0.42056 0.0
C1460 C 0.86168 0.73305 0.02495 0.0
C1461 C 0.83973 0.71841 0.03896 0.0
C1462 C 0.81559 0.77413 0.04653 0.0
C1463 C 0.83972 0.78901 0.0339 0.0
N1464 N 0.87887 0.78381 0.00739 0.0
N1465 N 0.79022 0.72239 0.05922 0.0
C1466 C 0.86038 0.7687 0.02176 0.0
C1467 C 0.81469 0.7382 0.04845 0.0
N1468 N 0.88498 0.71313 0.0156 0.0
N1469 N 0.79466 0.79462 0.05719 0.0
H1470 H 0.78906 0.696 0.06061 0.0
H1471 H 0.76968 0.73484 0.06552 0.0
H1472 H 0.79337 0.82083 0.05501 0.0
H1473 H 0.7792 0.78606 0.06839 0.0
H1474 H 0.90447 0.72258 0.00698 0.0
H1475 H 0.8856 0.68676 0.01701 0.0
H1476 H 0.89275 0.77054 0.99702 0.0
H1477 H 0.87799 0.80995 0.00487 0.0
C1478 C 0.64039 0.25315 0.52385 0.0
C1479 C 0.65899 0.27277 0.53735 0.0
C1480 C 0.68698 0.22153 0.54942 0.0
C1481 C 0.66299 0.20162 0.53919 0.0
N1482 N 0.61756 0.19796 0.51558 0.0
N1483 N 0.70198 0.27707 0.56203 0.0
C1484 C 0.64052 0.21713 0.52563 0.0
C1485 C 0.68334 0.2574 0.54965 0.0
N1486 N 0.62203 0.26906 0.50969 0.0
N1487 N 0.71319 0.20585 0.55885 0.0
H1488 H 0.7012 0.30359 0.56172 0.0
H1489 H 0.71715 0.26726 0.57305 0.0
H1490 H 0.71659 0.17953 0.55844 0.0
H1491 H 0.73316 0.21882 0.56539 0.0
H1492 H 0.61049 0.25635 0.49821 0.0
H1493 H 0.62084 0.29544 0.50842 0.0
H1494 H 0.59762 0.20821 0.50758 0.0
H1495 H 0.61698 0.17156 0.5159 0.0
C1496 C 0.9945 0.45204 0.77575 0.0
C1497 C 0.97491 0.43071 0.78798 0.0
C1498 C 0.02663 0.40981 0.8037 0.0
C1499 C 0.04632 0.42791 0.78993 0.0
N1500 N 0.05004 0.46481 0.76218 0.0
N1501 N 0.97168 0.3878 0.81299 0.0
C1502 C 0.03057 0.44897 0.77587 0.0
C1503 C 0.9908 0.4092 0.8018 0.0
N1504 N 0.97856 0.47514 0.76407 0.0
N1505 N 0.04218 0.39431 0.81908 0.0
H1506 H 0.94522 0.38815 0.81323 0.0
H1507 H 0.98194 0.36824 0.8213 0.0
H1508 H 0.0684 0.39431 0.82108 0.0
H1509 H 0.02913 0.3841 0.83084 0.0
H1510 H 0.99128 0.49381 0.75624 0.0
H1511 H 0.95219 0.47716 0.76318 0.0
H1512 H 0.0401 0.47755 0.75024 0.0
H1513 H 0.0765 0.46345 0.76209 0.0
C1514 C 0.48219 0.56315 0.30147 0.0
C1515 C 0.46126 0.58407 0.28976 0.0
C1516 C 0.51187 0.60722 0.27385 0.0
C1517 C 0.53209 0.59203 0.2884 0.0
N1518 N 0.53791 0.55407 0.31556 0.0
N1519 N 0.45584 0.62602 0.26426 0.0
C1520 C 0.51773 0.56908 0.30189 0.0
C1521 C 0.47591 0.6055 0.27541 0.0
N1522 N 0.46783 0.53763 0.3121 0.0
N1523 N 0.52715 0.6235 0.25869 0.0
H1524 H 0.42946 0.62486 0.26423 0.0
H1525 H 0.4653 0.64553 0.25562 0.0
H1526 H 0.55349 0.62498 0.2573 0.0
H1527 H 0.51402 0.63258 0.24666 0.0
H1528 H 0.48178 0.51967 0.31981 0.0
H1529 H 0.44182 0.53251 0.31165 0.0
H1530 H 0.52851 0.54034 0.32728 0.0
H1531 H 0.56429 0.55665 0.31563 0.0
C1532 C 0.49618 0.44698 0.70479 0.0
C1533 C 0.47719 0.42061 0.71353 0.0
C1534 C 0.52986 0.39323 0.72429 0.0
C1535 C 0.54806 0.41464 0.7114 0.0
N1536 N 0.55091 0.46601 0.69266 0.0
N1537 N 0.47513 0.37079 0.73392 0.0
C1538 C 0.53192 0.44326 0.70297 0.0
C1539 C 0.49378 0.39493 0.72449 0.0
N1540 N 0.47961 0.47518 0.69813 0.0
N1541 N 0.54684 0.37114 0.73612 0.0
H1542 H 0.44901 0.37265 0.73587 0.0
H1543 H 0.48528 0.34834 0.7394 0.0
H1544 H 0.57315 0.36933 0.73663 0.0
H1545 H 0.53517 0.35699 0.74698 0.0
H1546 H 0.49168 0.49646 0.69246 0.0
H1547 H 0.45341 0.47825 0.69975 0.0
H1548 H 0.54078 0.48552 0.68429 0.0
H1549 H 0.57741 0.46492 0.69238 0.0
C1550 C 0.97979 0.56484 0.19381 0.0
C1551 C 0.96061 0.55808 0.2108 0.0
C1552 C 0.01296 0.55106 0.22963 0.0
C1553 C 0.03181 0.56158 0.2132 0.0
N1554 N 0.03435 0.5797 0.17984 0.0
N1555 N 0.95759 0.54581 0.24494 0.0
C1556 C 0.01558 0.56844 0.19526 0.0
C1557 C 0.97683 0.5512 0.22873 0.0
N1558 N 0.96371 0.56796 0.1763 0.0
N1559 N 0.02972 0.54072 0.24595 0.0
H1560 H 0.93114 0.54429 0.24453 0.0
H1561 H 0.96749 0.54438 0.2589 0.0
H1562 H 0.05616 0.54079 0.24702 0.0
H1563 H 0.01782 0.52982 0.25789 0.0
H1564 H 0.97633 0.56914 0.16307 0.0
H1565 H 0.9374 0.56711 0.17471 0.0
H1566 H 0.0239 0.58938 0.16714 0.0
H1567 H 0.0608 0.58112 0.18004 0.0
loop_
_geom_bond_atom_site_label_1
_geom_bond_atom_site_label_2
_geom_bond_distance
_geom_bond_site_symmetry_2
_ccdc_geom_bond_type
C0 O1 1.160 . S
C0 O7 1.185 . S
O1 C0 1.160 . S
O2 Zn3 1.899 . S
O2 C10 1.284 . S
Zn3 O2 1.899 . S
Zn3 O4 2.032 . S
Zn3 O7 2.086 . S
Zn3 O12 1.977 . S
O4 Zn3 2.032 . S
O4 C8 1.278 . S
C5 O6 1.203 . S
C5 O12 1.267 . S
O6 C5 1.203 . S
O7 C0 1.185 . S
O7 Zn3 2.086 . S
C8 O4 1.278 . S
C8 O9 1.211 . S
O9 C8 1.211 . S
C10 O2 1.284 . S
C10 O11 1.273 . S
O11 C10 1.273 . S
O12 Zn3 1.977 . S
O12 C5 1.267 . S
C13 O14 1.160 . S
C13 O20 1.185 . S
O14 C13 1.160 . S
O15 Zn16 1.899 . S
O15 C23 1.284 . S
Zn16 O15 1.899 . S
Zn16 O17 2.032 . S
Zn16 O20 2.086 . S
Zn16 O25 1.977 . S
O17 Zn16 2.032 . S
O17 C21 1.278 . S
C18 O19 1.203 . S
C18 O25 1.267 . S
O19 C18 1.203 . S
O20 C13 1.185 . S
O20 Zn16 2.086 . S
C21 O17 1.278 . S
C21 O22 1.211 . S
O22 C21 1.211 . S
C23 O15 1.284 . S
C23 O24 1.273 . S
O24 C23 1.273 . S
O25 Zn16 1.977 . S
O25 C18 1.267 . S
C26 O27 1.160 . S
C26 O33 1.185 . S
O27 C26 1.160 . S
O28 Zn29 1.899 . S
O28 C36 1.284 . S
Zn29 O28 1.899 . S
Zn29 O30 2.032 . S
Zn29 O33 2.086 . S
Zn29 O38 1.977 . S
O30 Zn29 2.032 . S
O30 C34 1.278 . S
C31 O32 1.203 . S
C31 O38 1.267 . S
O32 C31 1.203 . S
O33 C26 1.185 . S
O33 Zn29 2.086 . S
C34 O30 1.278 . S
C34 O35 1.211 . S
O35 C34 1.211 . S
C36 O28 1.284 . S
C36 O37 1.273 . S
O37 C36 1.273 . S
O38 Zn29 1.977 . S
O38 C31 1.267 . S
C39 O40 1.160 . S
C39 O46 1.185 . S
O40 C39 1.160 . S
O41 Zn42 1.899 . S
O41 C49 1.284 . S
Zn42 O41 1.899 . S
Zn42 O43 2.032 . S
Zn42 O46 2.086 . S
Zn42 O51 1.977 . S
O43 Zn42 2.032 . S
O43 C47 1.278 . S
C44 O45 1.203 . S
C44 O51 1.267 . S
O45 C44 1.203 . S
O46 C39 1.185 . S
O46 Zn42 2.086 . S
C47 O43 1.278 . S
C47 O48 1.211 . S
O48 C47 1.211 . S
C49 O41 1.284 . S
C49 O50 1.273 . S
O50 C49 1.273 . S
O51 Zn42 1.977 . S
O51 C44 1.267 . S
C52 O53 1.160 . S
C52 O59 1.185 . S
O53 C52 1.160 . S
O54 Zn55 1.899 . S
O54 C62 1.284 . S
Zn55 O54 1.899 . S
Zn55 O56 2.032 . S
Zn55 O59 2.086 . S
Zn55 O64 1.977 . S
O56 Zn55 2.032 . S
O56 C60 1.278 . S
C57 O58 1.203 . S
C57 O64 1.267 . S
O58 C57 1.203 . S
O59 C52 1.185 . S
O59 Zn55 2.086 . S
C60 O56 1.278 . S
C60 O61 1.211 . S
O61 C60 1.211 . S
C62 O54 1.284 . S
C62 O63 1.273 . S
O63 C62 1.273 . S
O64 Zn55 1.977 . S
O64 C57 1.267 . S
C65 O66 1.160 . S
C65 O72 1.185 . S
O66 C65 1.160 . S
O67 Zn68 1.899 . S
O67 C75 1.284 . S
Zn68 O67 1.899 . S
Zn68 O69 2.032 . S
Zn68 O72 2.086 . S
Zn68 O77 1.977 . S
O69 Zn68 2.032 . S
O69 C73 1.278 . S
C70 O71 1.203 . S
C70 O77 1.267 . S
O71 C70 1.203 . S
O72 C65 1.185 . S
O72 Zn68 2.086 . S
C73 O69 1.278 . S
C73 O74 1.211 . S
O74 C73 1.211 . S
C75 O67 1.284 . S
C75 O76 1.273 . S
O76 C75 1.273 . S
O77 Zn68 1.977 . S
O77 C70 1.267 . S
C78 O79 1.160 . S
C78 O85 1.185 . S
O79 C78 1.160 . S
O80 Zn81 1.899 . S
O80 C88 1.284 . S
Zn81 O80 1.899 . S
Zn81 O82 2.032 . S
Zn81 O85 2.086 . S
Zn81 O90 1.977 . S
O82 Zn81 2.032 . S
O82 C86 1.278 . S
C83 O84 1.203 . S
C83 O90 1.267 . S
O84 C83 1.203 . S
O85 C78 1.185 . S
O85 Zn81 2.086 . S
C86 O82 1.278 . S
C86 O87 1.211 . S
O87 C86 1.211 . S
C88 O80 1.284 . S
C88 O89 1.273 . S
O89 C88 1.273 . S
O90 Zn81 1.977 . S
O90 C83 1.267 . S
C91 O92 1.160 . S
C91 O98 1.185 . S
O92 C91 1.160 . S
O93 Zn94 1.899 . S
O93 C101 1.284 . S
Zn94 O93 1.899 . S
Zn94 O95 2.032 . S
Zn94 O98 2.086 . S
Zn94 O103 1.977 . S
O95 Zn94 2.032 . S
O95 C99 1.278 . S
C96 O97 1.203 . S
C96 O103 1.267 . S
O97 C96 1.203 . S
O98 C91 1.185 . S
O98 Zn94 2.086 . S
C99 O95 1.278 . S
C99 O100 1.211 . S
O100 C99 1.211 . S
C101 O93 1.284 . S
C101 O102 1.273 . S
O102 C101 1.273 . S
O103 Zn94 1.977 . S
O103 C96 1.267 . S
C104 O105 1.160 . S
C104 O111 1.185 . S
O105 C104 1.160 . S
O106 Zn107 1.899 . S
O106 C114 1.284 . S
Zn107 O106 1.899 . S
Zn107 O108 2.032 . S
Zn107 O111 2.086 . S
Zn107 O116 1.977 . S
O108 Zn107 2.032 . S
O108 C112 1.278 . S
C109 O110 1.203 . S
C109 O116 1.267 . S
O110 C109 1.203 . S
O111 C104 1.185 . S
O111 Zn107 2.086 . S
C112 O108 1.278 . S
C112 O113 1.211 . S
O113 C112 1.211 . S
C114 O106 1.284 . S
C114 O115 1.273 . S
O115 C114 1.273 . S
O116 Zn107 1.977 . S
O116 C109 1.267 . S
C117 O118 1.160 . S
C117 O124 1.185 . S
O118 C117 1.160 . S
O119 Zn120 1.899 . S
O119 C127 1.284 . S
Zn120 O119 1.899 . S
Zn120 O121 2.032 . S
Zn120 O124 2.086 . S
Zn120 O129 1.977 . S
O121 Zn120 2.032 . S
O121 C125 1.278 . S
C122 O123 1.203 . S
C122 O129 1.267 . S
O123 C122 1.203 . S
O124 C117 1.185 . S
O124 Zn120 2.086 . S
C125 O121 1.278 . S
C125 O126 1.211 . S
O126 C125 1.211 . S
C127 O119 1.284 . S
C127 O128 1.273 . S
O128 C127 1.273 . S
O129 Zn120 1.977 . S
O129 C122 1.267 . S
C130 O131 1.160 . S
C130 O137 1.185 . S
O131 C130 1.160 . S
O132 Zn133 1.899 . S
O132 C140 1.284 . S
Zn133 O132 1.899 . S
Zn133 O134 2.032 . S
Zn133 O137 2.086 . S
Zn133 O142 1.977 . S
O134 Zn133 2.032 . S
O134 C138 1.278 . S
C135 O136 1.203 . S
C135 O142 1.267 . S
O136 C135 1.203 . S
O137 C130 1.185 . S
O137 Zn133 2.086 . S
C138 O134 1.278 . S
C138 O139 1.211 . S
O139 C138 1.211 . S
C140 O132 1.284 . S
C140 O141 1.273 . S
O141 C140 1.273 . S
O142 Zn133 1.977 . S
O142 C135 1.267 . S
C143 O144 1.160 . S
C143 O150 1.185 . S
O144 C143 1.160 . S
O145 Zn146 1.899 . S
O145 C153 1.284 . S
Zn146 O145 1.899 . S
Zn146 O147 2.032 . S
Zn146 O150 2.086 . S
Zn146 O155 1.977 . S
O147 Zn146 2.032 . S
O147 C151 1.278 . S
C148 O149 1.203 . S
C148 O155 1.267 . S
O149 C148 1.203 . S
O150 C143 1.185 . S
O150 Zn146 2.086 . S
C151 O147 1.278 . S
C151 O152 1.211 . S
O152 C151 1.211 . S
C153 O145 1.284 . S
C153 O154 1.273 . S
O154 C153 1.273 . S
O155 Zn146 1.977 . S
O155 C148 1.267 . S
C156 O157 1.160 . S
C156 O163 1.185 . S
O157 C156 1.160 . S
O158 Zn159 1.899 . S
O158 C166 1.284 . S
Zn159 O158 1.899 . S
Zn159 O160 2.032 . S
Zn159 O163 2.086 . S
Zn159 O168 1.977 . S
O160 Zn159 2.032 . S
O160 C164 1.278 . S
C161 O162 1.203 . S
C161 O168 1.267 . S
O162 C161 1.203 . S
O163 C156 1.185 . S
O163 Zn159 2.086 . S
C164 O160 1.278 . S
C164 O165 1.211 . S
O165 C164 1.211 . S
C166 O158 1.284 . S
C166 O167 1.273 . S
O167 C166 1.273 . S
O168 Zn159 1.977 . S
O168 C161 1.267 . S
C169 O170 1.160 . S
C169 O176 1.185 . S
O170 C169 1.160 . S
O171 Zn172 1.899 . S
O171 C179 1.284 . S
Zn172 O171 1.899 . S
Zn172 O173 2.032 . S
Zn172 O176 2.086 . S
Zn172 O181 1.977 . S
O173 Zn172 2.032 . S
O173 C177 1.278 . S
C174 O175 1.203 . S
C174 O181 1.267 . S
O175 C174 1.203 . S
O176 C169 1.185 . S
O176 Zn172 2.086 . S
C177 O173 1.278 . S
C177 O178 1.211 . S
O178 C177 1.211 . S
C179 O171 1.284 . S
C179 O180 1.273 . S
O180 C179 1.273 . S
O181 Zn172 1.977 . S
O181 C174 1.267 . S
C182 O183 1.160 . S
C182 O189 1.185 . S
O183 C182 1.160 . S
O184 Zn185 1.899 . S
O184 C192 1.284 . S
Zn185 O184 1.899 . S
Zn185 O186 2.032 . S
Zn185 O189 2.086 . S
Zn185 O194 1.977 . S
O186 Zn185 2.032 . S
O186 C190 1.278 . S
C187 O188 1.203 . S
C187 O194 1.267 . S
O188 C187 1.203 . S
O189 C182 1.185 . S
O189 Zn185 2.086 . S
C190 O186 1.278 . S
C190 O191 1.211 . S
O191 C190 1.211 . S
C192 O184 1.284 . S
C192 O193 1.273 . S
O193 C192 1.273 . S
O194 Zn185 1.977 . S
O194 C187 1.267 . S
C195 O196 1.160 . S
C195 O202 1.185 . S
O196 C195 1.160 . S
O197 Zn198 1.899 . S
O197 C205 1.284 . S
Zn198 O197 1.899 . S
Zn198 O199 2.032 . S
Zn198 O202 2.086 . S
Zn198 O207 1.977 . S
O199 Zn198 2.032 . S
O199 C203 1.278 . S
C200 O201 1.203 . S
C200 O207 1.267 . S
O201 C200 1.203 . S
O202 C195 1.185 . S
O202 Zn198 2.086 . S
C203 O199 1.278 . S
C203 O204 1.211 . S
O204 C203 1.211 . S
C205 O197 1.284 . S
C205 O206 1.273 . S
O206 C205 1.273 . S
O207 Zn198 1.977 . S
O207 C200 1.267 . S
C208 O209 1.160 . S
C208 O215 1.185 . S
O209 C208 1.160 . S
O210 Zn211 1.899 . S
O210 C218 1.284 . S
Zn211 O210 1.899 . S
Zn211 O212 2.032 . S
Zn211 O215 2.086 . S
Zn211 O220 1.977 . S
O212 Zn211 2.032 . S
O212 C216 1.278 . S
C213 O214 1.203 . S
C213 O220 1.267 . S
O214 C213 1.203 . S
O215 C208 1.185 . S
O215 Zn211 2.086 . S
C216 O212 1.278 . S
C216 O217 1.211 . S
O217 C216 1.211 . S
C218 O210 1.284 . S
C218 O219 1.273 . S
O219 C218 1.273 . S
O220 Zn211 1.977 . S
O220 C213 1.267 . S
C221 O222 1.160 . S
C221 O228 1.185 . S
O222 C221 1.160 . S
O223 Zn224 1.899 . S
O223 C231 1.284 . S
Zn224 O223 1.899 . S
Zn224 O225 2.032 . S
Zn224 O228 2.086 . S
Zn224 O233 1.977 . S
O225 Zn224 2.032 . S
O225 C229 1.278 . S
C226 O227 1.203 . S
C226 O233 1.267 . S
O227 C226 1.203 . S
O228 C221 1.185 . S
O228 Zn224 2.086 . S
C229 O225 1.278 . S
C229 O230 1.211 . S
O230 C229 1.211 . S
C231 O223 1.284 . S
C231 O232 1.273 . S
O232 C231 1.273 . S
O233 Zn224 1.977 . S
O233 C226 1.267 . S
C234 O235 1.160 . S
C234 O241 1.185 . S
O235 C234 1.160 . S
O236 Zn237 1.899 . S
O236 C244 1.284 . S
Zn237 O236 1.899 . S
Zn237 O238 2.032 . S
Zn237 O241 2.086 . S
Zn237 O246 1.977 . S
O238 Zn237 2.032 . S
O238 C242 1.278 . S
C239 O240 1.203 . S
C239 O246 1.267 . S
O240 C239 1.203 . S
O241 C234 1.185 . S
O241 Zn237 2.086 . S
C242 O238 1.278 . S
C242 O243 1.211 . S
O243 C242 1.211 . S
C244 O236 1.284 . S
C244 O245 1.273 . S
O245 C244 1.273 . S
O246 Zn237 1.977 . S
O246 C239 1.267 . S
C247 O248 1.160 . S
C247 O254 1.185 . S
O248 C247 1.160 . S
O249 Zn250 1.899 . S
O249 C257 1.284 . S
Zn250 O249 1.899 . S
Zn250 O251 2.032 . S
Zn250 O254 2.086 . S
Zn250 O259 1.977 . S
O251 Zn250 2.032 . S
O251 C255 1.278 . S
C252 O253 1.203 . S
C252 O259 1.267 . S
O253 C252 1.203 . S
O254 C247 1.185 . S
O254 Zn250 2.086 . S
C255 O251 1.278 . S
C255 O256 1.211 . S
O256 C255 1.211 . S
C257 O249 1.284 . S
C257 O258 1.273 . S
O258 C257 1.273 . S
O259 Zn250 1.977 . S
O259 C252 1.267 . S
C260 O261 1.160 . S
C260 O267 1.185 . S
O261 C260 1.160 . S
O262 Zn263 1.899 . S
O262 C270 1.284 . S
Zn263 O262 1.899 . S
Zn263 O264 2.032 . S
Zn263 O267 2.086 . S
Zn263 O272 1.977 . S
O264 Zn263 2.032 . S
O264 C268 1.278 . S
C265 O266 1.203 . S
C265 O272 1.267 . S
O266 C265 1.203 . S
O267 C260 1.185 . S
O267 Zn263 2.086 . S
C268 O264 1.278 . S
C268 O269 1.211 . S
O269 C268 1.211 . S
C270 O262 1.284 . S
C270 O271 1.273 . S
O271 C270 1.273 . S
O272 Zn263 1.977 . S
O272 C265 1.267 . S
C273 O274 1.160 . S
C273 O280 1.185 . S
O274 C273 1.160 . S
O275 Zn276 1.899 . S
O275 C283 1.284 . S
Zn276 O275 1.899 . S
Zn276 O277 2.032 . S
Zn276 O280 2.086 . S
Zn276 O285 1.977 . S
O277 Zn276 2.032 . S
O277 C281 1.278 . S
C278 O279 1.203 . S
C278 O285 1.267 . S
O279 C278 1.203 . S
O280 C273 1.185 . S
O280 Zn276 2.086 . S
C281 O277 1.278 . S
C281 O282 1.211 . S
O282 C281 1.211 . S
C283 O275 1.284 . S
C283 O284 1.273 . S
O284 C283 1.273 . S
O285 Zn276 1.977 . S
O285 C278 1.267 . S
C286 O287 1.160 . S
C286 O293 1.185 . S
O287 C286 1.160 . S
O288 Zn289 1.899 . S
O288 C296 1.284 . S
Zn289 O288 1.899 . S
Zn289 O290 2.032 . S
Zn289 O293 2.086 . S
Zn289 O298 1.977 . S
O290 Zn289 2.032 . S
O290 C294 1.278 . S
C291 O292 1.203 . S
C291 O298 1.267 . S
O292 C291 1.203 . S
O293 C286 1.185 . S
O293 Zn289 2.086 . S
C294 O290 1.278 . S
C294 O295 1.211 . S
O295 C294 1.211 . S
C296 O288 1.284 . S
C296 O297 1.273 . S
O297 C296 1.273 . S
O298 Zn289 1.977 . S
O298 C291 1.267 . S
C299 O300 1.160 . S
C299 O306 1.185 . S
O300 C299 1.160 . S
O301 Zn302 1.899 . S
O301 C309 1.284 . S
Zn302 O301 1.899 . S
Zn302 O303 2.032 . S
Zn302 O306 2.086 . S
Zn302 O311 1.977 . S
O303 Zn302 2.032 . S
O303 C307 1.278 . S
C304 O305 1.203 . S
C304 O311 1.267 . S
O305 C304 1.203 . S
O306 C299 1.185 . S
O306 Zn302 2.086 . S
C307 O303 1.278 . S
C307 O308 1.211 . S
O308 C307 1.211 . S
C309 O301 1.284 . S
C309 O310 1.273 . S
O310 C309 1.273 . S
O311 Zn302 1.977 . S
O311 C304 1.267 . S
C312 O313 1.160 . S
C312 O319 1.185 . S
O313 C312 1.160 . S
O314 Zn315 1.899 . S
O314 C322 1.284 . S
Zn315 O314 1.899 . S
Zn315 O316 2.032 . S
Zn315 O319 2.086 . S
Zn315 O324 1.977 . S
O316 Zn315 2.032 . S
O316 C320 1.278 . S
C317 O318 1.203 . S
C317 O324 1.267 . S
O318 C317 1.203 . S
O319 C312 1.185 . S
O319 Zn315 2.086 . S
C320 O316 1.278 . S
C320 O321 1.211 . S
O321 C320 1.211 . S
C322 O314 1.284 . S
C322 O323 1.273 . S
O323 C322 1.273 . S
O324 Zn315 1.977 . S
O324 C317 1.267 . S
C325 O326 1.160 . S
C325 O332 1.185 . S
O326 C325 1.160 . S
O327 Zn328 1.899 . S
O327 C335 1.284 . S
Zn328 O327 1.899 . S
Zn328 O329 2.032 . S
Zn328 O332 2.086 . S
Zn328 O337 1.977 . S
O329 Zn328 2.032 . S
O329 C333 1.278 . S
C330 O331 1.203 . S
C330 O337 1.267 . S
O331 C330 1.203 . S
O332 C325 1.185 . S
O332 Zn328 2.086 . S
C333 O329 1.278 . S
C333 O334 1.211 . S
O334 C333 1.211 . S
C335 O327 1.284 . S
C335 O336 1.273 . S
O336 C335 1.273 . S
O337 Zn328 1.977 . S
O337 C330 1.267 . S
C338 O339 1.160 . S
C338 O345 1.185 . S
O339 C338 1.160 . S
O340 Zn341 1.899 . S
O340 C348 1.284 . S
Zn341 O340 1.899 . S
Zn341 O342 2.032 . S
Zn341 O345 2.086 . S
Zn341 O350 1.977 . S
O342 Zn341 2.032 . S
O342 C346 1.278 . S
C343 O344 1.203 . S
C343 O350 1.267 . S
O344 C343 1.203 . S
O345 C338 1.185 . S
O345 Zn341 2.086 . S
C346 O342 1.278 . S
C346 O347 1.211 . S
O347 C346 1.211 . S
C348 O340 1.284 . S
C348 O349 1.273 . S
O349 C348 1.273 . S
O350 Zn341 1.977 . S
O350 C343 1.267 . S
C351 O352 1.160 . S
C351 O358 1.185 . S
O352 C351 1.160 . S
O353 Zn354 1.899 . S
O353 C361 1.284 . S
Zn354 O353 1.899 . S
Zn354 O355 2.032 . S
Zn354 O358 2.086 . S
Zn354 O363 1.977 . S
O355 Zn354 2.032 . S
O355 C359 1.278 . S
C356 O357 1.203 . S
C356 O363 1.267 . S
O357 C356 1.203 . S
O358 C351 1.185 . S
O358 Zn354 2.086 . S
C359 O355 1.278 . S
C359 O360 1.211 . S
O360 C359 1.211 . S
C361 O353 1.284 . S
C361 O362 1.273 . S
O362 C361 1.273 . S
O363 Zn354 1.977 . S
O363 C356 1.267 . S
C364 O365 1.160 . S
C364 O371 1.185 . S
O365 C364 1.160 . S
O366 Zn367 1.899 . S
O366 C374 1.284 . S
Zn367 O366 1.899 . S
Zn367 O368 2.032 . S
Zn367 O371 2.086 . S
Zn367 O376 1.977 . S
O368 Zn367 2.032 . S
O368 C372 1.278 . S
C369 O370 1.203 . S
C369 O376 1.267 . S
O370 C369 1.203 . S
O371 C364 1.185 . S
O371 Zn367 2.086 . S
C372 O368 1.278 . S
C372 O373 1.211 . S
O373 C372 1.211 . S
C374 O366 1.284 . S
C374 O375 1.273 . S
O375 C374 1.273 . S
O376 Zn367 1.977 . S
O376 C369 1.267 . S
C377 O378 1.160 . S
C377 O384 1.185 . S
O378 C377 1.160 . S
O379 Zn380 1.899 . S
O379 C387 1.284 . S
Zn380 O379 1.899 . S
Zn380 O381 2.032 . S
Zn380 O384 2.086 . S
Zn380 O389 1.977 . S
O381 Zn380 2.032 . S
O381 C385 1.278 . S
C382 O383 1.203 . S
C382 O389 1.267 . S
O383 C382 1.203 . S
O384 C377 1.185 . S
O384 Zn380 2.086 . S
C385 O381 1.278 . S
C385 O386 1.211 . S
O386 C385 1.211 . S
C387 O379 1.284 . S
C387 O388 1.273 . S
O388 C387 1.273 . S
O389 Zn380 1.977 . S
O389 C382 1.267 . S
C390 O391 1.160 . S
C390 O397 1.185 . S
O391 C390 1.160 . S
O392 Zn393 1.899 . S
O392 C400 1.284 . S
Zn393 O392 1.899 . S
Zn393 O394 2.032 . S
Zn393 O397 2.086 . S
Zn393 O402 1.977 . S
O394 Zn393 2.032 . S
O394 C398 1.278 . S
C395 O396 1.203 . S
C395 O402 1.267 . S
O396 C395 1.203 . S
O397 C390 1.185 . S
O397 Zn393 2.086 . S
C398 O394 1.278 . S
C398 O399 1.211 . S
O399 C398 1.211 . S
C400 O392 1.284 . S
C400 O401 1.273 . S
O401 C400 1.273 . S
O402 Zn393 1.977 . S
O402 C395 1.267 . S
C403 O404 1.160 . S
C403 O410 1.185 . S
O404 C403 1.160 . S
O405 Zn406 1.899 . S
O405 C413 1.284 . S
Zn406 O405 1.899 . S
Zn406 O407 2.032 . S
Zn406 O410 2.086 . S
Zn406 O415 1.977 . S
O407 Zn406 2.032 . S
O407 C411 1.278 . S
C408 O409 1.203 . S
C408 O415 1.267 . S
O409 C408 1.203 . S
O410 C403 1.185 . S
O410 Zn406 2.086 . S
C411 O407 1.278 . S
C411 O412 1.211 . S
O412 C411 1.211 . S
C413 O405 1.284 . S
C413 O414 1.273 . S
O414 C413 1.273 . S
O415 Zn406 1.977 . S
O415 C408 1.267 . S
C416 C417 1.363 . S
C416 C422 1.379 . S
C416 N424 1.356 . S
C417 C416 1.363 . S
C417 C423 1.363 . S
C418 C419 1.363 . S
C418 C423 1.379 . S
C418 N425 1.356 . S
C419 C418 1.363 . S
C419 C422 1.363 . S
N420 C422 1.356 . S
N420 H432 0.984 . S
N420 H433 0.985 . S
N421 C423 1.356 . S
N421 H426 0.984 . S
N421 H427 0.985 . S
C422 C416 1.379 . S
C422 C419 1.363 . S
C422 N420 1.356 . S
C423 C417 1.363 . S
C423 C418 1.379 . S
C423 N421 1.356 . S
N424 C416 1.356 . S
N424 H430 0.984 . S
N424 H431 0.984 . S
N425 C418 1.356 . S
N425 H428 0.984 . S
N425 H429 0.985 . S
H426 N421 0.984 . S
H427 N421 0.985 . S
H428 N425 0.984 . S
H429 N425 0.985 . S
H430 N424 0.984 . S
H431 N424 0.984 . S
H432 N420 0.984 . S
H433 N420 0.985 . S
C434 C435 1.363 . S
C434 C440 1.379 . S
C434 N442 1.356 . S
C435 C434 1.363 . S
C435 C441 1.363 . S
C436 C437 1.363 . S
C436 C441 1.379 . S
C436 N443 1.356 . S
C437 C436 1.363 . S
C437 C440 1.363 . S
N438 C440 1.356 . S
N438 H450 0.984 . S
N438 H451 0.985 . S
N439 C441 1.356 . S
N439 H444 0.984 . S
N439 H445 0.985 . S
C440 C434 1.379 . S
C440 C437 1.363 . S
C440 N438 1.356 . S
C441 C435 1.363 . S
C441 C436 1.379 . S
C441 N439 1.356 . S
N442 C434 1.356 . S
N442 H448 0.984 . S
N442 H449 0.984 . S
N443 C436 1.356 . S
N443 H446 0.984 . S
N443 H447 0.985 . S
H444 N439 0.984 . S
H445 N439 0.985 . S
H446 N443 0.984 . S
H447 N443 0.985 . S
H448 N442 0.984 . S
H449 N442 0.984 . S
H450 N438 0.984 . S
H451 N438 0.985 . S
C452 C453 1.363 . S
C452 C458 1.379 . S
C452 N460 1.356 . S
C453 C452 1.363 . S
C453 C459 1.363 . S
C454 C455 1.363 . S
C454 C459 1.379 . S
C454 N461 1.356 . S
C455 C454 1.363 . S
C455 C458 1.363 . S
N456 C458 1.356 . S
N456 H468 0.984 . S
N456 H469 0.985 . S
N457 C459 1.356 . S
N457 H462 0.984 . S
N457 H463 0.985 . S
C458 C452 1.379 . S
C458 C455 1.363 . S
C458 N456 1.356 . S
C459 C453 1.363 . S
C459 C454 1.379 . S
C459 N457 1.356 . S
N460 C452 1.356 . S
N460 H466 0.984 . S
N460 H467 0.984 . S
N461 C454 1.356 . S
N461 H464 0.984 . S
N461 H465 0.985 . S
H462 N457 0.984 . S
H463 N457 0.985 . S
H464 N461 0.984 . S
H465 N461 0.985 . S
H466 N460 0.984 . S
H467 N460 0.984 . S
H468 N456 0.984 . S
H469 N456 0.985 . S
C470 C471 1.363 . S
C470 C476 1.379 . S
C470 N478 1.356 . S
C471 C470 1.363 . S
C471 C477 1.363 . S
C472 C473 1.363 . S
C472 C477 1.379 . S
C472 N479 1.356 . S
C473 C472 1.363 . S
C473 C476 1.363 . S
N474 C476 1.356 . S
N474 H486 0.984 . S
N474 H487 0.985 . S
N475 C477 1.356 . S
N475 H480 0.984 . S
N475 H481 0.985 . S
C476 C470 1.379 . S
C476 C473 1.363 . S
C476 N474 1.356 . S
C477 C471 1.363 . S
C477 C472 1.379 . S
C477 N475 1.356 . S
N478 C470 1.356 . S
N478 H484 0.984 . S
N478 H485 0.984 . S
N479 C472 1.356 . S
N479 H482 0.984 . S
N479 H483 0.985 . S
H480 N475 0.984 . S
H481 N475 0.985 . S
H482 N479 0.984 . S
H483 N479 0.985 . S
H484 N478 0.984 . S
H485 N478 0.984 . S
H486 N474 0.984 . S
H487 N474 0.985 . S
C488 C489 1.363 . S
C488 C494 1.379 . S
C488 N496 1.356 . S
C489 C488 1.363 . S
C489 C495 1.363 . S
C490 C491 1.363 . S
C490 C495 1.379 . S
C490 N497 1.356 . S
C491 C490 1.363 . S
C491 C494 1.363 . S
N492 C494 1.356 . S
N492 H504 0.984 . S
N492 H505 0.985 . S
N493 C495 1.356 . S
N493 H498 0.984 . S
N493 H499 0.985 . S
C494 C488 1.379 . S
C494 C491 1.363 . S
C494 N492 1.356 . S
C495 C489 1.363 . S
C495 C490 1.379 . S
C495 N493 1.356 . S
N496 C488 1.356 . S
N496 H502 0.984 . S
N496 H503 0.984 . S
N497 C490 1.356 . S
N497 H500 0.984 . S
N497 H501 0.985 . S
H498 N493 0.984 . S
H499 N493 0.985 . S
H500 N497 0.984 . S
H501 N497 0.985 . S
H502 N496 0.984 . S
H503 N496 0.984 . S
H504 N492 0.984 . S
H505 N492 0.985 . S
C506 C507 1.363 . S
C506 C512 1.379 . S
C506 N514 1.356 . S
C507 C506 1.363 . S
C507 C513 1.363 . S
C508 C509 1.363 . S
C508 C513 1.379 . S
C508 N515 1.356 . S
C509 C508 1.363 . S
C509 C512 1.363 . S
N510 C512 1.356 . S
N510 H522 0.984 . S
N510 H523 0.985 . S
N511 C513 1.356 . S
N511 H516 0.984 . S
N511 H517 0.985 . S
C512 C506 1.379 . S
C512 C509 1.363 . S
C512 N510 1.356 . S
C513 C507 1.363 . S
C513 C508 1.379 . S
C513 N511 1.356 . S
N514 C506 1.356 . S
N514 H520 0.984 . S
N514 H521 0.984 . S
N515 C508 1.356 . S
N515 H518 0.984 . S
N515 H519 0.985 . S
H516 N511 0.984 . S
H517 N511 0.985 . S
H518 N515 0.984 . S
H519 N515 0.985 . S
H520 N514 0.984 . S
H521 N514 0.984 . S
H522 N510 0.984 . S
H523 N510 0.985 . S
C524 C525 1.363 . S
C524 C530 1.379 . S
C524 N532 1.356 . S
C525 C524 1.363 . S
C525 C531 1.363 . S
C526 C527 1.363 . S
C526 C531 1.379 . S
C526 N533 1.356 . S
C527 C526 1.363 . S
C527 C530 1.363 . S
N528 C530 1.356 . S
N528 H540 0.984 . S
N528 H541 0.985 . S
N529 C531 1.356 . S
N529 H534 0.984 . S
N529 H535 0.985 . S
C530 C524 1.379 . S
C530 C527 1.363 . S
C530 N528 1.356 . S
C531 C525 1.363 . S
C531 C526 1.379 . S
C531 N529 1.356 . S
N532 C524 1.356 . S
N532 H538 0.984 . S
N532 H539 0.984 . S
N533 C526 1.356 . S
N533 H536 0.984 . S
N533 H537 0.985 . S
H534 N529 0.984 . S
H535 N529 0.985 . S
H536 N533 0.984 . S
H537 N533 0.985 . S
H538 N532 0.984 . S
H539 N532 0.984 . S
H540 N528 0.984 . S
H541 N528 0.985 . S
C542 C543 1.363 . S
C542 C548 1.379 . S
C542 N550 1.356 . S
C543 C542 1.363 . S
C543 C549 1.363 . S
C544 C545 1.363 . S
C544 C549 1.379 . S
C544 N551 1.356 . S
C545 C544 1.363 . S
C545 C548 1.363 . S
N546 C548 1.356 . S
N546 H558 0.984 . S
N546 H559 0.985 . S
N547 C549 1.356 . S
N547 H552 0.984 . S
N547 H553 0.985 . S
C548 C542 1.379 . S
C548 C545 1.363 . S
C548 N546 1.356 . S
C549 C543 1.363 . S
C549 C544 1.379 . S
C549 N547 1.356 . S
N550 C542 1.356 . S
N550 H556 0.984 . S
N550 H557 0.984 . S
N551 C544 1.356 . S
N551 H554 0.984 . S
N551 H555 0.985 . S
H552 N547 0.984 . S
H553 N547 0.985 . S
H554 N551 0.984 . S
H555 N551 0.985 . S
H556 N550 0.984 . S
H557 N550 0.984 . S
H558 N546 0.984 . S
H559 N546 0.985 . S
C560 C561 1.363 . S
C560 C566 1.379 . S
C560 N568 1.356 . S
C561 C560 1.363 . S
C561 C567 1.363 . S
C562 C563 1.363 . S
C562 C567 1.379 . S
C562 N569 1.356 . S
C563 C562 1.363 . S
C563 C566 1.363 . S
N564 C566 1.356 . S
N564 H576 0.984 . S
N564 H577 0.985 . S
N565 C567 1.356 . S
N565 H570 0.984 . S
N565 H571 0.985 . S
C566 C560 1.379 . S
C566 C563 1.363 . S
C566 N564 1.356 . S
C567 C561 1.363 . S
C567 C562 1.379 . S
C567 N565 1.356 . S
N568 C560 1.356 . S
N568 H574 0.984 . S
N568 H575 0.984 . S
N569 C562 1.356 . S
N569 H572 0.984 . S
N569 H573 0.985 . S
H570 N565 0.984 . S
H571 N565 0.985 . S
H572 N569 0.984 . S
H573 N569 0.985 . S
H574 N568 0.984 . S
H575 N568 0.984 . S
H576 N564 0.984 . S
H577 N564 0.985 . S
C578 C579 1.363 . S
C578 C584 1.379 . S
C578 N586 1.356 . S
C579 C578 1.363 . S
C579 C585 1.363 . S
C580 C581 1.363 . S
C580 C585 1.379 . S
C580 N587 1.356 . S
C581 C580 1.363 . S
C581 C584 1.363 . S
N582 C584 1.356 . S
N582 H594 0.984 . S
N582 H595 0.985 . S
N583 C585 1.356 . S
N583 H588 0.984 . S
N583 H589 0.985 . S
C584 C578 1.379 . S
C584 C581 1.363 . S
C584 N582 1.356 . S
C585 C579 1.363 . S
C585 C580 1.379 . S
C585 N583 1.356 . S
N586 C578 1.356 . S
N586 H592 0.984 . S
N586 H593 0.984 . S
N587 C580 1.356 . S
N587 H590 0.984 . S
N587 H591 0.985 . S
H588 N583 0.984 . S
H589 N583 0.985 . S
H590 N587 0.984 . S
H591 N587 0.985 . S
H592 N586 0.984 . S
H593 N586 0.984 . S
H594 N582 0.984 . S
H595 N582 0.985 . S
C596 C597 1.363 . S
C596 C602 1.379 . S
C596 N604 1.356 . S
C597 C596 1.363 . S
C597 C603 1.363 . S
C598 C599 1.363 . S
C598 C603 1.379 . S
C598 N605 1.356 . S
C599 C598 1.363 . S
C599 C602 1.363 . S
N600 C602 1.356 . S
N600 H612 0.984 . S
N600 H613 0.985 . S
N601 C603 1.356 . S
N601 H606 0.984 . S
N601 H607 0.985 . S
C602 C596 1.379 . S
C602 C599 1.363 . S
C602 N600 1.356 . S
C603 C597 1.363 . S
C603 C598 1.379 . S
C603 N601 1.356 . S
N604 C596 1.356 . S
N604 H610 0.984 . S
N604 H611 0.984 . S
N605 C598 1.356 . S
N605 H608 0.984 . S
N605 H609 0.985 . S
H606 N601 0.984 . S
H607 N601 0.985 . S
H608 N605 0.984 . S
H609 N605 0.985 . S
H610 N604 0.984 . S
H611 N604 0.984 . S
H612 N600 0.984 . S
H613 N600 0.985 . S
C614 C615 1.363 . S
C614 C620 1.379 . S
C614 N622 1.356 . S
C615 C614 1.363 . S
C615 C621 1.363 . S
C616 C617 1.363 . S
C616 C621 1.379 . S
C616 N623 1.356 . S
C617 C616 1.363 . S
C617 C620 1.363 . S
N618 C620 1.356 . S
N618 H630 0.984 . S
N618 H631 0.985 . S
N619 C621 1.356 . S
N619 H624 0.984 . S
N619 H625 0.985 . S
C620 C614 1.379 . S
C620 C617 1.363 . S
C620 N618 1.356 . S
C621 C615 1.363 . S
C621 C616 1.379 . S
C621 N619 1.356 . S
N622 C614 1.356 . S
N622 H628 0.984 . S
N622 H629 0.984 . S
N623 C616 1.356 . S
N623 H626 0.984 . S
N623 H627 0.985 . S
H624 N619 0.984 . S
H625 N619 0.985 . S
H626 N623 0.984 . S
H627 N623 0.985 . S
H628 N622 0.984 . S
H629 N622 0.984 . S
H630 N618 0.984 . S
H631 N618 0.985 . S
C632 C633 1.363 . S
C632 C638 1.379 . S
C632 N640 1.356 . S
C633 C632 1.363 . S
C633 C639 1.363 . S
C634 C635 1.363 . S
C634 C639 1.379 . S
C634 N641 1.356 . S
C635 C634 1.363 . S
C635 C638 1.363 . S
N636 C638 1.356 . S
N636 H648 0.984 . S
N636 H649 0.985 . S
N637 C639 1.356 . S
N637 H642 0.984 . S
N637 H643 0.985 . S
C638 C632 1.379 . S
C638 C635 1.363 . S
C638 N636 1.356 . S
C639 C633 1.363 . S
C639 C634 1.379 . S
C639 N637 1.356 . S
N640 C632 1.356 . S
N640 H646 0.984 . S
N640 H647 0.984 . S
N641 C634 1.356 . S
N641 H644 0.984 . S
N641 H645 0.985 . S
H642 N637 0.984 . S
H643 N637 0.985 . S
H644 N641 0.984 . S
H645 N641 0.985 . S
H646 N640 0.984 . S
H647 N640 0.984 . S
H648 N636 0.984 . S
H649 N636 0.985 . S
C650 C651 1.363 . S
C650 C656 1.379 . S
C650 N658 1.356 . S
C651 C650 1.363 . S
C651 C657 1.363 . S
C652 C653 1.363 . S
C652 C657 1.379 . S
C652 N659 1.356 . S
C653 C652 1.363 . S
C653 C656 1.363 . S
N654 C656 1.356 . S
N654 H666 0.984 . S
N654 H667 0.985 . S
N655 C657 1.356 . S
N655 H660 0.984 . S
N655 H661 0.985 . S
C656 C650 1.379 . S
C656 C653 1.363 . S
C656 N654 1.356 . S
C657 C651 1.363 . S
C657 C652 1.379 . S
C657 N655 1.356 . S
N658 C650 1.356 . S
N658 H664 0.984 . S
N658 H665 0.984 . S
N659 C652 1.356 . S
N659 H662 0.984 . S
N659 H663 0.985 . S
H660 N655 0.984 . S
H661 N655 0.985 . S
H662 N659 0.984 . S
H663 N659 0.985 . S
H664 N658 0.984 . S
H665 N658 0.984 . S
H666 N654 0.984 . S
H667 N654 0.985 . S
C668 C669 1.363 . S
C668 C674 1.379 . S
C668 N676 1.356 . S
C669 C668 1.363 . S
C669 C675 1.363 . S
C670 C671 1.363 . S
C670 C675 1.379 . S
C670 N677 1.356 . S
C671 C670 1.363 . S
C671 C674 1.363 . S
N672 C674 1.356 . S
N672 H684 0.984 . S
N672 H685 0.985 . S
N673 C675 1.356 . S
N673 H678 0.984 . S
N673 H679 0.985 . S
C674 C668 1.379 . S
C674 C671 1.363 . S
C674 N672 1.356 . S
C675 C669 1.363 . S
C675 C670 1.379 . S
C675 N673 1.356 . S
N676 C668 1.356 . S
N676 H682 0.984 . S
N676 H683 0.984 . S
N677 C670 1.356 . S
N677 H680 0.984 . S
N677 H681 0.985 . S
H678 N673 0.984 . S
H679 N673 0.985 . S
H680 N677 0.984 . S
H681 N677 0.985 . S
H682 N676 0.984 . S
H683 N676 0.984 . S
H684 N672 0.984 . S
H685 N672 0.985 . S
C686 C687 1.363 . S
C686 C692 1.379 . S
C686 N694 1.356 . S
C687 C686 1.363 . S
C687 C693 1.363 . S
C688 C689 1.363 . S
C688 C693 1.379 . S
C688 N695 1.356 . S
C689 C688 1.363 . S
C689 C692 1.363 . S
N690 C692 1.356 . S
N690 H702 0.984 . S
N690 H703 0.985 . S
N691 C693 1.356 . S
N691 H696 0.984 . S
N691 H697 0.985 . S
C692 C686 1.379 . S
C692 C689 1.363 . S
C692 N690 1.356 . S
C693 C687 1.363 . S
C693 C688 1.379 . S
C693 N691 1.356 . S
N694 C686 1.356 . S
N694 H700 0.984 . S
N694 H701 0.984 . S
N695 C688 1.356 . S
N695 H698 0.984 . S
N695 H699 0.985 . S
H696 N691 0.984 . S
H697 N691 0.985 . S
H698 N695 0.984 . S
H699 N695 0.985 . S
H700 N694 0.984 . S
H701 N694 0.984 . S
H702 N690 0.984 . S
H703 N690 0.985 . S
C704 C705 1.363 . S
C704 C710 1.379 1_455 S
C704 N712 1.356 . S
C705 C704 1.363 . S
C705 C711 1.363 . S
C706 C707 1.363 . S
C706 C711 1.379 1_655 S
C706 N713 1.356 . S
C707 C706 1.363 . S
C707 C710 1.363 . S
N708 C710 1.356 . S
N708 H720 0.984 . S
N708 H721 0.985 . S
N709 C711 1.356 . S
N709 H714 0.984 . S
N709 H715 0.985 . S
C710 C704 1.379 1_655 S
C710 C707 1.363 . S
C710 N708 1.356 . S
C711 C705 1.363 . S
C711 C706 1.379 1_455 S
C711 N709 1.356 . S
N712 C704 1.356 . S
N712 H718 0.984 . S
N712 H719 0.984 . S
N713 C706 1.356 . S
N713 H716 0.984 . S
N713 H717 0.985 . S
H714 N709 0.984 . S
H715 N709 0.985 . S
H716 N713 0.984 . S
H717 N713 0.985 . S
H718 N712 0.984 . S
H719 N712 0.984 . S
H720 N708 0.984 . S
H721 N708 0.985 . S
C722 C723 1.363 . S
C722 C728 1.379 . S
C722 N730 1.356 . S
C723 C722 1.363 . S
C723 C729 1.363 . S
C724 C725 1.363 . S
C724 C729 1.379 . S
C724 N731 1.356 . S
C725 C724 1.363 . S
C725 C728 1.363 . S
N726 C728 1.356 . S
N726 H738 0.984 . S
N726 H739 0.985 . S
N727 C729 1.356 . S
N727 H732 0.984 . S
N727 H733 0.985 . S
C728 C722 1.379 . S
C728 C725 1.363 . S
C728 N726 1.356 . S
C729 C723 1.363 . S
C729 C724 1.379 . S
C729 N727 1.356 . S
N730 C722 1.356 . S
N730 H736 0.984 . S
N730 H737 0.984 . S
N731 C724 1.356 . S
N731 H734 0.984 . S
N731 H735 0.985 . S
H732 N727 0.984 . S
H733 N727 0.985 . S
H734 N731 0.984 . S
H735 N731 0.985 . S
H736 N730 0.984 . S
H737 N730 0.984 . S
H738 N726 0.984 . S
H739 N726 0.985 . S
C740 C741 1.363 . S
C740 C746 1.379 . S
C740 N748 1.356 . S
C741 C740 1.363 . S
C741 C747 1.363 . S
C742 C743 1.363 . S
C742 C747 1.379 . S
C742 N749 1.356 . S
C743 C742 1.363 . S
C743 C746 1.363 . S
N744 C746 1.356 . S
N744 H756 0.984 . S
N744 H757 0.985 . S
N745 C747 1.356 . S
N745 H750 0.984 . S
N745 H751 0.985 . S
C746 C740 1.379 . S
C746 C743 1.363 . S
C746 N744 1.356 . S
C747 C741 1.363 . S
C747 C742 1.379 . S
C747 N745 1.356 . S
N748 C740 1.356 . S
N748 H754 0.984 . S
N748 H755 0.984 . S
N749 C742 1.356 . S
N749 H752 0.984 . S
N749 H753 0.985 . S
H750 N745 0.984 . S
H751 N745 0.985 . S
H752 N749 0.984 . S
H753 N749 0.985 . S
H754 N748 0.984 . S
H755 N748 0.984 . S
H756 N744 0.984 . S
H757 N744 0.985 . S
C758 C759 1.363 . S
C758 C764 1.379 . S
C758 N766 1.356 . S
C759 C758 1.363 . S
C759 C765 1.363 . S
C760 C761 1.363 . S
C760 C765 1.379 . S
C760 N767 1.356 . S
C761 C760 1.363 . S
C761 C764 1.363 . S
N762 C764 1.356 . S
N762 H774 0.984 . S
N762 H775 0.985 . S
N763 C765 1.356 . S
N763 H768 0.984 . S
N763 H769 0.985 . S
C764 C758 1.379 . S
C764 C761 1.363 . S
C764 N762 1.356 . S
C765 C759 1.363 . S
C765 C760 1.379 . S
C765 N763 1.356 . S
N766 C758 1.356 . S
N766 H772 0.984 . S
N766 H773 0.984 . S
N767 C760 1.356 . S
N767 H770 0.984 . S
N767 H771 0.985 . S
H768 N763 0.984 . S
H769 N763 0.985 . S
H770 N767 0.984 . S
H771 N767 0.985 . S
H772 N766 0.984 . S
H773 N766 0.984 . S
H774 N762 0.984 . S
H775 N762 0.985 . S
C776 C777 1.363 . S
C776 C782 1.379 1_655 S
C776 N784 1.356 . S
C777 C776 1.363 . S
C777 C783 1.363 . S
C778 C779 1.363 . S
C778 C783 1.379 1_455 S
C778 N785 1.356 . S
C779 C778 1.363 . S
C779 C782 1.363 . S
N780 C782 1.356 . S
N780 H792 0.984 . S
N780 H793 0.985 . S
N781 C783 1.356 . S
N781 H786 0.984 . S
N781 H787 0.985 . S
C782 C776 1.379 1_455 S
C782 C779 1.363 . S
C782 N780 1.356 . S
C783 C777 1.363 . S
C783 C778 1.379 1_655 S
C783 N781 1.356 . S
N784 C776 1.356 . S
N784 H790 0.984 . S
N784 H791 0.984 . S
N785 C778 1.356 . S
N785 H788 0.984 . S
N785 H789 0.985 . S
H786 N781 0.984 . S
H787 N781 0.985 . S
H788 N785 0.984 . S
H789 N785 0.985 . S
H790 N784 0.984 . S
H791 N784 0.984 . S
H792 N780 0.984 . S
H793 N780 0.985 . S
C794 C795 1.363 . S
C794 C800 1.379 . S
C794 N802 1.356 . S
C795 C794 1.363 . S
C795 C801 1.363 . S
C796 C797 1.363 . S
C796 C801 1.379 . S
C796 N803 1.356 . S
C797 C796 1.363 . S
C797 C800 1.363 . S
N798 C800 1.356 . S
N798 H810 0.984 . S
N798 H811 0.985 . S
N799 C801 1.356 . S
N799 H804 0.984 . S
N799 H805 0.985 . S
C800 C794 1.379 . S
C800 C797 1.363 . S
C800 N798 1.356 . S
C801 C795 1.363 . S
C801 C796 1.379 . S
C801 N799 1.356 . S
N802 C794 1.356 . S
N802 H808 0.984 . S
N802 H809 0.984 . S
N803 C796 1.356 . S
N803 H806 0.984 . S
N803 H807 0.985 . S
H804 N799 0.984 . S
H805 N799 0.985 . S
H806 N803 0.984 . S
H807 N803 0.985 . S
H808 N802 0.984 . S
H809 N802 0.984 . S
H810 N798 0.984 . S
H811 N798 0.985 . S
C812 C813 1.363 . S
C812 C818 1.379 . S
C812 N820 1.356 . S
C813 C812 1.363 . S
C813 C819 1.363 . S
C814 C815 1.363 . S
C814 C819 1.379 . S
C814 N821 1.356 . S
C815 C814 1.363 . S
C815 C818 1.363 . S
N816 C818 1.356 . S
N816 H828 0.984 . S
N816 H829 0.985 . S
N817 C819 1.356 . S
N817 H822 0.984 . S
N817 H823 0.985 . S
C818 C812 1.379 . S
C818 C815 1.363 . S
C818 N816 1.356 . S
C819 C813 1.363 . S
C819 C814 1.379 . S
C819 N817 1.356 . S
N820 C812 1.356 . S
N820 H826 0.984 . S
N820 H827 0.984 . S
N821 C814 1.356 . S
N821 H824 0.984 . S
N821 H825 0.985 . S
H822 N817 0.984 . S
H823 N817 0.985 . S
H824 N821 0.984 . S
H825 N821 0.985 . S
H826 N820 0.984 . S
H827 N820 0.984 . S
H828 N816 0.984 . S
H829 N816 0.985 . S
C830 C831 1.363 . S
C830 C836 1.379 . S
C830 N838 1.356 . S
C831 C830 1.363 . S
C831 C837 1.363 . S
C832 C833 1.363 . S
C832 C837 1.379 . S
C832 N839 1.356 . S
C833 C832 1.363 . S
C833 C836 1.363 . S
N834 C836 1.356 . S
N834 H846 0.984 . S
N834 H847 0.985 . S
N835 C837 1.356 . S
N835 H840 0.984 . S
N835 H841 0.985 . S
C836 C830 1.379 . S
C836 C833 1.363 . S
C836 N834 1.356 . S
C837 C831 1.363 . S
C837 C832 1.379 . S
C837 N835 1.356 . S
N838 C830 1.356 . S
N838 H844 0.984 . S
N838 H845 0.984 . S
N839 C832 1.356 . S
N839 H842 0.984 . S
N839 H843 0.985 . S
H840 N835 0.984 . S
H841 N835 0.985 . S
H842 N839 0.984 . S
H843 N839 0.985 . S
H844 N838 0.984 . S
H845 N838 0.984 . S
H846 N834 0.984 . S
H847 N834 0.985 . S
C848 C849 1.363 . S
C848 C854 1.379 . S
C848 N856 1.356 . S
C849 C848 1.363 . S
C849 C855 1.363 . S
C850 C851 1.363 . S
C850 C855 1.379 . S
C850 N857 1.356 . S
C851 C850 1.363 . S
C851 C854 1.363 . S
N852 C854 1.356 . S
N852 H864 0.984 . S
N852 H865 0.985 . S
N853 C855 1.356 . S
N853 H858 0.984 . S
N853 H859 0.985 . S
C854 C848 1.379 . S
C854 C851 1.363 . S
C854 N852 1.356 . S
C855 C849 1.363 . S
C855 C850 1.379 . S
C855 N853 1.356 . S
N856 C848 1.356 . S
N856 H862 0.984 . S
N856 H863 0.984 . S
N857 C850 1.356 . S
N857 H860 0.984 . S
N857 H861 0.985 . S
H858 N853 0.984 . S
H859 N853 0.985 . S
H860 N857 0.984 . S
H861 N857 0.985 . S
H862 N856 0.984 . S
H863 N856 0.984 . S
H864 N852 0.984 . S
H865 N852 0.985 . S
C866 C867 1.363 . S
C866 C872 1.379 . S
C866 N874 1.356 . S
C867 C866 1.363 . S
C867 C873 1.363 . S
C868 C869 1.363 . S
C868 C873 1.379 . S
C868 N875 1.356 . S
C869 C868 1.363 . S
C869 C872 1.363 . S
N870 C872 1.356 . S
N870 H882 0.984 . S
N870 H883 0.985 . S
N871 C873 1.356 . S
N871 H876 0.984 . S
N871 H877 0.985 . S
C872 C866 1.379 . S
C872 C869 1.363 . S
C872 N870 1.356 . S
C873 C867 1.363 . S
C873 C868 1.379 . S
C873 N871 1.356 . S
N874 C866 1.356 . S
N874 H880 0.984 . S
N874 H881 0.984 . S
N875 C868 1.356 . S
N875 H878 0.984 . S
N875 H879 0.985 . S
H876 N871 0.984 . S
H877 N871 0.985 . S
H878 N875 0.984 . S
H879 N875 0.985 . S
H880 N874 0.984 . S
H881 N874 0.984 . S
H882 N870 0.984 . S
H883 N870 0.985 . S
C884 C885 1.363 . S
C884 C890 1.379 . S
C884 N892 1.356 . S
C885 C884 1.363 . S
C885 C891 1.363 . S
C886 C887 1.363 . S
C886 C891 1.379 . S
C886 N893 1.356 . S
C887 C886 1.363 . S
C887 C890 1.363 . S
N888 C890 1.356 . S
N888 H900 0.984 . S
N888 H901 0.985 . S
N889 C891 1.356 . S
N889 H894 0.984 . S
N889 H895 0.985 . S
C890 C884 1.379 . S
C890 C887 1.363 . S
C890 N888 1.356 . S
C891 C885 1.363 . S
C891 C886 1.379 . S
C891 N889 1.356 . S
N892 C884 1.356 . S
N892 H898 0.984 . S
N892 H899 0.984 . S
N893 C886 1.356 . S
N893 H896 0.984 . S
N893 H897 0.985 . S
H894 N889 0.984 . S
H895 N889 0.985 . S
H896 N893 0.984 . S
H897 N893 0.985 . S
H898 N892 0.984 . S
H899 N892 0.984 . S
H900 N888 0.984 . S
H901 N888 0.985 . S
C902 C903 1.363 . S
C902 C908 1.379 . S
C902 N910 1.356 . S
C903 C902 1.363 . S
C903 C909 1.363 . S
C904 C905 1.363 . S
C904 C909 1.379 . S
C904 N911 1.356 . S
C905 C904 1.363 . S
C905 C908 1.363 . S
N906 C908 1.356 . S
N906 H918 0.984 . S
N906 H919 0.985 . S
N907 C909 1.356 . S
N907 H912 0.984 . S
N907 H913 0.985 . S
C908 C902 1.379 . S
C908 C905 1.363 . S
C908 N906 1.356 . S
C909 C903 1.363 . S
C909 C904 1.379 . S
C909 N907 1.356 . S
N910 C902 1.356 . S
N910 H916 0.984 . S
N910 H917 0.984 . S
N911 C904 1.356 . S
N911 H914 0.984 . S
N911 H915 0.985 . S
H912 N907 0.984 . S
H913 N907 0.985 . S
H914 N911 0.984 . S
H915 N911 0.985 . S
H916 N910 0.984 . S
H917 N910 0.984 . S
H918 N906 0.984 . S
H919 N906 0.985 . S
C920 C921 1.363 . S
C920 C926 1.379 . S
C920 N928 1.356 . S
C921 C920 1.363 . S
C921 C927 1.363 . S
C922 C923 1.363 . S
C922 C927 1.379 . S
C922 N929 1.356 . S
C923 C922 1.363 . S
C923 C926 1.363 . S
N924 C926 1.356 . S
N924 H936 0.984 . S
N924 H937 0.985 . S
N925 C927 1.356 . S
N925 H930 0.984 . S
N925 H931 0.985 . S
C926 C920 1.379 . S
C926 C923 1.363 . S
C926 N924 1.356 . S
C927 C921 1.363 . S
C927 C922 1.379 . S
C927 N925 1.356 . S
N928 C920 1.356 . S
N928 H934 0.984 . S
N928 H935 0.984 . S
N929 C922 1.356 . S
N929 H932 0.984 . S
N929 H933 0.985 . S
H930 N925 0.984 . S
H931 N925 0.985 . S
H932 N929 0.984 . S
H933 N929 0.985 . S
H934 N928 0.984 . S
H935 N928 0.984 . S
H936 N924 0.984 . S
H937 N924 0.985 . S
C938 C939 1.363 . S
C938 C944 1.379 1_655 S
C938 N946 1.356 . S
C939 C938 1.363 . S
C939 C945 1.363 . S
C940 C941 1.363 . S
C940 C945 1.379 1_455 S
C940 N947 1.356 . S
C941 C940 1.363 . S
C941 C944 1.363 . S
N942 C944 1.356 . S
N942 H954 0.984 . S
N942 H955 0.985 . S
N943 C945 1.356 . S
N943 H948 0.984 . S
N943 H949 0.985 . S
C944 C938 1.379 1_455 S
C944 C941 1.363 . S
C944 N942 1.356 . S
C945 C939 1.363 . S
C945 C940 1.379 1_655 S
C945 N943 1.356 . S
N946 C938 1.356 . S
N946 H952 0.984 . S
N946 H953 0.984 . S
N947 C940 1.356 . S
N947 H950 0.984 . S
N947 H951 0.985 . S
H948 N943 0.984 . S
H949 N943 0.985 . S
H950 N947 0.984 . S
H951 N947 0.985 . S
H952 N946 0.984 . S
H953 N946 0.984 . S
H954 N942 0.984 . S
H955 N942 0.985 . S
C956 C957 1.363 . S
C956 C962 1.379 . S
C956 N964 1.356 . S
C957 C956 1.363 . S
C957 C963 1.363 . S
C958 C959 1.363 . S
C958 C963 1.379 . S
C958 N965 1.356 . S
C959 C958 1.363 . S
C959 C962 1.363 . S
N960 C962 1.356 . S
N960 H972 0.984 . S
N960 H973 0.985 . S
N961 C963 1.356 . S
N961 H966 0.984 . S
N961 H967 0.985 . S
C962 C956 1.379 . S
C962 C959 1.363 . S
C962 N960 1.356 . S
C963 C957 1.363 . S
C963 C958 1.379 . S
C963 N961 1.356 . S
N964 C956 1.356 . S
N964 H970 0.984 . S
N964 H971 0.984 . S
N965 C958 1.356 . S
N965 H968 0.984 . S
N965 H969 0.985 . S
H966 N961 0.984 . S
H967 N961 0.985 . S
H968 N965 0.984 . S
H969 N965 0.985 . S
H970 N964 0.984 . S
H971 N964 0.984 . S
H972 N960 0.984 . S
H973 N960 0.985 . S
C974 C975 1.363 . S
C974 C980 1.379 1_455 S
C974 N982 1.356 . S
C975 C974 1.363 . S
C975 C981 1.363 . S
C976 C977 1.363 . S
C976 C981 1.379 1_655 S
C976 N983 1.356 . S
C977 C976 1.363 . S
C977 C980 1.363 . S
N978 C980 1.356 . S
N978 H990 0.984 . S
N978 H991 0.985 . S
N979 C981 1.356 . S
N979 H984 0.984 . S
N979 H985 0.985 . S
C980 C974 1.379 1_655 S
C980 C977 1.363 . S
C980 N978 1.356 . S
C981 C975 1.363 . S
C981 C976 1.379 1_455 S
C981 N979 1.356 . S
N982 C974 1.356 . S
N982 H988 0.984 . S
N982 H989 0.984 . S
N983 C976 1.356 . S
N983 H986 0.984 . S
N983 H987 0.985 . S
H984 N979 0.984 . S
H985 N979 0.985 . S
H986 N983 0.984 . S
H987 N983 0.985 . S
H988 N982 0.984 . S
H989 N982 0.984 . S
H990 N978 0.984 . S
H991 N978 0.985 . S
C992 C993 1.363 . S
C992 C998 1.379 . S
C992 N1000 1.356 . S
C993 C992 1.363 . S
C993 C999 1.363 1_556 S
C994 C995 1.363 . S
C994 C999 1.379 . S
C994 N1001 1.356 . S
C995 C994 1.363 . S
C995 C998 1.363 1_554 S
N996 C998 1.356 . S
N996 H1008 0.984 . S
N996 H1009 0.964 1_556 S
N997 C999 1.356 . S
N997 H1002 0.964 1_554 S
N997 H1003 0.985 . S
C998 C992 1.379 . S
C998 C995 1.363 1_556 S
C998 N996 1.356 . S
C999 C993 1.363 1_554 S
C999 C994 1.379 . S
C999 N997 1.356 . S
N1000 C992 1.356 . S
N1000 H1006 0.984 . S
N1000 H1007 0.984 . S
N1001 C994 1.356 . S
N1001 H1004 0.984 . S
N1001 H1005 0.985 . S
H1002 N997 0.964 1_556 S
H1003 N997 0.985 . S
H1004 N1001 0.984 . S
H1005 N1001 0.985 . S
H1006 N1000 0.984 . S
H1007 N1000 0.984 . S
H1008 N996 0.984 . S
H1009 N996 0.964 1_554 S
C1010 C1011 1.363 . S
C1010 C1016 1.379 . S
C1010 N1018 1.356 . S
C1011 C1010 1.363 . S
C1011 C1017 1.363 . S
C1012 C1013 1.363 . S
C1012 C1017 1.379 . S
C1012 N1019 1.356 . S
C1013 C1012 1.363 . S
C1013 C1016 1.363 . S
N1014 C1016 1.356 . S
N1014 H1026 0.984 . S
N1014 H1027 0.985 . S
N1015 C1017 1.356 . S
N1015 H1020 0.984 . S
N1015 H1021 0.985 . S
C1016 C1010 1.379 . S
C1016 C1013 1.363 . S
C1016 N1014 1.356 . S
C1017 C1011 1.363 . S
C1017 C1012 1.379 . S
C1017 N1015 1.356 . S
N1018 C1010 1.356 . S
N1018 H1024 0.984 . S
N1018 H1025 0.984 . S
N1019 C1012 1.356 . S
N1019 H1022 0.984 . S
N1019 H1023 0.985 . S
H1020 N1015 0.984 . S
H1021 N1015 0.985 . S
H1022 N1019 0.984 . S
H1023 N1019 0.985 . S
H1024 N1018 0.984 . S
H1025 N1018 0.984 . S
H1026 N1014 0.984 . S
H1027 N1014 0.985 . S
C1028 C1029 1.363 . S
C1028 C1034 1.379 . S
C1028 N1036 1.356 . S
C1029 C1028 1.363 . S
C1029 C1035 1.363 . S
C1030 C1031 1.363 . S
C1030 C1035 1.379 . S
C1030 N1037 1.356 . S
C1031 C1030 1.363 . S
C1031 C1034 1.363 . S
N1032 C1034 1.356 . S
N1032 H1044 0.984 . S
N1032 H1045 0.985 . S
N1033 C1035 1.356 . S
N1033 H1038 0.984 . S
N1033 H1039 0.985 . S
C1034 C1028 1.379 . S
C1034 C1031 1.363 . S
C1034 N1032 1.356 . S
C1035 C1029 1.363 . S
C1035 C1030 1.379 . S
C1035 N1033 1.356 . S
N1036 C1028 1.356 . S
N1036 H1042 0.984 . S
N1036 H1043 0.984 . S
N1037 C1030 1.356 . S
N1037 H1040 0.984 . S
N1037 H1041 0.985 . S
H1038 N1033 0.984 . S
H1039 N1033 0.985 . S
H1040 N1037 0.984 . S
H1041 N1037 0.985 . S
H1042 N1036 0.984 . S
H1043 N1036 0.984 . S
H1044 N1032 0.984 . S
H1045 N1032 0.985 . S
C1046 C1047 1.363 . S
C1046 C1052 1.379 . S
C1046 N1054 1.356 . S
C1047 C1046 1.363 . S
C1047 C1053 1.363 . S
C1048 C1049 1.363 . S
C1048 C1053 1.379 . S
C1048 N1055 1.356 . S
C1049 C1048 1.363 . S
C1049 C1052 1.363 . S
N1050 C1052 1.356 . S
N1050 H1062 0.984 . S
N1050 H1063 0.985 . S
N1051 C1053 1.356 . S
N1051 H1056 0.984 . S
N1051 H1057 0.985 . S
C1052 C1046 1.379 . S
C1052 C1049 1.363 . S
C1052 N1050 1.356 . S
C1053 C1047 1.363 . S
C1053 C1048 1.379 . S
C1053 N1051 1.356 . S
N1054 C1046 1.356 . S
N1054 H1060 0.984 . S
N1054 H1061 0.984 . S
N1055 C1048 1.356 . S
N1055 H1058 0.984 . S
N1055 H1059 0.985 . S
H1056 N1051 0.984 . S
H1057 N1051 0.985 . S
H1058 N1055 0.984 . S
H1059 N1055 0.985 . S
H1060 N1054 0.984 . S
H1061 N1054 0.984 . S
H1062 N1050 0.984 . S
H1063 N1050 0.985 . S
C1064 C1065 1.363 1_556 S
C1064 C1070 1.379 . S
C1064 N1072 1.356 . S
C1065 C1064 1.363 1_554 S
C1065 C1071 1.363 . S
C1066 C1067 1.363 1_554 S
C1066 C1071 1.379 . S
C1066 N1073 1.356 . S
C1067 C1066 1.363 1_556 S
C1067 C1070 1.363 . S
N1068 C1070 1.356 . S
N1068 H1080 0.984 . S
N1068 H1081 0.985 . S
N1069 C1071 1.356 . S
N1069 H1074 0.984 . S
N1069 H1075 0.985 . S
C1070 C1064 1.379 . S
C1070 C1067 1.363 . S
C1070 N1068 1.356 . S
C1071 C1065 1.363 . S
C1071 C1066 1.379 . S
C1071 N1069 1.356 . S
N1072 C1064 1.356 . S
N1072 H1078 0.984 . S
N1072 H1079 0.984 1_556 S
N1073 C1066 1.356 . S
N1073 H1076 0.984 1_554 S
N1073 H1077 0.985 . S
H1074 N1069 0.984 . S
H1075 N1069 0.985 . S
H1076 N1073 0.984 1_556 S
H1077 N1073 0.985 . S
H1078 N1072 0.984 . S
H1079 N1072 0.984 1_554 S
H1080 N1068 0.984 . S
H1081 N1068 0.985 . S
C1082 C1083 1.363 . S
C1082 C1088 1.379 . S
C1082 N1090 1.356 . S
C1083 C1082 1.363 . S
C1083 C1089 1.363 . S
C1084 C1085 1.363 . S
C1084 C1089 1.379 . S
C1084 N1091 1.356 . S
C1085 C1084 1.363 . S
C1085 C1088 1.363 . S
N1086 C1088 1.356 . S
N1086 H1098 0.984 . S
N1086 H1099 0.985 . S
N1087 C1089 1.356 . S
N1087 H1092 0.984 . S
N1087 H1093 0.985 . S
C1088 C1082 1.379 . S
C1088 C1085 1.363 . S
C1088 N1086 1.356 . S
C1089 C1083 1.363 . S
C1089 C1084 1.379 . S
C1089 N1087 1.356 . S
N1090 C1082 1.356 . S
N1090 H1096 0.984 . S
N1090 H1097 0.984 . S
N1091 C1084 1.356 . S
N1091 H1094 0.984 . S
N1091 H1095 0.985 . S
H1092 N1087 0.984 . S
H1093 N1087 0.985 . S
H1094 N1091 0.984 . S
H1095 N1091 0.985 . S
H1096 N1090 0.984 . S
H1097 N1090 0.984 . S
H1098 N1086 0.984 . S
H1099 N1086 0.985 . S
C1100 C1101 1.363 . S
C1100 C1106 1.379 . S
C1100 N1108 1.356 . S
C1101 C1100 1.363 . S
C1101 C1107 1.363 . S
C1102 C1103 1.363 . S
C1102 C1107 1.379 . S
C1102 N1109 1.356 . S
C1103 C1102 1.363 . S
C1103 C1106 1.363 . S
N1104 C1106 1.356 . S
N1104 H1116 0.984 . S
N1104 H1117 0.985 . S
N1105 C1107 1.356 . S
N1105 H1110 0.984 . S
N1105 H1111 0.985 . S
C1106 C1100 1.379 . S
C1106 C1103 1.363 . S
C1106 N1104 1.356 . S
C1107 C1101 1.363 . S
C1107 C1102 1.379 . S
C1107 N1105 1.356 . S
N1108 C1100 1.356 . S
N1108 H1114 0.984 . S
N1108 H1115 0.984 . S
N1109 C1102 1.356 . S
N1109 H1112 0.984 . S
N1109 H1113 0.985 . S
H1110 N1105 0.984 . S
H1111 N1105 0.985 . S
H1112 N1109 0.984 . S
H1113 N1109 0.985 . S
H1114 N1108 0.984 . S
H1115 N1108 0.984 . S
H1116 N1104 0.984 . S
H1117 N1104 0.985 . S
C1118 C1119 1.363 . S
C1118 C1124 1.379 . S
C1118 N1126 1.356 . S
C1119 C1118 1.363 . S
C1119 C1125 1.363 . S
C1120 C1121 1.363 . S
C1120 C1125 1.379 . S
C1120 N1127 1.356 . S
C1121 C1120 1.363 . S
C1121 C1124 1.363 . S
N1122 C1124 1.356 . S
N1122 H1134 0.984 . S
N1122 H1135 0.985 . S
N1123 C1125 1.356 . S
N1123 H1128 0.984 . S
N1123 H1129 0.985 . S
C1124 C1118 1.379 . S
C1124 C1121 1.363 . S
C1124 N1122 1.356 . S
C1125 C1119 1.363 . S
C1125 C1120 1.379 . S
C1125 N1123 1.356 . S
N1126 C1118 1.356 . S
N1126 H1132 0.984 . S
N1126 H1133 0.984 . S
N1127 C1120 1.356 . S
N1127 H1130 0.984 . S
N1127 H1131 0.985 . S
H1128 N1123 0.984 . S
H1129 N1123 0.985 . S
H1130 N1127 0.984 . S
H1131 N1127 0.985 . S
H1132 N1126 0.984 . S
H1133 N1126 0.984 . S
H1134 N1122 0.984 . S
H1135 N1122 0.985 . S
C1136 C1137 1.346 1_565 S
C1136 C1142 1.395 . S
C1136 N1144 1.351 1_565 S
C1137 C1136 1.346 1_545 S
C1137 C1143 1.363 . S
C1138 C1139 1.346 1_545 S
C1138 C1143 1.395 . S
C1138 N1145 1.351 1_545 S
C1139 C1138 1.346 1_565 S
C1139 C1142 1.363 . S
N1140 C1142 1.356 . S
N1140 H1152 0.984 . S
N1140 H1153 0.985 . S
N1141 C1143 1.356 . S
N1141 H1146 0.984 . S
N1141 H1147 0.985 . S
C1142 C1136 1.395 . S
C1142 C1139 1.363 . S
C1142 N1140 1.356 . S
C1143 C1137 1.363 . S
C1143 C1138 1.395 . S
C1143 N1141 1.356 . S
N1144 C1136 1.351 1_545 S
N1144 H1150 0.984 1_545 S
N1144 H1151 0.984 . S
N1145 C1138 1.351 1_565 S
N1145 H1148 0.984 . S
N1145 H1149 0.985 1_565 S
H1146 N1141 0.984 . S
H1147 N1141 0.985 . S
H1148 N1145 0.984 . S
H1149 N1145 0.985 1_545 S
H1150 N1144 0.984 1_565 S
H1151 N1144 0.984 . S
H1152 N1140 0.984 . S
H1153 N1140 0.985 . S
C1154 C1155 1.363 . S
C1154 C1160 1.379 . S
C1154 N1162 1.356 . S
C1155 C1154 1.363 . S
C1155 C1161 1.363 . S
C1156 C1157 1.363 . S
C1156 C1161 1.379 . S
C1156 N1163 1.356 . S
C1157 C1156 1.363 . S
C1157 C1160 1.363 . S
N1158 C1160 1.356 . S
N1158 H1170 0.984 . S
N1158 H1171 0.985 . S
N1159 C1161 1.356 . S
N1159 H1164 0.984 . S
N1159 H1165 0.985 . S
C1160 C1154 1.379 . S
C1160 C1157 1.363 . S
C1160 N1158 1.356 . S
C1161 C1155 1.363 . S
C1161 C1156 1.379 . S
C1161 N1159 1.356 . S
N1162 C1154 1.356 . S
N1162 H1168 0.984 . S
N1162 H1169 0.984 . S
N1163 C1156 1.356 . S
N1163 H1166 0.984 . S
N1163 H1167 0.985 . S
H1164 N1159 0.984 . S
H1165 N1159 0.985 . S
H1166 N1163 0.984 . S
H1167 N1163 0.985 . S
H1168 N1162 0.984 . S
H1169 N1162 0.984 . S
H1170 N1158 0.984 . S
H1171 N1158 0.985 . S
C1172 C1173 1.383 . S
C1172 C1178 1.359 1_565 S
C1172 N1180 1.363 . S
C1173 C1172 1.383 . S
C1173 C1179 1.363 1_554 S
C1174 C1175 1.383 . S
C1174 C1179 1.359 1_545 S
C1174 N1181 1.363 . S
C1175 C1174 1.383 . S
C1175 C1178 1.363 1_556 S
N1176 C1178 1.356 . S
N1176 H1188 0.984 . S
N1176 H1189 0.985 1_554 S
N1177 C1179 1.356 . S
N1177 H1182 0.984 1_556 S
N1177 H1183 0.985 . S
C1178 C1172 1.359 1_545 S
C1178 C1175 1.363 1_554 S
C1178 N1176 1.356 . S
C1179 C1173 1.363 1_556 S
C1179 C1174 1.359 1_565 S
C1179 N1177 1.356 . S
N1180 C1172 1.363 . S
N1180 H1186 0.984 1_565 S
N1180 H1187 0.984 . S
N1181 C1174 1.363 . S
N1181 H1184 0.984 . S
N1181 H1185 0.985 1_545 S
H1182 N1177 0.984 1_554 S
H1183 N1177 0.985 . S
H1184 N1181 0.984 . S
H1185 N1181 0.985 1_565 S
H1186 N1180 0.984 1_545 S
H1187 N1180 0.984 . S
H1188 N1176 0.984 . S
H1189 N1176 0.985 1_556 S
C1190 C1191 1.363 . S
C1190 C1196 1.379 . S
C1190 N1198 1.356 . S
C1191 C1190 1.363 . S
C1191 C1197 1.363 . S
C1192 C1193 1.363 . S
C1192 C1197 1.379 . S
C1192 N1199 1.356 . S
C1193 C1192 1.363 . S
C1193 C1196 1.363 . S
N1194 C1196 1.356 . S
N1194 H1206 0.984 . S
N1194 H1207 0.985 . S
N1195 C1197 1.356 . S
N1195 H1200 0.984 . S
N1195 H1201 0.985 . S
C1196 C1190 1.379 . S
C1196 C1193 1.363 . S
C1196 N1194 1.356 . S
C1197 C1191 1.363 . S
C1197 C1192 1.379 . S
C1197 N1195 1.356 . S
N1198 C1190 1.356 . S
N1198 H1204 0.984 . S
N1198 H1205 0.984 . S
N1199 C1192 1.356 . S
N1199 H1202 0.984 . S
N1199 H1203 0.985 . S
H1200 N1195 0.984 . S
H1201 N1195 0.985 . S
H1202 N1199 0.984 . S
H1203 N1199 0.985 . S
H1204 N1198 0.984 . S
H1205 N1198 0.984 . S
H1206 N1194 0.984 . S
H1207 N1194 0.985 . S
C1208 C1209 1.363 1_565 S
C1208 C1214 1.379 . S
C1208 N1216 1.356 1_565 S
C1209 C1208 1.363 1_545 S
C1209 C1215 1.363 . S
C1210 C1211 1.363 1_545 S
C1210 C1215 1.379 . S
C1210 N1217 1.356 1_545 S
C1211 C1210 1.363 1_565 S
C1211 C1214 1.363 . S
N1212 C1214 1.356 . S
N1212 H1224 0.984 . S
N1212 H1225 0.985 . S
N1213 C1215 1.356 . S
N1213 H1218 0.984 . S
N1213 H1219 0.985 . S
C1214 C1208 1.379 . S
C1214 C1211 1.363 . S
C1214 N1212 1.356 . S
C1215 C1209 1.363 . S
C1215 C1210 1.379 . S
C1215 N1213 1.356 . S
N1216 C1208 1.356 1_545 S
N1216 H1222 0.984 1_545 S
N1216 H1223 0.984 . S
N1217 C1210 1.356 1_565 S
N1217 H1220 0.984 . S
N1217 H1221 0.985 1_565 S
H1218 N1213 0.984 . S
H1219 N1213 0.985 . S
H1220 N1217 0.984 . S
H1221 N1217 0.985 1_545 S
H1222 N1216 0.984 1_565 S
H1223 N1216 0.984 . S
H1224 N1212 0.984 . S
H1225 N1212 0.985 . S
C1226 C1227 1.363 . S
C1226 C1232 1.379 . S
C1226 N1234 1.356 . S
C1227 C1226 1.363 . S
C1227 C1233 1.363 . S
C1228 C1229 1.363 . S
C1228 C1233 1.379 . S
C1228 N1235 1.356 . S
C1229 C1228 1.363 . S
C1229 C1232 1.363 . S
N1230 C1232 1.356 . S
N1230 H1242 0.984 . S
N1230 H1243 0.985 . S
N1231 C1233 1.356 . S
N1231 H1236 0.984 . S
N1231 H1237 0.985 . S
C1232 C1226 1.379 . S
C1232 C1229 1.363 . S
C1232 N1230 1.356 . S
C1233 C1227 1.363 . S
C1233 C1228 1.379 . S
C1233 N1231 1.356 . S
N1234 C1226 1.356 . S
N1234 H1240 0.984 . S
N1234 H1241 0.984 . S
N1235 C1228 1.356 . S
N1235 H1238 0.984 . S
N1235 H1239 0.985 . S
H1236 N1231 0.984 . S
H1237 N1231 0.985 . S
H1238 N1235 0.984 . S
H1239 N1235 0.985 . S
H1240 N1234 0.984 . S
H1241 N1234 0.984 . S
H1242 N1230 0.984 . S
H1243 N1230 0.985 . S
C1244 C1245 1.362 1_545 S
C1244 C1250 1.380 . S
C1244 N1252 1.356 1_545 S
C1245 C1244 1.362 1_565 S
C1245 C1251 1.363 1_554 S
C1246 C1247 1.362 1_565 S
C1246 C1251 1.380 . S
C1246 N1253 1.356 1_565 S
C1247 C1246 1.362 1_545 S
C1247 C1250 1.363 1_556 S
N1248 C1250 1.356 . S
N1248 H1260 0.984 . S
N1248 H1261 0.978 1_554 S
N1249 C1251 1.356 . S
N1249 H1254 0.978 1_556 S
N1249 H1255 0.985 . S
C1250 C1244 1.380 . S
C1250 C1247 1.363 1_554 S
C1250 N1248 1.356 . S
C1251 C1245 1.363 1_556 S
C1251 C1246 1.380 . S
C1251 N1249 1.356 . S
N1252 C1244 1.356 1_565 S
N1252 H1258 0.984 1_565 S
N1252 H1259 0.984 . S
N1253 C1246 1.356 1_545 S
N1253 H1256 0.984 . S
N1253 H1257 0.985 1_545 S
H1254 N1249 0.978 1_554 S
H1255 N1249 0.985 . S
H1256 N1253 0.984 . S
H1257 N1253 0.985 1_565 S
H1258 N1252 0.984 1_545 S
H1259 N1252 0.984 . S
H1260 N1248 0.984 . S
H1261 N1248 0.978 1_556 S
C1262 C1263 1.363 . S
C1262 C1268 1.379 . S
C1262 N1270 1.356 . S
C1263 C1262 1.363 . S
C1263 C1269 1.363 . S
C1264 C1265 1.363 . S
C1264 C1269 1.379 . S
C1264 N1271 1.356 . S
C1265 C1264 1.363 . S
C1265 C1268 1.363 . S
N1266 C1268 1.356 . S
N1266 H1278 0.984 . S
N1266 H1279 0.985 . S
N1267 C1269 1.356 . S
N1267 H1272 0.984 . S
N1267 H1273 0.985 . S
C1268 C1262 1.379 . S
C1268 C1265 1.363 . S
C1268 N1266 1.356 . S
C1269 C1263 1.363 . S
C1269 C1264 1.379 . S
C1269 N1267 1.356 . S
N1270 C1262 1.356 . S
N1270 H1276 0.984 . S
N1270 H1277 0.984 . S
N1271 C1264 1.356 . S
N1271 H1274 0.984 . S
N1271 H1275 0.985 . S
H1272 N1267 0.984 . S
H1273 N1267 0.985 . S
H1274 N1271 0.984 . S
H1275 N1271 0.985 . S
H1276 N1270 0.984 . S
H1277 N1270 0.984 . S
H1278 N1266 0.984 . S
H1279 N1266 0.985 . S
C1280 C1281 1.363 . S
C1280 C1286 1.379 . S
C1280 N1288 1.356 . S
C1281 C1280 1.363 . S
C1281 C1287 1.363 . S
C1282 C1283 1.363 . S
C1282 C1287 1.379 . S
C1282 N1289 1.356 . S
C1283 C1282 1.363 . S
C1283 C1286 1.363 . S
N1284 C1286 1.356 . S
N1284 H1296 0.984 . S
N1284 H1297 0.985 . S
N1285 C1287 1.356 . S
N1285 H1290 0.984 . S
N1285 H1291 0.985 . S
C1286 C1280 1.379 . S
C1286 C1283 1.363 . S
C1286 N1284 1.356 . S
C1287 C1281 1.363 . S
C1287 C1282 1.379 . S
C1287 N1285 1.356 . S
N1288 C1280 1.356 . S
N1288 H1294 0.984 . S
N1288 H1295 0.984 . S
N1289 C1282 1.356 . S
N1289 H1292 0.984 . S
N1289 H1293 0.985 . S
H1290 N1285 0.984 . S
H1291 N1285 0.985 . S
H1292 N1289 0.984 . S
H1293 N1289 0.985 . S
H1294 N1288 0.984 . S
H1295 N1288 0.984 . S
H1296 N1284 0.984 . S
H1297 N1284 0.985 . S
C1298 C1299 1.363 . S
C1298 C1304 1.379 . S
C1298 N1306 1.356 . S
C1299 C1298 1.363 . S
C1299 C1305 1.363 . S
C1300 C1301 1.363 . S
C1300 C1305 1.379 . S
C1300 N1307 1.356 . S
C1301 C1300 1.363 . S
C1301 C1304 1.363 . S
N1302 C1304 1.356 . S
N1302 H1314 0.984 . S
N1302 H1315 0.985 . S
N1303 C1305 1.356 . S
N1303 H1308 0.984 . S
N1303 H1309 0.985 . S
C1304 C1298 1.379 . S
C1304 C1301 1.363 . S
C1304 N1302 1.356 . S
C1305 C1299 1.363 . S
C1305 C1300 1.379 . S
C1305 N1303 1.356 . S
N1306 C1298 1.356 . S
N1306 H1312 0.984 . S
N1306 H1313 0.984 . S
N1307 C1300 1.356 . S
N1307 H1310 0.984 . S
N1307 H1311 0.985 . S
H1308 N1303 0.984 . S
H1309 N1303 0.985 . S
H1310 N1307 0.984 . S
H1311 N1307 0.985 . S
H1312 N1306 0.984 . S
H1313 N1306 0.984 . S
H1314 N1302 0.984 . S
H1315 N1302 0.985 . S
C1316 C1317 1.363 . S
C1316 C1322 1.379 . S
C1316 N1324 1.356 . S
C1317 C1316 1.363 . S
C1317 C1323 1.363 . S
C1318 C1319 1.363 . S
C1318 C1323 1.379 . S
C1318 N1325 1.356 . S
C1319 C1318 1.363 . S
C1319 C1322 1.363 . S
N1320 C1322 1.356 . S
N1320 H1332 0.984 . S
N1320 H1333 0.985 . S
N1321 C1323 1.356 . S
N1321 H1326 0.984 . S
N1321 H1327 0.985 . S
C1322 C1316 1.379 . S
C1322 C1319 1.363 . S
C1322 N1320 1.356 . S
C1323 C1317 1.363 . S
C1323 C1318 1.379 . S
C1323 N1321 1.356 . S
N1324 C1316 1.356 . S
N1324 H1330 0.984 . S
N1324 H1331 0.984 . S
N1325 C1318 1.356 . S
N1325 H1328 0.984 . S
N1325 H1329 0.985 . S
H1326 N1321 0.984 . S
H1327 N1321 0.985 . S
H1328 N1325 0.984 . S
H1329 N1325 0.985 . S
H1330 N1324 0.984 . S
H1331 N1324 0.984 . S
H1332 N1320 0.984 . S
H1333 N1320 0.985 . S
C1334 C1335 1.363 . S
C1334 C1340 1.379 1_655 S
C1334 N1342 1.356 . S
C1335 C1334 1.363 . S
C1335 C1341 1.363 . S
C1336 C1337 1.363 . S
C1336 C1341 1.379 1_455 S
C1336 N1343 1.356 . S
C1337 C1336 1.363 . S
C1337 C1340 1.363 . S
N1338 C1340 1.356 . S
N1338 H1350 0.984 . S
N1338 H1351 0.985 . S
N1339 C1341 1.356 . S
N1339 H1344 0.984 . S
N1339 H1345 0.985 . S
C1340 C1334 1.379 1_455 S
C1340 C1337 1.363 . S
C1340 N1338 1.356 . S
C1341 C1335 1.363 . S
C1341 C1336 1.379 1_655 S
C1341 N1339 1.356 . S
N1342 C1334 1.356 . S
N1342 H1348 0.984 . S
N1342 H1349 0.984 . S
N1343 C1336 1.356 . S
N1343 H1346 0.984 . S
N1343 H1347 0.985 . S
H1344 N1339 0.984 . S
H1345 N1339 0.985 . S
H1346 N1343 0.984 . S
H1347 N1343 0.985 . S
H1348 N1342 0.984 . S
H1349 N1342 0.984 . S
H1350 N1338 0.984 . S
H1351 N1338 0.985 . S
C1352 C1353 1.363 . S
C1352 C1358 1.379 . S
C1352 N1360 1.356 . S
C1353 C1352 1.363 . S
C1353 C1359 1.363 . S
C1354 C1355 1.363 . S
C1354 C1359 1.379 . S
C1354 N1361 1.356 . S
C1355 C1354 1.363 . S
C1355 C1358 1.363 . S
N1356 C1358 1.356 . S
N1356 H1368 0.984 . S
N1356 H1369 0.985 . S
N1357 C1359 1.356 . S
N1357 H1362 0.984 . S
N1357 H1363 0.985 . S
C1358 C1352 1.379 . S
C1358 C1355 1.363 . S
C1358 N1356 1.356 . S
C1359 C1353 1.363 . S
C1359 C1354 1.379 . S
C1359 N1357 1.356 . S
N1360 C1352 1.356 . S
N1360 H1366 0.984 . S
N1360 H1367 0.984 . S
N1361 C1354 1.356 . S
N1361 H1364 0.984 . S
N1361 H1365 0.985 . S
H1362 N1357 0.984 . S
H1363 N1357 0.985 . S
H1364 N1361 0.984 . S
H1365 N1361 0.985 . S
H1366 N1360 0.984 . S
H1367 N1360 0.984 . S
H1368 N1356 0.984 . S
H1369 N1356 0.985 . S
C1370 C1371 1.363 . S
C1370 C1376 1.379 1_655 S
C1370 N1378 1.356 . S
C1371 C1370 1.363 . S
C1371 C1377 1.363 . S
C1372 C1373 1.363 . S
C1372 C1377 1.379 1_455 S
C1372 N1379 1.356 . S
C1373 C1372 1.363 . S
C1373 C1376 1.363 . S
N1374 C1376 1.356 . S
N1374 H1386 0.984 . S
N1374 H1387 0.985 . S
N1375 C1377 1.356 . S
N1375 H1380 0.984 . S
N1375 H1381 0.985 . S
C1376 C1370 1.379 1_455 S
C1376 C1373 1.363 . S
C1376 N1374 1.356 . S
C1377 C1371 1.363 . S
C1377 C1372 1.379 1_655 S
C1377 N1375 1.356 . S
N1378 C1370 1.356 . S
N1378 H1384 0.984 . S
N1378 H1385 0.984 . S
N1379 C1372 1.356 . S
N1379 H1382 0.984 . S
N1379 H1383 0.985 . S
H1380 N1375 0.984 . S
H1381 N1375 0.985 . S
H1382 N1379 0.984 . S
H1383 N1379 0.985 . S
H1384 N1378 0.984 . S
H1385 N1378 0.984 . S
H1386 N1374 0.984 . S
H1387 N1374 0.985 . S
C1388 C1389 1.363 . S
C1388 C1394 1.379 . S
C1388 N1396 1.356 . S
C1389 C1388 1.363 . S
C1389 C1395 1.363 . S
C1390 C1391 1.363 . S
C1390 C1395 1.379 . S
C1390 N1397 1.356 . S
C1391 C1390 1.363 . S
C1391 C1394 1.363 . S
N1392 C1394 1.356 . S
N1392 H1404 0.984 . S
N1392 H1405 0.985 . S
N1393 C1395 1.356 . S
N1393 H1398 0.984 . S
N1393 H1399 0.985 . S
C1394 C1388 1.379 . S
C1394 C1391 1.363 . S
C1394 N1392 1.356 . S
C1395 C1389 1.363 . S
C1395 C1390 1.379 . S
C1395 N1393 1.356 . S
N1396 C1388 1.356 . S
N1396 H1402 0.984 . S
N1396 H1403 0.984 . S
N1397 C1390 1.356 . S
N1397 H1400 0.984 . S
N1397 H1401 0.985 . S
H1398 N1393 0.984 . S
H1399 N1393 0.985 . S
H1400 N1397 0.984 . S
H1401 N1397 0.985 . S
H1402 N1396 0.984 . S
H1403 N1396 0.984 . S
H1404 N1392 0.984 . S
H1405 N1392 0.985 . S
C1406 C1407 1.363 . S
C1406 C1412 1.379 . S
C1406 N1414 1.356 . S
C1407 C1406 1.363 . S
C1407 C1413 1.363 . S
C1408 C1409 1.363 . S
C1408 C1413 1.379 . S
C1408 N1415 1.356 . S
C1409 C1408 1.363 . S
C1409 C1412 1.363 . S
N1410 C1412 1.356 . S
N1410 H1422 0.984 . S
N1410 H1423 0.985 . S
N1411 C1413 1.356 . S
N1411 H1416 0.984 . S
N1411 H1417 0.985 . S
C1412 C1406 1.379 . S
C1412 C1409 1.363 . S
C1412 N1410 1.356 . S
C1413 C1407 1.363 . S
C1413 C1408 1.379 . S
C1413 N1411 1.356 . S
N1414 C1406 1.356 . S
N1414 H1420 0.984 . S
N1414 H1421 0.984 . S
N1415 C1408 1.356 . S
N1415 H1418 0.984 . S
N1415 H1419 0.985 . S
H1416 N1411 0.984 . S
H1417 N1411 0.985 . S
H1418 N1415 0.984 . S
H1419 N1415 0.985 . S
H1420 N1414 0.984 . S
H1421 N1414 0.984 . S
H1422 N1410 0.984 . S
H1423 N1410 0.985 . S
C1424 C1425 1.363 . S
C1424 C1430 1.379 . S
C1424 N1432 1.356 . S
C1425 C1424 1.363 . S
C1425 C1431 1.363 . S
C1426 C1427 1.363 . S
C1426 C1431 1.379 . S
C1426 N1433 1.356 . S
C1427 C1426 1.363 . S
C1427 C1430 1.363 . S
N1428 C1430 1.356 . S
N1428 H1440 0.984 . S
N1428 H1441 0.985 . S
N1429 C1431 1.356 . S
N1429 H1434 0.984 . S
N1429 H1435 0.985 . S
C1430 C1424 1.379 . S
C1430 C1427 1.363 . S
C1430 N1428 1.356 . S
C1431 C1425 1.363 . S
C1431 C1426 1.379 . S
C1431 N1429 1.356 . S
N1432 C1424 1.356 . S
N1432 H1438 0.984 . S
N1432 H1439 0.984 . S
N1433 C1426 1.356 . S
N1433 H1436 0.984 . S
N1433 H1437 0.985 . S
H1434 N1429 0.984 . S
H1435 N1429 0.985 . S
H1436 N1433 0.984 . S
H1437 N1433 0.985 . S
H1438 N1432 0.984 . S
H1439 N1432 0.984 . S
H1440 N1428 0.984 . S
H1441 N1428 0.985 . S
C1442 C1443 1.363 . S
C1442 C1448 1.379 . S
C1442 N1450 1.356 . S
C1443 C1442 1.363 . S
C1443 C1449 1.363 . S
C1444 C1445 1.363 . S
C1444 C1449 1.379 . S
C1444 N1451 1.356 . S
C1445 C1444 1.363 . S
C1445 C1448 1.363 . S
N1446 C1448 1.356 . S
N1446 H1458 0.984 . S
N1446 H1459 0.985 . S
N1447 C1449 1.356 . S
N1447 H1452 0.984 . S
N1447 H1453 0.985 . S
C1448 C1442 1.379 . S
C1448 C1445 1.363 . S
C1448 N1446 1.356 . S
C1449 C1443 1.363 . S
C1449 C1444 1.379 . S
C1449 N1447 1.356 . S
N1450 C1442 1.356 . S
N1450 H1456 0.984 . S
N1450 H1457 0.984 . S
N1451 C1444 1.356 . S
N1451 H1454 0.984 . S
N1451 H1455 0.985 . S
H1452 N1447 0.984 . S
H1453 N1447 0.985 . S
H1454 N1451 0.984 . S
H1455 N1451 0.985 . S
H1456 N1450 0.984 . S
H1457 N1450 0.984 . S
H1458 N1446 0.984 . S
H1459 N1446 0.985 . S
C1460 C1461 1.363 . S
C1460 C1466 1.379 . S
C1460 N1468 1.356 . S
C1461 C1460 1.363 . S
C1461 C1467 1.363 . S
C1462 C1463 1.363 . S
C1462 C1467 1.379 . S
C1462 N1469 1.356 . S
C1463 C1462 1.363 . S
C1463 C1466 1.363 . S
N1464 C1466 1.356 . S
N1464 H1476 0.984 . S
N1464 H1477 0.985 . S
N1465 C1467 1.356 . S
N1465 H1470 0.984 . S
N1465 H1471 0.985 . S
C1466 C1460 1.379 . S
C1466 C1463 1.363 . S
C1466 N1464 1.356 . S
C1467 C1461 1.363 . S
C1467 C1462 1.379 . S
C1467 N1465 1.356 . S
N1468 C1460 1.356 . S
N1468 H1474 0.984 . S
N1468 H1475 0.984 . S
N1469 C1462 1.356 . S
N1469 H1472 0.984 . S
N1469 H1473 0.985 . S
H1470 N1465 0.984 . S
H1471 N1465 0.985 . S
H1472 N1469 0.984 . S
H1473 N1469 0.985 . S
H1474 N1468 0.984 . S
H1475 N1468 0.984 . S
H1476 N1464 0.984 . S
H1477 N1464 0.985 . S
C1478 C1479 1.363 . S
C1478 C1484 1.379 . S
C1478 N1486 1.356 . S
C1479 C1478 1.363 . S
C1479 C1485 1.363 . S
C1480 C1481 1.363 . S
C1480 C1485 1.379 . S
C1480 N1487 1.356 . S
C1481 C1480 1.363 . S
C1481 C1484 1.363 . S
N1482 C1484 1.356 . S
N1482 H1494 0.984 . S
N1482 H1495 0.985 . S
N1483 C1485 1.356 . S
N1483 H1488 0.984 . S
N1483 H1489 0.985 . S
C1484 C1478 1.379 . S
C1484 C1481 1.363 . S
C1484 N1482 1.356 . S
C1485 C1479 1.363 . S
C1485 C1480 1.379 . S
C1485 N1483 1.356 . S
N1486 C1478 1.356 . S
N1486 H1492 0.984 . S
N1486 H1493 0.984 . S
N1487 C1480 1.356 . S
N1487 H1490 0.984 . S
N1487 H1491 0.985 . S
H1488 N1483 0.984 . S
H1489 N1483 0.985 . S
H1490 N1487 0.984 . S
H1491 N1487 0.985 . S
H1492 N1486 0.984 . S
H1493 N1486 0.984 . S
H1494 N1482 0.984 . S
H1495 N1482 0.985 . S
C1496 C1497 1.363 . S
C1496 C1502 1.379 1_655 S
C1496 N1504 1.356 . S
C1497 C1496 1.363 . S
C1497 C1503 1.363 . S
C1498 C1499 1.363 . S
C1498 C1503 1.379 1_455 S
C1498 N1505 1.356 . S
C1499 C1498 1.363 . S
C1499 C1502 1.363 . S
N1500 C1502 1.356 . S
N1500 H1512 0.984 . S
N1500 H1513 0.985 . S
N1501 C1503 1.356 . S
N1501 H1506 0.984 . S
N1501 H1507 0.985 . S
C1502 C1496 1.379 1_455 S
C1502 C1499 1.363 . S
C1502 N1500 1.356 . S
C1503 C1497 1.363 . S
C1503 C1498 1.379 1_655 S
C1503 N1501 1.356 . S
N1504 C1496 1.356 . S
N1504 H1510 0.984 . S
N1504 H1511 0.984 . S
N1505 C1498 1.356 . S
N1505 H1508 0.984 . S
N1505 H1509 0.985 . S
H1506 N1501 0.984 . S
H1507 N1501 0.985 . S
H1508 N1505 0.984 . S
H1509 N1505 0.985 . S
H1510 N1504 0.984 . S
H1511 N1504 0.984 . S
H1512 N1500 0.984 . S
H1513 N1500 0.985 . S
C1514 C1515 1.363 . S
C1514 C1520 1.379 . S
C1514 N1522 1.356 . S
C1515 C1514 1.363 . S
C1515 C1521 1.363 . S
C1516 C1517 1.363 . S
C1516 C1521 1.379 . S
C1516 N1523 1.356 . S
C1517 C1516 1.363 . S
C1517 C1520 1.363 . S
N1518 C1520 1.356 . S
N1518 H1530 0.984 . S
N1518 H1531 0.985 . S
N1519 C1521 1.356 . S
N1519 H1524 0.984 . S
N1519 H1525 0.985 . S
C1520 C1514 1.379 . S
C1520 C1517 1.363 . S
C1520 N1518 1.356 . S
C1521 C1515 1.363 . S
C1521 C1516 1.379 . S
C1521 N1519 1.356 . S
N1522 C1514 1.356 . S
N1522 H1528 0.984 . S
N1522 H1529 0.984 . S
N1523 C1516 1.356 . S
N1523 H1526 0.984 . S
N1523 H1527 0.985 . S
H1524 N1519 0.984 . S
H1525 N1519 0.985 . S
H1526 N1523 0.984 . S
H1527 N1523 0.985 . S
H1528 N1522 0.984 . S
H1529 N1522 0.984 . S
H1530 N1518 0.984 . S
H1531 N1518 0.985 . S
C1532 C1533 1.363 . S
C1532 C1538 1.379 . S
C1532 N1540 1.356 . S
C1533 C1532 1.363 . S
C1533 C1539 1.363 . S
C1534 C1535 1.363 . S
C1534 C1539 1.379 . S
C1534 N1541 1.356 . S
C1535 C1534 1.363 . S
C1535 C1538 1.363 . S
N1536 C1538 1.356 . S
N1536 H1548 0.984 . S
N1536 H1549 0.985 . S
N1537 C1539 1.356 . S
N1537 H1542 0.984 . S
N1537 H1543 0.985 . S
C1538 C1532 1.379 . S
C1538 C1535 1.363 . S
C1538 N1536 1.356 . S
C1539 C1533 1.363 . S
C1539 C1534 1.379 . S
C1539 N1537 1.356 . S
N1540 C1532 1.356 . S
N1540 H1546 0.984 . S
N1540 H1547 0.984 . S
N1541 C1534 1.356 . S
N1541 H1544 0.984 . S
N1541 H1545 0.985 . S
H1542 N1537 0.984 . S
H1543 N1537 0.985 . S
H1544 N1541 0.984 . S
H1545 N1541 0.985 . S
H1546 N1540 0.984 . S
H1547 N1540 0.984 . S
H1548 N1536 0.984 . S
H1549 N1536 0.985 . S
C1550 C1551 1.363 . S
C1550 C1556 1.379 1_655 S
C1550 N1558 1.356 . S
C1551 C1550 1.363 . S
C1551 C1557 1.363 . S
C1552 C1553 1.363 . S
C1552 C1557 1.379 1_455 S
C1552 N1559 1.356 . S
C1553 C1552 1.363 . S
C1553 C1556 1.363 . S
N1554 C1556 1.356 . S
N1554 H1566 0.984 . S
N1554 H1567 0.985 . S
N1555 C1557 1.356 . S
N1555 H1560 0.984 . S
N1555 H1561 0.985 . S
C1556 C1550 1.379 1_455 S
C1556 C1553 1.363 . S
C1556 N1554 1.356 . S
C1557 C1551 1.363 . S
C1557 C1552 1.379 1_655 S
C1557 N1555 1.356 . S
N1558 C1550 1.356 . S
N1558 H1564 0.984 . S
N1558 H1565 0.984 . S
N1559 C1552 1.356 . S
N1559 H1562 0.984 . S
N1559 H1563 0.985 . S
H1560 N1555 0.984 . S
H1561 N1555 0.985 . S
H1562 N1559 0.984 . S
H1563 N1559 0.985 . S
H1564 N1558 0.984 . S
H1565 N1558 0.984 . S
H1566 N1554 0.984 . S
H1567 N1554 0.985 . S
C417 C309 1.452 . S
C419 C10 1.452 . S
C435 C270 1.452 . S
C437 C23 1.452 . S
C453 C283 1.452 . S
C455 C36 1.452 . S
C471 C296 1.452 . S
C473 C49 1.452 . S
C489 C62 1.452 . S
C491 C231 1.452 . S
C507 C244 1.452 . S
C509 C75 1.452 . S
C525 C88 1.452 . S
C527 C257 1.452 . S
C543 C101 1.452 . S
C545 C218 1.452 . S
C561 C413 1.452 . S
C563 C114 1.452 . S
C579 C127 1.452 . S
C581 C374 1.452 . S
C597 C140 1.452 . S
C599 C387 1.452 . S
C615 C153 1.452 . S
C617 C400 1.452 . S
C633 C166 1.452 . S
C635 C335 1.452 . S
C651 C179 1.452 . S
C653 C348 1.452 . S
C669 C192 1.452 . S
C671 C361 1.452 . S
C687 C205 1.452 . S
C689 C322 1.452 . S
C705 C8 1.500 . S
C707 C164 1.500 . S
C723 C385 1.500 . S
C725 C21 1.500 . S
C741 C34 1.500 . S
C743 C190 1.500 . S
C759 C411 1.500 . S
C761 C47 1.500 . S
C777 C112 1.500 . S
C779 C60 1.500 . S
C795 C73 1.500 . S
C797 C333 1.500 . S
C813 C86 1.500 . S
C815 C138 1.500 . S
C831 C99 1.500 . S
C833 C359 1.500 . S
C849 C281 1.500 . S
C851 C125 1.500 . S
C867 C307 1.500 . S
C869 C151 1.500 . S
C885 C177 1.500 . S
C887 C229 1.500 . S
C903 C255 1.500 . S
C905 C203 1.500 . S
C921 C372 1.500 . S
C923 C216 1.500 . S
C939 C242 1.500 . S
C941 C398 1.500 . S
C957 C320 1.500 . S
C959 C268 1.500 . S
C975 C346 1.500 . S
C977 C294 1.500 . S
C993 C52 1.282 . S
C995 C0 1.282 . S
C1011 C65 1.282 . S
C1013 C13 1.282 . S
C1029 C26 1.282 . S
C1031 C78 1.282 . S
C1047 C39 1.282 . S
C1049 C91 1.282 . S
C1065 C156 1.282 . S
C1067 C104 1.282 . S
C1083 C169 1.282 . S
C1085 C117 1.282 . S
C1101 C182 1.282 . S
C1103 C130 1.282 . S
C1119 C143 1.282 . S
C1121 C195 1.282 . S
C1137 C208 1.282 . S
C1139 C260 1.282 . S
C1155 C221 1.282 . S
C1157 C273 1.282 . S
C1173 C234 1.282 . S
C1175 C286 1.282 . S
C1191 C247 1.282 . S
C1193 C299 1.282 . S
C1209 C364 1.282 . S
C1211 C312 1.282 . S
C1227 C377 1.282 . S
C1229 C325 1.282 . S
C1245 C390 1.282 . S
C1247 C338 1.282 . S
C1263 C403 1.282 . S
C1265 C351 1.282 . S
C1281 C395 1.341 . S
C1283 C5 1.341 . S
C1299 C18 1.341 . S
C1301 C200 1.341 . S
C1317 C369 1.341 . S
C1319 C31 1.341 . S
C1335 C44 1.341 . S
C1337 C174 1.341 . S
C1353 C343 1.341 . S
C1355 C57 1.341 . S
C1371 C70 1.341 . S
C1373 C148 1.341 . S
C1389 C83 1.341 . S
C1391 C317 1.341 . S
C1407 C122 1.341 . S
C1409 C96 1.341 . S
C1425 C109 1.341 . S
C1427 C291 1.341 . S
C1443 C265 1.341 . S
C1445 C135 1.341 . S
C1461 C161 1.341 . S
C1463 C239 1.341 . S
C1479 C187 1.341 . S
C1481 C213 1.341 . S
C1497 C408 1.341 . S
C1499 C226 1.341 . S
C1515 C252 1.341 . S
C1517 C382 1.341 . S
C1533 C278 1.341 . S
C1535 C356 1.341 . S
C1551 C330 1.341 . S
C1553 C304 1.341 . S
