# Generated by pormake.
# Topology wkb, (5)-cn, num edge types: 1
# Building blocks:
#     Node 0, Type 0, BuildingBlock: XOMCOT_clean_sbu_0, # of connection points: 5
#     Node 1, Type 0, BuildingBlock: XOMCOT_clean_sbu_0, # of connection points: 5
#     Node 2, Type 0, BuildingBlock: XOMCOT_clean_sbu_0, # of connection points: 5
#     Node 3, Type 0, BuildingBlock: XOMCOT_clean_sbu_0, # of connection points: 5
#     Node 4, Type 0, BuildingBlock: XOMCOT_clean_sbu_0, # of connection points: 5
#     Node 5, Type 0, BuildingBlock: XOMCOT_clean_sbu_0, # of connection points: 5
#     Node 6, Type 0, BuildingBlock: XOMCOT_clean_sbu_0, # of connection points: 5
#     Node 7, Type 0, BuildingBlock: XOMCOT_clean_sbu_0, # of connection points: 5
#     Node 8, Type 0, BuildingBlock: XOMCOT_clean_sbu_0, # of connection points: 5
#     Node 9, Type 0, BuildingBlock: XOMCOT_clean_sbu_0, # of connection points: 5
#     Node 10, Type 0, BuildingBlock: XOMCOT_clean_sbu_0, # of connection points: 5
#     Node 11, Type 0, BuildingBlock: XOMCOT_clean_sbu_0, # of connection points: 5
#     Edge 12, Type (0, 0), BuildingBlock: KIFKEQ_clean_linker_1, # of connection points: 2
#     Edge 13, Type (0, 0), BuildingBlock: KIFKEQ_clean_linker_1, # of connection points: 2
#     Edge 14, Type (0, 0), BuildingBlock: KIFKEQ_clean_linker_1, # of connection points: 2
#     Edge 15, Type (0, 0), BuildingBlock: KIFKEQ_clean_linker_1, # of connection points: 2
#     Edge 16, Type (0, 0), BuildingBlock: KIFKEQ_clean_linker_1, # of connection points: 2
#     Edge 17, Type (0, 0), BuildingBlock: KIFKEQ_clean_linker_1, # of connection points: 2
#     Edge 18, Type (0, 0), BuildingBlock: KIFKEQ_clean_linker_1, # of connection points: 2
#     Edge 19, Type (0, 0), BuildingBlock: KIFKEQ_clean_linker_1, # of connection points: 2
#     Edge 20, Type (0, 0), BuildingBlock: KIFKEQ_clean_linker_1, # of connection points: 2
#     Edge 21, Type (0, 0), BuildingBlock: KIFKEQ_clean_linker_1, # of connection points: 2
#     Edge 22, Type (0, 0), BuildingBlock: KIFKEQ_clean_linker_1, # of connection points: 2
#     Edge 23, Type (0, 0), BuildingBlock: KIFKEQ_clean_linker_1, # of connection points: 2
#     Edge 24, Type (0, 0), BuildingBlock: KIFKEQ_clean_linker_1, # of connection points: 2
#     Edge 25, Type (0, 0), BuildingBlock: KIFKEQ_clean_linker_1, # of connection points: 2
#     Edge 26, Type (0, 0), BuildingBlock: KIFKEQ_clean_linker_1, # of connection points: 2
#     Edge 27, Type (0, 0), BuildingBlock: KIFKEQ_clean_linker_1, # of connection points: 2
#     Edge 28, Type (0, 0), BuildingBlock: KIFKEQ_clean_linker_1, # of connection points: 2
#     Edge 29, Type (0, 0), BuildingBlock: KIFKEQ_clean_linker_1, # of connection points: 2
#     Edge 30, Type (0, 0), BuildingBlock: KIFKEQ_clean_linker_1, # of connection points: 2
#     Edge 31, Type (0, 0), BuildingBlock: KIFKEQ_clean_linker_1, # of connection points: 2
#     Edge 32, Type (0, 0), BuildingBlock: KIFKEQ_clean_linker_1, # of connection points: 2
#     Edge 33, Type (0, 0), BuildingBlock: KIFKEQ_clean_linker_1, # of connection points: 2
#     Edge 34, Type (0, 0), BuildingBlock: KIFKEQ_clean_linker_1, # of connection points: 2
#     Edge 35, Type (0, 0), BuildingBlock: KIFKEQ_clean_linker_1, # of connection points: 2
#     Edge 36, Type (0, 0), BuildingBlock: KIFKEQ_clean_linker_1, # of connection points: 2
#     Edge 37, Type (0, 0), BuildingBlock: KIFKEQ_clean_linker_1, # of connection points: 2
#     Edge 38, Type (0, 0), BuildingBlock: KIFKEQ_clean_linker_1, # of connection points: 2
#     Edge 39, Type (0, 0), BuildingBlock: KIFKEQ_clean_linker_1, # of connection points: 2
#     Edge 40, Type (0, 0), BuildingBlock: KIFKEQ_clean_linker_1, # of connection points: 2
#     Edge 41, Type (0, 0), BuildingBlock: KIFKEQ_clean_linker_1, # of connection points: 2
# Relax obj value: 0.108
# Max RMSD: 0.142
# Mean RMSD: 0.142
data_MOF--net-wkb--node1-XOMCOT_clean_sbu_0--edge1-KIFKEQ_clean_linker_1
_symmetry_space_group_name_H-M    P1
_symmetry_Int_Tables_number       1
_symmetry_cell_setting            triclinic
loop_
_symmetry_equiv_pos_as_xyz
'x, y, z'
_cell_length_a     47.181984
_cell_length_b     47.12916
_cell_length_c     36.859586
_cell_angle_alpha  90.167684
_cell_angle_beta   89.974545
_cell_angle_gamma 119.98004
loop_
_atom_site_label
_atom_site_type_symbol
_atom_site_fract_x
_atom_site_fract_y
_atom_site_fract_z
_atom_type_partial_charge
Co0 Co 0.05974 0.33451 0.0843 0.0
C1 C 0.04904 0.32688 1.00395 0.0
C2 C 1.00377 0.30786 0.03286 0.0
C3 C 0.997 0.30345 0.99642 0.0
N4 N 1.03645 0.3225 0.03788 0.0
N5 N 1.02539 0.31523 0.97808 0.0
H6 H 0.07491 0.33815 0.99825 0.0
H7 H 0.98567 0.30115 0.05399 0.0
C8 C 0.13029 0.35123 0.06769 0.0
O9 O 0.14092 0.36843 0.09769 0.0
N10 N 0.08199 0.34552 0.13089 0.0
C11 C 0.08519 0.36891 0.15436 0.0
C12 C 0.1026 0.36845 0.18415 0.0
C13 C 0.096 0.33007 0.14757 0.0
N14 N 0.10978 0.34429 0.17964 0.0
C15 C 0.0451 0.38517 0.07238 0.0
C16 C 0.10682 0.43902 0.07967 0.0
C17 C 0.07986 0.44408 0.07844 0.0
C18 C 0.04886 0.41649 0.07318 0.0
C19 C 0.10199 0.40701 0.07813 0.0
N20 N 0.07118 0.38032 0.07605 0.0
H21 H 1.02061 0.36454 0.07038 0.0
H22 H 0.12302 0.40422 0.08042 0.0
H23 H 0.07594 0.38551 0.15001 0.0
H24 H 0.09733 0.30977 0.1356 0.0
O25 O 1.01948 0.3212 0.11026 0.0
O26 O 0.03857 0.28809 0.09724 0.0
O27 O 0.10013 0.33859 0.05822 0.0
C28 C 1.01562 0.29197 0.1121 0.0
H29 H 0.97289 0.29289 0.98445 0.0
H30 H 0.11051 0.38551 0.20667 0.0
H31 H 0.13137 0.4594 0.08348 0.0
H32 H 1.02725 0.4188 0.07064 0.0
Co33 Co 0.75648 0.04688 0.24666 0.0
C34 C 0.75686 0.03481 0.16605 0.0
C35 C 0.72196 0.99197 0.19435 0.0
C36 C 0.71995 0.98454 0.15811 0.0
N37 N 0.74467 1.02383 0.19966 0.0
N38 N 0.74183 1.01151 0.14017 0.0
H39 H 0.77672 0.05894 0.16027 0.0
H40 H 0.70678 0.97505 0.21511 0.0
C41 C 0.79696 0.1086 0.20168 0.0
O42 O 0.77036 0.10597 0.18709 0.0
N43 N 0.76853 0.06883 0.2933 0.0
C44 C 0.74805 0.06493 0.32071 0.0
C45 C 0.76613 0.08423 0.34942 0.0
C46 C 0.79882 0.09015 0.30576 0.0
N47 N 0.79811 0.1001 0.3401 0.0
C48 C 0.69426 0.04004 0.22841 0.0
C49 C 0.70712 0.10162 0.24958 0.0
C50 C 0.67534 0.07878 0.23791 0.0
C51 C 0.66934 0.04781 0.2269 0.0
C52 C 0.73173 0.09301 0.24999 0.0
N53 N 0.72525 0.06248 0.23923 0.0
H54 H 0.68789 1.01521 0.22251 0.0
H55 H 0.75583 0.11071 0.25974 0.0
H56 H 0.72175 0.0493 0.31974 0.0
H57 H 0.82089 0.09776 0.29017 0.0
O58 O 0.72716 1.00654 0.27125 0.0
O59 O 0.77919 1.02336 0.25948 0.0
O60 O 0.79493 0.087 0.22413 0.0
C61 C 0.75154 1.00107 0.27337 0.0
H62 H 0.70282 0.96125 0.14594 0.0
H63 H 0.75627 0.0867 0.37497 0.0
H64 H 0.71284 0.12579 0.25863 0.0
H65 H 0.64502 0.029 0.21883 0.0
Co66 Co 0.73302 0.74105 0.41536 0.0
C67 C 0.73915 0.7381 0.33497 0.0
C68 C 0.76109 0.71397 0.36272 0.0
C69 C 0.7647 0.71162 0.32612 0.0
N70 N 0.74517 0.73073 0.36854 0.0
N71 N 0.75107 0.72689 0.30854 0.0
H72 H 0.72642 0.75144 0.32995 0.0
H73 H 0.76912 0.70335 0.38336 0.0
C74 C 0.71717 0.79579 0.40074 0.0
O75 O 0.70078 0.78956 0.43119 0.0
N76 N 0.72187 0.75124 0.46245 0.0
C77 C 0.69832 0.73063 0.48533 0.0
C78 C 0.699 0.74783 0.51594 0.0
C79 C 0.73771 0.78015 0.48032 0.0
N80 N 0.72352 0.7791 0.51254 0.0
C81 C 0.68196 0.67669 0.40009 0.0
C82 C 0.62891 0.68538 0.41079 0.0
C83 C 0.62341 0.65328 0.40756 0.0
C84 C 0.65052 0.64947 0.40045 0.0
C85 C 0.66098 0.7122 0.40956 0.0
N86 N 0.68728 0.70762 0.40591 0.0
H87 H 0.70235 0.67257 0.39689 0.0
H88 H 0.6642 0.73605 0.41378 0.0
H89 H 0.6815 0.70498 0.48006 0.0
H90 H 0.75829 0.80187 0.46908 0.0
O91 O 0.74534 0.71289 0.44002 0.0
O92 O 0.77925 0.76539 0.4292 0.0
O93 O 0.7295 0.77813 0.39062 0.0
C94 C 0.77464 0.73793 0.44303 0.0
H95 H 0.7759 0.69889 0.3135 0.0
H96 H 0.68184 0.7383 0.53824 0.0
H97 H 0.60889 0.68981 0.41615 0.0
H98 H 0.64774 0.62544 0.39638 0.0
Co99 Co 1.01279 0.71487 0.5859 0.0
C100 C 1.02355 0.72278 0.50573 0.0
C101 C 0.06892 0.74337 0.53481 0.0
C102 C 0.07568 0.74788 0.49842 0.0
N103 N 1.03617 0.72769 0.53967 0.0
N104 N 0.04723 0.73512 0.47999 0.0
H105 H 0.99763 0.71062 0.49995 0.0
H106 H 0.08708 0.75067 0.55597 0.0
C107 C 0.94259 0.69889 0.56964 0.0
O108 O 0.93182 0.68163 0.59945 0.0
N109 N 0.99055 0.7032 0.63241 0.0
C110 C 0.98752 0.67971 0.65546 0.0
C111 C 0.97055 0.68023 0.68567 0.0
C112 C 0.97703 0.71883 0.64981 0.0
N113 N 0.96359 0.70459 0.68187 0.0
C114 C 1.02704 0.66444 0.57075 0.0
C115 C 0.9657 0.6107 0.58082 0.0
C116 C 0.99262 0.60571 0.57793 0.0
C117 C 1.02332 0.63317 0.57107 0.0
C118 C 0.97044 0.64262 0.57954 0.0
N119 N 1.00112 0.66927 0.57621 0.0
H120 H 0.05143 0.68507 0.56796 0.0
H121 H 0.94957 0.64546 0.58352 0.0
H122 H 0.9967 0.66311 0.6506 0.0
H123 H 0.97591 0.73939 0.6384 0.0
O124 O 0.05279 0.72737 0.61167 0.0
O125 O 1.03384 0.76092 0.60016 0.0
O126 O 0.97267 0.71135 0.56017 0.0
C127 C 0.05659 0.75653 0.61464 0.0
H128 H 0.09986 0.75916 0.48654 0.0
H129 H 0.96288 0.66315 0.70804 0.0
H130 H 0.94138 0.59041 0.58598 0.0
H131 H 0.04481 0.63083 0.5672 0.0
Co132 Co 0.31764 1.00205 0.74582 0.0
C133 C 0.31618 1.00288 0.6646 0.0
C134 C 0.34143 0.05157 0.68662 0.0
C135 C 0.33986 0.05364 0.64957 0.0
N136 N 0.32641 1.0197 0.69637 0.0
N137 N 0.32385 1.02309 0.63567 0.0
H138 H 0.30282 0.97645 0.6626 0.0
H139 H 0.35284 0.07227 0.70486 0.0
C140 C 0.26776 0.93026 0.72919 0.0
O141 O 0.28252 0.91978 0.75078 0.0
N142 N 0.30677 0.98486 0.79497 0.0
C143 C 0.32667 0.99526 0.82426 0.0
C144 C 0.3088 0.9789 0.85451 0.0
C145 C 0.27694 0.96304 0.80807 0.0
N146 N 0.27766 0.95854 0.84413 0.0
C147 C 0.37618 1.00354 0.71816 0.0
C148 C 0.37562 0.95678 0.76337 0.0
C149 C 0.40287 0.97441 0.741 0.0
C150 C 0.40255 0.99771 0.71776 0.0
C151 C 0.34971 0.9633 0.76295 0.0
N152 N 0.34953 0.98628 0.74023 0.0
H153 H 0.37881 1.02369 0.70205 0.0
H154 H 0.33093 0.95063 0.78283 0.0
H155 H 0.35242 1.0134 0.82365 0.0
H156 H 0.25486 0.95127 0.79193 0.0
O157 O 0.34796 0.04448 0.76597 0.0
O158 O 0.29542 0.02665 0.75604 0.0
O159 O 0.27886 0.96095 0.72497 0.0
C160 C 0.32349 0.04982 0.76832 0.0
H161 H 0.34998 0.07605 0.63402 0.0
H162 H 0.31806 0.98136 0.88189 0.0
H163 H 0.3746 0.93858 0.78202 0.0
H164 H 0.42343 1.01283 0.70072 0.0
Co165 Co 0.33996 0.30717 0.91378 0.0
C166 C 0.33621 0.314 0.83248 0.0
C167 C 0.31296 0.33597 0.86173 0.0
C168 C 0.31032 0.34022 0.82533 0.0
N169 N 0.32928 0.31946 0.86669 0.0
N170 N 0.325 0.3265 0.80677 0.0
H171 H 0.34957 0.30172 0.82609 0.0
H172 H 0.30374 0.34509 0.88283 0.0
C173 C 0.36311 0.26721 0.87014 0.0
O174 O 0.38999 0.29388 0.86052 0.0
N175 N 0.3492 0.29425 0.9604 0.0
C176 C 0.36265 0.3139 0.98939 0.0
C177 C 0.36387 0.29555 0.01766 0.0
C178 C 0.34214 0.26406 0.97155 0.0
N179 N 0.35106 0.2641 1.00659 0.0
C180 C 0.39465 0.36934 0.89457 0.0
C181 C 0.44373 0.36005 0.92253 0.0
C182 C 0.45201 0.39119 0.90931 0.0
C183 C 0.42689 0.39534 0.89477 0.0
C184 C 0.41103 0.33434 0.92128 0.0
N185 N 0.38676 0.33905 0.90732 0.0
H186 H 0.37578 0.3743 0.88577 0.0
H187 H 0.40521 0.31077 0.93217 0.0
H188 H 0.37086 0.33983 0.99 0.0
H189 H 0.33072 0.24261 0.95431 0.0
O190 O 0.32872 0.33623 0.93882 0.0
O191 O 0.29354 0.28427 0.92643 0.0
O192 O 0.34179 0.2691 0.88992 0.0
C193 C 0.29895 0.31176 0.94115 0.0
H194 H 0.29816 0.35231 0.81357 0.0
H195 H 0.37302 0.30486 0.04453 0.0
H196 H 0.46228 0.35565 0.93407 0.0
H197 H 0.43178 0.41907 0.88518 0.0
Co198 Co 0.7297 1.00135 0.7628 0.0
C199 C 0.73732 1.0112 0.84297 0.0
C200 C 0.75155 0.05622 0.81507 0.0
C201 C 0.75501 0.06249 0.85168 0.0
N202 N 0.74044 1.02402 0.8094 0.0
N203 N 0.74609 0.03423 0.86922 0.0
H204 H 0.72808 0.98551 0.84833 0.0
H205 H 0.75655 0.07421 0.79426 0.0
C206 C 0.71239 0.93063 0.77779 0.0
O207 O 0.69468 0.92057 0.74809 0.0
N208 N 0.71955 0.9797 0.71592 0.0
C209 C 0.69586 0.97592 0.6927 0.0
C210 C 0.69685 0.95899 0.66266 0.0
C211 C 0.73548 0.96626 0.69904 0.0
N212 N 0.72152 0.95257 0.66686 0.0
C213 C 0.6783 1.01573 0.76857 0.0
C214 C 0.62534 0.95309 0.77194 0.0
C215 C 0.6196 0.97942 0.76742 0.0
C216 C 0.64674 1.01108 0.7671 0.0
C217 C 0.65766 0.95887 0.7734 0.0
N218 N 0.68382 0.9899 0.76999 0.0
H219 H 0.69845 0.04052 0.76746 0.0
H220 H 0.66102 0.93819 0.77655 0.0
H221 H 0.67866 0.98436 0.6974 0.0
H222 H 0.75597 0.9653 0.71091 0.0
O223 O 0.74388 0.04195 0.73742 0.0
O224 O 0.77643 1.02249 0.75121 0.0
O225 O 0.72514 0.9606 0.78813 0.0
C226 C 0.77305 0.04577 0.73653 0.0
H227 H 0.76367 0.08615 0.8644 0.0
H228 H 0.67977 0.9508 0.6402 0.0
H229 H 0.60513 0.92816 0.77306 0.0
H230 H 0.64372 0.03235 0.76514 0.0
Co231 Co 0.75149 0.71802 0.93142 0.0
C232 C 0.74823 0.72551 0.01143 0.0
C233 C 0.72315 0.7459 0.98264 0.0
C234 C 0.72054 0.74995 0.01913 0.0
N235 N 0.74069 0.73069 0.97758 0.0
N236 N 0.73639 0.73726 0.03735 0.0
H237 H 0.76213 0.71345 0.01701 0.0
H238 H 0.71222 0.75316 0.96155 0.0
C239 C 0.80648 0.70287 0.94765 0.0
O240 O 0.7995 0.68493 0.91817 0.0
N241 N 0.76205 0.70613 0.88499 0.0
C242 C 0.74161 0.68194 0.86246 0.0
C243 C 0.75891 0.682 0.83231 0.0
C244 C 0.79103 0.72158 0.8674 0.0
N245 N 0.7901 0.70667 0.83566 0.0
C246 C 0.6867 0.66696 0.9444 0.0
C247 C 0.6958 0.61362 0.93994 0.0
C248 C 0.6636 0.60806 0.9405 0.0
C249 C 0.65954 0.63542 0.94427 0.0
C250 C 0.72256 0.64588 0.9405 0.0
N251 N 0.71782 0.67226 0.94111 0.0
H252 H 0.68242 0.68739 0.94559 0.0
H253 H 0.7466 0.64908 0.93878 0.0
H254 H 0.716 0.66511 0.8677 0.0
H255 H 0.8127 0.74242 0.87849 0.0
O256 O 0.72369 0.73026 0.9055 0.0
O257 O 0.77595 0.76418 0.91712 0.0
O258 O 0.78869 0.71523 0.95717 0.0
C259 C 0.74874 0.75957 0.90262 0.0
H260 H 0.70724 0.76077 0.03121 0.0
H261 H 0.74951 0.66434 0.81036 0.0
H262 H 0.70037 0.59337 0.93737 0.0
H263 H 0.63538 0.63265 0.94616 0.0
Co264 Co 0.06024 0.74756 0.10237 0.0
C265 C 0.04947 0.74225 0.18254 0.0
C266 C 1.00402 0.72002 0.15348 0.0
C267 C 0.99733 0.7166 0.18991 0.0
N268 N 1.03678 0.73624 0.14858 0.0
N269 N 1.02583 0.73067 0.20834 0.0
H270 H 0.07541 0.75486 0.18827 0.0
H271 H 0.98576 0.7104 0.13232 0.0
C272 C 0.13055 0.80219 0.12133 0.0
O273 O 0.14212 0.79732 0.09109 0.0
N274 N 0.08253 0.75883 0.05587 0.0
C275 C 0.08202 0.73767 0.0308 0.0
C276 C 0.09813 0.75491 1.00017 0.0
C277 C 0.09759 0.78842 0.03948 0.0
N278 N 0.10818 0.78681 1.0059 0.0
C279 C 0.04833 0.68363 0.1198 0.0
C280 C 0.10932 0.69217 0.10426 0.0
C281 C 0.08383 0.66054 0.11238 0.0
C282 C 0.05321 0.65671 0.12099 0.0
C283 C 0.10355 0.7187 0.10411 0.0
N284 N 0.07313 0.71431 0.11123 0.0
H285 H 1.02386 0.67929 0.12407 0.0
H286 H 0.12319 0.742 0.096 0.0
H287 H 0.07059 0.71146 0.03446 0.0
H288 H 0.10135 0.8108 0.05216 0.0
O289 O 1.02032 0.71938 0.0764 0.0
O290 O 0.03791 0.77154 0.0884 0.0
O291 O 0.10002 0.78443 0.12917 0.0
C292 C 1.0156 0.74419 0.07362 0.0
H293 H 0.97314 0.70394 0.20178 0.0
H294 H 0.1029 0.74495 0.97593 0.0
H295 H 0.13341 0.69631 0.09734 0.0
H296 H 1.03258 0.63271 0.12681 0.0
Co297 Co 0.34995 0.05266 0.26393 0.0
C298 C 0.32854 1.02088 0.33849 0.0
C299 C 0.37651 0.06335 0.33678 0.0
C300 C 0.37039 0.05219 0.37165 0.0
N301 N 0.35086 0.04348 0.31544 0.0
N302 N 0.3404 0.0256 0.3729 0.0
H303 H 0.30428 1.00189 0.33063 0.0
H304 H 0.3982 0.08525 0.32774 0.0
C305 C 0.36629 0.12524 0.267 0.0
O306 O 0.37825 0.13232 0.23405 0.0
N307 N 0.34947 0.06294 0.21289 0.0
C308 C 0.36621 0.05871 0.18584 0.0
C309 C 0.36215 0.07231 0.1546 0.0
C310 C 0.33412 0.07754 0.19727 0.0
N311 N 0.34243 0.08472 0.16191 0.0
C312 C 0.40476 0.04353 0.27183 0.0
C313 C 0.45353 0.10272 0.24559 0.0
C314 C 0.46194 0.07952 0.25726 0.0
C315 C 0.43691 0.04963 0.27054 0.0
C316 C 0.42091 0.09582 0.24798 0.0
N317 N 0.39686 0.06652 0.26125 0.0
H318 H 0.38596 1.02007 0.28185 0.0
H319 H 0.41531 0.11377 0.23821 0.0
H320 H 0.38162 0.04793 0.18899 0.0
H321 H 0.31887 0.08466 0.21216 0.0
O322 O 0.33359 1.00742 0.25052 0.0
O323 O 0.30204 0.02838 0.26317 0.0
O324 O 0.3567 0.0969 0.28069 0.0
C325 C 0.30421 1.00303 0.25276 0.0
H326 H 0.38625 0.06353 0.39483 0.0
H327 H 0.37464 0.07484 0.12914 0.0
H328 H 0.47203 0.12609 0.23484 0.0
H329 H 0.44198 0.03067 0.27924 0.0
Co330 Co 0.32274 0.33231 0.42805 0.0
C331 C 0.32798 0.32819 0.50827 0.0
C332 C 0.34568 0.30011 0.48043 0.0
C333 C 0.34903 0.29754 0.51708 0.0
N334 N 0.33239 0.31929 0.47466 0.0
N335 N 0.338 0.31522 0.53472 0.0
H336 H 0.31827 0.34435 0.5132 0.0
H337 H 0.35294 0.28877 0.45975 0.0
C338 C 0.26676 0.34615 0.4431 0.0
O339 O 0.27312 0.36327 0.41321 0.0
N340 N 0.31293 0.34434 0.38124 0.0
C341 C 0.33345 0.3687 0.3591 0.0
C342 C 0.31637 0.36855 0.32868 0.0
C343 C 0.28425 0.32856 0.36299 0.0
N344 N 0.28526 0.34357 0.33141 0.0
C345 C 0.38592 0.38391 0.44691 0.0
C346 C 0.37607 0.43639 0.43713 0.0
C347 C 0.40797 0.44253 0.44336 0.0
C348 C 0.41249 0.41574 0.44933 0.0
C349 C 0.34991 0.40401 0.43572 0.0
N350 N 0.35509 0.37807 0.43934 0.0
H351 H 0.39047 0.36372 0.44957 0.0
H352 H 0.32621 0.40038 0.42973 0.0
H353 H 0.35892 0.38577 0.36484 0.0
H354 H 0.26261 0.30748 0.37364 0.0
O355 O 0.35213 0.32164 0.40307 0.0
O356 O 0.29964 0.28655 0.41225 0.0
O357 O 0.28472 0.3341 0.45284 0.0
C358 C 0.32745 0.29232 0.39827 0.0
H359 H 0.35857 0.28333 0.52968 0.0
H360 H 0.3258 0.3864 0.30704 0.0
H361 H 0.37145 0.45643 0.43264 0.0
H362 H 0.43671 0.41925 0.45398 0.0
Co363 Co 1.01672 0.30653 0.59927 0.0
C364 C 1.02543 0.30868 0.67984 0.0
C365 C 0.07153 0.33216 0.65216 0.0
C366 C 0.07739 0.33447 0.68877 0.0
N367 N 0.0389 0.31579 0.64625 0.0
N368 N 0.04849 0.31964 0.70635 0.0
H369 H 0.99936 0.29586 0.68479 0.0
H370 H 0.09026 0.34266 0.6316 0.0
C371 C 0.94666 0.2506 0.61214 0.0
O372 O 0.93671 0.25726 0.5818 0.0
N373 N 0.99573 0.29776 0.55192 0.0
C374 C 0.99237 0.31912 0.5307 0.0
C375 C 0.97641 0.30335 0.4993 0.0
C376 C 0.98349 0.26985 0.53213 0.0
N377 N 0.97041 0.27218 0.50034 0.0
C378 C 1.02889 0.37038 0.6166 0.0
C379 C 0.96609 0.35979 0.60925 0.0
C380 C 0.99189 0.39196 0.61405 0.0
C381 C 1.02348 0.3969 0.61881 0.0
C382 C 0.97249 0.33373 0.60805 0.0
N383 N 1.0038 0.33927 0.61032 0.0
H384 H 0.05373 0.37516 0.61844 0.0
H385 H 0.9523 0.30968 0.60349 0.0
H386 H 1.00056 0.34436 0.53762 0.0
H387 H 0.98289 0.24787 0.5417 0.0
O388 O 0.05738 0.33534 0.57514 0.0
O389 O 0.03859 0.28253 0.58435 0.0
O390 O 0.97627 0.26867 0.62308 0.0
C391 C 0.06152 0.31023 0.57119 0.0
H392 H 0.10129 0.34703 0.7014 0.0
H393 H 0.96868 0.3138 0.47806 0.0
H394 H 0.94123 0.35486 0.60584 0.0
H395 H 0.04419 0.42133 0.62244 0.0
H396 H 0.28689 0.35728 0.25977 0.0
H397 H 0.22163 0.31763 0.35132 0.0
H398 H 0.24215 0.35353 0.22298 0.0
H399 H 0.17669 0.31297 0.3143 0.0
H400 H 0.12039 0.3549 0.25192 0.0
H401 H 0.16144 0.35083 0.28813 0.0
H402 H 0.18994 0.31619 0.19405 0.0
H403 H 0.14946 0.32118 0.15762 0.0
C404 C 0.26292 0.34742 0.27194 0.0
C405 C 0.25798 0.33787 0.30856 0.0
C406 C 0.23716 0.34498 0.25075 0.0
C407 C 0.20578 0.33307 0.26568 0.0
C408 C 0.2006 0.32259 0.30201 0.0
C409 C 0.22633 0.32489 0.32315 0.0
C410 C 0.13531 0.34629 0.239 0.0
C411 C 0.13163 0.33847 0.20182 0.0
C412 C 0.15868 0.34365 0.25984 0.0
C413 C 0.17913 0.33326 0.24403 0.0
C414 C 0.17485 0.32459 0.20705 0.0
C415 C 0.15134 0.32707 0.18623 0.0
H416 H 0.85835 0.1475 0.31733 0.0
H417 H 0.80021 0.1052 0.41362 0.0
H418 H 0.90332 0.18733 0.35485 0.0
H419 H 0.8443 0.14584 0.45076 0.0
H420 H 0.93608 0.20671 0.51415 0.0
H421 H 0.89745 0.16359 0.47412 0.0
H422 H 0.91777 0.23515 0.3903 0.0
H423 H 0.95767 0.27799 0.42967 0.0
C424 C 0.85511 0.14651 0.34645 0.0
C425 C 0.82538 0.12309 0.36227 0.0
C426 C 0.88085 0.16965 0.368 0.0
C427 C 0.87756 0.17 0.40596 0.0
C428 C 0.84804 0.14619 0.42175 0.0
C429 C 0.82242 0.12306 0.40027 0.0
C430 C 0.93296 0.21324 0.48694 0.0
C431 C 0.94999 0.24606 0.47539 0.0
C432 C 0.91036 0.18848 0.46405 0.0
C433 C 0.90404 0.19581 0.42901 0.0
C434 C 0.92204 0.22841 0.41695 0.0
C435 C 0.94473 0.25315 0.43978 0.0
H436 H 0.7488 0.84274 0.49287 0.0
H437 H 0.71133 0.77748 0.58463 0.0
H438 H 0.7538 0.8876 0.53051 0.0
H439 H 0.71524 0.82207 0.62198 0.0
H440 H 0.74614 0.91398 0.68791 0.0
H441 H 0.75206 0.87433 0.65073 0.0
H442 H 0.71594 0.90217 0.55765 0.0
H443 H 0.71107 0.9425 0.59457 0.0
C444 C 0.7421 0.83802 0.5212 0.0
C445 C 0.72957 0.80639 0.53567 0.0
C446 C 0.74459 0.8637 0.5427 0.0
C447 C 0.7347 0.85845 0.57924 0.0
C448 C 0.72334 0.82712 0.59405 0.0
C449 C 0.72077 0.80142 0.57253 0.0
C450 C 0.74016 0.91217 0.65935 0.0
C451 C 0.72806 0.93142 0.64424 0.0
C452 C 0.74318 0.88914 0.63811 0.0
C453 C 0.73431 0.88488 0.60122 0.0
C454 C 0.7233 0.90495 0.58586 0.0
C455 C 0.72018 0.92788 0.60711 0.0
H456 H 0.95313 0.69315 0.75403 0.0
H457 H 0.92503 0.72938 0.66136 0.0
H458 H 0.9128 0.69781 0.79107 0.0
H459 H 0.88544 0.73505 0.69864 0.0
H460 H 0.7886 0.69423 0.76369 0.0
H461 H 0.83311 0.6978 0.7267 0.0
H462 H 0.89831 0.73589 0.81878 0.0
H463 H 0.85347 0.73136 0.85602 0.0
C464 C 0.9386 0.70244 0.74165 0.0
C465 C 0.94229 0.71074 0.70467 0.0
C466 C 0.91568 0.70544 0.76298 0.0
C467 C 0.89574 0.7167 0.74783 0.0
C468 C 0.90012 0.72595 0.7111 0.0
C469 C 0.92314 0.72307 0.68981 0.0
C470 C 0.81246 0.70351 0.77598 0.0
C471 C 0.81737 0.71238 0.81286 0.0
C472 C 0.8381 0.70586 0.75469 0.0
C473 C 0.86932 0.71703 0.76976 0.0
C474 C 0.8745 0.72686 0.80638 0.0
C475 C 0.84886 0.72464 0.82765 0.0
H476 H 0.23319 0.89623 0.82709 0.0
H477 H 0.2626 0.96867 0.9118 0.0
H478 H 0.19088 0.85569 0.86624 0.0
H479 H 0.21878 0.92916 0.95053 0.0
H480 H 0.16221 0.84245 0.02625 0.0
H481 H 0.20228 0.88485 0.98679 0.0
H482 H 0.14148 0.8347 0.89375 0.0
H483 H 0.10298 0.7912 0.93358 0.0
C484 C 0.23001 0.90356 0.85397 0.0
C485 C 0.25116 0.93546 0.86654 0.0
C486 C 0.20555 0.88039 0.87651 0.0
C487 C 0.201 0.88876 0.91198 0.0
C488 C 0.22175 0.92121 0.92394 0.0
C489 C 0.24678 0.94408 0.90168 0.0
C490 C 0.15744 0.84085 0.99737 0.0
C491 C 0.12962 0.81366 0.98287 0.0
C492 C 0.18034 0.86527 0.97456 0.0
C493 C 0.17558 0.86353 0.93663 0.0
C494 C 0.1468 0.83675 0.9225 0.0
C495 C 0.12441 0.81191 0.94529 0.0
H496 H 0.31383 0.19843 0.9917 0.0
H497 H 0.3809 0.26685 0.07098 0.0
H498 H 0.30815 0.153 0.02873 0.0
H499 H 0.37459 0.22165 0.1078 0.0
H500 H 0.33379 0.13513 0.18354 0.0
H501 H 0.33314 0.17686 0.1453 0.0
H502 H 0.34115 0.128 0.0499 0.0
H503 H 0.34129 0.0858 0.08826 0.0
C504 C 0.32744 0.20401 0.01681 0.0
C505 C 0.34766 0.23675 0.02814 0.0
C506 C 0.3241 0.17782 0.03813 0.0
C507 C 0.34061 0.1836 0.0715 0.0
C508 C 0.36091 0.2162 0.08268 0.0
C509 C 0.3645 0.24229 0.06134 0.0
C510 C 0.33474 0.13279 0.15442 0.0
C511 C 0.33775 0.10704 0.13908 0.0
C512 C 0.33474 0.15701 0.13245 0.0
C513 C 0.33748 0.15606 0.09448 0.0
C514 C 0.33893 0.1295 0.07899 0.0
C515 C 0.33922 0.1054 0.10101 0.0
H516 H 0.03746 0.45861 0.11377 0.0
H517 H 0.13015 0.50524 0.05754 0.0
H518 H 0.04093 0.5111 0.12194 0.0
H519 H 0.13476 0.55862 0.06804 0.0
H520 H 0.11321 0.6444 0.05812 0.0
H521 H 0.11451 0.59352 0.05071 0.0
H522 H 0.06611 0.55987 0.15419 0.0
H523 H 0.06377 0.61009 0.16064 0.0
C524 C 0.05868 0.48004 0.10299 0.0
C525 C 0.08328 0.47723 0.08443 0.0
C526 C 0.06099 0.51052 0.10838 0.0
C527 C 0.08825 0.53956 0.09595 0.0
C528 C 0.11317 0.53693 0.07774 0.0
C529 C 0.11072 0.50623 0.07207 0.0
C530 C 0.10323 0.62625 0.07946 0.0
C531 C 0.08816 0.63124 0.10985 0.0
C532 C 0.10401 0.597 0.07527 0.0
C533 C 0.09002 0.57204 0.10157 0.0
C534 C 0.0763 0.57787 0.13274 0.0
C535 C 0.07515 0.60686 0.13666 0.0
H536 H 0.49616 0.06744 0.30895 0.0
H537 H 0.50509 0.10482 0.2003 0.0
H538 H 0.54994 0.0722 0.30357 0.0
H539 H 0.55918 0.10978 0.19492 0.0
H540 H 0.62899 0.06565 0.18581 0.0
H541 H 0.57993 0.07047 0.19056 0.0
H542 H 0.60958 0.11203 0.29778 0.0
H543 H 0.6587 0.10701 0.29304 0.0
C544 C 0.50975 0.07694 0.28398 0.0
C545 C 0.49619 0.08559 0.25499 0.0
C546 C 0.54075 0.07993 0.281 0.0
C547 C 0.55896 0.09131 0.24878 0.0
C548 C 0.54574 0.1007 0.22004 0.0
C549 C 0.51486 0.09811 0.22321 0.0
C550 C 0.62524 0.07617 0.21025 0.0
C551 C 0.64777 0.08584 0.23909 0.0
C552 C 0.59718 0.07913 0.21289 0.0
C553 C 0.59064 0.0915 0.24463 0.0
C554 C 0.61369 0.10213 0.27306 0.0
C555 C 0.64201 0.09956 0.27022 0.0
H556 H 0.56223 0.64389 0.38974 0.0
H557 H 0.60928 0.5957 0.44062 0.0
H558 H 0.50885 0.5957 0.40135 0.0
H559 H 0.55668 0.54724 0.44981 0.0
H560 H 0.45904 0.47223 0.49098 0.0
H561 H 0.50917 0.52477 0.48438 0.0
H562 H 0.47313 0.54077 0.38312 0.0
H563 H 0.42239 0.48868 0.39076 0.0
C564 C 0.56131 0.6231 0.40329 0.0
C565 C 0.59036 0.62384 0.41386 0.0
C566 C 0.53063 0.59523 0.40962 0.0
C567 C 0.52815 0.56733 0.42666 0.0
C568 C 0.55725 0.56825 0.43723 0.0
C569 C 0.58772 0.59604 0.43122 0.0
C570 C 0.46173 0.48719 0.46754 0.0
C571 C 0.43682 0.47623 0.44134 0.0
C572 C 0.49062 0.51727 0.46352 0.0
C573 C 0.49572 0.53703 0.43282 0.0
C574 C 0.47017 0.52655 0.40729 0.0
C575 C 0.44102 0.49661 0.41161 0.0
H576 H 0.94138 0.54392 0.56044 0.0
H577 H 1.03685 0.59262 0.61096 0.0
H578 H 0.93723 0.49098 0.57218 0.0
H579 H 1.0338 0.54051 0.62007 0.0
H580 H 1.01375 0.44364 0.661 0.0
H581 H 1.01034 0.49326 0.65446 0.0
H582 H 0.95656 0.45553 0.55427 0.0
H583 H 0.9588 0.40522 0.56202 0.0
C584 C 0.96153 0.54347 0.57392 0.0
C585 C 0.98959 0.57288 0.58433 0.0
C586 C 0.95932 0.51303 0.58031 0.0
C587 C 0.98514 0.51114 0.59721 0.0
C588 C 1.01306 0.54058 0.60762 0.0
C589 C 1.01511 0.57081 0.60162 0.0
C590 C 1.00087 0.44585 0.63783 0.0
C591 C 0.98666 0.42059 0.61198 0.0
C592 C 0.99912 0.47446 0.63382 0.0
C593 C 0.98368 0.47897 0.60341 0.0
C594 C 0.96842 0.45306 0.57821 0.0
C595 C 0.96974 0.42416 0.58258 0.0
H596 H 0.43022 0.96474 0.80228 0.0
H597 H 0.44292 0.97542 0.68613 0.0
H598 H 0.48042 0.96227 0.80739 0.0
H599 H 0.49315 0.97291 0.69125 0.0
H600 H 0.60096 1.01128 0.71973 0.0
H601 H 0.54781 1.00705 0.71299 0.0
H602 H 0.50806 0.93147 0.79469 0.0
H603 H 0.56202 0.93657 0.80233 0.0
C604 C 0.44334 0.96596 0.77769 0.0
C605 C 0.43239 0.97041 0.74376 0.0
C606 C 0.47225 0.96454 0.78066 0.0
C607 C 0.49112 0.96758 0.74979 0.0
C608 C 0.47968 0.9711 0.71574 0.0
C609 C 0.45079 0.97253 0.71278 0.0
C610 C 0.58098 0.99382 0.73646 0.0
C611 C 0.58602 0.97456 0.76194 0.0
C612 C 0.55026 0.99108 0.73222 0.0
C613 C 0.52343 0.96892 0.75327 0.0
C614 C 0.52819 0.94907 0.77827 0.0
C615 C 0.55907 0.95175 0.78243 0.0
H616 H 0.48635 0.43765 0.85789 0.0
H617 H 0.49458 0.41014 0.96723 0.0
H618 H 0.53882 0.48782 0.86432 0.0
H619 H 0.54701 0.46089 0.97412 0.0
H620 H 0.65255 0.54819 0.96653 0.0
H621 H 0.60401 0.49415 0.95753 0.0
H622 H 0.55944 0.53854 0.89433 0.0
H623 H 0.60799 0.59166 0.90178 0.0
C624 C 0.49942 0.4423 0.88335 0.0
C625 C 0.486 0.41991 0.91213 0.0
C626 C 0.52954 0.47125 0.88715 0.0
C627 C 0.54716 0.47897 0.92001 0.0
C628 C 0.53441 0.45587 0.94832 0.0
C629 C 0.50427 0.42668 0.94439 0.0
C630 C 0.63251 0.54632 0.95039 0.0
C631 C 0.6343 0.57458 0.93521 0.0
C632 C 0.60448 0.51531 0.94551 0.0
C633 C 0.57758 0.51169 0.92508 0.0
C634 C 0.57964 0.53998 0.90975 0.0
C635 C 0.60749 0.57076 0.91457 0.0
H636 H 0.99565 0.31163 0.74491 0.0
H637 H 0.09143 0.3219 0.75686 0.0
H638 H 0.99004 0.31035 0.81092 0.0
H639 H 0.08597 0.32105 0.82239 0.0
H640 H 0.07926 0.35493 0.93772 0.0
H641 H 0.0843 0.35534 0.87178 0.0
H642 H 0.9846 0.27585 0.86355 0.0
H643 H 0.97963 0.27507 0.92916 0.0
C644 C 1.01539 0.31335 0.76146 0.0
C645 C 0.04412 0.31721 0.74533 0.0
C646 C 1.01222 0.31269 0.79935 0.0
C647 C 0.03772 0.31593 0.822 0.0
C648 C 0.06615 0.31922 0.80584 0.0
C649 C 0.06925 0.31971 0.76811 0.0
C650 C 0.05851 0.33733 0.92196 0.0
C651 C 1.02897 0.31514 0.93905 0.0
C652 C 0.06137 0.3376 0.88408 0.0
C653 C 1.03476 0.31574 0.86231 0.0
C654 C 1.00537 0.29344 0.87939 0.0
C655 C 1.00255 0.29305 0.91717 0.0
H656 H 0.73428 0.06809 0.92044 0.0
H657 H 0.75725 0.99093 0.90588 0.0
H658 H 0.73547 0.06271 0.98589 0.0
H659 H 0.7593 0.98591 0.9717 0.0
H660 H 0.72503 0.96306 0.09019 0.0
H661 H 0.72636 0.96819 0.02465 0.0
H662 H 0.77129 0.07326 0.03542 0.0
H663 H 0.7681 0.06796 0.10104 0.0
C664 C 0.73994 0.05017 0.9313 0.0
C665 C 0.74582 0.03004 0.90798 0.0
C666 C 0.74079 0.04717 0.9689 0.0
C667 C 0.74784 1.02412 0.98429 0.0
C668 C 0.75346 1.00372 0.96091 0.0
C669 C 0.7523 1.00655 0.92317 0.0
C670 C 0.73501 0.98728 0.07872 0.0
C671 C 0.74603 1.01503 0.10123 0.0
C672 C 0.73618 0.99026 0.04094 0.0
C673 C 0.74866 1.02112 0.02454 0.0
C674 C 0.76088 0.04901 0.04701 0.0
C675 C 0.75949 0.04601 0.08482 0.0
H676 H 0.73142 0.77724 0.08707 0.0
H677 H 0.74831 0.6955 0.07673 0.0
H678 H 0.73465 0.77494 0.15268 0.0
H679 H 0.75198 0.69357 0.14261 0.0
H680 H 0.79175 0.72434 0.25822 0.0
H681 H 0.7881 0.72667 0.1927 0.0
H682 H 0.70392 0.73919 0.20412 0.0
H683 H 0.70725 0.73642 0.27004 0.0
C684 C 0.73554 0.75856 0.09867 0.0
C685 C 0.73938 0.73639 0.07634 0.0
C686 C 0.73741 0.7573 0.13642 0.0
C687 C 0.74342 0.73401 0.15292 0.0
C688 C 0.74764 0.71205 0.13071 0.0
C689 C 0.7456 0.7132 0.09288 0.0
C690 C 0.77219 0.72723 0.24694 0.0
C691 C 0.74958 0.72985 0.26964 0.0
C692 C 0.77015 0.72859 0.20925 0.0
C693 C 0.74559 0.73285 0.19313 0.0
C694 C 0.72331 0.73612 0.21571 0.0
C695 C 0.72525 0.7346 0.25354 0.0
H696 H 0.0923 0.77623 0.43139 0.0
H697 H 0.99401 0.69384 0.43942 0.0
H698 H 0.08745 0.77493 0.36578 0.0
H699 H 0.98906 0.69297 0.37343 0.0
H700 H 0.07836 0.73881 0.24759 0.0
H701 H 0.08333 0.73987 0.31359 0.0
H702 H 0.98647 0.72703 0.32397 0.0
H703 H 0.98162 0.7265 0.25839 0.0
C704 C 0.06971 0.7576 0.41928 0.0
C705 C 0.04363 0.73492 0.44098 0.0
C706 C 0.06697 0.75692 0.38151 0.0
C707 C 0.03798 0.73375 0.36431 0.0
C708 C 1.01167 0.71134 0.38588 0.0
C709 C 1.01447 0.71188 0.42377 0.0
C710 C 0.05825 0.73654 0.26387 0.0
C711 C 1.0295 0.73232 0.2474 0.0
C712 C 0.06106 0.73707 0.30175 0.0
C713 C 1.03516 0.73327 0.32405 0.0
C714 C 1.0066 0.72936 0.30762 0.0
C715 C 1.00386 0.72903 0.26987 0.0
H716 H 0.31938 0.97028 0.60015 0.0
H717 H 0.31162 0.05684 0.58489 0.0
H718 H 0.31301 0.9599 0.53457 0.0
H719 H 0.30599 0.04707 0.51984 0.0
H720 H 0.2872 1.02262 0.40403 0.0
H721 H 0.27399 1.01349 0.46893 0.0
H722 H 0.34866 0.9869 0.48288 0.0
H723 H 0.36122 0.99578 0.41831 0.0
C724 C 0.31582 0.98678 0.5829 0.0
C725 C 0.31652 1.01466 0.59771 0.0
C726 C 0.31233 0.98096 0.5453 0.0
C727 C 0.30906 1.00268 0.52173 0.0
C728 C 0.30804 0.02955 0.53697 0.0
C729 C 0.31178 0.03547 0.57434 0.0
C730 C 0.29951 1.01325 0.4208 0.0
C731 C 0.32496 1.00956 0.40626 0.0
C732 C 0.29242 1.00854 0.45805 0.0
C733 C 0.31063 0.99995 0.48139 0.0
C734 C 0.33392 0.99324 0.46594 0.0
C735 C 0.34109 0.99819 0.42888 0.0
H736 H 0.37697 0.30948 0.58484 0.0
H737 H 0.2974 0.32931 0.57359 0.0
H738 H 0.37398 0.31235 0.65042 0.0
H739 H 0.29456 0.33242 0.63961 0.0
H740 H 0.32211 0.3679 0.75755 0.0
H741 H 0.32527 0.3658 0.69188 0.0
H742 H 0.33812 0.28158 0.70061 0.0
H743 H 0.33464 0.28342 0.76652 0.0
C744 C 0.35863 0.31422 0.59628 0.0
C745 C 0.3372 0.31884 0.57369 0.0
C746 C 0.35693 0.31586 0.63404 0.0
C747 C 0.33385 0.32232 0.65044 0.0
C748 C 0.31283 0.32765 0.62792 0.0
C749 C 0.31448 0.32592 0.59001 0.0
C750 C 0.32526 0.34866 0.74564 0.0
C751 C 0.32792 0.3257 0.76767 0.0
C752 C 0.32709 0.3475 0.70782 0.0
C753 C 0.33182 0.32347 0.69083 0.0
C754 C 0.33483 0.30068 0.71277 0.0
C755 C 0.33288 0.30176 0.75067 0.0
H756 H 0.30476 0.36829 0.96757 0.0
H757 H 0.23364 0.26608 0.95164 0.0
H758 H 0.2631 0.37734 0.99465 0.0
H759 H 0.19155 0.27506 0.97988 0.0
H760 H 0.11897 0.31318 1.00594 0.0
H761 H 0.15834 0.30254 0.97363 0.0
H762 H 0.23343 0.36425 0.05023 0.0
H763 H 0.19497 0.37529 0.08159 0.0
C764 C 0.28019 0.3476 0.97003 0.0
C765 C 0.2727 0.31635 0.9577 0.0
C766 C 0.25621 0.3528 0.98575 0.0
C767 C 0.2239 0.3269 0.98991 0.0
C768 C 0.21611 0.29564 0.97694 0.0
C769 C 0.24027 0.29042 0.96102 0.0
C770 C 0.14398 0.32466 0.01561 0.0
C771 C 0.15372 0.34532 0.04628 0.0
C772 C 0.16648 0.31834 0.99728 0.0
C773 C 0.19923 0.33269 0.00911 0.0
C774 C 0.20871 0.35324 0.03977 0.0
C775 C 0.18643 0.35949 0.05795 0.0
H776 H 0.99785 0.2268 0.11924 0.0
H777 H 0.96399 0.29515 0.14015 0.0
H778 H 0.94555 0.18195 0.14167 0.0
H779 H 0.91235 0.25081 0.16247 0.0
H780 H 0.81072 0.16016 0.15694 0.0
H781 H 0.86405 0.20332 0.13639 0.0
H782 H 0.91111 0.16061 0.198 0.0
H783 H 0.85756 0.11714 0.21857 0.0
C784 C 0.97943 0.23231 0.12885 0.0
C785 C 0.98513 0.26457 0.12775 0.0
C786 C 0.9495 0.20665 0.14179 0.0
C787 C 0.92457 0.2127 0.15355 0.0
C788 C 0.9307 0.2451 0.15306 0.0
C789 C 0.96051 0.27062 0.14044 0.0
C790 C 0.83237 0.15988 0.16619 0.0
C791 C 0.82971 0.13511 0.18951 0.0
C792 C 0.86303 0.18477 0.1545 0.0
C793 C 0.89196 0.18555 0.16561 0.0
C794 C 0.88935 0.16063 0.18867 0.0
C795 C 0.85862 0.13582 0.20064 0.0
H796 H 0.75374 0.82186 0.33831 0.0
H797 H 0.69212 0.83563 0.41475 0.0
H798 H 0.76267 0.87092 0.30541 0.0
H799 H 0.70141 0.88421 0.38268 0.0
H800 H 0.69524 0.94994 0.29935 0.0
H801 H 0.68706 0.89954 0.32661 0.0
H802 H 0.78953 0.93159 0.31199 0.0
H803 H 0.79764 0.98221 0.28377 0.0
C804 C 0.74202 0.83518 0.34803 0.0
C805 C 0.72207 0.82457 0.37913 0.0
C806 C 0.74733 0.86342 0.32934 0.0
C807 C 0.73262 0.8815 0.34124 0.0
C808 C 0.71268 0.8707 0.37225 0.0
C809 C 0.70748 0.84274 0.39083 0.0
C810 C 0.71611 0.94635 0.30187 0.0
C811 C 0.74718 0.97032 0.28967 0.0
C812 C 0.71142 0.9174 0.31765 0.0
C813 C 0.73768 0.91152 0.32188 0.0
C814 C 0.76871 0.93518 0.30896 0.0
C815 C 0.77341 0.9643 0.29305 0.0
H816 H 0.83937 0.78472 0.45554 0.0
H817 H 0.76994 0.68153 0.46716 0.0
H818 H 0.88175 0.77624 0.48395 0.0
H819 H 0.8118 0.6731 0.49441 0.0
H820 H 0.87802 0.67527 0.5833 0.0
H821 H 0.83996 0.68677 0.55186 0.0
H822 H 0.91566 0.74857 0.47626 0.0
H823 H 0.95462 0.73742 0.50858 0.0
C824 C 0.83318 0.76031 0.46401 0.0
C825 C 0.80115 0.73391 0.45951 0.0
C826 C 0.85748 0.7554 0.48001 0.0
C827 C 0.8501 0.72403 0.49183 0.0
C828 C 0.81825 0.69769 0.48638 0.0
C829 C 0.79418 0.70257 0.4706 0.0
C830 C 0.88678 0.69121 0.55989 0.0
C831 C 0.91948 0.7052 0.5484 0.0
C832 C 0.86478 0.69774 0.54171 0.0
C833 C 0.87459 0.71839 0.5113 0.0
C834 C 0.90735 0.73268 0.49972 0.0
C835 C 0.92957 0.72606 0.51804 0.0
H836 H 0.23373 0.93991 0.67452 0.0
H837 H 0.22977 0.86589 0.7466 0.0
H838 H 0.1819 0.89907 0.64694 0.0
H839 H 0.178 0.82573 0.72009 0.0
H840 H 0.1091 0.75317 0.63848 0.0
H841 H 0.15923 0.79601 0.66507 0.0
H842 H 0.12295 0.86371 0.65652 0.0
H843 H 0.07247 0.82043 0.6285 0.0
C844 C 0.22174 0.91502 0.6846 0.0
C845 C 0.23614 0.90609 0.71244 0.0
C846 C 0.19193 0.89167 0.66897 0.0
C847 C 0.17585 0.85896 0.681 0.0
C848 C 0.18999 0.85043 0.70946 0.0
C849 C 0.21975 0.87357 0.72479 0.0
C850 C 0.1116 0.77711 0.64232 0.0
C851 C 0.08662 0.78328 0.63159 0.0
C852 C 0.14042 0.80174 0.65781 0.0
C853 C 0.14511 0.83332 0.66342 0.0
C854 C 0.12024 0.83971 0.65242 0.0
C855 C 0.09124 0.81491 0.63661 0.0
H856 H 0.30959 0.2063 0.88238 0.0
H857 H 0.40146 0.25478 0.82462 0.0
H858 H 0.29909 0.15357 0.85807 0.0
H859 H 0.39073 0.20241 0.8 0.0
H860 H 0.37984 0.1012 0.79441 0.0
H861 H 0.38841 0.15265 0.8195 0.0
H862 H 0.28644 0.12139 0.80184 0.0
H863 H 0.27771 0.06928 0.77712 0.0
C864 C 0.32751 0.20578 0.86445 0.0
C865 C 0.35645 0.2349 0.85561 0.0
C866 C 0.32138 0.17552 0.85031 0.0
C867 C 0.34408 0.1736 0.82711 0.0
C868 C 0.3729 0.20278 0.81821 0.0
C869 C 0.379 0.23294 0.83225 0.0
C870 C 0.35917 0.1052 0.79582 0.0
C871 C 0.32809 0.08109 0.78359 0.0
C872 C 0.36415 0.13489 0.81007 0.0
C873 C 0.3382 0.14142 0.81254 0.0
C874 C 0.30695 0.11714 0.80064 0.0
C875 C 0.30197 0.08734 0.78626 0.0
H876 H 0.69325 0.75457 0.87466 0.0
H877 H 0.79533 0.82477 0.8926 0.0
H878 H 0.68531 0.79678 0.84735 0.0
H879 H 0.78744 0.86748 0.86419 0.0
H880 H 0.74949 0.94071 0.83978 0.0
H881 H 0.75979 0.90077 0.87106 0.0
H882 H 0.69992 0.82727 0.79198 0.0
H883 H 0.68923 0.86637 0.76152 0.0
C884 C 0.71416 0.77905 0.87256 0.0
C885 C 0.74504 0.78614 0.88557 0.0
C886 C 0.70959 0.80334 0.85671 0.0
C887 C 0.73577 0.83557 0.85313 0.0
C888 C 0.76668 0.84296 0.86666 0.0
C889 C 0.77128 0.81846 0.88268 0.0
C890 C 0.73837 0.91594 0.8293 0.0
C891 C 0.71824 0.90679 0.79827 0.0
C892 C 0.7445 0.89312 0.84704 0.0
C893 C 0.73052 0.86066 0.83424 0.0
C894 C 0.71062 0.85178 0.80313 0.0
C895 C 0.70455 0.8744 0.78551 0.0
H896 H 0.83314 0.74112 0.00937 0.0
H897 H 0.84861 0.68084 0.93243 0.0
H898 H 0.88373 0.75277 0.04106 0.0
H899 H 0.89863 0.69285 0.96318 0.0
H900 H 0.96548 0.68814 0.04588 0.0
H901 H 0.91498 0.67919 0.01861 0.0
H902 H 0.94485 0.78113 0.03496 0.0
H903 H 0.99586 0.79004 0.06343 0.0
C904 C 0.84716 0.73029 0.99925 0.0
C905 C 0.83644 0.70974 0.96847 0.0
C906 C 0.87631 0.73719 0.01723 0.0
C907 C 0.89527 0.72356 1.00493 0.0
C908 C 0.8845 0.7033 0.97402 0.0
C909 C 0.85565 0.69647 0.95621 0.0
C910 C 0.96152 0.70882 0.04371 0.0
C911 C 0.98504 0.73994 0.05659 0.0
C912 C 0.93243 0.70366 0.02786 0.0
C913 C 0.9258 0.72947 0.02409 0.0
C914 C 0.94902 0.76062 0.03754 0.0
C915 C 0.97837 0.76581 0.05359 0.0
H916 H 0.19691 0.83673 0.11654 0.0
H917 H 0.11719 0.83026 0.18056 0.0
H918 H 0.23563 0.88313 0.15228 0.0
H919 H 0.15671 0.87736 0.2171 0.0
H920 H 0.24072 0.98863 0.239 0.0
H921 H 0.19655 0.93835 0.21141 0.0
H922 H 0.25899 0.89573 0.21259 0.0
H923 H 0.3028 0.94561 0.23932 0.0
C924 C 0.18753 0.84502 0.13849 0.0
C925 C 0.15373 0.82951 0.14554 0.0
C926 C 0.20994 0.87169 0.15925 0.0
C927 C 0.19949 0.88403 0.18787 0.0
C928 C 0.16565 0.86861 0.19518 0.0
C929 C 0.14302 0.84148 0.1744 0.0
C930 C 0.24475 0.96829 0.23387 0.0
C931 C 0.27548 0.97136 0.24104 0.0
C932 C 0.21941 0.93942 0.21812 0.0
C933 C 0.2243 0.91307 0.20917 0.0
C934 C 0.25448 0.91569 0.21828 0.0
C935 C 0.27964 0.94435 0.23384 0.0
H936 H 0.28343 0.22634 0.38992 0.0
H937 H 0.38213 0.30112 0.36378 0.0
H938 H 0.2926 0.18542 0.35893 0.0
H939 H 0.39129 0.2606 0.33344 0.0
H940 H 0.38453 0.18797 0.24719 0.0
H941 H 0.37377 0.22705 0.27868 0.0
H942 H 0.32526 0.15712 0.36458 0.0
H943 H 0.33579 0.11766 0.33285 0.0
C944 C 0.307 0.23405 0.37757 0.0
C945 C 0.33198 0.26702 0.37923 0.0
C946 C 0.31235 0.2106 0.36003 0.0
C947 C 0.34268 0.21973 0.34355 0.0
C948 C 0.36751 0.25273 0.34533 0.0
C949 C 0.36226 0.27598 0.36294 0.0
C950 C 0.37173 0.18088 0.27289 0.0
C951 C 0.36121 0.14963 0.28748 0.0
C952 C 0.3656 0.20338 0.29102 0.0
C953 C 0.34864 0.19529 0.32422 0.0
C954 C 0.33807 0.16404 0.33889 0.0
C955 C 0.34439 0.14153 0.32082 0.0
H956 H 0.1131 0.36642 0.54617 0.0
H957 H 0.07912 0.26326 0.55895 0.0
H958 H 0.16318 0.37427 0.51859 0.0
H959 H 0.12964 0.27112 0.53039 0.0
H960 H 0.2408 0.3087 0.50502 0.0
H961 H 0.19124 0.29862 0.53787 0.0
H962 H 0.17691 0.35936 0.46108 0.0
H963 H 0.22582 0.36971 0.42904 0.0
C964 C 0.11623 0.3453 0.54295 0.0
C965 C 0.09188 0.31412 0.55443 0.0
C966 C 0.14502 0.34982 0.52702 0.0
C967 C 0.15036 0.32328 0.5219 0.0
C968 C 0.12636 0.29211 0.5341 0.0
C969 C 0.09734 0.28756 0.55017 0.0
C970 C 0.2271 0.31999 0.49537 0.0
C971 C 0.23753 0.3402 0.46448 0.0
C972 C 0.1986 0.31404 0.51402 0.0
C973 C 0.18021 0.32838 0.50226 0.0
C974 C 0.19072 0.34838 0.47135 0.0
C975 C 0.21887 0.35422 0.45282 0.0
H976 H 0.95654 0.22458 0.67503 0.0
H977 H 0.88278 0.20917 0.59556 0.0
H978 H 0.9163 0.1749 0.70706 0.0
H979 H 0.84349 0.16013 0.62682 0.0
H980 H 0.77047 0.09806 0.71048 0.0
H981 H 0.81381 0.14768 0.6837 0.0
H982 H 0.88177 0.11267 0.69965 0.0
H983 H 0.83783 0.06242 0.72748 0.0
C984 C 0.93187 0.21075 0.66443 0.0
C985 C 0.92291 0.22116 0.63286 0.0
C986 C 0.90893 0.18218 0.6826 0.0
C987 C 0.87659 0.16366 0.66967 0.0
C988 C 0.86795 0.17405 0.63797 0.0
C989 C 0.89067 0.20229 0.61993 0.0
C990 C 0.79458 0.10072 0.70838 0.0
C991 C 0.80053 0.07599 0.72076 0.0
C992 C 0.8195 0.12927 0.69289 0.0
C993 C 0.85121 0.13405 0.68907 0.0
C994 C 0.8576 0.10977 0.7023 0.0
C995 C 0.83243 0.08093 0.71798 0.0
loop_
_geom_bond_atom_site_label_1
_geom_bond_atom_site_label_2
_geom_bond_distance
_geom_bond_site_symmetry_2
_ccdc_geom_bond_type
Co0 N4 2.148 1_554 S
Co0 N10 2.128 . S
Co0 N20 2.194 . S
Co0 O25 2.351 . S
Co0 O26 2.155 . S
Co0 O27 2.096 . S
C1 N4 1.301 . S
C1 N5 1.328 . S
C1 H6 0.930 . S
C2 C3 1.333 . S
C2 N4 1.317 . S
C2 H7 0.930 . S
C3 C2 1.333 . S
C3 N5 1.350 . S
C3 H29 0.931 . S
N4 Co0 2.148 1_556 S
N4 C1 1.301 . S
N4 C2 1.317 . S
N5 C1 1.328 . S
N5 C3 1.350 . S
H6 C1 0.930 . S
H7 C2 0.930 . S
C8 O9 1.224 . S
C8 O27 1.247 . S
O9 C8 1.224 . S
N10 Co0 2.128 . S
N10 C11 1.355 . S
N10 C13 1.311 . S
C11 N10 1.355 . S
C11 C12 1.363 . S
C11 H23 0.929 . S
C12 C11 1.363 . S
C12 N14 1.375 . S
C12 H30 0.931 . S
C13 N10 1.311 . S
C13 N14 1.347 . S
C13 H24 0.929 . S
N14 C12 1.375 . S
N14 C13 1.347 . S
C15 C18 1.365 . S
C15 N20 1.328 . S
C15 H21 0.929 . S
C16 C17 1.362 . S
C16 C19 1.378 . S
C16 H31 0.929 . S
C17 C16 1.362 . S
C17 C18 1.366 . S
C18 C15 1.365 . S
C18 C17 1.366 . S
C18 H32 0.930 . S
C19 C16 1.378 . S
C19 N20 1.315 . S
C19 H22 0.930 . S
N20 Co0 2.194 . S
N20 C15 1.328 . S
N20 C19 1.315 . S
H21 C15 0.929 . S
H22 C19 0.930 . S
H23 C11 0.929 . S
H24 C13 0.929 . S
O25 Co0 2.351 . S
O25 C28 1.244 . S
O26 Co0 2.155 . S
O26 C28 1.240 . S
O27 Co0 2.096 . S
O27 C8 1.247 . S
C28 O25 1.244 . S
C28 O26 1.240 . S
H29 C3 0.931 . S
H30 C12 0.931 . S
H31 C16 0.929 . S
H32 C18 0.930 . S
Co33 N37 2.148 . S
Co33 N43 2.128 . S
Co33 N53 2.194 . S
Co33 O58 2.351 . S
Co33 O59 2.155 . S
Co33 O60 2.096 . S
C34 N37 1.301 . S
C34 N38 1.328 . S
C34 H39 0.930 . S
C35 C36 1.333 . S
C35 N37 1.317 . S
C35 H40 0.930 . S
C36 C35 1.333 . S
C36 N38 1.350 . S
C36 H62 0.931 . S
N37 Co33 2.148 . S
N37 C34 1.301 . S
N37 C35 1.317 . S
N38 C34 1.328 . S
N38 C36 1.350 . S
H39 C34 0.930 . S
H40 C35 0.930 . S
C41 O42 1.224 . S
C41 O60 1.247 . S
O42 C41 1.224 . S
N43 Co33 2.128 . S
N43 C44 1.355 . S
N43 C46 1.311 . S
C44 N43 1.355 . S
C44 C45 1.363 . S
C44 H56 0.929 . S
C45 C44 1.363 . S
C45 N47 1.375 . S
C45 H63 0.931 . S
C46 N43 1.311 . S
C46 N47 1.347 . S
C46 H57 0.929 . S
N47 C45 1.375 . S
N47 C46 1.347 . S
C48 C51 1.365 . S
C48 N53 1.328 . S
C48 H54 0.929 . S
C49 C50 1.362 . S
C49 C52 1.378 . S
C49 H64 0.929 . S
C50 C49 1.362 . S
C50 C51 1.366 . S
C51 C48 1.365 . S
C51 C50 1.366 . S
C51 H65 0.930 . S
C52 C49 1.378 . S
C52 N53 1.315 . S
C52 H55 0.930 . S
N53 Co33 2.194 . S
N53 C48 1.328 . S
N53 C52 1.315 . S
H54 C48 0.929 . S
H55 C52 0.930 . S
H56 C44 0.929 . S
H57 C46 0.929 . S
O58 Co33 2.351 . S
O58 C61 1.244 . S
O59 Co33 2.155 . S
O59 C61 1.240 . S
O60 Co33 2.096 . S
O60 C41 1.247 . S
C61 O58 1.244 . S
C61 O59 1.240 . S
H62 C36 0.931 . S
H63 C45 0.931 . S
H64 C49 0.929 . S
H65 C51 0.930 . S
Co66 N70 2.148 . S
Co66 N76 2.128 . S
Co66 N86 2.194 . S
Co66 O91 2.351 . S
Co66 O92 2.155 . S
Co66 O93 2.096 . S
C67 N70 1.301 . S
C67 N71 1.328 . S
C67 H72 0.930 . S
C68 C69 1.333 . S
C68 N70 1.317 . S
C68 H73 0.930 . S
C69 C68 1.333 . S
C69 N71 1.350 . S
C69 H95 0.931 . S
N70 Co66 2.148 . S
N70 C67 1.301 . S
N70 C68 1.317 . S
N71 C67 1.328 . S
N71 C69 1.350 . S
H72 C67 0.930 . S
H73 C68 0.930 . S
C74 O75 1.224 . S
C74 O93 1.247 . S
O75 C74 1.224 . S
N76 Co66 2.128 . S
N76 C77 1.355 . S
N76 C79 1.311 . S
C77 N76 1.355 . S
C77 C78 1.363 . S
C77 H89 0.929 . S
C78 C77 1.363 . S
C78 N80 1.375 . S
C78 H96 0.931 . S
C79 N76 1.311 . S
C79 N80 1.347 . S
C79 H90 0.929 . S
N80 C78 1.375 . S
N80 C79 1.347 . S
C81 C84 1.365 . S
C81 N86 1.328 . S
C81 H87 0.929 . S
C82 C83 1.362 . S
C82 C85 1.378 . S
C82 H97 0.929 . S
C83 C82 1.362 . S
C83 C84 1.366 . S
C84 C81 1.365 . S
C84 C83 1.366 . S
C84 H98 0.930 . S
C85 C82 1.378 . S
C85 N86 1.315 . S
C85 H88 0.930 . S
N86 Co66 2.194 . S
N86 C81 1.328 . S
N86 C85 1.315 . S
H87 C81 0.929 . S
H88 C85 0.930 . S
H89 C77 0.929 . S
H90 C79 0.929 . S
O91 Co66 2.351 . S
O91 C94 1.244 . S
O92 Co66 2.155 . S
O92 C94 1.240 . S
O93 Co66 2.096 . S
O93 C74 1.247 . S
C94 O91 1.244 . S
C94 O92 1.240 . S
H95 C69 0.931 . S
H96 C78 0.931 . S
H97 C82 0.929 . S
H98 C84 0.930 . S
Co99 N103 2.148 . S
Co99 N109 2.128 . S
Co99 N119 2.194 . S
Co99 O124 2.351 . S
Co99 O125 2.155 . S
Co99 O126 2.096 . S
C100 N103 1.301 . S
C100 N104 1.328 . S
C100 H105 0.930 . S
C101 C102 1.333 . S
C101 N103 1.317 . S
C101 H106 0.930 . S
C102 C101 1.333 . S
C102 N104 1.350 . S
C102 H128 0.931 . S
N103 Co99 2.148 . S
N103 C100 1.301 . S
N103 C101 1.317 . S
N104 C100 1.328 . S
N104 C102 1.350 . S
H105 C100 0.930 . S
H106 C101 0.930 . S
C107 O108 1.224 . S
C107 O126 1.247 . S
O108 C107 1.224 . S
N109 Co99 2.128 . S
N109 C110 1.355 . S
N109 C112 1.311 . S
C110 N109 1.355 . S
C110 C111 1.363 . S
C110 H122 0.929 . S
C111 C110 1.363 . S
C111 N113 1.375 . S
C111 H129 0.931 . S
C112 N109 1.311 . S
C112 N113 1.347 . S
C112 H123 0.929 . S
N113 C111 1.375 . S
N113 C112 1.347 . S
C114 C117 1.365 . S
C114 N119 1.328 . S
C114 H120 0.929 . S
C115 C116 1.362 . S
C115 C118 1.378 . S
C115 H130 0.929 . S
C116 C115 1.362 . S
C116 C117 1.366 . S
C117 C114 1.365 . S
C117 C116 1.366 . S
C117 H131 0.930 . S
C118 C115 1.378 . S
C118 N119 1.315 . S
C118 H121 0.930 . S
N119 Co99 2.194 . S
N119 C114 1.328 . S
N119 C118 1.315 . S
H120 C114 0.929 . S
H121 C118 0.930 . S
H122 C110 0.929 . S
H123 C112 0.929 . S
O124 Co99 2.351 . S
O124 C127 1.244 . S
O125 Co99 2.155 . S
O125 C127 1.240 . S
O126 Co99 2.096 . S
O126 C107 1.247 . S
C127 O124 1.244 . S
C127 O125 1.240 . S
H128 C102 0.931 . S
H129 C111 0.931 . S
H130 C115 0.929 . S
H131 C117 0.930 . S
Co132 N136 2.148 . S
Co132 N142 2.128 . S
Co132 N152 2.194 . S
Co132 O157 2.351 . S
Co132 O158 2.155 . S
Co132 O159 2.096 . S
C133 N136 1.301 . S
C133 N137 1.328 . S
C133 H138 0.930 . S
C134 C135 1.333 . S
C134 N136 1.317 . S
C134 H139 0.930 . S
C135 C134 1.333 . S
C135 N137 1.350 . S
C135 H161 0.931 . S
N136 Co132 2.148 . S
N136 C133 1.301 . S
N136 C134 1.317 . S
N137 C133 1.328 . S
N137 C135 1.350 . S
H138 C133 0.930 . S
H139 C134 0.930 . S
C140 O141 1.224 . S
C140 O159 1.247 . S
O141 C140 1.224 . S
N142 Co132 2.128 . S
N142 C143 1.355 . S
N142 C145 1.311 . S
C143 N142 1.355 . S
C143 C144 1.363 . S
C143 H155 0.929 . S
C144 C143 1.363 . S
C144 N146 1.375 . S
C144 H162 0.931 . S
C145 N142 1.311 . S
C145 N146 1.347 . S
C145 H156 0.929 . S
N146 C144 1.375 . S
N146 C145 1.347 . S
C147 C150 1.365 . S
C147 N152 1.328 . S
C147 H153 0.929 . S
C148 C149 1.362 . S
C148 C151 1.378 . S
C148 H163 0.929 . S
C149 C148 1.362 . S
C149 C150 1.366 . S
C150 C147 1.365 . S
C150 C149 1.366 . S
C150 H164 0.930 . S
C151 C148 1.378 . S
C151 N152 1.315 . S
C151 H154 0.930 . S
N152 Co132 2.194 . S
N152 C147 1.328 . S
N152 C151 1.315 . S
H153 C147 0.929 . S
H154 C151 0.930 . S
H155 C143 0.929 . S
H156 C145 0.929 . S
O157 Co132 2.351 . S
O157 C160 1.244 . S
O158 Co132 2.155 . S
O158 C160 1.240 . S
O159 Co132 2.096 . S
O159 C140 1.247 . S
C160 O157 1.244 . S
C160 O158 1.240 . S
H161 C135 0.931 . S
H162 C144 0.931 . S
H163 C148 0.929 . S
H164 C150 0.930 . S
Co165 N169 2.148 . S
Co165 N175 2.128 . S
Co165 N185 2.194 . S
Co165 O190 2.351 . S
Co165 O191 2.155 . S
Co165 O192 2.096 . S
C166 N169 1.301 . S
C166 N170 1.328 . S
C166 H171 0.930 . S
C167 C168 1.333 . S
C167 N169 1.317 . S
C167 H172 0.930 . S
C168 C167 1.333 . S
C168 N170 1.350 . S
C168 H194 0.931 . S
N169 Co165 2.148 . S
N169 C166 1.301 . S
N169 C167 1.317 . S
N170 C166 1.328 . S
N170 C168 1.350 . S
H171 C166 0.930 . S
H172 C167 0.930 . S
C173 O174 1.224 . S
C173 O192 1.247 . S
O174 C173 1.224 . S
N175 Co165 2.128 . S
N175 C176 1.355 . S
N175 C178 1.311 . S
C176 N175 1.355 . S
C176 C177 1.363 . S
C176 H188 0.929 . S
C177 C176 1.363 . S
C177 N179 1.375 . S
C177 H195 0.931 1_556 S
C178 N175 1.311 . S
C178 N179 1.347 . S
C178 H189 0.929 . S
N179 C177 1.375 . S
N179 C178 1.347 . S
C180 C183 1.365 . S
C180 N185 1.328 . S
C180 H186 0.929 . S
C181 C182 1.362 . S
C181 C184 1.378 . S
C181 H196 0.929 . S
C182 C181 1.362 . S
C182 C183 1.366 . S
C183 C180 1.365 . S
C183 C182 1.366 . S
C183 H197 0.930 . S
C184 C181 1.378 . S
C184 N185 1.315 . S
C184 H187 0.930 . S
N185 Co165 2.194 . S
N185 C180 1.328 . S
N185 C184 1.315 . S
H186 C180 0.929 . S
H187 C184 0.930 . S
H188 C176 0.929 . S
H189 C178 0.929 . S
O190 Co165 2.351 . S
O190 C193 1.244 . S
O191 Co165 2.155 . S
O191 C193 1.240 . S
O192 Co165 2.096 . S
O192 C173 1.247 . S
C193 O190 1.244 . S
C193 O191 1.240 . S
H194 C168 0.931 . S
H195 C177 0.931 1_554 S
H196 C181 0.929 . S
H197 C183 0.930 . S
Co198 N202 2.148 . S
Co198 N208 2.128 . S
Co198 N218 2.194 . S
Co198 O223 2.351 . S
Co198 O224 2.155 . S
Co198 O225 2.096 . S
C199 N202 1.301 . S
C199 N203 1.328 . S
C199 H204 0.930 . S
C200 C201 1.333 . S
C200 N202 1.317 . S
C200 H205 0.930 . S
C201 C200 1.333 . S
C201 N203 1.350 . S
C201 H227 0.931 . S
N202 Co198 2.148 . S
N202 C199 1.301 . S
N202 C200 1.317 . S
N203 C199 1.328 . S
N203 C201 1.350 . S
H204 C199 0.930 . S
H205 C200 0.930 . S
C206 O207 1.224 . S
C206 O225 1.247 . S
O207 C206 1.224 . S
N208 Co198 2.128 . S
N208 C209 1.355 . S
N208 C211 1.311 . S
C209 N208 1.355 . S
C209 C210 1.363 . S
C209 H221 0.929 . S
C210 C209 1.363 . S
C210 N212 1.375 . S
C210 H228 0.931 . S
C211 N208 1.311 . S
C211 N212 1.347 . S
C211 H222 0.929 . S
N212 C210 1.375 . S
N212 C211 1.347 . S
C213 C216 1.365 . S
C213 N218 1.328 . S
C213 H219 0.929 . S
C214 C215 1.362 . S
C214 C217 1.378 . S
C214 H229 0.929 . S
C215 C214 1.362 . S
C215 C216 1.366 . S
C216 C213 1.365 . S
C216 C215 1.366 . S
C216 H230 0.930 . S
C217 C214 1.378 . S
C217 N218 1.315 . S
C217 H220 0.930 . S
N218 Co198 2.194 . S
N218 C213 1.328 . S
N218 C217 1.315 . S
H219 C213 0.929 . S
H220 C217 0.930 . S
H221 C209 0.929 . S
H222 C211 0.929 . S
O223 Co198 2.351 . S
O223 C226 1.244 . S
O224 Co198 2.155 . S
O224 C226 1.240 . S
O225 Co198 2.096 . S
O225 C206 1.247 . S
C226 O223 1.244 . S
C226 O224 1.240 . S
H227 C201 0.931 . S
H228 C210 0.931 . S
H229 C214 0.929 . S
H230 C216 0.930 . S
Co231 N235 2.148 . S
Co231 N241 2.128 . S
Co231 N251 2.194 . S
Co231 O256 2.351 . S
Co231 O257 2.155 . S
Co231 O258 2.096 . S
C232 N235 1.301 1_554 S
C232 N236 1.328 . S
C232 H237 0.930 1_554 S
C233 C234 1.333 . S
C233 N235 1.317 1_554 S
C233 H238 0.930 . S
C234 C233 1.333 . S
C234 N236 1.350 . S
C234 H260 0.931 . S
N235 Co231 2.148 . S
N235 C232 1.301 1_556 S
N235 C233 1.317 1_556 S
N236 C232 1.328 . S
N236 C234 1.350 . S
H237 C232 0.930 1_556 S
H238 C233 0.930 . S
C239 O240 1.224 . S
C239 O258 1.247 . S
O240 C239 1.224 . S
N241 Co231 2.128 . S
N241 C242 1.355 . S
N241 C244 1.311 . S
C242 N241 1.355 . S
C242 C243 1.363 . S
C242 H254 0.929 . S
C243 C242 1.363 . S
C243 N245 1.375 . S
C243 H261 0.931 . S
C244 N241 1.311 . S
C244 N245 1.347 . S
C244 H255 0.929 . S
N245 C243 1.375 . S
N245 C244 1.347 . S
C246 C249 1.365 . S
C246 N251 1.328 . S
C246 H252 0.929 . S
C247 C248 1.362 . S
C247 C250 1.378 . S
C247 H262 0.929 . S
C248 C247 1.362 . S
C248 C249 1.366 . S
C249 C246 1.365 . S
C249 C248 1.366 . S
C249 H263 0.930 . S
C250 C247 1.378 . S
C250 N251 1.315 . S
C250 H253 0.930 . S
N251 Co231 2.194 . S
N251 C246 1.328 . S
N251 C250 1.315 . S
H252 C246 0.929 . S
H253 C250 0.930 . S
H254 C242 0.929 . S
H255 C244 0.929 . S
O256 Co231 2.351 . S
O256 C259 1.244 . S
O257 Co231 2.155 . S
O257 C259 1.240 . S
O258 Co231 2.096 . S
O258 C239 1.247 . S
C259 O256 1.244 . S
C259 O257 1.240 . S
H260 C234 0.931 . S
H261 C243 0.931 . S
H262 C247 0.929 . S
H263 C249 0.930 . S
Co264 N268 2.148 . S
Co264 N274 2.128 . S
Co264 N284 2.194 . S
Co264 O289 2.351 . S
Co264 O290 2.155 . S
Co264 O291 2.096 . S
C265 N268 1.301 . S
C265 N269 1.328 . S
C265 H270 0.930 . S
C266 C267 1.333 . S
C266 N268 1.317 . S
C266 H271 0.930 . S
C267 C266 1.333 . S
C267 N269 1.350 . S
C267 H293 0.931 . S
N268 Co264 2.148 . S
N268 C265 1.301 . S
N268 C266 1.317 . S
N269 C265 1.328 . S
N269 C267 1.350 . S
H270 C265 0.930 . S
H271 C266 0.930 . S
C272 O273 1.224 . S
C272 O291 1.247 . S
O273 C272 1.224 . S
N274 Co264 2.128 . S
N274 C275 1.355 . S
N274 C277 1.311 . S
C275 N274 1.355 . S
C275 C276 1.363 . S
C275 H287 0.929 . S
C276 C275 1.363 . S
C276 N278 1.375 . S
C276 H294 0.931 1_554 S
C277 N274 1.311 . S
C277 N278 1.347 . S
C277 H288 0.929 . S
N278 C276 1.375 . S
N278 C277 1.347 . S
C279 C282 1.365 . S
C279 N284 1.328 . S
C279 H285 0.929 . S
C280 C281 1.362 . S
C280 C283 1.378 . S
C280 H295 0.929 . S
C281 C280 1.362 . S
C281 C282 1.366 . S
C282 C279 1.365 . S
C282 C281 1.366 . S
C282 H296 0.930 . S
C283 C280 1.378 . S
C283 N284 1.315 . S
C283 H286 0.930 . S
N284 Co264 2.194 . S
N284 C279 1.328 . S
N284 C283 1.315 . S
H285 C279 0.929 . S
H286 C283 0.930 . S
H287 C275 0.929 . S
H288 C277 0.929 . S
O289 Co264 2.351 . S
O289 C292 1.244 . S
O290 Co264 2.155 . S
O290 C292 1.240 . S
O291 Co264 2.096 . S
O291 C272 1.247 . S
C292 O289 1.244 . S
C292 O290 1.240 . S
H293 C267 0.931 . S
H294 C276 0.931 1_556 S
H295 C280 0.929 . S
H296 C282 0.930 . S
Co297 N301 2.148 . S
Co297 N307 2.128 . S
Co297 N317 2.194 . S
Co297 O322 2.351 . S
Co297 O323 2.155 . S
Co297 O324 2.096 . S
C298 N301 1.301 . S
C298 N302 1.328 . S
C298 H303 0.930 . S
C299 C300 1.333 . S
C299 N301 1.317 . S
C299 H304 0.930 . S
C300 C299 1.333 . S
C300 N302 1.350 . S
C300 H326 0.931 . S
N301 Co297 2.148 . S
N301 C298 1.301 . S
N301 C299 1.317 . S
N302 C298 1.328 . S
N302 C300 1.350 . S
H303 C298 0.930 . S
H304 C299 0.930 . S
C305 O306 1.224 . S
C305 O324 1.247 . S
O306 C305 1.224 . S
N307 Co297 2.128 . S
N307 C308 1.355 . S
N307 C310 1.311 . S
C308 N307 1.355 . S
C308 C309 1.363 . S
C308 H320 0.929 . S
C309 C308 1.363 . S
C309 N311 1.375 . S
C309 H327 0.931 . S
C310 N307 1.311 . S
C310 N311 1.347 . S
C310 H321 0.929 . S
N311 C309 1.375 . S
N311 C310 1.347 . S
C312 C315 1.365 . S
C312 N317 1.328 . S
C312 H318 0.929 . S
C313 C314 1.362 . S
C313 C316 1.378 . S
C313 H328 0.929 . S
C314 C313 1.362 . S
C314 C315 1.366 . S
C315 C312 1.365 . S
C315 C314 1.366 . S
C315 H329 0.930 . S
C316 C313 1.378 . S
C316 N317 1.315 . S
C316 H319 0.930 . S
N317 Co297 2.194 . S
N317 C312 1.328 . S
N317 C316 1.315 . S
H318 C312 0.929 . S
H319 C316 0.930 . S
H320 C308 0.929 . S
H321 C310 0.929 . S
O322 Co297 2.351 . S
O322 C325 1.244 . S
O323 Co297 2.155 . S
O323 C325 1.240 . S
O324 Co297 2.096 . S
O324 C305 1.247 . S
C325 O322 1.244 . S
C325 O323 1.240 . S
H326 C300 0.931 . S
H327 C309 0.931 . S
H328 C313 0.929 . S
H329 C315 0.930 . S
Co330 N334 2.148 . S
Co330 N340 2.128 . S
Co330 N350 2.194 . S
Co330 O355 2.351 . S
Co330 O356 2.155 . S
Co330 O357 2.096 . S
C331 N334 1.301 . S
C331 N335 1.328 . S
C331 H336 0.930 . S
C332 C333 1.333 . S
C332 N334 1.317 . S
C332 H337 0.930 . S
C333 C332 1.333 . S
C333 N335 1.350 . S
C333 H359 0.931 . S
N334 Co330 2.148 . S
N334 C331 1.301 . S
N334 C332 1.317 . S
N335 C331 1.328 . S
N335 C333 1.350 . S
H336 C331 0.930 . S
H337 C332 0.930 . S
C338 O339 1.224 . S
C338 O357 1.247 . S
O339 C338 1.224 . S
N340 Co330 2.128 . S
N340 C341 1.355 . S
N340 C343 1.311 . S
C341 N340 1.355 . S
C341 C342 1.363 . S
C341 H353 0.929 . S
C342 C341 1.363 . S
C342 N344 1.375 . S
C342 H360 0.931 . S
C343 N340 1.311 . S
C343 N344 1.347 . S
C343 H354 0.929 . S
N344 C342 1.375 . S
N344 C343 1.347 . S
C345 C348 1.365 . S
C345 N350 1.328 . S
C345 H351 0.929 . S
C346 C347 1.362 . S
C346 C349 1.378 . S
C346 H361 0.929 . S
C347 C346 1.362 . S
C347 C348 1.366 . S
C348 C345 1.365 . S
C348 C347 1.366 . S
C348 H362 0.930 . S
C349 C346 1.378 . S
C349 N350 1.315 . S
C349 H352 0.930 . S
N350 Co330 2.194 . S
N350 C345 1.328 . S
N350 C349 1.315 . S
H351 C345 0.929 . S
H352 C349 0.930 . S
H353 C341 0.929 . S
H354 C343 0.929 . S
O355 Co330 2.351 . S
O355 C358 1.244 . S
O356 Co330 2.155 . S
O356 C358 1.240 . S
O357 Co330 2.096 . S
O357 C338 1.247 . S
C358 O355 1.244 . S
C358 O356 1.240 . S
H359 C333 0.931 . S
H360 C342 0.931 . S
H361 C346 0.929 . S
H362 C348 0.930 . S
Co363 N367 2.148 . S
Co363 N373 2.128 . S
Co363 N383 2.194 . S
Co363 O388 2.351 . S
Co363 O389 2.155 . S
Co363 O390 2.096 . S
C364 N367 1.301 . S
C364 N368 1.328 . S
C364 H369 0.930 . S
C365 C366 1.333 . S
C365 N367 1.317 . S
C365 H370 0.930 . S
C366 C365 1.333 . S
C366 N368 1.350 . S
C366 H392 0.931 . S
N367 Co363 2.148 . S
N367 C364 1.301 . S
N367 C365 1.317 . S
N368 C364 1.328 . S
N368 C366 1.350 . S
H369 C364 0.930 . S
H370 C365 0.930 . S
C371 O372 1.224 . S
C371 O390 1.247 . S
O372 C371 1.224 . S
N373 Co363 2.128 . S
N373 C374 1.355 . S
N373 C376 1.311 . S
C374 N373 1.355 . S
C374 C375 1.363 . S
C374 H386 0.929 . S
C375 C374 1.363 . S
C375 N377 1.375 . S
C375 H393 0.931 . S
C376 N373 1.311 . S
C376 N377 1.347 . S
C376 H387 0.929 . S
N377 C375 1.375 . S
N377 C376 1.347 . S
C378 C381 1.365 . S
C378 N383 1.328 . S
C378 H384 0.929 . S
C379 C380 1.362 . S
C379 C382 1.378 . S
C379 H394 0.929 . S
C380 C379 1.362 . S
C380 C381 1.366 . S
C381 C378 1.365 . S
C381 C380 1.366 . S
C381 H395 0.930 . S
C382 C379 1.378 . S
C382 N383 1.315 . S
C382 H385 0.930 . S
N383 Co363 2.194 . S
N383 C378 1.328 . S
N383 C382 1.315 . S
H384 C378 0.929 . S
H385 C382 0.930 . S
H386 C374 0.929 . S
H387 C376 0.929 . S
O388 Co363 2.351 . S
O388 C391 1.244 . S
O389 Co363 2.155 . S
O389 C391 1.240 . S
O390 Co363 2.096 . S
O390 C371 1.247 . S
C391 O388 1.244 . S
C391 O389 1.240 . S
H392 C366 0.931 . S
H393 C375 0.931 . S
H394 C379 0.929 . S
H395 C381 0.930 . S
H396 C404 0.950 . S
H397 C409 0.950 . S
H398 C406 0.950 . S
H399 C408 0.950 . S
H400 C410 0.950 . S
H401 C412 0.950 . S
H402 C414 0.950 . S
H403 C415 0.950 . S
C404 H396 0.950 . S
C404 C405 1.386 . S
C404 C406 1.391 . S
C405 C404 1.386 . S
C405 C409 1.393 . S
C406 H398 0.950 . S
C406 C404 1.391 . S
C406 C407 1.400 . S
C407 C406 1.400 . S
C407 C408 1.398 . S
C407 C413 1.491 . S
C408 H399 0.950 . S
C408 C407 1.398 . S
C408 C409 1.391 . S
C409 H397 0.950 . S
C409 C405 1.393 . S
C409 C408 1.391 . S
C410 H400 0.950 . S
C410 C411 1.386 . S
C410 C412 1.391 . S
C411 C410 1.386 . S
C411 C415 1.393 . S
C412 H401 0.950 . S
C412 C410 1.391 . S
C412 C413 1.400 . S
C413 C407 1.491 . S
C413 C412 1.400 . S
C413 C414 1.398 . S
C414 H402 0.950 . S
C414 C413 1.398 . S
C414 C415 1.391 . S
C415 H403 0.950 . S
C415 C411 1.393 . S
C415 C414 1.391 . S
H416 C424 0.950 . S
H417 C429 0.950 . S
H418 C426 0.950 . S
H419 C428 0.950 . S
H420 C430 0.950 . S
H421 C432 0.950 . S
H422 C434 0.950 . S
H423 C435 0.950 . S
C424 H416 0.950 . S
C424 C425 1.386 . S
C424 C426 1.391 . S
C425 C424 1.386 . S
C425 C429 1.393 . S
C426 H418 0.950 . S
C426 C424 1.391 . S
C426 C427 1.400 . S
C427 C426 1.400 . S
C427 C428 1.398 . S
C427 C433 1.491 . S
C428 H419 0.950 . S
C428 C427 1.398 . S
C428 C429 1.391 . S
C429 H417 0.950 . S
C429 C425 1.393 . S
C429 C428 1.391 . S
C430 H420 0.950 . S
C430 C431 1.386 . S
C430 C432 1.391 . S
C431 C430 1.386 . S
C431 C435 1.393 . S
C432 H421 0.950 . S
C432 C430 1.391 . S
C432 C433 1.400 . S
C433 C427 1.491 . S
C433 C432 1.400 . S
C433 C434 1.398 . S
C434 H422 0.950 . S
C434 C433 1.398 . S
C434 C435 1.391 . S
C435 H423 0.950 . S
C435 C431 1.393 . S
C435 C434 1.391 . S
H436 C444 0.950 . S
H437 C449 0.950 . S
H438 C446 0.950 . S
H439 C448 0.950 . S
H440 C450 0.950 . S
H441 C452 0.950 . S
H442 C454 0.950 . S
H443 C455 0.950 . S
C444 H436 0.950 . S
C444 C445 1.386 . S
C444 C446 1.391 . S
C445 C444 1.386 . S
C445 C449 1.393 . S
C446 H438 0.950 . S
C446 C444 1.391 . S
C446 C447 1.400 . S
C447 C446 1.400 . S
C447 C448 1.398 . S
C447 C453 1.491 . S
C448 H439 0.950 . S
C448 C447 1.398 . S
C448 C449 1.391 . S
C449 H437 0.950 . S
C449 C445 1.393 . S
C449 C448 1.391 . S
C450 H440 0.950 . S
C450 C451 1.386 . S
C450 C452 1.391 . S
C451 C450 1.386 . S
C451 C455 1.393 . S
C452 H441 0.950 . S
C452 C450 1.391 . S
C452 C453 1.400 . S
C453 C447 1.491 . S
C453 C452 1.400 . S
C453 C454 1.398 . S
C454 H442 0.950 . S
C454 C453 1.398 . S
C454 C455 1.391 . S
C455 H443 0.950 . S
C455 C451 1.393 . S
C455 C454 1.391 . S
H456 C464 0.950 . S
H457 C469 0.950 . S
H458 C466 0.950 . S
H459 C468 0.950 . S
H460 C470 0.950 . S
H461 C472 0.950 . S
H462 C474 0.950 . S
H463 C475 0.950 . S
C464 H456 0.950 . S
C464 C465 1.386 . S
C464 C466 1.391 . S
C465 C464 1.386 . S
C465 C469 1.393 . S
C466 H458 0.950 . S
C466 C464 1.391 . S
C466 C467 1.400 . S
C467 C466 1.400 . S
C467 C468 1.398 . S
C467 C473 1.491 . S
C468 H459 0.950 . S
C468 C467 1.398 . S
C468 C469 1.391 . S
C469 H457 0.950 . S
C469 C465 1.393 . S
C469 C468 1.391 . S
C470 H460 0.950 . S
C470 C471 1.386 . S
C470 C472 1.391 . S
C471 C470 1.386 . S
C471 C475 1.393 . S
C472 H461 0.950 . S
C472 C470 1.391 . S
C472 C473 1.400 . S
C473 C467 1.491 . S
C473 C472 1.400 . S
C473 C474 1.398 . S
C474 H462 0.950 . S
C474 C473 1.398 . S
C474 C475 1.391 . S
C475 H463 0.950 . S
C475 C471 1.393 . S
C475 C474 1.391 . S
H476 C484 0.950 . S
H477 C489 0.950 . S
H478 C486 0.950 . S
H479 C488 0.950 . S
H480 C490 0.950 1_554 S
H481 C492 0.950 . S
H482 C494 0.950 . S
H483 C495 0.950 . S
C484 H476 0.950 . S
C484 C485 1.386 . S
C484 C486 1.391 . S
C485 C484 1.386 . S
C485 C489 1.393 . S
C486 H478 0.950 . S
C486 C484 1.391 . S
C486 C487 1.400 . S
C487 C486 1.400 . S
C487 C488 1.398 . S
C487 C493 1.491 . S
C488 H479 0.950 . S
C488 C487 1.398 . S
C488 C489 1.391 . S
C489 H477 0.950 . S
C489 C485 1.393 . S
C489 C488 1.391 . S
C490 H480 0.950 1_556 S
C490 C491 1.386 . S
C490 C492 1.391 . S
C491 C490 1.386 . S
C491 C495 1.393 . S
C492 H481 0.950 . S
C492 C490 1.391 . S
C492 C493 1.400 . S
C493 C487 1.491 . S
C493 C492 1.400 . S
C493 C494 1.398 . S
C494 H482 0.950 . S
C494 C493 1.398 . S
C494 C495 1.391 . S
C495 H483 0.950 . S
C495 C491 1.393 . S
C495 C494 1.391 . S
H496 C504 0.950 1_556 S
H497 C509 0.950 . S
H498 C506 0.950 . S
H499 C508 0.950 . S
H500 C510 0.950 . S
H501 C512 0.950 . S
H502 C514 0.950 . S
H503 C515 0.950 . S
C504 H496 0.950 1_554 S
C504 C505 1.386 . S
C504 C506 1.391 . S
C505 C504 1.386 . S
C505 C509 1.393 . S
C506 H498 0.950 . S
C506 C504 1.391 . S
C506 C507 1.400 . S
C507 C506 1.400 . S
C507 C508 1.398 . S
C507 C513 1.491 . S
C508 H499 0.950 . S
C508 C507 1.398 . S
C508 C509 1.391 . S
C509 H497 0.950 . S
C509 C505 1.393 . S
C509 C508 1.391 . S
C510 H500 0.950 . S
C510 C511 1.386 . S
C510 C512 1.391 . S
C511 C510 1.386 . S
C511 C515 1.393 . S
C512 H501 0.950 . S
C512 C510 1.391 . S
C512 C513 1.400 . S
C513 C507 1.491 . S
C513 C512 1.400 . S
C513 C514 1.398 . S
C514 H502 0.950 . S
C514 C513 1.398 . S
C514 C515 1.391 . S
C515 H503 0.950 . S
C515 C511 1.393 . S
C515 C514 1.391 . S
H516 C524 0.950 . S
H517 C529 0.950 . S
H518 C526 0.950 . S
H519 C528 0.950 . S
H520 C530 0.950 . S
H521 C532 0.950 . S
H522 C534 0.950 . S
H523 C535 0.950 . S
C524 H516 0.950 . S
C524 C525 1.386 . S
C524 C526 1.391 . S
C525 C524 1.386 . S
C525 C529 1.393 . S
C526 H518 0.950 . S
C526 C524 1.391 . S
C526 C527 1.400 . S
C527 C526 1.400 . S
C527 C528 1.398 . S
C527 C533 1.491 . S
C528 H519 0.950 . S
C528 C527 1.398 . S
C528 C529 1.391 . S
C529 H517 0.950 . S
C529 C525 1.393 . S
C529 C528 1.391 . S
C530 H520 0.950 . S
C530 C531 1.386 . S
C530 C532 1.391 . S
C531 C530 1.386 . S
C531 C535 1.393 . S
C532 H521 0.950 . S
C532 C530 1.391 . S
C532 C533 1.400 . S
C533 C527 1.491 . S
C533 C532 1.400 . S
C533 C534 1.398 . S
C534 H522 0.950 . S
C534 C533 1.398 . S
C534 C535 1.391 . S
C535 H523 0.950 . S
C535 C531 1.393 . S
C535 C534 1.391 . S
H536 C544 0.950 . S
H537 C549 0.950 . S
H538 C546 0.950 . S
H539 C548 0.950 . S
H540 C550 0.950 . S
H541 C552 0.950 . S
H542 C554 0.950 . S
H543 C555 0.950 . S
C544 H536 0.950 . S
C544 C545 1.386 . S
C544 C546 1.391 . S
C545 C544 1.386 . S
C545 C549 1.393 . S
C546 H538 0.950 . S
C546 C544 1.391 . S
C546 C547 1.400 . S
C547 C546 1.400 . S
C547 C548 1.398 . S
C547 C553 1.491 . S
C548 H539 0.950 . S
C548 C547 1.398 . S
C548 C549 1.391 . S
C549 H537 0.950 . S
C549 C545 1.393 . S
C549 C548 1.391 . S
C550 H540 0.950 . S
C550 C551 1.386 . S
C550 C552 1.391 . S
C551 C550 1.386 . S
C551 C555 1.393 . S
C552 H541 0.950 . S
C552 C550 1.391 . S
C552 C553 1.400 . S
C553 C547 1.491 . S
C553 C552 1.400 . S
C553 C554 1.398 . S
C554 H542 0.950 . S
C554 C553 1.398 . S
C554 C555 1.391 . S
C555 H543 0.950 . S
C555 C551 1.393 . S
C555 C554 1.391 . S
H556 C564 0.950 . S
H557 C569 0.950 . S
H558 C566 0.950 . S
H559 C568 0.950 . S
H560 C570 0.950 . S
H561 C572 0.950 . S
H562 C574 0.950 . S
H563 C575 0.950 . S
C564 H556 0.950 . S
C564 C565 1.386 . S
C564 C566 1.391 . S
C565 C564 1.386 . S
C565 C569 1.393 . S
C566 H558 0.950 . S
C566 C564 1.391 . S
C566 C567 1.400 . S
C567 C566 1.400 . S
C567 C568 1.398 . S
C567 C573 1.491 . S
C568 H559 0.950 . S
C568 C567 1.398 . S
C568 C569 1.391 . S
C569 H557 0.950 . S
C569 C565 1.393 . S
C569 C568 1.391 . S
C570 H560 0.950 . S
C570 C571 1.386 . S
C570 C572 1.391 . S
C571 C570 1.386 . S
C571 C575 1.393 . S
C572 H561 0.950 . S
C572 C570 1.391 . S
C572 C573 1.400 . S
C573 C567 1.491 . S
C573 C572 1.400 . S
C573 C574 1.398 . S
C574 H562 0.950 . S
C574 C573 1.398 . S
C574 C575 1.391 . S
C575 H563 0.950 . S
C575 C571 1.393 . S
C575 C574 1.391 . S
H576 C584 0.950 . S
H577 C589 0.950 . S
H578 C586 0.950 . S
H579 C588 0.950 . S
H580 C590 0.950 . S
H581 C592 0.950 . S
H582 C594 0.950 . S
H583 C595 0.950 . S
C584 H576 0.950 . S
C584 C585 1.386 . S
C584 C586 1.391 . S
C585 C584 1.386 . S
C585 C589 1.393 . S
C586 H578 0.950 . S
C586 C584 1.391 . S
C586 C587 1.400 . S
C587 C586 1.400 . S
C587 C588 1.398 . S
C587 C593 1.491 . S
C588 H579 0.950 . S
C588 C587 1.398 . S
C588 C589 1.391 . S
C589 H577 0.950 . S
C589 C585 1.393 . S
C589 C588 1.391 . S
C590 H580 0.950 . S
C590 C591 1.386 . S
C590 C592 1.391 . S
C591 C590 1.386 . S
C591 C595 1.393 . S
C592 H581 0.950 . S
C592 C590 1.391 . S
C592 C593 1.400 . S
C593 C587 1.491 . S
C593 C592 1.400 . S
C593 C594 1.398 . S
C594 H582 0.950 . S
C594 C593 1.398 . S
C594 C595 1.391 . S
C595 H583 0.950 . S
C595 C591 1.393 . S
C595 C594 1.391 . S
H596 C604 0.950 . S
H597 C609 0.950 . S
H598 C606 0.950 . S
H599 C608 0.950 . S
H600 C610 0.950 . S
H601 C612 0.950 . S
H602 C614 0.950 . S
H603 C615 0.950 . S
C604 H596 0.950 . S
C604 C605 1.386 . S
C604 C606 1.391 . S
C605 C604 1.386 . S
C605 C609 1.393 . S
C606 H598 0.950 . S
C606 C604 1.391 . S
C606 C607 1.400 . S
C607 C606 1.400 . S
C607 C608 1.398 . S
C607 C613 1.491 . S
C608 H599 0.950 . S
C608 C607 1.398 . S
C608 C609 1.391 . S
C609 H597 0.950 . S
C609 C605 1.393 . S
C609 C608 1.391 . S
C610 H600 0.950 . S
C610 C611 1.386 . S
C610 C612 1.391 . S
C611 C610 1.386 . S
C611 C615 1.393 . S
C612 H601 0.950 . S
C612 C610 1.391 . S
C612 C613 1.400 . S
C613 C607 1.491 . S
C613 C612 1.400 . S
C613 C614 1.398 . S
C614 H602 0.950 . S
C614 C613 1.398 . S
C614 C615 1.391 . S
C615 H603 0.950 . S
C615 C611 1.393 . S
C615 C614 1.391 . S
H616 C624 0.950 . S
H617 C629 0.950 . S
H618 C626 0.950 . S
H619 C628 0.950 . S
H620 C630 0.950 . S
H621 C632 0.950 . S
H622 C634 0.950 . S
H623 C635 0.950 . S
C624 H616 0.950 . S
C624 C625 1.386 . S
C624 C626 1.391 . S
C625 C624 1.386 . S
C625 C629 1.393 . S
C626 H618 0.950 . S
C626 C624 1.391 . S
C626 C627 1.400 . S
C627 C626 1.400 . S
C627 C628 1.398 . S
C627 C633 1.491 . S
C628 H619 0.950 . S
C628 C627 1.398 . S
C628 C629 1.391 . S
C629 H617 0.950 . S
C629 C625 1.393 . S
C629 C628 1.391 . S
C630 H620 0.950 . S
C630 C631 1.386 . S
C630 C632 1.391 . S
C631 C630 1.386 . S
C631 C635 1.393 . S
C632 H621 0.950 . S
C632 C630 1.391 . S
C632 C633 1.400 . S
C633 C627 1.491 . S
C633 C632 1.400 . S
C633 C634 1.398 . S
C634 H622 0.950 . S
C634 C633 1.398 . S
C634 C635 1.391 . S
C635 H623 0.950 . S
C635 C631 1.393 . S
C635 C634 1.391 . S
H636 C644 0.950 . S
H637 C649 0.950 . S
H638 C646 0.950 . S
H639 C648 0.950 . S
H640 C650 0.950 . S
H641 C652 0.950 . S
H642 C654 0.950 . S
H643 C655 0.950 . S
C644 H636 0.950 . S
C644 C645 1.386 . S
C644 C646 1.391 . S
C645 C644 1.386 . S
C645 C649 1.393 1_655 S
C646 H638 0.950 . S
C646 C644 1.391 . S
C646 C647 1.400 . S
C647 C646 1.400 . S
C647 C648 1.398 1_655 S
C647 C653 1.491 1_655 S
C648 H639 0.950 . S
C648 C647 1.398 1_455 S
C648 C649 1.391 . S
C649 H637 0.950 . S
C649 C645 1.393 1_455 S
C649 C648 1.391 . S
C650 H640 0.950 . S
C650 C651 1.386 . S
C650 C652 1.391 . S
C651 C650 1.386 . S
C651 C655 1.393 1_455 S
C652 H641 0.950 . S
C652 C650 1.391 . S
C652 C653 1.400 . S
C653 C647 1.491 1_455 S
C653 C652 1.400 . S
C653 C654 1.398 1_455 S
C654 H642 0.950 . S
C654 C653 1.398 1_655 S
C654 C655 1.391 . S
C655 H643 0.950 . S
C655 C651 1.393 1_655 S
C655 C654 1.391 . S
H656 C664 0.950 . S
H657 C669 0.950 . S
H658 C666 0.950 . S
H659 C668 0.950 . S
H660 C670 0.950 . S
H661 C672 0.950 . S
H662 C674 0.950 . S
H663 C675 0.950 . S
C664 H656 0.950 . S
C664 C665 1.386 1_545 S
C664 C666 1.391 . S
C665 C664 1.386 1_565 S
C665 C669 1.393 . S
C666 H658 0.950 . S
C666 C664 1.391 . S
C666 C667 1.400 1_545 S
C667 C666 1.400 1_565 S
C667 C668 1.398 . S
C667 C673 1.491 1_566 S
C668 H659 0.950 . S
C668 C667 1.398 . S
C668 C669 1.391 . S
C669 H657 0.950 . S
C669 C665 1.393 . S
C669 C668 1.391 . S
C670 H660 0.950 . S
C670 C671 1.386 1_565 S
C670 C672 1.391 . S
C671 C670 1.386 1_545 S
C671 C675 1.393 . S
C672 H661 0.950 . S
C672 C670 1.391 . S
C672 C673 1.400 1_565 S
C673 C667 1.491 1_544 S
C673 C672 1.400 1_545 S
C673 C674 1.398 . S
C674 H662 0.950 . S
C674 C673 1.398 . S
C674 C675 1.391 . S
C675 H663 0.950 . S
C675 C671 1.393 . S
C675 C674 1.391 . S
H676 C684 0.950 . S
H677 C689 0.950 . S
H678 C686 0.950 . S
H679 C688 0.950 . S
H680 C690 0.950 . S
H681 C692 0.950 . S
H682 C694 0.950 . S
H683 C695 0.950 . S
C684 H676 0.950 . S
C684 C685 1.386 . S
C684 C686 1.391 . S
C685 C684 1.386 . S
C685 C689 1.393 . S
C686 H678 0.950 . S
C686 C684 1.391 . S
C686 C687 1.400 . S
C687 C686 1.400 . S
C687 C688 1.398 . S
C687 C693 1.491 . S
C688 H679 0.950 . S
C688 C687 1.398 . S
C688 C689 1.391 . S
C689 H677 0.950 . S
C689 C685 1.393 . S
C689 C688 1.391 . S
C690 H680 0.950 . S
C690 C691 1.386 . S
C690 C692 1.391 . S
C691 C690 1.386 . S
C691 C695 1.393 . S
C692 H681 0.950 . S
C692 C690 1.391 . S
C692 C693 1.400 . S
C693 C687 1.491 . S
C693 C692 1.400 . S
C693 C694 1.398 . S
C694 H682 0.950 . S
C694 C693 1.398 . S
C694 C695 1.391 . S
C695 H683 0.950 . S
C695 C691 1.393 . S
C695 C694 1.391 . S
H696 C704 0.950 . S
H697 C709 0.950 . S
H698 C706 0.944 . S
H699 C708 0.950 . S
H700 C710 0.950 . S
H701 C712 0.945 . S
H702 C714 0.950 . S
H703 C715 0.950 . S
C704 H696 0.950 . S
C704 C705 1.386 . S
C704 C706 1.391 . S
C705 C704 1.386 . S
C705 C709 1.393 . S
C706 H698 0.944 . S
C706 C704 1.391 . S
C706 C707 1.400 . S
C707 C706 1.400 . S
C707 C708 1.398 . S
C707 C713 1.491 1_655 S
C708 H699 0.950 . S
C708 C707 1.398 . S
C708 C709 1.391 . S
C709 H697 0.950 . S
C709 C705 1.393 . S
C709 C708 1.391 . S
C710 H700 0.950 . S
C710 C711 1.386 . S
C710 C712 1.391 . S
C711 C710 1.386 . S
C711 C715 1.393 . S
C712 H701 0.945 . S
C712 C710 1.391 . S
C712 C713 1.400 . S
C713 C707 1.491 1_455 S
C713 C712 1.400 . S
C713 C714 1.398 . S
C714 H702 0.950 . S
C714 C713 1.398 . S
C714 C715 1.391 . S
C715 H703 0.950 . S
C715 C711 1.393 . S
C715 C714 1.391 . S
H716 C724 0.950 . S
H717 C729 0.950 1_545 S
H718 C726 0.950 . S
H719 C728 0.950 . S
H720 C730 0.950 . S
H721 C732 0.950 . S
H722 C734 0.950 . S
H723 C735 0.950 1_565 S
C724 H716 0.950 . S
C724 C725 1.386 . S
C724 C726 1.391 . S
C725 C724 1.386 . S
C725 C729 1.393 . S
C726 H718 0.950 . S
C726 C724 1.391 . S
C726 C727 1.400 . S
C727 C726 1.400 . S
C727 C728 1.398 1_565 S
C727 C733 1.491 1_565 S
C728 H719 0.950 . S
C728 C727 1.398 1_545 S
C728 C729 1.391 1_545 S
C729 H717 0.950 1_565 S
C729 C725 1.393 . S
C729 C728 1.391 1_565 S
C730 H720 0.950 . S
C730 C731 1.386 . S
C730 C732 1.391 . S
C731 C730 1.386 . S
C731 C735 1.393 . S
C732 H721 0.950 . S
C732 C730 1.391 . S
C732 C733 1.400 . S
C733 C727 1.491 1_545 S
C733 C732 1.400 . S
C733 C734 1.398 1_545 S
C734 H722 0.950 . S
C734 C733 1.398 1_565 S
C734 C735 1.391 1_565 S
C735 H723 0.950 1_545 S
C735 C731 1.393 . S
C735 C734 1.391 1_545 S
H736 C744 0.950 . S
H737 C749 0.950 . S
H738 C746 0.950 . S
H739 C748 0.950 . S
H740 C750 0.950 . S
H741 C752 0.950 . S
H742 C754 0.950 . S
H743 C755 0.950 . S
C744 H736 0.950 . S
C744 C745 1.386 . S
C744 C746 1.391 . S
C745 C744 1.386 . S
C745 C749 1.393 . S
C746 H738 0.950 . S
C746 C744 1.391 . S
C746 C747 1.400 . S
C747 C746 1.400 . S
C747 C748 1.398 . S
C747 C753 1.491 . S
C748 H739 0.950 . S
C748 C747 1.398 . S
C748 C749 1.391 . S
C749 H737 0.950 . S
C749 C745 1.393 . S
C749 C748 1.391 . S
C750 H740 0.950 . S
C750 C751 1.386 . S
C750 C752 1.391 . S
C751 C750 1.386 . S
C751 C755 1.393 . S
C752 H741 0.950 . S
C752 C750 1.391 . S
C752 C753 1.400 . S
C753 C747 1.491 . S
C753 C752 1.400 . S
C753 C754 1.398 . S
C754 H742 0.950 . S
C754 C753 1.398 . S
C754 C755 1.391 . S
C755 H743 0.950 . S
C755 C751 1.393 . S
C755 C754 1.391 . S
H756 C764 0.950 . S
H757 C769 0.950 . S
H758 C766 0.950 . S
H759 C768 0.950 . S
H760 C770 0.950 . S
H761 C772 0.950 . S
H762 C774 0.950 . S
H763 C775 0.950 . S
C764 H756 0.950 . S
C764 C765 1.386 . S
C764 C766 1.391 . S
C765 C764 1.386 . S
C765 C769 1.393 . S
C766 H758 0.950 . S
C766 C764 1.391 . S
C766 C767 1.400 . S
C767 C766 1.400 . S
C767 C768 1.398 . S
C767 C773 1.491 . S
C768 H759 0.950 . S
C768 C767 1.398 . S
C768 C769 1.391 . S
C769 H757 0.950 . S
C769 C765 1.393 . S
C769 C768 1.391 . S
C770 H760 0.950 . S
C770 C771 1.386 1_556 S
C770 C772 1.391 . S
C771 C770 1.386 1_554 S
C771 C775 1.393 . S
C772 H761 0.950 . S
C772 C770 1.391 . S
C772 C773 1.400 . S
C773 C767 1.491 . S
C773 C772 1.400 . S
C773 C774 1.398 . S
C774 H762 0.950 . S
C774 C773 1.398 . S
C774 C775 1.391 1_556 S
C775 H763 0.950 . S
C775 C771 1.393 . S
C775 C774 1.391 1_554 S
H776 C784 0.950 . S
H777 C789 0.950 . S
H778 C786 0.950 . S
H779 C788 0.950 . S
H780 C790 0.950 . S
H781 C792 0.950 . S
H782 C794 0.950 . S
H783 C795 0.950 . S
C784 H776 0.950 . S
C784 C785 1.386 . S
C784 C786 1.391 . S
C785 C784 1.386 . S
C785 C789 1.393 . S
C786 H778 0.950 . S
C786 C784 1.391 . S
C786 C787 1.400 . S
C787 C786 1.400 . S
C787 C788 1.398 . S
C787 C793 1.491 . S
C788 H779 0.950 . S
C788 C787 1.398 . S
C788 C789 1.391 . S
C789 H777 0.950 . S
C789 C785 1.393 . S
C789 C788 1.391 . S
C790 H780 0.950 . S
C790 C791 1.386 . S
C790 C792 1.391 . S
C791 C790 1.386 . S
C791 C795 1.393 . S
C792 H781 0.950 . S
C792 C790 1.391 . S
C792 C793 1.400 . S
C793 C787 1.491 . S
C793 C792 1.400 . S
C793 C794 1.398 . S
C794 H782 0.950 . S
C794 C793 1.398 . S
C794 C795 1.391 . S
C795 H783 0.950 . S
C795 C791 1.393 . S
C795 C794 1.391 . S
H796 C804 0.950 . S
H797 C809 0.950 . S
H798 C806 0.950 . S
H799 C808 0.950 . S
H800 C810 0.950 . S
H801 C812 0.950 . S
H802 C814 0.950 . S
H803 C815 0.950 . S
C804 H796 0.950 . S
C804 C805 1.386 . S
C804 C806 1.391 . S
C805 C804 1.386 . S
C805 C809 1.393 . S
C806 H798 0.950 . S
C806 C804 1.391 . S
C806 C807 1.400 . S
C807 C806 1.400 . S
C807 C808 1.398 . S
C807 C813 1.491 . S
C808 H799 0.950 . S
C808 C807 1.398 . S
C808 C809 1.391 . S
C809 H797 0.950 . S
C809 C805 1.393 . S
C809 C808 1.391 . S
C810 H800 0.950 . S
C810 C811 1.386 . S
C810 C812 1.391 . S
C811 C810 1.386 . S
C811 C815 1.393 . S
C812 H801 0.950 . S
C812 C810 1.391 . S
C812 C813 1.400 . S
C813 C807 1.491 . S
C813 C812 1.400 . S
C813 C814 1.398 . S
C814 H802 0.950 . S
C814 C813 1.398 . S
C814 C815 1.391 . S
C815 H803 0.950 . S
C815 C811 1.393 . S
C815 C814 1.391 . S
H816 C824 0.950 . S
H817 C829 0.950 . S
H818 C826 0.950 . S
H819 C828 0.950 . S
H820 C830 0.950 . S
H821 C832 0.950 . S
H822 C834 0.950 . S
H823 C835 0.950 . S
C824 H816 0.950 . S
C824 C825 1.386 . S
C824 C826 1.391 . S
C825 C824 1.386 . S
C825 C829 1.393 . S
C826 H818 0.950 . S
C826 C824 1.391 . S
C826 C827 1.400 . S
C827 C826 1.400 . S
C827 C828 1.398 . S
C827 C833 1.491 . S
C828 H819 0.950 . S
C828 C827 1.398 . S
C828 C829 1.391 . S
C829 H817 0.950 . S
C829 C825 1.393 . S
C829 C828 1.391 . S
C830 H820 0.950 . S
C830 C831 1.386 . S
C830 C832 1.391 . S
C831 C830 1.386 . S
C831 C835 1.393 . S
C832 H821 0.950 . S
C832 C830 1.391 . S
C832 C833 1.400 . S
C833 C827 1.491 . S
C833 C832 1.400 . S
C833 C834 1.398 . S
C834 H822 0.950 . S
C834 C833 1.398 . S
C834 C835 1.391 . S
C835 H823 0.950 . S
C835 C831 1.393 . S
C835 C834 1.391 . S
H836 C844 0.950 . S
H837 C849 0.950 . S
H838 C846 0.950 . S
H839 C848 0.950 . S
H840 C850 0.950 . S
H841 C852 0.950 . S
H842 C854 0.950 . S
H843 C855 0.950 . S
C844 H836 0.950 . S
C844 C845 1.386 . S
C844 C846 1.391 . S
C845 C844 1.386 . S
C845 C849 1.393 . S
C846 H838 0.950 . S
C846 C844 1.391 . S
C846 C847 1.400 . S
C847 C846 1.400 . S
C847 C848 1.398 . S
C847 C853 1.491 . S
C848 H839 0.950 . S
C848 C847 1.398 . S
C848 C849 1.391 . S
C849 H837 0.950 . S
C849 C845 1.393 . S
C849 C848 1.391 . S
C850 H840 0.950 . S
C850 C851 1.386 . S
C850 C852 1.391 . S
C851 C850 1.386 . S
C851 C855 1.393 . S
C852 H841 0.950 . S
C852 C850 1.391 . S
C852 C853 1.400 . S
C853 C847 1.491 . S
C853 C852 1.400 . S
C853 C854 1.398 . S
C854 H842 0.950 . S
C854 C853 1.398 . S
C854 C855 1.391 . S
C855 H843 0.950 . S
C855 C851 1.393 . S
C855 C854 1.391 . S
H856 C864 0.950 . S
H857 C869 0.950 . S
H858 C866 0.950 . S
H859 C868 0.950 . S
H860 C870 0.950 . S
H861 C872 0.950 . S
H862 C874 0.950 . S
H863 C875 0.950 . S
C864 H856 0.950 . S
C864 C865 1.386 . S
C864 C866 1.391 . S
C865 C864 1.386 . S
C865 C869 1.393 . S
C866 H858 0.950 . S
C866 C864 1.391 . S
C866 C867 1.400 . S
C867 C866 1.400 . S
C867 C868 1.398 . S
C867 C873 1.491 . S
C868 H859 0.950 . S
C868 C867 1.398 . S
C868 C869 1.391 . S
C869 H857 0.950 . S
C869 C865 1.393 . S
C869 C868 1.391 . S
C870 H860 0.950 . S
C870 C871 1.386 . S
C870 C872 1.391 . S
C871 C870 1.386 . S
C871 C875 1.393 . S
C872 H861 0.950 . S
C872 C870 1.391 . S
C872 C873 1.400 . S
C873 C867 1.491 . S
C873 C872 1.400 . S
C873 C874 1.398 . S
C874 H862 0.950 . S
C874 C873 1.398 . S
C874 C875 1.391 . S
C875 H863 0.950 . S
C875 C871 1.393 . S
C875 C874 1.391 . S
H876 C884 0.950 . S
H877 C889 0.950 . S
H878 C886 0.950 . S
H879 C888 0.950 . S
H880 C890 0.950 . S
H881 C892 0.950 . S
H882 C894 0.950 . S
H883 C895 0.950 . S
C884 H876 0.950 . S
C884 C885 1.386 . S
C884 C886 1.391 . S
C885 C884 1.386 . S
C885 C889 1.393 . S
C886 H878 0.950 . S
C886 C884 1.391 . S
C886 C887 1.400 . S
C887 C886 1.400 . S
C887 C888 1.398 . S
C887 C893 1.491 . S
C888 H879 0.950 . S
C888 C887 1.398 . S
C888 C889 1.391 . S
C889 H877 0.950 . S
C889 C885 1.393 . S
C889 C888 1.391 . S
C890 H880 0.950 . S
C890 C891 1.386 . S
C890 C892 1.391 . S
C891 C890 1.386 . S
C891 C895 1.393 . S
C892 H881 0.950 . S
C892 C890 1.391 . S
C892 C893 1.400 . S
C893 C887 1.491 . S
C893 C892 1.400 . S
C893 C894 1.398 . S
C894 H882 0.950 . S
C894 C893 1.398 . S
C894 C895 1.391 . S
C895 H883 0.950 . S
C895 C891 1.393 . S
C895 C894 1.391 . S
H896 C904 0.950 . S
H897 C909 0.950 . S
H898 C906 0.950 . S
H899 C908 0.950 . S
H900 C910 0.950 . S
H901 C912 0.950 . S
H902 C914 0.950 . S
H903 C915 0.950 . S
C904 H896 0.950 . S
C904 C905 1.386 . S
C904 C906 1.391 1_556 S
C905 C904 1.386 . S
C905 C909 1.393 . S
C906 H898 0.950 . S
C906 C904 1.391 1_554 S
C906 C907 1.400 . S
C907 C906 1.400 . S
C907 C908 1.398 . S
C907 C913 1.491 . S
C908 H899 0.950 . S
C908 C907 1.398 . S
C908 C909 1.391 1_554 S
C909 H897 0.950 . S
C909 C905 1.393 . S
C909 C908 1.391 1_556 S
C910 H900 0.950 . S
C910 C911 1.386 . S
C910 C912 1.391 . S
C911 C910 1.386 . S
C911 C915 1.393 . S
C912 H901 0.950 . S
C912 C910 1.391 . S
C912 C913 1.400 . S
C913 C907 1.491 . S
C913 C912 1.400 . S
C913 C914 1.398 . S
C914 H902 0.950 . S
C914 C913 1.398 . S
C914 C915 1.391 . S
C915 H903 0.950 . S
C915 C911 1.393 . S
C915 C914 1.391 . S
H916 C924 0.950 . S
H917 C929 0.950 . S
H918 C926 0.950 . S
H919 C928 0.950 . S
H920 C930 0.950 . S
H921 C932 0.950 . S
H922 C934 0.950 . S
H923 C935 0.950 . S
C924 H916 0.950 . S
C924 C925 1.386 . S
C924 C926 1.391 . S
C925 C924 1.386 . S
C925 C929 1.393 . S
C926 H918 0.950 . S
C926 C924 1.391 . S
C926 C927 1.400 . S
C927 C926 1.400 . S
C927 C928 1.398 . S
C927 C933 1.491 . S
C928 H919 0.950 . S
C928 C927 1.398 . S
C928 C929 1.391 . S
C929 H917 0.950 . S
C929 C925 1.393 . S
C929 C928 1.391 . S
C930 H920 0.950 . S
C930 C931 1.386 . S
C930 C932 1.391 . S
C931 C930 1.386 . S
C931 C935 1.393 . S
C932 H921 0.950 . S
C932 C930 1.391 . S
C932 C933 1.400 . S
C933 C927 1.491 . S
C933 C932 1.400 . S
C933 C934 1.398 . S
C934 H922 0.950 . S
C934 C933 1.398 . S
C934 C935 1.391 . S
C935 H923 0.950 . S
C935 C931 1.393 . S
C935 C934 1.391 . S
H936 C944 0.950 . S
H937 C949 0.950 . S
H938 C946 0.950 . S
H939 C948 0.950 . S
H940 C950 0.950 . S
H941 C952 0.950 . S
H942 C954 0.950 . S
H943 C955 0.950 . S
C944 H936 0.950 . S
C944 C945 1.386 . S
C944 C946 1.391 . S
C945 C944 1.386 . S
C945 C949 1.393 . S
C946 H938 0.950 . S
C946 C944 1.391 . S
C946 C947 1.400 . S
C947 C946 1.400 . S
C947 C948 1.398 . S
C947 C953 1.491 . S
C948 H939 0.950 . S
C948 C947 1.398 . S
C948 C949 1.391 . S
C949 H937 0.950 . S
C949 C945 1.393 . S
C949 C948 1.391 . S
C950 H940 0.950 . S
C950 C951 1.386 . S
C950 C952 1.391 . S
C951 C950 1.386 . S
C951 C955 1.393 . S
C952 H941 0.950 . S
C952 C950 1.391 . S
C952 C953 1.400 . S
C953 C947 1.491 . S
C953 C952 1.400 . S
C953 C954 1.398 . S
C954 H942 0.950 . S
C954 C953 1.398 . S
C954 C955 1.391 . S
C955 H943 0.950 . S
C955 C951 1.393 . S
C955 C954 1.391 . S
H956 C964 0.950 . S
H957 C969 0.950 . S
H958 C966 0.950 . S
H959 C968 0.950 . S
H960 C970 0.950 . S
H961 C972 0.950 . S
H962 C974 0.950 . S
H963 C975 0.950 . S
C964 H956 0.950 . S
C964 C965 1.386 . S
C964 C966 1.391 . S
C965 C964 1.386 . S
C965 C969 1.393 . S
C966 H958 0.950 . S
C966 C964 1.391 . S
C966 C967 1.400 . S
C967 C966 1.400 . S
C967 C968 1.398 . S
C967 C973 1.491 . S
C968 H959 0.950 . S
C968 C967 1.398 . S
C968 C969 1.391 . S
C969 H957 0.950 . S
C969 C965 1.393 . S
C969 C968 1.391 . S
C970 H960 0.950 . S
C970 C971 1.386 . S
C970 C972 1.391 . S
C971 C970 1.386 . S
C971 C975 1.393 . S
C972 H961 0.950 . S
C972 C970 1.391 . S
C972 C973 1.400 . S
C973 C967 1.491 . S
C973 C972 1.400 . S
C973 C974 1.398 . S
C974 H962 0.950 . S
C974 C973 1.398 . S
C974 C975 1.391 . S
C975 H963 0.950 . S
C975 C971 1.393 . S
C975 C974 1.391 . S
H976 C984 0.950 . S
H977 C989 0.950 . S
H978 C986 0.950 . S
H979 C988 0.950 . S
H980 C990 0.950 . S
H981 C992 0.950 . S
H982 C994 0.950 . S
H983 C995 0.950 . S
C984 H976 0.950 . S
C984 C985 1.386 . S
C984 C986 1.391 . S
C985 C984 1.386 . S
C985 C989 1.393 . S
C986 H978 0.950 . S
C986 C984 1.391 . S
C986 C987 1.400 . S
C987 C986 1.400 . S
C987 C988 1.398 . S
C987 C993 1.491 . S
C988 H979 0.950 . S
C988 C987 1.398 . S
C988 C989 1.391 . S
C989 H977 0.950 . S
C989 C985 1.393 . S
C989 C988 1.391 . S
C990 H980 0.950 . S
C990 C991 1.386 . S
C990 C992 1.391 . S
C991 C990 1.386 . S
C991 C995 1.393 . S
C992 H981 0.950 . S
C992 C990 1.391 . S
C992 C993 1.400 . S
C993 C987 1.491 . S
C993 C992 1.400 . S
C993 C994 1.398 . S
C994 H982 0.950 . S
C994 C993 1.398 . S
C994 C995 1.391 . S
C995 H983 0.950 . S
C995 C991 1.393 . S
C995 C994 1.391 . S
C405 N344 1.000 . S
C411 N14 1.001 . S
C425 N47 0.984 . S
C431 N377 0.982 . S
C445 N80 1.001 . S
C451 N212 0.999 . S
C465 N113 1.002 . S
C471 N245 1.004 . S
C485 N146 0.989 . S
C491 N278 0.987 1_556 S
C505 N179 1.001 1_554 S
C511 N311 0.999 . S
C525 C17 1.495 . S
C531 C281 1.487 . S
C545 C314 1.486 . S
C551 C50 1.496 . S
C565 C83 1.486 . S
C571 C347 1.497 . S
C585 C116 1.486 . S
C591 C380 1.497 . S
C605 C149 1.496 . S
C611 C215 1.488 . S
C625 C182 1.487 . S
C631 C248 1.494 . S
C645 N368 1.156 . S
C651 N5 1.177 . S
C665 N203 1.157 . S
C671 N38 1.147 . S
C685 N236 1.173 . S
C691 N71 1.153 . S
C705 N104 1.189 . S
C711 N269 1.185 . S
C725 N137 1.147 . S
C731 N302 1.159 . S
C745 N335 1.188 . S
C751 N170 1.172 . S
C765 C193 2.050 . S
C771 C8 2.058 . S
C785 C28 2.043 1_655 S
C791 C41 2.054 . S
C805 C74 2.053 . S
C811 C61 2.042 1_565 S
C825 C94 2.043 . S
C831 C107 2.054 . S
C845 C140 2.056 . S
C851 C127 2.045 1_455 S
C865 C173 2.053 . S
C871 C160 2.042 1_545 S
C885 C259 2.047 . S
C891 C206 2.056 . S
C905 C239 2.054 . S
C911 C292 2.042 1_655 S
C925 C272 2.057 . S
C931 C325 2.048 1_565 S
C945 C358 2.047 . S
C951 C305 2.057 . S
C965 C391 2.049 1_455 S
C971 C338 2.057 . S
C985 C371 2.055 . S
C991 C226 2.044 1_545 S
