# Generated by pormake.
# Topology rob, (6)-cn, num edge types: 1
# Building blocks:
#     Node 0, Type 0, BuildingBlock: BETFEN_clean_sbu_0, # of connection points: 6
#     Node 1, Type 0, BuildingBlock: BETFEN_clean_sbu_0, # of connection points: 6
#     Node 2, Type 0, BuildingBlock: BETFEN_clean_sbu_0, # of connection points: 6
#     Node 3, Type 0, BuildingBlock: BETFEN_clean_sbu_0, # of connection points: 6
#     Edge 4, Type (0, 0), BuildingBlock: ZUJKAS_clean_linker_0, # of connection points: 2
#     Edge 5, Type (0, 0), BuildingBlock: ZUJKAS_clean_linker_0, # of connection points: 2
#     Edge 6, Type (0, 0), BuildingBlock: ZUJKAS_clean_linker_0, # of connection points: 2
#     Edge 7, Type (0, 0), BuildingBlock: ZUJKAS_clean_linker_0, # of connection points: 2
#     Edge 8, Type (0, 0), BuildingBlock: ZUJKAS_clean_linker_0, # of connection points: 2
#     Edge 9, Type (0, 0), BuildingBlock: ZUJKAS_clean_linker_0, # of connection points: 2
#     Edge 10, Type (0, 0), BuildingBlock: ZUJKAS_clean_linker_0, # of connection points: 2
#     Edge 11, Type (0, 0), BuildingBlock: ZUJKAS_clean_linker_0, # of connection points: 2
#     Edge 12, Type (0, 0), BuildingBlock: ZUJKAS_clean_linker_0, # of connection points: 2
#     Edge 13, Type (0, 0), BuildingBlock: ZUJKAS_clean_linker_0, # of connection points: 2
#     Edge 14, Type (0, 0), BuildingBlock: ZUJKAS_clean_linker_0, # of connection points: 2
#     Edge 15, Type (0, 0), BuildingBlock: ZUJKAS_clean_linker_0, # of connection points: 2
# Relax obj value: 0.048
# Max RMSD: 0.154
# Mean RMSD: 0.154
data_MOF--net-rob--node1-BETFEN_clean_sbu_0--edge1-ZUJKAS_clean_linker_0
_symmetry_space_group_name_H-M    P1
_symmetry_Int_Tables_number       1
_symmetry_cell_setting            triclinic
loop_
_symmetry_equiv_pos_as_xyz
'x, y, z'
_cell_length_a     17.827849
_cell_length_b     33.408079
_cell_length_c     45.838176
_cell_angle_alpha  95.388614
_cell_angle_beta   90.059022
_cell_angle_gamma 89.93255
loop_
_atom_site_label
_atom_site_type_symbol
_atom_site_fract_x
_atom_site_fract_y
_atom_site_fract_z
_atom_type_partial_charge
Pr0 Pr 0.15724 0.27712 0.02039 0.0
Pr1 Pr 0.32359 0.25428 0.9931 0.0
C2 C 0.03326 0.27968 0.05382 0.0
C3 C 0.01948 0.28186 0.08569 0.0
C4 C 0.05613 0.31047 0.10519 0.0
C5 C 0.0454 0.31076 0.13542 0.0
C6 C 0.99866 0.28214 0.14676 0.0
C7 C 0.96213 0.25355 0.12723 0.0
C8 C 0.97225 0.25353 0.09699 0.0
C9 C 0.25269 0.34089 0.01181 0.0
C10 C 0.30358 0.25511 0.06444 0.0
C11 C 0.45039 0.26363 0.96304 0.0
C12 C 0.46695 0.26214 0.93129 0.0
C13 C 0.52035 0.235 0.9185 0.0
C14 C 0.53388 0.23248 0.88826 0.0
C15 C 0.49451 0.25725 0.87029 0.0
C16 C 0.44134 0.28447 0.88318 0.0
C17 C 0.42765 0.28687 0.91327 0.0
C18 C 0.23072 0.18592 0.99167 0.0
C19 C 0.17519 0.27094 0.94951 0.0
O20 O 0.0624 0.246 0.04206 0.0
O21 O 0.06185 0.31159 0.04351 0.0
O22 O 0.27204 0.308 0.02113 0.0
O23 O 0.18041 0.34254 0.00782 0.0
O24 O 0.35291 0.25318 0.04271 0.0
O25 O 0.23088 0.26156 0.06057 0.0
O26 O 0.40901 0.29386 0.97391 0.0
O27 O 0.43307 0.2295 0.97338 0.0
O28 O 0.21533 0.22186 0.99994 0.0
O29 O 0.30069 0.18388 0.98356 0.0
O30 O 0.12635 0.26714 0.97081 0.0
O31 O 0.24863 0.27249 0.95411 0.0
H32 H 0.09385 0.33232 0.09715 0.0
H33 H 0.07487 0.33285 0.14997 0.0
H34 H 0.92528 0.23136 0.13536 0.0
H35 H 0.94383 0.23105 0.08239 0.0
H36 H 0.55128 0.21559 0.93187 0.0
H37 H 0.57566 0.21143 0.87899 0.0
H38 H 0.40925 0.30353 0.86991 0.0
H39 H 0.38557 0.3079 0.92231 0.0
Pr40 Pr 0.67248 0.77097 0.02194 0.0
Pr41 Pr 0.83547 0.74668 0.993 0.0
C42 C 0.54456 0.76227 0.05154 0.0
C43 C 0.523 0.7695 0.08254 0.0
C44 C 0.56654 0.79459 0.10214 0.0
C45 C 0.55106 0.79769 0.13218 0.0
C46 C 0.49226 0.77541 0.14317 0.0
C47 C 0.44808 0.75083 0.12333 0.0
C48 C 0.46338 0.74791 0.09328 0.0
C49 C 0.76474 0.83924 0.02169 0.0
C50 C 0.82288 0.75438 0.06438 0.0
C51 C 0.95919 0.73957 0.95922 0.0
C52 C 0.97713 0.74435 0.92836 0.0
C53 C 0.02999 0.7188 0.91365 0.0
C54 C 0.04423 0.72109 0.88386 0.0
C55 C 0.00565 0.74896 0.86814 0.0
C56 C 0.95301 0.77477 0.88308 0.0
C57 C 0.93894 0.7725 0.91292 0.0
C58 C 0.73943 0.68406 1.00404 0.0
C59 C 0.68904 0.7717 0.95074 0.0
O60 O 0.59309 0.73311 0.04591 0.0
O61 O 0.55848 0.79401 0.03756 0.0
O62 O 0.78015 0.80339 0.01302 0.0
O63 O 0.69603 0.84112 0.03133 0.0
O64 O 0.87028 0.75573 0.04227 0.0
O65 O 0.7491 0.75475 0.06086 0.0
O66 O 0.9428 0.77226 0.97607 0.0
O67 O 0.91582 0.70917 0.9636 0.0
O68 O 0.72039 0.71642 0.99393 0.0
O69 O 0.81167 0.68251 0.00804 0.0
O70 O 0.64079 0.77092 0.97262 0.0
O71 O 0.76238 0.76695 0.95408 0.0
H72 H 0.61381 0.81089 0.09429 0.0
H73 H 0.5867 0.81647 0.1469 0.0
H74 H 0.40197 0.7336 0.13108 0.0
H75 H 0.42981 0.72802 0.07851 0.0
H76 H 0.05947 0.69661 0.92512 0.0
H77 H 0.0843 0.70036 0.87299 0.0
H78 H 0.9229 0.79688 0.87177 0.0
H79 H 0.89773 0.79248 0.92385 0.0
Pr80 Pr 0.17788 0.76047 0.49276 0.0
Pr81 Pr 0.34394 0.78215 0.521 0.0
C82 C 0.05199 0.76943 0.46193 0.0
C83 C 0.03748 0.76628 0.43002 0.0
C84 C 0.97624 0.74412 0.41801 0.0
C85 C 0.96455 0.73986 0.38763 0.0
C86 C 0.01412 0.7576 0.36867 0.0
C87 C 0.07517 0.77991 0.38087 0.0
C88 C 0.08667 0.78417 0.41112 0.0
C89 C 0.27061 0.69184 0.49088 0.0
C90 C 0.3274 0.77883 0.45043 0.0
C91 C 0.46693 0.78564 0.5551 0.0
C92 C 0.48045 0.78364 0.58683 0.0
C93 C 0.50095 0.81857 0.60448 0.0
C94 C 0.50922 0.81788 0.63475 0.0
C95 C 0.49791 0.78212 0.64802 0.0
C96 C 0.47882 0.74695 0.63031 0.0
C97 C 0.46996 0.7477 0.60005 0.0
C98 C 0.24881 0.84621 0.51234 0.0
C99 C 0.19728 0.75809 0.56381 0.0
O100 O 0.09386 0.79976 0.47225 0.0
O101 O 0.06808 0.73584 0.4733 0.0
O102 O 0.28588 0.72763 0.4995 0.0
O103 O 0.20092 0.69011 0.48241 0.0
O104 O 0.37593 0.77322 0.47153 0.0
O105 O 0.25397 0.7809 0.45488 0.0
O106 O 0.44501 0.7526 0.53983 0.0
O107 O 0.43203 0.81775 0.54782 0.0
O108 O 0.22931 0.81336 0.5216 0.0
O109 O 0.32103 0.84754 0.5082 0.0
O110 O 0.14781 0.75899 0.54224 0.0
O111 O 0.27046 0.76281 0.56001 0.0
H112 H 0.93787 0.72982 0.43211 0.0
H113 H 0.91738 0.72212 0.37896 0.0
H114 H 0.1138 0.79455 0.36706 0.0
H115 H 0.13431 0.80149 0.41971 0.0
H116 H 0.50972 0.84663 0.59489 0.0
H117 H 0.52502 0.84532 0.64777 0.0
H118 H 0.46928 0.71901 0.63994 0.0
H119 H 0.45391 0.72022 0.58714 0.0
Pr120 Pr 0.66399 0.25124 0.4942 0.0
Pr121 Pr 0.82816 0.27647 0.5219 0.0
C122 C 0.53985 0.24285 0.46065 0.0
C123 C 0.52156 0.24754 0.42981 0.0
C124 C 0.46861 0.22202 0.41516 0.0
C125 C 0.45476 0.22392 0.38528 0.0
C126 C 0.494 0.25131 0.36942 0.0
C127 C 0.54664 0.27715 0.38431 0.0
C128 C 0.56013 0.27533 0.41424 0.0
C129 C 0.76055 0.18908 0.5058 0.0
C130 C 0.80875 0.27547 0.45087 0.0
C131 C 0.95557 0.26874 0.55209 0.0
C132 C 0.97411 0.27666 0.58336 0.0
C133 C 0.92514 0.29936 0.60233 0.0
C134 C 0.93715 0.30249 0.63261 0.0
C135 C 0.99831 0.28286 0.64452 0.0
C136 C 0.04818 0.26089 0.62528 0.0
C137 C 0.036 0.25774 0.59498 0.0
C138 C 0.73535 0.34445 0.52081 0.0
C139 C 0.67913 0.26136 0.56548 0.0
O140 O 0.55501 0.27565 0.47759 0.0
O141 O 0.58471 0.21295 0.4649 0.0
O142 O 0.77943 0.22105 0.49512 0.0
O143 O 0.68845 0.18772 0.5101 0.0
O144 O 0.85826 0.27453 0.47235 0.0
O145 O 0.7355 0.27137 0.45484 0.0
O146 O 0.90822 0.23914 0.54612 0.0
O147 O 0.94159 0.30015 0.53772 0.0
O148 O 0.71994 0.30838 0.51289 0.0
O149 O 0.80456 0.34676 0.52991 0.0
O150 O 0.63063 0.261 0.54356 0.0
O151 O 0.7527 0.26243 0.56163 0.0
H152 H 0.43885 0.20008 0.42673 0.0
H153 H 0.41459 0.20324 0.37445 0.0
H154 H 0.5772 0.29889 0.37286 0.0
H155 H 0.60125 0.29533 0.42516 0.0
H156 H 0.87649 0.31382 0.59375 0.0
H157 H 0.89815 0.32003 0.6467 0.0
H158 H 0.09523 0.24494 0.63368 0.0
H159 H 0.07362 0.23952 0.5807 0.0
H160 H 0.7727 0.61101 0.02295 0.0
H161 H 0.68943 0.55284 0.02417 0.0
H162 H 0.50695 0.62152 0.99221 0.0
H163 H 0.59017 0.67958 0.99056 0.0
H164 H 0.55421 0.54431 0.05423 0.0
H165 H 0.51158 0.52079 0.93384 0.0
H166 H 0.58481 0.55264 0.95034 0.0
H167 H 0.48979 0.57061 0.94978 0.0
C168 C 0.71478 0.61372 0.01624 0.0
C169 C 0.68805 0.64975 1.00649 0.0
C170 C 0.66727 0.58047 0.01695 0.0
C171 C 0.5923 0.58257 0.00778 0.0
C172 C 0.56498 0.61891 0.99879 0.0
H173 H 0.21991 0.41391 0.99283 0.0
H174 H 0.30291 0.47226 0.99218 0.0
C175 C 0.61245 0.65216 0.99806 0.0
C176 C 0.54279 0.54675 0.00769 0.0
H177 H 0.43757 0.48112 0.96296 0.0
C178 C 0.52892 0.53038 0.03427 0.0
C179 C 0.50981 0.52861 0.98162 0.0
C180 C 0.52512 0.54376 0.95221 0.0
C181 C 0.48186 0.49684 0.03559 0.0
C182 C 0.44889 0.47868 0.00951 0.0
C183 C 0.4628 0.49505 0.98293 0.0
C184 C 0.39937 0.44284 0.00937 0.0
C185 C 0.46644 0.48178 0.06501 0.0
C186 C 0.42634 0.40662 0.0187 0.0
C187 C 0.37897 0.37329 0.01915 0.0
C188 C 0.30388 0.37544 0.01002 0.0
C189 C 0.27745 0.41139 1.00006 0.0
C190 C 0.32482 0.44473 0.99965 0.0
H191 H 0.47935 0.50493 0.08334 0.0
H192 H 0.4069 0.47258 0.0668 0.0
H193 H 0.50228 0.45517 0.06762 0.0
H194 H 0.48407 0.40414 0.02569 0.0
H195 H 0.40096 0.34597 0.02693 0.0
H196 H 0.23138 0.61296 0.48259 0.0
H197 H 0.31063 0.5541 0.48775 0.0
H198 H 0.49973 0.6318 0.5091 0.0
H199 H 0.42046 0.69077 0.50378 0.0
H200 H 0.44257 0.52943 0.45777 0.0
H201 H 0.49453 0.56016 0.57726 0.0
H202 H 0.42126 0.58501 0.55856 0.0
H203 H 0.51702 0.60098 0.55595 0.0
C204 C 0.28984 0.6175 0.48843 0.0
C205 C 0.31955 0.65651 0.49334 0.0
C206 C 0.33504 0.58384 0.49137 0.0
C207 C 0.41077 0.58852 0.49935 0.0
C208 C 0.441 0.62747 0.50363 0.0
H209 H 0.77233 0.42349 0.53045 0.0
H210 H 0.69288 0.48198 0.52456 0.0
C211 C 0.39574 0.66116 0.50065 0.0
C212 C 0.45809 0.55256 0.50279 0.0
H213 H 0.5622 0.50621 0.55248 0.0
C214 C 0.46855 0.52425 0.4785 0.0
C215 C 0.49193 0.54585 0.52985 0.0
C216 C 0.48028 0.57437 0.557 0.0
C217 C 0.51311 0.4898 0.48036 0.0
C218 C 0.54689 0.48305 0.50744 0.0
C219 C 0.5363 0.51137 0.53174 0.0
C220 C 0.59453 0.44718 0.51094 0.0
C221 C 0.52514 0.46153 0.4531 0.0
C222 C 0.56548 0.40805 0.50567 0.0
C223 C 0.611 0.37453 0.50896 0.0
C224 C 0.68615 0.37953 0.51774 0.0
C225 C 0.71467 0.41868 0.52353 0.0
C226 C 0.66931 0.45214 0.52019 0.0
H227 H 0.51242 0.4762 0.43289 0.0
H228 H 0.58382 0.45032 0.45183 0.0
H229 H 0.48727 0.43528 0.45366 0.0
H230 H 0.50745 0.40343 0.49924 0.0
H231 H 0.58728 0.34478 0.50484 0.0
H232 H 0.08067 0.18505 1.00452 0.0
H233 H 0.00181 0.12622 0.0106 0.0
H234 H 0.19053 0.04829 0.9887 0.0
H235 H 0.26974 0.10696 0.98363 0.0
H236 H 0.96473 0.06205 0.97133 0.0
H237 H 0.12045 1.00794 0.06476 0.0
H238 H 0.13463 0.05736 0.05286 0.0
H239 H 0.17866 1.01416 0.0336 0.0
C240 C 0.10545 0.15542 1.00153 0.0
C241 C 0.18166 0.15067 0.99428 0.0
C242 C 0.06029 0.12178 1.00476 0.0
C243 C 0.0906 0.08278 1.00079 0.0
C244 C 0.16628 0.07803 0.99271 0.0
H245 H 0.9122 0.84039 1.00502 0.0
H246 H 0.9906 0.89953 0.9993 0.0
C247 C 0.21138 0.11162 0.98958 0.0
C248 C 0.04288 0.04701 1.00444 0.0
H249 H 0.02899 0.96355 0.04199 0.0
C250 C 0.97854 0.04066 0.98691 0.0
C251 C 0.06089 0.01899 0.02475 0.0
C252 C 0.12699 0.02507 0.04528 0.0
C253 C 0.93268 1.00674 0.98871 0.0
C254 C 0.951 0.97864 0.00888 0.0
C255 C 0.01521 0.98499 0.02644 0.0
C256 C 0.90361 0.94276 0.01237 0.0
C257 C 0.86583 1.00081 0.96856 0.0
C258 C 0.82916 0.94734 0.02207 0.0
C259 C 0.78448 0.91362 0.02527 0.0
C260 C 0.81335 0.87461 0.01889 0.0
C261 C 0.88824 0.87002 0.00968 0.0
C262 C 0.93308 0.90379 1.00654 0.0
H263 H 0.87025 0.01911 0.94961 0.0
H264 H 0.85965 0.9687 0.96018 0.0
H265 H 0.81421 1.01018 0.98089 0.0
H266 H 0.80565 0.97706 0.0273 0.0
H267 H 0.7271 0.91814 0.03262 0.0
H268 H 0.90934 0.18385 0.49173 0.0
H269 H 0.99191 0.12534 0.49318 0.0
H270 H 0.81038 0.05845 0.5273 0.0
H271 H 0.72741 0.11672 0.52568 0.0
H272 H 0.03384 0.08169 0.54026 0.0
H273 H 0.87866 0.98554 0.45516 0.0
H274 H 0.86418 0.03917 0.46123 0.0
H275 H 0.822 1.00615 0.4853 0.0
C276 C 0.88715 0.15672 0.49966 0.0
C277 C 0.81181 0.15474 0.50843 0.0
C278 C 0.93435 0.12332 0.50045 0.0
C279 C 0.90694 0.08729 0.50983 0.0
C280 C 0.83227 0.08565 0.51938 0.0
H281 H 0.10043 0.85152 0.52706 0.0
H282 H 0.01815 0.91028 0.52647 0.0
C283 C 0.78507 0.11903 0.51861 0.0
C284 C 0.95646 0.05145 0.5096 0.0
H285 H 0.97614 0.95425 0.47994 0.0
C286 C 0.02144 0.05387 0.52699 0.0
C287 C 0.94012 1.01516 0.49228 0.0
C288 C 0.87284 1.01127 0.47222 0.0
C289 C 0.06984 0.02077 0.52794 0.0
C290 C 0.05353 0.98448 0.5106 0.0
C291 C 0.98852 0.98206 0.49323 0.0
C292 C 0.10317 0.94867 0.51023 0.0
C293 C 0.13711 0.02465 0.54801 0.0
C294 C 0.17783 0.95045 0.50069 0.0
C295 C 0.22485 0.91692 0.50095 0.0
C296 C 0.19793 0.88091 0.51059 0.0
C297 C 0.12271 0.87887 0.51949 0.0
C298 C 0.0757 0.91241 0.51921 0.0
H299 H 0.13103 0.05022 0.56518 0.0
H300 H 0.14608 0.99666 0.55886 0.0
H301 H 0.18787 0.03005 0.53496 0.0
H302 H 0.19978 0.97783 0.49306 0.0
H303 H 0.28244 0.91929 0.49381 0.0
H304 H 0.35948 0.24681 0.34049 0.0
H305 H 0.3371 0.24717 0.28789 0.0
H306 H 0.57439 0.26023 0.27339 0.0
H307 H 0.59759 0.2588 0.32598 0.0
H308 H 0.37358 0.3079 0.25173 0.0
H309 H 0.51681 0.16398 0.21497 0.0
H310 H 0.49114 0.17739 0.25272 0.0
H311 H 0.5718 0.19988 0.23746 0.0
C312 C 0.40705 0.24931 0.32611 0.0
C313 C 0.48036 0.25255 0.33746 0.0
C314 C 0.39411 0.24975 0.29606 0.0
C315 C 0.45413 0.25317 0.27668 0.0
C316 C 0.52736 0.25688 0.2879 0.0
H317 H 0.44869 0.25508 0.08515 0.0
H318 H 0.4894 0.2556 0.13634 0.0
C319 C 0.5404 0.25653 0.318 0.0
C320 C 0.43926 0.25375 0.24485 0.0
H321 H 0.46729 0.20124 0.17808 0.0
C322 C 0.39419 0.28463 0.23561 0.0
C323 C 0.46672 0.22352 0.22384 0.0
C324 C 0.51386 0.18909 0.23264 0.0
C325 C 0.37535 0.28601 0.20599 0.0
C326 C 0.40093 0.25515 0.18506 0.0
C327 C 0.44758 0.22478 0.19416 0.0
C328 C 0.37705 0.25308 0.15389 0.0
C329 C 0.32858 0.32072 0.19738 0.0
C330 C 0.30063 0.2503 0.14671 0.0
C331 C 0.27724 0.25014 0.11763 0.0
C332 C 0.32985 0.25226 0.09494 0.0
C333 C 0.40669 0.25348 0.10204 0.0
C334 C 0.43005 0.25383 0.13129 0.0
H335 H 0.33325 0.34731 0.21377 0.0
H336 H 0.34557 0.32972 0.17563 0.0
H337 H 0.26874 0.3116 0.19617 0.0
H338 H 0.25881 0.24858 0.16367 0.0
H339 H 0.21762 0.24872 0.11306 0.0
H340 H 0.46359 0.71237 0.17543 0.0
H341 H 0.4412 0.71439 0.22817 0.0
H342 H 0.46854 0.8432 0.23637 0.0
H343 H 0.49136 0.84139 0.18354 0.0
H344 H 0.54427 0.80658 0.27948 0.0
H345 H 0.24984 0.75327 0.27034 0.0
H346 H 0.31543 0.72017 0.25058 0.0
H347 H 0.30059 0.76989 0.23966 0.0
C348 C 0.46401 0.74119 0.1884 0.0
C349 C 0.47852 0.77678 0.17525 0.0
C350 C 0.45127 0.74229 0.21854 0.0
C351 C 0.45197 0.77901 0.23613 0.0
C352 C 0.46754 0.81454 0.22318 0.0
H353 H 0.25982 0.81927 0.40896 0.0
H354 H 0.29516 0.82059 0.35774 0.0
C355 C 0.48067 0.81345 0.19302 0.0
C356 C 0.4367 0.78033 0.26805 0.0
H357 H 0.30474 0.75714 0.31764 0.0
C358 C 0.49186 0.79588 0.28788 0.0
C359 C 0.36791 0.76681 0.27893 0.0
C360 C 0.30471 0.75196 0.2588 0.0
C361 C 0.48034 0.79791 0.31833 0.0
C362 C 0.4124 0.78328 0.3292 0.0
C363 C 0.35713 0.76801 0.30931 0.0
C364 C 0.39558 0.78483 0.36103 0.0
C365 C 0.54023 0.81657 0.33852 0.0
C366 C 0.44082 0.76471 0.38016 0.0
C367 C 0.42068 0.76403 0.40968 0.0
C368 C 0.35436 0.78289 0.42034 0.0
C369 C 0.31045 0.8038 0.40129 0.0
C370 C 0.33078 0.80474 0.372 0.0
H371 H 0.57899 0.8357 0.3269 0.0
H372 H 0.51502 0.83516 0.35736 0.0
H373 H 0.57387 0.79237 0.34721 0.0
H374 H 0.49034 0.74848 0.37208 0.0
H375 H 0.45528 0.74744 0.42381 0.0
H376 H 0.77097 0.77895 0.90113 0.0
H377 H 0.72502 0.78425 0.85163 0.0
H378 H 0.49694 0.7807 0.88246 0.0
H379 H 0.54248 0.77507 0.93239 0.0
H380 H 0.52589 0.72783 0.83214 0.0
H381 H 0.62734 0.88156 0.81825 0.0
H382 H 0.69907 0.8493 0.83054 0.0
H383 H 0.61966 0.86241 0.85368 0.0
C384 C 0.71099 0.77962 0.8976 0.0
C385 C 0.66048 0.77673 0.92088 0.0
C386 C 0.68482 0.78286 0.86921 0.0
C387 C 0.60761 0.78346 0.86345 0.0
C388 C 0.55681 0.78057 0.88653 0.0
H389 H 0.44409 0.83674 0.69115 0.0
H390 H 0.46179 0.83693 0.74417 0.0
C391 C 0.58298 0.77745 0.91505 0.0
C392 C 0.58057 0.78537 0.83303 0.0
H393 H 0.59346 0.84093 0.77445 0.0
C394 C 0.53984 0.75275 0.81959 0.0
C395 C 0.59791 0.81816 0.81684 0.0
C396 C 0.63775 0.85504 0.83062 0.0
C397 C 0.51872 0.75128 0.78998 0.0
C398 C 0.54003 0.78299 0.77332 0.0
C399 C 0.57793 0.81639 0.78713 0.0
C400 C 0.52582 0.78163 0.74134 0.0
C401 C 0.4739 0.71577 0.77683 0.0
C402 C 0.55622 0.75059 0.72214 0.0
C403 C 0.54616 0.7504 0.69188 0.0
C404 C 0.50631 0.78155 0.68021 0.0
C405 C 0.47576 0.81256 0.69948 0.0
C406 C 0.48551 0.81262 0.72976 0.0
H407 H 0.44308 0.70098 0.79393 0.0
H408 H 0.43296 0.72491 0.76042 0.0
H409 H 0.51261 0.69323 0.76569 0.0
H410 H 0.58921 0.72694 0.73052 0.0
H411 H 0.57127 0.72643 0.67757 0.0
H412 H 0.75494 0.28408 0.6158 0.0
H413 H 0.71472 0.27932 0.66602 0.0
H414 H 0.50251 0.2301 0.63491 0.0
H415 H 0.54186 0.23601 0.58414 0.0
H416 H 0.48339 0.28384 0.68146 0.0
H417 H 0.70871 0.17892 0.70706 0.0
H418 H 0.74669 0.22388 0.69453 0.0
H419 H 0.69005 0.19089 0.67018 0.0
C420 C 0.69968 0.27215 0.61952 0.0
C421 C 0.65188 0.25998 0.5959 0.0
C422 C 0.67695 0.26919 0.64833 0.0
C423 C 0.60649 0.2532 0.65428 0.0
C424 C 0.55754 0.24209 0.63083 0.0
H425 H 0.51055 0.18975 0.83191 0.0
H426 H 0.53092 0.18631 0.77886 0.0
C427 C 0.57998 0.24554 0.60185 0.0
C428 C 0.58409 0.24895 0.68507 0.0
H429 H 0.64513 0.2132 0.74836 0.0
C430 C 0.51828 0.26798 0.696 0.0
C431 C 0.62875 0.22758 0.70398 0.0
C432 C 0.697 0.20381 0.69324 0.0
C433 C 0.49773 0.26774 0.72558 0.0
C434 C 0.54527 0.24879 0.7449 0.0
C435 C 0.60927 0.22826 0.73369 0.0
C436 C 0.531 0.25081 0.77695 0.0
C437 C 0.42514 0.28767 0.73576 0.0
C438 C 0.52557 0.28817 0.79361 0.0
C439 C 0.51388 0.29019 0.82386 0.0
C440 C 0.50836 0.25488 0.83818 0.0
C441 C 0.51512 0.21748 0.82155 0.0
C442 C 0.52634 0.21548 0.79123 0.0
H443 H 0.38481 0.28879 0.71735 0.0
H444 H 0.39834 0.27168 0.75318 0.0
H445 H 0.43672 0.31907 0.74472 0.0
H446 H 0.53136 0.31585 0.78329 0.0
H447 H 0.51026 0.31947 0.83611 0.0
H448 H 0.96962 0.74806 0.08259 0.0
H449 H 0.01469 0.7434 0.13282 0.0
H450 H 0.78702 0.75173 0.16447 0.0
H451 H 0.74157 0.75587 0.11486 0.0
H452 H 0.99684 0.79746 0.18275 0.0
H453 H 0.86391 0.6518 0.19933 0.0
H454 H 0.8743 0.66951 0.16354 0.0
H455 H 0.79811 0.68728 0.18707 0.0
C456 C 0.92918 0.74872 0.10024 0.0
C457 C 0.85191 0.75197 0.09455 0.0
C458 C 0.95503 0.74605 0.12891 0.0
C459 C 0.90406 0.74634 0.1523 0.0
C460 C 0.82724 0.75034 0.1467 0.0
H461 H 0.88125 0.76048 0.33881 0.0
H462 H 0.86219 0.75562 0.28577 0.0
C463 C 0.80141 0.75294 0.11821 0.0
C464 C 0.93029 0.74376 0.18282 0.0
H465 H 0.90176 0.69239 0.24285 0.0
C466 C 0.97713 0.77416 0.19581 0.0
C467 C 0.90473 0.71321 0.19977 0.0
C468 C 0.85812 0.67838 0.18663 0.0
C469 C 0.99574 0.77604 0.22573 0.0
C470 C 0.96732 0.74646 0.24295 0.0
C471 C 0.92287 0.71524 0.22967 0.0
C472 C 0.97989 0.74841 0.27506 0.0
C473 C 0.04292 0.81059 0.23896 0.0
C474 C 0.0523 0.74526 0.28663 0.0
C475 C 0.06338 0.74782 0.31698 0.0
C476 C 0.00214 0.75338 0.33636 0.0
C477 C 0.92954 0.75576 0.32459 0.0
C478 C 0.91858 0.75321 0.29427 0.0
H479 H 0.04749 0.83502 0.22421 0.0
H480 H 0.01908 0.82329 0.26022 0.0
H481 H 0.10033 0.79956 0.24312 0.0
H482 H 0.10023 0.74068 0.2722 0.0
H483 H 0.11992 0.74513 0.32525 0.0
H484 H 0.72685 0.29662 0.4044 0.0
H485 H 0.7675 0.29834 0.35383 0.0
H486 H 0.99118 0.26454 0.37785 0.0
H487 H 0.9511 0.26357 0.42893 0.0
H488 H 0.99305 0.32231 0.33988 0.0
H489 H 0.80208 0.19941 0.29813 0.0
H490 H 0.75279 0.24062 0.31734 0.0
H491 H 0.81864 0.2119 0.33673 0.0
C492 C 0.78472 0.28955 0.39903 0.0
C493 C 0.83547 0.27945 0.42068 0.0
C494 C 0.80782 0.29039 0.37001 0.0
C495 C 0.88188 0.28052 0.36188 0.0
C496 C 0.93354 0.27189 0.3836 0.0
H497 H 0.00421 0.21774 0.17924 0.0
H498 H 0.98326 0.21722 0.23198 0.0
C499 C 0.91058 0.2714 0.41278 0.0
C500 C 0.90488 0.27894 0.33068 0.0
H501 H 0.85939 0.23669 0.26225 0.0
C502 C 0.96425 0.30338 0.3229 0.0
C503 C 0.86814 0.25368 0.30859 0.0
C504 C 0.80742 0.22462 0.31562 0.0
C505 C 0.98644 0.30412 0.29354 0.0
C506 C 0.94705 0.28042 0.27133 0.0
C507 C 0.88906 0.25519 0.27923 0.0
C508 C 0.96432 0.28137 0.2397 0.0
C509 C 0.05243 0.32988 0.2867 0.0
C510 C 0.96051 0.31756 0.22645 0.0
C511 C 0.97295 0.31794 0.19636 0.0
C512 C 0.9881 0.28201 0.17886 0.0
C513 C 0.9919 0.24582 0.19215 0.0
C514 C 0.98024 0.24552 0.22227 0.0
H515 H 0.08992 0.33581 0.306 0.0
H516 H 0.08582 0.31548 0.26814 0.0
H517 H 0.03165 0.35928 0.2806 0.0
H518 H 0.94625 0.34542 0.23925 0.0
H519 H 0.9687 0.34618 0.18663 0.0
H520 H 0.12988 0.29062 0.67554 0.0
H521 H 0.14746 0.29028 0.72841 0.0
H522 H 0.90851 0.27945 0.73982 0.0
H523 H 0.89056 0.27823 0.68683 0.0
H524 H 0.09131 0.34277 0.77372 0.0
H525 H 0.98954 0.18723 0.78304 0.0
H526 H 0.01182 0.20547 0.74825 0.0
H527 H 0.92499 0.2195 0.7663 0.0
C528 C 0.08108 0.28772 0.68923 0.0
C529 C 0.00886 0.28424 0.67685 0.0
C530 C 0.09118 0.28781 0.71948 0.0
C531 C 0.02943 0.28426 0.73804 0.0
C532 C 0.95711 0.28149 0.72588 0.0
H533 H 0.02956 0.27007 0.92908 0.0
H534 H 0.98755 0.27564 0.87856 0.0
C535 C 0.94691 0.28133 0.69559 0.0
C536 C 0.04127 0.28389 0.7701 0.0
H537 H 0.02416 0.22528 0.82698 0.0
C538 C 0.07636 0.31714 0.78537 0.0
C539 C 0.02121 0.25054 0.78534 0.0
C540 C 0.98534 0.21348 0.76993 0.0
C541 C 0.0929 0.31774 0.81536 0.0
C542 C 0.07498 0.28391 0.8304 0.0
C543 C 0.03778 0.25117 0.81539 0.0
C544 C 0.09942 0.28083 0.86107 0.0
C545 C 0.12965 0.3546 0.83068 0.0
C546 C 0.17612 0.28121 0.86784 0.0
C547 C 0.2002 0.27801 0.89649 0.0
C548 C 0.14815 0.27413 0.91914 0.0
C549 C 0.07116 0.27321 0.91225 0.0
C550 C 0.04705 0.27637 0.88341 0.0
H551 H 0.11918 0.38166 0.8189 0.0
H552 H 0.10908 0.36056 0.85354 0.0
H553 H 0.19119 0.34975 0.83139 0.0
H554 H 0.21761 0.28368 0.85085 0.0
H555 H 0.25992 0.27845 0.90076 0.0
H556 H 0.05252 0.76144 0.58482 0.0
H557 H 0.01227 0.76067 0.63595 0.0
H558 H 0.24176 0.74438 0.66221 0.0
H559 H 0.28256 0.74562 0.61164 0.0
H560 H 0.02978 0.70315 0.67644 0.0
H561 H 0.17802 0.84433 0.7142 0.0
H562 H 0.16298 0.82853 0.6759 0.0
H563 H 0.23828 0.80722 0.69559 0.0
C564 C 0.09435 0.75745 0.60146 0.0
C565 C 0.17086 0.75403 0.5941 0.0
C566 C 0.07125 0.75708 0.63066 0.0
C567 C 0.12424 0.75341 0.65296 0.0
C568 C 0.20012 0.74832 0.64548 0.0
H569 H 0.14049 0.7432 0.83946 0.0
H570 H 0.16368 0.74414 0.78699 0.0
C571 C 0.22325 0.74882 0.61644 0.0
C572 C 0.10091 0.75507 0.68414 0.0
H573 H 0.133 0.80521 0.75141 0.0
C574 C 0.05164 0.72568 0.69283 0.0
C575 C 0.12941 0.7846 0.70546 0.0
C576 C 0.17952 0.8182 0.69732 0.0
C577 C 0.03248 0.72405 0.72245 0.0
C578 C 0.06249 0.75301 0.74383 0.0
C579 C 0.11037 0.78292 0.73502 0.0
C580 C 0.04716 0.75211 0.7756 0.0
C581 C 0.9825 0.69051 0.73074 0.0
C582 C 0.974 0.75677 0.78671 0.0
C583 C 0.96045 0.75597 0.81673 0.0
C584 C 0.01992 0.7507 0.83626 0.0
C585 C 0.09324 0.74664 0.82503 0.0
C586 C 0.10668 0.74743 0.79506 0.0
H587 H 0.97853 0.66569 0.71289 0.0
H588 H 0.00341 0.67805 0.75085 0.0
H589 H 0.92516 0.70246 0.73524 0.0
H590 H 0.92738 0.76117 0.77218 0.0
H591 H 0.90324 0.75892 0.82458 0.0
loop_
_geom_bond_atom_site_label_1
_geom_bond_atom_site_label_2
_geom_bond_distance
_geom_bond_site_symmetry_2
_ccdc_geom_bond_type
Pr0 C2 2.880 . S
Pr0 O20 2.562 . S
Pr0 O21 2.490 . S
Pr0 O22 2.695 1_554 S
Pr0 O23 2.512 . S
Pr0 O25 2.437 . S
Pr0 O28 2.436 . S
Pr0 O30 2.438 1_554 S
Pr1 C11 2.880 . S
Pr1 O22 2.436 . S
Pr1 O24 2.438 1_556 S
Pr1 O26 2.562 . S
Pr1 O27 2.490 . S
Pr1 O28 2.695 1_556 S
Pr1 O29 2.512 . S
Pr1 O31 2.437 . S
C2 Pr0 2.880 . S
C2 C3 1.491 . S
C2 O20 1.254 . S
C2 O21 1.225 . S
C3 C2 1.491 . S
C3 C4 1.392 . S
C3 C8 1.356 . S
C4 C3 1.392 . S
C4 C5 1.368 . S
C4 H32 0.929 . S
C5 C4 1.368 . S
C5 C6 1.386 . S
C5 H33 0.929 . S
C6 C5 1.386 . S
C6 C7 1.373 . S
C7 C6 1.373 . S
C7 C8 1.409 . S
C7 H34 0.931 . S
C8 C3 1.356 . S
C8 C7 1.409 . S
C8 H35 0.930 . S
C9 O22 1.270 1_554 S
C9 O23 1.248 . S
C10 O24 1.267 . S
C10 O25 1.278 . S
C11 Pr1 2.880 . S
C11 C12 1.491 . S
C11 O26 1.254 . S
C11 O27 1.225 . S
C12 C11 1.491 . S
C12 C13 1.392 . S
C12 C17 1.356 . S
C13 C12 1.392 . S
C13 C14 1.368 . S
C13 H36 0.929 . S
C14 C13 1.368 . S
C14 C15 1.386 . S
C14 H37 0.929 . S
C15 C14 1.386 . S
C15 C16 1.373 . S
C16 C15 1.373 . S
C16 C17 1.409 . S
C16 H38 0.931 . S
C17 C12 1.356 . S
C17 C16 1.409 . S
C17 H39 0.930 . S
C18 O28 1.270 1_556 S
C18 O29 1.248 . S
C19 O30 1.267 . S
C19 O31 1.278 . S
O20 Pr0 2.562 . S
O20 C2 1.254 . S
O21 Pr0 2.490 . S
O21 C2 1.225 . S
O22 Pr0 2.695 1_556 S
O22 Pr1 2.436 . S
O22 C9 1.270 1_556 S
O23 Pr0 2.512 . S
O23 C9 1.248 . S
O24 Pr1 2.438 1_554 S
O24 C10 1.267 . S
O25 Pr0 2.437 . S
O25 C10 1.278 . S
O26 Pr1 2.562 . S
O26 C11 1.254 . S
O27 Pr1 2.490 . S
O27 C11 1.225 . S
O28 Pr0 2.436 . S
O28 Pr1 2.695 1_554 S
O28 C18 1.270 1_554 S
O29 Pr1 2.512 . S
O29 C18 1.248 . S
O30 Pr0 2.438 1_556 S
O30 C19 1.267 . S
O31 Pr1 2.437 . S
O31 C19 1.278 . S
H32 C4 0.929 . S
H33 C5 0.929 . S
H34 C7 0.931 . S
H35 C8 0.930 . S
H36 C13 0.929 . S
H37 C14 0.929 . S
H38 C16 0.931 . S
H39 C17 0.930 . S
Pr40 C42 2.880 . S
Pr40 O60 2.562 . S
Pr40 O61 2.490 . S
Pr40 O62 2.695 1_554 S
Pr40 O63 2.512 . S
Pr40 O65 2.437 . S
Pr40 O68 2.436 . S
Pr40 O70 2.438 1_554 S
Pr41 C51 2.880 . S
Pr41 O62 2.436 . S
Pr41 O64 2.438 1_556 S
Pr41 O66 2.562 . S
Pr41 O67 2.490 . S
Pr41 O68 2.695 1_556 S
Pr41 O69 2.512 . S
Pr41 O71 2.437 . S
C42 Pr40 2.880 . S
C42 C43 1.491 . S
C42 O60 1.254 . S
C42 O61 1.225 . S
C43 C42 1.491 . S
C43 C44 1.392 . S
C43 C48 1.356 . S
C44 C43 1.392 . S
C44 C45 1.368 . S
C44 H72 0.929 . S
C45 C44 1.368 . S
C45 C46 1.386 . S
C45 H73 0.929 . S
C46 C45 1.386 . S
C46 C47 1.373 . S
C47 C46 1.373 . S
C47 C48 1.409 . S
C47 H74 0.931 . S
C48 C43 1.356 . S
C48 C47 1.409 . S
C48 H75 0.930 . S
C49 O62 1.270 1_554 S
C49 O63 1.248 . S
C50 O64 1.267 . S
C50 O65 1.278 . S
C51 Pr41 2.880 . S
C51 C52 1.491 . S
C51 O66 1.254 . S
C51 O67 1.225 . S
C52 C51 1.491 . S
C52 C53 1.392 . S
C52 C57 1.356 . S
C53 C52 1.392 . S
C53 C54 1.368 . S
C53 H76 0.929 . S
C54 C53 1.368 . S
C54 C55 1.386 . S
C54 H77 0.929 . S
C55 C54 1.386 . S
C55 C56 1.373 . S
C56 C55 1.373 . S
C56 C57 1.409 . S
C56 H78 0.931 . S
C57 C52 1.356 . S
C57 C56 1.409 . S
C57 H79 0.930 . S
C58 O68 1.270 1_556 S
C58 O69 1.248 . S
C59 O70 1.267 . S
C59 O71 1.278 . S
O60 Pr40 2.562 . S
O60 C42 1.254 . S
O61 Pr40 2.490 . S
O61 C42 1.225 . S
O62 Pr40 2.695 1_556 S
O62 Pr41 2.436 . S
O62 C49 1.270 1_556 S
O63 Pr40 2.512 . S
O63 C49 1.248 . S
O64 Pr41 2.438 1_554 S
O64 C50 1.267 . S
O65 Pr40 2.437 . S
O65 C50 1.278 . S
O66 Pr41 2.562 . S
O66 C51 1.254 . S
O67 Pr41 2.490 . S
O67 C51 1.225 . S
O68 Pr40 2.436 . S
O68 Pr41 2.695 1_554 S
O68 C58 1.270 1_554 S
O69 Pr41 2.512 . S
O69 C58 1.248 . S
O70 Pr40 2.438 1_556 S
O70 C59 1.267 . S
O71 Pr41 2.437 . S
O71 C59 1.278 . S
H72 C44 0.929 . S
H73 C45 0.929 . S
H74 C47 0.931 . S
H75 C48 0.930 . S
H76 C53 0.929 . S
H77 C54 0.929 . S
H78 C56 0.931 . S
H79 C57 0.930 . S
Pr80 C82 2.880 . S
Pr80 O100 2.562 . S
Pr80 O101 2.490 . S
Pr80 O102 2.695 . S
Pr80 O103 2.512 . S
Pr80 O105 2.437 . S
Pr80 O108 2.436 . S
Pr80 O110 2.438 . S
Pr81 C91 2.880 . S
Pr81 O102 2.436 . S
Pr81 O104 2.438 . S
Pr81 O106 2.562 . S
Pr81 O107 2.490 . S
Pr81 O108 2.695 . S
Pr81 O109 2.512 . S
Pr81 O111 2.437 . S
C82 Pr80 2.880 . S
C82 C83 1.491 . S
C82 O100 1.254 . S
C82 O101 1.225 . S
C83 C82 1.491 . S
C83 C84 1.392 . S
C83 C88 1.356 . S
C84 C83 1.392 . S
C84 C85 1.368 . S
C84 H112 0.929 . S
C85 C84 1.368 . S
C85 C86 1.386 . S
C85 H113 0.929 . S
C86 C85 1.386 . S
C86 C87 1.373 . S
C87 C86 1.373 . S
C87 C88 1.409 . S
C87 H114 0.931 . S
C88 C83 1.356 . S
C88 C87 1.409 . S
C88 H115 0.930 . S
C89 O102 1.270 . S
C89 O103 1.248 . S
C90 O104 1.267 . S
C90 O105 1.278 . S
C91 Pr81 2.880 . S
C91 C92 1.491 . S
C91 O106 1.254 . S
C91 O107 1.225 . S
C92 C91 1.491 . S
C92 C93 1.392 . S
C92 C97 1.356 . S
C93 C92 1.392 . S
C93 C94 1.368 . S
C93 H116 0.929 . S
C94 C93 1.368 . S
C94 C95 1.386 . S
C94 H117 0.929 . S
C95 C94 1.386 . S
C95 C96 1.373 . S
C96 C95 1.373 . S
C96 C97 1.409 . S
C96 H118 0.931 . S
C97 C92 1.356 . S
C97 C96 1.409 . S
C97 H119 0.930 . S
C98 O108 1.270 . S
C98 O109 1.248 . S
C99 O110 1.267 . S
C99 O111 1.278 . S
O100 Pr80 2.562 . S
O100 C82 1.254 . S
O101 Pr80 2.490 . S
O101 C82 1.225 . S
O102 Pr80 2.695 . S
O102 Pr81 2.436 . S
O102 C89 1.270 . S
O103 Pr80 2.512 . S
O103 C89 1.248 . S
O104 Pr81 2.438 . S
O104 C90 1.267 . S
O105 Pr80 2.437 . S
O105 C90 1.278 . S
O106 Pr81 2.562 . S
O106 C91 1.254 . S
O107 Pr81 2.490 . S
O107 C91 1.225 . S
O108 Pr80 2.436 . S
O108 Pr81 2.695 . S
O108 C98 1.270 . S
O109 Pr81 2.512 . S
O109 C98 1.248 . S
O110 Pr80 2.438 . S
O110 C99 1.267 . S
O111 Pr81 2.437 . S
O111 C99 1.278 . S
H112 C84 0.929 . S
H113 C85 0.929 . S
H114 C87 0.931 . S
H115 C88 0.930 . S
H116 C93 0.929 . S
H117 C94 0.929 . S
H118 C96 0.931 . S
H119 C97 0.930 . S
Pr120 C122 2.880 . S
Pr120 O140 2.562 . S
Pr120 O141 2.490 . S
Pr120 O142 2.695 . S
Pr120 O143 2.512 . S
Pr120 O145 2.437 . S
Pr120 O148 2.436 . S
Pr120 O150 2.438 . S
Pr121 C131 2.880 . S
Pr121 O142 2.436 . S
Pr121 O144 2.438 . S
Pr121 O146 2.562 . S
Pr121 O147 2.490 . S
Pr121 O148 2.695 . S
Pr121 O149 2.512 . S
Pr121 O151 2.437 . S
C122 Pr120 2.880 . S
C122 C123 1.491 . S
C122 O140 1.254 . S
C122 O141 1.225 . S
C123 C122 1.491 . S
C123 C124 1.392 . S
C123 C128 1.356 . S
C124 C123 1.392 . S
C124 C125 1.368 . S
C124 H152 0.929 . S
C125 C124 1.368 . S
C125 C126 1.386 . S
C125 H153 0.929 . S
C126 C125 1.386 . S
C126 C127 1.373 . S
C127 C126 1.373 . S
C127 C128 1.409 . S
C127 H154 0.931 . S
C128 C123 1.356 . S
C128 C127 1.409 . S
C128 H155 0.930 . S
C129 O142 1.270 . S
C129 O143 1.248 . S
C130 O144 1.267 . S
C130 O145 1.278 . S
C131 Pr121 2.880 . S
C131 C132 1.491 . S
C131 O146 1.254 . S
C131 O147 1.225 . S
C132 C131 1.491 . S
C132 C133 1.392 . S
C132 C137 1.356 . S
C133 C132 1.392 . S
C133 C134 1.368 . S
C133 H156 0.929 . S
C134 C133 1.368 . S
C134 C135 1.386 . S
C134 H157 0.929 . S
C135 C134 1.386 . S
C135 C136 1.373 . S
C136 C135 1.373 . S
C136 C137 1.409 . S
C136 H158 0.931 . S
C137 C132 1.356 . S
C137 C136 1.409 . S
C137 H159 0.930 . S
C138 O148 1.270 . S
C138 O149 1.248 . S
C139 O150 1.267 . S
C139 O151 1.278 . S
O140 Pr120 2.562 . S
O140 C122 1.254 . S
O141 Pr120 2.490 . S
O141 C122 1.225 . S
O142 Pr120 2.695 . S
O142 Pr121 2.436 . S
O142 C129 1.270 . S
O143 Pr120 2.512 . S
O143 C129 1.248 . S
O144 Pr121 2.438 . S
O144 C130 1.267 . S
O145 Pr120 2.437 . S
O145 C130 1.278 . S
O146 Pr121 2.562 . S
O146 C131 1.254 . S
O147 Pr121 2.490 . S
O147 C131 1.225 . S
O148 Pr120 2.436 . S
O148 Pr121 2.695 . S
O148 C138 1.270 . S
O149 Pr121 2.512 . S
O149 C138 1.248 . S
O150 Pr120 2.438 . S
O150 C139 1.267 . S
O151 Pr121 2.437 . S
O151 C139 1.278 . S
H152 C124 0.929 . S
H153 C125 0.929 . S
H154 C127 0.931 . S
H155 C128 0.930 . S
H156 C133 0.929 . S
H157 C134 0.929 . S
H158 C136 0.931 . S
H159 C137 0.930 . S
H160 C168 0.929 . S
H161 C170 0.930 . S
H162 C172 0.930 . S
H163 C175 0.929 . S
H164 C178 0.930 . S
H165 C180 0.960 . S
H166 C180 0.960 . S
H167 C180 0.960 . S
C168 H160 0.929 . S
C168 C169 1.380 . S
C168 C170 1.384 . S
C169 C168 1.380 . S
C169 C175 1.386 1_556 S
C170 H161 0.930 . S
C170 C168 1.384 . S
C170 C171 1.378 . S
C171 C170 1.378 . S
C171 C172 1.396 1_556 S
C171 C176 1.487 1_556 S
C172 H162 0.930 . S
C172 C171 1.396 1_554 S
C172 C175 1.386 . S
H173 C189 0.930 . S
H174 C190 0.931 . S
C175 H163 0.929 . S
C175 C169 1.386 1_554 S
C175 C172 1.386 . S
C176 C171 1.487 1_554 S
C176 C178 1.396 . S
C176 C179 1.401 1_554 S
H177 C183 0.930 . S
C178 H164 0.930 . S
C178 C176 1.396 . S
C178 C181 1.403 . S
C179 C176 1.401 1_556 S
C179 C180 1.524 . S
C179 C183 1.400 . S
C180 H165 0.960 . S
C180 H166 0.960 . S
C180 H167 0.960 . S
C180 C179 1.524 . S
C181 C178 1.403 . S
C181 C182 1.392 . S
C181 C185 1.495 . S
C182 C181 1.392 . S
C182 C183 1.385 1_554 S
C182 C184 1.478 . S
C183 H177 0.930 . S
C183 C179 1.400 . S
C183 C182 1.385 1_556 S
C184 C182 1.478 . S
C184 C186 1.381 1_554 S
C184 C190 1.383 . S
C185 C181 1.495 . S
C185 H191 0.959 . S
C185 H192 0.961 . S
C185 H193 0.960 . S
C186 C184 1.381 1_556 S
C186 C187 1.394 . S
C186 H194 0.930 . S
C187 C186 1.394 . S
C187 C188 1.383 1_556 S
C187 H195 0.929 . S
C188 C187 1.383 1_554 S
C188 C189 1.377 . S
C189 H173 0.930 . S
C189 C188 1.377 . S
C189 C190 1.379 . S
C190 H174 0.931 . S
C190 C184 1.383 . S
C190 C189 1.379 . S
H191 C185 0.959 . S
H192 C185 0.961 . S
H193 C185 0.960 . S
H194 C186 0.930 . S
H195 C187 0.929 . S
H196 C204 0.929 . S
H197 C206 0.930 . S
H198 C208 0.930 . S
H199 C211 0.929 . S
H200 C214 0.930 . S
H201 C216 0.960 . S
H202 C216 0.960 . S
H203 C216 0.960 . S
C204 H196 0.929 . S
C204 C205 1.377 . S
C204 C206 1.384 . S
C205 C204 1.377 . S
C205 C211 1.390 . S
C206 H197 0.930 . S
C206 C204 1.384 . S
C206 C207 1.372 . S
C207 C206 1.372 . S
C207 C208 1.400 . S
C207 C212 1.490 . S
C208 H198 0.930 . S
C208 C207 1.400 . S
C208 C211 1.386 . S
H209 C225 0.930 . S
H210 C226 0.931 . S
C211 H199 0.929 . S
C211 C205 1.390 . S
C211 C208 1.386 . S
C212 C207 1.490 . S
C212 C214 1.395 . S
C212 C215 1.403 . S
H213 C219 0.930 . S
C214 H200 0.930 . S
C214 C212 1.395 . S
C214 C217 1.403 . S
C215 C212 1.403 . S
C215 C216 1.524 . S
C215 C219 1.400 . S
C216 H201 0.960 . S
C216 H202 0.960 . S
C216 H203 0.960 . S
C216 C215 1.524 . S
C217 C214 1.403 . S
C217 C218 1.392 . S
C217 C221 1.495 . S
C218 C217 1.392 . S
C218 C219 1.385 . S
C218 C220 1.478 . S
C219 H213 0.930 . S
C219 C215 1.400 . S
C219 C218 1.385 . S
C220 C218 1.478 . S
C220 C222 1.381 . S
C220 C226 1.383 . S
C221 C217 1.495 . S
C221 H227 0.959 . S
C221 H228 0.961 . S
C221 H229 0.960 . S
C222 C220 1.381 . S
C222 C223 1.394 . S
C222 H230 0.930 . S
C223 C222 1.394 . S
C223 C224 1.383 . S
C223 H231 0.929 . S
C224 C223 1.383 . S
C224 C225 1.377 . S
C225 H209 0.930 . S
C225 C224 1.377 . S
C225 C226 1.379 . S
C226 H210 0.931 . S
C226 C220 1.383 . S
C226 C225 1.379 . S
H227 C221 0.959 . S
H228 C221 0.961 . S
H229 C221 0.960 . S
H230 C222 0.930 . S
H231 C223 0.929 . S
H232 C240 0.929 . S
H233 C242 0.930 . S
H234 C244 0.930 . S
H235 C247 0.929 . S
H236 C250 0.930 . S
H237 C252 0.960 . S
H238 C252 0.960 1_545 S
H239 C252 0.960 1_545 S
C240 H232 0.929 . S
C240 C241 1.384 . S
C240 C242 1.384 . S
C241 C240 1.384 . S
C241 C247 1.383 1_554 S
C242 H233 0.930 . S
C242 C240 1.384 . S
C242 C243 1.372 . S
C243 C242 1.372 . S
C243 C244 1.400 1_554 S
C243 C248 1.490 . S
C244 H234 0.930 . S
C244 C243 1.400 1_556 S
C244 C247 1.386 . S
H245 C261 0.930 . S
H246 C262 0.931 . S
C247 H235 0.929 . S
C247 C241 1.383 1_556 S
C247 C244 1.386 . S
C248 C243 1.490 . S
C248 C250 1.395 1_455 S
C248 C251 1.403 1_544 S
H249 C255 0.930 . S
C250 H236 0.930 . S
C250 C248 1.395 1_655 S
C250 C253 1.403 . S
C251 C248 1.403 1_566 S
C251 C252 1.524 . S
C251 C255 1.400 . S
C252 H237 0.960 . S
C252 H238 0.960 1_565 S
C252 H239 0.960 1_565 S
C252 C251 1.524 . S
C253 C250 1.403 . S
C253 C254 1.392 1_545 S
C253 C257 1.495 . S
C254 C253 1.392 1_565 S
C254 C255 1.385 1_654 S
C254 C256 1.478 . S
C255 H249 0.930 . S
C255 C251 1.400 . S
C255 C254 1.385 1_456 S
C256 C254 1.478 . S
C256 C258 1.381 . S
C256 C262 1.383 1_554 S
C257 C253 1.495 . S
C257 H263 0.959 . S
C257 H264 0.961 1_545 S
C257 H265 0.960 1_545 S
C258 C256 1.381 . S
C258 C259 1.394 . S
C258 H266 0.930 . S
C259 C258 1.394 . S
C259 C260 1.418 . S
C259 H267 0.929 . S
C260 C259 1.418 . S
C260 C261 1.340 1_554 S
C261 H245 0.930 . S
C261 C260 1.340 1_556 S
C261 C262 1.379 . S
C262 H246 0.931 . S
C262 C256 1.383 1_556 S
C262 C261 1.379 . S
H263 C257 0.959 . S
H264 C257 0.961 1_565 S
H265 C257 0.960 1_565 S
H266 C258 0.930 . S
H267 C259 0.929 . S
H268 C276 0.929 . S
H269 C278 0.930 1_455 S
H270 C280 0.930 . S
H271 C283 0.929 . S
H272 C286 0.930 . S
H273 C288 0.965 . S
H274 C288 0.956 1_545 S
H275 C288 0.959 1_545 S
C276 H268 0.929 . S
C276 C277 1.377 . S
C276 C278 1.384 . S
C277 C276 1.377 . S
C277 C283 1.390 . S
C278 H269 0.930 1_655 S
C278 C276 1.384 . S
C278 C279 1.372 . S
C279 C278 1.372 . S
C279 C280 1.400 . S
C279 C284 1.490 . S
C280 H270 0.930 . S
C280 C279 1.400 . S
C280 C283 1.386 . S
H281 C297 0.930 . S
H282 C298 0.931 . S
C283 H271 0.929 . S
C283 C277 1.390 . S
C283 C280 1.386 . S
C284 C279 1.490 . S
C284 C286 1.395 1_655 S
C284 C287 1.403 . S
H285 C291 0.930 . S
C286 H272 0.930 . S
C286 C284 1.395 1_455 S
C286 C289 1.403 . S
C287 C284 1.403 . S
C287 C288 1.524 1_545 S
C287 C291 1.400 1_545 S
C288 H273 0.965 . S
C288 H274 0.956 1_565 S
C288 H275 0.959 1_565 S
C288 C287 1.524 1_565 S
C289 C286 1.403 . S
C289 C290 1.392 1_545 S
C289 C293 1.495 . S
C290 C289 1.392 1_565 S
C290 C291 1.385 1_455 S
C290 C292 1.478 . S
C291 H285 0.930 . S
C291 C287 1.400 1_565 S
C291 C290 1.385 1_655 S
C292 C290 1.478 . S
C292 C294 1.381 . S
C292 C298 1.383 . S
C293 C289 1.495 . S
C293 H299 0.959 . S
C293 H300 0.961 1_545 S
C293 H301 0.960 1_545 S
C294 C292 1.381 . S
C294 C295 1.394 . S
C294 H302 0.930 . S
C295 C294 1.394 . S
C295 C296 1.383 . S
C295 H303 0.929 . S
C296 C295 1.383 . S
C296 C297 1.377 . S
C297 H281 0.930 . S
C297 C296 1.377 . S
C297 C298 1.379 . S
C298 H282 0.931 . S
C298 C292 1.383 . S
C298 C297 1.379 . S
H299 C293 0.959 . S
H300 C293 0.961 1_565 S
H301 C293 0.960 1_565 S
H302 C294 0.930 . S
H303 C295 0.929 . S
H304 C312 0.929 . S
H305 C314 0.930 . S
H306 C316 0.930 . S
H307 C319 0.929 . S
H308 C322 0.930 . S
H309 C324 0.960 . S
H310 C324 0.960 . S
H311 C324 0.960 . S
C312 H304 0.929 . S
C312 C313 1.377 . S
C312 C314 1.384 . S
C313 C312 1.377 . S
C313 C319 1.390 . S
C314 H305 0.930 . S
C314 C312 1.384 . S
C314 C315 1.372 . S
C315 C314 1.372 . S
C315 C316 1.400 . S
C315 C320 1.490 . S
C316 H306 0.930 . S
C316 C315 1.400 . S
C316 C319 1.386 . S
H317 C333 0.930 . S
H318 C334 0.931 . S
C319 H307 0.929 . S
C319 C313 1.390 . S
C319 C316 1.386 . S
C320 C315 1.490 . S
C320 C322 1.395 . S
C320 C323 1.403 . S
H321 C327 0.930 . S
C322 H308 0.930 . S
C322 C320 1.395 . S
C322 C325 1.403 . S
C323 C320 1.403 . S
C323 C324 1.524 . S
C323 C327 1.400 . S
C324 H309 0.960 . S
C324 H310 0.960 . S
C324 H311 0.960 . S
C324 C323 1.524 . S
C325 C322 1.403 . S
C325 C326 1.392 . S
C325 C329 1.495 . S
C326 C325 1.392 . S
C326 C327 1.385 . S
C326 C328 1.478 . S
C327 H321 0.930 . S
C327 C323 1.400 . S
C327 C326 1.385 . S
C328 C326 1.478 . S
C328 C330 1.381 . S
C328 C334 1.383 . S
C329 C325 1.495 . S
C329 H335 0.959 . S
C329 H336 0.961 . S
C329 H337 0.960 . S
C330 C328 1.381 . S
C330 C331 1.394 . S
C330 H338 0.930 . S
C331 C330 1.394 . S
C331 C332 1.383 . S
C331 H339 0.929 . S
C332 C331 1.383 . S
C332 C333 1.377 . S
C333 H317 0.930 . S
C333 C332 1.377 . S
C333 C334 1.379 . S
C334 H318 0.931 . S
C334 C328 1.383 . S
C334 C333 1.379 . S
H335 C329 0.959 . S
H336 C329 0.961 . S
H337 C329 0.960 . S
H338 C330 0.930 . S
H339 C331 0.929 . S
H340 C348 0.929 . S
H341 C350 0.930 . S
H342 C352 0.930 . S
H343 C355 0.929 . S
H344 C358 0.930 . S
H345 C360 0.960 . S
H346 C360 0.960 . S
H347 C360 0.960 . S
C348 H340 0.929 . S
C348 C349 1.377 . S
C348 C350 1.384 . S
C349 C348 1.377 . S
C349 C355 1.390 . S
C350 H341 0.930 . S
C350 C348 1.384 . S
C350 C351 1.372 . S
C351 C350 1.372 . S
C351 C352 1.400 . S
C351 C356 1.490 . S
C352 H342 0.930 . S
C352 C351 1.400 . S
C352 C355 1.386 . S
H353 C369 0.930 . S
H354 C370 0.931 . S
C355 H343 0.929 . S
C355 C349 1.390 . S
C355 C352 1.386 . S
C356 C351 1.490 . S
C356 C358 1.395 . S
C356 C359 1.403 . S
H357 C363 0.930 . S
C358 H344 0.930 . S
C358 C356 1.395 . S
C358 C361 1.403 . S
C359 C356 1.403 . S
C359 C360 1.524 . S
C359 C363 1.400 . S
C360 H345 0.960 . S
C360 H346 0.960 . S
C360 H347 0.960 . S
C360 C359 1.524 . S
C361 C358 1.403 . S
C361 C362 1.392 . S
C361 C365 1.495 . S
C362 C361 1.392 . S
C362 C363 1.385 . S
C362 C364 1.478 . S
C363 H357 0.930 . S
C363 C359 1.400 . S
C363 C362 1.385 . S
C364 C362 1.478 . S
C364 C366 1.381 . S
C364 C370 1.383 . S
C365 C361 1.495 . S
C365 H371 0.959 . S
C365 H372 0.961 . S
C365 H373 0.960 . S
C366 C364 1.381 . S
C366 C367 1.394 . S
C366 H374 0.930 . S
C367 C366 1.394 . S
C367 C368 1.383 . S
C367 H375 0.929 . S
C368 C367 1.383 . S
C368 C369 1.377 . S
C369 H353 0.930 . S
C369 C368 1.377 . S
C369 C370 1.379 . S
C370 H354 0.931 . S
C370 C364 1.383 . S
C370 C369 1.379 . S
H371 C365 0.959 . S
H372 C365 0.961 . S
H373 C365 0.960 . S
H374 C366 0.930 . S
H375 C367 0.929 . S
H376 C384 0.929 . S
H377 C386 0.930 . S
H378 C388 0.930 . S
H379 C391 0.929 . S
H380 C394 0.930 . S
H381 C396 0.960 . S
H382 C396 0.960 . S
H383 C396 0.960 . S
C384 H376 0.929 . S
C384 C385 1.377 . S
C384 C386 1.384 . S
C385 C384 1.377 . S
C385 C391 1.390 . S
C386 H377 0.930 . S
C386 C384 1.384 . S
C386 C387 1.372 . S
C387 C386 1.372 . S
C387 C388 1.400 . S
C387 C392 1.490 . S
C388 H378 0.930 . S
C388 C387 1.400 . S
C388 C391 1.386 . S
H389 C405 0.930 . S
H390 C406 0.931 . S
C391 H379 0.929 . S
C391 C385 1.390 . S
C391 C388 1.386 . S
C392 C387 1.490 . S
C392 C394 1.395 . S
C392 C395 1.403 . S
H393 C399 0.930 . S
C394 H380 0.930 . S
C394 C392 1.395 . S
C394 C397 1.403 . S
C395 C392 1.403 . S
C395 C396 1.524 . S
C395 C399 1.400 . S
C396 H381 0.960 . S
C396 H382 0.960 . S
C396 H383 0.960 . S
C396 C395 1.524 . S
C397 C394 1.403 . S
C397 C398 1.392 . S
C397 C401 1.495 . S
C398 C397 1.392 . S
C398 C399 1.385 . S
C398 C400 1.478 . S
C399 H393 0.930 . S
C399 C395 1.400 . S
C399 C398 1.385 . S
C400 C398 1.478 . S
C400 C402 1.381 . S
C400 C406 1.383 . S
C401 C397 1.495 . S
C401 H407 0.959 . S
C401 H408 0.961 . S
C401 H409 0.960 . S
C402 C400 1.381 . S
C402 C403 1.394 . S
C402 H410 0.930 . S
C403 C402 1.394 . S
C403 C404 1.383 . S
C403 H411 0.929 . S
C404 C403 1.383 . S
C404 C405 1.377 . S
C405 H389 0.930 . S
C405 C404 1.377 . S
C405 C406 1.379 . S
C406 H390 0.931 . S
C406 C400 1.383 . S
C406 C405 1.379 . S
H407 C401 0.959 . S
H408 C401 0.961 . S
H409 C401 0.960 . S
H410 C402 0.930 . S
H411 C403 0.929 . S
H412 C420 0.929 . S
H413 C422 0.930 . S
H414 C424 0.930 . S
H415 C427 0.929 . S
H416 C430 0.930 . S
H417 C432 0.960 . S
H418 C432 0.960 . S
H419 C432 0.960 . S
C420 H412 0.929 . S
C420 C421 1.377 . S
C420 C422 1.384 . S
C421 C420 1.377 . S
C421 C427 1.390 . S
C422 H413 0.930 . S
C422 C420 1.384 . S
C422 C423 1.372 . S
C423 C422 1.372 . S
C423 C424 1.400 . S
C423 C428 1.490 . S
C424 H414 0.930 . S
C424 C423 1.400 . S
C424 C427 1.386 . S
H425 C441 0.930 . S
H426 C442 0.931 . S
C427 H415 0.929 . S
C427 C421 1.390 . S
C427 C424 1.386 . S
C428 C423 1.490 . S
C428 C430 1.395 . S
C428 C431 1.403 . S
H429 C435 0.930 . S
C430 H416 0.930 . S
C430 C428 1.395 . S
C430 C433 1.403 . S
C431 C428 1.403 . S
C431 C432 1.524 . S
C431 C435 1.400 . S
C432 H417 0.960 . S
C432 H418 0.960 . S
C432 H419 0.960 . S
C432 C431 1.524 . S
C433 C430 1.403 . S
C433 C434 1.392 . S
C433 C437 1.495 . S
C434 C433 1.392 . S
C434 C435 1.385 . S
C434 C436 1.478 . S
C435 H429 0.930 . S
C435 C431 1.400 . S
C435 C434 1.385 . S
C436 C434 1.478 . S
C436 C438 1.381 . S
C436 C442 1.383 . S
C437 C433 1.495 . S
C437 H443 0.959 . S
C437 H444 0.961 . S
C437 H445 0.960 . S
C438 C436 1.381 . S
C438 C439 1.394 . S
C438 H446 0.930 . S
C439 C438 1.394 . S
C439 C440 1.383 . S
C439 H447 0.929 . S
C440 C439 1.383 . S
C440 C441 1.377 . S
C441 H425 0.930 . S
C441 C440 1.377 . S
C441 C442 1.379 . S
C442 H426 0.931 . S
C442 C436 1.383 . S
C442 C441 1.379 . S
H443 C437 0.959 . S
H444 C437 0.961 . S
H445 C437 0.960 . S
H446 C438 0.930 . S
H447 C439 0.929 . S
H448 C456 0.929 . S
H449 C458 0.930 . S
H450 C460 0.930 . S
H451 C463 0.929 . S
H452 C466 0.930 . S
H453 C468 0.960 . S
H454 C468 0.960 . S
H455 C468 0.960 . S
C456 H448 0.929 . S
C456 C457 1.377 . S
C456 C458 1.384 . S
C457 C456 1.377 . S
C457 C463 1.390 . S
C458 H449 0.930 . S
C458 C456 1.384 . S
C458 C459 1.372 . S
C459 C458 1.372 . S
C459 C460 1.400 . S
C459 C464 1.490 . S
C460 H450 0.930 . S
C460 C459 1.400 . S
C460 C463 1.386 . S
H461 C477 0.930 . S
H462 C478 0.931 . S
C463 H451 0.929 . S
C463 C457 1.390 . S
C463 C460 1.386 . S
C464 C459 1.490 . S
C464 C466 1.395 . S
C464 C467 1.403 . S
H465 C471 0.930 . S
C466 H452 0.930 . S
C466 C464 1.395 . S
C466 C469 1.403 . S
C467 C464 1.403 . S
C467 C468 1.524 . S
C467 C471 1.400 . S
C468 H453 0.960 . S
C468 H454 0.960 . S
C468 H455 0.960 . S
C468 C467 1.524 . S
C469 C466 1.403 . S
C469 C470 1.392 . S
C469 C473 1.495 . S
C470 C469 1.392 . S
C470 C471 1.385 . S
C470 C472 1.478 . S
C471 H465 0.930 . S
C471 C467 1.400 . S
C471 C470 1.385 . S
C472 C470 1.478 . S
C472 C474 1.381 1_655 S
C472 C478 1.383 . S
C473 C469 1.495 . S
C473 H479 0.959 . S
C473 H480 0.961 . S
C473 H481 0.960 1_655 S
C474 C472 1.381 1_455 S
C474 C475 1.394 . S
C474 H482 0.930 . S
C475 C474 1.394 . S
C475 C476 1.383 . S
C475 H483 0.929 . S
C476 C475 1.383 . S
C476 C477 1.377 1_455 S
C477 H461 0.930 . S
C477 C476 1.377 1_655 S
C477 C478 1.379 . S
C478 H462 0.931 . S
C478 C472 1.383 . S
C478 C477 1.379 . S
H479 C473 0.959 . S
H480 C473 0.961 . S
H481 C473 0.960 1_455 S
H482 C474 0.930 . S
H483 C475 0.929 . S
H484 C492 0.929 . S
H485 C494 0.930 . S
H486 C496 0.930 . S
H487 C499 0.929 . S
H488 C502 0.930 . S
H489 C504 0.960 . S
H490 C504 0.960 . S
H491 C504 0.960 . S
C492 H484 0.929 . S
C492 C493 1.377 . S
C492 C494 1.384 . S
C493 C492 1.377 . S
C493 C499 1.390 . S
C494 H485 0.930 . S
C494 C492 1.384 . S
C494 C495 1.372 . S
C495 C494 1.372 . S
C495 C496 1.400 . S
C495 C500 1.490 . S
C496 H486 0.930 . S
C496 C495 1.400 . S
C496 C499 1.386 . S
H497 C513 0.930 . S
H498 C514 0.931 . S
C499 H487 0.929 . S
C499 C493 1.390 . S
C499 C496 1.386 . S
C500 C495 1.490 . S
C500 C502 1.395 . S
C500 C503 1.403 . S
H501 C507 0.930 . S
C502 H488 0.930 . S
C502 C500 1.395 . S
C502 C505 1.403 . S
C503 C500 1.403 . S
C503 C504 1.524 . S
C503 C507 1.400 . S
C504 H489 0.960 . S
C504 H490 0.960 . S
C504 H491 0.960 . S
C504 C503 1.524 . S
C505 C502 1.403 . S
C505 C506 1.392 . S
C505 C509 1.495 1_655 S
C506 C505 1.392 . S
C506 C507 1.385 . S
C506 C508 1.478 . S
C507 H501 0.930 . S
C507 C503 1.400 . S
C507 C506 1.385 . S
C508 C506 1.478 . S
C508 C510 1.381 . S
C508 C514 1.383 1_655 S
C509 C505 1.495 1_455 S
C509 H515 0.959 . S
C509 H516 0.961 . S
C509 H517 0.960 . S
C510 C508 1.381 . S
C510 C511 1.394 . S
C510 H518 0.930 . S
C511 C510 1.394 . S
C511 C512 1.383 1_655 S
C511 H519 0.929 . S
C512 C511 1.383 1_455 S
C512 C513 1.377 . S
C513 H497 0.930 . S
C513 C512 1.377 . S
C513 C514 1.379 . S
C514 H498 0.931 . S
C514 C508 1.383 1_455 S
C514 C513 1.379 . S
H515 C509 0.959 . S
H516 C509 0.961 . S
H517 C509 0.960 . S
H518 C510 0.930 . S
H519 C511 0.929 . S
H520 C528 0.929 . S
H521 C530 0.930 . S
H522 C532 0.930 . S
H523 C535 0.929 . S
H524 C538 0.930 . S
H525 C540 0.960 . S
H526 C540 0.960 . S
H527 C540 0.960 . S
C528 H520 0.929 . S
C528 C529 1.377 1_455 S
C528 C530 1.384 . S
C529 C528 1.377 1_655 S
C529 C535 1.390 . S
C530 H521 0.930 . S
C530 C528 1.384 . S
C530 C531 1.372 . S
C531 C530 1.372 . S
C531 C532 1.400 1_455 S
C531 C536 1.490 . S
C532 H522 0.930 . S
C532 C531 1.400 1_655 S
C532 C535 1.386 . S
H533 C549 0.930 . S
H534 C550 0.931 . S
C535 H523 0.929 . S
C535 C529 1.390 . S
C535 C532 1.386 . S
C536 C531 1.490 . S
C536 C538 1.395 . S
C536 C539 1.403 . S
H537 C543 0.930 . S
C538 H524 0.930 . S
C538 C536 1.395 . S
C538 C541 1.403 . S
C539 C536 1.403 . S
C539 C540 1.524 1_455 S
C539 C543 1.400 . S
C540 H525 0.960 . S
C540 H526 0.960 . S
C540 H527 0.960 . S
C540 C539 1.524 1_655 S
C541 C538 1.403 . S
C541 C542 1.392 . S
C541 C545 1.495 . S
C542 C541 1.392 . S
C542 C543 1.385 . S
C542 C544 1.478 . S
C543 H537 0.930 . S
C543 C539 1.400 . S
C543 C542 1.385 . S
C544 C542 1.478 . S
C544 C546 1.381 . S
C544 C550 1.383 . S
C545 C541 1.495 . S
C545 H551 0.959 . S
C545 H552 0.961 . S
C545 H553 0.960 . S
C546 C544 1.381 . S
C546 C547 1.394 . S
C546 H554 0.930 . S
C547 C546 1.394 . S
C547 C548 1.383 . S
C547 H555 0.929 . S
C548 C547 1.383 . S
C548 C549 1.377 . S
C549 H533 0.930 . S
C549 C548 1.377 . S
C549 C550 1.379 . S
C550 H534 0.931 . S
C550 C544 1.383 . S
C550 C549 1.379 . S
H551 C545 0.959 . S
H552 C545 0.961 . S
H553 C545 0.960 . S
H554 C546 0.930 . S
H555 C547 0.929 . S
H556 C564 0.929 . S
H557 C566 0.930 . S
H558 C568 0.930 . S
H559 C571 0.929 . S
H560 C574 0.930 1_655 S
H561 C576 0.960 . S
H562 C576 0.960 . S
H563 C576 0.960 . S
C564 H556 0.929 . S
C564 C565 1.377 . S
C564 C566 1.384 . S
C565 C564 1.377 . S
C565 C571 1.390 . S
C566 H557 0.930 . S
C566 C564 1.384 . S
C566 C567 1.372 . S
C567 C566 1.372 . S
C567 C568 1.400 . S
C567 C572 1.490 . S
C568 H558 0.930 . S
C568 C567 1.400 . S
C568 C571 1.386 . S
H569 C585 0.930 . S
H570 C586 0.931 . S
C571 H559 0.929 . S
C571 C565 1.390 . S
C571 C568 1.386 . S
C572 C567 1.490 . S
C572 C574 1.395 . S
C572 C575 1.403 . S
H573 C579 0.930 . S
C574 H560 0.930 1_455 S
C574 C572 1.395 . S
C574 C577 1.403 1_455 S
C575 C572 1.403 . S
C575 C576 1.524 . S
C575 C579 1.400 . S
C576 H561 0.960 . S
C576 H562 0.960 . S
C576 H563 0.960 . S
C576 C575 1.524 . S
C577 C574 1.403 1_655 S
C577 C578 1.392 1_655 S
C577 C581 1.495 . S
C578 C577 1.392 1_455 S
C578 C579 1.385 . S
C578 C580 1.478 . S
C579 H573 0.930 . S
C579 C575 1.400 . S
C579 C578 1.385 . S
C580 C578 1.478 . S
C580 C582 1.381 1_455 S
C580 C586 1.383 . S
C581 C577 1.495 . S
C581 H587 0.959 . S
C581 H588 0.961 . S
C581 H589 0.960 . S
C582 C580 1.381 1_655 S
C582 C583 1.394 . S
C582 H590 0.930 . S
C583 C582 1.394 . S
C583 C584 1.383 . S
C583 H591 0.929 . S
C584 C583 1.383 . S
C584 C585 1.377 1_655 S
C585 H569 0.930 . S
C585 C584 1.377 1_455 S
C585 C586 1.379 . S
C586 H570 0.931 . S
C586 C580 1.383 . S
C586 C585 1.379 . S
H587 C581 0.959 . S
H588 C581 0.961 . S
H589 C581 0.960 . S
H590 C582 0.930 . S
H591 C583 0.929 . S
C169 C58 1.501 . S
C188 C9 1.498 . S
C205 C89 1.498 . S
C224 C138 1.500 . S
C241 C18 1.499 1_554 S
C260 C49 1.489 . S
C277 C129 1.500 . S
C296 C98 1.480 . S
C313 C126 1.167 . S
C332 C10 1.165 . S
C349 C46 1.165 . S
C368 C90 1.164 . S
C385 C59 1.167 . S
C404 C95 1.150 . S
C421 C139 1.164 . S
C440 C15 1.151 . S
C457 C50 1.167 . S
C476 C86 1.152 . S
C493 C130 1.167 . S
C512 C6 1.165 . S
C529 C135 1.163 . S
C548 C19 1.171 . S
C565 C99 1.163 . S
C584 C55 1.163 . S
