# Generated by pormake.
# Topology ulg, (4)-cn, num edge types: 1
# Building blocks:
#     Node 0, Type 0, BuildingBlock: QUQFOY_clean_sbu_1, # of connection points: 4
#     Node 1, Type 0, BuildingBlock: QUQFOY_clean_sbu_1, # of connection points: 4
#     Node 2, Type 0, BuildingBlock: QUQFOY_clean_sbu_1, # of connection points: 4
#     Node 3, Type 0, BuildingBlock: QUQFOY_clean_sbu_1, # of connection points: 4
#     Node 4, Type 0, BuildingBlock: QUQFOY_clean_sbu_1, # of connection points: 4
#     Node 5, Type 0, BuildingBlock: QUQFOY_clean_sbu_1, # of connection points: 4
#     Node 6, Type 0, BuildingBlock: QUQFOY_clean_sbu_1, # of connection points: 4
#     Node 7, Type 0, BuildingBlock: QUQFOY_clean_sbu_1, # of connection points: 4
#     Node 8, Type 0, BuildingBlock: QUQFOY_clean_sbu_1, # of connection points: 4
#     Node 9, Type 0, BuildingBlock: QUQFOY_clean_sbu_1, # of connection points: 4
#     Node 10, Type 0, BuildingBlock: QUQFOY_clean_sbu_1, # of connection points: 4
#     Node 11, Type 0, BuildingBlock: QUQFOY_clean_sbu_1, # of connection points: 4
#     Node 12, Type 0, BuildingBlock: QUQFOY_clean_sbu_1, # of connection points: 4
#     Node 13, Type 0, BuildingBlock: QUQFOY_clean_sbu_1, # of connection points: 4
#     Node 14, Type 0, BuildingBlock: QUQFOY_clean_sbu_1, # of connection points: 4
#     Node 15, Type 0, BuildingBlock: QUQFOY_clean_sbu_1, # of connection points: 4
#     Node 16, Type 0, BuildingBlock: QUQFOY_clean_sbu_1, # of connection points: 4
#     Node 17, Type 0, BuildingBlock: QUQFOY_clean_sbu_1, # of connection points: 4
#     Node 18, Type 0, BuildingBlock: QUQFOY_clean_sbu_1, # of connection points: 4
#     Node 19, Type 0, BuildingBlock: QUQFOY_clean_sbu_1, # of connection points: 4
#     Node 20, Type 0, BuildingBlock: QUQFOY_clean_sbu_1, # of connection points: 4
#     Node 21, Type 0, BuildingBlock: QUQFOY_clean_sbu_1, # of connection points: 4
#     Node 22, Type 0, BuildingBlock: QUQFOY_clean_sbu_1, # of connection points: 4
#     Node 23, Type 0, BuildingBlock: QUQFOY_clean_sbu_1, # of connection points: 4
#     Node 24, Type 0, BuildingBlock: QUQFOY_clean_sbu_1, # of connection points: 4
#     Node 25, Type 0, BuildingBlock: QUQFOY_clean_sbu_1, # of connection points: 4
#     Node 26, Type 0, BuildingBlock: QUQFOY_clean_sbu_1, # of connection points: 4
#     Node 27, Type 0, BuildingBlock: QUQFOY_clean_sbu_1, # of connection points: 4
#     Node 28, Type 0, BuildingBlock: QUQFOY_clean_sbu_1, # of connection points: 4
#     Node 29, Type 0, BuildingBlock: QUQFOY_clean_sbu_1, # of connection points: 4
#     Node 30, Type 0, BuildingBlock: QUQFOY_clean_sbu_1, # of connection points: 4
#     Node 31, Type 0, BuildingBlock: QUQFOY_clean_sbu_1, # of connection points: 4
#     Node 32, Type 0, BuildingBlock: QUQFOY_clean_sbu_1, # of connection points: 4
#     Node 33, Type 0, BuildingBlock: QUQFOY_clean_sbu_1, # of connection points: 4
#     Node 34, Type 0, BuildingBlock: QUQFOY_clean_sbu_1, # of connection points: 4
#     Node 35, Type 0, BuildingBlock: QUQFOY_clean_sbu_1, # of connection points: 4
#     Node 36, Type 0, BuildingBlock: QUQFOY_clean_sbu_1, # of connection points: 4
#     Node 37, Type 0, BuildingBlock: QUQFOY_clean_sbu_1, # of connection points: 4
#     Node 38, Type 0, BuildingBlock: QUQFOY_clean_sbu_1, # of connection points: 4
#     Node 39, Type 0, BuildingBlock: QUQFOY_clean_sbu_1, # of connection points: 4
#     Node 40, Type 0, BuildingBlock: QUQFOY_clean_sbu_1, # of connection points: 4
#     Node 41, Type 0, BuildingBlock: QUQFOY_clean_sbu_1, # of connection points: 4
#     Node 42, Type 0, BuildingBlock: QUQFOY_clean_sbu_1, # of connection points: 4
#     Node 43, Type 0, BuildingBlock: QUQFOY_clean_sbu_1, # of connection points: 4
#     Node 44, Type 0, BuildingBlock: QUQFOY_clean_sbu_1, # of connection points: 4
#     Node 45, Type 0, BuildingBlock: QUQFOY_clean_sbu_1, # of connection points: 4
#     Node 46, Type 0, BuildingBlock: QUQFOY_clean_sbu_1, # of connection points: 4
#     Node 47, Type 0, BuildingBlock: QUQFOY_clean_sbu_1, # of connection points: 4
#     Node 48, Type 0, BuildingBlock: QUQFOY_clean_sbu_1, # of connection points: 4
#     Node 49, Type 0, BuildingBlock: QUQFOY_clean_sbu_1, # of connection points: 4
#     Node 50, Type 0, BuildingBlock: QUQFOY_clean_sbu_1, # of connection points: 4
#     Node 51, Type 0, BuildingBlock: QUQFOY_clean_sbu_1, # of connection points: 4
#     Node 52, Type 0, BuildingBlock: QUQFOY_clean_sbu_1, # of connection points: 4
#     Node 53, Type 0, BuildingBlock: QUQFOY_clean_sbu_1, # of connection points: 4
#     Node 54, Type 0, BuildingBlock: QUQFOY_clean_sbu_1, # of connection points: 4
#     Node 55, Type 0, BuildingBlock: QUQFOY_clean_sbu_1, # of connection points: 4
#     Node 56, Type 0, BuildingBlock: QUQFOY_clean_sbu_1, # of connection points: 4
#     Node 57, Type 0, BuildingBlock: QUQFOY_clean_sbu_1, # of connection points: 4
#     Node 58, Type 0, BuildingBlock: QUQFOY_clean_sbu_1, # of connection points: 4
#     Node 59, Type 0, BuildingBlock: QUQFOY_clean_sbu_1, # of connection points: 4
#     Node 60, Type 0, BuildingBlock: QUQFOY_clean_sbu_1, # of connection points: 4
#     Node 61, Type 0, BuildingBlock: QUQFOY_clean_sbu_1, # of connection points: 4
#     Node 62, Type 0, BuildingBlock: QUQFOY_clean_sbu_1, # of connection points: 4
#     Node 63, Type 0, BuildingBlock: QUQFOY_clean_sbu_1, # of connection points: 4
#     Node 64, Type 0, BuildingBlock: QUQFOY_clean_sbu_1, # of connection points: 4
#     Node 65, Type 0, BuildingBlock: QUQFOY_clean_sbu_1, # of connection points: 4
#     Node 66, Type 0, BuildingBlock: QUQFOY_clean_sbu_1, # of connection points: 4
#     Node 67, Type 0, BuildingBlock: QUQFOY_clean_sbu_1, # of connection points: 4
#     Node 68, Type 0, BuildingBlock: QUQFOY_clean_sbu_1, # of connection points: 4
#     Node 69, Type 0, BuildingBlock: QUQFOY_clean_sbu_1, # of connection points: 4
#     Node 70, Type 0, BuildingBlock: QUQFOY_clean_sbu_1, # of connection points: 4
#     Node 71, Type 0, BuildingBlock: QUQFOY_clean_sbu_1, # of connection points: 4
#     Node 72, Type 0, BuildingBlock: QUQFOY_clean_sbu_1, # of connection points: 4
#     Node 73, Type 0, BuildingBlock: QUQFOY_clean_sbu_1, # of connection points: 4
#     Node 74, Type 0, BuildingBlock: QUQFOY_clean_sbu_1, # of connection points: 4
#     Node 75, Type 0, BuildingBlock: QUQFOY_clean_sbu_1, # of connection points: 4
#     Node 76, Type 0, BuildingBlock: QUQFOY_clean_sbu_1, # of connection points: 4
#     Node 77, Type 0, BuildingBlock: QUQFOY_clean_sbu_1, # of connection points: 4
#     Node 78, Type 0, BuildingBlock: QUQFOY_clean_sbu_1, # of connection points: 4
#     Node 79, Type 0, BuildingBlock: QUQFOY_clean_sbu_1, # of connection points: 4
#     Node 80, Type 0, BuildingBlock: QUQFOY_clean_sbu_1, # of connection points: 4
#     Node 81, Type 0, BuildingBlock: QUQFOY_clean_sbu_1, # of connection points: 4
#     Node 82, Type 0, BuildingBlock: QUQFOY_clean_sbu_1, # of connection points: 4
#     Node 83, Type 0, BuildingBlock: QUQFOY_clean_sbu_1, # of connection points: 4
#     Node 84, Type 0, BuildingBlock: QUQFOY_clean_sbu_1, # of connection points: 4
#     Node 85, Type 0, BuildingBlock: QUQFOY_clean_sbu_1, # of connection points: 4
#     Node 86, Type 0, BuildingBlock: QUQFOY_clean_sbu_1, # of connection points: 4
#     Node 87, Type 0, BuildingBlock: QUQFOY_clean_sbu_1, # of connection points: 4
#     Node 88, Type 0, BuildingBlock: QUQFOY_clean_sbu_1, # of connection points: 4
#     Node 89, Type 0, BuildingBlock: QUQFOY_clean_sbu_1, # of connection points: 4
#     Node 90, Type 0, BuildingBlock: QUQFOY_clean_sbu_1, # of connection points: 4
#     Node 91, Type 0, BuildingBlock: QUQFOY_clean_sbu_1, # of connection points: 4
#     Node 92, Type 0, BuildingBlock: QUQFOY_clean_sbu_1, # of connection points: 4
#     Node 93, Type 0, BuildingBlock: QUQFOY_clean_sbu_1, # of connection points: 4
#     Node 94, Type 0, BuildingBlock: QUQFOY_clean_sbu_1, # of connection points: 4
#     Node 95, Type 0, BuildingBlock: QUQFOY_clean_sbu_1, # of connection points: 4
#     Edge 96, Type (0, 0), BuildingBlock: OJICUG_clean_linker_0, # of connection points: 2
#     Edge 97, Type (0, 0), BuildingBlock: OJICUG_clean_linker_0, # of connection points: 2
#     Edge 98, Type (0, 0), BuildingBlock: OJICUG_clean_linker_0, # of connection points: 2
#     Edge 99, Type (0, 0), BuildingBlock: OJICUG_clean_linker_0, # of connection points: 2
#     Edge 100, Type (0, 0), BuildingBlock: OJICUG_clean_linker_0, # of connection points: 2
#     Edge 101, Type (0, 0), BuildingBlock: OJICUG_clean_linker_0, # of connection points: 2
#     Edge 102, Type (0, 0), BuildingBlock: OJICUG_clean_linker_0, # of connection points: 2
#     Edge 103, Type (0, 0), BuildingBlock: OJICUG_clean_linker_0, # of connection points: 2
#     Edge 104, Type (0, 0), BuildingBlock: OJICUG_clean_linker_0, # of connection points: 2
#     Edge 105, Type (0, 0), BuildingBlock: OJICUG_clean_linker_0, # of connection points: 2
#     Edge 106, Type (0, 0), BuildingBlock: OJICUG_clean_linker_0, # of connection points: 2
#     Edge 107, Type (0, 0), BuildingBlock: OJICUG_clean_linker_0, # of connection points: 2
#     Edge 108, Type (0, 0), BuildingBlock: OJICUG_clean_linker_0, # of connection points: 2
#     Edge 109, Type (0, 0), BuildingBlock: OJICUG_clean_linker_0, # of connection points: 2
#     Edge 110, Type (0, 0), BuildingBlock: OJICUG_clean_linker_0, # of connection points: 2
#     Edge 111, Type (0, 0), BuildingBlock: OJICUG_clean_linker_0, # of connection points: 2
#     Edge 112, Type (0, 0), BuildingBlock: OJICUG_clean_linker_0, # of connection points: 2
#     Edge 113, Type (0, 0), BuildingBlock: OJICUG_clean_linker_0, # of connection points: 2
#     Edge 114, Type (0, 0), BuildingBlock: OJICUG_clean_linker_0, # of connection points: 2
#     Edge 115, Type (0, 0), BuildingBlock: OJICUG_clean_linker_0, # of connection points: 2
#     Edge 116, Type (0, 0), BuildingBlock: OJICUG_clean_linker_0, # of connection points: 2
#     Edge 117, Type (0, 0), BuildingBlock: OJICUG_clean_linker_0, # of connection points: 2
#     Edge 118, Type (0, 0), BuildingBlock: OJICUG_clean_linker_0, # of connection points: 2
#     Edge 119, Type (0, 0), BuildingBlock: OJICUG_clean_linker_0, # of connection points: 2
#     Edge 120, Type (0, 0), BuildingBlock: OJICUG_clean_linker_0, # of connection points: 2
#     Edge 121, Type (0, 0), BuildingBlock: OJICUG_clean_linker_0, # of connection points: 2
#     Edge 122, Type (0, 0), BuildingBlock: OJICUG_clean_linker_0, # of connection points: 2
#     Edge 123, Type (0, 0), BuildingBlock: OJICUG_clean_linker_0, # of connection points: 2
#     Edge 124, Type (0, 0), BuildingBlock: OJICUG_clean_linker_0, # of connection points: 2
#     Edge 125, Type (0, 0), BuildingBlock: OJICUG_clean_linker_0, # of connection points: 2
#     Edge 126, Type (0, 0), BuildingBlock: OJICUG_clean_linker_0, # of connection points: 2
#     Edge 127, Type (0, 0), BuildingBlock: OJICUG_clean_linker_0, # of connection points: 2
#     Edge 128, Type (0, 0), BuildingBlock: OJICUG_clean_linker_0, # of connection points: 2
#     Edge 129, Type (0, 0), BuildingBlock: OJICUG_clean_linker_0, # of connection points: 2
#     Edge 130, Type (0, 0), BuildingBlock: OJICUG_clean_linker_0, # of connection points: 2
#     Edge 131, Type (0, 0), BuildingBlock: OJICUG_clean_linker_0, # of connection points: 2
#     Edge 132, Type (0, 0), BuildingBlock: OJICUG_clean_linker_0, # of connection points: 2
#     Edge 133, Type (0, 0), BuildingBlock: OJICUG_clean_linker_0, # of connection points: 2
#     Edge 134, Type (0, 0), BuildingBlock: OJICUG_clean_linker_0, # of connection points: 2
#     Edge 135, Type (0, 0), BuildingBlock: OJICUG_clean_linker_0, # of connection points: 2
#     Edge 136, Type (0, 0), BuildingBlock: OJICUG_clean_linker_0, # of connection points: 2
#     Edge 137, Type (0, 0), BuildingBlock: OJICUG_clean_linker_0, # of connection points: 2
#     Edge 138, Type (0, 0), BuildingBlock: OJICUG_clean_linker_0, # of connection points: 2
#     Edge 139, Type (0, 0), BuildingBlock: OJICUG_clean_linker_0, # of connection points: 2
#     Edge 140, Type (0, 0), BuildingBlock: OJICUG_clean_linker_0, # of connection points: 2
#     Edge 141, Type (0, 0), BuildingBlock: OJICUG_clean_linker_0, # of connection points: 2
#     Edge 142, Type (0, 0), BuildingBlock: OJICUG_clean_linker_0, # of connection points: 2
#     Edge 143, Type (0, 0), BuildingBlock: OJICUG_clean_linker_0, # of connection points: 2
#     Edge 144, Type (0, 0), BuildingBlock: OJICUG_clean_linker_0, # of connection points: 2
#     Edge 145, Type (0, 0), BuildingBlock: OJICUG_clean_linker_0, # of connection points: 2
#     Edge 146, Type (0, 0), BuildingBlock: OJICUG_clean_linker_0, # of connection points: 2
#     Edge 147, Type (0, 0), BuildingBlock: OJICUG_clean_linker_0, # of connection points: 2
#     Edge 148, Type (0, 0), BuildingBlock: OJICUG_clean_linker_0, # of connection points: 2
#     Edge 149, Type (0, 0), BuildingBlock: OJICUG_clean_linker_0, # of connection points: 2
#     Edge 150, Type (0, 0), BuildingBlock: OJICUG_clean_linker_0, # of connection points: 2
#     Edge 151, Type (0, 0), BuildingBlock: OJICUG_clean_linker_0, # of connection points: 2
#     Edge 152, Type (0, 0), BuildingBlock: OJICUG_clean_linker_0, # of connection points: 2
#     Edge 153, Type (0, 0), BuildingBlock: OJICUG_clean_linker_0, # of connection points: 2
#     Edge 154, Type (0, 0), BuildingBlock: OJICUG_clean_linker_0, # of connection points: 2
#     Edge 155, Type (0, 0), BuildingBlock: OJICUG_clean_linker_0, # of connection points: 2
#     Edge 156, Type (0, 0), BuildingBlock: OJICUG_clean_linker_0, # of connection points: 2
#     Edge 157, Type (0, 0), BuildingBlock: OJICUG_clean_linker_0, # of connection points: 2
#     Edge 158, Type (0, 0), BuildingBlock: OJICUG_clean_linker_0, # of connection points: 2
#     Edge 159, Type (0, 0), BuildingBlock: OJICUG_clean_linker_0, # of connection points: 2
#     Edge 160, Type (0, 0), BuildingBlock: OJICUG_clean_linker_0, # of connection points: 2
#     Edge 161, Type (0, 0), BuildingBlock: OJICUG_clean_linker_0, # of connection points: 2
#     Edge 162, Type (0, 0), BuildingBlock: OJICUG_clean_linker_0, # of connection points: 2
#     Edge 163, Type (0, 0), BuildingBlock: OJICUG_clean_linker_0, # of connection points: 2
#     Edge 164, Type (0, 0), BuildingBlock: OJICUG_clean_linker_0, # of connection points: 2
#     Edge 165, Type (0, 0), BuildingBlock: OJICUG_clean_linker_0, # of connection points: 2
#     Edge 166, Type (0, 0), BuildingBlock: OJICUG_clean_linker_0, # of connection points: 2
#     Edge 167, Type (0, 0), BuildingBlock: OJICUG_clean_linker_0, # of connection points: 2
#     Edge 168, Type (0, 0), BuildingBlock: OJICUG_clean_linker_0, # of connection points: 2
#     Edge 169, Type (0, 0), BuildingBlock: OJICUG_clean_linker_0, # of connection points: 2
#     Edge 170, Type (0, 0), BuildingBlock: OJICUG_clean_linker_0, # of connection points: 2
#     Edge 171, Type (0, 0), BuildingBlock: OJICUG_clean_linker_0, # of connection points: 2
#     Edge 172, Type (0, 0), BuildingBlock: OJICUG_clean_linker_0, # of connection points: 2
#     Edge 173, Type (0, 0), BuildingBlock: OJICUG_clean_linker_0, # of connection points: 2
#     Edge 174, Type (0, 0), BuildingBlock: OJICUG_clean_linker_0, # of connection points: 2
#     Edge 175, Type (0, 0), BuildingBlock: OJICUG_clean_linker_0, # of connection points: 2
#     Edge 176, Type (0, 0), BuildingBlock: OJICUG_clean_linker_0, # of connection points: 2
#     Edge 177, Type (0, 0), BuildingBlock: OJICUG_clean_linker_0, # of connection points: 2
#     Edge 178, Type (0, 0), BuildingBlock: OJICUG_clean_linker_0, # of connection points: 2
#     Edge 179, Type (0, 0), BuildingBlock: OJICUG_clean_linker_0, # of connection points: 2
#     Edge 180, Type (0, 0), BuildingBlock: OJICUG_clean_linker_0, # of connection points: 2
#     Edge 181, Type (0, 0), BuildingBlock: OJICUG_clean_linker_0, # of connection points: 2
#     Edge 182, Type (0, 0), BuildingBlock: OJICUG_clean_linker_0, # of connection points: 2
#     Edge 183, Type (0, 0), BuildingBlock: OJICUG_clean_linker_0, # of connection points: 2
#     Edge 184, Type (0, 0), BuildingBlock: OJICUG_clean_linker_0, # of connection points: 2
#     Edge 185, Type (0, 0), BuildingBlock: OJICUG_clean_linker_0, # of connection points: 2
#     Edge 186, Type (0, 0), BuildingBlock: OJICUG_clean_linker_0, # of connection points: 2
#     Edge 187, Type (0, 0), BuildingBlock: OJICUG_clean_linker_0, # of connection points: 2
#     Edge 188, Type (0, 0), BuildingBlock: OJICUG_clean_linker_0, # of connection points: 2
#     Edge 189, Type (0, 0), BuildingBlock: OJICUG_clean_linker_0, # of connection points: 2
#     Edge 190, Type (0, 0), BuildingBlock: OJICUG_clean_linker_0, # of connection points: 2
#     Edge 191, Type (0, 0), BuildingBlock: OJICUG_clean_linker_0, # of connection points: 2
#     Edge 192, Type (0, 0), BuildingBlock: OJICUG_clean_linker_0, # of connection points: 2
#     Edge 193, Type (0, 0), BuildingBlock: OJICUG_clean_linker_0, # of connection points: 2
#     Edge 194, Type (0, 0), BuildingBlock: OJICUG_clean_linker_0, # of connection points: 2
#     Edge 195, Type (0, 0), BuildingBlock: OJICUG_clean_linker_0, # of connection points: 2
#     Edge 196, Type (0, 0), BuildingBlock: OJICUG_clean_linker_0, # of connection points: 2
#     Edge 197, Type (0, 0), BuildingBlock: OJICUG_clean_linker_0, # of connection points: 2
#     Edge 198, Type (0, 0), BuildingBlock: OJICUG_clean_linker_0, # of connection points: 2
#     Edge 199, Type (0, 0), BuildingBlock: OJICUG_clean_linker_0, # of connection points: 2
#     Edge 200, Type (0, 0), BuildingBlock: OJICUG_clean_linker_0, # of connection points: 2
#     Edge 201, Type (0, 0), BuildingBlock: OJICUG_clean_linker_0, # of connection points: 2
#     Edge 202, Type (0, 0), BuildingBlock: OJICUG_clean_linker_0, # of connection points: 2
#     Edge 203, Type (0, 0), BuildingBlock: OJICUG_clean_linker_0, # of connection points: 2
#     Edge 204, Type (0, 0), BuildingBlock: OJICUG_clean_linker_0, # of connection points: 2
#     Edge 205, Type (0, 0), BuildingBlock: OJICUG_clean_linker_0, # of connection points: 2
#     Edge 206, Type (0, 0), BuildingBlock: OJICUG_clean_linker_0, # of connection points: 2
#     Edge 207, Type (0, 0), BuildingBlock: OJICUG_clean_linker_0, # of connection points: 2
#     Edge 208, Type (0, 0), BuildingBlock: OJICUG_clean_linker_0, # of connection points: 2
#     Edge 209, Type (0, 0), BuildingBlock: OJICUG_clean_linker_0, # of connection points: 2
#     Edge 210, Type (0, 0), BuildingBlock: OJICUG_clean_linker_0, # of connection points: 2
#     Edge 211, Type (0, 0), BuildingBlock: OJICUG_clean_linker_0, # of connection points: 2
#     Edge 212, Type (0, 0), BuildingBlock: OJICUG_clean_linker_0, # of connection points: 2
#     Edge 213, Type (0, 0), BuildingBlock: OJICUG_clean_linker_0, # of connection points: 2
#     Edge 214, Type (0, 0), BuildingBlock: OJICUG_clean_linker_0, # of connection points: 2
#     Edge 215, Type (0, 0), BuildingBlock: OJICUG_clean_linker_0, # of connection points: 2
#     Edge 216, Type (0, 0), BuildingBlock: OJICUG_clean_linker_0, # of connection points: 2
#     Edge 217, Type (0, 0), BuildingBlock: OJICUG_clean_linker_0, # of connection points: 2
#     Edge 218, Type (0, 0), BuildingBlock: OJICUG_clean_linker_0, # of connection points: 2
#     Edge 219, Type (0, 0), BuildingBlock: OJICUG_clean_linker_0, # of connection points: 2
#     Edge 220, Type (0, 0), BuildingBlock: OJICUG_clean_linker_0, # of connection points: 2
#     Edge 221, Type (0, 0), BuildingBlock: OJICUG_clean_linker_0, # of connection points: 2
#     Edge 222, Type (0, 0), BuildingBlock: OJICUG_clean_linker_0, # of connection points: 2
#     Edge 223, Type (0, 0), BuildingBlock: OJICUG_clean_linker_0, # of connection points: 2
#     Edge 224, Type (0, 0), BuildingBlock: OJICUG_clean_linker_0, # of connection points: 2
#     Edge 225, Type (0, 0), BuildingBlock: OJICUG_clean_linker_0, # of connection points: 2
#     Edge 226, Type (0, 0), BuildingBlock: OJICUG_clean_linker_0, # of connection points: 2
#     Edge 227, Type (0, 0), BuildingBlock: OJICUG_clean_linker_0, # of connection points: 2
#     Edge 228, Type (0, 0), BuildingBlock: OJICUG_clean_linker_0, # of connection points: 2
#     Edge 229, Type (0, 0), BuildingBlock: OJICUG_clean_linker_0, # of connection points: 2
#     Edge 230, Type (0, 0), BuildingBlock: OJICUG_clean_linker_0, # of connection points: 2
#     Edge 231, Type (0, 0), BuildingBlock: OJICUG_clean_linker_0, # of connection points: 2
#     Edge 232, Type (0, 0), BuildingBlock: OJICUG_clean_linker_0, # of connection points: 2
#     Edge 233, Type (0, 0), BuildingBlock: OJICUG_clean_linker_0, # of connection points: 2
#     Edge 234, Type (0, 0), BuildingBlock: OJICUG_clean_linker_0, # of connection points: 2
#     Edge 235, Type (0, 0), BuildingBlock: OJICUG_clean_linker_0, # of connection points: 2
#     Edge 236, Type (0, 0), BuildingBlock: OJICUG_clean_linker_0, # of connection points: 2
#     Edge 237, Type (0, 0), BuildingBlock: OJICUG_clean_linker_0, # of connection points: 2
#     Edge 238, Type (0, 0), BuildingBlock: OJICUG_clean_linker_0, # of connection points: 2
#     Edge 239, Type (0, 0), BuildingBlock: OJICUG_clean_linker_0, # of connection points: 2
#     Edge 240, Type (0, 0), BuildingBlock: OJICUG_clean_linker_0, # of connection points: 2
#     Edge 241, Type (0, 0), BuildingBlock: OJICUG_clean_linker_0, # of connection points: 2
#     Edge 242, Type (0, 0), BuildingBlock: OJICUG_clean_linker_0, # of connection points: 2
#     Edge 243, Type (0, 0), BuildingBlock: OJICUG_clean_linker_0, # of connection points: 2
#     Edge 244, Type (0, 0), BuildingBlock: OJICUG_clean_linker_0, # of connection points: 2
#     Edge 245, Type (0, 0), BuildingBlock: OJICUG_clean_linker_0, # of connection points: 2
#     Edge 246, Type (0, 0), BuildingBlock: OJICUG_clean_linker_0, # of connection points: 2
#     Edge 247, Type (0, 0), BuildingBlock: OJICUG_clean_linker_0, # of connection points: 2
#     Edge 248, Type (0, 0), BuildingBlock: OJICUG_clean_linker_0, # of connection points: 2
#     Edge 249, Type (0, 0), BuildingBlock: OJICUG_clean_linker_0, # of connection points: 2
#     Edge 250, Type (0, 0), BuildingBlock: OJICUG_clean_linker_0, # of connection points: 2
#     Edge 251, Type (0, 0), BuildingBlock: OJICUG_clean_linker_0, # of connection points: 2
#     Edge 252, Type (0, 0), BuildingBlock: OJICUG_clean_linker_0, # of connection points: 2
#     Edge 253, Type (0, 0), BuildingBlock: OJICUG_clean_linker_0, # of connection points: 2
#     Edge 254, Type (0, 0), BuildingBlock: OJICUG_clean_linker_0, # of connection points: 2
#     Edge 255, Type (0, 0), BuildingBlock: OJICUG_clean_linker_0, # of connection points: 2
#     Edge 256, Type (0, 0), BuildingBlock: OJICUG_clean_linker_0, # of connection points: 2
#     Edge 257, Type (0, 0), BuildingBlock: OJICUG_clean_linker_0, # of connection points: 2
#     Edge 258, Type (0, 0), BuildingBlock: OJICUG_clean_linker_0, # of connection points: 2
#     Edge 259, Type (0, 0), BuildingBlock: OJICUG_clean_linker_0, # of connection points: 2
#     Edge 260, Type (0, 0), BuildingBlock: OJICUG_clean_linker_0, # of connection points: 2
#     Edge 261, Type (0, 0), BuildingBlock: OJICUG_clean_linker_0, # of connection points: 2
#     Edge 262, Type (0, 0), BuildingBlock: OJICUG_clean_linker_0, # of connection points: 2
#     Edge 263, Type (0, 0), BuildingBlock: OJICUG_clean_linker_0, # of connection points: 2
#     Edge 264, Type (0, 0), BuildingBlock: OJICUG_clean_linker_0, # of connection points: 2
#     Edge 265, Type (0, 0), BuildingBlock: OJICUG_clean_linker_0, # of connection points: 2
#     Edge 266, Type (0, 0), BuildingBlock: OJICUG_clean_linker_0, # of connection points: 2
#     Edge 267, Type (0, 0), BuildingBlock: OJICUG_clean_linker_0, # of connection points: 2
#     Edge 268, Type (0, 0), BuildingBlock: OJICUG_clean_linker_0, # of connection points: 2
#     Edge 269, Type (0, 0), BuildingBlock: OJICUG_clean_linker_0, # of connection points: 2
#     Edge 270, Type (0, 0), BuildingBlock: OJICUG_clean_linker_0, # of connection points: 2
#     Edge 271, Type (0, 0), BuildingBlock: OJICUG_clean_linker_0, # of connection points: 2
#     Edge 272, Type (0, 0), BuildingBlock: OJICUG_clean_linker_0, # of connection points: 2
#     Edge 273, Type (0, 0), BuildingBlock: OJICUG_clean_linker_0, # of connection points: 2
#     Edge 274, Type (0, 0), BuildingBlock: OJICUG_clean_linker_0, # of connection points: 2
#     Edge 275, Type (0, 0), BuildingBlock: OJICUG_clean_linker_0, # of connection points: 2
#     Edge 276, Type (0, 0), BuildingBlock: OJICUG_clean_linker_0, # of connection points: 2
#     Edge 277, Type (0, 0), BuildingBlock: OJICUG_clean_linker_0, # of connection points: 2
#     Edge 278, Type (0, 0), BuildingBlock: OJICUG_clean_linker_0, # of connection points: 2
#     Edge 279, Type (0, 0), BuildingBlock: OJICUG_clean_linker_0, # of connection points: 2
#     Edge 280, Type (0, 0), BuildingBlock: OJICUG_clean_linker_0, # of connection points: 2
#     Edge 281, Type (0, 0), BuildingBlock: OJICUG_clean_linker_0, # of connection points: 2
#     Edge 282, Type (0, 0), BuildingBlock: OJICUG_clean_linker_0, # of connection points: 2
#     Edge 283, Type (0, 0), BuildingBlock: OJICUG_clean_linker_0, # of connection points: 2
#     Edge 284, Type (0, 0), BuildingBlock: OJICUG_clean_linker_0, # of connection points: 2
#     Edge 285, Type (0, 0), BuildingBlock: OJICUG_clean_linker_0, # of connection points: 2
#     Edge 286, Type (0, 0), BuildingBlock: OJICUG_clean_linker_0, # of connection points: 2
#     Edge 287, Type (0, 0), BuildingBlock: OJICUG_clean_linker_0, # of connection points: 2
# Relax obj value: 0.403
# Max RMSD: 0.141
# Mean RMSD: 0.141
data_MOF--net-ulg--node1-QUQFOY_clean_sbu_1--edge1-OJICUG_clean_linker_0
_symmetry_space_group_name_H-M    P1
_symmetry_Int_Tables_number       1
_symmetry_cell_setting            triclinic
loop_
_symmetry_equiv_pos_as_xyz
'x, y, z'
_cell_length_a     76.331428
_cell_length_b     76.326873
_cell_length_c     76.326901
_cell_angle_alpha  89.996987
_cell_angle_beta   89.994107
_cell_angle_gamma 89.995884
loop_
_atom_site_label
_atom_site_type_symbol
_atom_site_fract_x
_atom_site_fract_y
_atom_site_fract_z
_atom_type_partial_charge
O0 O 0.04949 0.55791 0.13057 0.0
Cd1 Cd 0.05853 0.53387 0.13834 0.0
Cd2 Cd 0.07583 0.55448 0.1592 0.0
O3 O 0.05639 0.57272 0.15425 0.0
O4 O 0.04201 0.5187 0.12538 0.0
O5 O 0.04246 0.52019 0.15429 0.0
C6 C 0.03498 0.51463 0.14016 0.0
C7 C 0.09054 0.54963 0.18532 0.0
C8 C 0.04848 0.5718 0.13963 0.0
C9 C 0.09544 0.53831 0.12974 0.0
O10 O 0.09387 0.55175 0.13941 0.0
O11 O 0.08312 0.5271 0.12911 0.0
O12 O 0.0902 0.56487 0.17807 0.0
O13 O 0.0806 0.53753 0.17892 0.0
O14 O 0.68895 0.29971 0.38191 0.0
Cd15 Cd 0.71362 0.30787 0.38854 0.0
Cd16 Cd 0.69398 0.32753 0.40931 0.0
O17 O 0.67453 0.30913 0.40499 0.0
O18 O 0.7274 0.29016 0.37553 0.0
O19 O 0.72736 0.29172 0.40443 0.0
C20 C 0.73194 0.28351 0.39035 0.0
C21 C 0.69832 0.34343 0.43492 0.0
C22 C 0.675 0.30025 0.3909 0.0
C23 C 0.71087 0.34468 0.37844 0.0
O24 O 0.69785 0.34446 0.38878 0.0
O25 O 0.7212 0.33161 0.37781 0.0
O26 O 0.68349 0.3434 0.42692 0.0
O27 O 0.71029 0.33277 0.42955 0.0
O28 O 0.94577 0.93815 0.6317 0.0
Cd29 Cd 0.93661 0.96225 0.63915 0.0
Cd30 Cd 0.91912 0.94161 0.65987 0.0
O31 O 0.9385 0.92325 0.65521 0.0
O32 O 0.95286 0.97715 0.62552 0.0
O33 O 0.95296 0.97637 0.65445 0.0
C34 C 0.96016 0.98159 0.64005 0.0
C35 C 0.90458 0.94737 0.68588 0.0
C36 C 0.94665 0.92424 0.64072 0.0
C37 C 0.89974 0.95757 0.63023 0.0
O38 O 0.90123 0.94414 0.63993 0.0
O39 O 0.91202 0.96883 0.62978 0.0
O40 O 0.9047 0.93193 0.67907 0.0
O41 O 0.91466 0.95916 0.6791 0.0
O42 O 0.30841 0.2001 0.87976 0.0
Cd43 Cd 0.2842 0.19124 0.88724 0.0
Cd44 Cd 0.30422 0.17411 0.90875 0.0
O45 O 0.32273 0.19329 0.90378 0.0
O46 O 0.26906 0.20799 0.87453 0.0
O47 O 0.27058 0.20707 0.90345 0.0
C48 C 0.26498 0.21476 0.88944 0.0
C49 C 0.29917 0.15959 0.93495 0.0
C50 C 0.32216 0.20103 0.88903 0.0
C51 C 0.28856 0.15424 0.87912 0.0
O52 O 0.3017 0.15582 0.88918 0.0
O53 O 0.27749 0.16665 0.87796 0.0
O54 O 0.31446 0.1599 0.92782 0.0
O55 O 0.28712 0.16949 0.92839 0.0
O56 O 0.04746 0.44005 0.86499 0.0
Cd57 Cd 0.05642 0.46437 0.85798 0.0
Cd58 Cd 0.07543 0.44403 0.83774 0.0
O59 O 0.05652 0.42511 0.84211 0.0
O60 O 0.03918 0.47906 0.87063 0.0
O61 O 0.04084 0.47837 0.84175 0.0
C62 C 0.0328 0.48359 0.8557 0.0
C63 C 0.09112 0.44886 0.81214 0.0
C64 C 0.04763 0.42598 0.85618 0.0
C65 C 0.09314 0.46065 0.86824 0.0
O66 O 0.09252 0.44739 0.85822 0.0
O67 O 0.08041 0.4714 0.86856 0.0
O68 O 0.09092 0.43377 0.81967 0.0
O69 O 0.08062 0.4608 0.81793 0.0
O70 O 0.81027 0.29965 0.11429 0.0
Cd71 Cd 0.786 0.30854 0.10707 0.0
Cd72 Cd 0.80647 0.32687 0.08657 0.0
O73 O 0.82534 0.30799 0.09122 0.0
O74 O 0.77142 0.29178 0.12046 0.0
O75 O 0.77192 0.29234 0.09153 0.0
C76 C 0.76687 0.28478 0.10581 0.0
C77 C 0.8008 0.34165 0.06065 0.0
C78 C 0.82436 0.29945 0.10549 0.0
C79 C 0.79001 0.34545 0.11654 0.0
O80 O 0.80337 0.34447 0.10668 0.0
O81 O 0.77909 0.33286 0.11696 0.0
O82 O 0.81612 0.34177 0.06772 0.0
O83 O 0.78911 0.33125 0.06712 0.0
O84 O 0.95058 0.05938 0.36511 0.0
Cd85 Cd 0.94127 0.03528 0.35783 0.0
Cd86 Cd 0.9228 0.05597 0.33783 0.0
O87 O 0.94198 0.07459 0.34224 0.0
O88 O 0.9582 0.02022 0.37043 0.0
O89 O 0.95675 0.02123 0.34155 0.0
C90 C 0.96465 0.01579 0.35549 0.0
C91 C 0.90747 0.05057 0.31218 0.0
C92 C 0.95075 0.0735 0.35636 0.0
C93 C 0.9046 0.03955 0.36804 0.0
O94 O 0.90553 0.05295 0.35822 0.0
O95 O 0.9171 0.02853 0.36819 0.0
O96 O 0.90764 0.06586 0.3193 0.0
O97 O 0.91789 0.03875 0.31839 0.0
O98 O 0.18688 0.19899 0.61385 0.0
Cd99 Cd 0.21154 0.19055 0.60751 0.0
Cd100 Cd 0.19145 0.16996 0.58768 0.0
O101 O 0.17178 0.18812 0.59185 0.0
O102 O 0.22514 0.20825 0.62077 0.0
O103 O 0.22585 0.2066 0.59192 0.0
C104 C 0.23018 0.21478 0.60608 0.0
C105 C 0.19617 0.15394 0.56221 0.0
C106 C 0.17263 0.19778 0.6054 0.0
C107 C 0.20875 0.1539 0.61885 0.0
O108 O 0.19567 0.15362 0.60859 0.0
O109 O 0.21899 0.16705 0.61891 0.0
O110 O 0.18136 0.15363 0.57025 0.0
O111 O 0.2079 0.16491 0.56751 0.0
O112 O 0.12913 0.04875 0.55591 0.0
Cd113 Cd 0.13828 0.05967 0.53315 0.0
Cd114 Cd 0.15866 0.07364 0.55539 0.0
O115 O 0.15305 0.0525 0.5714 0.0
O116 O 0.12604 0.04499 0.51571 0.0
O117 O 0.1548 0.04438 0.51936 0.0
C118 C 0.14092 0.0378 0.51223 0.0
C119 C 0.1849 0.08727 0.54929 0.0
C120 C 0.138 0.04559 0.56959 0.0
C121 C 0.13095 0.09622 0.54095 0.0
O122 O 0.13964 0.09268 0.55469 0.0
O123 O 0.13062 0.08527 0.52839 0.0
O124 O 0.17911 0.08609 0.56513 0.0
O125 O 0.17707 0.07832 0.53722 0.0
O126 O 0.19982 0.38282 0.80933 0.0
Cd127 Cd 0.19086 0.39032 0.78515 0.0
Cd128 Cd 0.1729 0.41098 0.80575 0.0
O129 O 0.19194 0.40605 0.82439 0.0
O130 O 0.20749 0.37722 0.77016 0.0
O131 O 0.20683 0.40613 0.77113 0.0
C132 C 0.21434 0.39197 0.76571 0.0
C133 C 0.15798 0.43694 0.80064 0.0
C134 C 0.20023 0.39163 0.82341 0.0
C135 C 0.15389 0.3813 0.78932 0.0
O136 O 0.15512 0.39106 0.80272 0.0
O137 O 0.1664 0.38073 0.77832 0.0
O138 O 0.15815 0.42972 0.81588 0.0
O139 O 0.16822 0.43065 0.78872 0.0
O140 O 0.86642 0.44855 0.05909 0.0
Cd141 Cd 0.85863 0.43897 0.03524 0.0
Cd142 Cd 0.83797 0.42217 0.05617 0.0
O143 O 0.84297 0.44167 0.07429 0.0
O144 O 0.87182 0.45489 0.0196 0.0
O145 O 0.84291 0.45481 0.02101 0.0
C146 C 0.85713 0.46191 0.01519 0.0
C147 C 0.81184 0.40819 0.04983 0.0
C148 C 0.85755 0.44963 0.0731 0.0
C149 C 0.8671 0.40201 0.0405 0.0
O150 O 0.85755 0.40384 0.05399 0.0
O151 O 0.86765 0.41412 0.02906 0.0
O152 O 0.81822 0.40828 0.06547 0.0
O153 O 0.8191 0.41814 0.0382 0.0
O154 O 0.79809 0.11495 0.31086 0.0
Cd155 Cd 0.80717 0.1077 0.28666 0.0
Cd156 Cd 0.82546 0.08735 0.30723 0.0
O157 O 0.80641 0.09189 0.32595 0.0
O158 O 0.79045 0.12092 0.27188 0.0
O159 O 0.79123 0.092 0.27245 0.0
C160 C 0.78364 0.1062 0.26727 0.0
C161 C 0.84048 0.06158 0.30157 0.0
C162 C 0.79784 0.10614 0.32494 0.0
C163 C 0.84401 0.11732 0.29084 0.0
O164 O 0.84297 0.10754 0.30425 0.0
O165 O 0.83149 0.11765 0.27985 0.0
O166 O 0.84043 0.06857 0.31693 0.0
O167 O 0.83008 0.06799 0.28985 0.0
O168 O 0.13091 0.95245 0.43667 0.0
Cd169 Cd 0.13794 0.94501 0.46146 0.0
Cd170 Cd 0.15884 0.92538 0.44242 0.0
O171 O 0.15405 0.94301 0.42239 0.0
O172 O 0.12519 0.96311 0.47495 0.0
O173 O 0.15409 0.96137 0.47462 0.0
C174 C 0.14011 0.96976 0.47917 0.0
C175 C 0.18487 0.91046 0.44755 0.0
C176 C 0.13981 0.95164 0.42267 0.0
C177 C 0.12845 0.90799 0.45986 0.0
O178 O 0.13876 0.90803 0.44682 0.0
O179 O 0.12757 0.92136 0.46977 0.0
O180 O 0.17703 0.90972 0.43265 0.0
O181 O 0.17906 0.92139 0.45908 0.0
O182 O 0.29699 0.38187 0.68785 0.0
Cd183 Cd 0.30561 0.38894 0.71227 0.0
Cd184 Cd 0.32476 0.40934 0.69218 0.0
O185 O 0.30628 0.40467 0.67292 0.0
O186 O 0.28825 0.3762 0.72674 0.0
O187 O 0.28984 0.40508 0.72617 0.0
C188 C 0.28179 0.3911 0.73127 0.0
C189 C 0.33997 0.43523 0.69709 0.0
C190 C 0.29741 0.39059 0.67371 0.0
C191 C 0.34248 0.37896 0.7091 0.0
O192 O 0.34205 0.38909 0.69592 0.0
O193 O 0.32954 0.37844 0.71959 0.0
O194 O 0.34017 0.42756 0.68207 0.0
O195 O 0.32938 0.42935 0.7089 0.0
O196 O 0.86776 0.54667 0.93824 0.0
Cd197 Cd 0.86131 0.55412 0.9632 0.0
Cd198 Cd 0.84033 0.57469 0.94435 0.0
O199 O 0.84493 0.55717 0.92417 0.0
O200 O 0.87392 0.53578 0.97654 0.0
O201 O 0.84508 0.53812 0.97672 0.0
C202 C 0.85896 0.52952 0.98117 0.0
C203 C 0.81459 0.59057 0.94833 0.0
C204 C 0.85888 0.54806 0.92427 0.0
C205 C 0.87145 0.59104 0.96186 0.0
O206 O 0.86076 0.59149 0.94914 0.0
O207 O 0.87242 0.57744 0.97144 0.0
O208 O 0.82316 0.59103 0.93384 0.0
O209 O 0.81954 0.57956 0.96016 0.0
O210 O 0.70155 0.11728 0.18967 0.0
Cd211 Cd 0.69257 0.10967 0.2138 0.0
Cd212 Cd 0.6745 0.08923 0.19335 0.0
O213 O 0.69349 0.0941 0.17464 0.0
O214 O 0.7095 0.12222 0.22889 0.0
O215 O 0.70826 0.09333 0.22749 0.0
C216 C 0.71609 0.10726 0.23307 0.0
C217 C 0.65978 0.06318 0.19859 0.0
C218 C 0.70187 0.10846 0.17559 0.0
C219 C 0.65568 0.11901 0.20989 0.0
O220 O 0.65674 0.10918 0.19652 0.0
O221 O 0.66827 0.11953 0.2208 0.0
O222 O 0.65974 0.07043 0.18336 0.0
O223 O 0.67006 0.06954 0.21044 0.0
O224 O 0.55771 0.13008 0.05076 0.0
Cd225 Cd 0.53369 0.13797 0.05972 0.0
Cd226 Cd 0.55425 0.15881 0.07706 0.0
O227 O 0.57256 0.15373 0.05771 0.0
O228 O 0.51851 0.12529 0.043 0.0
O229 O 0.52028 0.15419 0.04371 0.0
C230 C 0.51466 0.14017 0.03606 0.0
C231 C 0.54982 0.18506 0.09172 0.0
C232 C 0.57162 0.1391 0.0498 0.0
C233 C 0.53792 0.12931 0.0966 0.0
O234 O 0.55131 0.13906 0.09511 0.0
O235 O 0.52678 0.12864 0.08422 0.0
O236 O 0.56491 0.17753 0.09143 0.0
O237 O 0.5376 0.17881 0.08182 0.0
O238 O 0.0581 0.86966 0.44951 0.0
Cd239 Cd 0.03402 0.86147 0.44093 0.0
Cd240 Cd 0.05451 0.84057 0.4236 0.0
O241 O 0.07316 0.84617 0.44247 0.0
O242 O 0.01876 0.87397 0.45775 0.0
O243 O 0.02091 0.84509 0.45704 0.0
C244 C 0.01508 0.85903 0.46468 0.0
C245 C 0.04958 0.81415 0.40946 0.0
C246 C 0.07218 0.86087 0.45024 0.0
C247 C 0.03773 0.86958 0.40379 0.0
O248 O 0.05121 0.85994 0.40524 0.0
O249 O 0.0268 0.87043 0.41634 0.0
O250 O 0.06476 0.82151 0.40938 0.0
O251 O 0.03764 0.82062 0.41956 0.0
O252 O 0.37962 0.3077 0.69932 0.0
Cd253 Cd 0.38697 0.28331 0.69086 0.0
Cd254 Cd 0.40772 0.30314 0.67205 0.0
O255 O 0.40276 0.32238 0.69049 0.0
O256 O 0.37466 0.26856 0.70826 0.0
O257 O 0.40353 0.2699 0.70655 0.0
C258 C 0.38971 0.26443 0.71465 0.0
C259 C 0.43393 0.29866 0.65725 0.0
C260 C 0.38849 0.32175 0.69906 0.0
C261 C 0.37754 0.28623 0.6539 0.0
O262 O 0.38775 0.29934 0.65442 0.0
O263 O 0.37676 0.27581 0.66689 0.0
O264 O 0.42601 0.31354 0.65694 0.0
O265 O 0.42803 0.2867 0.66765 0.0
O266 O 0.94192 0.62859 0.94913 0.0
Cd267 Cd 0.96563 0.63725 0.94002 0.0
Cd268 Cd 0.9447 0.65823 0.92391 0.0
O269 O 0.92683 0.65241 0.94345 0.0
O270 O 0.98158 0.6249 0.95626 0.0
O271 O 0.97866 0.65373 0.95604 0.0
C272 C 0.98496 0.63982 0.96337 0.0
C273 C 0.94947 0.68487 0.9102 0.0
C274 C 0.92798 0.63748 0.95073 0.0
C275 C 0.96086 0.62975 0.90298 0.0
O276 O 0.94731 0.63915 0.90511 0.0
O277 O 0.97229 0.62889 0.91508 0.0
O278 O 0.9342 0.67768 0.91045 0.0
O279 O 0.96165 0.67806 0.91977 0.0
O280 O 0.11971 0.69092 0.20182 0.0
Cd281 Cd 0.11236 0.71537 0.19357 0.0
Cd282 Cd 0.09138 0.69546 0.1747 0.0
O283 O 0.09642 0.67633 0.19325 0.0
O284 O 0.12468 0.72992 0.21116 0.0
O285 O 0.09581 0.72865 0.20939 0.0
C286 C 0.10963 0.73397 0.2176 0.0
C287 C 0.06541 0.69903 0.1592 0.0
C288 C 0.11078 0.67691 0.20167 0.0
C289 C 0.12161 0.71255 0.15662 0.0
O290 O 0.11142 0.69943 0.15722 0.0
O291 O 0.12251 0.72297 0.16959 0.0
O292 O 0.0737 0.68436 0.15933 0.0
O293 O 0.07072 0.71128 0.16957 0.0
O294 O 0.43987 0.86583 0.04826 0.0
Cd295 Cd 0.46413 0.85848 0.05708 0.0
Cd296 Cd 0.4437 0.83795 0.07558 0.0
O297 O 0.42486 0.84276 0.0567 0.0
O298 O 0.47888 0.87128 0.04002 0.0
O299 O 0.47789 0.84238 0.04117 0.0
C300 C 0.48318 0.85642 0.03332 0.0
C301 C 0.44824 0.81197 0.09074 0.0
C302 C 0.42579 0.85702 0.04815 0.0
C303 C 0.46042 0.86803 0.09395 0.0
O304 O 0.44713 0.85808 0.09309 0.0
O305 O 0.47122 0.86855 0.08126 0.0
O306 O 0.43323 0.81966 0.09066 0.0
O307 O 0.46029 0.81789 0.08043 0.0
O308 O 0.38557 0.18814 0.79992 0.0
Cd309 Cd 0.39097 0.21334 0.80744 0.0
Cd310 Cd 0.41204 0.19484 0.82865 0.0
O311 O 0.40829 0.17447 0.81118 0.0
O312 O 0.37718 0.2259 0.78938 0.0
O313 O 0.40598 0.22776 0.79098 0.0
C314 C 0.39166 0.23139 0.78275 0.0
C315 C 0.43752 0.19954 0.84474 0.0
C316 C 0.39466 0.17434 0.80163 0.0
C317 C 0.38027 0.21171 0.84433 0.0
O318 O 0.39119 0.19919 0.84507 0.0
O319 O 0.37945 0.22124 0.83069 0.0
O320 O 0.42927 0.18486 0.84524 0.0
O321 O 0.43238 0.21119 0.83363 0.0
O322 O 0.61554 0.30939 0.29912 0.0
Cd323 Cd 0.60864 0.28503 0.30803 0.0
Cd324 Cd 0.58776 0.30525 0.32643 0.0
O325 O 0.5922 0.32405 0.30743 0.0
O326 O 0.62198 0.27048 0.29119 0.0
O327 O 0.59306 0.2708 0.29202 0.0
C328 C 0.60729 0.26579 0.28436 0.0
C329 C 0.56194 0.30025 0.34168 0.0
C330 C 0.6065 0.32332 0.29891 0.0
C331 C 0.61804 0.28915 0.34491 0.0
O332 O 0.60797 0.30233 0.34393 0.0
O333 O 0.61867 0.27824 0.33232 0.0
O334 O 0.56928 0.31544 0.34145 0.0
O335 O 0.56808 0.28828 0.33142 0.0
O336 O 0.04685 0.05465 0.6272 0.0
Cd337 Cd 0.0541 0.02975 0.63394 0.0
Cd338 Cd 0.07453 0.04879 0.65558 0.0
O339 O 0.05645 0.06845 0.6506 0.0
O340 O 0.03555 0.01636 0.62176 0.0
O341 O 0.03805 0.01691 0.6506 0.0
C342 C 0.02926 0.01233 0.63688 0.0
C343 C 0.09132 0.04785 0.6811 0.0
C344 C 0.04773 0.06845 0.6364 0.0
C345 C 0.09099 0.03078 0.6244 0.0
O346 O 0.09127 0.04338 0.63524 0.0
O347 O 0.07739 0.02126 0.62302 0.0
O348 O 0.09105 0.06138 0.6711 0.0
O349 O 0.08069 0.03518 0.67764 0.0
O350 O 0.68953 0.79996 0.88107 0.0
Cd351 Cd 0.71381 0.80855 0.8886 0.0
Cd352 Cd 0.69357 0.82669 0.90944 0.0
O353 O 0.67471 0.80788 0.90444 0.0
O354 O 0.72853 0.79152 0.87573 0.0
O355 O 0.72731 0.79239 0.90464 0.0
C356 C 0.73263 0.78463 0.89057 0.0
C357 C 0.69829 0.84146 0.9356 0.0
C358 C 0.67552 0.79964 0.88999 0.0
C359 C 0.71024 0.84553 0.87964 0.0
O360 O 0.69695 0.8445 0.88957 0.0
O361 O 0.72103 0.83284 0.87892 0.0
O362 O 0.68323 0.84149 0.92802 0.0
O363 O 0.71028 0.83122 0.92947 0.0
O364 O 0.95038 0.43986 0.12966 0.0
Cd365 Cd 0.94218 0.46429 0.13712 0.0
Cd366 Cd 0.92386 0.4445 0.15828 0.0
O367 O 0.94252 0.42545 0.1533 0.0
O368 O 0.95955 0.47875 0.12445 0.0
O369 O 0.95834 0.47753 0.15336 0.0
C370 C 0.96633 0.48273 0.13937 0.0
C371 C 0.90885 0.44877 0.1844 0.0
C372 C 0.95063 0.42597 0.13876 0.0
C373 C 0.90518 0.46131 0.12836 0.0
O374 O 0.90607 0.44811 0.13843 0.0
O375 O 0.91803 0.47188 0.12742 0.0
O376 O 0.90889 0.43386 0.17655 0.0
O377 O 0.91914 0.46087 0.17857 0.0
O378 O 0.30423 0.70037 0.37717 0.0
Cd379 Cd 0.2803 0.6917 0.38564 0.0
Cd380 Cd 0.30093 0.67481 0.40692 0.0
O381 O 0.31893 0.69428 0.40114 0.0
O382 O 0.26476 0.70862 0.37371 0.0
O383 O 0.26772 0.70764 0.40253 0.0
C384 C 0.26159 0.71546 0.38882 0.0
C385 C 0.29849 0.6601 0.43345 0.0
C386 C 0.31808 0.70169 0.38624 0.0
C387 C 0.28418 0.65471 0.37786 0.0
O388 O 0.29757 0.65642 0.38756 0.0
O389 O 0.2731 0.66711 0.37681 0.0
O390 O 0.31303 0.66071 0.42496 0.0
O391 O 0.28564 0.66964 0.42795 0.0
O392 O 0.04778 0.93858 0.36365 0.0
Cd393 Cd 0.05627 0.96291 0.35609 0.0
Cd394 Cd 0.07513 0.94237 0.3359 0.0
O395 O 0.05658 0.92327 0.34091 0.0
O396 O 0.03925 0.97742 0.36924 0.0
O397 O 0.03998 0.97666 0.34033 0.0
C398 C 0.03232 0.98181 0.35451 0.0
C399 C 0.09023 0.94731 0.30999 0.0
C400 C 0.04795 0.92433 0.35512 0.0
C401 C 0.09326 0.95974 0.36565 0.0
O402 O 0.09256 0.94622 0.356 0.0
O403 O 0.08044 0.97039 0.36594 0.0
O404 O 0.09039 0.93224 0.31757 0.0
O405 O 0.07963 0.9591 0.31591 0.0
O406 O 0.80652 0.79662 0.61794 0.0
Cd407 Cd 0.78232 0.80515 0.61009 0.0
Cd408 Cd 0.8025 0.82298 0.58916 0.0
O409 O 0.82132 0.80418 0.59444 0.0
O410 O 0.76732 0.78809 0.62255 0.0
O411 O 0.76913 0.78915 0.59367 0.0
C412 C 0.76349 0.78132 0.60758 0.0
C413 C 0.79788 0.83739 0.5628 0.0
C414 C 0.82053 0.79616 0.60902 0.0
C415 C 0.78576 0.8422 0.61868 0.0
O416 O 0.79908 0.84107 0.60879 0.0
O417 O 0.77499 0.8295 0.61953 0.0
O418 O 0.81292 0.8375 0.57042 0.0
O419 O 0.78586 0.82724 0.56904 0.0
O420 O 0.94991 0.56104 0.86301 0.0
Cd421 Cd 0.94124 0.53661 0.85603 0.0
Cd422 Cd 0.92187 0.55698 0.83592 0.0
O423 O 0.94041 0.57621 0.84045 0.0
O424 O 0.95837 0.52235 0.8693 0.0
O425 O 0.95734 0.52246 0.8404 0.0
C426 C 0.96513 0.5176 0.85461 0.0
C427 C 0.90651 0.55188 0.81018 0.0
C428 C 0.94944 0.57525 0.8544 0.0
C429 C 0.90436 0.53989 0.86625 0.0
O430 O 0.90478 0.55323 0.85634 0.0
O431 O 0.91725 0.52932 0.86647 0.0
O432 O 0.90633 0.56695 0.81775 0.0
O433 O 0.91719 0.54014 0.81605 0.0
O434 O 0.19131 0.69965 0.11822 0.0
Cd435 Cd 0.21515 0.69046 0.11001 0.0
Cd436 Cd 0.19424 0.67333 0.08955 0.0
O437 O 0.17608 0.69276 0.0948 0.0
O438 O 0.23076 0.70705 0.12234 0.0
O439 O 0.22841 0.70629 0.09349 0.0
C440 C 0.23442 0.7139 0.10737 0.0
C441 C 0.1992 0.6589 0.06331 0.0
C442 C 0.17727 0.70068 0.1094 0.0
C443 C 0.21065 0.65358 0.11873 0.0
O444 O 0.1971 0.65521 0.10923 0.0
O445 O 0.22193 0.66585 0.1192 0.0
O446 O 0.18394 0.65911 0.07052 0.0
O447 O 0.21125 0.66884 0.06983 0.0
O448 O 0.13359 0.54939 0.05992 0.0
Cd449 Cd 0.14019 0.55807 0.03539 0.0
Cd450 Cd 0.16104 0.57709 0.05547 0.0
O451 O 0.15668 0.55838 0.07457 0.0
O452 O 0.12654 0.5411 0.02128 0.0
O453 O 0.15545 0.54188 0.02098 0.0
C454 C 0.14111 0.53422 0.01632 0.0
C455 C 0.18679 0.59255 0.05058 0.0
C456 C 0.14255 0.54959 0.0739 0.0
C457 C 0.13049 0.59499 0.0391 0.0
O458 O 0.14068 0.59434 0.05222 0.0
O459 O 0.12988 0.5822 0.02843 0.0
O460 O 0.17924 0.59247 0.06566 0.0
O461 O 0.18088 0.5821 0.03865 0.0
O462 O 0.19899 0.88277 0.30957 0.0
Cd463 Cd 0.19023 0.88963 0.28515 0.0
Cd464 Cd 0.17206 0.91074 0.30505 0.0
O465 O 0.191 0.9064 0.32394 0.0
O466 O 0.20708 0.87626 0.27066 0.0
O467 O 0.2063 0.9052 0.27098 0.0
C468 C 0.21395 0.89094 0.266 0.0
C469 C 0.15711 0.93649 0.29909 0.0
C470 C 0.19932 0.89198 0.3234 0.0
C471 C 0.15327 0.88059 0.28921 0.0
O472 O 0.15437 0.89067 0.30238 0.0
O473 O 0.16587 0.8798 0.27832 0.0
O474 O 0.15718 0.9297 0.31453 0.0
O475 O 0.16747 0.92991 0.28744 0.0
O476 O 0.86305 0.94775 0.5593 0.0
Cd477 Cd 0.85725 0.93966 0.53437 0.0
Cd478 Cd 0.83614 0.91939 0.55363 0.0
O479 O 0.84008 0.93754 0.57336 0.0
O480 O 0.87114 0.95715 0.52113 0.0
O481 O 0.84228 0.95605 0.51985 0.0
C482 C 0.85668 0.96395 0.51579 0.0
C483 C 0.8106 0.90337 0.54911 0.0
C484 C 0.85394 0.94677 0.57315 0.0
C485 C 0.86745 0.90272 0.53706 0.0
O486 O 0.85683 0.90264 0.54985 0.0
O487 O 0.86821 0.91596 0.52696 0.0
O488 O 0.81861 0.9033 0.56393 0.0
O489 O 0.81597 0.91413 0.53721 0.0
O490 O 0.79911 0.61732 0.80919 0.0
Cd491 Cd 0.80863 0.60963 0.7853 0.0
Cd492 Cd 0.82562 0.58903 0.80593 0.0
O493 O 0.80607 0.59371 0.82409 0.0
O494 O 0.79229 0.62234 0.76972 0.0
O495 O 0.79301 0.59343 0.77141 0.0
C496 C 0.78552 0.60745 0.76558 0.0
C497 C 0.83985 0.56306 0.79949 0.0
C498 C 0.79804 0.60827 0.82309 0.0
C499 C 0.84545 0.61849 0.79035 0.0
O500 O 0.84375 0.60881 0.80377 0.0
O501 O 0.83329 0.61901 0.77896 0.0
O502 O 0.83973 0.5694 0.81514 0.0
O503 O 0.82983 0.57025 0.78789 0.0
O504 O 0.12962 0.45068 0.93972 0.0
Cd505 Cd 0.13645 0.44228 0.96427 0.0
Cd506 Cd 0.15727 0.42297 0.94466 0.0
O507 O 0.15277 0.44143 0.92531 0.0
O508 O 0.12401 0.45996 0.9786 0.0
O509 O 0.15287 0.45793 0.97792 0.0
C510 C 0.13903 0.46624 0.98299 0.0
C511 C 0.18313 0.40748 0.949 0.0
C512 C 0.13863 0.45022 0.92577 0.0
C513 C 0.12653 0.40544 0.96135 0.0
O514 O 0.13694 0.40577 0.94838 0.0
O515 O 0.12577 0.41848 0.9717 0.0
O516 O 0.17514 0.40741 0.93416 0.0
O517 O 0.17754 0.41799 0.96101 0.0
O518 O 0.29743 0.88021 0.1896 0.0
Cd519 Cd 0.30594 0.88729 0.21405 0.0
Cd520 Cd 0.32477 0.90822 0.1941 0.0
O521 O 0.306 0.90355 0.17509 0.0
O522 O 0.28853 0.87468 0.22855 0.0
O523 O 0.29013 0.90357 0.22768 0.0
C524 C 0.28203 0.88963 0.23285 0.0
C525 C 0.34035 0.93406 0.19812 0.0
C526 C 0.29747 0.88925 0.17567 0.0
C527 C 0.34283 0.87782 0.2108 0.0
O528 O 0.34216 0.88801 0.19768 0.0
O529 O 0.32996 0.87704 0.22137 0.0
O530 O 0.34012 0.92608 0.18327 0.0
O531 O 0.33001 0.92853 0.2103 0.0
O532 O 0.86826 0.04839 0.43977 0.0
Cd533 Cd 0.86184 0.05639 0.46457 0.0
Cd534 Cd 0.84106 0.07666 0.44547 0.0
O535 O 0.84539 0.05871 0.42561 0.0
O536 O 0.87423 0.03826 0.47839 0.0
O537 O 0.84539 0.04072 0.4782 0.0
C538 C 0.85919 0.03214 0.48295 0.0
C539 C 0.81532 0.09246 0.44963 0.0
C540 C 0.85929 0.04952 0.42583 0.0
C541 C 0.8723 0.09318 0.46248 0.0
O542 O 0.86162 0.09346 0.44974 0.0
O543 O 0.87308 0.07979 0.47238 0.0
O544 O 0.82368 0.09279 0.435 0.0
O545 O 0.82052 0.08164 0.46153 0.0
O546 O 0.70046 0.61565 0.68977 0.0
Cd547 Cd 0.69277 0.60915 0.71464 0.0
Cd548 Cd 0.67253 0.58817 0.69537 0.0
O549 O 0.69054 0.59263 0.67559 0.0
O550 O 0.71072 0.62224 0.72802 0.0
O551 O 0.70908 0.59336 0.72832 0.0
C552 C 0.71734 0.60746 0.73269 0.0
C553 C 0.65643 0.56253 0.69902 0.0
C554 C 0.69951 0.60666 0.67583 0.0
C555 C 0.65586 0.61914 0.71277 0.0
O556 O 0.65571 0.60867 0.69986 0.0
O557 O 0.66923 0.61995 0.72268 0.0
O558 O 0.65634 0.57108 0.6845 0.0
O559 O 0.66722 0.56742 0.71107 0.0
O560 O 0.56237 0.63433 0.55024 0.0
Cd561 Cd 0.53753 0.64081 0.55803 0.0
Cd562 Cd 0.55711 0.66119 0.57848 0.0
O563 O 0.57704 0.65684 0.56063 0.0
O564 O 0.5244 0.6272 0.54027 0.0
O565 O 0.52362 0.65608 0.54137 0.0
C566 C 0.51955 0.64176 0.53333 0.0
C567 C 0.55224 0.68683 0.59417 0.0
C568 C 0.57649 0.64301 0.55137 0.0
C569 C 0.53959 0.63031 0.59491 0.0
O570 O 0.55268 0.64055 0.59515 0.0
O571 O 0.52957 0.62994 0.5816 0.0
O572 O 0.56705 0.67881 0.59467 0.0
O573 O 0.54061 0.68142 0.58314 0.0
O574 O 0.05569 0.36862 0.94899 0.0
Cd575 Cd 0.03159 0.36101 0.93995 0.0
Cd576 Cd 0.05198 0.34017 0.92224 0.0
O577 O 0.07046 0.3451 0.94145 0.0
O578 O 0.01629 0.37331 0.95689 0.0
O579 O 0.01813 0.34444 0.95556 0.0
C580 C 0.01237 0.35827 0.96344 0.0
C581 C 0.04755 0.31404 0.90734 0.0
C582 C 0.06962 0.3596 0.94961 0.0
C583 C 0.03575 0.36999 0.90307 0.0
O584 O 0.04902 0.36004 0.90435 0.0
O585 O 0.02474 0.37073 0.91556 0.0
O586 O 0.06263 0.3216 0.90766 0.0
O587 O 0.03535 0.32017 0.91734 0.0
O588 O 0.38069 0.80776 0.19823 0.0
Cd589 Cd 0.38833 0.78377 0.18888 0.0
Cd590 Cd 0.40907 0.8045 0.17153 0.0
O591 O 0.40413 0.82278 0.19092 0.0
O592 O 0.37544 0.76831 0.20523 0.0
O593 O 0.40435 0.7698 0.20464 0.0
C594 C 0.39026 0.76404 0.21205 0.0
C595 C 0.4352 0.7993 0.15697 0.0
C596 C 0.38962 0.82174 0.19904 0.0
C597 C 0.3795 0.78858 0.15198 0.0
O598 O 0.38928 0.80194 0.15351 0.0
O599 O 0.3789 0.77733 0.16427 0.0
O600 O 0.42813 0.81462 0.15722 0.0
O601 O 0.4286 0.7873 0.16692 0.0
O602 O 0.94363 0.12942 0.44994 0.0
Cd603 Cd 0.96763 0.13727 0.44083 0.0
Cd604 Cd 0.94701 0.15831 0.42347 0.0
O605 O 0.92883 0.15308 0.4429 0.0
O606 O 0.98322 0.12512 0.4576 0.0
O607 O 0.98094 0.15397 0.45641 0.0
C608 C 0.98698 0.14019 0.46418 0.0
C609 C 0.95048 0.18454 0.40846 0.0
C610 C 0.92972 0.13846 0.45083 0.0
C611 C 0.96328 0.12871 0.40391 0.0
O612 O 0.94999 0.13859 0.40541 0.0
O613 O 0.97439 0.12784 0.4163 0.0
O614 O 0.93562 0.1766 0.40908 0.0
O615 O 0.96303 0.17873 0.41819 0.0
O616 O 0.12172 0.19339 0.70178 0.0
Cd617 Cd 0.11219 0.21632 0.69159 0.0
Cd618 Cd 0.09159 0.19446 0.67738 0.0
O619 O 0.09768 0.17806 0.6981 0.0
O620 O 0.12376 0.2336 0.70696 0.0
O621 O 0.0951 0.22914 0.70706 0.0
C622 C 0.1087 0.23643 0.71405 0.0
C623 C 0.06497 0.19951 0.66395 0.0
C624 C 0.11286 0.17965 0.70477 0.0
C625 C 0.11909 0.20967 0.65483 0.0
O626 O 0.11035 0.1959 0.65811 0.0
O627 O 0.11968 0.22191 0.66613 0.0
O628 O 0.0715 0.18396 0.66492 0.0
O629 O 0.07234 0.21186 0.6729 0.0
O630 O 0.4402 0.36572 0.54884 0.0
Cd631 Cd 0.46471 0.3589 0.55737 0.0
Cd632 Cd 0.44484 0.33772 0.57613 0.0
O633 O 0.4258 0.3423 0.55739 0.0
O634 O 0.47898 0.37207 0.54018 0.0
O635 O 0.4787 0.34316 0.54131 0.0
C636 C 0.48358 0.35732 0.53343 0.0
C637 C 0.4489 0.31179 0.59158 0.0
C638 C 0.42632 0.3566 0.54886 0.0
C639 C 0.46126 0.36821 0.59431 0.0
O640 O 0.44824 0.3579 0.59359 0.0
O641 O 0.47185 0.36909 0.58147 0.0
O642 O 0.43404 0.31975 0.59136 0.0
O643 O 0.4611 0.31743 0.58132 0.0
O644 O 0.38222 0.68819 0.29813 0.0
Cd645 Cd 0.38778 0.71346 0.3052 0.0
Cd646 Cd 0.40842 0.69497 0.32748 0.0
O647 O 0.40424 0.67427 0.31046 0.0
O648 O 0.37478 0.72579 0.2864 0.0
O649 O 0.40353 0.72735 0.28896 0.0
C650 C 0.38955 0.73097 0.28016 0.0
C651 C 0.43365 0.6984 0.34437 0.0
C652 C 0.39088 0.67422 0.30052 0.0
C653 C 0.37637 0.71288 0.34191 0.0
O654 O 0.38739 0.70051 0.34326 0.0
O655 O 0.37563 0.72192 0.32792 0.0
O656 O 0.42441 0.68434 0.34492 0.0
O657 O 0.42961 0.71014 0.3329 0.0
O658 O 0.6166 0.81009 0.79808 0.0
Cd659 Cd 0.60977 0.7855 0.80636 0.0
Cd660 Cd 0.58872 0.80511 0.82525 0.0
O661 O 0.59327 0.82449 0.80686 0.0
O662 O 0.62294 0.77142 0.78901 0.0
O663 O 0.59403 0.7716 0.79022 0.0
C664 C 0.60819 0.76682 0.78227 0.0
C665 C 0.5628 0.79982 0.84027 0.0
C666 C 0.60756 0.82403 0.79831 0.0
C667 C 0.6191 0.78862 0.84335 0.0
O668 O 0.60883 0.80168 0.84276 0.0
O669 O 0.61995 0.77814 0.83041 0.0
O670 O 0.57023 0.81496 0.84049 0.0
O671 O 0.56893 0.7881 0.82972 0.0
O672 O 0.5477 0.55805 0.63075 0.0
Cd673 Cd 0.55543 0.5333 0.63766 0.0
Cd674 Cd 0.57488 0.55259 0.65895 0.0
O675 O 0.55678 0.57221 0.65412 0.0
O676 O 0.53763 0.51946 0.62485 0.0
O677 O 0.53923 0.5199 0.65375 0.0
C678 C 0.53102 0.51511 0.63975 0.0
C679 C 0.59041 0.54877 0.68488 0.0
C680 C 0.54825 0.57196 0.63982 0.0
C681 C 0.59247 0.53539 0.62843 0.0
O682 O 0.59222 0.54835 0.63884 0.0
O683 O 0.57922 0.52534 0.62737 0.0
O684 O 0.59054 0.5634 0.67654 0.0
O685 O 0.5798 0.5367 0.67963 0.0
O686 O 0.1892 0.29903 0.88122 0.0
Cd687 Cd 0.21373 0.30724 0.88836 0.0
Cd688 Cd 0.19375 0.32615 0.90945 0.0
O689 O 0.17461 0.30759 0.90452 0.0
O690 O 0.2279 0.28995 0.87521 0.0
O691 O 0.22739 0.29093 0.90413 0.0
C692 C 0.23229 0.28307 0.88997 0.0
C693 C 0.19747 0.34154 0.93547 0.0
C694 C 0.17521 0.29914 0.89018 0.0
C695 C 0.21083 0.3443 0.87928 0.0
O696 O 0.19765 0.34366 0.8894 0.0
O697 O 0.22127 0.33134 0.87842 0.0
O698 O 0.18276 0.34145 0.92725 0.0
O699 O 0.20968 0.33118 0.93004 0.0
O700 O 0.45077 0.93903 0.13139 0.0
Cd701 Cd 0.44253 0.96364 0.13825 0.0
Cd702 Cd 0.42265 0.94383 0.15875 0.0
O703 O 0.44099 0.92438 0.15418 0.0
O704 O 0.46032 0.97774 0.12568 0.0
O705 O 0.45836 0.97729 0.15454 0.0
C706 C 0.46667 0.98221 0.14064 0.0
C707 C 0.40665 0.94759 0.18441 0.0
C708 C 0.45002 0.92496 0.14018 0.0
C709 C 0.40572 0.96115 0.12797 0.0
O710 O 0.40578 0.94808 0.13825 0.0
O711 O 0.41889 0.97135 0.12742 0.0
O712 O 0.40668 0.93297 0.17605 0.0
O713 O 0.41733 0.95969 0.17934 0.0
O714 O 0.80662 0.19955 0.38077 0.0
Cd715 Cd 0.78246 0.19088 0.38859 0.0
Cd716 Cd 0.80302 0.17319 0.40969 0.0
O717 O 0.82143 0.19237 0.40438 0.0
O718 O 0.76745 0.20769 0.37578 0.0
O719 O 0.76909 0.20708 0.40468 0.0
C720 C 0.76353 0.21469 0.39062 0.0
C721 C 0.7997 0.15814 0.43593 0.0
C722 C 0.82057 0.2003 0.38975 0.0
C723 C 0.78627 0.15386 0.38017 0.0
O724 O 0.79964 0.15521 0.38997 0.0
O725 O 0.77533 0.1664 0.37934 0.0
O726 O 0.81445 0.1586 0.42779 0.0
O727 O 0.78718 0.16803 0.43029 0.0
O728 O 0.54753 0.43996 0.36626 0.0
Cd729 Cd 0.55565 0.46454 0.35918 0.0
Cd730 Cd 0.57505 0.44471 0.33842 0.0
O731 O 0.55678 0.42528 0.34328 0.0
O732 O 0.53803 0.47867 0.37196 0.0
O733 O 0.53957 0.4781 0.34307 0.0
C734 C 0.53144 0.48304 0.35707 0.0
C735 C 0.59058 0.44873 0.31253 0.0
C736 C 0.54805 0.42589 0.35746 0.0
C737 C 0.59262 0.46198 0.36881 0.0
O738 O 0.59229 0.44885 0.35862 0.0
O739 O 0.57952 0.47226 0.36953 0.0
O740 O 0.59067 0.434 0.32072 0.0
O741 O 0.57998 0.46076 0.3179 0.0
O742 O 0.30695 0.29749 0.61641 0.0
Cd743 Cd 0.28275 0.30635 0.60887 0.0
Cd744 Cd 0.30307 0.32427 0.58796 0.0
O745 O 0.32178 0.30533 0.59301 0.0
O746 O 0.26767 0.28948 0.62153 0.0
O747 O 0.2691 0.29052 0.59264 0.0
C748 C 0.26352 0.28279 0.60662 0.0
C749 C 0.29855 0.33892 0.5617 0.0
C750 C 0.32095 0.2971 0.60747 0.0
C751 C 0.28663 0.34337 0.61772 0.0
O752 O 0.29988 0.34223 0.60774 0.0
O753 O 0.27578 0.33074 0.61852 0.0
O754 O 0.3136 0.33885 0.56932 0.0
O755 O 0.28644 0.32884 0.56788 0.0
O756 O 0.45099 0.06073 0.86653 0.0
Cd757 Cd 0.44172 0.03672 0.85886 0.0
Cd758 Cd 0.42447 0.05733 0.83818 0.0
O759 O 0.44355 0.07588 0.84322 0.0
O760 O 0.45803 0.02134 0.87188 0.0
O761 O 0.45752 0.02263 0.84297 0.0
C762 C 0.46488 0.01694 0.85711 0.0
C763 C 0.41058 0.05094 0.812 0.0
C764 C 0.45167 0.0748 0.85772 0.0
C765 C 0.40467 0.04136 0.86747 0.0
O766 O 0.40618 0.05477 0.85774 0.0
O767 O 0.41704 0.03021 0.86814 0.0
O768 O 0.41039 0.06652 0.8185 0.0
O769 O 0.42071 0.03942 0.81917 0.0
O770 O 0.69143 0.20081 0.11768 0.0
Cd771 Cd 0.71576 0.19237 0.11012 0.0
Cd772 Cd 0.69547 0.17362 0.08947 0.0
O773 O 0.67655 0.19239 0.09452 0.0
O774 O 0.73042 0.2098 0.12251 0.0
O775 O 0.72902 0.20829 0.09364 0.0
C776 C 0.73439 0.21639 0.1075 0.0
C777 C 0.699 0.15807 0.06353 0.0
C778 C 0.67736 0.20083 0.10886 0.0
C779 C 0.71271 0.15546 0.11951 0.0
O780 O 0.69941 0.15619 0.10956 0.0
O781 O 0.7233 0.16831 0.12015 0.0
O782 O 0.6843 0.15831 0.07179 0.0
O783 O 0.71129 0.1684 0.06885 0.0
O784 O 0.63174 0.04813 0.05962 0.0
Cd785 Cd 0.63822 0.05626 0.03488 0.0
Cd786 Cd 0.65928 0.07593 0.05438 0.0
O787 O 0.65487 0.05764 0.0739 0.0
O788 O 0.62514 0.03859 0.02111 0.0
O789 O 0.65403 0.0402 0.02094 0.0
C790 C 0.63993 0.03203 0.01637 0.0
C791 C 0.68495 0.0918 0.05019 0.0
C792 C 0.64077 0.04878 0.07354 0.0
C793 C 0.62834 0.09315 0.03763 0.0
O794 O 0.63884 0.09295 0.05051 0.0
O795 O 0.62749 0.08002 0.02739 0.0
O796 O 0.67685 0.09178 0.06496 0.0
O797 O 0.67962 0.08117 0.03817 0.0
O798 O 0.69895 0.3813 0.30737 0.0
Cd799 Cd 0.68997 0.38867 0.28317 0.0
Cd800 Cd 0.67194 0.40952 0.30356 0.0
O801 O 0.69113 0.40476 0.32211 0.0
O802 O 0.70675 0.37583 0.26816 0.0
O803 O 0.70578 0.40474 0.26931 0.0
C804 C 0.71347 0.39068 0.26384 0.0
C805 C 0.65682 0.43551 0.29905 0.0
C806 C 0.69943 0.39034 0.32131 0.0
C807 C 0.65308 0.37955 0.28728 0.0
O808 O 0.65424 0.3895 0.30055 0.0
O809 O 0.66562 0.37888 0.27632 0.0
O810 O 0.65714 0.42797 0.31413 0.0
O811 O 0.66692 0.42946 0.28689 0.0
O812 O 0.36575 0.44747 0.55877 0.0
Cd813 Cd 0.35925 0.43895 0.53417 0.0
Cd814 Cd 0.33822 0.41981 0.55381 0.0
O815 O 0.34253 0.43831 0.57313 0.0
O816 O 0.37271 0.45608 0.52007 0.0
O817 O 0.3438 0.45509 0.51993 0.0
C818 C 0.35807 0.46286 0.5152 0.0
C819 C 0.31229 0.4047 0.54874 0.0
C820 C 0.35666 0.44712 0.57267 0.0
C821 C 0.36892 0.40201 0.53753 0.0
O822 O 0.35852 0.40247 0.55049 0.0
O823 O 0.36969 0.41494 0.52705 0.0
O824 O 0.31987 0.40449 0.5638 0.0
O825 O 0.31835 0.41516 0.53691 0.0
O826 O 0.30284 0.1151 0.81051 0.0
Cd827 Cd 0.31243 0.10755 0.78659 0.0
Cd828 Cd 0.32976 0.08721 0.80761 0.0
O829 O 0.31025 0.09188 0.82581 0.0
O830 O 0.29649 0.12112 0.7713 0.0
O831 O 0.29636 0.09219 0.77219 0.0
C832 C 0.28931 0.10657 0.76672 0.0
C833 C 0.34408 0.06126 0.80127 0.0
C834 C 0.30196 0.10627 0.82455 0.0
C835 C 0.34926 0.1167 0.79174 0.0
O836 O 0.34767 0.10715 0.80526 0.0
O837 O 0.33711 0.11694 0.78033 0.0
O838 O 0.34405 0.06771 0.81687 0.0
O839 O 0.33398 0.06833 0.78967 0.0
O840 O 0.63065 0.94891 0.93999 0.0
Cd841 Cd 0.63814 0.94018 0.96424 0.0
Cd842 Cd 0.65907 0.92218 0.94395 0.0
O843 O 0.65403 0.94104 0.92515 0.0
O844 O 0.62524 0.95704 0.97914 0.0
O845 O 0.65415 0.95619 0.97794 0.0
C846 C 0.64007 0.96386 0.98337 0.0
C847 C 0.68524 0.90747 0.94872 0.0
C848 C 0.63956 0.94926 0.92597 0.0
C849 C 0.6293 0.90317 0.96042 0.0
O850 O 0.63926 0.90428 0.94715 0.0
O851 O 0.62852 0.9158 0.97127 0.0
O852 O 0.67774 0.9075 0.93362 0.0
O853 O 0.67902 0.91765 0.96073 0.0
O854 O 0.79848 0.38258 0.18782 0.0
Cd855 Cd 0.80617 0.38895 0.21273 0.0
Cd856 Cd 0.82674 0.40967 0.19353 0.0
O857 O 0.80894 0.40531 0.17356 0.0
O858 O 0.78815 0.37585 0.22603 0.0
O859 O 0.78992 0.40472 0.22652 0.0
C860 C 0.78161 0.39063 0.23083 0.0
C861 C 0.84277 0.43529 0.19764 0.0
C862 C 0.79973 0.39143 0.17382 0.0
C863 C 0.84304 0.37856 0.21097 0.0
O864 O 0.84341 0.38907 0.1981 0.0
O865 O 0.82959 0.37788 0.22078 0.0
O866 O 0.84307 0.42687 0.18305 0.0
O867 O 0.83181 0.43027 0.2095 0.0
O868 O 0.36747 0.54896 0.44003 0.0
Cd869 Cd 0.36178 0.5562 0.46522 0.0
Cd870 Cd 0.34095 0.57816 0.44667 0.0
O871 O 0.34517 0.56088 0.42618 0.0
O872 O 0.37454 0.53746 0.47788 0.0
O873 O 0.34577 0.54014 0.47898 0.0
C874 C 0.35967 0.53131 0.48287 0.0
C875 C 0.31567 0.59507 0.44957 0.0
C876 C 0.35865 0.55109 0.42611 0.0
C877 C 0.37295 0.59292 0.46445 0.0
O878 O 0.3619 0.59409 0.45209 0.0
O879 O 0.37382 0.57901 0.47358 0.0
O880 O 0.32508 0.59543 0.43562 0.0
O881 O 0.31958 0.58379 0.46153 0.0
O882 O 0.20241 0.11902 0.69234 0.0
Cd883 Cd 0.19569 0.11281 0.71755 0.0
Cd884 Cd 0.17347 0.09172 0.69893 0.0
O885 O 0.19067 0.09663 0.67849 0.0
O886 O 0.21483 0.12499 0.73014 0.0
O887 O 0.21175 0.09622 0.73056 0.0
C888 C 0.22086 0.10989 0.7346 0.0
C889 C 0.15592 0.06668 0.69977 0.0
C890 C 0.20025 0.11027 0.6784 0.0
C891 C 0.15892 0.12347 0.71783 0.0
O892 O 0.15764 0.11242 0.7055 0.0
O893 O 0.17305 0.12466 0.72657 0.0
O894 O 0.15582 0.07721 0.68667 0.0
O895 O 0.16723 0.06933 0.71203 0.0
O896 O 0.06217 0.13603 0.55023 0.0
Cd897 Cd 0.03692 0.14116 0.5577 0.0
Cd898 Cd 0.05596 0.16116 0.58032 0.0
O899 O 0.07648 0.15755 0.56299 0.0
O900 O 0.0249 0.12743 0.5392 0.0
O901 O 0.02244 0.15614 0.54119 0.0
C902 C 0.01926 0.14188 0.53266 0.0
C903 C 0.05192 0.18601 0.59759 0.0
C904 C 0.07624 0.14452 0.55263 0.0
C905 C 0.03831 0.12886 0.59422 0.0
O906 O 0.05087 0.13966 0.5956 0.0
O907 O 0.0289 0.12872 0.58046 0.0
O908 O 0.06626 0.17718 0.59792 0.0
O909 O 0.04025 0.18182 0.58611 0.0
O910 O 0.55917 0.86501 0.94951 0.0
Cd911 Cd 0.53473 0.85788 0.94103 0.0
Cd912 Cd 0.55489 0.83732 0.92203 0.0
O913 O 0.57401 0.84198 0.94066 0.0
O914 O 0.52041 0.87091 0.95828 0.0
O915 O 0.52095 0.84201 0.95716 0.0
C916 C 0.51597 0.85613 0.96505 0.0
C917 C 0.55028 0.81146 0.90668 0.0
C918 C 0.57324 0.85618 0.94934 0.0
C919 C 0.53793 0.86756 0.90411 0.0
O920 O 0.5512 0.85756 0.90471 0.0
O921 O 0.52734 0.86807 0.91698 0.0
O922 O 0.56525 0.81921 0.90666 0.0
O923 O 0.53833 0.81723 0.91718 0.0
O924 O 0.8794 0.30727 0.19951 0.0
Cd925 Cd 0.8872 0.28318 0.1906 0.0
Cd926 Cd 0.90849 0.30344 0.17366 0.0
O927 O 0.9033 0.32185 0.19286 0.0
O928 O 0.87447 0.26782 0.20715 0.0
O929 O 0.90337 0.26965 0.20655 0.0
C930 C 0.88934 0.26386 0.21405 0.0
C931 C 0.93484 0.29824 0.1595 0.0
C932 C 0.88854 0.32111 0.20054 0.0
C933 C 0.87923 0.28755 0.15355 0.0
O934 O 0.88907 0.30086 0.15522 0.0
O935 O 0.87822 0.27642 0.16591 0.0
O936 O 0.92777 0.31356 0.15966 0.0
O937 O 0.9281 0.28625 0.16936 0.0
O938 O 0.44461 0.62841 0.45072 0.0
Cd939 Cd 0.46835 0.63679 0.44142 0.0
Cd940 Cd 0.44734 0.65787 0.42494 0.0
O941 O 0.42978 0.65235 0.44485 0.0
O942 O 0.48434 0.62483 0.4579 0.0
O943 O 0.4814 0.65364 0.45703 0.0
C944 C 0.48775 0.63992 0.46465 0.0
C945 C 0.45024 0.68422 0.41004 0.0
C946 C 0.4308 0.63749 0.45232 0.0
C947 C 0.46351 0.62882 0.40455 0.0
O948 O 0.45006 0.63839 0.40658 0.0
O949 O 0.47494 0.62796 0.41665 0.0
O950 O 0.43544 0.67619 0.41101 0.0
O951 O 0.46307 0.67844 0.41943 0.0
O952 O 0.6188 0.68976 0.70053 0.0
Cd953 Cd 0.61087 0.71366 0.69122 0.0
Cd954 Cd 0.58983 0.69309 0.67468 0.0
O955 O 0.59495 0.67497 0.69418 0.0
O956 O 0.62348 0.72935 0.70753 0.0
O957 O 0.59459 0.72732 0.70693 0.0
C958 C 0.60857 0.73331 0.71437 0.0
C959 C 0.56362 0.69888 0.6606 0.0
C960 C 0.60972 0.6759 0.70182 0.0
C961 C 0.61892 0.70865 0.65425 0.0
O962 O 0.60925 0.69526 0.65619 0.0
O963 O 0.61978 0.72004 0.66639 0.0
O964 O 0.57022 0.68335 0.66088 0.0
O965 O 0.57067 0.71074 0.67042 0.0
O966 O 0.93897 0.8667 0.54825 0.0
Cd967 Cd 0.96341 0.85972 0.55685 0.0
Cd968 Cd 0.94344 0.83836 0.57506 0.0
O969 O 0.9246 0.84304 0.55614 0.0
O970 O 0.97784 0.87297 0.53985 0.0
O971 O 0.9774 0.84404 0.54074 0.0
C972 C 0.98237 0.85824 0.53299 0.0
C973 C 0.94787 0.81243 0.59035 0.0
C974 C 0.92514 0.85752 0.54792 0.0
C975 C 0.95956 0.86859 0.59381 0.0
O976 O 0.94648 0.85838 0.59275 0.0
O977 O 0.97036 0.86956 0.58116 0.0
O978 O 0.93284 0.82005 0.59002 0.0
O979 O 0.96003 0.81836 0.58019 0.0
O980 O 0.88124 0.18848 0.29934 0.0
Cd981 Cd 0.8877 0.21334 0.30704 0.0
Cd982 Cd 0.9087 0.19414 0.32725 0.0
O983 O 0.90413 0.17421 0.30944 0.0
O984 O 0.87457 0.22671 0.2891 0.0
O985 O 0.90345 0.22708 0.29074 0.0
C986 C 0.88934 0.23141 0.28247 0.0
C987 C 0.93457 0.1982 0.34286 0.0
C988 C 0.89014 0.17449 0.30041 0.0
C989 C 0.87771 0.21142 0.34399 0.0
O990 O 0.8883 0.19861 0.34419 0.0
O991 O 0.87683 0.22129 0.33059 0.0
O992 O 0.92613 0.18363 0.34331 0.0
O993 O 0.92939 0.21009 0.33202 0.0
O994 O 0.11567 0.3111 0.79923 0.0
Cd995 Cd 0.10862 0.28648 0.80717 0.0
Cd996 Cd 0.08782 0.30619 0.82643 0.0
O997 O 0.09258 0.32573 0.80825 0.0
O998 O 0.12199 0.27284 0.78965 0.0
O999 O 0.09307 0.27286 0.79059 0.0
C1000 C 0.10732 0.26839 0.78263 0.0
C1001 C 0.06177 0.30147 0.84146 0.0
C1002 C 0.10681 0.32514 0.79963 0.0
C1003 C 0.11814 0.289 0.84414 0.0
O1004 O 0.10797 0.30215 0.84378 0.0
O1005 O 0.11883 0.27868 0.83106 0.0
O1006 O 0.06969 0.31635 0.84189 0.0
O1007 O 0.06756 0.28967 0.83081 0.0
O1008 O 0.54951 0.05933 0.13443 0.0
Cd1009 Cd 0.55834 0.03485 0.14106 0.0
Cd1010 Cd 0.57745 0.05507 0.16167 0.0
O1011 O 0.55857 0.07404 0.15746 0.0
O1012 O 0.54135 0.0206 0.12759 0.0
O1013 O 0.54231 0.02045 0.1565 0.0
C1014 C 0.53458 0.01567 0.14222 0.0
C1015 C 0.5932 0.05035 0.18727 0.0
C1016 C 0.54969 0.07331 0.14339 0.0
C1017 C 0.59517 0.03863 0.13107 0.0
O1018 O 0.59454 0.05182 0.14117 0.0
O1019 O 0.58242 0.0279 0.13063 0.0
O1020 O 0.59295 0.06541 0.17969 0.0
O1021 O 0.58276 0.03836 0.18152 0.0
O1022 O 0.18835 0.80121 0.38332 0.0
Cd1023 Cd 0.21303 0.80927 0.39004 0.0
Cd1024 Cd 0.19333 0.82852 0.411 0.0
O1025 O 0.17401 0.81001 0.40668 0.0
O1026 O 0.22661 0.79191 0.37639 0.0
O1027 O 0.22685 0.79259 0.40531 0.0
C1028 C 0.23121 0.78477 0.39095 0.0
C1029 C 0.198 0.84418 0.43667 0.0
C1030 C 0.17446 0.8014 0.39243 0.0
C1031 C 0.21013 0.84617 0.38045 0.0
O1032 O 0.19696 0.84567 0.39059 0.0
O1033 O 0.22062 0.83323 0.37984 0.0
O1034 O 0.18303 0.84412 0.42893 0.0
O1035 O 0.20993 0.83359 0.43102 0.0
O1036 O 0.44862 0.4385 0.63169 0.0
Cd1037 Cd 0.43945 0.46267 0.63893 0.0
Cd1038 Cd 0.42147 0.4422 0.65958 0.0
O1039 O 0.44071 0.42366 0.65505 0.0
O1040 O 0.45609 0.47762 0.62583 0.0
O1041 O 0.4553 0.4768 0.65475 0.0
C1042 C 0.46288 0.48213 0.64059 0.0
C1043 C 0.40647 0.44751 0.68545 0.0
C1044 C 0.44911 0.42455 0.64069 0.0
C1045 C 0.40263 0.45826 0.62958 0.0
O1046 O 0.40382 0.44495 0.63947 0.0
O1047 O 0.41507 0.46934 0.62908 0.0
O1048 O 0.4067 0.43221 0.67836 0.0
O1049 O 0.41665 0.45942 0.67906 0.0
O1050 O 0.80742 0.69992 0.88158 0.0
Cd1051 Cd 0.78288 0.69168 0.88861 0.0
Cd1052 Cd 0.80282 0.67262 0.90967 0.0
O1053 O 0.82187 0.69134 0.90496 0.0
O1054 O 0.76873 0.70913 0.87565 0.0
O1055 O 0.76927 0.70787 0.90456 0.0
C1056 C 0.76439 0.71589 0.89048 0.0
C1057 C 0.7995 0.65666 0.93541 0.0
C1058 C 0.82134 0.69984 0.89064 0.0
C1059 C 0.78585 0.65479 0.8792 0.0
O1060 O 0.79897 0.65538 0.88939 0.0
O1061 O 0.77536 0.66771 0.87841 0.0
O1062 O 0.81413 0.65707 0.92705 0.0
O1063 O 0.78714 0.667 0.93031 0.0
O1064 O 0.54746 0.93857 0.86684 0.0
Cd1065 Cd 0.55594 0.96309 0.85992 0.0
Cd1066 Cd 0.57491 0.94335 0.83909 0.0
O1067 O 0.55647 0.92402 0.84368 0.0
O1068 O 0.53855 0.97745 0.87274 0.0
O1069 O 0.54014 0.97701 0.84385 0.0
C1070 C 0.53209 0.98204 0.85786 0.0
C1071 C 0.58997 0.94851 0.81317 0.0
C1072 C 0.54779 0.92457 0.85789 0.0
C1073 C 0.59289 0.95994 0.86949 0.0
O1074 O 0.59237 0.94686 0.85923 0.0
O1075 O 0.57993 0.97039 0.87026 0.0
O1076 O 0.59018 0.93341 0.82067 0.0
O1077 O 0.57942 0.96027 0.81923 0.0
O1078 O 0.30911 0.79909 0.11433 0.0
Cd1079 Cd 0.28436 0.80713 0.10782 0.0
Cd1080 Cd 0.30401 0.82712 0.08708 0.0
O1081 O 0.32359 0.80888 0.09144 0.0
O1082 O 0.27088 0.78943 0.12117 0.0
O1083 O 0.27047 0.79075 0.09228 0.0
C1084 C 0.26615 0.78264 0.10649 0.0
C1085 C 0.3 0.84306 0.06141 0.0
C1086 C 0.3231 0.79984 0.10542 0.0
C1087 C 0.28687 0.84399 0.11801 0.0
O1088 O 0.29987 0.84394 0.10765 0.0
O1089 O 0.27667 0.83081 0.11861 0.0
O1090 O 0.31467 0.84312 0.0697 0.0
O1091 O 0.28797 0.83235 0.06659 0.0
O1092 O 0.44995 0.5604 0.36514 0.0
Cd1093 Cd 0.44035 0.53639 0.35795 0.0
Cd1094 Cd 0.42229 0.5573 0.33788 0.0
O1095 O 0.44171 0.57568 0.34219 0.0
O1096 O 0.45687 0.52127 0.37105 0.0
O1097 O 0.45599 0.52198 0.34214 0.0
C1098 C 0.46357 0.51663 0.35629 0.0
C1099 C 0.40726 0.55129 0.31222 0.0
C1100 C 0.4504 0.57448 0.35634 0.0
C1101 C 0.40369 0.54133 0.36799 0.0
O1102 O 0.40489 0.55474 0.35823 0.0
O1103 O 0.41597 0.53006 0.3681 0.0
O1104 O 0.40741 0.56678 0.31893 0.0
O1105 O 0.41757 0.53961 0.31885 0.0
O1106 O 0.688 0.6973 0.61487 0.0
Cd1107 Cd 0.71246 0.68875 0.6079 0.0
Cd1108 Cd 0.69228 0.66958 0.58756 0.0
O1109 O 0.67301 0.6881 0.59208 0.0
O1110 O 0.72659 0.70597 0.6212 0.0
O1111 O 0.72645 0.70499 0.59229 0.0
C1112 C 0.73121 0.71283 0.60651 0.0
C1113 C 0.69759 0.65436 0.56178 0.0
C1114 C 0.67387 0.69697 0.60615 0.0
C1115 C 0.70915 0.6519 0.61794 0.0
O1116 O 0.69589 0.6524 0.60793 0.0
O1117 O 0.71976 0.66476 0.61829 0.0
O1118 O 0.68246 0.65413 0.56923 0.0
O1119 O 0.70928 0.66502 0.56779 0.0
O1120 O 0.6311 0.54848 0.55898 0.0
Cd1121 Cd 0.63949 0.55796 0.5353 0.0
Cd1122 Cd 0.6602 0.57403 0.5564 0.0
O1123 O 0.65478 0.55435 0.57422 0.0
O1124 O 0.62669 0.54203 0.51938 0.0
O1125 O 0.65557 0.54202 0.52164 0.0
C1126 C 0.64149 0.53488 0.51553 0.0
C1127 C 0.68647 0.5878 0.55034 0.0
C1128 C 0.63994 0.54687 0.57295 0.0
C1129 C 0.63163 0.59492 0.54068 0.0
O1130 O 0.64094 0.59268 0.55428 0.0
O1131 O 0.63101 0.58298 0.52906 0.0
O1132 O 0.68008 0.58754 0.56597 0.0
O1133 O 0.67919 0.57805 0.53856 0.0
O1134 O 0.69941 0.88355 0.8094 0.0
Cd1135 Cd 0.69074 0.89059 0.78498 0.0
Cd1136 Cd 0.67186 0.9112 0.80522 0.0
O1137 O 0.69061 0.9066 0.82424 0.0
O1138 O 0.70778 0.87735 0.77058 0.0
O1139 O 0.7068 0.90627 0.77087 0.0
C1140 C 0.71455 0.89207 0.7659 0.0
C1141 C 0.65646 0.93701 0.80055 0.0
C1142 C 0.69929 0.89241 0.82345 0.0
C1143 C 0.65381 0.88098 0.78846 0.0
O1144 O 0.65451 0.89095 0.80174 0.0
O1145 O 0.66661 0.88047 0.7778 0.0
O1146 O 0.65656 0.92936 0.81558 0.0
O1147 O 0.6669 0.93118 0.78858 0.0
O1148 O 0.36896 0.9501 0.05679 0.0
Cd1149 Cd 0.36133 0.94125 0.03262 0.0
Cd1150 Cd 0.34035 0.92352 0.05284 0.0
O1151 O 0.34541 0.94252 0.07151 0.0
O1152 O 0.37382 0.95816 0.01745 0.0
O1153 O 0.34493 0.957 0.0191 0.0
C1154 C 0.35884 0.96479 0.01342 0.0
C1155 C 0.31408 0.90897 0.04818 0.0
C1156 C 0.35995 0.95062 0.07074 0.0
C1157 C 0.37007 0.90427 0.03653 0.0
O1158 O 0.36007 0.90548 0.04977 0.0
O1159 O 0.37093 0.91686 0.02564 0.0
O1160 O 0.32159 0.90902 0.06327 0.0
O1161 O 0.32036 0.91901 0.0361 0.0
O1162 O 0.29823 0.61506 0.30967 0.0
Cd1163 Cd 0.30807 0.6074 0.28589 0.0
Cd1164 Cd 0.3254 0.58735 0.30719 0.0
O1165 O 0.30566 0.59197 0.32515 0.0
O1166 O 0.29194 0.62038 0.27028 0.0
O1167 O 0.29246 0.59147 0.27162 0.0
C1168 C 0.28512 0.6056 0.26588 0.0
C1169 C 0.34023 0.56156 0.30134 0.0
C1170 C 0.29729 0.6063 0.32376 0.0
C1171 C 0.34479 0.61689 0.29127 0.0
O1172 O 0.34313 0.60744 0.30485 0.0
O1173 O 0.33273 0.61699 0.27976 0.0
O1174 O 0.33986 0.56818 0.31687 0.0
O1175 O 0.33015 0.56833 0.28953 0.0
O1176 O 0.63061 0.45144 0.43934 0.0
Cd1177 Cd 0.63836 0.44291 0.46357 0.0
Cd1178 Cd 0.65903 0.42472 0.44321 0.0
O1179 O 0.65388 0.44352 0.42436 0.0
O1180 O 0.62575 0.46007 0.47834 0.0
O1181 O 0.65464 0.45895 0.47694 0.0
C1182 C 0.64067 0.46683 0.48234 0.0
C1183 C 0.68515 0.40979 0.44762 0.0
C1184 C 0.63941 0.45173 0.42525 0.0
C1185 C 0.62936 0.40595 0.4602 0.0
O1186 O 0.63917 0.40695 0.44681 0.0
O1187 O 0.62871 0.41866 0.47096 0.0
O1188 O 0.67741 0.40983 0.43264 0.0
O1189 O 0.67923 0.42008 0.45968 0.0
O1190 O 0.79674 0.88118 0.68831 0.0
Cd1191 Cd 0.80567 0.88878 0.71246 0.0
Cd1192 Cd 0.82384 0.90919 0.69205 0.0
O1193 O 0.80505 0.90421 0.67317 0.0
O1194 O 0.78872 0.8762 0.72752 0.0
O1195 O 0.78994 0.90508 0.72617 0.0
C1196 C 0.78213 0.89114 0.73174 0.0
C1197 C 0.83832 0.93534 0.69743 0.0
C1198 C 0.79659 0.8899 0.67417 0.0
C1199 C 0.84262 0.87944 0.70871 0.0
O1200 O 0.84165 0.8893 0.69535 0.0
O1201 O 0.82994 0.8789 0.71953 0.0
O1202 O 0.83855 0.92808 0.6822 0.0
O1203 O 0.828 0.92889 0.70919 0.0
O1204 O 0.36573 0.04987 0.93758 0.0
Cd1205 Cd 0.35905 0.05757 0.96241 0.0
Cd1206 Cd 0.33848 0.07793 0.94289 0.0
O1207 O 0.3432 0.06021 0.92292 0.0
O1208 O 0.37242 0.03981 0.9758 0.0
O1209 O 0.34354 0.04107 0.97621 0.0
C1210 C 0.35776 0.03301 0.98057 0.0
C1211 C 0.31265 0.09349 0.94726 0.0
C1212 C 0.35711 0.05106 0.92344 0.0
C1213 C 0.36922 0.09454 0.96057 0.0
O1214 O 0.3589 0.09478 0.94753 0.0
O1215 O 0.36979 0.08114 0.97047 0.0
O1216 O 0.32096 0.09402 0.93261 0.0
O1217 O 0.31792 0.08253 0.95901 0.0
O1218 O 0.20119 0.61522 0.18893 0.0
Cd1219 Cd 0.19307 0.60861 0.21364 0.0
Cd1220 Cd 0.17284 0.58822 0.19397 0.0
O1221 O 0.19096 0.59263 0.17429 0.0
O1222 O 0.21098 0.62142 0.22737 0.0
O1223 O 0.20903 0.59256 0.22746 0.0
C1224 C 0.21739 0.60654 0.23204 0.0
C1225 C 0.15687 0.56262 0.19818 0.0
C1226 C 0.20019 0.60648 0.17484 0.0
C1227 C 0.15626 0.61917 0.21132 0.0
O1228 O 0.15613 0.60884 0.1983 0.0
O1229 O 0.16952 0.61965 0.22141 0.0
O1230 O 0.1567 0.57087 0.18348 0.0
O1231 O 0.16772 0.56778 0.21008 0.0
O1232 O 0.05921 0.63183 0.049 0.0
Cd1233 Cd 0.03444 0.6385 0.05684 0.0
Cd1234 Cd 0.0541 0.65944 0.0768 0.0
O1235 O 0.07362 0.65487 0.05853 0.0
O1236 O 0.02097 0.62534 0.03901 0.0
O1237 O 0.0208 0.65423 0.04044 0.0
C1238 C 0.01642 0.64009 0.03224 0.0
C1239 C 0.05078 0.68502 0.09307 0.0
C1240 C 0.07318 0.64077 0.04966 0.0
C1241 C 0.03673 0.62856 0.0937 0.0
O1242 O 0.04972 0.63893 0.09361 0.0
O1243 O 0.02658 0.62782 0.0805 0.0
O1244 O 0.06526 0.67641 0.09291 0.0
O1245 O 0.03857 0.68024 0.0824 0.0
O1246 O 0.55934 0.36749 0.44972 0.0
Cd1247 Cd 0.53503 0.35999 0.44118 0.0
Cd1248 Cd 0.55521 0.3394 0.4227 0.0
O1249 O 0.57426 0.34434 0.44133 0.0
O1250 O 0.52036 0.37273 0.45835 0.0
O1251 O 0.52154 0.34383 0.45723 0.0
C1252 C 0.51622 0.35784 0.4651 0.0
C1253 C 0.55021 0.31327 0.40798 0.0
C1254 C 0.57343 0.35868 0.44977 0.0
C1255 C 0.53833 0.36927 0.4042 0.0
O1256 O 0.55165 0.35935 0.40501 0.0
O1257 O 0.52766 0.36986 0.417 0.0
O1258 O 0.5653 0.32081 0.40774 0.0
O1259 O 0.53838 0.31944 0.41839 0.0
O1260 O 0.8806 0.80862 0.70009 0.0
Cd1261 Cd 0.8875 0.78392 0.69213 0.0
Cd1262 Cd 0.90817 0.80357 0.6722 0.0
O1263 O 0.90337 0.82324 0.69022 0.0
O1264 O 0.87476 0.76995 0.7099 0.0
O1265 O 0.90363 0.77035 0.70819 0.0
C1266 C 0.88966 0.76548 0.7164 0.0
C1267 C 0.93402 0.79957 0.65656 0.0
C1268 C 0.88934 0.82272 0.69919 0.0
C1269 C 0.87754 0.78609 0.65517 0.0
O1270 O 0.88785 0.79914 0.65517 0.0
O1271 O 0.87686 0.77604 0.66845 0.0
O1272 O 0.92567 0.8142 0.65631 0.0
O1273 O 0.9288 0.78761 0.66733 0.0
O1274 O 0.44086 0.13077 0.95078 0.0
Cd1275 Cd 0.4653 0.13837 0.94276 0.0
Cd1276 Cd 0.44567 0.15967 0.92471 0.0
O1277 O 0.4265 0.15453 0.94318 0.0
O1278 O 0.47968 0.12548 0.96001 0.0
O1279 O 0.47842 0.1544 0.95921 0.0
C1280 C 0.48359 0.14031 0.96704 0.0
C1281 C 0.45043 0.18609 0.91041 0.0
C1282 C 0.42698 0.13989 0.95111 0.0
C1283 C 0.46249 0.13004 0.90564 0.0
O1284 O 0.44926 0.14008 0.90659 0.0
O1285 O 0.47301 0.129 0.91852 0.0
O1286 O 0.43542 0.17842 0.91008 0.0
O1287 O 0.46235 0.17984 0.92067 0.0
O1288 O 0.61783 0.18964 0.2003 0.0
Cd1289 Cd 0.61082 0.2142 0.19208 0.0
Cd1290 Cd 0.59003 0.19447 0.17277 0.0
O1291 O 0.59483 0.17502 0.19103 0.0
O1292 O 0.62348 0.2284 0.20971 0.0
O1293 O 0.5946 0.22777 0.20803 0.0
C1294 C 0.60855 0.23275 0.21622 0.0
C1295 C 0.56403 0.19869 0.15748 0.0
C1296 C 0.60899 0.17559 0.19978 0.0
C1297 C 0.62052 0.21152 0.15514 0.0
O1298 O 0.61022 0.19847 0.15546 0.0
O1299 O 0.62128 0.22181 0.16823 0.0
O1300 O 0.57215 0.18392 0.15726 0.0
O1301 O 0.56959 0.21068 0.16804 0.0
O1302 O 0.93733 0.36371 0.04922 0.0
Cd1303 Cd 0.96233 0.35758 0.05678 0.0
Cd1304 Cd 0.94317 0.33679 0.07755 0.0
O1305 O 0.92303 0.34111 0.05994 0.0
O1306 O 0.97524 0.3712 0.03884 0.0
O1307 O 0.97631 0.34234 0.04015 0.0
C1308 C 0.98025 0.35664 0.03201 0.0
C1309 C 0.94761 0.31116 0.09346 0.0
C1310 C 0.92331 0.3549 0.05061 0.0
C1311 C 0.96057 0.36799 0.09371 0.0
O1312 O 0.94773 0.35744 0.09415 0.0
O1313 O 0.97035 0.36864 0.08022 0.0
O1314 O 0.93296 0.31948 0.09393 0.0
O1315 O 0.95933 0.31629 0.08241 0.0
O1316 O 0.88317 0.68888 0.80039 0.0
Cd1317 Cd 0.88938 0.71365 0.80866 0.0
Cd1318 Cd 0.91024 0.6941 0.82865 0.0
O1319 O 0.90599 0.67447 0.81047 0.0
O1320 O 0.87597 0.72732 0.79113 0.0
O1321 O 0.90485 0.72796 0.79255 0.0
C1322 C 0.89063 0.73238 0.78452 0.0
C1323 C 0.93594 0.69858 0.8444 0.0
C1324 C 0.8921 0.6749 0.80129 0.0
C1325 C 0.87913 0.7108 0.84556 0.0
O1326 O 0.88968 0.69795 0.84554 0.0
O1327 O 0.87844 0.721 0.83239 0.0
O1328 O 0.9279 0.68377 0.84456 0.0
O1329 O 0.93048 0.71049 0.8337 0.0
O1330 O 0.11527 0.81056 0.30073 0.0
Cd1331 Cd 0.10834 0.78615 0.30949 0.0
Cd1332 Cd 0.08741 0.80642 0.32795 0.0
O1333 O 0.092 0.82531 0.30907 0.0
O1334 O 0.12196 0.77177 0.29273 0.0
O1335 O 0.09304 0.77186 0.29325 0.0
C1336 C 0.1074 0.76699 0.28573 0.0
C1337 C 0.06156 0.80138 0.34314 0.0
C1338 C 0.10631 0.82454 0.30058 0.0
C1339 C 0.11761 0.79016 0.34644 0.0
O1340 O 0.10756 0.80337 0.34547 0.0
O1341 O 0.11826 0.7793 0.33381 0.0
O1342 O 0.06892 0.81656 0.34299 0.0
O1343 O 0.0677 0.78945 0.33283 0.0
C1344 C 0.10919 0.52723 0.10216 0.0
C1345 C 0.11041 0.5373 0.11749 0.0
H1346 H 0.11887 0.52307 0.07619 0.0
C1347 C 0.12493 0.54846 0.1197 0.0
H1348 H 0.09827 0.51839 0.10012 0.0
C1349 C 0.13689 0.55098 0.10605 0.0
C1350 C 0.13436 0.54252 0.08993 0.0
H1351 H 0.12638 0.55619 0.13152 0.0
H1352 H 0.14705 0.56076 0.10758 0.0
C1353 C 0.12102 0.5299 0.08845 0.0
C1354 C 0.7183 0.36782 0.33556 0.0
C1355 C 0.70675 0.3821 0.33722 0.0
H1356 H 0.72897 0.34481 0.34753 0.0
C1357 C 0.6996 0.3859 0.35372 0.0
H1358 H 0.72416 0.36469 0.32301 0.0
C1359 C 0.70222 0.37439 0.36773 0.0
C1360 C 0.71219 0.35903 0.36549 0.0
H1361 H 0.69069 0.39682 0.35542 0.0
H1362 H 0.69543 0.3769 0.37994 0.0
C1363 C 0.72108 0.35643 0.34961 0.0
C1364 C 0.85907 0.94456 0.60537 0.0
C1365 C 0.8617 0.95352 0.58953 0.0
H1366 H 0.86919 0.93889 0.63089 0.0
C1367 C 0.87478 0.96649 0.58866 0.0
H1368 H 0.84911 0.93451 0.60643 0.0
C1369 C 0.88627 0.96904 0.60267 0.0
C1370 C 0.88499 0.95853 0.6177 0.0
H1371 H 0.87699 0.97371 0.57664 0.0
H1372 H 0.897 0.97819 0.60109 0.0
C1373 C 0.8707 0.94698 0.61932 0.0
C1374 C 0.2787 0.14038 0.85115 0.0
C1375 C 0.28785 0.13912 0.86704 0.0
H1376 H 0.27588 0.13052 0.82507 0.0
C1377 C 0.29856 0.1244 0.87004 0.0
H1378 H 0.27024 0.15146 0.8485 0.0
C1379 C 0.30162 0.11225 0.85667 0.0
C1380 C 0.29417 0.11479 0.84006 0.0
H1381 H 0.30557 0.12294 0.88229 0.0
H1382 H 0.31109 0.10191 0.85886 0.0
C1383 C 0.28193 0.12837 0.83773 0.0
C1384 C 0.12251 0.45129 0.87934 0.0
C1385 C 0.10753 0.46191 0.88114 0.0
H1386 H 0.14458 0.43958 0.89211 0.0
C1387 C 0.10534 0.47165 0.89659 0.0
H1388 H 0.12471 0.44383 0.86747 0.0
C1389 C 0.11671 0.46916 0.91071 0.0
C1390 C 0.13057 0.45705 0.90955 0.0
H1391 H 0.09404 0.48006 0.89832 0.0
H1392 H 0.11387 0.47574 0.92296 0.0
C1393 C 0.134 0.44895 0.89341 0.0
C1394 C 0.77836 0.35846 0.14427 0.0
C1395 C 0.78877 0.36008 0.1292 0.0
H1396 H 0.77349 0.36754 0.17032 0.0
C1397 C 0.79995 0.37467 0.12761 0.0
H1398 H 0.76949 0.34749 0.14583 0.0
C1399 C 0.80211 0.3863 0.1416 0.0
C1400 C 0.79325 0.3834 0.15745 0.0
H1401 H 0.80793 0.37644 0.11601 0.0
H1402 H 0.81188 0.39654 0.14052 0.0
C1403 C 0.78065 0.36997 0.15831 0.0
C1404 C 0.89205 0.02809 0.39605 0.0
C1405 C 0.89016 0.03836 0.38091 0.0
H1406 H 0.88333 0.02342 0.42227 0.0
C1407 C 0.8755 0.04946 0.37942 0.0
H1408 H 0.90309 0.0193 0.39754 0.0
C1409 C 0.86405 0.05167 0.39354 0.0
C1410 C 0.8672 0.04297 0.40943 0.0
H1411 H 0.87354 0.05733 0.36777 0.0
H1412 H 0.85373 0.06137 0.39251 0.0
C1413 C 0.88071 0.03045 0.41022 0.0
C1414 C 0.19968 0.12501 0.63139 0.0
C1415 C 0.21033 0.14004 0.63232 0.0
H1416 H 0.18841 0.10339 0.64527 0.0
C1417 C 0.22043 0.14285 0.64742 0.0
H1418 H 0.19193 0.12232 0.61981 0.0
C1419 C 0.21839 0.13198 0.66201 0.0
C1420 C 0.2063 0.11806 0.66172 0.0
H1421 H 0.22889 0.1542 0.6485 0.0
H1422 H 0.22537 0.13526 0.67393 0.0
C1423 C 0.19774 0.11406 0.64595 0.0
C1424 C 0.1078 0.13706 0.5565 0.0
C1425 C 0.09263 0.13658 0.54614 0.0
H1426 H 0.13202 0.12447 0.56295 0.0
C1427 C 0.09197 0.12502 0.53179 0.0
H1428 H 0.10867 0.14579 0.56766 0.0
C1429 C 0.10532 0.11282 0.52907 0.0
C1430 C 0.11947 0.11184 0.54078 0.0
H1431 H 0.08045 0.12447 0.52351 0.0
H1432 H 0.1038 0.10325 0.5187 0.0
C1433 C 0.12108 0.1247 0.55391 0.0
C1434 C 0.12871 0.33986 0.78046 0.0
C1435 C 0.11515 0.34123 0.79287 0.0
H1436 H 0.15156 0.35168 0.76934 0.0
C1437 C 0.11242 0.3573 0.80136 0.0
H1438 H 0.13101 0.32764 0.77361 0.0
C1439 C 0.12434 0.37102 0.79907 0.0
C1440 C 0.13903 0.36893 0.78811 0.0
H1441 H 0.10209 0.35875 0.81098 0.0
H1442 H 0.1227 0.38281 0.8068 0.0
C1443 C 0.14051 0.35363 0.77802 0.0
C1444 C 0.87763 0.37291 0.0514 0.0
C1445 C 0.8793 0.38697 0.03956 0.0
H1446 H 0.89028 0.35118 0.06387 0.0
C1447 C 0.89408 0.38769 0.02865 0.0
H1448 H 0.86624 0.37184 0.0598 0.0
C1449 C 0.90783 0.37586 0.03101 0.0
C1450 C 0.90697 0.363 0.04419 0.0
H1451 H 0.89569 0.39822 0.01927 0.0
H1452 H 0.91971 0.37763 0.02343 0.0
C1453 C 0.89133 0.36095 0.05363 0.0
C1454 C 0.85702 0.14503 0.27917 0.0
C1455 C 0.85865 0.12996 0.28958 0.0
H1456 H 0.86615 0.17106 0.27427 0.0
C1457 C 0.87326 0.12834 0.30071 0.0
H1458 H 0.84603 0.14661 0.27034 0.0
C1459 C 0.88494 0.14229 0.30282 0.0
C1460 C 0.88205 0.15814 0.29396 0.0
H1461 H 0.87503 0.11673 0.3087 0.0
H1462 H 0.89521 0.1412 0.31255 0.0
C1463 C 0.86858 0.15904 0.28141 0.0
C1464 C 0.08613 0.88418 0.46833 0.0
C1465 C 0.08798 0.86962 0.45718 0.0
H1466 H 0.0977 0.90772 0.47823 0.0
C1467 C 0.10448 0.86597 0.44996 0.0
H1468 H 0.07357 0.88721 0.47423 0.0
C1469 C 0.11827 0.87784 0.45211 0.0
C1470 C 0.1158 0.89342 0.46167 0.0
H1471 H 0.10633 0.85484 0.44134 0.0
H1472 H 0.13046 0.87539 0.44527 0.0
C1473 C 0.09996 0.89595 0.47064 0.0
C1474 C 0.37208 0.36809 0.70019 0.0
C1475 C 0.35693 0.36613 0.71053 0.0
H1476 H 0.39443 0.35553 0.68878 0.0
C1477 C 0.35464 0.35059 0.72009 0.0
H1478 H 0.37435 0.38004 0.69287 0.0
C1479 C 0.36612 0.33654 0.7177 0.0
C1480 C 0.38019 0.33786 0.70585 0.0
H1481 H 0.3432 0.34873 0.72829 0.0
H1482 H 0.36322 0.32422 0.72412 0.0
C1483 C 0.38368 0.35409 0.69794 0.0
C1484 C 0.90067 0.60222 0.9715 0.0
C1485 C 0.88441 0.60533 0.96353 0.0
H1486 H 0.92739 0.61032 0.97385 0.0
C1487 C 0.88173 0.62126 0.95462 0.0
H1488 H 0.9031 0.59015 0.97857 0.0
C1489 C 0.89561 0.63293 0.95205 0.0
C1490 C 0.91242 0.62872 0.95819 0.0
H1491 H 0.86923 0.62415 0.94855 0.0
H1492 H 0.89352 0.64437 0.94391 0.0
C1493 C 0.91459 0.61378 0.96877 0.0
C1494 C 0.63092 0.16071 0.21882 0.0
C1495 C 0.61728 0.15945 0.20649 0.0
H1496 H 0.65372 0.14869 0.22983 0.0
C1497 C 0.61437 0.14338 0.19804 0.0
H1498 H 0.63336 0.17291 0.22565 0.0
C1499 C 0.62618 0.12956 0.20028 0.0
C1500 C 0.64094 0.13153 0.21116 0.0
H1501 H 0.60397 0.14201 0.18848 0.0
H1502 H 0.62439 0.11778 0.19257 0.0
C1503 C 0.6426 0.14683 0.22121 0.0
C1504 C 0.52989 0.08777 0.12187 0.0
C1505 C 0.54246 0.08931 0.13527 0.0
H1506 H 0.51832 0.09946 0.09917 0.0
C1507 C 0.55068 0.10553 0.13795 0.0
H1508 H 0.52323 0.07544 0.11962 0.0
C1509 C 0.54802 0.11924 0.12609 0.0
C1510 C 0.53694 0.11698 0.11152 0.0
H1511 H 0.56041 0.10712 0.14816 0.0
H1512 H 0.55559 0.13114 0.12765 0.0
C1513 C 0.52708 0.10153 0.11014 0.0
C1514 C 0.04716 0.87893 0.37384 0.0
C1515 C 0.03638 0.88151 0.38858 0.0
H1516 H 0.05893 0.8905 0.35114 0.0
C1517 C 0.02639 0.8969 0.38972 0.0
H1518 H 0.0548 0.86705 0.37245 0.0
C1519 C 0.0288 0.91033 0.37752 0.0
C1520 C 0.04108 0.90851 0.36389 0.0
H1521 H 0.01785 0.89921 0.40082 0.0
H1522 H 0.02207 0.92266 0.37956 0.0
C1523 C 0.04942 0.8923 0.36152 0.0
C1524 C 0.35327 0.2975 0.6124 0.0
C1525 C 0.33686 0.28997 0.61586 0.0
H1526 H 0.37925 0.30211 0.62188 0.0
C1527 C 0.3352 0.27825 0.62999 0.0
H1528 H 0.35496 0.30656 0.60161 0.0
C1529 C 0.34912 0.27563 0.64157 0.0
C1530 C 0.36486 0.28486 0.63932 0.0
H1531 H 0.32272 0.27212 0.63285 0.0
H1532 H 0.347 0.26756 0.65306 0.0
C1533 C 0.36714 0.29504 0.62411 0.0
C1534 C 0.95034 0.62051 0.87335 0.0
C1535 C 0.96179 0.618 0.88759 0.0
H1536 H 0.93779 0.60891 0.85109 0.0
C1537 C 0.9721 0.60279 0.88815 0.0
H1538 H 0.94243 0.63226 0.87241 0.0
C1539 C 0.96939 0.58941 0.87596 0.0
C1540 C 0.9565 0.59113 0.8629 0.0
H1541 H 0.98115 0.60053 0.89884 0.0
H1542 H 0.9764 0.57718 0.8776 0.0
C1543 C 0.94779 0.60721 0.86101 0.0
C1544 C 0.145 0.70129 0.11465 0.0
C1545 C 0.16169 0.70821 0.11805 0.0
H1546 H 0.119 0.69737 0.12436 0.0
C1547 C 0.16388 0.71966 0.13233 0.0
H1548 H 0.14291 0.69245 0.10374 0.0
C1549 C 0.15017 0.72255 0.14411 0.0
C1550 C 0.13413 0.71386 0.1419 0.0
H1551 H 0.17658 0.72533 0.13515 0.0
H1552 H 0.15267 0.73034 0.15571 0.0
C1553 C 0.13135 0.70401 0.12655 0.0
C1554 C 0.44851 0.89268 0.13508 0.0
C1555 C 0.45681 0.90879 0.13199 0.0
H1556 H 0.44326 0.86693 0.12533 0.0
C1557 C 0.4691 0.91003 0.1183 0.0
H1558 H 0.439 0.89131 0.14553 0.0
C1559 C 0.47158 0.89606 0.10674 0.0
C1560 C 0.46167 0.88068 0.10858 0.0
H1561 H 0.47584 0.92226 0.11572 0.0
H1562 H 0.48015 0.89788 0.09557 0.0
C1563 C 0.45085 0.87876 0.1234 0.0
C1564 C 0.33669 0.21919 0.86613 0.0
C1565 C 0.33816 0.20821 0.88086 0.0
H1566 H 0.34905 0.22922 0.84306 0.0
C1567 C 0.35467 0.20144 0.88531 0.0
H1568 H 0.32414 0.22475 0.86249 0.0
C1569 C 0.36892 0.20387 0.87406 0.0
C1570 C 0.36692 0.21325 0.8583 0.0
H1571 H 0.35623 0.19297 0.89659 0.0
H1572 H 0.38116 0.19738 0.87712 0.0
C1573 C 0.35097 0.22177 0.85498 0.0
C1574 C 0.66005 0.28084 0.36936 0.0
C1575 C 0.65882 0.29332 0.38287 0.0
H1576 H 0.64791 0.26947 0.3468 0.0
C1577 C 0.64271 0.30167 0.38585 0.0
H1578 H 0.67229 0.27408 0.36687 0.0
C1579 C 0.62879 0.29916 0.37421 0.0
C1580 C 0.63071 0.28813 0.35954 0.0
H1581 H 0.64136 0.31133 0.39616 0.0
H1582 H 0.61696 0.30678 0.37604 0.0
C1583 C 0.64608 0.2782 0.35784 0.0
C1584 C 0.12158 0.03769 0.6152 0.0
C1585 C 0.10548 0.02942 0.61164 0.0
H1586 H 0.14496 0.04895 0.60454 0.0
C1587 C 0.10235 0.02292 0.59474 0.0
H1588 H 0.12446 0.04261 0.6282 0.0
C1589 C 0.11406 0.02666 0.58118 0.0
C1590 C 0.12915 0.03676 0.58436 0.0
H1591 H 0.09012 0.01642 0.59163 0.0
H1592 H 0.11058 0.02284 0.56795 0.0
C1593 C 0.1334 0.04124 0.60167 0.0
C1594 C 0.69833 0.88705 0.8557 0.0
C1595 C 0.70635 0.88408 0.83943 0.0
H1596 H 0.69337 0.87703 0.88141 0.0
C1597 C 0.71855 0.87035 0.83786 0.0
H1598 H 0.68889 0.89753 0.85732 0.0
C1599 C 0.72117 0.85861 0.85166 0.0
C1600 C 0.71147 0.86033 0.86719 0.0
H1601 H 0.72506 0.86786 0.82549 0.0
H1602 H 0.72962 0.84741 0.84958 0.0
C1603 C 0.70079 0.8752 0.86945 0.0
C1604 C 0.86305 0.44994 0.10531 0.0
C1605 C 0.86617 0.45715 0.08869 0.0
H1606 H 0.87313 0.44572 0.13113 0.0
C1607 C 0.8803 0.46879 0.0865 0.0
H1608 H 0.85227 0.44095 0.1074 0.0
C1609 C 0.89222 0.4716 0.1001 0.0
C1610 C 0.8903 0.46262 0.11604 0.0
H1611 H 0.88291 0.47466 0.07384 0.0
H1612 H 0.9037 0.47955 0.09758 0.0
C1613 C 0.87509 0.45257 0.11886 0.0
C1614 C 0.27408 0.64065 0.35008 0.0
C1615 C 0.28322 0.63945 0.36598 0.0
H1616 H 0.27125 0.63062 0.32406 0.0
C1617 C 0.29381 0.62468 0.36911 0.0
H1618 H 0.26572 0.65178 0.34733 0.0
C1619 C 0.29681 0.61241 0.35584 0.0
C1620 C 0.28943 0.61489 0.33919 0.0
H1621 H 0.30081 0.62327 0.38138 0.0
H1622 H 0.30622 0.60203 0.35812 0.0
C1623 C 0.27725 0.62851 0.33675 0.0
C1624 C 0.10601 0.97188 0.39328 0.0
C1625 C 0.1079 0.9615 0.37822 0.0
H1626 H 0.11506 0.97707 0.41928 0.0
C1627 C 0.12284 0.95081 0.37656 0.0
H1628 H 0.09475 0.98037 0.39489 0.0
C1629 C 0.13462 0.94906 0.39049 0.0
C1630 C 0.1315 0.95784 0.40634 0.0
H1631 H 0.12482 0.94287 0.36496 0.0
H1632 H 0.14517 0.93964 0.38937 0.0
C1633 C 0.11767 0.96999 0.40725 0.0
C1634 C 0.79745 0.88413 0.642 0.0
C1635 C 0.78951 0.88132 0.65834 0.0
H1636 H 0.8024 0.87379 0.61641 0.0
C1637 C 0.77743 0.86751 0.66015 0.0
H1638 H 0.8068 0.89466 0.6402 0.0
C1639 C 0.77485 0.85558 0.64651 0.0
C1640 C 0.78447 0.85716 0.63092 0.0
H1641 H 0.77099 0.86514 0.67258 0.0
H1642 H 0.76648 0.84434 0.64878 0.0
C1643 C 0.79503 0.87207 0.62842 0.0
C1644 C 0.89211 0.52782 0.89416 0.0
C1645 C 0.88999 0.53824 0.87916 0.0
H1646 H 0.88351 0.52256 0.92031 0.0
C1647 C 0.87508 0.54904 0.87784 0.0
H1648 H 0.90333 0.51924 0.89552 0.0
C1649 C 0.8636 0.55081 0.892 0.0
C1650 C 0.86694 0.54195 0.90776 0.0
H1651 H 0.87293 0.55702 0.86631 0.0
H1652 H 0.85307 0.56029 0.89111 0.0
C1653 C 0.88073 0.52972 0.90837 0.0
C1654 C 0.2197 0.6279 0.15984 0.0
C1655 C 0.20691 0.61469 0.15866 0.0
H1656 H 0.23118 0.65053 0.14791 0.0
C1657 C 0.19805 0.61228 0.14273 0.0
H1658 H 0.22685 0.62995 0.17193 0.0
C1659 C 0.20038 0.62421 0.12903 0.0
C1660 C 0.21175 0.6386 0.13098 0.0
H1661 H 0.18813 0.60221 0.14142 0.0
H1662 H 0.19237 0.62284 0.11739 0.0
C1663 C 0.22218 0.63971 0.14608 0.0
C1664 C 0.08824 0.61898 0.0306 0.0
C1665 C 0.0894 0.63268 0.04288 0.0
H1666 H 0.10053 0.59635 0.01951 0.0
C1667 C 0.1055 0.63589 0.05114 0.0
H1668 H 0.07602 0.61631 0.02389 0.0
C1669 C 0.11951 0.62433 0.04875 0.0
C1670 C 0.11768 0.6095 0.03794 0.0
H1671 H 0.10681 0.64636 0.06064 0.0
H1672 H 0.13135 0.62637 0.05631 0.0
C1673 C 0.10229 0.60753 0.02808 0.0
C1674 C 0.12366 0.87046 0.29894 0.0
C1675 C 0.13847 0.86813 0.28818 0.0
H1676 H 0.10134 0.85843 0.31096 0.0
C1677 C 0.14008 0.85258 0.2785 0.0
H1678 H 0.12191 0.88244 0.30634 0.0
C1679 C 0.12831 0.83883 0.28119 0.0
C1680 C 0.11462 0.84048 0.29344 0.0
H1681 H 0.15123 0.85045 0.26998 0.0
H1682 H 0.13072 0.82645 0.27469 0.0
C1683 C 0.11176 0.85676 0.30147 0.0
C1684 C 0.91046 0.8799 0.52924 0.0
C1685 C 0.90906 0.86563 0.54083 0.0
H1686 H 0.8982 0.90279 0.51867 0.0
C1687 C 0.89269 0.86174 0.54823 0.0
H1688 H 0.9229 0.8831 0.52319 0.0
C1689 C 0.87857 0.87314 0.54577 0.0
C1690 C 0.88055 0.8885 0.53573 0.0
H1691 H 0.8912 0.85083 0.55718 0.0
H1692 H 0.86647 0.87055 0.55273 0.0
C1693 C 0.8963 0.8912 0.52664 0.0
C1694 C 0.871 0.65974 0.78157 0.0
C1695 C 0.88407 0.65865 0.79453 0.0
H1696 H 0.8486 0.64766 0.76984 0.0
C1697 C 0.88644 0.64277 0.80349 0.0
H1698 H 0.86898 0.6718 0.77436 0.0
C1699 C 0.87459 0.62901 0.80106 0.0
C1700 C 0.86035 0.63085 0.78949 0.0
H1701 H 0.89638 0.64155 0.81354 0.0
H1702 H 0.87591 0.6174 0.80912 0.0
C1703 C 0.8593 0.64591 0.779 0.0
C1704 C 0.09774 0.39354 0.97143 0.0
C1705 C 0.11364 0.39103 0.96256 0.0
H1706 H 0.07117 0.38516 0.97443 0.0
C1707 C 0.11595 0.37573 0.95251 0.0
H1708 H 0.09559 0.4051 0.97937 0.0
C1709 C 0.102 0.36418 0.94983 0.0
C1710 C 0.08548 0.36788 0.95698 0.0
H1711 H 0.12819 0.37331 0.94573 0.0
H1712 H 0.10376 0.35331 0.94087 0.0
C1713 C 0.08374 0.3821 0.96858 0.0
C1714 C 0.38452 0.85404 0.19926 0.0
C1715 C 0.38116 0.83747 0.20648 0.0
H1716 H 0.37487 0.88002 0.19509 0.0
C1717 C 0.367 0.8355 0.21814 0.0
H1718 H 0.39533 0.85596 0.19026 0.0
C1719 C 0.35531 0.8493 0.22097 0.0
C1720 C 0.35748 0.86521 0.21202 0.0
H1721 H 0.3642 0.82289 0.22402 0.0
H1722 H 0.34381 0.84696 0.22895 0.0
C1723 C 0.37271 0.86777 0.20193 0.0
C1724 C 0.91567 0.11553 0.46937 0.0
C1725 C 0.9139 0.13014 0.45826 0.0
H1726 H 0.90367 0.09241 0.47973 0.0
C1727 C 0.89727 0.13436 0.45167 0.0
H1728 H 0.92832 0.11207 0.4748 0.0
C1729 C 0.88318 0.12298 0.45436 0.0
C1730 C 0.88546 0.10733 0.46386 0.0
H1731 H 0.89548 0.14555 0.44312 0.0
H1732 H 0.87083 0.12584 0.44798 0.0
C1733 C 0.90154 0.10426 0.47222 0.0
C1734 C 0.62581 0.62959 0.70502 0.0
C1735 C 0.64151 0.63205 0.71439 0.0
H1736 H 0.60297 0.64163 0.69404 0.0
C1737 C 0.64437 0.6481 0.72288 0.0
H1738 H 0.62311 0.61724 0.69855 0.0
C1739 C 0.63285 0.66207 0.72023 0.0
C1740 C 0.61819 0.66016 0.70922 0.0
H1741 H 0.65625 0.65036 0.73032 0.0
H1742 H 0.63615 0.67474 0.72572 0.0
C1743 C 0.61418 0.64352 0.70253 0.0
C1744 C 0.54981 0.6044 0.63572 0.0
C1745 C 0.54181 0.58833 0.63173 0.0
H1746 H 0.55526 0.6305 0.62709 0.0
C1747 C 0.53018 0.58745 0.61745 0.0
H1748 H 0.55879 0.6055 0.64665 0.0
C1749 C 0.52812 0.60177 0.60624 0.0
C1750 C 0.53778 0.61716 0.60904 0.0
H1751 H 0.52367 0.57527 0.61417 0.0
H1752 H 0.5201 0.60025 0.59463 0.0
C1753 C 0.54787 0.61868 0.62441 0.0
C1754 C 0.04568 0.38005 0.87351 0.0
C1755 C 0.0348 0.3824 0.88822 0.0
H1756 H 0.05795 0.39204 0.85131 0.0
C1757 C 0.02515 0.39798 0.88975 0.0
H1758 H 0.05307 0.36805 0.87183 0.0
C1759 C 0.02799 0.41173 0.87801 0.0
C1760 C 0.04037 0.41006 0.86444 0.0
H1761 H 0.01654 0.40014 0.90082 0.0
H1762 H 0.0215 0.42413 0.88036 0.0
C1763 C 0.04837 0.39374 0.86164 0.0
C1764 C 0.33805 0.78013 0.12667 0.0
C1765 C 0.33928 0.79295 0.11348 0.0
H1766 H 0.35005 0.76842 0.14913 0.0
C1767 C 0.35527 0.80164 0.11095 0.0
H1768 H 0.3259 0.77311 0.1288 0.0
C1769 C 0.36906 0.7991 0.12275 0.0
C1770 C 0.3671 0.7877 0.13711 0.0
H1771 H 0.35661 0.81158 0.1009 0.0
H1772 H 0.38077 0.80698 0.1213 0.0
C1773 C 0.35189 0.77745 0.13833 0.0
C1774 C 0.95045 0.10567 0.36217 0.0
C1775 C 0.95825 0.08923 0.36477 0.0
H1776 H 0.94603 0.13128 0.37268 0.0
C1777 C 0.97061 0.08724 0.3783 0.0
H1778 H 0.94089 0.1076 0.35186 0.0
C1779 C 0.97362 0.10081 0.39021 0.0
C1780 C 0.96415 0.11651 0.38888 0.0
H1781 H 0.97695 0.07473 0.3805 0.0
H1782 H 0.98219 0.09841 0.40126 0.0
C1783 C 0.9533 0.11918 0.3742 0.0
C1784 C 0.14502 0.2212 0.63848 0.0
C1785 C 0.13034 0.21015 0.63907 0.0
H1786 H 0.17004 0.22609 0.62684 0.0
C1787 C 0.12797 0.19774 0.62562 0.0
H1788 H 0.14713 0.231 0.64853 0.0
C1789 C 0.14099 0.19511 0.613 0.0
C1790 C 0.15666 0.20469 0.61381 0.0
H1791 H 0.11662 0.18922 0.62556 0.0
H1792 H 0.13951 0.18443 0.60377 0.0
C1793 C 0.15812 0.21842 0.62602 0.0
C1794 C 0.4685 0.41054 0.61849 0.0
C1795 C 0.45657 0.40872 0.63243 0.0
H1796 H 0.47963 0.39893 0.59553 0.0
C1797 C 0.44917 0.39222 0.63573 0.0
H1798 H 0.47454 0.42309 0.61575 0.0
C1799 C 0.45194 0.37842 0.62401 0.0
C1800 C 0.46231 0.38086 0.60895 0.0
H1801 H 0.43996 0.39041 0.64638 0.0
H1802 H 0.44497 0.36623 0.6261 0.0
C1803 C 0.47143 0.39669 0.60689 0.0
C1804 C 0.33212 0.71932 0.36258 0.0
C1805 C 0.33386 0.70912 0.37784 0.0
H1806 H 0.34442 0.72887 0.33926 0.0
C1807 C 0.3506 0.70345 0.3829 0.0
H1808 H 0.31939 0.72407 0.35847 0.0
C1809 C 0.36493 0.70611 0.37182 0.0
C1810 C 0.36277 0.71462 0.35559 0.0
H1811 H 0.35238 0.69564 0.39462 0.0
H1812 H 0.37742 0.70041 0.3754 0.0
C1813 C 0.34648 0.72213 0.35158 0.0
C1814 C 0.64322 0.80016 0.88488 0.0
C1815 C 0.65961 0.79253 0.88158 0.0
H1816 H 0.61732 0.8048 0.87522 0.0
C1817 C 0.66131 0.78069 0.86755 0.0
H1818 H 0.64151 0.80932 0.89559 0.0
C1819 C 0.64745 0.77805 0.8559 0.0
C1820 C 0.63174 0.78736 0.85799 0.0
H1821 H 0.67377 0.77448 0.86481 0.0
H1822 H 0.6496 0.76988 0.84449 0.0
C1823 C 0.62941 0.79767 0.87311 0.0
C1824 C 0.61656 0.52827 0.58605 0.0
C1825 C 0.63115 0.5393 0.58842 0.0
H1826 H 0.59289 0.51806 0.5971 0.0
C1827 C 0.63473 0.54586 0.60521 0.0
H1828 H 0.61358 0.52289 0.57326 0.0
C1829 C 0.62276 0.54325 0.61882 0.0
C1830 C 0.60715 0.53387 0.61589 0.0
H1831 H 0.64587 0.55436 0.60743 0.0
H1832 H 0.62513 0.54963 0.63127 0.0
C1833 C 0.6047 0.52549 0.59971 0.0
C1834 C 0.21908 0.36895 0.83738 0.0
C1835 C 0.20735 0.38306 0.83922 0.0
H1836 H 0.22966 0.34564 0.84883 0.0
C1837 C 0.19974 0.38623 0.85566 0.0
H1838 H 0.22527 0.3663 0.82489 0.0
C1839 C 0.20211 0.37427 0.86933 0.0
C1840 C 0.21228 0.35908 0.86683 0.0
H1841 H 0.19067 0.397 0.85748 0.0
H1842 H 0.19499 0.3763 0.88144 0.0
C1843 C 0.2216 0.3571 0.85111 0.0
C1844 C 0.3644 0.95051 0.10315 0.0
C1845 C 0.36829 0.95772 0.08669 0.0
H1846 H 0.37333 0.94606 0.12934 0.0
C1847 C 0.38272 0.96909 0.08511 0.0
H1848 H 0.35337 0.94173 0.10479 0.0
C1849 C 0.39414 0.97164 0.09918 0.0
C1850 C 0.39141 0.96269 0.11501 0.0
H1851 H 0.38593 0.97499 0.0726 0.0
H1852 H 0.40585 0.9794 0.09715 0.0
C1853 C 0.37593 0.9529 0.11717 0.0
C1854 C 0.77552 0.14022 0.3524 0.0
C1855 C 0.78512 0.13882 0.36802 0.0
H1856 H 0.77187 0.13051 0.32637 0.0
C1857 C 0.79583 0.12402 0.37062 0.0
H1858 H 0.76705 0.15137 0.35006 0.0
C1859 C 0.79843 0.11193 0.3571 0.0
C1860 C 0.79052 0.1146 0.34073 0.0
H1861 H 0.80318 0.12244 0.38266 0.0
H1862 H 0.80791 0.10153 0.35897 0.0
C1863 C 0.77828 0.12826 0.33883 0.0
C1864 C 0.63434 0.45126 0.39294 0.0
C1865 C 0.63085 0.45873 0.40937 0.0
H1866 H 0.62484 0.44656 0.36699 0.0
C1867 C 0.61657 0.47026 0.41109 0.0
H1868 H 0.64526 0.44236 0.3912 0.0
C1869 C 0.60488 0.47273 0.39722 0.0
C1870 C 0.6072 0.46354 0.38147 0.0
H1871 H 0.61367 0.47635 0.42358 0.0
H1872 H 0.59329 0.48062 0.39939 0.0
C1873 C 0.62255 0.45358 0.37912 0.0
C1874 C 0.27557 0.35677 0.6455 0.0
C1875 C 0.28548 0.35825 0.63008 0.0
H1876 H 0.27142 0.36629 0.67153 0.0
C1877 C 0.29636 0.37299 0.62785 0.0
H1878 H 0.26696 0.34569 0.64756 0.0
C1879 C 0.29877 0.38493 0.64153 0.0
C1880 C 0.29048 0.3822 0.65771 0.0
H1881 H 0.30395 0.37464 0.61597 0.0
H1882 H 0.30834 0.39529 0.63995 0.0
C1883 C 0.27813 0.3686 0.65924 0.0
C1884 C 0.39063 0.02958 0.89463 0.0
C1885 C 0.38965 0.04023 0.87967 0.0
H1886 H 0.38064 0.02449 0.92031 0.0
C1887 C 0.37529 0.05166 0.87779 0.0
H1888 H 0.40141 0.02052 0.89641 0.0
C1889 C 0.36324 0.05379 0.89142 0.0
C1890 C 0.36549 0.04465 0.90722 0.0
H1891 H 0.37402 0.05984 0.86626 0.0
H1892 H 0.35319 0.06373 0.89018 0.0
C1893 C 0.3787 0.03184 0.90832 0.0
C1894 C 0.70395 0.12556 0.12958 0.0
C1895 C 0.71414 0.14075 0.13203 0.0
H1896 H 0.69243 0.10294 0.14152 0.0
C1897 C 0.72341 0.1428 0.14777 0.0
H1898 H 0.69687 0.12348 0.11746 0.0
C1899 C 0.7208 0.13105 0.16155 0.0
C1900 C 0.70905 0.11696 0.15976 0.0
H1901 H 0.73147 0.15427 0.14999 0.0
H1902 H 0.72695 0.13377 0.17406 0.0
C1903 C 0.70151 0.11369 0.14332 0.0
C1904 C 0.58542 0.11637 0.03087 0.0
C1905 C 0.58736 0.13073 0.04226 0.0
H1906 H 0.59709 0.09324 0.02014 0.0
C1907 C 0.604 0.13454 0.04905 0.0
H1908 H 0.57274 0.11324 0.02529 0.0
C1909 C 0.61792 0.12297 0.04623 0.0
C1910 C 0.61544 0.10754 0.03643 0.0
H1911 H 0.60591 0.14553 0.05783 0.0
H1912 H 0.63027 0.12549 0.05275 0.0
C1913 C 0.59937 0.10491 0.02789 0.0
C1914 C 0.62352 0.36934 0.29701 0.0
C1915 C 0.63832 0.36706 0.28624 0.0
H1916 H 0.6013 0.35722 0.30912 0.0
C1917 C 0.64002 0.35148 0.27662 0.0
H1918 H 0.62171 0.38134 0.30437 0.0
C1919 C 0.62835 0.33766 0.2794 0.0
C1920 C 0.61468 0.33927 0.29167 0.0
H1921 H 0.65117 0.34938 0.2681 0.0
H1922 H 0.63083 0.32526 0.27295 0.0
C1923 C 0.61171 0.35558 0.29962 0.0
C1924 C 0.39745 0.38985 0.52699 0.0
C1925 C 0.38184 0.3876 0.53642 0.0
H1926 H 0.42392 0.3814 0.52337 0.0
C1927 C 0.37987 0.37259 0.54697 0.0
H1928 H 0.39933 0.40117 0.51863 0.0
C1929 C 0.39393 0.36113 0.54955 0.0
C1930 C 0.41021 0.36462 0.54176 0.0
H1931 H 0.36787 0.37034 0.55421 0.0
H1932 H 0.39249 0.35052 0.55887 0.0
C1933 C 0.41155 0.37851 0.52971 0.0
C1934 C 0.37424 0.15811 0.78204 0.0
C1935 C 0.38705 0.15772 0.79529 0.0
H1936 H 0.35232 0.14522 0.77029 0.0
C1937 C 0.38953 0.1422 0.80484 0.0
H1938 H 0.37216 0.16987 0.77437 0.0
C1939 C 0.378 0.12813 0.80265 0.0
C1940 C 0.36396 0.12931 0.79075 0.0
H1941 H 0.39928 0.14151 0.81513 0.0
H1942 H 0.37937 0.11684 0.81114 0.0
C1943 C 0.36285 0.14398 0.77972 0.0
C1944 C 0.61917 0.87354 0.95077 0.0
C1945 C 0.6169 0.88832 0.96157 0.0
H1946 H 0.60707 0.85125 0.93875 0.0
C1947 C 0.6014 0.88991 0.97133 0.0
H1948 H 0.63111 0.87181 0.94329 0.0
C1949 C 0.58763 0.87815 0.96868 0.0
C1950 C 0.58921 0.86451 0.95638 0.0
H1951 H 0.59931 0.90104 0.97988 0.0
H1952 H 0.57529 0.88054 0.97526 0.0
C1953 C 0.60545 0.86166 0.94826 0.0
C1954 C 0.8844 0.35355 0.20091 0.0
C1955 C 0.88017 0.33701 0.20772 0.0
H1956 H 0.87582 0.37991 0.19673 0.0
C1957 C 0.86546 0.33536 0.21872 0.0
H1958 H 0.89566 0.35524 0.19243 0.0
C1959 C 0.85412 0.3495 0.22125 0.0
C1960 C 0.85721 0.36546 0.21265 0.0
H1961 H 0.862 0.32278 0.2243 0.0
H1962 H 0.84221 0.34744 0.22868 0.0
C1963 C 0.87295 0.36765 0.20328 0.0
C1964 C 0.41713 0.61389 0.47032 0.0
C1965 C 0.41517 0.62909 0.46007 0.0
H1966 H 0.40508 0.59053 0.4801 0.0
C1967 C 0.39833 0.63405 0.45463 0.0
H1968 H 0.42994 0.60985 0.4749 0.0
C1969 C 0.3841 0.6229 0.45752 0.0
C1970 C 0.38646 0.60671 0.46604 0.0
H1971 H 0.39638 0.64573 0.4468 0.0
H1972 H 0.37151 0.62638 0.45196 0.0
C1973 C 0.40287 0.60282 0.47336 0.0
C1974 C 0.14882 0.15353 0.72592 0.0
C1975 C 0.1449 0.13669 0.71969 0.0
H1976 H 0.14139 0.18055 0.7262 0.0
C1977 C 0.12836 0.13358 0.71212 0.0
H1978 H 0.16139 0.15631 0.73189 0.0
C1979 C 0.11684 0.14745 0.70896 0.0
C1980 C 0.12177 0.16465 0.71314 0.0
H1981 H 0.12488 0.12065 0.70742 0.0
H1982 H 0.10487 0.14488 0.70178 0.0
C1983 C 0.13737 0.16742 0.72259 0.0
C1984 C 0.0277 0.09929 0.60358 0.0
C1985 C 0.03661 0.11488 0.60754 0.0
H1986 H 0.02405 0.07226 0.60993 0.0
C1987 C 0.0462 0.11591 0.62326 0.0
H1988 H 0.02008 0.09811 0.59167 0.0
C1989 C 0.04842 0.10111 0.63381 0.0
C1990 C 0.04118 0.08499 0.62872 0.0
H1991 H 0.053 0.12785 0.62683 0.0
H1992 H 0.05699 0.10198 0.64509 0.0
C1993 C 0.03002 0.08446 0.61405 0.0
C1994 C 0.54916 0.89227 0.86282 0.0
C1995 C 0.54102 0.90842 0.86613 0.0
H1996 H 0.55446 0.86646 0.87239 0.0
C1997 C 0.529 0.90968 0.88005 0.0
H1998 H 0.55846 0.89088 0.85219 0.0
C1999 C 0.52667 0.89569 0.89162 0.0
C2000 C 0.53646 0.88026 0.88955 0.0
H2001 H 0.5224 0.92194 0.8828 0.0
H2002 H 0.51833 0.89753 0.90296 0.0
C2003 C 0.54697 0.87832 0.87451 0.0
C2004 C 0.85172 0.27682 0.1394 0.0
C2005 C 0.86722 0.28664 0.13837 0.0
H2006 H 0.82584 0.27304 0.12933 0.0
C2007 C 0.86985 0.29769 0.12383 0.0
H2008 H 0.84936 0.26808 0.15033 0.0
C2009 C 0.85644 0.30036 0.11164 0.0
C2010 C 0.84014 0.29218 0.11396 0.0
H2011 H 0.88181 0.30523 0.12253 0.0
H2012 H 0.85828 0.31008 0.10145 0.0
C2013 C 0.83825 0.27965 0.12734 0.0
C2014 C 0.47382 0.60127 0.39016 0.0
C2015 C 0.46425 0.61694 0.38927 0.0
H2016 H 0.47707 0.57537 0.37995 0.0
C2017 C 0.45319 0.61984 0.3748 0.0
H2018 H 0.48256 0.59871 0.40105 0.0
C2019 C 0.45022 0.60655 0.36256 0.0
C2020 C 0.4581 0.59009 0.36476 0.0
H2021 H 0.44585 0.63194 0.37362 0.0
H2022 H 0.44047 0.60862 0.35245 0.0
C2023 C 0.47068 0.58791 0.37806 0.0
C2024 C 0.65963 0.71687 0.62768 0.0
C2025 C 0.65796 0.70404 0.61456 0.0
H2026 H 0.64837 0.72866 0.65048 0.0
C2027 C 0.64185 0.69542 0.61252 0.0
H2028 H 0.67189 0.72382 0.62945 0.0
C2029 C 0.62844 0.69803 0.62473 0.0
C2030 C 0.63088 0.70944 0.63902 0.0
H2031 H 0.64019 0.68546 0.60255 0.0
H2032 H 0.61665 0.6902 0.62366 0.0
C2033 C 0.64616 0.71964 0.63976 0.0
C2034 C 0.947 0.89198 0.63544 0.0
C2035 C 0.95431 0.90856 0.63239 0.0
H2036 H 0.94306 0.86608 0.62545 0.0
C2037 C 0.96634 0.91064 0.61857 0.0
H2038 H 0.93771 0.88999 0.64598 0.0
C2039 C 0.96947 0.89695 0.60683 0.0
C2040 C 0.96044 0.88104 0.60863 0.0
H2041 H 0.9723 0.92327 0.61603 0.0
H2042 H 0.97774 0.89938 0.59556 0.0
C2043 C 0.94997 0.87834 0.62357 0.0
C2044 C 0.84871 0.2215 0.35541 0.0
C2045 C 0.86471 0.21291 0.35828 0.0
H2046 H 0.82204 0.22439 0.36349 0.0
C2047 C 0.86701 0.20332 0.37387 0.0
H2048 H 0.84656 0.2291 0.34361 0.0
C2049 C 0.85299 0.20075 0.38537 0.0
C2050 C 0.83641 0.20758 0.38134 0.0
H2051 H 0.87931 0.19676 0.37659 0.0
H2052 H 0.85477 0.19212 0.3965 0.0
C2053 C 0.83465 0.21878 0.3668 0.0
C2054 C 0.14647 0.27798 0.85636 0.0
C2055 C 0.1309 0.28749 0.85865 0.0
H2056 H 0.17285 0.27405 0.86496 0.0
C2057 C 0.12888 0.29778 0.87383 0.0
H2058 H 0.14838 0.26981 0.84491 0.0
C2059 C 0.14286 0.30007 0.88544 0.0
C2060 C 0.15912 0.29225 0.88193 0.0
H2061 H 0.1169 0.30505 0.8761 0.0
H2062 H 0.14138 0.30922 0.89619 0.0
C2063 C 0.16049 0.28042 0.86786 0.0
C2064 C 0.61901 0.02981 0.08879 0.0
C2065 C 0.63274 0.04207 0.08983 0.0
H2066 H 0.59639 0.01886 0.10122 0.0
C2067 C 0.63602 0.05043 0.10587 0.0
H2068 H 0.61629 0.02304 0.07661 0.0
C2069 C 0.62448 0.04817 0.11992 0.0
C2070 C 0.60962 0.03738 0.11821 0.0
H2071 H 0.6465 0.05992 0.10708 0.0
H2072 H 0.62656 0.05581 0.13171 0.0
C2073 C 0.60759 0.02742 0.10289 0.0
C2074 C 0.19874 0.8874 0.35577 0.0
C2075 C 0.20646 0.8839 0.33946 0.0
H2076 H 0.19396 0.87807 0.38177 0.0
C2077 C 0.21835 0.86988 0.33803 0.0
H2078 H 0.18955 0.89811 0.35728 0.0
C2079 C 0.22093 0.85841 0.35205 0.0
C2080 C 0.2115 0.86067 0.36767 0.0
H2081 H 0.22463 0.86698 0.32563 0.0
H2082 H 0.22912 0.84698 0.3501 0.0
C2083 C 0.20117 0.87581 0.36975 0.0
C2084 C 0.3617 0.44567 0.60494 0.0
C2085 C 0.36464 0.45408 0.58886 0.0
H2086 H 0.37158 0.44049 0.63066 0.0
C2087 C 0.37809 0.46662 0.58764 0.0
H2088 H 0.35144 0.43595 0.60627 0.0
C2089 C 0.38961 0.46927 0.60162 0.0
C2090 C 0.38796 0.45926 0.61695 0.0
H2091 H 0.38054 0.47341 0.57542 0.0
H2092 H 0.40061 0.47805 0.59981 0.0
C2093 C 0.37335 0.44817 0.61886 0.0
C2094 C 0.79457 0.62487 0.86918 0.0
C2095 C 0.7846 0.64017 0.86655 0.0
H2096 H 0.80629 0.60226 0.85739 0.0
C2097 C 0.77586 0.64247 0.85055 0.0
H2098 H 0.80124 0.6226 0.8815 0.0
C2099 C 0.77882 0.63084 0.83673 0.0
C2100 C 0.79039 0.61663 0.83877 0.0
H2101 H 0.76799 0.65404 0.84818 0.0
H2102 H 0.77312 0.63375 0.82406 0.0
C2103 C 0.79736 0.61312 0.85541 0.0
C2104 C 0.62268 0.95105 0.87985 0.0
C2105 C 0.6075 0.96128 0.88215 0.0
H2106 H 0.64523 0.93958 0.89198 0.0
C2107 C 0.60534 0.9706 0.89785 0.0
H2108 H 0.62485 0.94393 0.86777 0.0
C2109 C 0.617 0.96805 0.91172 0.0
C2110 C 0.63111 0.9563 0.91005 0.0
H2111 H 0.59388 0.9787 0.89997 0.0
H2112 H 0.61421 0.97426 0.92418 0.0
C2113 C 0.63446 0.94866 0.89367 0.0
C2114 C 0.27878 0.86692 0.1609 0.0
C2115 C 0.29044 0.88113 0.15956 0.0
H2116 H 0.26821 0.84405 0.1486 0.0
C2117 C 0.29795 0.88498 0.14323 0.0
H2118 H 0.27264 0.86376 0.17331 0.0
C2119 C 0.29553 0.87357 0.1291 0.0
C2120 C 0.28543 0.85826 0.13105 0.0
H2121 H 0.30695 0.89586 0.14176 0.0
H2122 H 0.30256 0.87612 0.11704 0.0
C2123 C 0.27622 0.85562 0.14674 0.0
C2124 C 0.36362 0.55423 0.39392 0.0
C2125 C 0.36637 0.54485 0.40949 0.0
H2126 H 0.37337 0.56039 0.36837 0.0
C2127 C 0.37938 0.53179 0.40986 0.0
H2128 H 0.35369 0.56435 0.39322 0.0
C2129 C 0.39066 0.52949 0.39563 0.0
C2130 C 0.38921 0.54033 0.38085 0.0
H2131 H 0.38168 0.52422 0.42165 0.0
H2132 H 0.40132 0.5202 0.39682 0.0
C2133 C 0.37501 0.55205 0.37974 0.0
C2134 C 0.71829 0.62841 0.66033 0.0
C2135 C 0.70607 0.61463 0.65946 0.0
H2136 H 0.72912 0.65095 0.64767 0.0
C2137 C 0.69765 0.6112 0.64348 0.0
H2138 H 0.72512 0.63124 0.67244 0.0
C2139 C 0.69982 0.62262 0.62932 0.0
C2140 C 0.71057 0.63753 0.63087 0.0
H2141 H 0.6882 0.60067 0.64239 0.0
H2142 H 0.69214 0.62042 0.61759 0.0
C2143 C 0.72059 0.63972 0.64612 0.0
C2144 C 0.62183 0.62421 0.55167 0.0
C2145 C 0.61979 0.61023 0.5398 0.0
H2146 H 0.6097 0.64614 0.56431 0.0
C2147 C 0.60494 0.60986 0.52897 0.0
H2148 H 0.6333 0.62502 0.55999 0.0
C2149 C 0.59143 0.62195 0.53148 0.0
C2150 C 0.59264 0.63472 0.54472 0.0
H2151 H 0.60305 0.59938 0.51958 0.0
H2152 H 0.57947 0.62043 0.524 0.0
C2153 C 0.60839 0.63644 0.55404 0.0
C2154 C 0.62959 0.83898 0.77946 0.0
C2155 C 0.61575 0.84021 0.79157 0.0
H2156 H 0.65245 0.85113 0.76871 0.0
C2157 C 0.61255 0.85631 0.79985 0.0
H2158 H 0.63226 0.82675 0.77277 0.0
C2159 C 0.62426 0.87023 0.79768 0.0
C2160 C 0.63922 0.86831 0.78705 0.0
H2161 H 0.60199 0.85766 0.80924 0.0
H2162 H 0.62223 0.88205 0.80526 0.0
C2163 C 0.64118 0.85295 0.77714 0.0
C2164 C 0.39359 0.86263 0.04885 0.0
C2165 C 0.40994 0.86544 0.04093 0.0
H2166 H 0.36792 0.87288 0.05357 0.0
C2167 C 0.41171 0.87911 0.02869 0.0
H2168 H 0.39182 0.85221 0.05832 0.0
C2169 C 0.39802 0.89093 0.02591 0.0
C2170 C 0.38241 0.88937 0.03549 0.0
H2171 H 0.42415 0.88147 0.02227 0.0
H2172 H 0.40026 0.90207 0.01741 0.0
C2173 C 0.37995 0.87458 0.04623 0.0
C2174 C 0.35867 0.64394 0.27902 0.0
C2175 C 0.35956 0.62941 0.29026 0.0
H2176 H 0.36834 0.6696 0.27328 0.0
C2177 C 0.37353 0.62826 0.30225 0.0
H2178 H 0.3482 0.64514 0.26951 0.0
C2179 C 0.38522 0.64222 0.30428 0.0
C2180 C 0.383 0.65761 0.29446 0.0
H2181 H 0.37474 0.61707 0.3109 0.0
H2182 H 0.39493 0.64155 0.31461 0.0
C2183 C 0.37024 0.65795 0.28116 0.0
C2184 C 0.58772 0.38102 0.46877 0.0
C2185 C 0.58936 0.36716 0.45673 0.0
H2186 H 0.59932 0.40413 0.47961 0.0
C2187 C 0.60563 0.36419 0.44872 0.0
H2188 H 0.57534 0.38351 0.47527 0.0
C2189 C 0.61932 0.37614 0.45105 0.0
C2190 C 0.61699 0.39111 0.46159 0.0
H2191 H 0.6073 0.35362 0.43939 0.0
H2192 H 0.63129 0.3743 0.44364 0.0
C2193 C 0.60146 0.39285 0.47127 0.0
C2194 C 0.86738 0.83781 0.71805 0.0
C2195 C 0.88102 0.83894 0.70569 0.0
H2196 H 0.84459 0.84995 0.72895 0.0
C2197 C 0.88391 0.85491 0.69705 0.0
H2198 H 0.86495 0.82569 0.72503 0.0
C2199 C 0.8721 0.86876 0.69916 0.0
C2200 C 0.85734 0.86691 0.71007 0.0
H2201 H 0.89431 0.85619 0.68748 0.0
H2202 H 0.87389 0.88046 0.69132 0.0
C2203 C 0.85569 0.85172 0.72029 0.0
C2204 C 0.39794 0.10583 0.97151 0.0
C2205 C 0.38226 0.10875 0.96236 0.0
H2206 H 0.42453 0.1138 0.97528 0.0
C2207 C 0.38037 0.12429 0.9526 0.0
H2208 H 0.39976 0.09408 0.97925 0.0
C2209 C 0.39454 0.13571 0.95046 0.0
C2210 C 0.41085 0.13163 0.95789 0.0
H2211 H 0.36833 0.12704 0.94562 0.0
H2212 H 0.39312 0.1468 0.94172 0.0
C2213 C 0.41214 0.11714 0.96922 0.0
C2214 C 0.1266 0.63036 0.20304 0.0
C2215 C 0.14205 0.63224 0.21295 0.0
H2216 H 0.10415 0.64306 0.19202 0.0
C2217 C 0.14482 0.64788 0.22221 0.0
H2218 H 0.12396 0.61833 0.19597 0.0
C2219 C 0.13347 0.66206 0.2199 0.0
C2220 C 0.11908 0.66078 0.20843 0.0
H2221 H 0.15648 0.6497 0.23007 0.0
H2222 H 0.1367 0.67442 0.22607 0.0
C2223 C 0.11516 0.64449 0.20087 0.0
C2224 C 0.02968 0.58563 0.1168 0.0
C2225 C 0.04095 0.58754 0.13127 0.0
H2226 H 0.01918 0.59734 0.09359 0.0
C2227 C 0.04767 0.60419 0.13519 0.0
H2228 H 0.02415 0.57295 0.11358 0.0
C2229 C 0.04495 0.61813 0.12362 0.0
C2230 C 0.03531 0.61566 0.10808 0.0
H2231 H 0.05634 0.60609 0.14626 0.0
H2232 H 0.05144 0.63048 0.12623 0.0
C2233 C 0.0268 0.59961 0.10534 0.0
C2234 C 0.54972 0.39365 0.36277 0.0
C2235 C 0.54139 0.40975 0.36582 0.0
H2236 H 0.55519 0.368 0.37266 0.0
C2237 C 0.52923 0.41104 0.37963 0.0
H2238 H 0.55913 0.39225 0.35223 0.0
C2239 C 0.52693 0.39715 0.39132 0.0
C2240 C 0.53689 0.38181 0.38949 0.0
H2241 H 0.52248 0.42327 0.38218 0.0
H2242 H 0.51847 0.39903 0.40256 0.0
C2243 C 0.54756 0.37981 0.37457 0.0
C2244 C 0.84887 0.77543 0.64347 0.0
C2245 C 0.86467 0.78444 0.64079 0.0
H2246 H 0.82235 0.77193 0.63512 0.0
C2247 C 0.86688 0.79417 0.62527 0.0
H2248 H 0.84681 0.76771 0.6552 0.0
C2249 C 0.85291 0.79645 0.61366 0.0
C2250 C 0.83647 0.78918 0.61749 0.0
H2251 H 0.87903 0.80105 0.62271 0.0
H2252 H 0.85457 0.80519 0.60259 0.0
C2253 C 0.83485 0.77787 0.63196 0.0
C2254 C 0.45362 0.1205 0.87558 0.0
C2255 C 0.4639 0.11783 0.89066 0.0
H2256 H 0.44205 0.10891 0.85279 0.0
C2257 C 0.47329 0.10212 0.89236 0.0
H2258 H 0.44644 0.13261 0.87377 0.0
C2259 C 0.47072 0.08854 0.88036 0.0
C2260 C 0.45888 0.09053 0.86637 0.0
H2261 H 0.48144 0.09972 0.90373 0.0
H2262 H 0.47694 0.07602 0.88282 0.0
C2263 C 0.45122 0.10698 0.86345 0.0
C2264 C 0.663 0.21955 0.13143 0.0
C2265 C 0.6614 0.20786 0.11726 0.0
H2266 H 0.6511 0.23017 0.15449 0.0
C2267 C 0.64501 0.20034 0.11373 0.0
H2268 H 0.67545 0.22569 0.13436 0.0
C2269 C 0.63109 0.20278 0.12538 0.0
C2270 C 0.6333 0.21292 0.14063 0.0
H2271 H 0.64335 0.19132 0.1029 0.0
H2272 H 0.61898 0.19574 0.12307 0.0
C2273 C 0.64903 0.22214 0.14298 0.0
C2274 C 0.95028 0.39349 0.13474 0.0
C2275 C 0.95753 0.40985 0.13055 0.0
H2276 H 0.94571 0.36717 0.12625 0.0
C2277 C 0.96881 0.41117 0.11602 0.0
H2278 H 0.94159 0.39204 0.14586 0.0
C2279 C 0.97121 0.39693 0.10479 0.0
C2280 C 0.96224 0.38117 0.10782 0.0
H2281 H 0.97474 0.4236 0.11259 0.0
H2282 H 0.97891 0.39876 0.093 0.0
C2283 C 0.95255 0.37927 0.12341 0.0
C2284 C 0.83614 0.71862 0.8684 0.0
C2285 C 0.83746 0.70687 0.88255 0.0
H2286 H 0.84849 0.72936 0.84565 0.0
C2287 C 0.85379 0.69934 0.88639 0.0
H2288 H 0.82374 0.72477 0.86526 0.0
C2289 C 0.86794 0.70186 0.87504 0.0
C2290 C 0.86603 0.71207 0.85979 0.0
H2291 H 0.85523 0.69028 0.89721 0.0
H2292 H 0.88001 0.69482 0.87757 0.0
C2293 C 0.85033 0.72127 0.85716 0.0
C2294 C 0.14217 0.80258 0.38745 0.0
C2295 C 0.15833 0.79438 0.3844 0.0
H2296 H 0.11637 0.80756 0.37769 0.0
C2297 C 0.15965 0.78198 0.37083 0.0
H2298 H 0.14076 0.81218 0.39781 0.0
C2299 C 0.14569 0.77929 0.35931 0.0
C2300 C 0.13025 0.78911 0.36108 0.0
H2301 H 0.17194 0.77534 0.36829 0.0
H2302 H 0.14758 0.77064 0.34822 0.0
C2303 C 0.12826 0.80003 0.37582 0.0
C2304 C 0.12862 0.55977 0.21298 0.0
C2305 C 0.1415 0.55188 0.20245 0.0
H2306 H 0.10119 0.56515 0.21566 0.0
C2307 C 0.13659 0.53843 0.19095 0.0
H2308 H 0.13209 0.57037 0.22177 0.0
C2309 C 0.11885 0.53487 0.18806 0.0
C2310 C 0.10595 0.54533 0.19601 0.0
H2311 H 0.14627 0.53236 0.18252 0.0
H2312 H 0.11539 0.5261 0.17743 0.0
C2313 C 0.11087 0.55679 0.2095 0.0
C2314 C 0.69117 0.36383 0.45903 0.0
C2315 C 0.70259 0.35892 0.44551 0.0
H2316 H 0.67762 0.38502 0.47134 0.0
C2317 C 0.71295 0.37182 0.43744 0.0
H2318 H 0.68287 0.35413 0.46524 0.0
C2319 C 0.70937 0.38956 0.44033 0.0
C2320 C 0.69597 0.39446 0.45189 0.0
H2321 H 0.72167 0.36834 0.42678 0.0
H2322 H 0.71537 0.39923 0.43185 0.0
C2323 C 0.68819 0.38158 0.4625 0.0
C2324 C 0.88392 0.94097 0.70998 0.0
C2325 C 0.88923 0.9522 0.69644 0.0
H2326 H 0.86234 0.92773 0.72193 0.0
C2327 C 0.87664 0.96286 0.68826 0.0
H2328 H 0.89338 0.93251 0.71635 0.0
C2329 C 0.8588 0.95954 0.69085 0.0
C2330 C 0.85351 0.94613 0.70224 0.0
H2331 H 0.8804 0.97151 0.67764 0.0
H2332 H 0.84937 0.96568 0.68219 0.0
C2333 C 0.86608 0.93825 0.71316 0.0
C2334 C 0.30618 0.13923 0.95913 0.0
C2335 C 0.29479 0.14416 0.94559 0.0
H2336 H 0.31992 0.11805 0.97127 0.0
C2337 C 0.28447 0.13124 0.93748 0.0
H2338 H 0.31441 0.14894 0.96541 0.0
C2339 C 0.28821 0.11351 0.94022 0.0
C2340 C 0.30167 0.10863 0.95173 0.0
H2341 H 0.27575 0.13471 0.92683 0.0
H2342 H 0.2823 0.10385 0.93165 0.0
C2343 C 0.30932 0.12148 0.96246 0.0
C2344 C 0.13712 0.4608 0.80739 0.0
C2345 C 0.14249 0.4474 0.79603 0.0
H2346 H 0.11545 0.47278 0.82048 0.0
C2347 C 0.12994 0.43928 0.78526 0.0
H2348 H 0.14653 0.46708 0.81597 0.0
C2349 C 0.11208 0.44193 0.78843 0.0
C2350 C 0.10671 0.45334 0.80178 0.0
H2351 H 0.13375 0.42872 0.77656 0.0
H2352 H 0.10266 0.43339 0.78212 0.0
C2353 C 0.11926 0.46405 0.80995 0.0
C2354 C 0.80717 0.36261 0.0368 0.0
C2355 C 0.79584 0.357 0.05014 0.0
H2356 H 0.82019 0.3845 0.0252 0.0
C2357 C 0.78483 0.36934 0.05824 0.0
H2358 H 0.81588 0.35336 0.03049 0.0
C2359 C 0.78787 0.38726 0.05584 0.0
C2360 C 0.80137 0.39287 0.0447 0.0
H2361 H 0.77609 0.36534 0.0687 0.0
H2362 H 0.78143 0.39651 0.06447 0.0
C2363 C 0.80961 0.38053 0.0338 0.0
C2364 C 0.8796 0.03487 0.31019 0.0
C2365 C 0.8919 0.0458 0.30192 0.0
H2366 H 0.85246 0.03145 0.31655 0.0
C2367 C 0.8862 0.05713 0.28863 0.0
H2368 H 0.88366 0.02616 0.32064 0.0
C2369 C 0.86827 0.05955 0.28571 0.0
C2370 C 0.85598 0.05127 0.29664 0.0
H2371 H 0.89542 0.06582 0.28223 0.0
H2372 H 0.86422 0.07009 0.27709 0.0
C2373 C 0.86167 0.03788 0.30786 0.0
C2374 C 0.21169 0.12605 0.55917 0.0
C2375 C 0.20072 0.13866 0.55144 0.0
H2376 H 0.21521 0.09869 0.56441 0.0
C2377 C 0.18925 0.13347 0.53808 0.0
H2378 H 0.2205 0.12973 0.56968 0.0
C2379 C 0.18681 0.11567 0.53448 0.0
C2380 C 0.19518 0.10296 0.54486 0.0
H2381 H 0.18052 0.14294 0.5321 0.0
H2382 H 0.1762 0.11198 0.52579 0.0
C2383 C 0.20869 0.10822 0.55615 0.0
C2384 C 0.20932 0.89022 0.44121 0.0
C2385 C 0.19579 0.89542 0.45249 0.0
H2386 H 0.22172 0.86869 0.4283 0.0
C2387 C 0.18796 0.88282 0.46341 0.0
H2388 H 0.21537 0.89967 0.43251 0.0
C2389 C 0.19098 0.86499 0.46043 0.0
C2390 C 0.20245 0.85973 0.44708 0.0
H2391 H 0.17732 0.8865 0.47207 0.0
H2392 H 0.18261 0.85547 0.46681 0.0
C2393 C 0.21294 0.87242 0.43883 0.0
C2394 C 0.36787 0.43804 0.71257 0.0
C2395 C 0.35527 0.44594 0.70172 0.0
H2396 H 0.39519 0.4324 0.71578 0.0
C2397 C 0.36052 0.45932 0.69028 0.0
H2398 H 0.36415 0.42751 0.72136 0.0
C2399 C 0.37835 0.4627 0.6877 0.0
C2400 C 0.39099 0.45213 0.69592 0.0
H2401 H 0.35106 0.46543 0.68164 0.0
H2402 H 0.38208 0.47137 0.67709 0.0
C2403 C 0.38571 0.44082 0.7094 0.0
C2404 C 0.78989 0.61023 0.94115 0.0
C2405 C 0.80357 0.60575 0.95255 0.0
H2406 H 0.7768 0.63103 0.92772 0.0
C2407 C 0.81125 0.6189 0.9629 0.0
H2408 H 0.78401 0.60035 0.93284 0.0
C2409 C 0.80771 0.63654 0.95941 0.0
C2410 C 0.7959 0.64108 0.9461 0.0
H2411 H 0.82205 0.61576 0.97158 0.0
H2412 H 0.81585 0.64649 0.96543 0.0
C2413 C 0.78578 0.62786 0.93825 0.0
C2414 C 0.61405 0.05744 0.21101 0.0
C2415 C 0.60881 0.04599 0.19765 0.0
H2416 H 0.63554 0.07097 0.22281 0.0
C2417 C 0.62149 0.03546 0.18944 0.0
H2418 H 0.60452 0.06584 0.21735 0.0
C2419 C 0.6393 0.03897 0.19195 0.0
C2420 C 0.6445 0.05246 0.20329 0.0
H2421 H 0.61777 0.02669 0.17891 0.0
H2422 H 0.64878 0.03285 0.18332 0.0
C2423 C 0.63188 0.06036 0.21412 0.0
C2424 C 0.56063 0.21325 0.12917 0.0
C2425 C 0.55297 0.20289 0.14232 0.0
H2426 H 0.56554 0.21554 0.10161 0.0
C2427 C 0.53938 0.19139 0.13781 0.0
H2428 H 0.57132 0.22204 0.13233 0.0
C2429 C 0.53549 0.18828 0.12018 0.0
C2430 C 0.54575 0.19602 0.10699 0.0
H2431 H 0.53347 0.1831 0.14771 0.0
H2432 H 0.52663 0.17763 0.11702 0.0
C2433 C 0.55732 0.20955 0.11153 0.0
C2434 C 0.03421 0.81104 0.38153 0.0
C2435 C 0.04502 0.80327 0.39425 0.0
H2436 H 0.03116 0.8165 0.35415 0.0
C2437 C 0.05652 0.78988 0.38915 0.0
H2438 H 0.02538 0.82157 0.38512 0.0
C2439 C 0.05922 0.78639 0.37136 0.0
C2440 C 0.05104 0.79685 0.3586 0.0
H2441 H 0.06513 0.78386 0.3987 0.0
H2442 H 0.06988 0.77773 0.36774 0.0
C2443 C 0.03749 0.80816 0.36373 0.0
C2444 C 0.4588 0.30586 0.63782 0.0
C2445 C 0.44519 0.29436 0.64226 0.0
H2446 H 0.47177 0.31949 0.61707 0.0
C2447 C 0.43773 0.28387 0.6291 0.0
H2448 H 0.46457 0.31424 0.64772 0.0
C2449 C 0.44124 0.28744 0.61147 0.0
C2450 C 0.45284 0.30095 0.60697 0.0
H2451 H 0.42702 0.27507 0.63219 0.0
H2452 H 0.43317 0.28135 0.6015 0.0
C2453 C 0.46291 0.30884 0.62021 0.0
C2454 C 0.96046 0.69151 0.86429 0.0
C2455 C 0.9468 0.70289 0.85967 0.0
H2456 H 0.97311 0.67781 0.88517 0.0
C2457 C 0.93891 0.71315 0.87276 0.0
H2458 H 0.96656 0.68331 0.85444 0.0
C2459 C 0.94206 0.70943 0.89043 0.0
C2460 C 0.95369 0.69597 0.89505 0.0
H2461 H 0.92817 0.72185 0.86951 0.0
H2462 H 0.93368 0.71531 0.90026 0.0
C2463 C 0.9642 0.68839 0.88196 0.0
C2464 C 0.06207 0.71309 0.1306 0.0
C2465 C 0.05445 0.70282 0.14385 0.0
H2466 H 0.06681 0.7153 0.103 0.0
C2467 C 0.04097 0.69115 0.13945 0.0
H2468 H 0.07272 0.72196 0.13368 0.0
C2469 C 0.03702 0.68794 0.12184 0.0
C2470 C 0.04708 0.69578 0.10856 0.0
H2471 H 0.03514 0.6829 0.14941 0.0
H2472 H 0.0282 0.67725 0.11875 0.0
C2473 C 0.0587 0.70929 0.11299 0.0
C2474 C 0.44098 0.7878 0.11103 0.0
C2475 C 0.45253 0.8012 0.1061 0.0
H2476 H 0.42732 0.77563 0.13223 0.0
C2477 C 0.4631 0.80904 0.11898 0.0
H2478 H 0.43255 0.78174 0.10135 0.0
C2479 C 0.45954 0.80616 0.13672 0.0
C2480 C 0.44595 0.79482 0.14165 0.0
H2481 H 0.47196 0.81959 0.1155 0.0
H2482 H 0.46571 0.81453 0.14639 0.0
C2483 C 0.43801 0.78432 0.12877 0.0
C2484 C 0.46201 0.19277 0.86474 0.0
C2485 C 0.44835 0.20408 0.85996 0.0
H2486 H 0.47448 0.17913 0.88577 0.0
C2487 C 0.44033 0.21437 0.87295 0.0
H2488 H 0.46821 0.18455 0.85496 0.0
C2489 C 0.44332 0.21069 0.89066 0.0
C2490 C 0.45492 0.19726 0.89541 0.0
H2491 H 0.42958 0.22302 0.86958 0.0
H2492 H 0.43482 0.21656 0.9004 0.0
C2493 C 0.46559 0.1897 0.88245 0.0
C2494 C 0.55961 0.28536 0.36994 0.0
C2495 C 0.55143 0.2958 0.35717 0.0
H2496 H 0.56562 0.28291 0.39726 0.0
C2497 C 0.53795 0.30718 0.3623 0.0
H2498 H 0.57022 0.27663 0.3663 0.0
C2499 C 0.53474 0.31016 0.3801 0.0
C2500 C 0.54557 0.30239 0.3928 0.0
H2501 H 0.53161 0.31551 0.35271 0.0
H2502 H 0.52597 0.32074 0.38368 0.0
C2503 C 0.557 0.28893 0.38772 0.0
C2504 C 0.13795 0.04147 0.69031 0.0
C2505 C 0.14067 0.05525 0.70212 0.0
H2506 H 0.11911 0.02728 0.67516 0.0
C2507 C 0.12625 0.06237 0.71108 0.0
H2508 H 0.14885 0.03609 0.68297 0.0
C2509 C 0.1092 0.05783 0.70614 0.0
C2510 C 0.10649 0.04566 0.69267 0.0
H2511 H 0.12805 0.07331 0.71995 0.0
H2512 H 0.09832 0.06536 0.71127 0.0
C2513 C 0.1209 0.03644 0.68586 0.0
C2514 C 0.69122 0.86154 0.95999 0.0
C2515 C 0.70269 0.85671 0.94648 0.0
H2516 H 0.67761 0.88265 0.97237 0.0
C2517 C 0.7132 0.86965 0.93865 0.0
H2518 H 0.68284 0.85181 0.96605 0.0
C2519 C 0.70962 0.88738 0.94166 0.0
C2520 C 0.6961 0.89221 0.95311 0.0
H2521 H 0.72198 0.86625 0.92803 0.0
H2522 H 0.71571 0.8971 0.93329 0.0
C2523 C 0.68825 0.87926 0.96359 0.0
C2524 C 0.86281 0.45966 0.19044 0.0
C2525 C 0.85808 0.4461 0.2019 0.0
H2526 H 0.88383 0.47221 0.17684 0.0
C2527 C 0.87109 0.43824 0.21229 0.0
H2528 H 0.85303 0.46571 0.18212 0.0
C2529 C 0.88879 0.44137 0.2087 0.0
C2530 C 0.89353 0.45295 0.19525 0.0
H2531 H 0.86775 0.42756 0.22103 0.0
H2532 H 0.89857 0.43303 0.21472 0.0
C2533 C 0.8805 0.46337 0.18745 0.0
C2534 C 0.28573 0.63107 0.43804 0.0
C2535 C 0.29563 0.64497 0.44496 0.0
H2536 H 0.28459 0.60327 0.43415 0.0
C2537 C 0.30788 0.64146 0.45818 0.0
H2538 H 0.27642 0.63345 0.42758 0.0
C2539 C 0.31201 0.62413 0.46249 0.0
C2540 C 0.30443 0.61025 0.45309 0.0
H2541 H 0.31586 0.65193 0.46348 0.0
H2542 H 0.32309 0.62175 0.47105 0.0
C2543 C 0.2904 0.61374 0.44177 0.0
C2544 C 0.11132 0.94054 0.28636 0.0
C2545 C 0.10566 0.95205 0.29951 0.0
H2546 H 0.13328 0.92751 0.27486 0.0
C2547 C 0.11796 0.96318 0.3075 0.0
H2548 H 0.1021 0.9317 0.28017 0.0
C2549 C 0.13589 0.96023 0.30509 0.0
C2550 C 0.14157 0.94668 0.29405 0.0
H2551 H 0.11393 0.97203 0.31785 0.0
H2552 H 0.14513 0.96683 0.31361 0.0
C2553 C 0.12924 0.93817 0.28333 0.0
C2554 C 0.80512 0.85727 0.5383 0.0
C2555 C 0.79352 0.8525 0.55172 0.0
H2556 H 0.81875 0.87835 0.52588 0.0
C2557 C 0.78283 0.86546 0.55928 0.0
H2558 H 0.81364 0.84754 0.53244 0.0
C2559 C 0.78633 0.88317 0.55614 0.0
C2560 C 0.79994 0.88797 0.54478 0.0
H2561 H 0.77394 0.86211 0.56984 0.0
H2562 H 0.78008 0.89295 0.56432 0.0
C2563 C 0.80803 0.87497 0.53456 0.0
C2564 C 0.86086 0.5391 0.80533 0.0
C2565 C 0.85523 0.5527 0.79432 0.0
H2566 H 0.88277 0.52719 0.81806 0.0
C2567 C 0.86757 0.56108 0.78352 0.0
H2568 H 0.85161 0.53257 0.81389 0.0
C2569 C 0.88549 0.55861 0.78649 0.0
C2570 C 0.89111 0.54711 0.79968 0.0
H2571 H 0.86358 0.57174 0.77503 0.0
H2572 H 0.89474 0.56739 0.78026 0.0
C2573 C 0.87877 0.53604 0.8077 0.0
C2574 C 0.19211 0.63855 0.03912 0.0
C2575 C 0.20362 0.64358 0.05253 0.0
H2576 H 0.17865 0.61723 0.02695 0.0
C2577 C 0.21432 0.63079 0.06035 0.0
H2578 H 0.18359 0.64816 0.03306 0.0
C2579 C 0.21092 0.61301 0.05746 0.0
C2580 C 0.19738 0.60797 0.04611 0.0
H2581 H 0.22315 0.63433 0.07089 0.0
H2582 H 0.21717 0.60339 0.06582 0.0
C2583 C 0.1893 0.62078 0.03564 0.0
C2584 C 0.18961 0.36142 0.95978 0.0
C2585 C 0.20134 0.35689 0.94639 0.0
H2586 H 0.1755 0.38221 0.97215 0.0
C2587 C 0.21165 0.37007 0.93871 0.0
H2588 H 0.18135 0.3515 0.96569 0.0
C2589 C 0.20773 0.38771 0.9418 0.0
C2590 C 0.19406 0.39222 0.9532 0.0
H2591 H 0.2206 0.36689 0.92816 0.0
H2592 H 0.21373 0.3976 0.93357 0.0
C2593 C 0.18628 0.37906 0.96346 0.0
C2594 C 0.37817 0.96194 0.1874 0.0
C2595 C 0.39124 0.95157 0.1952 0.0
H2596 H 0.35066 0.96434 0.18229 0.0
C2597 C 0.38657 0.93998 0.20866 0.0
H2598 H 0.38145 0.97077 0.17677 0.0
C2599 C 0.36889 0.93691 0.21239 0.0
C2600 C 0.35581 0.94479 0.20211 0.0
H2601 H 0.39639 0.93166 0.21464 0.0
H2602 H 0.36561 0.92625 0.22119 0.0
C2603 C 0.36049 0.95828 0.19055 0.0
C2604 C 0.80815 0.13848 0.46022 0.0
C2605 C 0.79621 0.14275 0.44693 0.0
H2606 H 0.82276 0.11799 0.47253 0.0
C2607 C 0.78609 0.12935 0.43938 0.0
H2608 H 0.81627 0.14857 0.46602 0.0
C2609 C 0.79036 0.1118 0.44249 0.0
C2610 C 0.8042 0.10758 0.4538 0.0
H2611 H 0.77698 0.13232 0.4289 0.0
H2612 H 0.78447 0.10176 0.43436 0.0
C2613 C 0.81185 0.12092 0.46392 0.0
C2614 C 0.61887 0.53444 0.68812 0.0
C2615 C 0.6057 0.54475 0.69583 0.0
H2616 H 0.64642 0.5322 0.68315 0.0
C2617 C 0.61023 0.55634 0.70934 0.0
H2618 H 0.61569 0.52562 0.67745 0.0
C2619 C 0.62787 0.5595 0.71317 0.0
C2620 C 0.64104 0.55169 0.70295 0.0
H2621 H 0.60033 0.56461 0.71526 0.0
H2622 H 0.63105 0.57017 0.72199 0.0
C2623 C 0.63651 0.53819 0.69136 0.0
C2624 C 0.5589 0.71091 0.61474 0.0
C2625 C 0.54749 0.69754 0.60943 0.0
H2626 H 0.57201 0.72293 0.63636 0.0
C2627 C 0.53655 0.68965 0.62196 0.0
H2628 H 0.5676 0.71703 0.60533 0.0
C2629 C 0.53963 0.69242 0.63982 0.0
C2630 C 0.55314 0.70367 0.64517 0.0
H2631 H 0.52779 0.67914 0.61818 0.0
H2632 H 0.53321 0.68398 0.64926 0.0
C2633 C 0.5614 0.71428 0.63258 0.0
C2634 C 0.03315 0.31115 0.87889 0.0
C2635 C 0.04346 0.30325 0.89194 0.0
H2636 H 0.0311 0.31674 0.85144 0.0
C2637 C 0.05507 0.28983 0.8872 0.0
H2638 H 0.02426 0.32171 0.88222 0.0
C2639 C 0.05838 0.28641 0.8695 0.0
C2640 C 0.05069 0.29695 0.85651 0.0
H2641 H 0.06331 0.28372 0.89702 0.0
H2642 H 0.06911 0.2777 0.86622 0.0
C2643 C 0.03705 0.30832 0.8612 0.0
C2644 C 0.93827 0.21254 0.37125 0.0
C2645 C 0.94581 0.20236 0.35789 0.0
H2646 H 0.93399 0.21472 0.39892 0.0
C2647 C 0.95962 0.19099 0.36207 0.0
H2648 H 0.9274 0.2212 0.36835 0.0
C2649 C 0.96397 0.1879 0.3796 0.0
C2650 C 0.95394 0.19551 0.39304 0.0
H2651 H 0.96542 0.18282 0.35201 0.0
H2652 H 0.97304 0.17737 0.38253 0.0
C2653 C 0.94205 0.20886 0.3888 0.0
C2654 C 0.06193 0.21403 0.6355 0.0
C2655 C 0.05418 0.20354 0.64851 0.0
H2656 H 0.06732 0.21643 0.60804 0.0
C2657 C 0.04083 0.19185 0.64372 0.0
H2658 H 0.07243 0.22298 0.63885 0.0
C2659 C 0.03736 0.18868 0.626 0.0
C2660 C 0.04769 0.19666 0.61303 0.0
H2661 H 0.03482 0.18349 0.65349 0.0
H2662 H 0.02871 0.17793 0.62264 0.0
C2663 C 0.05903 0.21029 0.6178 0.0
C2664 C 0.4371 0.71218 0.37307 0.0
C2665 C 0.44476 0.70232 0.35955 0.0
H2666 H 0.43303 0.71406 0.40079 0.0
C2667 C 0.45873 0.69108 0.3635 0.0
H2668 H 0.42607 0.7207 0.37032 0.0
C2669 C 0.46325 0.68788 0.38098 0.0
C2670 C 0.45325 0.69525 0.39457 0.0
H2671 H 0.46459 0.68312 0.35331 0.0
H2672 H 0.47251 0.67747 0.38374 0.0
C2673 C 0.44108 0.70841 0.39055 0.0
C2674 C 0.56024 0.78437 0.8682 0.0
C2675 C 0.55215 0.79503 0.85555 0.0
H2676 H 0.56595 0.78139 0.89553 0.0
C2677 C 0.53857 0.80625 0.86076 0.0
H2678 H 0.57093 0.77577 0.86451 0.0
C2679 C 0.53514 0.80884 0.87858 0.0
C2680 C 0.54585 0.80086 0.89125 0.0
H2681 H 0.5323 0.81474 0.85126 0.0
H2682 H 0.52628 0.81931 0.88227 0.0
C2683 C 0.5574 0.78756 0.88602 0.0
C2684 C 0.61067 0.4413 0.28824 0.0
C2685 C 0.60592 0.45287 0.30169 0.0
H2686 H 0.63171 0.42762 0.27579 0.0
C2687 C 0.61892 0.46334 0.30946 0.0
H2688 H 0.6009 0.43291 0.28226 0.0
C2689 C 0.63662 0.45975 0.30637 0.0
C2690 C 0.64139 0.44622 0.29489 0.0
H2691 H 0.61558 0.47218 0.32006 0.0
H2692 H 0.6464 0.46587 0.31464 0.0
C2693 C 0.62837 0.43829 0.28456 0.0
C2694 C 0.28385 0.36716 0.5584 0.0
C2695 C 0.29435 0.35413 0.55071 0.0
H2696 H 0.28153 0.39463 0.56376 0.0
C2697 C 0.306 0.35886 0.53732 0.0
H2698 H 0.27491 0.36384 0.56892 0.0
C2699 C 0.30919 0.37656 0.53378 0.0
C2700 C 0.30134 0.38956 0.54418 0.0
H2701 H 0.31437 0.34907 0.53136 0.0
H2702 H 0.31997 0.37986 0.52514 0.0
C2703 C 0.28762 0.38485 0.55546 0.0
C2704 C 0.38961 0.0568 0.78803 0.0
C2705 C 0.39535 0.04565 0.80146 0.0
H2706 H 0.36757 0.06957 0.77642 0.0
C2707 C 0.38314 0.03456 0.80964 0.0
H2708 H 0.39877 0.06555 0.78162 0.0
C2709 C 0.36519 0.03743 0.80728 0.0
C2710 C 0.35943 0.05083 0.7961 0.0
H2711 H 0.38723 0.02593 0.82015 0.0
H2712 H 0.35602 0.03098 0.81599 0.0
C2713 C 0.37166 0.05908 0.78507 0.0
C2714 C 0.71317 0.12951 0.06042 0.0
C2715 C 0.70277 0.14262 0.05273 0.0
H2716 H 0.71546 0.102 0.06561 0.0
C2717 C 0.69098 0.13797 0.03943 0.0
H2718 H 0.72215 0.13277 0.07093 0.0
C2719 C 0.68775 0.1203 0.03581 0.0
C2720 C 0.69569 0.1072 0.04603 0.0
H2721 H 0.68264 0.14782 0.03353 0.0
H2722 H 0.67696 0.11705 0.02716 0.0
C2723 C 0.70936 0.11184 0.0574 0.0
C2724 C 0.96264 0.30815 0.12156 0.0
C2725 C 0.95207 0.30031 0.10869 0.0
H2726 H 0.96534 0.31354 0.14898 0.0
C2727 C 0.94062 0.28682 0.11361 0.0
H2728 H 0.97141 0.31877 0.11808 0.0
C2729 C 0.93775 0.28324 0.13135 0.0
C2730 C 0.94567 0.29374 0.14424 0.0
H2731 H 0.93217 0.28076 0.10394 0.0
H2732 H 0.92712 0.27448 0.13481 0.0
C2733 C 0.95919 0.30516 0.13931 0.0
C2734 C 0.93733 0.78479 0.62834 0.0
C2735 C 0.94497 0.79538 0.64132 0.0
H2736 H 0.93235 0.78205 0.60084 0.0
C2737 C 0.9584 0.80698 0.63658 0.0
H2738 H 0.92674 0.77594 0.63167 0.0
C2739 C 0.9622 0.80987 0.61888 0.0
C2740 C 0.952 0.8018 0.60585 0.0
H2741 H 0.96428 0.81545 0.64633 0.0
H2742 H 0.97095 0.82055 0.61553 0.0
C2743 C 0.94054 0.78827 0.61063 0.0
C2744 C 0.61789 0.96399 0.8105 0.0
C2745 C 0.60526 0.95325 0.80249 0.0
H2746 H 0.64522 0.96711 0.81611 0.0
C2747 C 0.61047 0.94196 0.78897 0.0
H2748 H 0.61419 0.97264 0.82114 0.0
C2749 C 0.62829 0.93941 0.78551 0.0
C2750 C 0.64096 0.94751 0.79613 0.0
H2751 H 0.60099 0.9334 0.78277 0.0
H2752 H 0.632 0.92891 0.7767 0.0
C2753 C 0.63571 0.96085 0.80763 0.0
C2754 C 0.28566 0.87152 0.05845 0.0
C2755 C 0.29592 0.85841 0.05059 0.0
H2756 H 0.28355 0.89902 0.06377 0.0
C2757 C 0.30746 0.86305 0.03708 0.0
H2758 H 0.27684 0.86826 0.0691 0.0
C2759 C 0.3107 0.88072 0.03345 0.0
C2760 C 0.30304 0.8938 0.04391 0.0
H2761 H 0.31568 0.85319 0.03102 0.0
H2762 H 0.32137 0.88394 0.02465 0.0
C2763 C 0.28948 0.88919 0.05541 0.0
C2764 C 0.36807 0.55969 0.28554 0.0
C2765 C 0.35583 0.55135 0.29649 0.0
H2766 H 0.39516 0.56621 0.2821 0.0
C2767 C 0.36161 0.53806 0.30778 0.0
H2768 H 0.36394 0.57012 0.27684 0.0
C2769 C 0.37957 0.53525 0.31019 0.0
C2770 C 0.39178 0.54628 0.30193 0.0
H2771 H 0.35244 0.53159 0.31647 0.0
H2772 H 0.38367 0.52664 0.32071 0.0
C2773 C 0.38601 0.55746 0.28853 0.0
C2774 C 0.69109 0.63355 0.53784 0.0
C2775 C 0.70244 0.63904 0.5512 0.0
H2776 H 0.67807 0.61178 0.52601 0.0
C2777 C 0.71342 0.62661 0.55921 0.0
H2778 H 0.68237 0.64287 0.53162 0.0
C2779 C 0.7104 0.60872 0.55661 0.0
C2780 C 0.69692 0.60321 0.54541 0.0
H2781 H 0.72216 0.63052 0.5697 0.0
H2782 H 0.71685 0.59939 0.56515 0.0
C2783 C 0.68866 0.61567 0.53465 0.0
C2784 C 0.99265 0.4947 0.12435 0.0
C2785 C 0.98364 0.49143 0.14005 0.0
H2786 H 0.01593 0.50405 0.11213 0.0
C2787 C 0.99195 0.49524 0.15606 0.0
H2788 H 0.98676 0.49177 0.11178 0.0
C2789 C 0.0089 0.50233 0.15627 0.0
C2790 C 0.01784 0.50558 0.14048 0.0
H2791 H 0.9854 0.49268 0.16838 0.0
H2792 H 0.01491 0.50543 0.16874 0.0
C2793 C 0.00952 0.5016 0.12456 0.0
C2794 C 0.74469 0.25787 0.40681 0.0
C2795 C 0.74057 0.26616 0.39088 0.0
H2796 H 0.75504 0.23487 0.41933 0.0
C2797 C 0.74347 0.2571 0.37513 0.0
H2798 H 0.74243 0.26445 0.41918 0.0
C2799 C 0.75031 0.2402 0.37523 0.0
C2800 C 0.75459 0.23189 0.39108 0.0
H2801 H 0.7403 0.26298 0.36261 0.0
H2802 H 0.75247 0.23375 0.36277 0.0
C2803 C 0.75171 0.24087 0.40691 0.0
C2804 C 0.985 0.99481 0.62362 0.0
C2805 C 0.97732 0.9906 0.6398 0.0
H2806 H 0.00737 0.0045 0.61005 0.0
C2807 C 0.98696 0.99344 0.65525 0.0
H2808 H 0.97802 0.99271 0.61144 0.0
C2809 C 0.00403 0.00023 0.65444 0.0
C2810 C 0.01172 0.00417 0.63816 0.0
H2811 H 0.98146 0.99016 0.66791 0.0
H2812 H 0.01116 0.00239 0.66651 0.0
C2813 C 0.00196 0.00143 0.62281 0.0
C2814 C 0.24439 0.2571 0.87443 0.0
C2815 C 0.24118 0.26584 0.8903 0.0
H2816 H 0.25391 0.23411 0.86178 0.0
C2817 C 0.24526 0.25735 0.90614 0.0
H2818 H 0.24126 0.26314 0.86198 0.0
C2819 C 0.25257 0.24048 0.90603 0.0
C2820 C 0.25577 0.23181 0.89008 0.0
H2821 H 0.24276 0.26369 0.91858 0.0
H2822 H 0.25586 0.23433 0.91838 0.0
C2823 C 0.25152 0.24031 0.87432 0.0
C2824 C 0.00719 0.49717 0.87061 0.0
C2825 C 0.01586 0.493 0.85492 0.0
H2826 H 0.9844 0.50774 0.88276 0.0
C2827 C 0.0075 0.49659 0.83889 0.0
H2828 H 0.01315 0.49448 0.8832 0.0
C2829 C 0.99078 0.50424 0.83864 0.0
C2830 C 0.98215 0.5083 0.8544 0.0
H2831 H 0.01379 0.49337 0.82659 0.0
H2832 H 0.98469 0.50706 0.82613 0.0
C2833 C 0.99057 0.50466 0.87035 0.0
C2834 C 0.75416 0.25936 0.12177 0.0
C2835 C 0.75777 0.26766 0.10575 0.0
H2836 H 0.74446 0.2367 0.13483 0.0
C2837 C 0.75401 0.25875 0.09006 0.0
H2838 H 0.75701 0.26575 0.13412 0.0
C2839 C 0.74676 0.24185 0.09047 0.0
C2840 C 0.74329 0.23359 0.10658 0.0
H2841 H 0.75681 0.26473 0.0775 0.0
H2842 H 0.7438 0.23533 0.07822 0.0
C2843 C 0.7471 0.24256 0.12218 0.0
C2844 C 0.99017 0.0021 0.37043 0.0
C2845 C 0.98154 0.0063 0.35473 0.0
H2846 H 0.01294 0.99155 0.38262 0.0
C2847 C 0.98993 0.00272 0.33872 0.0
H2848 H 0.98418 0.00478 0.38302 0.0
C2849 C 0.00665 0.99507 0.33848 0.0
C2850 C 0.01527 0.99102 0.35427 0.0
H2851 H 0.98367 0.00596 0.3264 0.0
H2852 H 0.01278 0.99228 0.32599 0.0
C2853 C 0.0068 0.99464 0.3702 0.0
C2854 C 0.24374 0.24022 0.58993 0.0
C2855 C 0.2392 0.23194 0.60576 0.0
H2856 H 0.25485 0.263 0.57769 0.0
C2857 C 0.24215 0.24083 0.6216 0.0
H2858 H 0.24146 0.23377 0.5775 0.0
C2859 C 0.24947 0.25753 0.62169 0.0
C2860 C 0.25416 0.26582 0.60595 0.0
H2861 H 0.23868 0.23495 0.63404 0.0
H2862 H 0.25165 0.26384 0.63422 0.0
C2863 C 0.25121 0.25702 0.59003 0.0
C2864 C 0.15704 0.01153 0.50043 0.0
C2865 C 0.14144 0.02117 0.5023 0.0
H2866 H 0.16893 0.98752 0.49175 0.0
C2867 C 0.12567 0.01378 0.49636 0.0
H2868 H 0.16939 0.01681 0.50502 0.0
C2869 C 0.12536 0.99703 0.48919 0.0
C2870 C 0.14084 0.98721 0.48757 0.0
H2871 H 0.11338 0.02077 0.49765 0.0
H2872 H 0.11289 0.9918 0.48488 0.0
C2873 C 0.15676 0.9947 0.49303 0.0
C2874 C 0.25666 0.40781 0.74471 0.0
C2875 C 0.26483 0.3918 0.74063 0.0
H2876 H 0.23407 0.42051 0.75572 0.0
C2877 C 0.25599 0.3761 0.74437 0.0
H2878 H 0.26307 0.42013 0.74183 0.0
C2879 C 0.23941 0.37632 0.75196 0.0
C2880 C 0.23121 0.39225 0.75617 0.0
H2881 H 0.26179 0.36352 0.74128 0.0
H2882 H 0.23313 0.3639 0.75473 0.0
C2883 C 0.23999 0.40803 0.75248 0.0
C2884 C 0.84143 0.48803 0.00249 0.0
C2885 C 0.85702 0.47863 0.00538 0.0
H2886 H 0.82974 0.51169 0.99269 0.0
C2887 C 0.87301 0.48616 0.00031 0.0
H2888 H 0.8289 0.48262 0.00641 0.0
C2889 C 0.87351 0.50277 0.9928 0.0
C2890 C 0.85802 0.51231 0.99004 0.0
H2891 H 0.88529 0.47936 0.0024 0.0
H2892 H 0.88614 0.50809 0.98911 0.0
C2893 C 0.84192 0.50473 0.99482 0.0
C2894 C 0.75807 0.09021 0.25378 0.0
C2895 C 0.7667 0.10598 0.25784 0.0
H2896 H 0.73509 0.07816 0.24288 0.0
C2897 C 0.7583 0.12193 0.25412 0.0
H2898 H 0.76414 0.07771 0.25665 0.0
C2899 C 0.74169 0.12218 0.24661 0.0
C2900 C 0.73302 0.10649 0.24247 0.0
H2901 H 0.76446 0.13434 0.25719 0.0
H2902 H 0.73575 0.13477 0.24388 0.0
C2903 C 0.74138 0.09046 0.24609 0.0
C2904 C 0.50272 0.15663 0.01004 0.0
C2905 C 0.50581 0.14073 0.01883 0.0
H2906 H 0.49339 0.16906 0.98656 0.0
C2907 C 0.50189 0.12492 0.01026 0.0
H2908 H 0.50578 0.16902 0.01624 0.0
C2909 C 0.49522 0.12494 0.9933 0.0
C2910 C 0.4921 0.14076 0.98444 0.0
H2911 H 0.50423 0.11241 0.01654 0.0
H2912 H 0.49233 0.11244 0.98722 0.0
C2913 C 0.49584 0.15665 0.99299 0.0
C2914 C 0.99554 0.84217 0.50731 0.0
C2915 C 0.99142 0.85798 0.51584 0.0
H2916 H 0.00614 0.83001 0.48423 0.0
C2917 C 0.99467 0.87388 0.50716 0.0
H2918 H 0.99303 0.8297 0.51359 0.0
C2919 C 0.00179 0.87404 0.49038 0.0
C2920 C 0.00602 0.85832 0.48181 0.0
H2921 H 0.99152 0.88631 0.51325 0.0
H2922 H 0.00417 0.88661 0.48422 0.0
C2923 C 0.00286 0.84234 0.49044 0.0
C2924 C 0.40725 0.2451 0.75707 0.0
C2925 C 0.39161 0.24026 0.76552 0.0
H2926 H 0.41901 0.2564 0.73412 0.0
C2927 C 0.37561 0.24285 0.7568 0.0
H2928 H 0.41979 0.24311 0.76339 0.0
C2929 C 0.37519 0.25014 0.74009 0.0
C2930 C 0.39074 0.25514 0.73163 0.0
H2931 H 0.36331 0.23915 0.76282 0.0
H2932 H 0.36255 0.25205 0.73391 0.0
C2933 C 0.40682 0.25252 0.74025 0.0
C2934 C 0.00329 0.65633 0.00664 0.0
C2935 C 0.00799 0.64049 0.01479 0.0
H2936 H 0.99245 0.66866 0.98377 0.0
C2937 C 0.0058 0.62473 0.00553 0.0
H2938 H 0.00501 0.6687 0.01337 0.0
C2939 C 0.999 0.62474 0.98862 0.0
C2940 C 0.99405 0.64048 0.98048 0.0
H2941 H 0.00945 0.61229 0.01129 0.0
H2942 H 0.99736 0.61227 0.98204 0.0
C2943 C 0.9963 0.65632 0.98963 0.0
C2944 C 0.09187 0.75386 0.2597 0.0
C2945 C 0.10749 0.75776 0.26867 0.0
H2946 H 0.08022 0.7434 0.23631 0.0
C2947 C 0.12358 0.75414 0.26051 0.0
H2948 H 0.07927 0.75666 0.26559 0.0
C2949 C 0.12411 0.74691 0.24378 0.0
C2950 C 0.10858 0.74297 0.23474 0.0
H2951 H 0.13587 0.75709 0.26695 0.0
H2952 H 0.13681 0.74427 0.23801 0.0
C2953 C 0.09241 0.74646 0.24288 0.0
C2954 C 0.49578 0.83991 0.00763 0.0
C2955 C 0.49232 0.85584 0.01623 0.0
H2956 H 0.50585 0.82742 0.98449 0.0
C2957 C 0.49629 0.87163 0.00765 0.0
H2958 H 0.4927 0.82753 0.01384 0.0
C2959 C 0.50345 0.87157 0.99088 0.0
C2960 C 0.50697 0.85572 0.98222 0.0
H2961 H 0.49368 0.88415 0.01379 0.0
H2962 H 0.50638 0.88404 0.98479 0.0
C2963 C 0.50311 0.83985 0.99077 0.0
C2964 C 0.62341 0.24536 0.24235 0.0
C2965 C 0.60776 0.24172 0.23339 0.0
H2966 H 0.63549 0.25532 0.26546 0.0
C2967 C 0.59171 0.2455 0.24162 0.0
H2968 H 0.63602 0.24249 0.23651 0.0
C2969 C 0.59139 0.25289 0.25845 0.0
C2970 C 0.60713 0.25652 0.26734 0.0
H2971 H 0.57942 0.24268 0.23511 0.0
H2972 H 0.57887 0.25593 0.2644 0.0
C2973 C 0.6231 0.2526 0.25909 0.0
C2974 C 0.74479 0.75864 0.90693 0.0
C2975 C 0.74152 0.76742 0.89105 0.0
H2976 H 0.75444 0.73526 0.91928 0.0
C2977 C 0.74542 0.75889 0.87521 0.0
H2978 H 0.74175 0.76481 0.91934 0.0
C2979 C 0.75231 0.74201 0.87518 0.0
C2980 C 0.75563 0.73318 0.89097 0.0
H2981 H 0.74296 0.76516 0.86272 0.0
H2982 H 0.7552 0.73596 0.86266 0.0
C2983 C 0.75185 0.74167 0.90689 0.0
C2984 C 0.24396 0.75856 0.40649 0.0
C2985 C 0.23956 0.76728 0.39087 0.0
H2986 H 0.25424 0.73512 0.4182 0.0
C2987 C 0.24183 0.75851 0.37485 0.0
H2988 H 0.24217 0.76491 0.41906 0.0
C2989 C 0.24834 0.74149 0.37438 0.0
C2990 C 0.25292 0.73276 0.38992 0.0
H2991 H 0.23842 0.76473 0.36255 0.0
H2992 H 0.25002 0.73529 0.36173 0.0
C2993 C 0.25066 0.74144 0.40602 0.0
C2994 C 0.75143 0.75557 0.59078 0.0
C2995 C 0.75451 0.76416 0.6068 0.0
H2996 H 0.74179 0.73238 0.57804 0.0
C2997 C 0.75028 0.75552 0.62248 0.0
H2998 H 0.75472 0.76183 0.57848 0.0
C2999 C 0.74326 0.7387 0.62224 0.0
C3000 C 0.74012 0.73004 0.60631 0.0
H3001 H 0.75259 0.76165 0.63507 0.0
H3002 H 0.74011 0.73256 0.63465 0.0
C3003 C 0.74423 0.73865 0.59054 0.0
C3004 C 0.24597 0.73992 0.09064 0.0
C3005 C 0.24351 0.731 0.10658 0.0
H3006 H 0.25493 0.76345 0.07802 0.0
C3007 C 0.24828 0.73935 0.12227 0.0
H3008 H 0.24226 0.7339 0.07834 0.0
C3009 C 0.25515 0.75624 0.12211 0.0
C3010 C 0.25758 0.76525 0.10625 0.0
H3011 H 0.24646 0.73295 0.13481 0.0
H3012 H 0.25868 0.76216 0.13451 0.0
C3013 C 0.25302 0.7569 0.09047 0.0
C3014 C 0.15618 0.49147 0.99563 0.0
C3015 C 0.14003 0.48332 0.99211 0.0
H3016 H 0.16928 0.51418 0.0059 0.0
C3017 C 0.12448 0.49229 0.99614 0.0
H3018 H 0.16839 0.48495 0.99252 0.0
C3019 C 0.12498 0.50898 0.00346 0.0
C3020 C 0.14105 0.51718 0.00707 0.0
H3021 H 0.1118 0.48649 0.99348 0.0
H3022 H 0.11267 0.51537 0.00646 0.0
C3023 C 0.15668 0.50827 0.0031 0.0
C3024 C 0.25664 0.9065 0.24556 0.0
C3025 C 0.26492 0.89044 0.24194 0.0
H3026 H 0.2338 0.91935 0.25587 0.0
C3027 C 0.25606 0.87479 0.24579 0.0
H3028 H 0.26307 0.91879 0.24257 0.0
C3029 C 0.23933 0.87511 0.25305 0.0
C3030 C 0.231 0.89109 0.25678 0.0
H3031 H 0.26195 0.86217 0.24305 0.0
H3032 H 0.23302 0.86272 0.25592 0.0
C3033 C 0.23981 0.90682 0.25298 0.0
C3034 C 0.87358 0.00601 0.4961 0.0
C3035 C 0.85808 0.01501 0.49196 0.0
H3036 H 0.88525 0.98285 0.50643 0.0
C3037 C 0.84188 0.00687 0.49527 0.0
H3038 H 0.88629 0.01181 0.49361 0.0
C3039 C 0.84128 0.99003 0.50263 0.0
C3040 C 0.85686 0.98108 0.50672 0.0
H3041 H 0.82971 0.01341 0.49206 0.0
H3042 H 0.82865 0.98411 0.50525 0.0
C3043 C 0.87298 0.98928 0.50334 0.0
C3044 C 0.7438 0.62274 0.74403 0.0
C3045 C 0.73465 0.60699 0.7414 0.0
H3046 H 0.76705 0.63514 0.7532 0.0
C3047 C 0.74275 0.5911 0.74603 0.0
H3048 H 0.73807 0.63522 0.74045 0.0
C3049 C 0.7596 0.59105 0.75338 0.0
C3050 C 0.76862 0.60689 0.7561 0.0
H3051 H 0.73609 0.57873 0.74398 0.0
H3052 H 0.76541 0.57867 0.75717 0.0
C3053 C 0.76055 0.62268 0.75121 0.0
C3054 C 0.49904 0.65701 0.49054 0.0
C3055 C 0.49694 0.64098 0.48168 0.0
H3056 H 0.5077 0.66991 0.51403 0.0
C3057 C 0.50216 0.62545 0.49004 0.0
H3058 H 0.49498 0.66919 0.4845 0.0
C3059 C 0.50906 0.62583 0.50691 0.0
C3060 C 0.51108 0.64176 0.51589 0.0
H3061 H 0.50065 0.61285 0.48368 0.0
H3062 H 0.51291 0.61353 0.51286 0.0
C3063 C 0.50612 0.6574 0.50751 0.0
C3064 C 0.99124 0.37255 0.00576 0.0
C3065 C 0.98884 0.3566 0.01462 0.0
H3066 H 4e-05 0.38549 0.98265 0.0
C3067 C 0.99354 0.34091 0.00617 0.0
H3068 H 0.9876 0.38488 0.01177 0.0
C3069 C 0.00071 0.34127 0.98924 0.0
C3070 C 0.00317 0.3573 0.98048 0.0
H3071 H 0.99168 0.3284 0.0126 0.0
H3072 H 0.00453 0.32904 0.98313 0.0
C3073 C 0.99825 0.37289 0.98893 0.0
C3074 C 0.37485 0.74906 0.23655 0.0
C3075 C 0.39068 0.75444 0.22888 0.0
H3076 H 0.3621 0.73784 0.2587 0.0
C3077 C 0.40638 0.75207 0.23826 0.0
H3078 H 0.3625 0.75074 0.22977 0.0
C3079 C 0.40614 0.74466 0.25508 0.0
C3080 C 0.3902 0.73957 0.26279 0.0
H3081 H 0.41878 0.75624 0.23275 0.0
H3082 H 0.41839 0.74295 0.26203 0.0
C3083 C 0.37461 0.74178 0.25327 0.0
C3084 C 0.00191 0.12571 0.48928 0.0
C3085 C 0.9963 0.14123 0.48114 0.0
H3086 H 0.01313 0.11376 0.51186 0.0
C3087 C 0.99818 0.15719 0.49017 0.0
H3088 H 0.0006 0.11316 0.48278 0.0
C3089 C 0.00538 0.15753 0.50708 0.0
C3090 C 0.01074 0.14191 0.51524 0.0
H3091 H 0.99382 0.16936 0.4843 0.0
H3092 H 0.00675 0.16999 0.51374 0.0
C3093 C 0.00898 0.12604 0.50608 0.0
C3094 C 0.09177 0.24754 0.74013 0.0
C3095 C 0.10767 0.24586 0.73095 0.0
H3096 H 0.07911 0.25588 0.76386 0.0
C3097 C 0.1232 0.25158 0.73897 0.0
H3098 H 0.07959 0.2431 0.73435 0.0
C3099 C 0.12298 0.25846 0.75585 0.0
C3100 C 0.10718 0.26001 0.76516 0.0
H3101 H 0.13571 0.2504 0.73237 0.0
H3102 H 0.13527 0.26267 0.76154 0.0
C3103 C 0.09151 0.25466 0.75708 0.0
C3104 C 0.49649 0.34114 0.5077 0.0
C3105 C 0.49262 0.35698 0.51629 0.0
H3106 H 0.50686 0.3289 0.48456 0.0
C3107 C 0.49613 0.37286 0.50767 0.0
H3108 H 0.49378 0.32869 0.51394 0.0
C3109 C 0.50325 0.37297 0.49089 0.0
C3110 C 0.5072 0.35721 0.48225 0.0
H3111 H 0.49319 0.38531 0.51381 0.0
H3112 H 0.50583 0.38552 0.48478 0.0
C3113 C 0.50379 0.34126 0.49082 0.0
C3114 C 0.62365 0.75482 0.75621 0.0
C3115 C 0.60783 0.7578 0.76512 0.0
H3116 H 0.63621 0.74527 0.73319 0.0
C3117 C 0.59198 0.7533 0.75687 0.0
H3118 H 0.63611 0.75829 0.76206 0.0
C3119 C 0.59204 0.74578 0.74009 0.0
C3120 C 0.60794 0.74279 0.73127 0.0
H3121 H 0.57956 0.75561 0.76334 0.0
H3122 H 0.57968 0.74214 0.73414 0.0
C3123 C 0.6237 0.74749 0.73951 0.0
C3124 C 0.48797 0.49587 0.62498 0.0
C3125 C 0.47983 0.49152 0.6409 0.0
H3126 H 0.51047 0.50627 0.61217 0.0
C3127 C 0.4888 0.49477 0.65667 0.0
H3128 H 0.48152 0.49346 0.61256 0.0
C3129 C 0.50563 0.50216 0.65644 0.0
C3130 C 0.51377 0.5063 0.64043 0.0
H3131 H 0.48293 0.49141 0.66914 0.0
H3132 H 0.51223 0.50465 0.66875 0.0
C3133 C 0.50471 0.50309 0.62474 0.0
C3134 C 0.49194 0.99502 0.15762 0.0
C3135 C 0.48377 0.99129 0.14152 0.0
H3136 H 0.51463 0.00551 0.17055 0.0
C3137 C 0.49272 0.99511 0.12591 0.0
H3138 H 0.48543 0.99206 0.16987 0.0
C3139 C 0.5094 0.00247 0.12629 0.0
C3140 C 0.5176 0.00633 0.14231 0.0
H3141 H 0.48692 0.99228 0.11327 0.0
H3142 H 0.51577 0.00532 0.11394 0.0
C3143 C 0.50872 0.00253 0.15801 0.0
C3144 C 0.48861 0.50277 0.37188 0.0
C3145 C 0.48044 0.50709 0.35597 0.0
H3146 H 0.51107 0.49225 0.38466 0.0
C3147 C 0.48933 0.50367 0.34018 0.0
H3148 H 0.48223 0.50531 0.3843 0.0
C3149 C 0.5061 0.49614 0.34039 0.0
C3150 C 0.51427 0.49202 0.35639 0.0
H3151 H 0.48344 0.50701 0.32771 0.0
H3152 H 0.51263 0.49352 0.32807 0.0
C3153 C 0.50529 0.49541 0.37209 0.0
C3154 C 0.5071 0.9958 0.84121 0.0
C3155 C 0.51513 0.99141 0.8572 0.0
H3156 H 0.48469 0.00719 0.82853 0.0
C3157 C 0.50619 0.99492 0.8729 0.0
H3158 H 0.51359 0.9931 0.82888 0.0
C3159 C 0.48967 0.00263 0.87269 0.0
C3160 C 0.48163 0.00719 0.85678 0.0
H3161 H 0.51188 0.99158 0.88547 0.0
H3162 H 0.48332 0.00523 0.88511 0.0
C3163 C 0.49049 0.00368 0.841 0.0
C3164 C 0.6564 0.98974 0.99578 0.0
C3165 C 0.64055 0.98089 0.99262 0.0
H3166 H 0.66872 0.01306 0.00564 0.0
C3167 C 0.62471 0.98918 0.997 0.0
H3168 H 0.66881 0.98376 0.99239 0.0
C3169 C 0.62465 0.00592 0.00423 0.0
C3170 C 0.64042 0.01484 0.00741 0.0
H3171 H 0.61224 0.98283 0.99464 0.0
H3172 H 0.61214 0.01179 0.00747 0.0
C3173 C 0.65634 0.00658 0.00317 0.0
C3174 C 0.73935 0.40706 0.25151 0.0
C3175 C 0.73042 0.39121 0.25446 0.0
H3176 H 0.76276 0.41938 0.24187 0.0
C3177 C 0.73858 0.37539 0.24978 0.0
H3178 H 0.73346 0.41945 0.25513 0.0
C3179 C 0.75531 0.37534 0.24254 0.0
C3180 C 0.76435 0.3911 0.23965 0.0
H3181 H 0.73216 0.36293 0.25195 0.0
H3182 H 0.7611 0.36285 0.23911 0.0
C3183 C 0.75619 0.40701 0.24411 0.0
C3184 C 0.3423 0.48913 0.50292 0.0
C3185 C 0.35796 0.47992 0.50599 0.0
H3186 H 0.33049 0.51283 0.49335 0.0
C3187 C 0.37397 0.48786 0.50161 0.0
H3188 H 0.32977 0.48341 0.50631 0.0
C3189 C 0.37439 0.50465 0.4945 0.0
C3190 C 0.35881 0.51397 0.49149 0.0
H3191 H 0.3863 0.48121 0.50388 0.0
H3192 H 0.38702 0.51027 0.49129 0.0
C3193 C 0.34272 0.50603 0.49569 0.0
C3194 C 0.24567 0.0923 0.7475 0.0
C3195 C 0.23834 0.10856 0.74286 0.0
H3196 H 0.26776 0.0788 0.75853 0.0
C3197 C 0.24835 0.12382 0.74521 0.0
H3198 H 0.23834 0.08029 0.74566 0.0
C3199 C 0.26515 0.12295 0.75223 0.0
C3200 C 0.27242 0.10679 0.75721 0.0
H3201 H 0.24324 0.13656 0.7416 0.0
H3202 H 0.27231 0.13506 0.75405 0.0
C3203 C 0.26257 0.09142 0.75467 0.0
C3204 C 0.87404 0.24276 0.25602 0.0
C3205 C 0.88979 0.24009 0.26514 0.0
H3206 H 0.86162 0.25184 0.23273 0.0
C3207 C 0.90569 0.24463 0.25699 0.0
H3208 H 0.86156 0.23926 0.26179 0.0
C3209 C 0.90573 0.25188 0.24009 0.0
C3210 C 0.88988 0.25459 0.23107 0.0
H3211 H 0.91805 0.24256 0.26362 0.0
H3212 H 0.91811 0.25556 0.23422 0.0
C3213 C 0.87409 0.24984 0.23922 0.0
C3214 C 0.62591 0.50983 0.5017 0.0
C3215 C 0.64182 0.51795 0.5061 0.0
H3216 H 0.61311 0.48735 0.49125 0.0
C3217 C 0.65759 0.50895 0.50291 0.0
H3218 H 0.61349 0.51628 0.50409 0.0
C3219 C 0.65737 0.49213 0.49548 0.0
C3220 C 0.64136 0.48401 0.49129 0.0
H3221 H 0.67006 0.5148 0.50632 0.0
H3222 H 0.66968 0.48553 0.49299 0.0
C3223 C 0.62568 0.49309 0.49448 0.0
C3224 C 0.74007 0.9081 0.75238 0.0
C3225 C 0.73153 0.89231 0.75656 0.0
H3226 H 0.76298 0.9202 0.74136 0.0
C3227 C 0.74004 0.87639 0.75299 0.0
H3228 H 0.73392 0.92059 0.75513 0.0
C3229 C 0.75664 0.87617 0.74547 0.0
C3230 C 0.76521 0.89188 0.74117 0.0
H3231 H 0.73395 0.86396 0.75616 0.0
H3232 H 0.76266 0.86359 0.74284 0.0
C3233 C 0.75677 0.90788 0.74468 0.0
C3234 C 0.34204 0.99049 0.00126 0.0
C3235 C 0.35804 0.98178 0.00412 0.0
H3236 H 0.32933 0.01372 0.9917 0.0
C3237 C 0.37371 0.99019 -0.00058 0.0
H3238 H 0.32975 0.9844 0.0049 0.0
C3239 C 0.37348 0.00694 0.99221 0.0
C3240 C 0.35757 0.01574 0.98938 0.0
H3241 H 0.38628 0.98395 0.00152 0.0
H3242 H 0.38588 0.01292 0.98875 0.0
C3243 C 0.34181 0.00733 0.99389 0.0
C3244 C 0.24382 0.62146 0.24391 0.0
C3245 C 0.23457 0.60583 0.24099 0.0
H3246 H 0.26704 0.63357 0.25353 0.0
C3247 C 0.24246 0.58982 0.24559 0.0
H3248 H 0.23825 0.63403 0.24037 0.0
C3249 C 0.2592 0.58955 0.25318 0.0
C3250 C 0.26833 0.60528 0.25618 0.0
H3251 H 0.23572 0.57754 0.24333 0.0
H3252 H 0.26485 0.57708 0.25693 0.0
C3253 C 0.26047 0.62119 0.25134 0.0
C3254 C 0.87491 0.74509 0.75894 0.0
C3255 C 0.89084 0.74153 0.76743 0.0
H3256 H 0.8621 0.75501 0.73621 0.0
C3257 C 0.90662 0.74551 0.75878 0.0
H3258 H 0.8625 0.74209 0.76513 0.0
C3259 C 0.9064 0.75294 0.74196 0.0
C3260 C 0.89038 0.75643 0.73353 0.0
H3261 H 0.91912 0.74276 0.76492 0.0
H3262 H 0.91871 0.75607 0.73565 0.0
C3263 C 0.87468 0.75239 0.74223 0.0
loop_
_geom_bond_atom_site_label_1
_geom_bond_atom_site_label_2
_geom_bond_distance
_geom_bond_site_symmetry_2
_ccdc_geom_bond_type
O0 Cd1 2.223 . S
O0 C8 1.315 . S
Cd1 O0 2.223 . S
Cd1 O4 2.297 . S
Cd1 O5 2.439 . S
Cd1 O11 2.240 . S
Cd2 O3 2.240 . S
Cd2 O10 2.223 . S
Cd2 O12 2.297 . S
Cd2 O13 2.439 . S
O3 Cd2 2.240 . S
O3 C8 1.279 . S
O4 Cd1 2.297 . S
O4 C6 1.247 . S
O5 Cd1 2.439 . S
O5 C6 1.208 . S
C6 O4 1.247 . S
C6 O5 1.208 . S
C7 O12 1.247 . S
C7 O13 1.208 . S
C8 O0 1.315 . S
C8 O3 1.279 . S
C9 O10 1.315 . S
C9 O11 1.279 . S
O10 Cd2 2.223 . S
O10 C9 1.315 . S
O11 Cd1 2.240 . S
O11 C9 1.279 . S
O12 Cd2 2.297 . S
O12 C7 1.247 . S
O13 Cd2 2.439 . S
O13 C7 1.208 . S
O14 Cd15 2.223 . S
O14 C22 1.315 . S
Cd15 O14 2.223 . S
Cd15 O18 2.297 . S
Cd15 O19 2.439 . S
Cd15 O25 2.240 . S
Cd16 O17 2.240 . S
Cd16 O24 2.223 . S
Cd16 O26 2.297 . S
Cd16 O27 2.439 . S
O17 Cd16 2.240 . S
O17 C22 1.279 . S
O18 Cd15 2.297 . S
O18 C20 1.247 . S
O19 Cd15 2.439 . S
O19 C20 1.208 . S
C20 O18 1.247 . S
C20 O19 1.208 . S
C21 O26 1.247 . S
C21 O27 1.208 . S
C22 O14 1.315 . S
C22 O17 1.279 . S
C23 O24 1.315 . S
C23 O25 1.279 . S
O24 Cd16 2.223 . S
O24 C23 1.315 . S
O25 Cd15 2.240 . S
O25 C23 1.279 . S
O26 Cd16 2.297 . S
O26 C21 1.247 . S
O27 Cd16 2.439 . S
O27 C21 1.208 . S
O28 Cd29 2.223 . S
O28 C36 1.315 . S
Cd29 O28 2.223 . S
Cd29 O32 2.297 . S
Cd29 O33 2.439 . S
Cd29 O39 2.240 . S
Cd30 O31 2.240 . S
Cd30 O38 2.223 . S
Cd30 O40 2.297 . S
Cd30 O41 2.439 . S
O31 Cd30 2.240 . S
O31 C36 1.279 . S
O32 Cd29 2.297 . S
O32 C34 1.247 . S
O33 Cd29 2.439 . S
O33 C34 1.208 . S
C34 O32 1.247 . S
C34 O33 1.208 . S
C35 O40 1.247 . S
C35 O41 1.208 . S
C36 O28 1.315 . S
C36 O31 1.279 . S
C37 O38 1.315 . S
C37 O39 1.279 . S
O38 Cd30 2.223 . S
O38 C37 1.315 . S
O39 Cd29 2.240 . S
O39 C37 1.279 . S
O40 Cd30 2.297 . S
O40 C35 1.247 . S
O41 Cd30 2.439 . S
O41 C35 1.208 . S
O42 Cd43 2.223 . S
O42 C50 1.315 . S
Cd43 O42 2.223 . S
Cd43 O46 2.297 . S
Cd43 O47 2.439 . S
Cd43 O53 2.240 . S
Cd44 O45 2.240 . S
Cd44 O52 2.223 . S
Cd44 O54 2.297 . S
Cd44 O55 2.439 . S
O45 Cd44 2.240 . S
O45 C50 1.279 . S
O46 Cd43 2.297 . S
O46 C48 1.247 . S
O47 Cd43 2.439 . S
O47 C48 1.208 . S
C48 O46 1.247 . S
C48 O47 1.208 . S
C49 O54 1.247 . S
C49 O55 1.208 . S
C50 O42 1.315 . S
C50 O45 1.279 . S
C51 O52 1.315 . S
C51 O53 1.279 . S
O52 Cd44 2.223 . S
O52 C51 1.315 . S
O53 Cd43 2.240 . S
O53 C51 1.279 . S
O54 Cd44 2.297 . S
O54 C49 1.247 . S
O55 Cd44 2.439 . S
O55 C49 1.208 . S
O56 Cd57 2.223 . S
O56 C64 1.315 . S
Cd57 O56 2.223 . S
Cd57 O60 2.297 . S
Cd57 O61 2.439 . S
Cd57 O67 2.240 . S
Cd58 O59 2.240 . S
Cd58 O66 2.223 . S
Cd58 O68 2.297 . S
Cd58 O69 2.439 . S
O59 Cd58 2.240 . S
O59 C64 1.279 . S
O60 Cd57 2.297 . S
O60 C62 1.247 . S
O61 Cd57 2.439 . S
O61 C62 1.208 . S
C62 O60 1.247 . S
C62 O61 1.208 . S
C63 O68 1.247 . S
C63 O69 1.208 . S
C64 O56 1.315 . S
C64 O59 1.279 . S
C65 O66 1.315 . S
C65 O67 1.279 . S
O66 Cd58 2.223 . S
O66 C65 1.315 . S
O67 Cd57 2.240 . S
O67 C65 1.279 . S
O68 Cd58 2.297 . S
O68 C63 1.247 . S
O69 Cd58 2.439 . S
O69 C63 1.208 . S
O70 Cd71 2.223 . S
O70 C78 1.315 . S
Cd71 O70 2.223 . S
Cd71 O74 2.297 . S
Cd71 O75 2.439 . S
Cd71 O81 2.240 . S
Cd72 O73 2.240 . S
Cd72 O80 2.223 . S
Cd72 O82 2.297 . S
Cd72 O83 2.439 . S
O73 Cd72 2.240 . S
O73 C78 1.279 . S
O74 Cd71 2.297 . S
O74 C76 1.247 . S
O75 Cd71 2.439 . S
O75 C76 1.208 . S
C76 O74 1.247 . S
C76 O75 1.208 . S
C77 O82 1.247 . S
C77 O83 1.208 . S
C78 O70 1.315 . S
C78 O73 1.279 . S
C79 O80 1.315 . S
C79 O81 1.279 . S
O80 Cd72 2.223 . S
O80 C79 1.315 . S
O81 Cd71 2.240 . S
O81 C79 1.279 . S
O82 Cd72 2.297 . S
O82 C77 1.247 . S
O83 Cd72 2.439 . S
O83 C77 1.208 . S
O84 Cd85 2.223 . S
O84 C92 1.315 . S
Cd85 O84 2.223 . S
Cd85 O88 2.297 . S
Cd85 O89 2.439 . S
Cd85 O95 2.240 . S
Cd86 O87 2.240 . S
Cd86 O94 2.223 . S
Cd86 O96 2.297 . S
Cd86 O97 2.439 . S
O87 Cd86 2.240 . S
O87 C92 1.279 . S
O88 Cd85 2.297 . S
O88 C90 1.247 . S
O89 Cd85 2.439 . S
O89 C90 1.208 . S
C90 O88 1.247 . S
C90 O89 1.208 . S
C91 O96 1.247 . S
C91 O97 1.208 . S
C92 O84 1.315 . S
C92 O87 1.279 . S
C93 O94 1.315 . S
C93 O95 1.279 . S
O94 Cd86 2.223 . S
O94 C93 1.315 . S
O95 Cd85 2.240 . S
O95 C93 1.279 . S
O96 Cd86 2.297 . S
O96 C91 1.247 . S
O97 Cd86 2.439 . S
O97 C91 1.208 . S
O98 Cd99 2.223 . S
O98 C106 1.315 . S
Cd99 O98 2.223 . S
Cd99 O102 2.297 . S
Cd99 O103 2.439 . S
Cd99 O109 2.240 . S
Cd100 O101 2.240 . S
Cd100 O108 2.223 . S
Cd100 O110 2.297 . S
Cd100 O111 2.439 . S
O101 Cd100 2.240 . S
O101 C106 1.279 . S
O102 Cd99 2.297 . S
O102 C104 1.247 . S
O103 Cd99 2.439 . S
O103 C104 1.208 . S
C104 O102 1.247 . S
C104 O103 1.208 . S
C105 O110 1.247 . S
C105 O111 1.208 . S
C106 O98 1.315 . S
C106 O101 1.279 . S
C107 O108 1.315 . S
C107 O109 1.279 . S
O108 Cd100 2.223 . S
O108 C107 1.315 . S
O109 Cd99 2.240 . S
O109 C107 1.279 . S
O110 Cd100 2.297 . S
O110 C105 1.247 . S
O111 Cd100 2.439 . S
O111 C105 1.208 . S
O112 Cd113 2.223 . S
O112 C120 1.315 . S
Cd113 O112 2.223 . S
Cd113 O116 2.297 . S
Cd113 O117 2.439 . S
Cd113 O123 2.240 . S
Cd114 O115 2.240 . S
Cd114 O122 2.223 . S
Cd114 O124 2.297 . S
Cd114 O125 2.439 . S
O115 Cd114 2.240 . S
O115 C120 1.279 . S
O116 Cd113 2.297 . S
O116 C118 1.247 . S
O117 Cd113 2.439 . S
O117 C118 1.208 . S
C118 O116 1.247 . S
C118 O117 1.208 . S
C119 O124 1.247 . S
C119 O125 1.208 . S
C120 O112 1.315 . S
C120 O115 1.279 . S
C121 O122 1.315 . S
C121 O123 1.279 . S
O122 Cd114 2.223 . S
O122 C121 1.315 . S
O123 Cd113 2.240 . S
O123 C121 1.279 . S
O124 Cd114 2.297 . S
O124 C119 1.247 . S
O125 Cd114 2.439 . S
O125 C119 1.208 . S
O126 Cd127 2.223 . S
O126 C134 1.315 . S
Cd127 O126 2.223 . S
Cd127 O130 2.297 . S
Cd127 O131 2.439 . S
Cd127 O137 2.240 . S
Cd128 O129 2.240 . S
Cd128 O136 2.223 . S
Cd128 O138 2.297 . S
Cd128 O139 2.439 . S
O129 Cd128 2.240 . S
O129 C134 1.279 . S
O130 Cd127 2.297 . S
O130 C132 1.247 . S
O131 Cd127 2.439 . S
O131 C132 1.208 . S
C132 O130 1.247 . S
C132 O131 1.208 . S
C133 O138 1.247 . S
C133 O139 1.208 . S
C134 O126 1.315 . S
C134 O129 1.279 . S
C135 O136 1.315 . S
C135 O137 1.279 . S
O136 Cd128 2.223 . S
O136 C135 1.315 . S
O137 Cd127 2.240 . S
O137 C135 1.279 . S
O138 Cd128 2.297 . S
O138 C133 1.247 . S
O139 Cd128 2.439 . S
O139 C133 1.208 . S
O140 Cd141 2.223 . S
O140 C148 1.315 . S
Cd141 O140 2.223 . S
Cd141 O144 2.297 . S
Cd141 O145 2.439 . S
Cd141 O151 2.240 . S
Cd142 O143 2.240 . S
Cd142 O150 2.223 . S
Cd142 O152 2.297 . S
Cd142 O153 2.439 . S
O143 Cd142 2.240 . S
O143 C148 1.279 . S
O144 Cd141 2.297 . S
O144 C146 1.247 . S
O145 Cd141 2.439 . S
O145 C146 1.208 . S
C146 O144 1.247 . S
C146 O145 1.208 . S
C147 O152 1.247 . S
C147 O153 1.208 . S
C148 O140 1.315 . S
C148 O143 1.279 . S
C149 O150 1.315 . S
C149 O151 1.279 . S
O150 Cd142 2.223 . S
O150 C149 1.315 . S
O151 Cd141 2.240 . S
O151 C149 1.279 . S
O152 Cd142 2.297 . S
O152 C147 1.247 . S
O153 Cd142 2.439 . S
O153 C147 1.208 . S
O154 Cd155 2.223 . S
O154 C162 1.315 . S
Cd155 O154 2.223 . S
Cd155 O158 2.297 . S
Cd155 O159 2.439 . S
Cd155 O165 2.240 . S
Cd156 O157 2.240 . S
Cd156 O164 2.223 . S
Cd156 O166 2.297 . S
Cd156 O167 2.439 . S
O157 Cd156 2.240 . S
O157 C162 1.279 . S
O158 Cd155 2.297 . S
O158 C160 1.247 . S
O159 Cd155 2.439 . S
O159 C160 1.208 . S
C160 O158 1.247 . S
C160 O159 1.208 . S
C161 O166 1.247 . S
C161 O167 1.208 . S
C162 O154 1.315 . S
C162 O157 1.279 . S
C163 O164 1.315 . S
C163 O165 1.279 . S
O164 Cd156 2.223 . S
O164 C163 1.315 . S
O165 Cd155 2.240 . S
O165 C163 1.279 . S
O166 Cd156 2.297 . S
O166 C161 1.247 . S
O167 Cd156 2.439 . S
O167 C161 1.208 . S
O168 Cd169 2.223 . S
O168 C176 1.315 . S
Cd169 O168 2.223 . S
Cd169 O172 2.297 . S
Cd169 O173 2.439 . S
Cd169 O179 2.240 . S
Cd170 O171 2.240 . S
Cd170 O178 2.223 . S
Cd170 O180 2.297 . S
Cd170 O181 2.439 . S
O171 Cd170 2.240 . S
O171 C176 1.279 . S
O172 Cd169 2.297 . S
O172 C174 1.247 . S
O173 Cd169 2.439 . S
O173 C174 1.208 . S
C174 O172 1.247 . S
C174 O173 1.208 . S
C175 O180 1.247 . S
C175 O181 1.208 . S
C176 O168 1.315 . S
C176 O171 1.279 . S
C177 O178 1.315 . S
C177 O179 1.279 . S
O178 Cd170 2.223 . S
O178 C177 1.315 . S
O179 Cd169 2.240 . S
O179 C177 1.279 . S
O180 Cd170 2.297 . S
O180 C175 1.247 . S
O181 Cd170 2.439 . S
O181 C175 1.208 . S
O182 Cd183 2.223 . S
O182 C190 1.315 . S
Cd183 O182 2.223 . S
Cd183 O186 2.297 . S
Cd183 O187 2.439 . S
Cd183 O193 2.240 . S
Cd184 O185 2.240 . S
Cd184 O192 2.223 . S
Cd184 O194 2.297 . S
Cd184 O195 2.439 . S
O185 Cd184 2.240 . S
O185 C190 1.279 . S
O186 Cd183 2.297 . S
O186 C188 1.247 . S
O187 Cd183 2.439 . S
O187 C188 1.208 . S
C188 O186 1.247 . S
C188 O187 1.208 . S
C189 O194 1.247 . S
C189 O195 1.208 . S
C190 O182 1.315 . S
C190 O185 1.279 . S
C191 O192 1.315 . S
C191 O193 1.279 . S
O192 Cd184 2.223 . S
O192 C191 1.315 . S
O193 Cd183 2.240 . S
O193 C191 1.279 . S
O194 Cd184 2.297 . S
O194 C189 1.247 . S
O195 Cd184 2.439 . S
O195 C189 1.208 . S
O196 Cd197 2.223 . S
O196 C204 1.315 . S
Cd197 O196 2.223 . S
Cd197 O200 2.297 . S
Cd197 O201 2.439 . S
Cd197 O207 2.240 . S
Cd198 O199 2.240 . S
Cd198 O206 2.223 . S
Cd198 O208 2.297 . S
Cd198 O209 2.439 . S
O199 Cd198 2.240 . S
O199 C204 1.279 . S
O200 Cd197 2.297 . S
O200 C202 1.247 . S
O201 Cd197 2.439 . S
O201 C202 1.208 . S
C202 O200 1.247 . S
C202 O201 1.208 . S
C203 O208 1.247 . S
C203 O209 1.208 . S
C204 O196 1.315 . S
C204 O199 1.279 . S
C205 O206 1.315 . S
C205 O207 1.279 . S
O206 Cd198 2.223 . S
O206 C205 1.315 . S
O207 Cd197 2.240 . S
O207 C205 1.279 . S
O208 Cd198 2.297 . S
O208 C203 1.247 . S
O209 Cd198 2.439 . S
O209 C203 1.208 . S
O210 Cd211 2.223 . S
O210 C218 1.315 . S
Cd211 O210 2.223 . S
Cd211 O214 2.297 . S
Cd211 O215 2.439 . S
Cd211 O221 2.240 . S
Cd212 O213 2.240 . S
Cd212 O220 2.223 . S
Cd212 O222 2.297 . S
Cd212 O223 2.439 . S
O213 Cd212 2.240 . S
O213 C218 1.279 . S
O214 Cd211 2.297 . S
O214 C216 1.247 . S
O215 Cd211 2.439 . S
O215 C216 1.208 . S
C216 O214 1.247 . S
C216 O215 1.208 . S
C217 O222 1.247 . S
C217 O223 1.208 . S
C218 O210 1.315 . S
C218 O213 1.279 . S
C219 O220 1.315 . S
C219 O221 1.279 . S
O220 Cd212 2.223 . S
O220 C219 1.315 . S
O221 Cd211 2.240 . S
O221 C219 1.279 . S
O222 Cd212 2.297 . S
O222 C217 1.247 . S
O223 Cd212 2.439 . S
O223 C217 1.208 . S
O224 Cd225 2.223 . S
O224 C232 1.315 . S
Cd225 O224 2.223 . S
Cd225 O228 2.297 . S
Cd225 O229 2.439 . S
Cd225 O235 2.240 . S
Cd226 O227 2.240 . S
Cd226 O234 2.223 . S
Cd226 O236 2.297 . S
Cd226 O237 2.439 . S
O227 Cd226 2.240 . S
O227 C232 1.279 . S
O228 Cd225 2.297 . S
O228 C230 1.247 . S
O229 Cd225 2.439 . S
O229 C230 1.208 . S
C230 O228 1.247 . S
C230 O229 1.208 . S
C231 O236 1.247 . S
C231 O237 1.208 . S
C232 O224 1.315 . S
C232 O227 1.279 . S
C233 O234 1.315 . S
C233 O235 1.279 . S
O234 Cd226 2.223 . S
O234 C233 1.315 . S
O235 Cd225 2.240 . S
O235 C233 1.279 . S
O236 Cd226 2.297 . S
O236 C231 1.247 . S
O237 Cd226 2.439 . S
O237 C231 1.208 . S
O238 Cd239 2.223 . S
O238 C246 1.315 . S
Cd239 O238 2.223 . S
Cd239 O242 2.297 . S
Cd239 O243 2.439 . S
Cd239 O249 2.240 . S
Cd240 O241 2.240 . S
Cd240 O248 2.223 . S
Cd240 O250 2.297 . S
Cd240 O251 2.439 . S
O241 Cd240 2.240 . S
O241 C246 1.279 . S
O242 Cd239 2.297 . S
O242 C244 1.247 . S
O243 Cd239 2.439 . S
O243 C244 1.208 . S
C244 O242 1.247 . S
C244 O243 1.208 . S
C245 O250 1.247 . S
C245 O251 1.208 . S
C246 O238 1.315 . S
C246 O241 1.279 . S
C247 O248 1.315 . S
C247 O249 1.279 . S
O248 Cd240 2.223 . S
O248 C247 1.315 . S
O249 Cd239 2.240 . S
O249 C247 1.279 . S
O250 Cd240 2.297 . S
O250 C245 1.247 . S
O251 Cd240 2.439 . S
O251 C245 1.208 . S
O252 Cd253 2.223 . S
O252 C260 1.315 . S
Cd253 O252 2.223 . S
Cd253 O256 2.297 . S
Cd253 O257 2.439 . S
Cd253 O263 2.240 . S
Cd254 O255 2.240 . S
Cd254 O262 2.223 . S
Cd254 O264 2.297 . S
Cd254 O265 2.439 . S
O255 Cd254 2.240 . S
O255 C260 1.279 . S
O256 Cd253 2.297 . S
O256 C258 1.247 . S
O257 Cd253 2.439 . S
O257 C258 1.208 . S
C258 O256 1.247 . S
C258 O257 1.208 . S
C259 O264 1.247 . S
C259 O265 1.208 . S
C260 O252 1.315 . S
C260 O255 1.279 . S
C261 O262 1.315 . S
C261 O263 1.279 . S
O262 Cd254 2.223 . S
O262 C261 1.315 . S
O263 Cd253 2.240 . S
O263 C261 1.279 . S
O264 Cd254 2.297 . S
O264 C259 1.247 . S
O265 Cd254 2.439 . S
O265 C259 1.208 . S
O266 Cd267 2.223 . S
O266 C274 1.315 . S
Cd267 O266 2.223 . S
Cd267 O270 2.297 . S
Cd267 O271 2.439 . S
Cd267 O277 2.240 . S
Cd268 O269 2.240 . S
Cd268 O276 2.223 . S
Cd268 O278 2.297 . S
Cd268 O279 2.439 . S
O269 Cd268 2.240 . S
O269 C274 1.279 . S
O270 Cd267 2.297 . S
O270 C272 1.247 . S
O271 Cd267 2.439 . S
O271 C272 1.208 . S
C272 O270 1.247 . S
C272 O271 1.208 . S
C273 O278 1.247 . S
C273 O279 1.208 . S
C274 O266 1.315 . S
C274 O269 1.279 . S
C275 O276 1.315 . S
C275 O277 1.279 . S
O276 Cd268 2.223 . S
O276 C275 1.315 . S
O277 Cd267 2.240 . S
O277 C275 1.279 . S
O278 Cd268 2.297 . S
O278 C273 1.247 . S
O279 Cd268 2.439 . S
O279 C273 1.208 . S
O280 Cd281 2.223 . S
O280 C288 1.315 . S
Cd281 O280 2.223 . S
Cd281 O284 2.297 . S
Cd281 O285 2.439 . S
Cd281 O291 2.240 . S
Cd282 O283 2.240 . S
Cd282 O290 2.223 . S
Cd282 O292 2.297 . S
Cd282 O293 2.439 . S
O283 Cd282 2.240 . S
O283 C288 1.279 . S
O284 Cd281 2.297 . S
O284 C286 1.247 . S
O285 Cd281 2.439 . S
O285 C286 1.208 . S
C286 O284 1.247 . S
C286 O285 1.208 . S
C287 O292 1.247 . S
C287 O293 1.208 . S
C288 O280 1.315 . S
C288 O283 1.279 . S
C289 O290 1.315 . S
C289 O291 1.279 . S
O290 Cd282 2.223 . S
O290 C289 1.315 . S
O291 Cd281 2.240 . S
O291 C289 1.279 . S
O292 Cd282 2.297 . S
O292 C287 1.247 . S
O293 Cd282 2.439 . S
O293 C287 1.208 . S
O294 Cd295 2.223 . S
O294 C302 1.315 . S
Cd295 O294 2.223 . S
Cd295 O298 2.297 . S
Cd295 O299 2.439 . S
Cd295 O305 2.240 . S
Cd296 O297 2.240 . S
Cd296 O304 2.223 . S
Cd296 O306 2.297 . S
Cd296 O307 2.439 . S
O297 Cd296 2.240 . S
O297 C302 1.279 . S
O298 Cd295 2.297 . S
O298 C300 1.247 . S
O299 Cd295 2.439 . S
O299 C300 1.208 . S
C300 O298 1.247 . S
C300 O299 1.208 . S
C301 O306 1.247 . S
C301 O307 1.208 . S
C302 O294 1.315 . S
C302 O297 1.279 . S
C303 O304 1.315 . S
C303 O305 1.279 . S
O304 Cd296 2.223 . S
O304 C303 1.315 . S
O305 Cd295 2.240 . S
O305 C303 1.279 . S
O306 Cd296 2.297 . S
O306 C301 1.247 . S
O307 Cd296 2.439 . S
O307 C301 1.208 . S
O308 Cd309 2.223 . S
O308 C316 1.315 . S
Cd309 O308 2.223 . S
Cd309 O312 2.297 . S
Cd309 O313 2.439 . S
Cd309 O319 2.240 . S
Cd310 O311 2.240 . S
Cd310 O318 2.223 . S
Cd310 O320 2.297 . S
Cd310 O321 2.439 . S
O311 Cd310 2.240 . S
O311 C316 1.279 . S
O312 Cd309 2.297 . S
O312 C314 1.247 . S
O313 Cd309 2.439 . S
O313 C314 1.208 . S
C314 O312 1.247 . S
C314 O313 1.208 . S
C315 O320 1.247 . S
C315 O321 1.208 . S
C316 O308 1.315 . S
C316 O311 1.279 . S
C317 O318 1.315 . S
C317 O319 1.279 . S
O318 Cd310 2.223 . S
O318 C317 1.315 . S
O319 Cd309 2.240 . S
O319 C317 1.279 . S
O320 Cd310 2.297 . S
O320 C315 1.247 . S
O321 Cd310 2.439 . S
O321 C315 1.208 . S
O322 Cd323 2.223 . S
O322 C330 1.315 . S
Cd323 O322 2.223 . S
Cd323 O326 2.297 . S
Cd323 O327 2.439 . S
Cd323 O333 2.240 . S
Cd324 O325 2.240 . S
Cd324 O332 2.223 . S
Cd324 O334 2.297 . S
Cd324 O335 2.439 . S
O325 Cd324 2.240 . S
O325 C330 1.279 . S
O326 Cd323 2.297 . S
O326 C328 1.247 . S
O327 Cd323 2.439 . S
O327 C328 1.208 . S
C328 O326 1.247 . S
C328 O327 1.208 . S
C329 O334 1.247 . S
C329 O335 1.208 . S
C330 O322 1.315 . S
C330 O325 1.279 . S
C331 O332 1.315 . S
C331 O333 1.279 . S
O332 Cd324 2.223 . S
O332 C331 1.315 . S
O333 Cd323 2.240 . S
O333 C331 1.279 . S
O334 Cd324 2.297 . S
O334 C329 1.247 . S
O335 Cd324 2.439 . S
O335 C329 1.208 . S
O336 Cd337 2.223 . S
O336 C344 1.315 . S
Cd337 O336 2.223 . S
Cd337 O340 2.297 . S
Cd337 O341 2.439 . S
Cd337 O347 2.240 . S
Cd338 O339 2.240 . S
Cd338 O346 2.223 . S
Cd338 O348 2.297 . S
Cd338 O349 2.439 . S
O339 Cd338 2.240 . S
O339 C344 1.279 . S
O340 Cd337 2.297 . S
O340 C342 1.247 . S
O341 Cd337 2.439 . S
O341 C342 1.208 . S
C342 O340 1.247 . S
C342 O341 1.208 . S
C343 O348 1.247 . S
C343 O349 1.208 . S
C344 O336 1.315 . S
C344 O339 1.279 . S
C345 O346 1.315 . S
C345 O347 1.279 . S
O346 Cd338 2.223 . S
O346 C345 1.315 . S
O347 Cd337 2.240 . S
O347 C345 1.279 . S
O348 Cd338 2.297 . S
O348 C343 1.247 . S
O349 Cd338 2.439 . S
O349 C343 1.208 . S
O350 Cd351 2.223 . S
O350 C358 1.315 . S
Cd351 O350 2.223 . S
Cd351 O354 2.297 . S
Cd351 O355 2.439 . S
Cd351 O361 2.240 . S
Cd352 O353 2.240 . S
Cd352 O360 2.223 . S
Cd352 O362 2.297 . S
Cd352 O363 2.439 . S
O353 Cd352 2.240 . S
O353 C358 1.279 . S
O354 Cd351 2.297 . S
O354 C356 1.247 . S
O355 Cd351 2.439 . S
O355 C356 1.208 . S
C356 O354 1.247 . S
C356 O355 1.208 . S
C357 O362 1.247 . S
C357 O363 1.208 . S
C358 O350 1.315 . S
C358 O353 1.279 . S
C359 O360 1.315 . S
C359 O361 1.279 . S
O360 Cd352 2.223 . S
O360 C359 1.315 . S
O361 Cd351 2.240 . S
O361 C359 1.279 . S
O362 Cd352 2.297 . S
O362 C357 1.247 . S
O363 Cd352 2.439 . S
O363 C357 1.208 . S
O364 Cd365 2.223 . S
O364 C372 1.315 . S
Cd365 O364 2.223 . S
Cd365 O368 2.297 . S
Cd365 O369 2.439 . S
Cd365 O375 2.240 . S
Cd366 O367 2.240 . S
Cd366 O374 2.223 . S
Cd366 O376 2.297 . S
Cd366 O377 2.439 . S
O367 Cd366 2.240 . S
O367 C372 1.279 . S
O368 Cd365 2.297 . S
O368 C370 1.247 . S
O369 Cd365 2.439 . S
O369 C370 1.208 . S
C370 O368 1.247 . S
C370 O369 1.208 . S
C371 O376 1.247 . S
C371 O377 1.208 . S
C372 O364 1.315 . S
C372 O367 1.279 . S
C373 O374 1.315 . S
C373 O375 1.279 . S
O374 Cd366 2.223 . S
O374 C373 1.315 . S
O375 Cd365 2.240 . S
O375 C373 1.279 . S
O376 Cd366 2.297 . S
O376 C371 1.247 . S
O377 Cd366 2.439 . S
O377 C371 1.208 . S
O378 Cd379 2.223 . S
O378 C386 1.315 . S
Cd379 O378 2.223 . S
Cd379 O382 2.297 . S
Cd379 O383 2.439 . S
Cd379 O389 2.240 . S
Cd380 O381 2.240 . S
Cd380 O388 2.223 . S
Cd380 O390 2.297 . S
Cd380 O391 2.439 . S
O381 Cd380 2.240 . S
O381 C386 1.279 . S
O382 Cd379 2.297 . S
O382 C384 1.247 . S
O383 Cd379 2.439 . S
O383 C384 1.208 . S
C384 O382 1.247 . S
C384 O383 1.208 . S
C385 O390 1.247 . S
C385 O391 1.208 . S
C386 O378 1.315 . S
C386 O381 1.279 . S
C387 O388 1.315 . S
C387 O389 1.279 . S
O388 Cd380 2.223 . S
O388 C387 1.315 . S
O389 Cd379 2.240 . S
O389 C387 1.279 . S
O390 Cd380 2.297 . S
O390 C385 1.247 . S
O391 Cd380 2.439 . S
O391 C385 1.208 . S
O392 Cd393 2.223 . S
O392 C400 1.315 . S
Cd393 O392 2.223 . S
Cd393 O396 2.297 . S
Cd393 O397 2.439 . S
Cd393 O403 2.240 . S
Cd394 O395 2.240 . S
Cd394 O402 2.223 . S
Cd394 O404 2.297 . S
Cd394 O405 2.439 . S
O395 Cd394 2.240 . S
O395 C400 1.279 . S
O396 Cd393 2.297 . S
O396 C398 1.247 . S
O397 Cd393 2.439 . S
O397 C398 1.208 . S
C398 O396 1.247 . S
C398 O397 1.208 . S
C399 O404 1.247 . S
C399 O405 1.208 . S
C400 O392 1.315 . S
C400 O395 1.279 . S
C401 O402 1.315 . S
C401 O403 1.279 . S
O402 Cd394 2.223 . S
O402 C401 1.315 . S
O403 Cd393 2.240 . S
O403 C401 1.279 . S
O404 Cd394 2.297 . S
O404 C399 1.247 . S
O405 Cd394 2.439 . S
O405 C399 1.208 . S
O406 Cd407 2.223 . S
O406 C414 1.315 . S
Cd407 O406 2.223 . S
Cd407 O410 2.297 . S
Cd407 O411 2.439 . S
Cd407 O417 2.240 . S
Cd408 O409 2.240 . S
Cd408 O416 2.223 . S
Cd408 O418 2.297 . S
Cd408 O419 2.439 . S
O409 Cd408 2.240 . S
O409 C414 1.279 . S
O410 Cd407 2.297 . S
O410 C412 1.247 . S
O411 Cd407 2.439 . S
O411 C412 1.208 . S
C412 O410 1.247 . S
C412 O411 1.208 . S
C413 O418 1.247 . S
C413 O419 1.208 . S
C414 O406 1.315 . S
C414 O409 1.279 . S
C415 O416 1.315 . S
C415 O417 1.279 . S
O416 Cd408 2.223 . S
O416 C415 1.315 . S
O417 Cd407 2.240 . S
O417 C415 1.279 . S
O418 Cd408 2.297 . S
O418 C413 1.247 . S
O419 Cd408 2.439 . S
O419 C413 1.208 . S
O420 Cd421 2.223 . S
O420 C428 1.315 . S
Cd421 O420 2.223 . S
Cd421 O424 2.297 . S
Cd421 O425 2.439 . S
Cd421 O431 2.240 . S
Cd422 O423 2.240 . S
Cd422 O430 2.223 . S
Cd422 O432 2.297 . S
Cd422 O433 2.439 . S
O423 Cd422 2.240 . S
O423 C428 1.279 . S
O424 Cd421 2.297 . S
O424 C426 1.247 . S
O425 Cd421 2.439 . S
O425 C426 1.208 . S
C426 O424 1.247 . S
C426 O425 1.208 . S
C427 O432 1.247 . S
C427 O433 1.208 . S
C428 O420 1.315 . S
C428 O423 1.279 . S
C429 O430 1.315 . S
C429 O431 1.279 . S
O430 Cd422 2.223 . S
O430 C429 1.315 . S
O431 Cd421 2.240 . S
O431 C429 1.279 . S
O432 Cd422 2.297 . S
O432 C427 1.247 . S
O433 Cd422 2.439 . S
O433 C427 1.208 . S
O434 Cd435 2.223 . S
O434 C442 1.315 . S
Cd435 O434 2.223 . S
Cd435 O438 2.297 . S
Cd435 O439 2.439 . S
Cd435 O445 2.240 . S
Cd436 O437 2.240 . S
Cd436 O444 2.223 . S
Cd436 O446 2.297 . S
Cd436 O447 2.439 . S
O437 Cd436 2.240 . S
O437 C442 1.279 . S
O438 Cd435 2.297 . S
O438 C440 1.247 . S
O439 Cd435 2.439 . S
O439 C440 1.208 . S
C440 O438 1.247 . S
C440 O439 1.208 . S
C441 O446 1.247 . S
C441 O447 1.208 . S
C442 O434 1.315 . S
C442 O437 1.279 . S
C443 O444 1.315 . S
C443 O445 1.279 . S
O444 Cd436 2.223 . S
O444 C443 1.315 . S
O445 Cd435 2.240 . S
O445 C443 1.279 . S
O446 Cd436 2.297 . S
O446 C441 1.247 . S
O447 Cd436 2.439 . S
O447 C441 1.208 . S
O448 Cd449 2.223 . S
O448 C456 1.315 . S
Cd449 O448 2.223 . S
Cd449 O452 2.297 . S
Cd449 O453 2.439 . S
Cd449 O459 2.240 . S
Cd450 O451 2.240 . S
Cd450 O458 2.223 . S
Cd450 O460 2.297 . S
Cd450 O461 2.439 . S
O451 Cd450 2.240 . S
O451 C456 1.279 . S
O452 Cd449 2.297 . S
O452 C454 1.247 . S
O453 Cd449 2.439 . S
O453 C454 1.208 . S
C454 O452 1.247 . S
C454 O453 1.208 . S
C455 O460 1.247 . S
C455 O461 1.208 . S
C456 O448 1.315 . S
C456 O451 1.279 . S
C457 O458 1.315 . S
C457 O459 1.279 . S
O458 Cd450 2.223 . S
O458 C457 1.315 . S
O459 Cd449 2.240 . S
O459 C457 1.279 . S
O460 Cd450 2.297 . S
O460 C455 1.247 . S
O461 Cd450 2.439 . S
O461 C455 1.208 . S
O462 Cd463 2.223 . S
O462 C470 1.315 . S
Cd463 O462 2.223 . S
Cd463 O466 2.297 . S
Cd463 O467 2.439 . S
Cd463 O473 2.240 . S
Cd464 O465 2.240 . S
Cd464 O472 2.223 . S
Cd464 O474 2.297 . S
Cd464 O475 2.439 . S
O465 Cd464 2.240 . S
O465 C470 1.279 . S
O466 Cd463 2.297 . S
O466 C468 1.247 . S
O467 Cd463 2.439 . S
O467 C468 1.208 . S
C468 O466 1.247 . S
C468 O467 1.208 . S
C469 O474 1.247 . S
C469 O475 1.208 . S
C470 O462 1.315 . S
C470 O465 1.279 . S
C471 O472 1.315 . S
C471 O473 1.279 . S
O472 Cd464 2.223 . S
O472 C471 1.315 . S
O473 Cd463 2.240 . S
O473 C471 1.279 . S
O474 Cd464 2.297 . S
O474 C469 1.247 . S
O475 Cd464 2.439 . S
O475 C469 1.208 . S
O476 Cd477 2.223 . S
O476 C484 1.315 . S
Cd477 O476 2.223 . S
Cd477 O480 2.297 . S
Cd477 O481 2.439 . S
Cd477 O487 2.240 . S
Cd478 O479 2.240 . S
Cd478 O486 2.223 . S
Cd478 O488 2.297 . S
Cd478 O489 2.439 . S
O479 Cd478 2.240 . S
O479 C484 1.279 . S
O480 Cd477 2.297 . S
O480 C482 1.247 . S
O481 Cd477 2.439 . S
O481 C482 1.208 . S
C482 O480 1.247 . S
C482 O481 1.208 . S
C483 O488 1.247 . S
C483 O489 1.208 . S
C484 O476 1.315 . S
C484 O479 1.279 . S
C485 O486 1.315 . S
C485 O487 1.279 . S
O486 Cd478 2.223 . S
O486 C485 1.315 . S
O487 Cd477 2.240 . S
O487 C485 1.279 . S
O488 Cd478 2.297 . S
O488 C483 1.247 . S
O489 Cd478 2.439 . S
O489 C483 1.208 . S
O490 Cd491 2.223 . S
O490 C498 1.315 . S
Cd491 O490 2.223 . S
Cd491 O494 2.297 . S
Cd491 O495 2.439 . S
Cd491 O501 2.240 . S
Cd492 O493 2.240 . S
Cd492 O500 2.223 . S
Cd492 O502 2.297 . S
Cd492 O503 2.439 . S
O493 Cd492 2.240 . S
O493 C498 1.279 . S
O494 Cd491 2.297 . S
O494 C496 1.247 . S
O495 Cd491 2.439 . S
O495 C496 1.208 . S
C496 O494 1.247 . S
C496 O495 1.208 . S
C497 O502 1.247 . S
C497 O503 1.208 . S
C498 O490 1.315 . S
C498 O493 1.279 . S
C499 O500 1.315 . S
C499 O501 1.279 . S
O500 Cd492 2.223 . S
O500 C499 1.315 . S
O501 Cd491 2.240 . S
O501 C499 1.279 . S
O502 Cd492 2.297 . S
O502 C497 1.247 . S
O503 Cd492 2.439 . S
O503 C497 1.208 . S
O504 Cd505 2.223 . S
O504 C512 1.315 . S
Cd505 O504 2.223 . S
Cd505 O508 2.297 . S
Cd505 O509 2.439 . S
Cd505 O515 2.240 . S
Cd506 O507 2.240 . S
Cd506 O514 2.223 . S
Cd506 O516 2.297 . S
Cd506 O517 2.439 . S
O507 Cd506 2.240 . S
O507 C512 1.279 . S
O508 Cd505 2.297 . S
O508 C510 1.247 . S
O509 Cd505 2.439 . S
O509 C510 1.208 . S
C510 O508 1.247 . S
C510 O509 1.208 . S
C511 O516 1.247 . S
C511 O517 1.208 . S
C512 O504 1.315 . S
C512 O507 1.279 . S
C513 O514 1.315 . S
C513 O515 1.279 . S
O514 Cd506 2.223 . S
O514 C513 1.315 . S
O515 Cd505 2.240 . S
O515 C513 1.279 . S
O516 Cd506 2.297 . S
O516 C511 1.247 . S
O517 Cd506 2.439 . S
O517 C511 1.208 . S
O518 Cd519 2.223 . S
O518 C526 1.315 . S
Cd519 O518 2.223 . S
Cd519 O522 2.297 . S
Cd519 O523 2.439 . S
Cd519 O529 2.240 . S
Cd520 O521 2.240 . S
Cd520 O528 2.223 . S
Cd520 O530 2.297 . S
Cd520 O531 2.439 . S
O521 Cd520 2.240 . S
O521 C526 1.279 . S
O522 Cd519 2.297 . S
O522 C524 1.247 . S
O523 Cd519 2.439 . S
O523 C524 1.208 . S
C524 O522 1.247 . S
C524 O523 1.208 . S
C525 O530 1.247 . S
C525 O531 1.208 . S
C526 O518 1.315 . S
C526 O521 1.279 . S
C527 O528 1.315 . S
C527 O529 1.279 . S
O528 Cd520 2.223 . S
O528 C527 1.315 . S
O529 Cd519 2.240 . S
O529 C527 1.279 . S
O530 Cd520 2.297 . S
O530 C525 1.247 . S
O531 Cd520 2.439 . S
O531 C525 1.208 . S
O532 Cd533 2.223 . S
O532 C540 1.315 . S
Cd533 O532 2.223 . S
Cd533 O536 2.297 . S
Cd533 O537 2.439 . S
Cd533 O543 2.240 . S
Cd534 O535 2.240 . S
Cd534 O542 2.223 . S
Cd534 O544 2.297 . S
Cd534 O545 2.439 . S
O535 Cd534 2.240 . S
O535 C540 1.279 . S
O536 Cd533 2.297 . S
O536 C538 1.247 . S
O537 Cd533 2.439 . S
O537 C538 1.208 . S
C538 O536 1.247 . S
C538 O537 1.208 . S
C539 O544 1.247 . S
C539 O545 1.208 . S
C540 O532 1.315 . S
C540 O535 1.279 . S
C541 O542 1.315 . S
C541 O543 1.279 . S
O542 Cd534 2.223 . S
O542 C541 1.315 . S
O543 Cd533 2.240 . S
O543 C541 1.279 . S
O544 Cd534 2.297 . S
O544 C539 1.247 . S
O545 Cd534 2.439 . S
O545 C539 1.208 . S
O546 Cd547 2.223 . S
O546 C554 1.315 . S
Cd547 O546 2.223 . S
Cd547 O550 2.297 . S
Cd547 O551 2.439 . S
Cd547 O557 2.240 . S
Cd548 O549 2.240 . S
Cd548 O556 2.223 . S
Cd548 O558 2.297 . S
Cd548 O559 2.439 . S
O549 Cd548 2.240 . S
O549 C554 1.279 . S
O550 Cd547 2.297 . S
O550 C552 1.247 . S
O551 Cd547 2.439 . S
O551 C552 1.208 . S
C552 O550 1.247 . S
C552 O551 1.208 . S
C553 O558 1.247 . S
C553 O559 1.208 . S
C554 O546 1.315 . S
C554 O549 1.279 . S
C555 O556 1.315 . S
C555 O557 1.279 . S
O556 Cd548 2.223 . S
O556 C555 1.315 . S
O557 Cd547 2.240 . S
O557 C555 1.279 . S
O558 Cd548 2.297 . S
O558 C553 1.247 . S
O559 Cd548 2.439 . S
O559 C553 1.208 . S
O560 Cd561 2.223 . S
O560 C568 1.315 . S
Cd561 O560 2.223 . S
Cd561 O564 2.297 . S
Cd561 O565 2.439 . S
Cd561 O571 2.240 . S
Cd562 O563 2.240 . S
Cd562 O570 2.223 . S
Cd562 O572 2.297 . S
Cd562 O573 2.439 . S
O563 Cd562 2.240 . S
O563 C568 1.279 . S
O564 Cd561 2.297 . S
O564 C566 1.247 . S
O565 Cd561 2.439 . S
O565 C566 1.208 . S
C566 O564 1.247 . S
C566 O565 1.208 . S
C567 O572 1.247 . S
C567 O573 1.208 . S
C568 O560 1.315 . S
C568 O563 1.279 . S
C569 O570 1.315 . S
C569 O571 1.279 . S
O570 Cd562 2.223 . S
O570 C569 1.315 . S
O571 Cd561 2.240 . S
O571 C569 1.279 . S
O572 Cd562 2.297 . S
O572 C567 1.247 . S
O573 Cd562 2.439 . S
O573 C567 1.208 . S
O574 Cd575 2.223 . S
O574 C582 1.315 . S
Cd575 O574 2.223 . S
Cd575 O578 2.297 . S
Cd575 O579 2.439 . S
Cd575 O585 2.240 . S
Cd576 O577 2.240 . S
Cd576 O584 2.223 . S
Cd576 O586 2.297 . S
Cd576 O587 2.439 . S
O577 Cd576 2.240 . S
O577 C582 1.279 . S
O578 Cd575 2.297 . S
O578 C580 1.247 . S
O579 Cd575 2.439 . S
O579 C580 1.208 . S
C580 O578 1.247 . S
C580 O579 1.208 . S
C581 O586 1.247 . S
C581 O587 1.208 . S
C582 O574 1.315 . S
C582 O577 1.279 . S
C583 O584 1.315 . S
C583 O585 1.279 . S
O584 Cd576 2.223 . S
O584 C583 1.315 . S
O585 Cd575 2.240 . S
O585 C583 1.279 . S
O586 Cd576 2.297 . S
O586 C581 1.247 . S
O587 Cd576 2.439 . S
O587 C581 1.208 . S
O588 Cd589 2.223 . S
O588 C596 1.315 . S
Cd589 O588 2.223 . S
Cd589 O592 2.297 . S
Cd589 O593 2.439 . S
Cd589 O599 2.240 . S
Cd590 O591 2.240 . S
Cd590 O598 2.223 . S
Cd590 O600 2.297 . S
Cd590 O601 2.439 . S
O591 Cd590 2.240 . S
O591 C596 1.279 . S
O592 Cd589 2.297 . S
O592 C594 1.247 . S
O593 Cd589 2.439 . S
O593 C594 1.208 . S
C594 O592 1.247 . S
C594 O593 1.208 . S
C595 O600 1.247 . S
C595 O601 1.208 . S
C596 O588 1.315 . S
C596 O591 1.279 . S
C597 O598 1.315 . S
C597 O599 1.279 . S
O598 Cd590 2.223 . S
O598 C597 1.315 . S
O599 Cd589 2.240 . S
O599 C597 1.279 . S
O600 Cd590 2.297 . S
O600 C595 1.247 . S
O601 Cd590 2.439 . S
O601 C595 1.208 . S
O602 Cd603 2.223 . S
O602 C610 1.315 . S
Cd603 O602 2.223 . S
Cd603 O606 2.297 . S
Cd603 O607 2.439 . S
Cd603 O613 2.240 . S
Cd604 O605 2.240 . S
Cd604 O612 2.223 . S
Cd604 O614 2.297 . S
Cd604 O615 2.439 . S
O605 Cd604 2.240 . S
O605 C610 1.279 . S
O606 Cd603 2.297 . S
O606 C608 1.247 . S
O607 Cd603 2.439 . S
O607 C608 1.208 . S
C608 O606 1.247 . S
C608 O607 1.208 . S
C609 O614 1.247 . S
C609 O615 1.208 . S
C610 O602 1.315 . S
C610 O605 1.279 . S
C611 O612 1.315 . S
C611 O613 1.279 . S
O612 Cd604 2.223 . S
O612 C611 1.315 . S
O613 Cd603 2.240 . S
O613 C611 1.279 . S
O614 Cd604 2.297 . S
O614 C609 1.247 . S
O615 Cd604 2.439 . S
O615 C609 1.208 . S
O616 Cd617 2.223 . S
O616 C624 1.315 . S
Cd617 O616 2.223 . S
Cd617 O620 2.297 . S
Cd617 O621 2.439 . S
Cd617 O627 2.240 . S
Cd618 O619 2.240 . S
Cd618 O626 2.223 . S
Cd618 O628 2.297 . S
Cd618 O629 2.439 . S
O619 Cd618 2.240 . S
O619 C624 1.279 . S
O620 Cd617 2.297 . S
O620 C622 1.247 . S
O621 Cd617 2.439 . S
O621 C622 1.208 . S
C622 O620 1.247 . S
C622 O621 1.208 . S
C623 O628 1.247 . S
C623 O629 1.208 . S
C624 O616 1.315 . S
C624 O619 1.279 . S
C625 O626 1.315 . S
C625 O627 1.279 . S
O626 Cd618 2.223 . S
O626 C625 1.315 . S
O627 Cd617 2.240 . S
O627 C625 1.279 . S
O628 Cd618 2.297 . S
O628 C623 1.247 . S
O629 Cd618 2.439 . S
O629 C623 1.208 . S
O630 Cd631 2.223 . S
O630 C638 1.315 . S
Cd631 O630 2.223 . S
Cd631 O634 2.297 . S
Cd631 O635 2.439 . S
Cd631 O641 2.240 . S
Cd632 O633 2.240 . S
Cd632 O640 2.223 . S
Cd632 O642 2.297 . S
Cd632 O643 2.439 . S
O633 Cd632 2.240 . S
O633 C638 1.279 . S
O634 Cd631 2.297 . S
O634 C636 1.247 . S
O635 Cd631 2.439 . S
O635 C636 1.208 . S
C636 O634 1.247 . S
C636 O635 1.208 . S
C637 O642 1.247 . S
C637 O643 1.208 . S
C638 O630 1.315 . S
C638 O633 1.279 . S
C639 O640 1.315 . S
C639 O641 1.279 . S
O640 Cd632 2.223 . S
O640 C639 1.315 . S
O641 Cd631 2.240 . S
O641 C639 1.279 . S
O642 Cd632 2.297 . S
O642 C637 1.247 . S
O643 Cd632 2.439 . S
O643 C637 1.208 . S
O644 Cd645 2.223 . S
O644 C652 1.315 . S
Cd645 O644 2.223 . S
Cd645 O648 2.297 . S
Cd645 O649 2.439 . S
Cd645 O655 2.240 . S
Cd646 O647 2.240 . S
Cd646 O654 2.223 . S
Cd646 O656 2.297 . S
Cd646 O657 2.439 . S
O647 Cd646 2.240 . S
O647 C652 1.279 . S
O648 Cd645 2.297 . S
O648 C650 1.247 . S
O649 Cd645 2.439 . S
O649 C650 1.208 . S
C650 O648 1.247 . S
C650 O649 1.208 . S
C651 O656 1.247 . S
C651 O657 1.208 . S
C652 O644 1.315 . S
C652 O647 1.279 . S
C653 O654 1.315 . S
C653 O655 1.279 . S
O654 Cd646 2.223 . S
O654 C653 1.315 . S
O655 Cd645 2.240 . S
O655 C653 1.279 . S
O656 Cd646 2.297 . S
O656 C651 1.247 . S
O657 Cd646 2.439 . S
O657 C651 1.208 . S
O658 Cd659 2.223 . S
O658 C666 1.315 . S
Cd659 O658 2.223 . S
Cd659 O662 2.297 . S
Cd659 O663 2.439 . S
Cd659 O669 2.240 . S
Cd660 O661 2.240 . S
Cd660 O668 2.223 . S
Cd660 O670 2.297 . S
Cd660 O671 2.439 . S
O661 Cd660 2.240 . S
O661 C666 1.279 . S
O662 Cd659 2.297 . S
O662 C664 1.247 . S
O663 Cd659 2.439 . S
O663 C664 1.208 . S
C664 O662 1.247 . S
C664 O663 1.208 . S
C665 O670 1.247 . S
C665 O671 1.208 . S
C666 O658 1.315 . S
C666 O661 1.279 . S
C667 O668 1.315 . S
C667 O669 1.279 . S
O668 Cd660 2.223 . S
O668 C667 1.315 . S
O669 Cd659 2.240 . S
O669 C667 1.279 . S
O670 Cd660 2.297 . S
O670 C665 1.247 . S
O671 Cd660 2.439 . S
O671 C665 1.208 . S
O672 Cd673 2.223 . S
O672 C680 1.315 . S
Cd673 O672 2.223 . S
Cd673 O676 2.297 . S
Cd673 O677 2.439 . S
Cd673 O683 2.240 . S
Cd674 O675 2.240 . S
Cd674 O682 2.223 . S
Cd674 O684 2.297 . S
Cd674 O685 2.439 . S
O675 Cd674 2.240 . S
O675 C680 1.279 . S
O676 Cd673 2.297 . S
O676 C678 1.247 . S
O677 Cd673 2.439 . S
O677 C678 1.208 . S
C678 O676 1.247 . S
C678 O677 1.208 . S
C679 O684 1.247 . S
C679 O685 1.208 . S
C680 O672 1.315 . S
C680 O675 1.279 . S
C681 O682 1.315 . S
C681 O683 1.279 . S
O682 Cd674 2.223 . S
O682 C681 1.315 . S
O683 Cd673 2.240 . S
O683 C681 1.279 . S
O684 Cd674 2.297 . S
O684 C679 1.247 . S
O685 Cd674 2.439 . S
O685 C679 1.208 . S
O686 Cd687 2.223 . S
O686 C694 1.315 . S
Cd687 O686 2.223 . S
Cd687 O690 2.297 . S
Cd687 O691 2.439 . S
Cd687 O697 2.240 . S
Cd688 O689 2.240 . S
Cd688 O696 2.223 . S
Cd688 O698 2.297 . S
Cd688 O699 2.439 . S
O689 Cd688 2.240 . S
O689 C694 1.279 . S
O690 Cd687 2.297 . S
O690 C692 1.247 . S
O691 Cd687 2.439 . S
O691 C692 1.208 . S
C692 O690 1.247 . S
C692 O691 1.208 . S
C693 O698 1.247 . S
C693 O699 1.208 . S
C694 O686 1.315 . S
C694 O689 1.279 . S
C695 O696 1.315 . S
C695 O697 1.279 . S
O696 Cd688 2.223 . S
O696 C695 1.315 . S
O697 Cd687 2.240 . S
O697 C695 1.279 . S
O698 Cd688 2.297 . S
O698 C693 1.247 . S
O699 Cd688 2.439 . S
O699 C693 1.208 . S
O700 Cd701 2.223 . S
O700 C708 1.315 . S
Cd701 O700 2.223 . S
Cd701 O704 2.297 . S
Cd701 O705 2.439 . S
Cd701 O711 2.240 . S
Cd702 O703 2.240 . S
Cd702 O710 2.223 . S
Cd702 O712 2.297 . S
Cd702 O713 2.439 . S
O703 Cd702 2.240 . S
O703 C708 1.279 . S
O704 Cd701 2.297 . S
O704 C706 1.247 . S
O705 Cd701 2.439 . S
O705 C706 1.208 . S
C706 O704 1.247 . S
C706 O705 1.208 . S
C707 O712 1.247 . S
C707 O713 1.208 . S
C708 O700 1.315 . S
C708 O703 1.279 . S
C709 O710 1.315 . S
C709 O711 1.279 . S
O710 Cd702 2.223 . S
O710 C709 1.315 . S
O711 Cd701 2.240 . S
O711 C709 1.279 . S
O712 Cd702 2.297 . S
O712 C707 1.247 . S
O713 Cd702 2.439 . S
O713 C707 1.208 . S
O714 Cd715 2.223 . S
O714 C722 1.315 . S
Cd715 O714 2.223 . S
Cd715 O718 2.297 . S
Cd715 O719 2.439 . S
Cd715 O725 2.240 . S
Cd716 O717 2.240 . S
Cd716 O724 2.223 . S
Cd716 O726 2.297 . S
Cd716 O727 2.439 . S
O717 Cd716 2.240 . S
O717 C722 1.279 . S
O718 Cd715 2.297 . S
O718 C720 1.247 . S
O719 Cd715 2.439 . S
O719 C720 1.208 . S
C720 O718 1.247 . S
C720 O719 1.208 . S
C721 O726 1.247 . S
C721 O727 1.208 . S
C722 O714 1.315 . S
C722 O717 1.279 . S
C723 O724 1.315 . S
C723 O725 1.279 . S
O724 Cd716 2.223 . S
O724 C723 1.315 . S
O725 Cd715 2.240 . S
O725 C723 1.279 . S
O726 Cd716 2.297 . S
O726 C721 1.247 . S
O727 Cd716 2.439 . S
O727 C721 1.208 . S
O728 Cd729 2.223 . S
O728 C736 1.315 . S
Cd729 O728 2.223 . S
Cd729 O732 2.297 . S
Cd729 O733 2.439 . S
Cd729 O739 2.240 . S
Cd730 O731 2.240 . S
Cd730 O738 2.223 . S
Cd730 O740 2.297 . S
Cd730 O741 2.439 . S
O731 Cd730 2.240 . S
O731 C736 1.279 . S
O732 Cd729 2.297 . S
O732 C734 1.247 . S
O733 Cd729 2.439 . S
O733 C734 1.208 . S
C734 O732 1.247 . S
C734 O733 1.208 . S
C735 O740 1.247 . S
C735 O741 1.208 . S
C736 O728 1.315 . S
C736 O731 1.279 . S
C737 O738 1.315 . S
C737 O739 1.279 . S
O738 Cd730 2.223 . S
O738 C737 1.315 . S
O739 Cd729 2.240 . S
O739 C737 1.279 . S
O740 Cd730 2.297 . S
O740 C735 1.247 . S
O741 Cd730 2.439 . S
O741 C735 1.208 . S
O742 Cd743 2.223 . S
O742 C750 1.315 . S
Cd743 O742 2.223 . S
Cd743 O746 2.297 . S
Cd743 O747 2.439 . S
Cd743 O753 2.240 . S
Cd744 O745 2.240 . S
Cd744 O752 2.223 . S
Cd744 O754 2.297 . S
Cd744 O755 2.439 . S
O745 Cd744 2.240 . S
O745 C750 1.279 . S
O746 Cd743 2.297 . S
O746 C748 1.247 . S
O747 Cd743 2.439 . S
O747 C748 1.208 . S
C748 O746 1.247 . S
C748 O747 1.208 . S
C749 O754 1.247 . S
C749 O755 1.208 . S
C750 O742 1.315 . S
C750 O745 1.279 . S
C751 O752 1.315 . S
C751 O753 1.279 . S
O752 Cd744 2.223 . S
O752 C751 1.315 . S
O753 Cd743 2.240 . S
O753 C751 1.279 . S
O754 Cd744 2.297 . S
O754 C749 1.247 . S
O755 Cd744 2.439 . S
O755 C749 1.208 . S
O756 Cd757 2.223 . S
O756 C764 1.315 . S
Cd757 O756 2.223 . S
Cd757 O760 2.297 . S
Cd757 O761 2.439 . S
Cd757 O767 2.240 . S
Cd758 O759 2.240 . S
Cd758 O766 2.223 . S
Cd758 O768 2.297 . S
Cd758 O769 2.439 . S
O759 Cd758 2.240 . S
O759 C764 1.279 . S
O760 Cd757 2.297 . S
O760 C762 1.247 . S
O761 Cd757 2.439 . S
O761 C762 1.208 . S
C762 O760 1.247 . S
C762 O761 1.208 . S
C763 O768 1.247 . S
C763 O769 1.208 . S
C764 O756 1.315 . S
C764 O759 1.279 . S
C765 O766 1.315 . S
C765 O767 1.279 . S
O766 Cd758 2.223 . S
O766 C765 1.315 . S
O767 Cd757 2.240 . S
O767 C765 1.279 . S
O768 Cd758 2.297 . S
O768 C763 1.247 . S
O769 Cd758 2.439 . S
O769 C763 1.208 . S
O770 Cd771 2.223 . S
O770 C778 1.315 . S
Cd771 O770 2.223 . S
Cd771 O774 2.297 . S
Cd771 O775 2.439 . S
Cd771 O781 2.240 . S
Cd772 O773 2.240 . S
Cd772 O780 2.223 . S
Cd772 O782 2.297 . S
Cd772 O783 2.439 . S
O773 Cd772 2.240 . S
O773 C778 1.279 . S
O774 Cd771 2.297 . S
O774 C776 1.247 . S
O775 Cd771 2.439 . S
O775 C776 1.208 . S
C776 O774 1.247 . S
C776 O775 1.208 . S
C777 O782 1.247 . S
C777 O783 1.208 . S
C778 O770 1.315 . S
C778 O773 1.279 . S
C779 O780 1.315 . S
C779 O781 1.279 . S
O780 Cd772 2.223 . S
O780 C779 1.315 . S
O781 Cd771 2.240 . S
O781 C779 1.279 . S
O782 Cd772 2.297 . S
O782 C777 1.247 . S
O783 Cd772 2.439 . S
O783 C777 1.208 . S
O784 Cd785 2.223 . S
O784 C792 1.315 . S
Cd785 O784 2.223 . S
Cd785 O788 2.297 . S
Cd785 O789 2.439 . S
Cd785 O795 2.240 . S
Cd786 O787 2.240 . S
Cd786 O794 2.223 . S
Cd786 O796 2.297 . S
Cd786 O797 2.439 . S
O787 Cd786 2.240 . S
O787 C792 1.279 . S
O788 Cd785 2.297 . S
O788 C790 1.247 . S
O789 Cd785 2.439 . S
O789 C790 1.208 . S
C790 O788 1.247 . S
C790 O789 1.208 . S
C791 O796 1.247 . S
C791 O797 1.208 . S
C792 O784 1.315 . S
C792 O787 1.279 . S
C793 O794 1.315 . S
C793 O795 1.279 . S
O794 Cd786 2.223 . S
O794 C793 1.315 . S
O795 Cd785 2.240 . S
O795 C793 1.279 . S
O796 Cd786 2.297 . S
O796 C791 1.247 . S
O797 Cd786 2.439 . S
O797 C791 1.208 . S
O798 Cd799 2.223 . S
O798 C806 1.315 . S
Cd799 O798 2.223 . S
Cd799 O802 2.297 . S
Cd799 O803 2.439 . S
Cd799 O809 2.240 . S
Cd800 O801 2.240 . S
Cd800 O808 2.223 . S
Cd800 O810 2.297 . S
Cd800 O811 2.439 . S
O801 Cd800 2.240 . S
O801 C806 1.279 . S
O802 Cd799 2.297 . S
O802 C804 1.247 . S
O803 Cd799 2.439 . S
O803 C804 1.208 . S
C804 O802 1.247 . S
C804 O803 1.208 . S
C805 O810 1.247 . S
C805 O811 1.208 . S
C806 O798 1.315 . S
C806 O801 1.279 . S
C807 O808 1.315 . S
C807 O809 1.279 . S
O808 Cd800 2.223 . S
O808 C807 1.315 . S
O809 Cd799 2.240 . S
O809 C807 1.279 . S
O810 Cd800 2.297 . S
O810 C805 1.247 . S
O811 Cd800 2.439 . S
O811 C805 1.208 . S
O812 Cd813 2.223 . S
O812 C820 1.315 . S
Cd813 O812 2.223 . S
Cd813 O816 2.297 . S
Cd813 O817 2.439 . S
Cd813 O823 2.240 . S
Cd814 O815 2.240 . S
Cd814 O822 2.223 . S
Cd814 O824 2.297 . S
Cd814 O825 2.439 . S
O815 Cd814 2.240 . S
O815 C820 1.279 . S
O816 Cd813 2.297 . S
O816 C818 1.247 . S
O817 Cd813 2.439 . S
O817 C818 1.208 . S
C818 O816 1.247 . S
C818 O817 1.208 . S
C819 O824 1.247 . S
C819 O825 1.208 . S
C820 O812 1.315 . S
C820 O815 1.279 . S
C821 O822 1.315 . S
C821 O823 1.279 . S
O822 Cd814 2.223 . S
O822 C821 1.315 . S
O823 Cd813 2.240 . S
O823 C821 1.279 . S
O824 Cd814 2.297 . S
O824 C819 1.247 . S
O825 Cd814 2.439 . S
O825 C819 1.208 . S
O826 Cd827 2.223 . S
O826 C834 1.315 . S
Cd827 O826 2.223 . S
Cd827 O830 2.297 . S
Cd827 O831 2.439 . S
Cd827 O837 2.240 . S
Cd828 O829 2.240 . S
Cd828 O836 2.223 . S
Cd828 O838 2.297 . S
Cd828 O839 2.439 . S
O829 Cd828 2.240 . S
O829 C834 1.279 . S
O830 Cd827 2.297 . S
O830 C832 1.247 . S
O831 Cd827 2.439 . S
O831 C832 1.208 . S
C832 O830 1.247 . S
C832 O831 1.208 . S
C833 O838 1.247 . S
C833 O839 1.208 . S
C834 O826 1.315 . S
C834 O829 1.279 . S
C835 O836 1.315 . S
C835 O837 1.279 . S
O836 Cd828 2.223 . S
O836 C835 1.315 . S
O837 Cd827 2.240 . S
O837 C835 1.279 . S
O838 Cd828 2.297 . S
O838 C833 1.247 . S
O839 Cd828 2.439 . S
O839 C833 1.208 . S
O840 Cd841 2.223 . S
O840 C848 1.315 . S
Cd841 O840 2.223 . S
Cd841 O844 2.297 . S
Cd841 O845 2.439 . S
Cd841 O851 2.240 . S
Cd842 O843 2.240 . S
Cd842 O850 2.223 . S
Cd842 O852 2.297 . S
Cd842 O853 2.439 . S
O843 Cd842 2.240 . S
O843 C848 1.279 . S
O844 Cd841 2.297 . S
O844 C846 1.247 . S
O845 Cd841 2.439 . S
O845 C846 1.208 . S
C846 O844 1.247 . S
C846 O845 1.208 . S
C847 O852 1.247 . S
C847 O853 1.208 . S
C848 O840 1.315 . S
C848 O843 1.279 . S
C849 O850 1.315 . S
C849 O851 1.279 . S
O850 Cd842 2.223 . S
O850 C849 1.315 . S
O851 Cd841 2.240 . S
O851 C849 1.279 . S
O852 Cd842 2.297 . S
O852 C847 1.247 . S
O853 Cd842 2.439 . S
O853 C847 1.208 . S
O854 Cd855 2.223 . S
O854 C862 1.315 . S
Cd855 O854 2.223 . S
Cd855 O858 2.297 . S
Cd855 O859 2.439 . S
Cd855 O865 2.240 . S
Cd856 O857 2.240 . S
Cd856 O864 2.223 . S
Cd856 O866 2.297 . S
Cd856 O867 2.439 . S
O857 Cd856 2.240 . S
O857 C862 1.279 . S
O858 Cd855 2.297 . S
O858 C860 1.247 . S
O859 Cd855 2.439 . S
O859 C860 1.208 . S
C860 O858 1.247 . S
C860 O859 1.208 . S
C861 O866 1.247 . S
C861 O867 1.208 . S
C862 O854 1.315 . S
C862 O857 1.279 . S
C863 O864 1.315 . S
C863 O865 1.279 . S
O864 Cd856 2.223 . S
O864 C863 1.315 . S
O865 Cd855 2.240 . S
O865 C863 1.279 . S
O866 Cd856 2.297 . S
O866 C861 1.247 . S
O867 Cd856 2.439 . S
O867 C861 1.208 . S
O868 Cd869 2.223 . S
O868 C876 1.315 . S
Cd869 O868 2.223 . S
Cd869 O872 2.297 . S
Cd869 O873 2.439 . S
Cd869 O879 2.240 . S
Cd870 O871 2.240 . S
Cd870 O878 2.223 . S
Cd870 O880 2.297 . S
Cd870 O881 2.439 . S
O871 Cd870 2.240 . S
O871 C876 1.279 . S
O872 Cd869 2.297 . S
O872 C874 1.247 . S
O873 Cd869 2.439 . S
O873 C874 1.208 . S
C874 O872 1.247 . S
C874 O873 1.208 . S
C875 O880 1.247 . S
C875 O881 1.208 . S
C876 O868 1.315 . S
C876 O871 1.279 . S
C877 O878 1.315 . S
C877 O879 1.279 . S
O878 Cd870 2.223 . S
O878 C877 1.315 . S
O879 Cd869 2.240 . S
O879 C877 1.279 . S
O880 Cd870 2.297 . S
O880 C875 1.247 . S
O881 Cd870 2.439 . S
O881 C875 1.208 . S
O882 Cd883 2.223 . S
O882 C890 1.315 . S
Cd883 O882 2.223 . S
Cd883 O886 2.297 . S
Cd883 O887 2.439 . S
Cd883 O893 2.240 . S
Cd884 O885 2.240 . S
Cd884 O892 2.223 . S
Cd884 O894 2.297 . S
Cd884 O895 2.439 . S
O885 Cd884 2.240 . S
O885 C890 1.279 . S
O886 Cd883 2.297 . S
O886 C888 1.247 . S
O887 Cd883 2.439 . S
O887 C888 1.208 . S
C888 O886 1.247 . S
C888 O887 1.208 . S
C889 O894 1.247 . S
C889 O895 1.208 . S
C890 O882 1.315 . S
C890 O885 1.279 . S
C891 O892 1.315 . S
C891 O893 1.279 . S
O892 Cd884 2.223 . S
O892 C891 1.315 . S
O893 Cd883 2.240 . S
O893 C891 1.279 . S
O894 Cd884 2.297 . S
O894 C889 1.247 . S
O895 Cd884 2.439 . S
O895 C889 1.208 . S
O896 Cd897 2.223 . S
O896 C904 1.315 . S
Cd897 O896 2.223 . S
Cd897 O900 2.297 . S
Cd897 O901 2.439 . S
Cd897 O907 2.240 . S
Cd898 O899 2.240 . S
Cd898 O906 2.223 . S
Cd898 O908 2.297 . S
Cd898 O909 2.439 . S
O899 Cd898 2.240 . S
O899 C904 1.279 . S
O900 Cd897 2.297 . S
O900 C902 1.247 . S
O901 Cd897 2.439 . S
O901 C902 1.208 . S
C902 O900 1.247 . S
C902 O901 1.208 . S
C903 O908 1.247 . S
C903 O909 1.208 . S
C904 O896 1.315 . S
C904 O899 1.279 . S
C905 O906 1.315 . S
C905 O907 1.279 . S
O906 Cd898 2.223 . S
O906 C905 1.315 . S
O907 Cd897 2.240 . S
O907 C905 1.279 . S
O908 Cd898 2.297 . S
O908 C903 1.247 . S
O909 Cd898 2.439 . S
O909 C903 1.208 . S
O910 Cd911 2.223 . S
O910 C918 1.315 . S
Cd911 O910 2.223 . S
Cd911 O914 2.297 . S
Cd911 O915 2.439 . S
Cd911 O921 2.240 . S
Cd912 O913 2.240 . S
Cd912 O920 2.223 . S
Cd912 O922 2.297 . S
Cd912 O923 2.439 . S
O913 Cd912 2.240 . S
O913 C918 1.279 . S
O914 Cd911 2.297 . S
O914 C916 1.247 . S
O915 Cd911 2.439 . S
O915 C916 1.208 . S
C916 O914 1.247 . S
C916 O915 1.208 . S
C917 O922 1.247 . S
C917 O923 1.208 . S
C918 O910 1.315 . S
C918 O913 1.279 . S
C919 O920 1.315 . S
C919 O921 1.279 . S
O920 Cd912 2.223 . S
O920 C919 1.315 . S
O921 Cd911 2.240 . S
O921 C919 1.279 . S
O922 Cd912 2.297 . S
O922 C917 1.247 . S
O923 Cd912 2.439 . S
O923 C917 1.208 . S
O924 Cd925 2.223 . S
O924 C932 1.315 . S
Cd925 O924 2.223 . S
Cd925 O928 2.297 . S
Cd925 O929 2.439 . S
Cd925 O935 2.240 . S
Cd926 O927 2.240 . S
Cd926 O934 2.223 . S
Cd926 O936 2.297 . S
Cd926 O937 2.439 . S
O927 Cd926 2.240 . S
O927 C932 1.279 . S
O928 Cd925 2.297 . S
O928 C930 1.247 . S
O929 Cd925 2.439 . S
O929 C930 1.208 . S
C930 O928 1.247 . S
C930 O929 1.208 . S
C931 O936 1.247 . S
C931 O937 1.208 . S
C932 O924 1.315 . S
C932 O927 1.279 . S
C933 O934 1.315 . S
C933 O935 1.279 . S
O934 Cd926 2.223 . S
O934 C933 1.315 . S
O935 Cd925 2.240 . S
O935 C933 1.279 . S
O936 Cd926 2.297 . S
O936 C931 1.247 . S
O937 Cd926 2.439 . S
O937 C931 1.208 . S
O938 Cd939 2.223 . S
O938 C946 1.315 . S
Cd939 O938 2.223 . S
Cd939 O942 2.297 . S
Cd939 O943 2.439 . S
Cd939 O949 2.240 . S
Cd940 O941 2.240 . S
Cd940 O948 2.223 . S
Cd940 O950 2.297 . S
Cd940 O951 2.439 . S
O941 Cd940 2.240 . S
O941 C946 1.279 . S
O942 Cd939 2.297 . S
O942 C944 1.247 . S
O943 Cd939 2.439 . S
O943 C944 1.208 . S
C944 O942 1.247 . S
C944 O943 1.208 . S
C945 O950 1.247 . S
C945 O951 1.208 . S
C946 O938 1.315 . S
C946 O941 1.279 . S
C947 O948 1.315 . S
C947 O949 1.279 . S
O948 Cd940 2.223 . S
O948 C947 1.315 . S
O949 Cd939 2.240 . S
O949 C947 1.279 . S
O950 Cd940 2.297 . S
O950 C945 1.247 . S
O951 Cd940 2.439 . S
O951 C945 1.208 . S
O952 Cd953 2.223 . S
O952 C960 1.315 . S
Cd953 O952 2.223 . S
Cd953 O956 2.297 . S
Cd953 O957 2.439 . S
Cd953 O963 2.240 . S
Cd954 O955 2.240 . S
Cd954 O962 2.223 . S
Cd954 O964 2.297 . S
Cd954 O965 2.439 . S
O955 Cd954 2.240 . S
O955 C960 1.279 . S
O956 Cd953 2.297 . S
O956 C958 1.247 . S
O957 Cd953 2.439 . S
O957 C958 1.208 . S
C958 O956 1.247 . S
C958 O957 1.208 . S
C959 O964 1.247 . S
C959 O965 1.208 . S
C960 O952 1.315 . S
C960 O955 1.279 . S
C961 O962 1.315 . S
C961 O963 1.279 . S
O962 Cd954 2.223 . S
O962 C961 1.315 . S
O963 Cd953 2.240 . S
O963 C961 1.279 . S
O964 Cd954 2.297 . S
O964 C959 1.247 . S
O965 Cd954 2.439 . S
O965 C959 1.208 . S
O966 Cd967 2.223 . S
O966 C974 1.315 . S
Cd967 O966 2.223 . S
Cd967 O970 2.297 . S
Cd967 O971 2.439 . S
Cd967 O977 2.240 . S
Cd968 O969 2.240 . S
Cd968 O976 2.223 . S
Cd968 O978 2.297 . S
Cd968 O979 2.439 . S
O969 Cd968 2.240 . S
O969 C974 1.279 . S
O970 Cd967 2.297 . S
O970 C972 1.247 . S
O971 Cd967 2.439 . S
O971 C972 1.208 . S
C972 O970 1.247 . S
C972 O971 1.208 . S
C973 O978 1.247 . S
C973 O979 1.208 . S
C974 O966 1.315 . S
C974 O969 1.279 . S
C975 O976 1.315 . S
C975 O977 1.279 . S
O976 Cd968 2.223 . S
O976 C975 1.315 . S
O977 Cd967 2.240 . S
O977 C975 1.279 . S
O978 Cd968 2.297 . S
O978 C973 1.247 . S
O979 Cd968 2.439 . S
O979 C973 1.208 . S
O980 Cd981 2.223 . S
O980 C988 1.315 . S
Cd981 O980 2.223 . S
Cd981 O984 2.297 . S
Cd981 O985 2.439 . S
Cd981 O991 2.240 . S
Cd982 O983 2.240 . S
Cd982 O990 2.223 . S
Cd982 O992 2.297 . S
Cd982 O993 2.439 . S
O983 Cd982 2.240 . S
O983 C988 1.279 . S
O984 Cd981 2.297 . S
O984 C986 1.247 . S
O985 Cd981 2.439 . S
O985 C986 1.208 . S
C986 O984 1.247 . S
C986 O985 1.208 . S
C987 O992 1.247 . S
C987 O993 1.208 . S
C988 O980 1.315 . S
C988 O983 1.279 . S
C989 O990 1.315 . S
C989 O991 1.279 . S
O990 Cd982 2.223 . S
O990 C989 1.315 . S
O991 Cd981 2.240 . S
O991 C989 1.279 . S
O992 Cd982 2.297 . S
O992 C987 1.247 . S
O993 Cd982 2.439 . S
O993 C987 1.208 . S
O994 Cd995 2.223 . S
O994 C1002 1.315 . S
Cd995 O994 2.223 . S
Cd995 O998 2.297 . S
Cd995 O999 2.439 . S
Cd995 O1005 2.240 . S
Cd996 O997 2.240 . S
Cd996 O1004 2.223 . S
Cd996 O1006 2.297 . S
Cd996 O1007 2.439 . S
O997 Cd996 2.240 . S
O997 C1002 1.279 . S
O998 Cd995 2.297 . S
O998 C1000 1.247 . S
O999 Cd995 2.439 . S
O999 C1000 1.208 . S
C1000 O998 1.247 . S
C1000 O999 1.208 . S
C1001 O1006 1.247 . S
C1001 O1007 1.208 . S
C1002 O994 1.315 . S
C1002 O997 1.279 . S
C1003 O1004 1.315 . S
C1003 O1005 1.279 . S
O1004 Cd996 2.223 . S
O1004 C1003 1.315 . S
O1005 Cd995 2.240 . S
O1005 C1003 1.279 . S
O1006 Cd996 2.297 . S
O1006 C1001 1.247 . S
O1007 Cd996 2.439 . S
O1007 C1001 1.208 . S
O1008 Cd1009 2.223 . S
O1008 C1016 1.315 . S
Cd1009 O1008 2.223 . S
Cd1009 O1012 2.297 . S
Cd1009 O1013 2.439 . S
Cd1009 O1019 2.240 . S
Cd1010 O1011 2.240 . S
Cd1010 O1018 2.223 . S
Cd1010 O1020 2.297 . S
Cd1010 O1021 2.439 . S
O1011 Cd1010 2.240 . S
O1011 C1016 1.279 . S
O1012 Cd1009 2.297 . S
O1012 C1014 1.247 . S
O1013 Cd1009 2.439 . S
O1013 C1014 1.208 . S
C1014 O1012 1.247 . S
C1014 O1013 1.208 . S
C1015 O1020 1.247 . S
C1015 O1021 1.208 . S
C1016 O1008 1.315 . S
C1016 O1011 1.279 . S
C1017 O1018 1.315 . S
C1017 O1019 1.279 . S
O1018 Cd1010 2.223 . S
O1018 C1017 1.315 . S
O1019 Cd1009 2.240 . S
O1019 C1017 1.279 . S
O1020 Cd1010 2.297 . S
O1020 C1015 1.247 . S
O1021 Cd1010 2.439 . S
O1021 C1015 1.208 . S
O1022 Cd1023 2.223 . S
O1022 C1030 1.315 . S
Cd1023 O1022 2.223 . S
Cd1023 O1026 2.297 . S
Cd1023 O1027 2.439 . S
Cd1023 O1033 2.240 . S
Cd1024 O1025 2.240 . S
Cd1024 O1032 2.223 . S
Cd1024 O1034 2.297 . S
Cd1024 O1035 2.439 . S
O1025 Cd1024 2.240 . S
O1025 C1030 1.279 . S
O1026 Cd1023 2.297 . S
O1026 C1028 1.247 . S
O1027 Cd1023 2.439 . S
O1027 C1028 1.208 . S
C1028 O1026 1.247 . S
C1028 O1027 1.208 . S
C1029 O1034 1.247 . S
C1029 O1035 1.208 . S
C1030 O1022 1.315 . S
C1030 O1025 1.279 . S
C1031 O1032 1.315 . S
C1031 O1033 1.279 . S
O1032 Cd1024 2.223 . S
O1032 C1031 1.315 . S
O1033 Cd1023 2.240 . S
O1033 C1031 1.279 . S
O1034 Cd1024 2.297 . S
O1034 C1029 1.247 . S
O1035 Cd1024 2.439 . S
O1035 C1029 1.208 . S
O1036 Cd1037 2.223 . S
O1036 C1044 1.315 . S
Cd1037 O1036 2.223 . S
Cd1037 O1040 2.297 . S
Cd1037 O1041 2.439 . S
Cd1037 O1047 2.240 . S
Cd1038 O1039 2.240 . S
Cd1038 O1046 2.223 . S
Cd1038 O1048 2.297 . S
Cd1038 O1049 2.439 . S
O1039 Cd1038 2.240 . S
O1039 C1044 1.279 . S
O1040 Cd1037 2.297 . S
O1040 C1042 1.247 . S
O1041 Cd1037 2.439 . S
O1041 C1042 1.208 . S
C1042 O1040 1.247 . S
C1042 O1041 1.208 . S
C1043 O1048 1.247 . S
C1043 O1049 1.208 . S
C1044 O1036 1.315 . S
C1044 O1039 1.279 . S
C1045 O1046 1.315 . S
C1045 O1047 1.279 . S
O1046 Cd1038 2.223 . S
O1046 C1045 1.315 . S
O1047 Cd1037 2.240 . S
O1047 C1045 1.279 . S
O1048 Cd1038 2.297 . S
O1048 C1043 1.247 . S
O1049 Cd1038 2.439 . S
O1049 C1043 1.208 . S
O1050 Cd1051 2.223 . S
O1050 C1058 1.315 . S
Cd1051 O1050 2.223 . S
Cd1051 O1054 2.297 . S
Cd1051 O1055 2.439 . S
Cd1051 O1061 2.240 . S
Cd1052 O1053 2.240 . S
Cd1052 O1060 2.223 . S
Cd1052 O1062 2.297 . S
Cd1052 O1063 2.439 . S
O1053 Cd1052 2.240 . S
O1053 C1058 1.279 . S
O1054 Cd1051 2.297 . S
O1054 C1056 1.247 . S
O1055 Cd1051 2.439 . S
O1055 C1056 1.208 . S
C1056 O1054 1.247 . S
C1056 O1055 1.208 . S
C1057 O1062 1.247 . S
C1057 O1063 1.208 . S
C1058 O1050 1.315 . S
C1058 O1053 1.279 . S
C1059 O1060 1.315 . S
C1059 O1061 1.279 . S
O1060 Cd1052 2.223 . S
O1060 C1059 1.315 . S
O1061 Cd1051 2.240 . S
O1061 C1059 1.279 . S
O1062 Cd1052 2.297 . S
O1062 C1057 1.247 . S
O1063 Cd1052 2.439 . S
O1063 C1057 1.208 . S
O1064 Cd1065 2.223 . S
O1064 C1072 1.315 . S
Cd1065 O1064 2.223 . S
Cd1065 O1068 2.297 . S
Cd1065 O1069 2.439 . S
Cd1065 O1075 2.240 . S
Cd1066 O1067 2.240 . S
Cd1066 O1074 2.223 . S
Cd1066 O1076 2.297 . S
Cd1066 O1077 2.439 . S
O1067 Cd1066 2.240 . S
O1067 C1072 1.279 . S
O1068 Cd1065 2.297 . S
O1068 C1070 1.247 . S
O1069 Cd1065 2.439 . S
O1069 C1070 1.208 . S
C1070 O1068 1.247 . S
C1070 O1069 1.208 . S
C1071 O1076 1.247 . S
C1071 O1077 1.208 . S
C1072 O1064 1.315 . S
C1072 O1067 1.279 . S
C1073 O1074 1.315 . S
C1073 O1075 1.279 . S
O1074 Cd1066 2.223 . S
O1074 C1073 1.315 . S
O1075 Cd1065 2.240 . S
O1075 C1073 1.279 . S
O1076 Cd1066 2.297 . S
O1076 C1071 1.247 . S
O1077 Cd1066 2.439 . S
O1077 C1071 1.208 . S
O1078 Cd1079 2.223 . S
O1078 C1086 1.315 . S
Cd1079 O1078 2.223 . S
Cd1079 O1082 2.297 . S
Cd1079 O1083 2.439 . S
Cd1079 O1089 2.240 . S
Cd1080 O1081 2.240 . S
Cd1080 O1088 2.223 . S
Cd1080 O1090 2.297 . S
Cd1080 O1091 2.439 . S
O1081 Cd1080 2.240 . S
O1081 C1086 1.279 . S
O1082 Cd1079 2.297 . S
O1082 C1084 1.247 . S
O1083 Cd1079 2.439 . S
O1083 C1084 1.208 . S
C1084 O1082 1.247 . S
C1084 O1083 1.208 . S
C1085 O1090 1.247 . S
C1085 O1091 1.208 . S
C1086 O1078 1.315 . S
C1086 O1081 1.279 . S
C1087 O1088 1.315 . S
C1087 O1089 1.279 . S
O1088 Cd1080 2.223 . S
O1088 C1087 1.315 . S
O1089 Cd1079 2.240 . S
O1089 C1087 1.279 . S
O1090 Cd1080 2.297 . S
O1090 C1085 1.247 . S
O1091 Cd1080 2.439 . S
O1091 C1085 1.208 . S
O1092 Cd1093 2.223 . S
O1092 C1100 1.315 . S
Cd1093 O1092 2.223 . S
Cd1093 O1096 2.297 . S
Cd1093 O1097 2.439 . S
Cd1093 O1103 2.240 . S
Cd1094 O1095 2.240 . S
Cd1094 O1102 2.223 . S
Cd1094 O1104 2.297 . S
Cd1094 O1105 2.439 . S
O1095 Cd1094 2.240 . S
O1095 C1100 1.279 . S
O1096 Cd1093 2.297 . S
O1096 C1098 1.247 . S
O1097 Cd1093 2.439 . S
O1097 C1098 1.208 . S
C1098 O1096 1.247 . S
C1098 O1097 1.208 . S
C1099 O1104 1.247 . S
C1099 O1105 1.208 . S
C1100 O1092 1.315 . S
C1100 O1095 1.279 . S
C1101 O1102 1.315 . S
C1101 O1103 1.279 . S
O1102 Cd1094 2.223 . S
O1102 C1101 1.315 . S
O1103 Cd1093 2.240 . S
O1103 C1101 1.279 . S
O1104 Cd1094 2.297 . S
O1104 C1099 1.247 . S
O1105 Cd1094 2.439 . S
O1105 C1099 1.208 . S
O1106 Cd1107 2.223 . S
O1106 C1114 1.315 . S
Cd1107 O1106 2.223 . S
Cd1107 O1110 2.297 . S
Cd1107 O1111 2.439 . S
Cd1107 O1117 2.240 . S
Cd1108 O1109 2.240 . S
Cd1108 O1116 2.223 . S
Cd1108 O1118 2.297 . S
Cd1108 O1119 2.439 . S
O1109 Cd1108 2.240 . S
O1109 C1114 1.279 . S
O1110 Cd1107 2.297 . S
O1110 C1112 1.247 . S
O1111 Cd1107 2.439 . S
O1111 C1112 1.208 . S
C1112 O1110 1.247 . S
C1112 O1111 1.208 . S
C1113 O1118 1.247 . S
C1113 O1119 1.208 . S
C1114 O1106 1.315 . S
C1114 O1109 1.279 . S
C1115 O1116 1.315 . S
C1115 O1117 1.279 . S
O1116 Cd1108 2.223 . S
O1116 C1115 1.315 . S
O1117 Cd1107 2.240 . S
O1117 C1115 1.279 . S
O1118 Cd1108 2.297 . S
O1118 C1113 1.247 . S
O1119 Cd1108 2.439 . S
O1119 C1113 1.208 . S
O1120 Cd1121 2.223 . S
O1120 C1128 1.315 . S
Cd1121 O1120 2.223 . S
Cd1121 O1124 2.297 . S
Cd1121 O1125 2.439 . S
Cd1121 O1131 2.240 . S
Cd1122 O1123 2.240 . S
Cd1122 O1130 2.223 . S
Cd1122 O1132 2.297 . S
Cd1122 O1133 2.439 . S
O1123 Cd1122 2.240 . S
O1123 C1128 1.279 . S
O1124 Cd1121 2.297 . S
O1124 C1126 1.247 . S
O1125 Cd1121 2.439 . S
O1125 C1126 1.208 . S
C1126 O1124 1.247 . S
C1126 O1125 1.208 . S
C1127 O1132 1.247 . S
C1127 O1133 1.208 . S
C1128 O1120 1.315 . S
C1128 O1123 1.279 . S
C1129 O1130 1.315 . S
C1129 O1131 1.279 . S
O1130 Cd1122 2.223 . S
O1130 C1129 1.315 . S
O1131 Cd1121 2.240 . S
O1131 C1129 1.279 . S
O1132 Cd1122 2.297 . S
O1132 C1127 1.247 . S
O1133 Cd1122 2.439 . S
O1133 C1127 1.208 . S
O1134 Cd1135 2.223 . S
O1134 C1142 1.315 . S
Cd1135 O1134 2.223 . S
Cd1135 O1138 2.297 . S
Cd1135 O1139 2.439 . S
Cd1135 O1145 2.240 . S
Cd1136 O1137 2.240 . S
Cd1136 O1144 2.223 . S
Cd1136 O1146 2.297 . S
Cd1136 O1147 2.439 . S
O1137 Cd1136 2.240 . S
O1137 C1142 1.279 . S
O1138 Cd1135 2.297 . S
O1138 C1140 1.247 . S
O1139 Cd1135 2.439 . S
O1139 C1140 1.208 . S
C1140 O1138 1.247 . S
C1140 O1139 1.208 . S
C1141 O1146 1.247 . S
C1141 O1147 1.208 . S
C1142 O1134 1.315 . S
C1142 O1137 1.279 . S
C1143 O1144 1.315 . S
C1143 O1145 1.279 . S
O1144 Cd1136 2.223 . S
O1144 C1143 1.315 . S
O1145 Cd1135 2.240 . S
O1145 C1143 1.279 . S
O1146 Cd1136 2.297 . S
O1146 C1141 1.247 . S
O1147 Cd1136 2.439 . S
O1147 C1141 1.208 . S
O1148 Cd1149 2.223 . S
O1148 C1156 1.315 . S
Cd1149 O1148 2.223 . S
Cd1149 O1152 2.297 . S
Cd1149 O1153 2.439 . S
Cd1149 O1159 2.240 . S
Cd1150 O1151 2.240 . S
Cd1150 O1158 2.223 . S
Cd1150 O1160 2.297 . S
Cd1150 O1161 2.439 . S
O1151 Cd1150 2.240 . S
O1151 C1156 1.279 . S
O1152 Cd1149 2.297 . S
O1152 C1154 1.247 . S
O1153 Cd1149 2.439 . S
O1153 C1154 1.208 . S
C1154 O1152 1.247 . S
C1154 O1153 1.208 . S
C1155 O1160 1.247 . S
C1155 O1161 1.208 . S
C1156 O1148 1.315 . S
C1156 O1151 1.279 . S
C1157 O1158 1.315 . S
C1157 O1159 1.279 . S
O1158 Cd1150 2.223 . S
O1158 C1157 1.315 . S
O1159 Cd1149 2.240 . S
O1159 C1157 1.279 . S
O1160 Cd1150 2.297 . S
O1160 C1155 1.247 . S
O1161 Cd1150 2.439 . S
O1161 C1155 1.208 . S
O1162 Cd1163 2.223 . S
O1162 C1170 1.315 . S
Cd1163 O1162 2.223 . S
Cd1163 O1166 2.297 . S
Cd1163 O1167 2.439 . S
Cd1163 O1173 2.240 . S
Cd1164 O1165 2.240 . S
Cd1164 O1172 2.223 . S
Cd1164 O1174 2.297 . S
Cd1164 O1175 2.439 . S
O1165 Cd1164 2.240 . S
O1165 C1170 1.279 . S
O1166 Cd1163 2.297 . S
O1166 C1168 1.247 . S
O1167 Cd1163 2.439 . S
O1167 C1168 1.208 . S
C1168 O1166 1.247 . S
C1168 O1167 1.208 . S
C1169 O1174 1.247 . S
C1169 O1175 1.208 . S
C1170 O1162 1.315 . S
C1170 O1165 1.279 . S
C1171 O1172 1.315 . S
C1171 O1173 1.279 . S
O1172 Cd1164 2.223 . S
O1172 C1171 1.315 . S
O1173 Cd1163 2.240 . S
O1173 C1171 1.279 . S
O1174 Cd1164 2.297 . S
O1174 C1169 1.247 . S
O1175 Cd1164 2.439 . S
O1175 C1169 1.208 . S
O1176 Cd1177 2.223 . S
O1176 C1184 1.315 . S
Cd1177 O1176 2.223 . S
Cd1177 O1180 2.297 . S
Cd1177 O1181 2.439 . S
Cd1177 O1187 2.240 . S
Cd1178 O1179 2.240 . S
Cd1178 O1186 2.223 . S
Cd1178 O1188 2.297 . S
Cd1178 O1189 2.439 . S
O1179 Cd1178 2.240 . S
O1179 C1184 1.279 . S
O1180 Cd1177 2.297 . S
O1180 C1182 1.247 . S
O1181 Cd1177 2.439 . S
O1181 C1182 1.208 . S
C1182 O1180 1.247 . S
C1182 O1181 1.208 . S
C1183 O1188 1.247 . S
C1183 O1189 1.208 . S
C1184 O1176 1.315 . S
C1184 O1179 1.279 . S
C1185 O1186 1.315 . S
C1185 O1187 1.279 . S
O1186 Cd1178 2.223 . S
O1186 C1185 1.315 . S
O1187 Cd1177 2.240 . S
O1187 C1185 1.279 . S
O1188 Cd1178 2.297 . S
O1188 C1183 1.247 . S
O1189 Cd1178 2.439 . S
O1189 C1183 1.208 . S
O1190 Cd1191 2.223 . S
O1190 C1198 1.315 . S
Cd1191 O1190 2.223 . S
Cd1191 O1194 2.297 . S
Cd1191 O1195 2.439 . S
Cd1191 O1201 2.240 . S
Cd1192 O1193 2.240 . S
Cd1192 O1200 2.223 . S
Cd1192 O1202 2.297 . S
Cd1192 O1203 2.439 . S
O1193 Cd1192 2.240 . S
O1193 C1198 1.279 . S
O1194 Cd1191 2.297 . S
O1194 C1196 1.247 . S
O1195 Cd1191 2.439 . S
O1195 C1196 1.208 . S
C1196 O1194 1.247 . S
C1196 O1195 1.208 . S
C1197 O1202 1.247 . S
C1197 O1203 1.208 . S
C1198 O1190 1.315 . S
C1198 O1193 1.279 . S
C1199 O1200 1.315 . S
C1199 O1201 1.279 . S
O1200 Cd1192 2.223 . S
O1200 C1199 1.315 . S
O1201 Cd1191 2.240 . S
O1201 C1199 1.279 . S
O1202 Cd1192 2.297 . S
O1202 C1197 1.247 . S
O1203 Cd1192 2.439 . S
O1203 C1197 1.208 . S
O1204 Cd1205 2.223 . S
O1204 C1212 1.315 . S
Cd1205 O1204 2.223 . S
Cd1205 O1208 2.297 . S
Cd1205 O1209 2.439 . S
Cd1205 O1215 2.240 . S
Cd1206 O1207 2.240 . S
Cd1206 O1214 2.223 . S
Cd1206 O1216 2.297 . S
Cd1206 O1217 2.439 . S
O1207 Cd1206 2.240 . S
O1207 C1212 1.279 . S
O1208 Cd1205 2.297 . S
O1208 C1210 1.247 . S
O1209 Cd1205 2.439 . S
O1209 C1210 1.208 . S
C1210 O1208 1.247 . S
C1210 O1209 1.208 . S
C1211 O1216 1.247 . S
C1211 O1217 1.208 . S
C1212 O1204 1.315 . S
C1212 O1207 1.279 . S
C1213 O1214 1.315 . S
C1213 O1215 1.279 . S
O1214 Cd1206 2.223 . S
O1214 C1213 1.315 . S
O1215 Cd1205 2.240 . S
O1215 C1213 1.279 . S
O1216 Cd1206 2.297 . S
O1216 C1211 1.247 . S
O1217 Cd1206 2.439 . S
O1217 C1211 1.208 . S
O1218 Cd1219 2.223 . S
O1218 C1226 1.315 . S
Cd1219 O1218 2.223 . S
Cd1219 O1222 2.297 . S
Cd1219 O1223 2.439 . S
Cd1219 O1229 2.240 . S
Cd1220 O1221 2.240 . S
Cd1220 O1228 2.223 . S
Cd1220 O1230 2.297 . S
Cd1220 O1231 2.439 . S
O1221 Cd1220 2.240 . S
O1221 C1226 1.279 . S
O1222 Cd1219 2.297 . S
O1222 C1224 1.247 . S
O1223 Cd1219 2.439 . S
O1223 C1224 1.208 . S
C1224 O1222 1.247 . S
C1224 O1223 1.208 . S
C1225 O1230 1.247 . S
C1225 O1231 1.208 . S
C1226 O1218 1.315 . S
C1226 O1221 1.279 . S
C1227 O1228 1.315 . S
C1227 O1229 1.279 . S
O1228 Cd1220 2.223 . S
O1228 C1227 1.315 . S
O1229 Cd1219 2.240 . S
O1229 C1227 1.279 . S
O1230 Cd1220 2.297 . S
O1230 C1225 1.247 . S
O1231 Cd1220 2.439 . S
O1231 C1225 1.208 . S
O1232 Cd1233 2.223 . S
O1232 C1240 1.315 . S
Cd1233 O1232 2.223 . S
Cd1233 O1236 2.297 . S
Cd1233 O1237 2.439 . S
Cd1233 O1243 2.240 . S
Cd1234 O1235 2.240 . S
Cd1234 O1242 2.223 . S
Cd1234 O1244 2.297 . S
Cd1234 O1245 2.439 . S
O1235 Cd1234 2.240 . S
O1235 C1240 1.279 . S
O1236 Cd1233 2.297 . S
O1236 C1238 1.247 . S
O1237 Cd1233 2.439 . S
O1237 C1238 1.208 . S
C1238 O1236 1.247 . S
C1238 O1237 1.208 . S
C1239 O1244 1.247 . S
C1239 O1245 1.208 . S
C1240 O1232 1.315 . S
C1240 O1235 1.279 . S
C1241 O1242 1.315 . S
C1241 O1243 1.279 . S
O1242 Cd1234 2.223 . S
O1242 C1241 1.315 . S
O1243 Cd1233 2.240 . S
O1243 C1241 1.279 . S
O1244 Cd1234 2.297 . S
O1244 C1239 1.247 . S
O1245 Cd1234 2.439 . S
O1245 C1239 1.208 . S
O1246 Cd1247 2.223 . S
O1246 C1254 1.315 . S
Cd1247 O1246 2.223 . S
Cd1247 O1250 2.297 . S
Cd1247 O1251 2.439 . S
Cd1247 O1257 2.240 . S
Cd1248 O1249 2.240 . S
Cd1248 O1256 2.223 . S
Cd1248 O1258 2.297 . S
Cd1248 O1259 2.439 . S
O1249 Cd1248 2.240 . S
O1249 C1254 1.279 . S
O1250 Cd1247 2.297 . S
O1250 C1252 1.247 . S
O1251 Cd1247 2.439 . S
O1251 C1252 1.208 . S
C1252 O1250 1.247 . S
C1252 O1251 1.208 . S
C1253 O1258 1.247 . S
C1253 O1259 1.208 . S
C1254 O1246 1.315 . S
C1254 O1249 1.279 . S
C1255 O1256 1.315 . S
C1255 O1257 1.279 . S
O1256 Cd1248 2.223 . S
O1256 C1255 1.315 . S
O1257 Cd1247 2.240 . S
O1257 C1255 1.279 . S
O1258 Cd1248 2.297 . S
O1258 C1253 1.247 . S
O1259 Cd1248 2.439 . S
O1259 C1253 1.208 . S
O1260 Cd1261 2.223 . S
O1260 C1268 1.315 . S
Cd1261 O1260 2.223 . S
Cd1261 O1264 2.297 . S
Cd1261 O1265 2.439 . S
Cd1261 O1271 2.240 . S
Cd1262 O1263 2.240 . S
Cd1262 O1270 2.223 . S
Cd1262 O1272 2.297 . S
Cd1262 O1273 2.439 . S
O1263 Cd1262 2.240 . S
O1263 C1268 1.279 . S
O1264 Cd1261 2.297 . S
O1264 C1266 1.247 . S
O1265 Cd1261 2.439 . S
O1265 C1266 1.208 . S
C1266 O1264 1.247 . S
C1266 O1265 1.208 . S
C1267 O1272 1.247 . S
C1267 O1273 1.208 . S
C1268 O1260 1.315 . S
C1268 O1263 1.279 . S
C1269 O1270 1.315 . S
C1269 O1271 1.279 . S
O1270 Cd1262 2.223 . S
O1270 C1269 1.315 . S
O1271 Cd1261 2.240 . S
O1271 C1269 1.279 . S
O1272 Cd1262 2.297 . S
O1272 C1267 1.247 . S
O1273 Cd1262 2.439 . S
O1273 C1267 1.208 . S
O1274 Cd1275 2.223 . S
O1274 C1282 1.315 . S
Cd1275 O1274 2.223 . S
Cd1275 O1278 2.297 . S
Cd1275 O1279 2.439 . S
Cd1275 O1285 2.240 . S
Cd1276 O1277 2.240 . S
Cd1276 O1284 2.223 . S
Cd1276 O1286 2.297 . S
Cd1276 O1287 2.439 . S
O1277 Cd1276 2.240 . S
O1277 C1282 1.279 . S
O1278 Cd1275 2.297 . S
O1278 C1280 1.247 . S
O1279 Cd1275 2.439 . S
O1279 C1280 1.208 . S
C1280 O1278 1.247 . S
C1280 O1279 1.208 . S
C1281 O1286 1.247 . S
C1281 O1287 1.208 . S
C1282 O1274 1.315 . S
C1282 O1277 1.279 . S
C1283 O1284 1.315 . S
C1283 O1285 1.279 . S
O1284 Cd1276 2.223 . S
O1284 C1283 1.315 . S
O1285 Cd1275 2.240 . S
O1285 C1283 1.279 . S
O1286 Cd1276 2.297 . S
O1286 C1281 1.247 . S
O1287 Cd1276 2.439 . S
O1287 C1281 1.208 . S
O1288 Cd1289 2.223 . S
O1288 C1296 1.315 . S
Cd1289 O1288 2.223 . S
Cd1289 O1292 2.297 . S
Cd1289 O1293 2.439 . S
Cd1289 O1299 2.240 . S
Cd1290 O1291 2.240 . S
Cd1290 O1298 2.223 . S
Cd1290 O1300 2.297 . S
Cd1290 O1301 2.439 . S
O1291 Cd1290 2.240 . S
O1291 C1296 1.279 . S
O1292 Cd1289 2.297 . S
O1292 C1294 1.247 . S
O1293 Cd1289 2.439 . S
O1293 C1294 1.208 . S
C1294 O1292 1.247 . S
C1294 O1293 1.208 . S
C1295 O1300 1.247 . S
C1295 O1301 1.208 . S
C1296 O1288 1.315 . S
C1296 O1291 1.279 . S
C1297 O1298 1.315 . S
C1297 O1299 1.279 . S
O1298 Cd1290 2.223 . S
O1298 C1297 1.315 . S
O1299 Cd1289 2.240 . S
O1299 C1297 1.279 . S
O1300 Cd1290 2.297 . S
O1300 C1295 1.247 . S
O1301 Cd1290 2.439 . S
O1301 C1295 1.208 . S
O1302 Cd1303 2.223 . S
O1302 C1310 1.315 . S
Cd1303 O1302 2.223 . S
Cd1303 O1306 2.297 . S
Cd1303 O1307 2.439 . S
Cd1303 O1313 2.240 . S
Cd1304 O1305 2.240 . S
Cd1304 O1312 2.223 . S
Cd1304 O1314 2.297 . S
Cd1304 O1315 2.439 . S
O1305 Cd1304 2.240 . S
O1305 C1310 1.279 . S
O1306 Cd1303 2.297 . S
O1306 C1308 1.247 . S
O1307 Cd1303 2.439 . S
O1307 C1308 1.208 . S
C1308 O1306 1.247 . S
C1308 O1307 1.208 . S
C1309 O1314 1.247 . S
C1309 O1315 1.208 . S
C1310 O1302 1.315 . S
C1310 O1305 1.279 . S
C1311 O1312 1.315 . S
C1311 O1313 1.279 . S
O1312 Cd1304 2.223 . S
O1312 C1311 1.315 . S
O1313 Cd1303 2.240 . S
O1313 C1311 1.279 . S
O1314 Cd1304 2.297 . S
O1314 C1309 1.247 . S
O1315 Cd1304 2.439 . S
O1315 C1309 1.208 . S
O1316 Cd1317 2.223 . S
O1316 C1324 1.315 . S
Cd1317 O1316 2.223 . S
Cd1317 O1320 2.297 . S
Cd1317 O1321 2.439 . S
Cd1317 O1327 2.240 . S
Cd1318 O1319 2.240 . S
Cd1318 O1326 2.223 . S
Cd1318 O1328 2.297 . S
Cd1318 O1329 2.439 . S
O1319 Cd1318 2.240 . S
O1319 C1324 1.279 . S
O1320 Cd1317 2.297 . S
O1320 C1322 1.247 . S
O1321 Cd1317 2.439 . S
O1321 C1322 1.208 . S
C1322 O1320 1.247 . S
C1322 O1321 1.208 . S
C1323 O1328 1.247 . S
C1323 O1329 1.208 . S
C1324 O1316 1.315 . S
C1324 O1319 1.279 . S
C1325 O1326 1.315 . S
C1325 O1327 1.279 . S
O1326 Cd1318 2.223 . S
O1326 C1325 1.315 . S
O1327 Cd1317 2.240 . S
O1327 C1325 1.279 . S
O1328 Cd1318 2.297 . S
O1328 C1323 1.247 . S
O1329 Cd1318 2.439 . S
O1329 C1323 1.208 . S
O1330 Cd1331 2.223 . S
O1330 C1338 1.315 . S
Cd1331 O1330 2.223 . S
Cd1331 O1334 2.297 . S
Cd1331 O1335 2.439 . S
Cd1331 O1341 2.240 . S
Cd1332 O1333 2.240 . S
Cd1332 O1340 2.223 . S
Cd1332 O1342 2.297 . S
Cd1332 O1343 2.439 . S
O1333 Cd1332 2.240 . S
O1333 C1338 1.279 . S
O1334 Cd1331 2.297 . S
O1334 C1336 1.247 . S
O1335 Cd1331 2.439 . S
O1335 C1336 1.208 . S
C1336 O1334 1.247 . S
C1336 O1335 1.208 . S
C1337 O1342 1.247 . S
C1337 O1343 1.208 . S
C1338 O1330 1.315 . S
C1338 O1333 1.279 . S
C1339 O1340 1.315 . S
C1339 O1341 1.279 . S
O1340 Cd1332 2.223 . S
O1340 C1339 1.315 . S
O1341 Cd1331 2.240 . S
O1341 C1339 1.279 . S
O1342 Cd1332 2.297 . S
O1342 C1337 1.247 . S
O1343 Cd1332 2.439 . S
O1343 C1337 1.208 . S
C1344 C1345 1.387 . S
C1344 H1348 0.950 . S
C1344 C1353 1.390 . S
C1345 C1344 1.387 . S
C1345 C1347 1.387 . S
H1346 C1353 0.950 . S
C1347 C1345 1.387 . S
C1347 C1349 1.390 . S
C1347 H1351 0.950 . S
H1348 C1344 0.950 . S
C1349 C1347 1.390 . S
C1349 C1350 1.387 . S
C1349 H1352 0.950 . S
C1350 C1349 1.387 . S
C1350 C1353 1.387 . S
H1351 C1347 0.950 . S
H1352 C1349 0.950 . S
C1353 C1344 1.390 . S
C1353 H1346 0.950 . S
C1353 C1350 1.387 . S
C1354 C1355 1.387 . S
C1354 H1358 0.950 . S
C1354 C1363 1.390 . S
C1355 C1354 1.387 . S
C1355 C1357 1.387 . S
H1356 C1363 0.950 . S
C1357 C1355 1.387 . S
C1357 C1359 1.390 . S
C1357 H1361 0.950 . S
H1358 C1354 0.950 . S
C1359 C1357 1.390 . S
C1359 C1360 1.387 . S
C1359 H1362 0.950 . S
C1360 C1359 1.387 . S
C1360 C1363 1.387 . S
H1361 C1357 0.950 . S
H1362 C1359 0.950 . S
C1363 C1354 1.390 . S
C1363 H1356 0.950 . S
C1363 C1360 1.387 . S
C1364 C1365 1.387 . S
C1364 H1368 0.950 . S
C1364 C1373 1.390 . S
C1365 C1364 1.387 . S
C1365 C1367 1.387 . S
H1366 C1373 0.950 . S
C1367 C1365 1.387 . S
C1367 C1369 1.390 . S
C1367 H1371 0.950 . S
H1368 C1364 0.950 . S
C1369 C1367 1.390 . S
C1369 C1370 1.387 . S
C1369 H1372 0.950 . S
C1370 C1369 1.387 . S
C1370 C1373 1.387 . S
H1371 C1367 0.950 . S
H1372 C1369 0.950 . S
C1373 C1364 1.390 . S
C1373 H1366 0.950 . S
C1373 C1370 1.387 . S
C1374 C1375 1.387 . S
C1374 H1378 0.950 . S
C1374 C1383 1.390 . S
C1375 C1374 1.387 . S
C1375 C1377 1.387 . S
H1376 C1383 0.950 . S
C1377 C1375 1.387 . S
C1377 C1379 1.390 . S
C1377 H1381 0.950 . S
H1378 C1374 0.950 . S
C1379 C1377 1.390 . S
C1379 C1380 1.387 . S
C1379 H1382 0.950 . S
C1380 C1379 1.387 . S
C1380 C1383 1.387 . S
H1381 C1377 0.950 . S
H1382 C1379 0.950 . S
C1383 C1374 1.390 . S
C1383 H1376 0.950 . S
C1383 C1380 1.387 . S
C1384 C1385 1.387 . S
C1384 H1388 0.950 . S
C1384 C1393 1.390 . S
C1385 C1384 1.387 . S
C1385 C1387 1.387 . S
H1386 C1393 0.950 . S
C1387 C1385 1.387 . S
C1387 C1389 1.390 . S
C1387 H1391 0.950 . S
H1388 C1384 0.950 . S
C1389 C1387 1.390 . S
C1389 C1390 1.387 . S
C1389 H1392 0.950 . S
C1390 C1389 1.387 . S
C1390 C1393 1.387 . S
H1391 C1387 0.950 . S
H1392 C1389 0.950 . S
C1393 C1384 1.390 . S
C1393 H1386 0.950 . S
C1393 C1390 1.387 . S
C1394 C1395 1.387 . S
C1394 H1398 0.950 . S
C1394 C1403 1.390 . S
C1395 C1394 1.387 . S
C1395 C1397 1.387 . S
H1396 C1403 0.950 . S
C1397 C1395 1.387 . S
C1397 C1399 1.390 . S
C1397 H1401 0.950 . S
H1398 C1394 0.950 . S
C1399 C1397 1.390 . S
C1399 C1400 1.387 . S
C1399 H1402 0.950 . S
C1400 C1399 1.387 . S
C1400 C1403 1.387 . S
H1401 C1397 0.950 . S
H1402 C1399 0.950 . S
C1403 C1394 1.390 . S
C1403 H1396 0.950 . S
C1403 C1400 1.387 . S
C1404 C1405 1.387 . S
C1404 H1408 0.950 . S
C1404 C1413 1.390 . S
C1405 C1404 1.387 . S
C1405 C1407 1.387 . S
H1406 C1413 0.950 . S
C1407 C1405 1.387 . S
C1407 C1409 1.390 . S
C1407 H1411 0.950 . S
H1408 C1404 0.950 . S
C1409 C1407 1.390 . S
C1409 C1410 1.387 . S
C1409 H1412 0.950 . S
C1410 C1409 1.387 . S
C1410 C1413 1.387 . S
H1411 C1407 0.950 . S
H1412 C1409 0.950 . S
C1413 C1404 1.390 . S
C1413 H1406 0.950 . S
C1413 C1410 1.387 . S
C1414 C1415 1.387 . S
C1414 H1418 0.950 . S
C1414 C1423 1.390 . S
C1415 C1414 1.387 . S
C1415 C1417 1.387 . S
H1416 C1423 0.950 . S
C1417 C1415 1.387 . S
C1417 C1419 1.390 . S
C1417 H1421 0.950 . S
H1418 C1414 0.950 . S
C1419 C1417 1.390 . S
C1419 C1420 1.387 . S
C1419 H1422 0.950 . S
C1420 C1419 1.387 . S
C1420 C1423 1.387 . S
H1421 C1417 0.950 . S
H1422 C1419 0.950 . S
C1423 C1414 1.390 . S
C1423 H1416 0.950 . S
C1423 C1420 1.387 . S
C1424 C1425 1.387 . S
C1424 H1428 0.950 . S
C1424 C1433 1.390 . S
C1425 C1424 1.387 . S
C1425 C1427 1.387 . S
H1426 C1433 0.950 . S
C1427 C1425 1.387 . S
C1427 C1429 1.390 . S
C1427 H1431 0.950 . S
H1428 C1424 0.950 . S
C1429 C1427 1.390 . S
C1429 C1430 1.387 . S
C1429 H1432 0.950 . S
C1430 C1429 1.387 . S
C1430 C1433 1.387 . S
H1431 C1427 0.950 . S
H1432 C1429 0.950 . S
C1433 C1424 1.390 . S
C1433 H1426 0.950 . S
C1433 C1430 1.387 . S
C1434 C1435 1.387 . S
C1434 H1438 0.950 . S
C1434 C1443 1.390 . S
C1435 C1434 1.387 . S
C1435 C1437 1.387 . S
H1436 C1443 0.950 . S
C1437 C1435 1.387 . S
C1437 C1439 1.390 . S
C1437 H1441 0.950 . S
H1438 C1434 0.950 . S
C1439 C1437 1.390 . S
C1439 C1440 1.387 . S
C1439 H1442 0.950 . S
C1440 C1439 1.387 . S
C1440 C1443 1.387 . S
H1441 C1437 0.950 . S
H1442 C1439 0.950 . S
C1443 C1434 1.390 . S
C1443 H1436 0.950 . S
C1443 C1440 1.387 . S
C1444 C1445 1.387 . S
C1444 H1448 0.950 . S
C1444 C1453 1.390 . S
C1445 C1444 1.387 . S
C1445 C1447 1.387 . S
H1446 C1453 0.950 . S
C1447 C1445 1.387 . S
C1447 C1449 1.390 . S
C1447 H1451 0.950 . S
H1448 C1444 0.950 . S
C1449 C1447 1.390 . S
C1449 C1450 1.387 . S
C1449 H1452 0.950 . S
C1450 C1449 1.387 . S
C1450 C1453 1.387 . S
H1451 C1447 0.950 . S
H1452 C1449 0.950 . S
C1453 C1444 1.390 . S
C1453 H1446 0.950 . S
C1453 C1450 1.387 . S
C1454 C1455 1.387 . S
C1454 H1458 0.950 . S
C1454 C1463 1.390 . S
C1455 C1454 1.387 . S
C1455 C1457 1.387 . S
H1456 C1463 0.950 . S
C1457 C1455 1.387 . S
C1457 C1459 1.390 . S
C1457 H1461 0.950 . S
H1458 C1454 0.950 . S
C1459 C1457 1.390 . S
C1459 C1460 1.387 . S
C1459 H1462 0.950 . S
C1460 C1459 1.387 . S
C1460 C1463 1.387 . S
H1461 C1457 0.950 . S
H1462 C1459 0.950 . S
C1463 C1454 1.390 . S
C1463 H1456 0.950 . S
C1463 C1460 1.387 . S
C1464 C1465 1.387 . S
C1464 H1468 0.950 . S
C1464 C1473 1.390 . S
C1465 C1464 1.387 . S
C1465 C1467 1.387 . S
H1466 C1473 0.950 . S
C1467 C1465 1.387 . S
C1467 C1469 1.390 . S
C1467 H1471 0.950 . S
H1468 C1464 0.950 . S
C1469 C1467 1.390 . S
C1469 C1470 1.387 . S
C1469 H1472 0.950 . S
C1470 C1469 1.387 . S
C1470 C1473 1.387 . S
H1471 C1467 0.950 . S
H1472 C1469 0.950 . S
C1473 C1464 1.390 . S
C1473 H1466 0.950 . S
C1473 C1470 1.387 . S
C1474 C1475 1.387 . S
C1474 H1478 0.950 . S
C1474 C1483 1.390 . S
C1475 C1474 1.387 . S
C1475 C1477 1.387 . S
H1476 C1483 0.950 . S
C1477 C1475 1.387 . S
C1477 C1479 1.390 . S
C1477 H1481 0.950 . S
H1478 C1474 0.950 . S
C1479 C1477 1.390 . S
C1479 C1480 1.387 . S
C1479 H1482 0.950 . S
C1480 C1479 1.387 . S
C1480 C1483 1.387 . S
H1481 C1477 0.950 . S
H1482 C1479 0.950 . S
C1483 C1474 1.390 . S
C1483 H1476 0.950 . S
C1483 C1480 1.387 . S
C1484 C1485 1.387 . S
C1484 H1488 0.950 . S
C1484 C1493 1.390 . S
C1485 C1484 1.387 . S
C1485 C1487 1.387 . S
H1486 C1493 0.950 . S
C1487 C1485 1.387 . S
C1487 C1489 1.390 . S
C1487 H1491 0.950 . S
H1488 C1484 0.950 . S
C1489 C1487 1.390 . S
C1489 C1490 1.387 . S
C1489 H1492 0.950 . S
C1490 C1489 1.387 . S
C1490 C1493 1.387 . S
H1491 C1487 0.950 . S
H1492 C1489 0.950 . S
C1493 C1484 1.390 . S
C1493 H1486 0.950 . S
C1493 C1490 1.387 . S
C1494 C1495 1.387 . S
C1494 H1498 0.950 . S
C1494 C1503 1.390 . S
C1495 C1494 1.387 . S
C1495 C1497 1.387 . S
H1496 C1503 0.950 . S
C1497 C1495 1.387 . S
C1497 C1499 1.390 . S
C1497 H1501 0.950 . S
H1498 C1494 0.950 . S
C1499 C1497 1.390 . S
C1499 C1500 1.387 . S
C1499 H1502 0.950 . S
C1500 C1499 1.387 . S
C1500 C1503 1.387 . S
H1501 C1497 0.950 . S
H1502 C1499 0.950 . S
C1503 C1494 1.390 . S
C1503 H1496 0.950 . S
C1503 C1500 1.387 . S
C1504 C1505 1.387 . S
C1504 H1508 0.950 . S
C1504 C1513 1.390 . S
C1505 C1504 1.387 . S
C1505 C1507 1.387 . S
H1506 C1513 0.950 . S
C1507 C1505 1.387 . S
C1507 C1509 1.390 . S
C1507 H1511 0.950 . S
H1508 C1504 0.950 . S
C1509 C1507 1.390 . S
C1509 C1510 1.387 . S
C1509 H1512 0.950 . S
C1510 C1509 1.387 . S
C1510 C1513 1.387 . S
H1511 C1507 0.950 . S
H1512 C1509 0.950 . S
C1513 C1504 1.390 . S
C1513 H1506 0.950 . S
C1513 C1510 1.387 . S
C1514 C1515 1.387 . S
C1514 H1518 0.950 . S
C1514 C1523 1.390 . S
C1515 C1514 1.387 . S
C1515 C1517 1.387 . S
H1516 C1523 0.950 . S
C1517 C1515 1.387 . S
C1517 C1519 1.390 . S
C1517 H1521 0.950 . S
H1518 C1514 0.950 . S
C1519 C1517 1.390 . S
C1519 C1520 1.387 . S
C1519 H1522 0.950 . S
C1520 C1519 1.387 . S
C1520 C1523 1.387 . S
H1521 C1517 0.950 . S
H1522 C1519 0.950 . S
C1523 C1514 1.390 . S
C1523 H1516 0.950 . S
C1523 C1520 1.387 . S
C1524 C1525 1.387 . S
C1524 H1528 0.950 . S
C1524 C1533 1.390 . S
C1525 C1524 1.387 . S
C1525 C1527 1.387 . S
H1526 C1533 0.950 . S
C1527 C1525 1.387 . S
C1527 C1529 1.390 . S
C1527 H1531 0.950 . S
H1528 C1524 0.950 . S
C1529 C1527 1.390 . S
C1529 C1530 1.387 . S
C1529 H1532 0.950 . S
C1530 C1529 1.387 . S
C1530 C1533 1.387 . S
H1531 C1527 0.950 . S
H1532 C1529 0.950 . S
C1533 C1524 1.390 . S
C1533 H1526 0.950 . S
C1533 C1530 1.387 . S
C1534 C1535 1.387 . S
C1534 H1538 0.950 . S
C1534 C1543 1.390 . S
C1535 C1534 1.387 . S
C1535 C1537 1.387 . S
H1536 C1543 0.950 . S
C1537 C1535 1.387 . S
C1537 C1539 1.390 . S
C1537 H1541 0.950 . S
H1538 C1534 0.950 . S
C1539 C1537 1.390 . S
C1539 C1540 1.387 . S
C1539 H1542 0.950 . S
C1540 C1539 1.387 . S
C1540 C1543 1.387 . S
H1541 C1537 0.950 . S
H1542 C1539 0.950 . S
C1543 C1534 1.390 . S
C1543 H1536 0.950 . S
C1543 C1540 1.387 . S
C1544 C1545 1.387 . S
C1544 H1548 0.950 . S
C1544 C1553 1.390 . S
C1545 C1544 1.387 . S
C1545 C1547 1.387 . S
H1546 C1553 0.950 . S
C1547 C1545 1.387 . S
C1547 C1549 1.390 . S
C1547 H1551 0.950 . S
H1548 C1544 0.950 . S
C1549 C1547 1.390 . S
C1549 C1550 1.387 . S
C1549 H1552 0.950 . S
C1550 C1549 1.387 . S
C1550 C1553 1.387 . S
H1551 C1547 0.950 . S
H1552 C1549 0.950 . S
C1553 C1544 1.390 . S
C1553 H1546 0.950 . S
C1553 C1550 1.387 . S
C1554 C1555 1.387 . S
C1554 H1558 0.950 . S
C1554 C1563 1.390 . S
C1555 C1554 1.387 . S
C1555 C1557 1.387 . S
H1556 C1563 0.950 . S
C1557 C1555 1.387 . S
C1557 C1559 1.390 . S
C1557 H1561 0.950 . S
H1558 C1554 0.950 . S
C1559 C1557 1.390 . S
C1559 C1560 1.387 . S
C1559 H1562 0.950 . S
C1560 C1559 1.387 . S
C1560 C1563 1.387 . S
H1561 C1557 0.950 . S
H1562 C1559 0.950 . S
C1563 C1554 1.390 . S
C1563 H1556 0.950 . S
C1563 C1560 1.387 . S
C1564 C1565 1.387 . S
C1564 H1568 0.950 . S
C1564 C1573 1.390 . S
C1565 C1564 1.387 . S
C1565 C1567 1.387 . S
H1566 C1573 0.950 . S
C1567 C1565 1.387 . S
C1567 C1569 1.390 . S
C1567 H1571 0.950 . S
H1568 C1564 0.950 . S
C1569 C1567 1.390 . S
C1569 C1570 1.387 . S
C1569 H1572 0.950 . S
C1570 C1569 1.387 . S
C1570 C1573 1.387 . S
H1571 C1567 0.950 . S
H1572 C1569 0.950 . S
C1573 C1564 1.390 . S
C1573 H1566 0.950 . S
C1573 C1570 1.387 . S
C1574 C1575 1.387 . S
C1574 H1578 0.950 . S
C1574 C1583 1.390 . S
C1575 C1574 1.387 . S
C1575 C1577 1.387 . S
H1576 C1583 0.950 . S
C1577 C1575 1.387 . S
C1577 C1579 1.390 . S
C1577 H1581 0.950 . S
H1578 C1574 0.950 . S
C1579 C1577 1.390 . S
C1579 C1580 1.387 . S
C1579 H1582 0.950 . S
C1580 C1579 1.387 . S
C1580 C1583 1.387 . S
H1581 C1577 0.950 . S
H1582 C1579 0.950 . S
C1583 C1574 1.390 . S
C1583 H1576 0.950 . S
C1583 C1580 1.387 . S
C1584 C1585 1.387 . S
C1584 H1588 0.950 . S
C1584 C1593 1.390 . S
C1585 C1584 1.387 . S
C1585 C1587 1.387 . S
H1586 C1593 0.950 . S
C1587 C1585 1.387 . S
C1587 C1589 1.390 . S
C1587 H1591 0.950 . S
H1588 C1584 0.950 . S
C1589 C1587 1.390 . S
C1589 C1590 1.387 . S
C1589 H1592 0.950 . S
C1590 C1589 1.387 . S
C1590 C1593 1.387 . S
H1591 C1587 0.950 . S
H1592 C1589 0.950 . S
C1593 C1584 1.390 . S
C1593 H1586 0.950 . S
C1593 C1590 1.387 . S
C1594 C1595 1.387 . S
C1594 H1598 0.950 . S
C1594 C1603 1.390 . S
C1595 C1594 1.387 . S
C1595 C1597 1.387 . S
H1596 C1603 0.950 . S
C1597 C1595 1.387 . S
C1597 C1599 1.390 . S
C1597 H1601 0.950 . S
H1598 C1594 0.950 . S
C1599 C1597 1.390 . S
C1599 C1600 1.387 . S
C1599 H1602 0.950 . S
C1600 C1599 1.387 . S
C1600 C1603 1.387 . S
H1601 C1597 0.950 . S
H1602 C1599 0.950 . S
C1603 C1594 1.390 . S
C1603 H1596 0.950 . S
C1603 C1600 1.387 . S
C1604 C1605 1.387 . S
C1604 H1608 0.950 . S
C1604 C1613 1.390 . S
C1605 C1604 1.387 . S
C1605 C1607 1.387 . S
H1606 C1613 0.950 . S
C1607 C1605 1.387 . S
C1607 C1609 1.390 . S
C1607 H1611 0.950 . S
H1608 C1604 0.950 . S
C1609 C1607 1.390 . S
C1609 C1610 1.387 . S
C1609 H1612 0.950 . S
C1610 C1609 1.387 . S
C1610 C1613 1.387 . S
H1611 C1607 0.950 . S
H1612 C1609 0.950 . S
C1613 C1604 1.390 . S
C1613 H1606 0.950 . S
C1613 C1610 1.387 . S
C1614 C1615 1.387 . S
C1614 H1618 0.950 . S
C1614 C1623 1.390 . S
C1615 C1614 1.387 . S
C1615 C1617 1.387 . S
H1616 C1623 0.950 . S
C1617 C1615 1.387 . S
C1617 C1619 1.390 . S
C1617 H1621 0.950 . S
H1618 C1614 0.950 . S
C1619 C1617 1.390 . S
C1619 C1620 1.387 . S
C1619 H1622 0.950 . S
C1620 C1619 1.387 . S
C1620 C1623 1.387 . S
H1621 C1617 0.950 . S
H1622 C1619 0.950 . S
C1623 C1614 1.390 . S
C1623 H1616 0.950 . S
C1623 C1620 1.387 . S
C1624 C1625 1.387 . S
C1624 H1628 0.950 . S
C1624 C1633 1.390 . S
C1625 C1624 1.387 . S
C1625 C1627 1.387 . S
H1626 C1633 0.950 . S
C1627 C1625 1.387 . S
C1627 C1629 1.390 . S
C1627 H1631 0.950 . S
H1628 C1624 0.950 . S
C1629 C1627 1.390 . S
C1629 C1630 1.387 . S
C1629 H1632 0.950 . S
C1630 C1629 1.387 . S
C1630 C1633 1.387 . S
H1631 C1627 0.950 . S
H1632 C1629 0.950 . S
C1633 C1624 1.390 . S
C1633 H1626 0.950 . S
C1633 C1630 1.387 . S
C1634 C1635 1.387 . S
C1634 H1638 0.950 . S
C1634 C1643 1.390 . S
C1635 C1634 1.387 . S
C1635 C1637 1.387 . S
H1636 C1643 0.950 . S
C1637 C1635 1.387 . S
C1637 C1639 1.390 . S
C1637 H1641 0.950 . S
H1638 C1634 0.950 . S
C1639 C1637 1.390 . S
C1639 C1640 1.387 . S
C1639 H1642 0.950 . S
C1640 C1639 1.387 . S
C1640 C1643 1.387 . S
H1641 C1637 0.950 . S
H1642 C1639 0.950 . S
C1643 C1634 1.390 . S
C1643 H1636 0.950 . S
C1643 C1640 1.387 . S
C1644 C1645 1.387 . S
C1644 H1648 0.950 . S
C1644 C1653 1.390 . S
C1645 C1644 1.387 . S
C1645 C1647 1.387 . S
H1646 C1653 0.950 . S
C1647 C1645 1.387 . S
C1647 C1649 1.390 . S
C1647 H1651 0.950 . S
H1648 C1644 0.950 . S
C1649 C1647 1.390 . S
C1649 C1650 1.387 . S
C1649 H1652 0.950 . S
C1650 C1649 1.387 . S
C1650 C1653 1.387 . S
H1651 C1647 0.950 . S
H1652 C1649 0.950 . S
C1653 C1644 1.390 . S
C1653 H1646 0.950 . S
C1653 C1650 1.387 . S
C1654 C1655 1.387 . S
C1654 H1658 0.950 . S
C1654 C1663 1.390 . S
C1655 C1654 1.387 . S
C1655 C1657 1.387 . S
H1656 C1663 0.950 . S
C1657 C1655 1.387 . S
C1657 C1659 1.390 . S
C1657 H1661 0.950 . S
H1658 C1654 0.950 . S
C1659 C1657 1.390 . S
C1659 C1660 1.387 . S
C1659 H1662 0.950 . S
C1660 C1659 1.387 . S
C1660 C1663 1.387 . S
H1661 C1657 0.950 . S
H1662 C1659 0.950 . S
C1663 C1654 1.390 . S
C1663 H1656 0.950 . S
C1663 C1660 1.387 . S
C1664 C1665 1.387 . S
C1664 H1668 0.950 . S
C1664 C1673 1.390 . S
C1665 C1664 1.387 . S
C1665 C1667 1.387 . S
H1666 C1673 0.950 . S
C1667 C1665 1.387 . S
C1667 C1669 1.390 . S
C1667 H1671 0.950 . S
H1668 C1664 0.950 . S
C1669 C1667 1.390 . S
C1669 C1670 1.387 . S
C1669 H1672 0.950 . S
C1670 C1669 1.387 . S
C1670 C1673 1.387 . S
H1671 C1667 0.950 . S
H1672 C1669 0.950 . S
C1673 C1664 1.390 . S
C1673 H1666 0.950 . S
C1673 C1670 1.387 . S
C1674 C1675 1.387 . S
C1674 H1678 0.950 . S
C1674 C1683 1.390 . S
C1675 C1674 1.387 . S
C1675 C1677 1.387 . S
H1676 C1683 0.950 . S
C1677 C1675 1.387 . S
C1677 C1679 1.390 . S
C1677 H1681 0.950 . S
H1678 C1674 0.950 . S
C1679 C1677 1.390 . S
C1679 C1680 1.387 . S
C1679 H1682 0.950 . S
C1680 C1679 1.387 . S
C1680 C1683 1.387 . S
H1681 C1677 0.950 . S
H1682 C1679 0.950 . S
C1683 C1674 1.390 . S
C1683 H1676 0.950 . S
C1683 C1680 1.387 . S
C1684 C1685 1.387 . S
C1684 H1688 0.950 . S
C1684 C1693 1.390 . S
C1685 C1684 1.387 . S
C1685 C1687 1.387 . S
H1686 C1693 0.950 . S
C1687 C1685 1.387 . S
C1687 C1689 1.390 . S
C1687 H1691 0.950 . S
H1688 C1684 0.950 . S
C1689 C1687 1.390 . S
C1689 C1690 1.387 . S
C1689 H1692 0.950 . S
C1690 C1689 1.387 . S
C1690 C1693 1.387 . S
H1691 C1687 0.950 . S
H1692 C1689 0.950 . S
C1693 C1684 1.390 . S
C1693 H1686 0.950 . S
C1693 C1690 1.387 . S
C1694 C1695 1.387 . S
C1694 H1698 0.950 . S
C1694 C1703 1.390 . S
C1695 C1694 1.387 . S
C1695 C1697 1.387 . S
H1696 C1703 0.950 . S
C1697 C1695 1.387 . S
C1697 C1699 1.390 . S
C1697 H1701 0.950 . S
H1698 C1694 0.950 . S
C1699 C1697 1.390 . S
C1699 C1700 1.387 . S
C1699 H1702 0.950 . S
C1700 C1699 1.387 . S
C1700 C1703 1.387 . S
H1701 C1697 0.950 . S
H1702 C1699 0.950 . S
C1703 C1694 1.390 . S
C1703 H1696 0.950 . S
C1703 C1700 1.387 . S
C1704 C1705 1.387 . S
C1704 H1708 0.950 . S
C1704 C1713 1.390 . S
C1705 C1704 1.387 . S
C1705 C1707 1.387 . S
H1706 C1713 0.950 . S
C1707 C1705 1.387 . S
C1707 C1709 1.390 . S
C1707 H1711 0.950 . S
H1708 C1704 0.950 . S
C1709 C1707 1.390 . S
C1709 C1710 1.387 . S
C1709 H1712 0.950 . S
C1710 C1709 1.387 . S
C1710 C1713 1.387 . S
H1711 C1707 0.950 . S
H1712 C1709 0.950 . S
C1713 C1704 1.390 . S
C1713 H1706 0.950 . S
C1713 C1710 1.387 . S
C1714 C1715 1.387 . S
C1714 H1718 0.950 . S
C1714 C1723 1.390 . S
C1715 C1714 1.387 . S
C1715 C1717 1.387 . S
H1716 C1723 0.950 . S
C1717 C1715 1.387 . S
C1717 C1719 1.390 . S
C1717 H1721 0.950 . S
H1718 C1714 0.950 . S
C1719 C1717 1.390 . S
C1719 C1720 1.387 . S
C1719 H1722 0.950 . S
C1720 C1719 1.387 . S
C1720 C1723 1.387 . S
H1721 C1717 0.950 . S
H1722 C1719 0.950 . S
C1723 C1714 1.390 . S
C1723 H1716 0.950 . S
C1723 C1720 1.387 . S
C1724 C1725 1.387 . S
C1724 H1728 0.950 . S
C1724 C1733 1.390 . S
C1725 C1724 1.387 . S
C1725 C1727 1.387 . S
H1726 C1733 0.950 . S
C1727 C1725 1.387 . S
C1727 C1729 1.390 . S
C1727 H1731 0.950 . S
H1728 C1724 0.950 . S
C1729 C1727 1.390 . S
C1729 C1730 1.387 . S
C1729 H1732 0.950 . S
C1730 C1729 1.387 . S
C1730 C1733 1.387 . S
H1731 C1727 0.950 . S
H1732 C1729 0.950 . S
C1733 C1724 1.390 . S
C1733 H1726 0.950 . S
C1733 C1730 1.387 . S
C1734 C1735 1.387 . S
C1734 H1738 0.950 . S
C1734 C1743 1.390 . S
C1735 C1734 1.387 . S
C1735 C1737 1.387 . S
H1736 C1743 0.950 . S
C1737 C1735 1.387 . S
C1737 C1739 1.390 . S
C1737 H1741 0.950 . S
H1738 C1734 0.950 . S
C1739 C1737 1.390 . S
C1739 C1740 1.387 . S
C1739 H1742 0.950 . S
C1740 C1739 1.387 . S
C1740 C1743 1.387 . S
H1741 C1737 0.950 . S
H1742 C1739 0.950 . S
C1743 C1734 1.390 . S
C1743 H1736 0.950 . S
C1743 C1740 1.387 . S
C1744 C1745 1.387 . S
C1744 H1748 0.950 . S
C1744 C1753 1.390 . S
C1745 C1744 1.387 . S
C1745 C1747 1.387 . S
H1746 C1753 0.950 . S
C1747 C1745 1.387 . S
C1747 C1749 1.390 . S
C1747 H1751 0.950 . S
H1748 C1744 0.950 . S
C1749 C1747 1.390 . S
C1749 C1750 1.387 . S
C1749 H1752 0.950 . S
C1750 C1749 1.387 . S
C1750 C1753 1.387 . S
H1751 C1747 0.950 . S
H1752 C1749 0.950 . S
C1753 C1744 1.390 . S
C1753 H1746 0.950 . S
C1753 C1750 1.387 . S
C1754 C1755 1.387 . S
C1754 H1758 0.950 . S
C1754 C1763 1.390 . S
C1755 C1754 1.387 . S
C1755 C1757 1.387 . S
H1756 C1763 0.950 . S
C1757 C1755 1.387 . S
C1757 C1759 1.390 . S
C1757 H1761 0.950 . S
H1758 C1754 0.950 . S
C1759 C1757 1.390 . S
C1759 C1760 1.387 . S
C1759 H1762 0.950 . S
C1760 C1759 1.387 . S
C1760 C1763 1.387 . S
H1761 C1757 0.950 . S
H1762 C1759 0.950 . S
C1763 C1754 1.390 . S
C1763 H1756 0.950 . S
C1763 C1760 1.387 . S
C1764 C1765 1.387 . S
C1764 H1768 0.950 . S
C1764 C1773 1.390 . S
C1765 C1764 1.387 . S
C1765 C1767 1.387 . S
H1766 C1773 0.950 . S
C1767 C1765 1.387 . S
C1767 C1769 1.390 . S
C1767 H1771 0.950 . S
H1768 C1764 0.950 . S
C1769 C1767 1.390 . S
C1769 C1770 1.387 . S
C1769 H1772 0.950 . S
C1770 C1769 1.387 . S
C1770 C1773 1.387 . S
H1771 C1767 0.950 . S
H1772 C1769 0.950 . S
C1773 C1764 1.390 . S
C1773 H1766 0.950 . S
C1773 C1770 1.387 . S
C1774 C1775 1.387 . S
C1774 H1778 0.950 . S
C1774 C1783 1.390 . S
C1775 C1774 1.387 . S
C1775 C1777 1.387 . S
H1776 C1783 0.950 . S
C1777 C1775 1.387 . S
C1777 C1779 1.390 . S
C1777 H1781 0.950 . S
H1778 C1774 0.950 . S
C1779 C1777 1.390 . S
C1779 C1780 1.387 . S
C1779 H1782 0.950 . S
C1780 C1779 1.387 . S
C1780 C1783 1.387 . S
H1781 C1777 0.950 . S
H1782 C1779 0.950 . S
C1783 C1774 1.390 . S
C1783 H1776 0.950 . S
C1783 C1780 1.387 . S
C1784 C1785 1.387 . S
C1784 H1788 0.950 . S
C1784 C1793 1.390 . S
C1785 C1784 1.387 . S
C1785 C1787 1.387 . S
H1786 C1793 0.950 . S
C1787 C1785 1.387 . S
C1787 C1789 1.390 . S
C1787 H1791 0.950 . S
H1788 C1784 0.950 . S
C1789 C1787 1.390 . S
C1789 C1790 1.387 . S
C1789 H1792 0.950 . S
C1790 C1789 1.387 . S
C1790 C1793 1.387 . S
H1791 C1787 0.950 . S
H1792 C1789 0.950 . S
C1793 C1784 1.390 . S
C1793 H1786 0.950 . S
C1793 C1790 1.387 . S
C1794 C1795 1.387 . S
C1794 H1798 0.950 . S
C1794 C1803 1.390 . S
C1795 C1794 1.387 . S
C1795 C1797 1.387 . S
H1796 C1803 0.950 . S
C1797 C1795 1.387 . S
C1797 C1799 1.390 . S
C1797 H1801 0.950 . S
H1798 C1794 0.950 . S
C1799 C1797 1.390 . S
C1799 C1800 1.387 . S
C1799 H1802 0.950 . S
C1800 C1799 1.387 . S
C1800 C1803 1.387 . S
H1801 C1797 0.950 . S
H1802 C1799 0.950 . S
C1803 C1794 1.390 . S
C1803 H1796 0.950 . S
C1803 C1800 1.387 . S
C1804 C1805 1.387 . S
C1804 H1808 0.950 . S
C1804 C1813 1.390 . S
C1805 C1804 1.387 . S
C1805 C1807 1.387 . S
H1806 C1813 0.950 . S
C1807 C1805 1.387 . S
C1807 C1809 1.390 . S
C1807 H1811 0.950 . S
H1808 C1804 0.950 . S
C1809 C1807 1.390 . S
C1809 C1810 1.387 . S
C1809 H1812 0.950 . S
C1810 C1809 1.387 . S
C1810 C1813 1.387 . S
H1811 C1807 0.950 . S
H1812 C1809 0.950 . S
C1813 C1804 1.390 . S
C1813 H1806 0.950 . S
C1813 C1810 1.387 . S
C1814 C1815 1.387 . S
C1814 H1818 0.950 . S
C1814 C1823 1.390 . S
C1815 C1814 1.387 . S
C1815 C1817 1.387 . S
H1816 C1823 0.950 . S
C1817 C1815 1.387 . S
C1817 C1819 1.390 . S
C1817 H1821 0.950 . S
H1818 C1814 0.950 . S
C1819 C1817 1.390 . S
C1819 C1820 1.387 . S
C1819 H1822 0.950 . S
C1820 C1819 1.387 . S
C1820 C1823 1.387 . S
H1821 C1817 0.950 . S
H1822 C1819 0.950 . S
C1823 C1814 1.390 . S
C1823 H1816 0.950 . S
C1823 C1820 1.387 . S
C1824 C1825 1.387 . S
C1824 H1828 0.950 . S
C1824 C1833 1.390 . S
C1825 C1824 1.387 . S
C1825 C1827 1.387 . S
H1826 C1833 0.950 . S
C1827 C1825 1.387 . S
C1827 C1829 1.390 . S
C1827 H1831 0.950 . S
H1828 C1824 0.950 . S
C1829 C1827 1.390 . S
C1829 C1830 1.387 . S
C1829 H1832 0.950 . S
C1830 C1829 1.387 . S
C1830 C1833 1.387 . S
H1831 C1827 0.950 . S
H1832 C1829 0.950 . S
C1833 C1824 1.390 . S
C1833 H1826 0.950 . S
C1833 C1830 1.387 . S
C1834 C1835 1.387 . S
C1834 H1838 0.950 . S
C1834 C1843 1.390 . S
C1835 C1834 1.387 . S
C1835 C1837 1.387 . S
H1836 C1843 0.950 . S
C1837 C1835 1.387 . S
C1837 C1839 1.390 . S
C1837 H1841 0.950 . S
H1838 C1834 0.950 . S
C1839 C1837 1.390 . S
C1839 C1840 1.387 . S
C1839 H1842 0.950 . S
C1840 C1839 1.387 . S
C1840 C1843 1.387 . S
H1841 C1837 0.950 . S
H1842 C1839 0.950 . S
C1843 C1834 1.390 . S
C1843 H1836 0.950 . S
C1843 C1840 1.387 . S
C1844 C1845 1.387 . S
C1844 H1848 0.950 . S
C1844 C1853 1.390 . S
C1845 C1844 1.387 . S
C1845 C1847 1.387 . S
H1846 C1853 0.950 . S
C1847 C1845 1.387 . S
C1847 C1849 1.390 . S
C1847 H1851 0.950 . S
H1848 C1844 0.950 . S
C1849 C1847 1.390 . S
C1849 C1850 1.387 . S
C1849 H1852 0.950 . S
C1850 C1849 1.387 . S
C1850 C1853 1.387 . S
H1851 C1847 0.950 . S
H1852 C1849 0.950 . S
C1853 C1844 1.390 . S
C1853 H1846 0.950 . S
C1853 C1850 1.387 . S
C1854 C1855 1.387 . S
C1854 H1858 0.950 . S
C1854 C1863 1.390 . S
C1855 C1854 1.387 . S
C1855 C1857 1.387 . S
H1856 C1863 0.950 . S
C1857 C1855 1.387 . S
C1857 C1859 1.390 . S
C1857 H1861 0.950 . S
H1858 C1854 0.950 . S
C1859 C1857 1.390 . S
C1859 C1860 1.387 . S
C1859 H1862 0.950 . S
C1860 C1859 1.387 . S
C1860 C1863 1.387 . S
H1861 C1857 0.950 . S
H1862 C1859 0.950 . S
C1863 C1854 1.390 . S
C1863 H1856 0.950 . S
C1863 C1860 1.387 . S
C1864 C1865 1.387 . S
C1864 H1868 0.950 . S
C1864 C1873 1.390 . S
C1865 C1864 1.387 . S
C1865 C1867 1.387 . S
H1866 C1873 0.950 . S
C1867 C1865 1.387 . S
C1867 C1869 1.390 . S
C1867 H1871 0.950 . S
H1868 C1864 0.950 . S
C1869 C1867 1.390 . S
C1869 C1870 1.387 . S
C1869 H1872 0.950 . S
C1870 C1869 1.387 . S
C1870 C1873 1.387 . S
H1871 C1867 0.950 . S
H1872 C1869 0.950 . S
C1873 C1864 1.390 . S
C1873 H1866 0.950 . S
C1873 C1870 1.387 . S
C1874 C1875 1.387 . S
C1874 H1878 0.950 . S
C1874 C1883 1.390 . S
C1875 C1874 1.387 . S
C1875 C1877 1.387 . S
H1876 C1883 0.950 . S
C1877 C1875 1.387 . S
C1877 C1879 1.390 . S
C1877 H1881 0.950 . S
H1878 C1874 0.950 . S
C1879 C1877 1.390 . S
C1879 C1880 1.387 . S
C1879 H1882 0.950 . S
C1880 C1879 1.387 . S
C1880 C1883 1.387 . S
H1881 C1877 0.950 . S
H1882 C1879 0.950 . S
C1883 C1874 1.390 . S
C1883 H1876 0.950 . S
C1883 C1880 1.387 . S
C1884 C1885 1.387 . S
C1884 H1888 0.950 . S
C1884 C1893 1.390 . S
C1885 C1884 1.387 . S
C1885 C1887 1.387 . S
H1886 C1893 0.950 . S
C1887 C1885 1.387 . S
C1887 C1889 1.390 . S
C1887 H1891 0.950 . S
H1888 C1884 0.950 . S
C1889 C1887 1.390 . S
C1889 C1890 1.387 . S
C1889 H1892 0.950 . S
C1890 C1889 1.387 . S
C1890 C1893 1.387 . S
H1891 C1887 0.950 . S
H1892 C1889 0.950 . S
C1893 C1884 1.390 . S
C1893 H1886 0.950 . S
C1893 C1890 1.387 . S
C1894 C1895 1.387 . S
C1894 H1898 0.950 . S
C1894 C1903 1.390 . S
C1895 C1894 1.387 . S
C1895 C1897 1.387 . S
H1896 C1903 0.950 . S
C1897 C1895 1.387 . S
C1897 C1899 1.390 . S
C1897 H1901 0.950 . S
H1898 C1894 0.950 . S
C1899 C1897 1.390 . S
C1899 C1900 1.387 . S
C1899 H1902 0.950 . S
C1900 C1899 1.387 . S
C1900 C1903 1.387 . S
H1901 C1897 0.950 . S
H1902 C1899 0.950 . S
C1903 C1894 1.390 . S
C1903 H1896 0.950 . S
C1903 C1900 1.387 . S
C1904 C1905 1.387 . S
C1904 H1908 0.950 . S
C1904 C1913 1.390 . S
C1905 C1904 1.387 . S
C1905 C1907 1.387 . S
H1906 C1913 0.950 . S
C1907 C1905 1.387 . S
C1907 C1909 1.390 . S
C1907 H1911 0.950 . S
H1908 C1904 0.950 . S
C1909 C1907 1.390 . S
C1909 C1910 1.387 . S
C1909 H1912 0.950 . S
C1910 C1909 1.387 . S
C1910 C1913 1.387 . S
H1911 C1907 0.950 . S
H1912 C1909 0.950 . S
C1913 C1904 1.390 . S
C1913 H1906 0.950 . S
C1913 C1910 1.387 . S
C1914 C1915 1.387 . S
C1914 H1918 0.950 . S
C1914 C1923 1.390 . S
C1915 C1914 1.387 . S
C1915 C1917 1.387 . S
H1916 C1923 0.950 . S
C1917 C1915 1.387 . S
C1917 C1919 1.390 . S
C1917 H1921 0.950 . S
H1918 C1914 0.950 . S
C1919 C1917 1.390 . S
C1919 C1920 1.387 . S
C1919 H1922 0.950 . S
C1920 C1919 1.387 . S
C1920 C1923 1.387 . S
H1921 C1917 0.950 . S
H1922 C1919 0.950 . S
C1923 C1914 1.390 . S
C1923 H1916 0.950 . S
C1923 C1920 1.387 . S
C1924 C1925 1.387 . S
C1924 H1928 0.950 . S
C1924 C1933 1.390 . S
C1925 C1924 1.387 . S
C1925 C1927 1.387 . S
H1926 C1933 0.950 . S
C1927 C1925 1.387 . S
C1927 C1929 1.390 . S
C1927 H1931 0.950 . S
H1928 C1924 0.950 . S
C1929 C1927 1.390 . S
C1929 C1930 1.387 . S
C1929 H1932 0.950 . S
C1930 C1929 1.387 . S
C1930 C1933 1.387 . S
H1931 C1927 0.950 . S
H1932 C1929 0.950 . S
C1933 C1924 1.390 . S
C1933 H1926 0.950 . S
C1933 C1930 1.387 . S
C1934 C1935 1.387 . S
C1934 H1938 0.950 . S
C1934 C1943 1.390 . S
C1935 C1934 1.387 . S
C1935 C1937 1.387 . S
H1936 C1943 0.950 . S
C1937 C1935 1.387 . S
C1937 C1939 1.390 . S
C1937 H1941 0.950 . S
H1938 C1934 0.950 . S
C1939 C1937 1.390 . S
C1939 C1940 1.387 . S
C1939 H1942 0.950 . S
C1940 C1939 1.387 . S
C1940 C1943 1.387 . S
H1941 C1937 0.950 . S
H1942 C1939 0.950 . S
C1943 C1934 1.390 . S
C1943 H1936 0.950 . S
C1943 C1940 1.387 . S
C1944 C1945 1.387 . S
C1944 H1948 0.950 . S
C1944 C1953 1.390 . S
C1945 C1944 1.387 . S
C1945 C1947 1.387 . S
H1946 C1953 0.950 . S
C1947 C1945 1.387 . S
C1947 C1949 1.390 . S
C1947 H1951 0.950 . S
H1948 C1944 0.950 . S
C1949 C1947 1.390 . S
C1949 C1950 1.387 . S
C1949 H1952 0.950 . S
C1950 C1949 1.387 . S
C1950 C1953 1.387 . S
H1951 C1947 0.950 . S
H1952 C1949 0.950 . S
C1953 C1944 1.390 . S
C1953 H1946 0.950 . S
C1953 C1950 1.387 . S
C1954 C1955 1.387 . S
C1954 H1958 0.950 . S
C1954 C1963 1.390 . S
C1955 C1954 1.387 . S
C1955 C1957 1.387 . S
H1956 C1963 0.950 . S
C1957 C1955 1.387 . S
C1957 C1959 1.390 . S
C1957 H1961 0.950 . S
H1958 C1954 0.950 . S
C1959 C1957 1.390 . S
C1959 C1960 1.387 . S
C1959 H1962 0.950 . S
C1960 C1959 1.387 . S
C1960 C1963 1.387 . S
H1961 C1957 0.950 . S
H1962 C1959 0.950 . S
C1963 C1954 1.390 . S
C1963 H1956 0.950 . S
C1963 C1960 1.387 . S
C1964 C1965 1.387 . S
C1964 H1968 0.950 . S
C1964 C1973 1.390 . S
C1965 C1964 1.387 . S
C1965 C1967 1.387 . S
H1966 C1973 0.950 . S
C1967 C1965 1.387 . S
C1967 C1969 1.390 . S
C1967 H1971 0.950 . S
H1968 C1964 0.950 . S
C1969 C1967 1.390 . S
C1969 C1970 1.387 . S
C1969 H1972 0.950 . S
C1970 C1969 1.387 . S
C1970 C1973 1.387 . S
H1971 C1967 0.950 . S
H1972 C1969 0.950 . S
C1973 C1964 1.390 . S
C1973 H1966 0.950 . S
C1973 C1970 1.387 . S
C1974 C1975 1.387 . S
C1974 H1978 0.950 . S
C1974 C1983 1.390 . S
C1975 C1974 1.387 . S
C1975 C1977 1.387 . S
H1976 C1983 0.950 . S
C1977 C1975 1.387 . S
C1977 C1979 1.390 . S
C1977 H1981 0.950 . S
H1978 C1974 0.950 . S
C1979 C1977 1.390 . S
C1979 C1980 1.387 . S
C1979 H1982 0.950 . S
C1980 C1979 1.387 . S
C1980 C1983 1.387 . S
H1981 C1977 0.950 . S
H1982 C1979 0.950 . S
C1983 C1974 1.390 . S
C1983 H1976 0.950 . S
C1983 C1980 1.387 . S
C1984 C1985 1.387 . S
C1984 H1988 0.950 . S
C1984 C1993 1.390 . S
C1985 C1984 1.387 . S
C1985 C1987 1.387 . S
H1986 C1993 0.950 . S
C1987 C1985 1.387 . S
C1987 C1989 1.390 . S
C1987 H1991 0.950 . S
H1988 C1984 0.950 . S
C1989 C1987 1.390 . S
C1989 C1990 1.387 . S
C1989 H1992 0.950 . S
C1990 C1989 1.387 . S
C1990 C1993 1.387 . S
H1991 C1987 0.950 . S
H1992 C1989 0.950 . S
C1993 C1984 1.390 . S
C1993 H1986 0.950 . S
C1993 C1990 1.387 . S
C1994 C1995 1.387 . S
C1994 H1998 0.950 . S
C1994 C2003 1.390 . S
C1995 C1994 1.387 . S
C1995 C1997 1.387 . S
H1996 C2003 0.950 . S
C1997 C1995 1.387 . S
C1997 C1999 1.390 . S
C1997 H2001 0.950 . S
H1998 C1994 0.950 . S
C1999 C1997 1.390 . S
C1999 C2000 1.387 . S
C1999 H2002 0.950 . S
C2000 C1999 1.387 . S
C2000 C2003 1.387 . S
H2001 C1997 0.950 . S
H2002 C1999 0.950 . S
C2003 C1994 1.390 . S
C2003 H1996 0.950 . S
C2003 C2000 1.387 . S
C2004 C2005 1.387 . S
C2004 H2008 0.950 . S
C2004 C2013 1.390 . S
C2005 C2004 1.387 . S
C2005 C2007 1.387 . S
H2006 C2013 0.950 . S
C2007 C2005 1.387 . S
C2007 C2009 1.390 . S
C2007 H2011 0.950 . S
H2008 C2004 0.950 . S
C2009 C2007 1.390 . S
C2009 C2010 1.387 . S
C2009 H2012 0.950 . S
C2010 C2009 1.387 . S
C2010 C2013 1.387 . S
H2011 C2007 0.950 . S
H2012 C2009 0.950 . S
C2013 C2004 1.390 . S
C2013 H2006 0.950 . S
C2013 C2010 1.387 . S
C2014 C2015 1.387 . S
C2014 H2018 0.950 . S
C2014 C2023 1.390 . S
C2015 C2014 1.387 . S
C2015 C2017 1.387 . S
H2016 C2023 0.950 . S
C2017 C2015 1.387 . S
C2017 C2019 1.390 . S
C2017 H2021 0.950 . S
H2018 C2014 0.950 . S
C2019 C2017 1.390 . S
C2019 C2020 1.387 . S
C2019 H2022 0.950 . S
C2020 C2019 1.387 . S
C2020 C2023 1.387 . S
H2021 C2017 0.950 . S
H2022 C2019 0.950 . S
C2023 C2014 1.390 . S
C2023 H2016 0.950 . S
C2023 C2020 1.387 . S
C2024 C2025 1.387 . S
C2024 H2028 0.950 . S
C2024 C2033 1.390 . S
C2025 C2024 1.387 . S
C2025 C2027 1.387 . S
H2026 C2033 0.950 . S
C2027 C2025 1.387 . S
C2027 C2029 1.390 . S
C2027 H2031 0.950 . S
H2028 C2024 0.950 . S
C2029 C2027 1.390 . S
C2029 C2030 1.387 . S
C2029 H2032 0.950 . S
C2030 C2029 1.387 . S
C2030 C2033 1.387 . S
H2031 C2027 0.950 . S
H2032 C2029 0.950 . S
C2033 C2024 1.390 . S
C2033 H2026 0.950 . S
C2033 C2030 1.387 . S
C2034 C2035 1.387 . S
C2034 H2038 0.950 . S
C2034 C2043 1.390 . S
C2035 C2034 1.387 . S
C2035 C2037 1.387 . S
H2036 C2043 0.950 . S
C2037 C2035 1.387 . S
C2037 C2039 1.390 . S
C2037 H2041 0.950 . S
H2038 C2034 0.950 . S
C2039 C2037 1.390 . S
C2039 C2040 1.387 . S
C2039 H2042 0.950 . S
C2040 C2039 1.387 . S
C2040 C2043 1.387 . S
H2041 C2037 0.950 . S
H2042 C2039 0.950 . S
C2043 C2034 1.390 . S
C2043 H2036 0.950 . S
C2043 C2040 1.387 . S
C2044 C2045 1.387 . S
C2044 H2048 0.950 . S
C2044 C2053 1.390 . S
C2045 C2044 1.387 . S
C2045 C2047 1.387 . S
H2046 C2053 0.950 . S
C2047 C2045 1.387 . S
C2047 C2049 1.390 . S
C2047 H2051 0.950 . S
H2048 C2044 0.950 . S
C2049 C2047 1.390 . S
C2049 C2050 1.387 . S
C2049 H2052 0.950 . S
C2050 C2049 1.387 . S
C2050 C2053 1.387 . S
H2051 C2047 0.950 . S
H2052 C2049 0.950 . S
C2053 C2044 1.390 . S
C2053 H2046 0.950 . S
C2053 C2050 1.387 . S
C2054 C2055 1.387 . S
C2054 H2058 0.950 . S
C2054 C2063 1.390 . S
C2055 C2054 1.387 . S
C2055 C2057 1.387 . S
H2056 C2063 0.950 . S
C2057 C2055 1.387 . S
C2057 C2059 1.390 . S
C2057 H2061 0.950 . S
H2058 C2054 0.950 . S
C2059 C2057 1.390 . S
C2059 C2060 1.387 . S
C2059 H2062 0.950 . S
C2060 C2059 1.387 . S
C2060 C2063 1.387 . S
H2061 C2057 0.950 . S
H2062 C2059 0.950 . S
C2063 C2054 1.390 . S
C2063 H2056 0.950 . S
C2063 C2060 1.387 . S
C2064 C2065 1.387 . S
C2064 H2068 0.950 . S
C2064 C2073 1.390 . S
C2065 C2064 1.387 . S
C2065 C2067 1.387 . S
H2066 C2073 0.950 . S
C2067 C2065 1.387 . S
C2067 C2069 1.390 . S
C2067 H2071 0.950 . S
H2068 C2064 0.950 . S
C2069 C2067 1.390 . S
C2069 C2070 1.387 . S
C2069 H2072 0.950 . S
C2070 C2069 1.387 . S
C2070 C2073 1.387 . S
H2071 C2067 0.950 . S
H2072 C2069 0.950 . S
C2073 C2064 1.390 . S
C2073 H2066 0.950 . S
C2073 C2070 1.387 . S
C2074 C2075 1.387 . S
C2074 H2078 0.950 . S
C2074 C2083 1.390 . S
C2075 C2074 1.387 . S
C2075 C2077 1.387 . S
H2076 C2083 0.950 . S
C2077 C2075 1.387 . S
C2077 C2079 1.390 . S
C2077 H2081 0.950 . S
H2078 C2074 0.950 . S
C2079 C2077 1.390 . S
C2079 C2080 1.387 . S
C2079 H2082 0.950 . S
C2080 C2079 1.387 . S
C2080 C2083 1.387 . S
H2081 C2077 0.950 . S
H2082 C2079 0.950 . S
C2083 C2074 1.390 . S
C2083 H2076 0.950 . S
C2083 C2080 1.387 . S
C2084 C2085 1.387 . S
C2084 H2088 0.950 . S
C2084 C2093 1.390 . S
C2085 C2084 1.387 . S
C2085 C2087 1.387 . S
H2086 C2093 0.950 . S
C2087 C2085 1.387 . S
C2087 C2089 1.390 . S
C2087 H2091 0.950 . S
H2088 C2084 0.950 . S
C2089 C2087 1.390 . S
C2089 C2090 1.387 . S
C2089 H2092 0.950 . S
C2090 C2089 1.387 . S
C2090 C2093 1.387 . S
H2091 C2087 0.950 . S
H2092 C2089 0.950 . S
C2093 C2084 1.390 . S
C2093 H2086 0.950 . S
C2093 C2090 1.387 . S
C2094 C2095 1.387 . S
C2094 H2098 0.950 . S
C2094 C2103 1.390 . S
C2095 C2094 1.387 . S
C2095 C2097 1.387 . S
H2096 C2103 0.950 . S
C2097 C2095 1.387 . S
C2097 C2099 1.390 . S
C2097 H2101 0.950 . S
H2098 C2094 0.950 . S
C2099 C2097 1.390 . S
C2099 C2100 1.387 . S
C2099 H2102 0.950 . S
C2100 C2099 1.387 . S
C2100 C2103 1.387 . S
H2101 C2097 0.950 . S
H2102 C2099 0.950 . S
C2103 C2094 1.390 . S
C2103 H2096 0.950 . S
C2103 C2100 1.387 . S
C2104 C2105 1.387 . S
C2104 H2108 0.950 . S
C2104 C2113 1.390 . S
C2105 C2104 1.387 . S
C2105 C2107 1.387 . S
H2106 C2113 0.950 . S
C2107 C2105 1.387 . S
C2107 C2109 1.390 . S
C2107 H2111 0.950 . S
H2108 C2104 0.950 . S
C2109 C2107 1.390 . S
C2109 C2110 1.387 . S
C2109 H2112 0.950 . S
C2110 C2109 1.387 . S
C2110 C2113 1.387 . S
H2111 C2107 0.950 . S
H2112 C2109 0.950 . S
C2113 C2104 1.390 . S
C2113 H2106 0.950 . S
C2113 C2110 1.387 . S
C2114 C2115 1.387 . S
C2114 H2118 0.950 . S
C2114 C2123 1.390 . S
C2115 C2114 1.387 . S
C2115 C2117 1.387 . S
H2116 C2123 0.950 . S
C2117 C2115 1.387 . S
C2117 C2119 1.390 . S
C2117 H2121 0.950 . S
H2118 C2114 0.950 . S
C2119 C2117 1.390 . S
C2119 C2120 1.387 . S
C2119 H2122 0.950 . S
C2120 C2119 1.387 . S
C2120 C2123 1.387 . S
H2121 C2117 0.950 . S
H2122 C2119 0.950 . S
C2123 C2114 1.390 . S
C2123 H2116 0.950 . S
C2123 C2120 1.387 . S
C2124 C2125 1.387 . S
C2124 H2128 0.950 . S
C2124 C2133 1.390 . S
C2125 C2124 1.387 . S
C2125 C2127 1.387 . S
H2126 C2133 0.950 . S
C2127 C2125 1.387 . S
C2127 C2129 1.390 . S
C2127 H2131 0.950 . S
H2128 C2124 0.950 . S
C2129 C2127 1.390 . S
C2129 C2130 1.387 . S
C2129 H2132 0.950 . S
C2130 C2129 1.387 . S
C2130 C2133 1.387 . S
H2131 C2127 0.950 . S
H2132 C2129 0.950 . S
C2133 C2124 1.390 . S
C2133 H2126 0.950 . S
C2133 C2130 1.387 . S
C2134 C2135 1.387 . S
C2134 H2138 0.950 . S
C2134 C2143 1.390 . S
C2135 C2134 1.387 . S
C2135 C2137 1.387 . S
H2136 C2143 0.950 . S
C2137 C2135 1.387 . S
C2137 C2139 1.390 . S
C2137 H2141 0.950 . S
H2138 C2134 0.950 . S
C2139 C2137 1.390 . S
C2139 C2140 1.387 . S
C2139 H2142 0.950 . S
C2140 C2139 1.387 . S
C2140 C2143 1.387 . S
H2141 C2137 0.950 . S
H2142 C2139 0.950 . S
C2143 C2134 1.390 . S
C2143 H2136 0.950 . S
C2143 C2140 1.387 . S
C2144 C2145 1.387 . S
C2144 H2148 0.950 . S
C2144 C2153 1.390 . S
C2145 C2144 1.387 . S
C2145 C2147 1.387 . S
H2146 C2153 0.950 . S
C2147 C2145 1.387 . S
C2147 C2149 1.390 . S
C2147 H2151 0.950 . S
H2148 C2144 0.950 . S
C2149 C2147 1.390 . S
C2149 C2150 1.387 . S
C2149 H2152 0.950 . S
C2150 C2149 1.387 . S
C2150 C2153 1.387 . S
H2151 C2147 0.950 . S
H2152 C2149 0.950 . S
C2153 C2144 1.390 . S
C2153 H2146 0.950 . S
C2153 C2150 1.387 . S
C2154 C2155 1.387 . S
C2154 H2158 0.950 . S
C2154 C2163 1.390 . S
C2155 C2154 1.387 . S
C2155 C2157 1.387 . S
H2156 C2163 0.950 . S
C2157 C2155 1.387 . S
C2157 C2159 1.390 . S
C2157 H2161 0.950 . S
H2158 C2154 0.950 . S
C2159 C2157 1.390 . S
C2159 C2160 1.387 . S
C2159 H2162 0.950 . S
C2160 C2159 1.387 . S
C2160 C2163 1.387 . S
H2161 C2157 0.950 . S
H2162 C2159 0.950 . S
C2163 C2154 1.390 . S
C2163 H2156 0.950 . S
C2163 C2160 1.387 . S
C2164 C2165 1.387 . S
C2164 H2168 0.950 . S
C2164 C2173 1.390 . S
C2165 C2164 1.387 . S
C2165 C2167 1.387 . S
H2166 C2173 0.950 . S
C2167 C2165 1.387 . S
C2167 C2169 1.390 . S
C2167 H2171 0.950 . S
H2168 C2164 0.950 . S
C2169 C2167 1.390 . S
C2169 C2170 1.387 . S
C2169 H2172 0.950 . S
C2170 C2169 1.387 . S
C2170 C2173 1.387 . S
H2171 C2167 0.950 . S
H2172 C2169 0.950 . S
C2173 C2164 1.390 . S
C2173 H2166 0.950 . S
C2173 C2170 1.387 . S
C2174 C2175 1.387 . S
C2174 H2178 0.950 . S
C2174 C2183 1.390 . S
C2175 C2174 1.387 . S
C2175 C2177 1.387 . S
H2176 C2183 0.950 . S
C2177 C2175 1.387 . S
C2177 C2179 1.390 . S
C2177 H2181 0.950 . S
H2178 C2174 0.950 . S
C2179 C2177 1.390 . S
C2179 C2180 1.387 . S
C2179 H2182 0.950 . S
C2180 C2179 1.387 . S
C2180 C2183 1.387 . S
H2181 C2177 0.950 . S
H2182 C2179 0.950 . S
C2183 C2174 1.390 . S
C2183 H2176 0.950 . S
C2183 C2180 1.387 . S
C2184 C2185 1.387 . S
C2184 H2188 0.950 . S
C2184 C2193 1.390 . S
C2185 C2184 1.387 . S
C2185 C2187 1.387 . S
H2186 C2193 0.950 . S
C2187 C2185 1.387 . S
C2187 C2189 1.390 . S
C2187 H2191 0.950 . S
H2188 C2184 0.950 . S
C2189 C2187 1.390 . S
C2189 C2190 1.387 . S
C2189 H2192 0.950 . S
C2190 C2189 1.387 . S
C2190 C2193 1.387 . S
H2191 C2187 0.950 . S
H2192 C2189 0.950 . S
C2193 C2184 1.390 . S
C2193 H2186 0.950 . S
C2193 C2190 1.387 . S
C2194 C2195 1.387 . S
C2194 H2198 0.950 . S
C2194 C2203 1.390 . S
C2195 C2194 1.387 . S
C2195 C2197 1.387 . S
H2196 C2203 0.950 . S
C2197 C2195 1.387 . S
C2197 C2199 1.390 . S
C2197 H2201 0.950 . S
H2198 C2194 0.950 . S
C2199 C2197 1.390 . S
C2199 C2200 1.387 . S
C2199 H2202 0.950 . S
C2200 C2199 1.387 . S
C2200 C2203 1.387 . S
H2201 C2197 0.950 . S
H2202 C2199 0.950 . S
C2203 C2194 1.390 . S
C2203 H2196 0.950 . S
C2203 C2200 1.387 . S
C2204 C2205 1.387 . S
C2204 H2208 0.950 . S
C2204 C2213 1.390 . S
C2205 C2204 1.387 . S
C2205 C2207 1.387 . S
H2206 C2213 0.950 . S
C2207 C2205 1.387 . S
C2207 C2209 1.390 . S
C2207 H2211 0.950 . S
H2208 C2204 0.950 . S
C2209 C2207 1.390 . S
C2209 C2210 1.387 . S
C2209 H2212 0.950 . S
C2210 C2209 1.387 . S
C2210 C2213 1.387 . S
H2211 C2207 0.950 . S
H2212 C2209 0.950 . S
C2213 C2204 1.390 . S
C2213 H2206 0.950 . S
C2213 C2210 1.387 . S
C2214 C2215 1.387 . S
C2214 H2218 0.950 . S
C2214 C2223 1.390 . S
C2215 C2214 1.387 . S
C2215 C2217 1.387 . S
H2216 C2223 0.950 . S
C2217 C2215 1.387 . S
C2217 C2219 1.390 . S
C2217 H2221 0.950 . S
H2218 C2214 0.950 . S
C2219 C2217 1.390 . S
C2219 C2220 1.387 . S
C2219 H2222 0.950 . S
C2220 C2219 1.387 . S
C2220 C2223 1.387 . S
H2221 C2217 0.950 . S
H2222 C2219 0.950 . S
C2223 C2214 1.390 . S
C2223 H2216 0.950 . S
C2223 C2220 1.387 . S
C2224 C2225 1.387 . S
C2224 H2228 0.950 . S
C2224 C2233 1.390 . S
C2225 C2224 1.387 . S
C2225 C2227 1.387 . S
H2226 C2233 0.950 . S
C2227 C2225 1.387 . S
C2227 C2229 1.390 . S
C2227 H2231 0.950 . S
H2228 C2224 0.950 . S
C2229 C2227 1.390 . S
C2229 C2230 1.387 . S
C2229 H2232 0.950 . S
C2230 C2229 1.387 . S
C2230 C2233 1.387 . S
H2231 C2227 0.950 . S
H2232 C2229 0.950 . S
C2233 C2224 1.390 . S
C2233 H2226 0.950 . S
C2233 C2230 1.387 . S
C2234 C2235 1.387 . S
C2234 H2238 0.950 . S
C2234 C2243 1.390 . S
C2235 C2234 1.387 . S
C2235 C2237 1.387 . S
H2236 C2243 0.950 . S
C2237 C2235 1.387 . S
C2237 C2239 1.390 . S
C2237 H2241 0.950 . S
H2238 C2234 0.950 . S
C2239 C2237 1.390 . S
C2239 C2240 1.387 . S
C2239 H2242 0.950 . S
C2240 C2239 1.387 . S
C2240 C2243 1.387 . S
H2241 C2237 0.950 . S
H2242 C2239 0.950 . S
C2243 C2234 1.390 . S
C2243 H2236 0.950 . S
C2243 C2240 1.387 . S
C2244 C2245 1.387 . S
C2244 H2248 0.950 . S
C2244 C2253 1.390 . S
C2245 C2244 1.387 . S
C2245 C2247 1.387 . S
H2246 C2253 0.950 . S
C2247 C2245 1.387 . S
C2247 C2249 1.390 . S
C2247 H2251 0.950 . S
H2248 C2244 0.950 . S
C2249 C2247 1.390 . S
C2249 C2250 1.387 . S
C2249 H2252 0.950 . S
C2250 C2249 1.387 . S
C2250 C2253 1.387 . S
H2251 C2247 0.950 . S
H2252 C2249 0.950 . S
C2253 C2244 1.390 . S
C2253 H2246 0.950 . S
C2253 C2250 1.387 . S
C2254 C2255 1.387 . S
C2254 H2258 0.950 . S
C2254 C2263 1.390 . S
C2255 C2254 1.387 . S
C2255 C2257 1.387 . S
H2256 C2263 0.950 . S
C2257 C2255 1.387 . S
C2257 C2259 1.390 . S
C2257 H2261 0.950 . S
H2258 C2254 0.950 . S
C2259 C2257 1.390 . S
C2259 C2260 1.387 . S
C2259 H2262 0.950 . S
C2260 C2259 1.387 . S
C2260 C2263 1.387 . S
H2261 C2257 0.950 . S
H2262 C2259 0.950 . S
C2263 C2254 1.390 . S
C2263 H2256 0.950 . S
C2263 C2260 1.387 . S
C2264 C2265 1.387 . S
C2264 H2268 0.950 . S
C2264 C2273 1.390 . S
C2265 C2264 1.387 . S
C2265 C2267 1.387 . S
H2266 C2273 0.950 . S
C2267 C2265 1.387 . S
C2267 C2269 1.390 . S
C2267 H2271 0.950 . S
H2268 C2264 0.950 . S
C2269 C2267 1.390 . S
C2269 C2270 1.387 . S
C2269 H2272 0.950 . S
C2270 C2269 1.387 . S
C2270 C2273 1.387 . S
H2271 C2267 0.950 . S
H2272 C2269 0.950 . S
C2273 C2264 1.390 . S
C2273 H2266 0.950 . S
C2273 C2270 1.387 . S
C2274 C2275 1.387 . S
C2274 H2278 0.950 . S
C2274 C2283 1.390 . S
C2275 C2274 1.387 . S
C2275 C2277 1.387 . S
H2276 C2283 0.950 . S
C2277 C2275 1.387 . S
C2277 C2279 1.390 . S
C2277 H2281 0.950 . S
H2278 C2274 0.950 . S
C2279 C2277 1.390 . S
C2279 C2280 1.387 . S
C2279 H2282 0.950 . S
C2280 C2279 1.387 . S
C2280 C2283 1.387 . S
H2281 C2277 0.950 . S
H2282 C2279 0.950 . S
C2283 C2274 1.390 . S
C2283 H2276 0.950 . S
C2283 C2280 1.387 . S
C2284 C2285 1.387 . S
C2284 H2288 0.950 . S
C2284 C2293 1.390 . S
C2285 C2284 1.387 . S
C2285 C2287 1.387 . S
H2286 C2293 0.950 . S
C2287 C2285 1.387 . S
C2287 C2289 1.390 . S
C2287 H2291 0.950 . S
H2288 C2284 0.950 . S
C2289 C2287 1.390 . S
C2289 C2290 1.387 . S
C2289 H2292 0.950 . S
C2290 C2289 1.387 . S
C2290 C2293 1.387 . S
H2291 C2287 0.950 . S
H2292 C2289 0.950 . S
C2293 C2284 1.390 . S
C2293 H2286 0.950 . S
C2293 C2290 1.387 . S
C2294 C2295 1.387 . S
C2294 H2298 0.950 . S
C2294 C2303 1.390 . S
C2295 C2294 1.387 . S
C2295 C2297 1.387 . S
H2296 C2303 0.950 . S
C2297 C2295 1.387 . S
C2297 C2299 1.390 . S
C2297 H2301 0.950 . S
H2298 C2294 0.950 . S
C2299 C2297 1.390 . S
C2299 C2300 1.387 . S
C2299 H2302 0.950 . S
C2300 C2299 1.387 . S
C2300 C2303 1.387 . S
H2301 C2297 0.950 . S
H2302 C2299 0.950 . S
C2303 C2294 1.390 . S
C2303 H2296 0.950 . S
C2303 C2300 1.387 . S
C2304 C2305 1.387 . S
C2304 H2308 0.950 . S
C2304 C2313 1.390 . S
C2305 C2304 1.387 . S
C2305 C2307 1.387 . S
H2306 C2313 0.950 . S
C2307 C2305 1.387 . S
C2307 C2309 1.390 . S
C2307 H2311 0.950 . S
H2308 C2304 0.950 . S
C2309 C2307 1.390 . S
C2309 C2310 1.387 . S
C2309 H2312 0.950 . S
C2310 C2309 1.387 . S
C2310 C2313 1.387 . S
H2311 C2307 0.950 . S
H2312 C2309 0.950 . S
C2313 C2304 1.390 . S
C2313 H2306 0.950 . S
C2313 C2310 1.387 . S
C2314 C2315 1.387 . S
C2314 H2318 0.950 . S
C2314 C2323 1.390 . S
C2315 C2314 1.387 . S
C2315 C2317 1.387 . S
H2316 C2323 0.950 . S
C2317 C2315 1.387 . S
C2317 C2319 1.390 . S
C2317 H2321 0.950 . S
H2318 C2314 0.950 . S
C2319 C2317 1.390 . S
C2319 C2320 1.387 . S
C2319 H2322 0.950 . S
C2320 C2319 1.387 . S
C2320 C2323 1.387 . S
H2321 C2317 0.950 . S
H2322 C2319 0.950 . S
C2323 C2314 1.390 . S
C2323 H2316 0.950 . S
C2323 C2320 1.387 . S
C2324 C2325 1.387 . S
C2324 H2328 0.950 . S
C2324 C2333 1.390 . S
C2325 C2324 1.387 . S
C2325 C2327 1.387 . S
H2326 C2333 0.950 . S
C2327 C2325 1.387 . S
C2327 C2329 1.390 . S
C2327 H2331 0.950 . S
H2328 C2324 0.950 . S
C2329 C2327 1.390 . S
C2329 C2330 1.387 . S
C2329 H2332 0.950 . S
C2330 C2329 1.387 . S
C2330 C2333 1.387 . S
H2331 C2327 0.950 . S
H2332 C2329 0.950 . S
C2333 C2324 1.390 . S
C2333 H2326 0.950 . S
C2333 C2330 1.387 . S
C2334 C2335 1.387 . S
C2334 H2338 0.950 . S
C2334 C2343 1.390 . S
C2335 C2334 1.387 . S
C2335 C2337 1.387 . S
H2336 C2343 0.950 . S
C2337 C2335 1.387 . S
C2337 C2339 1.390 . S
C2337 H2341 0.950 . S
H2338 C2334 0.950 . S
C2339 C2337 1.390 . S
C2339 C2340 1.387 . S
C2339 H2342 0.950 . S
C2340 C2339 1.387 . S
C2340 C2343 1.387 . S
H2341 C2337 0.950 . S
H2342 C2339 0.950 . S
C2343 C2334 1.390 . S
C2343 H2336 0.950 . S
C2343 C2340 1.387 . S
C2344 C2345 1.387 . S
C2344 H2348 0.950 . S
C2344 C2353 1.390 . S
C2345 C2344 1.387 . S
C2345 C2347 1.387 . S
H2346 C2353 0.950 . S
C2347 C2345 1.387 . S
C2347 C2349 1.390 . S
C2347 H2351 0.950 . S
H2348 C2344 0.950 . S
C2349 C2347 1.390 . S
C2349 C2350 1.387 . S
C2349 H2352 0.950 . S
C2350 C2349 1.387 . S
C2350 C2353 1.387 . S
H2351 C2347 0.950 . S
H2352 C2349 0.950 . S
C2353 C2344 1.390 . S
C2353 H2346 0.950 . S
C2353 C2350 1.387 . S
C2354 C2355 1.387 . S
C2354 H2358 0.950 . S
C2354 C2363 1.390 . S
C2355 C2354 1.387 . S
C2355 C2357 1.387 . S
H2356 C2363 0.950 . S
C2357 C2355 1.387 . S
C2357 C2359 1.390 . S
C2357 H2361 0.950 . S
H2358 C2354 0.950 . S
C2359 C2357 1.390 . S
C2359 C2360 1.387 . S
C2359 H2362 0.950 . S
C2360 C2359 1.387 . S
C2360 C2363 1.387 . S
H2361 C2357 0.950 . S
H2362 C2359 0.950 . S
C2363 C2354 1.390 . S
C2363 H2356 0.950 . S
C2363 C2360 1.387 . S
C2364 C2365 1.387 . S
C2364 H2368 0.950 . S
C2364 C2373 1.390 . S
C2365 C2364 1.387 . S
C2365 C2367 1.387 . S
H2366 C2373 0.950 . S
C2367 C2365 1.387 . S
C2367 C2369 1.390 . S
C2367 H2371 0.950 . S
H2368 C2364 0.950 . S
C2369 C2367 1.390 . S
C2369 C2370 1.387 . S
C2369 H2372 0.950 . S
C2370 C2369 1.387 . S
C2370 C2373 1.387 . S
H2371 C2367 0.950 . S
H2372 C2369 0.950 . S
C2373 C2364 1.390 . S
C2373 H2366 0.950 . S
C2373 C2370 1.387 . S
C2374 C2375 1.387 . S
C2374 H2378 0.950 . S
C2374 C2383 1.390 . S
C2375 C2374 1.387 . S
C2375 C2377 1.387 . S
H2376 C2383 0.950 . S
C2377 C2375 1.387 . S
C2377 C2379 1.390 . S
C2377 H2381 0.950 . S
H2378 C2374 0.950 . S
C2379 C2377 1.390 . S
C2379 C2380 1.387 . S
C2379 H2382 0.950 . S
C2380 C2379 1.387 . S
C2380 C2383 1.387 . S
H2381 C2377 0.950 . S
H2382 C2379 0.950 . S
C2383 C2374 1.390 . S
C2383 H2376 0.950 . S
C2383 C2380 1.387 . S
C2384 C2385 1.387 . S
C2384 H2388 0.950 . S
C2384 C2393 1.390 . S
C2385 C2384 1.387 . S
C2385 C2387 1.387 . S
H2386 C2393 0.950 . S
C2387 C2385 1.387 . S
C2387 C2389 1.390 . S
C2387 H2391 0.950 . S
H2388 C2384 0.950 . S
C2389 C2387 1.390 . S
C2389 C2390 1.387 . S
C2389 H2392 0.950 . S
C2390 C2389 1.387 . S
C2390 C2393 1.387 . S
H2391 C2387 0.950 . S
H2392 C2389 0.950 . S
C2393 C2384 1.390 . S
C2393 H2386 0.950 . S
C2393 C2390 1.387 . S
C2394 C2395 1.387 . S
C2394 H2398 0.950 . S
C2394 C2403 1.390 . S
C2395 C2394 1.387 . S
C2395 C2397 1.387 . S
H2396 C2403 0.950 . S
C2397 C2395 1.387 . S
C2397 C2399 1.390 . S
C2397 H2401 0.950 . S
H2398 C2394 0.950 . S
C2399 C2397 1.390 . S
C2399 C2400 1.387 . S
C2399 H2402 0.950 . S
C2400 C2399 1.387 . S
C2400 C2403 1.387 . S
H2401 C2397 0.950 . S
H2402 C2399 0.950 . S
C2403 C2394 1.390 . S
C2403 H2396 0.950 . S
C2403 C2400 1.387 . S
C2404 C2405 1.387 . S
C2404 H2408 0.950 . S
C2404 C2413 1.390 . S
C2405 C2404 1.387 . S
C2405 C2407 1.387 . S
H2406 C2413 0.950 . S
C2407 C2405 1.387 . S
C2407 C2409 1.390 . S
C2407 H2411 0.950 . S
H2408 C2404 0.950 . S
C2409 C2407 1.390 . S
C2409 C2410 1.387 . S
C2409 H2412 0.950 . S
C2410 C2409 1.387 . S
C2410 C2413 1.387 . S
H2411 C2407 0.950 . S
H2412 C2409 0.950 . S
C2413 C2404 1.390 . S
C2413 H2406 0.950 . S
C2413 C2410 1.387 . S
C2414 C2415 1.387 . S
C2414 H2418 0.950 . S
C2414 C2423 1.390 . S
C2415 C2414 1.387 . S
C2415 C2417 1.387 . S
H2416 C2423 0.950 . S
C2417 C2415 1.387 . S
C2417 C2419 1.390 . S
C2417 H2421 0.950 . S
H2418 C2414 0.950 . S
C2419 C2417 1.390 . S
C2419 C2420 1.387 . S
C2419 H2422 0.950 . S
C2420 C2419 1.387 . S
C2420 C2423 1.387 . S
H2421 C2417 0.950 . S
H2422 C2419 0.950 . S
C2423 C2414 1.390 . S
C2423 H2416 0.950 . S
C2423 C2420 1.387 . S
C2424 C2425 1.387 . S
C2424 H2428 0.950 . S
C2424 C2433 1.390 . S
C2425 C2424 1.387 . S
C2425 C2427 1.387 . S
H2426 C2433 0.950 . S
C2427 C2425 1.387 . S
C2427 C2429 1.390 . S
C2427 H2431 0.950 . S
H2428 C2424 0.950 . S
C2429 C2427 1.390 . S
C2429 C2430 1.387 . S
C2429 H2432 0.950 . S
C2430 C2429 1.387 . S
C2430 C2433 1.387 . S
H2431 C2427 0.950 . S
H2432 C2429 0.950 . S
C2433 C2424 1.390 . S
C2433 H2426 0.950 . S
C2433 C2430 1.387 . S
C2434 C2435 1.387 . S
C2434 H2438 0.950 . S
C2434 C2443 1.390 . S
C2435 C2434 1.387 . S
C2435 C2437 1.387 . S
H2436 C2443 0.950 . S
C2437 C2435 1.387 . S
C2437 C2439 1.390 . S
C2437 H2441 0.950 . S
H2438 C2434 0.950 . S
C2439 C2437 1.390 . S
C2439 C2440 1.387 . S
C2439 H2442 0.950 . S
C2440 C2439 1.387 . S
C2440 C2443 1.387 . S
H2441 C2437 0.950 . S
H2442 C2439 0.950 . S
C2443 C2434 1.390 . S
C2443 H2436 0.950 . S
C2443 C2440 1.387 . S
C2444 C2445 1.387 . S
C2444 H2448 0.950 . S
C2444 C2453 1.390 . S
C2445 C2444 1.387 . S
C2445 C2447 1.387 . S
H2446 C2453 0.950 . S
C2447 C2445 1.387 . S
C2447 C2449 1.390 . S
C2447 H2451 0.950 . S
H2448 C2444 0.950 . S
C2449 C2447 1.390 . S
C2449 C2450 1.387 . S
C2449 H2452 0.950 . S
C2450 C2449 1.387 . S
C2450 C2453 1.387 . S
H2451 C2447 0.950 . S
H2452 C2449 0.950 . S
C2453 C2444 1.390 . S
C2453 H2446 0.950 . S
C2453 C2450 1.387 . S
C2454 C2455 1.387 . S
C2454 H2458 0.950 . S
C2454 C2463 1.390 . S
C2455 C2454 1.387 . S
C2455 C2457 1.387 . S
H2456 C2463 0.950 . S
C2457 C2455 1.387 . S
C2457 C2459 1.390 . S
C2457 H2461 0.950 . S
H2458 C2454 0.950 . S
C2459 C2457 1.390 . S
C2459 C2460 1.387 . S
C2459 H2462 0.950 . S
C2460 C2459 1.387 . S
C2460 C2463 1.387 . S
H2461 C2457 0.950 . S
H2462 C2459 0.950 . S
C2463 C2454 1.390 . S
C2463 H2456 0.950 . S
C2463 C2460 1.387 . S
C2464 C2465 1.387 . S
C2464 H2468 0.950 . S
C2464 C2473 1.390 . S
C2465 C2464 1.387 . S
C2465 C2467 1.387 . S
H2466 C2473 0.950 . S
C2467 C2465 1.387 . S
C2467 C2469 1.390 . S
C2467 H2471 0.950 . S
H2468 C2464 0.950 . S
C2469 C2467 1.390 . S
C2469 C2470 1.387 . S
C2469 H2472 0.950 . S
C2470 C2469 1.387 . S
C2470 C2473 1.387 . S
H2471 C2467 0.950 . S
H2472 C2469 0.950 . S
C2473 C2464 1.390 . S
C2473 H2466 0.950 . S
C2473 C2470 1.387 . S
C2474 C2475 1.387 . S
C2474 H2478 0.950 . S
C2474 C2483 1.390 . S
C2475 C2474 1.387 . S
C2475 C2477 1.387 . S
H2476 C2483 0.950 . S
C2477 C2475 1.387 . S
C2477 C2479 1.390 . S
C2477 H2481 0.950 . S
H2478 C2474 0.950 . S
C2479 C2477 1.390 . S
C2479 C2480 1.387 . S
C2479 H2482 0.950 . S
C2480 C2479 1.387 . S
C2480 C2483 1.387 . S
H2481 C2477 0.950 . S
H2482 C2479 0.950 . S
C2483 C2474 1.390 . S
C2483 H2476 0.950 . S
C2483 C2480 1.387 . S
C2484 C2485 1.387 . S
C2484 H2488 0.950 . S
C2484 C2493 1.390 . S
C2485 C2484 1.387 . S
C2485 C2487 1.387 . S
H2486 C2493 0.950 . S
C2487 C2485 1.387 . S
C2487 C2489 1.390 . S
C2487 H2491 0.950 . S
H2488 C2484 0.950 . S
C2489 C2487 1.390 . S
C2489 C2490 1.387 . S
C2489 H2492 0.950 . S
C2490 C2489 1.387 . S
C2490 C2493 1.387 . S
H2491 C2487 0.950 . S
H2492 C2489 0.950 . S
C2493 C2484 1.390 . S
C2493 H2486 0.950 . S
C2493 C2490 1.387 . S
C2494 C2495 1.387 . S
C2494 H2498 0.950 . S
C2494 C2503 1.390 . S
C2495 C2494 1.387 . S
C2495 C2497 1.387 . S
H2496 C2503 0.950 . S
C2497 C2495 1.387 . S
C2497 C2499 1.390 . S
C2497 H2501 0.950 . S
H2498 C2494 0.950 . S
C2499 C2497 1.390 . S
C2499 C2500 1.387 . S
C2499 H2502 0.950 . S
C2500 C2499 1.387 . S
C2500 C2503 1.387 . S
H2501 C2497 0.950 . S
H2502 C2499 0.950 . S
C2503 C2494 1.390 . S
C2503 H2496 0.950 . S
C2503 C2500 1.387 . S
C2504 C2505 1.387 . S
C2504 H2508 0.950 . S
C2504 C2513 1.390 . S
C2505 C2504 1.387 . S
C2505 C2507 1.387 . S
H2506 C2513 0.950 . S
C2507 C2505 1.387 . S
C2507 C2509 1.390 . S
C2507 H2511 0.950 . S
H2508 C2504 0.950 . S
C2509 C2507 1.390 . S
C2509 C2510 1.387 . S
C2509 H2512 0.950 . S
C2510 C2509 1.387 . S
C2510 C2513 1.387 . S
H2511 C2507 0.950 . S
H2512 C2509 0.950 . S
C2513 C2504 1.390 . S
C2513 H2506 0.950 . S
C2513 C2510 1.387 . S
C2514 C2515 1.387 . S
C2514 H2518 0.950 . S
C2514 C2523 1.390 . S
C2515 C2514 1.387 . S
C2515 C2517 1.387 . S
H2516 C2523 0.950 . S
C2517 C2515 1.387 . S
C2517 C2519 1.390 . S
C2517 H2521 0.950 . S
H2518 C2514 0.950 . S
C2519 C2517 1.390 . S
C2519 C2520 1.387 . S
C2519 H2522 0.950 . S
C2520 C2519 1.387 . S
C2520 C2523 1.387 . S
H2521 C2517 0.950 . S
H2522 C2519 0.950 . S
C2523 C2514 1.390 . S
C2523 H2516 0.950 . S
C2523 C2520 1.387 . S
C2524 C2525 1.387 . S
C2524 H2528 0.950 . S
C2524 C2533 1.390 . S
C2525 C2524 1.387 . S
C2525 C2527 1.387 . S
H2526 C2533 0.950 . S
C2527 C2525 1.387 . S
C2527 C2529 1.390 . S
C2527 H2531 0.950 . S
H2528 C2524 0.950 . S
C2529 C2527 1.390 . S
C2529 C2530 1.387 . S
C2529 H2532 0.950 . S
C2530 C2529 1.387 . S
C2530 C2533 1.387 . S
H2531 C2527 0.950 . S
H2532 C2529 0.950 . S
C2533 C2524 1.390 . S
C2533 H2526 0.950 . S
C2533 C2530 1.387 . S
C2534 C2535 1.387 . S
C2534 H2538 0.950 . S
C2534 C2543 1.390 . S
C2535 C2534 1.387 . S
C2535 C2537 1.387 . S
H2536 C2543 0.950 . S
C2537 C2535 1.387 . S
C2537 C2539 1.390 . S
C2537 H2541 0.950 . S
H2538 C2534 0.950 . S
C2539 C2537 1.390 . S
C2539 C2540 1.387 . S
C2539 H2542 0.950 . S
C2540 C2539 1.387 . S
C2540 C2543 1.387 . S
H2541 C2537 0.950 . S
H2542 C2539 0.950 . S
C2543 C2534 1.390 . S
C2543 H2536 0.950 . S
C2543 C2540 1.387 . S
C2544 C2545 1.387 . S
C2544 H2548 0.950 . S
C2544 C2553 1.390 . S
C2545 C2544 1.387 . S
C2545 C2547 1.387 . S
H2546 C2553 0.950 . S
C2547 C2545 1.387 . S
C2547 C2549 1.390 . S
C2547 H2551 0.950 . S
H2548 C2544 0.950 . S
C2549 C2547 1.390 . S
C2549 C2550 1.387 . S
C2549 H2552 0.950 . S
C2550 C2549 1.387 . S
C2550 C2553 1.387 . S
H2551 C2547 0.950 . S
H2552 C2549 0.950 . S
C2553 C2544 1.390 . S
C2553 H2546 0.950 . S
C2553 C2550 1.387 . S
C2554 C2555 1.387 . S
C2554 H2558 0.950 . S
C2554 C2563 1.390 . S
C2555 C2554 1.387 . S
C2555 C2557 1.387 . S
H2556 C2563 0.950 . S
C2557 C2555 1.387 . S
C2557 C2559 1.390 . S
C2557 H2561 0.950 . S
H2558 C2554 0.950 . S
C2559 C2557 1.390 . S
C2559 C2560 1.387 . S
C2559 H2562 0.950 . S
C2560 C2559 1.387 . S
C2560 C2563 1.387 . S
H2561 C2557 0.950 . S
H2562 C2559 0.950 . S
C2563 C2554 1.390 . S
C2563 H2556 0.950 . S
C2563 C2560 1.387 . S
C2564 C2565 1.387 . S
C2564 H2568 0.950 . S
C2564 C2573 1.390 . S
C2565 C2564 1.387 . S
C2565 C2567 1.387 . S
H2566 C2573 0.950 . S
C2567 C2565 1.387 . S
C2567 C2569 1.390 . S
C2567 H2571 0.950 . S
H2568 C2564 0.950 . S
C2569 C2567 1.390 . S
C2569 C2570 1.387 . S
C2569 H2572 0.950 . S
C2570 C2569 1.387 . S
C2570 C2573 1.387 . S
H2571 C2567 0.950 . S
H2572 C2569 0.950 . S
C2573 C2564 1.390 . S
C2573 H2566 0.950 . S
C2573 C2570 1.387 . S
C2574 C2575 1.387 . S
C2574 H2578 0.950 . S
C2574 C2583 1.390 . S
C2575 C2574 1.387 . S
C2575 C2577 1.387 . S
H2576 C2583 0.950 . S
C2577 C2575 1.387 . S
C2577 C2579 1.390 . S
C2577 H2581 0.950 . S
H2578 C2574 0.950 . S
C2579 C2577 1.390 . S
C2579 C2580 1.387 . S
C2579 H2582 0.950 . S
C2580 C2579 1.387 . S
C2580 C2583 1.387 . S
H2581 C2577 0.950 . S
H2582 C2579 0.950 . S
C2583 C2574 1.390 . S
C2583 H2576 0.950 . S
C2583 C2580 1.387 . S
C2584 C2585 1.387 . S
C2584 H2588 0.950 . S
C2584 C2593 1.390 . S
C2585 C2584 1.387 . S
C2585 C2587 1.387 . S
H2586 C2593 0.950 . S
C2587 C2585 1.387 . S
C2587 C2589 1.390 . S
C2587 H2591 0.950 . S
H2588 C2584 0.950 . S
C2589 C2587 1.390 . S
C2589 C2590 1.387 . S
C2589 H2592 0.950 . S
C2590 C2589 1.387 . S
C2590 C2593 1.387 . S
H2591 C2587 0.950 . S
H2592 C2589 0.950 . S
C2593 C2584 1.390 . S
C2593 H2586 0.950 . S
C2593 C2590 1.387 . S
C2594 C2595 1.387 . S
C2594 H2598 0.950 . S
C2594 C2603 1.390 . S
C2595 C2594 1.387 . S
C2595 C2597 1.387 . S
H2596 C2603 0.950 . S
C2597 C2595 1.387 . S
C2597 C2599 1.390 . S
C2597 H2601 0.950 . S
H2598 C2594 0.950 . S
C2599 C2597 1.390 . S
C2599 C2600 1.387 . S
C2599 H2602 0.950 . S
C2600 C2599 1.387 . S
C2600 C2603 1.387 . S
H2601 C2597 0.950 . S
H2602 C2599 0.950 . S
C2603 C2594 1.390 . S
C2603 H2596 0.950 . S
C2603 C2600 1.387 . S
C2604 C2605 1.387 . S
C2604 H2608 0.950 . S
C2604 C2613 1.390 . S
C2605 C2604 1.387 . S
C2605 C2607 1.387 . S
H2606 C2613 0.950 . S
C2607 C2605 1.387 . S
C2607 C2609 1.390 . S
C2607 H2611 0.950 . S
H2608 C2604 0.950 . S
C2609 C2607 1.390 . S
C2609 C2610 1.387 . S
C2609 H2612 0.950 . S
C2610 C2609 1.387 . S
C2610 C2613 1.387 . S
H2611 C2607 0.950 . S
H2612 C2609 0.950 . S
C2613 C2604 1.390 . S
C2613 H2606 0.950 . S
C2613 C2610 1.387 . S
C2614 C2615 1.387 . S
C2614 H2618 0.950 . S
C2614 C2623 1.390 . S
C2615 C2614 1.387 . S
C2615 C2617 1.387 . S
H2616 C2623 0.950 . S
C2617 C2615 1.387 . S
C2617 C2619 1.390 . S
C2617 H2621 0.950 . S
H2618 C2614 0.950 . S
C2619 C2617 1.390 . S
C2619 C2620 1.387 . S
C2619 H2622 0.950 . S
C2620 C2619 1.387 . S
C2620 C2623 1.387 . S
H2621 C2617 0.950 . S
H2622 C2619 0.950 . S
C2623 C2614 1.390 . S
C2623 H2616 0.950 . S
C2623 C2620 1.387 . S
C2624 C2625 1.387 . S
C2624 H2628 0.950 . S
C2624 C2633 1.390 . S
C2625 C2624 1.387 . S
C2625 C2627 1.387 . S
H2626 C2633 0.950 . S
C2627 C2625 1.387 . S
C2627 C2629 1.390 . S
C2627 H2631 0.950 . S
H2628 C2624 0.950 . S
C2629 C2627 1.390 . S
C2629 C2630 1.387 . S
C2629 H2632 0.950 . S
C2630 C2629 1.387 . S
C2630 C2633 1.387 . S
H2631 C2627 0.950 . S
H2632 C2629 0.950 . S
C2633 C2624 1.390 . S
C2633 H2626 0.950 . S
C2633 C2630 1.387 . S
C2634 C2635 1.387 . S
C2634 H2638 0.950 . S
C2634 C2643 1.390 . S
C2635 C2634 1.387 . S
C2635 C2637 1.387 . S
H2636 C2643 0.950 . S
C2637 C2635 1.387 . S
C2637 C2639 1.390 . S
C2637 H2641 0.950 . S
H2638 C2634 0.950 . S
C2639 C2637 1.390 . S
C2639 C2640 1.387 . S
C2639 H2642 0.950 . S
C2640 C2639 1.387 . S
C2640 C2643 1.387 . S
H2641 C2637 0.950 . S
H2642 C2639 0.950 . S
C2643 C2634 1.390 . S
C2643 H2636 0.950 . S
C2643 C2640 1.387 . S
C2644 C2645 1.387 . S
C2644 H2648 0.950 . S
C2644 C2653 1.390 . S
C2645 C2644 1.387 . S
C2645 C2647 1.387 . S
H2646 C2653 0.950 . S
C2647 C2645 1.387 . S
C2647 C2649 1.390 . S
C2647 H2651 0.950 . S
H2648 C2644 0.950 . S
C2649 C2647 1.390 . S
C2649 C2650 1.387 . S
C2649 H2652 0.950 . S
C2650 C2649 1.387 . S
C2650 C2653 1.387 . S
H2651 C2647 0.950 . S
H2652 C2649 0.950 . S
C2653 C2644 1.390 . S
C2653 H2646 0.950 . S
C2653 C2650 1.387 . S
C2654 C2655 1.387 . S
C2654 H2658 0.950 . S
C2654 C2663 1.390 . S
C2655 C2654 1.387 . S
C2655 C2657 1.387 . S
H2656 C2663 0.950 . S
C2657 C2655 1.387 . S
C2657 C2659 1.390 . S
C2657 H2661 0.950 . S
H2658 C2654 0.950 . S
C2659 C2657 1.390 . S
C2659 C2660 1.387 . S
C2659 H2662 0.950 . S
C2660 C2659 1.387 . S
C2660 C2663 1.387 . S
H2661 C2657 0.950 . S
H2662 C2659 0.950 . S
C2663 C2654 1.390 . S
C2663 H2656 0.950 . S
C2663 C2660 1.387 . S
C2664 C2665 1.387 . S
C2664 H2668 0.950 . S
C2664 C2673 1.390 . S
C2665 C2664 1.387 . S
C2665 C2667 1.387 . S
H2666 C2673 0.950 . S
C2667 C2665 1.387 . S
C2667 C2669 1.390 . S
C2667 H2671 0.950 . S
H2668 C2664 0.950 . S
C2669 C2667 1.390 . S
C2669 C2670 1.387 . S
C2669 H2672 0.950 . S
C2670 C2669 1.387 . S
C2670 C2673 1.387 . S
H2671 C2667 0.950 . S
H2672 C2669 0.950 . S
C2673 C2664 1.390 . S
C2673 H2666 0.950 . S
C2673 C2670 1.387 . S
C2674 C2675 1.387 . S
C2674 H2678 0.950 . S
C2674 C2683 1.390 . S
C2675 C2674 1.387 . S
C2675 C2677 1.387 . S
H2676 C2683 0.950 . S
C2677 C2675 1.387 . S
C2677 C2679 1.390 . S
C2677 H2681 0.950 . S
H2678 C2674 0.950 . S
C2679 C2677 1.390 . S
C2679 C2680 1.387 . S
C2679 H2682 0.950 . S
C2680 C2679 1.387 . S
C2680 C2683 1.387 . S
H2681 C2677 0.950 . S
H2682 C2679 0.950 . S
C2683 C2674 1.390 . S
C2683 H2676 0.950 . S
C2683 C2680 1.387 . S
C2684 C2685 1.387 . S
C2684 H2688 0.950 . S
C2684 C2693 1.390 . S
C2685 C2684 1.387 . S
C2685 C2687 1.387 . S
H2686 C2693 0.950 . S
C2687 C2685 1.387 . S
C2687 C2689 1.390 . S
C2687 H2691 0.950 . S
H2688 C2684 0.950 . S
C2689 C2687 1.390 . S
C2689 C2690 1.387 . S
C2689 H2692 0.950 . S
C2690 C2689 1.387 . S
C2690 C2693 1.387 . S
H2691 C2687 0.950 . S
H2692 C2689 0.950 . S
C2693 C2684 1.390 . S
C2693 H2686 0.950 . S
C2693 C2690 1.387 . S
C2694 C2695 1.387 . S
C2694 H2698 0.950 . S
C2694 C2703 1.390 . S
C2695 C2694 1.387 . S
C2695 C2697 1.387 . S
H2696 C2703 0.950 . S
C2697 C2695 1.387 . S
C2697 C2699 1.390 . S
C2697 H2701 0.950 . S
H2698 C2694 0.950 . S
C2699 C2697 1.390 . S
C2699 C2700 1.387 . S
C2699 H2702 0.950 . S
C2700 C2699 1.387 . S
C2700 C2703 1.387 . S
H2701 C2697 0.950 . S
H2702 C2699 0.950 . S
C2703 C2694 1.390 . S
C2703 H2696 0.950 . S
C2703 C2700 1.387 . S
C2704 C2705 1.387 . S
C2704 H2708 0.950 . S
C2704 C2713 1.390 . S
C2705 C2704 1.387 . S
C2705 C2707 1.387 . S
H2706 C2713 0.950 . S
C2707 C2705 1.387 . S
C2707 C2709 1.390 . S
C2707 H2711 0.950 . S
H2708 C2704 0.950 . S
C2709 C2707 1.390 . S
C2709 C2710 1.387 . S
C2709 H2712 0.950 . S
C2710 C2709 1.387 . S
C2710 C2713 1.387 . S
H2711 C2707 0.950 . S
H2712 C2709 0.950 . S
C2713 C2704 1.390 . S
C2713 H2706 0.950 . S
C2713 C2710 1.387 . S
C2714 C2715 1.387 . S
C2714 H2718 0.950 . S
C2714 C2723 1.390 . S
C2715 C2714 1.387 . S
C2715 C2717 1.387 . S
H2716 C2723 0.950 . S
C2717 C2715 1.387 . S
C2717 C2719 1.390 . S
C2717 H2721 0.950 . S
H2718 C2714 0.950 . S
C2719 C2717 1.390 . S
C2719 C2720 1.387 . S
C2719 H2722 0.950 . S
C2720 C2719 1.387 . S
C2720 C2723 1.387 . S
H2721 C2717 0.950 . S
H2722 C2719 0.950 . S
C2723 C2714 1.390 . S
C2723 H2716 0.950 . S
C2723 C2720 1.387 . S
C2724 C2725 1.387 . S
C2724 H2728 0.950 . S
C2724 C2733 1.390 . S
C2725 C2724 1.387 . S
C2725 C2727 1.387 . S
H2726 C2733 0.950 . S
C2727 C2725 1.387 . S
C2727 C2729 1.390 . S
C2727 H2731 0.950 . S
H2728 C2724 0.950 . S
C2729 C2727 1.390 . S
C2729 C2730 1.387 . S
C2729 H2732 0.950 . S
C2730 C2729 1.387 . S
C2730 C2733 1.387 . S
H2731 C2727 0.950 . S
H2732 C2729 0.950 . S
C2733 C2724 1.390 . S
C2733 H2726 0.950 . S
C2733 C2730 1.387 . S
C2734 C2735 1.387 . S
C2734 H2738 0.950 . S
C2734 C2743 1.390 . S
C2735 C2734 1.387 . S
C2735 C2737 1.387 . S
H2736 C2743 0.950 . S
C2737 C2735 1.387 . S
C2737 C2739 1.390 . S
C2737 H2741 0.950 . S
H2738 C2734 0.950 . S
C2739 C2737 1.390 . S
C2739 C2740 1.387 . S
C2739 H2742 0.950 . S
C2740 C2739 1.387 . S
C2740 C2743 1.387 . S
H2741 C2737 0.950 . S
H2742 C2739 0.950 . S
C2743 C2734 1.390 . S
C2743 H2736 0.950 . S
C2743 C2740 1.387 . S
C2744 C2745 1.387 . S
C2744 H2748 0.950 . S
C2744 C2753 1.390 . S
C2745 C2744 1.387 . S
C2745 C2747 1.387 . S
H2746 C2753 0.950 . S
C2747 C2745 1.387 . S
C2747 C2749 1.390 . S
C2747 H2751 0.950 . S
H2748 C2744 0.950 . S
C2749 C2747 1.390 . S
C2749 C2750 1.387 . S
C2749 H2752 0.950 . S
C2750 C2749 1.387 . S
C2750 C2753 1.387 . S
H2751 C2747 0.950 . S
H2752 C2749 0.950 . S
C2753 C2744 1.390 . S
C2753 H2746 0.950 . S
C2753 C2750 1.387 . S
C2754 C2755 1.387 . S
C2754 H2758 0.950 . S
C2754 C2763 1.390 . S
C2755 C2754 1.387 . S
C2755 C2757 1.387 . S
H2756 C2763 0.950 . S
C2757 C2755 1.387 . S
C2757 C2759 1.390 . S
C2757 H2761 0.950 . S
H2758 C2754 0.950 . S
C2759 C2757 1.390 . S
C2759 C2760 1.387 . S
C2759 H2762 0.950 . S
C2760 C2759 1.387 . S
C2760 C2763 1.387 . S
H2761 C2757 0.950 . S
H2762 C2759 0.950 . S
C2763 C2754 1.390 . S
C2763 H2756 0.950 . S
C2763 C2760 1.387 . S
C2764 C2765 1.387 . S
C2764 H2768 0.950 . S
C2764 C2773 1.390 . S
C2765 C2764 1.387 . S
C2765 C2767 1.387 . S
H2766 C2773 0.950 . S
C2767 C2765 1.387 . S
C2767 C2769 1.390 . S
C2767 H2771 0.950 . S
H2768 C2764 0.950 . S
C2769 C2767 1.390 . S
C2769 C2770 1.387 . S
C2769 H2772 0.950 . S
C2770 C2769 1.387 . S
C2770 C2773 1.387 . S
H2771 C2767 0.950 . S
H2772 C2769 0.950 . S
C2773 C2764 1.390 . S
C2773 H2766 0.950 . S
C2773 C2770 1.387 . S
C2774 C2775 1.387 . S
C2774 H2778 0.950 . S
C2774 C2783 1.390 . S
C2775 C2774 1.387 . S
C2775 C2777 1.387 . S
H2776 C2783 0.950 . S
C2777 C2775 1.387 . S
C2777 C2779 1.390 . S
C2777 H2781 0.950 . S
H2778 C2774 0.950 . S
C2779 C2777 1.390 . S
C2779 C2780 1.387 . S
C2779 H2782 0.950 . S
C2780 C2779 1.387 . S
C2780 C2783 1.387 . S
H2781 C2777 0.950 . S
H2782 C2779 0.950 . S
C2783 C2774 1.390 . S
C2783 H2776 0.950 . S
C2783 C2780 1.387 . S
C2784 C2785 1.387 . S
C2784 H2788 0.950 . S
C2784 C2793 1.390 1_655 S
C2785 C2784 1.387 . S
C2785 C2787 1.387 . S
H2786 C2793 0.950 . S
C2787 C2785 1.387 . S
C2787 C2789 1.390 1_655 S
C2787 H2791 0.950 . S
H2788 C2784 0.950 . S
C2789 C2787 1.390 1_455 S
C2789 C2790 1.387 . S
C2789 H2792 0.950 . S
C2790 C2789 1.387 . S
C2790 C2793 1.387 . S
H2791 C2787 0.950 . S
H2792 C2789 0.950 . S
C2793 C2784 1.390 1_455 S
C2793 H2786 0.950 . S
C2793 C2790 1.387 . S
C2794 C2795 1.387 . S
C2794 H2798 0.950 . S
C2794 C2803 1.390 . S
C2795 C2794 1.387 . S
C2795 C2797 1.387 . S
H2796 C2803 0.950 . S
C2797 C2795 1.387 . S
C2797 C2799 1.390 . S
C2797 H2801 0.950 . S
H2798 C2794 0.950 . S
C2799 C2797 1.390 . S
C2799 C2800 1.387 . S
C2799 H2802 0.950 . S
C2800 C2799 1.387 . S
C2800 C2803 1.387 . S
H2801 C2797 0.950 . S
H2802 C2799 0.950 . S
C2803 C2794 1.390 . S
C2803 H2796 0.950 . S
C2803 C2800 1.387 . S
C2804 C2805 1.390 . S
C2804 H2808 0.952 . S
C2804 C2813 1.387 1_645 S
C2805 C2804 1.390 . S
C2805 C2807 1.390 . S
H2806 C2813 0.952 . S
C2807 C2805 1.390 . S
C2807 C2809 1.387 1_645 S
C2807 H2811 0.952 . S
H2808 C2804 0.952 . S
C2809 C2807 1.387 1_465 S
C2809 C2810 1.390 . S
C2809 H2812 0.952 . S
C2810 C2809 1.390 . S
C2810 C2813 1.390 . S
H2811 C2807 0.952 . S
H2812 C2809 0.952 . S
C2813 C2804 1.387 1_465 S
C2813 H2806 0.952 . S
C2813 C2810 1.390 . S
C2814 C2815 1.387 . S
C2814 H2818 0.950 . S
C2814 C2823 1.390 . S
C2815 C2814 1.387 . S
C2815 C2817 1.387 . S
H2816 C2823 0.950 . S
C2817 C2815 1.387 . S
C2817 C2819 1.390 . S
C2817 H2821 0.950 . S
H2818 C2814 0.950 . S
C2819 C2817 1.390 . S
C2819 C2820 1.387 . S
C2819 H2822 0.950 . S
C2820 C2819 1.387 . S
C2820 C2823 1.387 . S
H2821 C2817 0.950 . S
H2822 C2819 0.950 . S
C2823 C2814 1.390 . S
C2823 H2816 0.950 . S
C2823 C2820 1.387 . S
C2824 C2825 1.387 . S
C2824 H2828 0.950 . S
C2824 C2833 1.390 1_455 S
C2825 C2824 1.387 . S
C2825 C2827 1.387 . S
H2826 C2833 0.950 . S
C2827 C2825 1.387 . S
C2827 C2829 1.390 1_455 S
C2827 H2831 0.950 . S
H2828 C2824 0.950 . S
C2829 C2827 1.390 1_655 S
C2829 C2830 1.387 . S
C2829 H2832 0.950 . S
C2830 C2829 1.387 . S
C2830 C2833 1.387 . S
H2831 C2827 0.950 . S
H2832 C2829 0.950 . S
C2833 C2824 1.390 1_655 S
C2833 H2826 0.950 . S
C2833 C2830 1.387 . S
C2834 C2835 1.387 . S
C2834 H2838 0.950 . S
C2834 C2843 1.390 . S
C2835 C2834 1.387 . S
C2835 C2837 1.387 . S
H2836 C2843 0.950 . S
C2837 C2835 1.387 . S
C2837 C2839 1.390 . S
C2837 H2841 0.950 . S
H2838 C2834 0.950 . S
C2839 C2837 1.390 . S
C2839 C2840 1.387 . S
C2839 H2842 0.950 . S
C2840 C2839 1.387 . S
C2840 C2843 1.387 . S
H2841 C2837 0.950 . S
H2842 C2839 0.950 . S
C2843 C2834 1.390 . S
C2843 H2836 0.950 . S
C2843 C2840 1.387 . S
C2844 C2845 1.390 . S
C2844 H2848 0.952 . S
C2844 C2853 1.387 1_665 S
C2845 C2844 1.390 . S
C2845 C2847 1.390 . S
H2846 C2853 0.952 . S
C2847 C2845 1.390 . S
C2847 C2849 1.387 1_665 S
C2847 H2851 0.952 . S
H2848 C2844 0.952 . S
C2849 C2847 1.387 1_445 S
C2849 C2850 1.390 . S
C2849 H2852 0.952 . S
C2850 C2849 1.390 . S
C2850 C2853 1.390 . S
H2851 C2847 0.952 . S
H2852 C2849 0.952 . S
C2853 C2844 1.387 1_445 S
C2853 H2846 0.952 . S
C2853 C2850 1.390 . S
C2854 C2855 1.387 . S
C2854 H2858 0.950 . S
C2854 C2863 1.390 . S
C2855 C2854 1.387 . S
C2855 C2857 1.387 . S
H2856 C2863 0.950 . S
C2857 C2855 1.387 . S
C2857 C2859 1.390 . S
C2857 H2861 0.950 . S
H2858 C2854 0.950 . S
C2859 C2857 1.390 . S
C2859 C2860 1.387 . S
C2859 H2862 0.950 . S
C2860 C2859 1.387 . S
C2860 C2863 1.387 . S
H2861 C2857 0.950 . S
H2862 C2859 0.950 . S
C2863 C2854 1.390 . S
C2863 H2856 0.950 . S
C2863 C2860 1.387 . S
C2864 C2865 1.387 . S
C2864 H2868 0.950 . S
C2864 C2873 1.390 1_545 S
C2865 C2864 1.387 . S
C2865 C2867 1.387 . S
H2866 C2873 0.950 . S
C2867 C2865 1.387 . S
C2867 C2869 1.390 1_545 S
C2867 H2871 0.950 . S
H2868 C2864 0.950 . S
C2869 C2867 1.390 1_565 S
C2869 C2870 1.387 . S
C2869 H2872 0.950 . S
C2870 C2869 1.387 . S
C2870 C2873 1.387 . S
H2871 C2867 0.950 . S
H2872 C2869 0.950 . S
C2873 C2864 1.390 1_565 S
C2873 H2866 0.950 . S
C2873 C2870 1.387 . S
C2874 C2875 1.387 . S
C2874 H2878 0.950 . S
C2874 C2883 1.390 . S
C2875 C2874 1.387 . S
C2875 C2877 1.387 . S
H2876 C2883 0.950 . S
C2877 C2875 1.387 . S
C2877 C2879 1.390 . S
C2877 H2881 0.950 . S
H2878 C2874 0.950 . S
C2879 C2877 1.390 . S
C2879 C2880 1.387 . S
C2879 H2882 0.950 . S
C2880 C2879 1.387 . S
C2880 C2883 1.387 . S
H2881 C2877 0.950 . S
H2882 C2879 0.950 . S
C2883 C2874 1.390 . S
C2883 H2876 0.950 . S
C2883 C2880 1.387 . S
C2884 C2885 1.391 . S
C2884 H2888 0.954 . S
C2884 C2893 1.385 1_556 S
C2885 C2884 1.391 . S
C2885 C2887 1.391 . S
H2886 C2893 0.954 . S
C2887 C2885 1.391 . S
C2887 C2889 1.385 1_556 S
C2887 H2891 0.954 . S
H2888 C2884 0.954 . S
C2889 C2887 1.385 1_554 S
C2889 C2890 1.391 . S
C2889 H2892 0.954 . S
C2890 C2889 1.391 . S
C2890 C2893 1.391 . S
H2891 C2887 0.954 . S
H2892 C2889 0.954 . S
C2893 C2884 1.385 1_554 S
C2893 H2886 0.954 . S
C2893 C2890 1.391 . S
C2894 C2895 1.387 . S
C2894 H2898 0.950 . S
C2894 C2903 1.390 . S
C2895 C2894 1.387 . S
C2895 C2897 1.387 . S
H2896 C2903 0.950 . S
C2897 C2895 1.387 . S
C2897 C2899 1.390 . S
C2897 H2901 0.950 . S
H2898 C2894 0.950 . S
C2899 C2897 1.390 . S
C2899 C2900 1.387 . S
C2899 H2902 0.950 . S
C2900 C2899 1.387 . S
C2900 C2903 1.387 . S
H2901 C2897 0.950 . S
H2902 C2899 0.950 . S
C2903 C2894 1.390 . S
C2903 H2896 0.950 . S
C2903 C2900 1.387 . S
C2904 C2905 1.387 . S
C2904 H2908 0.950 . S
C2904 C2913 1.390 1_554 S
C2905 C2904 1.387 . S
C2905 C2907 1.387 . S
H2906 C2913 0.950 . S
C2907 C2905 1.387 . S
C2907 C2909 1.390 1_554 S
C2907 H2911 0.950 . S
H2908 C2904 0.950 . S
C2909 C2907 1.390 1_556 S
C2909 C2910 1.387 . S
C2909 H2912 0.950 . S
C2910 C2909 1.387 . S
C2910 C2913 1.387 . S
H2911 C2907 0.950 . S
H2912 C2909 0.950 . S
C2913 C2904 1.390 1_556 S
C2913 H2906 0.950 . S
C2913 C2910 1.387 . S
C2914 C2915 1.391 . S
C2914 H2918 0.954 . S
C2914 C2923 1.385 1_455 S
C2915 C2914 1.391 . S
C2915 C2917 1.391 . S
H2916 C2923 0.954 . S
C2917 C2915 1.391 . S
C2917 C2919 1.385 1_455 S
C2917 H2921 0.954 . S
H2918 C2914 0.954 . S
C2919 C2917 1.385 1_655 S
C2919 C2920 1.391 . S
C2919 H2922 0.954 . S
C2920 C2919 1.391 . S
C2920 C2923 1.391 . S
H2921 C2917 0.954 . S
H2922 C2919 0.954 . S
C2923 C2914 1.385 1_655 S
C2923 H2916 0.954 . S
C2923 C2920 1.391 . S
C2924 C2925 1.387 . S
C2924 H2928 0.950 . S
C2924 C2933 1.390 . S
C2925 C2924 1.387 . S
C2925 C2927 1.387 . S
H2926 C2933 0.950 . S
C2927 C2925 1.387 . S
C2927 C2929 1.390 . S
C2927 H2931 0.950 . S
H2928 C2924 0.950 . S
C2929 C2927 1.390 . S
C2929 C2930 1.387 . S
C2929 H2932 0.950 . S
C2930 C2929 1.387 . S
C2930 C2933 1.387 . S
H2931 C2927 0.950 . S
H2932 C2929 0.950 . S
C2933 C2924 1.390 . S
C2933 H2926 0.950 . S
C2933 C2930 1.387 . S
C2934 C2935 1.391 . S
C2934 H2938 0.954 . S
C2934 C2943 1.385 1_654 S
C2935 C2934 1.391 . S
C2935 C2937 1.391 . S
H2936 C2943 0.954 . S
C2937 C2935 1.391 . S
C2937 C2939 1.385 1_654 S
C2937 H2941 0.954 . S
H2938 C2934 0.954 . S
C2939 C2937 1.385 1_456 S
C2939 C2940 1.391 . S
C2939 H2942 0.954 . S
C2940 C2939 1.391 . S
C2940 C2943 1.391 . S
H2941 C2937 0.954 . S
H2942 C2939 0.954 . S
C2943 C2934 1.385 1_456 S
C2943 H2936 0.954 . S
C2943 C2940 1.391 . S
C2944 C2945 1.387 . S
C2944 H2948 0.950 . S
C2944 C2953 1.390 . S
C2945 C2944 1.387 . S
C2945 C2947 1.387 . S
H2946 C2953 0.950 . S
C2947 C2945 1.387 . S
C2947 C2949 1.390 . S
C2947 H2951 0.950 . S
H2948 C2944 0.950 . S
C2949 C2947 1.390 . S
C2949 C2950 1.387 . S
C2949 H2952 0.950 . S
C2950 C2949 1.387 . S
C2950 C2953 1.387 . S
H2951 C2947 0.950 . S
H2952 C2949 0.950 . S
C2953 C2944 1.390 . S
C2953 H2946 0.950 . S
C2953 C2950 1.387 . S
C2954 C2955 1.387 . S
C2954 H2958 0.950 . S
C2954 C2963 1.390 1_554 S
C2955 C2954 1.387 . S
C2955 C2957 1.387 . S
H2956 C2963 0.950 . S
C2957 C2955 1.387 . S
C2957 C2959 1.390 1_554 S
C2957 H2961 0.950 . S
H2958 C2954 0.950 . S
C2959 C2957 1.390 1_556 S
C2959 C2960 1.387 . S
C2959 H2962 0.950 . S
C2960 C2959 1.387 . S
C2960 C2963 1.387 . S
H2961 C2957 0.950 . S
H2962 C2959 0.950 . S
C2963 C2954 1.390 1_556 S
C2963 H2956 0.950 . S
C2963 C2960 1.387 . S
C2964 C2965 1.387 . S
C2964 H2968 0.950 . S
C2964 C2973 1.390 . S
C2965 C2964 1.387 . S
C2965 C2967 1.387 . S
H2966 C2973 0.950 . S
C2967 C2965 1.387 . S
C2967 C2969 1.390 . S
C2967 H2971 0.950 . S
H2968 C2964 0.950 . S
C2969 C2967 1.390 . S
C2969 C2970 1.387 . S
C2969 H2972 0.950 . S
C2970 C2969 1.387 . S
C2970 C2973 1.387 . S
H2971 C2967 0.950 . S
H2972 C2969 0.950 . S
C2973 C2964 1.390 . S
C2973 H2966 0.950 . S
C2973 C2970 1.387 . S
C2974 C2975 1.387 . S
C2974 H2978 0.950 . S
C2974 C2983 1.390 . S
C2975 C2974 1.387 . S
C2975 C2977 1.387 . S
H2976 C2983 0.950 . S
C2977 C2975 1.387 . S
C2977 C2979 1.390 . S
C2977 H2981 0.950 . S
H2978 C2974 0.950 . S
C2979 C2977 1.390 . S
C2979 C2980 1.387 . S
C2979 H2982 0.950 . S
C2980 C2979 1.387 . S
C2980 C2983 1.387 . S
H2981 C2977 0.950 . S
H2982 C2979 0.950 . S
C2983 C2974 1.390 . S
C2983 H2976 0.950 . S
C2983 C2980 1.387 . S
C2984 C2985 1.387 . S
C2984 H2988 0.950 . S
C2984 C2993 1.390 . S
C2985 C2984 1.387 . S
C2985 C2987 1.387 . S
H2986 C2993 0.950 . S
C2987 C2985 1.387 . S
C2987 C2989 1.390 . S
C2987 H2991 0.950 . S
H2988 C2984 0.950 . S
C2989 C2987 1.390 . S
C2989 C2990 1.387 . S
C2989 H2992 0.950 . S
C2990 C2989 1.387 . S
C2990 C2993 1.387 . S
H2991 C2987 0.950 . S
H2992 C2989 0.950 . S
C2993 C2984 1.390 . S
C2993 H2986 0.950 . S
C2993 C2990 1.387 . S
C2994 C2995 1.387 . S
C2994 H2998 0.950 . S
C2994 C3003 1.390 . S
C2995 C2994 1.387 . S
C2995 C2997 1.387 . S
H2996 C3003 0.950 . S
C2997 C2995 1.387 . S
C2997 C2999 1.390 . S
C2997 H3001 0.950 . S
H2998 C2994 0.950 . S
C2999 C2997 1.390 . S
C2999 C3000 1.387 . S
C2999 H3002 0.950 . S
C3000 C2999 1.387 . S
C3000 C3003 1.387 . S
H3001 C2997 0.950 . S
H3002 C2999 0.950 . S
C3003 C2994 1.390 . S
C3003 H2996 0.950 . S
C3003 C3000 1.387 . S
C3004 C3005 1.387 . S
C3004 H3008 0.950 . S
C3004 C3013 1.390 . S
C3005 C3004 1.387 . S
C3005 C3007 1.387 . S
H3006 C3013 0.950 . S
C3007 C3005 1.387 . S
C3007 C3009 1.390 . S
C3007 H3011 0.950 . S
H3008 C3004 0.950 . S
C3009 C3007 1.390 . S
C3009 C3010 1.387 . S
C3009 H3012 0.950 . S
C3010 C3009 1.387 . S
C3010 C3013 1.387 . S
H3011 C3007 0.950 . S
H3012 C3009 0.950 . S
C3013 C3004 1.390 . S
C3013 H3006 0.950 . S
C3013 C3010 1.387 . S
C3014 C3015 1.391 . S
C3014 H3018 0.954 . S
C3014 C3023 1.385 1_554 S
C3015 C3014 1.391 . S
C3015 C3017 1.391 . S
H3016 C3023 0.954 . S
C3017 C3015 1.391 . S
C3017 C3019 1.385 1_554 S
C3017 H3021 0.954 . S
H3018 C3014 0.954 . S
C3019 C3017 1.385 1_556 S
C3019 C3020 1.391 . S
C3019 H3022 0.954 . S
C3020 C3019 1.391 . S
C3020 C3023 1.391 . S
H3021 C3017 0.954 . S
H3022 C3019 0.954 . S
C3023 C3014 1.385 1_556 S
C3023 H3016 0.954 . S
C3023 C3020 1.391 . S
C3024 C3025 1.387 . S
C3024 H3028 0.950 . S
C3024 C3033 1.390 . S
C3025 C3024 1.387 . S
C3025 C3027 1.387 . S
H3026 C3033 0.950 . S
C3027 C3025 1.387 . S
C3027 C3029 1.390 . S
C3027 H3031 0.950 . S
H3028 C3024 0.950 . S
C3029 C3027 1.390 . S
C3029 C3030 1.387 . S
C3029 H3032 0.950 . S
C3030 C3029 1.387 . S
C3030 C3033 1.387 . S
H3031 C3027 0.950 . S
H3032 C3029 0.950 . S
C3033 C3024 1.390 . S
C3033 H3026 0.950 . S
C3033 C3030 1.387 . S
C3034 C3035 1.387 . S
C3034 H3038 0.950 . S
C3034 C3043 1.390 1_545 S
C3035 C3034 1.387 . S
C3035 C3037 1.387 . S
H3036 C3043 0.950 . S
C3037 C3035 1.387 . S
C3037 C3039 1.390 1_545 S
C3037 H3041 0.950 . S
H3038 C3034 0.950 . S
C3039 C3037 1.390 1_565 S
C3039 C3040 1.387 . S
C3039 H3042 0.950 . S
C3040 C3039 1.387 . S
C3040 C3043 1.387 . S
H3041 C3037 0.950 . S
H3042 C3039 0.950 . S
C3043 C3034 1.390 1_565 S
C3043 H3036 0.950 . S
C3043 C3040 1.387 . S
C3044 C3045 1.387 . S
C3044 H3048 0.950 . S
C3044 C3053 1.390 . S
C3045 C3044 1.387 . S
C3045 C3047 1.387 . S
H3046 C3053 0.950 . S
C3047 C3045 1.387 . S
C3047 C3049 1.390 . S
C3047 H3051 0.950 . S
H3048 C3044 0.950 . S
C3049 C3047 1.390 . S
C3049 C3050 1.387 . S
C3049 H3052 0.950 . S
C3050 C3049 1.387 . S
C3050 C3053 1.387 . S
H3051 C3047 0.950 . S
H3052 C3049 0.950 . S
C3053 C3044 1.390 . S
C3053 H3046 0.950 . S
C3053 C3050 1.387 . S
C3054 C3055 1.387 . S
C3054 H3058 0.950 . S
C3054 C3063 1.390 . S
C3055 C3054 1.387 . S
C3055 C3057 1.387 . S
H3056 C3063 0.950 . S
C3057 C3055 1.387 . S
C3057 C3059 1.390 . S
C3057 H3061 0.950 . S
H3058 C3054 0.950 . S
C3059 C3057 1.390 . S
C3059 C3060 1.387 . S
C3059 H3062 0.950 . S
C3060 C3059 1.387 . S
C3060 C3063 1.387 . S
H3061 C3057 0.950 . S
H3062 C3059 0.950 . S
C3063 C3054 1.390 . S
C3063 H3056 0.950 . S
C3063 C3060 1.387 . S
C3064 C3065 1.390 . S
C3064 H3068 0.952 . S
C3064 C3073 1.387 1_454 S
C3065 C3064 1.390 . S
C3065 C3067 1.390 . S
H3066 C3073 0.952 . S
C3067 C3065 1.390 . S
C3067 C3069 1.387 1_454 S
C3067 H3071 0.952 . S
H3068 C3064 0.952 . S
C3069 C3067 1.387 1_656 S
C3069 C3070 1.390 . S
C3069 H3072 0.952 . S
C3070 C3069 1.390 . S
C3070 C3073 1.390 . S
H3071 C3067 0.952 . S
H3072 C3069 0.952 . S
C3073 C3064 1.387 1_656 S
C3073 H3066 0.952 . S
C3073 C3070 1.390 . S
C3074 C3075 1.387 . S
C3074 H3078 0.950 . S
C3074 C3083 1.390 . S
C3075 C3074 1.387 . S
C3075 C3077 1.387 . S
H3076 C3083 0.950 . S
C3077 C3075 1.387 . S
C3077 C3079 1.390 . S
C3077 H3081 0.950 . S
H3078 C3074 0.950 . S
C3079 C3077 1.390 . S
C3079 C3080 1.387 . S
C3079 H3082 0.950 . S
C3080 C3079 1.387 . S
C3080 C3083 1.387 . S
H3081 C3077 0.950 . S
H3082 C3079 0.950 . S
C3083 C3074 1.390 . S
C3083 H3076 0.950 . S
C3083 C3080 1.387 . S
C3084 C3085 1.390 . S
C3084 H3088 0.952 . S
C3084 C3093 1.387 1_455 S
C3085 C3084 1.390 . S
C3085 C3087 1.390 . S
H3086 C3093 0.952 . S
C3087 C3085 1.390 . S
C3087 C3089 1.387 1_455 S
C3087 H3091 0.952 . S
H3088 C3084 0.952 . S
C3089 C3087 1.387 1_655 S
C3089 C3090 1.390 . S
C3089 H3092 0.952 . S
C3090 C3089 1.390 . S
C3090 C3093 1.390 . S
H3091 C3087 0.952 . S
H3092 C3089 0.952 . S
C3093 C3084 1.387 1_655 S
C3093 H3086 0.952 . S
C3093 C3090 1.390 . S
C3094 C3095 1.387 . S
C3094 H3098 0.950 . S
C3094 C3103 1.390 . S
C3095 C3094 1.387 . S
C3095 C3097 1.387 . S
H3096 C3103 0.950 . S
C3097 C3095 1.387 . S
C3097 C3099 1.390 . S
C3097 H3101 0.950 . S
H3098 C3094 0.950 . S
C3099 C3097 1.390 . S
C3099 C3100 1.387 . S
C3099 H3102 0.950 . S
C3100 C3099 1.387 . S
C3100 C3103 1.387 . S
H3101 C3097 0.950 . S
H3102 C3099 0.950 . S
C3103 C3094 1.390 . S
C3103 H3096 0.950 . S
C3103 C3100 1.387 . S
C3104 C3105 1.387 . S
C3104 H3108 0.950 . S
C3104 C3113 1.390 . S
C3105 C3104 1.387 . S
C3105 C3107 1.387 . S
H3106 C3113 0.950 . S
C3107 C3105 1.387 . S
C3107 C3109 1.390 . S
C3107 H3111 0.950 . S
H3108 C3104 0.950 . S
C3109 C3107 1.390 . S
C3109 C3110 1.387 . S
C3109 H3112 0.950 . S
C3110 C3109 1.387 . S
C3110 C3113 1.387 . S
H3111 C3107 0.950 . S
H3112 C3109 0.950 . S
C3113 C3104 1.390 . S
C3113 H3106 0.950 . S
C3113 C3110 1.387 . S
C3114 C3115 1.387 . S
C3114 H3118 0.950 . S
C3114 C3123 1.390 . S
C3115 C3114 1.387 . S
C3115 C3117 1.387 . S
H3116 C3123 0.950 . S
C3117 C3115 1.387 . S
C3117 C3119 1.390 . S
C3117 H3121 0.950 . S
H3118 C3114 0.950 . S
C3119 C3117 1.390 . S
C3119 C3120 1.387 . S
C3119 H3122 0.950 . S
C3120 C3119 1.387 . S
C3120 C3123 1.387 . S
H3121 C3117 0.950 . S
H3122 C3119 0.950 . S
C3123 C3114 1.390 . S
C3123 H3116 0.950 . S
C3123 C3120 1.387 . S
C3124 C3125 1.387 . S
C3124 H3128 0.950 . S
C3124 C3133 1.390 . S
C3125 C3124 1.387 . S
C3125 C3127 1.387 . S
H3126 C3133 0.950 . S
C3127 C3125 1.387 . S
C3127 C3129 1.390 . S
C3127 H3131 0.950 . S
H3128 C3124 0.950 . S
C3129 C3127 1.390 . S
C3129 C3130 1.387 . S
C3129 H3132 0.950 . S
C3130 C3129 1.387 . S
C3130 C3133 1.387 . S
H3131 C3127 0.950 . S
H3132 C3129 0.950 . S
C3133 C3124 1.390 . S
C3133 H3126 0.950 . S
C3133 C3130 1.387 . S
C3134 C3135 1.391 . S
C3134 H3138 0.954 . S
C3134 C3143 1.385 1_545 S
C3135 C3134 1.391 . S
C3135 C3137 1.391 . S
H3136 C3143 0.954 . S
C3137 C3135 1.391 . S
C3137 C3139 1.385 1_545 S
C3137 H3141 0.954 . S
H3138 C3134 0.954 . S
C3139 C3137 1.385 1_565 S
C3139 C3140 1.391 . S
C3139 H3142 0.954 . S
C3140 C3139 1.391 . S
C3140 C3143 1.391 . S
H3141 C3137 0.954 . S
H3142 C3139 0.954 . S
C3143 C3134 1.385 1_565 S
C3143 H3136 0.954 . S
C3143 C3140 1.391 . S
C3144 C3145 1.387 . S
C3144 H3148 0.950 . S
C3144 C3153 1.390 . S
C3145 C3144 1.387 . S
C3145 C3147 1.387 . S
H3146 C3153 0.950 . S
C3147 C3145 1.387 . S
C3147 C3149 1.390 . S
C3147 H3151 0.950 . S
H3148 C3144 0.950 . S
C3149 C3147 1.390 . S
C3149 C3150 1.387 . S
C3149 H3152 0.950 . S
C3150 C3149 1.387 . S
C3150 C3153 1.387 . S
H3151 C3147 0.950 . S
H3152 C3149 0.950 . S
C3153 C3144 1.390 . S
C3153 H3146 0.950 . S
C3153 C3150 1.387 . S
C3154 C3155 1.391 . S
C3154 H3158 0.954 . S
C3154 C3163 1.385 1_545 S
C3155 C3154 1.391 . S
C3155 C3157 1.391 . S
H3156 C3163 0.954 . S
C3157 C3155 1.391 . S
C3157 C3159 1.385 1_545 S
C3157 H3161 0.954 . S
H3158 C3154 0.954 . S
C3159 C3157 1.385 1_565 S
C3159 C3160 1.391 . S
C3159 H3162 0.954 . S
C3160 C3159 1.391 . S
C3160 C3163 1.391 . S
H3161 C3157 0.954 . S
H3162 C3159 0.954 . S
C3163 C3154 1.385 1_565 S
C3163 H3156 0.954 . S
C3163 C3160 1.391 . S
C3164 C3165 1.391 . S
C3164 H3168 0.954 . S
C3164 C3173 1.385 1_564 S
C3165 C3164 1.391 . S
C3165 C3167 1.391 . S
H3166 C3173 0.954 . S
C3167 C3165 1.391 . S
C3167 C3169 1.385 1_564 S
C3167 H3171 0.954 . S
H3168 C3164 0.954 . S
C3169 C3167 1.385 1_546 S
C3169 C3170 1.391 . S
C3169 H3172 0.954 . S
C3170 C3169 1.391 . S
C3170 C3173 1.391 . S
H3171 C3167 0.954 . S
H3172 C3169 0.954 . S
C3173 C3164 1.385 1_546 S
C3173 H3166 0.954 . S
C3173 C3170 1.391 . S
C3174 C3175 1.387 . S
C3174 H3178 0.950 . S
C3174 C3183 1.390 . S
C3175 C3174 1.387 . S
C3175 C3177 1.387 . S
H3176 C3183 0.950 . S
C3177 C3175 1.387 . S
C3177 C3179 1.390 . S
C3177 H3181 0.950 . S
H3178 C3174 0.950 . S
C3179 C3177 1.390 . S
C3179 C3180 1.387 . S
C3179 H3182 0.950 . S
C3180 C3179 1.387 . S
C3180 C3183 1.387 . S
H3181 C3177 0.950 . S
H3182 C3179 0.950 . S
C3183 C3174 1.390 . S
C3183 H3176 0.950 . S
C3183 C3180 1.387 . S
C3184 C3185 1.387 . S
C3184 H3188 0.950 . S
C3184 C3193 1.390 . S
C3185 C3184 1.387 . S
C3185 C3187 1.387 . S
H3186 C3193 0.950 . S
C3187 C3185 1.387 . S
C3187 C3189 1.390 . S
C3187 H3191 0.950 . S
H3188 C3184 0.950 . S
C3189 C3187 1.390 . S
C3189 C3190 1.387 . S
C3189 H3192 0.950 . S
C3190 C3189 1.387 . S
C3190 C3193 1.387 . S
H3191 C3187 0.950 . S
H3192 C3189 0.950 . S
C3193 C3184 1.390 . S
C3193 H3186 0.950 . S
C3193 C3190 1.387 . S
C3194 C3195 1.387 . S
C3194 H3198 0.950 . S
C3194 C3203 1.390 . S
C3195 C3194 1.387 . S
C3195 C3197 1.387 . S
H3196 C3203 0.950 . S
C3197 C3195 1.387 . S
C3197 C3199 1.390 . S
C3197 H3201 0.950 . S
H3198 C3194 0.950 . S
C3199 C3197 1.390 . S
C3199 C3200 1.387 . S
C3199 H3202 0.950 . S
C3200 C3199 1.387 . S
C3200 C3203 1.387 . S
H3201 C3197 0.950 . S
H3202 C3199 0.950 . S
C3203 C3194 1.390 . S
C3203 H3196 0.950 . S
C3203 C3200 1.387 . S
C3204 C3205 1.387 . S
C3204 H3208 0.950 . S
C3204 C3213 1.390 . S
C3205 C3204 1.387 . S
C3205 C3207 1.387 . S
H3206 C3213 0.950 . S
C3207 C3205 1.387 . S
C3207 C3209 1.390 . S
C3207 H3211 0.950 . S
H3208 C3204 0.950 . S
C3209 C3207 1.390 . S
C3209 C3210 1.387 . S
C3209 H3212 0.950 . S
C3210 C3209 1.387 . S
C3210 C3213 1.387 . S
H3211 C3207 0.950 . S
H3212 C3209 0.950 . S
C3213 C3204 1.390 . S
C3213 H3206 0.950 . S
C3213 C3210 1.387 . S
C3214 C3215 1.387 . S
C3214 H3218 0.950 . S
C3214 C3223 1.390 . S
C3215 C3214 1.387 . S
C3215 C3217 1.387 . S
H3216 C3223 0.950 . S
C3217 C3215 1.387 . S
C3217 C3219 1.390 . S
C3217 H3221 0.950 . S
H3218 C3214 0.950 . S
C3219 C3217 1.390 . S
C3219 C3220 1.387 . S
C3219 H3222 0.950 . S
C3220 C3219 1.387 . S
C3220 C3223 1.387 . S
H3221 C3217 0.950 . S
H3222 C3219 0.950 . S
C3223 C3214 1.390 . S
C3223 H3216 0.950 . S
C3223 C3220 1.387 . S
C3224 C3225 1.387 . S
C3224 H3228 0.950 . S
C3224 C3233 1.390 . S
C3225 C3224 1.387 . S
C3225 C3227 1.387 . S
H3226 C3233 0.950 . S
C3227 C3225 1.387 . S
C3227 C3229 1.390 . S
C3227 H3231 0.950 . S
H3228 C3224 0.950 . S
C3229 C3227 1.390 . S
C3229 C3230 1.387 . S
C3229 H3232 0.950 . S
C3230 C3229 1.387 . S
C3230 C3233 1.387 . S
H3231 C3227 0.950 . S
H3232 C3229 0.950 . S
C3233 C3224 1.390 . S
C3233 H3226 0.950 . S
C3233 C3230 1.387 . S
C3234 C3235 1.391 . S
C3234 H3238 0.954 . S
C3234 C3243 1.385 1_566 S
C3235 C3234 1.391 . S
C3235 C3237 1.391 . S
H3236 C3243 0.954 . S
C3237 C3235 1.391 . S
C3237 C3239 1.385 1_566 S
C3237 H3241 0.954 . S
H3238 C3234 0.954 . S
C3239 C3237 1.385 1_544 S
C3239 C3240 1.391 . S
C3239 H3242 0.954 . S
C3240 C3239 1.391 . S
C3240 C3243 1.391 . S
H3241 C3237 0.954 . S
H3242 C3239 0.954 . S
C3243 C3234 1.385 1_544 S
C3243 H3236 0.954 . S
C3243 C3240 1.391 . S
C3244 C3245 1.387 . S
C3244 H3248 0.950 . S
C3244 C3253 1.390 . S
C3245 C3244 1.387 . S
C3245 C3247 1.387 . S
H3246 C3253 0.950 . S
C3247 C3245 1.387 . S
C3247 C3249 1.390 . S
C3247 H3251 0.950 . S
H3248 C3244 0.950 . S
C3249 C3247 1.390 . S
C3249 C3250 1.387 . S
C3249 H3252 0.950 . S
C3250 C3249 1.387 . S
C3250 C3253 1.387 . S
H3251 C3247 0.950 . S
H3252 C3249 0.950 . S
C3253 C3244 1.390 . S
C3253 H3246 0.950 . S
C3253 C3250 1.387 . S
C3254 C3255 1.387 . S
C3254 H3258 0.950 . S
C3254 C3263 1.390 . S
C3255 C3254 1.387 . S
C3255 C3257 1.387 . S
H3256 C3263 0.950 . S
C3257 C3255 1.387 . S
C3257 C3259 1.390 . S
C3257 H3261 0.950 . S
H3258 C3254 0.950 . S
C3259 C3257 1.390 . S
C3259 C3260 1.387 . S
C3259 H3262 0.950 . S
C3260 C3259 1.387 . S
C3260 C3263 1.387 . S
H3261 C3257 0.950 . S
H3262 C3259 0.950 . S
C3263 C3254 1.390 . S
C3263 H3256 0.950 . S
C3263 C3260 1.387 . S
C1345 C9 1.502 . S
C1350 C456 1.583 . S
C1355 C806 1.583 . S
C1360 C23 1.504 . S
C1365 C484 1.583 . S
C1370 C37 1.500 . S
C1375 C51 1.504 . S
C1380 C834 1.583 . S
C1385 C65 1.502 . S
C1390 C512 1.582 . S
C1395 C79 1.504 . S
C1400 C862 1.583 . S
C1405 C93 1.502 . S
C1410 C540 1.583 . S
C1415 C107 1.501 . S
C1420 C890 1.583 . S
C1425 C904 1.582 . S
C1430 C121 1.502 . S
C1435 C1002 1.583 . S
C1440 C135 1.503 . S
C1445 C149 1.502 . S
C1450 C1310 1.583 . S
C1455 C163 1.503 . S
C1460 C988 1.583 . S
C1465 C246 1.583 . S
C1470 C177 1.503 . S
C1475 C191 1.500 . S
C1480 C260 1.583 . S
C1485 C205 1.503 . S
C1490 C274 1.583 . S
C1495 C1296 1.583 . S
C1500 C219 1.503 . S
C1505 C1016 1.583 . S
C1510 C233 1.504 . S
C1515 C247 1.501 . S
C1520 C400 1.583 . S
C1525 C750 1.583 . S
C1530 C261 1.502 . S
C1535 C275 1.501 . S
C1540 C428 1.582 . S
C1545 C442 1.583 . S
C1550 C289 1.502 . S
C1555 C708 1.583 . S
C1560 C303 1.500 . S
C1565 C50 1.583 . S
C1570 C317 1.503 . S
C1575 C22 1.583 . S
C1580 C331 1.503 . S
C1585 C345 1.500 . S
C1590 C120 1.583 . S
C1595 C1142 1.583 . S
C1600 C359 1.500 . S
C1605 C148 1.583 . S
C1610 C373 1.500 . S
C1615 C387 1.504 . S
C1620 C1170 1.583 . S
C1625 C401 1.503 . S
C1630 C176 1.583 . S
C1635 C1198 1.583 . S
C1640 C415 1.500 . S
C1645 C429 1.502 . S
C1650 C204 1.583 . S
C1655 C1226 1.583 . S
C1660 C443 1.504 . S
C1665 C1240 1.583 . S
C1670 C457 1.504 . S
C1675 C471 1.501 . S
C1680 C1338 1.582 . S
C1685 C974 1.583 . S
C1690 C485 1.503 . S
C1695 C1324 1.583 . S
C1700 C499 1.503 . S
C1705 C513 1.503 . S
C1710 C582 1.583 . S
C1715 C596 1.583 . S
C1720 C527 1.500 . S
C1725 C610 1.583 . S
C1730 C541 1.503 . S
C1735 C555 1.501 . S
C1740 C960 1.582 . S
C1745 C680 1.583 . S
C1750 C569 1.501 . S
C1755 C583 1.501 . S
C1760 C64 1.583 . S
C1765 C1086 1.583 . S
C1770 C597 1.504 . S
C1775 C92 1.583 . S
C1780 C611 1.501 . S
C1785 C625 1.503 . S
C1790 C106 1.583 . S
C1795 C1044 1.583 . S
C1800 C639 1.504 . S
C1805 C386 1.583 . S
C1810 C653 1.504 . S
C1815 C358 1.583 . S
C1820 C667 1.502 . S
C1825 C1128 1.583 . S
C1830 C681 1.503 . S
C1835 C134 1.583 . S
C1840 C695 1.503 . S
C1845 C1156 1.582 . S
C1850 C709 1.501 . S
C1855 C723 1.504 . S
C1860 C162 1.583 . S
C1865 C1184 1.583 . S
C1870 C737 1.501 . S
C1875 C751 1.504 . S
C1880 C190 1.583 . S
C1885 C765 1.503 . S
C1890 C1212 1.583 . S
C1895 C779 1.501 . S
C1900 C218 1.583 . S
C1905 C232 1.583 . S
C1910 C793 1.503 . S
C1915 C807 1.502 . S
C1920 C330 1.582 . S
C1925 C821 1.503 . S
C1930 C638 1.583 . S
C1935 C316 1.583 . S
C1940 C835 1.503 . S
C1945 C849 1.502 . S
C1950 C918 1.582 . S
C1955 C932 1.582 . S
C1960 C863 1.501 . S
C1965 C946 1.583 . S
C1970 C877 1.503 . S
C1975 C891 1.503 . S
C1980 C624 1.583 . S
C1985 C905 1.503 . S
C1990 C344 1.583 . S
C1995 C1072 1.583 . S
C2000 C919 1.502 . S
C2005 C933 1.503 . S
C2010 C78 1.583 . S
C2015 C947 1.503 . S
C2020 C1100 1.583 . S
C2025 C1114 1.583 . S
C2030 C961 1.503 . S
C2035 C36 1.583 . S
C2040 C975 1.501 . S
C2045 C989 1.503 . S
C2050 C722 1.583 . S
C2055 C1003 1.504 . S
C2060 C694 1.583 . S
C2065 C792 1.583 . S
C2070 C1017 1.503 . S
C2075 C470 1.583 . S
C2080 C1031 1.501 . S
C2085 C820 1.582 . S
C2090 C1045 1.502 . S
C2095 C1059 1.501 . S
C2100 C498 1.583 . S
C2105 C1073 1.502 . S
C2110 C848 1.582 . S
C2115 C526 1.583 . S
C2120 C1087 1.504 . S
C2125 C876 1.582 . S
C2130 C1101 1.502 . S
C2135 C554 1.583 . S
C2140 C1115 1.504 . S
C2145 C1129 1.502 . S
C2150 C568 1.583 . S
C2155 C666 1.583 . S
C2160 C1143 1.504 . S
C2165 C302 1.583 . S
C2170 C1157 1.501 . S
C2175 C1171 1.503 . S
C2180 C652 1.583 . S
C2185 C1254 1.583 . S
C2190 C1185 1.503 . S
C2195 C1268 1.583 . S
C2200 C1199 1.503 . S
C2205 C1213 1.504 . S
C2210 C1282 1.583 . S
C2215 C1227 1.502 . S
C2220 C288 1.582 . S
C2225 C8 1.583 . S
C2230 C1241 1.503 . S
C2235 C736 1.583 . S
C2240 C1255 1.501 . S
C2245 C1269 1.503 . S
C2250 C414 1.583 . S
C2255 C1283 1.501 . S
C2260 C764 1.583 . S
C2265 C778 1.583 . S
C2270 C1297 1.503 . S
C2275 C372 1.583 . S
C2280 C1311 1.501 . S
C2285 C1058 1.583 . S
C2290 C1325 1.503 . S
C2295 C1030 1.582 . S
C2300 C1339 1.501 . S
C2305 C1225 1.520 . S
C2310 C7 1.520 . S
C2315 C21 1.517 . S
C2320 C1183 1.521 . S
C2325 C35 1.518 . S
C2330 C1197 1.522 . S
C2335 C49 1.517 . S
C2340 C1211 1.520 . S
C2345 C133 1.518 . S
C2350 C63 1.521 . S
C2355 C77 1.517 . S
C2360 C147 1.521 . S
C2365 C91 1.521 . S
C2370 C161 1.517 . S
C2375 C105 1.522 . S
C2380 C119 1.518 . S
C2385 C175 1.519 . S
C2390 C1029 1.521 . S
C2395 C189 1.520 . S
C2400 C1043 1.517 . S
C2405 C203 1.518 . S
C2410 C1057 1.522 . S
C2415 C1015 1.519 . S
C2420 C217 1.521 . S
C2425 C1295 1.521 . S
C2430 C231 1.517 . S
C2435 C245 1.522 . S
C2440 C1337 1.518 . S
C2445 C259 1.517 . S
C2450 C637 1.521 . S
C2455 C1323 1.517 . S
C2460 C273 1.521 . S
C2465 C287 1.520 . S
C2470 C1239 1.517 . S
C2475 C301 1.517 . S
C2480 C595 1.521 . S
C2485 C315 1.517 . S
C2490 C1281 1.521 . S
C2495 C329 1.521 . S
C2500 C1253 1.517 . S
C2505 C889 1.520 . S
C2510 C343 1.520 . S
C2515 C357 1.517 . S
C2520 C847 1.521 . S
C2525 C861 1.517 . S
C2530 C371 1.519 . S
C2535 C385 1.520 . S
C2540 C875 1.517 . S
C2545 C399 1.517 . S
C2550 C469 1.521 . S
C2555 C413 1.517 . S
C2560 C483 1.521 . S
C2565 C497 1.517 . S
C2570 C427 1.520 . S
C2575 C441 1.517 . S
C2580 C455 1.521 . S
C2585 C693 1.517 . S
C2590 C511 1.521 . S
C2595 C707 1.521 . S
C2600 C525 1.518 . S
C2605 C721 1.517 . S
C2610 C539 1.520 . S
C2615 C679 1.521 . S
C2620 C553 1.519 . S
C2625 C567 1.517 . S
C2630 C959 1.521 . S
C2635 C581 1.522 . S
C2640 C1001 1.518 . S
C2645 C987 1.521 . S
C2650 C609 1.517 . S
C2655 C623 1.520 . S
C2660 C903 1.517 . S
C2665 C651 1.521 . S
C2670 C945 1.519 . S
C2675 C665 1.521 . S
C2680 C917 1.517 . S
C2685 C735 1.517 . S
C2690 C805 1.519 . S
C2695 C749 1.521 . S
C2700 C819 1.517 . S
C2705 C763 1.517 . S
C2710 C833 1.521 . S
C2715 C777 1.521 . S
C2720 C791 1.518 . S
C2725 C1309 1.521 . S
C2730 C931 1.518 . S
C2735 C1267 1.521 . S
C2740 C973 1.517 . S
C2745 C1071 1.521 . S
C2750 C1141 1.517 . S
C2755 C1085 1.521 . S
C2760 C1155 1.519 . S
C2765 C1169 1.519 . S
C2770 C1099 1.517 . S
C2775 C1113 1.517 . S
C2780 C1127 1.521 . S
C2785 C370 1.546 . S
C2790 C6 1.546 . S
C2795 C20 1.549 . S
C2800 C720 1.549 . S
C2805 C34 1.546 1_545 S
C2810 C342 1.546 1_565 S
C2815 C692 1.546 . S
C2820 C48 1.546 . S
C2825 C62 1.546 . S
C2830 C426 1.546 . S
C2835 C76 1.546 . S
C2840 C776 1.546 . S
C2845 C90 1.546 1_565 S
C2850 C398 1.546 1_545 S
C2855 C104 1.549 . S
C2860 C748 1.549 . S
C2865 C118 1.549 . S
C2870 C174 1.549 . S
C2875 C188 1.549 . S
C2880 C132 1.549 . S
C2885 C146 1.549 1_556 S
C2890 C202 1.549 1_554 S
C2895 C160 1.549 . S
C2900 C216 1.549 . S
C2905 C230 1.549 . S
C2910 C1280 1.549 . S
C2915 C972 1.549 1_455 S
C2920 C244 1.549 1_655 S
C2925 C314 1.549 . S
C2930 C258 1.549 . S
C2935 C1238 1.549 1_655 S
C2940 C272 1.549 1_455 S
C2945 C1336 1.549 . S
C2950 C286 1.549 . S
C2955 C300 1.549 . S
C2960 C916 1.549 . S
C2965 C1294 1.546 . S
C2970 C328 1.546 . S
C2975 C356 1.549 . S
C2980 C1056 1.549 . S
C2985 C1028 1.549 . S
C2990 C384 1.549 . S
C2995 C412 1.549 . S
C3000 C1112 1.549 . S
C3005 C440 1.549 . S
C3010 C1084 1.549 . S
C3015 C510 1.549 1_554 S
C3020 C454 1.549 1_556 S
C3025 C524 1.549 . S
C3030 C468 1.549 . S
C3035 C538 1.546 . S
C3040 C482 1.546 . S
C3045 C552 1.546 . S
C3050 C496 1.546 . S
C3055 C944 1.549 . S
C3060 C566 1.549 . S
C3065 C1308 1.546 1_455 S
C3070 C580 1.546 1_655 S
C3075 C594 1.546 . S
C3080 C650 1.546 . S
C3085 C608 1.546 1_455 S
C3090 C902 1.546 1_655 S
C3095 C622 1.549 . S
C3100 C1000 1.549 . S
C3105 C636 1.549 . S
C3110 C1252 1.549 . S
C3115 C664 1.546 . S
C3120 C958 1.546 . S
C3125 C1042 1.546 . S
C3130 C678 1.546 . S
C3135 C706 1.549 1_545 S
C3140 C1014 1.549 1_565 S
C3145 C1098 1.546 . S
C3150 C734 1.546 . S
C3155 C1070 1.549 1_545 S
C3160 C762 1.549 1_565 S
C3165 C846 1.549 1_554 S
C3170 C790 1.549 1_556 S
C3175 C804 1.549 . S
C3180 C860 1.549 . S
C3185 C818 1.549 . S
C3190 C874 1.549 . S
C3195 C888 1.549 . S
C3200 C832 1.549 . S
C3205 C986 1.546 . S
C3210 C930 1.546 . S
C3215 C1126 1.546 . S
C3220 C1182 1.546 . S
C3225 C1140 1.549 . S
C3230 C1196 1.549 . S
C3235 C1154 1.549 1_556 S
C3240 C1210 1.549 1_554 S
C3245 C1224 1.546 . S
C3250 C1168 1.546 . S
C3255 C1322 1.546 . S
C3260 C1266 1.546 . S
