# Generated by pormake.
# Topology unv, (4)-cn, num edge types: 1
# Building blocks:
#     Node 0, Type 0, BuildingBlock: NAHDIM_clean_sbu_0, # of connection points: 4
#     Node 1, Type 0, BuildingBlock: NAHDIM_clean_sbu_0, # of connection points: 4
#     Node 2, Type 0, BuildingBlock: NAHDIM_clean_sbu_0, # of connection points: 4
#     Node 3, Type 0, BuildingBlock: NAHDIM_clean_sbu_0, # of connection points: 4
#     Node 4, Type 0, BuildingBlock: NAHDIM_clean_sbu_0, # of connection points: 4
#     Node 5, Type 0, BuildingBlock: NAHDIM_clean_sbu_0, # of connection points: 4
#     Node 6, Type 0, BuildingBlock: NAHDIM_clean_sbu_0, # of connection points: 4
#     Node 7, Type 0, BuildingBlock: NAHDIM_clean_sbu_0, # of connection points: 4
#     Node 8, Type 0, BuildingBlock: NAHDIM_clean_sbu_0, # of connection points: 4
#     Node 9, Type 0, BuildingBlock: NAHDIM_clean_sbu_0, # of connection points: 4
#     Node 10, Type 0, BuildingBlock: NAHDIM_clean_sbu_0, # of connection points: 4
#     Node 11, Type 0, BuildingBlock: NAHDIM_clean_sbu_0, # of connection points: 4
#     Node 12, Type 0, BuildingBlock: NAHDIM_clean_sbu_0, # of connection points: 4
#     Node 13, Type 0, BuildingBlock: NAHDIM_clean_sbu_0, # of connection points: 4
#     Node 14, Type 0, BuildingBlock: NAHDIM_clean_sbu_0, # of connection points: 4
#     Node 15, Type 0, BuildingBlock: NAHDIM_clean_sbu_0, # of connection points: 4
#     Node 16, Type 0, BuildingBlock: NAHDIM_clean_sbu_0, # of connection points: 4
#     Node 17, Type 0, BuildingBlock: NAHDIM_clean_sbu_0, # of connection points: 4
#     Node 18, Type 0, BuildingBlock: NAHDIM_clean_sbu_0, # of connection points: 4
#     Node 19, Type 0, BuildingBlock: NAHDIM_clean_sbu_0, # of connection points: 4
#     Node 20, Type 0, BuildingBlock: NAHDIM_clean_sbu_0, # of connection points: 4
#     Node 21, Type 0, BuildingBlock: NAHDIM_clean_sbu_0, # of connection points: 4
#     Node 22, Type 0, BuildingBlock: NAHDIM_clean_sbu_0, # of connection points: 4
#     Node 23, Type 0, BuildingBlock: NAHDIM_clean_sbu_0, # of connection points: 4
#     Edge 24, Type (0, 0), BuildingBlock: CIFDUS_clean_linker_0, # of connection points: 2
#     Edge 25, Type (0, 0), BuildingBlock: CIFDUS_clean_linker_0, # of connection points: 2
#     Edge 26, Type (0, 0), BuildingBlock: CIFDUS_clean_linker_0, # of connection points: 2
#     Edge 27, Type (0, 0), BuildingBlock: CIFDUS_clean_linker_0, # of connection points: 2
#     Edge 28, Type (0, 0), BuildingBlock: CIFDUS_clean_linker_0, # of connection points: 2
#     Edge 29, Type (0, 0), BuildingBlock: CIFDUS_clean_linker_0, # of connection points: 2
#     Edge 30, Type (0, 0), BuildingBlock: CIFDUS_clean_linker_0, # of connection points: 2
#     Edge 31, Type (0, 0), BuildingBlock: CIFDUS_clean_linker_0, # of connection points: 2
#     Edge 32, Type (0, 0), BuildingBlock: CIFDUS_clean_linker_0, # of connection points: 2
#     Edge 33, Type (0, 0), BuildingBlock: CIFDUS_clean_linker_0, # of connection points: 2
#     Edge 34, Type (0, 0), BuildingBlock: CIFDUS_clean_linker_0, # of connection points: 2
#     Edge 35, Type (0, 0), BuildingBlock: CIFDUS_clean_linker_0, # of connection points: 2
#     Edge 36, Type (0, 0), BuildingBlock: CIFDUS_clean_linker_0, # of connection points: 2
#     Edge 37, Type (0, 0), BuildingBlock: CIFDUS_clean_linker_0, # of connection points: 2
#     Edge 38, Type (0, 0), BuildingBlock: CIFDUS_clean_linker_0, # of connection points: 2
#     Edge 39, Type (0, 0), BuildingBlock: CIFDUS_clean_linker_0, # of connection points: 2
#     Edge 40, Type (0, 0), BuildingBlock: CIFDUS_clean_linker_0, # of connection points: 2
#     Edge 41, Type (0, 0), BuildingBlock: CIFDUS_clean_linker_0, # of connection points: 2
#     Edge 42, Type (0, 0), BuildingBlock: CIFDUS_clean_linker_0, # of connection points: 2
#     Edge 43, Type (0, 0), BuildingBlock: CIFDUS_clean_linker_0, # of connection points: 2
#     Edge 44, Type (0, 0), BuildingBlock: CIFDUS_clean_linker_0, # of connection points: 2
#     Edge 45, Type (0, 0), BuildingBlock: CIFDUS_clean_linker_0, # of connection points: 2
#     Edge 46, Type (0, 0), BuildingBlock: CIFDUS_clean_linker_0, # of connection points: 2
#     Edge 47, Type (0, 0), BuildingBlock: CIFDUS_clean_linker_0, # of connection points: 2
#     Edge 48, Type (0, 0), BuildingBlock: CIFDUS_clean_linker_0, # of connection points: 2
#     Edge 49, Type (0, 0), BuildingBlock: CIFDUS_clean_linker_0, # of connection points: 2
#     Edge 50, Type (0, 0), BuildingBlock: CIFDUS_clean_linker_0, # of connection points: 2
#     Edge 51, Type (0, 0), BuildingBlock: CIFDUS_clean_linker_0, # of connection points: 2
#     Edge 52, Type (0, 0), BuildingBlock: CIFDUS_clean_linker_0, # of connection points: 2
#     Edge 53, Type (0, 0), BuildingBlock: CIFDUS_clean_linker_0, # of connection points: 2
#     Edge 54, Type (0, 0), BuildingBlock: CIFDUS_clean_linker_0, # of connection points: 2
#     Edge 55, Type (0, 0), BuildingBlock: CIFDUS_clean_linker_0, # of connection points: 2
#     Edge 56, Type (0, 0), BuildingBlock: CIFDUS_clean_linker_0, # of connection points: 2
#     Edge 57, Type (0, 0), BuildingBlock: CIFDUS_clean_linker_0, # of connection points: 2
#     Edge 58, Type (0, 0), BuildingBlock: CIFDUS_clean_linker_0, # of connection points: 2
#     Edge 59, Type (0, 0), BuildingBlock: CIFDUS_clean_linker_0, # of connection points: 2
#     Edge 60, Type (0, 0), BuildingBlock: CIFDUS_clean_linker_0, # of connection points: 2
#     Edge 61, Type (0, 0), BuildingBlock: CIFDUS_clean_linker_0, # of connection points: 2
#     Edge 62, Type (0, 0), BuildingBlock: CIFDUS_clean_linker_0, # of connection points: 2
#     Edge 63, Type (0, 0), BuildingBlock: CIFDUS_clean_linker_0, # of connection points: 2
#     Edge 64, Type (0, 0), BuildingBlock: CIFDUS_clean_linker_0, # of connection points: 2
#     Edge 65, Type (0, 0), BuildingBlock: CIFDUS_clean_linker_0, # of connection points: 2
#     Edge 66, Type (0, 0), BuildingBlock: CIFDUS_clean_linker_0, # of connection points: 2
#     Edge 67, Type (0, 0), BuildingBlock: CIFDUS_clean_linker_0, # of connection points: 2
#     Edge 68, Type (0, 0), BuildingBlock: CIFDUS_clean_linker_0, # of connection points: 2
#     Edge 69, Type (0, 0), BuildingBlock: CIFDUS_clean_linker_0, # of connection points: 2
#     Edge 70, Type (0, 0), BuildingBlock: CIFDUS_clean_linker_0, # of connection points: 2
#     Edge 71, Type (0, 0), BuildingBlock: CIFDUS_clean_linker_0, # of connection points: 2
# Relax obj value: 0.368
# Max RMSD: 0.322
# Mean RMSD: 0.307
data_MOF--net-unv--node1-NAHDIM_clean_sbu_0--edge1-CIFDUS_clean_linker_0
_symmetry_space_group_name_H-M    P1
_symmetry_Int_Tables_number       1
_symmetry_cell_setting            triclinic
loop_
_symmetry_equiv_pos_as_xyz
'x, y, z'
_cell_length_a     42.409681
_cell_length_b     42.227833
_cell_length_c     42.358229
_cell_angle_alpha  90.080706
_cell_angle_beta   90.133351
_cell_angle_gamma 90.108508
loop_
_atom_site_label
_atom_site_type_symbol
_atom_site_fract_x
_atom_site_fract_y
_atom_site_fract_z
_atom_type_partial_charge
C0 C 0.98904 0.16527 0.35712 0.0
O1 O 0.97234 0.14291 0.34337 0.0
O2 O 0.02276 0.08274 0.35073 0.0
Zn3 Zn 0.02011 0.11227 0.388 0.0
O4 O 0.05936 0.1097 0.41441 0.0
C5 C 0.96437 0.07682 0.40806 0.0
O6 O 0.95699 0.07594 0.37793 0.0
O7 O 0.01049 0.15756 0.37662 0.0
C8 C 0.08256 0.09171 0.40841 0.0
O9 O 0.08401 0.07757 0.38082 0.0
C10 C 0.03635 0.08669 0.32434 0.0
O11 O 0.05061 0.11366 0.31836 0.0
O12 O 0.98786 0.09328 0.41703 0.0
C13 C 0.96776 0.35313 0.35032 0.0
O14 O 0.94195 0.36088 0.33497 0.0
O15 O 0.96707 0.4388 0.32187 0.0
Zn16 Zn 0.96511 0.41883 0.36488 0.0
O17 O 0.92174 0.41722 0.38371 0.0
C18 C 0.01525 0.46136 0.38743 0.0
O19 O 0.02993 0.45407 0.36113 0.0
O20 O 0.98303 0.37467 0.36482 0.0
C21 C 0.90494 0.442 0.3858 0.0
O22 O 0.91428 0.46799 0.37158 0.0
C23 C 0.94505 0.44551 0.30262 0.0
O24 O 0.9159 0.43728 0.30915 0.0
O25 O 0.98917 0.44799 0.39385 0.0
C26 C 0.98359 0.85068 0.17499 0.0
O27 O 0.95828 0.86801 0.1794 0.0
O28 O 0.03173 0.93709 0.18814 0.0
Zn29 Zn 0.0129 0.90974 0.1539 0.0
O30 O 0.03854 0.91206 0.11426 0.0
C31 C 0.95631 0.94693 0.16162 0.0
O32 O 0.96534 0.94802 0.1913 0.0
O33 O 0.00886 0.86388 0.16572 0.0
C34 C 0.06821 0.90894 0.11187 0.0
O35 O 0.08518 0.90382 0.13734 0.0
C36 C 0.04094 0.96471 0.18044 0.0
O37 O 0.04098 0.97265 0.15046 0.0
O38 O 0.9714 0.92951 0.14241 0.0
C39 C 0.99494 0.66389 0.15173 0.0
O40 O 0.96872 0.6493 0.15958 0.0
O41 O 0.987 0.57855 0.15881 0.0
Zn42 Zn 0.00922 0.60316 0.12475 0.0
O43 O 0.98645 0.5997 0.08323 0.0
C44 C 0.06193 0.56235 0.13857 0.0
O45 O 0.0509 0.56394 0.16748 0.0
O46 O 0.01612 0.64865 0.13696 0.0
C47 C 0.96122 0.61283 0.07375 0.0
O48 O 0.94574 0.63188 0.09269 0.0
C49 C 0.95938 0.5668 0.159 0.0
O50 O 0.94002 0.57249 0.13545 0.0
O51 O 0.04999 0.58004 0.11743 0.0
C52 C 0.32193 0.02613 0.14293 0.0
O53 O 0.31169 0.05543 0.14465 0.0
O54 O 0.28742 0.05222 0.06448 0.0
Zn55 Zn 0.33197 0.04382 0.07861 0.0
O56 O 0.35919 0.08174 0.08879 0.0
C57 C 0.34713 0.02658 0.01456 0.0
O58 O 0.32621 0.04851 0.008 0.0
O59 O 0.33145 0.01555 0.11656 0.0
C60 C 0.3677 0.10205 0.06839 0.0
O61 O 0.35574 0.10079 0.03982 0.0
C62 C 0.27542 0.07673 0.05191 0.0
O63 O 0.29195 0.10297 0.05034 0.0
O64 O 0.35328 0.02019 0.04325 0.0
C65 C 0.65344 0.51653 0.13896 0.0
O66 O 0.66853 0.49022 0.13226 0.0
O67 O 0.67168 0.49193 0.06208 0.0
Zn68 Zn 0.62917 0.50251 0.0793 0.0
O69 O 0.60367 0.46345 0.08783 0.0
C70 C 0.59817 0.50905 0.02219 0.0
O71 O 0.60699 0.47925 0.02217 0.0
O72 O 0.63417 0.52767 0.11888 0.0
C73 C 0.57497 0.46851 0.09464 0.0
O74 O 0.56582 0.49785 0.09943 0.0
C75 C 0.67947 0.46531 0.05053 0.0
O76 O 0.65908 0.44185 0.05055 0.0
O77 O 0.60565 0.5264 0.04561 0.0
C78 C 0.3418 0.94888 0.31337 0.0
O79 O 0.35338 0.92008 0.31193 0.0
O80 O 0.32009 0.92051 0.40324 0.0
Zn81 Zn 0.3551 0.94247 0.3801 0.0
O82 O 0.39003 0.91162 0.37167 0.0
C83 C 0.36533 0.9808 0.4367 0.0
O84 O 0.34342 0.96261 0.44899 0.0
O85 O 0.33979 0.96259 0.34 0.0
C86 C 0.4167 0.92234 0.36316 0.0
O87 O 0.41978 0.95289 0.35814 0.0
C88 C 0.29464 0.91015 0.39117 0.0
O89 O 0.28988 0.91303 0.36065 0.0
O90 O 0.37328 0.97675 0.40805 0.0
C91 C 0.66212 0.55652 0.32113 0.0
O92 O 0.6494 0.5839 0.32837 0.0
O93 O 0.67443 0.56319 0.41538 0.0
Zn94 Zn 0.64516 0.5418 0.38481 0.0
O95 O 0.60475 0.56603 0.38132 0.0
C96 C 0.64957 0.48542 0.42389 0.0
O97 O 0.6771 0.49723 0.43202 0.0
O98 O 0.664 0.53516 0.34209 0.0
C99 C 0.60188 0.59579 0.38445 0.0
O100 O 0.62714 0.61322 0.38923 0.0
C101 C 0.70393 0.56586 0.41109 0.0
O102 O 0.71606 0.55671 0.38407 0.0
O103 O 0.633 0.4997 0.40334 0.0
C104 C 0.15076 0.32566 0.02888 0.0
O105 O 0.14754 0.33038 0.05937 0.0
O106 O 0.06099 0.32016 0.04892 0.0
Zn107 Zn 0.08852 0.35167 0.0269 0.0
O108 O 0.09828 0.38915 0.05452 0.0
C109 C 0.04451 0.34991 0.97498 0.0
O110 O 0.0425 0.31981 0.98256 0.0
O111 O 0.128 0.33223 0.01057 0.0
C112 C 0.11159 0.41269 0.0414 0.0
O113 O 0.11998 0.41032 0.01164 0.0
C114 C 0.03391 0.3299 0.05721 0.0
O115 O 0.02766 0.36029 0.05495 0.0
O116 O 0.06346 0.36776 0.99004 0.0
C117 C 0.15297 0.64701 0.53275 0.0
O118 O 0.13992 0.65436 0.50557 0.0
O119 O 0.06957 0.67931 0.54813 0.0
Zn120 Zn 0.08881 0.63579 0.54929 0.0
O121 O 0.07765 0.61037 0.51039 0.0
C122 C 0.04964 0.62392 0.60395 0.0
O123 O 0.048 0.65494 0.60548 0.0
O124 O 0.1355 0.63828 0.55544 0.0
C125 C 0.04859 0.60316 0.50817 0.0
O126 O 0.02877 0.61546 0.52858 0.0
C127 C 0.06121 0.69406 0.52339 0.0
O128 O 0.06638 0.68125 0.4956 0.0
O129 O 0.06845 0.61129 0.58435 0.0
C130 C 0.84959 0.86456 0.49676 0.0
O131 O 0.8655 0.88423 0.4788 0.0
O132 O 0.93373 0.84817 0.54004 0.0
Zn133 Zn 0.89757 0.87855 0.54472 0.0
O134 O 0.90702 0.92061 0.52383 0.0
C135 C 0.90246 0.89747 0.61256 0.0
O136 O 0.88974 0.90168 0.64047 0.0
O137 O 0.85932 0.8589 0.52457 0.0
C138 C 0.93513 0.9309 0.52211 0.0
O139 O 0.9582 0.9137 0.53353 0.0
C140 C 0.94409 0.84098 0.51283 0.0
O141 O 0.9314 0.85431 0.48785 0.0
O142 O 0.88618 0.88477 0.59071 0.0
C143 C 0.34021 0.63874 0.52308 0.0
O144 O 0.35308 0.63425 0.55094 0.0
O145 O 0.43142 0.6535 0.51971 0.0
Zn146 Zn 0.40173 0.62037 0.50275 0.0
O147 O 0.40454 0.58133 0.52969 0.0
C148 C 0.43073 0.63025 0.44271 0.0
O149 O 0.42535 0.66006 0.44969 0.0
O150 O 0.35695 0.63505 0.49853 0.0
C151 C 0.41034 0.58201 0.55913 0.0
O152 O 0.41328 0.60948 0.57345 0.0
C153 C 0.4266 0.68311 0.51812 0.0
O154 O 0.39896 0.69335 0.50851 0.0
O155 O 0.41972 0.60877 0.46058 0.0
C156 C 0.4759 0.64976 0.83641 0.0
O157 O 0.50336 0.63541 0.83562 0.0
O158 O 0.47585 0.57344 0.78965 0.0
Zn159 Zn 0.45715 0.58634 0.83156 0.0
O160 O 0.48622 0.57351 0.86695 0.0
C161 C 0.40999 0.53765 0.82349 0.0
O162 O 0.42533 0.5324 0.7971 0.0
O163 O 0.45093 0.63324 0.83412 0.0
C164 C 0.4899 0.54412 0.87216 0.0
O165 O 0.47562 0.52353 0.85373 0.0
C166 C 0.50391 0.56315 0.78725 0.0
O167 O 0.52242 0.56324 0.81212 0.0
O168 O 0.41716 0.56187 0.8399 0.0
C169 C 0.49555 0.83441 0.87133 0.0
O170 O 0.46804 0.84817 0.875 0.0
O171 O 0.51021 0.91938 0.83434 0.0
Zn172 Zn 0.51554 0.89838 0.87672 0.0
O173 O 0.47802 0.90831 0.90386 0.0
C174 C 0.56914 0.93957 0.88796 0.0
O175 O 0.56676 0.94529 0.85758 0.0
O176 O 0.52038 0.85132 0.87172 0.0
C177 C 0.46309 0.93402 0.8997 0.0
O178 O 0.47111 0.95262 0.87621 0.0
C179 C 0.49501 0.90756 0.81127 0.0
O180 O 0.48235 0.87931 0.81407 0.0
O181 O 0.55177 0.9183 0.90013 0.0
C182 C 0.55374 0.32029 0.63026 0.0
O183 O 0.58304 0.33003 0.62744 0.0
O184 O 0.55085 0.4111 0.65838 0.0
Zn185 Zn 0.54049 0.38597 0.61939 0.0
O186 O 0.57587 0.39102 0.58848 0.0
C187 C 0.48144 0.41956 0.61748 0.0
O188 O 0.48309 0.41622 0.64827 0.0
O189 O 0.53155 0.34033 0.62834 0.0
C190 C 0.57062 0.38581 0.5594 0.0
O191 O 0.54292 0.37471 0.55083 0.0
C192 C 0.55188 0.44085 0.65387 0.0
O193 O 0.54893 0.45178 0.62499 0.0
O194 O 0.50221 0.40658 0.6002 0.0
C195 C 0.48631 0.14398 0.63203 0.0
O196 O 0.45706 0.13383 0.63379 0.0
O197 O 0.49853 0.05643 0.665 0.0
Zn198 Zn 0.50029 0.07773 0.62269 0.0
O199 O 0.46031 0.06892 0.59856 0.0
C200 C 0.55513 0.03882 0.60722 0.0
O201 O 0.55561 0.03205 0.63747 0.0
O202 O 0.50832 0.12417 0.62749 0.0
C203 C 0.46062 0.07426 0.56904 0.0
O204 O 0.4854 0.08823 0.55672 0.0
C205 C 0.4883 0.02818 0.66656 0.0
O206 O 0.47818 0.01427 0.64067 0.0
O207 O 0.53491 0.05834 0.59675 0.0
C208 C 0.81243 0.52311 0.65686 0.0
O209 O 0.81808 0.55165 0.64587 0.0
O210 O 0.81506 0.54064 0.57092 0.0
Zn211 Zn 0.83761 0.50867 0.59771 0.0
O212 O 0.88045 0.52596 0.60813 0.0
C213 C 0.82191 0.4653 0.54849 0.0
O214 O 0.79556 0.48159 0.54883 0.0
O215 O 0.81646 0.49951 0.63871 0.0
C216 C 0.90473 0.5085 0.61019 0.0
O217 O 0.90203 0.47788 0.60532 0.0
C218 C 0.83002 0.54802 0.54597 0.0
O219 O 0.85921 0.53811 0.5428 0.0
O220 O 0.84239 0.47023 0.56994 0.0
C221 C 0.15894 0.93328 0.64483 0.0
O222 O 0.147 0.90477 0.64117 0.0
O223 O 0.18215 0.90513 0.55837 0.0
Zn224 Zn 0.15071 0.93468 0.57775 0.0
O225 O 0.10775 0.9145 0.58092 0.0
C226 C 0.16864 0.97986 0.52902 0.0
O227 O 0.19516 0.96388 0.52835 0.0
O228 O 0.16395 0.95018 0.62057 0.0
C229 C 0.08502 0.93314 0.58687 0.0
O230 O 0.09103 0.96346 0.59062 0.0
C231 C 0.17506 0.89419 0.53129 0.0
O232 O 0.14621 0.89838 0.5207 0.0
O233 O 0.14719 0.97219 0.54854 0.0
C234 C 0.83904 0.47036 0.83381 0.0
O235 O 0.84207 0.44183 0.84576 0.0
O236 O 0.82897 0.4725 0.92255 0.0
Zn237 Zn 0.86349 0.48677 0.89405 0.0
O238 O 0.89824 0.45473 0.89444 0.0
C239 C 0.86342 0.5454 0.92931 0.0
O240 O 0.83268 0.54163 0.92824 0.0
O241 O 0.84707 0.49416 0.85037 0.0
C242 C 0.92593 0.46394 0.8876 0.0
O243 O 0.93015 0.49319 0.87791 0.0
C244 C 0.81796 0.44492 0.92719 0.0
O245 O 0.82871 0.42079 0.91089 0.0
O246 O 0.88088 0.52628 0.91413 0.0
C247 C 0.14341 0.99054 0.82307 0.0
O248 O 0.14934 0.02095 0.82604 0.0
O249 O 0.15241 0.02052 0.90775 0.0
Zn250 Zn 0.11717 -0.00165 0.88526 0.0
O251 O 0.08252 0.02936 0.87684 0.0
C252 C 0.11848 0.9551 0.93742 0.0
O253 O 0.14899 0.95996 0.93516 0.0
O254 O 0.1304 0.9759 0.84574 0.0
C255 C 0.05536 0.01903 0.86937 0.0
O256 O 0.05172 0.98856 0.86414 0.0
C257 C 0.15758 0.05012 0.90929 0.0
O258 O 0.14129 0.06968 0.89157 0.0
O259 O 0.10018 0.96742 0.91704 0.0
C260 C 0.67161 0.81056 0.48609 0.0
O261 O 0.65508 0.80186 0.51081 0.0
O262 O 0.58288 0.80577 0.48596 0.0
Zn263 Zn 0.61329 0.83923 0.47076 0.0
O264 O 0.61481 0.87236 0.50471 0.0
C265 C 0.57613 0.84321 0.41406 0.0
O266 O 0.57372 0.81249 0.41832 0.0
O267 O 0.65768 0.82486 0.46371 0.0
C268 C 0.61877 0.90147 0.49835 0.0
O269 O 0.62308 0.91007 0.46887 0.0
C270 C 0.55579 0.81728 0.49188 0.0
O271 O 0.55151 0.8479 0.48847 0.0
O272 O 0.59419 0.85914 0.43207 0.0
C273 C 0.64748 0.16343 0.01506 0.0
O274 O 0.63646 0.15977 0.98626 0.0
O275 O 0.56266 0.16317 -0.00185 0.0
Zn276 Zn 0.58866 0.13637 0.02731 0.0
O277 O 0.59665 0.09511 0.0052 0.0
C278 C 0.54393 0.15318 0.07308 0.0
O279 O 0.55052 0.18122 0.06137 0.0
O280 O 0.6299 0.1563 0.0382 0.0
C281 C 0.59727 0.06849 0.01912 0.0
O282 O 0.59319 0.06737 0.04983 0.0
C283 C 0.53615 0.1509 0.99106 0.0
O284 O 0.53022 0.12175 0.00015 0.0
O285 O 0.56089 0.12972 0.06507 0.0
C286 C 0.32933 0.32638 0.97711 0.0
O287 O 0.33217 0.326 0.94622 0.0
O288 O 0.42094 0.31833 0.95978 0.0
Zn289 Zn 0.39179 0.35278 0.97441 0.0
O290 O 0.38157 0.38306 0.93933 0.0
C291 C 0.43651 0.36557 0.02439 0.0
O292 O 0.4432 0.33539 0.02112 0.0
O293 O 0.35225 0.33608 0.99384 0.0
C294 C 0.3824 0.3765 0.91007 0.0
O295 O 0.38939 0.34756 0.90112 0.0
C296 C 0.41456 0.28897 0.96096 0.0
O297 O 0.38631 0.2799 0.96983 0.0
O298 O 0.41497 0.37777 0.00744 0.0
C299 C 0.83317 0.15307 0.01681 0.0
O300 O 0.84403 0.15136 0.04582 0.0
O301 O 0.92183 0.15911 0.02605 0.0
Zn302 Zn 0.89419 0.12812 0.00268 0.0
O303 O 0.89147 0.08769 0.02751 0.0
C304 C 0.93568 0.13498 0.94873 0.0
O305 O 0.94019 0.16363 0.96002 0.0
O306 O 0.85087 0.1449 0.99409 0.0
C307 C 0.89191 0.08645 0.05748 0.0
O308 O 0.89294 0.11293 0.07376 0.0
C309 C 0.91568 0.18828 0.02993 0.0
O310 O 0.88897 0.19971 0.01916 0.0
O311 O 0.91595 0.11678 0.96217 0.0
H312 H 0.13081 0.03102 0.53395 0.0
H313 H 0.19084 0.98103 0.4688 0.0
H314 H 0.17246 0.01461 0.42553 0.0
H315 H 0.13411 0.05339 0.40537 0.0
H316 H 0.07499 0.10397 0.47121 0.0
H317 H 0.0988 0.07551 0.51507 0.0
C318 C 0.1402 0.02789 0.51035 0.0
C319 C 0.16172 0.00342 0.50438 0.0
C320 C 0.12964 0.0473 0.48569 0.0
C321 C 0.17418 -0.00024 0.47389 0.0
C322 C 0.16357 0.01883 0.44913 0.0
C323 C 0.12691 0.05868 0.42936 0.0
C324 C 0.10234 0.0803 0.43486 0.0
C325 C 0.14055 0.04202 0.4546 0.0
C326 C 0.09364 0.08723 0.46616 0.0
C327 C 0.1071 0.07081 0.49134 0.0
H328 H 0.89997 0.40632 0.43854 0.0
H329 H 0.85514 0.4827 0.38808 0.0
H330 H 0.82059 0.4926 0.43322 0.0
H331 H 0.8091 0.48478 0.48936 0.0
H332 H 0.85938 0.41343 0.54186 0.0
H333 H 0.88554 0.3958 0.49346 0.0
C334 C 0.88208 0.42459 0.4371 0.0
C335 C 0.88007 0.4438 0.41006 0.0
C336 C 0.8635 0.43114 0.46366 0.0
C337 C 0.85712 0.46768 0.4087 0.0
C338 C 0.83748 0.47341 0.43453 0.0
C339 C 0.82507 0.46474 0.48999 0.0
C340 C 0.83223 0.45017 0.51896 0.0
C341 C 0.84128 0.45604 0.4625 0.0
C342 C 0.8535 0.42479 0.51971 0.0
C343 C 0.86855 0.41489 0.49211 0.0
H344 H 0.03907 0.91299 0.05505 0.0
H345 H 0.13123 0.9139 0.09852 0.0
H346 H 0.15535 0.92514 0.04734 0.0
H347 H 0.14968 0.93896 0.99124 0.0
H348 H 0.05711 0.93924 0.94852 0.0
H349 H 0.03379 0.92284 -0.00152 0.0
C350 C 0.06447 0.91544 0.05337 0.0
C351 C 0.08329 0.91298 0.08066 0.0
C352 C 0.0781 0.92211 0.02401 0.0
C353 C 0.11618 0.91584 0.07793 0.0
C354 C 0.12999 0.9223 0.04867 0.0
C355 C 0.12446 0.93494 0.99269 0.0
C356 C 0.10515 0.94056 0.96621 0.0
C357 C 0.1111 0.92607 0.02168 0.0
C358 C 0.07251 0.93527 0.96856 0.0
C359 C 0.05912 0.92599 -0.00285 0.0
H360 H 0.90145 0.62166 0.05124 0.0
H361 H 0.99267 0.58447 0.02563 0.0
H362 H 0.97109 0.56417 0.97629 0.0
H363 H 0.92554 0.55188 0.9433 0.0
H364 H 0.83346 0.58626 0.96958 0.0
H365 H 0.85629 0.61329 0.0153 0.0
C366 C 0.91667 0.60954 0.03463 0.0
C367 C 0.94852 0.60424 0.04233 0.0
C368 C 0.90396 0.5973 0.00643 0.0
C369 C 0.96796 0.58851 0.02052 0.0
C370 C 0.95567 0.57691 0.99224 0.0
C371 C 0.91047 0.56572 0.95868 0.0
C372 C 0.87777 0.56669 0.95319 0.0
C373 C 0.92356 0.58039 0.98537 0.0
C374 C 0.85869 0.58492 0.97333 0.0
C375 C 0.8717 0.60027 -0.00039 0.0
H376 H 0.41636 0.0887 0.1075 0.0
H377 H 0.38292 0.15834 0.04102 0.0
H378 H 0.4343 0.18474 0.0422 0.0
H379 H 0.49052 0.18237 0.05495 0.0
H380 H 0.52564 0.1082 0.11535 0.0
H381 H 0.47173 0.08937 0.12422 0.0
C382 C 0.42008 0.11015 0.09394 0.0
C383 C 0.39599 0.12159 0.07416 0.0
C384 C 0.45012 0.1241 0.09341 0.0
C385 C 0.40121 0.1491 0.05634 0.0
C386 C 0.43059 0.16408 0.05689 0.0
C387 C 0.48627 0.16274 0.0709 0.0
C388 C 0.51187 0.14673 0.08469 0.0
C389 C 0.45553 0.15101 0.07433 0.0
C390 C 0.50617 0.12088 0.10466 0.0
C391 C 0.47543 0.11003 0.10952 0.0
H392 H 0.51176 0.4756 0.08953 0.0
H393 H 0.58514 0.40493 0.08763 0.0
H394 H 0.54716 0.36529 0.06938 0.0
H395 H 0.49489 0.35274 0.0475 0.0
H396 H 0.42294 0.42489 0.04563 0.0
H397 H 0.45857 0.46189 0.07203 0.0
C398 C 0.51937 0.45139 0.08575 0.0
C399 C 0.55128 0.44329 0.08966 0.0
C400 C 0.49772 0.42908 0.07419 0.0
C401 C 0.56072 0.41181 0.0846 0.0
C402 C 0.53905 0.38917 0.07404 0.0
C403 C 0.48683 0.37637 0.05339 0.0
C404 C 0.45645 0.38618 0.04435 0.0
C405 C 0.50775 0.39783 0.06773 0.0
C406 C 0.44635 0.4169 0.05205 0.0
C407 C 0.4667 0.43807 0.06714 0.0
H408 H 0.51966 0.8207 0.39391 0.0
H409 H 0.57865 0.90408 0.3927 0.0
H410 H 0.53483 0.93533 0.37199 0.0
H411 H 0.47814 0.94044 0.36194 0.0
H412 H 0.4183 0.85783 0.36736 0.0
H413 H 0.46415 0.82473 0.37839 0.0
C414 C 0.52319 0.84552 0.38835 0.0
C415 C 0.55228 0.86012 0.39505 0.0
C416 C 0.49758 0.86358 0.37765 0.0
C417 C 0.5564 0.89235 0.38791 0.0
C418 C 0.53131 0.91026 0.37622 0.0
C419 C 0.47517 0.9151 0.36492 0.0
C420 C 0.44479 0.90169 0.36425 0.0
C421 C 0.5015 0.89638 0.3722 0.0
C422 C 0.44139 0.8688 0.36811 0.0
C423 C 0.4676 0.84986 0.37446 0.0
H424 H 0.47945 0.66767 0.42497 0.0
H425 H 0.44064 0.57384 0.41315 0.0
H426 H 0.4898 0.55609 0.389 0.0
H427 H 0.54591 0.56502 0.37962 0.0
H428 H 0.58618 0.65765 0.39578 0.0
H429 H 0.53418 0.67821 0.40955 0.0
C430 C 0.48141 0.64358 0.41625 0.0
C431 C 0.4566 0.62198 0.42104 0.0
C432 C 0.5102 0.63321 0.40374 0.0
C433 C 0.45955 0.59081 0.40986 0.0
C434 C 0.48769 0.58062 0.39625 0.0
C435 C 0.5433 0.58985 0.38566 0.0
C436 C 0.57 0.60963 0.38727 0.0
C437 C 0.51358 0.60124 0.39442 0.0
C438 C 0.56608 0.64181 0.39473 0.0
C439 C 0.53636 0.65358 0.40266 0.0
H440 H 0.10296 0.42491 0.10391 0.0
H441 H 0.12181 0.4705 0.01475 0.0
H442 H 0.11302 0.52222 0.03873 0.0
H443 H 0.09203 0.55355 0.0827 0.0
H444 H 0.07281 0.50806 0.17182 0.0
H445 H 0.09048 0.45751 0.1504 0.0
C446 C 0.10568 0.4462 0.08988 0.0
C447 C 0.11234 0.4438 0.05746 0.0
C448 C 0.10039 0.47594 0.10377 0.0
C449 C 0.11637 0.47162 0.0397 0.0
C450 C 0.11125 0.50126 0.05337 0.0
C451 C 0.09241 0.53273 0.09767 0.0
C452 C 0.08051 0.53448 0.12858 0.0
C453 C 0.10206 0.50358 0.08504 0.0
C454 C 0.08163 0.5074 0.14785 0.0
C455 C 0.09149 0.47836 0.13554 0.0
H456 H 0.98212 0.49418 0.43102 0.0
H457 H 0.07449 0.48738 0.38912 0.0
H458 H 0.09298 0.53141 0.42207 0.0
H459 H 0.08278 0.57159 0.4633 0.0
H460 H 0.98947 0.57862 0.50338 0.0
H461 H 0.97149 0.53499 0.47037 0.0
C462 C 0.00639 0.50215 0.4292 0.0
C463 C 0.027 0.4873 0.40788 0.0
C464 C 0.01663 0.52774 0.44773 0.0
C465 C 0.05819 0.49833 0.40546 0.0
C466 C 0.06874 0.52354 0.42425 0.0
C467 C 0.05847 0.56372 0.46463 0.0
C468 C 0.03757 0.5784 0.48588 0.0
C469 C 0.04814 0.53846 0.44547 0.0
C470 C 0.00612 0.56788 0.48725 0.0
C471 C 0.99578 0.54279 0.46846 0.0
H472 H 0.90074 0.96091 0.47682 0.0
H473 H 0.98563 0.96897 0.53263 0.0
H474 H -0.00011 0.01749 0.50484 0.0
H475 H 0.99061 0.05492 0.46203 0.0
H476 H 0.90846 0.04468 0.40257 0.0
H477 H 0.89044 2e-05 0.43473 0.0
C478 C 0.92214 0.97356 0.48309 0.0
C479 C 0.94218 0.96138 0.50663 0.0
C480 C 0.93068 0.001 0.46635 0.0
C481 C 0.96998 0.97777 0.5144 0.0
C482 C 0.97811 0.00554 0.49858 0.0
C483 C 0.96843 0.04335 0.4564 0.0
C484 C 0.95083 0.05318 0.42998 0.0
C485 C 0.95895 0.01702 0.47414 0.0
C486 C 0.92241 0.03758 0.4228 0.0
C487 C 0.91219 0.01197 0.44109 0.0
H488 H 0.41708 0.52329 0.53392 0.0
H489 H 0.42029 0.57404 0.62244 0.0
H490 H 0.43857 0.52629 0.6493 0.0
H491 H 0.45893 0.47199 0.64647 0.0
H492 H 0.45959 0.42281 0.55712 0.0
H493 H 0.43397 0.46798 0.5318 0.0
C494 C 0.42132 0.52384 0.55918 0.0
C495 C 0.41757 0.55228 0.57609 0.0
C496 C 0.43256 0.49657 0.57429 0.0
C497 C 0.4232 0.55252 0.60881 0.0
C498 C 0.43367 0.52523 0.62419 0.0
C499 C 0.45275 0.47087 0.62162 0.0
C500 C 0.46102 0.44413 0.60364 0.0
C501 C 0.43916 0.49736 0.60702 0.0
C502 C 0.45342 0.44319 0.57138 0.0
C503 C 0.43891 0.46903 0.5569 0.0
H504 H 0.57214 0.4751 0.97477 0.0
H505 H 0.58065 0.57048 0.01061 0.0
H506 H 0.54823 0.58997 0.96686 0.0
H507 H 0.51717 0.57959 0.91865 0.0
H508 H 0.50817 0.48364 0.88425 0.0
H509 H 0.54122 0.46472 0.92735 0.0
C510 C 0.56705 0.5002 0.97303 0.0
C511 C 0.57888 0.52133 0.99584 0.0
C512 C 0.54829 0.51112 0.9481 0.0
C513 C 0.57182 0.55373 0.99332 0.0
C514 C 0.55331 0.56487 0.96832 0.0
C515 C 0.52253 0.55456 0.92055 0.0
C516 C 0.51026 0.53307 0.89823 0.0
C517 C 0.54138 0.54374 0.9456 0.0
C518 C 0.51726 0.5007 0.90111 0.0
C519 C 0.53618 0.48983 0.92574 0.0
H520 H 0.3821 0.97282 0.01797 0.0
H521 H 0.35153 0.04555 0.95332 0.0
H522 H 0.38337 0.02218 0.91146 0.0
H523 H 0.42214 0.98292 0.89409 0.0
H524 H 0.45201 0.9095 0.95829 0.0
H525 H 0.41789 0.93112 -0.00067 0.0
C526 C 0.38232 0.98346 0.99468 0.0
C527 C 0.36474 0.01104 0.98885 0.0
C528 C 0.40051 0.96979 0.97064 0.0
C529 C 0.3649 0.02433 0.95845 0.0
C530 C 0.38315 0.01103 0.9345 0.0
C531 C 0.42099 0.97148 0.91697 0.0
C532 C 0.43978 0.94484 0.92321 0.0
C533 C 0.40136 0.98403 0.94046 0.0
C534 C 0.43779 0.93008 0.95287 0.0
C535 C 0.41839 0.9425 0.97642 0.0
H536 H 0.56028 0.39247 0.4965 0.0
H537 H 0.631 0.40656 0.56865 0.0
H538 H 0.66414 0.43505 0.53111 0.0
H539 H 0.66962 0.46199 0.48015 0.0
H540 H 0.59715 0.45079 0.40925 0.0
H541 H 0.56834 0.41479 0.44381 0.0
C542 C 0.5832 0.40123 0.50389 0.0
C543 C 0.59296 0.39776 0.53544 0.0
C544 C 0.60171 0.4184 0.48246 0.0
C545 C 0.62278 0.40919 0.54457 0.0
C546 C 0.64172 0.42557 0.52314 0.0
C547 C 0.64785 0.45119 0.47199 0.0
C548 C 0.63535 0.45938 0.44233 0.0
C549 C 0.63092 0.43126 0.49235 0.0
C550 C 0.60712 0.44514 0.43212 0.0
C551 C 0.59058 0.4246 0.4519 0.0
H552 H 0.45944 0.07397 0.50496 0.0
H553 H 0.40733 0.04209 0.58643 0.0
H554 H 0.37155 0.01226 0.55222 0.0
H555 H 0.3581 0.99142 0.4997 0.0
H556 H 0.41162 0.02195 0.4186 0.0
H557 H 0.44369 0.05619 0.45221 0.0
C558 C 0.44001 0.06087 0.51527 0.0
C559 C 0.43626 0.06008 0.54825 0.0
C560 C 0.41993 0.04325 0.49554 0.0
C561 C 0.41087 0.04301 0.56113 0.0
C562 C 0.39045 0.02583 0.54159 0.0
C563 C 0.37656 0.00579 0.4893 0.0
C564 C 0.38261 0.00384 0.4567 0.0
C565 C 0.39525 0.02516 0.50883 0.0
C566 C 0.40656 0.02278 0.44364 0.0
C567 C 0.42496 0.04238 0.46285 0.0
H568 H 0.0429 0.55999 0.6001 0.0
H569 H -0.00232 0.64405 0.63631 0.0
H570 H 0.94911 0.61426 0.64468 0.0
H571 H 0.91741 0.56676 0.63395 0.0
H572 H 0.96224 0.48309 0.5966 0.0
H573 H 0.01309 0.51036 0.5965 0.0
C574 C 0.02266 0.57168 0.61049 0.0
C575 C 0.02375 0.60438 0.61693 0.0
C576 C 0.99456 0.55463 0.61448 0.0
C577 C -0.00256 0.61899 0.63081 0.0
C578 C 0.96954 0.60203 0.63539 0.0
C579 C 0.9384 0.55437 0.62617 0.0
C580 C 0.93601 0.5232 0.61471 0.0
C581 C 0.96746 0.57024 0.62599 0.0
C582 C 0.96344 0.50719 0.6053 0.0
C583 C 0.9925 0.5228 0.60517 0.0
H584 H 0.9539 0.8624 0.59897 0.0
H585 H 0.92252 0.95804 0.61476 0.0
H586 H 0.97643 0.9777 0.60772 0.0
H587 H 0.03228 0.96751 0.59792 0.0
H588 H 0.06429 0.87177 0.5824 0.0
H589 H 0.01033 0.85222 0.58831 0.0
C590 C 0.959 0.88753 0.60042 0.0
C591 C 0.93455 0.90896 0.60673 0.0
C592 C 0.99007 0.89852 0.5967 0.0
C593 C 0.94118 0.94135 0.60955 0.0
C594 C 0.97191 0.95252 0.60562 0.0
C595 C 0.02752 0.94235 0.59582 0.0
C596 C 0.05234 0.92115 0.58985 0.0
C597 C -0.00347 0.93131 0.59931 0.0
C598 C 0.04565 0.88863 0.58706 0.0
C599 C 0.01479 0.87741 0.59045 0.0
H600 H 0.04947 0.40617 0.94474 0.0
H601 H 0.98806 0.32538 0.95591 0.0
H602 H 0.9466 0.3525 0.92641 0.0
H603 H 0.92587 0.40148 0.90307 0.0
H604 H 0.9875 0.48217 0.89188 0.0
H605 H 0.03093 0.45256 0.91531 0.0
C606 C 0.02716 0.39435 0.94031 0.0
C607 C 0.02165 0.36405 0.95284 0.0
C608 C 0.00341 0.4101 0.92349 0.0
C609 C 0.99284 0.34877 0.94656 0.0
C610 C 0.96906 0.36431 0.92984 0.0
C611 C 0.94894 0.41241 0.90531 0.0
C612 C 0.95329 0.44414 0.89624 0.0
C613 C 0.97377 0.39534 0.91904 0.0
C614 C 0.98343 0.45784 0.89885 0.0
C615 C 0.00827 0.44098 0.9124 0.0
H616 H 0.05467 0.0826 0.87981 0.0
H617 H 0.99335 0.0015 0.8693 0.0
H618 H 0.94896 0.03242 0.88878 0.0
H619 H 0.92992 0.07946 0.91683 0.0
H620 H 0.99151 0.16014 0.92858 0.0
H621 H 0.03321 0.13258 0.90007 0.0
C622 C 0.03146 0.07186 0.88117 0.0
C623 C 0.02751 0.03958 0.87381 0.0
C624 C 0.00613 0.0896 0.89294 0.0
C625 C -0.00283 0.02619 0.87516 0.0
C626 C 0.97176 0.04381 0.88646 0.0
C627 C 0.95226 0.09126 0.91261 0.0
C628 C 0.95784 0.12151 0.92542 0.0
C629 C 0.97632 0.07508 0.8967 0.0
C630 C 0.98668 0.13673 0.91925 0.0
C631 C 0.01063 0.12091 0.90309 0.0
H632 H 0.58272 0.98189 0.61762 0.0
H633 H 0.56808 0.05277 0.54579 0.0
H634 H 0.59044 0.01745 0.50605 0.0
H635 H 0.60809 0.96436 0.49075 0.0
H636 H 0.61903 0.89225 0.56205 0.0
H637 H 0.60447 0.93021 0.60298 0.0
C638 C 0.58502 0.98986 0.59341 0.0
C639 C 0.57358 0.01979 0.58461 0.0
C640 C 0.59691 0.96906 0.57051 0.0
C641 C 0.57654 0.02971 0.55309 0.0
C642 C 0.58924 0.00951 0.53034 0.0
C643 C 0.60781 0.95709 0.5153 0.0
C644 C 0.61433 0.92548 0.52332 0.0
C645 C 0.59856 0.97878 0.53861 0.0
C646 C 0.6138 0.9164 0.55523 0.0
C647 C 0.60546 0.93807 0.57866 0.0
H648 H 0.61309 0.06269 0.95735 0.0
H649 H 0.5839 0.0082 0.03836 0.0
H650 H 0.5774 0.96137 0.00508 0.0
H651 H 0.57297 0.93826 0.9521 0.0
H652 H 0.6007 0.99336 0.87092 0.0
H653 H 0.61551 0.03733 0.9053 0.0
C654 C 0.60571 0.04046 0.96781 0.0
C655 C 0.59838 0.03909 0.00016 0.0
C656 C 0.60165 0.01375 0.9485 0.0
C657 C 0.58942 0.00998 0.01347 0.0
C658 C 0.5856 0.9832 0.99443 0.0
C659 C 0.58285 0.95963 0.94192 0.0
C660 C 0.5851 0.96271 0.90891 0.0
C661 C 0.59061 0.98513 0.96176 0.0
C662 C 0.59837 0.99043 0.89621 0.0
C663 C 0.60668 0.0157 0.91585 0.0
H664 H 0.40559 0.47651 0.80362 0.0
H665 H 0.37641 0.53944 0.87845 0.0
H666 H 0.36095 0.49414 0.91058 0.0
H667 H 0.36415 0.43715 0.92068 0.0
H668 H 0.39583 0.37421 0.84694 0.0
H669 H 0.40156 0.41905 0.81105 0.0
C670 C 0.3951 0.48041 0.82663 0.0
C671 C 0.39276 0.51134 0.83884 0.0
C672 C 0.38724 0.45421 0.84542 0.0
C673 C 0.37885 0.51589 0.86861 0.0
C674 C 0.37018 0.48997 0.8871 0.0
C675 C 0.37185 0.43314 0.8966 0.0
C676 C 0.38021 0.40246 0.88673 0.0
C677 C 0.37567 0.45907 0.8763 0.0
C678 C 0.38957 0.39762 0.85528 0.0
C679 C 0.39295 0.42328 0.83475 0.0
H680 H 0.89519 0.07507 0.12069 0.0
H681 H 0.8977 0.02824 0.03002 0.0
H682 H 0.91312 0.97889 0.05536 0.0
H683 H 0.93305 0.95129 0.10203 0.0
H684 H 0.93217 -0.00169 0.1926 0.0
H685 H 0.90823 0.04496 0.1686 0.0
C686 C 0.89864 0.05396 0.10652 0.0
C687 C 0.89593 0.05557 0.07345 0.0
C688 C 0.90793 0.02566 0.12119 0.0
C689 C 0.90001 0.02784 0.05549 0.0
C690 C 0.90889 -0.00044 0.06994 0.0
C691 C 0.92705 0.97149 0.11667 0.0
C692 C 0.93497 0.97151 0.14893 0.0
C693 C 0.914 -0.00148 0.10262 0.0
C694 C 0.92658 0.9977 0.16764 0.0
C695 C 0.91308 0.02453 0.15389 0.0
H696 H 0.02053 0.21666 0.38006 0.0
H697 H 0.94225 0.19007 0.32022 0.0
H698 H 0.92964 0.24582 0.31183 0.0
H699 H 0.93959 0.30201 0.32301 0.0
H700 H 0.01773 0.32858 0.38303 0.0
H701 H 0.03169 0.27292 0.38962 0.0
C702 C 0.00076 0.22302 0.36509 0.0
C703 C 0.98227 0.19914 0.35095 0.0
C704 C 0.99357 0.25513 0.3604 0.0
C705 C 0.95685 0.20789 0.33148 0.0
C706 C 0.94959 0.2398 0.32667 0.0
C707 C 0.95979 0.29569 0.3374 0.0
C708 C 0.97748 0.3195 0.35262 0.0
C709 C 0.96761 0.2636 0.34124 0.0
C710 C 0.00365 0.31079 0.37109 0.0
C711 C 0.01163 0.27893 0.37493 0.0
H712 H 0.95154 0.70478 0.1757 0.0
H713 H 0.04737 0.70005 0.14179 0.0
H714 H 0.05297 0.75714 0.14849 0.0
H715 H 0.02976 0.80864 0.16068 0.0
H716 H 0.93342 0.81403 0.19296 0.0
H717 H 0.92909 0.75635 0.1905 0.0
C718 C 0.97374 0.71618 0.17002 0.0
C719 C -0.00108 0.69815 0.15805 0.0
C720 C 0.97671 0.74914 0.17356 0.0
C721 C 0.02753 0.71334 0.15085 0.0
C722 C 0.03077 0.74602 0.15468 0.0
C723 C 0.00787 0.79725 0.16751 0.0
C724 C 0.98189 0.8157 0.1768 0.0
C725 C 0.00537 0.76419 0.16553 0.0
C726 C 0.95376 0.80044 0.18559 0.0
C727 C 0.95123 0.76745 0.18412 0.0
H728 H 0.30757 0.04297 0.20317 0.0
H729 H 0.34212 0.96488 0.14724 0.0
H730 H 0.34967 0.93346 0.19494 0.0
H731 H 0.34905 0.92912 0.25268 0.0
H732 H 0.31545 0.00763 0.30862 0.0
H733 H 0.3048 0.03778 0.26072 0.0
C734 C 0.31655 0.019 0.20136 0.0
C735 C 0.32443 0.00641 0.17167 0.0
C736 C 0.32112 0.00114 0.2289 0.0
C737 C 0.33597 0.97526 0.16979 0.0
C738 C 0.34033 0.95725 0.19707 0.0
C739 C 0.33917 0.95272 0.25441 0.0
C740 C 0.33325 0.96612 0.28422 0.0
C741 C 0.33338 0.9701 0.22678 0.0
C742 C 0.3204 0.99676 0.28599 0.0
C743 C 0.31431 0.01406 0.2586 0.0
H744 H 0.68569 0.49358 0.18922 0.0
H745 H 0.6285 0.57257 0.15927 0.0
H746 H 0.62963 0.59413 0.21278 0.0
H747 H 0.64246 0.58773 0.26884 0.0
H748 H 0.69696 0.50703 0.29918 0.0
H749 H 0.70168 0.48919 0.24455 0.0
C750 C 0.67376 0.5157 0.19428 0.0
C751 C 0.65676 0.53126 0.1704 0.0
C752 C 0.67395 0.5276 0.22516 0.0
C753 C 0.64152 0.55996 0.17733 0.0
C754 C 0.64215 0.57232 0.2079 0.0
C755 C 0.65585 0.56655 0.26345 0.0
C756 C 0.66913 0.54858 0.28799 0.0
C757 C 0.65767 0.55593 0.23214 0.0
C758 C 0.68631 0.52113 0.28067 0.0
C759 C 0.68895 0.51087 0.24948 0.0
H760 H 0.27372 0.31302 0.94807 0.0
H761 H 0.31619 0.32456 0.04012 0.0
H762 H 0.26441 0.32131 0.06479 0.0
H763 H 0.20686 0.3216 0.05968 0.0
H764 H 0.16435 0.31214 0.96741 0.0
H765 H 0.21638 0.30773 0.94349 0.0
C766 C 0.27171 0.31435 0.97356 0.0
C767 C 0.2987 0.31955 0.99215 0.0
C768 C 0.24183 0.31307 0.98758 0.0
C769 C 0.29572 0.32095 0.02519 0.0
C770 C 0.26611 0.31913 0.03935 0.0
C771 C 0.20894 0.31804 0.03441 0.0
C772 C 0.1818 0.31771 0.01533 0.0
C773 C 0.23894 0.31619 0.02069 0.0
C774 C 0.1849 0.31287 0.98263 0.0
C775 C 0.21465 0.3104 0.96888 0.0
H776 H 0.19708 0.65687 0.48731 0.0
H777 H 0.18667 0.63824 0.58696 0.0
H778 H 0.24382 0.63626 0.59305 0.0
H779 H 0.29654 0.63705 0.56971 0.0
H780 H 0.30711 0.65388 0.46978 0.0
H781 H 0.25007 0.6596 0.46427 0.0
C782 C 0.2073 0.65259 0.5104 0.0
C783 C 0.18761 0.64754 0.53659 0.0
C784 C 0.2402 0.6511 0.5137 0.0
C785 C 0.20127 0.64202 0.56635 0.0
C786 C 0.23396 0.6409 0.56989 0.0
C787 C 0.28643 0.64227 0.54676 0.0
C788 C 0.30604 0.64489 0.52019 0.0
C789 C 0.25362 0.64501 0.54366 0.0
C790 C 0.29252 0.6516 0.49061 0.0
C791 C 0.2599 0.65483 0.48742 0.0
H792 H 0.71262 0.83914 0.44572 0.0
H793 H 0.70897 0.78254 0.53047 0.0
H794 H 0.76512 0.79163 0.53934 0.0
H795 H 0.81324 0.82111 0.52681 0.0
H796 H 0.81652 0.87943 0.44325 0.0
H797 H 0.76255 0.86396 0.43003 0.0
C798 C 0.7242 0.82826 0.46581 0.0
C799 C 0.70648 0.81056 0.48766 0.0
C800 C 0.75634 0.83425 0.47122 0.0
C801 C 0.72195 0.79651 0.51344 0.0
C802 C 0.75405 0.80182 0.51862 0.0
C803 C 0.80232 0.83018 0.5055 0.0
C804 C 0.81872 0.85183 0.48635 0.0
C805 C 0.77116 0.82157 0.4983 0.0
C806 C 0.80435 0.86296 0.45857 0.0
C807 C 0.77345 0.85417 0.45102 0.0
H808 H 0.44672 0.79373 0.86259 0.0
H809 H 0.54842 0.79789 0.86588 0.0
H810 H 0.55121 0.74121 0.85473 0.0
H811 H 0.52481 0.69058 0.84427 0.0
H812 H 0.4231 0.68652 0.84078 0.0
H813 H 0.42035 0.74324 0.85162 0.0
C814 C 0.46952 0.78226 0.86096 0.0
C815 C 0.49731 0.80001 0.86515 0.0
C816 C 0.47096 0.74975 0.85438 0.0
C817 C 0.52665 0.78478 0.86279 0.0
C818 C 0.52828 0.75238 0.85638 0.0
C819 C 0.50202 0.70209 0.84577 0.0
C820 C 0.47421 0.68431 0.84173 0.0
C821 C 0.50059 0.73465 0.85212 0.0
C822 C 0.44489 0.69963 0.84377 0.0
C823 C 0.44327 0.73205 0.85003 0.0
H824 H 0.49589 0.29295 0.63541 0.0
H825 H 0.59522 0.27092 0.63161 0.0
H826 H 0.58302 0.21443 0.63289 0.0
H827 H 0.54423 0.17143 0.63281 0.0
H828 H 0.44487 0.19332 0.63626 0.0
H829 H 0.45711 0.24985 0.63747 0.0
C830 C 0.51491 0.27583 0.63504 0.0
C831 C 0.54642 0.28617 0.63324 0.0
C832 C 0.50774 0.24339 0.63558 0.0
C833 C 0.57075 0.26363 0.63291 0.0
C834 C 0.56381 0.23131 0.63358 0.0
C835 C 0.52521 0.18853 0.63392 0.0
C836 C 0.49366 0.17815 0.63423 0.0
C837 C 0.53239 0.22095 0.63453 0.0
C838 C 0.46935 0.20065 0.63591 0.0
C839 C 0.47633 0.23299 0.63657 0.0
H840 H 0.82484 0.52556 0.80421 0.0
H841 H 0.82917 0.42448 0.78942 0.0
H842 H 0.81684 0.43172 0.73362 0.0
H843 H 0.81046 0.46702 0.68823 0.0
H844 H 0.80745 0.56821 0.70281 0.0
H845 H 0.81293 0.56054 0.75962 0.0
C846 C 0.82283 0.50509 0.78884 0.0
C847 C 0.82844 0.47459 0.80085 0.0
C848 C 0.81595 0.50942 0.75674 0.0
C849 C 0.82526 0.44826 0.78073 0.0
C850 C 0.81821 0.45237 0.7488 0.0
C851 C 0.81041 0.4874 0.70385 0.0
C852 C 0.80903 0.51816 0.69122 0.0
C853 C 0.8143 0.48288 0.73642 0.0
C854 C 0.80876 0.54427 0.71185 0.0
C855 C 0.81207 0.53993 0.74435 0.0
H856 H 0.14619 0.9052 0.70107 0.0
H857 H 0.17985 0.99259 0.66034 0.0
H858 H 0.18017 0.01739 0.7124 0.0
H859 H 0.16694 0.01553 0.76877 0.0
H860 H 0.13229 0.92835 0.80917 0.0
H861 H 0.13654 0.90225 0.75799 0.0
C862 C 0.15393 0.92957 0.70359 0.0
C863 C 0.16269 0.94706 0.67678 0.0
C864 C 0.15369 0.94384 0.73353 0.0
C865 C 0.17281 0.97858 0.68054 0.0
C866 C 0.17293 0.99285 0.71032 0.0
C867 C 0.16059 0.99074 0.76647 0.0
C868 C 0.14901 0.97406 0.79273 0.0
C869 C 0.16279 0.9759 0.73687 0.0
C870 C 0.14107 0.94188 0.78932 0.0
C871 C 0.14345 0.92689 0.76004 0.0
H872 H 0.78819 0.16633 0.06032 0.0
H873 H 0.80343 0.15857 0.95984 0.0
H874 H 0.74714 0.16554 0.95028 0.0
H875 H 0.69328 0.16763 0.97071 0.0
H876 H 0.67778 0.17287 0.0713 0.0
H877 H 0.73461 0.17366 0.08048 0.0
C878 C 0.77928 0.16656 0.0363 0.0
C879 C 0.7999 0.16144 0.01088 0.0
C880 C 0.74683 0.17 0.03099 0.0
C881 C 0.78801 0.1621 0.97988 0.0
C882 C 0.75581 0.16607 0.97437 0.0
C883 C 0.70229 0.16949 0.99463 0.0
C884 C 0.68134 0.16972 0.02029 0.0
C885 C 0.73493 0.16911 -0.00021 0.0
C886 C 0.69342 0.17234 0.05113 0.0
C887 C 0.72591 0.17268 0.05642 0.0
H888 H 0.02409 0.96253 0.24218 0.0
H889 H 0.0691 0.0224 0.17314 0.0
H890 H 0.07258 0.06532 0.21178 0.0
H891 H 0.06027 0.08676 0.26446 0.0
H892 H 0.01337 0.02698 0.33248 0.0
H893 H 0.01313 0.98332 0.29494 0.0
C894 C 0.03509 0.9848 0.2357 0.0
C895 C 0.04638 0.98922 0.20485 0.0
C896 C 0.03634 0.0096 0.25777 0.0
C897 C 0.06021 0.01838 0.19675 0.0
C898 C 0.06211 0.04298 0.2188 0.0
C899 C 0.05009 0.06417 0.2711 0.0
C900 C 0.03675 0.06031 0.30123 0.0
C901 C 0.04978 0.03904 0.24925 0.0
C902 C 0.02367 0.03078 0.30941 0.0
C903 C 0.02357 0.00569 0.28798 0.0
H904 H 0.9037 0.47271 0.26094 0.0
H905 H 0.00299 0.46395 0.28236 0.0
H906 H 0.01571 0.5008 0.24025 0.0
H907 H -0.00095 0.53668 0.1987 0.0
H908 H 0.90039 0.54563 0.17544 0.0
H909 H 0.88703 0.50762 0.21707 0.0
C910 C 0.92812 0.47866 0.2562 0.0
C911 C 0.9523 0.46564 0.27497 0.0
C912 C 0.9354 0.50013 0.23188 0.0
C913 C 0.98384 0.47364 0.26846 0.0
C914 C 0.9912 0.49482 0.2444 0.0
C915 C 0.97456 0.53052 0.20277 0.0
C916 C 0.95072 0.54425 0.18424 0.0
C917 C 0.96718 0.50849 0.22629 0.0
C918 C 0.91918 0.53549 0.1895 0.0
C919 C 0.91155 0.51374 0.21326 0.0
H920 H 0.16879 0.02267 0.96533 0.0
H921 H 0.1922 0.10507 0.91006 0.0
H922 H 0.22833 0.12317 0.95178 0.0
H923 H 0.2563 0.11279 0.002 0.0
H924 H 0.23155 0.03014 0.05662 0.0
H925 H 0.19219 0.0153 0.01733 0.0
C926 C 0.18184 0.0446 0.96235 0.0
C927 C 0.17851 0.06219 0.93443 0.0
C928 C 0.20202 0.05492 0.98643 0.0
C929 C 0.19477 0.09099 0.93126 0.0
C930 C 0.21532 0.10132 0.9551 0.0
C931 C 0.24175 0.09197 0.00567 0.0
C932 C 0.24707 0.07241 0.03205 0.0
C933 C 0.21949 0.08319 0.9826 0.0
C934 C 0.22809 0.04545 0.03641 0.0
C935 C 0.20571 0.03683 0.01386 0.0
H936 H 0.69844 0.41789 0.01108 0.0
H937 H 0.72834 0.5069 0.05183 0.0
H938 H 0.77499 0.50698 0.01855 0.0
H939 H 0.80467 0.48455 0.975 0.0
H940 H 0.77563 0.39601 0.93301 0.0
H941 H 0.7313 0.39279 0.96997 0.0
C942 C 0.71542 0.43703 0.013 0.0
C943 C 0.7097 0.46256 0.0336 0.0
C944 C 0.74212 0.43718 0.99343 0.0
C945 C 0.73197 0.48715 0.03591 0.0
C946 C 0.75865 0.48726 0.01687 0.0
C947 C 0.78873 0.46443 0.97397 0.0
C948 C 0.79302 0.44081 0.95102 0.0
C949 C 0.76347 0.46287 0.99501 0.0
C950 C 0.77263 0.41458 0.9504 0.0
C951 C 0.74729 0.4128 0.97145 0.0
H952 H 0.29954 0.89525 0.45321 0.0
H953 H 0.23264 0.89965 0.37638 0.0
H954 H 0.18947 0.88944 0.41311 0.0
H955 H 0.17043 0.88695 0.46768 0.0
H956 H 0.23742 0.88489 0.54458 0.0
H957 H 0.28092 0.88574 0.50701 0.0
C958 C 0.27556 0.89355 0.44439 0.0
C959 C 0.26925 0.89881 0.4122 0.0
C960 C 0.25087 0.88817 0.46566 0.0
C961 C 0.23812 0.89598 0.40109 0.0
C962 C 0.21341 0.89023 0.4221 0.0
C963 C 0.19452 0.8859 0.47626 0.0
C964 C 0.20065 0.8864 0.50893 0.0
C965 C 0.21943 0.88737 0.45456 0.0
C966 C 0.23203 0.88484 0.51957 0.0
C967 C 0.25694 0.88553 0.4981 0.0
H968 H 0.76966 0.56953 0.54348 0.0
H969 H 0.85145 0.55231 0.48547 0.0
H970 H 0.82008 0.56059 0.43798 0.0
H971 H 0.76808 0.56525 0.41301 0.0
H972 H 0.68604 0.58112 0.47108 0.0
H973 H 0.71896 0.58139 0.51827 0.0
C974 C 0.78077 0.56825 0.52047 0.0
C975 C 0.81272 0.55987 0.51807 0.0
C976 C 0.76248 0.57252 0.49317 0.0
C977 C 0.82685 0.5586 0.48807 0.0
C978 C 0.80888 0.56316 0.46082 0.0
C979 C 0.75746 0.5694 0.4359 0.0
C980 C 0.72458 0.57256 0.4385 0.0
C981 C 0.77645 0.56899 0.46308 0.0
C982 C 0.71126 0.57824 0.46837 0.0
C983 C 0.73005 0.5783 0.49545 0.0
H984 H 0.03824 0.2658 0.06078 0.0
H985 H 0.97095 0.34239 0.06199 0.0
H986 H 0.9277 0.3046 0.05683 0.0
H987 H 0.90964 0.2506 0.04492 0.0
H988 H 0.97715 0.1742 0.04284 0.0
H989 H 0.01953 0.21112 0.05565 0.0
C990 C 0.01409 0.27421 0.06053 0.0
C991 C 0.00791 0.3069 0.06123 0.0
C992 C 0.98934 0.25241 0.05698 0.0
C993 C 0.97644 0.31736 0.06125 0.0
C994 C 0.95166 0.29577 0.05811 0.0
C995 C 0.93356 0.24196 0.04768 0.0
C996 C 0.94027 0.20981 0.04237 0.0
C997 C 0.95793 0.26336 0.05479 0.0
C998 C 0.97132 0.1989 0.04652 0.0
C999 C 0.99564 0.22 0.05378 0.0
H1000 H 0.03639 0.73 0.47605 0.0
H1001 H 0.04504 0.72503 0.57754 0.0
H1002 H 0.01109 0.77118 0.58307 0.0
H1003 H 0.9761 0.81067 0.55945 0.0
H1004 H 0.96696 0.81572 0.45806 0.0
H1005 H 0.00403 0.77194 0.45223 0.0
C1006 C 0.03108 0.73916 0.49937 0.0
C1007 C 0.04306 0.72385 0.52631 0.0
C1008 C 0.01128 0.76563 0.50246 0.0
C1009 C 0.03604 0.73619 0.55636 0.0
C1010 C 0.01655 0.76258 0.55959 0.0
C1011 C 0.98239 0.8024 0.53605 0.0
C1012 C 0.96854 0.81629 0.50926 0.0
C1013 C 0.00359 0.77712 0.53285 0.0
C1014 C 0.97714 0.80537 0.47911 0.0
C1015 C -0.00169 0.78028 0.47574 0.0
H1016 H 0.55657 0.75488 0.50861 0.0
H1017 H 0.49388 0.83381 0.49306 0.0
H1018 H 0.44842 0.79992 0.5027 0.0
H1019 H 0.42616 0.74721 0.51195 0.0
H1020 H 0.48858 0.66809 0.52768 0.0
H1021 H 0.53422 0.70279 0.5221 0.0
C1022 C 0.53297 0.76467 0.50753 0.0
C1023 C 0.52868 0.79675 0.49988 0.0
C1024 C 0.50678 0.74504 0.51319 0.0
C1025 C 0.49793 0.80917 0.49886 0.0
C1026 C 0.47184 0.7898 0.50433 0.0
C1027 C 0.44972 0.73761 0.51463 0.0
C1028 C 0.45384 0.70504 0.51996 0.0
C1029 C 0.47595 0.75761 0.51107 0.0
C1030 C 0.48461 0.69307 0.5235 0.0
C1031 C 0.51081 0.71286 0.52014 0.0
H1032 H 0.54472 0.51435 0.78293 0.0
H1033 H 0.48391 0.574 0.72707 0.0
H1034 H 0.49614 0.54284 0.6799 0.0
H1035 H 0.5211 0.49655 0.6556 0.0
H1036 H 0.57728 0.43355 0.71261 0.0
H1037 H 0.5701 0.46824 0.75846 0.0
C1038 C 0.5346 0.52083 0.7603 0.0
C1039 C 0.51368 0.54653 0.7583 0.0
C1040 C 0.54079 0.50212 0.73366 0.0
C1041 C 0.50015 0.55432 0.72905 0.0
C1042 C 0.50709 0.53651 0.70216 0.0
C1043 C 0.53221 0.49072 0.67795 0.0
C1044 C 0.54996 0.4628 0.68081 0.0
C1045 C 0.52696 0.51007 0.70432 0.0
C1046 C 0.5636 0.45504 0.70998 0.0
C1047 C 0.55947 0.47481 0.73612 0.0
H1048 H 0.51176 0.96876 0.801 0.0
H1049 H 0.46893 0.88776 0.75556 0.0
H1050 H 0.46229 0.91825 0.70704 0.0
H1051 H 0.46937 0.96762 0.67735 0.0
H1052 H 0.51193 0.04862 0.72308 0.0
H1053 H 0.51775 0.01836 0.77176 0.0
C1054 C 0.50101 0.95772 0.78048 0.0
C1055 C 0.491 0.92597 0.78187 0.0
C1056 C 0.49713 0.97539 0.75275 0.0
C1057 C 0.4769 0.91214 0.75513 0.0
C1058 C 0.47308 0.92956 0.72737 0.0
C1059 C 0.4798 0.97872 0.69799 0.0
C1060 C 0.49025 0.01032 0.69651 0.0
C1061 C 0.48318 0.96117 0.7259 0.0
C1062 C 0.50367 0.02434 0.72353 0.0
C1063 C 0.50708 0.00704 0.75138 0.0
H1064 H 0.41049 0.22492 0.96638 0.0
H1065 H 0.47683 0.30072 0.9495 0.0
H1066 H 0.52056 0.26364 0.95392 0.0
H1067 H 0.54016 0.21112 0.96879 0.0
H1068 H 0.47382 0.1356 0.98665 0.0
H1069 H 0.43003 0.17106 0.97527 0.0
C1070 C 0.43447 0.23326 0.96315 0.0
C1071 C 0.44035 0.26562 0.9581 0.0
C1072 C 0.4596 0.2119 0.96613 0.0
C1073 C 0.47159 0.27596 0.95368 0.0
C1074 C 0.49668 0.25479 0.9563 0.0
C1075 C 0.51615 0.20229 0.96968 0.0
C1076 C 0.5103 0.17088 0.97887 0.0
C1077 C 0.49099 0.22292 0.9635 0.0
C1078 C 0.47905 0.1597 0.97967 0.0
C1079 C 0.45392 0.18001 0.9733 0.0
loop_
_geom_bond_atom_site_label_1
_geom_bond_atom_site_label_2
_geom_bond_distance
_geom_bond_site_symmetry_2
_ccdc_geom_bond_type
C0 O1 1.160 1_655 S
C0 O7 1.185 . S
O1 C0 1.160 1_455 S
O2 Zn3 1.899 . S
O2 C10 1.284 1_655 S
Zn3 O2 1.899 . S
Zn3 O4 2.032 1_655 S
Zn3 O7 2.086 . S
Zn3 O12 1.977 . S
O4 Zn3 2.032 1_455 S
O4 C8 1.278 . S
C5 O6 1.203 . S
C5 O12 1.267 . S
O6 C5 1.203 . S
O7 C0 1.185 . S
O7 Zn3 2.086 . S
C8 O4 1.278 . S
C8 O9 1.211 . S
O9 C8 1.211 . S
C10 O2 1.284 1_455 S
C10 O11 1.273 . S
O11 C10 1.273 . S
O12 Zn3 1.977 . S
O12 C5 1.267 . S
C13 O14 1.160 1_455 S
C13 O20 1.185 . S
O14 C13 1.160 1_655 S
O15 Zn16 1.899 . S
O15 C23 1.284 1_455 S
Zn16 O15 1.899 . S
Zn16 O17 2.032 1_455 S
Zn16 O20 2.086 . S
Zn16 O25 1.977 . S
O17 Zn16 2.032 1_655 S
O17 C21 1.278 . S
C18 O19 1.203 . S
C18 O25 1.267 . S
O19 C18 1.203 . S
O20 C13 1.185 . S
O20 Zn16 2.086 . S
C21 O17 1.278 . S
C21 O22 1.211 . S
O22 C21 1.211 . S
C23 O15 1.284 1_655 S
C23 O24 1.273 . S
O24 C23 1.273 . S
O25 Zn16 1.977 . S
O25 C18 1.267 . S
C26 O27 1.160 1_655 S
C26 O33 1.185 . S
O27 C26 1.160 1_455 S
O28 Zn29 1.899 . S
O28 C36 1.284 1_655 S
Zn29 O28 1.899 . S
Zn29 O30 2.032 1_655 S
Zn29 O33 2.086 . S
Zn29 O38 1.977 . S
O30 Zn29 2.032 1_455 S
O30 C34 1.278 . S
C31 O32 1.203 . S
C31 O38 1.267 . S
O32 C31 1.203 . S
O33 C26 1.185 . S
O33 Zn29 2.086 . S
C34 O30 1.278 . S
C34 O35 1.211 . S
O35 C34 1.211 . S
C36 O28 1.284 1_455 S
C36 O37 1.273 . S
O37 C36 1.273 . S
O38 Zn29 1.977 . S
O38 C31 1.267 . S
C39 O40 1.160 1_455 S
C39 O46 1.185 . S
O40 C39 1.160 1_655 S
O41 Zn42 1.899 . S
O41 C49 1.284 1_455 S
Zn42 O41 1.899 . S
Zn42 O43 2.032 1_455 S
Zn42 O46 2.086 . S
Zn42 O51 1.977 . S
O43 Zn42 2.032 1_655 S
O43 C47 1.278 . S
C44 O45 1.203 . S
C44 O51 1.267 . S
O45 C44 1.203 . S
O46 C39 1.185 . S
O46 Zn42 2.086 . S
C47 O43 1.278 . S
C47 O48 1.211 . S
O48 C47 1.211 . S
C49 O41 1.284 1_655 S
C49 O50 1.273 . S
O50 C49 1.273 . S
O51 Zn42 1.977 . S
O51 C44 1.267 . S
C52 O53 1.160 1_565 S
C52 O59 1.185 . S
O53 C52 1.160 1_545 S
O54 Zn55 1.899 . S
O54 C62 1.284 1_565 S
Zn55 O54 1.899 . S
Zn55 O56 2.032 1_565 S
Zn55 O59 2.086 . S
Zn55 O64 1.977 . S
O56 Zn55 2.032 1_545 S
O56 C60 1.278 . S
C57 O58 1.203 . S
C57 O64 1.267 . S
O58 C57 1.203 . S
O59 C52 1.185 . S
O59 Zn55 2.086 . S
C60 O56 1.278 . S
C60 O61 1.211 . S
O61 C60 1.211 . S
C62 O54 1.284 1_545 S
C62 O63 1.273 . S
O63 C62 1.273 . S
O64 Zn55 1.977 . S
O64 C57 1.267 . S
C65 O66 1.160 . S
C65 O72 1.185 . S
O66 C65 1.160 . S
O67 Zn68 1.899 . S
O67 C75 1.284 . S
Zn68 O67 1.899 . S
Zn68 O69 2.032 . S
Zn68 O72 2.086 . S
Zn68 O77 1.977 . S
O69 Zn68 2.032 . S
O69 C73 1.278 . S
C70 O71 1.203 . S
C70 O77 1.267 . S
O71 C70 1.203 . S
O72 C65 1.185 . S
O72 Zn68 2.086 . S
C73 O69 1.278 . S
C73 O74 1.211 . S
O74 C73 1.211 . S
C75 O67 1.284 . S
C75 O76 1.273 . S
O76 C75 1.273 . S
O77 Zn68 1.977 . S
O77 C70 1.267 . S
C78 O79 1.160 1_545 S
C78 O85 1.185 . S
O79 C78 1.160 1_565 S
O80 Zn81 1.899 . S
O80 C88 1.284 1_545 S
Zn81 O80 1.899 . S
Zn81 O82 2.032 1_545 S
Zn81 O85 2.086 . S
Zn81 O90 1.977 . S
O82 Zn81 2.032 1_565 S
O82 C86 1.278 . S
C83 O84 1.203 . S
C83 O90 1.267 . S
O84 C83 1.203 . S
O85 C78 1.185 . S
O85 Zn81 2.086 . S
C86 O82 1.278 . S
C86 O87 1.211 . S
O87 C86 1.211 . S
C88 O80 1.284 1_565 S
C88 O89 1.273 . S
O89 C88 1.273 . S
O90 Zn81 1.977 . S
O90 C83 1.267 . S
C91 O92 1.160 . S
C91 O98 1.185 . S
O92 C91 1.160 . S
O93 Zn94 1.899 . S
O93 C101 1.284 . S
Zn94 O93 1.899 . S
Zn94 O95 2.032 . S
Zn94 O98 2.086 . S
Zn94 O103 1.977 . S
O95 Zn94 2.032 . S
O95 C99 1.278 . S
C96 O97 1.203 . S
C96 O103 1.267 . S
O97 C96 1.203 . S
O98 C91 1.185 . S
O98 Zn94 2.086 . S
C99 O95 1.278 . S
C99 O100 1.211 . S
O100 C99 1.211 . S
C101 O93 1.284 . S
C101 O102 1.273 . S
O102 C101 1.273 . S
O103 Zn94 1.977 . S
O103 C96 1.267 . S
C104 O105 1.160 1_556 S
C104 O111 1.185 . S
O105 C104 1.160 1_554 S
O106 Zn107 1.899 . S
O106 C114 1.284 1_556 S
Zn107 O106 1.899 . S
Zn107 O108 2.032 1_556 S
Zn107 O111 2.086 . S
Zn107 O116 1.977 . S
O108 Zn107 2.032 1_554 S
O108 C112 1.278 . S
C109 O110 1.203 . S
C109 O116 1.267 . S
O110 C109 1.203 . S
O111 C104 1.185 . S
O111 Zn107 2.086 . S
C112 O108 1.278 . S
C112 O113 1.211 . S
O113 C112 1.211 . S
C114 O106 1.284 1_554 S
C114 O115 1.273 . S
O115 C114 1.273 . S
O116 Zn107 1.977 . S
O116 C109 1.267 . S
C117 O118 1.160 . S
C117 O124 1.185 . S
O118 C117 1.160 . S
O119 Zn120 1.899 . S
O119 C127 1.284 . S
Zn120 O119 1.899 . S
Zn120 O121 2.032 . S
Zn120 O124 2.086 . S
Zn120 O129 1.977 . S
O121 Zn120 2.032 . S
O121 C125 1.278 . S
C122 O123 1.203 . S
C122 O129 1.267 . S
O123 C122 1.203 . S
O124 C117 1.185 . S
O124 Zn120 2.086 . S
C125 O121 1.278 . S
C125 O126 1.211 . S
O126 C125 1.211 . S
C127 O119 1.284 . S
C127 O128 1.273 . S
O128 C127 1.273 . S
O129 Zn120 1.977 . S
O129 C122 1.267 . S
C130 O131 1.160 . S
C130 O137 1.185 . S
O131 C130 1.160 . S
O132 Zn133 1.899 . S
O132 C140 1.284 . S
Zn133 O132 1.899 . S
Zn133 O134 2.032 . S
Zn133 O137 2.086 . S
Zn133 O142 1.977 . S
O134 Zn133 2.032 . S
O134 C138 1.278 . S
C135 O136 1.203 . S
C135 O142 1.267 . S
O136 C135 1.203 . S
O137 C130 1.185 . S
O137 Zn133 2.086 . S
C138 O134 1.278 . S
C138 O139 1.211 . S
O139 C138 1.211 . S
C140 O132 1.284 . S
C140 O141 1.273 . S
O141 C140 1.273 . S
O142 Zn133 1.977 . S
O142 C135 1.267 . S
C143 O144 1.160 . S
C143 O150 1.185 . S
O144 C143 1.160 . S
O145 Zn146 1.899 . S
O145 C153 1.284 . S
Zn146 O145 1.899 . S
Zn146 O147 2.032 . S
Zn146 O150 2.086 . S
Zn146 O155 1.977 . S
O147 Zn146 2.032 . S
O147 C151 1.278 . S
C148 O149 1.203 . S
C148 O155 1.267 . S
O149 C148 1.203 . S
O150 C143 1.185 . S
O150 Zn146 2.086 . S
C151 O147 1.278 . S
C151 O152 1.211 . S
O152 C151 1.211 . S
C153 O145 1.284 . S
C153 O154 1.273 . S
O154 C153 1.273 . S
O155 Zn146 1.977 . S
O155 C148 1.267 . S
C156 O157 1.160 . S
C156 O163 1.185 . S
O157 C156 1.160 . S
O158 Zn159 1.899 . S
O158 C166 1.284 . S
Zn159 O158 1.899 . S
Zn159 O160 2.032 . S
Zn159 O163 2.086 . S
Zn159 O168 1.977 . S
O160 Zn159 2.032 . S
O160 C164 1.278 . S
C161 O162 1.203 . S
C161 O168 1.267 . S
O162 C161 1.203 . S
O163 C156 1.185 . S
O163 Zn159 2.086 . S
C164 O160 1.278 . S
C164 O165 1.211 . S
O165 C164 1.211 . S
C166 O158 1.284 . S
C166 O167 1.273 . S
O167 C166 1.273 . S
O168 Zn159 1.977 . S
O168 C161 1.267 . S
C169 O170 1.160 . S
C169 O176 1.185 . S
O170 C169 1.160 . S
O171 Zn172 1.899 . S
O171 C179 1.284 . S
Zn172 O171 1.899 . S
Zn172 O173 2.032 . S
Zn172 O176 2.086 . S
Zn172 O181 1.977 . S
O173 Zn172 2.032 . S
O173 C177 1.278 . S
C174 O175 1.203 . S
C174 O181 1.267 . S
O175 C174 1.203 . S
O176 C169 1.185 . S
O176 Zn172 2.086 . S
C177 O173 1.278 . S
C177 O178 1.211 . S
O178 C177 1.211 . S
C179 O171 1.284 . S
C179 O180 1.273 . S
O180 C179 1.273 . S
O181 Zn172 1.977 . S
O181 C174 1.267 . S
C182 O183 1.160 . S
C182 O189 1.185 . S
O183 C182 1.160 . S
O184 Zn185 1.899 . S
O184 C192 1.284 . S
Zn185 O184 1.899 . S
Zn185 O186 2.032 . S
Zn185 O189 2.086 . S
Zn185 O194 1.977 . S
O186 Zn185 2.032 . S
O186 C190 1.278 . S
C187 O188 1.203 . S
C187 O194 1.267 . S
O188 C187 1.203 . S
O189 C182 1.185 . S
O189 Zn185 2.086 . S
C190 O186 1.278 . S
C190 O191 1.211 . S
O191 C190 1.211 . S
C192 O184 1.284 . S
C192 O193 1.273 . S
O193 C192 1.273 . S
O194 Zn185 1.977 . S
O194 C187 1.267 . S
C195 O196 1.160 . S
C195 O202 1.185 . S
O196 C195 1.160 . S
O197 Zn198 1.899 . S
O197 C205 1.284 . S
Zn198 O197 1.899 . S
Zn198 O199 2.032 . S
Zn198 O202 2.086 . S
Zn198 O207 1.977 . S
O199 Zn198 2.032 . S
O199 C203 1.278 . S
C200 O201 1.203 . S
C200 O207 1.267 . S
O201 C200 1.203 . S
O202 C195 1.185 . S
O202 Zn198 2.086 . S
C203 O199 1.278 . S
C203 O204 1.211 . S
O204 C203 1.211 . S
C205 O197 1.284 . S
C205 O206 1.273 . S
O206 C205 1.273 . S
O207 Zn198 1.977 . S
O207 C200 1.267 . S
C208 O209 1.160 . S
C208 O215 1.185 . S
O209 C208 1.160 . S
O210 Zn211 1.899 . S
O210 C218 1.284 . S
Zn211 O210 1.899 . S
Zn211 O212 2.032 . S
Zn211 O215 2.086 . S
Zn211 O220 1.977 . S
O212 Zn211 2.032 . S
O212 C216 1.278 . S
C213 O214 1.203 . S
C213 O220 1.267 . S
O214 C213 1.203 . S
O215 C208 1.185 . S
O215 Zn211 2.086 . S
C216 O212 1.278 . S
C216 O217 1.211 . S
O217 C216 1.211 . S
C218 O210 1.284 . S
C218 O219 1.273 . S
O219 C218 1.273 . S
O220 Zn211 1.977 . S
O220 C213 1.267 . S
C221 O222 1.160 1_545 S
C221 O228 1.185 . S
O222 C221 1.160 1_565 S
O223 Zn224 1.899 . S
O223 C231 1.284 1_545 S
Zn224 O223 1.899 . S
Zn224 O225 2.032 1_545 S
Zn224 O228 2.086 . S
Zn224 O233 1.977 . S
O225 Zn224 2.032 1_565 S
O225 C229 1.278 . S
C226 O227 1.203 . S
C226 O233 1.267 . S
O227 C226 1.203 . S
O228 C221 1.185 . S
O228 Zn224 2.086 . S
C229 O225 1.278 . S
C229 O230 1.211 . S
O230 C229 1.211 . S
C231 O223 1.284 1_565 S
C231 O232 1.273 . S
O232 C231 1.273 . S
O233 Zn224 1.977 . S
O233 C226 1.267 . S
C234 O235 1.160 . S
C234 O241 1.185 . S
O235 C234 1.160 . S
O236 Zn237 1.899 . S
O236 C244 1.284 . S
Zn237 O236 1.899 . S
Zn237 O238 2.032 . S
Zn237 O241 2.086 . S
Zn237 O246 1.977 . S
O238 Zn237 2.032 . S
O238 C242 1.278 . S
C239 O240 1.203 . S
C239 O246 1.267 . S
O240 C239 1.203 . S
O241 C234 1.185 . S
O241 Zn237 2.086 . S
C242 O238 1.278 . S
C242 O243 1.211 . S
O243 C242 1.211 . S
C244 O236 1.284 . S
C244 O245 1.273 . S
O245 C244 1.273 . S
O246 Zn237 1.977 . S
O246 C239 1.267 . S
C247 O248 1.160 1_565 S
C247 O254 1.185 . S
O248 C247 1.160 1_545 S
O249 Zn250 1.899 . S
O249 C257 1.284 1_565 S
Zn250 O249 1.899 . S
Zn250 O251 2.032 1_565 S
Zn250 O254 2.086 . S
Zn250 O259 1.977 . S
O251 Zn250 2.032 1_545 S
O251 C255 1.278 . S
C252 O253 1.203 . S
C252 O259 1.267 . S
O253 C252 1.203 . S
O254 C247 1.185 . S
O254 Zn250 2.086 . S
C255 O251 1.278 . S
C255 O256 1.211 . S
O256 C255 1.211 . S
C257 O249 1.284 1_545 S
C257 O258 1.273 . S
O258 C257 1.273 . S
O259 Zn250 1.977 . S
O259 C252 1.267 . S
C260 O261 1.160 . S
C260 O267 1.185 . S
O261 C260 1.160 . S
O262 Zn263 1.899 . S
O262 C270 1.284 . S
Zn263 O262 1.899 . S
Zn263 O264 2.032 . S
Zn263 O267 2.086 . S
Zn263 O272 1.977 . S
O264 Zn263 2.032 . S
O264 C268 1.278 . S
C265 O266 1.203 . S
C265 O272 1.267 . S
O266 C265 1.203 . S
O267 C260 1.185 . S
O267 Zn263 2.086 . S
C268 O264 1.278 . S
C268 O269 1.211 . S
O269 C268 1.211 . S
C270 O262 1.284 . S
C270 O271 1.273 . S
O271 C270 1.273 . S
O272 Zn263 1.977 . S
O272 C265 1.267 . S
C273 O274 1.160 1_554 S
C273 O280 1.185 . S
O274 C273 1.160 1_556 S
O275 Zn276 1.899 . S
O275 C283 1.284 1_554 S
Zn276 O275 1.899 . S
Zn276 O277 2.032 1_554 S
Zn276 O280 2.086 . S
Zn276 O285 1.977 . S
O277 Zn276 2.032 1_556 S
O277 C281 1.278 . S
C278 O279 1.203 . S
C278 O285 1.267 . S
O279 C278 1.203 . S
O280 C273 1.185 . S
O280 Zn276 2.086 . S
C281 O277 1.278 . S
C281 O282 1.211 . S
O282 C281 1.211 . S
C283 O275 1.284 1_556 S
C283 O284 1.273 . S
O284 C283 1.273 . S
O285 Zn276 1.977 . S
O285 C278 1.267 . S
C286 O287 1.160 1_554 S
C286 O293 1.185 . S
O287 C286 1.160 1_556 S
O288 Zn289 1.899 . S
O288 C296 1.284 1_554 S
Zn289 O288 1.899 . S
Zn289 O290 2.032 1_554 S
Zn289 O293 2.086 . S
Zn289 O298 1.977 . S
O290 Zn289 2.032 1_556 S
O290 C294 1.278 . S
C291 O292 1.203 . S
C291 O298 1.267 . S
O292 C291 1.203 . S
O293 C286 1.185 . S
O293 Zn289 2.086 . S
C294 O290 1.278 . S
C294 O295 1.211 . S
O295 C294 1.211 . S
C296 O288 1.284 1_556 S
C296 O297 1.273 . S
O297 C296 1.273 . S
O298 Zn289 1.977 . S
O298 C291 1.267 . S
C299 O300 1.160 1_556 S
C299 O306 1.185 . S
O300 C299 1.160 1_554 S
O301 Zn302 1.899 . S
O301 C309 1.284 1_556 S
Zn302 O301 1.899 . S
Zn302 O303 2.032 1_556 S
Zn302 O306 2.086 . S
Zn302 O311 1.977 . S
O303 Zn302 2.032 1_554 S
O303 C307 1.278 . S
C304 O305 1.203 . S
C304 O311 1.267 . S
O305 C304 1.203 . S
O306 C299 1.185 . S
O306 Zn302 2.086 . S
C307 O303 1.278 . S
C307 O308 1.211 . S
O308 C307 1.211 . S
C309 O301 1.284 1_554 S
C309 O310 1.273 . S
O310 C309 1.273 . S
O311 Zn302 1.977 . S
O311 C304 1.267 . S
H312 C318 0.930 . S
H313 C321 0.930 . S
H314 C322 0.930 . S
H315 C323 0.930 . S
H316 C326 0.930 . S
H317 C327 0.930 . S
C318 H312 0.930 . S
C318 C319 1.355 . S
C318 C320 1.415 . S
C319 C318 1.355 . S
C319 C321 1.419 . S
C320 C318 1.415 . S
C320 C325 1.425 . S
C320 C327 1.409 . S
C321 H313 0.930 . S
C321 C319 1.419 . S
C321 C322 1.362 . S
C322 H314 0.930 . S
C322 C321 1.362 . S
C322 C325 1.409 . S
C323 H315 0.930 . S
C323 C324 1.355 . S
C323 C325 1.415 . S
C324 C323 1.355 . S
C324 C326 1.419 . S
C325 C320 1.425 . S
C325 C322 1.409 . S
C325 C323 1.415 . S
C326 H316 0.930 . S
C326 C324 1.419 . S
C326 C327 1.362 . S
C327 H317 0.930 . S
C327 C320 1.409 . S
C327 C326 1.362 . S
H328 C334 0.930 . S
H329 C337 0.930 . S
H330 C338 0.930 . S
H331 C339 0.930 . S
H332 C342 0.930 . S
H333 C343 0.930 . S
C334 H328 0.930 . S
C334 C335 1.355 . S
C334 C336 1.415 . S
C335 C334 1.355 . S
C335 C337 1.419 . S
C336 C334 1.415 . S
C336 C341 1.425 . S
C336 C343 1.409 . S
C337 H329 0.930 . S
C337 C335 1.419 . S
C337 C338 1.362 . S
C338 H330 0.930 . S
C338 C337 1.362 . S
C338 C341 1.409 . S
C339 H331 0.930 . S
C339 C340 1.355 . S
C339 C341 1.415 . S
C340 C339 1.355 . S
C340 C342 1.419 . S
C341 C336 1.425 . S
C341 C338 1.409 . S
C341 C339 1.415 . S
C342 H332 0.930 . S
C342 C340 1.419 . S
C342 C343 1.362 . S
C343 H333 0.930 . S
C343 C336 1.409 . S
C343 C342 1.362 . S
H344 C350 0.930 . S
H345 C353 0.930 . S
H346 C354 0.930 . S
H347 C355 0.930 . S
H348 C358 0.930 . S
H349 C359 0.930 . S
C350 H344 0.930 . S
C350 C351 1.355 . S
C350 C352 1.415 . S
C351 C350 1.355 . S
C351 C353 1.419 . S
C352 C350 1.415 . S
C352 C357 1.425 . S
C352 C359 1.409 . S
C353 H345 0.930 . S
C353 C351 1.419 . S
C353 C354 1.362 . S
C354 H346 0.930 . S
C354 C353 1.362 . S
C354 C357 1.409 . S
C355 H347 0.930 . S
C355 C356 1.355 . S
C355 C357 1.415 1_556 S
C356 C355 1.355 . S
C356 C358 1.419 . S
C357 C352 1.425 . S
C357 C354 1.409 . S
C357 C355 1.415 1_554 S
C358 H348 0.930 . S
C358 C356 1.419 . S
C358 C359 1.362 1_556 S
C359 H349 0.930 . S
C359 C352 1.409 . S
C359 C358 1.362 1_554 S
H360 C366 0.930 . S
H361 C369 0.930 . S
H362 C370 0.930 . S
H363 C371 0.930 . S
H364 C374 0.930 . S
H365 C375 0.930 . S
C366 H360 0.930 . S
C366 C367 1.355 . S
C366 C368 1.415 . S
C367 C366 1.355 . S
C367 C369 1.419 . S
C368 C366 1.415 . S
C368 C373 1.425 . S
C368 C375 1.409 . S
C369 H361 0.930 . S
C369 C367 1.419 . S
C369 C370 1.362 . S
C370 H362 0.930 . S
C370 C369 1.362 . S
C370 C373 1.409 . S
C371 H363 0.930 . S
C371 C372 1.355 . S
C371 C373 1.415 1_556 S
C372 C371 1.355 . S
C372 C374 1.419 . S
C373 C368 1.425 . S
C373 C370 1.409 . S
C373 C371 1.415 1_554 S
C374 H364 0.930 . S
C374 C372 1.419 . S
C374 C375 1.362 1_556 S
C375 H365 0.930 . S
C375 C368 1.409 . S
C375 C374 1.362 1_554 S
H376 C382 0.930 . S
H377 C385 0.930 . S
H378 C386 0.930 . S
H379 C387 0.930 . S
H380 C390 0.930 . S
H381 C391 0.930 . S
C382 H376 0.930 . S
C382 C383 1.355 . S
C382 C384 1.415 . S
C383 C382 1.355 . S
C383 C385 1.419 . S
C384 C382 1.415 . S
C384 C389 1.425 . S
C384 C391 1.409 . S
C385 H377 0.930 . S
C385 C383 1.419 . S
C385 C386 1.362 . S
C386 H378 0.930 . S
C386 C385 1.362 . S
C386 C389 1.409 . S
C387 H379 0.930 . S
C387 C388 1.355 . S
C387 C389 1.415 . S
C388 C387 1.355 . S
C388 C390 1.419 . S
C389 C384 1.425 . S
C389 C386 1.409 . S
C389 C387 1.415 . S
C390 H380 0.930 . S
C390 C388 1.419 . S
C390 C391 1.362 . S
C391 H381 0.930 . S
C391 C384 1.409 . S
C391 C390 1.362 . S
H392 C398 0.930 . S
H393 C401 0.930 . S
H394 C402 0.930 . S
H395 C403 0.930 . S
H396 C406 0.930 . S
H397 C407 0.930 . S
C398 H392 0.930 . S
C398 C399 1.355 . S
C398 C400 1.415 . S
C399 C398 1.355 . S
C399 C401 1.419 . S
C400 C398 1.415 . S
C400 C405 1.425 . S
C400 C407 1.409 . S
C401 H393 0.930 . S
C401 C399 1.419 . S
C401 C402 1.362 . S
C402 H394 0.930 . S
C402 C401 1.362 . S
C402 C405 1.409 . S
C403 H395 0.930 . S
C403 C404 1.355 . S
C403 C405 1.415 . S
C404 C403 1.355 . S
C404 C406 1.419 . S
C405 C400 1.425 . S
C405 C402 1.409 . S
C405 C403 1.415 . S
C406 H396 0.930 . S
C406 C404 1.419 . S
C406 C407 1.362 . S
C407 H397 0.930 . S
C407 C400 1.409 . S
C407 C406 1.362 . S
H408 C414 0.930 . S
H409 C417 0.930 . S
H410 C418 0.930 . S
H411 C419 0.930 . S
H412 C422 0.930 . S
H413 C423 0.930 . S
C414 H408 0.930 . S
C414 C415 1.355 . S
C414 C416 1.415 . S
C415 C414 1.355 . S
C415 C417 1.419 . S
C416 C414 1.415 . S
C416 C421 1.425 . S
C416 C423 1.409 . S
C417 H409 0.930 . S
C417 C415 1.419 . S
C417 C418 1.362 . S
C418 H410 0.930 . S
C418 C417 1.362 . S
C418 C421 1.409 . S
C419 H411 0.930 . S
C419 C420 1.355 . S
C419 C421 1.415 . S
C420 C419 1.355 . S
C420 C422 1.419 . S
C421 C416 1.425 . S
C421 C418 1.409 . S
C421 C419 1.415 . S
C422 H412 0.930 . S
C422 C420 1.419 . S
C422 C423 1.362 . S
C423 H413 0.930 . S
C423 C416 1.409 . S
C423 C422 1.362 . S
H424 C430 0.930 . S
H425 C433 0.930 . S
H426 C434 0.930 . S
H427 C435 0.930 . S
H428 C438 0.930 . S
H429 C439 0.930 . S
C430 H424 0.930 . S
C430 C431 1.355 . S
C430 C432 1.415 . S
C431 C430 1.355 . S
C431 C433 1.419 . S
C432 C430 1.415 . S
C432 C437 1.425 . S
C432 C439 1.409 . S
C433 H425 0.930 . S
C433 C431 1.419 . S
C433 C434 1.362 . S
C434 H426 0.930 . S
C434 C433 1.362 . S
C434 C437 1.409 . S
C435 H427 0.930 . S
C435 C436 1.355 . S
C435 C437 1.415 . S
C436 C435 1.355 . S
C436 C438 1.419 . S
C437 C432 1.425 . S
C437 C434 1.409 . S
C437 C435 1.415 . S
C438 H428 0.930 . S
C438 C436 1.419 . S
C438 C439 1.362 . S
C439 H429 0.930 . S
C439 C432 1.409 . S
C439 C438 1.362 . S
H440 C446 0.930 . S
H441 C449 0.930 . S
H442 C450 0.930 . S
H443 C451 0.930 . S
H444 C454 0.930 . S
H445 C455 0.930 . S
C446 H440 0.930 . S
C446 C447 1.355 . S
C446 C448 1.415 . S
C447 C446 1.355 . S
C447 C449 1.419 . S
C448 C446 1.415 . S
C448 C453 1.425 . S
C448 C455 1.409 . S
C449 H441 0.930 . S
C449 C447 1.419 . S
C449 C450 1.362 . S
C450 H442 0.930 . S
C450 C449 1.362 . S
C450 C453 1.409 . S
C451 H443 0.930 . S
C451 C452 1.355 . S
C451 C453 1.415 . S
C452 C451 1.355 . S
C452 C454 1.419 . S
C453 C448 1.425 . S
C453 C450 1.409 . S
C453 C451 1.415 . S
C454 H444 0.930 . S
C454 C452 1.419 . S
C454 C455 1.362 . S
C455 H445 0.930 . S
C455 C448 1.409 . S
C455 C454 1.362 . S
H456 C462 0.930 . S
H457 C465 0.930 . S
H458 C466 0.930 . S
H459 C467 0.930 . S
H460 C470 0.930 . S
H461 C471 0.930 . S
C462 H456 0.930 . S
C462 C463 1.355 . S
C462 C464 1.415 . S
C463 C462 1.355 . S
C463 C465 1.419 . S
C464 C462 1.415 . S
C464 C469 1.425 . S
C464 C471 1.409 . S
C465 H457 0.930 . S
C465 C463 1.419 . S
C465 C466 1.362 . S
C466 H458 0.930 . S
C466 C465 1.362 . S
C466 C469 1.409 . S
C467 H459 0.930 . S
C467 C468 1.355 . S
C467 C469 1.415 . S
C468 C467 1.355 . S
C468 C470 1.419 . S
C469 C464 1.425 . S
C469 C466 1.409 . S
C469 C467 1.415 . S
C470 H460 0.930 . S
C470 C468 1.419 . S
C470 C471 1.362 . S
C471 H461 0.930 . S
C471 C464 1.409 . S
C471 C470 1.362 . S
H472 C478 0.930 . S
H473 C481 0.930 . S
H474 C482 0.930 . S
H475 C483 0.930 . S
H476 C486 0.930 . S
H477 C487 0.930 . S
C478 H472 0.930 . S
C478 C479 1.355 . S
C478 C480 1.415 . S
C479 C478 1.355 . S
C479 C481 1.419 . S
C480 C478 1.415 . S
C480 C485 1.425 . S
C480 C487 1.409 . S
C481 H473 0.930 . S
C481 C479 1.419 . S
C481 C482 1.362 . S
C482 H474 0.930 . S
C482 C481 1.362 . S
C482 C485 1.409 . S
C483 H475 0.930 . S
C483 C484 1.355 . S
C483 C485 1.415 1_545 S
C484 C483 1.355 . S
C484 C486 1.419 . S
C485 C480 1.425 . S
C485 C482 1.409 . S
C485 C483 1.415 1_565 S
C486 H476 0.930 . S
C486 C484 1.419 . S
C486 C487 1.362 1_545 S
C487 H477 0.930 . S
C487 C480 1.409 . S
C487 C486 1.362 1_565 S
H488 C494 0.930 . S
H489 C497 0.930 . S
H490 C498 0.930 . S
H491 C499 0.930 . S
H492 C502 0.930 . S
H493 C503 0.930 . S
C494 H488 0.930 . S
C494 C495 1.355 . S
C494 C496 1.415 . S
C495 C494 1.355 . S
C495 C497 1.419 . S
C496 C494 1.415 . S
C496 C501 1.425 . S
C496 C503 1.409 . S
C497 H489 0.930 . S
C497 C495 1.419 . S
C497 C498 1.362 . S
C498 H490 0.930 . S
C498 C497 1.362 . S
C498 C501 1.409 . S
C499 H491 0.930 . S
C499 C500 1.355 . S
C499 C501 1.415 . S
C500 C499 1.355 . S
C500 C502 1.419 . S
C501 C496 1.425 . S
C501 C498 1.409 . S
C501 C499 1.415 . S
C502 H492 0.930 . S
C502 C500 1.419 . S
C502 C503 1.362 . S
C503 H493 0.930 . S
C503 C496 1.409 . S
C503 C502 1.362 . S
H504 C510 0.930 . S
H505 C513 0.930 . S
H506 C514 0.933 . S
H507 C515 0.930 . S
H508 C518 0.930 . S
H509 C519 0.930 . S
C510 H504 0.930 . S
C510 C511 1.355 . S
C510 C512 1.415 1_554 S
C511 C510 1.355 . S
C511 C513 1.419 . S
C512 C510 1.415 1_556 S
C512 C517 1.425 . S
C512 C519 1.409 . S
C513 H505 0.930 . S
C513 C511 1.419 . S
C513 C514 1.339 1_554 S
C514 H506 0.933 . S
C514 C513 1.339 1_556 S
C514 C517 1.430 . S
C515 H507 0.930 . S
C515 C516 1.355 . S
C515 C517 1.415 . S
C516 C515 1.355 . S
C516 C518 1.419 . S
C517 C512 1.425 . S
C517 C514 1.430 . S
C517 C515 1.415 . S
C518 H508 0.930 . S
C518 C516 1.419 . S
C518 C519 1.362 . S
C519 H509 0.930 . S
C519 C512 1.409 . S
C519 C518 1.362 . S
H520 C526 0.930 . S
H521 C529 0.930 . S
H522 C530 0.930 . S
H523 C531 0.930 . S
H524 C534 0.930 . S
H525 C535 0.930 . S
C526 H520 0.930 . S
C526 C527 1.355 . S
C526 C528 1.415 1_554 S
C527 C526 1.355 . S
C527 C529 1.419 . S
C528 C526 1.415 1_556 S
C528 C533 1.425 . S
C528 C535 1.409 . S
C529 H521 0.930 . S
C529 C527 1.419 . S
C529 C530 1.362 1_554 S
C530 H522 0.930 . S
C530 C529 1.362 1_556 S
C530 C533 1.409 . S
C531 H523 0.930 . S
C531 C532 1.355 . S
C531 C533 1.415 . S
C532 C531 1.355 . S
C532 C534 1.419 . S
C533 C528 1.425 . S
C533 C530 1.409 . S
C533 C531 1.415 . S
C534 H524 0.930 . S
C534 C532 1.419 . S
C534 C535 1.362 . S
C535 H525 0.930 . S
C535 C528 1.409 . S
C535 C534 1.362 . S
H536 C542 0.930 . S
H537 C545 0.930 . S
H538 C546 0.930 . S
H539 C547 0.930 . S
H540 C550 0.930 . S
H541 C551 0.930 . S
C542 H536 0.930 . S
C542 C543 1.355 . S
C542 C544 1.415 . S
C543 C542 1.355 . S
C543 C545 1.419 . S
C544 C542 1.415 . S
C544 C549 1.425 . S
C544 C551 1.409 . S
C545 H537 0.930 . S
C545 C543 1.419 . S
C545 C546 1.362 . S
C546 H538 0.930 . S
C546 C545 1.362 . S
C546 C549 1.409 . S
C547 H539 0.930 . S
C547 C548 1.355 . S
C547 C549 1.415 . S
C548 C547 1.355 . S
C548 C550 1.419 . S
C549 C544 1.425 . S
C549 C546 1.409 . S
C549 C547 1.415 . S
C550 H540 0.930 . S
C550 C548 1.419 . S
C550 C551 1.362 . S
C551 H541 0.930 . S
C551 C544 1.409 . S
C551 C550 1.362 . S
H552 C558 0.930 . S
H553 C561 0.930 . S
H554 C562 0.930 . S
H555 C563 0.930 . S
H556 C566 0.930 . S
H557 C567 0.930 . S
C558 H552 0.930 . S
C558 C559 1.355 . S
C558 C560 1.415 . S
C559 C558 1.355 . S
C559 C561 1.419 . S
C560 C558 1.415 . S
C560 C565 1.425 . S
C560 C567 1.409 . S
C561 H553 0.930 . S
C561 C559 1.419 . S
C561 C562 1.362 . S
C562 H554 0.930 . S
C562 C561 1.362 . S
C562 C565 1.409 . S
C563 H555 0.930 . S
C563 C564 1.355 . S
C563 C565 1.415 . S
C564 C563 1.355 . S
C564 C566 1.419 . S
C565 C560 1.425 . S
C565 C562 1.409 . S
C565 C563 1.415 . S
C566 H556 0.930 . S
C566 C564 1.419 . S
C566 C567 1.362 . S
C567 H557 0.930 . S
C567 C560 1.409 . S
C567 C566 1.362 . S
H568 C574 0.930 . S
H569 C577 0.930 . S
H570 C578 0.930 . S
H571 C579 0.930 . S
H572 C582 0.930 . S
H573 C583 0.930 . S
C574 H568 0.930 . S
C574 C575 1.355 . S
C574 C576 1.415 1_455 S
C575 C574 1.355 . S
C575 C577 1.419 . S
C576 C574 1.415 1_655 S
C576 C581 1.425 . S
C576 C583 1.409 . S
C577 H569 0.930 . S
C577 C575 1.419 . S
C577 C578 1.362 1_455 S
C578 H570 0.930 . S
C578 C577 1.362 1_655 S
C578 C581 1.409 . S
C579 H571 0.930 . S
C579 C580 1.355 . S
C579 C581 1.415 . S
C580 C579 1.355 . S
C580 C582 1.419 . S
C581 C576 1.425 . S
C581 C578 1.409 . S
C581 C579 1.415 . S
C582 H572 0.930 . S
C582 C580 1.419 . S
C582 C583 1.362 . S
C583 H573 0.930 . S
C583 C576 1.409 . S
C583 C582 1.362 . S
H584 C590 0.930 . S
H585 C593 0.930 . S
H586 C594 0.930 1_455 S
H587 C595 0.930 . S
H588 C598 0.930 . S
H589 C599 0.930 . S
C590 H584 0.930 . S
C590 C591 1.355 . S
C590 C592 1.415 1_655 S
C591 C590 1.355 . S
C591 C593 1.419 . S
C592 C590 1.415 1_455 S
C592 C597 1.425 . S
C592 C599 1.409 . S
C593 H585 0.930 . S
C593 C591 1.419 . S
C593 C594 1.362 . S
C594 H586 0.930 1_655 S
C594 C593 1.362 . S
C594 C597 1.409 1_655 S
C595 H587 0.930 . S
C595 C596 1.355 . S
C595 C597 1.415 . S
C596 C595 1.355 . S
C596 C598 1.419 . S
C597 C592 1.425 . S
C597 C594 1.409 1_455 S
C597 C595 1.415 . S
C598 H588 0.930 . S
C598 C596 1.419 . S
C598 C599 1.362 . S
C599 H589 0.930 . S
C599 C592 1.409 . S
C599 C598 1.362 . S
H600 C606 0.930 . S
H601 C609 0.930 . S
H602 C610 0.930 . S
H603 C611 0.930 . S
H604 C614 0.930 . S
H605 C615 0.930 . S
C606 H600 0.930 . S
C606 C607 1.355 . S
C606 C608 1.415 1_455 S
C607 C606 1.355 . S
C607 C609 1.419 . S
C608 C606 1.415 1_655 S
C608 C613 1.425 . S
C608 C615 1.409 . S
C609 H601 0.930 . S
C609 C607 1.419 . S
C609 C610 1.362 1_455 S
C610 H602 0.930 . S
C610 C609 1.362 1_655 S
C610 C613 1.409 . S
C611 H603 0.930 . S
C611 C612 1.355 . S
C611 C613 1.415 . S
C612 C611 1.355 . S
C612 C614 1.419 . S
C613 C608 1.425 . S
C613 C610 1.409 . S
C613 C611 1.415 . S
C614 H604 0.930 . S
C614 C612 1.419 . S
C614 C615 1.362 . S
C615 H605 0.930 . S
C615 C608 1.409 . S
C615 C614 1.362 . S
H616 C622 0.930 . S
H617 C625 0.930 . S
H618 C626 0.930 . S
H619 C627 0.930 . S
H620 C630 0.930 . S
H621 C631 0.930 . S
C622 H616 0.930 . S
C622 C623 1.355 . S
C622 C624 1.415 . S
C623 C622 1.355 . S
C623 C625 1.419 . S
C624 C622 1.415 . S
C624 C629 1.425 . S
C624 C631 1.409 . S
C625 H617 0.930 . S
C625 C623 1.419 . S
C625 C626 1.362 . S
C626 H618 0.930 . S
C626 C625 1.362 . S
C626 C629 1.409 . S
C627 H619 0.930 . S
C627 C628 1.355 . S
C627 C629 1.415 1_655 S
C628 C627 1.355 . S
C628 C630 1.419 . S
C629 C624 1.425 . S
C629 C626 1.409 . S
C629 C627 1.415 1_455 S
C630 H620 0.930 . S
C630 C628 1.419 . S
C630 C631 1.362 1_655 S
C631 H621 0.930 . S
C631 C624 1.409 . S
C631 C630 1.362 1_455 S
H632 C638 0.930 . S
H633 C641 0.930 . S
H634 C642 0.930 . S
H635 C643 0.930 . S
H636 C646 0.930 . S
H637 C647 0.930 . S
C638 H632 0.930 . S
C638 C639 1.355 . S
C638 C640 1.415 1_545 S
C639 C638 1.355 . S
C639 C641 1.419 . S
C640 C638 1.415 1_565 S
C640 C645 1.425 . S
C640 C647 1.409 . S
C641 H633 0.930 . S
C641 C639 1.419 . S
C641 C642 1.362 1_545 S
C642 H634 0.930 . S
C642 C641 1.362 1_565 S
C642 C645 1.409 . S
C643 H635 0.930 . S
C643 C644 1.355 . S
C643 C645 1.415 . S
C644 C643 1.355 . S
C644 C646 1.419 . S
C645 C640 1.425 . S
C645 C642 1.409 . S
C645 C643 1.415 . S
C646 H636 0.930 . S
C646 C644 1.419 . S
C646 C647 1.362 . S
C647 H637 0.930 . S
C647 C640 1.409 . S
C647 C646 1.362 . S
H648 C654 0.930 . S
H649 C657 0.930 . S
H650 C658 0.930 . S
H651 C659 0.930 . S
H652 C662 0.930 . S
H653 C663 0.930 . S
C654 H648 0.930 . S
C654 C655 1.355 . S
C654 C656 1.415 . S
C655 C654 1.355 . S
C655 C657 1.419 . S
C656 C654 1.415 . S
C656 C661 1.425 . S
C656 C663 1.409 . S
C657 H649 0.930 . S
C657 C655 1.419 . S
C657 C658 1.362 . S
C658 H650 0.930 . S
C658 C657 1.362 . S
C658 C661 1.409 . S
C659 H651 0.930 . S
C659 C660 1.355 . S
C659 C661 1.415 1_565 S
C660 C659 1.355 . S
C660 C662 1.419 . S
C661 C656 1.425 . S
C661 C658 1.409 . S
C661 C659 1.415 1_545 S
C662 H652 0.930 . S
C662 C660 1.419 . S
C662 C663 1.362 1_565 S
C663 H653 0.930 . S
C663 C656 1.409 . S
C663 C662 1.362 1_545 S
H664 C670 0.930 . S
H665 C673 0.930 . S
H666 C674 0.930 . S
H667 C675 0.930 . S
H668 C678 0.930 . S
H669 C679 0.930 . S
C670 H664 0.930 . S
C670 C671 1.355 . S
C670 C672 1.415 . S
C671 C670 1.355 . S
C671 C673 1.419 . S
C672 C670 1.415 . S
C672 C677 1.425 . S
C672 C679 1.409 . S
C673 H665 0.930 . S
C673 C671 1.419 . S
C673 C674 1.362 . S
C674 H666 0.930 . S
C674 C673 1.362 . S
C674 C677 1.409 . S
C675 H667 0.930 . S
C675 C676 1.355 . S
C675 C677 1.415 . S
C676 C675 1.355 . S
C676 C678 1.419 . S
C677 C672 1.425 . S
C677 C674 1.409 . S
C677 C675 1.415 . S
C678 H668 0.930 . S
C678 C676 1.419 . S
C678 C679 1.362 . S
C679 H669 0.930 . S
C679 C672 1.409 . S
C679 C678 1.362 . S
H680 C686 0.930 . S
H681 C689 0.930 . S
H682 C690 0.930 . S
H683 C691 0.930 . S
H684 C694 0.930 . S
H685 C695 0.930 . S
C686 H680 0.930 . S
C686 C687 1.355 . S
C686 C688 1.415 . S
C687 C686 1.355 . S
C687 C689 1.419 . S
C688 C686 1.415 . S
C688 C693 1.425 . S
C688 C695 1.409 . S
C689 H681 0.930 . S
C689 C687 1.419 . S
C689 C690 1.362 . S
C690 H682 0.930 . S
C690 C689 1.362 . S
C690 C693 1.409 . S
C691 H683 0.930 . S
C691 C692 1.355 . S
C691 C693 1.415 1_565 S
C692 C691 1.355 . S
C692 C694 1.419 . S
C693 C688 1.425 . S
C693 C690 1.409 . S
C693 C691 1.415 1_545 S
C694 H684 0.930 . S
C694 C692 1.419 . S
C694 C695 1.362 1_565 S
C695 H685 0.930 . S
C695 C688 1.409 . S
C695 C694 1.362 1_545 S
H696 C702 0.930 . S
H697 C705 0.930 . S
H698 C706 0.930 . S
H699 C707 0.930 . S
H700 C710 0.931 . S
H701 C711 0.930 . S
C702 H696 0.930 . S
C702 C703 1.355 . S
C702 C704 1.415 . S
C703 C702 1.355 . S
C703 C705 1.419 1_655 S
C704 C702 1.415 . S
C704 C709 1.425 1_655 S
C704 C711 1.409 . S
C705 H697 0.930 . S
C705 C703 1.419 1_455 S
C705 C706 1.362 . S
C706 H698 0.930 . S
C706 C705 1.362 . S
C706 C709 1.409 . S
C707 H699 0.930 . S
C707 C708 1.355 . S
C707 C709 1.415 . S
C708 C707 1.355 . S
C708 C710 1.415 1_455 S
C709 C704 1.425 1_455 S
C709 C706 1.409 . S
C709 C707 1.415 . S
C710 H700 0.931 . S
C710 C708 1.415 1_655 S
C710 C711 1.365 . S
C711 H701 0.930 . S
C711 C704 1.409 . S
C711 C710 1.365 . S
H712 C718 0.930 . S
H713 C721 0.930 . S
H714 C722 0.930 . S
H715 C723 0.931 . S
H716 C726 0.930 . S
H717 C727 0.930 . S
C718 H712 0.930 . S
C718 C719 1.355 . S
C718 C720 1.413 1_455 S
C719 C718 1.355 . S
C719 C721 1.419 . S
C720 C718 1.413 1_655 S
C720 C725 1.424 1_655 S
C720 C727 1.412 . S
C721 H713 0.930 . S
C721 C719 1.419 . S
C721 C722 1.362 . S
C722 H714 0.930 . S
C722 C721 1.362 . S
C722 C725 1.409 . S
C723 H715 0.931 . S
C723 C724 1.355 . S
C723 C725 1.415 1_655 S
C724 C723 1.355 . S
C724 C726 1.419 . S
C725 C720 1.424 1_455 S
C725 C722 1.409 . S
C725 C723 1.415 1_455 S
C726 H716 0.930 . S
C726 C724 1.419 . S
C726 C727 1.362 . S
C727 H717 0.930 . S
C727 C720 1.412 . S
C727 C726 1.362 . S
H728 C734 0.930 . S
H729 C737 0.930 . S
H730 C738 0.930 . S
H731 C739 0.930 . S
H732 C742 0.930 . S
H733 C743 0.930 . S
C734 H728 0.930 . S
C734 C735 1.355 1_545 S
C734 C736 1.415 . S
C735 C734 1.355 1_565 S
C735 C737 1.419 . S
C736 C734 1.415 . S
C736 C741 1.425 1_545 S
C736 C743 1.409 . S
C737 H729 0.930 . S
C737 C735 1.419 . S
C737 C738 1.362 . S
C738 H730 0.930 . S
C738 C737 1.362 . S
C738 C741 1.409 . S
C739 H731 0.930 . S
C739 C740 1.355 1_565 S
C739 C741 1.415 . S
C740 C739 1.355 1_545 S
C740 C742 1.419 . S
C741 C736 1.425 1_565 S
C741 C738 1.409 . S
C741 C739 1.415 . S
C742 H732 0.930 . S
C742 C740 1.419 . S
C742 C743 1.362 . S
C743 H733 0.930 . S
C743 C736 1.409 . S
C743 C742 1.362 . S
H744 C750 0.930 . S
H745 C753 0.930 . S
H746 C754 0.930 . S
H747 C755 0.930 . S
H748 C758 0.930 . S
H749 C759 0.930 . S
C750 H744 0.930 . S
C750 C751 1.355 . S
C750 C752 1.415 . S
C751 C750 1.355 . S
C751 C753 1.419 . S
C752 C750 1.415 . S
C752 C757 1.425 . S
C752 C759 1.409 . S
C753 H745 0.930 . S
C753 C751 1.419 . S
C753 C754 1.362 . S
C754 H746 0.930 . S
C754 C753 1.362 . S
C754 C757 1.409 . S
C755 H747 0.930 . S
C755 C756 1.355 . S
C755 C757 1.415 . S
C756 C755 1.355 . S
C756 C758 1.419 . S
C757 C752 1.425 . S
C757 C754 1.409 . S
C757 C755 1.415 . S
C758 H748 0.930 . S
C758 C756 1.419 . S
C758 C759 1.362 . S
C759 H749 0.930 . S
C759 C752 1.409 . S
C759 C758 1.362 . S
H760 C766 0.930 1_556 S
H761 C769 0.930 . S
H762 C770 0.930 . S
H763 C771 0.933 . S
H764 C774 0.930 . S
H765 C775 0.930 . S
C766 H760 0.930 1_554 S
C766 C767 1.355 . S
C766 C768 1.415 1_554 S
C767 C766 1.355 . S
C767 C769 1.419 . S
C768 C766 1.415 1_556 S
C768 C773 1.425 1_556 S
C768 C775 1.409 . S
C769 H761 0.930 . S
C769 C767 1.419 . S
C769 C770 1.362 . S
C770 H762 0.930 . S
C770 C769 1.362 . S
C770 C773 1.409 . S
C771 H763 0.933 . S
C771 C772 1.350 1_554 S
C771 C773 1.417 . S
C772 C771 1.350 1_556 S
C772 C774 1.419 . S
C773 C768 1.425 1_554 S
C773 C770 1.409 . S
C773 C771 1.417 . S
C774 H764 0.930 . S
C774 C772 1.419 . S
C774 C775 1.362 . S
C775 H765 0.930 . S
C775 C768 1.409 . S
C775 C774 1.362 . S
H776 C782 0.930 . S
H777 C785 0.930 . S
H778 C786 0.930 . S
H779 C787 0.930 . S
H780 C790 0.930 . S
H781 C791 0.930 . S
C782 H776 0.930 . S
C782 C783 1.355 . S
C782 C784 1.415 . S
C783 C782 1.355 . S
C783 C785 1.419 . S
C784 C782 1.415 . S
C784 C789 1.425 . S
C784 C791 1.409 . S
C785 H777 0.930 . S
C785 C783 1.419 . S
C785 C786 1.362 . S
C786 H778 0.930 . S
C786 C785 1.362 . S
C786 C789 1.409 . S
C787 H779 0.930 . S
C787 C788 1.355 . S
C787 C789 1.415 . S
C788 C787 1.355 . S
C788 C790 1.419 . S
C789 C784 1.425 . S
C789 C786 1.409 . S
C789 C787 1.415 . S
C790 H780 0.930 . S
C790 C788 1.419 . S
C790 C791 1.362 . S
C791 H781 0.930 . S
C791 C784 1.409 . S
C791 C790 1.362 . S
H792 C798 0.930 . S
H793 C801 0.930 . S
H794 C802 0.930 . S
H795 C803 0.930 . S
H796 C806 0.930 . S
H797 C807 0.930 . S
C798 H792 0.930 . S
C798 C799 1.355 . S
C798 C800 1.415 . S
C799 C798 1.355 . S
C799 C801 1.419 . S
C800 C798 1.415 . S
C800 C805 1.425 . S
C800 C807 1.409 . S
C801 H793 0.930 . S
C801 C799 1.419 . S
C801 C802 1.362 . S
C802 H794 0.930 . S
C802 C801 1.362 . S
C802 C805 1.409 . S
C803 H795 0.930 . S
C803 C804 1.355 . S
C803 C805 1.415 . S
C804 C803 1.355 . S
C804 C806 1.419 . S
C805 C800 1.425 . S
C805 C802 1.409 . S
C805 C803 1.415 . S
C806 H796 0.930 . S
C806 C804 1.419 . S
C806 C807 1.362 . S
C807 H797 0.930 . S
C807 C800 1.409 . S
C807 C806 1.362 . S
H808 C814 0.930 . S
H809 C817 0.930 . S
H810 C818 0.930 . S
H811 C819 0.930 . S
H812 C822 0.930 . S
H813 C823 0.930 . S
C814 H808 0.930 . S
C814 C815 1.355 . S
C814 C816 1.415 . S
C815 C814 1.355 . S
C815 C817 1.419 . S
C816 C814 1.415 . S
C816 C821 1.425 . S
C816 C823 1.409 . S
C817 H809 0.930 . S
C817 C815 1.419 . S
C817 C818 1.362 . S
C818 H810 0.930 . S
C818 C817 1.362 . S
C818 C821 1.409 . S
C819 H811 0.930 . S
C819 C820 1.355 . S
C819 C821 1.415 . S
C820 C819 1.355 . S
C820 C822 1.419 . S
C821 C816 1.425 . S
C821 C818 1.409 . S
C821 C819 1.415 . S
C822 H812 0.930 . S
C822 C820 1.419 . S
C822 C823 1.362 . S
C823 H813 0.930 . S
C823 C816 1.409 . S
C823 C822 1.362 . S
H824 C830 0.930 . S
H825 C833 0.930 . S
H826 C834 0.930 . S
H827 C835 0.930 . S
H828 C838 0.930 . S
H829 C839 0.930 . S
C830 H824 0.930 . S
C830 C831 1.355 . S
C830 C832 1.415 . S
C831 C830 1.355 . S
C831 C833 1.419 . S
C832 C830 1.415 . S
C832 C837 1.425 . S
C832 C839 1.409 . S
C833 H825 0.930 . S
C833 C831 1.419 . S
C833 C834 1.362 . S
C834 H826 0.930 . S
C834 C833 1.362 . S
C834 C837 1.409 . S
C835 H827 0.930 . S
C835 C836 1.355 . S
C835 C837 1.415 . S
C836 C835 1.355 . S
C836 C838 1.419 . S
C837 C832 1.425 . S
C837 C834 1.409 . S
C837 C835 1.415 . S
C838 H828 0.930 . S
C838 C836 1.419 . S
C838 C839 1.362 . S
C839 H829 0.930 . S
C839 C832 1.409 . S
C839 C838 1.362 . S
H840 C846 0.930 . S
H841 C849 0.930 . S
H842 C850 0.930 . S
H843 C851 0.930 . S
H844 C854 0.930 . S
H845 C855 0.930 . S
C846 H840 0.930 . S
C846 C847 1.355 . S
C846 C848 1.415 . S
C847 C846 1.355 . S
C847 C849 1.419 . S
C848 C846 1.415 . S
C848 C853 1.425 . S
C848 C855 1.409 . S
C849 H841 0.930 . S
C849 C847 1.419 . S
C849 C850 1.362 . S
C850 H842 0.930 . S
C850 C849 1.362 . S
C850 C853 1.409 . S
C851 H843 0.930 . S
C851 C852 1.355 . S
C851 C853 1.415 . S
C852 C851 1.355 . S
C852 C854 1.419 . S
C853 C848 1.425 . S
C853 C850 1.409 . S
C853 C851 1.415 . S
C854 H844 0.930 . S
C854 C852 1.419 . S
C854 C855 1.362 . S
C855 H845 0.930 . S
C855 C848 1.409 . S
C855 C854 1.362 . S
H856 C862 0.930 . S
H857 C865 0.930 . S
H858 C866 0.930 . S
H859 C867 0.930 . S
H860 C870 0.930 . S
H861 C871 0.930 . S
C862 H856 0.930 . S
C862 C863 1.355 1_565 S
C862 C864 1.415 . S
C863 C862 1.355 1_545 S
C863 C865 1.419 . S
C864 C862 1.415 . S
C864 C869 1.425 1_565 S
C864 C871 1.409 . S
C865 H857 0.930 . S
C865 C863 1.419 . S
C865 C866 1.362 . S
C866 H858 0.930 . S
C866 C865 1.362 . S
C866 C869 1.409 . S
C867 H859 0.930 . S
C867 C868 1.355 1_545 S
C867 C869 1.415 . S
C868 C867 1.355 1_565 S
C868 C870 1.419 . S
C869 C864 1.425 1_545 S
C869 C866 1.409 . S
C869 C867 1.415 . S
C870 H860 0.930 . S
C870 C868 1.419 . S
C870 C871 1.362 . S
C871 H861 0.930 . S
C871 C864 1.409 . S
C871 C870 1.362 . S
H872 C878 0.930 . S
H873 C881 0.930 . S
H874 C882 0.930 . S
H875 C883 0.930 . S
H876 C886 0.930 . S
H877 C887 0.930 . S
C878 H872 0.930 . S
C878 C879 1.355 1_554 S
C878 C880 1.415 . S
C879 C878 1.355 1_556 S
C879 C881 1.419 . S
C880 C878 1.415 . S
C880 C885 1.425 1_554 S
C880 C887 1.409 . S
C881 H873 0.930 . S
C881 C879 1.419 . S
C881 C882 1.362 . S
C882 H874 0.930 . S
C882 C881 1.362 . S
C882 C885 1.409 . S
C883 H875 0.930 . S
C883 C884 1.355 1_556 S
C883 C885 1.415 . S
C884 C883 1.355 1_554 S
C884 C886 1.419 . S
C885 C880 1.425 1_556 S
C885 C882 1.409 . S
C885 C883 1.415 . S
C886 H876 0.930 . S
C886 C884 1.419 . S
C886 C887 1.362 . S
C887 H877 0.930 . S
C887 C880 1.409 . S
C887 C886 1.362 . S
H888 C894 0.930 . S
H889 C897 0.930 . S
H890 C898 0.930 . S
H891 C899 0.930 . S
H892 C902 0.930 . S
H893 C903 0.930 . S
C894 H888 0.930 . S
C894 C895 1.355 1_655 S
C894 C896 1.415 . S
C895 C894 1.355 1_455 S
C895 C897 1.419 . S
C896 C894 1.415 . S
C896 C901 1.425 1_655 S
C896 C903 1.409 1_565 S
C897 H889 0.930 . S
C897 C895 1.419 . S
C897 C898 1.362 . S
C898 H890 0.930 . S
C898 C897 1.362 . S
C898 C901 1.409 . S
C899 H891 0.930 . S
C899 C900 1.355 . S
C899 C901 1.415 1_545 S
C900 C899 1.355 . S
C900 C902 1.419 1_455 S
C901 C896 1.425 1_455 S
C901 C898 1.409 . S
C901 C899 1.415 1_565 S
C902 H892 0.930 . S
C902 C900 1.419 1_655 S
C902 C903 1.362 . S
C903 H893 0.930 . S
C903 C896 1.409 1_545 S
C903 C902 1.362 . S
H904 C910 0.930 . S
H905 C913 0.930 . S
H906 C914 0.930 . S
H907 C915 0.930 . S
H908 C918 0.930 . S
H909 C919 0.930 . S
C910 H904 0.930 . S
C910 C911 1.355 . S
C910 C912 1.415 . S
C911 C910 1.355 . S
C911 C913 1.419 1_655 S
C912 C910 1.415 . S
C912 C917 1.425 1_655 S
C912 C919 1.409 . S
C913 H905 0.930 . S
C913 C911 1.419 1_455 S
C913 C914 1.362 . S
C914 H906 0.930 . S
C914 C913 1.362 . S
C914 C917 1.409 . S
C915 H907 0.930 . S
C915 C916 1.355 1_455 S
C915 C917 1.415 . S
C916 C915 1.355 1_655 S
C916 C918 1.419 . S
C917 C912 1.425 1_455 S
C917 C914 1.409 . S
C917 C915 1.415 . S
C918 H908 0.930 . S
C918 C916 1.419 . S
C918 C919 1.362 . S
C919 H909 0.930 . S
C919 C912 1.409 . S
C919 C918 1.362 . S
H920 C926 0.930 . S
H921 C929 0.930 . S
H922 C930 0.930 1_554 S
H923 C931 0.930 . S
H924 C934 0.930 . S
H925 C935 0.930 1_556 S
C926 H920 0.930 . S
C926 C927 1.355 1_565 S
C926 C928 1.415 . S
C927 C926 1.355 1_545 S
C927 C929 1.419 . S
C928 C926 1.415 . S
C928 C933 1.425 1_566 S
C928 C935 1.409 1_556 S
C929 H921 0.930 . S
C929 C927 1.419 . S
C929 C930 1.362 . S
C930 H922 0.930 1_556 S
C930 C929 1.362 . S
C930 C933 1.409 1_556 S
C931 H923 0.930 . S
C931 C932 1.355 . S
C931 C933 1.415 . S
C932 C931 1.355 . S
C932 C934 1.419 1_545 S
C933 C928 1.425 1_544 S
C933 C930 1.409 1_554 S
C933 C931 1.415 . S
C934 H924 0.930 . S
C934 C932 1.419 1_565 S
C934 C935 1.362 . S
C935 H925 0.930 1_554 S
C935 C928 1.409 1_554 S
C935 C934 1.362 . S
H936 C942 0.930 . S
H937 C945 0.930 . S
H938 C946 0.930 . S
H939 C947 0.930 . S
H940 C950 0.930 . S
H941 C951 0.930 . S
C942 H936 0.930 . S
C942 C943 1.355 . S
C942 C944 1.415 . S
C943 C942 1.355 . S
C943 C945 1.419 . S
C944 C942 1.415 . S
C944 C949 1.425 1_554 S
C944 C951 1.409 1_554 S
C945 H937 0.930 . S
C945 C943 1.419 . S
C945 C946 1.362 . S
C946 H938 0.930 . S
C946 C945 1.362 . S
C946 C949 1.409 1_554 S
C947 H939 0.930 . S
C947 C948 1.355 . S
C947 C949 1.415 . S
C948 C947 1.355 . S
C948 C950 1.419 . S
C949 C944 1.425 1_556 S
C949 C946 1.409 1_556 S
C949 C947 1.415 . S
C950 H940 0.930 . S
C950 C948 1.419 . S
C950 C951 1.362 . S
C951 H941 0.930 . S
C951 C944 1.409 1_556 S
C951 C950 1.362 . S
H952 C958 0.930 . S
H953 C961 0.930 . S
H954 C962 0.930 . S
H955 C963 0.930 . S
H956 C966 0.930 . S
H957 C967 0.930 . S
C958 H952 0.930 . S
C958 C959 1.355 1_545 S
C958 C960 1.415 . S
C959 C958 1.355 1_565 S
C959 C961 1.419 . S
C960 C958 1.415 . S
C960 C965 1.425 1_545 S
C960 C967 1.409 . S
C961 H953 0.930 . S
C961 C959 1.419 . S
C961 C962 1.362 . S
C962 H954 0.930 . S
C962 C961 1.362 . S
C962 C965 1.409 . S
C963 H955 0.930 . S
C963 C964 1.355 . S
C963 C965 1.415 . S
C964 C963 1.355 . S
C964 C966 1.419 1_565 S
C965 C960 1.425 1_565 S
C965 C962 1.409 . S
C965 C963 1.415 . S
C966 H956 0.930 . S
C966 C964 1.419 1_545 S
C966 C967 1.362 . S
C967 H957 0.930 . S
C967 C960 1.409 . S
C967 C966 1.362 . S
H968 C974 0.930 . S
H969 C977 0.930 . S
H970 C978 0.930 . S
H971 C979 0.930 . S
H972 C982 0.930 . S
H973 C983 0.930 . S
C974 H968 0.930 . S
C974 C975 1.355 . S
C974 C976 1.415 . S
C975 C974 1.355 . S
C975 C977 1.419 . S
C976 C974 1.415 . S
C976 C981 1.425 . S
C976 C983 1.409 . S
C977 H969 0.930 . S
C977 C975 1.419 . S
C977 C978 1.362 . S
C978 H970 0.930 . S
C978 C977 1.362 . S
C978 C981 1.409 . S
C979 H971 0.930 . S
C979 C980 1.355 . S
C979 C981 1.415 . S
C980 C979 1.355 . S
C980 C982 1.419 . S
C981 C976 1.425 . S
C981 C978 1.409 . S
C981 C979 1.415 . S
C982 H972 0.930 . S
C982 C980 1.419 . S
C982 C983 1.362 . S
C983 H973 0.930 . S
C983 C976 1.409 . S
C983 C982 1.362 . S
H984 C990 0.930 1_556 S
H985 C993 0.930 . S
H986 C994 0.930 . S
H987 C995 0.930 . S
H988 C998 0.929 1_556 S
H989 C999 0.930 1_556 S
C990 H984 0.930 1_554 S
C990 C991 1.355 . S
C990 C992 1.415 . S
C991 C990 1.355 . S
C991 C993 1.419 . S
C992 C990 1.415 . S
C992 C997 1.425 1_455 S
C992 C999 1.409 . S
C993 H985 0.930 . S
C993 C991 1.419 . S
C993 C994 1.362 1_455 S
C994 H986 0.930 . S
C994 C993 1.362 1_655 S
C994 C997 1.409 . S
C995 H987 0.930 . S
C995 C996 1.355 . S
C995 C997 1.415 . S
C996 C995 1.355 . S
C996 C998 1.419 . S
C997 C992 1.425 1_655 S
C997 C994 1.409 . S
C997 C995 1.415 . S
C998 H988 0.929 1_554 S
C998 C996 1.419 . S
C998 C999 1.362 1_655 S
C999 H989 0.930 1_554 S
C999 C992 1.409 . S
C999 C998 1.362 1_455 S
H1000 C1006 0.930 . S
H1001 C1009 0.930 . S
H1002 C1010 0.930 . S
H1003 C1011 0.930 . S
H1004 C1014 0.930 . S
H1005 C1015 0.930 . S
C1006 H1000 0.930 . S
C1006 C1007 1.355 . S
C1006 C1008 1.415 1_455 S
C1007 C1006 1.355 . S
C1007 C1009 1.419 . S
C1008 C1006 1.415 1_655 S
C1008 C1013 1.425 1_655 S
C1008 C1015 1.409 . S
C1009 H1001 0.930 . S
C1009 C1007 1.419 . S
C1009 C1010 1.362 . S
C1010 H1002 0.930 . S
C1010 C1009 1.362 . S
C1010 C1013 1.409 . S
C1011 H1003 0.930 . S
C1011 C1012 1.355 . S
C1011 C1013 1.415 1_655 S
C1012 C1011 1.355 . S
C1012 C1014 1.419 . S
C1013 C1008 1.425 1_455 S
C1013 C1010 1.409 . S
C1013 C1011 1.415 1_455 S
C1014 H1004 0.930 . S
C1014 C1012 1.419 . S
C1014 C1015 1.362 . S
C1015 H1005 0.930 . S
C1015 C1008 1.409 . S
C1015 C1014 1.362 . S
H1016 C1022 0.930 . S
H1017 C1025 0.930 . S
H1018 C1026 0.930 . S
H1019 C1027 0.930 . S
H1020 C1030 0.930 . S
H1021 C1031 0.930 . S
C1022 H1016 0.930 . S
C1022 C1023 1.355 . S
C1022 C1024 1.415 . S
C1023 C1022 1.355 . S
C1023 C1025 1.419 . S
C1024 C1022 1.415 . S
C1024 C1029 1.425 . S
C1024 C1031 1.409 . S
C1025 H1017 0.930 . S
C1025 C1023 1.419 . S
C1025 C1026 1.362 . S
C1026 H1018 0.930 . S
C1026 C1025 1.362 . S
C1026 C1029 1.409 . S
C1027 H1019 0.930 . S
C1027 C1028 1.355 . S
C1027 C1029 1.415 . S
C1028 C1027 1.355 . S
C1028 C1030 1.419 . S
C1029 C1024 1.425 . S
C1029 C1026 1.409 . S
C1029 C1027 1.415 . S
C1030 H1020 0.930 . S
C1030 C1028 1.419 . S
C1030 C1031 1.362 . S
C1031 H1021 0.930 . S
C1031 C1024 1.409 . S
C1031 C1030 1.362 . S
H1032 C1038 0.930 . S
H1033 C1041 0.930 . S
H1034 C1042 0.930 . S
H1035 C1043 0.930 . S
H1036 C1046 0.930 . S
H1037 C1047 0.930 . S
C1038 H1032 0.930 . S
C1038 C1039 1.355 . S
C1038 C1040 1.415 . S
C1039 C1038 1.355 . S
C1039 C1041 1.419 . S
C1040 C1038 1.415 . S
C1040 C1045 1.425 . S
C1040 C1047 1.409 . S
C1041 H1033 0.930 . S
C1041 C1039 1.419 . S
C1041 C1042 1.362 . S
C1042 H1034 0.930 . S
C1042 C1041 1.362 . S
C1042 C1045 1.409 . S
C1043 H1035 0.930 . S
C1043 C1044 1.355 . S
C1043 C1045 1.415 . S
C1044 C1043 1.355 . S
C1044 C1046 1.419 . S
C1045 C1040 1.425 . S
C1045 C1042 1.409 . S
C1045 C1043 1.415 . S
C1046 H1036 0.930 . S
C1046 C1044 1.419 . S
C1046 C1047 1.362 . S
C1047 H1037 0.930 . S
C1047 C1040 1.409 . S
C1047 C1046 1.362 . S
H1048 C1054 0.930 . S
H1049 C1057 0.930 . S
H1050 C1058 0.930 . S
H1051 C1059 0.930 . S
H1052 C1062 0.930 . S
H1053 C1063 0.930 . S
C1054 H1048 0.930 . S
C1054 C1055 1.355 . S
C1054 C1056 1.415 . S
C1055 C1054 1.355 . S
C1055 C1057 1.419 . S
C1056 C1054 1.415 . S
C1056 C1061 1.425 1_565 S
C1056 C1063 1.409 . S
C1057 H1049 0.930 . S
C1057 C1055 1.419 . S
C1057 C1058 1.362 1_565 S
C1058 H1050 0.930 . S
C1058 C1057 1.362 1_545 S
C1058 C1061 1.409 . S
C1059 H1051 0.930 . S
C1059 C1060 1.355 . S
C1059 C1061 1.415 . S
C1060 C1059 1.355 . S
C1060 C1062 1.419 . S
C1061 C1056 1.425 1_545 S
C1061 C1058 1.409 . S
C1061 C1059 1.415 . S
C1062 H1052 0.930 . S
C1062 C1060 1.419 . S
C1062 C1063 1.362 1_545 S
C1063 H1053 0.930 . S
C1063 C1056 1.409 . S
C1063 C1062 1.362 1_565 S
H1064 C1070 0.930 . S
H1065 C1073 0.930 . S
H1066 C1074 0.930 . S
H1067 C1075 0.930 1_554 S
H1068 C1078 0.930 . S
H1069 C1079 0.930 . S
C1070 H1064 0.930 . S
C1070 C1071 1.355 . S
C1070 C1072 1.415 . S
C1071 C1070 1.355 . S
C1071 C1073 1.419 1_556 S
C1072 C1070 1.415 . S
C1072 C1077 1.425 . S
C1072 C1079 1.409 . S
C1073 H1065 0.930 . S
C1073 C1071 1.419 1_554 S
C1073 C1074 1.362 . S
C1074 H1066 0.930 . S
C1074 C1073 1.362 . S
C1074 C1077 1.409 1_554 S
C1075 H1067 0.930 1_556 S
C1075 C1076 1.355 . S
C1075 C1077 1.415 . S
C1076 C1075 1.355 . S
C1076 C1078 1.419 . S
C1077 C1072 1.425 . S
C1077 C1074 1.409 1_556 S
C1077 C1075 1.415 . S
C1078 H1068 0.930 . S
C1078 C1076 1.419 . S
C1078 C1079 1.362 . S
C1079 H1069 0.930 . S
C1079 C1072 1.409 . S
C1079 C1078 1.362 . S
C319 C226 0.698 . S
C324 C8 0.757 . S
C335 C21 0.947 . S
C340 C213 0.916 . S
C351 C34 0.864 . S
C356 C252 0.954 . S
C367 C47 0.854 . S
C372 C239 0.807 . S
C383 C60 0.911 . S
C388 C278 0.838 . S
C399 C73 0.846 . S
C404 C291 0.737 . S
C415 C265 0.793 . S
C420 C86 0.940 . S
C431 C148 0.967 . S
C436 C99 0.972 . S
C447 C112 0.709 . S
C452 C44 0.789 . S
C463 C18 0.841 . S
C468 C125 0.767 . S
C479 C138 0.930 . S
C484 C5 0.996 . S
C495 C151 0.956 . S
C500 C187 0.972 . S
C511 C70 1.020 . S
C516 C164 1.004 . S
C527 C57 0.809 . S
C532 C177 0.939 . S
C543 C190 0.933 . S
C548 C96 0.768 . S
C559 C203 0.862 . S
C564 C83 0.741 . S
C575 C122 0.931 . S
C580 C216 0.914 . S
C591 C135 0.890 . S
C596 C229 1.011 . S
C607 C109 0.920 . S
C612 C242 0.847 . S
C623 C255 0.777 . S
C628 C304 0.851 . S
C639 C200 0.879 . S
C644 C268 1.044 . S
C655 C281 0.888 . S
C660 C174 0.953 . S
C671 C161 0.913 . S
C676 C294 0.947 . S
C687 C307 0.861 . S
C692 C31 0.753 . S
C703 C0 1.501 . S
C708 C13 1.546 . S
C719 C39 1.496 . S
C724 C26 1.449 . S
C735 C52 1.547 . S
C740 C78 1.550 . S
C751 C65 1.639 . S
C756 C91 1.608 . S
C767 C286 1.529 . S
C772 C104 1.554 . S
C783 C117 1.654 . S
C788 C143 1.675 . S
C799 C260 1.560 . S
C804 C130 1.566 . S
C815 C169 1.606 . S
C820 C156 1.633 . S
C831 C182 1.619 . S
C836 C195 1.599 . S
C847 C234 1.587 . S
C852 C208 1.560 . S
C863 C221 1.505 . S
C868 C247 1.457 . S
C879 C299 1.506 . S
C884 C273 1.470 . S
C895 C36 1.279 . S
C900 C10 1.292 . S
C911 C23 1.373 . S
C916 C49 1.361 . S
C927 C257 1.257 . S
C932 C62 1.269 . S
C943 C75 1.354 . S
C948 C244 1.339 . S
C959 C88 1.352 . S
C964 C231 1.361 . S
C975 C218 1.389 . S
C980 C101 1.399 . S
C991 C114 1.246 . S
C996 C309 1.243 . S
C1007 C127 1.365 . S
C1012 C140 1.365 . S
C1023 C270 1.385 . S
C1028 C153 1.385 . S
C1039 C166 1.450 . S
C1044 C192 1.453 . S
C1055 C179 1.295 . S
C1060 C205 1.296 . S
C1071 C296 1.355 . S
C1076 C283 1.344 . S
