# Generated by pormake.
# Topology wjh, (4)-cn, num edge types: 1
# Building blocks:
#     Node 0, Type 0, BuildingBlock: CEKHIL_clean_sbu_0, # of connection points: 4
#     Node 1, Type 0, BuildingBlock: CEKHIL_clean_sbu_0, # of connection points: 4
#     Node 2, Type 0, BuildingBlock: CEKHIL_clean_sbu_0, # of connection points: 4
#     Node 3, Type 0, BuildingBlock: CEKHIL_clean_sbu_0, # of connection points: 4
#     Node 4, Type 0, BuildingBlock: CEKHIL_clean_sbu_0, # of connection points: 4
#     Node 5, Type 0, BuildingBlock: CEKHIL_clean_sbu_0, # of connection points: 4
#     Node 6, Type 0, BuildingBlock: CEKHIL_clean_sbu_0, # of connection points: 4
#     Node 7, Type 0, BuildingBlock: CEKHIL_clean_sbu_0, # of connection points: 4
#     Node 8, Type 0, BuildingBlock: CEKHIL_clean_sbu_0, # of connection points: 4
#     Node 9, Type 0, BuildingBlock: CEKHIL_clean_sbu_0, # of connection points: 4
#     Node 10, Type 0, BuildingBlock: CEKHIL_clean_sbu_0, # of connection points: 4
#     Node 11, Type 0, BuildingBlock: CEKHIL_clean_sbu_0, # of connection points: 4
#     Edge 12, Type (0, 0), BuildingBlock: XUDNAN_clean_linker_2, # of connection points: 2
#     Edge 13, Type (0, 0), BuildingBlock: XUDNAN_clean_linker_2, # of connection points: 2
#     Edge 14, Type (0, 0), BuildingBlock: XUDNAN_clean_linker_2, # of connection points: 2
#     Edge 15, Type (0, 0), BuildingBlock: XUDNAN_clean_linker_2, # of connection points: 2
#     Edge 16, Type (0, 0), BuildingBlock: XUDNAN_clean_linker_2, # of connection points: 2
#     Edge 17, Type (0, 0), BuildingBlock: XUDNAN_clean_linker_2, # of connection points: 2
#     Edge 18, Type (0, 0), BuildingBlock: XUDNAN_clean_linker_2, # of connection points: 2
#     Edge 19, Type (0, 0), BuildingBlock: XUDNAN_clean_linker_2, # of connection points: 2
#     Edge 20, Type (0, 0), BuildingBlock: XUDNAN_clean_linker_2, # of connection points: 2
#     Edge 21, Type (0, 0), BuildingBlock: XUDNAN_clean_linker_2, # of connection points: 2
#     Edge 22, Type (0, 0), BuildingBlock: XUDNAN_clean_linker_2, # of connection points: 2
#     Edge 23, Type (0, 0), BuildingBlock: XUDNAN_clean_linker_2, # of connection points: 2
#     Edge 24, Type (0, 0), BuildingBlock: XUDNAN_clean_linker_2, # of connection points: 2
#     Edge 25, Type (0, 0), BuildingBlock: XUDNAN_clean_linker_2, # of connection points: 2
#     Edge 26, Type (0, 0), BuildingBlock: XUDNAN_clean_linker_2, # of connection points: 2
#     Edge 27, Type (0, 0), BuildingBlock: XUDNAN_clean_linker_2, # of connection points: 2
#     Edge 28, Type (0, 0), BuildingBlock: XUDNAN_clean_linker_2, # of connection points: 2
#     Edge 29, Type (0, 0), BuildingBlock: XUDNAN_clean_linker_2, # of connection points: 2
#     Edge 30, Type (0, 0), BuildingBlock: XUDNAN_clean_linker_2, # of connection points: 2
#     Edge 31, Type (0, 0), BuildingBlock: XUDNAN_clean_linker_2, # of connection points: 2
#     Edge 32, Type (0, 0), BuildingBlock: XUDNAN_clean_linker_2, # of connection points: 2
#     Edge 33, Type (0, 0), BuildingBlock: XUDNAN_clean_linker_2, # of connection points: 2
#     Edge 34, Type (0, 0), BuildingBlock: XUDNAN_clean_linker_2, # of connection points: 2
#     Edge 35, Type (0, 0), BuildingBlock: XUDNAN_clean_linker_2, # of connection points: 2
# Relax obj value: 0.078
# Max RMSD: 0.099
# Mean RMSD: 0.099
data_MOF--net-wjh--node1-CEKHIL_clean_sbu_0--edge1-XUDNAN_clean_linker_2
_symmetry_space_group_name_H-M    P1
_symmetry_Int_Tables_number       1
_symmetry_cell_setting            triclinic
loop_
_symmetry_equiv_pos_as_xyz
'x, y, z'
_cell_length_a     60.431609
_cell_length_b     60.643648
_cell_length_c     26.294247
_cell_angle_alpha  89.94388
_cell_angle_beta   90.038178
_cell_angle_gamma 119.92639
loop_
_atom_site_label
_atom_site_type_symbol
_atom_site_fract_x
_atom_site_fract_y
_atom_site_fract_z
_atom_type_partial_charge
Co0 Co 0.52952 0.15437 0.02649 0.0
O1 O 0.54089 0.18936 0.04379 0.0
O2 O 0.50201 0.15722 0.05817 0.0
C3 C 0.54578 0.1619 0.94701 0.0
O4 O 0.51084 0.11589 0.01402 0.0
Co5 Co 0.56985 0.13786 0.00335 0.0
O6 O 0.53924 0.10425 0.98952 0.0
C7 C 0.56094 0.1475 0.10857 0.0
C8 C 0.5181 0.18151 0.06137 0.0
C9 C 0.51645 0.09888 -0.00017 0.0
O10 O 0.54134 0.14893 0.09428 0.0
O11 O 0.57653 0.146 0.07778 0.0
O12 O 0.52394 0.16045 0.95589 0.0
O13 O 0.55796 0.16117 0.98664 0.0
Co14 Co 0.38679 0.53286 0.19802 0.0
O15 O 0.36735 0.55005 0.19782 0.0
O16 O 0.35181 0.50992 0.22065 0.0
C17 C 0.40686 0.54819 0.12239 0.0
O18 O 0.40182 0.50903 0.20266 0.0
Co19 Co 0.44646 0.56661 0.20014 0.0
O20 O 0.44486 0.53321 0.20045 0.0
C21 C 0.41541 0.56632 0.28532 0.0
C22 C 0.34849 0.5295 0.21674 0.0
C23 C 0.42441 0.51166 0.20314 0.0
O24 O 0.39708 0.54464 0.27046 0.0
O25 O 0.43541 0.57983 0.2587 0.0
O26 O 0.38384 0.52854 0.12284 0.0
O27 O 0.41514 0.55854 0.16589 0.0
Co28 Co 0.86415 0.37283 0.36054 0.0
O29 O 0.82807 0.3482 0.35924 0.0
O30 O 0.85781 0.34093 0.39053 0.0
C31 C 0.86745 0.38719 0.28008 0.0
O32 O 0.9032 0.39296 0.36747 0.0
Co33 Co 0.88298 0.43056 0.34785 0.0
O34 O 0.91748 0.43433 0.35047 0.0
C35 C 0.85816 0.40467 0.44298 0.0
C36 C 0.83371 0.33261 0.38194 0.0
C37 C 0.92143 0.4161 0.3615 0.0
O38 O 0.85939 0.385 0.42879 0.0
O39 O 0.86467 0.42406 0.41447 0.0
O40 O 0.86803 0.36638 0.28909 0.0
O41 O 0.86245 0.397 0.31876 0.0
Co42 Co 0.4919 0.85958 0.5405 0.0
O43 O 0.48063 0.82361 0.53685 0.0
O44 O 0.51893 0.85337 0.5623 0.0
C45 C 0.47646 0.86341 0.46433 0.0
O46 O 0.51083 0.89841 0.54899 0.0
Co47 Co 0.45222 0.87822 0.54203 0.0
O48 O 0.48278 0.91261 0.54604 0.0
C49 C 0.45543 0.84861 0.62653 0.0
C50 C 0.50291 0.82935 0.55484 0.0
C51 C 0.50549 0.91652 0.55029 0.0
O52 O 0.47804 0.85426 0.61223 0.0
O53 O 0.44072 0.85348 0.59973 0.0
O54 O 0.49814 0.86367 0.46623 0.0
O55 O 0.46426 0.85836 0.50664 0.0
Co56 Co 0.63409 0.4765 0.70863 0.0
O57 O 0.65369 0.45957 0.71301 0.0
O58 O 0.66907 0.50027 0.73044 0.0
C59 C 0.61442 0.4588 0.63391 0.0
O60 O 0.61861 0.50008 0.70739 0.0
Co61 Co 0.57439 0.44244 0.70964 0.0
O62 O 0.57625 0.47525 0.69416 0.0
C63 C 0.60514 0.44548 0.79819 0.0
C64 C 0.67255 0.48071 0.72973 0.0
C65 C 0.5962 0.49711 0.6986 0.0
O66 O 0.62362 0.46671 0.78181 0.0
O67 O 0.58513 0.43139 0.77205 0.0
O68 O 0.63729 0.47867 0.63325 0.0
O69 O 0.60605 0.44972 0.67824 0.0
Co70 Co 0.16094 0.64182 0.85795 0.0
O71 O 0.19689 0.66584 0.86672 0.0
O72 O 0.16566 0.67086 0.89759 0.0
C73 C 0.1628 0.63473 0.77432 0.0
O74 O 0.12168 0.62163 0.85591 0.0
Co75 Co 0.14231 0.58596 0.82306 0.0
O76 O 0.10881 0.58424 0.81647 0.0
C77 C 0.1639 0.60324 0.92544 0.0
C78 C 0.19008 0.67962 0.89285 0.0
C79 C 0.10404 0.60057 0.8365 0.0
O80 O 0.16178 0.62328 0.92087 0.0
O81 O 0.15958 0.58762 0.88901 0.0
O82 O 0.16146 0.65457 0.78877 0.0
O83 O 0.16498 0.6216 0.81026 0.0
Co84 Co 0.8609 0.47962 0.88095 0.0
O85 O 0.82444 0.46221 0.8883 0.0
O86 O 0.84723 0.50134 0.85872 0.0
C87 C 0.86923 0.46775 0.95726 0.0
O88 O 0.89939 0.50371 0.86993 0.0
Co89 Co 0.88763 0.44667 0.87911 0.0
O90 O 0.91906 0.48035 0.87459 0.0
C91 C 0.85446 0.444 0.79559 0.0
C92 C 0.8248 0.48218 0.86963 0.0
C93 C 0.91963 0.50155 0.86934 0.0
O94 O 0.85663 0.46532 0.80979 0.0
O95 O 0.86254 0.43177 0.82211 0.0
O96 O 0.86533 0.487 0.95496 0.0
O97 O 0.86553 0.45554 0.9154 0.0
Co98 Co 0.38279 0.85762 0.05764 0.0
O99 O 0.35734 0.8218 0.05922 0.0
O100 O 0.35143 0.85198 0.02592 0.0
C101 C 0.39619 0.861 0.13902 0.0
O102 O 0.40365 0.89642 0.04933 0.0
Co103 Co 0.44044 0.87612 0.07396 0.0
O104 O 0.44495 0.9107 0.06809 0.0
C105 C 0.4155 0.85096 0.97822 0.0
C106 C 0.34235 0.82793 0.03535 0.0
C107 C 0.42687 0.9146 0.05505 0.0
O108 O 0.39552 0.85211 0.99075 0.0
O109 O 0.43467 0.85772 0.00774 0.0
O110 O 0.3757 0.86207 0.12837 0.0
O111 O 0.40635 0.8557 0.10132 0.0
Co112 Co 0.52304 0.36897 0.2273 0.0
O113 O 0.53402 0.34404 0.22502 0.0
O114 O 0.49763 0.33828 0.19332 0.0
C115 C 0.53342 0.3803 0.30924 0.0
O116 O 0.50464 0.38973 0.22362 0.0
Co117 Co 0.56177 0.4261 0.24866 0.0
O118 O 0.53043 0.42851 0.25657 0.0
C119 C 0.56187 0.40379 0.14938 0.0
C120 C 0.51299 0.32935 0.2008 0.0
C121 C 0.5088 0.41163 0.23939 0.0
O122 O 0.54101 0.3834 0.16098 0.0
O123 O 0.57405 0.42236 0.18015 0.0
O124 O 0.51187 0.36007 0.29792 0.0
O125 O 0.54852 0.39145 0.27153 0.0
Co126 Co 0.16469 0.53614 0.37787 0.0
O127 O 0.20125 0.55365 0.37652 0.0
O128 O 0.17709 0.51259 0.36122 0.0
C129 C 0.16187 0.55495 0.45004 0.0
O130 O 0.12569 0.51194 0.37786 0.0
Co131 Co 0.13779 0.56895 0.37105 0.0
O132 O 0.10767 0.53629 0.39092 0.0
C133 C 0.16324 0.56242 0.28158 0.0
C134 C 0.19996 0.53236 0.36443 0.0
C135 C 0.10608 0.51457 0.38701 0.0
O136 O 0.16447 0.54409 0.30361 0.0
O137 O 0.15564 0.57617 0.30404 0.0
O138 O 0.16497 0.53522 0.4531 0.0
O139 O 0.16267 0.56326 0.40486 0.0
Co140 Co 0.63999 0.15608 0.54917 0.0
O141 O 0.66258 0.19072 0.5278 0.0
O142 O 0.67187 0.15988 0.5232 0.0
C143 C 0.62887 0.16714 0.62327 0.0
O144 O 0.62181 0.11806 0.56758 0.0
Co145 Co 0.58212 0.13592 0.57254 0.0
O146 O 0.5825 0.10544 0.59803 0.0
C147 C 0.60069 0.14081 0.46577 0.0
C148 C 0.67891 0.18369 0.51545 0.0
C149 C 0.60041 0.10096 0.58696 0.0
O150 O 0.62364 0.14721 0.47943 0.0
O151 O 0.58305 0.13771 0.49682 0.0
O152 O 0.64965 0.16575 0.62127 0.0
O153 O 0.61662 0.16282 0.5813 0.0
Co154 Co 0.49699 0.64012 0.71612 0.0
O155 O 0.4856 0.66478 0.71395 0.0
O156 O 0.52242 0.67118 0.68334 0.0
C157 C 0.4863 0.62775 0.79764 0.0
O158 O 0.51579 0.61977 0.71216 0.0
Co159 Co 0.45801 0.58271 0.73417 0.0
O160 O 0.48867 0.57883 0.73268 0.0
C161 C 0.45834 0.60654 0.63678 0.0
C162 C 0.50671 0.67971 0.69014 0.0
C163 C 0.51081 0.59675 0.72035 0.0
O164 O 0.4796 0.62632 0.649 0.0
O165 O 0.44557 0.58786 0.66699 0.0
O166 O 0.50769 0.64835 0.78711 0.0
O167 O 0.47133 0.61699 0.75953 0.0
H168 H 0.60439 0.16902 0.16754 0.0
H169 H 0.52272 0.1164 0.17087 0.0
H170 H 0.52592 0.10584 0.26004 0.0
H171 H 0.62402 0.13399 0.25098 0.0
H172 H 0.64785 0.16183 0.28393 0.0
H173 H 0.64 0.16427 0.21878 0.0
H174 H 0.62958 0.19943 0.24374 0.0
H175 H 0.6378 0.19736 0.30872 0.0
H176 H 0.60687 0.19335 0.29384 0.0
H177 H 0.53719 0.10036 0.3459 0.0
H178 H 0.55441 0.10549 0.43215 0.0
H179 H 0.62883 0.1641 0.37878 0.0
C180 C 0.5873 0.1553 0.18733 0.0
C181 C 0.5633 0.14339 0.16274 0.0
C182 C 0.54119 0.12579 0.18946 0.0
C183 C 0.54287 0.11947 0.23978 0.0
C184 C 0.56676 0.13126 0.26292 0.0
C185 C 0.58852 0.14924 0.2383 0.0
C186 C 0.61129 0.1606 0.27412 0.0
C187 C 0.63201 0.15482 0.25585 0.0
C188 C 0.62201 0.18939 0.28049 0.0
C189 C 0.59875 0.14624 0.32268 0.0
C190 C 0.57318 0.12905 0.31454 0.0
C191 C 0.55712 0.11382 0.353 0.0
C192 C 0.56711 0.11695 0.40185 0.0
C193 C 0.59285 0.13541 0.41213 0.0
C194 C 0.60916 0.14974 0.37178 0.0
H195 H 0.39968 0.53935 0.37416 0.0
H196 H 0.43144 0.61513 0.31068 0.0
H197 H 0.43971 0.63331 0.39697 0.0
H198 H 0.37285 0.55191 0.49598 0.0
H199 H 0.38183 0.53245 0.53259 0.0
H200 H 0.37244 0.52478 0.46697 0.0
H201 H 0.41512 0.52604 0.44823 0.0
H202 H 0.42487 0.53414 0.51329 0.0
H203 H 0.44484 0.55444 0.46282 0.0
H204 H 0.45294 0.64396 0.48604 0.0
H205 H 0.46754 0.64623 0.57451 0.0
H206 H 0.42725 0.56374 0.58207 0.0
C207 C 0.40725 0.55961 0.37877 0.0
C208 C 0.41477 0.5759 0.3362 0.0
C209 C 0.42551 0.60242 0.34313 0.0
C210 C 0.43017 0.61289 0.39192 0.0
C211 C 0.42389 0.59653 0.43331 0.0
C212 C 0.4123 0.5704 0.42745 0.0
C213 C 0.41073 0.5575 0.47776 0.0
C214 C 0.3828 0.54067 0.4943 0.0
C215 C 0.42473 0.54214 0.47534 0.0
C216 C 0.42453 0.58053 0.51194 0.0
C217 C 0.43159 0.60282 0.48568 0.0
C218 C 0.44694 0.62665 0.5075 0.0
C219 C 0.45535 0.62776 0.55753 0.0
C220 C 0.44836 0.60516 0.58507 0.0
C221 C 0.43242 0.5813 0.56217 0.0
H222 H 0.86305 0.47019 0.70625 0.0
H223 H 0.82458 0.39436 0.77108 0.0
H224 H 0.81554 0.3758 0.68505 0.0
H225 H 0.82249 0.45417 0.58561 0.0
H226 H 0.8501 0.47515 0.54827 0.0
H227 H 0.84809 0.48251 0.61395 0.0
H228 H 0.89152 0.48514 0.63156 0.0
H229 H 0.8935 0.47738 0.56644 0.0
H230 H 0.89536 0.4582 0.61684 0.0
H231 H 0.81828 0.36553 0.5953 0.0
H232 H 0.83028 0.3642 0.50616 0.0
H233 H 0.86712 0.44657 0.49827 0.0
C234 C 0.85169 0.44973 0.70205 0.0
C235 C 0.84423 0.43364 0.74496 0.0
C236 C 0.83027 0.40693 0.73842 0.0
C237 C 0.825 0.39623 0.68977 0.0
C238 C 0.83376 0.41252 0.64806 0.0
C239 C 0.8465 0.43872 0.65353 0.0
C240 C 0.85678 0.45185 0.60292 0.0
C241 C 0.84357 0.4668 0.58673 0.0
C242 C 0.88601 0.46914 0.60458 0.0
C243 C 0.849 0.42899 0.56892 0.0
C244 C 0.8354 0.40649 0.59554 0.0
C245 C 0.82835 0.38297 0.57363 0.0
C246 C 0.83545 0.38242 0.52314 0.0
C247 C 0.84949 0.40526 0.49521 0.0
C248 C 0.85596 0.42876 0.51833 0.0
H249 H 0.48276 0.86051 0.71517 0.0
H250 H 0.40683 0.81439 0.65253 0.0
H251 H 0.38882 0.80438 0.739 0.0
H252 H 0.47151 0.82174 0.83749 0.0
H253 H 0.49052 0.85037 0.87363 0.0
H254 H 0.49823 0.84874 0.80799 0.0
H255 H 0.49558 0.88926 0.78874 0.0
H256 H 0.48742 0.89079 0.8538 0.0
H257 H 0.46662 0.88964 0.80343 0.0
H258 H 0.37804 0.80711 0.82829 0.0
H259 H 0.37565 0.81949 0.91668 0.0
H260 H 0.4584 0.86334 0.92299 0.0
C261 C 0.46255 0.84733 0.71996 0.0
C262 C 0.44616 0.83804 0.67751 0.0
C263 C 0.41965 0.82159 0.68482 0.0
C264 C 0.40927 0.81574 0.73374 0.0
C265 C 0.42568 0.82636 0.77495 0.0
C266 C 0.45183 0.84146 0.76877 0.0
C267 C 0.46473 0.85315 0.81887 0.0
C268 C 0.48228 0.84288 0.83547 0.0
C269 C 0.47943 0.88243 0.816 0.0
C270 C 0.44164 0.84344 0.85329 0.0
C271 C 0.41934 0.82773 0.82737 0.0
C272 C 0.39539 0.81878 0.8495 0.0
C273 C 0.3942 0.82609 0.89949 0.0
C274 C 0.41684 0.84215 0.92669 0.0
C275 C 0.44081 0.85056 0.90344 0.0
H276 H 0.59085 0.44729 0.0948 0.0
H277 H 0.55559 0.36508 0.08748 0.0
H278 H 0.57096 0.36841 -0.00059 0.0
H279 H 0.57216 0.45455 0.97578 0.0
H280 H 0.60059 0.48413 0.96076 0.0
H281 H 0.5913 0.47577 0.02596 0.0
H282 H 0.63562 0.48083 0.04592 0.0
H283 H 0.64498 0.48907 0.98044 0.0
H284 H 0.64676 0.46308 0.0096 0.0
H285 H 0.58446 0.3796 0.91083 0.0
H286 H 0.59217 0.39761 0.82438 0.0
H287 H 0.61859 0.47278 0.88687 0.0
C288 C 0.58699 0.43007 0.07502 0.0
C289 C 0.57224 0.40594 0.09786 0.0
C290 C 0.56687 0.38374 0.07052 0.0
C291 C 0.57575 0.38547 0.02075 0.0
C292 C 0.58993 0.40952 -0.00102 0.0
C293 C 0.59544 0.43146 0.02504 0.0
C294 C 0.60794 0.45458 0.99062 0.0
C295 C 0.59204 0.46802 0.98813 0.0
C296 C 0.63546 0.47298 0.00767 0.0
C297 C 0.60746 0.44203 0.94055 0.0
C298 C 0.59759 0.41611 0.9467 0.0
C299 C 0.59269 0.39991 0.90558 0.0
C300 C 0.59704 0.41026 0.85672 0.0
C301 C 0.60613 0.43652 0.84946 0.0
C302 C 0.61229 0.45277 0.89179 0.0
H303 H 0.16591 0.60138 0.22511 0.0
H304 H 0.17525 0.53497 0.21493 0.0
H305 H 0.18226 0.54191 0.12233 0.0
H306 H 0.12974 0.58959 0.11822 0.0
H307 H 0.14332 0.62232 0.09874 0.0
H308 H 0.14337 0.61473 0.16478 0.0
H309 H 0.19251 0.64418 0.16831 0.0
H310 H 0.19261 0.65201 0.10211 0.0
H311 H 0.21243 0.63944 0.12379 0.0
H312 H 0.18253 0.55273 0.03064 0.0
H313 H 0.17598 0.5663 0.94649 0.0
H314 H 0.16623 0.62558 0.01743 0.0
C315 C 0.16991 0.58851 0.20377 0.0
C316 C 0.16994 0.56756 0.22725 0.0
C317 C 0.17516 0.55116 0.19775 0.0
C318 C 0.17927 0.55502 0.14522 0.0
C319 C 0.1784 0.5755 0.12318 0.0
C320 C 0.17405 0.59208 0.15163 0.0
C321 C 0.17166 0.61118 0.11851 0.0
C322 C 0.14547 0.60932 0.12548 0.0
C323 C 0.19362 0.63831 0.1288 0.0
C324 C 0.17414 0.60202 0.06663 0.0
C325 C 0.17849 0.58173 0.07017 0.0
C326 C 0.17955 0.56885 0.02736 0.0
C327 C 0.17564 0.57664 0.97975 0.0
C328 C 0.17052 0.597 0.97538 0.0
C329 C 0.17034 0.61015 0.01943 0.0
H330 H 0.54553 0.31025 0.19719 0.0
H331 H 0.46851 0.29194 0.15776 0.0
H332 H 0.46041 0.25084 0.12166 0.0
H333 H 0.5578 0.28583 0.0856 0.0
H334 H 0.57612 0.27381 0.11721 0.0
H335 H 0.57496 0.30064 0.14326 0.0
H336 H 0.55879 0.27683 0.22905 0.0
H337 H 0.55986 0.24986 0.20322 0.0
H338 H 0.53061 0.24576 0.23006 0.0
H339 H 0.46104 0.21131 0.08957 0.0
H340 H 0.47156 0.17903 0.0582 0.0
H341 H 0.54895 0.22504 0.11384 0.0
C342 C 0.52684 0.2975 0.1815 0.0
C343 C 0.50756 0.30423 0.18074 0.0
C344 C 0.48351 0.28713 0.15908 0.0
C345 C 0.47873 0.26371 0.13858 0.0
C346 C 0.49823 0.25772 0.13977 0.0
C347 C 0.52186 0.27424 0.16046 0.0
C348 C 0.54005 0.264 0.15497 0.0
C349 C 0.56362 0.28215 0.12336 0.0
C350 C 0.54778 0.25881 0.20744 0.0
C351 C 0.52322 0.23941 0.12683 0.0
C352 C 0.49898 0.23578 0.11938 0.0
C353 C 0.48 0.21405 0.09513 0.0
C354 C 0.48609 0.19578 0.07759 0.0
C355 C 0.51107 0.19966 0.08335 0.0
C356 C 0.52975 0.22171 0.10852 0.0
H357 H 0.29546 0.49575 0.21917 0.0
H358 H 0.35592 0.56753 0.27826 0.0
H359 H 0.32456 0.57303 0.32754 0.0
H360 H 0.25019 0.51751 0.2031 0.0
H361 H 0.22252 0.48792 0.22124 0.0
H362 H 0.2497 0.48784 0.19337 0.0
H363 H 0.25239 0.46312 0.27118 0.0
H364 H 0.22526 0.46323 0.29939 0.0
H365 H 0.25484 0.47589 0.33413 0.0
H366 H 0.28826 0.57219 0.36875 0.0
H367 H 0.24719 0.56739 0.39463 0.0
H368 H 0.20735 0.49732 0.30772 0.0
C369 C 0.30194 0.51245 0.24285 0.0
C370 C 0.32818 0.53127 0.24489 0.0
C371 C 0.33595 0.55302 0.27575 0.0
C372 C 0.3183 0.55624 0.30428 0.0
C373 C 0.29268 0.53767 0.30134 0.0
C374 C 0.28425 0.51632 0.2711 0.0
C375 C 0.25514 0.5005 0.27271 0.0
C376 C 0.24372 0.49832 0.21943 0.0
C377 C 0.24639 0.47411 0.29572 0.0
C378 C 0.24878 0.51657 0.30798 0.0
C379 C 0.27097 0.53763 0.32444 0.0
C380 C 0.27071 0.55579 0.35621 0.0
C381 C 0.24717 0.55285 0.37069 0.0
C382 C 0.22394 0.53202 0.35329 0.0
C383 C 0.22475 0.51329 0.32216 0.0
H384 H 0.69407 0.23137 0.47874 0.0
H385 H 0.72111 0.17809 0.50386 0.0
H386 H 0.76375 0.21002 0.47119 0.0
H387 H 0.72833 0.25772 0.36129 0.0
H388 H 0.73466 0.28943 0.37535 0.0
H389 H 0.70652 0.26232 0.40055 0.0
H390 H 0.72011 0.28017 0.49181 0.0
H391 H 0.74831 0.3073 0.46691 0.0
H392 H 0.75118 0.28767 0.51498 0.0
H393 H 0.80446 0.24936 0.43969 0.0
H394 H 0.83833 0.2911 0.40729 0.0
H395 H 0.78342 0.3172 0.39883 0.0
C396 C 0.70892 0.22634 0.47728 0.0
C397 C 0.70427 0.20223 0.49407 0.0
C398 C 0.72421 0.19641 0.49117 0.0
C399 C 0.7485 0.21446 0.47276 0.0
C400 C 0.75247 0.23814 0.45683 0.0
C401 C 0.7331 0.24397 0.45849 0.0
C402 C 0.74206 0.27061 0.43885 0.0
C403 C 0.727 0.26997 0.39117 0.0
C404 C 0.74031 0.28742 0.48063 0.0
C405 C 0.76958 0.27902 0.42605 0.0
C406 C 0.77536 0.26016 0.43705 0.0
C407 C 0.80001 0.26411 0.43042 0.0
C408 C 0.81914 0.28787 0.41207 0.0
C409 C 0.81346 0.30727 0.3999 0.0
C410 C 0.78828 0.3026 0.40689 0.0
H411 H 0.46929 0.77997 0.58107 0.0
H412 H 0.55015 0.83396 0.56577 0.0
H413 H 0.56016 0.80132 0.59678 0.0
H414 H 0.47467 0.75316 0.69768 0.0
H415 H 0.44977 0.7213 0.68286 0.0
H416 H 0.44901 0.74816 0.65561 0.0
H417 H 0.44696 0.73029 0.56516 0.0
H418 H 0.44761 0.70331 0.59215 0.0
H419 H 0.47111 0.72292 0.54552 0.0
H420 H 0.56111 0.76219 0.62941 0.0
H421 H 0.55299 0.72107 0.66567 0.0
H422 H 0.47168 0.69411 0.66579 0.0
C423 C 0.48909 0.78479 0.58344 0.0
C424 C 0.50896 0.80939 0.57028 0.0
C425 C 0.53464 0.81517 0.57526 0.0
C426 C 0.54049 0.79674 0.59282 0.0
C427 C 0.52045 0.77273 0.60601 0.0
C428 C 0.49526 0.7668 0.60189 0.0
C429 C 0.4773 0.74015 0.62127 0.0
C430 C 0.46178 0.74074 0.66708 0.0
C431 C 0.45971 0.72317 0.57847 0.0
C432 C 0.49626 0.73196 0.63702 0.0
C433 C 0.52106 0.75087 0.62732 0.0
C434 C 0.54177 0.74735 0.63746 0.0
C435 C 0.537 0.72395 0.65805 0.0
C436 C 0.51177 0.70453 0.66916 0.0
C437 C 0.49122 0.70874 0.6585 0.0
H438 H 0.72552 0.5145 0.72685 0.0
H439 H 0.6665 0.44492 0.79633 0.0
H440 H 0.69904 0.44056 0.84401 0.0
H441 H 0.76989 0.49204 0.70974 0.0
H442 H 0.79815 0.52195 0.72358 0.0
H443 H 0.77033 0.52153 0.69774 0.0
H444 H 0.76998 0.54846 0.77371 0.0
H445 H 0.7978 0.54891 0.79983 0.0
H446 H 0.76928 0.53741 0.83768 0.0
H447 H 0.73648 0.44202 0.88192 0.0
H448 H 0.77822 0.44744 0.90468 0.0
H449 H 0.81561 0.51508 0.80987 0.0
C450 C 0.71961 0.49859 0.75261 0.0
C451 C 0.69344 0.48002 0.75801 0.0
C452 C 0.6864 0.45925 0.7914 0.0
C453 C 0.70474 0.45668 0.81896 0.0
C454 C 0.73029 0.47492 0.81258 0.0
C455 C 0.73796 0.4954 0.78006 0.0
C456 C 0.76706 0.51105 0.77829 0.0
C457 C 0.77693 0.51167 0.72412 0.0
C458 C 0.77659 0.53807 0.79859 0.0
C459 C 0.77428 0.49586 0.81424 0.0
C460 C 0.75256 0.47536 0.83393 0.0
C461 C 0.75368 0.45803 0.86694 0.0
C462 C 0.77759 0.46131 0.87961 0.0
C463 C 0.80033 0.48167 0.8592 0.0
C464 C 0.79863 0.49946 0.82655 0.0
H465 H 0.23886 0.69327 0.92104 0.0
H466 H 0.18483 0.72058 0.91877 0.0
H467 H 0.21769 0.76153 0.95592 0.0
H468 H 0.26745 0.72189 0.04238 0.0
H469 H 0.29899 0.72894 0.02355 0.0
H470 H 0.27132 0.70212 -0.00381 0.0
H471 H 0.28773 0.71987 0.90587 0.0
H472 H 0.3154 0.74678 0.93292 0.0
H473 H 0.29494 0.75173 0.89022 0.0
H474 H 0.25788 0.80075 0.98804 0.0
H475 H 0.30041 0.83321 0.02013 0.0
H476 H 0.32671 0.77872 0.00836 0.0
C477 C 0.23395 0.70789 0.92832 0.0
C478 C 0.20937 0.70388 0.91657 0.0
C479 C 0.20356 0.72329 0.92741 0.0
C480 C 0.22212 0.74661 0.9484 0.0
C481 C 0.24625 0.75002 0.95927 0.0
C482 C 0.25205 0.73101 0.9503 0.0
C483 C 0.27911 0.73913 0.9667 0.0
C484 C 0.27921 0.722 0.00977 0.0
C485 C 0.29524 0.7394 0.92121 0.0
C486 C 0.28784 0.76584 0.98562 0.0
C487 C 0.26872 0.7719 0.98053 0.0
C488 C 0.27283 0.79604 0.99288 0.0
C489 C 0.29704 0.81437 0.01096 0.0
C490 C 0.31668 0.80835 0.01745 0.0
C491 C 0.31188 0.78369 0.0048 0.0
H492 H 0.63497 0.15786 0.72495 0.0
H493 H 0.59724 0.18614 0.62549 0.0
H494 H 0.5731 0.18879 0.69774 0.0
H495 H 0.58106 0.11894 0.80051 0.0
H496 H 0.59774 0.12551 0.86034 0.0
H497 H 0.61429 0.12769 0.80196 0.0
H498 H 0.64845 0.17414 0.82312 0.0
H499 H 0.6322 0.172 0.88197 0.0
H500 H 0.63857 0.19704 0.83727 0.0
H501 H 0.5497 0.1844 0.77667 0.0
H502 H 0.53121 0.17737 0.86276 0.0
H503 H 0.58428 0.15353 0.91461 0.0
C504 C 0.62209 0.16518 0.71888 0.0
C505 C 0.61796 0.17176 0.66959 0.0
C506 C 0.60062 0.18085 0.66286 0.0
C507 C 0.58678 0.18246 0.70366 0.0
C508 C 0.59052 0.17507 0.75135 0.0
C509 C 0.60796 0.16696 0.75965 0.0
C510 C 0.60737 0.15944 0.81499 0.0
C511 C 0.59965 0.13122 0.8197 0.0
C512 C 0.63319 0.17669 0.84086 0.0
C513 C 0.58667 0.16425 0.83572 0.0
C514 C 0.57721 0.17315 0.79809 0.0
C515 C 0.55717 0.17781 0.80682 0.0
C516 C 0.54669 0.17362 0.85571 0.0
C517 C 0.55642 0.16511 0.8953 0.0
C518 C 0.57666 0.16033 0.88511 0.0
H519 H 0.44068 0.58778 0.82987 0.0
H520 H 0.51657 0.64325 0.88223 0.0
H521 H 0.50499 0.62575 0.96915 0.0
H522 H 0.40735 0.59086 0.93725 0.0
H523 H 0.38398 0.55742 0.93818 0.0
H524 H 0.3988 0.57267 0.87914 0.0
H525 H 0.41351 0.53968 0.86503 0.0
H526 H 0.39876 0.52432 0.92417 0.0
H527 H 0.43211 0.53528 0.91341 0.0
H528 H 0.48505 0.60436 0.04973 0.0
H529 H 0.45756 0.58185 0.12193 0.0
H530 H 0.39342 0.53974 0.01986 0.0
C531 C 0.45496 0.59604 0.85955 0.0
C532 C 0.47961 0.61683 0.84935 0.0
C533 C 0.49764 0.62732 0.88921 0.0
C534 C 0.49125 0.61742 0.9386 0.0
C535 C 0.46678 0.59704 0.94741 0.0
C536 C 0.44884 0.58646 0.90918 0.0
C537 C 0.42344 0.56561 0.92979 0.0
C538 C 0.40214 0.57204 0.92055 0.0
C539 C 0.41655 0.53968 0.90672 0.0
C540 C 0.42972 0.56663 0.98594 0.0
C541 C 0.45498 0.58468 0.99475 0.0
C542 C 0.46532 0.59004 0.04331 0.0
C543 C 0.44939 0.57706 0.08421 0.0
C544 C 0.42324 0.55887 0.07677 0.0
C545 C 0.41337 0.55326 0.02673 0.0
H546 H 0.85883 0.47267 0.05778 0.0
H547 H 0.89563 0.44257 0.961 0.0
H548 H 0.90203 0.42141 0.03449 0.0
H549 H 0.89892 0.48144 0.17391 0.0
H550 H 0.87214 0.47168 0.21617 0.0
H551 H 0.87355 0.48758 0.15728 0.0
H552 H 0.82925 0.45003 0.13215 0.0
H553 H 0.82784 0.43388 0.19053 0.0
H554 H 0.82449 0.41823 0.13044 0.0
H555 H 0.89928 0.39864 0.11461 0.0
H556 H 0.89051 0.37842 0.19946 0.0
H557 H 0.85657 0.42352 0.2466 0.0
C558 C 0.86897 0.46231 0.05257 0.0
C559 C 0.87678 0.45932 0.00364 0.0
C560 C 0.8894 0.44508 -0.002 0.0
C561 C 0.89321 0.433 0.03961 0.0
C562 C 0.88441 0.43538 0.08694 0.0
C563 C 0.87288 0.44996 0.09402 0.0
C564 C 0.86368 0.44781 0.14847 0.0
C565 C 0.87793 0.47367 0.17556 0.0
C566 C 0.83459 0.43683 0.15048 0.0
C567 C 0.87115 0.4292 0.17008 0.0
C568 C 0.88318 0.42238 0.13393 0.0
C569 C 0.8903 0.40416 0.14364 0.0
C570 C 0.88512 0.39266 0.19177 0.0
C571 C 0.87305 0.39953 0.22959 0.0
C572 C 0.86616 0.41816 0.21858 0.0
H573 H 0.48317 0.85552 0.36308 0.0
H574 H 0.4458 0.88412 0.46218 0.0
H575 H 0.42366 0.88933 0.38901 0.0
H576 H 0.48963 0.89631 0.25116 0.0
H577 H 0.48272 0.87122 0.20631 0.0
H578 H 0.49824 0.8725 0.26569 0.0
H579 H 0.46274 0.82644 0.28598 0.0
H580 H 0.447 0.8251 0.22697 0.0
H581 H 0.42984 0.81885 0.28614 0.0
H582 H 0.40199 0.88741 0.30768 0.0
H583 H 0.38354 0.88003 0.22126 0.0
H584 H 0.43449 0.85295 0.173 0.0
C585 C 0.47085 0.8635 0.36899 0.0
C586 C 0.46629 0.86947 0.41844 0.0
C587 C 0.44957 0.87931 0.42486 0.0
C588 C 0.43691 0.88244 0.3834 0.0
C589 C 0.44109 0.87566 0.33543 0.0
C590 C 0.45778 0.86659 0.32772 0.0
C591 C 0.45737 0.85915 0.27246 0.0
C592 C 0.48355 0.87579 0.24743 0.0
C593 C 0.44872 0.8307 0.26763 0.0
C594 C 0.4375 0.86497 0.25096 0.0
C595 C 0.42849 0.87462 0.28795 0.0
C596 C 0.40912 0.8802 0.27811 0.0
C597 C 0.39868 0.87586 0.22901 0.0
C598 C 0.40765 0.86606 0.19042 0.0
C599 C 0.42743 0.86073 0.20162 0.0
H600 H 0.6268 0.46789 0.53099 0.0
H601 H 0.56465 0.42213 0.63498 0.0
H602 H 0.53684 0.39941 0.56337 0.0
H603 H 0.58607 0.47126 0.4289 0.0
H604 H 0.60478 0.46848 0.3786 0.0
H605 H 0.61976 0.48331 0.43792 0.0
H606 H 0.63649 0.45164 0.44774 0.0
H607 H 0.62151 0.43669 0.38861 0.0
H608 H 0.61418 0.41791 0.44581 0.0
H609 H 0.5162 0.37901 0.4825 0.0
H610 H 0.504 0.36272 0.39488 0.0
H611 H 0.57857 0.42078 0.34131 0.0
C612 C 0.60723 0.45341 0.53846 0.0
C613 C 0.59798 0.44704 0.5888 0.0
C614 C 0.57231 0.42765 0.597 0.0
C615 C 0.55621 0.4145 0.55645 0.0
C616 C 0.5659 0.42085 0.50751 0.0
C617 C 0.59072 0.43987 0.49804 0.0
C618 C 0.59641 0.44178 0.44149 0.0
C619 C 0.60209 0.46775 0.4205 0.0
C620 C 0.61845 0.43669 0.43028 0.0
C621 C 0.57117 0.4205 0.42137 0.0
C622 C 0.5538 0.40885 0.46016 0.0
C623 C 0.52951 0.38811 0.45155 0.0
C624 C 0.52276 0.37894 0.40176 0.0
C625 C 0.54026 0.3905 0.36138 0.0
C626 C 0.5647 0.41165 0.37142 0.0
H627 H 0.16464 0.54632 0.55244 0.0
H628 H 0.15094 0.59326 0.44669 0.0
H629 H 0.14786 0.61775 0.51791 0.0
H630 H 0.12206 0.5457 0.65354 0.0
H631 H 0.14318 0.54738 0.70371 0.0
H632 H 0.14233 0.53207 0.64446 0.0
H633 H 0.19116 0.56185 0.63441 0.0
H634 H 0.19213 0.57733 0.6934 0.0
H635 H 0.20422 0.59584 0.63604 0.0
H636 H 0.14916 0.63933 0.60019 0.0
H637 H 0.15343 0.6551 0.68872 0.0
H638 H 0.1663 0.59436 0.74013 0.0
C639 C 0.16058 0.56147 0.54444 0.0
C640 C 0.15796 0.56778 0.49402 0.0
C641 C 0.15296 0.58796 0.485 0.0
C642 C 0.15116 0.60206 0.52523 0.0
C643 C 0.15432 0.59574 0.57442 0.0
C644 C 0.15875 0.57583 0.5843 0.0
C645 C 0.16241 0.5737 0.64063 0.0
C646 C 0.14123 0.5482 0.66183 0.0
C647 C 0.18906 0.57741 0.65175 0.0
C648 C 0.15987 0.59578 0.66044 0.0
C649 C 0.15506 0.6082 0.6218 0.0
C650 C 0.1527 0.62963 0.63095 0.0
C651 C 0.15523 0.63852 0.68117 0.0
C652 C 0.16011 0.62595 0.7212 0.0
C653 C 0.1624 0.60433 0.71041 0.0
H654 H 0.52259 0.05802 0.97972 0.0
H655 H 0.46521 0.07727 0.02482 0.0
H656 H 0.43428 0.03148 0.03797 0.0
H657 H 0.47947 0.99727 0.91646 0.0
H658 H 0.49735 0.98283 0.93959 0.0
H659 H 0.51334 0.01654 0.92725 0.0
H660 H 0.53068 0.02534 0.01963 0.0
H661 H 0.51461 0.99175 0.03242 0.0
H662 H 0.50857 0.01243 0.07201 0.0
H663 H 0.4104 0.98263 0.05177 0.0
H664 H 0.39724 0.93724 0.06696 0.0
H665 H 0.47184 0.95215 0.01727 0.0
C666 C 0.50338 0.05275 0.99125 0.0
C667 C 0.4964 0.07143 0.00082 0.0
C668 C 0.47106 0.06342 0.01669 0.0
C669 C 0.45333 0.0374 0.02435 0.0
C670 C 0.46121 0.0196 0.01597 0.0
C671 C 0.48568 0.02709 -0.00046 0.0
C672 C 0.49037 1.00485 -0.00312 0.0
C673 C 0.49543 1.00009 0.94177 0.0
C674 C 0.51235 0.00884 0.03236 0.0
C675 C 0.46499 0.98367 0.01573 0.0
C676 C 0.44812 0.99226 0.02568 0.0
C677 C 0.42351 0.97579 0.04389 0.0
C678 C 0.41617 0.95005 0.0524 0.0
C679 C 0.43359 0.94123 0.04378 0.0
C680 C 0.45817 0.95835 0.02482 0.0
H681 H 0.50813 0.45162 0.28486 0.0
H682 H 0.46395 0.38826 0.18323 0.0
H683 H 0.43356 0.40403 0.16952 0.0
H684 H 0.45412 0.45563 0.33999 0.0
H685 H 0.4725 0.48987 0.34251 0.0
H686 H 0.48821 0.4714 0.34901 0.0
H687 H 0.51832 0.49629 0.27407 0.0
H688 H 0.50273 0.51477 0.26733 0.0
H689 H 0.50472 0.49735 0.21369 0.0
H690 H 0.41026 0.43032 0.16112 0.0
H691 H 0.39836 0.46416 0.15746 0.0
H692 H 0.4592 0.5094 0.26344 0.0
C693 C 0.49186 0.44069 0.26033 0.0
C694 C 0.4885 0.41867 0.23514 0.0
C695 C 0.46688 0.40509 0.20331 0.0
C696 C 0.44951 0.41394 0.19529 0.0
C697 C 0.45388 0.43621 0.21983 0.0
C698 C 0.47452 0.4492 0.25202 0.0
C699 C 0.47648 0.47357 0.27119 0.0
C700 C 0.47259 0.47254 0.32911 0.0
C701 C 0.50206 0.49685 0.2556 0.0
C702 C 0.4543 0.47293 0.24343 0.0
C703 C 0.44103 0.45111 0.2146 0.0
C704 C 0.42041 0.44729 0.18407 0.0
C705 C 0.41369 0.46651 0.1823 0.0
C706 C 0.42789 0.48933 0.21015 0.0
C707 C 0.448 0.49213 0.24174 0.0
H708 H 0.06464 0.5133 0.42963 0.0
H709 H 0.08769 0.46554 0.34957 0.0
H710 H 0.0421 0.43175 0.34279 0.0
H711 H 1.00849 0.46234 0.49679 0.0
H712 H 0.99092 0.47891 0.48842 0.0
H713 H 0.02518 0.49662 0.49465 0.0
H714 H 0.02841 0.51953 0.40932 0.0
H715 H 0.99431 0.5018 0.40257 0.0
H716 H 0.01433 0.50084 0.35286 0.0
H717 H 0.99231 0.40505 0.33709 0.0
H718 H 0.94578 0.38997 0.33096 0.0
H719 H 0.95778 0.45762 0.41022 0.0
C720 C 0.06031 0.49554 0.41158 0.0
C721 C 0.07984 0.49213 0.39013 0.0
C722 C 0.07313 0.46855 0.36679 0.0
C723 C 0.04725 0.44929 0.36267 0.0
C724 C 0.0284 0.45387 0.38244 0.0
C725 C 0.03486 0.47648 0.40679 0.0
C726 C 0.01157 0.47834 0.42051 0.0
C727 C 1.00889 0.47909 0.47854 0.0
C728 C 0.01221 0.50149 0.39476 0.0
C729 C 0.99082 0.45366 0.39854 0.0
C730 C 1.00059 0.43935 0.37768 0.0
C731 C 0.9846 0.4161 0.35377 0.0
C732 C 0.95821 0.40763 0.3505 0.0
C733 C 0.9483 0.42273 0.36994 0.0
C734 C 0.96486 0.44574 0.39486 0.0
H735 H 0.50084 0.95411 0.59609 0.0
H736 H 0.55659 0.93924 0.5241 0.0
H737 H 0.58947 0.98485 0.53402 0.0
H738 H 0.5195 0.0125 0.5399 0.0
H739 H 0.51384 0.02636 0.59546 0.0
H740 H 0.49607 0.9925 0.58631 0.0
H741 H 0.51118 0.98585 0.67445 0.0
H742 H 0.52914 0.0198 0.68379 0.0
H743 H 0.54487 1.00125 0.68822 0.0
H744 H 0.61478 0.03396 0.54401 0.0
H745 H 0.62935 0.07987 0.55375 0.0
H746 H 0.55679 0.06039 0.62357 0.0
C747 C 0.52003 0.96032 0.58276 0.0
C748 C 0.52611 0.94316 0.55895 0.0
C749 C 0.55152 0.95207 0.54255 0.0
C750 C 0.57029 0.97793 0.54808 0.0
C751 C 0.56345 0.99445 0.57111 0.0
C752 C 0.53891 0.98576 0.58874 0.0
C753 C 0.53577 0.00711 0.61035 0.0
C754 C 0.51509 0.00977 0.58125 0.0
C755 C 0.5299 1.00326 0.6676 0.0
C756 C 0.56208 0.02948 0.60061 0.0
C757 C 0.57797 0.02199 0.57827 0.0
C758 C 0.60257 0.0399 0.56233 0.0
C759 C 0.61075 0.06599 0.56819 0.0
C760 C 0.59435 0.07394 0.58974 0.0
C761 C 0.57004 0.0552 0.60744 0.0
H762 H 0.55504 0.49761 0.65872 0.0
H763 H 0.62723 0.54661 0.73365 0.0
H764 H 0.61561 0.58053 0.73936 0.0
H765 H 0.54931 0.5473 0.58886 0.0
H766 H 0.51527 0.53112 0.59886 0.0
H767 H 0.53151 0.51309 0.59369 0.0
H768 H 0.51288 0.49194 0.68089 0.0
H769 H 0.49677 0.50996 0.68653 0.0
H770 H 0.51833 0.51176 0.73588 0.0
H771 H 0.59282 0.60762 0.74373 0.0
H772 H 0.56172 0.62317 0.74876 0.0
H773 H 0.50473 0.55414 0.67522 0.0
C774 C 0.56877 0.51561 0.67556 0.0
C775 C 0.59209 0.51936 0.69579 0.0
C776 C 0.60935 0.5433 0.71746 0.0
C777 C 0.60284 0.56265 0.72094 0.0
C778 C 0.57913 0.5578 0.70221 0.0
C779 C 0.56253 0.53478 0.67964 0.0
C780 C 0.5373 0.53284 0.6664 0.0
C781 C 0.53311 0.53099 0.60852 0.0
C782 C 0.51502 0.51031 0.6941 0.0
C783 C 0.54171 0.558 0.68654 0.0
C784 C 0.56606 0.57256 0.70613 0.0
C785 C 0.57382 0.59634 0.72809 0.0
C786 C 0.5561 0.60508 0.73074 0.0
C787 C 0.53083 0.58976 0.71261 0.0
C788 C 0.52389 0.5662 0.68962 0.0
H789 H 0.06341 0.56109 0.78924 0.0
H790 H 0.08244 0.62393 0.89219 0.0
H791 H 0.03627 0.60867 0.90391 0.0
H792 H 1.0061 0.55799 0.732 0.0
H793 H 0.98988 0.52375 0.72898 0.0
H794 H 0.02416 0.54194 0.7236 0.0
H795 H 0.02846 0.51657 0.79873 0.0
H796 H 0.99431 0.49834 0.80425 0.0
H797 H 0.01336 0.5154 0.85858 0.0
H798 H 0.9867 0.58291 0.91048 0.0
H799 H 0.94091 0.54918 0.91372 0.0
H800 H 0.95639 0.5039 0.8079 0.0
C801 C 0.05806 0.57204 0.81361 0.0
C802 C 0.07671 0.59378 0.83973 0.0
C803 C 0.0686 0.60733 0.87141 0.0
C804 C 0.04237 0.59878 0.87827 0.0
C805 C 0.02449 0.57681 0.8528 0.0
C806 C 0.03219 0.5638 0.82086 0.0
C807 C 1.00971 0.53961 0.80094 0.0
C808 C 1.00733 0.54091 0.74294 0.0
C809 C 0.01158 0.51611 0.8166 0.0
C810 C 0.98807 0.54038 0.82798 0.0
C811 C 0.99667 0.56215 0.85703 0.0
C812 C 0.97984 0.56601 0.88728 0.0
C813 C 0.95385 0.54686 0.88875 0.0
C814 C 0.94519 0.52405 0.86086 0.0
C815 C 0.96249 0.52123 0.82935 0.0
loop_
_geom_bond_atom_site_label_1
_geom_bond_atom_site_label_2
_geom_bond_distance
_geom_bond_site_symmetry_2
_ccdc_geom_bond_type
Co0 O1 2.216 . S
Co0 O2 2.091 . S
Co0 O4 2.004 . S
Co0 O10 2.021 . S
Co0 O12 2.137 1_554 S
Co0 O13 2.244 . S
O1 Co0 2.216 . S
O1 C8 1.247 . S
O2 Co0 2.091 . S
O2 C8 1.261 . S
C3 O12 1.247 . S
C3 O13 1.272 1_556 S
O4 Co0 2.004 . S
O4 C9 1.259 . S
Co5 O6 2.061 . S
Co5 O11 2.052 . S
Co5 O13 2.135 . S
O6 Co5 2.061 . S
O6 C9 1.235 . S
C7 O10 1.238 . S
C7 O11 1.241 . S
C8 O1 1.247 . S
C8 O2 1.261 . S
C9 O4 1.259 . S
C9 O6 1.235 . S
O10 Co0 2.021 . S
O10 C7 1.238 . S
O11 Co5 2.052 . S
O11 C7 1.241 . S
O12 Co0 2.137 1_556 S
O12 C3 1.247 . S
O13 Co0 2.244 . S
O13 C3 1.272 1_554 S
O13 Co5 2.135 . S
Co14 O15 2.216 . S
Co14 O16 2.091 . S
Co14 O18 2.004 . S
Co14 O24 2.021 . S
Co14 O26 2.137 . S
Co14 O27 2.244 . S
O15 Co14 2.216 . S
O15 C22 1.247 . S
O16 Co14 2.091 . S
O16 C22 1.261 . S
C17 O26 1.247 . S
C17 O27 1.272 . S
O18 Co14 2.004 . S
O18 C23 1.259 . S
Co19 O20 2.061 . S
Co19 O25 2.052 . S
Co19 O27 2.135 . S
O20 Co19 2.061 . S
O20 C23 1.235 . S
C21 O24 1.238 . S
C21 O25 1.241 . S
C22 O15 1.247 . S
C22 O16 1.261 . S
C23 O18 1.259 . S
C23 O20 1.235 . S
O24 Co14 2.021 . S
O24 C21 1.238 . S
O25 Co19 2.052 . S
O25 C21 1.241 . S
O26 Co14 2.137 . S
O26 C17 1.247 . S
O27 Co14 2.244 . S
O27 C17 1.272 . S
O27 Co19 2.135 . S
Co28 O29 2.216 . S
Co28 O30 2.091 . S
Co28 O32 2.004 . S
Co28 O38 2.021 . S
Co28 O40 2.137 . S
Co28 O41 2.244 . S
O29 Co28 2.216 . S
O29 C36 1.247 . S
O30 Co28 2.091 . S
O30 C36 1.261 . S
C31 O40 1.247 . S
C31 O41 1.272 . S
O32 Co28 2.004 . S
O32 C37 1.259 . S
Co33 O34 2.061 . S
Co33 O39 2.052 . S
Co33 O41 2.135 . S
O34 Co33 2.061 . S
O34 C37 1.235 . S
C35 O38 1.238 . S
C35 O39 1.241 . S
C36 O29 1.247 . S
C36 O30 1.261 . S
C37 O32 1.259 . S
C37 O34 1.235 . S
O38 Co28 2.021 . S
O38 C35 1.238 . S
O39 Co33 2.052 . S
O39 C35 1.241 . S
O40 Co28 2.137 . S
O40 C31 1.247 . S
O41 Co28 2.244 . S
O41 C31 1.272 . S
O41 Co33 2.135 . S
Co42 O43 2.216 . S
Co42 O44 2.091 . S
Co42 O46 2.004 . S
Co42 O52 2.021 . S
Co42 O54 2.137 . S
Co42 O55 2.244 . S
O43 Co42 2.216 . S
O43 C50 1.247 . S
O44 Co42 2.091 . S
O44 C50 1.261 . S
C45 O54 1.247 . S
C45 O55 1.272 . S
O46 Co42 2.004 . S
O46 C51 1.259 . S
Co47 O48 2.061 . S
Co47 O53 2.052 . S
Co47 O55 2.135 . S
O48 Co47 2.061 . S
O48 C51 1.235 . S
C49 O52 1.238 . S
C49 O53 1.241 . S
C50 O43 1.247 . S
C50 O44 1.261 . S
C51 O46 1.259 . S
C51 O48 1.235 . S
O52 Co42 2.021 . S
O52 C49 1.238 . S
O53 Co47 2.052 . S
O53 C49 1.241 . S
O54 Co42 2.137 . S
O54 C45 1.247 . S
O55 Co42 2.244 . S
O55 C45 1.272 . S
O55 Co47 2.135 . S
Co56 O57 2.216 . S
Co56 O58 2.091 . S
Co56 O60 2.004 . S
Co56 O66 2.021 . S
Co56 O68 2.137 . S
Co56 O69 2.244 . S
O57 Co56 2.216 . S
O57 C64 1.247 . S
O58 Co56 2.091 . S
O58 C64 1.261 . S
C59 O68 1.247 . S
C59 O69 1.272 . S
O60 Co56 2.004 . S
O60 C65 1.259 . S
Co61 O62 2.061 . S
Co61 O67 2.052 . S
Co61 O69 2.135 . S
O62 Co61 2.061 . S
O62 C65 1.235 . S
C63 O66 1.238 . S
C63 O67 1.241 . S
C64 O57 1.247 . S
C64 O58 1.261 . S
C65 O60 1.259 . S
C65 O62 1.235 . S
O66 Co56 2.021 . S
O66 C63 1.238 . S
O67 Co61 2.052 . S
O67 C63 1.241 . S
O68 Co56 2.137 . S
O68 C59 1.247 . S
O69 Co56 2.244 . S
O69 C59 1.272 . S
O69 Co61 2.135 . S
Co70 O71 2.216 . S
Co70 O72 2.091 . S
Co70 O74 2.004 . S
Co70 O80 2.021 . S
Co70 O82 2.137 . S
Co70 O83 2.244 . S
O71 Co70 2.216 . S
O71 C78 1.247 . S
O72 Co70 2.091 . S
O72 C78 1.261 . S
C73 O82 1.247 . S
C73 O83 1.272 . S
O74 Co70 2.004 . S
O74 C79 1.259 . S
Co75 O76 2.061 . S
Co75 O81 2.052 . S
Co75 O83 2.135 . S
O76 Co75 2.061 . S
O76 C79 1.235 . S
C77 O80 1.238 . S
C77 O81 1.241 . S
C78 O71 1.247 . S
C78 O72 1.261 . S
C79 O74 1.259 . S
C79 O76 1.235 . S
O80 Co70 2.021 . S
O80 C77 1.238 . S
O81 Co75 2.052 . S
O81 C77 1.241 . S
O82 Co70 2.137 . S
O82 C73 1.247 . S
O83 Co70 2.244 . S
O83 C73 1.272 . S
O83 Co75 2.135 . S
Co84 O85 2.216 . S
Co84 O86 2.091 . S
Co84 O88 2.004 . S
Co84 O94 2.021 . S
Co84 O96 2.137 . S
Co84 O97 2.244 . S
O85 Co84 2.216 . S
O85 C92 1.247 . S
O86 Co84 2.091 . S
O86 C92 1.261 . S
C87 O96 1.247 . S
C87 O97 1.272 . S
O88 Co84 2.004 . S
O88 C93 1.259 . S
Co89 O90 2.061 . S
Co89 O95 2.052 . S
Co89 O97 2.135 . S
O90 Co89 2.061 . S
O90 C93 1.235 . S
C91 O94 1.238 . S
C91 O95 1.241 . S
C92 O85 1.247 . S
C92 O86 1.261 . S
C93 O88 1.259 . S
C93 O90 1.235 . S
O94 Co84 2.021 . S
O94 C91 1.238 . S
O95 Co89 2.052 . S
O95 C91 1.241 . S
O96 Co84 2.137 . S
O96 C87 1.247 . S
O97 Co84 2.244 . S
O97 C87 1.272 . S
O97 Co89 2.135 . S
Co98 O99 2.216 . S
Co98 O100 2.091 . S
Co98 O102 2.004 . S
Co98 O108 2.021 1_554 S
Co98 O110 2.137 . S
Co98 O111 2.244 . S
O99 Co98 2.216 . S
O99 C106 1.247 . S
O100 Co98 2.091 . S
O100 C106 1.261 . S
C101 O110 1.247 . S
C101 O111 1.272 . S
O102 Co98 2.004 . S
O102 C107 1.259 . S
Co103 O104 2.061 . S
Co103 O109 2.052 1_554 S
Co103 O111 2.135 . S
O104 Co103 2.061 . S
O104 C107 1.235 . S
C105 O108 1.238 . S
C105 O109 1.241 . S
C106 O99 1.247 . S
C106 O100 1.261 . S
C107 O102 1.259 . S
C107 O104 1.235 . S
O108 Co98 2.021 1_556 S
O108 C105 1.238 . S
O109 Co103 2.052 1_556 S
O109 C105 1.241 . S
O110 Co98 2.137 . S
O110 C101 1.247 . S
O111 Co98 2.244 . S
O111 C101 1.272 . S
O111 Co103 2.135 . S
Co112 O113 2.216 . S
Co112 O114 2.091 . S
Co112 O116 2.004 . S
Co112 O122 2.021 . S
Co112 O124 2.137 . S
Co112 O125 2.244 . S
O113 Co112 2.216 . S
O113 C120 1.247 . S
O114 Co112 2.091 . S
O114 C120 1.261 . S
C115 O124 1.247 . S
C115 O125 1.272 . S
O116 Co112 2.004 . S
O116 C121 1.259 . S
Co117 O118 2.061 . S
Co117 O123 2.052 . S
Co117 O125 2.135 . S
O118 Co117 2.061 . S
O118 C121 1.235 . S
C119 O122 1.238 . S
C119 O123 1.241 . S
C120 O113 1.247 . S
C120 O114 1.261 . S
C121 O116 1.259 . S
C121 O118 1.235 . S
O122 Co112 2.021 . S
O122 C119 1.238 . S
O123 Co117 2.052 . S
O123 C119 1.241 . S
O124 Co112 2.137 . S
O124 C115 1.247 . S
O125 Co112 2.244 . S
O125 C115 1.272 . S
O125 Co117 2.135 . S
Co126 O127 2.216 . S
Co126 O128 2.091 . S
Co126 O130 2.004 . S
Co126 O136 2.021 . S
Co126 O138 2.137 . S
Co126 O139 2.244 . S
O127 Co126 2.216 . S
O127 C134 1.247 . S
O128 Co126 2.091 . S
O128 C134 1.261 . S
C129 O138 1.247 . S
C129 O139 1.272 . S
O130 Co126 2.004 . S
O130 C135 1.259 . S
Co131 O132 2.061 . S
Co131 O137 2.052 . S
Co131 O139 2.135 . S
O132 Co131 2.061 . S
O132 C135 1.235 . S
C133 O136 1.238 . S
C133 O137 1.241 . S
C134 O127 1.247 . S
C134 O128 1.261 . S
C135 O130 1.259 . S
C135 O132 1.235 . S
O136 Co126 2.021 . S
O136 C133 1.238 . S
O137 Co131 2.052 . S
O137 C133 1.241 . S
O138 Co126 2.137 . S
O138 C129 1.247 . S
O139 Co126 2.244 . S
O139 C129 1.272 . S
O139 Co131 2.135 . S
Co140 O141 2.216 . S
Co140 O142 2.091 . S
Co140 O144 2.004 . S
Co140 O150 2.021 . S
Co140 O152 2.137 . S
Co140 O153 2.244 . S
O141 Co140 2.216 . S
O141 C148 1.247 . S
O142 Co140 2.091 . S
O142 C148 1.261 . S
C143 O152 1.247 . S
C143 O153 1.272 . S
O144 Co140 2.004 . S
O144 C149 1.259 . S
Co145 O146 2.061 . S
Co145 O151 2.052 . S
Co145 O153 2.135 . S
O146 Co145 2.061 . S
O146 C149 1.235 . S
C147 O150 1.238 . S
C147 O151 1.241 . S
C148 O141 1.247 . S
C148 O142 1.261 . S
C149 O144 1.259 . S
C149 O146 1.235 . S
O150 Co140 2.021 . S
O150 C147 1.238 . S
O151 Co145 2.052 . S
O151 C147 1.241 . S
O152 Co140 2.137 . S
O152 C143 1.247 . S
O153 Co140 2.244 . S
O153 C143 1.272 . S
O153 Co145 2.135 . S
Co154 O155 2.216 . S
Co154 O156 2.091 . S
Co154 O158 2.004 . S
Co154 O164 2.021 . S
Co154 O166 2.137 . S
Co154 O167 2.244 . S
O155 Co154 2.216 . S
O155 C162 1.247 . S
O156 Co154 2.091 . S
O156 C162 1.261 . S
C157 O166 1.247 . S
C157 O167 1.272 . S
O158 Co154 2.004 . S
O158 C163 1.259 . S
Co159 O160 2.061 . S
Co159 O165 2.052 . S
Co159 O167 2.135 . S
O160 Co159 2.061 . S
O160 C163 1.235 . S
C161 O164 1.238 . S
C161 O165 1.241 . S
C162 O155 1.247 . S
C162 O156 1.261 . S
C163 O158 1.259 . S
C163 O160 1.235 . S
O164 Co154 2.021 . S
O164 C161 1.238 . S
O165 Co159 2.052 . S
O165 C161 1.241 . S
O166 Co154 2.137 . S
O166 C157 1.247 . S
O167 Co154 2.244 . S
O167 C157 1.272 . S
O167 Co159 2.135 . S
H168 C180 0.930 . S
H169 C182 0.930 . S
H170 C183 0.930 . S
H171 C187 0.959 . S
H172 C187 0.959 . S
H173 C187 0.961 . S
H174 C188 0.960 . S
H175 C188 0.961 . S
H176 C188 0.959 . S
H177 C191 0.929 . S
H178 C192 0.931 . S
H179 C194 0.930 . S
C180 H168 0.930 . S
C180 C181 1.399 . S
C180 C185 1.399 . S
C181 C180 1.399 . S
C181 C182 1.376 . S
C182 H169 0.930 . S
C182 C181 1.376 . S
C182 C183 1.388 . S
C183 H170 0.930 . S
C183 C182 1.388 . S
C183 C184 1.390 . S
C184 C183 1.390 . S
C184 C185 1.394 . S
C184 C190 1.465 . S
C185 C180 1.399 . S
C185 C184 1.394 . S
C185 C186 1.516 . S
C186 C185 1.516 . S
C186 C187 1.502 . S
C186 C188 1.561 . S
C186 C189 1.526 . S
C187 H171 0.959 . S
C187 H172 0.959 . S
C187 H173 0.961 . S
C187 C186 1.502 . S
C188 H174 0.960 . S
C188 H175 0.961 . S
C188 H176 0.959 . S
C188 C186 1.561 . S
C189 C186 1.526 . S
C189 C190 1.396 . S
C189 C194 1.390 . S
C190 C184 1.465 . S
C190 C189 1.396 . S
C190 C191 1.399 . S
C191 H177 0.929 . S
C191 C190 1.399 . S
C191 C192 1.385 . S
C192 H178 0.931 . S
C192 C191 1.385 . S
C192 C193 1.389 . S
C193 C192 1.389 . S
C193 C194 1.387 . S
C194 H179 0.930 . S
C194 C189 1.390 . S
C194 C193 1.387 . S
H195 C207 0.930 . S
H196 C209 0.930 . S
H197 C210 0.930 . S
H198 C214 0.959 . S
H199 C214 0.959 . S
H200 C214 0.961 . S
H201 C215 0.960 . S
H202 C215 0.961 . S
H203 C215 0.959 . S
H204 C218 0.929 . S
H205 C219 0.931 . S
H206 C221 0.930 . S
C207 H195 0.930 . S
C207 C208 1.399 . S
C207 C212 1.399 . S
C208 C207 1.399 . S
C208 C209 1.376 . S
C209 H196 0.930 . S
C209 C208 1.376 . S
C209 C210 1.388 . S
C210 H197 0.930 . S
C210 C209 1.388 . S
C210 C211 1.390 . S
C211 C210 1.390 . S
C211 C212 1.394 . S
C211 C217 1.465 . S
C212 C207 1.399 . S
C212 C211 1.394 . S
C212 C213 1.516 . S
C213 C212 1.516 . S
C213 C214 1.502 . S
C213 C215 1.561 . S
C213 C216 1.526 . S
C214 H198 0.959 . S
C214 H199 0.959 . S
C214 H200 0.961 . S
C214 C213 1.502 . S
C215 H201 0.960 . S
C215 H202 0.961 . S
C215 H203 0.959 . S
C215 C213 1.561 . S
C216 C213 1.526 . S
C216 C217 1.396 . S
C216 C221 1.390 . S
C217 C211 1.465 . S
C217 C216 1.396 . S
C217 C218 1.399 . S
C218 H204 0.929 . S
C218 C217 1.399 . S
C218 C219 1.385 . S
C219 H205 0.931 . S
C219 C218 1.385 . S
C219 C220 1.389 . S
C220 C219 1.389 . S
C220 C221 1.387 . S
C221 H206 0.930 . S
C221 C216 1.390 . S
C221 C220 1.387 . S
H222 C234 0.930 . S
H223 C236 0.930 . S
H224 C237 0.930 . S
H225 C241 0.959 . S
H226 C241 0.959 . S
H227 C241 0.961 . S
H228 C242 0.960 . S
H229 C242 0.961 . S
H230 C242 0.959 . S
H231 C245 0.929 . S
H232 C246 0.931 . S
H233 C248 0.930 . S
C234 H222 0.930 . S
C234 C235 1.399 . S
C234 C239 1.399 . S
C235 C234 1.399 . S
C235 C236 1.376 . S
C236 H223 0.930 . S
C236 C235 1.376 . S
C236 C237 1.388 . S
C237 H224 0.930 . S
C237 C236 1.388 . S
C237 C238 1.390 . S
C238 C237 1.390 . S
C238 C239 1.394 . S
C238 C244 1.465 . S
C239 C234 1.399 . S
C239 C238 1.394 . S
C239 C240 1.516 . S
C240 C239 1.516 . S
C240 C241 1.502 . S
C240 C242 1.561 . S
C240 C243 1.526 . S
C241 H225 0.959 . S
C241 H226 0.959 . S
C241 H227 0.961 . S
C241 C240 1.502 . S
C242 H228 0.960 . S
C242 H229 0.961 . S
C242 H230 0.959 . S
C242 C240 1.561 . S
C243 C240 1.526 . S
C243 C244 1.396 . S
C243 C248 1.390 . S
C244 C238 1.465 . S
C244 C243 1.396 . S
C244 C245 1.399 . S
C245 H231 0.929 . S
C245 C244 1.399 . S
C245 C246 1.385 . S
C246 H232 0.931 . S
C246 C245 1.385 . S
C246 C247 1.389 . S
C247 C246 1.389 . S
C247 C248 1.387 . S
C248 H233 0.930 . S
C248 C243 1.390 . S
C248 C247 1.387 . S
H249 C261 0.930 . S
H250 C263 0.930 . S
H251 C264 0.930 . S
H252 C268 0.959 . S
H253 C268 0.959 . S
H254 C268 0.961 . S
H255 C269 0.960 . S
H256 C269 0.961 . S
H257 C269 0.959 . S
H258 C272 0.929 . S
H259 C273 0.931 . S
H260 C275 0.930 . S
C261 H249 0.930 . S
C261 C262 1.399 . S
C261 C266 1.399 . S
C262 C261 1.399 . S
C262 C263 1.376 . S
C263 H250 0.930 . S
C263 C262 1.376 . S
C263 C264 1.388 . S
C264 H251 0.930 . S
C264 C263 1.388 . S
C264 C265 1.390 . S
C265 C264 1.390 . S
C265 C266 1.394 . S
C265 C271 1.465 . S
C266 C261 1.399 . S
C266 C265 1.394 . S
C266 C267 1.516 . S
C267 C266 1.516 . S
C267 C268 1.502 . S
C267 C269 1.561 . S
C267 C270 1.526 . S
C268 H252 0.959 . S
C268 H253 0.959 . S
C268 H254 0.961 . S
C268 C267 1.502 . S
C269 H255 0.960 . S
C269 H256 0.961 . S
C269 H257 0.959 . S
C269 C267 1.561 . S
C270 C267 1.526 . S
C270 C271 1.396 . S
C270 C275 1.390 . S
C271 C265 1.465 . S
C271 C270 1.396 . S
C271 C272 1.399 . S
C272 H258 0.929 . S
C272 C271 1.399 . S
C272 C273 1.385 . S
C273 H259 0.931 . S
C273 C272 1.385 . S
C273 C274 1.389 . S
C274 C273 1.389 . S
C274 C275 1.387 . S
C275 H260 0.930 . S
C275 C270 1.390 . S
C275 C274 1.387 . S
H276 C288 0.930 . S
H277 C290 0.930 . S
H278 C291 0.930 1_556 S
H279 C295 0.959 . S
H280 C295 0.959 . S
H281 C295 0.961 1_554 S
H282 C296 0.960 . S
H283 C296 0.961 1_556 S
H284 C296 0.959 . S
H285 C299 0.929 . S
H286 C300 0.931 . S
H287 C302 0.930 . S
C288 H276 0.930 . S
C288 C289 1.399 . S
C288 C293 1.399 . S
C289 C288 1.399 . S
C289 C290 1.376 . S
C290 H277 0.930 . S
C290 C289 1.376 . S
C290 C291 1.388 . S
C291 H278 0.930 1_554 S
C291 C290 1.388 . S
C291 C292 1.390 1_554 S
C292 C291 1.390 1_556 S
C292 C293 1.394 1_556 S
C292 C298 1.465 . S
C293 C288 1.399 . S
C293 C292 1.394 1_554 S
C293 C294 1.516 1_554 S
C294 C293 1.516 1_556 S
C294 C295 1.502 . S
C294 C296 1.561 1_556 S
C294 C297 1.526 . S
C295 H279 0.959 . S
C295 H280 0.959 . S
C295 H281 0.961 1_556 S
C295 C294 1.502 . S
C296 H282 0.960 . S
C296 H283 0.961 1_554 S
C296 H284 0.959 . S
C296 C294 1.561 1_554 S
C297 C294 1.526 . S
C297 C298 1.396 . S
C297 C302 1.390 . S
C298 C292 1.465 . S
C298 C297 1.396 . S
C298 C299 1.399 . S
C299 H285 0.929 . S
C299 C298 1.399 . S
C299 C300 1.385 . S
C300 H286 0.931 . S
C300 C299 1.385 . S
C300 C301 1.389 . S
C301 C300 1.389 . S
C301 C302 1.387 . S
C302 H287 0.930 . S
C302 C297 1.390 . S
C302 C301 1.387 . S
H303 C315 0.930 . S
H304 C317 0.930 . S
H305 C318 0.930 . S
H306 C322 0.959 . S
H307 C322 0.959 . S
H308 C322 0.961 . S
H309 C323 0.960 . S
H310 C323 0.961 . S
H311 C323 0.959 . S
H312 C326 0.929 . S
H313 C327 0.931 1_556 S
H314 C329 0.930 . S
C315 H303 0.930 . S
C315 C316 1.399 . S
C315 C320 1.399 . S
C316 C315 1.399 . S
C316 C317 1.376 . S
C317 H304 0.930 . S
C317 C316 1.376 . S
C317 C318 1.388 . S
C318 H305 0.930 . S
C318 C317 1.388 . S
C318 C319 1.390 . S
C319 C318 1.390 . S
C319 C320 1.394 . S
C319 C325 1.465 . S
C320 C315 1.399 . S
C320 C319 1.394 . S
C320 C321 1.516 . S
C321 C320 1.516 . S
C321 C322 1.502 . S
C321 C323 1.561 . S
C321 C324 1.526 . S
C322 H306 0.959 . S
C322 H307 0.959 . S
C322 H308 0.961 . S
C322 C321 1.502 . S
C323 H309 0.960 . S
C323 H310 0.961 . S
C323 H311 0.959 . S
C323 C321 1.561 . S
C324 C321 1.526 . S
C324 C325 1.396 . S
C324 C329 1.390 . S
C325 C319 1.465 . S
C325 C324 1.396 . S
C325 C326 1.399 . S
C326 H312 0.929 . S
C326 C325 1.399 . S
C326 C327 1.385 . S
C327 H313 0.931 1_554 S
C327 C326 1.385 . S
C327 C328 1.389 . S
C328 C327 1.389 . S
C328 C329 1.387 . S
C329 H314 0.930 . S
C329 C324 1.390 . S
C329 C328 1.387 . S
H330 C342 0.930 . S
H331 C344 0.930 . S
H332 C345 0.930 . S
H333 C349 0.959 . S
H334 C349 0.959 . S
H335 C349 0.961 . S
H336 C350 0.960 . S
H337 C350 0.961 . S
H338 C350 0.959 . S
H339 C353 0.929 . S
H340 C354 0.931 . S
H341 C356 0.930 . S
C342 H330 0.930 . S
C342 C343 1.399 . S
C342 C347 1.399 . S
C343 C342 1.399 . S
C343 C344 1.376 . S
C344 H331 0.930 . S
C344 C343 1.376 . S
C344 C345 1.388 . S
C345 H332 0.930 . S
C345 C344 1.388 . S
C345 C346 1.390 . S
C346 C345 1.390 . S
C346 C347 1.394 . S
C346 C352 1.465 . S
C347 C342 1.399 . S
C347 C346 1.394 . S
C347 C348 1.516 . S
C348 C347 1.516 . S
C348 C349 1.502 . S
C348 C350 1.561 . S
C348 C351 1.526 . S
C349 H333 0.959 . S
C349 H334 0.959 . S
C349 H335 0.961 . S
C349 C348 1.502 . S
C350 H336 0.960 . S
C350 H337 0.961 . S
C350 H338 0.959 . S
C350 C348 1.561 . S
C351 C348 1.526 . S
C351 C352 1.396 . S
C351 C356 1.390 . S
C352 C346 1.465 . S
C352 C351 1.396 . S
C352 C353 1.399 . S
C353 H339 0.929 . S
C353 C352 1.399 . S
C353 C354 1.385 . S
C354 H340 0.931 . S
C354 C353 1.385 . S
C354 C355 1.389 . S
C355 C354 1.389 . S
C355 C356 1.387 . S
C356 H341 0.930 . S
C356 C351 1.390 . S
C356 C355 1.387 . S
H357 C369 0.930 . S
H358 C371 0.930 . S
H359 C372 0.930 . S
H360 C376 0.959 . S
H361 C376 0.959 . S
H362 C376 0.961 . S
H363 C377 0.960 . S
H364 C377 0.961 . S
H365 C377 0.959 . S
H366 C380 0.929 . S
H367 C381 0.931 . S
H368 C383 0.930 . S
C369 H357 0.930 . S
C369 C370 1.399 . S
C369 C374 1.399 . S
C370 C369 1.399 . S
C370 C371 1.376 . S
C371 H358 0.930 . S
C371 C370 1.376 . S
C371 C372 1.388 . S
C372 H359 0.930 . S
C372 C371 1.388 . S
C372 C373 1.390 . S
C373 C372 1.390 . S
C373 C374 1.394 . S
C373 C379 1.465 . S
C374 C369 1.399 . S
C374 C373 1.394 . S
C374 C375 1.516 . S
C375 C374 1.516 . S
C375 C376 1.502 . S
C375 C377 1.561 . S
C375 C378 1.526 . S
C376 H360 0.959 . S
C376 H361 0.959 . S
C376 H362 0.961 . S
C376 C375 1.502 . S
C377 H363 0.960 . S
C377 H364 0.961 . S
C377 H365 0.959 . S
C377 C375 1.561 . S
C378 C375 1.526 . S
C378 C379 1.396 . S
C378 C383 1.390 . S
C379 C373 1.465 . S
C379 C378 1.396 . S
C379 C380 1.399 . S
C380 H366 0.929 . S
C380 C379 1.399 . S
C380 C381 1.385 . S
C381 H367 0.931 . S
C381 C380 1.385 . S
C381 C382 1.389 . S
C382 C381 1.389 . S
C382 C383 1.387 . S
C383 H368 0.930 . S
C383 C378 1.390 . S
C383 C382 1.387 . S
H384 C396 0.930 . S
H385 C398 0.930 . S
H386 C399 0.930 . S
H387 C403 0.959 . S
H388 C403 0.959 . S
H389 C403 0.961 . S
H390 C404 0.960 . S
H391 C404 0.961 . S
H392 C404 0.959 . S
H393 C407 0.929 . S
H394 C408 0.931 . S
H395 C410 0.930 . S
C396 H384 0.930 . S
C396 C397 1.399 . S
C396 C401 1.399 . S
C397 C396 1.399 . S
C397 C398 1.376 . S
C398 H385 0.930 . S
C398 C397 1.376 . S
C398 C399 1.388 . S
C399 H386 0.930 . S
C399 C398 1.388 . S
C399 C400 1.390 . S
C400 C399 1.390 . S
C400 C401 1.394 . S
C400 C406 1.465 . S
C401 C396 1.399 . S
C401 C400 1.394 . S
C401 C402 1.516 . S
C402 C401 1.516 . S
C402 C403 1.502 . S
C402 C404 1.561 . S
C402 C405 1.526 . S
C403 H387 0.959 . S
C403 H388 0.959 . S
C403 H389 0.961 . S
C403 C402 1.502 . S
C404 H390 0.960 . S
C404 H391 0.961 . S
C404 H392 0.959 . S
C404 C402 1.561 . S
C405 C402 1.526 . S
C405 C406 1.396 . S
C405 C410 1.390 . S
C406 C400 1.465 . S
C406 C405 1.396 . S
C406 C407 1.399 . S
C407 H393 0.929 . S
C407 C406 1.399 . S
C407 C408 1.385 . S
C408 H394 0.931 . S
C408 C407 1.385 . S
C408 C409 1.389 . S
C409 C408 1.389 . S
C409 C410 1.387 . S
C410 H395 0.930 . S
C410 C405 1.390 . S
C410 C409 1.387 . S
H411 C423 0.930 . S
H412 C425 0.930 . S
H413 C426 0.930 . S
H414 C430 0.959 . S
H415 C430 0.959 . S
H416 C430 0.961 . S
H417 C431 0.960 . S
H418 C431 0.961 . S
H419 C431 0.959 . S
H420 C434 0.929 . S
H421 C435 0.931 . S
H422 C437 0.930 . S
C423 H411 0.930 . S
C423 C424 1.399 . S
C423 C428 1.399 . S
C424 C423 1.399 . S
C424 C425 1.376 . S
C425 H412 0.930 . S
C425 C424 1.376 . S
C425 C426 1.388 . S
C426 H413 0.930 . S
C426 C425 1.388 . S
C426 C427 1.390 . S
C427 C426 1.390 . S
C427 C428 1.394 . S
C427 C433 1.465 . S
C428 C423 1.399 . S
C428 C427 1.394 . S
C428 C429 1.516 . S
C429 C428 1.516 . S
C429 C430 1.502 . S
C429 C431 1.561 . S
C429 C432 1.526 . S
C430 H414 0.959 . S
C430 H415 0.959 . S
C430 H416 0.961 . S
C430 C429 1.502 . S
C431 H417 0.960 . S
C431 H418 0.961 . S
C431 H419 0.959 . S
C431 C429 1.561 . S
C432 C429 1.526 . S
C432 C433 1.396 . S
C432 C437 1.390 . S
C433 C427 1.465 . S
C433 C432 1.396 . S
C433 C434 1.399 . S
C434 H420 0.929 . S
C434 C433 1.399 . S
C434 C435 1.385 . S
C435 H421 0.931 . S
C435 C434 1.385 . S
C435 C436 1.389 . S
C436 C435 1.389 . S
C436 C437 1.387 . S
C437 H422 0.930 . S
C437 C432 1.390 . S
C437 C436 1.387 . S
H438 C450 0.930 . S
H439 C452 0.930 . S
H440 C453 0.930 . S
H441 C457 0.959 . S
H442 C457 0.959 . S
H443 C457 0.961 . S
H444 C458 0.960 . S
H445 C458 0.961 . S
H446 C458 0.959 . S
H447 C461 0.929 . S
H448 C462 0.931 . S
H449 C464 0.930 . S
C450 H438 0.930 . S
C450 C451 1.399 . S
C450 C455 1.399 . S
C451 C450 1.399 . S
C451 C452 1.376 . S
C452 H439 0.930 . S
C452 C451 1.376 . S
C452 C453 1.388 . S
C453 H440 0.930 . S
C453 C452 1.388 . S
C453 C454 1.390 . S
C454 C453 1.390 . S
C454 C455 1.394 . S
C454 C460 1.465 . S
C455 C450 1.399 . S
C455 C454 1.394 . S
C455 C456 1.516 . S
C456 C455 1.516 . S
C456 C457 1.502 . S
C456 C458 1.561 . S
C456 C459 1.526 . S
C457 H441 0.959 . S
C457 H442 0.959 . S
C457 H443 0.961 . S
C457 C456 1.502 . S
C458 H444 0.960 . S
C458 H445 0.961 . S
C458 H446 0.959 . S
C458 C456 1.561 . S
C459 C456 1.526 . S
C459 C460 1.396 . S
C459 C464 1.390 . S
C460 C454 1.465 . S
C460 C459 1.396 . S
C460 C461 1.399 . S
C461 H447 0.929 . S
C461 C460 1.399 . S
C461 C462 1.385 . S
C462 H448 0.931 . S
C462 C461 1.385 . S
C462 C463 1.389 . S
C463 C462 1.389 . S
C463 C464 1.387 . S
C464 H449 0.930 . S
C464 C459 1.390 . S
C464 C463 1.387 . S
H465 C477 0.930 . S
H466 C479 0.930 . S
H467 C480 0.930 . S
H468 C484 0.959 . S
H469 C484 0.959 . S
H470 C484 0.961 . S
H471 C485 0.960 . S
H472 C485 0.961 . S
H473 C485 0.959 1_556 S
H474 C488 0.929 . S
H475 C489 0.931 . S
H476 C491 0.930 . S
C477 H465 0.930 . S
C477 C478 1.399 . S
C477 C482 1.399 . S
C478 C477 1.399 . S
C478 C479 1.376 . S
C479 H466 0.930 . S
C479 C478 1.376 . S
C479 C480 1.388 . S
C480 H467 0.930 . S
C480 C479 1.388 . S
C480 C481 1.390 . S
C481 C480 1.390 . S
C481 C482 1.394 . S
C481 C487 1.465 . S
C482 C477 1.399 . S
C482 C481 1.394 . S
C482 C483 1.516 1_556 S
C483 C482 1.516 1_554 S
C483 C484 1.502 . S
C483 C485 1.561 . S
C483 C486 1.526 1_554 S
C484 H468 0.959 . S
C484 H469 0.959 . S
C484 H470 0.961 . S
C484 C483 1.502 . S
C485 H471 0.960 . S
C485 H472 0.961 . S
C485 H473 0.959 1_554 S
C485 C483 1.561 . S
C486 C483 1.526 1_556 S
C486 C487 1.396 . S
C486 C491 1.390 1_556 S
C487 C481 1.465 . S
C487 C486 1.396 . S
C487 C488 1.399 . S
C488 H474 0.929 . S
C488 C487 1.399 . S
C488 C489 1.385 . S
C489 H475 0.931 . S
C489 C488 1.385 . S
C489 C490 1.389 1_556 S
C490 C489 1.389 1_554 S
C490 C491 1.387 . S
C491 H476 0.930 . S
C491 C486 1.390 1_554 S
C491 C490 1.387 . S
H492 C504 0.930 . S
H493 C506 0.930 . S
H494 C507 0.930 . S
H495 C511 0.959 . S
H496 C511 0.959 . S
H497 C511 0.961 . S
H498 C512 0.960 . S
H499 C512 0.961 . S
H500 C512 0.959 . S
H501 C515 0.929 . S
H502 C516 0.931 . S
H503 C518 0.930 . S
C504 H492 0.930 . S
C504 C505 1.399 . S
C504 C509 1.399 . S
C505 C504 1.399 . S
C505 C506 1.376 . S
C506 H493 0.930 . S
C506 C505 1.376 . S
C506 C507 1.388 . S
C507 H494 0.930 . S
C507 C506 1.388 . S
C507 C508 1.390 . S
C508 C507 1.390 . S
C508 C509 1.394 . S
C508 C514 1.465 . S
C509 C504 1.399 . S
C509 C508 1.394 . S
C509 C510 1.516 . S
C510 C509 1.516 . S
C510 C511 1.502 . S
C510 C512 1.561 . S
C510 C513 1.526 . S
C511 H495 0.959 . S
C511 H496 0.959 . S
C511 H497 0.961 . S
C511 C510 1.502 . S
C512 H498 0.960 . S
C512 H499 0.961 . S
C512 H500 0.959 . S
C512 C510 1.561 . S
C513 C510 1.526 . S
C513 C514 1.396 . S
C513 C518 1.390 . S
C514 C508 1.465 . S
C514 C513 1.396 . S
C514 C515 1.399 . S
C515 H501 0.929 . S
C515 C514 1.399 . S
C515 C516 1.385 . S
C516 H502 0.931 . S
C516 C515 1.385 . S
C516 C517 1.389 . S
C517 C516 1.389 . S
C517 C518 1.387 . S
C518 H503 0.930 . S
C518 C513 1.390 . S
C518 C517 1.387 . S
H519 C531 0.930 . S
H520 C533 0.930 . S
H521 C534 0.930 . S
H522 C538 0.959 . S
H523 C538 0.959 . S
H524 C538 0.961 . S
H525 C539 0.960 . S
H526 C539 0.961 . S
H527 C539 0.959 . S
H528 C542 0.929 . S
H529 C543 0.931 . S
H530 C545 0.930 . S
C531 H519 0.930 . S
C531 C532 1.399 . S
C531 C536 1.399 . S
C532 C531 1.399 . S
C532 C533 1.376 . S
C533 H520 0.930 . S
C533 C532 1.376 . S
C533 C534 1.388 . S
C534 H521 0.930 . S
C534 C533 1.388 . S
C534 C535 1.390 . S
C535 C534 1.390 . S
C535 C536 1.394 . S
C535 C541 1.465 . S
C536 C531 1.399 . S
C536 C535 1.394 . S
C536 C537 1.516 . S
C537 C536 1.516 . S
C537 C538 1.502 . S
C537 C539 1.561 . S
C537 C540 1.526 . S
C538 H522 0.959 . S
C538 H523 0.959 . S
C538 H524 0.961 . S
C538 C537 1.502 . S
C539 H525 0.960 . S
C539 H526 0.961 . S
C539 H527 0.959 . S
C539 C537 1.561 . S
C540 C537 1.526 . S
C540 C541 1.396 . S
C540 C545 1.390 1_556 S
C541 C535 1.465 . S
C541 C540 1.396 . S
C541 C542 1.399 1_556 S
C542 H528 0.929 . S
C542 C541 1.399 1_554 S
C542 C543 1.385 . S
C543 H529 0.931 . S
C543 C542 1.385 . S
C543 C544 1.389 . S
C544 C543 1.389 . S
C544 C545 1.387 . S
C545 H530 0.930 . S
C545 C540 1.390 1_554 S
C545 C544 1.387 . S
H546 C558 0.930 . S
H547 C560 0.930 1_556 S
H548 C561 0.930 . S
H549 C565 0.959 . S
H550 C565 0.959 . S
H551 C565 0.961 . S
H552 C566 0.960 . S
H553 C566 0.961 . S
H554 C566 0.959 . S
H555 C569 0.929 . S
H556 C570 0.931 . S
H557 C572 0.930 . S
C558 H546 0.930 . S
C558 C559 1.399 . S
C558 C563 1.399 . S
C559 C558 1.399 . S
C559 C560 1.376 . S
C560 H547 0.930 1_554 S
C560 C559 1.376 . S
C560 C561 1.388 . S
C561 H548 0.930 . S
C561 C560 1.388 . S
C561 C562 1.390 . S
C562 C561 1.390 . S
C562 C563 1.394 . S
C562 C568 1.465 . S
C563 C558 1.399 . S
C563 C562 1.394 . S
C563 C564 1.516 . S
C564 C563 1.516 . S
C564 C565 1.502 . S
C564 C566 1.561 . S
C564 C567 1.526 . S
C565 H549 0.959 . S
C565 H550 0.959 . S
C565 H551 0.961 . S
C565 C564 1.502 . S
C566 H552 0.960 . S
C566 H553 0.961 . S
C566 H554 0.959 . S
C566 C564 1.561 . S
C567 C564 1.526 . S
C567 C568 1.396 . S
C567 C572 1.390 . S
C568 C562 1.465 . S
C568 C567 1.396 . S
C568 C569 1.399 . S
C569 H555 0.929 . S
C569 C568 1.399 . S
C569 C570 1.385 . S
C570 H556 0.931 . S
C570 C569 1.385 . S
C570 C571 1.389 . S
C571 C570 1.389 . S
C571 C572 1.387 . S
C572 H557 0.930 . S
C572 C567 1.390 . S
C572 C571 1.387 . S
H573 C585 0.930 . S
H574 C587 0.930 . S
H575 C588 0.930 . S
H576 C592 0.959 . S
H577 C592 0.959 . S
H578 C592 0.961 . S
H579 C593 0.960 . S
H580 C593 0.961 . S
H581 C593 0.959 . S
H582 C596 0.929 . S
H583 C597 0.931 . S
H584 C599 0.930 . S
C585 H573 0.930 . S
C585 C586 1.399 . S
C585 C590 1.399 . S
C586 C585 1.399 . S
C586 C587 1.376 . S
C587 H574 0.930 . S
C587 C586 1.376 . S
C587 C588 1.388 . S
C588 H575 0.930 . S
C588 C587 1.388 . S
C588 C589 1.390 . S
C589 C588 1.390 . S
C589 C590 1.394 . S
C589 C595 1.465 . S
C590 C585 1.399 . S
C590 C589 1.394 . S
C590 C591 1.516 . S
C591 C590 1.516 . S
C591 C592 1.502 . S
C591 C593 1.561 . S
C591 C594 1.526 . S
C592 H576 0.959 . S
C592 H577 0.959 . S
C592 H578 0.961 . S
C592 C591 1.502 . S
C593 H579 0.960 . S
C593 H580 0.961 . S
C593 H581 0.959 . S
C593 C591 1.561 . S
C594 C591 1.526 . S
C594 C595 1.396 . S
C594 C599 1.390 . S
C595 C589 1.465 . S
C595 C594 1.396 . S
C595 C596 1.399 . S
C596 H582 0.929 . S
C596 C595 1.399 . S
C596 C597 1.385 . S
C597 H583 0.931 . S
C597 C596 1.385 . S
C597 C598 1.389 . S
C598 C597 1.389 . S
C598 C599 1.387 . S
C599 H584 0.930 . S
C599 C594 1.390 . S
C599 C598 1.387 . S
H600 C612 0.930 . S
H601 C614 0.930 . S
H602 C615 0.930 . S
H603 C619 0.959 . S
H604 C619 0.959 . S
H605 C619 0.961 . S
H606 C620 0.960 . S
H607 C620 0.961 . S
H608 C620 0.959 . S
H609 C623 0.929 . S
H610 C624 0.931 . S
H611 C626 0.930 . S
C612 H600 0.930 . S
C612 C613 1.399 . S
C612 C617 1.399 . S
C613 C612 1.399 . S
C613 C614 1.376 . S
C614 H601 0.930 . S
C614 C613 1.376 . S
C614 C615 1.388 . S
C615 H602 0.930 . S
C615 C614 1.388 . S
C615 C616 1.390 . S
C616 C615 1.390 . S
C616 C617 1.394 . S
C616 C622 1.465 . S
C617 C612 1.399 . S
C617 C616 1.394 . S
C617 C618 1.516 . S
C618 C617 1.516 . S
C618 C619 1.502 . S
C618 C620 1.561 . S
C618 C621 1.526 . S
C619 H603 0.959 . S
C619 H604 0.959 . S
C619 H605 0.961 . S
C619 C618 1.502 . S
C620 H606 0.960 . S
C620 H607 0.961 . S
C620 H608 0.959 . S
C620 C618 1.561 . S
C621 C618 1.526 . S
C621 C622 1.396 . S
C621 C626 1.390 . S
C622 C616 1.465 . S
C622 C621 1.396 . S
C622 C623 1.399 . S
C623 H609 0.929 . S
C623 C622 1.399 . S
C623 C624 1.385 . S
C624 H610 0.931 . S
C624 C623 1.385 . S
C624 C625 1.389 . S
C625 C624 1.389 . S
C625 C626 1.387 . S
C626 H611 0.930 . S
C626 C621 1.390 . S
C626 C625 1.387 . S
H627 C639 0.930 . S
H628 C641 0.930 . S
H629 C642 0.930 . S
H630 C646 0.959 . S
H631 C646 0.959 . S
H632 C646 0.961 . S
H633 C647 0.960 . S
H634 C647 0.961 . S
H635 C647 0.959 . S
H636 C650 0.929 . S
H637 C651 0.931 . S
H638 C653 0.930 . S
C639 H627 0.930 . S
C639 C640 1.399 . S
C639 C644 1.399 . S
C640 C639 1.399 . S
C640 C641 1.376 . S
C641 H628 0.930 . S
C641 C640 1.376 . S
C641 C642 1.388 . S
C642 H629 0.930 . S
C642 C641 1.388 . S
C642 C643 1.390 . S
C643 C642 1.390 . S
C643 C644 1.394 . S
C643 C649 1.465 . S
C644 C639 1.399 . S
C644 C643 1.394 . S
C644 C645 1.516 . S
C645 C644 1.516 . S
C645 C646 1.502 . S
C645 C647 1.561 . S
C645 C648 1.526 . S
C646 H630 0.959 . S
C646 H631 0.959 . S
C646 H632 0.961 . S
C646 C645 1.502 . S
C647 H633 0.960 . S
C647 H634 0.961 . S
C647 H635 0.959 . S
C647 C645 1.561 . S
C648 C645 1.526 . S
C648 C649 1.396 . S
C648 C653 1.390 . S
C649 C643 1.465 . S
C649 C648 1.396 . S
C649 C650 1.399 . S
C650 H636 0.929 . S
C650 C649 1.399 . S
C650 C651 1.385 . S
C651 H637 0.931 . S
C651 C650 1.385 . S
C651 C652 1.389 . S
C652 C651 1.389 . S
C652 C653 1.387 . S
C653 H638 0.930 . S
C653 C648 1.390 . S
C653 C652 1.387 . S
H654 C666 0.930 1_556 S
H655 C668 0.930 . S
H656 C669 0.930 . S
H657 C673 0.946 1_564 S
H658 C673 0.959 1_565 S
H659 C673 0.961 . S
H660 C674 0.995 . S
H661 C674 0.938 1_565 S
H662 C674 0.913 1_565 S
H663 C677 0.929 . S
H664 C678 0.931 . S
H665 C680 0.930 1_556 S
C666 H654 0.930 1_554 S
C666 C667 1.399 . S
C666 C671 1.399 . S
C667 C666 1.399 . S
C667 C668 1.376 . S
C668 H655 0.930 . S
C668 C667 1.376 . S
C668 C669 1.388 . S
C669 H656 0.930 . S
C669 C668 1.388 . S
C669 C670 1.390 . S
C670 C669 1.390 . S
C670 C671 1.394 . S
C670 C676 1.465 1_545 S
C671 C666 1.399 . S
C671 C670 1.394 . S
C671 C672 1.527 1_554 S
C672 C671 1.527 1_556 S
C672 C673 1.512 . S
C672 C674 1.568 . S
C672 C675 1.509 1_546 S
C673 H657 0.946 1_546 S
C673 H658 0.959 1_545 S
C673 H659 0.961 . S
C673 C672 1.512 . S
C674 H660 0.995 . S
C674 H661 0.938 1_545 S
C674 H662 0.913 1_545 S
C674 C672 1.568 . S
C675 C672 1.509 1_564 S
C675 C676 1.396 . S
C675 C680 1.390 . S
C676 C670 1.465 1_565 S
C676 C675 1.396 . S
C676 C677 1.399 . S
C677 H663 0.929 . S
C677 C676 1.399 . S
C677 C678 1.385 . S
C678 H664 0.931 . S
C678 C677 1.385 . S
C678 C679 1.389 . S
C679 C678 1.389 . S
C679 C680 1.387 . S
C680 H665 0.930 1_554 S
C680 C675 1.390 . S
C680 C679 1.387 . S
H681 C693 0.930 . S
H682 C695 0.930 . S
H683 C696 0.930 . S
H684 C700 0.959 . S
H685 C700 0.959 . S
H686 C700 0.961 . S
H687 C701 0.960 . S
H688 C701 0.961 . S
H689 C701 0.959 . S
H690 C704 0.929 . S
H691 C705 0.931 . S
H692 C707 0.930 . S
C693 H681 0.930 . S
C693 C694 1.399 . S
C693 C698 1.399 . S
C694 C693 1.399 . S
C694 C695 1.376 . S
C695 H682 0.930 . S
C695 C694 1.376 . S
C695 C696 1.388 . S
C696 H683 0.930 . S
C696 C695 1.388 . S
C696 C697 1.390 . S
C697 C696 1.390 . S
C697 C698 1.394 . S
C697 C703 1.465 . S
C698 C693 1.399 . S
C698 C697 1.394 . S
C698 C699 1.516 . S
C699 C698 1.516 . S
C699 C700 1.502 . S
C699 C701 1.561 . S
C699 C702 1.526 . S
C700 H684 0.959 . S
C700 H685 0.959 . S
C700 H686 0.961 . S
C700 C699 1.502 . S
C701 H687 0.960 . S
C701 H688 0.961 . S
C701 H689 0.959 . S
C701 C699 1.561 . S
C702 C699 1.526 . S
C702 C703 1.396 . S
C702 C707 1.390 . S
C703 C697 1.465 . S
C703 C702 1.396 . S
C703 C704 1.399 . S
C704 H690 0.929 . S
C704 C703 1.399 . S
C704 C705 1.385 . S
C705 H691 0.931 . S
C705 C704 1.385 . S
C705 C706 1.389 . S
C706 C705 1.389 . S
C706 C707 1.387 . S
C707 H692 0.930 . S
C707 C702 1.390 . S
C707 C706 1.387 . S
H708 C720 0.930 . S
H709 C722 0.930 . S
H710 C723 0.930 . S
H711 C727 0.962 1_655 S
H712 C727 0.953 1_655 S
H713 C727 0.969 . S
H714 C728 0.990 . S
H715 C728 0.937 1_655 S
H716 C728 0.916 1_655 S
H717 C731 0.929 . S
H718 C732 0.931 . S
H719 C734 0.930 . S
C720 H708 0.930 . S
C720 C721 1.399 . S
C720 C725 1.399 . S
C721 C720 1.399 . S
C721 C722 1.376 . S
C722 H709 0.930 . S
C722 C721 1.376 . S
C722 C723 1.388 . S
C723 H710 0.930 . S
C723 C722 1.388 . S
C723 C724 1.390 . S
C724 C723 1.390 . S
C724 C725 1.394 . S
C724 C730 1.465 1_455 S
C725 C720 1.399 . S
C725 C724 1.394 . S
C725 C726 1.530 . S
C726 C725 1.530 . S
C726 C727 1.507 . S
C726 C728 1.567 . S
C726 C729 1.509 1_455 S
C727 H711 0.962 1_455 S
C727 H712 0.953 1_455 S
C727 H713 0.969 . S
C727 C726 1.507 . S
C728 H714 0.990 . S
C728 H715 0.937 1_455 S
C728 H716 0.916 1_455 S
C728 C726 1.567 . S
C729 C726 1.509 1_655 S
C729 C730 1.396 . S
C729 C734 1.390 . S
C730 C724 1.465 1_655 S
C730 C729 1.396 . S
C730 C731 1.399 . S
C731 H717 0.929 . S
C731 C730 1.399 . S
C731 C732 1.385 . S
C732 H718 0.931 . S
C732 C731 1.385 . S
C732 C733 1.389 . S
C733 C732 1.389 . S
C733 C734 1.387 . S
C734 H719 0.930 . S
C734 C729 1.390 . S
C734 C733 1.387 . S
H735 C747 0.930 . S
H736 C749 0.930 . S
H737 C750 0.930 . S
H738 C754 0.959 . S
H739 C754 0.959 . S
H740 C754 0.961 1_565 S
H741 C755 0.960 1_565 S
H742 C755 0.961 . S
H743 C755 0.959 . S
H744 C758 0.929 . S
H745 C759 0.931 . S
H746 C761 0.930 . S
C747 H735 0.930 . S
C747 C748 1.399 . S
C747 C752 1.399 . S
C748 C747 1.399 . S
C748 C749 1.376 . S
C749 H736 0.930 . S
C749 C748 1.376 . S
C749 C750 1.388 . S
C750 H737 0.930 . S
C750 C749 1.388 . S
C750 C751 1.390 . S
C751 C750 1.390 . S
C751 C752 1.394 . S
C751 C757 1.465 1_565 S
C752 C747 1.399 . S
C752 C751 1.394 . S
C752 C753 1.491 1_565 S
C753 C752 1.491 1_545 S
C753 C754 1.518 . S
C753 C755 1.551 . S
C753 C756 1.544 . S
C754 H738 0.959 . S
C754 H739 0.959 . S
C754 H740 0.961 1_545 S
C754 C753 1.518 . S
C755 H741 0.960 1_545 S
C755 H742 0.961 . S
C755 H743 0.959 . S
C755 C753 1.551 . S
C756 C753 1.544 . S
C756 C757 1.396 . S
C756 C761 1.390 . S
C757 C751 1.465 1_545 S
C757 C756 1.396 . S
C757 C758 1.399 . S
C758 H744 0.929 . S
C758 C757 1.399 . S
C758 C759 1.385 . S
C759 H745 0.931 . S
C759 C758 1.385 . S
C759 C760 1.389 . S
C760 C759 1.389 . S
C760 C761 1.387 . S
C761 H746 0.930 . S
C761 C756 1.390 . S
C761 C760 1.387 . S
H762 C774 0.930 . S
H763 C776 0.930 . S
H764 C777 0.930 . S
H765 C781 0.959 . S
H766 C781 0.959 . S
H767 C781 0.961 . S
H768 C782 0.960 . S
H769 C782 0.961 . S
H770 C782 0.959 . S
H771 C785 0.929 . S
H772 C786 0.931 . S
H773 C788 0.930 . S
C774 H762 0.930 . S
C774 C775 1.399 . S
C774 C779 1.399 . S
C775 C774 1.399 . S
C775 C776 1.376 . S
C776 H763 0.930 . S
C776 C775 1.376 . S
C776 C777 1.388 . S
C777 H764 0.930 . S
C777 C776 1.388 . S
C777 C778 1.390 . S
C778 C777 1.390 . S
C778 C779 1.394 . S
C778 C784 1.465 . S
C779 C774 1.399 . S
C779 C778 1.394 . S
C779 C780 1.516 . S
C780 C779 1.516 . S
C780 C781 1.502 . S
C780 C782 1.561 . S
C780 C783 1.526 . S
C781 H765 0.959 . S
C781 H766 0.959 . S
C781 H767 0.961 . S
C781 C780 1.502 . S
C782 H768 0.960 . S
C782 H769 0.961 . S
C782 H770 0.959 . S
C782 C780 1.561 . S
C783 C780 1.526 . S
C783 C784 1.396 . S
C783 C788 1.390 . S
C784 C778 1.465 . S
C784 C783 1.396 . S
C784 C785 1.399 . S
C785 H771 0.929 . S
C785 C784 1.399 . S
C785 C786 1.385 . S
C786 H772 0.931 . S
C786 C785 1.385 . S
C786 C787 1.389 . S
C787 C786 1.389 . S
C787 C788 1.387 . S
C788 H773 0.930 . S
C788 C783 1.390 . S
C788 C787 1.387 . S
H789 C801 0.930 . S
H790 C803 0.930 . S
H791 C804 0.930 . S
H792 C808 0.960 . S
H793 C808 0.962 . S
H794 C808 0.959 1_455 S
H795 C809 0.986 . S
H796 C809 0.924 1_655 S
H797 C809 0.996 1_655 S
H798 C812 0.929 . S
H799 C813 0.931 . S
H800 C815 0.930 . S
C801 H789 0.930 . S
C801 C802 1.399 . S
C801 C806 1.399 . S
C802 C801 1.399 . S
C802 C803 1.376 . S
C803 H790 0.930 . S
C803 C802 1.376 . S
C803 C804 1.388 . S
C804 H791 0.930 . S
C804 C803 1.388 . S
C804 C805 1.390 . S
C805 C804 1.390 . S
C805 C806 1.394 . S
C805 C811 1.465 1_455 S
C806 C801 1.399 . S
C806 C805 1.394 . S
C806 C807 1.529 . S
C807 C806 1.529 . S
C807 C808 1.492 1_455 S
C807 C809 1.557 . S
C807 C810 1.519 1_455 S
C808 H792 0.960 . S
C808 H793 0.962 . S
C808 H794 0.959 1_655 S
C808 C807 1.492 1_655 S
C809 H795 0.986 . S
C809 H796 0.924 1_455 S
C809 H797 0.996 1_455 S
C809 C807 1.557 . S
C810 C807 1.519 1_655 S
C810 C811 1.396 . S
C810 C815 1.390 . S
C811 C805 1.465 1_655 S
C811 C810 1.396 . S
C811 C812 1.399 . S
C812 H798 0.929 . S
C812 C811 1.399 . S
C812 C813 1.385 . S
C813 H799 0.931 . S
C813 C812 1.385 . S
C813 C814 1.389 . S
C814 C813 1.389 . S
C814 C815 1.387 . S
C815 H800 0.930 . S
C815 C810 1.390 . S
C815 C814 1.387 . S
C181 C7 1.083 . S
C193 C147 1.044 . S
C208 C21 1.047 . S
C220 C161 1.106 . S
C235 C91 1.047 . S
C247 C35 1.106 . S
C262 C49 1.081 . S
C274 C105 1.116 . S
C289 C119 1.114 . S
C301 C63 1.089 . S
C316 C133 1.092 . S
C328 C77 1.043 1_554 S
C343 C120 1.341 . S
C355 C8 1.374 . S
C370 C22 1.342 . S
C382 C134 1.361 . S
C397 C148 1.347 . S
C409 C36 1.376 . S
C424 C50 1.355 . S
C436 C162 1.374 . S
C451 C64 1.342 . S
C463 C92 1.363 . S
C478 C78 1.375 . S
C490 C106 1.343 . S
C505 C143 1.632 . S
C517 C3 1.630 . S
C532 C157 1.626 . S
C544 C17 1.630 . S
C559 C87 1.625 1_554 S
C571 C31 1.621 . S
C586 C45 1.620 . S
C598 C101 1.618 . S
C613 C59 1.633 . S
C625 C115 1.631 . S
C640 C129 1.632 . S
C652 C73 1.630 . S
C667 C9 1.293 . S
C679 C107 1.299 . S
C694 C121 1.298 . S
C706 C23 1.304 . S
C721 C135 1.300 . S
C733 C37 1.307 . S
C748 C51 1.346 . S
C760 C149 1.340 . S
C775 C65 1.331 . S
C787 C163 1.337 . S
C802 C79 1.287 . S
C814 C93 1.291 . S
