# Generated by pormake.
# Topology zfw, (5)-cn, num edge types: 1
# Building blocks:
#     Node 0, Type 0, BuildingBlock: XOMCOT_clean_sbu_1, # of connection points: 5
#     Node 1, Type 0, BuildingBlock: XOMCOT_clean_sbu_1, # of connection points: 5
#     Node 2, Type 0, BuildingBlock: XOMCOT_clean_sbu_1, # of connection points: 5
#     Node 3, Type 0, BuildingBlock: XOMCOT_clean_sbu_1, # of connection points: 5
#     Node 4, Type 0, BuildingBlock: XOMCOT_clean_sbu_1, # of connection points: 5
#     Node 5, Type 0, BuildingBlock: XOMCOT_clean_sbu_1, # of connection points: 5
#     Node 6, Type 0, BuildingBlock: XOMCOT_clean_sbu_1, # of connection points: 5
#     Node 7, Type 0, BuildingBlock: XOMCOT_clean_sbu_1, # of connection points: 5
#     Node 8, Type 0, BuildingBlock: XOMCOT_clean_sbu_1, # of connection points: 5
#     Node 9, Type 0, BuildingBlock: XOMCOT_clean_sbu_1, # of connection points: 5
#     Node 10, Type 0, BuildingBlock: XOMCOT_clean_sbu_1, # of connection points: 5
#     Node 11, Type 0, BuildingBlock: XOMCOT_clean_sbu_1, # of connection points: 5
#     Node 12, Type 0, BuildingBlock: XOMCOT_clean_sbu_1, # of connection points: 5
#     Node 13, Type 0, BuildingBlock: XOMCOT_clean_sbu_1, # of connection points: 5
#     Node 14, Type 0, BuildingBlock: XOMCOT_clean_sbu_1, # of connection points: 5
#     Node 15, Type 0, BuildingBlock: XOMCOT_clean_sbu_1, # of connection points: 5
#     Edge 16, Type (0, 0), None
#     Edge 17, Type (0, 0), None
#     Edge 18, Type (0, 0), None
#     Edge 19, Type (0, 0), None
#     Edge 20, Type (0, 0), None
#     Edge 21, Type (0, 0), None
#     Edge 22, Type (0, 0), None
#     Edge 23, Type (0, 0), None
#     Edge 24, Type (0, 0), None
#     Edge 25, Type (0, 0), None
#     Edge 26, Type (0, 0), None
#     Edge 27, Type (0, 0), None
#     Edge 28, Type (0, 0), None
#     Edge 29, Type (0, 0), None
#     Edge 30, Type (0, 0), None
#     Edge 31, Type (0, 0), None
#     Edge 32, Type (0, 0), None
#     Edge 33, Type (0, 0), None
#     Edge 34, Type (0, 0), None
#     Edge 35, Type (0, 0), None
#     Edge 36, Type (0, 0), None
#     Edge 37, Type (0, 0), None
#     Edge 38, Type (0, 0), None
#     Edge 39, Type (0, 0), None
#     Edge 40, Type (0, 0), None
#     Edge 41, Type (0, 0), None
#     Edge 42, Type (0, 0), None
#     Edge 43, Type (0, 0), None
#     Edge 44, Type (0, 0), None
#     Edge 45, Type (0, 0), None
#     Edge 46, Type (0, 0), None
#     Edge 47, Type (0, 0), None
#     Edge 48, Type (0, 0), None
#     Edge 49, Type (0, 0), None
#     Edge 50, Type (0, 0), None
#     Edge 51, Type (0, 0), None
#     Edge 52, Type (0, 0), None
#     Edge 53, Type (0, 0), None
#     Edge 54, Type (0, 0), None
#     Edge 55, Type (0, 0), None
# Relax obj value: 0.283
# Max RMSD: 0.217
# Mean RMSD: 0.205
data_MOF--net-zfw--node1-XOMCOT_clean_sbu_1--edge1-none
_symmetry_space_group_name_H-M    P1
_symmetry_Int_Tables_number       1
_symmetry_cell_setting            triclinic
loop_
_symmetry_equiv_pos_as_xyz
'x, y, z'
_cell_length_a     31.938918
_cell_length_b     32.553018
_cell_length_c     8.9498607
_cell_angle_alpha  90.000828
_cell_angle_beta   90.027425
_cell_angle_gamma 89.99978
loop_
_atom_site_label
_atom_site_type_symbol
_atom_site_fract_x
_atom_site_fract_y
_atom_site_fract_z
_atom_type_partial_charge
C0 C 0.10358 0.06698 0.50588 0.0
C1 C 0.10328 0.07435 0.65754 0.0
N2 N 0.14232 0.0845 0.69943 0.0
N3 N 0.14223 0.07473 0.45069 0.0
C4 C 0.16527 0.08317 0.57444 0.0
H5 H 0.07584 0.06311 0.43806 0.0
Co6 Co 0.15247 0.09843 0.2586 0.0
C7 C 0.24037 0.09427 0.33135 0.0
O8 O 0.27671 0.07559 0.33985 0.0
N9 N 0.16206 0.12086 0.0671 0.0
C10 C 0.13378 0.14511 0.85746 0.0
C11 C 0.14095 0.15279 1.00673 0.0
C12 C 0.17116 0.09643 0.94858 0.0
N13 N 0.1525 0.10946 0.82274 0.0
O14 O 0.13179 0.04799 0.14218 0.0
H15 H 0.12658 0.1773 0.07011 0.0
H16 H 0.1849 0.06616 0.9589 0.0
O17 O 0.20959 0.07635 0.26373 0.0
C18 C 0.09793 0.03404 0.08256 0.0
O19 O 0.06173 0.04255 0.14419 0.0
N20 N 0.09935 0.12645 0.27179 0.0
C21 C 1.03352 0.17851 0.35822 0.0
C22 C 0.07072 0.17677 0.43968 0.0
C23 C 0.10333 0.15222 0.39142 0.0
C24 C 0.06374 0.1285 0.18632 0.0
C25 C 1.03003 0.1541 0.22911 0.0
H26 H 0.13217 0.15332 0.45369 0.0
H27 H 0.06216 0.11302 0.07992 0.0
H28 H 0.19668 0.09413 0.57457 0.0
H29 H 0.07578 0.07707 0.72742 0.0
H30 H 0.11334 0.16229 0.78394 0.0
H31 H 0.07549 0.19606 0.537 0.0
H32 H 1.00278 0.15663 0.15766 0.0
C33 C 0.30077 0.85019 0.76682 0.0
C34 C 0.2927 0.8574 0.91593 0.0
N35 N 0.25774 0.83672 0.95117 0.0
N36 N 0.27055 0.82565 0.70928 0.0
C37 C 0.24589 0.81687 0.82708 0.0
H38 H 0.32302 0.86725 0.7002 0.0
Co39 Co 0.24724 0.83179 0.5191 0.0
C40 C 0.23564 0.90645 0.627 0.0
O41 O 0.20389 0.88429 0.67266 0.0
N42 N 0.22382 0.83962 0.32826 0.0
C43 C 0.19809 0.81967 0.1098 0.0
C44 C 0.19157 0.82004 0.2605 0.0
C45 C 0.24699 0.85464 0.21431 0.0
N46 N 0.23342 0.84068 0.08151 0.0
O47 O 0.30199 0.81311 0.41094 0.0
H48 H 0.16676 0.80315 0.31348 0.0
H49 H 0.27705 0.86932 0.23025 0.0
O50 O 0.26157 0.89034 0.53234 0.0
C51 C 0.30684 0.78952 0.29402 0.0
O52 O 0.27463 0.76931 0.24037 0.0
N53 N 0.22556 0.77825 0.53167 0.0
C54 C 0.17672 0.71228 0.62918 0.0
C55 C 0.1601 0.75183 0.61978 0.0
C56 C 0.18485 0.78398 0.572 0.0
C57 C 0.24371 0.74042 0.54693 0.0
C58 C 0.2193 0.70644 0.59354 0.0
H59 H 0.17186 0.81465 0.57275 0.0
H60 H 0.27694 0.73665 0.52857 0.0
H61 H 0.21633 0.80148 0.81832 0.0
H62 H 0.30851 0.87926 0.9873 0.0
H63 H 0.17984 0.80244 0.02966 0.0
H64 H 0.12788 0.75805 0.65023 0.0
H65 H 0.23338 0.67627 0.60185 0.0
C66 C 0.50788 0.97576 0.99966 0.0
C67 C 0.4992 0.96788 0.14731 0.0
N68 N 0.52102 0.93448 0.18616 0.0
N69 N 0.53455 0.94739 0.94616 0.0
C70 C 0.54338 0.92356 0.06565 0.0
H71 H 0.48841 0.9943 0.92837 0.0
Co72 Co 0.52763 0.92688 0.75397 0.0
C73 C 0.452 0.91026 0.87478 0.0
O74 O 0.47671 0.8815 0.92628 0.0
N75 N 0.5193 0.90492 0.56337 0.0
C76 C 0.53491 0.87543 0.347 0.0
C77 C 0.53638 0.87122 0.49904 0.0
C78 C 0.50334 0.92651 0.4486 0.0
N79 N 0.51542 0.91103 0.31648 0.0
O80 O 0.53919 0.9854 0.65801 0.0
H81 H 0.55253 0.84668 0.55558 0.0
H82 H 0.4887 0.95624 0.46153 0.0
O83 O 0.46664 0.93568 0.77667 0.0
C84 C 0.5565 0.99887 0.53484 0.0
O85 O 0.57671 0.97309 0.44825 0.0
N86 N 0.58419 0.91029 0.75369 0.0
C87 C 0.65448 0.86317 0.83375 0.0
C88 C 0.61374 0.84781 0.84719 0.0
C89 C 0.57986 0.87114 0.80402 0.0
C90 C 0.62312 0.92769 0.74524 0.0
C91 C 0.65919 0.90411 0.78294 0.0
H92 H 0.54885 0.8584 0.81824 0.0
H93 H 0.62642 0.95957 0.71355 0.0
H94 H 0.56031 0.89509 0.05995 0.0
H95 H 0.4748 0.98198 0.21365 0.0
H96 H 0.55033 0.85571 0.26686 0.0
H97 H 0.60756 0.81752 0.89229 0.0
H98 H 0.69003 0.9176 0.77287 0.0
C99 C 0.37012 0.25588 0.26975 0.0
C100 C 0.37619 0.25706 0.42168 0.0
N101 N 0.39963 0.22429 0.4606 0.0
N102 N 0.39115 0.22344 0.21404 0.0
C103 C 0.40887 0.20533 0.33362 0.0
H104 H 0.3562 0.27995 0.20285 0.0
Co105 Co 0.41254 0.21859 0.02533 0.0
C106 C 0.40921 0.13016 0.08623 0.0
O107 O 0.38908 0.09502 0.08788 0.0
N108 N 0.43506 0.21407 0.83331 0.0
C109 C 0.45822 0.24243 0.62269 0.0
C110 C 0.46541 0.23805 0.77344 0.0
C111 C 0.41241 0.20103 0.71517 0.0
N112 N 0.42428 0.22001 0.58926 0.0
O113 O 0.35686 0.23665 0.92914 0.0
H114 H 0.48801 0.25563 0.83649 0.0
H115 H 0.38342 0.18402 0.72514 0.0
O116 O 0.39259 0.16135 0.01964 0.0
C117 C 0.34782 0.2577 0.81068 0.0
O118 O 0.37621 0.28189 0.75275 0.0
N119 N 0.43666 0.27209 0.05134 0.0
C120 C 0.49099 0.33406 0.15545 0.0
C121 C 0.49645 0.29285 0.19521 0.0
C122 C 0.47046 0.26289 0.13781 0.0
C123 C 0.42742 0.31251 0.02296 0.0
C124 C 0.45511 0.34413 0.07074 0.0
H125 H 0.47708 0.23155 0.16608 0.0
H126 H 0.39901 0.32085 0.96567 0.0
H127 H 0.43434 0.18427 0.32928 0.0
H128 H 0.36793 0.28258 0.49198 0.0
H129 H 0.47394 0.26329 0.54705 0.0
H130 H 0.52212 0.28315 0.26621 0.0
H131 H 0.44891 0.3757 0.03983 0.0
C132 C 0.10364 0.97546 0.51808 0.0
C133 C 0.10335 0.96809 0.36642 0.0
N134 N 0.1424 0.95797 0.32467 0.0
N135 N 0.1423 0.96773 0.57342 0.0
C136 C 0.16534 0.95931 0.44974 0.0
H137 H 0.07589 0.97931 0.58579 0.0
Co138 Co 0.15255 0.94404 0.76555 0.0
C139 C 0.24045 0.9482 0.69302 0.0
O140 O 0.27678 0.96688 0.68461 0.0
N141 N 0.16216 0.92162 0.95708 0.0
C142 C 0.1339 0.89735 0.16663 0.0
C143 C 0.14108 0.88967 0.01739 0.0
C144 C 0.17124 0.94606 0.07562 0.0
N145 N 0.1526 0.93301 0.20141 0.0
O146 O 0.13184 0.99448 0.8819 0.0
H147 H 0.12672 0.86515 0.95397 0.0
H148 H 0.18496 0.97633 0.06534 0.0
O149 O 0.20967 0.96613 0.76056 0.0
C150 C 0.09796 1.00841 0.9413 0.0
O151 O 0.06178 0.99988 0.8794 0.0
N152 N 0.09945 0.916 0.75223 0.0
C153 C 1.03363 0.86393 0.66566 0.0
C154 C 0.07081 0.86568 0.58428 0.0
C155 C 0.10342 0.89024 0.63261 0.0
C156 C 0.06385 0.91395 0.83763 0.0
C157 C 1.03014 0.88834 0.79478 0.0
H158 H 0.13226 0.88915 0.5704 0.0
H159 H 0.06228 0.92942 0.94403 0.0
H160 H 0.19677 0.94838 0.44973 0.0
H161 H 0.07585 0.96536 0.29643 0.0
H162 H 0.11348 0.88015 0.24009 0.0
H163 H 0.07558 0.8464 0.48696 0.0
H164 H 1.0029 0.8858 0.86617 0.0
C165 C 0.37026 0.78666 0.7548 0.0
C166 C 0.37635 0.78548 0.60289 0.0
N167 N 0.39975 0.81827 0.56402 0.0
N168 N 0.39126 0.81914 0.81056 0.0
C169 C 0.40895 0.83726 0.69102 0.0
H170 H 0.35637 0.76258 0.82166 0.0
Co171 Co 0.41266 0.82399 0.99936 0.0
C172 C 0.40929 0.91243 0.93847 0.0
O173 O 0.38914 0.94756 0.93679 0.0
N174 N 0.43519 0.82851 0.19145 0.0
C175 C 0.45834 0.80013 0.40214 0.0
C176 C 0.46553 0.80452 0.25141 0.0
C177 C 0.41254 0.84154 0.30952 0.0
N178 N 0.42441 0.82256 0.43547 0.0
O179 O 0.35699 0.80591 0.09543 0.0
H180 H 0.48813 0.78693 0.18843 0.0
H181 H 0.38354 0.85855 0.29946 0.0
O182 O 0.39269 0.88123 1.005 0.0
C183 C 0.34796 0.78485 0.21386 0.0
O184 O 0.37635 0.76065 0.27179 0.0
N185 N 0.4368 0.77049 0.97336 0.0
C186 C 0.49112 0.70859 0.86881 0.0
C187 C 0.49656 0.74982 0.82931 0.0
C188 C 0.47057 0.77975 0.88694 0.0
C189 C 0.42761 0.73006 1.00158 0.0
C190 C 0.45529 0.69847 0.95358 0.0
H191 H 0.47717 0.8111 0.85881 0.0
H192 H 0.39923 0.72169 0.05889 0.0
H193 H 0.43439 0.85836 0.69544 0.0
H194 H 0.36813 0.75994 0.53259 0.0
H195 H 0.47405 0.77926 0.47782 0.0
H196 H 0.52217 0.75956 0.75825 0.0
H197 H 0.44912 0.66689 0.98431 0.0
C198 C 0.50774 0.06691 0.02494 0.0
C199 C 0.49906 0.0748 0.87728 0.0
N200 N 0.52091 0.10818 0.83852 0.0
N201 N 0.53445 0.09524 0.07855 0.0
C202 C 0.54329 0.11908 0.9591 0.0
H203 H 0.48826 0.04836 0.09614 0.0
Co204 Co 0.52758 0.11576 0.27073 0.0
C205 C 0.45193 0.13236 0.14999 0.0
O206 O 0.47662 0.16113 0.09851 0.0
N207 N 0.5193 0.13774 0.46131 0.0
C208 C 0.53487 0.16721 0.67776 0.0
C209 C 0.53639 0.17142 0.52574 0.0
C210 C 0.5033 0.11615 0.57598 0.0
N211 N 0.51536 0.13163 0.70817 0.0
O212 O 0.53918 0.05726 0.36673 0.0
H213 H 0.55257 0.19595 0.4693 0.0
H214 H 0.48865 0.08643 0.56297 0.0
O215 O 0.46659 0.10694 0.24809 0.0
C216 C 0.55649 0.0438 0.48997 0.0
O217 O 0.57669 0.06959 0.57664 0.0
N218 N 0.58414 0.13238 0.27094 0.0
C219 C 0.65436 0.17949 0.19029 0.0
C220 C 0.61361 0.19487 0.17728 0.0
C221 C 0.57976 0.17155 0.22074 0.0
C222 C 0.62307 0.11498 0.27903 0.0
C223 C 0.65911 0.13855 0.24102 0.0
H224 H 0.54874 0.18429 0.20671 0.0
H225 H 0.62639 0.08308 0.31058 0.0
H226 H 0.56026 0.14752 0.96485 0.0
H227 H 0.47466 0.06072 0.81084 0.0
H228 H 0.55029 0.18693 0.75799 0.0
H229 H 0.60739 0.22515 0.1322 0.0
H230 H 0.68996 0.12505 0.25076 0.0
C231 C 0.30068 0.19229 0.25766 0.0
C232 C 0.29262 0.18508 0.10852 0.0
N233 N 0.25764 0.20574 0.07317 0.0
N234 N 0.27045 0.21682 0.3151 0.0
C235 C 0.24578 0.22558 0.19722 0.0
H236 H 0.32295 0.17525 0.32436 0.0
Co237 Co 0.24715 0.21068 0.5052 0.0
C238 C 0.23557 0.13602 0.39735 0.0
O239 O 0.2038 0.15817 0.35164 0.0
N240 N 0.22373 0.20283 0.69596 0.0
C241 C 0.19799 0.22276 0.91433 0.0
C242 C 0.19146 0.22239 0.76361 0.0
C243 C 0.2469 0.18783 0.80998 0.0
N244 N 0.23333 0.20177 0.94275 0.0
O245 O 0.30187 0.22938 0.61351 0.0
H246 H 0.16665 0.23927 0.71056 0.0
H247 H 0.27697 0.17316 0.79415 0.0
O248 O 0.2615 0.15214 0.49205 0.0
C249 C 0.3067 0.25298 0.73041 0.0
O250 O 0.27448 0.27317 0.78394 0.0
N251 N 0.22545 0.2642 0.49255 0.0
C252 C 0.17661 0.33016 0.39487 0.0
C253 C 0.15998 0.29061 0.40425 0.0
C254 C 0.18474 0.25847 0.45211 0.0
C255 C 0.2436 0.30203 0.47729 0.0
C256 C 0.21919 0.33601 0.4306 0.0
H257 H 0.17174 0.2278 0.45134 0.0
H258 H 0.27684 0.3058 0.49572 0.0
H259 H 0.21621 0.24095 0.20589 0.0
H260 H 0.30844 0.16324 0.0372 0.0
H261 H 0.17972 0.23998 0.99442 0.0
H262 H 0.12776 0.28439 0.37371 0.0
H263 H 0.23327 0.36617 0.4223 0.0
C264 C 0.87991 0.35019 0.2571 0.0
C265 C 0.88798 0.3574 0.10799 0.0
N266 N 0.92294 0.33672 0.07274 0.0
N267 N 0.91013 0.32565 0.31463 0.0
C268 C 0.93479 0.31687 0.19683 0.0
H269 H 0.85766 0.36725 0.32372 0.0
Co270 Co 0.93344 0.33179 0.50481 0.0
C271 C 0.94504 0.40645 0.39692 0.0
O272 O 0.97679 0.38429 0.35126 0.0
N273 N 0.95686 0.33962 0.69566 0.0
C274 C 0.98259 0.31967 0.91411 0.0
C275 C 0.98911 0.32005 0.76341 0.0
C276 C 0.9337 0.35464 0.8096 0.0
N277 N 0.94726 0.34069 0.94241 0.0
O278 O 0.87869 0.31312 0.61297 0.0
H279 H 1.01392 0.30315 0.71043 0.0
H280 H 0.90363 0.36932 0.79367 0.0
O281 O 0.91912 0.39034 0.49157 0.0
C282 C 0.87385 0.28953 0.72989 0.0
O283 O 0.90605 0.26931 0.78354 0.0
N284 N 0.95512 0.27826 0.49224 0.0
C285 C 1.00396 0.21228 0.39477 0.0
C286 C 1.02058 0.25183 0.40415 0.0
C287 C 0.99583 0.28397 0.45192 0.0
C288 C 0.93697 0.24042 0.47698 0.0
C289 C 0.96137 0.20644 0.43039 0.0
H290 H 1.00882 0.31465 0.45116 0.0
H291 H 0.90374 0.23665 0.49534 0.0
H292 H 0.96435 0.30148 0.20559 0.0
H293 H 0.87217 0.37926 0.03662 0.0
H294 H 1.00085 0.30245 0.99425 0.0
H295 H 0.0528 0.25805 0.3737 0.0
H296 H 0.94729 0.17627 0.42208 0.0
C297 C 0.81056 0.75588 0.7542 0.0
C298 C 0.80449 0.75706 0.60227 0.0
N299 N 0.78105 0.72429 0.56334 0.0
N300 N 0.78953 0.72344 0.80991 0.0
C301 C 0.77182 0.70533 0.69032 0.0
H302 H 0.82449 0.77995 0.8211 0.0
Co303 Co 0.76814 0.71859 0.99861 0.0
C304 C 0.77148 0.63016 0.9377 0.0
O305 O 0.7916 0.59502 0.93604 0.0
N306 N 0.74562 0.71407 0.19063 0.0
C307 C 0.72246 0.74243 0.40126 0.0
C308 C 0.71527 0.73805 0.2505 0.0
C309 C 0.76827 0.70103 0.30876 0.0
N310 N 0.7564 0.72001 0.43468 0.0
O311 O 0.82382 0.73665 0.09481 0.0
H312 H 0.69267 0.75563 0.18746 0.0
H313 H 0.79727 0.68402 0.2988 0.0
O314 O 0.7881 0.66135 1.0043 0.0
C315 C 0.83286 0.7577 0.21326 0.0
O316 O 0.80448 0.78189 0.27119 0.0
N317 N 0.74402 0.77209 0.97261 0.0
C318 C 0.68969 0.83406 0.86854 0.0
C319 C 0.68422 0.79284 0.82876 0.0
C320 C 0.71023 0.76288 0.88615 0.0
C321 C 0.75326 0.81251 1.00098 0.0
C322 C 0.72557 0.84413 0.95322 0.0
H323 H 0.7036 0.73155 0.85787 0.0
H324 H 0.78167 0.82085 0.05826 0.0
H325 H 0.74634 0.68427 0.69466 0.0
H326 H 0.81275 0.78258 0.53197 0.0
H327 H 0.70674 0.76329 0.4769 0.0
H328 H 0.65856 0.78315 0.75776 0.0
H329 H 0.73177 0.8757 0.98412 0.0
C330 C 0.81042 0.28667 0.26911 0.0
C331 C 0.80433 0.28548 0.42101 0.0
N332 N 0.78093 0.31827 0.45989 0.0
N333 N 0.78943 0.31914 0.21335 0.0
C334 C 0.77173 0.33726 0.33289 0.0
H335 H 0.82431 0.26259 0.20224 0.0
Co336 Co 0.76803 0.32399 0.02456 0.0
C337 C 0.77139 0.41243 0.08545 0.0
O338 O 0.79154 0.44756 0.08713 0.0
N339 N 0.7455 0.32851 0.83247 0.0
C340 C 0.72234 0.30013 0.62177 0.0
C341 C 0.71515 0.30452 0.7725 0.0
C342 C 0.76815 0.34154 0.7144 0.0
N343 N 0.75627 0.32256 0.58844 0.0
O344 O 0.8237 0.30591 0.92848 0.0
H345 H 0.69256 0.28693 0.83548 0.0
H346 H 0.79714 0.35855 0.72446 0.0
O347 O 0.78799 0.38123 0.01891 0.0
C348 C 0.83272 0.28485 0.81005 0.0
O349 O 0.80433 0.26065 0.75212 0.0
N350 N 0.74388 0.27049 0.05055 0.0
C351 C 0.68955 0.20859 0.15506 0.0
C352 C 0.68412 0.24983 0.19458 0.0
C353 C 0.71011 0.27975 0.13696 0.0
C354 C 0.75308 0.23006 0.02233 0.0
C355 C 0.72539 0.19847 0.07032 0.0
H356 H 0.70351 0.3111 0.1651 0.0
H357 H 0.78146 0.22169 0.96503 0.0
H358 H 0.7463 0.35836 0.32848 0.0
H359 H 0.81255 0.25994 0.49131 0.0
H360 H 0.70663 0.27927 0.54609 0.0
H361 H 0.65851 0.25957 0.26564 0.0
H362 H 0.73157 0.16689 0.0396 0.0
C363 C 0.88 0.69229 0.76627 0.0
C364 C 0.88807 0.68508 0.91542 0.0
N365 N 0.92304 0.70574 0.95077 0.0
N366 N 0.91023 0.71682 0.70884 0.0
C367 C 0.9349 0.72558 0.82672 0.0
H368 H 0.85774 0.67525 0.69958 0.0
Co369 Co 0.93354 0.71068 0.51874 0.0
C370 C 0.94512 0.63602 0.62659 0.0
O371 O 0.97688 0.65817 0.6723 0.0
N372 N 0.95695 0.70283 0.32797 0.0
C373 C 0.9827 0.72276 0.10961 0.0
C374 C 0.98922 0.72239 0.26033 0.0
C375 C 0.93378 0.68783 0.21395 0.0
N376 N 0.94736 0.70177 0.08119 0.0
O377 O 0.87881 0.72938 0.41044 0.0
H378 H 1.01403 0.73927 0.31339 0.0
H379 H 0.90371 0.67316 0.22979 0.0
O380 O 0.91919 0.65214 0.53189 0.0
C381 C 0.87398 0.75298 0.29354 0.0
O382 O 0.9062 0.77317 0.24 0.0
N383 N 0.95523 0.7642 0.53139 0.0
C384 C 1.00407 0.83016 0.62904 0.0
C385 C 1.0207 0.79062 0.61968 0.0
C386 C 0.99594 0.75847 0.57183 0.0
C387 C 0.93708 0.80203 0.54665 0.0
C388 C 0.96148 0.83601 0.59332 0.0
H389 H 1.00894 0.7278 0.57261 0.0
H390 H 0.90384 0.80579 0.52823 0.0
H391 H 0.96447 0.74095 0.81805 0.0
H392 H 0.87225 0.66324 0.98673 0.0
H393 H 1.00096 0.73998 0.02953 0.0
H394 H 0.05292 0.7844 0.65021 0.0
H395 H 0.9474 0.86617 0.60162 0.0
C396 C 0.67295 0.56691 0.99899 0.0
C397 C 0.68163 0.5748 0.14666 0.0
N398 N 0.65977 0.60818 0.18542 0.0
N399 N 0.64624 0.59524 0.94538 0.0
C400 C 0.63739 0.61908 0.06483 0.0
H401 H 0.69242 0.54836 0.92779 0.0
Co402 Co 0.6531 0.61576 0.7532 0.0
C403 C 0.72876 0.63236 0.87395 0.0
O404 O 0.70407 0.66113 0.92544 0.0
N405 N 0.66139 0.63774 0.56263 0.0
C406 C 0.64581 0.66721 0.34618 0.0
C407 C 0.64429 0.67142 0.49821 0.0
C408 C 0.67738 0.61616 0.44796 0.0
N409 N 0.66532 0.63163 0.31577 0.0
O410 O 0.6415 0.55726 0.6572 0.0
H411 H 0.62811 0.69595 0.55465 0.0
H412 H 0.69203 0.58643 0.46096 0.0
O413 O 0.71409 0.60694 0.77584 0.0
C414 C 0.6242 0.5438 0.53396 0.0
O415 O 0.604 0.56959 0.44729 0.0
N416 N 0.59655 0.63238 0.75299 0.0
C417 C 0.52632 0.67949 0.8336 0.0
C418 C 0.56707 0.69486 0.84664 0.0
C419 C 0.60092 0.67154 0.8032 0.0
C420 C 0.55761 0.61497 0.74489 0.0
C421 C 0.52157 0.63855 0.78287 0.0
H422 H 0.63194 0.68429 0.81724 0.0
H423 H 0.5543 0.58308 0.71333 0.0
H424 H 0.62042 0.64752 0.05909 0.0
H425 H 0.70603 0.56072 0.21309 0.0
H426 H 0.63039 0.68693 0.26595 0.0
H427 H 0.57329 0.72515 0.89172 0.0
H428 H 0.49073 0.62504 0.77312 0.0
C429 C 0.07705 0.47546 0.50584 0.0
C430 C 0.07733 0.46809 0.65751 0.0
N431 N 0.03829 0.45797 0.69925 0.0
N432 N 0.03839 0.46773 0.45051 0.0
C433 C 1.01534 0.45931 0.57418 0.0
H434 H 0.10479 0.47931 0.43813 0.0
Co435 Co 1.02813 0.44404 0.25837 0.0
C436 C 0.94024 0.4482 0.3309 0.0
O437 O 0.9039 0.46688 0.33931 0.0
N438 N 1.01852 0.42162 0.06684 0.0
C439 C 0.04679 0.39735 0.85729 0.0
C440 C 0.03961 0.38967 1.00652 0.0
C441 C 1.00944 0.44606 0.9483 0.0
N442 N 1.02809 0.43301 0.82251 0.0
O443 O 0.04885 0.49448 0.14203 0.0
H444 H 0.05396 0.36515 0.06994 0.0
H445 H 0.99572 0.47633 0.95858 0.0
O446 O 0.97102 0.46613 0.26336 0.0
C447 C 0.08272 0.50841 0.08263 0.0
O448 O 0.11891 0.49988 0.14453 0.0
N449 N 0.08124 0.416 0.27169 0.0
C450 C 0.14705 0.36392 0.35824 0.0
C451 C 0.10987 0.36568 0.43964 0.0
C452 C 0.07726 0.39023 0.39131 0.0
C453 C 0.11684 0.41395 0.18629 0.0
C454 C 0.15054 0.38834 0.22914 0.0
H455 H 0.04843 0.38915 0.45352 0.0
H456 H 0.11841 0.42942 0.0799 0.0
H457 H 0.98392 0.44838 0.5742 0.0
H458 H 0.10483 0.46536 0.72749 0.0
H459 H 0.06721 0.38015 0.78382 0.0
H460 H 0.1051 0.34639 0.53695 0.0
H461 H 0.17778 0.38579 0.15777 0.0
C462 C 0.6728 0.47576 0.02426 0.0
C463 C 0.68148 0.46788 0.87661 0.0
N464 N 0.65966 0.43448 0.83776 0.0
N465 N 0.64613 0.44739 0.07777 0.0
C466 C 0.6373 0.42356 0.95828 0.0
H467 H 0.69227 0.4943 0.09556 0.0
Co468 Co 0.65305 0.42688 0.26996 0.0
C469 C 0.72868 0.41026 0.14913 0.0
O470 O 0.70397 0.3815 0.09763 0.0
N471 N 0.66138 0.40492 0.46055 0.0
C472 C 0.64578 0.37543 0.67692 0.0
C473 C 0.6443 0.37122 0.52488 0.0
C474 C 0.67734 0.42651 0.57532 0.0
N475 N 0.66526 0.41103 0.70744 0.0
O476 O 0.64149 0.4854 0.36592 0.0
H477 H 0.62815 0.34668 0.46833 0.0
H478 H 0.69198 0.45624 0.56239 0.0
O479 O 0.71404 0.43568 0.24725 0.0
C480 C 0.62418 0.49887 0.48908 0.0
O481 O 0.60397 0.4731 0.57568 0.0
N482 N 0.59649 0.41029 0.27024 0.0
C483 C 0.5262 0.36317 0.19022 0.0
C484 C 0.56694 0.34781 0.17675 0.0
C485 C 0.60082 0.37114 0.2199 0.0
C486 C 0.55756 0.42769 0.27871 0.0
C487 C 0.52149 0.40411 0.24102 0.0
H488 H 0.63183 0.3584 0.20566 0.0
H489 H 0.55426 0.45958 0.31039 0.0
H490 H 0.62037 0.39509 0.96398 0.0
H491 H 0.70588 0.48198 0.81028 0.0
H492 H 0.63035 0.35571 0.75705 0.0
H493 H 0.57312 0.31752 0.13165 0.0
H494 H 0.49065 0.4176 0.2511 0.0
C495 C 0.07711 0.56698 0.51805 0.0
C496 C 0.07741 0.57436 0.36639 0.0
N497 N 0.03837 0.5845 0.3245 0.0
N498 N 0.03845 0.57473 0.57324 0.0
C499 C 1.01542 0.58317 0.44949 0.0
H500 H 0.10485 0.56311 0.58587 0.0
Co501 Co 1.02822 0.59843 0.76533 0.0
C502 C 0.94032 0.59427 0.69258 0.0
O503 O 0.90398 0.5756 0.68408 0.0
N504 N 1.01862 0.62086 0.95683 0.0
C505 C 0.04691 0.64511 0.16647 0.0
C506 C 0.03973 0.65279 0.01721 0.0
C507 C 1.00953 0.59643 0.07536 0.0
N508 N 1.02818 0.60946 0.2012 0.0
O509 O 0.0489 0.54799 0.88175 0.0
H510 H 0.0541 0.6773 0.95384 0.0
H511 H 0.99579 0.56616 0.06503 0.0
O512 O 0.9711 0.57635 0.76021 0.0
C513 C 0.08275 0.53404 0.94138 0.0
O514 O 0.11896 0.54255 0.87975 0.0
N515 N 0.08134 0.62645 0.75214 0.0
C516 C 0.14715 0.67852 0.66573 0.0
C517 C 0.10996 0.67677 0.58426 0.0
C518 C 0.07735 0.65222 0.63251 0.0
C519 C 0.11695 0.6285 0.83761 0.0
C520 C 0.15066 0.6541 0.79483 0.0
H521 H 0.04852 0.65332 0.57025 0.0
H522 H 0.11853 0.61302 0.944 0.0
H523 H 0.984 0.59413 0.44937 0.0
H524 H 0.10491 0.57707 0.29651 0.0
H525 H 0.06735 0.66229 0.24 0.0
H526 H 0.10519 0.69606 0.48695 0.0
H527 H 0.17791 0.65664 0.86627 0.0
loop_
_geom_bond_atom_site_label_1
_geom_bond_atom_site_label_2
_geom_bond_distance
_geom_bond_site_symmetry_2
_ccdc_geom_bond_type
C0 C1 1.351 . S
C0 N3 1.368 . S
C0 H5 0.931 1_545 S
C1 C0 1.351 . S
C1 N2 1.373 . S
C1 H29 0.930 1_545 S
N2 C1 1.373 . S
N2 C4 1.340 . S
N3 C0 1.368 . S
N3 C4 1.321 . S
N3 Co6 2.135 . S
C4 N2 1.340 . S
C4 N3 1.321 . S
C4 H28 0.930 . S
H5 C0 0.931 1_565 S
Co6 N3 2.135 . S
Co6 N9 2.121 . S
Co6 O14 2.055 . S
Co6 O17 2.039 . S
Co6 N20 2.140 . S
C7 O8 1.227 . S
C7 O17 1.265 . S
O8 C7 1.227 . S
N9 Co6 2.121 . S
N9 C11 1.375 . S
N9 C12 1.313 1_554 S
C10 C11 1.338 1_556 S
C10 N13 1.377 . S
C10 H30 0.930 . S
C11 N9 1.375 . S
C11 C10 1.338 1_554 S
C11 H15 0.931 . S
C12 N9 1.313 1_556 S
C12 N13 1.344 . S
C12 H16 0.930 . S
N13 C10 1.377 . S
N13 C12 1.344 . S
O14 Co6 2.055 . S
O14 C18 1.253 1_545 S
H15 C11 0.931 . S
H16 C12 0.930 . S
O17 Co6 2.039 . S
O17 C7 1.265 . S
C18 O14 1.253 1_565 S
C18 O19 1.227 1_565 S
O19 C18 1.227 1_545 S
N20 Co6 2.140 . S
N20 C23 1.346 . S
N20 C24 1.345 . S
C21 C22 1.387 1_655 S
C21 C25 1.391 . S
C22 C21 1.387 1_455 S
C22 C23 1.369 . S
C22 H31 0.929 . S
C23 N20 1.346 . S
C23 C22 1.369 . S
C23 H26 0.928 . S
C24 N20 1.345 . S
C24 C25 1.371 1_455 S
C24 H27 0.931 . S
C25 C21 1.391 . S
C25 C24 1.371 1_655 S
C25 H32 0.930 . S
H26 C23 0.928 . S
H27 C24 0.931 . S
H28 C4 0.930 . S
H29 C1 0.930 1_565 S
H30 C10 0.930 . S
H31 C22 0.929 . S
H32 C25 0.930 . S
C33 C34 1.351 . S
C33 N36 1.368 . S
C33 H38 0.931 . S
C34 C33 1.351 . S
C34 N35 1.373 . S
C34 H62 0.930 . S
N35 C34 1.373 . S
N35 C37 1.340 . S
N36 C33 1.368 . S
N36 C37 1.321 . S
N36 Co39 2.135 . S
C37 N35 1.340 . S
C37 N36 1.321 . S
C37 H61 0.930 . S
H38 C33 0.931 . S
Co39 N36 2.135 . S
Co39 N42 2.121 . S
Co39 O47 2.055 . S
Co39 O50 2.039 . S
Co39 N53 2.140 . S
C40 O41 1.227 . S
C40 O50 1.265 . S
O41 C40 1.227 . S
N42 Co39 2.121 . S
N42 C44 1.375 . S
N42 C45 1.313 . S
C43 C44 1.338 . S
C43 N46 1.377 . S
C43 H63 0.930 . S
C44 N42 1.375 . S
C44 C43 1.338 . S
C44 H48 0.931 . S
C45 N42 1.313 . S
C45 N46 1.344 . S
C45 H49 0.930 . S
N46 C43 1.377 . S
N46 C45 1.344 . S
O47 Co39 2.055 . S
O47 C51 1.253 . S
H48 C44 0.931 . S
H49 C45 0.930 . S
O50 Co39 2.039 . S
O50 C40 1.265 . S
C51 O47 1.253 . S
C51 O52 1.227 . S
O52 C51 1.227 . S
N53 Co39 2.140 . S
N53 C56 1.346 . S
N53 C57 1.345 . S
C54 C55 1.387 . S
C54 C58 1.391 . S
C55 C54 1.387 . S
C55 C56 1.369 . S
C55 H64 0.929 . S
C56 N53 1.346 . S
C56 C55 1.369 . S
C56 H59 0.928 . S
C57 N53 1.345 . S
C57 C58 1.371 . S
C57 H60 0.931 . S
C58 C54 1.391 . S
C58 C57 1.371 . S
C58 H65 0.930 . S
H59 C56 0.928 . S
H60 C57 0.931 . S
H61 C37 0.930 . S
H62 C34 0.930 . S
H63 C43 0.930 . S
H64 C55 0.929 . S
H65 C58 0.930 . S
C66 C67 1.351 . S
C66 N69 1.368 1_554 S
C66 H71 0.931 1_564 S
C67 C66 1.351 . S
C67 N68 1.373 . S
C67 H95 0.930 1_565 S
N68 C67 1.373 . S
N68 C70 1.340 . S
N69 C66 1.368 1_556 S
N69 C70 1.321 1_556 S
N69 Co72 2.135 . S
C70 N68 1.340 . S
C70 N69 1.321 1_554 S
C70 H94 0.930 . S
H71 C66 0.931 1_546 S
Co72 N69 2.135 . S
Co72 N75 2.121 . S
Co72 O80 2.055 . S
Co72 O83 2.039 . S
Co72 N86 2.140 . S
C73 O74 1.227 . S
C73 O83 1.265 . S
O74 C73 1.227 . S
N75 Co72 2.121 . S
N75 C77 1.375 . S
N75 C78 1.313 . S
C76 C77 1.338 . S
C76 N79 1.377 . S
C76 H96 0.930 . S
C77 N75 1.375 . S
C77 C76 1.338 . S
C77 H81 0.931 . S
C78 N75 1.313 . S
C78 N79 1.344 . S
C78 H82 0.930 . S
N79 C76 1.377 . S
N79 C78 1.344 . S
O80 Co72 2.055 . S
O80 C84 1.253 1_565 S
H81 C77 0.931 . S
H82 C78 0.930 . S
O83 Co72 2.039 . S
O83 C73 1.265 . S
C84 O80 1.253 1_545 S
C84 O85 1.227 1_545 S
O85 C84 1.227 1_565 S
N86 Co72 2.140 . S
N86 C89 1.346 . S
N86 C90 1.345 . S
C87 C88 1.387 . S
C87 C91 1.391 . S
C88 C87 1.387 . S
C88 C89 1.369 . S
C88 H97 0.929 1_556 S
C89 N86 1.346 . S
C89 C88 1.369 . S
C89 H92 0.928 1_556 S
C90 N86 1.345 . S
C90 C91 1.371 . S
C90 H93 0.931 . S
C91 C87 1.391 . S
C91 C90 1.371 . S
C91 H98 0.930 . S
H92 C89 0.928 1_554 S
H93 C90 0.931 . S
H94 C70 0.930 . S
H95 C67 0.930 1_545 S
H96 C76 0.930 . S
H97 C88 0.929 1_554 S
H98 C91 0.930 . S
C99 C100 1.351 . S
C99 N102 1.368 . S
C99 H104 0.931 . S
C100 C99 1.351 . S
C100 N101 1.373 . S
C100 H128 0.930 . S
N101 C100 1.373 . S
N101 C103 1.340 . S
N102 C99 1.368 . S
N102 C103 1.321 . S
N102 Co105 2.135 1_554 S
C103 N101 1.340 . S
C103 N102 1.321 . S
C103 H127 0.930 . S
H104 C99 0.931 . S
Co105 N102 2.135 1_556 S
Co105 N108 2.121 . S
Co105 O113 2.055 . S
Co105 O116 2.039 1_556 S
Co105 N119 2.140 1_556 S
C106 O107 1.227 . S
C106 O116 1.265 . S
O107 C106 1.227 . S
N108 Co105 2.121 . S
N108 C110 1.375 . S
N108 C111 1.313 . S
C109 C110 1.338 . S
C109 N112 1.377 . S
C109 H129 0.930 . S
C110 N108 1.375 . S
C110 C109 1.338 . S
C110 H114 0.931 . S
C111 N108 1.313 . S
C111 N112 1.344 . S
C111 H115 0.930 . S
N112 C109 1.377 . S
N112 C111 1.344 . S
O113 Co105 2.055 . S
O113 C117 1.253 . S
H114 C110 0.931 . S
H115 C111 0.930 . S
O116 Co105 2.039 1_554 S
O116 C106 1.265 . S
C117 O113 1.253 . S
C117 O118 1.227 . S
O118 C117 1.227 . S
N119 Co105 2.140 1_554 S
N119 C122 1.346 . S
N119 C123 1.345 1_554 S
C120 C121 1.387 . S
C120 C124 1.391 1_554 S
C121 C120 1.387 . S
C121 C122 1.369 . S
C121 H130 0.929 . S
C122 N119 1.346 . S
C122 C121 1.369 . S
C122 H125 0.928 . S
C123 N119 1.345 1_556 S
C123 C124 1.371 . S
C123 H126 0.931 . S
C124 C120 1.391 1_556 S
C124 C123 1.371 . S
C124 H131 0.930 . S
H125 C122 0.928 . S
H126 C123 0.931 . S
H127 C103 0.930 . S
H128 C100 0.930 . S
H129 C109 0.930 . S
H130 C121 0.929 . S
H131 C124 0.930 . S
C132 C133 1.351 . S
C132 N135 1.368 . S
C132 H137 0.931 1_565 S
C133 C132 1.351 . S
C133 N134 1.373 . S
C133 H161 0.930 1_565 S
N134 C133 1.373 . S
N134 C136 1.340 . S
N135 C132 1.368 . S
N135 C136 1.321 . S
N135 Co138 2.135 . S
C136 N134 1.340 . S
C136 N135 1.321 . S
C136 H160 0.930 . S
H137 C132 0.931 1_545 S
Co138 N135 2.135 . S
Co138 N141 2.121 . S
Co138 O146 2.055 . S
Co138 O149 2.039 . S
Co138 N152 2.140 . S
C139 O140 1.227 . S
C139 O149 1.265 . S
O140 C139 1.227 . S
N141 Co138 2.121 . S
N141 C143 1.375 . S
N141 C144 1.313 1_556 S
C142 C143 1.338 1_554 S
C142 N145 1.377 . S
C142 H162 0.930 . S
C143 N141 1.375 . S
C143 C142 1.338 1_556 S
C143 H147 0.931 . S
C144 N141 1.313 1_554 S
C144 N145 1.344 . S
C144 H148 0.930 . S
N145 C142 1.377 . S
N145 C144 1.344 . S
O146 Co138 2.055 . S
O146 C150 1.253 1_565 S
H147 C143 0.931 . S
H148 C144 0.930 . S
O149 Co138 2.039 . S
O149 C139 1.265 . S
C150 O146 1.253 1_545 S
C150 O151 1.227 1_545 S
O151 C150 1.227 1_565 S
N152 Co138 2.140 . S
N152 C155 1.346 . S
N152 C156 1.345 . S
C153 C154 1.387 1_655 S
C153 C157 1.391 . S
C154 C153 1.387 1_455 S
C154 C155 1.369 . S
C154 H163 0.929 . S
C155 N152 1.346 . S
C155 C154 1.369 . S
C155 H158 0.928 . S
C156 N152 1.345 . S
C156 C157 1.371 1_455 S
C156 H159 0.931 . S
C157 C153 1.391 . S
C157 C156 1.371 1_655 S
C157 H164 0.930 . S
H158 C155 0.928 . S
H159 C156 0.931 . S
H160 C136 0.930 . S
H161 C133 0.930 1_545 S
H162 C142 0.930 . S
H163 C154 0.929 . S
H164 C157 0.930 . S
C165 C166 1.351 . S
C165 N168 1.368 . S
C165 H170 0.931 . S
C166 C165 1.351 . S
C166 N167 1.373 . S
C166 H194 0.930 . S
N167 C166 1.373 . S
N167 C169 1.340 . S
N168 C165 1.368 . S
N168 C169 1.321 . S
N168 Co171 2.135 1_556 S
C169 N167 1.340 . S
C169 N168 1.321 . S
C169 H193 0.930 . S
H170 C165 0.931 . S
Co171 N168 2.135 1_554 S
Co171 N174 2.121 . S
Co171 O179 2.055 . S
Co171 O182 2.039 1_554 S
Co171 N185 2.140 1_554 S
C172 O173 1.227 . S
C172 O182 1.265 . S
O173 C172 1.227 . S
N174 Co171 2.121 . S
N174 C176 1.375 . S
N174 C177 1.313 . S
C175 C176 1.338 . S
C175 N178 1.377 . S
C175 H195 0.930 . S
C176 N174 1.375 . S
C176 C175 1.338 . S
C176 H180 0.931 . S
C177 N174 1.313 . S
C177 N178 1.344 . S
C177 H181 0.930 . S
N178 C175 1.377 . S
N178 C177 1.344 . S
O179 Co171 2.055 . S
O179 C183 1.253 . S
H180 C176 0.931 . S
H181 C177 0.930 . S
O182 Co171 2.039 1_556 S
O182 C172 1.265 . S
C183 O179 1.253 . S
C183 O184 1.227 . S
O184 C183 1.227 . S
N185 Co171 2.140 1_556 S
N185 C188 1.346 . S
N185 C189 1.345 1_556 S
C186 C187 1.387 . S
C186 C190 1.391 1_556 S
C187 C186 1.387 . S
C187 C188 1.369 . S
C187 H196 0.929 . S
C188 N185 1.346 . S
C188 C187 1.369 . S
C188 H191 0.928 . S
C189 N185 1.345 1_554 S
C189 C190 1.371 . S
C189 H192 0.931 . S
C190 C186 1.391 1_554 S
C190 C189 1.371 . S
C190 H197 0.930 . S
H191 C188 0.928 . S
H192 C189 0.931 . S
H193 C169 0.930 . S
H194 C166 0.930 . S
H195 C175 0.930 . S
H196 C187 0.929 . S
H197 C190 0.930 . S
C198 C199 1.351 . S
C198 N201 1.368 1_556 S
C198 H203 0.931 1_546 S
C199 C198 1.351 . S
C199 N200 1.373 . S
C199 H227 0.930 1_545 S
N200 C199 1.373 . S
N200 C202 1.340 . S
N201 C198 1.368 1_554 S
N201 C202 1.321 1_554 S
N201 Co204 2.135 . S
C202 N200 1.340 . S
C202 N201 1.321 1_556 S
C202 H226 0.930 . S
H203 C198 0.931 1_564 S
Co204 N201 2.135 . S
Co204 N207 2.121 . S
Co204 O212 2.055 . S
Co204 O215 2.039 . S
Co204 N218 2.140 . S
C205 O206 1.227 . S
C205 O215 1.265 . S
O206 C205 1.227 . S
N207 Co204 2.121 . S
N207 C209 1.375 . S
N207 C210 1.313 . S
C208 C209 1.338 . S
C208 N211 1.377 . S
C208 H228 0.930 . S
C209 N207 1.375 . S
C209 C208 1.338 . S
C209 H213 0.931 . S
C210 N207 1.313 . S
C210 N211 1.344 . S
C210 H214 0.930 . S
N211 C208 1.377 . S
N211 C210 1.344 . S
O212 Co204 2.055 . S
O212 C216 1.253 1_545 S
H213 C209 0.931 . S
H214 C210 0.930 . S
O215 Co204 2.039 . S
O215 C205 1.265 . S
C216 O212 1.253 1_565 S
C216 O217 1.227 1_565 S
O217 C216 1.227 1_545 S
N218 Co204 2.140 . S
N218 C221 1.346 . S
N218 C222 1.345 . S
C219 C220 1.387 . S
C219 C223 1.391 . S
C220 C219 1.387 . S
C220 C221 1.369 . S
C220 H229 0.929 1_554 S
C221 N218 1.346 . S
C221 C220 1.369 . S
C221 H224 0.928 1_554 S
C222 N218 1.345 . S
C222 C223 1.371 . S
C222 H225 0.931 . S
C223 C219 1.391 . S
C223 C222 1.371 . S
C223 H230 0.930 . S
H224 C221 0.928 1_556 S
H225 C222 0.931 . S
H226 C202 0.930 . S
H227 C199 0.930 1_565 S
H228 C208 0.930 . S
H229 C220 0.929 1_556 S
H230 C223 0.930 . S
C231 C232 1.351 . S
C231 N234 1.368 . S
C231 H236 0.931 . S
C232 C231 1.351 . S
C232 N233 1.373 . S
C232 H260 0.930 . S
N233 C232 1.373 . S
N233 C235 1.340 . S
N234 C231 1.368 . S
N234 C235 1.321 . S
N234 Co237 2.135 . S
C235 N233 1.340 . S
C235 N234 1.321 . S
C235 H259 0.930 . S
H236 C231 0.931 . S
Co237 N234 2.135 . S
Co237 N240 2.121 . S
Co237 O245 2.055 . S
Co237 O248 2.039 . S
Co237 N251 2.140 . S
C238 O239 1.227 . S
C238 O248 1.265 . S
O239 C238 1.227 . S
N240 Co237 2.121 . S
N240 C242 1.375 . S
N240 C243 1.313 . S
C241 C242 1.338 . S
C241 N244 1.377 . S
C241 H261 0.930 . S
C242 N240 1.375 . S
C242 C241 1.338 . S
C242 H246 0.931 . S
C243 N240 1.313 . S
C243 N244 1.344 . S
C243 H247 0.930 . S
N244 C241 1.377 . S
N244 C243 1.344 . S
O245 Co237 2.055 . S
O245 C249 1.253 . S
H246 C242 0.931 . S
H247 C243 0.930 . S
O248 Co237 2.039 . S
O248 C238 1.265 . S
C249 O245 1.253 . S
C249 O250 1.227 . S
O250 C249 1.227 . S
N251 Co237 2.140 . S
N251 C254 1.346 . S
N251 C255 1.345 . S
C252 C253 1.387 . S
C252 C256 1.391 . S
C253 C252 1.387 . S
C253 C254 1.369 . S
C253 H262 0.929 . S
C254 N251 1.346 . S
C254 C253 1.369 . S
C254 H257 0.928 . S
C255 N251 1.345 . S
C255 C256 1.371 . S
C255 H258 0.931 . S
C256 C252 1.391 . S
C256 C255 1.371 . S
C256 H263 0.930 . S
H257 C254 0.928 . S
H258 C255 0.931 . S
H259 C235 0.930 . S
H260 C232 0.930 . S
H261 C241 0.930 . S
H262 C253 0.929 . S
H263 C256 0.930 . S
C264 C265 1.351 . S
C264 N267 1.368 . S
C264 H269 0.931 . S
C265 C264 1.351 . S
C265 N266 1.373 . S
C265 H293 0.930 . S
N266 C265 1.373 . S
N266 C268 1.340 . S
N267 C264 1.368 . S
N267 C268 1.321 . S
N267 Co270 2.135 . S
C268 N266 1.340 . S
C268 N267 1.321 . S
C268 H292 0.930 . S
H269 C264 0.931 . S
Co270 N267 2.135 . S
Co270 N273 2.121 . S
Co270 O278 2.055 . S
Co270 O281 2.039 . S
Co270 N284 2.140 . S
C271 O272 1.227 . S
C271 O281 1.265 . S
O272 C271 1.227 . S
N273 Co270 2.121 . S
N273 C275 1.375 . S
N273 C276 1.313 . S
C274 C275 1.338 . S
C274 N277 1.377 . S
C274 H294 0.930 . S
C275 N273 1.375 . S
C275 C274 1.338 . S
C275 H279 0.931 . S
C276 N273 1.313 . S
C276 N277 1.344 . S
C276 H280 0.930 . S
N277 C274 1.377 . S
N277 C276 1.344 . S
O278 Co270 2.055 . S
O278 C282 1.253 . S
H279 C275 0.931 . S
H280 C276 0.930 . S
O281 Co270 2.039 . S
O281 C271 1.265 . S
C282 O278 1.253 . S
C282 O283 1.227 . S
O283 C282 1.227 . S
N284 Co270 2.140 . S
N284 C287 1.346 . S
N284 C288 1.345 . S
C285 C286 1.387 . S
C285 C289 1.391 . S
C286 C285 1.387 . S
C286 C287 1.369 . S
C286 H295 0.929 . S
C287 N284 1.346 . S
C287 C286 1.369 . S
C287 H290 0.928 . S
C288 N284 1.345 . S
C288 C289 1.371 . S
C288 H291 0.931 . S
C289 C285 1.391 . S
C289 C288 1.371 . S
C289 H296 0.930 . S
H290 C287 0.928 . S
H291 C288 0.931 . S
H292 C268 0.930 . S
H293 C265 0.930 . S
H294 C274 0.930 . S
H295 C286 0.929 . S
H296 C289 0.930 . S
C297 C298 1.351 . S
C297 N300 1.368 . S
C297 H302 0.931 . S
C298 C297 1.351 . S
C298 N299 1.373 . S
C298 H326 0.930 . S
N299 C298 1.373 . S
N299 C301 1.340 . S
N300 C297 1.368 . S
N300 C301 1.321 . S
N300 Co303 2.135 1_556 S
C301 N299 1.340 . S
C301 N300 1.321 . S
C301 H325 0.930 . S
H302 C297 0.931 . S
Co303 N300 2.135 1_554 S
Co303 N306 2.121 . S
Co303 O311 2.055 . S
Co303 O314 2.039 1_554 S
Co303 N317 2.140 1_554 S
C304 O305 1.227 . S
C304 O314 1.265 . S
O305 C304 1.227 . S
N306 Co303 2.121 . S
N306 C308 1.375 . S
N306 C309 1.313 . S
C307 C308 1.338 . S
C307 N310 1.377 . S
C307 H327 0.930 . S
C308 N306 1.375 . S
C308 C307 1.338 . S
C308 H312 0.931 . S
C309 N306 1.313 . S
C309 N310 1.344 . S
C309 H313 0.930 . S
N310 C307 1.377 . S
N310 C309 1.344 . S
O311 Co303 2.055 . S
O311 C315 1.253 . S
H312 C308 0.931 . S
H313 C309 0.930 . S
O314 Co303 2.039 1_556 S
O314 C304 1.265 . S
C315 O311 1.253 . S
C315 O316 1.227 . S
O316 C315 1.227 . S
N317 Co303 2.140 1_556 S
N317 C320 1.346 . S
N317 C321 1.345 1_556 S
C318 C319 1.387 . S
C318 C322 1.391 1_556 S
C319 C318 1.387 . S
C319 C320 1.369 . S
C319 H328 0.929 . S
C320 N317 1.346 . S
C320 C319 1.369 . S
C320 H323 0.928 . S
C321 N317 1.345 1_554 S
C321 C322 1.371 . S
C321 H324 0.931 . S
C322 C318 1.391 1_554 S
C322 C321 1.371 . S
C322 H329 0.930 . S
H323 C320 0.928 . S
H324 C321 0.931 . S
H325 C301 0.930 . S
H326 C298 0.930 . S
H327 C307 0.930 . S
H328 C319 0.929 . S
H329 C322 0.930 . S
C330 C331 1.351 . S
C330 N333 1.368 . S
C330 H335 0.931 . S
C331 C330 1.351 . S
C331 N332 1.373 . S
C331 H359 0.930 . S
N332 C331 1.373 . S
N332 C334 1.340 . S
N333 C330 1.368 . S
N333 C334 1.321 . S
N333 Co336 2.135 1_554 S
C334 N332 1.340 . S
C334 N333 1.321 . S
C334 H358 0.930 . S
H335 C330 0.931 . S
Co336 N333 2.135 1_556 S
Co336 N339 2.121 . S
Co336 O344 2.055 . S
Co336 O347 2.039 1_556 S
Co336 N350 2.140 1_556 S
C337 O338 1.227 . S
C337 O347 1.265 . S
O338 C337 1.227 . S
N339 Co336 2.121 . S
N339 C341 1.375 . S
N339 C342 1.313 . S
C340 C341 1.338 . S
C340 N343 1.377 . S
C340 H360 0.930 . S
C341 N339 1.375 . S
C341 C340 1.338 . S
C341 H345 0.931 . S
C342 N339 1.313 . S
C342 N343 1.344 . S
C342 H346 0.930 . S
N343 C340 1.377 . S
N343 C342 1.344 . S
O344 Co336 2.055 . S
O344 C348 1.253 . S
H345 C341 0.931 . S
H346 C342 0.930 . S
O347 Co336 2.039 1_554 S
O347 C337 1.265 . S
C348 O344 1.253 . S
C348 O349 1.227 . S
O349 C348 1.227 . S
N350 Co336 2.140 1_554 S
N350 C353 1.346 . S
N350 C354 1.345 1_554 S
C351 C352 1.387 . S
C351 C355 1.391 1_554 S
C352 C351 1.387 . S
C352 C353 1.369 . S
C352 H361 0.929 . S
C353 N350 1.346 . S
C353 C352 1.369 . S
C353 H356 0.928 . S
C354 N350 1.345 1_556 S
C354 C355 1.371 . S
C354 H357 0.931 . S
C355 C351 1.391 1_556 S
C355 C354 1.371 . S
C355 H362 0.930 . S
H356 C353 0.928 . S
H357 C354 0.931 . S
H358 C334 0.930 . S
H359 C331 0.930 . S
H360 C340 0.930 . S
H361 C352 0.929 . S
H362 C355 0.930 . S
C363 C364 1.351 . S
C363 N366 1.368 . S
C363 H368 0.931 . S
C364 C363 1.351 . S
C364 N365 1.373 . S
C364 H392 0.930 . S
N365 C364 1.373 . S
N365 C367 1.340 . S
N366 C363 1.368 . S
N366 C367 1.321 . S
N366 Co369 2.135 . S
C367 N365 1.340 . S
C367 N366 1.321 . S
C367 H391 0.930 . S
H368 C363 0.931 . S
Co369 N366 2.135 . S
Co369 N372 2.121 . S
Co369 O377 2.055 . S
Co369 O380 2.039 . S
Co369 N383 2.140 . S
C370 O371 1.227 . S
C370 O380 1.265 . S
O371 C370 1.227 . S
N372 Co369 2.121 . S
N372 C374 1.375 . S
N372 C375 1.313 . S
C373 C374 1.338 . S
C373 N376 1.377 . S
C373 H393 0.930 . S
C374 N372 1.375 . S
C374 C373 1.338 . S
C374 H378 0.931 . S
C375 N372 1.313 . S
C375 N376 1.344 . S
C375 H379 0.930 . S
N376 C373 1.377 . S
N376 C375 1.344 . S
O377 Co369 2.055 . S
O377 C381 1.253 . S
H378 C374 0.931 . S
H379 C375 0.930 . S
O380 Co369 2.039 . S
O380 C370 1.265 . S
C381 O377 1.253 . S
C381 O382 1.227 . S
O382 C381 1.227 . S
N383 Co369 2.140 . S
N383 C386 1.346 . S
N383 C387 1.345 . S
C384 C385 1.387 . S
C384 C388 1.391 . S
C385 C384 1.387 . S
C385 C386 1.369 . S
C385 H394 0.929 . S
C386 N383 1.346 . S
C386 C385 1.369 . S
C386 H389 0.928 . S
C387 N383 1.345 . S
C387 C388 1.371 . S
C387 H390 0.931 . S
C388 C384 1.391 . S
C388 C387 1.371 . S
C388 H395 0.930 . S
H389 C386 0.928 . S
H390 C387 0.931 . S
H391 C367 0.930 . S
H392 C364 0.930 . S
H393 C373 0.930 . S
H394 C385 0.929 . S
H395 C388 0.930 . S
C396 C397 1.351 . S
C396 N399 1.368 1_554 S
C396 H401 0.931 1_554 S
C397 C396 1.351 . S
C397 N398 1.373 . S
C397 H425 0.930 . S
N398 C397 1.373 . S
N398 C400 1.340 . S
N399 C396 1.368 1_556 S
N399 C400 1.321 1_556 S
N399 Co402 2.135 . S
C400 N398 1.340 . S
C400 N399 1.321 1_554 S
C400 H424 0.930 . S
H401 C396 0.931 1_556 S
Co402 N399 2.135 . S
Co402 N405 2.121 . S
Co402 O410 2.055 . S
Co402 O413 2.039 . S
Co402 N416 2.140 . S
C403 O404 1.227 . S
C403 O413 1.265 . S
O404 C403 1.227 . S
N405 Co402 2.121 . S
N405 C407 1.375 . S
N405 C408 1.313 . S
C406 C407 1.338 . S
C406 N409 1.377 . S
C406 H426 0.930 . S
C407 N405 1.375 . S
C407 C406 1.338 . S
C407 H411 0.931 . S
C408 N405 1.313 . S
C408 N409 1.344 . S
C408 H412 0.930 . S
N409 C406 1.377 . S
N409 C408 1.344 . S
O410 Co402 2.055 . S
O410 C414 1.253 . S
H411 C407 0.931 . S
H412 C408 0.930 . S
O413 Co402 2.039 . S
O413 C403 1.265 . S
C414 O410 1.253 . S
C414 O415 1.227 . S
O415 C414 1.227 . S
N416 Co402 2.140 . S
N416 C419 1.346 . S
N416 C420 1.345 . S
C417 C418 1.387 . S
C417 C421 1.391 . S
C418 C417 1.387 . S
C418 C419 1.369 . S
C418 H427 0.929 1_556 S
C419 N416 1.346 . S
C419 C418 1.369 . S
C419 H422 0.928 1_556 S
C420 N416 1.345 . S
C420 C421 1.371 . S
C420 H423 0.931 . S
C421 C417 1.391 . S
C421 C420 1.371 . S
C421 H428 0.930 . S
H422 C419 0.928 1_554 S
H423 C420 0.931 . S
H424 C400 0.930 . S
H425 C397 0.930 . S
H426 C406 0.930 . S
H427 C418 0.929 1_554 S
H428 C421 0.930 . S
C429 C430 1.351 . S
C429 N432 1.368 . S
C429 H434 0.931 . S
C430 C429 1.351 . S
C430 N431 1.373 . S
C430 H458 0.930 . S
N431 C430 1.373 . S
N431 C433 1.340 . S
N432 C429 1.368 . S
N432 C433 1.321 . S
N432 Co435 2.135 . S
C433 N431 1.340 . S
C433 N432 1.321 . S
C433 H457 0.930 1_455 S
H434 C429 0.931 . S
Co435 N432 2.135 . S
Co435 N438 2.121 . S
Co435 O443 2.049 1_455 S
Co435 O446 2.039 1_455 S
Co435 N449 2.140 . S
C436 O437 1.227 . S
C436 O446 1.265 . S
O437 C436 1.227 . S
N438 Co435 2.121 . S
N438 C440 1.375 1_455 S
N438 C441 1.313 1_554 S
C439 C440 1.338 1_556 S
C439 N442 1.377 1_655 S
C439 H459 0.929 . S
C440 N438 1.375 1_655 S
C440 C439 1.338 1_554 S
C440 H444 0.931 . S
C441 N438 1.313 1_556 S
C441 N442 1.344 . S
C441 H445 0.930 . S
N442 C439 1.377 1_455 S
N442 C441 1.344 . S
O443 Co435 2.049 1_655 S
O443 C447 1.227 1_655 S
H444 C440 0.931 . S
H445 C441 0.930 . S
O446 Co435 2.039 1_655 S
O446 C436 1.265 . S
C447 O443 1.227 1_455 S
C447 O448 1.227 . S
O448 C447 1.227 . S
N449 Co435 2.140 . S
N449 C452 1.346 . S
N449 C453 1.345 . S
C450 C451 1.387 . S
C450 C454 1.391 . S
C451 C450 1.387 . S
C451 C452 1.369 . S
C451 H460 0.929 . S
C452 N449 1.346 . S
C452 C451 1.369 . S
C452 H455 0.928 . S
C453 N449 1.345 . S
C453 C454 1.371 . S
C453 H456 0.931 . S
C454 C450 1.391 . S
C454 C453 1.371 . S
C454 H461 0.930 . S
H455 C452 0.928 . S
H456 C453 0.931 . S
H457 C433 0.930 1_655 S
H458 C430 0.930 . S
H459 C439 0.929 . S
H460 C451 0.929 . S
H461 C454 0.930 . S
C462 C463 1.351 . S
C462 N465 1.368 1_556 S
C462 H467 0.931 1_556 S
C463 C462 1.351 . S
C463 N464 1.373 . S
C463 H491 0.930 . S
N464 C463 1.373 . S
N464 C466 1.340 . S
N465 C462 1.368 1_554 S
N465 C466 1.321 1_554 S
N465 Co468 2.135 . S
C466 N464 1.340 . S
C466 N465 1.321 1_556 S
C466 H490 0.930 . S
H467 C462 0.931 1_554 S
Co468 N465 2.135 . S
Co468 N471 2.121 . S
Co468 O476 2.055 . S
Co468 O479 2.039 . S
Co468 N482 2.140 . S
C469 O470 1.227 . S
C469 O479 1.265 . S
O470 C469 1.227 . S
N471 Co468 2.121 . S
N471 C473 1.375 . S
N471 C474 1.313 . S
C472 C473 1.338 . S
C472 N475 1.377 . S
C472 H492 0.930 . S
C473 N471 1.375 . S
C473 C472 1.338 . S
C473 H477 0.931 . S
C474 N471 1.313 . S
C474 N475 1.344 . S
C474 H478 0.930 . S
N475 C472 1.377 . S
N475 C474 1.344 . S
O476 Co468 2.055 . S
O476 C480 1.253 . S
H477 C473 0.931 . S
H478 C474 0.930 . S
O479 Co468 2.039 . S
O479 C469 1.265 . S
C480 O476 1.253 . S
C480 O481 1.227 . S
O481 C480 1.227 . S
N482 Co468 2.140 . S
N482 C485 1.346 . S
N482 C486 1.345 . S
C483 C484 1.387 . S
C483 C487 1.391 . S
C484 C483 1.387 . S
C484 C485 1.369 . S
C484 H493 0.929 1_554 S
C485 N482 1.346 . S
C485 C484 1.369 . S
C485 H488 0.928 1_554 S
C486 N482 1.345 . S
C486 C487 1.371 . S
C486 H489 0.931 . S
C487 C483 1.391 . S
C487 C486 1.371 . S
C487 H494 0.930 . S
H488 C485 0.928 1_556 S
H489 C486 0.931 . S
H490 C466 0.930 . S
H491 C463 0.930 . S
H492 C472 0.930 . S
H493 C484 0.929 1_556 S
H494 C487 0.930 . S
C495 C496 1.351 . S
C495 N498 1.368 . S
C495 H500 0.931 . S
C496 C495 1.351 . S
C496 N497 1.373 . S
C496 H524 0.930 . S
N497 C496 1.373 . S
N497 C499 1.340 . S
N498 C495 1.368 . S
N498 C499 1.321 . S
N498 Co501 2.135 . S
C499 N497 1.340 . S
C499 N498 1.321 . S
C499 H523 0.930 1_455 S
H500 C495 0.931 . S
Co501 N498 2.135 . S
Co501 N504 2.121 . S
Co501 O509 2.049 1_455 S
Co501 O512 2.039 1_455 S
Co501 N515 2.140 . S
C502 O503 1.227 . S
C502 O512 1.265 . S
O503 C502 1.227 . S
N504 Co501 2.121 . S
N504 C506 1.375 1_455 S
N504 C507 1.313 1_556 S
C505 C506 1.338 1_554 S
C505 N508 1.378 1_655 S
C505 H525 0.929 . S
C506 N504 1.375 1_655 S
C506 C505 1.338 1_556 S
C506 H510 0.931 . S
C507 N504 1.313 1_554 S
C507 N508 1.344 . S
C507 H511 0.930 . S
N508 C505 1.378 1_455 S
N508 C507 1.344 . S
O509 Co501 2.049 1_655 S
O509 C513 1.227 1_655 S
H510 C506 0.931 . S
H511 C507 0.930 . S
O512 Co501 2.039 1_655 S
O512 C502 1.265 . S
C513 O509 1.227 1_455 S
C513 O514 1.227 . S
O514 C513 1.227 . S
N515 Co501 2.140 . S
N515 C518 1.346 . S
N515 C519 1.345 . S
C516 C517 1.387 . S
C516 C520 1.391 . S
C517 C516 1.387 . S
C517 C518 1.369 . S
C517 H526 0.929 . S
C518 N515 1.346 . S
C518 C517 1.369 . S
C518 H521 0.928 . S
C519 N515 1.345 . S
C519 C520 1.371 . S
C519 H522 0.931 . S
C520 C516 1.391 . S
C520 C519 1.371 . S
C520 H527 0.930 . S
H521 C518 0.928 . S
H522 C519 0.931 . S
H523 C499 0.930 1_655 S
H524 C496 0.930 . S
H525 C505 0.929 . S
H526 C517 0.929 . S
H527 C520 0.930 . S
C238 C7 1.564 . S
C40 C139 1.564 . S
C73 C172 1.607 . S
C205 C106 1.607 . S
C384 C153 1.715 . S
C285 C21 1.715 . S
C219 C351 1.765 . S
C87 C318 1.765 . S
C304 C403 1.607 . S
C469 C337 1.607 . S
C436 C271 1.564 . S
C370 C502 1.564 . S
C120 C483 1.764 . S
C186 C417 1.765 . S
C54 C516 1.715 . S
C252 C450 1.715 . S
C18 C150 2.843 1_564 S
C183 C51 2.771 . S
C216 C84 3.065 1_565 S
C117 C249 2.771 . S
C348 C282 2.771 . S
C315 C381 2.771 . S
C414 C480 3.066 . S
C513 C447 2.843 1_556 S
N13 N2 2.214 . S
N46 N35 2.178 1_554 S
N68 N79 2.332 . S
N101 N112 2.223 . S
N134 N145 2.214 . S
N167 N178 2.223 . S
N211 N200 2.332 . S
N244 N233 2.178 1_556 S
N266 N277 2.178 1_554 S
N299 N310 2.223 . S
N343 N332 2.223 . S
N376 N365 2.178 1_554 S
N409 N398 2.332 . S
N442 N431 2.214 . S
N475 N464 2.332 . S
N497 N508 2.214 . S
