# Generated by pormake.
# Topology wjg, (4)-cn, num edge types: 1
# Building blocks:
#     Node 0, Type 0, BuildingBlock: QUQFOY_clean_sbu_1, # of connection points: 4
#     Node 1, Type 0, BuildingBlock: QUQFOY_clean_sbu_1, # of connection points: 4
#     Node 2, Type 0, BuildingBlock: QUQFOY_clean_sbu_1, # of connection points: 4
#     Node 3, Type 0, BuildingBlock: QUQFOY_clean_sbu_1, # of connection points: 4
#     Node 4, Type 0, BuildingBlock: QUQFOY_clean_sbu_1, # of connection points: 4
#     Node 5, Type 0, BuildingBlock: QUQFOY_clean_sbu_1, # of connection points: 4
#     Node 6, Type 0, BuildingBlock: QUQFOY_clean_sbu_1, # of connection points: 4
#     Node 7, Type 0, BuildingBlock: QUQFOY_clean_sbu_1, # of connection points: 4
#     Node 8, Type 0, BuildingBlock: QUQFOY_clean_sbu_1, # of connection points: 4
#     Node 9, Type 0, BuildingBlock: QUQFOY_clean_sbu_1, # of connection points: 4
#     Node 10, Type 0, BuildingBlock: QUQFOY_clean_sbu_1, # of connection points: 4
#     Node 11, Type 0, BuildingBlock: QUQFOY_clean_sbu_1, # of connection points: 4
#     Edge 12, Type (0, 0), BuildingBlock: EZIPEK_clean_linker_0, # of connection points: 2
#     Edge 13, Type (0, 0), BuildingBlock: EZIPEK_clean_linker_0, # of connection points: 2
#     Edge 14, Type (0, 0), BuildingBlock: EZIPEK_clean_linker_0, # of connection points: 2
#     Edge 15, Type (0, 0), BuildingBlock: EZIPEK_clean_linker_0, # of connection points: 2
#     Edge 16, Type (0, 0), BuildingBlock: EZIPEK_clean_linker_0, # of connection points: 2
#     Edge 17, Type (0, 0), BuildingBlock: EZIPEK_clean_linker_0, # of connection points: 2
#     Edge 18, Type (0, 0), BuildingBlock: EZIPEK_clean_linker_0, # of connection points: 2
#     Edge 19, Type (0, 0), BuildingBlock: EZIPEK_clean_linker_0, # of connection points: 2
#     Edge 20, Type (0, 0), BuildingBlock: EZIPEK_clean_linker_0, # of connection points: 2
#     Edge 21, Type (0, 0), BuildingBlock: EZIPEK_clean_linker_0, # of connection points: 2
#     Edge 22, Type (0, 0), BuildingBlock: EZIPEK_clean_linker_0, # of connection points: 2
#     Edge 23, Type (0, 0), BuildingBlock: EZIPEK_clean_linker_0, # of connection points: 2
#     Edge 24, Type (0, 0), BuildingBlock: EZIPEK_clean_linker_0, # of connection points: 2
#     Edge 25, Type (0, 0), BuildingBlock: EZIPEK_clean_linker_0, # of connection points: 2
#     Edge 26, Type (0, 0), BuildingBlock: EZIPEK_clean_linker_0, # of connection points: 2
#     Edge 27, Type (0, 0), BuildingBlock: EZIPEK_clean_linker_0, # of connection points: 2
#     Edge 28, Type (0, 0), BuildingBlock: EZIPEK_clean_linker_0, # of connection points: 2
#     Edge 29, Type (0, 0), BuildingBlock: EZIPEK_clean_linker_0, # of connection points: 2
#     Edge 30, Type (0, 0), BuildingBlock: EZIPEK_clean_linker_0, # of connection points: 2
#     Edge 31, Type (0, 0), BuildingBlock: EZIPEK_clean_linker_0, # of connection points: 2
#     Edge 32, Type (0, 0), BuildingBlock: EZIPEK_clean_linker_0, # of connection points: 2
#     Edge 33, Type (0, 0), BuildingBlock: EZIPEK_clean_linker_0, # of connection points: 2
#     Edge 34, Type (0, 0), BuildingBlock: EZIPEK_clean_linker_0, # of connection points: 2
#     Edge 35, Type (0, 0), BuildingBlock: EZIPEK_clean_linker_0, # of connection points: 2
# Relax obj value: 0.286
# Max RMSD: 0.140
# Mean RMSD: 0.138
data_MOF--net-wjg--node1-QUQFOY_clean_sbu_1--edge1-EZIPEK_clean_linker_0
_symmetry_space_group_name_H-M    P1
_symmetry_Int_Tables_number       1
_symmetry_cell_setting            triclinic
loop_
_symmetry_equiv_pos_as_xyz
'x, y, z'
_cell_length_a     26.602553
_cell_length_b     26.046296
_cell_length_c     29.265331
_cell_angle_alpha  89.768297
_cell_angle_beta   89.869253
_cell_angle_gamma 120.58529
loop_
_atom_site_label
_atom_site_type_symbol
_atom_site_fract_x
_atom_site_fract_y
_atom_site_fract_z
_atom_type_partial_charge
O0 O 0.10062 0.27952 0.36014 0.0
Cd1 Cd 0.0767 0.34287 0.35982 0.0
Cd2 Cd 0.18679 0.41073 0.3461 0.0
O3 O 0.18361 0.33486 0.32309 0.0
O4 O 0.00296 0.31219 0.32409 0.0
O5 O 0.08867 0.38749 0.30122 0.0
C6 C 0.03455 0.34964 0.29227 0.0
C7 C 0.25393 0.50749 0.32356 0.0
C8 C 0.14634 0.28548 0.34138 0.0
C9 C 0.13906 0.39922 0.44115 0.0
O10 O 0.18134 0.40969 0.41522 0.0
O11 O 0.0882 0.3799 0.42466 0.0
O12 O 0.27022 0.47255 0.34013 0.0
O13 O 0.19937 0.48588 0.31478 0.0
O14 O 0.84831 0.13624 0.69664 0.0
Cd15 Cd 0.759 0.09091 0.69844 0.0
Cd16 Cd 0.78328 0.19745 0.68199 0.0
O17 O 0.85634 0.20646 0.6503 0.0
O18 O 0.72505 0.0149 0.66331 0.0
O19 O 0.71739 0.09266 0.64208 0.0
C20 C 0.7096 0.04052 0.63292 0.0
C21 C 0.74327 0.25682 0.66613 0.0
C22 C 0.88007 0.18296 0.6733 0.0
C23 C 0.76522 0.15079 0.77898 0.0
O24 O 0.79004 0.19374 0.75093 0.0
O25 O 0.7349 0.09735 0.76461 0.0
O26 O 0.79667 0.27933 0.67827 0.0
O27 O 0.7129 0.20032 0.65849 0.0
O28 O 0.57967 0.75384 0.098 0.0
Cd29 Cd 0.55972 0.77049 0.03444 0.0
Cd30 Cd 0.66586 0.78994 1.01393 0.0
O31 O 0.67186 0.78248 0.08477 0.0
O32 O 0.48563 0.76522 0.05357 0.0
O33 O 0.48753 0.70586 1.0015 0.0
C34 C 0.45764 0.72208 1.02578 0.0
C35 C 0.66748 0.73526 0.95123 0.0
C36 C 0.63062 0.77145 0.1127 0.0
C37 C 0.65704 0.89655 1.01176 0.0
O38 O 0.69032 0.87668 1.00155 0.0
O39 O 0.60349 0.8612 1.02108 0.0
O40 O 0.71444 0.7695 0.974 0.0
O41 O 0.61852 0.72797 0.96657 0.0
O42 O 0.83642 0.70333 0.3304 0.0
Cd43 Cd 0.87904 0.65785 0.33897 0.0
Cd44 Cd 0.7623 0.57301 0.34476 0.0
O45 O 0.76031 0.63036 0.29847 0.0
O46 O 0.95457 0.70299 0.30477 0.0
O47 O 0.88283 0.61327 0.28438 0.0
C48 C 0.93259 0.66055 0.27496 0.0
C49 C 0.68639 0.47443 0.35224 0.0
C50 C 0.7863 0.68353 0.31307 0.0
C51 C 0.83144 0.62855 0.43023 0.0
O52 O 0.78416 0.60769 0.40834 0.0
O53 O 0.87921 0.64225 0.40958 0.0
O54 O 0.67762 0.51836 0.35612 0.0
O55 O 0.73771 0.48586 0.33994 0.0
O56 O 0.12156 0.83094 0.64653 0.0
Cd57 Cd 0.2086 0.88225 0.65919 0.0
Cd58 Cd 0.189 0.77636 0.67183 0.0
O59 O 0.12088 0.74953 0.62806 0.0
O60 O 0.24198 0.95359 0.61816 0.0
O61 O 0.263 0.88131 0.61241 0.0
C62 C 0.26663 0.92934 0.59587 0.0
C63 C 0.23919 0.72598 0.68292 0.0
C64 C 0.09329 0.77697 0.63371 0.0
C65 C 0.18839 0.84526 0.75258 0.0
O66 O 0.1682 0.79519 0.73356 0.0
O67 O 0.21954 0.89331 0.7298 0.0
O68 O 0.18387 0.70062 0.6896 0.0
O69 O 0.26635 0.77927 0.66608 0.0
O70 O 0.42681 0.23467 0.07159 0.0
Cd71 Cd 0.45508 0.25023 1.00563 0.0
Cd72 Cd 0.35923 0.24939 1.00336 0.0
O73 O 0.36415 0.26629 0.0726 0.0
O74 O 0.5317 0.25854 1.01738 0.0
O75 O 0.52319 0.33237 0.98874 0.0
C76 C 0.55583 0.31321 1.00462 0.0
C77 C 0.35348 0.29905 0.93928 0.0
C78 C 0.39229 0.2457 0.09335 0.0
C79 C 0.36136 0.13833 0.98204 0.0
O80 O 0.33227 0.16123 0.99655 0.0
O81 O 0.41455 0.17145 0.97059 0.0
O82 O 0.30833 0.26755 0.96514 0.0
O83 O 0.40328 0.30642 0.95218 0.0
O84 O 0.68561 0.816 0.4066 0.0
Cd85 Cd 0.65162 0.86902 0.39381 0.0
Cd86 Cd 0.56508 0.76097 0.37704 0.0
O87 O 0.60489 0.73259 0.4213 0.0
O88 O 0.69903 0.94141 0.43159 0.0
O89 O 0.60422 0.87942 0.44268 0.0
C90 C 0.65287 0.92461 0.45637 0.0
C91 C 0.4651 0.70482 0.3632 0.0
C92 C 0.66008 0.76121 0.41757 0.0
C93 C 0.63945 0.83723 0.29925 0.0
O94 O 0.60818 0.78589 0.31649 0.0
O95 O 0.65569 0.8838 0.32341 0.0
O96 O 0.49894 0.68387 0.35645 0.0
O97 O 0.48712 0.75713 0.38091 0.0
O98 O 0.84995 0.69957 0.71511 0.0
Cd99 Cd 0.76174 0.66 0.70946 0.0
Cd100 Cd 0.78124 0.56895 0.70369 0.0
O101 O 0.85337 0.62303 0.74149 0.0
O102 O 0.73736 0.70882 0.74573 0.0
O103 O 0.71297 0.61631 0.76465 0.0
C104 C 0.71429 0.66532 0.77499 0.0
C105 C 0.74636 0.46647 0.6996 0.0
C106 C 0.87989 0.67769 0.72995 0.0
C107 C 0.76954 0.6276 0.61763 0.0
O108 O 0.78985 0.59958 0.63855 0.0
O109 O 0.74281 0.64908 0.63951 0.0
O110 O 0.79915 0.50561 0.68918 0.0
O111 O 0.7134 0.48494 0.71606 0.0
O112 O 0.16102 0.7531 0.95348 0.0
Cd113 Cd 0.19709 0.76905 1.01708 0.0
Cd114 Cd 0.11002 0.78817 0.03724 0.0
O115 O 0.09763 0.78208 0.96638 0.0
O116 O 0.26633 0.76458 0.99786 0.0
O117 O 0.20517 0.70419 0.04997 0.0
C118 C 0.25143 0.72107 1.02565 0.0
C119 C 0.05267 0.73238 0.09962 0.0
C120 C 0.12815 0.77138 0.9386 0.0
C121 C 0.22496 0.89476 0.03977 0.0
O122 O 0.17175 0.8747 0.04982 0.0
O123 O 0.24341 0.85957 0.03056 0.0
O124 O 0.04053 0.76732 0.07677 0.0
O125 O 0.09443 0.72508 0.08452 0.0
O126 O 0.24867 0.10344 0.36008 0.0
Cd127 Cd 0.31189 0.08058 0.35506 0.0
Cd128 Cd 0.3789 0.19289 0.36877 0.0
O129 O 0.30579 0.18859 0.39511 0.0
O130 O 0.28863 0.00284 0.386 0.0
O131 O 0.35724 0.08968 0.41207 0.0
C132 C 0.32672 0.03245 0.41734 0.0
C133 C 0.4744 0.26193 0.38833 0.0
C134 C 0.25652 0.15116 0.37826 0.0
C135 C 0.36437 0.14842 0.27311 0.0
O136 O 0.37521 0.1906 0.29996 0.0
O137 O 0.34617 0.09605 0.28874 0.0
O138 O 0.43904 0.27832 0.37411 0.0
O139 O 0.45403 0.20615 0.39685 0.0
O140 O 0.15477 0.30583 0.704 0.0
Cd141 Cd 0.2433 0.35774 0.6995 0.0
Cd142 Cd 0.2142 0.43436 0.71737 0.0
O143 O 0.14413 0.36522 0.75078 0.0
O144 O 0.28073 0.31842 0.73215 0.0
O145 O 0.28548 0.40182 0.75569 0.0
C146 C 0.29501 0.35854 0.76346 0.0
C147 C 0.25534 0.53501 0.73282 0.0
C148 C 0.12201 0.31686 0.72832 0.0
C149 C 0.22967 0.40963 0.61957 0.0
O150 O 0.20386 0.42431 0.64845 0.0
O151 O 0.2622 0.38962 0.63285 0.0
O152 O 0.20075 0.50184 0.72398 0.0
O153 O 0.28619 0.51007 0.73827 0.0
O154 O 0.79667 0.23693 0.97911 0.0
Cd155 Cd 0.78292 0.25197 0.04484 0.0
Cd156 Cd 0.87741 0.25023 0.04684 0.0
O157 O 0.89079 0.26843 0.97767 0.0
O158 O 0.71467 0.26023 0.03224 0.0
O159 O 0.79591 0.33377 0.06146 0.0
C160 C 0.74445 0.31465 0.04519 0.0
C161 C 0.92994 0.29849 0.11184 0.0
C162 C 0.84211 0.24786 0.95714 0.0
C163 C 0.76382 0.13952 0.06846 0.0
O164 O 0.81557 0.16217 0.05346 0.0
O165 O 0.74416 0.17289 0.0802 0.0
O166 O 0.94436 0.26696 0.0869 0.0
O167 O 0.88878 0.30701 0.09727 0.0
C168 C 0.30062 0.6039 0.36356 0.0
C169 C 0.29613 0.57205 0.32322 0.0
C170 C 0.39489 0.64853 0.3015 0.0
C171 C 0.40418 0.67028 0.34697 0.0
N172 N 0.36523 0.67152 0.4213 0.0
N173 N 0.33505 0.56611 0.25079 0.0
C174 C 0.35649 0.65019 0.3777 0.0
C175 C 0.34177 0.59582 0.29072 0.0
N176 N 0.25171 0.58831 0.38887 0.0
N177 N 0.43724 0.67824 0.26914 0.0
H178 H 0.29523 0.52885 0.24177 0.0
H179 H 0.36889 0.57709 0.22765 0.0
H180 H 0.47603 0.71777 0.27635 0.0
H181 H 0.43171 0.66715 0.23464 0.0
H182 H 0.25114 0.61278 0.41671 0.0
H183 H 0.21047 0.55423 0.37895 0.0
H184 H 0.33348 0.65304 0.44684 0.0
H185 H 0.40536 0.70583 0.43279 0.0
C186 C 0.73467 0.33907 0.6318 0.0
C187 C 0.71782 0.29548 0.66639 0.0
C188 C 0.70172 0.35746 0.72017 0.0
C189 C 0.72405 0.40358 0.68685 0.0
N190 N 0.74179 0.43148 0.60723 0.0
N191 N 0.66552 0.2527 0.7363 0.0
C192 C 0.73355 0.39182 0.64122 0.0
C193 C 0.69398 0.30106 0.70806 0.0
N194 N 0.75472 0.33114 0.59098 0.0
N195 N 0.69224 0.36869 0.76393 0.0
H196 H 0.65939 0.21113 0.72742 0.0
H197 H 0.64332 0.25225 0.76579 0.0
H198 H 0.69715 0.40937 0.77387 0.0
H199 H 0.68264 0.33892 0.79094 0.0
H200 H 0.77457 0.36424 0.56606 0.0
H201 H 0.75296 0.29123 0.58292 0.0
H202 H 0.74439 0.42349 0.57274 0.0
H203 H 0.74058 0.47022 0.61344 0.0
C204 C 0.36339 0.68311 0.06633 0.0
C205 C 0.39317 0.69324 1.02402 0.0
C206 C 0.30781 0.68351 0.98507 0.0
C207 C 0.28756 0.69265 0.02739 0.0
N208 N 0.29256 0.69488 0.10991 0.0
N209 N 0.39105 0.69682 0.9415 0.0
C210 C 0.31308 0.68871 0.06873 0.0
C211 C 0.36395 0.68971 0.98268 0.0
N212 N 0.3844 0.66949 0.10416 0.0
N213 N 0.27351 0.67025 0.94723 0.0
H214 H 0.43111 0.69925 0.93794 0.0
H215 H 0.37468 0.70263 0.91085 0.0
H216 H 0.23188 0.66493 0.94883 0.0
H217 H 0.28358 0.65858 0.91596 0.0
H218 H 0.36245 0.65711 0.13541 0.0
H219 H 0.42099 0.66461 0.10256 0.0
H220 H 0.31454 0.70041 0.14056 0.0
H221 H 0.25464 0.69679 0.11349 0.0
C222 C 0.57224 0.30838 0.35157 0.0
C223 C 0.53742 0.30639 0.38904 0.0
C224 C 0.61215 0.4076 0.40983 0.0
C225 C 0.63999 0.41402 0.36685 0.0
N226 N 0.64505 0.37083 0.29532 0.0
N227 N 0.52413 0.35194 0.45553 0.0
C228 C 0.62058 0.36415 0.33766 0.0
C229 C 0.55783 0.3552 0.41907 0.0
N230 N 0.55834 0.25723 0.32877 0.0
N231 N 0.63817 0.45122 0.442 0.0
H232 H 0.48597 0.31253 0.4646 0.0
H233 H 0.53256 0.38848 0.47547 0.0
H234 H 0.67873 0.48958 0.43689 0.0
H235 H 0.62237 0.44691 0.47521 0.0
H236 H 0.5849 0.25495 0.30363 0.0
H237 H 0.52322 0.21578 0.33827 0.0
H238 H 0.62797 0.33765 0.27058 0.0
H239 H 0.6797 0.41111 0.28333 0.0
C240 C 0.29227 0.67091 0.66847 0.0
C241 C 0.26991 0.69581 0.6996 0.0
C242 C 0.2672 0.6302 0.76074 0.0
C243 C 0.28171 0.60004 0.72814 0.0
N244 N 0.32845 0.60293 0.65704 0.0
N245 N 0.25631 0.71537 0.77754 0.0
C246 C 0.30211 0.62504 0.68414 0.0
C247 C 0.2648 0.68114 0.74677 0.0
N248 N 0.29966 0.6878 0.62356 0.0
N249 N 0.25233 0.60757 0.80405 0.0
H250 H 0.25502 0.75324 0.76757 0.0
H251 H 0.25558 0.70951 0.81279 0.0
H252 H 0.2564 0.57157 0.81483 0.0
H253 H 0.23505 0.62318 0.82858 0.0
H254 H 0.30915 0.6664 0.59791 0.0
H255 H 0.29411 0.72239 0.61165 0.0
H256 H 0.34778 0.62145 0.62564 0.0
H257 H 0.33563 0.56912 0.66821 0.0
C258 C 0.68625 0.35857 0.07198 0.0
C259 C 0.72003 0.35339 0.03712 0.0
C260 C 0.65847 0.35952 0.97828 0.0
C261 C 0.61862 0.35231 1.01309 0.0
N262 N 0.60212 0.36801 0.09094 0.0
N263 N 0.75353 0.37256 0.95951 0.0
C264 C 0.63605 0.3611 0.0594 0.0
C265 C 0.71173 0.3633 0.99092 0.0
N266 N 0.69968 0.35585 0.11656 0.0
N267 N 0.64283 0.35755 0.93366 0.0
H268 H 0.79243 0.37505 0.96939 0.0
H269 H 0.75187 0.38217 0.92519 0.0
H270 H 0.60417 0.35609 0.9246 0.0
H271 H 0.66717 0.35663 0.90613 0.0
H272 H 0.67384 0.35355 0.14414 0.0
H273 H 0.73738 0.3553 0.12555 0.0
H274 H 0.61262 0.37654 0.12537 0.0
H275 H 0.56512 0.36949 0.08119 0.0
C276 C 0.17379 0.21233 0.3144 0.0
C277 C 0.1633 0.24076 0.35098 0.0
C278 C 0.19465 0.19099 0.40549 0.0
C279 C 0.21511 0.1717 0.36869 0.0
N280 N 0.23127 0.17125 0.28692 0.0
N281 N 0.17191 0.2645 0.43165 0.0
C282 C 0.20573 0.18323 0.32268 0.0
C283 C 0.17496 0.23139 0.3968 0.0
N284 N 0.15366 0.21361 0.27174 0.0
N285 N 0.19491 0.17129 0.44878 0.0
H286 H 0.16063 0.29695 0.42685 0.0
H287 H 0.18613 0.26398 0.4647 0.0
H288 H 0.20928 0.14154 0.45584 0.0
H289 H 0.17555 0.1796 0.47656 0.0
H290 H 0.155 0.18859 0.24457 0.0
H291 H 0.13048 0.23519 0.26477 0.0
H292 H 0.23159 0.18562 0.25359 0.0
H293 H 0.25665 0.15165 0.29062 0.0
C294 C 0.97555 0.18929 0.69046 0.0
C295 C 0.94284 0.2182 0.68518 0.0
C296 C 0.0287 0.31268 0.70596 0.0
C297 C 0.05871 0.28254 0.71827 0.0
N298 N 0.0552 0.18898 0.73016 0.0
N299 N 0.93472 0.304 0.70624 0.0
C300 C 0.03038 0.21971 0.71297 0.0
C301 C 0.96813 0.27888 0.69823 0.0
N302 N 0.95507 0.13355 0.6731 0.0
N303 N 0.05753 0.3729 0.69862 0.0
H304 H 0.88937 0.27987 0.70653 0.0
H305 H 0.95224 0.34707 0.71908 0.0
H306 H 0.10273 0.3999 0.6987 0.0
H307 H 0.03647 0.39462 0.68615 0.0
H308 H 0.97965 0.11267 0.67258 0.0
H309 H 0.91606 0.11092 0.65495 0.0
H310 H 0.03397 0.14256 0.73057 0.0
H311 H 0.09429 0.20969 0.74833 0.0
C312 C 0.74243 0.03679 0.08305 0.0
C313 C 0.72533 0.07463 0.06236 0.0
C314 C 0.66626 0.997 1.00631 0.0
C315 C 0.68326 0.95909 0.0271 0.0
N316 N 0.72929 0.93843 0.09041 0.0
N317 N 0.66298 0.08822 1.00968 0.0
C318 C 0.7191 0.97773 0.06691 0.0
C319 C 0.68427 0.05371 1.02593 0.0
N320 N 0.78268 0.05841 0.11746 0.0
N321 N 0.63534 0.97982 0.96644 0.0
H322 H 0.67563 0.13042 1.02208 0.0
H323 H 0.62885 0.07326 0.98649 0.0
H324 H 0.62204 0.93876 0.95113 0.0
H325 H 0.62686 0.00761 0.9464 0.0
H326 H 0.8042 0.03713 0.12957 0.0
H327 H 0.7965 0.09958 0.13282 0.0
H328 H 0.74821 0.94677 0.12265 0.0
H329 H 0.71478 0.89513 0.07983 0.0
C330 C 0.66169 0.67764 0.37745 0.0
C331 C 0.69168 0.73005 0.40401 0.0
C332 C 0.78112 0.7599 0.36088 0.0
C333 C 0.75124 0.70795 0.33363 0.0
N334 N 0.65801 0.63193 0.30483 0.0
N335 N 0.7835 0.8076 0.43234 0.0
C336 C 0.68988 0.6707 0.33869 0.0
C337 C 0.75289 0.76637 0.39952 0.0
N338 N 0.60745 0.63333 0.39053 0.0
N339 N 0.83516 0.80479 0.34778 0.0
H340 H 0.76274 0.81175 0.46126 0.0
H341 H 0.82897 0.83253 0.43308 0.0
H342 H 0.85418 0.80338 0.3169 0.0
H343 H 0.85735 0.84575 0.36433 0.0
H344 H 0.58519 0.59223 0.37419 0.0
H345 H 0.58878 0.63474 0.42155 0.0
H346 H 0.61255 0.60684 0.30521 0.0
H347 H 0.67667 0.63163 0.27349 0.0
C348 C 0.00681 0.68709 0.66814 0.0
C349 C 0.0302 0.74363 0.64662 0.0
C350 C 0.96543 0.76398 0.69243 0.0
C351 C 0.94203 0.70758 0.71414 0.0
N352 N 0.95938 0.62867 0.73589 0.0
N353 N 0.01602 0.82467 0.62627 0.0
C354 C 0.96822 0.67277 0.7059 0.0
C355 C 0.00401 0.7783 0.65492 0.0
N356 N 0.01874 0.64583 0.6509 0.0
N357 N 0.95315 0.80505 0.70963 0.0
H358 H 0.04285 0.83411 0.59757 0.0
H359 H -0.00526 0.8489 0.6282 0.0
H360 H 0.92904 0.79707 0.73974 0.0
H361 H 0.97253 0.84874 0.6975 0.0
H362 H -0.0005 0.60233 0.66345 0.0
H363 H 0.04087 0.65253 0.61997 0.0
H364 H 0.98094 0.60476 0.73335 0.0
H365 H 0.93727 0.62237 0.7668 0.0
C366 C 0.28047 0.03569 0.96781 0.0
C367 C 0.33482 0.0734 0.98882 0.0
C368 C 0.3154 0.99537 0.04557 0.0
C369 C 0.26118 0.95751 1.02435 0.0
N370 N 0.19578 0.93736 0.96046 0.0
N371 N 0.40941 0.08686 0.04274 0.0
C372 C 0.24467 0.97648 0.98414 0.0
C373 C 0.35421 0.05231 1.02591 0.0
N374 N 0.26242 0.05754 0.9329 0.0
N375 N 0.32831 0.97787 0.08585 0.0
H376 H 0.43897 0.12932 0.03049 0.0
H377 H 0.42817 0.0718 0.06643 0.0
H378 H 0.30045 0.93661 0.10116 0.0
H379 H 0.36394 0.00555 0.10617 0.0
H380 H 0.21995 0.03629 0.92044 0.0
H381 H 0.28987 0.09886 0.91746 0.0
H382 H 0.18578 0.9459 0.92799 0.0
H383 H 0.16691 0.89403 0.97124 0.0
C384 C 0.92411 0.3135 0.19722 0.0
C385 C 0.95807 0.3209 0.15733 0.0
C386 C 0.04271 0.34721 0.20591 0.0
C387 C 0.01036 0.34537 0.2454 0.0
N388 N 0.92515 0.34401 0.27544 0.0
N389 N 0.05435 0.36349 0.12418 0.0
C390 C 0.95264 0.33417 0.24001 0.0
C391 C 0.01893 0.34399 0.16186 0.0
N392 N 0.86449 0.28306 0.19548 0.0
N393 N 0.09396 0.34732 0.20985 0.0
H394 H 0.03884 0.36416 0.0916 0.0
H395 H 0.09975 0.38538 0.12628 0.0
H396 H 0.11124 0.34422 0.24091 0.0
H397 H 0.11573 0.34303 0.18179 0.0
H398 H 0.83836 0.27174 0.22467 0.0
H399 H 0.84077 0.26314 0.16604 0.0
H400 H 0.88495 0.34146 0.27191 0.0
H401 H 0.94552 0.36142 0.30664 0.0
C402 C 0.6453 0.95078 0.58458 0.0
C403 C 0.68764 0.0124 0.58729 0.0
C404 C 0.69085 0.01749 0.50334 0.0
C405 C 0.65773 0.95439 0.50106 0.0
N406 N 0.61137 0.85992 0.54192 0.0
N407 N 0.75914 0.1024 0.54766 0.0
C408 C 0.63639 0.92056 0.54226 0.0
C409 C 0.71231 0.04557 0.54625 0.0
N410 N 0.61289 0.92112 0.62223 0.0
N411 N 0.7015 0.05081 0.46449 0.0
H412 H 0.77951 0.12405 0.57777 0.0
H413 H 0.78201 0.12577 0.51849 0.0
H414 H 0.68496 0.03167 0.43272 0.0
H415 H 0.72092 0.09709 0.46481 0.0
H416 H 0.5777 0.8775 0.62104 0.0
H417 H 0.61695 0.94225 0.65336 0.0
H418 H 0.60106 0.8344 0.57172 0.0
H419 H 0.60627 0.8354 0.51253 0.0
C420 C 0.70141 0.677 0.90485 0.0
C421 C 0.67113 0.70874 0.90686 0.0
C422 C 0.65617 0.69671 0.8236 0.0
C423 C 0.69459 0.67405 0.82082 0.0
N424 N 0.76149 0.65139 0.85941 0.0
N425 N 0.62689 0.75676 0.86615 0.0
C426 C 0.71883 0.66585 0.86165 0.0
C427 C 0.64979 0.72019 0.86576 0.0
N428 N 0.71276 0.65655 0.94428 0.0
N429 N 0.62496 0.69497 0.78603 0.0
H430 H 0.62296 0.77679 0.8956 0.0
H431 H 0.61688 0.77189 0.83648 0.0
H432 H 0.62783 0.67713 0.75493 0.0
H433 H 0.59195 0.70532 0.78707 0.0
H434 H 0.72949 0.62805 0.94472 0.0
H435 H 0.69963 0.6629 0.97636 0.0
H436 H 0.78511 0.65154 0.8878 0.0
H437 H 0.77754 0.64487 0.82884 0.0
C438 C 0.9596 0.67471 0.14527 0.0
C439 C 0.02147 0.70482 0.14369 0.0
C440 C 0.02217 0.68971 0.22684 0.0
C441 C 0.96155 0.66921 0.22928 0.0
N442 N 0.87418 0.6519 0.19004 0.0
N443 N 0.11263 0.74904 0.18519 0.0
C444 C 0.93041 0.66359 0.18825 0.0
C445 C 0.05314 0.71392 0.185 0.0
N446 N 0.92847 0.65588 0.10565 0.0
N447 N 0.05014 0.68531 0.26443 0.0
H448 H 0.13744 0.76971 0.15606 0.0
H449 H 0.13707 0.76245 0.21511 0.0
H450 H 0.02852 0.66674 0.29525 0.0
H451 H 0.09298 0.69411 0.26355 0.0
H452 H 0.88318 0.62859 0.10497 0.0
H453 H 0.94838 0.66211 0.07371 0.0
H454 H 0.85203 0.65398 0.16143 0.0
H455 H 0.85135 0.64611 0.2204 0.0
C456 C 0.35962 0.03645 0.49988 0.0
C457 C 0.32834 0.0025 0.46118 0.0
C458 C 0.26858 0.91619 0.51072 0.0
C459 C 0.29297 0.95276 0.54993 0.0
N460 N 0.36409 0.04682 0.58259 0.0
N461 N 0.27976 0.90352 0.4301 0.0
C462 C 0.33967 0.01257 0.54471 0.0
C463 C 0.29096 0.94017 0.46664 0.0
N464 N 0.41101 0.08891 0.49365 0.0
N465 N 0.22102 0.86001 0.51493 0.0
H466 H 0.30094 0.91956 0.39874 0.0
H467 H 0.25671 0.85716 0.43265 0.0
H468 H 0.20155 0.84055 0.54611 0.0
H469 H 0.19746 0.83456 0.48697 0.0
H470 H 0.43804 0.11452 0.52016 0.0
H471 H 0.43094 0.10248 0.46167 0.0
H472 H 0.3928 0.09269 0.58139 0.0
H473 H 0.3536 0.02953 0.61573 0.0
C474 C 0.36855 0.31285 0.85329 0.0
C475 C 0.34673 0.32302 0.89468 0.0
C476 C 0.29096 0.3569 0.85009 0.0
C477 C 0.31663 0.35165 0.80889 0.0
N478 N 0.3924 0.34033 0.77359 0.0
N479 N 0.30134 0.37168 0.93189 0.0
C480 C 0.35952 0.3347 0.81125 0.0
C481 C 0.31262 0.35067 0.89284 0.0
N482 N 0.39433 0.27892 0.8532 0.0
N483 N 0.24305 0.36329 0.84895 0.0
H484 H 0.31813 0.36965 0.9636 0.0
H485 H 0.28112 0.39703 0.93179 0.0
H486 H 0.22222 0.36347 0.81895 0.0
H487 H 0.21973 0.36133 0.87822 0.0
H488 H 0.40523 0.26528 0.82323 0.0
H489 H 0.39933 0.259 0.88239 0.0
H490 H 0.4279 0.33376 0.7746 0.0
H491 H 0.38833 0.35801 0.74271 0.0
C492 C 0.19561 0.45752 0.50806 0.0
C493 C 0.15093 0.40227 0.49075 0.0
C494 C 0.16099 0.35049 0.55728 0.0
C495 C 0.21005 0.40505 0.57178 0.0
N496 N 0.27757 0.50953 0.55981 0.0
N497 N 0.09189 0.29519 0.49731 0.0
C498 C 0.22828 0.45838 0.54677 0.0
C499 C 0.13326 0.34852 0.51526 0.0
N500 N 0.20581 0.50912 0.48742 0.0
N501 N 0.13969 0.30086 0.58451 0.0
H502 H 0.06827 0.29192 0.46802 0.0
H503 H 0.08295 0.25396 0.50996 0.0
H504 H 0.16105 0.29913 0.61377 0.0
H505 H 0.09948 0.26229 0.57947 0.0
H506 H 0.23476 0.55156 0.49973 0.0
H507 H 0.18065 0.50892 0.46002 0.0
H508 H 0.29632 0.54925 0.54126 0.0
H509 H 0.30271 0.5107 0.58756 0.0
C510 C 0.83636 0.17765 0.89584 0.0
C511 C 0.83286 0.22828 0.90898 0.0
C512 C 0.76913 0.21266 0.84397 0.0
C513 C 0.77795 0.16666 0.82777 0.0
N514 N 0.82912 0.11241 0.83427 0.0
N515 N 0.80628 0.30133 0.89028 0.0
C516 C 0.814 0.15087 0.85261 0.0
C517 C 0.80256 0.2481 0.88115 0.0
N518 N 0.85834 0.15321 0.92529 0.0
N519 N 0.72788 0.22167 0.82399 0.0
H520 H 0.83212 0.32894 0.91668 0.0
H521 H 0.78904 0.32069 0.86905 0.0
H522 H 0.70122 0.19443 0.79779 0.0
H523 H 0.71596 0.25139 0.83649 0.0
H524 H 0.85505 0.11213 0.91964 0.0
H525 H 0.87631 0.17176 0.95684 0.0
H526 H 0.86095 0.10521 0.84842 0.0
H527 H 0.81288 0.09074 0.80328 0.0
C528 C 0.68286 0.80761 0.23686 0.0
C529 C 0.65442 0.83894 0.25035 0.0
C530 C 0.62625 0.83965 0.17128 0.0
C531 C 0.64424 0.79808 0.15944 0.0
N532 N 0.68952 0.74193 0.18153 0.0
N533 N 0.59617 0.8824 0.231 0.0
C534 C 0.67358 0.78271 0.19218 0.0
C535 C 0.62624 0.85526 0.2176 0.0
N536 N 0.71827 0.8014 0.26732 0.0
N537 N 0.61053 0.86573 0.1381 0.0
H538 H 0.59709 0.89694 0.26428 0.0
H539 H 0.56749 0.88728 0.20975 0.0
H540 H 0.61117 0.85721 0.10362 0.0
H541 H 0.60355 0.901 0.14423 0.0
H542 H 0.74433 0.78362 0.25885 0.0
H543 H 0.72566 0.81955 0.30008 0.0
H544 H 0.7053 0.7239 0.20541 0.0
H545 H 0.68312 0.72286 0.14923 0.0
C546 C 0.78609 0.5775 0.50284 0.0
C547 C 0.82574 0.63161 0.48044 0.0
C548 C 0.82367 0.68707 0.54761 0.0
C549 C 0.77907 0.6329 0.56745 0.0
N550 N 0.70835 0.52889 0.55874 0.0
N551 N 0.87582 0.73899 0.47844 0.0
C552 C 0.75729 0.57888 0.5432 0.0
C553 C 0.84293 0.68689 0.502 0.0
N554 N 0.77654 0.52465 0.48553 0.0
N555 N 0.84917 0.73811 0.57283 0.0
H556 H 0.89214 0.74038 0.44571 0.0
H557 H 0.88397 0.78017 0.49035 0.0
H558 H 0.83486 0.74019 0.60561 0.0
H559 H 0.88642 0.77722 0.56218 0.0
H560 H 0.75169 0.48389 0.50229 0.0
H561 H 0.79808 0.52255 0.45635 0.0
H562 H 0.68762 0.48894 0.54082 0.0
H563 H 0.68567 0.52929 0.5878 0.0
C564 C 0.09803 0.7854 0.85916 0.0
C565 C 0.1421 0.79922 0.89201 0.0
C566 C 0.21813 0.85783 0.83439 0.0
C567 C 0.17428 0.84373 0.80165 0.0
N568 N 0.07329 0.80722 0.7844 0.0
N569 N 0.24313 0.86528 0.91386 0.0
C570 C 0.11436 0.81206 0.81482 0.0
C571 C 0.20182 0.84064 0.88052 0.0
N572 N 0.04121 0.74449 0.8694 0.0
N573 N 0.27536 0.88438 0.82114 0.0
H574 H 0.23351 0.85587 0.94827 0.0
H575 H 0.2855 0.90041 0.90797 0.0
H576 H 0.28961 0.89985 0.78801 0.0
H577 H 0.30825 0.8876 0.84234 0.0
H578 H 0.0078 0.72759 0.84541 0.0
H579 H 0.02805 0.72413 0.90142 0.0
H580 H 0.02931 0.78894 0.79258 0.0
H581 H 0.0845 0.82677 0.75194 0.0
C582 C 0.42581 0.2131 0.21001 0.0
C583 C 0.37158 0.16364 0.22385 0.0
C584 C 0.32777 0.17027 0.15199 0.0
C585 C 0.38023 0.22434 0.14117 0.0
N586 N 0.47614 0.30213 0.16299 0.0
N587 N 0.26859 0.09821 0.21033 0.0
C588 C 0.42831 0.24722 0.1713 0.0
C589 C 0.32188 0.14274 0.19538 0.0
N590 N 0.47513 0.22662 0.2338 0.0
N591 N 0.28464 0.14354 0.12011 0.0
H592 H 0.26278 0.07495 0.24079 0.0
H593 H 0.22964 0.08674 0.19379 0.0
H594 H 0.28614 0.16271 0.08844 0.0
H595 H 0.24905 0.10045 0.12389 0.0
H596 H 0.517 0.25916 0.22356 0.0
H597 H 0.47433 0.20055 0.26129 0.0
H598 H 0.51082 0.32371 0.18564 0.0
H599 H 0.47828 0.32861 0.13531 0.0
loop_
_geom_bond_atom_site_label_1
_geom_bond_atom_site_label_2
_geom_bond_distance
_geom_bond_site_symmetry_2
_ccdc_geom_bond_type
O0 Cd1 2.223 . S
O0 C8 1.315 . S
Cd1 O0 2.223 . S
Cd1 O4 2.297 . S
Cd1 O5 2.439 . S
Cd1 O11 2.240 . S
Cd2 O3 2.240 . S
Cd2 O10 2.223 . S
Cd2 O12 2.297 . S
Cd2 O13 2.439 . S
O3 Cd2 2.240 . S
O3 C8 1.279 . S
O4 Cd1 2.297 . S
O4 C6 1.247 . S
O5 Cd1 2.439 . S
O5 C6 1.208 . S
C6 O4 1.247 . S
C6 O5 1.208 . S
C7 O12 1.247 . S
C7 O13 1.208 . S
C8 O0 1.315 . S
C8 O3 1.279 . S
C9 O10 1.315 . S
C9 O11 1.279 . S
O10 Cd2 2.223 . S
O10 C9 1.315 . S
O11 Cd1 2.240 . S
O11 C9 1.279 . S
O12 Cd2 2.297 . S
O12 C7 1.247 . S
O13 Cd2 2.439 . S
O13 C7 1.208 . S
O14 Cd15 2.223 . S
O14 C22 1.315 . S
Cd15 O14 2.223 . S
Cd15 O18 2.297 . S
Cd15 O19 2.439 . S
Cd15 O25 2.240 . S
Cd16 O17 2.240 . S
Cd16 O24 2.223 . S
Cd16 O26 2.297 . S
Cd16 O27 2.439 . S
O17 Cd16 2.240 . S
O17 C22 1.279 . S
O18 Cd15 2.297 . S
O18 C20 1.247 . S
O19 Cd15 2.439 . S
O19 C20 1.208 . S
C20 O18 1.247 . S
C20 O19 1.208 . S
C21 O26 1.247 . S
C21 O27 1.208 . S
C22 O14 1.315 . S
C22 O17 1.279 . S
C23 O24 1.315 . S
C23 O25 1.279 . S
O24 Cd16 2.223 . S
O24 C23 1.315 . S
O25 Cd15 2.240 . S
O25 C23 1.279 . S
O26 Cd16 2.297 . S
O26 C21 1.247 . S
O27 Cd16 2.439 . S
O27 C21 1.208 . S
O28 Cd29 2.223 . S
O28 C36 1.315 . S
Cd29 O28 2.223 . S
Cd29 O32 2.297 . S
Cd29 O33 2.439 1_554 S
Cd29 O39 2.240 1_554 S
Cd30 O31 2.240 . S
Cd30 O38 2.223 . S
Cd30 O40 2.297 1_554 S
Cd30 O41 2.439 1_554 S
O31 Cd30 2.240 . S
O31 C36 1.279 . S
O32 Cd29 2.297 . S
O32 C34 1.247 . S
O33 Cd29 2.439 1_556 S
O33 C34 1.208 1_556 S
C34 O32 1.247 . S
C34 O33 1.208 1_554 S
C35 O40 1.247 . S
C35 O41 1.208 . S
C36 O28 1.315 . S
C36 O31 1.279 . S
C37 O38 1.314 1_556 S
C37 O39 1.281 . S
O38 Cd30 2.223 . S
O38 C37 1.314 1_554 S
O39 Cd29 2.240 1_556 S
O39 C37 1.281 . S
O40 Cd30 2.297 1_556 S
O40 C35 1.247 . S
O41 Cd30 2.439 1_556 S
O41 C35 1.208 . S
O42 Cd43 2.223 . S
O42 C50 1.315 . S
Cd43 O42 2.223 . S
Cd43 O46 2.297 . S
Cd43 O47 2.439 . S
Cd43 O53 2.240 . S
Cd44 O45 2.240 . S
Cd44 O52 2.223 . S
Cd44 O54 2.297 . S
Cd44 O55 2.439 . S
O45 Cd44 2.240 . S
O45 C50 1.279 . S
O46 Cd43 2.297 . S
O46 C48 1.247 . S
O47 Cd43 2.439 . S
O47 C48 1.208 . S
C48 O46 1.247 . S
C48 O47 1.208 . S
C49 O54 1.247 . S
C49 O55 1.208 . S
C50 O42 1.315 . S
C50 O45 1.279 . S
C51 O52 1.315 . S
C51 O53 1.279 . S
O52 Cd44 2.223 . S
O52 C51 1.315 . S
O53 Cd43 2.240 . S
O53 C51 1.279 . S
O54 Cd44 2.297 . S
O54 C49 1.247 . S
O55 Cd44 2.439 . S
O55 C49 1.208 . S
O56 Cd57 2.223 . S
O56 C64 1.315 . S
Cd57 O56 2.223 . S
Cd57 O60 2.297 . S
Cd57 O61 2.439 . S
Cd57 O67 2.240 . S
Cd58 O59 2.240 . S
Cd58 O66 2.223 . S
Cd58 O68 2.297 . S
Cd58 O69 2.439 . S
O59 Cd58 2.240 . S
O59 C64 1.279 . S
O60 Cd57 2.297 . S
O60 C62 1.247 . S
O61 Cd57 2.439 . S
O61 C62 1.208 . S
C62 O60 1.247 . S
C62 O61 1.208 . S
C63 O68 1.247 . S
C63 O69 1.208 . S
C64 O56 1.315 . S
C64 O59 1.279 . S
C65 O66 1.315 . S
C65 O67 1.279 . S
O66 Cd58 2.223 . S
O66 C65 1.315 . S
O67 Cd57 2.240 . S
O67 C65 1.279 . S
O68 Cd58 2.297 . S
O68 C63 1.247 . S
O69 Cd58 2.439 . S
O69 C63 1.208 . S
O70 Cd71 2.223 . S
O70 C78 1.315 . S
Cd71 O70 2.223 . S
Cd71 O74 2.297 . S
Cd71 O75 2.439 1_554 S
Cd71 O81 2.240 1_554 S
Cd72 O73 2.240 . S
Cd72 O80 2.223 . S
Cd72 O82 2.297 1_554 S
Cd72 O83 2.439 1_554 S
O73 Cd72 2.240 . S
O73 C78 1.279 . S
O74 Cd71 2.297 . S
O74 C76 1.247 . S
O75 Cd71 2.439 1_556 S
O75 C76 1.208 1_556 S
C76 O74 1.247 . S
C76 O75 1.208 1_554 S
C77 O82 1.247 . S
C77 O83 1.208 . S
C78 O70 1.315 . S
C78 O73 1.279 . S
C79 O80 1.314 1_556 S
C79 O81 1.281 . S
O80 Cd72 2.223 . S
O80 C79 1.314 1_554 S
O81 Cd71 2.240 1_556 S
O81 C79 1.281 . S
O82 Cd72 2.297 1_556 S
O82 C77 1.247 . S
O83 Cd72 2.439 1_556 S
O83 C77 1.208 . S
O84 Cd85 2.223 . S
O84 C92 1.315 . S
Cd85 O84 2.223 . S
Cd85 O88 2.297 . S
Cd85 O89 2.439 . S
Cd85 O95 2.240 . S
Cd86 O87 2.240 . S
Cd86 O94 2.223 . S
Cd86 O96 2.297 . S
Cd86 O97 2.439 . S
O87 Cd86 2.240 . S
O87 C92 1.279 . S
O88 Cd85 2.297 . S
O88 C90 1.247 . S
O89 Cd85 2.439 . S
O89 C90 1.208 . S
C90 O88 1.247 . S
C90 O89 1.208 . S
C91 O96 1.247 . S
C91 O97 1.208 . S
C92 O84 1.315 . S
C92 O87 1.279 . S
C93 O94 1.315 . S
C93 O95 1.279 . S
O94 Cd86 2.223 . S
O94 C93 1.315 . S
O95 Cd85 2.240 . S
O95 C93 1.279 . S
O96 Cd86 2.297 . S
O96 C91 1.247 . S
O97 Cd86 2.439 . S
O97 C91 1.208 . S
O98 Cd99 2.223 . S
O98 C106 1.315 . S
Cd99 O98 2.223 . S
Cd99 O102 2.297 . S
Cd99 O103 2.439 . S
Cd99 O109 2.240 . S
Cd100 O101 2.240 . S
Cd100 O108 2.223 . S
Cd100 O110 2.297 . S
Cd100 O111 2.439 . S
O101 Cd100 2.240 . S
O101 C106 1.279 . S
O102 Cd99 2.297 . S
O102 C104 1.247 . S
O103 Cd99 2.439 . S
O103 C104 1.208 . S
C104 O102 1.247 . S
C104 O103 1.208 . S
C105 O110 1.247 . S
C105 O111 1.208 . S
C106 O98 1.315 . S
C106 O101 1.279 . S
C107 O108 1.315 . S
C107 O109 1.279 . S
O108 Cd100 2.223 . S
O108 C107 1.315 . S
O109 Cd99 2.240 . S
O109 C107 1.279 . S
O110 Cd100 2.297 . S
O110 C105 1.247 . S
O111 Cd100 2.439 . S
O111 C105 1.208 . S
O112 Cd113 2.223 . S
O112 C120 1.315 . S
Cd113 O112 2.223 . S
Cd113 O116 2.297 . S
Cd113 O117 2.439 1_556 S
Cd113 O123 2.240 1_556 S
Cd114 O115 2.240 . S
Cd114 O122 2.223 . S
Cd114 O124 2.297 1_556 S
Cd114 O125 2.439 1_556 S
O115 Cd114 2.240 . S
O115 C120 1.279 . S
O116 Cd113 2.297 . S
O116 C118 1.247 . S
O117 Cd113 2.439 1_554 S
O117 C118 1.208 1_554 S
C118 O116 1.247 . S
C118 O117 1.208 1_556 S
C119 O124 1.247 . S
C119 O125 1.208 . S
C120 O112 1.315 . S
C120 O115 1.279 . S
C121 O122 1.314 1_554 S
C121 O123 1.281 . S
O122 Cd114 2.223 . S
O122 C121 1.314 1_556 S
O123 Cd113 2.240 1_554 S
O123 C121 1.281 . S
O124 Cd114 2.297 1_554 S
O124 C119 1.247 . S
O125 Cd114 2.439 1_554 S
O125 C119 1.208 . S
O126 Cd127 2.223 . S
O126 C134 1.315 . S
Cd127 O126 2.223 . S
Cd127 O130 2.297 . S
Cd127 O131 2.439 . S
Cd127 O137 2.240 . S
Cd128 O129 2.240 . S
Cd128 O136 2.223 . S
Cd128 O138 2.297 . S
Cd128 O139 2.439 . S
O129 Cd128 2.240 . S
O129 C134 1.279 . S
O130 Cd127 2.297 . S
O130 C132 1.247 . S
O131 Cd127 2.439 . S
O131 C132 1.208 . S
C132 O130 1.247 . S
C132 O131 1.208 . S
C133 O138 1.247 . S
C133 O139 1.208 . S
C134 O126 1.315 . S
C134 O129 1.279 . S
C135 O136 1.315 . S
C135 O137 1.279 . S
O136 Cd128 2.223 . S
O136 C135 1.315 . S
O137 Cd127 2.240 . S
O137 C135 1.279 . S
O138 Cd128 2.297 . S
O138 C133 1.247 . S
O139 Cd128 2.439 . S
O139 C133 1.208 . S
O140 Cd141 2.223 . S
O140 C148 1.315 . S
Cd141 O140 2.223 . S
Cd141 O144 2.297 . S
Cd141 O145 2.439 . S
Cd141 O151 2.240 . S
Cd142 O143 2.240 . S
Cd142 O150 2.223 . S
Cd142 O152 2.297 . S
Cd142 O153 2.439 . S
O143 Cd142 2.240 . S
O143 C148 1.279 . S
O144 Cd141 2.297 . S
O144 C146 1.247 . S
O145 Cd141 2.439 . S
O145 C146 1.208 . S
C146 O144 1.247 . S
C146 O145 1.208 . S
C147 O152 1.247 . S
C147 O153 1.208 . S
C148 O140 1.315 . S
C148 O143 1.279 . S
C149 O150 1.315 . S
C149 O151 1.279 . S
O150 Cd142 2.223 . S
O150 C149 1.315 . S
O151 Cd141 2.240 . S
O151 C149 1.279 . S
O152 Cd142 2.297 . S
O152 C147 1.247 . S
O153 Cd142 2.439 . S
O153 C147 1.208 . S
O154 Cd155 2.223 . S
O154 C162 1.315 . S
Cd155 O154 2.223 . S
Cd155 O158 2.297 . S
Cd155 O159 2.439 1_556 S
Cd155 O165 2.240 1_556 S
Cd156 O157 2.240 . S
Cd156 O164 2.223 . S
Cd156 O166 2.297 1_556 S
Cd156 O167 2.439 1_556 S
O157 Cd156 2.240 . S
O157 C162 1.279 . S
O158 Cd155 2.297 . S
O158 C160 1.247 . S
O159 Cd155 2.439 1_554 S
O159 C160 1.208 1_554 S
C160 O158 1.247 . S
C160 O159 1.208 1_556 S
C161 O166 1.247 . S
C161 O167 1.208 . S
C162 O154 1.315 . S
C162 O157 1.279 . S
C163 O164 1.314 1_554 S
C163 O165 1.281 . S
O164 Cd156 2.223 . S
O164 C163 1.314 1_556 S
O165 Cd155 2.240 1_554 S
O165 C163 1.281 . S
O166 Cd156 2.297 1_554 S
O166 C161 1.247 . S
O167 Cd156 2.439 1_554 S
O167 C161 1.208 . S
C168 C169 1.363 . S
C168 C174 1.379 . S
C168 N176 1.356 . S
C169 C168 1.363 . S
C169 C175 1.363 . S
C170 C171 1.363 . S
C170 C175 1.379 . S
C170 N177 1.356 . S
C171 C170 1.363 . S
C171 C174 1.363 . S
N172 C174 1.356 . S
N172 H184 0.984 . S
N172 H185 0.985 . S
N173 C175 1.356 . S
N173 H178 0.984 . S
N173 H179 0.985 . S
C174 C168 1.379 . S
C174 C171 1.363 . S
C174 N172 1.356 . S
C175 C169 1.363 . S
C175 C170 1.379 . S
C175 N173 1.356 . S
N176 C168 1.356 . S
N176 H182 0.984 . S
N176 H183 0.984 . S
N177 C170 1.356 . S
N177 H180 0.984 . S
N177 H181 0.985 . S
H178 N173 0.984 . S
H179 N173 0.985 . S
H180 N177 0.984 . S
H181 N177 0.985 . S
H182 N176 0.984 . S
H183 N176 0.984 . S
H184 N172 0.984 . S
H185 N172 0.985 . S
C186 C187 1.363 . S
C186 C192 1.379 . S
C186 N194 1.356 . S
C187 C186 1.363 . S
C187 C193 1.363 . S
C188 C189 1.363 . S
C188 C193 1.379 . S
C188 N195 1.356 . S
C189 C188 1.363 . S
C189 C192 1.363 . S
N190 C192 1.356 . S
N190 H202 0.984 . S
N190 H203 0.985 . S
N191 C193 1.356 . S
N191 H196 0.984 . S
N191 H197 0.985 . S
C192 C186 1.379 . S
C192 C189 1.363 . S
C192 N190 1.356 . S
C193 C187 1.363 . S
C193 C188 1.379 . S
C193 N191 1.356 . S
N194 C186 1.356 . S
N194 H200 0.984 . S
N194 H201 0.984 . S
N195 C188 1.356 . S
N195 H198 0.984 . S
N195 H199 0.985 . S
H196 N191 0.984 . S
H197 N191 0.985 . S
H198 N195 0.984 . S
H199 N195 0.985 . S
H200 N194 0.984 . S
H201 N194 0.984 . S
H202 N190 0.984 . S
H203 N190 0.985 . S
C204 C205 1.369 . S
C204 C210 1.379 . S
C204 N212 1.356 . S
C205 C204 1.369 . S
C205 C211 1.357 1_554 S
C206 C207 1.373 . S
C206 C211 1.379 . S
C206 N213 1.356 . S
C207 C206 1.373 . S
C207 C210 1.353 1_556 S
N208 C210 1.356 . S
N208 H220 0.984 . S
N208 H221 0.985 . S
N209 C211 1.356 . S
N209 H214 0.984 . S
N209 H215 0.985 . S
C210 C204 1.379 . S
C210 C207 1.353 1_554 S
C210 N208 1.356 . S
C211 C205 1.357 1_556 S
C211 C206 1.379 . S
C211 N209 1.356 . S
N212 C204 1.356 . S
N212 H218 0.984 . S
N212 H219 0.984 . S
N213 C206 1.356 . S
N213 H216 0.984 . S
N213 H217 0.985 . S
H214 N209 0.984 . S
H215 N209 0.985 . S
H216 N213 0.984 . S
H217 N213 0.985 . S
H218 N212 0.984 . S
H219 N212 0.984 . S
H220 N208 0.984 . S
H221 N208 0.985 . S
C222 C223 1.363 . S
C222 C228 1.379 . S
C222 N230 1.356 . S
C223 C222 1.363 . S
C223 C229 1.363 . S
C224 C225 1.363 . S
C224 C229 1.379 . S
C224 N231 1.356 . S
C225 C224 1.363 . S
C225 C228 1.363 . S
N226 C228 1.356 . S
N226 H238 0.984 . S
N226 H239 0.985 . S
N227 C229 1.356 . S
N227 H232 0.984 . S
N227 H233 0.985 . S
C228 C222 1.379 . S
C228 C225 1.363 . S
C228 N226 1.356 . S
C229 C223 1.363 . S
C229 C224 1.379 . S
C229 N227 1.356 . S
N230 C222 1.356 . S
N230 H236 0.984 . S
N230 H237 0.984 . S
N231 C224 1.356 . S
N231 H234 0.984 . S
N231 H235 0.985 . S
H232 N227 0.984 . S
H233 N227 0.985 . S
H234 N231 0.984 . S
H235 N231 0.985 . S
H236 N230 0.984 . S
H237 N230 0.984 . S
H238 N226 0.984 . S
H239 N226 0.985 . S
C240 C241 1.363 . S
C240 C246 1.379 . S
C240 N248 1.356 . S
C241 C240 1.363 . S
C241 C247 1.363 . S
C242 C243 1.363 . S
C242 C247 1.379 . S
C242 N249 1.356 . S
C243 C242 1.363 . S
C243 C246 1.363 . S
N244 C246 1.356 . S
N244 H256 0.984 . S
N244 H257 0.985 . S
N245 C247 1.356 . S
N245 H250 0.984 . S
N245 H251 0.985 . S
C246 C240 1.379 . S
C246 C243 1.363 . S
C246 N244 1.356 . S
C247 C241 1.363 . S
C247 C242 1.379 . S
C247 N245 1.356 . S
N248 C240 1.356 . S
N248 H254 0.984 . S
N248 H255 0.984 . S
N249 C242 1.356 . S
N249 H252 0.984 . S
N249 H253 0.985 . S
H250 N245 0.984 . S
H251 N245 0.985 . S
H252 N249 0.984 . S
H253 N249 0.985 . S
H254 N248 0.984 . S
H255 N248 0.984 . S
H256 N244 0.984 . S
H257 N244 0.985 . S
C258 C259 1.358 1_554 S
C258 C264 1.379 . S
C258 N266 1.356 . S
C259 C258 1.358 1_556 S
C259 C265 1.368 . S
C260 C261 1.355 1_556 S
C260 C265 1.379 . S
C260 N267 1.356 . S
C261 C260 1.355 1_554 S
C261 C264 1.371 . S
N262 C264 1.356 . S
N262 H274 0.984 . S
N262 H275 0.985 . S
N263 C265 1.356 . S
N263 H268 0.984 . S
N263 H269 0.985 . S
C264 C258 1.379 . S
C264 C261 1.371 . S
C264 N262 1.356 . S
C265 C259 1.368 . S
C265 C260 1.379 . S
C265 N263 1.356 . S
N266 C258 1.356 . S
N266 H272 0.984 . S
N266 H273 0.984 . S
N267 C260 1.356 . S
N267 H270 0.984 . S
N267 H271 0.985 . S
H268 N263 0.984 . S
H269 N263 0.985 . S
H270 N267 0.984 . S
H271 N267 0.985 . S
H272 N266 0.984 . S
H273 N266 0.984 . S
H274 N262 0.984 . S
H275 N262 0.985 . S
C276 C277 1.363 . S
C276 C282 1.379 . S
C276 N284 1.356 . S
C277 C276 1.363 . S
C277 C283 1.363 . S
C278 C279 1.363 . S
C278 C283 1.379 . S
C278 N285 1.356 . S
C279 C278 1.363 . S
C279 C282 1.363 . S
N280 C282 1.356 . S
N280 H292 0.984 . S
N280 H293 0.985 . S
N281 C283 1.356 . S
N281 H286 0.984 . S
N281 H287 0.985 . S
C282 C276 1.379 . S
C282 C279 1.363 . S
C282 N280 1.356 . S
C283 C277 1.363 . S
C283 C278 1.379 . S
C283 N281 1.356 . S
N284 C276 1.356 . S
N284 H290 0.984 . S
N284 H291 0.984 . S
N285 C278 1.356 . S
N285 H288 0.984 . S
N285 H289 0.985 . S
H286 N281 0.984 . S
H287 N281 0.985 . S
H288 N285 0.984 . S
H289 N285 0.985 . S
H290 N284 0.984 . S
H291 N284 0.984 . S
H292 N280 0.984 . S
H293 N280 0.985 . S
C294 C295 1.363 . S
C294 C300 1.379 1_655 S
C294 N302 1.356 . S
C295 C294 1.363 . S
C295 C301 1.363 . S
C296 C297 1.363 . S
C296 C301 1.379 1_455 S
C296 N303 1.356 . S
C297 C296 1.363 . S
C297 C300 1.363 . S
N298 C300 1.356 . S
N298 H310 0.984 . S
N298 H311 0.985 . S
N299 C301 1.356 . S
N299 H304 0.984 . S
N299 H305 0.985 . S
C300 C294 1.379 1_455 S
C300 C297 1.363 . S
C300 N298 1.356 . S
C301 C295 1.363 . S
C301 C296 1.379 1_655 S
C301 N299 1.356 . S
N302 C294 1.356 . S
N302 H308 0.984 . S
N302 H309 0.984 . S
N303 C296 1.356 . S
N303 H306 0.984 . S
N303 H307 0.985 . S
H304 N299 0.984 . S
H305 N299 0.985 . S
H306 N303 0.984 . S
H307 N303 0.985 . S
H308 N302 0.984 . S
H309 N302 0.984 . S
H310 N298 0.984 . S
H311 N298 0.985 . S
C312 C313 1.353 1_554 S
C312 C318 1.379 1_545 S
C312 N320 1.356 . S
C313 C312 1.353 1_556 S
C313 C319 1.373 . S
C314 C315 1.349 1_556 S
C314 C319 1.379 1_565 S
C314 N321 1.356 . S
C315 C314 1.349 1_554 S
C315 C318 1.377 . S
N316 C318 1.356 . S
N316 H328 0.984 . S
N316 H329 0.985 . S
N317 C319 1.356 . S
N317 H322 0.984 . S
N317 H323 0.985 . S
C318 C312 1.379 1_565 S
C318 C315 1.377 . S
C318 N316 1.356 . S
C319 C313 1.373 . S
C319 C314 1.379 1_545 S
C319 N317 1.356 . S
N320 C312 1.356 . S
N320 H326 0.984 . S
N320 H327 0.984 . S
N321 C314 1.356 . S
N321 H324 0.984 . S
N321 H325 0.985 . S
H322 N317 0.984 . S
H323 N317 0.985 . S
H324 N321 0.984 . S
H325 N321 0.985 . S
H326 N320 0.984 . S
H327 N320 0.984 . S
H328 N316 0.984 . S
H329 N316 0.985 . S
C330 C331 1.363 . S
C330 C336 1.379 . S
C330 N338 1.356 . S
C331 C330 1.363 . S
C331 C337 1.363 . S
C332 C333 1.363 . S
C332 C337 1.379 . S
C332 N339 1.356 . S
C333 C332 1.363 . S
C333 C336 1.363 . S
N334 C336 1.356 . S
N334 H346 0.984 . S
N334 H347 0.985 . S
N335 C337 1.356 . S
N335 H340 0.984 . S
N335 H341 0.985 . S
C336 C330 1.379 . S
C336 C333 1.363 . S
C336 N334 1.356 . S
C337 C331 1.363 . S
C337 C332 1.379 . S
C337 N335 1.356 . S
N338 C330 1.356 . S
N338 H344 0.984 . S
N338 H345 0.984 . S
N339 C332 1.356 . S
N339 H342 0.984 . S
N339 H343 0.985 . S
H340 N335 0.984 . S
H341 N335 0.985 . S
H342 N339 0.984 . S
H343 N339 0.985 . S
H344 N338 0.984 . S
H345 N338 0.984 . S
H346 N334 0.984 . S
H347 N334 0.985 . S
C348 C349 1.363 . S
C348 C354 1.379 1_455 S
C348 N356 1.356 . S
C349 C348 1.363 . S
C349 C355 1.363 . S
C350 C351 1.363 . S
C350 C355 1.379 1_655 S
C350 N357 1.356 . S
C351 C350 1.363 . S
C351 C354 1.363 . S
N352 C354 1.356 . S
N352 H364 0.984 . S
N352 H365 0.985 . S
N353 C355 1.356 . S
N353 H358 0.984 . S
N353 H359 0.985 . S
C354 C348 1.379 1_655 S
C354 C351 1.363 . S
C354 N352 1.356 . S
C355 C349 1.363 . S
C355 C350 1.379 1_455 S
C355 N353 1.356 . S
N356 C348 1.356 . S
N356 H362 0.984 . S
N356 H363 0.984 . S
N357 C350 1.356 . S
N357 H360 0.984 . S
N357 H361 0.985 . S
H358 N353 0.984 . S
H359 N353 0.985 . S
H360 N357 0.984 . S
H361 N357 0.985 . S
H362 N356 0.984 . S
H363 N356 0.984 . S
H364 N352 0.984 . S
H365 N352 0.985 . S
C366 C367 1.353 1_556 S
C366 C372 1.379 1_545 S
C366 N374 1.356 . S
C367 C366 1.353 1_554 S
C367 C373 1.373 . S
C368 C369 1.349 1_554 S
C368 C373 1.379 1_565 S
C368 N375 1.356 . S
C369 C368 1.349 1_556 S
C369 C372 1.377 . S
N370 C372 1.356 . S
N370 H382 0.984 . S
N370 H383 0.985 . S
N371 C373 1.356 . S
N371 H376 0.984 . S
N371 H377 0.985 . S
C372 C366 1.379 1_565 S
C372 C369 1.377 . S
C372 N370 1.356 . S
C373 C367 1.373 . S
C373 C368 1.379 1_545 S
C373 N371 1.356 . S
N374 C366 1.356 . S
N374 H380 0.984 . S
N374 H381 0.984 . S
N375 C368 1.356 . S
N375 H378 0.984 . S
N375 H379 0.985 . S
H376 N371 0.984 . S
H377 N371 0.985 . S
H378 N375 0.984 . S
H379 N375 0.985 . S
H380 N374 0.984 . S
H381 N374 0.984 . S
H382 N370 0.984 . S
H383 N370 0.985 . S
C384 C385 1.363 . S
C384 C390 1.379 . S
C384 N392 1.356 . S
C385 C384 1.363 . S
C385 C391 1.363 1_655 S
C386 C387 1.363 . S
C386 C391 1.379 . S
C386 N393 1.356 . S
C387 C386 1.363 . S
C387 C390 1.363 1_455 S
N388 C390 1.356 . S
N388 H400 0.984 . S
N388 H401 0.985 . S
N389 C391 1.356 . S
N389 H394 0.984 . S
N389 H395 0.985 . S
C390 C384 1.379 . S
C390 C387 1.363 1_655 S
C390 N388 1.356 . S
C391 C385 1.363 1_455 S
C391 C386 1.379 . S
C391 N389 1.356 . S
N392 C384 1.356 . S
N392 H398 0.984 . S
N392 H399 0.984 . S
N393 C386 1.356 . S
N393 H396 0.984 . S
N393 H397 0.985 . S
H394 N389 0.984 . S
H395 N389 0.985 . S
H396 N393 0.984 . S
H397 N393 0.985 . S
H398 N392 0.984 . S
H399 N392 0.984 . S
H400 N388 0.984 . S
H401 N388 0.985 . S
C402 C403 1.363 1_565 S
C402 C408 1.379 . S
C402 N410 1.356 . S
C403 C402 1.363 1_545 S
C403 C409 1.363 . S
C404 C405 1.363 1_545 S
C404 C409 1.379 . S
C404 N411 1.356 . S
C405 C404 1.363 1_565 S
C405 C408 1.363 . S
N406 C408 1.356 . S
N406 H418 0.984 . S
N406 H419 0.985 . S
N407 C409 1.356 . S
N407 H412 0.984 . S
N407 H413 0.985 . S
C408 C402 1.379 . S
C408 C405 1.363 . S
C408 N406 1.356 . S
C409 C403 1.363 . S
C409 C404 1.379 . S
C409 N407 1.356 . S
N410 C402 1.356 . S
N410 H416 0.984 . S
N410 H417 0.984 . S
N411 C404 1.356 . S
N411 H414 0.984 . S
N411 H415 0.985 . S
H412 N407 0.984 . S
H413 N407 0.985 . S
H414 N411 0.984 . S
H415 N411 0.985 . S
H416 N410 0.984 . S
H417 N410 0.984 . S
H418 N406 0.984 . S
H419 N406 0.985 . S
C420 C421 1.363 . S
C420 C426 1.379 . S
C420 N428 1.356 . S
C421 C420 1.363 . S
C421 C427 1.363 . S
C422 C423 1.363 . S
C422 C427 1.379 . S
C422 N429 1.356 . S
C423 C422 1.363 . S
C423 C426 1.363 . S
N424 C426 1.356 . S
N424 H436 0.984 . S
N424 H437 0.985 . S
N425 C427 1.356 . S
N425 H430 0.984 . S
N425 H431 0.985 . S
C426 C420 1.379 . S
C426 C423 1.363 . S
C426 N424 1.356 . S
C427 C421 1.363 . S
C427 C422 1.379 . S
C427 N425 1.356 . S
N428 C420 1.356 . S
N428 H434 0.984 . S
N428 H435 0.984 . S
N429 C422 1.356 . S
N429 H432 0.984 . S
N429 H433 0.985 . S
H430 N425 0.984 . S
H431 N425 0.985 . S
H432 N429 0.984 . S
H433 N429 0.985 . S
H434 N428 0.984 . S
H435 N428 0.984 . S
H436 N424 0.984 . S
H437 N424 0.985 . S
C438 C439 1.363 1_655 S
C438 C444 1.379 . S
C438 N446 1.356 . S
C439 C438 1.363 1_455 S
C439 C445 1.363 . S
C440 C441 1.363 1_455 S
C440 C445 1.379 . S
C440 N447 1.356 . S
C441 C440 1.363 1_655 S
C441 C444 1.363 . S
N442 C444 1.356 . S
N442 H454 0.984 . S
N442 H455 0.985 . S
N443 C445 1.356 . S
N443 H448 0.984 . S
N443 H449 0.985 . S
C444 C438 1.379 . S
C444 C441 1.363 . S
C444 N442 1.356 . S
C445 C439 1.363 . S
C445 C440 1.379 . S
C445 N443 1.356 . S
N446 C438 1.356 . S
N446 H452 0.984 . S
N446 H453 0.984 . S
N447 C440 1.356 . S
N447 H450 0.984 . S
N447 H451 0.985 . S
H448 N443 0.984 . S
H449 N443 0.985 . S
H450 N447 0.984 . S
H451 N447 0.985 . S
H452 N446 0.984 . S
H453 N446 0.984 . S
H454 N442 0.984 . S
H455 N442 0.985 . S
C456 C457 1.363 . S
C456 C462 1.379 . S
C456 N464 1.356 . S
C457 C456 1.363 . S
C457 C463 1.363 1_545 S
C458 C459 1.363 . S
C458 C463 1.379 . S
C458 N465 1.356 . S
C459 C458 1.363 . S
C459 C462 1.363 1_565 S
N460 C462 1.356 . S
N460 H472 0.984 . S
N460 H473 0.985 . S
N461 C463 1.356 . S
N461 H466 0.984 . S
N461 H467 0.985 . S
C462 C456 1.379 . S
C462 C459 1.363 1_545 S
C462 N460 1.356 . S
C463 C457 1.363 1_565 S
C463 C458 1.379 . S
C463 N461 1.356 . S
N464 C456 1.356 . S
N464 H470 0.984 . S
N464 H471 0.984 . S
N465 C458 1.356 . S
N465 H468 0.984 . S
N465 H469 0.985 . S
H466 N461 0.984 . S
H467 N461 0.985 . S
H468 N465 0.984 . S
H469 N465 0.985 . S
H470 N464 0.984 . S
H471 N464 0.984 . S
H472 N460 0.984 . S
H473 N460 0.985 . S
C474 C475 1.363 . S
C474 C480 1.379 . S
C474 N482 1.356 . S
C475 C474 1.363 . S
C475 C481 1.363 . S
C476 C477 1.363 . S
C476 C481 1.379 . S
C476 N483 1.356 . S
C477 C476 1.363 . S
C477 C480 1.363 . S
N478 C480 1.356 . S
N478 H490 0.984 . S
N478 H491 0.985 . S
N479 C481 1.356 . S
N479 H484 0.984 . S
N479 H485 0.985 . S
C480 C474 1.379 . S
C480 C477 1.363 . S
C480 N478 1.356 . S
C481 C475 1.363 . S
C481 C476 1.379 . S
C481 N479 1.356 . S
N482 C474 1.356 . S
N482 H488 0.984 . S
N482 H489 0.984 . S
N483 C476 1.356 . S
N483 H486 0.984 . S
N483 H487 0.985 . S
H484 N479 0.984 . S
H485 N479 0.985 . S
H486 N483 0.984 . S
H487 N483 0.985 . S
H488 N482 0.984 . S
H489 N482 0.984 . S
H490 N478 0.984 . S
H491 N478 0.985 . S
C492 C493 1.363 . S
C492 C498 1.379 . S
C492 N500 1.356 . S
C493 C492 1.363 . S
C493 C499 1.363 . S
C494 C495 1.363 . S
C494 C499 1.379 . S
C494 N501 1.356 . S
C495 C494 1.363 . S
C495 C498 1.363 . S
N496 C498 1.356 . S
N496 H508 0.984 . S
N496 H509 0.985 . S
N497 C499 1.356 . S
N497 H502 0.984 . S
N497 H503 0.985 . S
C498 C492 1.379 . S
C498 C495 1.363 . S
C498 N496 1.356 . S
C499 C493 1.363 . S
C499 C494 1.379 . S
C499 N497 1.356 . S
N500 C492 1.356 . S
N500 H506 0.984 . S
N500 H507 0.984 . S
N501 C494 1.356 . S
N501 H504 0.984 . S
N501 H505 0.985 . S
H502 N497 0.984 . S
H503 N497 0.985 . S
H504 N501 0.984 . S
H505 N501 0.985 . S
H506 N500 0.984 . S
H507 N500 0.984 . S
H508 N496 0.984 . S
H509 N496 0.985 . S
C510 C511 1.363 . S
C510 C516 1.379 . S
C510 N518 1.356 . S
C511 C510 1.363 . S
C511 C517 1.363 . S
C512 C513 1.363 . S
C512 C517 1.379 . S
C512 N519 1.356 . S
C513 C512 1.363 . S
C513 C516 1.363 . S
N514 C516 1.356 . S
N514 H526 0.984 . S
N514 H527 0.985 . S
N515 C517 1.356 . S
N515 H520 0.984 . S
N515 H521 0.985 . S
C516 C510 1.379 . S
C516 C513 1.363 . S
C516 N514 1.356 . S
C517 C511 1.363 . S
C517 C512 1.379 . S
C517 N515 1.356 . S
N518 C510 1.356 . S
N518 H524 0.984 . S
N518 H525 0.984 . S
N519 C512 1.356 . S
N519 H522 0.984 . S
N519 H523 0.985 . S
H520 N515 0.984 . S
H521 N515 0.985 . S
H522 N519 0.984 . S
H523 N519 0.985 . S
H524 N518 0.984 . S
H525 N518 0.984 . S
H526 N514 0.984 . S
H527 N514 0.985 . S
C528 C529 1.363 . S
C528 C534 1.379 . S
C528 N536 1.356 . S
C529 C528 1.363 . S
C529 C535 1.363 . S
C530 C531 1.363 . S
C530 C535 1.379 . S
C530 N537 1.356 . S
C531 C530 1.363 . S
C531 C534 1.363 . S
N532 C534 1.356 . S
N532 H544 0.984 . S
N532 H545 0.985 . S
N533 C535 1.356 . S
N533 H538 0.984 . S
N533 H539 0.985 . S
C534 C528 1.379 . S
C534 C531 1.363 . S
C534 N532 1.356 . S
C535 C529 1.363 . S
C535 C530 1.379 . S
C535 N533 1.356 . S
N536 C528 1.356 . S
N536 H542 0.984 . S
N536 H543 0.984 . S
N537 C530 1.356 . S
N537 H540 0.984 . S
N537 H541 0.985 . S
H538 N533 0.984 . S
H539 N533 0.985 . S
H540 N537 0.984 . S
H541 N537 0.985 . S
H542 N536 0.984 . S
H543 N536 0.984 . S
H544 N532 0.984 . S
H545 N532 0.985 . S
C546 C547 1.363 . S
C546 C552 1.379 . S
C546 N554 1.356 . S
C547 C546 1.363 . S
C547 C553 1.363 . S
C548 C549 1.363 . S
C548 C553 1.379 . S
C548 N555 1.356 . S
C549 C548 1.363 . S
C549 C552 1.363 . S
N550 C552 1.356 . S
N550 H562 0.984 . S
N550 H563 0.985 . S
N551 C553 1.356 . S
N551 H556 0.984 . S
N551 H557 0.985 . S
C552 C546 1.379 . S
C552 C549 1.363 . S
C552 N550 1.356 . S
C553 C547 1.363 . S
C553 C548 1.379 . S
C553 N551 1.356 . S
N554 C546 1.356 . S
N554 H560 0.984 . S
N554 H561 0.984 . S
N555 C548 1.356 . S
N555 H558 0.984 . S
N555 H559 0.985 . S
H556 N551 0.984 . S
H557 N551 0.985 . S
H558 N555 0.984 . S
H559 N555 0.985 . S
H560 N554 0.984 . S
H561 N554 0.984 . S
H562 N550 0.984 . S
H563 N550 0.985 . S
C564 C565 1.363 . S
C564 C570 1.379 . S
C564 N572 1.356 . S
C565 C564 1.363 . S
C565 C571 1.363 . S
C566 C567 1.363 . S
C566 C571 1.379 . S
C566 N573 1.356 . S
C567 C566 1.363 . S
C567 C570 1.363 . S
N568 C570 1.356 . S
N568 H580 0.984 . S
N568 H581 0.985 . S
N569 C571 1.356 . S
N569 H574 0.984 . S
N569 H575 0.985 . S
C570 C564 1.379 . S
C570 C567 1.363 . S
C570 N568 1.356 . S
C571 C565 1.363 . S
C571 C566 1.379 . S
C571 N569 1.356 . S
N572 C564 1.356 . S
N572 H578 0.984 . S
N572 H579 0.984 . S
N573 C566 1.356 . S
N573 H576 0.984 . S
N573 H577 0.985 . S
H574 N569 0.984 . S
H575 N569 0.985 . S
H576 N573 0.984 . S
H577 N573 0.985 . S
H578 N572 0.984 . S
H579 N572 0.984 . S
H580 N568 0.984 . S
H581 N568 0.985 . S
C582 C583 1.363 . S
C582 C588 1.379 . S
C582 N590 1.356 . S
C583 C582 1.363 . S
C583 C589 1.363 . S
C584 C585 1.363 . S
C584 C589 1.379 . S
C584 N591 1.356 . S
C585 C584 1.363 . S
C585 C588 1.363 . S
N586 C588 1.356 . S
N586 H598 0.984 . S
N586 H599 0.985 . S
N587 C589 1.356 . S
N587 H592 0.984 . S
N587 H593 0.985 . S
C588 C582 1.379 . S
C588 C585 1.363 . S
C588 N586 1.356 . S
C589 C583 1.363 . S
C589 C584 1.379 . S
C589 N587 1.356 . S
N590 C582 1.356 . S
N590 H596 0.984 . S
N590 H597 0.984 . S
N591 C584 1.356 . S
N591 H594 0.984 . S
N591 H595 0.985 . S
H592 N587 0.984 . S
H593 N587 0.985 . S
H594 N591 0.984 . S
H595 N591 0.985 . S
H596 N590 0.984 . S
H597 N590 0.984 . S
H598 N586 0.984 . S
H599 N586 0.985 . S
C169 C7 1.667 . S
C171 C91 1.681 . S
C187 C21 1.681 . S
C189 C105 1.667 . S
C205 C34 1.598 . S
C207 C118 1.598 . S
C223 C133 1.681 . S
C225 C49 1.667 . S
C241 C63 1.681 . S
C243 C147 1.667 . S
C259 C160 1.598 . S
C261 C76 1.598 . S
C277 C8 1.611 . S
C279 C134 1.611 . S
C295 C22 1.611 . S
C297 C148 1.612 . S
C313 C163 1.535 1_556 S
C315 C37 1.535 1_554 S
C331 C92 1.611 . S
C333 C50 1.611 . S
C349 C64 1.611 . S
C351 C106 1.612 . S
C367 C79 1.535 1_554 S
C369 C121 1.535 1_556 S
C385 C161 1.529 . S
C387 C6 1.523 . S
C403 C20 1.678 . S
C405 C90 1.678 . S
C421 C35 1.529 . S
C423 C104 1.523 . S
C439 C119 1.529 . S
C441 C48 1.523 . S
C457 C132 1.678 . S
C459 C62 1.678 . S
C475 C77 1.529 . S
C477 C146 1.523 . S
C493 C9 1.145 . S
C495 C149 1.145 . S
C511 C162 1.279 . S
C513 C23 1.281 . S
C529 C93 1.278 . S
C531 C36 1.282 . S
C547 C51 1.145 . S
C549 C107 1.145 . S
C565 C120 1.279 . S
C567 C65 1.281 . S
C583 C135 1.278 . S
C585 C78 1.282 . S
