# Generated by pormake.
# Topology cbo, (4)-cn, num edge types: 1
# Building blocks:
#     Node 0, Type 0, BuildingBlock: QUQFOY_clean_sbu_3, # of connection points: 4
#     Node 1, Type 0, BuildingBlock: QUQFOY_clean_sbu_3, # of connection points: 4
#     Node 2, Type 0, BuildingBlock: QUQFOY_clean_sbu_3, # of connection points: 4
#     Node 3, Type 0, BuildingBlock: QUQFOY_clean_sbu_3, # of connection points: 4
#     Node 4, Type 0, BuildingBlock: QUQFOY_clean_sbu_3, # of connection points: 4
#     Node 5, Type 0, BuildingBlock: QUQFOY_clean_sbu_3, # of connection points: 4
#     Node 6, Type 0, BuildingBlock: QUQFOY_clean_sbu_3, # of connection points: 4
#     Node 7, Type 0, BuildingBlock: QUQFOY_clean_sbu_3, # of connection points: 4
#     Node 8, Type 0, BuildingBlock: QUQFOY_clean_sbu_3, # of connection points: 4
#     Node 9, Type 0, BuildingBlock: QUQFOY_clean_sbu_3, # of connection points: 4
#     Node 10, Type 0, BuildingBlock: QUQFOY_clean_sbu_3, # of connection points: 4
#     Node 11, Type 0, BuildingBlock: QUQFOY_clean_sbu_3, # of connection points: 4
#     Node 12, Type 0, BuildingBlock: QUQFOY_clean_sbu_3, # of connection points: 4
#     Node 13, Type 0, BuildingBlock: QUQFOY_clean_sbu_3, # of connection points: 4
#     Node 14, Type 0, BuildingBlock: QUQFOY_clean_sbu_3, # of connection points: 4
#     Node 15, Type 0, BuildingBlock: QUQFOY_clean_sbu_3, # of connection points: 4
#     Node 16, Type 0, BuildingBlock: QUQFOY_clean_sbu_3, # of connection points: 4
#     Node 17, Type 0, BuildingBlock: QUQFOY_clean_sbu_3, # of connection points: 4
#     Node 18, Type 0, BuildingBlock: QUQFOY_clean_sbu_3, # of connection points: 4
#     Node 19, Type 0, BuildingBlock: QUQFOY_clean_sbu_3, # of connection points: 4
#     Node 20, Type 0, BuildingBlock: QUQFOY_clean_sbu_3, # of connection points: 4
#     Node 21, Type 0, BuildingBlock: QUQFOY_clean_sbu_3, # of connection points: 4
#     Node 22, Type 0, BuildingBlock: QUQFOY_clean_sbu_3, # of connection points: 4
#     Node 23, Type 0, BuildingBlock: QUQFOY_clean_sbu_3, # of connection points: 4
#     Edge 24, Type (0, 0), BuildingBlock: ZUJKAS_clean_linker_0, # of connection points: 2
#     Edge 25, Type (0, 0), BuildingBlock: ZUJKAS_clean_linker_0, # of connection points: 2
#     Edge 26, Type (0, 0), BuildingBlock: ZUJKAS_clean_linker_0, # of connection points: 2
#     Edge 27, Type (0, 0), BuildingBlock: ZUJKAS_clean_linker_0, # of connection points: 2
#     Edge 28, Type (0, 0), BuildingBlock: ZUJKAS_clean_linker_0, # of connection points: 2
#     Edge 29, Type (0, 0), BuildingBlock: ZUJKAS_clean_linker_0, # of connection points: 2
#     Edge 30, Type (0, 0), BuildingBlock: ZUJKAS_clean_linker_0, # of connection points: 2
#     Edge 31, Type (0, 0), BuildingBlock: ZUJKAS_clean_linker_0, # of connection points: 2
#     Edge 32, Type (0, 0), BuildingBlock: ZUJKAS_clean_linker_0, # of connection points: 2
#     Edge 33, Type (0, 0), BuildingBlock: ZUJKAS_clean_linker_0, # of connection points: 2
#     Edge 34, Type (0, 0), BuildingBlock: ZUJKAS_clean_linker_0, # of connection points: 2
#     Edge 35, Type (0, 0), BuildingBlock: ZUJKAS_clean_linker_0, # of connection points: 2
#     Edge 36, Type (0, 0), BuildingBlock: ZUJKAS_clean_linker_0, # of connection points: 2
#     Edge 37, Type (0, 0), BuildingBlock: ZUJKAS_clean_linker_0, # of connection points: 2
#     Edge 38, Type (0, 0), BuildingBlock: ZUJKAS_clean_linker_0, # of connection points: 2
#     Edge 39, Type (0, 0), BuildingBlock: ZUJKAS_clean_linker_0, # of connection points: 2
#     Edge 40, Type (0, 0), BuildingBlock: ZUJKAS_clean_linker_0, # of connection points: 2
#     Edge 41, Type (0, 0), BuildingBlock: ZUJKAS_clean_linker_0, # of connection points: 2
#     Edge 42, Type (0, 0), BuildingBlock: ZUJKAS_clean_linker_0, # of connection points: 2
#     Edge 43, Type (0, 0), BuildingBlock: ZUJKAS_clean_linker_0, # of connection points: 2
#     Edge 44, Type (0, 0), BuildingBlock: ZUJKAS_clean_linker_0, # of connection points: 2
#     Edge 45, Type (0, 0), BuildingBlock: ZUJKAS_clean_linker_0, # of connection points: 2
#     Edge 46, Type (0, 0), BuildingBlock: ZUJKAS_clean_linker_0, # of connection points: 2
#     Edge 47, Type (0, 0), BuildingBlock: ZUJKAS_clean_linker_0, # of connection points: 2
#     Edge 48, Type (0, 0), BuildingBlock: ZUJKAS_clean_linker_0, # of connection points: 2
#     Edge 49, Type (0, 0), BuildingBlock: ZUJKAS_clean_linker_0, # of connection points: 2
#     Edge 50, Type (0, 0), BuildingBlock: ZUJKAS_clean_linker_0, # of connection points: 2
#     Edge 51, Type (0, 0), BuildingBlock: ZUJKAS_clean_linker_0, # of connection points: 2
#     Edge 52, Type (0, 0), BuildingBlock: ZUJKAS_clean_linker_0, # of connection points: 2
#     Edge 53, Type (0, 0), BuildingBlock: ZUJKAS_clean_linker_0, # of connection points: 2
#     Edge 54, Type (0, 0), BuildingBlock: ZUJKAS_clean_linker_0, # of connection points: 2
#     Edge 55, Type (0, 0), BuildingBlock: ZUJKAS_clean_linker_0, # of connection points: 2
#     Edge 56, Type (0, 0), BuildingBlock: ZUJKAS_clean_linker_0, # of connection points: 2
#     Edge 57, Type (0, 0), BuildingBlock: ZUJKAS_clean_linker_0, # of connection points: 2
#     Edge 58, Type (0, 0), BuildingBlock: ZUJKAS_clean_linker_0, # of connection points: 2
#     Edge 59, Type (0, 0), BuildingBlock: ZUJKAS_clean_linker_0, # of connection points: 2
#     Edge 60, Type (0, 0), BuildingBlock: ZUJKAS_clean_linker_0, # of connection points: 2
#     Edge 61, Type (0, 0), BuildingBlock: ZUJKAS_clean_linker_0, # of connection points: 2
#     Edge 62, Type (0, 0), BuildingBlock: ZUJKAS_clean_linker_0, # of connection points: 2
#     Edge 63, Type (0, 0), BuildingBlock: ZUJKAS_clean_linker_0, # of connection points: 2
#     Edge 64, Type (0, 0), BuildingBlock: ZUJKAS_clean_linker_0, # of connection points: 2
#     Edge 65, Type (0, 0), BuildingBlock: ZUJKAS_clean_linker_0, # of connection points: 2
#     Edge 66, Type (0, 0), BuildingBlock: ZUJKAS_clean_linker_0, # of connection points: 2
#     Edge 67, Type (0, 0), BuildingBlock: ZUJKAS_clean_linker_0, # of connection points: 2
#     Edge 68, Type (0, 0), BuildingBlock: ZUJKAS_clean_linker_0, # of connection points: 2
#     Edge 69, Type (0, 0), BuildingBlock: ZUJKAS_clean_linker_0, # of connection points: 2
#     Edge 70, Type (0, 0), BuildingBlock: ZUJKAS_clean_linker_0, # of connection points: 2
#     Edge 71, Type (0, 0), BuildingBlock: ZUJKAS_clean_linker_0, # of connection points: 2
# Relax obj value: 0.195
# Max RMSD: 0.201
# Mean RMSD: 0.197
data_MOF--net-cbo--node1-QUQFOY_clean_sbu_3--edge1-ZUJKAS_clean_linker_0
_symmetry_space_group_name_H-M    P1
_symmetry_Int_Tables_number       1
_symmetry_cell_setting            triclinic
loop_
_symmetry_equiv_pos_as_xyz
'x, y, z'
_cell_length_a     68.40312
_cell_length_b     69.253416
_cell_length_c     70.139686
_cell_angle_alpha  90.027858
_cell_angle_beta   89.864374
_cell_angle_gamma 90.104267
loop_
_atom_site_label
_atom_site_type_symbol
_atom_site_fract_x
_atom_site_fract_y
_atom_site_fract_z
_atom_type_partial_charge
C0 C 0.10253 0.2228 0.30421 0.0
O1 O 0.1128 0.2276 0.31854 0.0
Cd2 Cd 0.1173 0.20802 0.34665 0.0
O3 O 0.09319 0.20686 0.3041 0.0
Cd4 Cd 0.08756 0.17871 0.32507 0.0
C5 C 0.13608 0.16767 0.32483 0.0
O6 O 0.08592 0.19579 0.35548 0.0
O7 O 0.08594 0.16467 0.35682 0.0
O8 O 0.05356 0.17747 0.31517 0.0
C9 C 0.08519 0.18063 0.36561 0.0
O10 O 0.13865 0.1818 0.33621 0.0
C11 C 0.05416 0.16008 0.30941 0.0
O12 O 0.11926 0.16414 0.31784 0.0
O13 O 0.07049 0.15146 0.31059 0.0
C14 C 0.36773 0.74543 0.8028 0.0
O15 O 0.35796 0.74033 0.81738 0.0
Cd16 Cd 0.35291 0.76029 0.84497 0.0
O17 O 0.37659 0.76163 0.80247 0.0
Cd18 Cd 0.38231 0.78946 0.82403 0.0
C19 C 0.33413 0.80042 0.82269 0.0
O20 O 0.38424 0.77223 0.85439 0.0
O21 O 0.38195 0.80321 0.85597 0.0
O22 O 0.41599 0.79026 0.81291 0.0
C23 C 0.3839 0.7873 0.86466 0.0
O24 O 0.33134 0.78624 0.83396 0.0
C25 C 0.41608 0.80822 0.80921 0.0
O26 O 0.3511 0.80407 0.81611 0.0
O27 O 0.40028 0.81738 0.81208 0.0
C28 C 0.60196 0.24688 0.66605 0.0
O29 O 0.61077 0.24142 0.65103 0.0
Cd30 Cd 0.61491 0.26111 0.62307 0.0
O31 O 0.59353 0.26326 0.66665 0.0
Cd32 Cd 0.58714 0.29102 0.64521 0.0
C33 C 0.63553 0.30105 0.64449 0.0
O34 O 0.58366 0.27384 0.61491 0.0
O35 O 0.58662 0.30477 0.61329 0.0
O36 O 0.55389 0.29164 0.65746 0.0
C37 C 0.58403 0.28891 0.60465 0.0
O38 O 0.63728 0.28687 0.63303 0.0
C39 C 0.55379 0.30961 0.66109 0.0
O40 O 0.61906 0.30507 0.65203 0.0
O41 O 0.56944 0.31891 0.65771 0.0
C42 C 0.86784 0.72451 0.16631 0.0
O43 O 0.85707 0.72954 0.15245 0.0
Cd44 Cd 0.85098 0.70989 0.12475 0.0
O45 O 0.87707 0.70856 0.16579 0.0
Cd46 Cd 0.8817 0.68106 0.14369 0.0
C47 C 0.83371 0.66915 0.14707 0.0
O48 O 0.88155 0.69796 0.11304 0.0
O49 O 0.87915 0.66691 0.11214 0.0
O50 O 0.91658 0.67965 0.15015 0.0
C51 C 0.88057 0.68268 0.10309 0.0
O52 O 0.83024 0.68344 0.13616 0.0
C53 C 0.91637 0.66239 0.15627 0.0
O54 O 0.851 0.66574 0.15286 0.0
O55 O 0.89989 0.65391 0.15685 0.0
C56 C 0.30136 0.09567 0.22804 0.0
O57 O 0.3172 0.10492 0.23061 0.0
Cd58 Cd 0.34167 0.1103 0.2065 0.0
O59 O 0.29807 0.08715 0.21227 0.0
Cd60 Cd 0.31465 0.0811 0.18144 0.0
C61 C 0.3113 0.12875 0.17172 0.0
O62 O 0.34876 0.08029 0.19152 0.0
O63 O 0.34337 0.08277 0.16135 0.0
O64 O 0.30488 0.04738 0.18267 0.0
C65 C 0.35567 0.08155 0.17475 0.0
O66 O 0.32527 0.13124 0.18348 0.0
C67 C 0.29763 0.04711 0.16601 0.0
O68 O 0.30383 0.11209 0.1691 0.0
O69 O 0.29769 0.0629 0.15679 0.0
C70 C 0.16624 0.87044 0.7296 0.0
O71 O 0.15109 0.86011 0.73229 0.0
Cd72 Cd 0.12495 0.85542 0.7098 0.0
O73 O 0.1683 0.88017 0.7143 0.0
Cd74 Cd 0.15073 0.88706 0.68433 0.0
C75 C 0.1536 0.83945 0.6724 0.0
O76 O 0.11774 0.88624 0.69688 0.0
O77 O 0.12029 0.88847 0.66639 0.0
O78 O 0.1612 0.92059 0.68629 0.0
C79 C 0.10927 0.88697 0.68085 0.0
O80 O 0.14041 0.83611 0.68486 0.0
C81 C 0.1677 0.92128 0.66931 0.0
O82 O 0.16056 0.85638 0.67009 0.0
O83 O 0.16686 0.90582 0.65958 0.0
C84 C 0.80408 0.37177 0.73611 0.0
O85 O 0.81961 0.36202 0.73368 0.0
Cd86 Cd 0.84428 0.35661 0.75747 0.0
O87 O 0.80105 0.38073 0.75172 0.0
Cd88 Cd 0.81762 0.38668 0.78248 0.0
C89 C 0.81423 0.33885 0.79287 0.0
O90 O 0.85152 0.38681 0.77197 0.0
O91 O 0.84666 0.38633 0.80234 0.0
O92 O 0.80926 0.42078 0.78219 0.0
C93 C 0.85872 0.38646 0.78861 0.0
O94 O 0.82789 0.33599 0.78081 0.0
C95 C 0.80051 0.4205 0.7982 0.0
O96 O 0.80719 0.35568 0.7955 0.0
O97 O 0.79911 0.40427 0.80653 0.0
C98 C 0.66687 0.59497 0.23942 0.0
O99 O 0.65161 0.60488 0.23617 0.0
Cd100 Cd 0.62505 0.61022 0.25819 0.0
O101 O 0.66888 0.58597 0.25514 0.0
Cd102 Cd 0.65098 0.58022 0.28525 0.0
C103 C 0.65303 0.62835 0.29508 0.0
O104 O 0.61798 0.5803 0.273 0.0
O105 O 0.62069 0.58018 0.30356 0.0
O106 O 0.65946 0.54621 0.28519 0.0
C107 C 0.6096 0.5807 0.28914 0.0
O108 O 0.63991 0.63075 0.28242 0.0
C109 C 0.66745 0.54643 0.30153 0.0
O110 O 0.66039 0.61174 0.29819 0.0
O111 O 0.66839 0.56263 0.31002 0.0
C112 C 0.21769 0.29932 0.10767 0.0
O113 O 0.22222 0.31446 0.11689 0.0
Cd114 Cd 0.20108 0.34195 0.11886 0.0
O115 O 0.20194 0.29859 0.09802 0.0
Cd116 Cd 0.17363 0.31846 0.08855 0.0
C117 C 0.15972 0.31788 0.13498 0.0
O118 O 0.19141 0.3486 0.0869 0.0
O119 O 0.16015 0.35118 0.08517 0.0
O120 O 0.17899 0.30355 0.05767 0.0
C121 C 0.17669 0.35949 0.08513 0.0
O122 O 0.17371 0.32969 0.13797 0.0
C123 C 0.16109 0.30017 0.05429 0.0
O124 O 0.15681 0.31085 0.11842 0.0
O125 O 0.14882 0.30524 0.06698 0.0
C126 C 0.71913 0.17073 0.86263 0.0
O127 O 0.72305 0.15534 0.85352 0.0
Cd128 Cd 0.7015 0.12798 0.85215 0.0
O129 O 0.70357 0.17204 0.87257 0.0
Cd130 Cd 0.67471 0.15308 0.88267 0.0
C131 C 0.6605 0.15263 0.83625 0.0
O132 O 0.6918 0.12267 0.88425 0.0
O133 O 0.66066 0.12073 0.88788 0.0
O134 O 0.68035 0.16833 0.91337 0.0
C135 C 0.67696 0.1121 0.88703 0.0
O136 O 0.67414 0.14042 0.83342 0.0
C137 C 0.66248 0.17192 0.91676 0.0
O138 O 0.65793 0.16024 0.85263 0.0
O139 O 0.6502 0.16707 0.90405 0.0
C140 C 0.74655 0.79825 0.36279 0.0
O141 O 0.74294 0.81346 0.35329 0.0
Cd142 Cd 0.7647 0.84051 0.35049 0.0
O143 O 0.76207 0.79692 0.37272 0.0
Cd144 Cd 0.79107 0.81616 0.38203 0.0
C145 C 0.80562 0.8151 0.33553 0.0
O146 O 0.77499 0.84705 0.38211 0.0
O147 O 0.80621 0.84833 0.38532 0.0
O148 O 0.78663 0.80509 0.41461 0.0
C149 C 0.79015 0.85736 0.38404 0.0
O150 O 0.79194 0.82709 0.33209 0.0
C151 C 0.80384 0.79851 0.41649 0.0
O152 O 0.80807 0.8083 0.35225 0.0
O153 O 0.81516 0.79995 0.40216 0.0
C154 C 0.25069 0.67165 0.60652 0.0
O155 O 0.2465 0.6565 0.61592 0.0
Cd156 Cd 0.2672 0.62853 0.61742 0.0
O157 O 0.26617 0.67247 0.5964 0.0
Cd158 Cd 0.29452 0.65294 0.58628 0.0
C159 C 0.3091 0.65233 0.63262 0.0
O160 O 0.27679 0.62286 0.58539 0.0
O161 O 0.30776 0.62033 0.58092 0.0
O162 O 0.28882 0.66809 0.55562 0.0
C163 C 0.29133 0.61198 0.58249 0.0
O164 O 0.29518 0.64043 0.63565 0.0
C165 C 0.30668 0.67167 0.55212 0.0
O166 O 0.31165 0.65987 0.6162 0.0
O167 O 0.31904 0.66672 0.56471 0.0
C168 C 0.851 0.8299 0.67071 0.0
O169 O 0.86524 0.83549 0.68091 0.0
Cd170 Cd 0.89687 0.82115 0.67955 0.0
O171 O 0.85332 0.81669 0.65824 0.0
Cd172 Cd 0.87969 0.79619 0.64452 0.0
C173 C 0.88284 0.77368 0.68705 0.0
O174 O 0.9048 0.82034 0.64655 0.0
O175 O 0.91549 0.79164 0.64136 0.0
O176 O 0.86584 0.80438 0.61395 0.0
C177 C 0.91921 0.8095 0.6431 0.0
O178 O 0.89158 0.78886 0.69281 0.0
C179 C 0.8658 0.78738 0.6072 0.0
O180 O 0.87599 0.77267 0.67019 0.0
O181 O 0.87204 0.77403 0.61802 0.0
C182 C 0.61798 0.13822 0.17277 0.0
O183 O 0.60419 0.13254 0.18356 0.0
Cd184 Cd 0.57181 0.14543 0.18275 0.0
O185 O 0.61494 0.15097 0.16 0.0
Cd186 Cd 0.58782 0.17043 0.14651 0.0
C187 C 0.58368 0.19361 0.18895 0.0
O188 O 0.56377 0.14546 0.14986 0.0
O189 O 0.55199 0.17313 0.14203 0.0
O190 O 0.60049 0.16204 0.11549 0.0
C191 C 0.54898 0.15536 0.14536 0.0
O192 O 0.57584 0.17815 0.19521 0.0
C193 C 0.60167 0.17915 0.10912 0.0
O194 O 0.59019 0.19458 0.17192 0.0
O195 O 0.59657 0.19267 0.12034 0.0
C196 C 0.35204 0.64237 0.29514 0.0
O197 O 0.36597 0.63886 0.28367 0.0
Cd198 Cd 0.39822 0.65167 0.28683 0.0
O199 O 0.35437 0.65368 0.30929 0.0
Cd200 Cd 0.38074 0.67411 0.32304 0.0
C201 C 0.38545 0.69924 0.28175 0.0
O202 O 0.40571 0.65001 0.31994 0.0
O203 O 0.41653 0.67837 0.32673 0.0
O204 O 0.36807 0.66518 0.35399 0.0
C205 C 0.42012 0.66058 0.32422 0.0
O206 O 0.39477 0.68468 0.27542 0.0
C207 C 0.36663 0.68221 0.3605 0.0
O208 O 0.37757 0.69889 0.29824 0.0
O209 O 0.3717 0.69588 0.34943 0.0
C210 C 0.1167 0.32762 0.7986 0.0
O211 O 0.10257 0.333 0.78817 0.0
Cd212 Cd 0.07072 0.31911 0.79024 0.0
O213 O 0.11411 0.31491 0.81151 0.0
Cd214 Cd 0.08725 0.29535 0.82576 0.0
C215 C 0.08317 0.27121 0.78409 0.0
O216 O 0.06275 0.31998 0.82334 0.0
O217 O 0.05139 0.29164 0.82942 0.0
O218 O 0.10048 0.3042 0.85642 0.0
C219 C 0.04816 0.30956 0.82744 0.0
O220 O 0.07494 0.28637 0.7777 0.0
C221 C 0.10143 0.28722 0.86311 0.0
O222 O 0.0899 0.27074 0.80101 0.0
O223 O 0.09584 0.27357 0.85228 0.0
C224 C 0.66813 0.87135 0.75411 0.0
O225 O 0.65332 0.86102 0.75013 0.0
Cd226 Cd 0.62567 0.85603 0.77059 0.0
O227 O 0.66892 0.88078 0.76973 0.0
Cd228 Cd 0.6483 0.88699 0.79825 0.0
C229 C 0.65046 0.83938 0.81008 0.0
O230 O 0.61745 0.8875 0.78148 0.0
O231 O 0.61525 0.88851 0.81201 0.0
O232 O 0.65961 0.92034 0.79794 0.0
C233 C 0.60659 0.88844 0.79607 0.0
O234 O 0.63857 0.8361 0.79648 0.0
C235 C 0.66368 0.9209 0.8156 0.0
O236 O 0.65693 0.85635 0.81317 0.0
O237 O 0.66114 0.90545 0.82504 0.0
C238 C 0.80295 0.0998 0.25188 0.0
O239 O 0.81761 0.11037 0.24795 0.0
Cd240 Cd 0.8445 0.11534 0.26918 0.0
O241 O 0.8023 0.09025 0.26741 0.0
Cd242 Cd 0.82301 0.08386 0.29573 0.0
C243 C 0.81853 0.13079 0.30856 0.0
O244 O 0.85423 0.08381 0.27912 0.0
O245 O 0.85573 0.08448 0.30977 0.0
O246 O 0.81244 0.05028 0.29422 0.0
C247 C 0.86471 0.08353 0.29398 0.0
O248 O 0.83055 0.1347 0.29518 0.0
C249 C 0.80839 0.04895 0.31186 0.0
O250 O 0.81265 0.11356 0.31127 0.0
O251 O 0.81079 0.06401 0.32192 0.0
C252 C 0.16546 0.59674 0.22308 0.0
O253 O 0.15139 0.60846 0.22538 0.0
Cd254 Cd 0.12419 0.61223 0.2042 0.0
O255 O 0.16637 0.58586 0.20845 0.0
Cd256 Cd 0.14726 0.5806 0.17894 0.0
C257 C 0.15119 0.62786 0.16605 0.0
O258 O 0.1149 0.58085 0.19329 0.0
O259 O 0.11571 0.58169 0.16265 0.0
O260 O 0.15516 0.5463 0.17854 0.0
C261 C 0.10553 0.58097 0.17775 0.0
O262 O 0.138 0.63152 0.17837 0.0
C263 C 0.16264 0.5465 0.16194 0.0
O264 O 0.15805 0.61086 0.16427 0.0
O265 O 0.16328 0.56267 0.15343 0.0
C266 C 0.30084 0.37129 0.71802 0.0
O267 O 0.31546 0.36066 0.72178 0.0
Cd268 Cd 0.34291 0.35577 0.70103 0.0
O269 O 0.30026 0.3811 0.70264 0.0
Cd270 Cd 0.32108 0.38768 0.67433 0.0
C271 C 0.31751 0.34044 0.66141 0.0
O272 O 0.35212 0.3873 0.69091 0.0
O273 O 0.35406 0.38859 0.66036 0.0
O274 O 0.31056 0.42129 0.67514 0.0
C275 C 0.36286 0.38822 0.67623 0.0
O276 O 0.32944 0.33657 0.67481 0.0
C277 C 0.30619 0.42203 0.65755 0.0
O278 O 0.31149 0.35763 0.6588 0.0
O279 O 0.30829 0.40662 0.64795 0.0
C280 C 0.74763 0.67019 0.86619 0.0
O281 O 0.74323 0.65643 0.855 0.0
Cd282 Cd 0.76397 0.62937 0.84848 0.0
O283 O 0.76359 0.66988 0.87552 0.0
Cd284 Cd 0.7922 0.64834 0.87987 0.0
C285 C 0.80447 0.65433 0.83322 0.0
O286 O 0.77494 0.61773 0.87869 0.0
O287 O 0.80633 0.61589 0.87719 0.0
O288 O 0.79241 0.65492 0.91395 0.0
C289 C 0.79004 0.60719 0.87795 0.0
O290 O 0.79042 0.64299 0.82905 0.0
C291 C 0.8099 0.66111 0.91441 0.0
O292 O 0.80763 0.65924 0.85044 0.0
O293 O 0.81915 0.66154 0.89869 0.0
C294 C 0.25103 0.79556 0.10304 0.0
O295 O 0.24647 0.80995 0.11338 0.0
Cd296 Cd 0.26592 0.83822 0.1188 0.0
O297 O 0.26693 0.79547 0.09349 0.0
Cd298 Cd 0.29516 0.81729 0.08725 0.0
C299 C 0.30745 0.815 0.13445 0.0
O300 O 0.27693 0.84696 0.0879 0.0
O301 O 0.30809 0.85054 0.08616 0.0
O302 O 0.29526 0.80843 0.05373 0.0
C303 C 0.29137 0.85836 0.08702 0.0
O304 O 0.29295 0.82593 0.13813 0.0
C305 C 0.31299 0.80299 0.05338 0.0
O306 O 0.31089 0.80934 0.11747 0.0
O307 O 0.32236 0.80382 0.06898 0.0
C308 C 0.21614 0.17341 0.60462 0.0
O309 O 0.22095 0.15941 0.61535 0.0
Cd310 Cd 0.20172 0.13104 0.62134 0.0
O311 O 0.20018 0.17298 0.59527 0.0
Cd312 Cd 0.17198 0.15101 0.58995 0.0
C313 C 0.16015 0.15431 0.63714 0.0
O314 O 0.1906 0.12143 0.59075 0.0
O315 O 0.15946 0.11765 0.58946 0.0
O316 O 0.17243 0.16121 0.55679 0.0
C317 C 0.17622 0.10993 0.59024 0.0
O318 O 0.17458 0.14324 0.64062 0.0
C319 C 0.15419 0.1645 0.55581 0.0
O320 O 0.15662 0.16001 0.62021 0.0
O321 O 0.14424 0.1619 0.57092 0.0
C322 C 0.71768 0.29646 0.36906 0.0
O323 O 0.72231 0.3104 0.35818 0.0
Cd324 Cd 0.70162 0.33734 0.35139 0.0
O325 O 0.70147 0.29656 0.37808 0.0
Cd326 Cd 0.6728 0.31823 0.38225 0.0
C327 C 0.66145 0.31234 0.33542 0.0
O328 O 0.69021 0.34879 0.38156 0.0
O329 O 0.65891 0.35083 0.37953 0.0
O330 O 0.67192 0.31117 0.41626 0.0
C331 C 0.67523 0.35945 0.38064 0.0
O332 O 0.67564 0.32362 0.33151 0.0
C333 C 0.65425 0.30549 0.41649 0.0
O334 O 0.65787 0.30747 0.35259 0.0
O335 O 0.64524 0.30554 0.40068 0.0
H336 H 0.13015 0.29104 0.13498 0.0
H337 H 0.11345 0.27726 0.16272 0.0
H338 H 0.14615 0.31506 0.19975 0.0
H339 H 0.1626 0.32912 0.17223 0.0
H340 H 0.13231 0.25793 0.19086 0.0
H341 H 0.09189 0.31925 0.22242 0.0
H342 H 0.10128 0.31973 0.19833 0.0
H343 H 0.11709 0.32501 0.21815 0.0
C344 C 0.13349 0.29671 0.14899 0.0
C345 C 0.14779 0.31114 0.15136 0.0
C346 C 0.12393 0.28882 0.16483 0.0
C347 C 0.12837 0.2953 0.18329 0.0
C348 C 0.14213 0.31015 0.18563 0.0
H349 H 0.123 0.25627 0.29812 0.0
H350 H 0.12624 0.27413 0.26822 0.0
C351 C 0.15166 0.31806 0.16984 0.0
C352 C 0.12045 0.28512 0.20022 0.0
H353 H 0.09839 0.29241 0.24336 0.0
C354 C 0.12455 0.26537 0.20218 0.0
C355 C 0.11042 0.29489 0.21501 0.0
C356 C 0.10474 0.31585 0.21331 0.0
C357 C 0.11977 0.25534 0.21892 0.0
C358 C 0.11033 0.26527 0.23397 0.0
C359 C 0.10566 0.28486 0.23179 0.0
C360 C 0.1064 0.25576 0.25248 0.0
C361 C 0.1257 0.23443 0.22071 0.0
C362 C 0.09368 0.2399 0.25365 0.0
C363 C 0.09185 0.22959 0.27069 0.0
C364 C 0.10264 0.23505 0.28689 0.0
C365 C 0.11456 0.2516 0.28591 0.0
C366 C 0.1164 0.26186 0.26884 0.0
H367 H 0.13624 0.23007 0.20944 0.0
H368 H 0.1324 0.23164 0.23485 0.0
H369 H 0.11253 0.22514 0.21942 0.0
H370 H 0.08559 0.23517 0.24123 0.0
H371 H 0.08239 0.21704 0.27098 0.0
H372 H 0.35253 0.70909 0.7991 0.0
H373 H 0.34834 0.69058 0.76976 0.0
H374 H 0.37753 0.73549 0.73795 0.0
H375 H 0.3821 0.75399 0.76728 0.0
H376 H 0.32663 0.70467 0.74002 0.0
H377 H 0.40152 0.6866 0.71516 0.0
H378 H 0.39633 0.69407 0.73933 0.0
H379 H 0.39783 0.71169 0.72057 0.0
C380 C 0.35841 0.71489 0.78594 0.0
C381 C 0.36753 0.7331 0.78553 0.0
C382 C 0.35603 0.70426 0.76919 0.0
C383 C 0.36275 0.71158 0.75171 0.0
C384 C 0.37258 0.72938 0.75133 0.0
H385 H 0.33399 0.68342 0.63453 0.0
H386 H 0.34919 0.69683 0.66326 0.0
C387 C 0.37505 0.74 0.76812 0.0
C388 C 0.35731 0.70173 0.73373 0.0
H389 H 0.37555 0.68115 0.69313 0.0
C390 C 0.33734 0.69938 0.72985 0.0
C391 C 0.37132 0.69509 0.7204 0.0
C392 C 0.39296 0.69681 0.72409 0.0
C393 C 0.33095 0.6907 0.71295 0.0
C394 C 0.34492 0.68388 0.69969 0.0
C395 C 0.36492 0.68633 0.70341 0.0
C396 C 0.33871 0.67419 0.68191 0.0
C397 C 0.30926 0.68922 0.70927 0.0
C398 C 0.32849 0.65665 0.68283 0.0
C399 C 0.31971 0.64903 0.66654 0.0
C400 C 0.32111 0.65876 0.64898 0.0
C401 C 0.33257 0.67562 0.64784 0.0
C402 C 0.34129 0.68329 0.66422 0.0
H403 H 0.30072 0.69903 0.71864 0.0
H404 H 0.30586 0.6927 0.69418 0.0
H405 H 0.30433 0.67421 0.71208 0.0
H406 H 0.32659 0.64929 0.69634 0.0
H407 H 0.31121 0.63589 0.66789 0.0
H408 H 0.59009 0.2563 0.70222 0.0
H409 H 0.59566 0.23791 0.73148 0.0
H410 H 0.62109 0.19168 0.6986 0.0
H411 H 0.61592 0.21004 0.66931 0.0
H412 H 0.58497 0.2003 0.74439 0.0
H413 H 0.66518 0.20843 0.73469 0.0
H414 H 0.64772 0.22218 0.72109 0.0
H415 H 0.65293 0.19755 0.71478 0.0
C416 C 0.59665 0.24212 0.70116 0.0
C417 C 0.60284 0.23477 0.68344 0.0
C418 C 0.59978 0.23162 0.71791 0.0
C419 C 0.60912 0.21363 0.71721 0.0
C420 C 0.61421 0.20573 0.69945 0.0
H421 H 0.65998 0.13741 0.80035 0.0
H422 H 0.64479 0.15108 0.772 0.0
C423 C 0.6112 0.21624 0.68273 0.0
C424 C 0.61479 0.20372 0.73505 0.0
H425 H 0.65463 0.18837 0.75993 0.0
C426 C 0.60018 0.19768 0.74785 0.0
C427 C 0.63467 0.20053 0.73957 0.0
C428 C 0.65106 0.20766 0.72692 0.0
C429 C 0.60497 0.18808 0.76487 0.0
C430 C 0.62484 0.18466 0.7692 0.0
C431 C 0.63939 0.19085 0.75646 0.0
C432 C 0.63116 0.17488 0.7869 0.0
C433 C 0.58878 0.18135 0.77791 0.0
C434 C 0.62817 0.18352 0.80477 0.0
C435 C 0.63685 0.17572 0.8211 0.0
C436 C 0.64882 0.15926 0.81974 0.0
C437 C 0.65097 0.15017 0.80192 0.0
C438 C 0.64228 0.15793 0.78568 0.0
H439 H 0.57442 0.18104 0.77055 0.0
H440 H 0.59194 0.16672 0.78359 0.0
H441 H 0.58763 0.19141 0.79019 0.0
H442 H 0.61992 0.19679 0.80597 0.0
H443 H 0.63493 0.18311 0.83458 0.0
H444 H 0.84976 0.75915 0.17268 0.0
H445 H 0.84669 0.77631 0.20291 0.0
H446 H 0.88348 0.73404 0.23009 0.0
H447 H 0.88653 0.71661 0.19991 0.0
H448 H 0.84792 0.73912 0.24803 0.0
H449 H 0.88295 0.81001 0.23503 0.0
H450 H 0.86572 0.80354 0.21684 0.0
H451 H 0.88739 0.78922 0.22007 0.0
C452 C 0.85754 0.75368 0.18497 0.0
C453 C 0.86829 0.73642 0.18387 0.0
C454 C 0.85588 0.76361 0.20223 0.0
C455 C 0.86504 0.75657 0.2187 0.0
C456 C 0.87641 0.73978 0.21751 0.0
H457 H 0.83604 0.78929 0.3368 0.0
H458 H 0.85393 0.77554 0.30974 0.0
C459 C 0.87812 0.72984 0.20023 0.0
C460 C 0.86074 0.76544 0.23747 0.0
H461 H 0.86026 0.80844 0.26128 0.0
C462 C 0.85095 0.75418 0.25112 0.0
C463 C 0.86467 0.78509 0.24139 0.0
C464 C 0.87593 0.79763 0.22763 0.0
C465 C 0.84397 0.7623 0.26814 0.0
C466 C 0.84726 0.78214 0.27176 0.0
C467 C 0.85776 0.79323 0.25846 0.0
C468 C 0.83834 0.79196 0.28841 0.0
C469 C 0.83219 0.74981 0.28157 0.0
C470 C 0.82428 0.80634 0.28542 0.0
C471 C 0.81416 0.81433 0.3008 0.0
C472 C 0.8179 0.80808 0.31953 0.0
C473 C 0.83266 0.7943 0.32256 0.0
C474 C 0.84285 0.78636 0.30712 0.0
H475 H 0.82767 0.73598 0.27484 0.0
H476 H 0.84115 0.74634 0.29427 0.0
H477 H 0.81887 0.7575 0.28649 0.0
H478 H 0.82063 0.81091 0.27109 0.0
H479 H 0.80299 0.82499 0.29792 0.0
H480 H 0.30329 0.11198 0.26354 0.0
H481 H 0.276 0.11891 0.28497 0.0
H482 H 0.2366 0.08957 0.24673 0.0
H483 H 0.2638 0.08227 0.22537 0.0
H484 H 0.24598 0.14161 0.27277 0.0
H485 H 0.21665 0.07165 0.2985 0.0
H486 H 0.2408 0.07405 0.28827 0.0
H487 H 0.21969 0.07262 0.27309 0.0
C488 C 0.28892 0.10656 0.2599 0.0
C489 C 0.28571 0.09674 0.24263 0.0
C490 C 0.27334 0.11052 0.27219 0.0
C491 C 0.2543 0.10466 0.2675 0.0
C492 C 0.25122 0.09389 0.25083 0.0
H493 H 0.13772 0.14025 0.29668 0.0
H494 H 0.16681 0.12364 0.2847 0.0
C495 C 0.2668 0.08985 0.23855 0.0
C496 C 0.23743 0.11223 0.27846 0.0
H497 H 0.19563 0.09916 0.30189 0.0
C498 C 0.23513 0.13233 0.2794 0.0
C499 C 0.22319 0.10007 0.28686 0.0
C500 C 0.22526 0.07839 0.2868 0.0
C501 C 0.2187 0.14064 0.28803 0.0
C502 C 0.20435 0.12851 0.2963 0.0
C503 C 0.20671 0.10839 0.29558 0.0
C504 C 0.1865 0.13664 0.30511 0.0
C505 C 0.21649 0.16234 0.28758 0.0
C506 C 0.18789 0.14897 0.32092 0.0
C507 C 0.17138 0.15861 0.32769 0.0
C508 C 0.15311 0.15594 0.31889 0.0
C509 C 0.15158 0.14272 0.30372 0.0
C510 C 0.16816 0.13316 0.29688 0.0
H511 H 0.22636 0.16913 0.27691 0.0
H512 H 0.20121 0.16648 0.28423 0.0
H513 H 0.22021 0.16833 0.3018 0.0
H514 H 0.20189 0.15156 0.32766 0.0
H515 H 0.17304 0.16849 0.33956 0.0
H516 H 0.33463 0.83228 0.79962 0.0
H517 H 0.30659 0.85029 0.78754 0.0
H518 H 0.26759 0.8133 0.81932 0.0
H519 H 0.2955 0.79539 0.83172 0.0
H520 H 0.27801 0.8342 0.7656 0.0
H521 H 0.24505 0.86649 0.83035 0.0
H522 H 0.26967 0.8571 0.8299 0.0
H523 H 0.24917 0.84101 0.83254 0.0
C524 C 0.32012 0.82813 0.80428 0.0
C525 C 0.31731 0.81232 0.81658 0.0
C526 C 0.30412 0.83849 0.79739 0.0
C527 C 0.28504 0.83331 0.80274 0.0
C528 C 0.28221 0.81785 0.81537 0.0
H529 H 0.16924 0.84748 0.76122 0.0
H530 H 0.19853 0.84165 0.78022 0.0
C531 C 0.2982 0.80751 0.82231 0.0
C532 C 0.26807 0.84263 0.79352 0.0
H533 H 0.22463 0.86513 0.80255 0.0
C534 C 0.26649 0.84126 0.77363 0.0
C535 C 0.25303 0.85173 0.80408 0.0
C536 C 0.25437 0.85435 0.82539 0.0
C537 C 0.24991 0.84801 0.76406 0.0
C538 C 0.23465 0.8567 0.77465 0.0
C539 C 0.2364 0.85851 0.7945 0.0
C540 C 0.21628 0.86271 0.76535 0.0
C541 C 0.24849 0.84499 0.74278 0.0
C542 C 0.21638 0.87708 0.75127 0.0
C543 C 0.19971 0.88038 0.74029 0.0
C544 C 0.18263 0.86943 0.74331 0.0
C545 C 0.18218 0.85608 0.75841 0.0
C546 C 0.19889 0.85274 0.76933 0.0
H547 H 0.2596 0.8346 0.73745 0.0
H548 H 0.23375 0.83957 0.73881 0.0
H549 H 0.25089 0.85897 0.7354 0.0
H550 H 0.2296 0.88516 0.74824 0.0
H551 H 0.2005 0.89094 0.72892 0.0
H552 H 0.80536 0.35439 0.70107 0.0
H553 H 0.77773 0.34744 0.68015 0.0
H554 H 0.73945 0.37899 0.71783 0.0
H555 H 0.76698 0.38631 0.73866 0.0
H556 H 0.74725 0.32587 0.69343 0.0
H557 H 0.71949 0.39552 0.66578 0.0
H558 H 0.74366 0.39296 0.6758 0.0
H559 H 0.72272 0.39542 0.69117 0.0
C560 C 0.79117 0.3603 0.70467 0.0
C561 C 0.78835 0.37074 0.72166 0.0
C562 C 0.7754 0.35632 0.69267 0.0
C563 C 0.75656 0.36278 0.69738 0.0
C564 C 0.75391 0.37418 0.71371 0.0
H565 H 0.63868 0.32908 0.67191 0.0
H566 H 0.66851 0.34523 0.68271 0.0
C567 C 0.76969 0.37823 0.72569 0.0
C568 C 0.7394 0.35523 0.68691 0.0
H569 H 0.69759 0.36844 0.66385 0.0
C570 C 0.73655 0.33516 0.68668 0.0
C571 C 0.72537 0.36741 0.67835 0.0
C572 C 0.72802 0.38902 0.67761 0.0
C573 C 0.71977 0.32693 0.67866 0.0
C574 C 0.7056 0.3391 0.6703 0.0
C575 C 0.70853 0.35917 0.67025 0.0
C576 C 0.68735 0.33111 0.66221 0.0
C577 C 0.71698 0.30533 0.67988 0.0
C578 C 0.68804 0.31828 0.64676 0.0
C579 C 0.67108 0.30891 0.64065 0.0
C580 C 0.65309 0.31235 0.6498 0.0
C581 C 0.6523 0.32601 0.66463 0.0
C582 C 0.66931 0.33531 0.67079 0.0
H583 H 0.72692 0.29865 0.6905 0.0
H584 H 0.70167 0.30167 0.68378 0.0
H585 H 0.72017 0.29878 0.66578 0.0
H586 H 0.7018 0.31512 0.63976 0.0
H587 H 0.67218 0.29866 0.62903 0.0
H588 H 0.83544 0.63761 0.17057 0.0
H589 H 0.8081 0.61848 0.18283 0.0
H590 H 0.76774 0.65356 0.15091 0.0
H591 H 0.79491 0.6726 0.13837 0.0
H592 H 0.77845 0.63337 0.20465 0.0
H593 H 0.74788 0.5992 0.13983 0.0
H594 H 0.77209 0.60965 0.14048 0.0
H595 H 0.75099 0.62482 0.13745 0.0
C596 C 0.82077 0.64111 0.16593 0.0
C597 C 0.81736 0.6567 0.15353 0.0
C598 C 0.80518 0.63012 0.17293 0.0
C599 C 0.78593 0.63441 0.16755 0.0
C600 C 0.78251 0.6497 0.15488 0.0
H601 H 0.67008 0.61691 0.20711 0.0
H602 H 0.69969 0.623 0.18855 0.0
C603 C 0.79808 0.66069 0.14786 0.0
C604 C 0.76929 0.62433 0.1767 0.0
H605 H 0.72684 0.60011 0.16734 0.0
C606 C 0.76733 0.62578 0.19655 0.0
C607 C 0.7548 0.61453 0.16605 0.0
C608 C 0.75661 0.61178 0.14479 0.0
C609 C 0.75081 0.61852 0.20599 0.0
C610 C 0.73603 0.60921 0.19528 0.0
C611 C 0.73823 0.60722 0.17548 0.0
C612 C 0.71756 0.60287 0.20434 0.0
C613 C 0.74887 0.62176 0.2272 0.0
C614 C 0.71762 0.58888 0.21879 0.0
C615 C 0.70075 0.58544 0.22954 0.0
C616 C 0.6835 0.59585 0.2259 0.0
C617 C 0.68313 0.60873 0.2104 0.0
C618 C 0.70003 0.61222 0.19973 0.0
H619 H 0.75957 0.63255 0.23256 0.0
H620 H 0.73391 0.62676 0.2309 0.0
H621 H 0.75152 0.60795 0.23478 0.0
H622 H 0.73094 0.58125 0.2223 0.0
H623 H 0.70149 0.57524 0.24122 0.0
H624 H 0.28272 0.12901 0.14443 0.0
H625 H 0.26898 0.15708 0.12816 0.0
H626 H 0.30798 0.1945 0.15931 0.0
H627 H 0.32204 0.1666 0.17538 0.0
H628 H 0.2502 0.18702 0.14562 0.0
H629 H 0.31404 0.21463 0.10524 0.0
H630 H 0.31331 0.19064 0.11532 0.0
H631 H 0.31921 0.2111 0.13007 0.0
C632 C 0.28854 0.14319 0.14767 0.0
C633 C 0.30347 0.14555 0.16123 0.0
C634 C 0.2807 0.15919 0.13832 0.0
C635 C 0.2877 0.17781 0.1423 0.0
C636 C 0.30272 0.18021 0.15567 0.0
H637 H 0.25065 0.29442 0.12917 0.0
H638 H 0.26824 0.26429 0.13492 0.0
C639 C 0.31061 0.16423 0.16497 0.0
C640 C 0.27817 0.1949 0.1338 0.0
H641 H 0.28729 0.23668 0.10951 0.0
C642 C 0.25822 0.19773 0.13745 0.0
C643 C 0.28873 0.20884 0.12321 0.0
C644 C 0.30996 0.20608 0.11806 0.0
C645 C 0.24868 0.21455 0.1315 0.0
C646 C 0.25936 0.22874 0.12138 0.0
C647 C 0.2792 0.22573 0.11729 0.0
C648 C 0.25031 0.24724 0.11591 0.0
C649 C 0.22746 0.21737 0.13676 0.0
C650 C 0.23486 0.24766 0.10284 0.0
C651 C 0.22473 0.26482 0.09955 0.0
C652 C 0.22996 0.28184 0.10926 0.0
C653 C 0.24618 0.28156 0.12155 0.0
C654 C 0.25627 0.26438 0.12483 0.0
H655 H 0.22246 0.20683 0.14768 0.0
H656 H 0.22496 0.2322 0.14229 0.0
H657 H 0.21829 0.21544 0.12386 0.0
H658 H 0.23026 0.23459 0.09562 0.0
H659 H 0.21243 0.26456 0.08986 0.0
H660 H 0.82274 0.30062 0.78807 0.0
H661 H 0.80813 0.27312 0.80458 0.0
H662 H 0.77335 0.31184 0.83879 0.0
H663 H 0.78759 0.33951 0.82209 0.0
H664 H 0.80688 0.26286 0.84306 0.0
H665 H 0.73254 0.27675 0.81424 0.0
H666 H 0.75405 0.28865 0.80504 0.0
H667 H 0.74321 0.29658 0.82706 0.0
C668 C 0.81202 0.30334 0.79914 0.0
C669 C 0.80616 0.32227 0.80361 0.0
C670 C 0.80374 0.28759 0.80859 0.0
C671 C 0.78947 0.29047 0.82268 0.0
C672 C 0.78407 0.30934 0.82768 0.0
H673 H 0.71454 0.20628 0.87901 0.0
H674 H 0.73321 0.2356 0.87227 0.0
C675 C 0.79226 0.32512 0.81815 0.0
C676 C 0.77982 0.27361 0.83159 0.0
H677 H 0.73584 0.25064 0.83543 0.0
C678 C 0.79133 0.2602 0.8415 0.0
C679 C 0.75954 0.27022 0.82946 0.0
C680 C 0.7466 0.28369 0.81824 0.0
C681 C 0.78309 0.24338 0.84927 0.0
C682 C 0.76289 0.23987 0.84685 0.0
C683 C 0.75132 0.25348 0.83733 0.0
C684 C 0.75351 0.22167 0.85302 0.0
C685 C 0.79602 0.22952 0.85997 0.0
C686 C 0.75895 0.2041 0.8446 0.0
C687 C 0.7483 0.18731 0.84837 0.0
C688 C 0.73193 0.18785 0.86053 0.0
C689 C 0.72703 0.20535 0.86953 0.0
C690 C 0.73768 0.22213 0.86573 0.0
H691 H 0.80954 0.23669 0.86515 0.0
H692 H 0.78816 0.22314 0.87234 0.0
H693 H 0.80039 0.21759 0.8503 0.0
H694 H 0.77091 0.20354 0.83446 0.0
H695 H 0.75247 0.17409 0.84118 0.0
H696 H 0.7115 0.7962 0.3442 0.0
H697 H 0.69249 0.7672 0.33717 0.0
H698 H 0.73333 0.73284 0.36928 0.0
H699 H 0.75228 0.76178 0.37669 0.0
H700 H 0.70835 0.7373 0.31667 0.0
H701 H 0.68086 0.71065 0.38637 0.0
H702 H 0.68967 0.73501 0.38299 0.0
H703 H 0.70666 0.71546 0.38589 0.0
C704 C 0.71624 0.78255 0.35012 0.0
C705 C 0.7335 0.7813 0.36089 0.0
C706 C 0.70533 0.766 0.3461 0.0
C707 C 0.71143 0.74791 0.35282 0.0
C708 C 0.72815 0.74671 0.36428 0.0
H709 H 0.68347 0.6302 0.32045 0.0
H710 H 0.69687 0.65917 0.33572 0.0
C711 C 0.73904 0.76328 0.36839 0.0
C712 C 0.70173 0.73017 0.34587 0.0
H713 H 0.67843 0.68891 0.36003 0.0
C714 C 0.70165 0.72681 0.32614 0.0
C715 C 0.69322 0.71643 0.3583 0.0
C716 C 0.69242 0.7196 0.37956 0.0
C717 C 0.69348 0.70998 0.31848 0.0
C718 C 0.6849 0.69628 0.33087 0.0
C719 C 0.68502 0.69952 0.35061 0.0
C720 C 0.67566 0.67858 0.32335 0.0
C721 C 0.69443 0.70681 0.29719 0.0
C722 C 0.65904 0.67994 0.3118 0.0
C723 C 0.65143 0.66352 0.30301 0.0
C724 C 0.66024 0.64539 0.3057 0.0
C725 C 0.6764 0.64395 0.318 0.0
C726 C 0.68404 0.66045 0.32677 0.0
H727 H 0.70536 0.71641 0.29026 0.0
H728 H 0.69818 0.69158 0.29385 0.0
H729 H 0.67992 0.70995 0.29088 0.0
H730 H 0.65224 0.69381 0.30922 0.0
H731 H 0.63884 0.66514 0.29381 0.0
H732 H 0.18163 0.84064 0.64442 0.0
H733 H 0.19596 0.81329 0.62732 0.0
H734 H 0.15801 0.77423 0.65788 0.0
H735 H 0.14338 0.80137 0.67475 0.0
H736 H 0.21562 0.78377 0.64424 0.0
H737 H 0.15291 0.75444 0.60372 0.0
H738 H 0.15276 0.77832 0.61408 0.0
H739 H 0.14741 0.7575 0.62855 0.0
C740 C 0.17613 0.82626 0.6473 0.0
C741 C 0.16139 0.8232 0.661 0.0
C742 C 0.18431 0.81066 0.63749 0.0
C743 C 0.17782 0.79178 0.64111 0.0
C744 C 0.16288 0.78873 0.6545 0.0
H745 H 0.21785 0.67622 0.62846 0.0
H746 H 0.19973 0.70608 0.63417 0.0
C747 C 0.15466 0.80428 0.66427 0.0
C748 C 0.18794 0.77509 0.63242 0.0
H749 H 0.18013 0.73294 0.60831 0.0
C750 C 0.20796 0.77282 0.63608 0.0
C751 C 0.17786 0.76082 0.62185 0.0
C752 C 0.15659 0.76297 0.61665 0.0
C753 C 0.21799 0.75622 0.63022 0.0
C754 C 0.20776 0.74167 0.62021 0.0
C755 C 0.18788 0.74415 0.61604 0.0
C756 C 0.21731 0.72332 0.61495 0.0
C757 C 0.23925 0.754 0.63551 0.0
C758 C 0.23278 0.7231 0.60182 0.0
C759 C 0.2432 0.7061 0.59855 0.0
C760 C 0.23827 0.68902 0.60833 0.0
C761 C 0.2221 0.68912 0.62077 0.0
C762 C 0.2117 0.70614 0.62402 0.0
H763 H 0.24394 0.76482 0.64628 0.0
H764 H 0.24208 0.73932 0.64126 0.0
H765 H 0.24843 0.75593 0.62259 0.0
H766 H 0.23711 0.7362 0.59449 0.0
H767 H 0.25546 0.7065 0.58875 0.0
H768 H 0.80044 0.6492 0.79469 0.0
H769 H 0.81789 0.66615 0.76928 0.0
H770 H 0.853 0.69574 0.81114 0.0
H771 H 0.83549 0.67908 0.83669 0.0
H772 H 0.83453 0.72013 0.78577 0.0
H773 H 0.87302 0.66161 0.74687 0.0
H774 H 0.8474 0.65724 0.75058 0.0
H775 H 0.86352 0.65854 0.77074 0.0
C776 C 0.81209 0.65907 0.79852 0.0
C777 C 0.81647 0.66286 0.81775 0.0
C778 C 0.82215 0.66864 0.78395 0.0
C779 C 0.83688 0.68203 0.78833 0.0
C780 C 0.84174 0.68537 0.80747 0.0
H781 H 0.89799 0.76961 0.72282 0.0
H782 H 0.88857 0.74601 0.74701 0.0
C783 C 0.83169 0.67584 0.82205 0.0
C784 C 0.84574 0.69405 0.77314 0.0
H785 H 0.87159 0.69231 0.73144 0.0
C786 C 0.84281 0.71407 0.774 0.0
C787 C 0.85635 0.68605 0.75772 0.0
C788 C 0.86044 0.6647 0.75644 0.0
C789 C 0.84989 0.72632 0.75967 0.0
C790 C 0.8605 0.71835 0.74424 0.0
C791 C 0.86349 0.69833 0.74335 0.0
C792 C 0.86826 0.73076 0.72882 0.0
C793 C 0.84548 0.74764 0.76091 0.0
C794 C 0.86063 0.72937 0.71032 0.0
C795 C 0.86606 0.7428 0.69638 0.0
C796 C 0.87919 0.75781 0.70076 0.0
C797 C 0.88766 0.7584 0.71902 0.0
C798 C 0.88228 0.74495 0.73289 0.0
H799 H 0.83344 0.75072 0.77112 0.0
H800 H 0.85871 0.75544 0.76587 0.0
H801 H 0.8414 0.75349 0.74673 0.0
H802 H 0.84985 0.71844 0.70692 0.0
H803 H 0.85933 0.74188 0.68244 0.0
H804 H 0.56875 0.19777 0.22484 0.0
H805 H 0.57781 0.22186 0.24862 0.0
H806 H 0.61527 0.24999 0.2076 0.0
H807 H 0.60611 0.22606 0.18354 0.0
H808 H 0.61623 0.2256 0.26036 0.0
H809 H 0.58795 0.29567 0.23377 0.0
H810 H 0.57899 0.27271 0.22519 0.0
H811 H 0.60189 0.2821 0.21666 0.0
C812 C 0.57862 0.20929 0.22071 0.0
C813 C 0.58684 0.20988 0.20231 0.0
C814 C 0.58375 0.22307 0.23434 0.0
C815 C 0.59712 0.23776 0.22985 0.0
C816 C 0.60465 0.23897 0.21126 0.0
H817 H 0.66743 0.31602 0.29695 0.0
H818 H 0.65035 0.29897 0.27137 0.0
C819 C 0.59947 0.22521 0.19755 0.0
C820 C 0.60493 0.2502 0.24523 0.0
H821 H 0.61033 0.29699 0.25975 0.0
C822 C 0.61478 0.2412 0.26032 0.0
C823 C 0.60318 0.27054 0.245 0.0
C824 C 0.59229 0.28087 0.22938 0.0
C825 C 0.62321 0.25198 0.27508 0.0
C826 C 0.6214 0.27231 0.27494 0.0
C827 C 0.61157 0.28138 0.25984 0.0
C828 C 0.63012 0.2843 0.29019 0.0
C829 C 0.63446 0.24151 0.29041 0.0
C830 C 0.62397 0.28213 0.30916 0.0
C831 C 0.63375 0.29174 0.32383 0.0
C832 C 0.64978 0.30382 0.31976 0.0
C833 C 0.65522 0.30675 0.30061 0.0
C834 C 0.64545 0.29706 0.28595 0.0
H835 H 0.63847 0.22663 0.28597 0.0
H836 H 0.64803 0.24946 0.29414 0.0
H837 H 0.62527 0.24043 0.30342 0.0
H838 H 0.61191 0.2726 0.31267 0.0
H839 H 0.62904 0.28931 0.33839 0.0
H840 H 0.35949 0.7291 0.28613 0.0
H841 H 0.3503 0.75298 0.26201 0.0
H842 H 0.39465 0.73079 0.22417 0.0
H843 H 0.40382 0.70681 0.248 0.0
H844 H 0.37221 0.78204 0.23914 0.0
H845 H 0.34122 0.7213 0.1969 0.0
H846 H 0.34747 0.71895 0.22178 0.0
H847 H 0.36632 0.71853 0.2039 0.0
C848 C 0.36755 0.72955 0.27283 0.0
C849 C 0.38216 0.71583 0.26886 0.0
C850 C 0.36229 0.74321 0.25909 0.0
C851 C 0.3716 0.74337 0.24125 0.0
C852 C 0.38712 0.73067 0.23778 0.0
H853 H 0.34032 0.79263 0.13211 0.0
H854 H 0.35804 0.77751 0.15834 0.0
C855 C 0.39233 0.71698 0.25143 0.0
C856 C 0.36386 0.75539 0.22559 0.0
H857 H 0.34062 0.75209 0.18275 0.0
C858 C 0.36531 0.77557 0.22677 0.0
C859 C 0.35483 0.74682 0.20956 0.0
C860 C 0.35217 0.72523 0.20793 0.0
C861 C 0.35818 0.78743 0.2121 0.0
C862 C 0.34912 0.77882 0.19608 0.0
C863 C 0.34773 0.75865 0.19497 0.0
C864 C 0.34023 0.79028 0.18054 0.0
C865 C 0.36066 0.80901 0.21373 0.0
C866 C 0.32452 0.80269 0.18434 0.0
C867 C 0.31437 0.81141 0.16937 0.0
C868 C 0.31963 0.80768 0.15031 0.0
C869 C 0.33583 0.79577 0.1466 0.0
C870 C 0.346 0.78713 0.16158 0.0
H871 H 0.37262 0.81288 0.22373 0.0
H872 H 0.36381 0.81559 0.19962 0.0
H873 H 0.34692 0.8154 0.2193 0.0
H874 H 0.31953 0.80499 0.19883 0.0
H875 H 0.30194 0.82046 0.17276 0.0
H876 H 0.13135 0.18175 0.63615 0.0
H877 H 0.11477 0.19664 0.66335 0.0
H878 H 0.14516 0.15845 0.70165 0.0
H879 H 0.16204 0.14363 0.67464 0.0
H880 H 0.09122 0.1817 0.69407 0.0
H881 H 0.16173 0.21306 0.71874 0.0
H882 H 0.15878 0.20272 0.69531 0.0
H883 H 0.1615 0.1873 0.71572 0.0
C884 C 0.13436 0.17635 0.65033 0.0
C885 C 0.14826 0.16169 0.65323 0.0
C886 C 0.12482 0.18485 0.66585 0.0
C887 C 0.12901 0.17885 0.68449 0.0
C888 C 0.14201 0.1635 0.68737 0.0
H889 H 0.10258 0.23745 0.79155 0.0
H890 H 0.11139 0.21216 0.76875 0.0
C891 C 0.1516 0.15503 0.6719 0.0
C892 C 0.12085 0.18958 0.70091 0.0
H893 H 0.13393 0.21957 0.73732 0.0
C894 C 0.10052 0.1899 0.70363 0.0
C895 C 0.13307 0.20023 0.71332 0.0
C896 C 0.15497 0.20101 0.71062 0.0
C897 C 0.09206 0.20073 0.71843 0.0
C898 C 0.10427 0.21173 0.73055 0.0
C899 C 0.12461 0.21101 0.72808 0.0
C900 C 0.09639 0.22531 0.74495 0.0
C901 C 0.07016 0.20031 0.72095 0.0
C902 C 0.08481 0.24093 0.73918 0.0
C903 C 0.07975 0.25539 0.75214 0.0
C904 C 0.08634 0.25461 0.77112 0.0
C905 C 0.09728 0.23853 0.77705 0.0
C906 C 0.10233 0.22405 0.76405 0.0
H907 H 0.06371 0.18692 0.71488 0.0
H908 H 0.06603 0.20133 0.73624 0.0
H909 H 0.06368 0.21278 0.71333 0.0
H910 H 0.08043 0.24243 0.72443 0.0
H911 H 0.07131 0.26756 0.74707 0.0
H912 H 0.67073 0.85505 0.71866 0.0
H913 H 0.70002 0.85157 0.69895 0.0
H914 H 0.73345 0.88356 0.74039 0.0
H915 H 0.7042 0.88742 0.7601 0.0
H916 H 0.74278 0.89248 0.70157 0.0
H917 H 0.74258 0.81349 0.71625 0.0
H918 H 0.72057 0.82289 0.70589 0.0
H919 H 0.72759 0.83023 0.72948 0.0
C920 C 0.68425 0.86156 0.7235 0.0
C921 C 0.68519 0.87128 0.7411 0.0
C922 C 0.70096 0.85952 0.71223 0.0
C923 C 0.71891 0.867 0.71842 0.0
C924 C 0.71971 0.87762 0.73543 0.0
H925 H 0.84074 0.8578 0.6964 0.0
H926 H 0.80788 0.86847 0.70472 0.0
C927 C 0.70298 0.87976 0.74669 0.0
C928 C 0.73715 0.86257 0.70798 0.0
H929 H 0.76782 0.82544 0.69684 0.0
C930 C 0.74822 0.87782 0.70038 0.0
C931 C 0.74416 0.84342 0.7065 0.0
C932 C 0.73324 0.82655 0.71507 0.0
C933 C 0.76629 0.87443 0.69146 0.0
C934 C 0.7735 0.85533 0.69042 0.0
C935 C 0.76216 0.84005 0.69756 0.0
C936 C 0.79342 0.85086 0.68349 0.0
C937 C 0.7775 0.89128 0.68329 0.0
C938 C 0.7962 0.83735 0.66882 0.0
C939 C 0.815 0.83105 0.66412 0.0
C940 C 0.83132 0.83806 0.67415 0.0
C941 C 0.82851 0.85211 0.68838 0.0
C942 C 0.80972 0.85837 0.69306 0.0
H943 H 0.76764 0.9035 0.67978 0.0
H944 H 0.7882 0.89647 0.694 0.0
H945 H 0.78564 0.88705 0.67022 0.0
H946 H 0.78376 0.83128 0.66138 0.0
H947 H 0.81665 0.82025 0.65307 0.0
H948 H 0.65158 0.14868 0.15407 0.0
H949 H 0.68496 0.13848 0.16131 0.0
H950 H 0.66308 0.10102 0.20561 0.0
H951 H 0.62972 0.1109 0.19839 0.0
H952 H 0.702 0.14466 0.19636 0.0
H953 H 0.70311 0.06671 0.17887 0.0
H954 H 0.68459 0.0829 0.16992 0.0
H955 H 0.68279 0.07334 0.19371 0.0
C956 C 0.65382 0.13801 0.16513 0.0
C957 C 0.63797 0.13068 0.17573 0.0
C958 C 0.67291 0.13218 0.16921 0.0
C959 C 0.67645 0.11881 0.18381 0.0
C960 C 0.66063 0.11102 0.19399 0.0
H961 H 0.76723 0.08301 0.25787 0.0
H962 H 0.73784 0.08666 0.23849 0.0
C963 C 0.64157 0.11683 0.18995 0.0
C964 C 0.69667 0.11471 0.18998 0.0
H965 H 0.72832 0.07805 0.2 0.0
C966 C 0.70794 0.13015 0.19683 0.0
C967 C 0.70427 0.09575 0.19065 0.0
C968 C 0.69313 0.07875 0.18272 0.0
C969 C 0.72622 0.12706 0.20524 0.0
C970 C 0.73358 0.10802 0.20645 0.0
C971 C 0.72261 0.09262 0.19903 0.0
C972 C 0.75197 0.10379 0.21664 0.0
C973 C 0.73703 0.14408 0.21363 0.0
C974 C 0.76976 0.11166 0.2104 0.0
C975 C 0.78657 0.10975 0.22151 0.0
C976 C 0.78587 0.09976 0.23897 0.0
C977 C 0.76826 0.09089 0.24457 0.0
C978 C 0.75145 0.09291 0.23349 0.0
H979 H 0.72752 0.15699 0.21505 0.0
H980 H 0.74299 0.14046 0.2279 0.0
H981 H 0.74948 0.14794 0.20419 0.0
H982 H 0.77051 0.1198 0.19723 0.0
H983 H 0.79995 0.11656 0.21667 0.0
H984 H 0.33504 0.63785 0.2607 0.0
H985 H 0.30225 0.62593 0.25389 0.0
H986 H 0.29307 0.61486 0.31386 0.0
H987 H 0.32547 0.62836 0.32081 0.0
H988 H 0.28573 0.59358 0.25713 0.0
H989 H 0.24505 0.64404 0.30417 0.0
H990 H 0.27091 0.64643 0.29999 0.0
H991 H 0.26181 0.62887 0.31678 0.0
C992 C 0.32597 0.63293 0.27242 0.0
C993 C 0.33262 0.63414 0.29126 0.0
C994 C 0.30724 0.62606 0.26854 0.0
C995 C 0.29494 0.61977 0.28338 0.0
C996 C 0.30193 0.62024 0.30222 0.0
H997 H 0.18778 0.56684 0.23618 0.0
H998 H 0.21791 0.56927 0.25496 0.0
C999 C 0.32049 0.62777 0.30617 0.0
C1000 C 0.2749 0.61289 0.27876 0.0
H1001 H 0.2265 0.62109 0.28744 0.0
C1002 C 0.27276 0.59961 0.26377 0.0
C1003 C 0.25795 0.6207 0.28746 0.0
C1004 C 0.25899 0.63592 0.30286 0.0
C1005 C 0.25434 0.59494 0.25632 0.0
C1006 C 0.23737 0.60279 0.26497 0.0
C1007 C 0.23947 0.61505 0.28081 0.0
C1008 C 0.21761 0.60054 0.25644 0.0
C1009 C 0.25354 0.58277 0.23845 0.0
C1010 C 0.20653 0.6171 0.2524 0.0
C1011 C 0.18891 0.61563 0.24256 0.0
C1012 C 0.18226 0.59761 0.23612 0.0
C1013 C 0.1928 0.58092 0.24083 0.0
C1014 C 0.21011 0.58233 0.25134 0.0
H1015 H 0.26788 0.58234 0.23098 0.0
H1016 H 0.24963 0.56771 0.2423 0.0
H1017 H 0.24248 0.58836 0.22832 0.0
H1018 H 0.21188 0.63133 0.25617 0.0
H1019 H 0.18108 0.62873 0.23902 0.0
H1020 H 0.29779 0.35424 0.75309 0.0
H1021 H 0.26821 0.35015 0.7723 0.0
H1022 H 0.23538 0.38303 0.7312 0.0
H1023 H 0.26492 0.38752 0.71203 0.0
H1024 H 0.22518 0.39089 0.76974 0.0
H1025 H 0.22622 0.31218 0.75368 0.0
H1026 H 0.24791 0.32153 0.76476 0.0
H1027 H 0.24146 0.32927 0.74115 0.0
C1028 C 0.28434 0.36082 0.74824 0.0
C1029 C 0.28366 0.37097 0.73088 0.0
C1030 C 0.26746 0.35842 0.75922 0.0
C1031 C 0.24959 0.36596 0.75294 0.0
C1032 C 0.24905 0.37703 0.73622 0.0
H1033 H 0.12732 0.35514 0.77264 0.0
H1034 H 0.16029 0.36593 0.76468 0.0
C1035 C 0.26595 0.37954 0.72527 0.0
C1036 C 0.23117 0.36115 0.76296 0.0
H1037 H 0.20054 0.32353 0.77288 0.0
C1038 C 0.21982 0.37616 0.77058 0.0
C1039 C 0.22427 0.3419 0.76398 0.0
C1040 C 0.23547 0.32528 0.75534 0.0
C1041 C 0.20159 0.37243 0.77905 0.0
C1042 C 0.1945 0.35325 0.77963 0.0
C1043 C 0.2061 0.33821 0.77249 0.0
C1044 C 0.17449 0.34848 0.78614 0.0
C1045 C 0.19004 0.38904 0.78722 0.0
C1046 C 0.17155 0.33499 0.80079 0.0
C1047 C 0.15269 0.32864 0.8053 0.0
C1048 C 0.13647 0.33558 0.7951 0.0
C1049 C 0.13947 0.34951 0.78079 0.0
C1050 C 0.15831 0.35584 0.77632 0.0
H1051 H 0.19969 0.40139 0.79095 0.0
H1052 H 0.1794 0.39412 0.77643 0.0
H1053 H 0.1818 0.38455 0.80015 0.0
H1054 H 0.1839 0.32902 0.80842 0.0
H1055 H 0.15091 0.31792 0.81641 0.0
H1056 H 0.71356 0.67651 0.84688 0.0
H1057 H 0.69533 0.70667 0.84467 0.0
H1058 H 0.73441 0.73319 0.88513 0.0
H1059 H 0.75302 0.70312 0.88728 0.0
H1060 H 0.67646 0.73123 0.87175 0.0
H1061 H 0.74047 0.76624 0.83662 0.0
H1062 H 0.7389 0.74046 0.83999 0.0
H1063 H 0.74474 0.75593 0.85974 0.0
C1064 C 0.71818 0.68865 0.85552 0.0
C1065 C 0.73495 0.68748 0.86703 0.0
C1066 C 0.70768 0.70586 0.85427 0.0
C1067 C 0.71374 0.72221 0.86448 0.0
C1068 C 0.72973 0.72079 0.87689 0.0
H1069 H 0.67677 0.84041 0.8395 0.0
H1070 H 0.69081 0.81294 0.85654 0.0
C1071 C 0.74029 0.70358 0.87813 0.0
C1072 C 0.70421 0.74099 0.86083 0.0
H1073 H 0.71182 0.78449 0.83922 0.0
C1074 C 0.68421 0.74299 0.86485 0.0
C1075 C 0.71441 0.75629 0.85184 0.0
C1076 C 0.73578 0.75469 0.84663 0.0
C1077 C 0.674 0.75976 0.8597 0.0
C1078 C 0.68403 0.7747 0.85 0.0
C1079 C 0.70419 0.77302 0.8467 0.0
C1080 C 0.67373 0.79143 0.84158 0.0
C1081 C 0.65256 0.76123 0.86453 0.0
C1082 C 0.6594 0.78845 0.82761 0.0
C1083 C 0.65135 0.80408 0.81785 0.0
C1084 C 0.65763 0.82303 0.82174 0.0
C1085 C 0.67161 0.82602 0.83613 0.0
C1086 C 0.67964 0.81035 0.84591 0.0
H1087 H 0.64877 0.75213 0.87706 0.0
H1088 H 0.64829 0.77638 0.86758 0.0
H1089 H 0.64383 0.75599 0.85224 0.0
H1090 H 0.65497 0.77396 0.8237 0.0
H1091 H 0.64065 0.80122 0.80684 0.0
H1092 H 0.18193 0.62665 0.14082 0.0
H1093 H 0.19789 0.65412 0.12514 0.0
H1094 H 0.15536 0.69267 0.14977 0.0
H1095 H 0.13934 0.66549 0.16552 0.0
H1096 H 0.1817 0.68655 0.10006 0.0
H1097 H 0.21127 0.70895 0.17047 0.0
H1098 H 0.20236 0.68484 0.16588 0.0
H1099 H 0.18543 0.70421 0.16993 0.0
C1100 C 0.1758 0.64093 0.14268 0.0
C1101 C 0.15951 0.6439 0.15465 0.0
C1102 C 0.18491 0.65657 0.13367 0.0
C1103 C 0.17787 0.67535 0.1365 0.0
C1104 C 0.16105 0.67824 0.14757 0.0
H1105 H 0.21522 0.79163 0.11982 0.0
H1106 H 0.19695 0.76183 0.12505 0.0
C1107 C 0.15195 0.66268 0.15658 0.0
C1108 C 0.18895 0.69218 0.12938 0.0
H1109 H 0.21528 0.7309 0.14496 0.0
C1110 C 0.18919 0.69622 0.10978 0.0
C1111 C 0.19878 0.7046 0.14217 0.0
C1112 C 0.19966 0.70042 0.16328 0.0
C1113 C 0.19846 0.7129 0.10271 0.0
C1114 C 0.20778 0.72558 0.11562 0.0
C1115 C 0.20793 0.72121 0.13514 0.0
C1116 C 0.21724 0.74376 0.10951 0.0
C1117 C 0.19775 0.71718 0.08165 0.0
C1118 C 0.23447 0.74349 0.09864 0.0
C1119 C 0.24502 0.76056 0.09561 0.0
C1120 C 0.23853 0.77809 0.10356 0.0
C1121 C 0.22072 0.77838 0.1136 0.0
C1122 C 0.21022 0.76137 0.11658 0.0
H1123 H 0.18702 0.70786 0.07411 0.0
H1124 H 0.19391 0.73254 0.07917 0.0
H1125 H 0.2124 0.71462 0.07532 0.0
H1126 H 0.24027 0.72998 0.09331 0.0
H1127 H 0.25869 0.75983 0.08782 0.0
H1128 H 0.3266 0.30206 0.66331 0.0
H1129 H 0.31108 0.27551 0.64623 0.0
H1130 H 0.2751 0.31599 0.61557 0.0
H1131 H 0.29038 0.34274 0.6328 0.0
H1132 H 0.254 0.28747 0.633 0.0
H1133 H 0.31482 0.255 0.59208 0.0
H1134 H 0.32085 0.25823 0.61675 0.0
H1135 H 0.31617 0.27902 0.60205 0.0
C1136 C 0.31562 0.3054 0.65272 0.0
C1137 C 0.30967 0.32455 0.64951 0.0
C1138 C 0.30688 0.29018 0.64283 0.0
C1139 C 0.29214 0.29379 0.62942 0.0
C1140 C 0.28656 0.31291 0.62575 0.0
H1141 H 0.20983 0.20701 0.58487 0.0
H1142 H 0.22856 0.23708 0.58711 0.0
C1143 C 0.2953 0.32818 0.63564 0.0
C1144 C 0.28114 0.27748 0.62097 0.0
H1145 H 0.28698 0.23436 0.59807 0.0
C1146 C 0.26109 0.27603 0.625 0.0
C1147 C 0.29047 0.26261 0.61056 0.0
C1148 C 0.31173 0.26386 0.60494 0.0
C1149 C 0.25035 0.25956 0.61993 0.0
C1150 C 0.25989 0.24429 0.61029 0.0
C1151 C 0.27974 0.24609 0.6055 0.0
C1152 C 0.24993 0.22565 0.60678 0.0
C1153 C 0.22918 0.25816 0.62592 0.0
C1154 C 0.25626 0.20911 0.61646 0.0
C1155 C 0.24568 0.19191 0.61516 0.0
C1156 C 0.22857 0.19094 0.60412 0.0
C1157 C 0.22284 0.2073 0.59364 0.0
C1158 C 0.23348 0.22451 0.59494 0.0
H1159 H 0.22506 0.26966 0.63622 0.0
H1160 H 0.21972 0.25963 0.61317 0.0
H1161 H 0.22609 0.2439 0.63252 0.0
H1162 H 0.26897 0.2097 0.62563 0.0
H1163 H 0.2506 0.17958 0.62332 0.0
H1164 H 0.7107 0.26204 0.38719 0.0
H1165 H 0.72992 0.23237 0.38466 0.0
H1166 H 0.77239 0.26212 0.34984 0.0
H1167 H 0.75352 0.2918 0.35246 0.0
H1168 H 0.73669 0.21459 0.35044 0.0
H1169 H 0.80725 0.2311 0.38515 0.0
H1170 H 0.78554 0.24537 0.38915 0.0
H1171 H 0.80039 0.24931 0.36828 0.0
C1172 C 0.72436 0.26239 0.37935 0.0
C1173 C 0.73051 0.27928 0.36992 0.0
C1174 C 0.73532 0.24542 0.37794 0.0
C1175 C 0.75269 0.2451 0.36726 0.0
C1176 C 0.75927 0.26213 0.35852 0.0
H1177 H 0.82583 0.1695 0.30531 0.0
H1178 H 0.81008 0.1958 0.32268 0.0
C1179 C 0.74834 0.27907 0.3599 0.0
C1180 C 0.76265 0.22659 0.3631 0.0
H1181 H 0.80751 0.2051 0.36216 0.0
C1182 C 0.75207 0.2123 0.35336 0.0
C1183 C 0.78273 0.22371 0.36687 0.0
C1184 C 0.79459 0.23812 0.37811 0.0
C1185 C 0.76129 0.1957 0.34628 0.0
C1186 C 0.78156 0.1932 0.34935 0.0
C1187 C 0.79198 0.2071 0.3598 0.0
C1188 C 0.79242 0.17708 0.34044 0.0
C1189 C 0.74948 0.18152 0.33466 0.0
C1190 C 0.78807 0.15783 0.34505 0.0
C1191 C 0.79696 0.14273 0.33506 0.0
C1192 C 0.81046 0.14664 0.32037 0.0
C1193 C 0.81543 0.16596 0.31644 0.0
C1194 C 0.80649 0.18102 0.3264 0.0
H1195 H 0.73502 0.18747 0.33053 0.0
H1196 H 0.75749 0.17735 0.32151 0.0
H1197 H 0.74692 0.16826 0.34319 0.0
H1198 H 0.77748 0.15451 0.35608 0.0
H1199 H 0.79293 0.12803 0.33858 0.0
H1200 H 0.11512 0.1659 0.54775 0.0
H1201 H 0.10002 0.17085 0.5165 0.0
H1202 H 0.15696 0.18045 0.49167 0.0
H1203 H 0.17218 0.17508 0.52269 0.0
H1204 H 0.10035 0.20072 0.4897 0.0
H1205 H 0.13579 0.13467 0.46141 0.0
H1206 H 0.13544 0.14047 0.48648 0.0
H1207 H 0.1529 0.15183 0.47086 0.0
C1208 C 0.1244 0.16926 0.53566 0.0
C1209 C 0.14485 0.16983 0.5376 0.0
C1210 C 0.11575 0.1721 0.51784 0.0
C1211 C 0.12742 0.17561 0.50174 0.0
C1212 C 0.14774 0.17732 0.50386 0.0
H1213 H 0.0968 0.21105 0.38772 0.0
H1214 H 0.10433 0.2104 0.42178 0.0
C1215 C 0.1564 0.17432 0.52161 0.0
C1216 C 0.11853 0.17641 0.48254 0.0
H1217 H 0.12019 0.15494 0.43883 0.0
C1218 C 0.10456 0.19067 0.47857 0.0
C1219 C 0.12375 0.16299 0.46821 0.0
C1220 C 0.13763 0.1465 0.47197 0.0
C1221 C 0.0961 0.19222 0.46039 0.0
C1222 C 0.10209 0.17939 0.4458 0.0
C1223 C 0.11568 0.16485 0.44998 0.0
C1224 C 0.09491 0.18081 0.42593 0.0
C1225 C 0.0807 0.20741 0.45708 0.0
C1226 C 0.08711 0.16443 0.41691 0.0
C1227 C 0.08318 0.16466 0.3974 0.0
C1228 C 0.08685 0.18133 0.38657 0.0
C1229 C 0.09371 0.19804 0.39576 0.0
C1230 C 0.09789 0.19773 0.41526 0.0
H1231 H 0.07341 0.21164 0.47063 0.0
H1232 H 0.08771 0.2205 0.45102 0.0
H1233 H 0.0694 0.20227 0.44693 0.0
H1234 H 0.08472 0.15122 0.42485 0.0
H1235 H 0.0778 0.1516 0.39071 0.0
H1236 H 0.34958 0.78771 0.04861 0.0
H1237 H 0.36595 0.77997 0.01845 0.0
H1238 H 0.31454 0.79762 -0.01245 0.0
H1239 H 0.29794 0.80481 0.01753 0.0
H1240 H 0.33022 0.76486 0.97304 0.0
H1241 H 0.38791 0.82068 0.98289 0.0
H1242 H 0.38654 0.80269 0.00128 0.0
H1243 H 0.36664 0.81927 -0.00194 0.0
C1244 C 0.34174 0.78979 0.03537 0.0
C1245 C 0.32252 0.797 0.03541 0.0
C1246 C 0.35115 0.78548 0.01817 0.0
C1247 C 0.34159 0.78858 0.00075 0.0
C1248 C 0.32221 0.79518 0.00083 0.0
H1249 H 0.37617 0.81684 0.88914 0.0
H1250 H 0.36873 0.81464 0.92306 0.0
C1251 C 0.31274 0.79931 0.01798 0.0
C1252 C 0.35171 0.78554 0.9823 0.0
H1253 H 0.3886 0.80301 0.95431 0.0
C1254 C 0.34312 0.77302 0.96898 0.0
C1255 C 0.36847 0.79633 0.97706 0.0
C1256 C 0.37788 0.81063 -0.00953 0.0
C1257 C 0.3503 0.7716 0.95028 0.0
C1258 C 0.36689 0.78261 0.94495 0.0
C1259 C 0.37598 0.7945 0.95851 0.0
C1260 C 0.37353 0.78381 0.92486 0.0
C1261 C 0.33933 0.75922 0.93616 0.0
C1262 C 0.37929 0.76728 0.91471 0.0
C1263 C 0.38332 0.76845 0.89518 0.0
C1264 C 0.38191 0.78623 0.8856 0.0
C1265 C 0.37727 0.80291 0.89607 0.0
C1266 C 0.37306 0.80169 0.91549 0.0
H1267 H 0.32464 0.755 0.94154 0.0
H1268 H 0.3375 0.7669 0.92239 0.0
H1269 H 0.34773 0.7458 0.93343 0.0
H1270 H 0.38021 0.75342 0.92178 0.0
H1271 H 0.38707 0.75539 0.88751 0.0
H1272 H 0.66913 0.30713 0.45247 0.0
H1273 H 0.65254 0.29928 0.4823 0.0
H1274 H 0.60085 0.28279 0.45112 0.0
H1275 H 0.61725 0.29106 0.42111 0.0
H1276 H 0.59211 0.30615 0.48053 0.0
H1277 H 0.64017 0.24775 0.5061 0.0
H1278 H 0.65408 0.26893 0.50039 0.0
H1279 H 0.64096 0.25643 0.48185 0.0
C1280 C 0.6543 0.30164 0.45192 0.0
C1281 C 0.64452 0.29967 0.43443 0.0
C1282 C 0.64488 0.29702 0.46898 0.0
C1283 C 0.62559 0.29007 0.46892 0.0
C1284 C 0.6158 0.28796 0.45147 0.0
H1285 H 0.58204 0.25671 0.58201 0.0
H1286 H 0.58795 0.25491 0.54758 0.0
C1287 C 0.62519 0.29269 0.43436 0.0
C1288 C 0.61536 0.28632 0.4872 0.0
H1289 H 0.62118 0.26425 0.53025 0.0
C1290 C 0.59825 0.29671 0.49129 0.0
C1291 C 0.62308 0.27366 0.50108 0.0
C1292 C 0.64046 0.2609 0.49705 0.0
C1293 C 0.58943 0.29578 0.50935 0.0
C1294 C 0.59824 0.28452 0.52379 0.0
C1295 C 0.61456 0.27311 0.51928 0.0
C1296 C 0.59201 0.28571 0.54401 0.0
C1297 C 0.57095 0.30711 0.51284 0.0
C1298 C 0.59213 0.30361 0.55339 0.0
C1299 C 0.58865 0.30469 0.57296 0.0
C1300 C 0.58528 0.28784 0.58363 0.0
C1301 C 0.58459 0.26995 0.57417 0.0
C1302 C 0.58798 0.2689 0.55451 0.0
H1303 H 0.5624 0.30873 0.49948 0.0
H1304 H 0.56155 0.3001 0.52376 0.0
H1305 H 0.57484 0.32181 0.51788 0.0
H1306 H 0.59574 0.31672 0.54573 0.0
H1307 H 0.58935 0.31869 0.57982 0.0
H1308 H 0.88119 0.71433 0.0796 0.0
H1309 H 0.87361 0.71518 0.04545 0.0
H1310 H 0.86571 0.65337 0.04557 0.0
H1311 H 0.87375 0.65232 0.07937 0.0
H1312 H 0.88517 0.66585 0.01388 0.0
H1313 H 0.81794 0.7093 0.02621 0.0
H1314 H 0.84036 0.72013 0.03416 0.0
H1315 H 0.8315 0.69853 0.04547 0.0
C1316 C 0.87804 0.70092 0.07227 0.0
C1317 C 0.87785 0.68328 0.08221 0.0
C1318 C 0.87361 0.70144 0.05281 0.0
C1319 C 0.86872 0.68438 0.04308 0.0
C1320 C 0.86936 0.66671 0.05282 0.0
H1321 H 0.79514 0.65717 0.9503 0.0
H1322 H 0.81109 0.66513 0.98039 0.0
C1323 C 0.87392 0.66615 0.07217 0.0
C1324 C 0.862 0.68472 0.02303 0.0
H1325 H 0.82419 0.69925 -0.00517 0.0
C1326 C 0.87196 0.67333 0.00961 0.0
C1327 C 0.84466 0.69436 0.01761 0.0
C1328 C 0.83286 0.70615 0.0316 0.0
C1329 C 0.86466 0.6707 -0.00889 0.0
C1330 C 0.84717 0.68013 -0.01422 0.0
C1331 C 0.83763 0.69212 -0.00103 0.0
C1332 C 0.83748 0.67627 0.96729 0.0
C1333 C 0.87517 0.65704 0.97782 0.0
C1334 C 0.84691 0.68018 0.94992 0.0
C1335 C 0.83788 0.67544 0.93266 0.0
C1336 C 0.81918 0.66697 0.93252 0.0
C1337 C 0.80956 0.66365 0.94993 0.0
C1338 C 0.81864 0.66823 0.96714 0.0
H1339 H 0.88584 0.64782 -0.01451 0.0
H1340 H 0.86462 0.64753 0.97029 0.0
H1341 H 0.8833 0.66551 0.96696 0.0
H1342 H 0.86127 0.68678 0.94971 0.0
H1343 H 0.84559 0.67833 0.91945 0.0
H1344 H 0.38523 0.08446 0.20089 0.0
H1345 H 0.41873 0.0956 0.19505 0.0
H1346 H 0.40629 0.10044 0.13497 0.0
H1347 H 0.37308 0.08888 0.14057 0.0
H1348 H 0.44222 0.08509 0.14152 0.0
H1349 H 0.43154 0.15194 0.18397 0.0
H1350 H 0.42705 0.13012 0.1971 0.0
H1351 H 0.41155 0.13631 0.17736 0.0
C1352 C 0.38972 0.08767 0.18642 0.0
C1353 C 0.37648 0.08599 0.17122 0.0
C1354 C 0.40879 0.09419 0.18313 0.0
C1355 C 0.41479 0.09928 0.16464 0.0
C1356 C 0.40188 0.09673 0.14936 0.0
H1357 H 0.51419 0.17283 0.13683 0.0
H1358 H 0.48132 0.15899 0.14011 0.0
C1359 C 0.3829 0.09013 0.15261 0.0
C1360 C 0.43434 0.10772 0.16115 0.0
H1361 H 0.46365 0.1459 0.17261 0.0
C1362 C 0.44692 0.0984 0.14829 0.0
C1363 C 0.44021 0.12531 0.16968 0.0
C1364 C 0.42683 0.13663 0.18265 0.0
C1365 C 0.46541 0.10601 0.14399 0.0
C1366 C 0.4716 0.12317 0.15314 0.0
C1367 C 0.45889 0.13267 0.16573 0.0
C1368 C 0.49141 0.13124 0.15026 0.0
C1369 C 0.478 0.09578 0.12947 0.0
C1370 C 0.50788 0.12023 0.15497 0.0
C1371 C 0.52657 0.12802 0.153 0.0
C1372 C 0.52914 0.14707 0.14653 0.0
C1373 C 0.51264 0.1581 0.14182 0.0
C1374 C 0.49389 0.15024 0.1437 0.0
H1375 H 0.46908 0.08668 0.11975 0.0
H1376 H 0.48652 0.10623 0.12077 0.0
H1377 H 0.48842 0.08618 0.13697 0.0
H1378 H 0.50626 0.10572 0.16051 0.0
H1379 H 0.53899 0.11919 0.15689 0.0
H1380 H 0.95276 0.78871 0.64859 0.0
H1381 H -0.01473 0.80157 0.65607 0.0
H1382 H 0.96348 0.85961 0.64958 0.0
H1383 H 0.93095 0.84694 0.64264 0.0
H1384 H 0.01063 0.82446 0.63665 0.0
H1385 H -0.01347 0.86137 0.70264 0.0
H1386 H 0.97137 0.84413 0.69024 0.0
H1387 H 0.97272 0.86879 0.68221 0.0
C1388 C 0.95497 0.8042 0.64863 0.0
C1389 C 0.93931 0.81685 0.64527 0.0
C1390 C 0.9735 0.81151 0.65295 0.0
C1391 C 0.9766 0.83154 0.6539 0.0
C1392 C 0.96123 0.84413 0.64953 0.0
H1393 H 0.08674 0.89164 0.64935 0.0
H1394 H 0.05421 0.87822 0.64367 0.0
C1395 C 0.94271 0.83686 0.64541 0.0
C1396 C -0.00411 0.83938 0.65944 0.0
H1397 H 0.01804 0.87025 0.69062 0.0
C1398 C 0.0123 0.83435 0.64853 0.0
C1399 C -0.00193 0.85195 0.67522 0.0
C1400 C 0.98127 0.85672 0.68837 0.0
C1401 C 0.03077 0.84211 0.65255 0.0
C1402 C 0.03271 0.85566 0.66756 0.0
C1403 C 0.01643 0.86014 0.6789 0.0
C1404 C 0.05152 0.86533 0.67166 0.0
C1405 C 0.04805 0.83555 0.64081 0.0
C1406 C 0.06021 0.86356 0.68969 0.0
C1407 C 0.07864 0.87157 0.69311 0.0
C1408 C 0.08864 0.88135 0.67849 0.0
C1409 C 0.07944 0.88397 0.6608 0.0
C1410 C 0.06096 0.87617 0.65747 0.0
H1411 H 0.04532 0.82124 0.63414 0.0
H1412 H 0.05072 0.8461 0.62918 0.0
H1413 H 0.06148 0.83458 0.64962 0.0
H1414 H 0.05303 0.85543 0.7009 0.0
H1415 H 0.08539 0.86932 0.70688 0.0
H1416 H 0.03775 0.34721 0.82996 0.0
H1417 H 0.00542 0.36112 0.8249 0.0
H1418 H 0.98155 0.30407 0.81623 0.0
H1419 H 0.01383 0.28999 0.82196 0.0
H1420 H -0.01532 0.35942 0.79292 0.0
H1421 H 0.9418 0.32699 0.85199 0.0
H1422 H 0.96815 0.32606 0.85115 0.0
H1423 H 0.95379 0.30933 0.83737 0.0
C1424 C 0.02554 0.33761 0.82729 0.0
C1425 C 0.02825 0.31753 0.82635 0.0
C1426 C 0.0071 0.34557 0.82436 0.0
C1427 C -0.00894 0.33364 0.82032 0.0
C1428 C -0.00636 0.31352 0.81974 0.0
H1429 H 0.88506 0.3712 0.76348 0.0
H1430 H 0.91782 0.35926 0.77078 0.0
C1431 C 0.01208 0.3055 0.82294 0.0
C1432 C 0.97199 0.34244 0.81555 0.0
H1433 H 0.92373 0.34299 0.82773 0.0
C1434 C 0.97136 0.35593 0.80061 0.0
C1435 C 0.9547 0.33798 0.82571 0.0
C1436 C 0.95462 0.32445 0.84257 0.0
C1437 C 0.95387 0.36504 0.79548 0.0
C1438 C 0.93645 0.36009 0.80521 0.0
C1439 C 0.9371 0.34668 0.82021 0.0
C1440 C 0.91735 0.36869 0.80023 0.0
C1441 C 0.95434 0.38014 0.77998 0.0
C1442 C 0.90618 0.37786 0.81437 0.0
C1443 C 0.88737 0.38439 0.81031 0.0
C1444 C 0.87946 0.38197 0.79201 0.0
C1445 C 0.8909 0.37346 0.77765 0.0
C1446 C 0.90964 0.36668 0.78179 0.0
H1447 H 0.96922 0.38633 0.77816 0.0
H1448 H 0.95008 0.37338 0.76625 0.0
H1449 H 0.944 0.39208 0.78308 0.0
H1450 H 0.91185 0.37957 0.82868 0.0
H1451 H 0.87885 0.39092 0.82164 0.0
H1452 H 0.45393 0.68117 0.31897 0.0
H1453 H 0.48643 0.66808 0.31183 0.0
H1454 H 0.46398 0.6102 0.31849 0.0
H1455 H 0.43147 0.62312 0.32499 0.0
H1456 H 0.51141 0.64555 0.33126 0.0
H1457 H 0.48769 0.60748 0.2659 0.0
H1458 H 0.47243 0.62484 0.27801 0.0
H1459 H 0.47364 0.60026 0.28631 0.0
C1460 C 0.456 0.66567 0.31903 0.0
C1461 C 0.44018 0.65313 0.32229 0.0
C1462 C 0.47452 0.65822 0.3149 0.0
C1463 C 0.47744 0.63816 0.31409 0.0
C1464 C 0.46188 0.6257 0.3184 0.0
H1465 H 0.58698 0.57771 0.32088 0.0
H1466 H 0.55463 0.5917 0.32606 0.0
C1467 C 0.44337 0.6331 0.32228 0.0
C1468 C 0.49673 0.63016 0.30876 0.0
H1469 H 0.51886 0.59834 0.27849 0.0
C1470 C 0.51309 0.63535 0.31963 0.0
C1471 C 0.49896 0.61721 0.29328 0.0
C1472 C 0.48228 0.61229 0.28008 0.0
C1473 C 0.53152 0.62738 0.31588 0.0
C1474 C 0.53346 0.6134 0.30126 0.0
C1475 C 0.51725 0.60877 0.28993 0.0
C1476 C 0.55218 0.60341 0.29755 0.0
C1477 C 0.54876 0.6342 0.3275 0.0
C1478 C 0.56092 0.60427 0.27944 0.0
C1479 C 0.57922 0.59589 0.27632 0.0
C1480 C 0.58905 0.58665 0.29131 0.0
C1481 C 0.5798 0.58495 0.30913 0.0
C1482 C 0.56143 0.59309 0.31217 0.0
H1483 H 0.54616 0.64879 0.33359 0.0
H1484 H 0.5511 0.6241 0.33955 0.0
H1485 H 0.56232 0.63468 0.31878 0.0
H1486 H 0.55389 0.61198 0.26791 0.0
H1487 H 0.58602 0.59743 0.26244 0.0
H1488 H 0.14718 0.38562 0.0892 0.0
H1489 H 0.15018 0.41964 0.09766 0.0
H1490 H 0.21303 0.4153 0.09464 0.0
H1491 H 0.21014 0.38101 0.08667 0.0
H1492 H 0.20176 0.43088 0.1274 0.0
H1493 H 0.16322 0.46815 0.06906 0.0
H1494 H 0.14818 0.44945 0.07899 0.0
H1495 H 0.17079 0.44325 0.06725 0.0
C1496 C 0.16164 0.39198 0.08996 0.0
C1497 C 0.17843 0.38062 0.08737 0.0
C1498 C 0.16333 0.41149 0.09466 0.0
C1499 C 0.18183 0.4201 0.09653 0.0
C1500 C 0.19862 0.40896 0.09318 0.0
H1501 H 0.18091 0.54289 0.12742 0.0
H1502 H 0.1895 0.51295 0.11085 0.0
C1503 C 0.19694 0.38939 0.08861 0.0
C1504 C 0.18354 0.44002 0.10405 0.0
H1505 H 0.16487 0.48536 0.09917 0.0
C1506 C 0.19401 0.44289 0.12102 0.0
C1507 C 0.17374 0.45578 0.09557 0.0
C1508 C 0.16355 0.45404 0.0766 0.0
C1509 C 0.19393 0.46079 0.13035 0.0
C1510 C 0.18267 0.47605 0.12275 0.0
C1511 C 0.17324 0.47355 0.10516 0.0
C1512 C 0.17927 0.49419 0.13344 0.0
C1513 C 0.20568 0.46306 0.14839 0.0
C1514 C 0.17073 0.49356 0.15165 0.0
C1515 C 0.16594 0.51059 0.16119 0.0
C1516 C 0.16933 0.52859 0.15256 0.0
C1517 C 0.17814 0.52923 0.13443 0.0
C1518 C 0.18305 0.51216 0.12495 0.0
H1519 H 0.2184 0.45311 0.14851 0.0
H1520 H 0.21107 0.47809 0.15014 0.0
H1521 H 0.19633 0.45939 0.16083 0.0
H1522 H 0.1672 0.47986 0.15827 0.0
H1523 H 0.15904 0.50962 0.17507 0.0
H1524 H 0.66651 0.92802 0.85381 0.0
H1525 H 0.67123 0.95938 0.86925 0.0
H1526 H 0.67884 -0.01384 0.81422 0.0
H1527 H 0.67367 0.95498 0.79864 0.0
H1528 H 0.70047 -0.01246 0.86906 0.0
H1529 H 0.63187 0.01454 0.83669 0.0
H1530 H 0.63865 -0.01062 0.8362 0.0
H1531 H 0.64924 0.00605 0.81941 0.0
C1532 C 0.66944 0.94055 0.84501 0.0
C1533 C 0.66943 0.93912 0.825 0.0
C1534 C 0.67215 0.95843 0.85386 0.0
C1535 C 0.67494 0.97511 0.84285 0.0
C1536 C 0.67624 0.9735 0.82294 0.0
H1537 H 0.70783 0.09062 0.87449 0.0
H1538 H 0.70779 0.0563 0.86659 0.0
C1539 C 0.67336 0.95568 0.81407 0.0
C1540 C 0.67525 -0.00566 0.85203 0.0
H1541 H 0.65181 0.03772 0.85227 0.0
C1542 C 0.68979 -0.00148 0.86551 0.0
C1543 C 0.661 0.00843 0.84769 0.0
C1544 C 0.64418 0.00435 0.83436 0.0
C1545 C 0.69084 0.01672 0.87431 0.0
C1546 C 0.67719 0.03113 0.86919 0.0
C1547 C 0.66234 0.02671 0.85612 0.0
C1548 C 0.67824 0.05117 0.87654 0.0
C1549 C 0.7064 0.02024 0.88912 0.0
C1550 C 0.66165 0.05974 0.88476 0.0
C1551 C 0.66151 0.07945 0.88897 0.0
C1552 C 0.678 0.09091 0.88509 0.0
C1553 C 0.69494 0.08213 0.87774 0.0
C1554 C 0.69499 0.06246 0.87334 0.0
H1555 H 0.71119 0.00652 0.89584 0.0
H1556 H 0.71936 0.02688 0.88216 0.0
H1557 H 0.70115 0.03016 0.90046 0.0
H1558 H 0.64855 0.0513 0.88731 0.0
H1559 H 0.64828 0.08581 0.89469 0.0
H1560 H 0.79718 0.01609 0.29339 0.0
H1561 H 0.79016 -0.01544 0.30749 0.0
H1562 H 0.79981 0.00815 0.36364 0.0
H1563 H 0.80622 0.03986 0.34968 0.0
H1564 H 0.81555 0.96354 0.3269 0.0
H1565 H 0.75091 0.97704 0.37265 0.0
H1566 H 0.75899 -0.00606 0.35469 0.0
H1567 H 0.77073 -0.00674 0.37762 0.0
C1568 C 0.79746 0.01464 0.30876 0.0
C1569 C 0.80228 0.03042 0.32043 0.0
C1570 C 0.79345 -0.00338 0.3168 0.0
C1571 C 0.79426 -0.00597 0.33663 0.0
C1572 C 0.79862 0.00989 0.34835 0.0
H1573 H 0.81992 0.88327 0.38847 0.0
H1574 H 0.82031 0.91715 0.37858 0.0
C1575 C 0.80242 0.02798 0.34033 0.0
C1576 C 0.79242 0.97439 0.34482 0.0
H1577 H 0.76813 0.94749 0.37813 0.0
C1578 C 0.80508 0.96001 0.33802 0.0
C1579 C 0.77866 0.96976 0.35921 0.0
C1580 C 0.76392 -0.01573 0.36634 0.0
C1581 C 0.80453 0.9412 0.34531 0.0
C1582 C 0.79135 0.93678 0.36027 0.0
C1583 C 0.77844 0.95103 0.3669 0.0
C1584 C 0.79037 0.91719 0.36864 0.0
C1585 C 0.81781 0.92617 0.33663 0.0
C1586 C 0.77308 0.90636 0.36734 0.0
C1587 C 0.77273 0.8871 0.37323 0.0
C1588 C 0.78971 0.87836 0.38046 0.0
C1589 C 0.80669 0.88956 0.38274 0.0
C1590 C 0.80696 0.90887 0.37701 0.0
H1591 H 0.82294 0.93048 0.3222 0.0
H1592 H 0.83087 0.92436 0.3458 0.0
H1593 H 0.81029 0.91199 0.33549 0.0
H1594 H 0.76008 0.91256 0.36104 0.0
H1595 H 0.7594 0.87885 0.37136 0.0
H1596 H 0.30181 0.42914 0.61951 0.0
H1597 H 0.29648 0.46042 0.60423 0.0
H1598 H 0.29171 0.48743 0.65946 0.0
H1599 H 0.29751 0.4563 0.67487 0.0
H1600 H 0.26728 0.48828 0.60567 0.0
H1601 H 0.33726 0.5161 0.6347 0.0
H1602 H 0.33062 0.49091 0.63572 0.0
H1603 H 0.32067 0.5077 0.65274 0.0
C1604 C 0.29941 0.4417 0.62841 0.0
C1605 C 0.30036 0.44033 0.64839 0.0
C1606 C 0.29634 0.45955 0.61965 0.0
C1607 C 0.29413 0.47627 0.63072 0.0
C1608 C 0.29385 0.47474 0.65067 0.0
H1609 H 0.2607 0.59144 0.59716 0.0
H1610 H 0.2606 0.55749 0.6065 0.0
C1611 C 0.29708 0.45694 0.65945 0.0
C1612 C 0.29328 0.49543 0.62144 0.0
H1613 H 0.3168 0.53881 0.61931 0.0
C1614 C 0.27812 0.49934 0.60856 0.0
C1615 C 0.30771 0.50964 0.62493 0.0
C1616 C 0.3251 0.50586 0.63762 0.0
C1617 C 0.27674 0.51733 0.59942 0.0
C1618 C 0.2907 0.53183 0.60359 0.0
C1619 C 0.30606 0.52772 0.61618 0.0
C1620 C 0.28961 0.55158 0.59555 0.0
C1621 C 0.26053 0.52053 0.58523 0.0
C1622 C 0.30594 0.55958 0.58628 0.0
C1623 C 0.30617 0.57907 0.58123 0.0
C1624 C 0.29003 0.5909 0.58531 0.0
C1625 C 0.27331 0.58266 0.59373 0.0
C1626 C 0.27318 0.5632 0.59897 0.0
H1627 H 0.2552 0.50665 0.5792 0.0
H1628 H 0.24804 0.52761 0.59251 0.0
H1629 H 0.26541 0.52996 0.57333 0.0
H1630 H 0.31879 0.55087 0.58353 0.0
H1631 H 0.31922 0.58502 0.57469 0.0
H1632 H 0.83933 0.78226 0.42453 0.0
H1633 H 0.85146 0.77214 0.45577 0.0
H1634 H 0.79612 0.78745 0.4812 0.0
H1635 H 0.78377 0.79707 0.45008 0.0
H1636 H 0.85639 0.79562 0.48504 0.0
H1637 H 0.80658 0.73724 0.50779 0.0
H1638 H 0.80797 0.74537 0.48335 0.0
H1639 H 0.79297 0.75801 0.50042 0.0
C1640 C 0.82963 0.7831 0.43673 0.0
C1641 C 0.81062 0.79053 0.43486 0.0
C1642 C 0.83657 0.77728 0.45456 0.0
C1643 C 0.82461 0.77875 0.4708 0.0
C1644 C 0.80544 0.78565 0.46883 0.0
H1645 H 0.85028 0.81326 0.58242 0.0
H1646 H 0.84179 0.80819 0.54908 0.0
C1647 C 0.79846 0.79135 0.45102 0.0
C1648 C 0.83282 0.77554 0.49008 0.0
H1649 H 0.82258 0.75515 0.53331 0.0
C1650 C 0.84923 0.78643 0.49546 0.0
C1651 C 0.8237 0.76334 0.50366 0.0
C1652 C 0.80697 0.75018 0.49843 0.0
C1653 C 0.85593 0.78647 0.51431 0.0
C1654 C 0.84571 0.77566 0.52822 0.0
C1655 C 0.83017 0.7637 0.52265 0.0
C1656 C 0.84995 0.77802 0.54875 0.0
C1657 C 0.87358 0.79856 0.51928 0.0
C1658 C 0.85665 0.76251 0.5598 0.0
C1659 C 0.86145 0.76534 0.57901 0.0
C1660 C 0.8595 0.7837 0.58739 0.0
C1661 C 0.85213 0.79898 0.57637 0.0
C1662 C 0.84734 0.79614 0.55729 0.0
H1663 H 0.88307 0.80099 0.50662 0.0
H1664 H 0.86866 0.81287 0.52452 0.0
H1665 H 0.88239 0.79162 0.53064 0.0
H1666 H 0.85857 0.74837 0.55346 0.0
H1667 H 0.86703 0.75328 0.58717 0.0
H1668 H 0.68486 0.19105 0.94282 0.0
H1669 H 0.6757 0.19988 0.97542 0.0
H1670 H 0.61727 0.17861 0.96554 0.0
H1671 H 0.6261 0.17054 0.9327 0.0
H1672 H 0.61702 0.2102 -0.01153 0.0
H1673 H 0.67192 0.1571 0.014 0.0
H1674 H 0.68193 0.17652 0.00014 0.0
H1675 H 0.66562 0.1594 -0.01081 0.0
C1676 C 0.66997 0.18857 0.94752 0.0
C1677 C 0.65626 0.17984 0.93535 0.0
C1678 C 0.66479 0.19354 0.96616 0.0
C1679 C 0.64597 0.18939 0.97307 0.0
C1680 C 0.63192 0.18183 0.96054 0.0
H1681 H 0.60766 0.15259 0.08129 0.0
H1682 H 0.61881 0.15803 0.04877 0.0
C1683 C 0.63699 0.17718 0.94179 0.0
C1684 C 0.64131 0.1912 -0.00635 0.0
H1685 H 0.65332 0.17297 0.03726 0.0
C1686 C 0.62503 0.20222 -0.0008 0.0
C1687 C 0.65171 0.1806 0.00757 0.0
C1688 C 0.66865 0.1676 0.00247 0.0
C1689 C 0.6185 0.20242 0.01821 0.0
C1690 C 0.6288 0.19164 0.03204 0.0
C1691 C 0.64551 0.18128 0.02661 0.0
C1692 C 0.62145 0.18904 0.05177 0.0
C1693 C 0.6001 0.21334 0.02313 0.0
C1694 C 0.61918 0.2047 0.0643 0.0
C1695 C 0.61257 0.20163 0.08299 0.0
C1696 C 0.60842 0.18283 0.08943 0.0
C1697 C 0.6108 0.16724 0.07682 0.0
C1698 C 0.61718 0.17032 0.05821 0.0
H1699 H 0.59182 0.21763 0.0102 0.0
H1700 H 0.59039 0.2045 0.03238 0.0
H1701 H 0.60401 0.22665 0.03106 0.0
H1702 H 0.62275 0.21922 0.05974 0.0
H1703 H 0.61096 0.2139 0.09244 0.0
H1704 H 0.35802 0.65526 0.38736 0.0
H1705 H 0.34619 0.66049 0.4197 0.0
H1706 H 0.34701 0.72208 0.41058 0.0
H1707 H 0.35932 0.71696 0.37803 0.0
H1708 H 0.36264 0.71156 0.44545 0.0
H1709 H 0.29114 0.67604 0.43484 0.0
H1710 H 0.3108 0.66061 0.42754 0.0
H1711 H 0.30668 0.68303 0.41517 0.0
C1712 C 0.35563 0.66994 0.39215 0.0
C1713 C 0.35946 0.6857 0.38009 0.0
C1714 C 0.34876 0.6729 0.41062 0.0
C1715 C 0.34531 0.69165 0.41738 0.0
C1716 C 0.34941 0.70749 0.40554 0.0
H1717 H 0.28399 0.69093 0.52655 0.0
H1718 H 0.29304 0.70116 0.49437 0.0
C1719 C 0.35641 0.70454 0.38698 0.0
C1720 C 0.33783 0.69439 0.43702 0.0
H1721 H 0.30253 0.67799 0.4673 0.0
C1722 C 0.34931 0.70454 0.45022 0.0
C1723 C 0.32019 0.68566 0.44311 0.0
C1724 C 0.3064 0.67592 0.42935 0.0
C1725 C 0.34427 0.70506 0.46965 0.0
C1726 C 0.3276 0.69473 0.47601 0.0
C1727 C 0.31547 0.6857 0.46255 0.0
C1728 C 0.32312 0.69174 0.49651 0.0
C1729 C 0.35697 0.71649 0.48311 0.0
C1730 C 0.33711 0.68341 0.50861 0.0
C1731 C 0.33204 0.67782 0.52712 0.0
C1732 C 0.31277 0.68003 0.53369 0.0
C1733 C 0.29894 0.68895 0.52182 0.0
C1734 C 0.3041 0.69483 0.50344 0.0
H1735 H 0.36391 0.72892 0.4757 0.0
H1736 H 0.34849 0.72199 0.49548 0.0
H1737 H 0.36888 0.70709 0.48847 0.0
H1738 H 0.35171 0.68032 0.50347 0.0
H1739 H 0.34295 0.67086 0.5359 0.0
H1740 H 0.12501 0.30183 0.03789 0.0
H1741 H 0.11618 0.2918 0.00566 0.0
H1742 H 0.17423 0.26894 -0.00276 0.0
H1743 H 0.18338 0.27978 0.02917 0.0
H1744 H 0.16576 0.29131 0.96949 0.0
H1745 H 0.10249 0.24293 0.97922 0.0
H1746 H 0.09815 0.26531 -0.00871 0.0
H1747 H 0.11796 0.24998 -0.00114 0.0
C1748 C 0.13576 0.29432 0.02929 0.0
C1749 C 0.1549 0.2917 0.03596 0.0
C1750 C 0.13064 0.28841 0.01091 0.0
C1751 C 0.14444 0.27932 -0.00094 0.0
C1752 C 0.16331 0.27586 0.00611 0.0
H1753 H 0.1074 0.25252 0.8812 0.0
H1754 H 0.11961 0.24754 0.91376 0.0
C1755 C 0.16853 0.28209 0.02434 0.0
C1756 C 0.13999 0.27583 0.97864 0.0
H1757 H 0.10448 0.25944 0.94851 0.0
C1758 C 0.15255 0.28395 0.96494 0.0
C1759 C 0.12298 0.26593 0.97254 0.0
C1760 C 0.10978 0.25536 -0.01371 0.0
C1761 C 0.14794 0.28357 0.94551 0.0
C1762 C 0.12999 0.27539 0.93964 0.0
C1763 C 0.11806 0.26606 0.9531 0.0
C1764 C 0.12264 0.27801 0.91998 0.0
C1765 C 0.16218 0.29235 0.9315 0.0
C1766 C 0.11998 0.29674 0.91288 0.0
C1767 C 0.11316 0.29961 0.89441 0.0
C1768 C 0.1086 0.28379 0.88268 0.0
C1769 C 0.11089 0.26498 0.88989 0.0
C1770 C 0.11783 0.26211 0.90846 0.0
H1771 H 0.1774 0.29168 0.93696 0.0
H1772 H 0.16161 0.2849 0.91748 0.0
H1773 H 0.15848 0.30779 0.92933 0.0
H1774 H 0.1231 0.30921 0.92171 0.0
H1775 H 0.11138 0.31429 0.88938 0.0
H1776 H 0.57959 0.89176 0.82452 0.0
H1777 H 0.54542 0.88132 0.82366 0.0
H1778 H 0.55166 0.86621 0.7643 0.0
H1779 H 0.5857 0.87709 0.76488 0.0
H1780 H 0.51526 0.8823 0.77284 0.0
H1781 H 0.53458 0.82332 0.82289 0.0
H1782 H 0.53994 0.847 0.83189 0.0
H1783 H 0.55279 0.8381 0.81129 0.0
C1784 C 0.57359 0.8865 0.81121 0.0
C1785 C 0.58536 0.88495 0.79485 0.0
C1786 C 0.55411 0.88049 0.81076 0.0
C1787 C 0.54622 0.87257 0.79404 0.0
C1788 C 0.55756 0.87217 0.77737 0.0
H1789 H 0.44979 0.79184 0.79627 0.0
H1790 H 0.48081 0.80805 0.78961 0.0
C1791 C 0.57699 0.87837 0.77774 0.0
C1792 C 0.52674 0.86331 0.79435 0.0
H1793 H 0.50105 0.82704 0.81568 0.0
C1794 C 0.5121 0.87019 0.78215 0.0
C1795 C 0.52287 0.84723 0.80621 0.0
C1796 C 0.53842 0.83833 0.81868 0.0
C1797 C 0.49347 0.86162 0.7818 0.0
C1798 C 0.48939 0.84605 0.79424 0.0
C1799 C 0.50417 0.83903 0.8062 0.0
C1800 C 0.4699 0.83678 0.79546 0.0
C1801 C 0.47849 0.86912 0.7679 0.0
C1802 C 0.45337 0.8476 0.80058 0.0
C1803 C 0.43556 0.83838 0.80418 0.0
C1804 C 0.43411 0.81816 0.80306 0.0
C1805 C 0.4505 0.80743 0.79734 0.0
C1806 C 0.46822 0.81667 0.79352 0.0
H1807 H 0.48554 0.87663 0.75568 0.0
H1808 H 0.4692 0.85725 0.76231 0.0
H1809 H 0.46892 0.87968 0.77527 0.0
H1810 H 0.45443 0.86307 0.80262 0.0
H1811 H 0.42318 0.84701 0.80867 0.0
H1812 H 0.88779 0.08183 0.26219 0.0
H1813 H 0.92276 0.08905 0.25998 0.0
H1814 H 0.92465 0.09846 0.32077 0.0
H1815 H 0.88996 0.09073 0.32315 0.0
H1816 H 0.93919 0.12262 0.26796 0.0
H1817 H 0.97329 0.06721 0.31341 0.0
H1818 H 0.94837 0.0652 0.3052 0.0
H1819 H 0.95409 0.07923 0.32613 0.0
C1820 C 0.89577 0.08506 0.27513 0.0
C1821 C 0.88614 0.08576 0.29284 0.0
C1822 C 0.91573 0.08918 0.27384 0.0
C1823 C 0.92639 0.09403 0.29023 0.0
C1824 C 0.91688 0.09424 0.30799 0.0
H1825 H 0.01692 0.17393 0.30894 0.0
H1826 H -0.01284 0.15643 0.30078 0.0
C1827 C 0.89698 0.08997 0.30932 0.0
C1828 C 0.94684 0.10092 0.28867 0.0
H1829 H -0.00842 0.0971 0.30965 0.0
C1830 C 0.95076 0.11678 0.27679 0.0
C1831 C 0.96206 0.09308 0.29986 0.0
C1832 C 0.95928 0.0751 0.31169 0.0
C1833 C 0.9691 0.12583 0.27679 0.0
C1834 C 0.98372 0.11912 0.28936 0.0
C1835 C 0.98025 0.10245 0.30024 0.0
C1836 C 0.00201 0.13007 0.29267 0.0
C1837 C 0.97249 0.14268 0.26355 0.0
C1838 C 0.02027 0.12098 0.29114 0.0
C1839 C 0.03734 0.1309 0.29607 0.0
C1840 C 0.03641 0.15006 0.30266 0.0
C1841 C 0.01814 0.15924 0.30378 0.0
C1842 C 0.00111 0.14929 0.29898 0.0
H1843 H 0.96324 0.1415 0.2506 0.0
H1844 H 0.96842 0.15625 0.27098 0.0
H1845 H -0.01196 0.1437 0.25909 0.0
H1846 H 0.02126 0.10611 0.28644 0.0
H1847 H 0.05121 0.12344 0.29508 0.0
H1848 H 0.08303 0.58905 0.14676 0.0
H1849 H 0.04895 0.59936 0.14657 0.0
H1850 H 0.04566 0.59089 0.20742 0.0
H1851 H 0.08003 0.58104 0.20782 0.0
H1852 H 0.01432 0.58288 0.15761 0.0
H1853 H 0.03123 0.64749 0.20175 0.0
H1854 H 0.05005 0.63254 0.19147 0.0
H1855 H 0.03725 0.62477 0.21253 0.0
C1856 C 0.07503 0.58919 0.16007 0.0
C1857 C 0.08427 0.58453 0.17733 0.0
C1858 C 0.05554 0.59506 0.15995 0.0
C1859 C 0.04492 0.59628 0.17704 0.0
C1860 C 0.05375 0.59049 0.19415 0.0
H1861 H 0.92014 0.62663 0.17241 0.0
H1862 H 0.95052 0.60949 0.17962 0.0
C1863 C 0.07332 0.58477 0.19431 0.0
C1864 C 0.02502 0.60462 0.17689 0.0
H1865 H -0.00142 0.64346 0.1921 0.0
C1866 C 0.01078 0.59603 0.16527 0.0
C1867 C 0.02059 0.62192 0.18675 0.0
C1868 C 0.0356 0.63236 0.1987 0.0
C1869 C -0.00766 0.60452 0.16284 0.0
C1870 C -0.01207 0.62182 0.17269 0.0
C1871 C 0.002 0.63013 0.18469 0.0
C1872 C 0.96945 0.6324 0.16953 0.0
C1873 C 0.97813 0.59538 0.14908 0.0
C1874 C 0.97005 0.65122 0.16217 0.0
C1875 C 0.95278 0.66114 0.15829 0.0
C1876 C 0.93457 0.65237 0.16166 0.0
C1877 C 0.93397 0.63369 0.16952 0.0
C1878 C 0.95129 0.62383 0.17354 0.0
H1879 H -0.01459 0.58479 0.13952 0.0
H1880 H 0.96663 0.58762 0.15724 0.0
H1881 H 0.97092 0.60652 0.14017 0.0
H1882 H 0.98393 0.65812 0.15904 0.0
H1883 H 0.95373 0.67551 0.15227 0.0
H1884 H 0.3896 0.39135 0.64751 0.0
H1885 H 0.42376 0.38099 0.64807 0.0
H1886 H 0.41805 0.366 0.70751 0.0
H1887 H 0.38401 0.37678 0.7072 0.0
H1888 H 0.45431 0.38249 0.69865 0.0
H1889 H 0.43511 0.32312 0.64888 0.0
H1890 H 0.42945 0.3467 0.63986 0.0
H1891 H 0.41686 0.3377 0.66059 0.0
C1892 C 0.39571 0.38612 0.66076 0.0
C1893 C 0.38408 0.3846 0.67723 0.0
C1894 C 0.41518 0.38015 0.66105 0.0
C1895 C 0.42324 0.37232 0.67771 0.0
C1896 C 0.41204 0.3719 0.69448 0.0
H1897 H 0.52051 0.2929 0.67477 0.0
H1898 H 0.48943 0.30873 0.68178 0.0
C1899 C 0.39259 0.37803 0.69426 0.0
C1900 C 0.4428 0.36327 0.67728 0.0
H1901 H 0.46868 0.32732 0.65575 0.0
C1902 C 0.4575 0.3704 0.68933 0.0
C1903 C 0.44673 0.34723 0.6654 0.0
C1904 C 0.43117 0.33809 0.65309 0.0
C1905 C 0.47624 0.36211 0.68949 0.0
C1906 C 0.48036 0.34656 0.67703 0.0
C1907 C 0.46553 0.33929 0.66524 0.0
C1908 C 0.49995 0.33757 0.67564 0.0
C1909 C 0.49128 0.36987 0.70321 0.0
C1910 C 0.5163 0.34858 0.67025 0.0
C1911 C 0.53416 0.33958 0.66644 0.0
C1912 C 0.53583 0.31939 0.66762 0.0
C1913 C 0.51963 0.30848 0.67365 0.0
C1914 C 0.50188 0.3175 0.67767 0.0
H1915 H 0.4843 0.37737 0.71546 0.0
H1916 H 0.50073 0.35814 0.70876 0.0
H1917 H 0.50069 0.3805 0.69569 0.0
H1918 H 0.51505 0.36402 0.66816 0.0
H1919 H 0.54637 0.34834 0.66171 0.0
H1920 H 0.75697 0.58503 0.87777 0.0
H1921 H 0.75409 0.55105 0.86863 0.0
H1922 H 0.81653 0.54828 0.86024 0.0
H1923 H 0.81958 0.58204 0.86976 0.0
H1924 H 0.76335 0.53655 0.83425 0.0
H1925 H 0.80657 0.49901 0.88939 0.0
H1926 H 0.79846 0.52366 0.89216 0.0
H1927 H 0.82021 0.51829 0.87865 0.0
C1928 C 0.77012 0.57707 0.87432 0.0
C1929 C 0.78849 0.5862 0.87445 0.0
C1930 C 0.76845 0.55767 0.8691 0.0
C1931 C 0.78511 0.54707 0.86399 0.0
C1932 C 0.80352 0.55603 0.86458 0.0
H1933 H 0.80349 0.45722 0.78447 0.0
H1934 H 0.79623 0.48717 0.80136 0.0
C1935 C 0.80522 0.57539 0.86989 0.0
C1936 C 0.78317 0.52726 0.85627 0.0
H1937 H 0.80201 0.48186 0.85973 0.0
C1938 C 0.77153 0.52449 0.84002 0.0
C1939 C 0.79358 0.51148 0.86397 0.0
C1940 C 0.80523 0.5132 0.88213 0.0
C1941 C 0.77092 0.50663 0.83064 0.0
C1942 C 0.78254 0.49128 0.83749 0.0
C1943 C 0.79329 0.49372 0.85435 0.0
C1944 C 0.78496 0.47309 0.82667 0.0
C1945 C 0.75803 0.50445 0.81335 0.0
C1946 C 0.78114 0.45523 0.83534 0.0
C1947 C 0.78543 0.43804 0.82576 0.0
C1948 C 0.79373 0.43848 0.8074 0.0
C1949 C 0.797 0.4564 0.79855 0.0
C1950 C 0.79274 0.47354 0.80814 0.0
H1951 H 0.74557 0.51472 0.8138 0.0
H1952 H 0.76671 0.50767 0.80034 0.0
H1953 H 0.75217 0.48953 0.81214 0.0
H1954 H 0.77524 0.45459 0.84967 0.0
H1955 H 0.78279 0.42445 0.83296 0.0
H1956 H 0.31884 0.88672 0.08318 0.0
H1957 H 0.31646 0.92016 0.09422 0.0
H1958 H 0.257 0.90999 0.1123 0.0
H1959 H 0.25903 0.87677 0.1007 0.0
H1960 H 0.26145 0.94584 0.09712 0.0
H1961 H 0.31917 0.93156 0.15067 0.0
H1962 H 0.32717 0.92739 0.12665 0.0
H1963 H 0.30812 0.91259 0.13674 0.0
C1964 C 0.30518 0.89171 0.08927 0.0
C1965 C 0.28922 0.87909 0.09132 0.0
C1966 C 0.30387 0.91076 0.09566 0.0
C1967 C 0.28673 0.91736 0.10454 0.0
C1968 C 0.27041 0.90512 0.10561 0.0
H1969 H 0.2891 0.01313 0.18378 0.0
H1970 H 0.28311 0.98183 0.16874 0.0
C1971 C 0.27161 0.88615 0.09899 0.0
C1972 C 0.28616 0.93659 0.11374 0.0
H1973 H 0.30881 0.964 0.14751 0.0
C1974 C 0.27175 0.94984 0.10819 0.0
C1975 C 0.29931 0.94156 0.1285 0.0
C1976 C 0.31418 0.92746 0.13615 0.0
C1977 C 0.27039 0.96813 0.11676 0.0
C1978 C 0.28412 0.97339 0.1309 0.0
C1979 C 0.29832 0.96 0.13661 0.0
C1980 C 0.28449 -0.00722 0.13985 0.0
C1981 C 0.25406 0.98142 0.11081 0.0
C1982 C 0.28676 0.00941 0.12862 0.0
C1983 C 0.28985 0.02736 0.1372 0.0
C1984 C 0.29118 0.02888 0.15714 0.0
C1985 C 0.28821 0.01236 0.16838 0.0
C1986 C 0.2848 -0.00552 0.1598 0.0
H1987 H 0.24148 0.9732 0.10493 0.0
H1988 H 0.24883 -0.00968 0.12297 0.0
H1989 H 0.25946 -0.00875 0.09947 0.0
H1990 H 0.28708 0.00841 0.11322 0.0
H1991 H 0.29226 0.03983 0.12818 0.0
H1992 H 0.17299 0.92925 0.6316 0.0
H1993 H 0.17893 0.96081 0.61722 0.0
H1994 H 0.18348 -0.01372 0.6732 0.0
H1995 H 0.17678 0.95484 0.68768 0.0
H1996 H 0.15841 0.00525 0.65231 0.0
H1997 H 0.22555 -0.00514 0.60946 0.0
H1998 H 0.2072 0.97729 0.60373 0.0
H1999 H 0.21768 0.97769 0.62726 0.0
C2000 C 0.17566 0.9415 0.64085 0.0
C2001 C 0.17433 0.93962 0.66076 0.0
C2002 C 0.1792 0.95952 0.6326 0.0
C2003 C 0.18189 0.97589 0.64412 0.0
C2004 C 0.18149 0.97383 0.66403 0.0
H2005 H 0.20864 0.09182 0.60408 0.0
H2006 H 0.21069 0.05882 0.61632 0.0
C2007 C 0.17767 0.95588 0.67229 0.0
C2008 C 0.18284 -0.00461 0.63548 0.0
H2009 H 0.20599 0.02256 0.60161 0.0
C2010 C 0.16897 0.00908 0.64136 0.0
C2011 C 0.19669 0.00045 0.6213 0.0
C2012 C 0.21274 -0.01315 0.61522 0.0
C2013 C 0.16831 0.02753 0.63327 0.0
C2014 C 0.18147 0.03224 0.61838 0.0
C2015 C 0.19567 0.01876 0.61277 0.0
C2016 C 0.18093 0.05131 0.6089 0.0
C2017 C 0.15369 0.04188 0.64098 0.0
C2018 C 0.16378 0.05774 0.59999 0.0
C2019 C 0.16248 0.07664 0.59321 0.0
C2020 C 0.17845 0.08929 0.59491 0.0
C2021 C 0.19606 0.08241 0.60263 0.0
C2022 C 0.19727 0.06356 0.60963 0.0
H2023 H 0.1488 0.038 0.65561 0.0
H2024 H 0.15993 0.05669 0.64134 0.0
H2025 H 0.1406 0.04201 0.63167 0.0
H2026 H 0.15119 0.04831 0.59882 0.0
H2027 H 0.14882 0.08149 0.5871 0.0
H2028 H 0.70848 0.38132 0.38095 0.0
H2029 H 0.71179 0.41532 0.37201 0.0
H2030 H 0.64953 0.41864 0.36293 0.0
H2031 H 0.64604 0.38486 0.37225 0.0
H2032 H 0.70323 0.43007 0.3376 0.0
H2033 H 0.65945 0.46769 0.39249 0.0
H2034 H 0.66732 0.44297 0.3952 0.0
H2035 H 0.64582 0.44856 0.38151 0.0
C2036 C 0.69545 0.38941 0.37739 0.0
C2037 C 0.67699 0.38042 0.37726 0.0
C2038 C 0.69737 0.40881 0.37228 0.0
C2039 C 0.68088 0.41957 0.36703 0.0
C2040 C 0.66239 0.41076 0.36737 0.0
H2041 H 0.66476 0.50977 0.28764 0.0
H2042 H 0.67153 0.47976 0.30452 0.0
C2043 C 0.66044 0.39139 0.37257 0.0
C2044 C 0.68313 0.4394 0.35945 0.0
H2045 H 0.66458 0.48494 0.36296 0.0
C2046 C 0.69505 0.44216 0.34335 0.0
C2047 C 0.67272 0.45523 0.36713 0.0
C2048 C 0.66078 0.45352 0.38516 0.0
C2049 C 0.69596 0.46007 0.33408 0.0
C2050 C 0.68433 0.47547 0.34088 0.0
C2051 C 0.67331 0.47304 0.35762 0.0
C2052 C 0.68219 0.49372 0.33011 0.0
C2053 C 0.70917 0.46222 0.31695 0.0
C2054 C 0.68579 0.51156 0.33894 0.0
C2055 C 0.68174 0.52878 0.32936 0.0
C2056 C 0.67393 0.52842 0.31084 0.0
C2057 C 0.67088 0.51054 0.30185 0.0
C2058 C 0.67487 0.49335 0.31144 0.0
H2059 H 0.72161 0.45194 0.31759 0.0
H2060 H 0.70073 0.45898 0.30384 0.0
H2061 H 0.71507 0.47713 0.31581 0.0
H2062 H 0.69133 0.51213 0.35338 0.0
H2063 H 0.68421 0.54235 0.33668 0.0
loop_
_geom_bond_atom_site_label_1
_geom_bond_atom_site_label_2
_geom_bond_distance
_geom_bond_site_symmetry_2
_ccdc_geom_bond_type
C0 O1 1.306 . S
C0 O3 1.160 . S
O1 C0 1.306 . S
O1 Cd2 2.228 . S
Cd2 O1 2.228 . S
Cd2 O6 2.273 . S
Cd2 O10 2.277 . S
O3 C0 1.160 . S
O3 Cd4 2.203 . S
Cd4 O3 2.203 . S
Cd4 O6 2.411 . S
Cd4 O7 2.333 . S
Cd4 O8 2.352 . S
Cd4 O12 2.277 . S
Cd4 O13 2.356 . S
C5 O10 1.209 . S
C5 O12 1.226 . S
O6 Cd2 2.273 . S
O6 Cd4 2.411 . S
O6 C9 1.320 . S
O7 Cd4 2.333 . S
O7 C9 1.214 . S
O8 Cd4 2.352 . S
O8 C11 1.258 . S
C9 O6 1.320 . S
C9 O7 1.214 . S
O10 Cd2 2.277 . S
O10 C5 1.209 . S
C11 O8 1.258 . S
C11 O13 1.282 . S
O12 Cd4 2.277 . S
O12 C5 1.226 . S
O13 Cd4 2.356 . S
O13 C11 1.282 . S
C14 O15 1.306 . S
C14 O17 1.160 . S
O15 C14 1.306 . S
O15 Cd16 2.228 . S
Cd16 O15 2.228 . S
Cd16 O20 2.273 . S
Cd16 O24 2.277 . S
O17 C14 1.160 . S
O17 Cd18 2.203 . S
Cd18 O17 2.203 . S
Cd18 O20 2.411 . S
Cd18 O21 2.333 . S
Cd18 O22 2.352 . S
Cd18 O26 2.277 . S
Cd18 O27 2.356 . S
C19 O24 1.209 . S
C19 O26 1.226 . S
O20 Cd16 2.273 . S
O20 Cd18 2.411 . S
O20 C23 1.320 . S
O21 Cd18 2.333 . S
O21 C23 1.214 . S
O22 Cd18 2.352 . S
O22 C25 1.258 . S
C23 O20 1.320 . S
C23 O21 1.214 . S
O24 Cd16 2.277 . S
O24 C19 1.209 . S
C25 O22 1.258 . S
C25 O27 1.282 . S
O26 Cd18 2.277 . S
O26 C19 1.226 . S
O27 Cd18 2.356 . S
O27 C25 1.282 . S
C28 O29 1.306 . S
C28 O31 1.160 . S
O29 C28 1.306 . S
O29 Cd30 2.228 . S
Cd30 O29 2.228 . S
Cd30 O34 2.273 . S
Cd30 O38 2.277 . S
O31 C28 1.160 . S
O31 Cd32 2.203 . S
Cd32 O31 2.203 . S
Cd32 O34 2.411 . S
Cd32 O35 2.333 . S
Cd32 O36 2.352 . S
Cd32 O40 2.277 . S
Cd32 O41 2.356 . S
C33 O38 1.209 . S
C33 O40 1.226 . S
O34 Cd30 2.273 . S
O34 Cd32 2.411 . S
O34 C37 1.320 . S
O35 Cd32 2.333 . S
O35 C37 1.214 . S
O36 Cd32 2.352 . S
O36 C39 1.258 . S
C37 O34 1.320 . S
C37 O35 1.214 . S
O38 Cd30 2.277 . S
O38 C33 1.209 . S
C39 O36 1.258 . S
C39 O41 1.282 . S
O40 Cd32 2.277 . S
O40 C33 1.226 . S
O41 Cd32 2.356 . S
O41 C39 1.282 . S
C42 O43 1.306 . S
C42 O45 1.160 . S
O43 C42 1.306 . S
O43 Cd44 2.228 . S
Cd44 O43 2.228 . S
Cd44 O48 2.273 . S
Cd44 O52 2.277 . S
O45 C42 1.160 . S
O45 Cd46 2.203 . S
Cd46 O45 2.203 . S
Cd46 O48 2.411 . S
Cd46 O49 2.333 . S
Cd46 O50 2.352 . S
Cd46 O54 2.277 . S
Cd46 O55 2.356 . S
C47 O52 1.209 . S
C47 O54 1.226 . S
O48 Cd44 2.273 . S
O48 Cd46 2.411 . S
O48 C51 1.320 . S
O49 Cd46 2.333 . S
O49 C51 1.214 . S
O50 Cd46 2.352 . S
O50 C53 1.258 . S
C51 O48 1.320 . S
C51 O49 1.214 . S
O52 Cd44 2.277 . S
O52 C47 1.209 . S
C53 O50 1.258 . S
C53 O55 1.282 . S
O54 Cd46 2.277 . S
O54 C47 1.226 . S
O55 Cd46 2.356 . S
O55 C53 1.282 . S
C56 O57 1.306 . S
C56 O59 1.160 . S
O57 C56 1.306 . S
O57 Cd58 2.228 . S
Cd58 O57 2.228 . S
Cd58 O62 2.273 . S
Cd58 O66 2.277 . S
O59 C56 1.160 . S
O59 Cd60 2.203 . S
Cd60 O59 2.203 . S
Cd60 O62 2.411 . S
Cd60 O63 2.333 . S
Cd60 O64 2.352 . S
Cd60 O68 2.277 . S
Cd60 O69 2.356 . S
C61 O66 1.209 . S
C61 O68 1.226 . S
O62 Cd58 2.273 . S
O62 Cd60 2.411 . S
O62 C65 1.320 . S
O63 Cd60 2.333 . S
O63 C65 1.214 . S
O64 Cd60 2.352 . S
O64 C67 1.258 . S
C65 O62 1.320 . S
C65 O63 1.214 . S
O66 Cd58 2.277 . S
O66 C61 1.209 . S
C67 O64 1.258 . S
C67 O69 1.282 . S
O68 Cd60 2.277 . S
O68 C61 1.226 . S
O69 Cd60 2.356 . S
O69 C67 1.282 . S
C70 O71 1.306 . S
C70 O73 1.160 . S
O71 C70 1.306 . S
O71 Cd72 2.228 . S
Cd72 O71 2.228 . S
Cd72 O76 2.273 . S
Cd72 O80 2.277 . S
O73 C70 1.160 . S
O73 Cd74 2.203 . S
Cd74 O73 2.203 . S
Cd74 O76 2.411 . S
Cd74 O77 2.333 . S
Cd74 O78 2.352 . S
Cd74 O82 2.277 . S
Cd74 O83 2.356 . S
C75 O80 1.209 . S
C75 O82 1.226 . S
O76 Cd72 2.273 . S
O76 Cd74 2.411 . S
O76 C79 1.320 . S
O77 Cd74 2.333 . S
O77 C79 1.214 . S
O78 Cd74 2.352 . S
O78 C81 1.258 . S
C79 O76 1.320 . S
C79 O77 1.214 . S
O80 Cd72 2.277 . S
O80 C75 1.209 . S
C81 O78 1.258 . S
C81 O83 1.282 . S
O82 Cd74 2.277 . S
O82 C75 1.226 . S
O83 Cd74 2.356 . S
O83 C81 1.282 . S
C84 O85 1.306 . S
C84 O87 1.160 . S
O85 C84 1.306 . S
O85 Cd86 2.228 . S
Cd86 O85 2.228 . S
Cd86 O90 2.273 . S
Cd86 O94 2.277 . S
O87 C84 1.160 . S
O87 Cd88 2.203 . S
Cd88 O87 2.203 . S
Cd88 O90 2.411 . S
Cd88 O91 2.333 . S
Cd88 O92 2.352 . S
Cd88 O96 2.277 . S
Cd88 O97 2.356 . S
C89 O94 1.209 . S
C89 O96 1.226 . S
O90 Cd86 2.273 . S
O90 Cd88 2.411 . S
O90 C93 1.320 . S
O91 Cd88 2.333 . S
O91 C93 1.214 . S
O92 Cd88 2.352 . S
O92 C95 1.258 . S
C93 O90 1.320 . S
C93 O91 1.214 . S
O94 Cd86 2.277 . S
O94 C89 1.209 . S
C95 O92 1.258 . S
C95 O97 1.282 . S
O96 Cd88 2.277 . S
O96 C89 1.226 . S
O97 Cd88 2.356 . S
O97 C95 1.282 . S
C98 O99 1.306 . S
C98 O101 1.160 . S
O99 C98 1.306 . S
O99 Cd100 2.228 . S
Cd100 O99 2.228 . S
Cd100 O104 2.273 . S
Cd100 O108 2.277 . S
O101 C98 1.160 . S
O101 Cd102 2.203 . S
Cd102 O101 2.203 . S
Cd102 O104 2.411 . S
Cd102 O105 2.333 . S
Cd102 O106 2.352 . S
Cd102 O110 2.277 . S
Cd102 O111 2.356 . S
C103 O108 1.209 . S
C103 O110 1.226 . S
O104 Cd100 2.273 . S
O104 Cd102 2.411 . S
O104 C107 1.320 . S
O105 Cd102 2.333 . S
O105 C107 1.214 . S
O106 Cd102 2.352 . S
O106 C109 1.258 . S
C107 O104 1.320 . S
C107 O105 1.214 . S
O108 Cd100 2.277 . S
O108 C103 1.209 . S
C109 O106 1.258 . S
C109 O111 1.282 . S
O110 Cd102 2.277 . S
O110 C103 1.226 . S
O111 Cd102 2.356 . S
O111 C109 1.282 . S
C112 O113 1.306 . S
C112 O115 1.160 . S
O113 C112 1.306 . S
O113 Cd114 2.228 . S
Cd114 O113 2.228 . S
Cd114 O118 2.273 . S
Cd114 O122 2.277 . S
O115 C112 1.160 . S
O115 Cd116 2.203 . S
Cd116 O115 2.203 . S
Cd116 O118 2.411 . S
Cd116 O119 2.333 . S
Cd116 O120 2.352 . S
Cd116 O124 2.277 . S
Cd116 O125 2.356 . S
C117 O122 1.209 . S
C117 O124 1.226 . S
O118 Cd114 2.273 . S
O118 Cd116 2.411 . S
O118 C121 1.320 . S
O119 Cd116 2.333 . S
O119 C121 1.214 . S
O120 Cd116 2.352 . S
O120 C123 1.258 . S
C121 O118 1.320 . S
C121 O119 1.214 . S
O122 Cd114 2.277 . S
O122 C117 1.209 . S
C123 O120 1.258 . S
C123 O125 1.282 . S
O124 Cd116 2.277 . S
O124 C117 1.226 . S
O125 Cd116 2.356 . S
O125 C123 1.282 . S
C126 O127 1.306 . S
C126 O129 1.160 . S
O127 C126 1.306 . S
O127 Cd128 2.228 . S
Cd128 O127 2.228 . S
Cd128 O132 2.273 . S
Cd128 O136 2.277 . S
O129 C126 1.160 . S
O129 Cd130 2.203 . S
Cd130 O129 2.203 . S
Cd130 O132 2.411 . S
Cd130 O133 2.333 . S
Cd130 O134 2.352 . S
Cd130 O138 2.277 . S
Cd130 O139 2.356 . S
C131 O136 1.209 . S
C131 O138 1.226 . S
O132 Cd128 2.273 . S
O132 Cd130 2.411 . S
O132 C135 1.320 . S
O133 Cd130 2.333 . S
O133 C135 1.214 . S
O134 Cd130 2.352 . S
O134 C137 1.258 . S
C135 O132 1.320 . S
C135 O133 1.214 . S
O136 Cd128 2.277 . S
O136 C131 1.209 . S
C137 O134 1.258 . S
C137 O139 1.282 . S
O138 Cd130 2.277 . S
O138 C131 1.226 . S
O139 Cd130 2.356 . S
O139 C137 1.282 . S
C140 O141 1.306 . S
C140 O143 1.160 . S
O141 C140 1.306 . S
O141 Cd142 2.228 . S
Cd142 O141 2.228 . S
Cd142 O146 2.273 . S
Cd142 O150 2.277 . S
O143 C140 1.160 . S
O143 Cd144 2.203 . S
Cd144 O143 2.203 . S
Cd144 O146 2.411 . S
Cd144 O147 2.333 . S
Cd144 O148 2.352 . S
Cd144 O152 2.277 . S
Cd144 O153 2.356 . S
C145 O150 1.209 . S
C145 O152 1.226 . S
O146 Cd142 2.273 . S
O146 Cd144 2.411 . S
O146 C149 1.320 . S
O147 Cd144 2.333 . S
O147 C149 1.214 . S
O148 Cd144 2.352 . S
O148 C151 1.258 . S
C149 O146 1.320 . S
C149 O147 1.214 . S
O150 Cd142 2.277 . S
O150 C145 1.209 . S
C151 O148 1.258 . S
C151 O153 1.282 . S
O152 Cd144 2.277 . S
O152 C145 1.226 . S
O153 Cd144 2.356 . S
O153 C151 1.282 . S
C154 O155 1.306 . S
C154 O157 1.160 . S
O155 C154 1.306 . S
O155 Cd156 2.228 . S
Cd156 O155 2.228 . S
Cd156 O160 2.273 . S
Cd156 O164 2.277 . S
O157 C154 1.160 . S
O157 Cd158 2.203 . S
Cd158 O157 2.203 . S
Cd158 O160 2.411 . S
Cd158 O161 2.333 . S
Cd158 O162 2.352 . S
Cd158 O166 2.277 . S
Cd158 O167 2.356 . S
C159 O164 1.209 . S
C159 O166 1.226 . S
O160 Cd156 2.273 . S
O160 Cd158 2.411 . S
O160 C163 1.320 . S
O161 Cd158 2.333 . S
O161 C163 1.214 . S
O162 Cd158 2.352 . S
O162 C165 1.258 . S
C163 O160 1.320 . S
C163 O161 1.214 . S
O164 Cd156 2.277 . S
O164 C159 1.209 . S
C165 O162 1.258 . S
C165 O167 1.282 . S
O166 Cd158 2.277 . S
O166 C159 1.226 . S
O167 Cd158 2.356 . S
O167 C165 1.282 . S
C168 O169 1.306 . S
C168 O171 1.160 . S
O169 C168 1.306 . S
O169 Cd170 2.228 . S
Cd170 O169 2.228 . S
Cd170 O174 2.273 . S
Cd170 O178 2.277 . S
O171 C168 1.160 . S
O171 Cd172 2.203 . S
Cd172 O171 2.203 . S
Cd172 O174 2.411 . S
Cd172 O175 2.333 . S
Cd172 O176 2.352 . S
Cd172 O180 2.277 . S
Cd172 O181 2.356 . S
C173 O178 1.209 . S
C173 O180 1.226 . S
O174 Cd170 2.273 . S
O174 Cd172 2.411 . S
O174 C177 1.320 . S
O175 Cd172 2.333 . S
O175 C177 1.214 . S
O176 Cd172 2.352 . S
O176 C179 1.258 . S
C177 O174 1.320 . S
C177 O175 1.214 . S
O178 Cd170 2.277 . S
O178 C173 1.209 . S
C179 O176 1.258 . S
C179 O181 1.282 . S
O180 Cd172 2.277 . S
O180 C173 1.226 . S
O181 Cd172 2.356 . S
O181 C179 1.282 . S
C182 O183 1.306 . S
C182 O185 1.160 . S
O183 C182 1.306 . S
O183 Cd184 2.228 . S
Cd184 O183 2.228 . S
Cd184 O188 2.273 . S
Cd184 O192 2.277 . S
O185 C182 1.160 . S
O185 Cd186 2.203 . S
Cd186 O185 2.203 . S
Cd186 O188 2.411 . S
Cd186 O189 2.333 . S
Cd186 O190 2.352 . S
Cd186 O194 2.277 . S
Cd186 O195 2.356 . S
C187 O192 1.209 . S
C187 O194 1.226 . S
O188 Cd184 2.273 . S
O188 Cd186 2.411 . S
O188 C191 1.320 . S
O189 Cd186 2.333 . S
O189 C191 1.214 . S
O190 Cd186 2.352 . S
O190 C193 1.258 . S
C191 O188 1.320 . S
C191 O189 1.214 . S
O192 Cd184 2.277 . S
O192 C187 1.209 . S
C193 O190 1.258 . S
C193 O195 1.282 . S
O194 Cd186 2.277 . S
O194 C187 1.226 . S
O195 Cd186 2.356 . S
O195 C193 1.282 . S
C196 O197 1.306 . S
C196 O199 1.160 . S
O197 C196 1.306 . S
O197 Cd198 2.228 . S
Cd198 O197 2.228 . S
Cd198 O202 2.273 . S
Cd198 O206 2.277 . S
O199 C196 1.160 . S
O199 Cd200 2.203 . S
Cd200 O199 2.203 . S
Cd200 O202 2.411 . S
Cd200 O203 2.333 . S
Cd200 O204 2.352 . S
Cd200 O208 2.277 . S
Cd200 O209 2.356 . S
C201 O206 1.209 . S
C201 O208 1.226 . S
O202 Cd198 2.273 . S
O202 Cd200 2.411 . S
O202 C205 1.320 . S
O203 Cd200 2.333 . S
O203 C205 1.214 . S
O204 Cd200 2.352 . S
O204 C207 1.258 . S
C205 O202 1.320 . S
C205 O203 1.214 . S
O206 Cd198 2.277 . S
O206 C201 1.209 . S
C207 O204 1.258 . S
C207 O209 1.282 . S
O208 Cd200 2.277 . S
O208 C201 1.226 . S
O209 Cd200 2.356 . S
O209 C207 1.282 . S
C210 O211 1.306 . S
C210 O213 1.160 . S
O211 C210 1.306 . S
O211 Cd212 2.228 . S
Cd212 O211 2.228 . S
Cd212 O216 2.273 . S
Cd212 O220 2.277 . S
O213 C210 1.160 . S
O213 Cd214 2.203 . S
Cd214 O213 2.203 . S
Cd214 O216 2.411 . S
Cd214 O217 2.333 . S
Cd214 O218 2.352 . S
Cd214 O222 2.277 . S
Cd214 O223 2.356 . S
C215 O220 1.209 . S
C215 O222 1.226 . S
O216 Cd212 2.273 . S
O216 Cd214 2.411 . S
O216 C219 1.320 . S
O217 Cd214 2.333 . S
O217 C219 1.214 . S
O218 Cd214 2.352 . S
O218 C221 1.258 . S
C219 O216 1.320 . S
C219 O217 1.214 . S
O220 Cd212 2.277 . S
O220 C215 1.209 . S
C221 O218 1.258 . S
C221 O223 1.282 . S
O222 Cd214 2.277 . S
O222 C215 1.226 . S
O223 Cd214 2.356 . S
O223 C221 1.282 . S
C224 O225 1.306 . S
C224 O227 1.160 . S
O225 C224 1.306 . S
O225 Cd226 2.228 . S
Cd226 O225 2.228 . S
Cd226 O230 2.273 . S
Cd226 O234 2.277 . S
O227 C224 1.160 . S
O227 Cd228 2.203 . S
Cd228 O227 2.203 . S
Cd228 O230 2.411 . S
Cd228 O231 2.333 . S
Cd228 O232 2.352 . S
Cd228 O236 2.277 . S
Cd228 O237 2.356 . S
C229 O234 1.209 . S
C229 O236 1.226 . S
O230 Cd226 2.273 . S
O230 Cd228 2.411 . S
O230 C233 1.320 . S
O231 Cd228 2.333 . S
O231 C233 1.214 . S
O232 Cd228 2.352 . S
O232 C235 1.258 . S
C233 O230 1.320 . S
C233 O231 1.214 . S
O234 Cd226 2.277 . S
O234 C229 1.209 . S
C235 O232 1.258 . S
C235 O237 1.282 . S
O236 Cd228 2.277 . S
O236 C229 1.226 . S
O237 Cd228 2.356 . S
O237 C235 1.282 . S
C238 O239 1.306 . S
C238 O241 1.160 . S
O239 C238 1.306 . S
O239 Cd240 2.228 . S
Cd240 O239 2.228 . S
Cd240 O244 2.273 . S
Cd240 O248 2.277 . S
O241 C238 1.160 . S
O241 Cd242 2.203 . S
Cd242 O241 2.203 . S
Cd242 O244 2.411 . S
Cd242 O245 2.333 . S
Cd242 O246 2.352 . S
Cd242 O250 2.277 . S
Cd242 O251 2.356 . S
C243 O248 1.209 . S
C243 O250 1.226 . S
O244 Cd240 2.273 . S
O244 Cd242 2.411 . S
O244 C247 1.320 . S
O245 Cd242 2.333 . S
O245 C247 1.214 . S
O246 Cd242 2.352 . S
O246 C249 1.258 . S
C247 O244 1.320 . S
C247 O245 1.214 . S
O248 Cd240 2.277 . S
O248 C243 1.209 . S
C249 O246 1.258 . S
C249 O251 1.282 . S
O250 Cd242 2.277 . S
O250 C243 1.226 . S
O251 Cd242 2.356 . S
O251 C249 1.282 . S
C252 O253 1.306 . S
C252 O255 1.160 . S
O253 C252 1.306 . S
O253 Cd254 2.228 . S
Cd254 O253 2.228 . S
Cd254 O258 2.273 . S
Cd254 O262 2.277 . S
O255 C252 1.160 . S
O255 Cd256 2.203 . S
Cd256 O255 2.203 . S
Cd256 O258 2.411 . S
Cd256 O259 2.333 . S
Cd256 O260 2.352 . S
Cd256 O264 2.277 . S
Cd256 O265 2.356 . S
C257 O262 1.209 . S
C257 O264 1.226 . S
O258 Cd254 2.273 . S
O258 Cd256 2.411 . S
O258 C261 1.320 . S
O259 Cd256 2.333 . S
O259 C261 1.214 . S
O260 Cd256 2.352 . S
O260 C263 1.258 . S
C261 O258 1.320 . S
C261 O259 1.214 . S
O262 Cd254 2.277 . S
O262 C257 1.209 . S
C263 O260 1.258 . S
C263 O265 1.282 . S
O264 Cd256 2.277 . S
O264 C257 1.226 . S
O265 Cd256 2.356 . S
O265 C263 1.282 . S
C266 O267 1.306 . S
C266 O269 1.160 . S
O267 C266 1.306 . S
O267 Cd268 2.228 . S
Cd268 O267 2.228 . S
Cd268 O272 2.273 . S
Cd268 O276 2.277 . S
O269 C266 1.160 . S
O269 Cd270 2.203 . S
Cd270 O269 2.203 . S
Cd270 O272 2.411 . S
Cd270 O273 2.333 . S
Cd270 O274 2.352 . S
Cd270 O278 2.277 . S
Cd270 O279 2.356 . S
C271 O276 1.209 . S
C271 O278 1.226 . S
O272 Cd268 2.273 . S
O272 Cd270 2.411 . S
O272 C275 1.320 . S
O273 Cd270 2.333 . S
O273 C275 1.214 . S
O274 Cd270 2.352 . S
O274 C277 1.258 . S
C275 O272 1.320 . S
C275 O273 1.214 . S
O276 Cd268 2.277 . S
O276 C271 1.209 . S
C277 O274 1.258 . S
C277 O279 1.282 . S
O278 Cd270 2.277 . S
O278 C271 1.226 . S
O279 Cd270 2.356 . S
O279 C277 1.282 . S
C280 O281 1.306 . S
C280 O283 1.160 . S
O281 C280 1.306 . S
O281 Cd282 2.228 . S
Cd282 O281 2.228 . S
Cd282 O286 2.273 . S
Cd282 O290 2.277 . S
O283 C280 1.160 . S
O283 Cd284 2.203 . S
Cd284 O283 2.203 . S
Cd284 O286 2.411 . S
Cd284 O287 2.333 . S
Cd284 O288 2.352 . S
Cd284 O292 2.277 . S
Cd284 O293 2.356 . S
C285 O290 1.209 . S
C285 O292 1.226 . S
O286 Cd282 2.273 . S
O286 Cd284 2.411 . S
O286 C289 1.320 . S
O287 Cd284 2.333 . S
O287 C289 1.214 . S
O288 Cd284 2.352 . S
O288 C291 1.258 . S
C289 O286 1.320 . S
C289 O287 1.214 . S
O290 Cd282 2.277 . S
O290 C285 1.209 . S
C291 O288 1.258 . S
C291 O293 1.282 . S
O292 Cd284 2.277 . S
O292 C285 1.226 . S
O293 Cd284 2.356 . S
O293 C291 1.282 . S
C294 O295 1.306 . S
C294 O297 1.160 . S
O295 C294 1.306 . S
O295 Cd296 2.228 . S
Cd296 O295 2.228 . S
Cd296 O300 2.273 . S
Cd296 O304 2.277 . S
O297 C294 1.160 . S
O297 Cd298 2.203 . S
Cd298 O297 2.203 . S
Cd298 O300 2.411 . S
Cd298 O301 2.333 . S
Cd298 O302 2.352 . S
Cd298 O306 2.277 . S
Cd298 O307 2.356 . S
C299 O304 1.209 . S
C299 O306 1.226 . S
O300 Cd296 2.273 . S
O300 Cd298 2.411 . S
O300 C303 1.320 . S
O301 Cd298 2.333 . S
O301 C303 1.214 . S
O302 Cd298 2.352 . S
O302 C305 1.258 . S
C303 O300 1.320 . S
C303 O301 1.214 . S
O304 Cd296 2.277 . S
O304 C299 1.209 . S
C305 O302 1.258 . S
C305 O307 1.282 . S
O306 Cd298 2.277 . S
O306 C299 1.226 . S
O307 Cd298 2.356 . S
O307 C305 1.282 . S
C308 O309 1.306 . S
C308 O311 1.160 . S
O309 C308 1.306 . S
O309 Cd310 2.228 . S
Cd310 O309 2.228 . S
Cd310 O314 2.273 . S
Cd310 O318 2.277 . S
O311 C308 1.160 . S
O311 Cd312 2.203 . S
Cd312 O311 2.203 . S
Cd312 O314 2.411 . S
Cd312 O315 2.333 . S
Cd312 O316 2.352 . S
Cd312 O320 2.277 . S
Cd312 O321 2.356 . S
C313 O318 1.209 . S
C313 O320 1.226 . S
O314 Cd310 2.273 . S
O314 Cd312 2.411 . S
O314 C317 1.320 . S
O315 Cd312 2.333 . S
O315 C317 1.214 . S
O316 Cd312 2.352 . S
O316 C319 1.258 . S
C317 O314 1.320 . S
C317 O315 1.214 . S
O318 Cd310 2.277 . S
O318 C313 1.209 . S
C319 O316 1.258 . S
C319 O321 1.282 . S
O320 Cd312 2.277 . S
O320 C313 1.226 . S
O321 Cd312 2.356 . S
O321 C319 1.282 . S
C322 O323 1.306 . S
C322 O325 1.160 . S
O323 C322 1.306 . S
O323 Cd324 2.228 . S
Cd324 O323 2.228 . S
Cd324 O328 2.273 . S
Cd324 O332 2.277 . S
O325 C322 1.160 . S
O325 Cd326 2.203 . S
Cd326 O325 2.203 . S
Cd326 O328 2.411 . S
Cd326 O329 2.333 . S
Cd326 O330 2.352 . S
Cd326 O334 2.277 . S
Cd326 O335 2.356 . S
C327 O332 1.209 . S
C327 O334 1.226 . S
O328 Cd324 2.273 . S
O328 Cd326 2.411 . S
O328 C331 1.320 . S
O329 Cd326 2.333 . S
O329 C331 1.214 . S
O330 Cd326 2.352 . S
O330 C333 1.258 . S
C331 O328 1.320 . S
C331 O329 1.214 . S
O332 Cd324 2.277 . S
O332 C327 1.209 . S
C333 O330 1.258 . S
C333 O335 1.282 . S
O334 Cd326 2.277 . S
O334 C327 1.226 . S
O335 Cd326 2.356 . S
O335 C333 1.282 . S
H336 C344 0.929 . S
H337 C346 0.930 . S
H338 C348 0.930 . S
H339 C351 0.929 . S
H340 C354 0.930 . S
H341 C356 0.960 . S
H342 C356 0.960 . S
H343 C356 0.960 . S
C344 H336 0.929 . S
C344 C345 1.377 . S
C344 C346 1.384 . S
C345 C344 1.377 . S
C345 C351 1.390 . S
C346 H337 0.930 . S
C346 C344 1.384 . S
C346 C347 1.372 . S
C347 C346 1.372 . S
C347 C348 1.400 . S
C347 C352 1.490 . S
C348 H338 0.930 . S
C348 C347 1.400 . S
C348 C351 1.386 . S
H349 C365 0.930 . S
H350 C366 0.931 . S
C351 H339 0.929 . S
C351 C345 1.390 . S
C351 C348 1.386 . S
C352 C347 1.490 . S
C352 C354 1.395 . S
C352 C355 1.403 . S
H353 C359 0.930 . S
C354 H340 0.930 . S
C354 C352 1.395 . S
C354 C357 1.403 . S
C355 C352 1.403 . S
C355 C356 1.524 . S
C355 C359 1.400 . S
C356 H341 0.960 . S
C356 H342 0.960 . S
C356 H343 0.960 . S
C356 C355 1.524 . S
C357 C354 1.403 . S
C357 C358 1.392 . S
C357 C361 1.495 . S
C358 C357 1.392 . S
C358 C359 1.385 . S
C358 C360 1.478 . S
C359 H353 0.930 . S
C359 C355 1.400 . S
C359 C358 1.385 . S
C360 C358 1.478 . S
C360 C362 1.381 . S
C360 C366 1.383 . S
C361 C357 1.495 . S
C361 H367 0.959 . S
C361 H368 0.961 . S
C361 H369 0.960 . S
C362 C360 1.381 . S
C362 C363 1.394 . S
C362 H370 0.930 . S
C363 C362 1.394 . S
C363 C364 1.383 . S
C363 H371 0.929 . S
C364 C363 1.383 . S
C364 C365 1.377 . S
C365 H349 0.930 . S
C365 C364 1.377 . S
C365 C366 1.379 . S
C366 H350 0.931 . S
C366 C360 1.383 . S
C366 C365 1.379 . S
H367 C361 0.959 . S
H368 C361 0.961 . S
H369 C361 0.960 . S
H370 C362 0.930 . S
H371 C363 0.929 . S
H372 C380 0.929 . S
H373 C382 0.930 . S
H374 C384 0.930 . S
H375 C387 0.929 . S
H376 C390 0.930 . S
H377 C392 0.960 . S
H378 C392 0.960 . S
H379 C392 0.960 . S
C380 H372 0.929 . S
C380 C381 1.377 . S
C380 C382 1.384 . S
C381 C380 1.377 . S
C381 C387 1.390 . S
C382 H373 0.930 . S
C382 C380 1.384 . S
C382 C383 1.372 . S
C383 C382 1.372 . S
C383 C384 1.400 . S
C383 C388 1.490 . S
C384 H374 0.930 . S
C384 C383 1.400 . S
C384 C387 1.386 . S
H385 C401 0.930 . S
H386 C402 0.931 . S
C387 H375 0.929 . S
C387 C381 1.390 . S
C387 C384 1.386 . S
C388 C383 1.490 . S
C388 C390 1.395 . S
C388 C391 1.403 . S
H389 C395 0.930 . S
C390 H376 0.930 . S
C390 C388 1.395 . S
C390 C393 1.403 . S
C391 C388 1.403 . S
C391 C392 1.524 . S
C391 C395 1.400 . S
C392 H377 0.960 . S
C392 H378 0.960 . S
C392 H379 0.960 . S
C392 C391 1.524 . S
C393 C390 1.403 . S
C393 C394 1.392 . S
C393 C397 1.495 . S
C394 C393 1.392 . S
C394 C395 1.385 . S
C394 C396 1.478 . S
C395 H389 0.930 . S
C395 C391 1.400 . S
C395 C394 1.385 . S
C396 C394 1.478 . S
C396 C398 1.381 . S
C396 C402 1.383 . S
C397 C393 1.495 . S
C397 H403 0.959 . S
C397 H404 0.961 . S
C397 H405 0.960 . S
C398 C396 1.381 . S
C398 C399 1.394 . S
C398 H406 0.930 . S
C399 C398 1.394 . S
C399 C400 1.383 . S
C399 H407 0.929 . S
C400 C399 1.383 . S
C400 C401 1.377 . S
C401 H385 0.930 . S
C401 C400 1.377 . S
C401 C402 1.379 . S
C402 H386 0.931 . S
C402 C396 1.383 . S
C402 C401 1.379 . S
H403 C397 0.959 . S
H404 C397 0.961 . S
H405 C397 0.960 . S
H406 C398 0.930 . S
H407 C399 0.929 . S
H408 C416 0.929 . S
H409 C418 0.930 . S
H410 C420 0.930 . S
H411 C423 0.929 . S
H412 C426 0.930 . S
H413 C428 0.960 . S
H414 C428 0.960 . S
H415 C428 0.960 . S
C416 H408 0.929 . S
C416 C417 1.377 . S
C416 C418 1.384 . S
C417 C416 1.377 . S
C417 C423 1.390 . S
C418 H409 0.930 . S
C418 C416 1.384 . S
C418 C419 1.372 . S
C419 C418 1.372 . S
C419 C420 1.400 . S
C419 C424 1.490 . S
C420 H410 0.930 . S
C420 C419 1.400 . S
C420 C423 1.386 . S
H421 C437 0.930 . S
H422 C438 0.931 . S
C423 H411 0.929 . S
C423 C417 1.390 . S
C423 C420 1.386 . S
C424 C419 1.490 . S
C424 C426 1.395 . S
C424 C427 1.403 . S
H425 C431 0.930 . S
C426 H412 0.930 . S
C426 C424 1.395 . S
C426 C429 1.403 . S
C427 C424 1.403 . S
C427 C428 1.524 . S
C427 C431 1.400 . S
C428 H413 0.960 . S
C428 H414 0.960 . S
C428 H415 0.960 . S
C428 C427 1.524 . S
C429 C426 1.403 . S
C429 C430 1.392 . S
C429 C433 1.495 . S
C430 C429 1.392 . S
C430 C431 1.385 . S
C430 C432 1.478 . S
C431 H425 0.930 . S
C431 C427 1.400 . S
C431 C430 1.385 . S
C432 C430 1.478 . S
C432 C434 1.381 . S
C432 C438 1.383 . S
C433 C429 1.495 . S
C433 H439 0.959 . S
C433 H440 0.961 . S
C433 H441 0.960 . S
C434 C432 1.381 . S
C434 C435 1.394 . S
C434 H442 0.930 . S
C435 C434 1.394 . S
C435 C436 1.383 . S
C435 H443 0.929 . S
C436 C435 1.383 . S
C436 C437 1.377 . S
C437 H421 0.930 . S
C437 C436 1.377 . S
C437 C438 1.379 . S
C438 H422 0.931 . S
C438 C432 1.383 . S
C438 C437 1.379 . S
H439 C433 0.959 . S
H440 C433 0.961 . S
H441 C433 0.960 . S
H442 C434 0.930 . S
H443 C435 0.929 . S
H444 C452 0.929 . S
H445 C454 0.930 . S
H446 C456 0.930 . S
H447 C459 0.929 . S
H448 C462 0.930 . S
H449 C464 0.960 . S
H450 C464 0.960 . S
H451 C464 0.960 . S
C452 H444 0.929 . S
C452 C453 1.377 . S
C452 C454 1.384 . S
C453 C452 1.377 . S
C453 C459 1.390 . S
C454 H445 0.930 . S
C454 C452 1.384 . S
C454 C455 1.372 . S
C455 C454 1.372 . S
C455 C456 1.400 . S
C455 C460 1.490 . S
C456 H446 0.930 . S
C456 C455 1.400 . S
C456 C459 1.386 . S
H457 C473 0.930 . S
H458 C474 0.931 . S
C459 H447 0.929 . S
C459 C453 1.390 . S
C459 C456 1.386 . S
C460 C455 1.490 . S
C460 C462 1.395 . S
C460 C463 1.403 . S
H461 C467 0.930 . S
C462 H448 0.930 . S
C462 C460 1.395 . S
C462 C465 1.403 . S
C463 C460 1.403 . S
C463 C464 1.524 . S
C463 C467 1.400 . S
C464 H449 0.960 . S
C464 H450 0.960 . S
C464 H451 0.960 . S
C464 C463 1.524 . S
C465 C462 1.403 . S
C465 C466 1.392 . S
C465 C469 1.495 . S
C466 C465 1.392 . S
C466 C467 1.385 . S
C466 C468 1.478 . S
C467 H461 0.930 . S
C467 C463 1.400 . S
C467 C466 1.385 . S
C468 C466 1.478 . S
C468 C470 1.381 . S
C468 C474 1.383 . S
C469 C465 1.495 . S
C469 H475 0.959 . S
C469 H476 0.961 . S
C469 H477 0.960 . S
C470 C468 1.381 . S
C470 C471 1.394 . S
C470 H478 0.930 . S
C471 C470 1.394 . S
C471 C472 1.383 . S
C471 H479 0.929 . S
C472 C471 1.383 . S
C472 C473 1.377 . S
C473 H457 0.930 . S
C473 C472 1.377 . S
C473 C474 1.379 . S
C474 H458 0.931 . S
C474 C468 1.383 . S
C474 C473 1.379 . S
H475 C469 0.959 . S
H476 C469 0.961 . S
H477 C469 0.960 . S
H478 C470 0.930 . S
H479 C471 0.929 . S
H480 C488 0.929 . S
H481 C490 0.930 . S
H482 C492 0.930 . S
H483 C495 0.929 . S
H484 C498 0.930 . S
H485 C500 0.960 . S
H486 C500 0.960 . S
H487 C500 0.960 . S
C488 H480 0.929 . S
C488 C489 1.377 . S
C488 C490 1.384 . S
C489 C488 1.377 . S
C489 C495 1.390 . S
C490 H481 0.930 . S
C490 C488 1.384 . S
C490 C491 1.372 . S
C491 C490 1.372 . S
C491 C492 1.400 . S
C491 C496 1.490 . S
C492 H482 0.930 . S
C492 C491 1.400 . S
C492 C495 1.386 . S
H493 C509 0.930 . S
H494 C510 0.931 . S
C495 H483 0.929 . S
C495 C489 1.390 . S
C495 C492 1.386 . S
C496 C491 1.490 . S
C496 C498 1.395 . S
C496 C499 1.403 . S
H497 C503 0.930 . S
C498 H484 0.930 . S
C498 C496 1.395 . S
C498 C501 1.403 . S
C499 C496 1.403 . S
C499 C500 1.524 . S
C499 C503 1.400 . S
C500 H485 0.960 . S
C500 H486 0.960 . S
C500 H487 0.960 . S
C500 C499 1.524 . S
C501 C498 1.403 . S
C501 C502 1.392 . S
C501 C505 1.495 . S
C502 C501 1.392 . S
C502 C503 1.385 . S
C502 C504 1.478 . S
C503 H497 0.930 . S
C503 C499 1.400 . S
C503 C502 1.385 . S
C504 C502 1.478 . S
C504 C506 1.381 . S
C504 C510 1.383 . S
C505 C501 1.495 . S
C505 H511 0.959 . S
C505 H512 0.961 . S
C505 H513 0.960 . S
C506 C504 1.381 . S
C506 C507 1.394 . S
C506 H514 0.930 . S
C507 C506 1.394 . S
C507 C508 1.383 . S
C507 H515 0.929 . S
C508 C507 1.383 . S
C508 C509 1.377 . S
C509 H493 0.930 . S
C509 C508 1.377 . S
C509 C510 1.379 . S
C510 H494 0.931 . S
C510 C504 1.383 . S
C510 C509 1.379 . S
H511 C505 0.959 . S
H512 C505 0.961 . S
H513 C505 0.960 . S
H514 C506 0.930 . S
H515 C507 0.929 . S
H516 C524 0.929 . S
H517 C526 0.930 . S
H518 C528 0.930 . S
H519 C531 0.929 . S
H520 C534 0.930 . S
H521 C536 0.960 . S
H522 C536 0.960 . S
H523 C536 0.960 . S
C524 H516 0.929 . S
C524 C525 1.377 . S
C524 C526 1.384 . S
C525 C524 1.377 . S
C525 C531 1.390 . S
C526 H517 0.930 . S
C526 C524 1.384 . S
C526 C527 1.372 . S
C527 C526 1.372 . S
C527 C528 1.400 . S
C527 C532 1.490 . S
C528 H518 0.930 . S
C528 C527 1.400 . S
C528 C531 1.386 . S
H529 C545 0.930 . S
H530 C546 0.931 . S
C531 H519 0.929 . S
C531 C525 1.390 . S
C531 C528 1.386 . S
C532 C527 1.490 . S
C532 C534 1.395 . S
C532 C535 1.403 . S
H533 C539 0.930 . S
C534 H520 0.930 . S
C534 C532 1.395 . S
C534 C537 1.403 . S
C535 C532 1.403 . S
C535 C536 1.524 . S
C535 C539 1.400 . S
C536 H521 0.960 . S
C536 H522 0.960 . S
C536 H523 0.960 . S
C536 C535 1.524 . S
C537 C534 1.403 . S
C537 C538 1.392 . S
C537 C541 1.495 . S
C538 C537 1.392 . S
C538 C539 1.385 . S
C538 C540 1.478 . S
C539 H533 0.930 . S
C539 C535 1.400 . S
C539 C538 1.385 . S
C540 C538 1.478 . S
C540 C542 1.381 . S
C540 C546 1.383 . S
C541 C537 1.495 . S
C541 H547 0.959 . S
C541 H548 0.961 . S
C541 H549 0.960 . S
C542 C540 1.381 . S
C542 C543 1.394 . S
C542 H550 0.930 . S
C543 C542 1.394 . S
C543 C544 1.383 . S
C543 H551 0.929 . S
C544 C543 1.383 . S
C544 C545 1.377 . S
C545 H529 0.930 . S
C545 C544 1.377 . S
C545 C546 1.379 . S
C546 H530 0.931 . S
C546 C540 1.383 . S
C546 C545 1.379 . S
H547 C541 0.959 . S
H548 C541 0.961 . S
H549 C541 0.960 . S
H550 C542 0.930 . S
H551 C543 0.929 . S
H552 C560 0.929 . S
H553 C562 0.930 . S
H554 C564 0.930 . S
H555 C567 0.929 . S
H556 C570 0.930 . S
H557 C572 0.960 . S
H558 C572 0.960 . S
H559 C572 0.960 . S
C560 H552 0.929 . S
C560 C561 1.377 . S
C560 C562 1.384 . S
C561 C560 1.377 . S
C561 C567 1.390 . S
C562 H553 0.930 . S
C562 C560 1.384 . S
C562 C563 1.372 . S
C563 C562 1.372 . S
C563 C564 1.400 . S
C563 C568 1.490 . S
C564 H554 0.930 . S
C564 C563 1.400 . S
C564 C567 1.386 . S
H565 C581 0.930 . S
H566 C582 0.931 . S
C567 H555 0.929 . S
C567 C561 1.390 . S
C567 C564 1.386 . S
C568 C563 1.490 . S
C568 C570 1.395 . S
C568 C571 1.403 . S
H569 C575 0.930 . S
C570 H556 0.930 . S
C570 C568 1.395 . S
C570 C573 1.403 . S
C571 C568 1.403 . S
C571 C572 1.524 . S
C571 C575 1.400 . S
C572 H557 0.960 . S
C572 H558 0.960 . S
C572 H559 0.960 . S
C572 C571 1.524 . S
C573 C570 1.403 . S
C573 C574 1.392 . S
C573 C577 1.495 . S
C574 C573 1.392 . S
C574 C575 1.385 . S
C574 C576 1.478 . S
C575 H569 0.930 . S
C575 C571 1.400 . S
C575 C574 1.385 . S
C576 C574 1.478 . S
C576 C578 1.381 . S
C576 C582 1.383 . S
C577 C573 1.495 . S
C577 H583 0.959 . S
C577 H584 0.961 . S
C577 H585 0.960 . S
C578 C576 1.381 . S
C578 C579 1.394 . S
C578 H586 0.930 . S
C579 C578 1.394 . S
C579 C580 1.383 . S
C579 H587 0.929 . S
C580 C579 1.383 . S
C580 C581 1.377 . S
C581 H565 0.930 . S
C581 C580 1.377 . S
C581 C582 1.379 . S
C582 H566 0.931 . S
C582 C576 1.383 . S
C582 C581 1.379 . S
H583 C577 0.959 . S
H584 C577 0.961 . S
H585 C577 0.960 . S
H586 C578 0.930 . S
H587 C579 0.929 . S
H588 C596 0.929 . S
H589 C598 0.930 . S
H590 C600 0.930 . S
H591 C603 0.929 . S
H592 C606 0.930 . S
H593 C608 0.960 . S
H594 C608 0.960 . S
H595 C608 0.960 . S
C596 H588 0.929 . S
C596 C597 1.377 . S
C596 C598 1.384 . S
C597 C596 1.377 . S
C597 C603 1.390 . S
C598 H589 0.930 . S
C598 C596 1.384 . S
C598 C599 1.372 . S
C599 C598 1.372 . S
C599 C600 1.400 . S
C599 C604 1.490 . S
C600 H590 0.930 . S
C600 C599 1.400 . S
C600 C603 1.386 . S
H601 C617 0.930 . S
H602 C618 0.931 . S
C603 H591 0.929 . S
C603 C597 1.390 . S
C603 C600 1.386 . S
C604 C599 1.490 . S
C604 C606 1.395 . S
C604 C607 1.403 . S
H605 C611 0.930 . S
C606 H592 0.930 . S
C606 C604 1.395 . S
C606 C609 1.403 . S
C607 C604 1.403 . S
C607 C608 1.524 . S
C607 C611 1.400 . S
C608 H593 0.960 . S
C608 H594 0.960 . S
C608 H595 0.960 . S
C608 C607 1.524 . S
C609 C606 1.403 . S
C609 C610 1.392 . S
C609 C613 1.495 . S
C610 C609 1.392 . S
C610 C611 1.385 . S
C610 C612 1.478 . S
C611 H605 0.930 . S
C611 C607 1.400 . S
C611 C610 1.385 . S
C612 C610 1.478 . S
C612 C614 1.381 . S
C612 C618 1.383 . S
C613 C609 1.495 . S
C613 H619 0.959 . S
C613 H620 0.961 . S
C613 H621 0.960 . S
C614 C612 1.381 . S
C614 C615 1.394 . S
C614 H622 0.930 . S
C615 C614 1.394 . S
C615 C616 1.383 . S
C615 H623 0.929 . S
C616 C615 1.383 . S
C616 C617 1.377 . S
C617 H601 0.930 . S
C617 C616 1.377 . S
C617 C618 1.379 . S
C618 H602 0.931 . S
C618 C612 1.383 . S
C618 C617 1.379 . S
H619 C613 0.959 . S
H620 C613 0.961 . S
H621 C613 0.960 . S
H622 C614 0.930 . S
H623 C615 0.929 . S
H624 C632 0.929 . S
H625 C634 0.930 . S
H626 C636 0.930 . S
H627 C639 0.929 . S
H628 C642 0.930 . S
H629 C644 0.960 . S
H630 C644 0.960 . S
H631 C644 0.960 . S
C632 H624 0.929 . S
C632 C633 1.377 . S
C632 C634 1.384 . S
C633 C632 1.377 . S
C633 C639 1.390 . S
C634 H625 0.930 . S
C634 C632 1.384 . S
C634 C635 1.372 . S
C635 C634 1.372 . S
C635 C636 1.400 . S
C635 C640 1.490 . S
C636 H626 0.930 . S
C636 C635 1.400 . S
C636 C639 1.386 . S
H637 C653 0.930 . S
H638 C654 0.931 . S
C639 H627 0.929 . S
C639 C633 1.390 . S
C639 C636 1.386 . S
C640 C635 1.490 . S
C640 C642 1.395 . S
C640 C643 1.403 . S
H641 C647 0.930 . S
C642 H628 0.930 . S
C642 C640 1.395 . S
C642 C645 1.403 . S
C643 C640 1.403 . S
C643 C644 1.524 . S
C643 C647 1.400 . S
C644 H629 0.960 . S
C644 H630 0.960 . S
C644 H631 0.960 . S
C644 C643 1.524 . S
C645 C642 1.403 . S
C645 C646 1.392 . S
C645 C649 1.495 . S
C646 C645 1.392 . S
C646 C647 1.385 . S
C646 C648 1.478 . S
C647 H641 0.930 . S
C647 C643 1.400 . S
C647 C646 1.385 . S
C648 C646 1.478 . S
C648 C650 1.381 . S
C648 C654 1.383 . S
C649 C645 1.495 . S
C649 H655 0.959 . S
C649 H656 0.961 . S
C649 H657 0.960 . S
C650 C648 1.381 . S
C650 C651 1.394 . S
C650 H658 0.930 . S
C651 C650 1.394 . S
C651 C652 1.383 . S
C651 H659 0.929 . S
C652 C651 1.383 . S
C652 C653 1.377 . S
C653 H637 0.930 . S
C653 C652 1.377 . S
C653 C654 1.379 . S
C654 H638 0.931 . S
C654 C648 1.383 . S
C654 C653 1.379 . S
H655 C649 0.959 . S
H656 C649 0.961 . S
H657 C649 0.960 . S
H658 C650 0.930 . S
H659 C651 0.929 . S
H660 C668 0.929 . S
H661 C670 0.930 . S
H662 C672 0.930 . S
H663 C675 0.929 . S
H664 C678 0.930 . S
H665 C680 0.960 . S
H666 C680 0.960 . S
H667 C680 0.960 . S
C668 H660 0.929 . S
C668 C669 1.377 . S
C668 C670 1.384 . S
C669 C668 1.377 . S
C669 C675 1.390 . S
C670 H661 0.930 . S
C670 C668 1.384 . S
C670 C671 1.372 . S
C671 C670 1.372 . S
C671 C672 1.400 . S
C671 C676 1.490 . S
C672 H662 0.930 . S
C672 C671 1.400 . S
C672 C675 1.386 . S
H673 C689 0.930 . S
H674 C690 0.931 . S
C675 H663 0.929 . S
C675 C669 1.390 . S
C675 C672 1.386 . S
C676 C671 1.490 . S
C676 C678 1.395 . S
C676 C679 1.403 . S
H677 C683 0.930 . S
C678 H664 0.930 . S
C678 C676 1.395 . S
C678 C681 1.403 . S
C679 C676 1.403 . S
C679 C680 1.524 . S
C679 C683 1.400 . S
C680 H665 0.960 . S
C680 H666 0.960 . S
C680 H667 0.960 . S
C680 C679 1.524 . S
C681 C678 1.403 . S
C681 C682 1.392 . S
C681 C685 1.495 . S
C682 C681 1.392 . S
C682 C683 1.385 . S
C682 C684 1.478 . S
C683 H677 0.930 . S
C683 C679 1.400 . S
C683 C682 1.385 . S
C684 C682 1.478 . S
C684 C686 1.381 . S
C684 C690 1.383 . S
C685 C681 1.495 . S
C685 H691 0.959 . S
C685 H692 0.961 . S
C685 H693 0.960 . S
C686 C684 1.381 . S
C686 C687 1.394 . S
C686 H694 0.930 . S
C687 C686 1.394 . S
C687 C688 1.383 . S
C687 H695 0.929 . S
C688 C687 1.383 . S
C688 C689 1.377 . S
C689 H673 0.930 . S
C689 C688 1.377 . S
C689 C690 1.379 . S
C690 H674 0.931 . S
C690 C684 1.383 . S
C690 C689 1.379 . S
H691 C685 0.959 . S
H692 C685 0.961 . S
H693 C685 0.960 . S
H694 C686 0.930 . S
H695 C687 0.929 . S
H696 C704 0.929 . S
H697 C706 0.930 . S
H698 C708 0.930 . S
H699 C711 0.929 . S
H700 C714 0.930 . S
H701 C716 0.960 . S
H702 C716 0.960 . S
H703 C716 0.960 . S
C704 H696 0.929 . S
C704 C705 1.377 . S
C704 C706 1.384 . S
C705 C704 1.377 . S
C705 C711 1.390 . S
C706 H697 0.930 . S
C706 C704 1.384 . S
C706 C707 1.372 . S
C707 C706 1.372 . S
C707 C708 1.400 . S
C707 C712 1.490 . S
C708 H698 0.930 . S
C708 C707 1.400 . S
C708 C711 1.386 . S
H709 C725 0.930 . S
H710 C726 0.931 . S
C711 H699 0.929 . S
C711 C705 1.390 . S
C711 C708 1.386 . S
C712 C707 1.490 . S
C712 C714 1.395 . S
C712 C715 1.403 . S
H713 C719 0.930 . S
C714 H700 0.930 . S
C714 C712 1.395 . S
C714 C717 1.403 . S
C715 C712 1.403 . S
C715 C716 1.524 . S
C715 C719 1.400 . S
C716 H701 0.960 . S
C716 H702 0.960 . S
C716 H703 0.960 . S
C716 C715 1.524 . S
C717 C714 1.403 . S
C717 C718 1.392 . S
C717 C721 1.495 . S
C718 C717 1.392 . S
C718 C719 1.385 . S
C718 C720 1.478 . S
C719 H713 0.930 . S
C719 C715 1.400 . S
C719 C718 1.385 . S
C720 C718 1.478 . S
C720 C722 1.381 . S
C720 C726 1.383 . S
C721 C717 1.495 . S
C721 H727 0.959 . S
C721 H728 0.961 . S
C721 H729 0.960 . S
C722 C720 1.381 . S
C722 C723 1.394 . S
C722 H730 0.930 . S
C723 C722 1.394 . S
C723 C724 1.383 . S
C723 H731 0.929 . S
C724 C723 1.383 . S
C724 C725 1.377 . S
C725 H709 0.930 . S
C725 C724 1.377 . S
C725 C726 1.379 . S
C726 H710 0.931 . S
C726 C720 1.383 . S
C726 C725 1.379 . S
H727 C721 0.959 . S
H728 C721 0.961 . S
H729 C721 0.960 . S
H730 C722 0.930 . S
H731 C723 0.929 . S
H732 C740 0.929 . S
H733 C742 0.930 . S
H734 C744 0.930 . S
H735 C747 0.929 . S
H736 C750 0.930 . S
H737 C752 0.960 . S
H738 C752 0.960 . S
H739 C752 0.960 . S
C740 H732 0.929 . S
C740 C741 1.377 . S
C740 C742 1.384 . S
C741 C740 1.377 . S
C741 C747 1.390 . S
C742 H733 0.930 . S
C742 C740 1.384 . S
C742 C743 1.372 . S
C743 C742 1.372 . S
C743 C744 1.400 . S
C743 C748 1.490 . S
C744 H734 0.930 . S
C744 C743 1.400 . S
C744 C747 1.386 . S
H745 C761 0.930 . S
H746 C762 0.931 . S
C747 H735 0.929 . S
C747 C741 1.390 . S
C747 C744 1.386 . S
C748 C743 1.490 . S
C748 C750 1.395 . S
C748 C751 1.403 . S
H749 C755 0.930 . S
C750 H736 0.930 . S
C750 C748 1.395 . S
C750 C753 1.403 . S
C751 C748 1.403 . S
C751 C752 1.524 . S
C751 C755 1.400 . S
C752 H737 0.960 . S
C752 H738 0.960 . S
C752 H739 0.960 . S
C752 C751 1.524 . S
C753 C750 1.403 . S
C753 C754 1.392 . S
C753 C757 1.495 . S
C754 C753 1.392 . S
C754 C755 1.385 . S
C754 C756 1.478 . S
C755 H749 0.930 . S
C755 C751 1.400 . S
C755 C754 1.385 . S
C756 C754 1.478 . S
C756 C758 1.381 . S
C756 C762 1.383 . S
C757 C753 1.495 . S
C757 H763 0.959 . S
C757 H764 0.961 . S
C757 H765 0.960 . S
C758 C756 1.381 . S
C758 C759 1.394 . S
C758 H766 0.930 . S
C759 C758 1.394 . S
C759 C760 1.383 . S
C759 H767 0.929 . S
C760 C759 1.383 . S
C760 C761 1.377 . S
C761 H745 0.930 . S
C761 C760 1.377 . S
C761 C762 1.379 . S
C762 H746 0.931 . S
C762 C756 1.383 . S
C762 C761 1.379 . S
H763 C757 0.959 . S
H764 C757 0.961 . S
H765 C757 0.960 . S
H766 C758 0.930 . S
H767 C759 0.929 . S
H768 C776 0.929 . S
H769 C778 0.930 . S
H770 C780 0.930 . S
H771 C783 0.929 . S
H772 C786 0.930 . S
H773 C788 0.960 . S
H774 C788 0.960 . S
H775 C788 0.960 . S
C776 H768 0.929 . S
C776 C777 1.377 . S
C776 C778 1.384 . S
C777 C776 1.377 . S
C777 C783 1.390 . S
C778 H769 0.930 . S
C778 C776 1.384 . S
C778 C779 1.372 . S
C779 C778 1.372 . S
C779 C780 1.400 . S
C779 C784 1.490 . S
C780 H770 0.930 . S
C780 C779 1.400 . S
C780 C783 1.386 . S
H781 C797 0.930 . S
H782 C798 0.931 . S
C783 H771 0.929 . S
C783 C777 1.390 . S
C783 C780 1.386 . S
C784 C779 1.490 . S
C784 C786 1.395 . S
C784 C787 1.403 . S
H785 C791 0.930 . S
C786 H772 0.930 . S
C786 C784 1.395 . S
C786 C789 1.403 . S
C787 C784 1.403 . S
C787 C788 1.524 . S
C787 C791 1.400 . S
C788 H773 0.960 . S
C788 H774 0.960 . S
C788 H775 0.960 . S
C788 C787 1.524 . S
C789 C786 1.403 . S
C789 C790 1.392 . S
C789 C793 1.495 . S
C790 C789 1.392 . S
C790 C791 1.385 . S
C790 C792 1.478 . S
C791 H785 0.930 . S
C791 C787 1.400 . S
C791 C790 1.385 . S
C792 C790 1.478 . S
C792 C794 1.381 . S
C792 C798 1.383 . S
C793 C789 1.495 . S
C793 H799 0.959 . S
C793 H800 0.961 . S
C793 H801 0.960 . S
C794 C792 1.381 . S
C794 C795 1.394 . S
C794 H802 0.930 . S
C795 C794 1.394 . S
C795 C796 1.383 . S
C795 H803 0.929 . S
C796 C795 1.383 . S
C796 C797 1.377 . S
C797 H781 0.930 . S
C797 C796 1.377 . S
C797 C798 1.379 . S
C798 H782 0.931 . S
C798 C792 1.383 . S
C798 C797 1.379 . S
H799 C793 0.959 . S
H800 C793 0.961 . S
H801 C793 0.960 . S
H802 C794 0.930 . S
H803 C795 0.929 . S
H804 C812 0.929 . S
H805 C814 0.930 . S
H806 C816 0.930 . S
H807 C819 0.929 . S
H808 C822 0.930 . S
H809 C824 0.960 . S
H810 C824 0.960 . S
H811 C824 0.960 . S
C812 H804 0.929 . S
C812 C813 1.377 . S
C812 C814 1.384 . S
C813 C812 1.377 . S
C813 C819 1.390 . S
C814 H805 0.930 . S
C814 C812 1.384 . S
C814 C815 1.372 . S
C815 C814 1.372 . S
C815 C816 1.400 . S
C815 C820 1.490 . S
C816 H806 0.930 . S
C816 C815 1.400 . S
C816 C819 1.386 . S
H817 C833 0.930 . S
H818 C834 0.931 . S
C819 H807 0.929 . S
C819 C813 1.390 . S
C819 C816 1.386 . S
C820 C815 1.490 . S
C820 C822 1.395 . S
C820 C823 1.403 . S
H821 C827 0.930 . S
C822 H808 0.930 . S
C822 C820 1.395 . S
C822 C825 1.403 . S
C823 C820 1.403 . S
C823 C824 1.524 . S
C823 C827 1.400 . S
C824 H809 0.960 . S
C824 H810 0.960 . S
C824 H811 0.960 . S
C824 C823 1.524 . S
C825 C822 1.403 . S
C825 C826 1.392 . S
C825 C829 1.495 . S
C826 C825 1.392 . S
C826 C827 1.385 . S
C826 C828 1.478 . S
C827 H821 0.930 . S
C827 C823 1.400 . S
C827 C826 1.385 . S
C828 C826 1.478 . S
C828 C830 1.381 . S
C828 C834 1.383 . S
C829 C825 1.495 . S
C829 H835 0.959 . S
C829 H836 0.961 . S
C829 H837 0.960 . S
C830 C828 1.381 . S
C830 C831 1.394 . S
C830 H838 0.930 . S
C831 C830 1.394 . S
C831 C832 1.383 . S
C831 H839 0.929 . S
C832 C831 1.383 . S
C832 C833 1.377 . S
C833 H817 0.930 . S
C833 C832 1.377 . S
C833 C834 1.379 . S
C834 H818 0.931 . S
C834 C828 1.383 . S
C834 C833 1.379 . S
H835 C829 0.959 . S
H836 C829 0.961 . S
H837 C829 0.960 . S
H838 C830 0.930 . S
H839 C831 0.929 . S
H840 C848 0.929 . S
H841 C850 0.930 . S
H842 C852 0.930 . S
H843 C855 0.929 . S
H844 C858 0.930 . S
H845 C860 0.960 . S
H846 C860 0.960 . S
H847 C860 0.960 . S
C848 H840 0.929 . S
C848 C849 1.377 . S
C848 C850 1.384 . S
C849 C848 1.377 . S
C849 C855 1.390 . S
C850 H841 0.930 . S
C850 C848 1.384 . S
C850 C851 1.372 . S
C851 C850 1.372 . S
C851 C852 1.400 . S
C851 C856 1.490 . S
C852 H842 0.930 . S
C852 C851 1.400 . S
C852 C855 1.386 . S
H853 C869 0.930 . S
H854 C870 0.931 . S
C855 H843 0.929 . S
C855 C849 1.390 . S
C855 C852 1.386 . S
C856 C851 1.490 . S
C856 C858 1.395 . S
C856 C859 1.403 . S
H857 C863 0.930 . S
C858 H844 0.930 . S
C858 C856 1.395 . S
C858 C861 1.403 . S
C859 C856 1.403 . S
C859 C860 1.524 . S
C859 C863 1.400 . S
C860 H845 0.960 . S
C860 H846 0.960 . S
C860 H847 0.960 . S
C860 C859 1.524 . S
C861 C858 1.403 . S
C861 C862 1.392 . S
C861 C865 1.495 . S
C862 C861 1.392 . S
C862 C863 1.385 . S
C862 C864 1.478 . S
C863 H857 0.930 . S
C863 C859 1.400 . S
C863 C862 1.385 . S
C864 C862 1.478 . S
C864 C866 1.381 . S
C864 C870 1.383 . S
C865 C861 1.495 . S
C865 H871 0.959 . S
C865 H872 0.961 . S
C865 H873 0.960 . S
C866 C864 1.381 . S
C866 C867 1.394 . S
C866 H874 0.930 . S
C867 C866 1.394 . S
C867 C868 1.383 . S
C867 H875 0.929 . S
C868 C867 1.383 . S
C868 C869 1.377 . S
C869 H853 0.930 . S
C869 C868 1.377 . S
C869 C870 1.379 . S
C870 H854 0.931 . S
C870 C864 1.383 . S
C870 C869 1.379 . S
H871 C865 0.959 . S
H872 C865 0.961 . S
H873 C865 0.960 . S
H874 C866 0.930 . S
H875 C867 0.929 . S
H876 C884 0.929 . S
H877 C886 0.930 . S
H878 C888 0.930 . S
H879 C891 0.929 . S
H880 C894 0.930 . S
H881 C896 0.960 . S
H882 C896 0.960 . S
H883 C896 0.960 . S
C884 H876 0.929 . S
C884 C885 1.377 . S
C884 C886 1.384 . S
C885 C884 1.377 . S
C885 C891 1.390 . S
C886 H877 0.930 . S
C886 C884 1.384 . S
C886 C887 1.372 . S
C887 C886 1.372 . S
C887 C888 1.400 . S
C887 C892 1.490 . S
C888 H878 0.930 . S
C888 C887 1.400 . S
C888 C891 1.386 . S
H889 C905 0.930 . S
H890 C906 0.931 . S
C891 H879 0.929 . S
C891 C885 1.390 . S
C891 C888 1.386 . S
C892 C887 1.490 . S
C892 C894 1.395 . S
C892 C895 1.403 . S
H893 C899 0.930 . S
C894 H880 0.930 . S
C894 C892 1.395 . S
C894 C897 1.403 . S
C895 C892 1.403 . S
C895 C896 1.524 . S
C895 C899 1.400 . S
C896 H881 0.960 . S
C896 H882 0.960 . S
C896 H883 0.960 . S
C896 C895 1.524 . S
C897 C894 1.403 . S
C897 C898 1.392 . S
C897 C901 1.495 . S
C898 C897 1.392 . S
C898 C899 1.385 . S
C898 C900 1.478 . S
C899 H893 0.930 . S
C899 C895 1.400 . S
C899 C898 1.385 . S
C900 C898 1.478 . S
C900 C902 1.381 . S
C900 C906 1.383 . S
C901 C897 1.495 . S
C901 H907 0.959 . S
C901 H908 0.961 . S
C901 H909 0.960 . S
C902 C900 1.381 . S
C902 C903 1.394 . S
C902 H910 0.930 . S
C903 C902 1.394 . S
C903 C904 1.383 . S
C903 H911 0.929 . S
C904 C903 1.383 . S
C904 C905 1.377 . S
C905 H889 0.930 . S
C905 C904 1.377 . S
C905 C906 1.379 . S
C906 H890 0.931 . S
C906 C900 1.383 . S
C906 C905 1.379 . S
H907 C901 0.959 . S
H908 C901 0.961 . S
H909 C901 0.960 . S
H910 C902 0.930 . S
H911 C903 0.929 . S
H912 C920 0.929 . S
H913 C922 0.930 . S
H914 C924 0.930 . S
H915 C927 0.929 . S
H916 C930 0.930 . S
H917 C932 0.960 . S
H918 C932 0.960 . S
H919 C932 0.960 . S
C920 H912 0.929 . S
C920 C921 1.377 . S
C920 C922 1.384 . S
C921 C920 1.377 . S
C921 C927 1.390 . S
C922 H913 0.930 . S
C922 C920 1.384 . S
C922 C923 1.372 . S
C923 C922 1.372 . S
C923 C924 1.400 . S
C923 C928 1.490 . S
C924 H914 0.930 . S
C924 C923 1.400 . S
C924 C927 1.386 . S
H925 C941 0.930 . S
H926 C942 0.931 . S
C927 H915 0.929 . S
C927 C921 1.390 . S
C927 C924 1.386 . S
C928 C923 1.490 . S
C928 C930 1.395 . S
C928 C931 1.403 . S
H929 C935 0.930 . S
C930 H916 0.930 . S
C930 C928 1.395 . S
C930 C933 1.403 . S
C931 C928 1.403 . S
C931 C932 1.524 . S
C931 C935 1.400 . S
C932 H917 0.960 . S
C932 H918 0.960 . S
C932 H919 0.960 . S
C932 C931 1.524 . S
C933 C930 1.403 . S
C933 C934 1.392 . S
C933 C937 1.495 . S
C934 C933 1.392 . S
C934 C935 1.385 . S
C934 C936 1.478 . S
C935 H929 0.930 . S
C935 C931 1.400 . S
C935 C934 1.385 . S
C936 C934 1.478 . S
C936 C938 1.381 . S
C936 C942 1.383 . S
C937 C933 1.495 . S
C937 H943 0.959 . S
C937 H944 0.961 . S
C937 H945 0.960 . S
C938 C936 1.381 . S
C938 C939 1.394 . S
C938 H946 0.930 . S
C939 C938 1.394 . S
C939 C940 1.383 . S
C939 H947 0.929 . S
C940 C939 1.383 . S
C940 C941 1.377 . S
C941 H925 0.930 . S
C941 C940 1.377 . S
C941 C942 1.379 . S
C942 H926 0.931 . S
C942 C936 1.383 . S
C942 C941 1.379 . S
H943 C937 0.959 . S
H944 C937 0.961 . S
H945 C937 0.960 . S
H946 C938 0.930 . S
H947 C939 0.929 . S
H948 C956 0.929 . S
H949 C958 0.930 . S
H950 C960 0.930 . S
H951 C963 0.929 . S
H952 C966 0.930 . S
H953 C968 0.960 . S
H954 C968 0.960 . S
H955 C968 0.960 . S
C956 H948 0.929 . S
C956 C957 1.377 . S
C956 C958 1.384 . S
C957 C956 1.377 . S
C957 C963 1.390 . S
C958 H949 0.930 . S
C958 C956 1.384 . S
C958 C959 1.372 . S
C959 C958 1.372 . S
C959 C960 1.400 . S
C959 C964 1.490 . S
C960 H950 0.930 . S
C960 C959 1.400 . S
C960 C963 1.386 . S
H961 C977 0.930 . S
H962 C978 0.931 . S
C963 H951 0.929 . S
C963 C957 1.390 . S
C963 C960 1.386 . S
C964 C959 1.490 . S
C964 C966 1.395 . S
C964 C967 1.403 . S
H965 C971 0.930 . S
C966 H952 0.930 . S
C966 C964 1.395 . S
C966 C969 1.403 . S
C967 C964 1.403 . S
C967 C968 1.524 . S
C967 C971 1.400 . S
C968 H953 0.960 . S
C968 H954 0.960 . S
C968 H955 0.960 . S
C968 C967 1.524 . S
C969 C966 1.403 . S
C969 C970 1.392 . S
C969 C973 1.495 . S
C970 C969 1.392 . S
C970 C971 1.385 . S
C970 C972 1.478 . S
C971 H965 0.930 . S
C971 C967 1.400 . S
C971 C970 1.385 . S
C972 C970 1.478 . S
C972 C974 1.381 . S
C972 C978 1.383 . S
C973 C969 1.495 . S
C973 H979 0.959 . S
C973 H980 0.961 . S
C973 H981 0.960 . S
C974 C972 1.381 . S
C974 C975 1.394 . S
C974 H982 0.930 . S
C975 C974 1.394 . S
C975 C976 1.383 . S
C975 H983 0.929 . S
C976 C975 1.383 . S
C976 C977 1.377 . S
C977 H961 0.930 . S
C977 C976 1.377 . S
C977 C978 1.379 . S
C978 H962 0.931 . S
C978 C972 1.383 . S
C978 C977 1.379 . S
H979 C973 0.959 . S
H980 C973 0.961 . S
H981 C973 0.960 . S
H982 C974 0.930 . S
H983 C975 0.929 . S
H984 C992 0.929 . S
H985 C994 0.930 . S
H986 C996 0.930 . S
H987 C999 0.929 . S
H988 C1002 0.930 . S
H989 C1004 0.960 . S
H990 C1004 0.960 . S
H991 C1004 0.960 . S
C992 H984 0.929 . S
C992 C993 1.377 . S
C992 C994 1.384 . S
C993 C992 1.377 . S
C993 C999 1.390 . S
C994 H985 0.930 . S
C994 C992 1.384 . S
C994 C995 1.372 . S
C995 C994 1.372 . S
C995 C996 1.400 . S
C995 C1000 1.490 . S
C996 H986 0.930 . S
C996 C995 1.400 . S
C996 C999 1.386 . S
H997 C1013 0.930 . S
H998 C1014 0.931 . S
C999 H987 0.929 . S
C999 C993 1.390 . S
C999 C996 1.386 . S
C1000 C995 1.490 . S
C1000 C1002 1.395 . S
C1000 C1003 1.403 . S
H1001 C1007 0.930 . S
C1002 H988 0.930 . S
C1002 C1000 1.395 . S
C1002 C1005 1.403 . S
C1003 C1000 1.403 . S
C1003 C1004 1.524 . S
C1003 C1007 1.400 . S
C1004 H989 0.960 . S
C1004 H990 0.960 . S
C1004 H991 0.960 . S
C1004 C1003 1.524 . S
C1005 C1002 1.403 . S
C1005 C1006 1.392 . S
C1005 C1009 1.495 . S
C1006 C1005 1.392 . S
C1006 C1007 1.385 . S
C1006 C1008 1.478 . S
C1007 H1001 0.930 . S
C1007 C1003 1.400 . S
C1007 C1006 1.385 . S
C1008 C1006 1.478 . S
C1008 C1010 1.381 . S
C1008 C1014 1.383 . S
C1009 C1005 1.495 . S
C1009 H1015 0.959 . S
C1009 H1016 0.961 . S
C1009 H1017 0.960 . S
C1010 C1008 1.381 . S
C1010 C1011 1.394 . S
C1010 H1018 0.930 . S
C1011 C1010 1.394 . S
C1011 C1012 1.383 . S
C1011 H1019 0.929 . S
C1012 C1011 1.383 . S
C1012 C1013 1.377 . S
C1013 H997 0.930 . S
C1013 C1012 1.377 . S
C1013 C1014 1.379 . S
C1014 H998 0.931 . S
C1014 C1008 1.383 . S
C1014 C1013 1.379 . S
H1015 C1009 0.959 . S
H1016 C1009 0.961 . S
H1017 C1009 0.960 . S
H1018 C1010 0.930 . S
H1019 C1011 0.929 . S
H1020 C1028 0.929 . S
H1021 C1030 0.930 . S
H1022 C1032 0.930 . S
H1023 C1035 0.929 . S
H1024 C1038 0.930 . S
H1025 C1040 0.960 . S
H1026 C1040 0.960 . S
H1027 C1040 0.960 . S
C1028 H1020 0.929 . S
C1028 C1029 1.377 . S
C1028 C1030 1.384 . S
C1029 C1028 1.377 . S
C1029 C1035 1.390 . S
C1030 H1021 0.930 . S
C1030 C1028 1.384 . S
C1030 C1031 1.372 . S
C1031 C1030 1.372 . S
C1031 C1032 1.400 . S
C1031 C1036 1.490 . S
C1032 H1022 0.930 . S
C1032 C1031 1.400 . S
C1032 C1035 1.386 . S
H1033 C1049 0.930 . S
H1034 C1050 0.931 . S
C1035 H1023 0.929 . S
C1035 C1029 1.390 . S
C1035 C1032 1.386 . S
C1036 C1031 1.490 . S
C1036 C1038 1.395 . S
C1036 C1039 1.403 . S
H1037 C1043 0.930 . S
C1038 H1024 0.930 . S
C1038 C1036 1.395 . S
C1038 C1041 1.403 . S
C1039 C1036 1.403 . S
C1039 C1040 1.524 . S
C1039 C1043 1.400 . S
C1040 H1025 0.960 . S
C1040 H1026 0.960 . S
C1040 H1027 0.960 . S
C1040 C1039 1.524 . S
C1041 C1038 1.403 . S
C1041 C1042 1.392 . S
C1041 C1045 1.495 . S
C1042 C1041 1.392 . S
C1042 C1043 1.385 . S
C1042 C1044 1.478 . S
C1043 H1037 0.930 . S
C1043 C1039 1.400 . S
C1043 C1042 1.385 . S
C1044 C1042 1.478 . S
C1044 C1046 1.381 . S
C1044 C1050 1.383 . S
C1045 C1041 1.495 . S
C1045 H1051 0.959 . S
C1045 H1052 0.961 . S
C1045 H1053 0.960 . S
C1046 C1044 1.381 . S
C1046 C1047 1.394 . S
C1046 H1054 0.930 . S
C1047 C1046 1.394 . S
C1047 C1048 1.383 . S
C1047 H1055 0.929 . S
C1048 C1047 1.383 . S
C1048 C1049 1.377 . S
C1049 H1033 0.930 . S
C1049 C1048 1.377 . S
C1049 C1050 1.379 . S
C1050 H1034 0.931 . S
C1050 C1044 1.383 . S
C1050 C1049 1.379 . S
H1051 C1045 0.959 . S
H1052 C1045 0.961 . S
H1053 C1045 0.960 . S
H1054 C1046 0.930 . S
H1055 C1047 0.929 . S
H1056 C1064 0.929 . S
H1057 C1066 0.930 . S
H1058 C1068 0.930 . S
H1059 C1071 0.929 . S
H1060 C1074 0.930 . S
H1061 C1076 0.960 . S
H1062 C1076 0.960 . S
H1063 C1076 0.960 . S
C1064 H1056 0.929 . S
C1064 C1065 1.377 . S
C1064 C1066 1.384 . S
C1065 C1064 1.377 . S
C1065 C1071 1.390 . S
C1066 H1057 0.930 . S
C1066 C1064 1.384 . S
C1066 C1067 1.372 . S
C1067 C1066 1.372 . S
C1067 C1068 1.400 . S
C1067 C1072 1.490 . S
C1068 H1058 0.930 . S
C1068 C1067 1.400 . S
C1068 C1071 1.386 . S
H1069 C1085 0.930 . S
H1070 C1086 0.931 . S
C1071 H1059 0.929 . S
C1071 C1065 1.390 . S
C1071 C1068 1.386 . S
C1072 C1067 1.490 . S
C1072 C1074 1.395 . S
C1072 C1075 1.403 . S
H1073 C1079 0.930 . S
C1074 H1060 0.930 . S
C1074 C1072 1.395 . S
C1074 C1077 1.403 . S
C1075 C1072 1.403 . S
C1075 C1076 1.524 . S
C1075 C1079 1.400 . S
C1076 H1061 0.960 . S
C1076 H1062 0.960 . S
C1076 H1063 0.960 . S
C1076 C1075 1.524 . S
C1077 C1074 1.403 . S
C1077 C1078 1.392 . S
C1077 C1081 1.495 . S
C1078 C1077 1.392 . S
C1078 C1079 1.385 . S
C1078 C1080 1.478 . S
C1079 H1073 0.930 . S
C1079 C1075 1.400 . S
C1079 C1078 1.385 . S
C1080 C1078 1.478 . S
C1080 C1082 1.381 . S
C1080 C1086 1.383 . S
C1081 C1077 1.495 . S
C1081 H1087 0.959 . S
C1081 H1088 0.961 . S
C1081 H1089 0.960 . S
C1082 C1080 1.381 . S
C1082 C1083 1.394 . S
C1082 H1090 0.930 . S
C1083 C1082 1.394 . S
C1083 C1084 1.383 . S
C1083 H1091 0.929 . S
C1084 C1083 1.383 . S
C1084 C1085 1.377 . S
C1085 H1069 0.930 . S
C1085 C1084 1.377 . S
C1085 C1086 1.379 . S
C1086 H1070 0.931 . S
C1086 C1080 1.383 . S
C1086 C1085 1.379 . S
H1087 C1081 0.959 . S
H1088 C1081 0.961 . S
H1089 C1081 0.960 . S
H1090 C1082 0.930 . S
H1091 C1083 0.929 . S
H1092 C1100 0.929 . S
H1093 C1102 0.930 . S
H1094 C1104 0.930 . S
H1095 C1107 0.929 . S
H1096 C1110 0.930 . S
H1097 C1112 0.960 . S
H1098 C1112 0.960 . S
H1099 C1112 0.960 . S
C1100 H1092 0.929 . S
C1100 C1101 1.377 . S
C1100 C1102 1.384 . S
C1101 C1100 1.377 . S
C1101 C1107 1.390 . S
C1102 H1093 0.930 . S
C1102 C1100 1.384 . S
C1102 C1103 1.372 . S
C1103 C1102 1.372 . S
C1103 C1104 1.400 . S
C1103 C1108 1.490 . S
C1104 H1094 0.930 . S
C1104 C1103 1.400 . S
C1104 C1107 1.386 . S
H1105 C1121 0.930 . S
H1106 C1122 0.931 . S
C1107 H1095 0.929 . S
C1107 C1101 1.390 . S
C1107 C1104 1.386 . S
C1108 C1103 1.490 . S
C1108 C1110 1.395 . S
C1108 C1111 1.403 . S
H1109 C1115 0.930 . S
C1110 H1096 0.930 . S
C1110 C1108 1.395 . S
C1110 C1113 1.403 . S
C1111 C1108 1.403 . S
C1111 C1112 1.524 . S
C1111 C1115 1.400 . S
C1112 H1097 0.960 . S
C1112 H1098 0.960 . S
C1112 H1099 0.960 . S
C1112 C1111 1.524 . S
C1113 C1110 1.403 . S
C1113 C1114 1.392 . S
C1113 C1117 1.495 . S
C1114 C1113 1.392 . S
C1114 C1115 1.385 . S
C1114 C1116 1.478 . S
C1115 H1109 0.930 . S
C1115 C1111 1.400 . S
C1115 C1114 1.385 . S
C1116 C1114 1.478 . S
C1116 C1118 1.381 . S
C1116 C1122 1.383 . S
C1117 C1113 1.495 . S
C1117 H1123 0.959 . S
C1117 H1124 0.961 . S
C1117 H1125 0.960 . S
C1118 C1116 1.381 . S
C1118 C1119 1.394 . S
C1118 H1126 0.930 . S
C1119 C1118 1.394 . S
C1119 C1120 1.383 . S
C1119 H1127 0.929 . S
C1120 C1119 1.383 . S
C1120 C1121 1.377 . S
C1121 H1105 0.930 . S
C1121 C1120 1.377 . S
C1121 C1122 1.379 . S
C1122 H1106 0.931 . S
C1122 C1116 1.383 . S
C1122 C1121 1.379 . S
H1123 C1117 0.959 . S
H1124 C1117 0.961 . S
H1125 C1117 0.960 . S
H1126 C1118 0.930 . S
H1127 C1119 0.929 . S
H1128 C1136 0.929 . S
H1129 C1138 0.930 . S
H1130 C1140 0.930 . S
H1131 C1143 0.929 . S
H1132 C1146 0.930 . S
H1133 C1148 0.960 . S
H1134 C1148 0.960 . S
H1135 C1148 0.960 . S
C1136 H1128 0.929 . S
C1136 C1137 1.377 . S
C1136 C1138 1.384 . S
C1137 C1136 1.377 . S
C1137 C1143 1.390 . S
C1138 H1129 0.930 . S
C1138 C1136 1.384 . S
C1138 C1139 1.372 . S
C1139 C1138 1.372 . S
C1139 C1140 1.400 . S
C1139 C1144 1.490 . S
C1140 H1130 0.930 . S
C1140 C1139 1.400 . S
C1140 C1143 1.386 . S
H1141 C1157 0.930 . S
H1142 C1158 0.931 . S
C1143 H1131 0.929 . S
C1143 C1137 1.390 . S
C1143 C1140 1.386 . S
C1144 C1139 1.490 . S
C1144 C1146 1.395 . S
C1144 C1147 1.403 . S
H1145 C1151 0.930 . S
C1146 H1132 0.930 . S
C1146 C1144 1.395 . S
C1146 C1149 1.403 . S
C1147 C1144 1.403 . S
C1147 C1148 1.524 . S
C1147 C1151 1.400 . S
C1148 H1133 0.960 . S
C1148 H1134 0.960 . S
C1148 H1135 0.960 . S
C1148 C1147 1.524 . S
C1149 C1146 1.403 . S
C1149 C1150 1.392 . S
C1149 C1153 1.495 . S
C1150 C1149 1.392 . S
C1150 C1151 1.385 . S
C1150 C1152 1.478 . S
C1151 H1145 0.930 . S
C1151 C1147 1.400 . S
C1151 C1150 1.385 . S
C1152 C1150 1.478 . S
C1152 C1154 1.381 . S
C1152 C1158 1.383 . S
C1153 C1149 1.495 . S
C1153 H1159 0.959 . S
C1153 H1160 0.961 . S
C1153 H1161 0.960 . S
C1154 C1152 1.381 . S
C1154 C1155 1.394 . S
C1154 H1162 0.930 . S
C1155 C1154 1.394 . S
C1155 C1156 1.383 . S
C1155 H1163 0.929 . S
C1156 C1155 1.383 . S
C1156 C1157 1.377 . S
C1157 H1141 0.930 . S
C1157 C1156 1.377 . S
C1157 C1158 1.379 . S
C1158 H1142 0.931 . S
C1158 C1152 1.383 . S
C1158 C1157 1.379 . S
H1159 C1153 0.959 . S
H1160 C1153 0.961 . S
H1161 C1153 0.960 . S
H1162 C1154 0.930 . S
H1163 C1155 0.929 . S
H1164 C1172 0.929 . S
H1165 C1174 0.930 . S
H1166 C1176 0.930 . S
H1167 C1179 0.929 . S
H1168 C1182 0.930 . S
H1169 C1184 0.960 . S
H1170 C1184 0.960 . S
H1171 C1184 0.960 . S
C1172 H1164 0.929 . S
C1172 C1173 1.377 . S
C1172 C1174 1.384 . S
C1173 C1172 1.377 . S
C1173 C1179 1.390 . S
C1174 H1165 0.930 . S
C1174 C1172 1.384 . S
C1174 C1175 1.372 . S
C1175 C1174 1.372 . S
C1175 C1176 1.400 . S
C1175 C1180 1.490 . S
C1176 H1166 0.930 . S
C1176 C1175 1.400 . S
C1176 C1179 1.386 . S
H1177 C1193 0.930 . S
H1178 C1194 0.931 . S
C1179 H1167 0.929 . S
C1179 C1173 1.390 . S
C1179 C1176 1.386 . S
C1180 C1175 1.490 . S
C1180 C1182 1.395 . S
C1180 C1183 1.403 . S
H1181 C1187 0.930 . S
C1182 H1168 0.930 . S
C1182 C1180 1.395 . S
C1182 C1185 1.403 . S
C1183 C1180 1.403 . S
C1183 C1184 1.524 . S
C1183 C1187 1.400 . S
C1184 H1169 0.960 . S
C1184 H1170 0.960 . S
C1184 H1171 0.960 . S
C1184 C1183 1.524 . S
C1185 C1182 1.403 . S
C1185 C1186 1.392 . S
C1185 C1189 1.495 . S
C1186 C1185 1.392 . S
C1186 C1187 1.385 . S
C1186 C1188 1.478 . S
C1187 H1181 0.930 . S
C1187 C1183 1.400 . S
C1187 C1186 1.385 . S
C1188 C1186 1.478 . S
C1188 C1190 1.381 . S
C1188 C1194 1.383 . S
C1189 C1185 1.495 . S
C1189 H1195 0.959 . S
C1189 H1196 0.961 . S
C1189 H1197 0.960 . S
C1190 C1188 1.381 . S
C1190 C1191 1.394 . S
C1190 H1198 0.930 . S
C1191 C1190 1.394 . S
C1191 C1192 1.383 . S
C1191 H1199 0.929 . S
C1192 C1191 1.383 . S
C1192 C1193 1.377 . S
C1193 H1177 0.930 . S
C1193 C1192 1.377 . S
C1193 C1194 1.379 . S
C1194 H1178 0.931 . S
C1194 C1188 1.383 . S
C1194 C1193 1.379 . S
H1195 C1189 0.959 . S
H1196 C1189 0.961 . S
H1197 C1189 0.960 . S
H1198 C1190 0.930 . S
H1199 C1191 0.929 . S
H1200 C1208 0.929 . S
H1201 C1210 0.930 . S
H1202 C1212 0.930 . S
H1203 C1215 0.929 . S
H1204 C1218 0.930 . S
H1205 C1220 0.960 . S
H1206 C1220 0.960 . S
H1207 C1220 0.960 . S
C1208 H1200 0.929 . S
C1208 C1209 1.377 . S
C1208 C1210 1.384 . S
C1209 C1208 1.377 . S
C1209 C1215 1.390 . S
C1210 H1201 0.930 . S
C1210 C1208 1.384 . S
C1210 C1211 1.372 . S
C1211 C1210 1.372 . S
C1211 C1212 1.400 . S
C1211 C1216 1.490 . S
C1212 H1202 0.930 . S
C1212 C1211 1.400 . S
C1212 C1215 1.386 . S
H1213 C1229 0.930 . S
H1214 C1230 0.931 . S
C1215 H1203 0.929 . S
C1215 C1209 1.390 . S
C1215 C1212 1.386 . S
C1216 C1211 1.490 . S
C1216 C1218 1.395 . S
C1216 C1219 1.403 . S
H1217 C1223 0.930 . S
C1218 H1204 0.930 . S
C1218 C1216 1.395 . S
C1218 C1221 1.403 . S
C1219 C1216 1.403 . S
C1219 C1220 1.524 . S
C1219 C1223 1.400 . S
C1220 H1205 0.960 . S
C1220 H1206 0.960 . S
C1220 H1207 0.960 . S
C1220 C1219 1.524 . S
C1221 C1218 1.403 . S
C1221 C1222 1.392 . S
C1221 C1225 1.495 . S
C1222 C1221 1.392 . S
C1222 C1223 1.385 . S
C1222 C1224 1.478 . S
C1223 H1217 0.930 . S
C1223 C1219 1.400 . S
C1223 C1222 1.385 . S
C1224 C1222 1.478 . S
C1224 C1226 1.381 . S
C1224 C1230 1.383 . S
C1225 C1221 1.495 . S
C1225 H1231 0.959 . S
C1225 H1232 0.961 . S
C1225 H1233 0.960 . S
C1226 C1224 1.381 . S
C1226 C1227 1.394 . S
C1226 H1234 0.930 . S
C1227 C1226 1.394 . S
C1227 C1228 1.383 . S
C1227 H1235 0.929 . S
C1228 C1227 1.383 . S
C1228 C1229 1.377 . S
C1229 H1213 0.930 . S
C1229 C1228 1.377 . S
C1229 C1230 1.379 . S
C1230 H1214 0.931 . S
C1230 C1224 1.383 . S
C1230 C1229 1.379 . S
H1231 C1225 0.959 . S
H1232 C1225 0.961 . S
H1233 C1225 0.960 . S
H1234 C1226 0.930 . S
H1235 C1227 0.929 . S
H1236 C1244 0.929 . S
H1237 C1246 0.930 . S
H1238 C1248 0.930 . S
H1239 C1251 0.929 . S
H1240 C1254 0.930 . S
H1241 C1256 0.960 . S
H1242 C1256 0.960 . S
H1243 C1256 0.960 . S
C1244 H1236 0.929 . S
C1244 C1245 1.377 . S
C1244 C1246 1.384 . S
C1245 C1244 1.377 . S
C1245 C1251 1.390 . S
C1246 H1237 0.930 . S
C1246 C1244 1.384 . S
C1246 C1247 1.372 . S
C1247 C1246 1.372 . S
C1247 C1248 1.400 . S
C1247 C1252 1.490 1_554 S
C1248 H1238 0.930 . S
C1248 C1247 1.400 . S
C1248 C1251 1.386 . S
H1249 C1265 0.930 . S
H1250 C1266 0.931 . S
C1251 H1239 0.929 . S
C1251 C1245 1.390 . S
C1251 C1248 1.386 . S
C1252 C1247 1.490 1_556 S
C1252 C1254 1.395 . S
C1252 C1255 1.403 . S
H1253 C1259 0.930 . S
C1254 H1240 0.930 . S
C1254 C1252 1.395 . S
C1254 C1257 1.403 . S
C1255 C1252 1.403 . S
C1255 C1256 1.524 . S
C1255 C1259 1.400 . S
C1256 H1241 0.960 . S
C1256 H1242 0.960 . S
C1256 H1243 0.960 . S
C1256 C1255 1.524 . S
C1257 C1254 1.403 . S
C1257 C1258 1.392 . S
C1257 C1261 1.495 . S
C1258 C1257 1.392 . S
C1258 C1259 1.385 . S
C1258 C1260 1.478 . S
C1259 H1253 0.930 . S
C1259 C1255 1.400 . S
C1259 C1258 1.385 . S
C1260 C1258 1.478 . S
C1260 C1262 1.381 . S
C1260 C1266 1.383 . S
C1261 C1257 1.495 . S
C1261 H1267 0.959 . S
C1261 H1268 0.961 . S
C1261 H1269 0.960 . S
C1262 C1260 1.381 . S
C1262 C1263 1.394 . S
C1262 H1270 0.930 . S
C1263 C1262 1.394 . S
C1263 C1264 1.383 . S
C1263 H1271 0.929 . S
C1264 C1263 1.383 . S
C1264 C1265 1.377 . S
C1265 H1249 0.930 . S
C1265 C1264 1.377 . S
C1265 C1266 1.379 . S
C1266 H1250 0.931 . S
C1266 C1260 1.383 . S
C1266 C1265 1.379 . S
H1267 C1261 0.959 . S
H1268 C1261 0.961 . S
H1269 C1261 0.960 . S
H1270 C1262 0.930 . S
H1271 C1263 0.929 . S
H1272 C1280 0.929 . S
H1273 C1282 0.930 . S
H1274 C1284 0.930 . S
H1275 C1287 0.929 . S
H1276 C1290 0.930 . S
H1277 C1292 0.960 . S
H1278 C1292 0.960 . S
H1279 C1292 0.960 . S
C1280 H1272 0.929 . S
C1280 C1281 1.377 . S
C1280 C1282 1.384 . S
C1281 C1280 1.377 . S
C1281 C1287 1.390 . S
C1282 H1273 0.930 . S
C1282 C1280 1.384 . S
C1282 C1283 1.372 . S
C1283 C1282 1.372 . S
C1283 C1284 1.400 . S
C1283 C1288 1.490 . S
C1284 H1274 0.930 . S
C1284 C1283 1.400 . S
C1284 C1287 1.386 . S
H1285 C1301 0.930 . S
H1286 C1302 0.931 . S
C1287 H1275 0.929 . S
C1287 C1281 1.390 . S
C1287 C1284 1.386 . S
C1288 C1283 1.490 . S
C1288 C1290 1.395 . S
C1288 C1291 1.403 . S
H1289 C1295 0.930 . S
C1290 H1276 0.930 . S
C1290 C1288 1.395 . S
C1290 C1293 1.403 . S
C1291 C1288 1.403 . S
C1291 C1292 1.524 . S
C1291 C1295 1.400 . S
C1292 H1277 0.960 . S
C1292 H1278 0.960 . S
C1292 H1279 0.960 . S
C1292 C1291 1.524 . S
C1293 C1290 1.403 . S
C1293 C1294 1.392 . S
C1293 C1297 1.495 . S
C1294 C1293 1.392 . S
C1294 C1295 1.385 . S
C1294 C1296 1.478 . S
C1295 H1289 0.930 . S
C1295 C1291 1.400 . S
C1295 C1294 1.385 . S
C1296 C1294 1.478 . S
C1296 C1298 1.381 . S
C1296 C1302 1.383 . S
C1297 C1293 1.495 . S
C1297 H1303 0.959 . S
C1297 H1304 0.961 . S
C1297 H1305 0.960 . S
C1298 C1296 1.381 . S
C1298 C1299 1.394 . S
C1298 H1306 0.930 . S
C1299 C1298 1.394 . S
C1299 C1300 1.383 . S
C1299 H1307 0.929 . S
C1300 C1299 1.383 . S
C1300 C1301 1.377 . S
C1301 H1285 0.930 . S
C1301 C1300 1.377 . S
C1301 C1302 1.379 . S
C1302 H1286 0.931 . S
C1302 C1296 1.383 . S
C1302 C1301 1.379 . S
H1303 C1297 0.959 . S
H1304 C1297 0.961 . S
H1305 C1297 0.960 . S
H1306 C1298 0.930 . S
H1307 C1299 0.929 . S
H1308 C1316 0.929 . S
H1309 C1318 0.930 . S
H1310 C1320 0.930 . S
H1311 C1323 0.929 . S
H1312 C1326 0.930 . S
H1313 C1328 0.960 . S
H1314 C1328 0.960 . S
H1315 C1328 0.960 . S
C1316 H1308 0.929 . S
C1316 C1317 1.377 . S
C1316 C1318 1.384 . S
C1317 C1316 1.377 . S
C1317 C1323 1.390 . S
C1318 H1309 0.930 . S
C1318 C1316 1.384 . S
C1318 C1319 1.372 . S
C1319 C1318 1.372 . S
C1319 C1320 1.400 . S
C1319 C1324 1.490 . S
C1320 H1310 0.930 . S
C1320 C1319 1.400 . S
C1320 C1323 1.386 . S
H1321 C1337 0.930 . S
H1322 C1338 0.931 . S
C1323 H1311 0.929 . S
C1323 C1317 1.390 . S
C1323 C1320 1.386 . S
C1324 C1319 1.490 . S
C1324 C1326 1.395 . S
C1324 C1327 1.403 . S
H1325 C1331 0.930 . S
C1326 H1312 0.930 . S
C1326 C1324 1.395 . S
C1326 C1329 1.403 . S
C1327 C1324 1.403 . S
C1327 C1328 1.524 . S
C1327 C1331 1.400 . S
C1328 H1313 0.960 . S
C1328 H1314 0.960 . S
C1328 H1315 0.960 . S
C1328 C1327 1.524 . S
C1329 C1326 1.403 . S
C1329 C1330 1.392 . S
C1329 C1333 1.495 . S
C1330 C1329 1.392 . S
C1330 C1331 1.385 . S
C1330 C1332 1.478 1_554 S
C1331 H1325 0.930 . S
C1331 C1327 1.400 . S
C1331 C1330 1.385 . S
C1332 C1330 1.478 1_556 S
C1332 C1334 1.381 . S
C1332 C1338 1.383 . S
C1333 C1329 1.495 . S
C1333 H1339 0.959 . S
C1333 H1340 0.961 1_554 S
C1333 H1341 0.960 1_554 S
C1334 C1332 1.381 . S
C1334 C1335 1.394 . S
C1334 H1342 0.930 . S
C1335 C1334 1.394 . S
C1335 C1336 1.383 . S
C1335 H1343 0.929 . S
C1336 C1335 1.383 . S
C1336 C1337 1.377 . S
C1337 H1321 0.930 . S
C1337 C1336 1.377 . S
C1337 C1338 1.379 . S
C1338 H1322 0.931 . S
C1338 C1332 1.383 . S
C1338 C1337 1.379 . S
H1339 C1333 0.959 . S
H1340 C1333 0.961 1_556 S
H1341 C1333 0.960 1_556 S
H1342 C1334 0.930 . S
H1343 C1335 0.929 . S
H1344 C1352 0.929 . S
H1345 C1354 0.930 . S
H1346 C1356 0.930 . S
H1347 C1359 0.929 . S
H1348 C1362 0.930 . S
H1349 C1364 0.960 . S
H1350 C1364 0.960 . S
H1351 C1364 0.960 . S
C1352 H1344 0.929 . S
C1352 C1353 1.377 . S
C1352 C1354 1.384 . S
C1353 C1352 1.377 . S
C1353 C1359 1.390 . S
C1354 H1345 0.930 . S
C1354 C1352 1.384 . S
C1354 C1355 1.372 . S
C1355 C1354 1.372 . S
C1355 C1356 1.400 . S
C1355 C1360 1.490 . S
C1356 H1346 0.930 . S
C1356 C1355 1.400 . S
C1356 C1359 1.386 . S
H1357 C1373 0.930 . S
H1358 C1374 0.931 . S
C1359 H1347 0.929 . S
C1359 C1353 1.390 . S
C1359 C1356 1.386 . S
C1360 C1355 1.490 . S
C1360 C1362 1.395 . S
C1360 C1363 1.403 . S
H1361 C1367 0.930 . S
C1362 H1348 0.930 . S
C1362 C1360 1.395 . S
C1362 C1365 1.403 . S
C1363 C1360 1.403 . S
C1363 C1364 1.524 . S
C1363 C1367 1.400 . S
C1364 H1349 0.960 . S
C1364 H1350 0.960 . S
C1364 H1351 0.960 . S
C1364 C1363 1.524 . S
C1365 C1362 1.403 . S
C1365 C1366 1.392 . S
C1365 C1369 1.495 . S
C1366 C1365 1.392 . S
C1366 C1367 1.385 . S
C1366 C1368 1.478 . S
C1367 H1361 0.930 . S
C1367 C1363 1.400 . S
C1367 C1366 1.385 . S
C1368 C1366 1.478 . S
C1368 C1370 1.381 . S
C1368 C1374 1.383 . S
C1369 C1365 1.495 . S
C1369 H1375 0.959 . S
C1369 H1376 0.961 . S
C1369 H1377 0.960 . S
C1370 C1368 1.381 . S
C1370 C1371 1.394 . S
C1370 H1378 0.930 . S
C1371 C1370 1.394 . S
C1371 C1372 1.383 . S
C1371 H1379 0.929 . S
C1372 C1371 1.383 . S
C1372 C1373 1.377 . S
C1373 H1357 0.930 . S
C1373 C1372 1.377 . S
C1373 C1374 1.379 . S
C1374 H1358 0.931 . S
C1374 C1368 1.383 . S
C1374 C1373 1.379 . S
H1375 C1369 0.959 . S
H1376 C1369 0.961 . S
H1377 C1369 0.960 . S
H1378 C1370 0.930 . S
H1379 C1371 0.929 . S
H1380 C1388 0.929 . S
H1381 C1390 0.930 . S
H1382 C1392 0.930 . S
H1383 C1395 0.929 . S
H1384 C1398 0.930 . S
H1385 C1400 0.975 . S
H1386 C1400 0.950 1_655 S
H1387 C1400 0.939 1_655 S
C1388 H1380 0.929 . S
C1388 C1389 1.377 . S
C1388 C1390 1.384 . S
C1389 C1388 1.377 . S
C1389 C1395 1.390 . S
C1390 H1381 0.930 . S
C1390 C1388 1.384 . S
C1390 C1391 1.372 . S
C1391 C1390 1.372 . S
C1391 C1392 1.400 . S
C1391 C1396 1.490 1_655 S
C1392 H1382 0.930 . S
C1392 C1391 1.400 . S
C1392 C1395 1.386 . S
H1393 C1409 0.930 . S
H1394 C1410 0.931 . S
C1395 H1383 0.929 . S
C1395 C1389 1.390 . S
C1395 C1392 1.386 . S
C1396 C1391 1.490 1_455 S
C1396 C1398 1.395 . S
C1396 C1399 1.403 . S
H1397 C1403 0.930 . S
C1398 H1384 0.930 . S
C1398 C1396 1.395 . S
C1398 C1401 1.403 . S
C1399 C1396 1.403 . S
C1399 C1400 1.540 . S
C1399 C1403 1.400 . S
C1400 H1385 0.975 . S
C1400 H1386 0.950 1_455 S
C1400 H1387 0.939 1_455 S
C1400 C1399 1.540 . S
C1401 C1398 1.403 . S
C1401 C1402 1.392 . S
C1401 C1405 1.495 . S
C1402 C1401 1.392 . S
C1402 C1403 1.385 . S
C1402 C1404 1.478 . S
C1403 H1397 0.930 . S
C1403 C1399 1.400 . S
C1403 C1402 1.385 . S
C1404 C1402 1.478 . S
C1404 C1406 1.381 . S
C1404 C1410 1.383 . S
C1405 C1401 1.495 . S
C1405 H1411 0.959 . S
C1405 H1412 0.961 . S
C1405 H1413 0.960 . S
C1406 C1404 1.381 . S
C1406 C1407 1.394 . S
C1406 H1414 0.930 . S
C1407 C1406 1.394 . S
C1407 C1408 1.383 . S
C1407 H1415 0.929 . S
C1408 C1407 1.383 . S
C1408 C1409 1.377 . S
C1409 H1393 0.930 . S
C1409 C1408 1.377 . S
C1409 C1410 1.379 . S
C1410 H1394 0.931 . S
C1410 C1404 1.383 . S
C1410 C1409 1.379 . S
H1411 C1405 0.959 . S
H1412 C1405 0.961 . S
H1413 C1405 0.960 . S
H1414 C1406 0.930 . S
H1415 C1407 0.929 . S
H1416 C1424 0.929 . S
H1417 C1426 0.930 . S
H1418 C1428 0.930 . S
H1419 C1431 0.929 . S
H1420 C1434 0.930 . S
H1421 C1436 0.960 . S
H1422 C1436 0.960 . S
H1423 C1436 0.960 . S
C1424 H1416 0.929 . S
C1424 C1425 1.377 . S
C1424 C1426 1.384 . S
C1425 C1424 1.377 . S
C1425 C1431 1.390 . S
C1426 H1417 0.930 . S
C1426 C1424 1.384 . S
C1426 C1427 1.372 . S
C1427 C1426 1.372 . S
C1427 C1428 1.400 . S
C1427 C1432 1.490 1_455 S
C1428 H1418 0.930 . S
C1428 C1427 1.400 . S
C1428 C1431 1.386 . S
H1429 C1445 0.930 . S
H1430 C1446 0.931 . S
C1431 H1419 0.929 . S
C1431 C1425 1.390 . S
C1431 C1428 1.386 . S
C1432 C1427 1.490 1_655 S
C1432 C1434 1.395 . S
C1432 C1435 1.403 . S
H1433 C1439 0.930 . S
C1434 H1420 0.930 . S
C1434 C1432 1.395 . S
C1434 C1437 1.403 . S
C1435 C1432 1.403 . S
C1435 C1436 1.524 . S
C1435 C1439 1.400 . S
C1436 H1421 0.960 . S
C1436 H1422 0.960 . S
C1436 H1423 0.960 . S
C1436 C1435 1.524 . S
C1437 C1434 1.403 . S
C1437 C1438 1.392 . S
C1437 C1441 1.495 . S
C1438 C1437 1.392 . S
C1438 C1439 1.385 . S
C1438 C1440 1.478 . S
C1439 H1433 0.930 . S
C1439 C1435 1.400 . S
C1439 C1438 1.385 . S
C1440 C1438 1.478 . S
C1440 C1442 1.381 . S
C1440 C1446 1.383 . S
C1441 C1437 1.495 . S
C1441 H1447 0.959 . S
C1441 H1448 0.961 . S
C1441 H1449 0.960 . S
C1442 C1440 1.381 . S
C1442 C1443 1.394 . S
C1442 H1450 0.930 . S
C1443 C1442 1.394 . S
C1443 C1444 1.383 . S
C1443 H1451 0.929 . S
C1444 C1443 1.383 . S
C1444 C1445 1.377 . S
C1445 H1429 0.930 . S
C1445 C1444 1.377 . S
C1445 C1446 1.379 . S
C1446 H1430 0.931 . S
C1446 C1440 1.383 . S
C1446 C1445 1.379 . S
H1447 C1441 0.959 . S
H1448 C1441 0.961 . S
H1449 C1441 0.960 . S
H1450 C1442 0.930 . S
H1451 C1443 0.929 . S
H1452 C1460 0.929 . S
H1453 C1462 0.930 . S
H1454 C1464 0.930 . S
H1455 C1467 0.929 . S
H1456 C1470 0.930 . S
H1457 C1472 0.960 . S
H1458 C1472 0.960 . S
H1459 C1472 0.960 . S
C1460 H1452 0.929 . S
C1460 C1461 1.377 . S
C1460 C1462 1.384 . S
C1461 C1460 1.377 . S
C1461 C1467 1.390 . S
C1462 H1453 0.930 . S
C1462 C1460 1.384 . S
C1462 C1463 1.372 . S
C1463 C1462 1.372 . S
C1463 C1464 1.400 . S
C1463 C1468 1.490 . S
C1464 H1454 0.930 . S
C1464 C1463 1.400 . S
C1464 C1467 1.386 . S
H1465 C1481 0.930 . S
H1466 C1482 0.931 . S
C1467 H1455 0.929 . S
C1467 C1461 1.390 . S
C1467 C1464 1.386 . S
C1468 C1463 1.490 . S
C1468 C1470 1.395 . S
C1468 C1471 1.403 . S
H1469 C1475 0.930 . S
C1470 H1456 0.930 . S
C1470 C1468 1.395 . S
C1470 C1473 1.403 . S
C1471 C1468 1.403 . S
C1471 C1472 1.524 . S
C1471 C1475 1.400 . S
C1472 H1457 0.960 . S
C1472 H1458 0.960 . S
C1472 H1459 0.960 . S
C1472 C1471 1.524 . S
C1473 C1470 1.403 . S
C1473 C1474 1.392 . S
C1473 C1477 1.495 . S
C1474 C1473 1.392 . S
C1474 C1475 1.385 . S
C1474 C1476 1.478 . S
C1475 H1469 0.930 . S
C1475 C1471 1.400 . S
C1475 C1474 1.385 . S
C1476 C1474 1.478 . S
C1476 C1478 1.381 . S
C1476 C1482 1.383 . S
C1477 C1473 1.495 . S
C1477 H1483 0.959 . S
C1477 H1484 0.961 . S
C1477 H1485 0.960 . S
C1478 C1476 1.381 . S
C1478 C1479 1.394 . S
C1478 H1486 0.930 . S
C1479 C1478 1.394 . S
C1479 C1480 1.383 . S
C1479 H1487 0.929 . S
C1480 C1479 1.383 . S
C1480 C1481 1.377 . S
C1481 H1465 0.930 . S
C1481 C1480 1.377 . S
C1481 C1482 1.379 . S
C1482 H1466 0.931 . S
C1482 C1476 1.383 . S
C1482 C1481 1.379 . S
H1483 C1477 0.959 . S
H1484 C1477 0.961 . S
H1485 C1477 0.960 . S
H1486 C1478 0.930 . S
H1487 C1479 0.929 . S
H1488 C1496 0.929 . S
H1489 C1498 0.930 . S
H1490 C1500 0.930 . S
H1491 C1503 0.929 . S
H1492 C1506 0.930 . S
H1493 C1508 0.960 . S
H1494 C1508 0.960 . S
H1495 C1508 0.960 . S
C1496 H1488 0.929 . S
C1496 C1497 1.377 . S
C1496 C1498 1.384 . S
C1497 C1496 1.377 . S
C1497 C1503 1.390 . S
C1498 H1489 0.930 . S
C1498 C1496 1.384 . S
C1498 C1499 1.372 . S
C1499 C1498 1.372 . S
C1499 C1500 1.400 . S
C1499 C1504 1.490 . S
C1500 H1490 0.930 . S
C1500 C1499 1.400 . S
C1500 C1503 1.386 . S
H1501 C1517 0.930 . S
H1502 C1518 0.931 . S
C1503 H1491 0.929 . S
C1503 C1497 1.390 . S
C1503 C1500 1.386 . S
C1504 C1499 1.490 . S
C1504 C1506 1.395 . S
C1504 C1507 1.403 . S
H1505 C1511 0.930 . S
C1506 H1492 0.930 . S
C1506 C1504 1.395 . S
C1506 C1509 1.403 . S
C1507 C1504 1.403 . S
C1507 C1508 1.524 . S
C1507 C1511 1.400 . S
C1508 H1493 0.960 . S
C1508 H1494 0.960 . S
C1508 H1495 0.960 . S
C1508 C1507 1.524 . S
C1509 C1506 1.403 . S
C1509 C1510 1.392 . S
C1509 C1513 1.495 . S
C1510 C1509 1.392 . S
C1510 C1511 1.385 . S
C1510 C1512 1.478 . S
C1511 H1505 0.930 . S
C1511 C1507 1.400 . S
C1511 C1510 1.385 . S
C1512 C1510 1.478 . S
C1512 C1514 1.381 . S
C1512 C1518 1.383 . S
C1513 C1509 1.495 . S
C1513 H1519 0.959 . S
C1513 H1520 0.961 . S
C1513 H1521 0.960 . S
C1514 C1512 1.381 . S
C1514 C1515 1.394 . S
C1514 H1522 0.930 . S
C1515 C1514 1.394 . S
C1515 C1516 1.383 . S
C1515 H1523 0.929 . S
C1516 C1515 1.383 . S
C1516 C1517 1.377 . S
C1517 H1501 0.930 . S
C1517 C1516 1.377 . S
C1517 C1518 1.379 . S
C1518 H1502 0.931 . S
C1518 C1512 1.383 . S
C1518 C1517 1.379 . S
H1519 C1513 0.959 . S
H1520 C1513 0.961 . S
H1521 C1513 0.960 . S
H1522 C1514 0.930 . S
H1523 C1515 0.929 . S
H1524 C1532 0.929 . S
H1525 C1534 0.930 . S
H1526 C1536 0.930 . S
H1527 C1539 0.929 . S
H1528 C1542 0.930 . S
H1529 C1544 0.960 . S
H1530 C1544 0.960 . S
H1531 C1544 0.960 . S
C1532 H1524 0.929 . S
C1532 C1533 1.377 . S
C1532 C1534 1.384 . S
C1533 C1532 1.377 . S
C1533 C1539 1.390 . S
C1534 H1525 0.930 . S
C1534 C1532 1.384 . S
C1534 C1535 1.372 . S
C1535 C1534 1.372 . S
C1535 C1536 1.400 . S
C1535 C1540 1.490 1_565 S
C1536 H1526 0.930 . S
C1536 C1535 1.400 . S
C1536 C1539 1.386 . S
H1537 C1553 0.930 . S
H1538 C1554 0.931 . S
C1539 H1527 0.929 . S
C1539 C1533 1.390 . S
C1539 C1536 1.386 . S
C1540 C1535 1.490 1_545 S
C1540 C1542 1.395 . S
C1540 C1543 1.403 . S
H1541 C1547 0.930 . S
C1542 H1528 0.930 . S
C1542 C1540 1.395 . S
C1542 C1545 1.403 . S
C1543 C1540 1.403 . S
C1543 C1544 1.524 . S
C1543 C1547 1.400 . S
C1544 H1529 0.960 . S
C1544 H1530 0.960 . S
C1544 H1531 0.960 . S
C1544 C1543 1.524 . S
C1545 C1542 1.403 . S
C1545 C1546 1.392 . S
C1545 C1549 1.495 . S
C1546 C1545 1.392 . S
C1546 C1547 1.385 . S
C1546 C1548 1.478 . S
C1547 H1541 0.930 . S
C1547 C1543 1.400 . S
C1547 C1546 1.385 . S
C1548 C1546 1.478 . S
C1548 C1550 1.381 . S
C1548 C1554 1.383 . S
C1549 C1545 1.495 . S
C1549 H1555 0.959 . S
C1549 H1556 0.961 . S
C1549 H1557 0.960 . S
C1550 C1548 1.381 . S
C1550 C1551 1.394 . S
C1550 H1558 0.930 . S
C1551 C1550 1.394 . S
C1551 C1552 1.383 . S
C1551 H1559 0.929 . S
C1552 C1551 1.383 . S
C1552 C1553 1.377 . S
C1553 H1537 0.930 . S
C1553 C1552 1.377 . S
C1553 C1554 1.379 . S
C1554 H1538 0.931 . S
C1554 C1548 1.383 . S
C1554 C1553 1.379 . S
H1555 C1549 0.959 . S
H1556 C1549 0.961 . S
H1557 C1549 0.960 . S
H1558 C1550 0.930 . S
H1559 C1551 0.929 . S
H1560 C1568 0.929 . S
H1561 C1570 0.930 . S
H1562 C1572 0.930 . S
H1563 C1575 0.929 . S
H1564 C1578 0.930 . S
H1565 C1580 0.960 . S
H1566 C1580 0.960 . S
H1567 C1580 0.960 1_545 S
C1568 H1560 0.929 . S
C1568 C1569 1.377 . S
C1568 C1570 1.384 . S
C1569 C1568 1.377 . S
C1569 C1575 1.390 . S
C1570 H1561 0.930 . S
C1570 C1568 1.384 . S
C1570 C1571 1.372 . S
C1571 C1570 1.372 . S
C1571 C1572 1.400 . S
C1571 C1576 1.490 1_545 S
C1572 H1562 0.930 . S
C1572 C1571 1.400 . S
C1572 C1575 1.386 . S
H1573 C1589 0.930 . S
H1574 C1590 0.931 . S
C1575 H1563 0.929 . S
C1575 C1569 1.390 . S
C1575 C1572 1.386 . S
C1576 C1571 1.490 1_565 S
C1576 C1578 1.395 . S
C1576 C1579 1.403 . S
H1577 C1583 0.930 . S
C1578 H1564 0.930 . S
C1578 C1576 1.395 . S
C1578 C1581 1.403 . S
C1579 C1576 1.403 . S
C1579 C1580 1.524 . S
C1579 C1583 1.400 . S
C1580 H1565 0.960 . S
C1580 H1566 0.960 . S
C1580 H1567 0.960 1_565 S
C1580 C1579 1.524 . S
C1581 C1578 1.403 . S
C1581 C1582 1.392 . S
C1581 C1585 1.495 . S
C1582 C1581 1.392 . S
C1582 C1583 1.385 . S
C1582 C1584 1.478 . S
C1583 H1577 0.930 . S
C1583 C1579 1.400 . S
C1583 C1582 1.385 . S
C1584 C1582 1.478 . S
C1584 C1586 1.381 . S
C1584 C1590 1.383 . S
C1585 C1581 1.495 . S
C1585 H1591 0.959 . S
C1585 H1592 0.961 . S
C1585 H1593 0.960 . S
C1586 C1584 1.381 . S
C1586 C1587 1.394 . S
C1586 H1594 0.930 . S
C1587 C1586 1.394 . S
C1587 C1588 1.383 . S
C1587 H1595 0.929 . S
C1588 C1587 1.383 . S
C1588 C1589 1.377 . S
C1589 H1573 0.930 . S
C1589 C1588 1.377 . S
C1589 C1590 1.379 . S
C1590 H1574 0.931 . S
C1590 C1584 1.383 . S
C1590 C1589 1.379 . S
H1591 C1585 0.959 . S
H1592 C1585 0.961 . S
H1593 C1585 0.960 . S
H1594 C1586 0.930 . S
H1595 C1587 0.929 . S
H1596 C1604 0.929 . S
H1597 C1606 0.930 . S
H1598 C1608 0.930 . S
H1599 C1611 0.929 . S
H1600 C1614 0.930 . S
H1601 C1616 0.960 . S
H1602 C1616 0.960 . S
H1603 C1616 0.960 . S
C1604 H1596 0.929 . S
C1604 C1605 1.377 . S
C1604 C1606 1.384 . S
C1605 C1604 1.377 . S
C1605 C1611 1.390 . S
C1606 H1597 0.930 . S
C1606 C1604 1.384 . S
C1606 C1607 1.372 . S
C1607 C1606 1.372 . S
C1607 C1608 1.400 . S
C1607 C1612 1.490 . S
C1608 H1598 0.930 . S
C1608 C1607 1.400 . S
C1608 C1611 1.386 . S
H1609 C1625 0.930 . S
H1610 C1626 0.931 . S
C1611 H1599 0.929 . S
C1611 C1605 1.390 . S
C1611 C1608 1.386 . S
C1612 C1607 1.490 . S
C1612 C1614 1.395 . S
C1612 C1615 1.403 . S
H1613 C1619 0.930 . S
C1614 H1600 0.930 . S
C1614 C1612 1.395 . S
C1614 C1617 1.403 . S
C1615 C1612 1.403 . S
C1615 C1616 1.524 . S
C1615 C1619 1.400 . S
C1616 H1601 0.960 . S
C1616 H1602 0.960 . S
C1616 H1603 0.960 . S
C1616 C1615 1.524 . S
C1617 C1614 1.403 . S
C1617 C1618 1.392 . S
C1617 C1621 1.495 . S
C1618 C1617 1.392 . S
C1618 C1619 1.385 . S
C1618 C1620 1.478 . S
C1619 H1613 0.930 . S
C1619 C1615 1.400 . S
C1619 C1618 1.385 . S
C1620 C1618 1.478 . S
C1620 C1622 1.381 . S
C1620 C1626 1.383 . S
C1621 C1617 1.495 . S
C1621 H1627 0.959 . S
C1621 H1628 0.961 . S
C1621 H1629 0.960 . S
C1622 C1620 1.381 . S
C1622 C1623 1.394 . S
C1622 H1630 0.930 . S
C1623 C1622 1.394 . S
C1623 C1624 1.383 . S
C1623 H1631 0.929 . S
C1624 C1623 1.383 . S
C1624 C1625 1.377 . S
C1625 H1609 0.930 . S
C1625 C1624 1.377 . S
C1625 C1626 1.379 . S
C1626 H1610 0.931 . S
C1626 C1620 1.383 . S
C1626 C1625 1.379 . S
H1627 C1621 0.959 . S
H1628 C1621 0.961 . S
H1629 C1621 0.960 . S
H1630 C1622 0.930 . S
H1631 C1623 0.929 . S
H1632 C1640 0.929 . S
H1633 C1642 0.930 . S
H1634 C1644 0.930 . S
H1635 C1647 0.929 . S
H1636 C1650 0.930 . S
H1637 C1652 0.960 . S
H1638 C1652 0.960 . S
H1639 C1652 0.960 . S
C1640 H1632 0.929 . S
C1640 C1641 1.377 . S
C1640 C1642 1.384 . S
C1641 C1640 1.377 . S
C1641 C1647 1.390 . S
C1642 H1633 0.930 . S
C1642 C1640 1.384 . S
C1642 C1643 1.372 . S
C1643 C1642 1.372 . S
C1643 C1644 1.400 . S
C1643 C1648 1.490 . S
C1644 H1634 0.930 . S
C1644 C1643 1.400 . S
C1644 C1647 1.386 . S
H1645 C1661 0.930 . S
H1646 C1662 0.931 . S
C1647 H1635 0.929 . S
C1647 C1641 1.390 . S
C1647 C1644 1.386 . S
C1648 C1643 1.490 . S
C1648 C1650 1.395 . S
C1648 C1651 1.403 . S
H1649 C1655 0.930 . S
C1650 H1636 0.930 . S
C1650 C1648 1.395 . S
C1650 C1653 1.403 . S
C1651 C1648 1.403 . S
C1651 C1652 1.524 . S
C1651 C1655 1.400 . S
C1652 H1637 0.960 . S
C1652 H1638 0.960 . S
C1652 H1639 0.960 . S
C1652 C1651 1.524 . S
C1653 C1650 1.403 . S
C1653 C1654 1.392 . S
C1653 C1657 1.495 . S
C1654 C1653 1.392 . S
C1654 C1655 1.385 . S
C1654 C1656 1.478 . S
C1655 H1649 0.930 . S
C1655 C1651 1.400 . S
C1655 C1654 1.385 . S
C1656 C1654 1.478 . S
C1656 C1658 1.381 . S
C1656 C1662 1.383 . S
C1657 C1653 1.495 . S
C1657 H1663 0.959 . S
C1657 H1664 0.961 . S
C1657 H1665 0.960 . S
C1658 C1656 1.381 . S
C1658 C1659 1.394 . S
C1658 H1666 0.930 . S
C1659 C1658 1.394 . S
C1659 C1660 1.383 . S
C1659 H1667 0.929 . S
C1660 C1659 1.383 . S
C1660 C1661 1.377 . S
C1661 H1645 0.930 . S
C1661 C1660 1.377 . S
C1661 C1662 1.379 . S
C1662 H1646 0.931 . S
C1662 C1656 1.383 . S
C1662 C1661 1.379 . S
H1663 C1657 0.959 . S
H1664 C1657 0.961 . S
H1665 C1657 0.960 . S
H1666 C1658 0.930 . S
H1667 C1659 0.929 . S
H1668 C1676 0.929 . S
H1669 C1678 0.930 . S
H1670 C1680 0.930 . S
H1671 C1683 0.929 . S
H1672 C1686 0.930 . S
H1673 C1688 0.960 . S
H1674 C1688 0.960 . S
H1675 C1688 0.960 . S
C1676 H1668 0.929 . S
C1676 C1677 1.377 . S
C1676 C1678 1.384 . S
C1677 C1676 1.377 . S
C1677 C1683 1.390 . S
C1678 H1669 0.930 . S
C1678 C1676 1.384 . S
C1678 C1679 1.372 . S
C1679 C1678 1.372 . S
C1679 C1680 1.400 . S
C1679 C1684 1.490 1_556 S
C1680 H1670 0.930 . S
C1680 C1679 1.400 . S
C1680 C1683 1.386 . S
H1681 C1697 0.930 . S
H1682 C1698 0.931 . S
C1683 H1671 0.929 . S
C1683 C1677 1.390 . S
C1683 C1680 1.386 . S
C1684 C1679 1.490 1_554 S
C1684 C1686 1.395 . S
C1684 C1687 1.403 . S
H1685 C1691 0.930 . S
C1686 H1672 0.930 . S
C1686 C1684 1.395 . S
C1686 C1689 1.403 . S
C1687 C1684 1.403 . S
C1687 C1688 1.524 . S
C1687 C1691 1.400 . S
C1688 H1673 0.960 . S
C1688 H1674 0.960 . S
C1688 H1675 0.960 . S
C1688 C1687 1.524 . S
C1689 C1686 1.403 . S
C1689 C1690 1.392 . S
C1689 C1693 1.495 . S
C1690 C1689 1.392 . S
C1690 C1691 1.385 . S
C1690 C1692 1.478 . S
C1691 H1685 0.930 . S
C1691 C1687 1.400 . S
C1691 C1690 1.385 . S
C1692 C1690 1.478 . S
C1692 C1694 1.381 . S
C1692 C1698 1.383 . S
C1693 C1689 1.495 . S
C1693 H1699 0.959 . S
C1693 H1700 0.961 . S
C1693 H1701 0.960 . S
C1694 C1692 1.381 . S
C1694 C1695 1.394 . S
C1694 H1702 0.930 . S
C1695 C1694 1.394 . S
C1695 C1696 1.383 . S
C1695 H1703 0.929 . S
C1696 C1695 1.383 . S
C1696 C1697 1.377 . S
C1697 H1681 0.930 . S
C1697 C1696 1.377 . S
C1697 C1698 1.379 . S
C1698 H1682 0.931 . S
C1698 C1692 1.383 . S
C1698 C1697 1.379 . S
H1699 C1693 0.959 . S
H1700 C1693 0.961 . S
H1701 C1693 0.960 . S
H1702 C1694 0.930 . S
H1703 C1695 0.929 . S
H1704 C1712 0.929 . S
H1705 C1714 0.930 . S
H1706 C1716 0.930 . S
H1707 C1719 0.929 . S
H1708 C1722 0.930 . S
H1709 C1724 0.960 . S
H1710 C1724 0.960 . S
H1711 C1724 0.960 . S
C1712 H1704 0.929 . S
C1712 C1713 1.377 . S
C1712 C1714 1.384 . S
C1713 C1712 1.377 . S
C1713 C1719 1.390 . S
C1714 H1705 0.930 . S
C1714 C1712 1.384 . S
C1714 C1715 1.372 . S
C1715 C1714 1.372 . S
C1715 C1716 1.400 . S
C1715 C1720 1.490 . S
C1716 H1706 0.930 . S
C1716 C1715 1.400 . S
C1716 C1719 1.386 . S
H1717 C1733 0.930 . S
H1718 C1734 0.931 . S
C1719 H1707 0.929 . S
C1719 C1713 1.390 . S
C1719 C1716 1.386 . S
C1720 C1715 1.490 . S
C1720 C1722 1.395 . S
C1720 C1723 1.403 . S
H1721 C1727 0.930 . S
C1722 H1708 0.930 . S
C1722 C1720 1.395 . S
C1722 C1725 1.403 . S
C1723 C1720 1.403 . S
C1723 C1724 1.524 . S
C1723 C1727 1.400 . S
C1724 H1709 0.960 . S
C1724 H1710 0.960 . S
C1724 H1711 0.960 . S
C1724 C1723 1.524 . S
C1725 C1722 1.403 . S
C1725 C1726 1.392 . S
C1725 C1729 1.495 . S
C1726 C1725 1.392 . S
C1726 C1727 1.385 . S
C1726 C1728 1.478 . S
C1727 H1721 0.930 . S
C1727 C1723 1.400 . S
C1727 C1726 1.385 . S
C1728 C1726 1.478 . S
C1728 C1730 1.381 . S
C1728 C1734 1.383 . S
C1729 C1725 1.495 . S
C1729 H1735 0.959 . S
C1729 H1736 0.961 . S
C1729 H1737 0.960 . S
C1730 C1728 1.381 . S
C1730 C1731 1.394 . S
C1730 H1738 0.930 . S
C1731 C1730 1.394 . S
C1731 C1732 1.383 . S
C1731 H1739 0.929 . S
C1732 C1731 1.383 . S
C1732 C1733 1.377 . S
C1733 H1717 0.930 . S
C1733 C1732 1.377 . S
C1733 C1734 1.379 . S
C1734 H1718 0.931 . S
C1734 C1728 1.383 . S
C1734 C1733 1.379 . S
H1735 C1729 0.959 . S
H1736 C1729 0.961 . S
H1737 C1729 0.960 . S
H1738 C1730 0.930 . S
H1739 C1731 0.929 . S
H1740 C1748 0.929 . S
H1741 C1750 0.930 . S
H1742 C1752 0.930 . S
H1743 C1755 0.929 . S
H1744 C1758 0.930 . S
H1745 C1760 0.960 1_556 S
H1746 C1760 0.960 . S
H1747 C1760 0.960 . S
C1748 H1740 0.929 . S
C1748 C1749 1.377 . S
C1748 C1750 1.384 . S
C1749 C1748 1.377 . S
C1749 C1755 1.390 . S
C1750 H1741 0.930 . S
C1750 C1748 1.384 . S
C1750 C1751 1.372 . S
C1751 C1750 1.372 . S
C1751 C1752 1.400 . S
C1751 C1756 1.490 1_554 S
C1752 H1742 0.930 . S
C1752 C1751 1.400 . S
C1752 C1755 1.386 . S
H1753 C1769 0.930 . S
H1754 C1770 0.931 . S
C1755 H1743 0.929 . S
C1755 C1749 1.390 . S
C1755 C1752 1.386 . S
C1756 C1751 1.490 1_556 S
C1756 C1758 1.395 . S
C1756 C1759 1.403 . S
H1757 C1763 0.930 . S
C1758 H1744 0.930 . S
C1758 C1756 1.395 . S
C1758 C1761 1.403 . S
C1759 C1756 1.403 . S
C1759 C1760 1.524 1_556 S
C1759 C1763 1.400 . S
C1760 H1745 0.960 1_554 S
C1760 H1746 0.960 . S
C1760 H1747 0.960 . S
C1760 C1759 1.524 1_554 S
C1761 C1758 1.403 . S
C1761 C1762 1.392 . S
C1761 C1765 1.495 . S
C1762 C1761 1.392 . S
C1762 C1763 1.385 . S
C1762 C1764 1.478 . S
C1763 H1757 0.930 . S
C1763 C1759 1.400 . S
C1763 C1762 1.385 . S
C1764 C1762 1.478 . S
C1764 C1766 1.381 . S
C1764 C1770 1.383 . S
C1765 C1761 1.495 . S
C1765 H1771 0.959 . S
C1765 H1772 0.961 . S
C1765 H1773 0.960 . S
C1766 C1764 1.381 . S
C1766 C1767 1.394 . S
C1766 H1774 0.930 . S
C1767 C1766 1.394 . S
C1767 C1768 1.383 . S
C1767 H1775 0.929 . S
C1768 C1767 1.383 . S
C1768 C1769 1.377 . S
C1769 H1753 0.930 . S
C1769 C1768 1.377 . S
C1769 C1770 1.379 . S
C1770 H1754 0.931 . S
C1770 C1764 1.383 . S
C1770 C1769 1.379 . S
H1771 C1765 0.959 . S
H1772 C1765 0.961 . S
H1773 C1765 0.960 . S
H1774 C1766 0.930 . S
H1775 C1767 0.929 . S
H1776 C1784 0.929 . S
H1777 C1786 0.930 . S
H1778 C1788 0.930 . S
H1779 C1791 0.929 . S
H1780 C1794 0.930 . S
H1781 C1796 0.960 . S
H1782 C1796 0.960 . S
H1783 C1796 0.960 . S
C1784 H1776 0.929 . S
C1784 C1785 1.377 . S
C1784 C1786 1.384 . S
C1785 C1784 1.377 . S
C1785 C1791 1.390 . S
C1786 H1777 0.930 . S
C1786 C1784 1.384 . S
C1786 C1787 1.372 . S
C1787 C1786 1.372 . S
C1787 C1788 1.400 . S
C1787 C1792 1.490 . S
C1788 H1778 0.930 . S
C1788 C1787 1.400 . S
C1788 C1791 1.386 . S
H1789 C1805 0.930 . S
H1790 C1806 0.931 . S
C1791 H1779 0.929 . S
C1791 C1785 1.390 . S
C1791 C1788 1.386 . S
C1792 C1787 1.490 . S
C1792 C1794 1.395 . S
C1792 C1795 1.403 . S
H1793 C1799 0.930 . S
C1794 H1780 0.930 . S
C1794 C1792 1.395 . S
C1794 C1797 1.403 . S
C1795 C1792 1.403 . S
C1795 C1796 1.524 . S
C1795 C1799 1.400 . S
C1796 H1781 0.960 . S
C1796 H1782 0.960 . S
C1796 H1783 0.960 . S
C1796 C1795 1.524 . S
C1797 C1794 1.403 . S
C1797 C1798 1.392 . S
C1797 C1801 1.495 . S
C1798 C1797 1.392 . S
C1798 C1799 1.385 . S
C1798 C1800 1.478 . S
C1799 H1793 0.930 . S
C1799 C1795 1.400 . S
C1799 C1798 1.385 . S
C1800 C1798 1.478 . S
C1800 C1802 1.381 . S
C1800 C1806 1.383 . S
C1801 C1797 1.495 . S
C1801 H1807 0.959 . S
C1801 H1808 0.961 . S
C1801 H1809 0.960 . S
C1802 C1800 1.381 . S
C1802 C1803 1.394 . S
C1802 H1810 0.930 . S
C1803 C1802 1.394 . S
C1803 C1804 1.383 . S
C1803 H1811 0.929 . S
C1804 C1803 1.383 . S
C1804 C1805 1.377 . S
C1805 H1789 0.930 . S
C1805 C1804 1.377 . S
C1805 C1806 1.379 . S
C1806 H1790 0.931 . S
C1806 C1800 1.383 . S
C1806 C1805 1.379 . S
H1807 C1801 0.959 . S
H1808 C1801 0.961 . S
H1809 C1801 0.960 . S
H1810 C1802 0.930 . S
H1811 C1803 0.929 . S
H1812 C1820 0.929 . S
H1813 C1822 0.930 . S
H1814 C1824 0.930 . S
H1815 C1827 0.929 . S
H1816 C1830 0.930 . S
H1817 C1832 0.960 . S
H1818 C1832 0.960 . S
H1819 C1832 0.960 . S
C1820 H1812 0.929 . S
C1820 C1821 1.377 . S
C1820 C1822 1.384 . S
C1821 C1820 1.377 . S
C1821 C1827 1.390 . S
C1822 H1813 0.930 . S
C1822 C1820 1.384 . S
C1822 C1823 1.372 . S
C1823 C1822 1.372 . S
C1823 C1824 1.400 . S
C1823 C1828 1.490 . S
C1824 H1814 0.930 . S
C1824 C1823 1.400 . S
C1824 C1827 1.386 . S
H1825 C1841 0.930 . S
H1826 C1842 0.931 . S
C1827 H1815 0.929 . S
C1827 C1821 1.390 . S
C1827 C1824 1.386 . S
C1828 C1823 1.490 . S
C1828 C1830 1.395 . S
C1828 C1831 1.403 . S
H1829 C1835 0.930 . S
C1830 H1816 0.930 . S
C1830 C1828 1.395 . S
C1830 C1833 1.403 . S
C1831 C1828 1.403 . S
C1831 C1832 1.524 . S
C1831 C1835 1.400 . S
C1832 H1817 0.960 . S
C1832 H1818 0.960 . S
C1832 H1819 0.960 . S
C1832 C1831 1.524 . S
C1833 C1830 1.403 . S
C1833 C1834 1.392 . S
C1833 C1837 1.495 . S
C1834 C1833 1.392 . S
C1834 C1835 1.385 . S
C1834 C1836 1.478 1_655 S
C1835 H1829 0.930 . S
C1835 C1831 1.400 . S
C1835 C1834 1.385 . S
C1836 C1834 1.478 1_455 S
C1836 C1838 1.381 . S
C1836 C1842 1.383 . S
C1837 C1833 1.495 . S
C1837 H1843 0.959 . S
C1837 H1844 0.961 . S
C1837 H1845 0.960 . S
C1838 C1836 1.381 . S
C1838 C1839 1.394 . S
C1838 H1846 0.930 . S
C1839 C1838 1.394 . S
C1839 C1840 1.383 . S
C1839 H1847 0.929 . S
C1840 C1839 1.383 . S
C1840 C1841 1.377 . S
C1841 H1825 0.930 . S
C1841 C1840 1.377 . S
C1841 C1842 1.379 . S
C1842 H1826 0.931 . S
C1842 C1836 1.383 . S
C1842 C1841 1.379 . S
H1843 C1837 0.959 . S
H1844 C1837 0.961 . S
H1845 C1837 0.960 . S
H1846 C1838 0.930 . S
H1847 C1839 0.929 . S
H1848 C1856 0.929 . S
H1849 C1858 0.930 . S
H1850 C1860 0.930 . S
H1851 C1863 0.929 . S
H1852 C1866 0.930 . S
H1853 C1868 0.960 . S
H1854 C1868 0.960 . S
H1855 C1868 0.960 . S
C1856 H1848 0.929 . S
C1856 C1857 1.377 . S
C1856 C1858 1.384 . S
C1857 C1856 1.377 . S
C1857 C1863 1.390 . S
C1858 H1849 0.930 . S
C1858 C1856 1.384 . S
C1858 C1859 1.372 . S
C1859 C1858 1.372 . S
C1859 C1860 1.400 . S
C1859 C1864 1.490 . S
C1860 H1850 0.930 . S
C1860 C1859 1.400 . S
C1860 C1863 1.386 . S
H1861 C1877 0.930 . S
H1862 C1878 0.931 . S
C1863 H1851 0.929 . S
C1863 C1857 1.390 . S
C1863 C1860 1.386 . S
C1864 C1859 1.490 . S
C1864 C1866 1.395 . S
C1864 C1867 1.403 . S
H1865 C1871 0.930 . S
C1866 H1852 0.930 . S
C1866 C1864 1.395 . S
C1866 C1869 1.403 . S
C1867 C1864 1.403 . S
C1867 C1868 1.524 . S
C1867 C1871 1.400 . S
C1868 H1853 0.960 . S
C1868 H1854 0.960 . S
C1868 H1855 0.960 . S
C1868 C1867 1.524 . S
C1869 C1866 1.403 . S
C1869 C1870 1.392 . S
C1869 C1873 1.495 . S
C1870 C1869 1.392 . S
C1870 C1871 1.385 . S
C1870 C1872 1.478 1_455 S
C1871 H1865 0.930 . S
C1871 C1867 1.400 . S
C1871 C1870 1.385 . S
C1872 C1870 1.478 1_655 S
C1872 C1874 1.381 . S
C1872 C1878 1.383 . S
C1873 C1869 1.495 . S
C1873 H1879 0.959 . S
C1873 H1880 0.961 . S
C1873 H1881 0.960 . S
C1874 C1872 1.381 . S
C1874 C1875 1.394 . S
C1874 H1882 0.930 . S
C1875 C1874 1.394 . S
C1875 C1876 1.383 . S
C1875 H1883 0.929 . S
C1876 C1875 1.383 . S
C1876 C1877 1.377 . S
C1877 H1861 0.930 . S
C1877 C1876 1.377 . S
C1877 C1878 1.379 . S
C1878 H1862 0.931 . S
C1878 C1872 1.383 . S
C1878 C1877 1.379 . S
H1879 C1873 0.959 . S
H1880 C1873 0.961 . S
H1881 C1873 0.960 . S
H1882 C1874 0.930 . S
H1883 C1875 0.929 . S
H1884 C1892 0.929 . S
H1885 C1894 0.930 . S
H1886 C1896 0.930 . S
H1887 C1899 0.929 . S
H1888 C1902 0.930 . S
H1889 C1904 0.960 . S
H1890 C1904 0.960 . S
H1891 C1904 0.960 . S
C1892 H1884 0.929 . S
C1892 C1893 1.377 . S
C1892 C1894 1.384 . S
C1893 C1892 1.377 . S
C1893 C1899 1.390 . S
C1894 H1885 0.930 . S
C1894 C1892 1.384 . S
C1894 C1895 1.372 . S
C1895 C1894 1.372 . S
C1895 C1896 1.400 . S
C1895 C1900 1.490 . S
C1896 H1886 0.930 . S
C1896 C1895 1.400 . S
C1896 C1899 1.386 . S
H1897 C1913 0.930 . S
H1898 C1914 0.931 . S
C1899 H1887 0.929 . S
C1899 C1893 1.390 . S
C1899 C1896 1.386 . S
C1900 C1895 1.490 . S
C1900 C1902 1.395 . S
C1900 C1903 1.403 . S
H1901 C1907 0.930 . S
C1902 H1888 0.930 . S
C1902 C1900 1.395 . S
C1902 C1905 1.403 . S
C1903 C1900 1.403 . S
C1903 C1904 1.524 . S
C1903 C1907 1.400 . S
C1904 H1889 0.960 . S
C1904 H1890 0.960 . S
C1904 H1891 0.960 . S
C1904 C1903 1.524 . S
C1905 C1902 1.403 . S
C1905 C1906 1.392 . S
C1905 C1909 1.495 . S
C1906 C1905 1.392 . S
C1906 C1907 1.385 . S
C1906 C1908 1.478 . S
C1907 H1901 0.930 . S
C1907 C1903 1.400 . S
C1907 C1906 1.385 . S
C1908 C1906 1.478 . S
C1908 C1910 1.381 . S
C1908 C1914 1.383 . S
C1909 C1905 1.495 . S
C1909 H1915 0.959 . S
C1909 H1916 0.961 . S
C1909 H1917 0.960 . S
C1910 C1908 1.381 . S
C1910 C1911 1.394 . S
C1910 H1918 0.930 . S
C1911 C1910 1.394 . S
C1911 C1912 1.383 . S
C1911 H1919 0.929 . S
C1912 C1911 1.383 . S
C1912 C1913 1.377 . S
C1913 H1897 0.930 . S
C1913 C1912 1.377 . S
C1913 C1914 1.379 . S
C1914 H1898 0.931 . S
C1914 C1908 1.383 . S
C1914 C1913 1.379 . S
H1915 C1909 0.959 . S
H1916 C1909 0.961 . S
H1917 C1909 0.960 . S
H1918 C1910 0.930 . S
H1919 C1911 0.929 . S
H1920 C1928 0.929 . S
H1921 C1930 0.930 . S
H1922 C1932 0.930 . S
H1923 C1935 0.929 . S
H1924 C1938 0.930 . S
H1925 C1940 0.960 . S
H1926 C1940 0.960 . S
H1927 C1940 0.960 . S
C1928 H1920 0.929 . S
C1928 C1929 1.377 . S
C1928 C1930 1.384 . S
C1929 C1928 1.377 . S
C1929 C1935 1.390 . S
C1930 H1921 0.930 . S
C1930 C1928 1.384 . S
C1930 C1931 1.372 . S
C1931 C1930 1.372 . S
C1931 C1932 1.400 . S
C1931 C1936 1.490 . S
C1932 H1922 0.930 . S
C1932 C1931 1.400 . S
C1932 C1935 1.386 . S
H1933 C1949 0.930 . S
H1934 C1950 0.931 . S
C1935 H1923 0.929 . S
C1935 C1929 1.390 . S
C1935 C1932 1.386 . S
C1936 C1931 1.490 . S
C1936 C1938 1.395 . S
C1936 C1939 1.403 . S
H1937 C1943 0.930 . S
C1938 H1924 0.930 . S
C1938 C1936 1.395 . S
C1938 C1941 1.403 . S
C1939 C1936 1.403 . S
C1939 C1940 1.524 . S
C1939 C1943 1.400 . S
C1940 H1925 0.960 . S
C1940 H1926 0.960 . S
C1940 H1927 0.960 . S
C1940 C1939 1.524 . S
C1941 C1938 1.403 . S
C1941 C1942 1.392 . S
C1941 C1945 1.495 . S
C1942 C1941 1.392 . S
C1942 C1943 1.385 . S
C1942 C1944 1.478 . S
C1943 H1937 0.930 . S
C1943 C1939 1.400 . S
C1943 C1942 1.385 . S
C1944 C1942 1.478 . S
C1944 C1946 1.381 . S
C1944 C1950 1.383 . S
C1945 C1941 1.495 . S
C1945 H1951 0.959 . S
C1945 H1952 0.961 . S
C1945 H1953 0.960 . S
C1946 C1944 1.381 . S
C1946 C1947 1.394 . S
C1946 H1954 0.930 . S
C1947 C1946 1.394 . S
C1947 C1948 1.383 . S
C1947 H1955 0.929 . S
C1948 C1947 1.383 . S
C1948 C1949 1.377 . S
C1949 H1933 0.930 . S
C1949 C1948 1.377 . S
C1949 C1950 1.379 . S
C1950 H1934 0.931 . S
C1950 C1944 1.383 . S
C1950 C1949 1.379 . S
H1951 C1945 0.959 . S
H1952 C1945 0.961 . S
H1953 C1945 0.960 . S
H1954 C1946 0.930 . S
H1955 C1947 0.929 . S
H1956 C1964 0.929 . S
H1957 C1966 0.930 . S
H1958 C1968 0.930 . S
H1959 C1971 0.929 . S
H1960 C1974 0.930 . S
H1961 C1976 0.960 . S
H1962 C1976 0.960 . S
H1963 C1976 0.960 . S
C1964 H1956 0.929 . S
C1964 C1965 1.377 . S
C1964 C1966 1.384 . S
C1965 C1964 1.377 . S
C1965 C1971 1.390 . S
C1966 H1957 0.930 . S
C1966 C1964 1.384 . S
C1966 C1967 1.372 . S
C1967 C1966 1.372 . S
C1967 C1968 1.400 . S
C1967 C1972 1.490 . S
C1968 H1958 0.930 . S
C1968 C1967 1.400 . S
C1968 C1971 1.386 . S
H1969 C1985 0.930 . S
H1970 C1986 0.931 . S
C1971 H1959 0.929 . S
C1971 C1965 1.390 . S
C1971 C1968 1.386 . S
C1972 C1967 1.490 . S
C1972 C1974 1.395 . S
C1972 C1975 1.403 . S
H1973 C1979 0.930 . S
C1974 H1960 0.930 . S
C1974 C1972 1.395 . S
C1974 C1977 1.403 . S
C1975 C1972 1.403 . S
C1975 C1976 1.524 . S
C1975 C1979 1.400 . S
C1976 H1961 0.960 . S
C1976 H1962 0.960 . S
C1976 H1963 0.960 . S
C1976 C1975 1.524 . S
C1977 C1974 1.403 . S
C1977 C1978 1.392 . S
C1977 C1981 1.495 . S
C1978 C1977 1.392 . S
C1978 C1979 1.385 . S
C1978 C1980 1.478 1_565 S
C1979 H1973 0.930 . S
C1979 C1975 1.400 . S
C1979 C1978 1.385 . S
C1980 C1978 1.478 1_545 S
C1980 C1982 1.381 . S
C1980 C1986 1.383 . S
C1981 C1977 1.495 . S
C1981 H1987 0.959 . S
C1981 H1988 0.961 1_565 S
C1981 H1989 0.960 1_565 S
C1982 C1980 1.381 . S
C1982 C1983 1.394 . S
C1982 H1990 0.930 . S
C1983 C1982 1.394 . S
C1983 C1984 1.383 . S
C1983 H1991 0.929 . S
C1984 C1983 1.383 . S
C1984 C1985 1.377 . S
C1985 H1969 0.930 . S
C1985 C1984 1.377 . S
C1985 C1986 1.379 . S
C1986 H1970 0.931 . S
C1986 C1980 1.383 . S
C1986 C1985 1.379 . S
H1987 C1981 0.959 . S
H1988 C1981 0.961 1_545 S
H1989 C1981 0.960 1_545 S
H1990 C1982 0.930 . S
H1991 C1983 0.929 . S
H1992 C2000 0.929 . S
H1993 C2002 0.930 . S
H1994 C2004 0.930 . S
H1995 C2007 0.929 . S
H1996 C2010 0.930 . S
H1997 C2012 0.960 . S
H1998 C2012 0.960 1_565 S
H1999 C2012 0.960 . S
C2000 H1992 0.929 . S
C2000 C2001 1.377 . S
C2000 C2002 1.384 . S
C2001 C2000 1.377 . S
C2001 C2007 1.390 . S
C2002 H1993 0.930 . S
C2002 C2000 1.384 . S
C2002 C2003 1.372 . S
C2003 C2002 1.372 . S
C2003 C2004 1.400 . S
C2003 C2008 1.490 1_565 S
C2004 H1994 0.930 . S
C2004 C2003 1.400 . S
C2004 C2007 1.386 . S
H2005 C2021 0.930 . S
H2006 C2022 0.931 . S
C2007 H1995 0.929 . S
C2007 C2001 1.390 . S
C2007 C2004 1.386 . S
C2008 C2003 1.490 1_545 S
C2008 C2010 1.395 . S
C2008 C2011 1.403 . S
H2009 C2015 0.930 . S
C2010 H1996 0.930 . S
C2010 C2008 1.395 . S
C2010 C2013 1.403 . S
C2011 C2008 1.403 . S
C2011 C2012 1.524 . S
C2011 C2015 1.400 . S
C2012 H1997 0.960 . S
C2012 H1998 0.960 1_545 S
C2012 H1999 0.960 . S
C2012 C2011 1.524 . S
C2013 C2010 1.403 . S
C2013 C2014 1.392 . S
C2013 C2017 1.495 . S
C2014 C2013 1.392 . S
C2014 C2015 1.385 . S
C2014 C2016 1.478 . S
C2015 H2009 0.930 . S
C2015 C2011 1.400 . S
C2015 C2014 1.385 . S
C2016 C2014 1.478 . S
C2016 C2018 1.381 . S
C2016 C2022 1.383 . S
C2017 C2013 1.495 . S
C2017 H2023 0.959 . S
C2017 H2024 0.961 . S
C2017 H2025 0.960 . S
C2018 C2016 1.381 . S
C2018 C2019 1.394 . S
C2018 H2026 0.930 . S
C2019 C2018 1.394 . S
C2019 C2020 1.383 . S
C2019 H2027 0.929 . S
C2020 C2019 1.383 . S
C2020 C2021 1.377 . S
C2021 H2005 0.930 . S
C2021 C2020 1.377 . S
C2021 C2022 1.379 . S
C2022 H2006 0.931 . S
C2022 C2016 1.383 . S
C2022 C2021 1.379 . S
H2023 C2017 0.959 . S
H2024 C2017 0.961 . S
H2025 C2017 0.960 . S
H2026 C2018 0.930 . S
H2027 C2019 0.929 . S
H2028 C2036 0.929 . S
H2029 C2038 0.930 . S
H2030 C2040 0.930 . S
H2031 C2043 0.929 . S
H2032 C2046 0.930 . S
H2033 C2048 0.960 . S
H2034 C2048 0.960 . S
H2035 C2048 0.960 . S
C2036 H2028 0.929 . S
C2036 C2037 1.377 . S
C2036 C2038 1.384 . S
C2037 C2036 1.377 . S
C2037 C2043 1.390 . S
C2038 H2029 0.930 . S
C2038 C2036 1.384 . S
C2038 C2039 1.372 . S
C2039 C2038 1.372 . S
C2039 C2040 1.400 . S
C2039 C2044 1.490 . S
C2040 H2030 0.930 . S
C2040 C2039 1.400 . S
C2040 C2043 1.386 . S
H2041 C2057 0.930 . S
H2042 C2058 0.931 . S
C2043 H2031 0.929 . S
C2043 C2037 1.390 . S
C2043 C2040 1.386 . S
C2044 C2039 1.490 . S
C2044 C2046 1.395 . S
C2044 C2047 1.403 . S
H2045 C2051 0.930 . S
C2046 H2032 0.930 . S
C2046 C2044 1.395 . S
C2046 C2049 1.403 . S
C2047 C2044 1.403 . S
C2047 C2048 1.524 . S
C2047 C2051 1.400 . S
C2048 H2033 0.960 . S
C2048 H2034 0.960 . S
C2048 H2035 0.960 . S
C2048 C2047 1.524 . S
C2049 C2046 1.403 . S
C2049 C2050 1.392 . S
C2049 C2053 1.495 . S
C2050 C2049 1.392 . S
C2050 C2051 1.385 . S
C2050 C2052 1.478 . S
C2051 H2045 0.930 . S
C2051 C2047 1.400 . S
C2051 C2050 1.385 . S
C2052 C2050 1.478 . S
C2052 C2054 1.381 . S
C2052 C2058 1.383 . S
C2053 C2049 1.495 . S
C2053 H2059 0.959 . S
C2053 H2060 0.961 . S
C2053 H2061 0.960 . S
C2054 C2052 1.381 . S
C2054 C2055 1.394 . S
C2054 H2062 0.930 . S
C2055 C2054 1.394 . S
C2055 C2056 1.383 . S
C2055 H2063 0.929 . S
C2056 C2055 1.383 . S
C2056 C2057 1.377 . S
C2057 H2041 0.930 . S
C2057 C2056 1.377 . S
C2057 C2058 1.379 . S
C2058 H2042 0.931 . S
C2058 C2052 1.383 . S
C2058 C2057 1.379 . S
H2059 C2053 0.959 . S
H2060 C2053 0.961 . S
H2061 C2053 0.960 . S
H2062 C2054 0.930 . S
H2063 C2055 0.929 . S
C345 C117 0.855 . S
C364 C0 0.855 . S
C381 C14 0.855 . S
C400 C159 0.841 . S
C417 C28 0.839 . S
C436 C131 0.860 . S
C453 C42 0.848 . S
C472 C145 0.825 . S
C489 C56 0.908 . S
C508 C5 0.912 . S
C525 C19 0.916 . S
C544 C70 0.863 . S
C561 C84 0.910 . S
C580 C33 0.894 . S
C597 C47 0.916 . S
C616 C98 0.863 . S
C633 C61 0.881 . S
C652 C112 0.850 . S
C669 C89 0.870 . S
C688 C126 0.883 . S
C705 C140 0.877 . S
C724 C103 0.861 . S
C741 C75 0.879 . S
C760 C154 0.828 . S
C777 C285 0.882 . S
C796 C173 0.845 . S
C813 C187 0.884 . S
C832 C327 0.861 . S
C849 C201 0.873 . S
C868 C299 0.870 . S
C885 C313 0.882 . S
C904 C215 0.910 . S
C921 C224 0.830 . S
C940 C168 0.855 . S
C957 C182 0.839 . S
C976 C238 0.813 . S
C993 C196 0.828 . S
C1012 C252 0.823 . S
C1029 C266 0.831 . S
C1048 C210 0.852 . S
C1065 C280 0.851 . S
C1084 C229 0.878 . S
C1101 C257 0.861 . S
C1120 C294 0.890 . S
C1137 C271 0.866 . S
C1156 C308 0.818 . S
C1173 C322 0.867 . S
C1192 C243 0.846 . S
C1209 C319 1.379 . S
C1228 C9 1.364 . S
C1245 C305 1.377 . S
C1264 C23 1.380 . S
C1281 C333 1.379 . S
C1300 C37 1.359 . S
C1317 C51 1.374 . S
C1336 C291 1.370 . S
C1353 C65 1.403 . S
C1372 C191 1.406 . S
C1389 C177 1.410 . S
C1408 C79 1.387 . S
C1425 C219 1.410 . S
C1444 C93 1.409 . S
C1461 C205 1.410 . S
C1480 C107 1.399 . S
C1497 C121 1.335 . S
C1516 C263 1.343 . S
C1533 C235 1.342 . S
C1552 C135 1.331 . S
C1569 C249 1.341 . S
C1588 C149 1.328 . S
C1605 C277 1.341 . S
C1624 C163 1.343 . S
C1641 C151 1.381 . S
C1660 C179 1.384 . S
C1677 C137 1.384 . S
C1696 C193 1.383 . S
C1713 C207 1.386 . S
C1732 C165 1.372 . S
C1749 C123 1.382 . S
C1768 C221 1.381 . S
C1785 C233 1.354 . S
C1804 C25 1.348 . S
C1821 C247 1.355 . S
C1840 C11 1.354 . S
C1857 C261 1.356 . S
C1876 C53 1.357 . S
C1893 C275 1.353 . S
C1912 C39 1.348 . S
C1929 C289 1.428 . S
C1948 C95 1.422 . S
C1965 C303 1.428 . S
C1984 C67 1.420 . S
C2001 C81 1.431 . S
C2020 C317 1.418 . S
C2037 C331 1.431 . S
C2056 C109 1.434 . S
