# Generated by pormake.
# Topology fnc, (5)-cn, num edge types: 1
# Building blocks:
#     Node 0, Type 0, BuildingBlock: BEQFEK_clean_sbu_0, # of connection points: 5
#     Node 1, Type 0, BuildingBlock: BEQFEK_clean_sbu_0, # of connection points: 5
#     Node 2, Type 0, BuildingBlock: BEQFEK_clean_sbu_0, # of connection points: 5
#     Node 3, Type 0, BuildingBlock: BEQFEK_clean_sbu_0, # of connection points: 5
#     Node 4, Type 0, BuildingBlock: BEQFEK_clean_sbu_0, # of connection points: 5
#     Node 5, Type 0, BuildingBlock: BEQFEK_clean_sbu_0, # of connection points: 5
#     Node 6, Type 0, BuildingBlock: BEQFEK_clean_sbu_0, # of connection points: 5
#     Node 7, Type 0, BuildingBlock: BEQFEK_clean_sbu_0, # of connection points: 5
#     Node 8, Type 0, BuildingBlock: BEQFEK_clean_sbu_0, # of connection points: 5
#     Node 9, Type 0, BuildingBlock: BEQFEK_clean_sbu_0, # of connection points: 5
#     Node 10, Type 0, BuildingBlock: BEQFEK_clean_sbu_0, # of connection points: 5
#     Node 11, Type 0, BuildingBlock: BEQFEK_clean_sbu_0, # of connection points: 5
#     Node 12, Type 0, BuildingBlock: BEQFEK_clean_sbu_0, # of connection points: 5
#     Node 13, Type 0, BuildingBlock: BEQFEK_clean_sbu_0, # of connection points: 5
#     Node 14, Type 0, BuildingBlock: BEQFEK_clean_sbu_0, # of connection points: 5
#     Node 15, Type 0, BuildingBlock: BEQFEK_clean_sbu_0, # of connection points: 5
#     Node 16, Type 0, BuildingBlock: BEQFEK_clean_sbu_0, # of connection points: 5
#     Node 17, Type 0, BuildingBlock: BEQFEK_clean_sbu_0, # of connection points: 5
#     Edge 18, Type (0, 0), BuildingBlock: KIFKEQ_clean_linker_1, # of connection points: 2
#     Edge 19, Type (0, 0), BuildingBlock: KIFKEQ_clean_linker_1, # of connection points: 2
#     Edge 20, Type (0, 0), BuildingBlock: KIFKEQ_clean_linker_1, # of connection points: 2
#     Edge 21, Type (0, 0), BuildingBlock: KIFKEQ_clean_linker_1, # of connection points: 2
#     Edge 22, Type (0, 0), BuildingBlock: KIFKEQ_clean_linker_1, # of connection points: 2
#     Edge 23, Type (0, 0), BuildingBlock: KIFKEQ_clean_linker_1, # of connection points: 2
#     Edge 24, Type (0, 0), BuildingBlock: KIFKEQ_clean_linker_1, # of connection points: 2
#     Edge 25, Type (0, 0), BuildingBlock: KIFKEQ_clean_linker_1, # of connection points: 2
#     Edge 26, Type (0, 0), BuildingBlock: KIFKEQ_clean_linker_1, # of connection points: 2
#     Edge 27, Type (0, 0), BuildingBlock: KIFKEQ_clean_linker_1, # of connection points: 2
#     Edge 28, Type (0, 0), BuildingBlock: KIFKEQ_clean_linker_1, # of connection points: 2
#     Edge 29, Type (0, 0), BuildingBlock: KIFKEQ_clean_linker_1, # of connection points: 2
#     Edge 30, Type (0, 0), BuildingBlock: KIFKEQ_clean_linker_1, # of connection points: 2
#     Edge 31, Type (0, 0), BuildingBlock: KIFKEQ_clean_linker_1, # of connection points: 2
#     Edge 32, Type (0, 0), BuildingBlock: KIFKEQ_clean_linker_1, # of connection points: 2
#     Edge 33, Type (0, 0), BuildingBlock: KIFKEQ_clean_linker_1, # of connection points: 2
#     Edge 34, Type (0, 0), BuildingBlock: KIFKEQ_clean_linker_1, # of connection points: 2
#     Edge 35, Type (0, 0), BuildingBlock: KIFKEQ_clean_linker_1, # of connection points: 2
#     Edge 36, Type (0, 0), BuildingBlock: KIFKEQ_clean_linker_1, # of connection points: 2
#     Edge 37, Type (0, 0), BuildingBlock: KIFKEQ_clean_linker_1, # of connection points: 2
#     Edge 38, Type (0, 0), BuildingBlock: KIFKEQ_clean_linker_1, # of connection points: 2
#     Edge 39, Type (0, 0), BuildingBlock: KIFKEQ_clean_linker_1, # of connection points: 2
#     Edge 40, Type (0, 0), BuildingBlock: KIFKEQ_clean_linker_1, # of connection points: 2
#     Edge 41, Type (0, 0), BuildingBlock: KIFKEQ_clean_linker_1, # of connection points: 2
#     Edge 42, Type (0, 0), BuildingBlock: KIFKEQ_clean_linker_1, # of connection points: 2
#     Edge 43, Type (0, 0), BuildingBlock: KIFKEQ_clean_linker_1, # of connection points: 2
#     Edge 44, Type (0, 0), BuildingBlock: KIFKEQ_clean_linker_1, # of connection points: 2
#     Edge 45, Type (0, 0), BuildingBlock: KIFKEQ_clean_linker_1, # of connection points: 2
#     Edge 46, Type (0, 0), BuildingBlock: KIFKEQ_clean_linker_1, # of connection points: 2
#     Edge 47, Type (0, 0), BuildingBlock: KIFKEQ_clean_linker_1, # of connection points: 2
#     Edge 48, Type (0, 0), BuildingBlock: KIFKEQ_clean_linker_1, # of connection points: 2
#     Edge 49, Type (0, 0), BuildingBlock: KIFKEQ_clean_linker_1, # of connection points: 2
#     Edge 50, Type (0, 0), BuildingBlock: KIFKEQ_clean_linker_1, # of connection points: 2
#     Edge 51, Type (0, 0), BuildingBlock: KIFKEQ_clean_linker_1, # of connection points: 2
#     Edge 52, Type (0, 0), BuildingBlock: KIFKEQ_clean_linker_1, # of connection points: 2
#     Edge 53, Type (0, 0), BuildingBlock: KIFKEQ_clean_linker_1, # of connection points: 2
#     Edge 54, Type (0, 0), BuildingBlock: KIFKEQ_clean_linker_1, # of connection points: 2
#     Edge 55, Type (0, 0), BuildingBlock: KIFKEQ_clean_linker_1, # of connection points: 2
#     Edge 56, Type (0, 0), BuildingBlock: KIFKEQ_clean_linker_1, # of connection points: 2
#     Edge 57, Type (0, 0), BuildingBlock: KIFKEQ_clean_linker_1, # of connection points: 2
#     Edge 58, Type (0, 0), BuildingBlock: KIFKEQ_clean_linker_1, # of connection points: 2
#     Edge 59, Type (0, 0), BuildingBlock: KIFKEQ_clean_linker_1, # of connection points: 2
#     Edge 60, Type (0, 0), BuildingBlock: KIFKEQ_clean_linker_1, # of connection points: 2
#     Edge 61, Type (0, 0), BuildingBlock: KIFKEQ_clean_linker_1, # of connection points: 2
#     Edge 62, Type (0, 0), BuildingBlock: KIFKEQ_clean_linker_1, # of connection points: 2
# Relax obj value: 0.264
# Max RMSD: 0.290
# Mean RMSD: 0.263
data_MOF--net-fnc--node1-BEQFEK_clean_sbu_0--edge1-KIFKEQ_clean_linker_1
_symmetry_space_group_name_H-M    P1
_symmetry_Int_Tables_number       1
_symmetry_cell_setting            triclinic
loop_
_symmetry_equiv_pos_as_xyz
'x, y, z'
_cell_length_a     95.0893
_cell_length_b     103.63674
_cell_length_c     18.76375
_cell_angle_alpha  89.028936
_cell_angle_beta   92.152856
_cell_angle_gamma 127.97947
loop_
_atom_site_label
_atom_site_type_symbol
_atom_site_fract_x
_atom_site_fract_y
_atom_site_fract_z
_atom_type_partial_charge
Co0 Co 0.06387 0.49084 0.01019 0.0
Co1 Co 0.04373 0.48327 0.15064 0.0
C2 C 0.07234 0.47887 0.13376 0.0
O3 O 0.07625 0.4843 0.07036 0.0
O4 O 0.06008 0.47775 0.16574 0.0
C5 C 0.07114 0.48674 0.87362 0.0
O6 O 0.06497 0.47243 0.90057 0.0
C7 C 0.04646 0.48987 0.30103 0.0
C8 C 0.01858 0.47253 0.33445 0.0
C9 C 0.03601 0.48376 0.36065 0.0
N10 N 0.03574 0.48253 0.2428 0.0
N11 N 0.01904 0.47238 0.26282 0.0
C12 C 0.06642 0.50108 0.2993 0.0
H13 H 0.071 0.50189 0.24483 0.0
H14 H 0.07162 0.51357 0.31571 0.0
H15 H 0.07202 0.49682 0.3371 0.0
C16 C 0.06982 0.52226 0.0283 0.0
N17 N 0.06453 0.50766 0.05292 0.0
N18 N 0.05571 0.50428 0.11146 0.0
C19 C 0.05503 0.51654 0.12604 0.0
C20 C 0.06402 0.52841 0.07388 0.0
C21 C 0.07864 0.52933 0.95876 0.0
H22 H 0.08952 0.52833 0.95362 0.0
H23 H 0.08417 0.54236 0.95434 0.0
H24 H 0.0687 0.52222 0.91449 0.0
O25 O 0.03856 0.47159 0.9903 0.0
O26 O 0.02338 0.46678 0.0872 0.0
H27 H 0.03066 0.50291 0.18281 0.0
H28 H 0.04052 0.52422 0.17135 0.0
C29 C 0.04344 0.5155 0.18149 0.0
H30 H 0.05032 0.5183 0.23453 0.0
H31 H 0.00811 0.46467 0.22808 0.0
O32 O 0.07371 0.49768 0.91459 0.0
C33 C 0.0239 0.46353 0.02264 0.0
Co34 Co 0.57503 0.63869 0.05206 0.0
Co35 Co 0.58904 0.63352 0.19495 0.0
C36 C 0.58648 0.66139 0.16974 0.0
O37 O 0.57938 0.65716 0.10706 0.0
O38 O 0.59067 0.65336 0.20322 0.0
C39 C 0.57675 0.6487 0.91243 0.0
O40 O 0.59111 0.66216 0.94111 0.0
C41 C 0.58282 0.62788 0.34566 0.0
C42 C 0.60568 0.62926 0.3879 0.0
C43 C 0.59102 0.62801 0.40872 0.0
N44 N 0.59219 0.62906 0.29065 0.0
N45 N 0.60571 0.62962 0.31607 0.0
C46 C 0.56752 0.62851 0.33755 0.0
H47 H 0.56596 0.63132 0.28194 0.0
H48 H 0.55499 0.6164 0.35097 0.0
H49 H 0.56948 0.63779 0.37451 0.0
C50 C 0.54428 0.60421 0.07965 0.0
N51 N 0.56004 0.61841 0.09938 0.0
N52 N 0.56645 0.61597 0.15681 0.0
C53 C 0.55522 0.60009 0.1748 0.0
C54 C 0.54068 0.59204 0.1267 0.0
C55 C 0.53329 0.60241 0.01577 0.0
H56 H 0.53436 0.61364 0.009 0.0
H57 H 0.51907 0.59165 0.02097 0.0
H58 H 0.53849 0.60082 0.96748 0.0
O59 O 0.59812 0.6431 0.03608 0.0
O60 O 0.60817 0.63825 0.1332 0.0
H61 H 0.57428 0.59939 0.23633 0.0
H62 H 0.5533 0.57956 0.21763 0.0
C63 C 0.55963 0.59251 0.23084 0.0
H64 H 0.5547 0.59294 0.28271 0.0
H65 H 0.61547 0.63116 0.28471 0.0
O66 O 0.56597 0.6369 0.95321 0.0
C67 C 0.60966 0.64236 0.06789 0.0
Co68 Co 0.44277 0.05866 0.14684 0.0
Co69 Co 0.42349 0.04051 0.00323 0.0
C70 C 0.43944 0.07619 0.03349 0.0
O71 O 0.446 0.0771 0.09528 0.0
O72 O 0.43061 0.06294 0.99744 0.0
C73 C 0.44675 0.06987 0.28358 0.0
O74 O 0.43653 0.07308 0.25343 0.0
C75 C 0.42801 0.04037 0.85248 0.0
C76 C 0.4012 0.01973 0.81119 0.0
C77 C 0.41825 0.03249 0.79001 0.0
N78 N 0.41731 0.03262 0.90775 0.0
N79 N 0.40133 0.02015 0.88299 0.0
C80 C 0.44668 0.05602 0.85965 0.0
H81 H 0.44977 0.06099 0.91467 0.0
H82 H 0.45625 0.05368 0.84754 0.0
H83 H 0.44855 0.06519 0.82124 0.0
C84 C 0.46428 0.0479 0.11267 0.0
N85 N 0.45148 0.04944 0.09637 0.0
N86 N 0.44262 0.04091 0.03827 0.0
C87 C 0.44919 0.03331 0.01649 0.0
C88 C 0.46326 0.03758 0.06259 0.0
C89 C 0.47703 0.0561 0.17545 0.0
H90 H 0.48037 0.06826 0.18502 0.0
H91 H 0.48946 0.05762 0.16692 0.0
H92 H 0.47059 0.04854 0.22356 0.0
O93 O 0.41708 0.04144 0.16423 0.0
O94 O 0.40281 0.02706 0.06542 0.0
H95 H 0.42612 0.01431 0.95418 0.0
H96 H 0.4429 0.01143 0.96837 0.0
C97 C 0.44068 0.02064 0.95832 0.0
H98 H 0.4466 0.02669 0.90682 0.0
H99 H 0.39034 0.0124 0.91475 0.0
O100 O 0.45323 0.06495 0.24442 0.0
C101 C 0.40287 0.02974 0.13147 0.0
Co102 Co 0.00025 0.61519 0.12044 0.0
Co103 Co 0.01959 0.63337 0.98086 0.0
C104 C 0.97977 0.61576 0.00295 0.0
O105 O 0.97934 0.6102 0.06454 0.0
O106 O 0.99429 0.62477 0.96989 0.0
C107 C 0.98795 0.61105 0.25591 0.0
O108 O 0.9835 0.61974 0.22649 0.0
C109 C 0.02039 0.62953 0.8297 0.0
C110 C 0.0422 0.65446 0.7941 0.0
C111 C 0.02883 0.63869 0.76938 0.0
N112 N 0.0284 0.63937 0.88718 0.0
N113 N 0.04159 0.65423 0.86582 0.0
C114 C 0.00375 0.61215 0.83257 0.0
H115 H 0.9933 0.61034 0.7954 0.0
H116 H -0.00125 0.60877 0.88737 0.0
H117 H 0.00663 0.60381 0.81585 0.0
C118 C 0.01482 0.59774 0.08841 0.0
N119 N 0.01206 0.60873 0.07224 0.0
N120 N 0.0212 0.61708 0.016 0.0
C121 C 0.03048 0.61196 0.9956 0.0
C122 C 0.02661 0.59947 0.04046 0.0
C123 C 0.00741 0.58681 0.15198 0.0
H124 H 0.99297 0.58088 0.15493 0.0
H125 H 0.0094 0.57734 0.15011 0.0
H126 H 0.0142 0.59434 0.20099 0.0
O127 O 0.01732 0.63894 0.14155 0.0
O128 O 0.03273 0.65261 0.04617 0.0
H129 H 0.05023 0.63248 0.93269 0.0
H130 H 0.05273 0.61653 0.94045 0.0
C131 C 0.04299 0.61907 0.93513 0.0
H132 H 0.0352 0.6135 0.88438 0.0
H133 H 0.04962 0.66435 0.89978 0.0
O134 O 0.99389 0.60566 0.21649 0.0
C135 C 0.02942 0.65231 0.11162 0.0
Co136 Co 0.41706 0.42283 0.1743 0.0
Co137 Co 0.40373 0.42684 0.02738 0.0
C138 C 0.40693 0.39979 0.05856 0.0
O139 O 0.41312 0.40429 0.12224 0.0
O140 O 0.40286 0.40736 0.02029 0.0
C141 C 0.41628 0.41271 0.31234 0.0
O142 O 0.40229 0.39897 0.28369 0.0
C143 C 0.40969 0.43236 0.87704 0.0
C144 C 0.38707 0.43148 0.83572 0.0
C145 C 0.40161 0.43258 0.81455 0.0
N146 N 0.40042 0.4312 0.93228 0.0
N147 N 0.38705 0.43093 0.90752 0.0
C148 C 0.42479 0.43141 0.88425 0.0
H149 H 0.42674 0.42903 0.94008 0.0
H150 H 0.43734 0.44324 0.86846 0.0
H151 H 0.42225 0.4217 0.84852 0.0
C152 C 0.44696 0.45761 0.14805 0.0
N153 N 0.43189 0.44302 0.1266 0.0
N154 N 0.42605 0.44487 0.06561 0.0
C155 C 0.43724 0.46067 0.04612 0.0
C156 C 0.45089 0.46922 0.0975 0.0
C157 C 0.45643 0.4606 0.21849 0.0
H158 H 0.44817 0.45971 0.26142 0.0
H159 H 0.45815 0.45104 0.22792 0.0
H160 H 0.46967 0.47289 0.22081 0.0
O161 O 0.39378 0.41789 0.18881 0.0
O162 O 0.38398 0.42153 0.08727 0.0
H163 H 0.41933 0.46215 0.98033 0.0
H164 H 0.44168 0.48129 0.99013 0.0
C165 C 0.43373 0.46782 0.98454 0.0
H166 H 0.4374 0.46515 0.93459 0.0
H167 H 0.37741 0.42952 0.93929 0.0
O168 O 0.42635 0.42484 0.27201 0.0
C169 C 0.38214 0.41791 0.15328 0.0
Co170 Co 0.57063 0.98889 0.01598 0.0
Co171 Co 0.58118 0.00741 0.16194 0.0
C172 C 0.58043 0.9779 0.13875 0.0
O173 O 0.57416 0.97478 0.07479 0.0
O174 O 0.5839 0.99014 0.17234 0.0
C175 C 0.55287 0.96993 0.87673 0.0
O176 O 0.53836 0.95732 0.90586 0.0
C177 C 0.57166 0.00313 0.30951 0.0
C178 C 0.5915 0.02762 0.35743 0.0
C179 C 0.57742 0.01156 0.3742 0.0
N180 N 0.58182 0.01367 0.2577 0.0
N181 N 0.59354 0.02835 0.28643 0.0
C182 C 0.5576 0.98513 0.29685 0.0
H183 H 0.5579 0.98159 0.24199 0.0
H184 H 0.54424 0.98194 0.30299 0.0
H185 H 0.55934 0.97803 0.33607 0.0
C186 C 0.5398 0.98969 0.0279 0.0
N187 N 0.55433 0.99157 0.0549 0.0
N188 N 0.55902 -0.00069 0.11664 0.0
C189 C 0.54754 0.00232 0.13134 0.0
C190 C 0.5349 0.99618 0.0761 0.0
C191 C 0.53196 0.98356 0.95432 0.0
H192 H 0.54275 0.98948 0.91542 0.0
H193 H 0.52472 0.97017 0.95243 0.0
H194 H 0.52238 0.98596 0.9391 0.0
O195 O 0.5936 0.0109 0.00772 0.0
O196 O 0.60123 0.02577 0.10588 0.0
H197 H 0.56462 0.02395 0.19616 0.0
H198 H 0.54218 0.01744 0.18271 0.0
C199 C 0.55032 0.01317 0.19109 0.0
H200 H 0.54645 0.00627 0.2417 0.0
H201 H 0.60336 0.0387 0.2581 0.0
O202 O 0.56523 0.98198 0.91472 0.0
C203 C 0.60414 0.02434 0.04175 0.0
Co204 Co 0.70032 0.80069 0.36347 0.0
Co205 Co 0.68314 0.79309 0.5117 0.0
C206 C 0.71477 0.7934 0.48408 0.0
O207 O 0.71652 0.79809 0.4197 0.0
O208 O 0.70235 0.79085 0.52103 0.0
C209 C 0.72156 0.81654 0.23325 0.0
O210 O 0.73529 0.82869 0.27072 0.0
C211 C 0.69013 0.80178 0.6598 0.0
C212 C 0.66358 0.78801 0.70652 0.0
C213 C 0.68174 0.7985 0.72349 0.0
N214 N 0.67765 0.79354 0.60742 0.0
N215 N 0.66175 0.78537 0.63537 0.0
C216 C 0.70978 0.81334 0.64806 0.0
H217 H 0.71236 0.81803 0.59268 0.0
H218 H 0.71651 0.82374 0.68644 0.0
H219 H 0.71555 0.80683 0.65665 0.0
C220 C 0.70197 0.83034 0.37934 0.0
N221 N 0.69864 0.8164 0.40362 0.0
N222 N 0.69106 0.81285 0.46572 0.0
C223 C 0.68933 0.82437 0.48285 0.0
C224 C 0.69631 0.83585 0.42901 0.0
C225 C 0.70852 0.83731 0.30684 0.0
H226 H 0.70196 0.82732 0.26661 0.0
H227 H 0.72314 0.844 0.30675 0.0
H228 H 0.70578 0.846 0.29196 0.0
O229 O 0.67611 0.77949 0.35634 0.0
O230 O 0.66235 0.77385 0.45827 0.0
H231 H 0.66761 0.81193 0.55403 0.0
H232 H 0.67898 0.83373 0.5481 0.0
C233 C 0.68076 0.82412 0.54872 0.0
H234 H 0.6893 0.82623 0.59597 0.0
H235 H 0.64969 0.77778 0.60623 0.0
O236 O 0.70733 0.80521 0.26341 0.0
C237 C 0.66235 0.77028 0.39359 0.0
Co238 Co 0.25921 0.97964 0.38208 0.0
Co239 Co 0.27109 0.97272 0.52604 0.0
C240 C 0.27291 0.00298 0.49899 0.0
O241 O 0.26581 0.99906 0.4363 0.0
O242 O 0.27556 0.99396 0.53371 0.0
C243 C 0.26217 0.99025 0.2433 0.0
O244 O 0.27715 0.00303 0.27247 0.0
C245 C 0.26496 0.96778 0.6769 0.0
C246 C 0.28526 0.96532 0.71797 0.0
C247 C 0.27218 0.96638 0.73939 0.0
N248 N 0.27334 0.96754 0.62145 0.0
N249 N 0.2853 0.96584 0.64614 0.0
C250 C 0.25172 0.97112 0.66991 0.0
H251 H 0.25572 0.98133 0.70604 0.0
H252 H 0.25044 0.97407 0.61421 0.0
H253 H 0.23841 0.96009 0.68536 0.0
C254 C 0.22586 0.94668 0.41083 0.0
N255 N 0.24255 0.95982 0.42947 0.0
N256 N 0.24779 0.95656 0.48826 0.0
C257 C 0.23462 0.94118 0.50862 0.0
C258 C 0.22029 0.93453 0.46064 0.0
C259 C 0.21597 0.94548 0.3442 0.0
H260 H 0.22192 0.94418 0.29778 0.0
H261 H 0.21742 0.95689 0.33721 0.0
H262 H 0.20161 0.93478 0.34559 0.0
O263 O 0.28095 0.98173 0.36707 0.0
O264 O 0.28945 0.97559 0.46493 0.0
H265 H 0.24994 0.93644 0.57434 0.0
H266 H 0.22651 0.9191 0.56281 0.0
C267 C 0.23618 0.9326 0.56962 0.0
H268 H 0.23328 0.93595 0.61973 0.0
H269 H 0.29408 0.96586 0.6143 0.0
O270 O 0.25066 0.97876 0.28357 0.0
C271 C 0.29148 0.97977 0.39961 0.0
Co272 Co 0.07826 0.37304 0.37968 0.0
Co273 Co 0.09544 0.39325 0.52165 0.0
C274 C 0.05545 0.36484 0.49857 0.0
O275 O 0.05633 0.36084 0.43597 0.0
O276 O 0.06928 0.37694 0.53148 0.0
C277 C 0.0657 0.3668 0.23799 0.0
O278 O 0.05707 0.37186 0.26266 0.0
C279 C 0.09965 0.39117 0.67364 0.0
C280 C 0.11418 0.41666 0.71071 0.0
C281 C 0.10553 0.40077 0.73483 0.0
N282 N 0.1045 0.40089 0.61648 0.0
N283 N 0.11347 0.41617 0.63886 0.0
C284 C 0.08774 0.37285 0.66912 0.0
H285 H 0.07572 0.36757 0.70091 0.0
H286 H 0.08376 0.36854 0.61309 0.0
H287 H 0.09495 0.36834 0.69126 0.0
C288 C 0.10428 0.36689 0.41098 0.0
N289 N 0.09654 0.37375 0.42705 0.0
N290 N 0.10461 0.38306 0.48419 0.0
C291 C 0.11807 0.38272 0.50538 0.0
C292 C 0.11816 0.37236 0.45998 0.0
C293 C 0.09892 0.35593 0.34792 0.0
H294 H 0.08416 0.34673 0.34417 0.0
H295 H 0.10507 0.34966 0.35115 0.0
H296 H 0.10328 0.36338 0.29872 0.0
O297 O 0.08658 0.3956 0.36267 0.0
O298 O 0.10041 0.41118 0.45902 0.0
H299 H 0.13333 0.40405 0.57288 0.0
H300 H 0.14312 0.39371 0.5636 0.0
C301 C 0.13045 0.39197 0.56815 0.0
H302 H 0.12397 0.38496 0.61734 0.0
H303 H 0.11814 0.4261 0.60529 0.0
O304 O 0.07435 0.36439 0.28187 0.0
C305 C 0.09512 0.40942 0.39399 0.0
Co306 Co 0.69472 0.96941 0.3494 0.0
Co307 Co 0.67721 0.95616 0.49708 0.0
C308 C 0.70768 0.99217 0.4695 0.0
O309 O 0.71009 0.99016 0.40559 0.0
O310 O 0.69537 0.98015 0.50554 0.0
C311 C 0.71601 0.97897 0.2182 0.0
O312 O 0.73045 0.98369 0.25533 0.0
C313 C 0.68442 0.95532 0.64588 0.0
C314 C 0.65795 0.93851 0.69284 0.0
C315 C 0.6761 0.94897 0.70987 0.0
N316 N 0.6719 0.94913 0.59323 0.0
N317 N 0.65605 0.93895 0.62135 0.0
C318 C 0.70409 0.96668 0.63446 0.0
H319 H 0.70695 0.96522 0.57965 0.0
H320 H 0.71122 0.96431 0.67405 0.0
H321 H 0.70918 0.97949 0.64156 0.0
C322 C 0.69824 0.94273 0.36747 0.0
N323 N 0.69398 0.95214 0.39072 0.0
N324 N 0.68657 0.9467 0.45311 0.0
C325 C 0.68621 0.93391 0.47207 0.0
C326 C 0.69365 0.93105 0.41869 0.0
C327 C 0.70602 0.9445 0.29681 0.0
H328 H 0.69853 0.94574 0.2542 0.0
H329 H 0.72011 0.95568 0.29797 0.0
H330 H 0.70574 0.93393 0.28438 0.0
O331 O 0.67011 0.96222 0.34124 0.0
O332 O 0.65598 0.95107 0.44199 0.0
H333 H 0.66441 0.92114 0.54304 0.0
H334 H 0.67546 0.912 0.53415 0.0
C335 C 0.67749 0.92374 0.53704 0.0
H336 H 0.68607 0.93067 0.58479 0.0
H337 H 0.64396 0.93266 0.5921 0.0
O338 O 0.7016 0.9732 0.24903 0.0
C339 C 0.65607 0.95503 0.3772 0.0
Co340 Co 0.06277 0.77575 0.37976 0.0
Co341 Co 0.07576 0.76941 0.52255 0.0
C342 C 0.03878 0.76103 0.49793 0.0
O343 O 0.04121 0.76689 0.43533 0.0
O344 O 0.05081 0.76122 0.53129 0.0
C345 C 0.05052 0.77007 0.23794 0.0
O346 O 0.03882 0.75539 0.26417 0.0
C347 C 0.08134 0.77596 0.67426 0.0
C348 C 0.08915 0.76094 0.71358 0.0
C349 C 0.08477 0.7707 0.73632 0.0
N350 N 0.08349 0.76955 0.61797 0.0
N351 N 0.08847 0.7608 0.6417 0.0
C352 C 0.07409 0.78533 0.66812 0.0
H353 H 0.07034 0.7858 0.61209 0.0
H354 H 0.08447 0.79811 0.68657 0.0
H355 H 0.06237 0.77973 0.70221 0.0
C356 C 0.0952 0.80942 0.40944 0.0
N357 N 0.08367 0.79354 0.42698 0.0
N358 N 0.08977 0.79085 0.4847 0.0
C359 C 0.10556 0.80493 0.50534 0.0
C360 C 0.10953 0.81721 0.45837 0.0
C361 C 0.09222 0.8169 0.3477 0.0
H362 H 0.07778 0.81094 0.34031 0.0
H363 H 0.09973 0.83026 0.35589 0.0
H364 H 0.09676 0.81488 0.29849 0.0
O365 O 0.0651 0.75839 0.3643 0.0
O366 O 0.07578 0.754 0.46063 0.0
H367 H 0.11532 0.79464 0.57134 0.0
H368 H 0.13148 0.81643 0.55666 0.0
C369 C 0.1172 0.80628 0.56553 0.0
H370 H 0.11342 0.80874 0.61579 0.0
H371 H 0.09038 0.75397 0.60905 0.0
O372 O 0.06127 0.78183 0.28082 0.0
C373 C 0.07035 0.75098 0.39552 0.0
Co374 Co 0.2288 0.32869 0.38618 0.0
Co375 Co 0.2455 0.34759 0.53031 0.0
C376 C 0.23445 0.31338 0.50339 0.0
O377 O 0.22796 0.31171 0.44057 0.0
O378 O 0.2416 0.32652 0.53901 0.0
C379 C 0.22724 0.31846 0.24941 0.0
O380 O 0.23933 0.31757 0.27951 0.0
C381 C 0.24052 0.34745 0.68081 0.0
C382 C 0.2658 0.37044 0.72004 0.0
C383 C 0.24975 0.35632 0.74246 0.0
N384 N 0.25058 0.35592 0.62481 0.0
N385 N 0.26559 0.36977 0.64831 0.0
C386 C 0.2233 0.3304 0.67527 0.0
H387 H 0.22046 0.32561 0.62003 0.0
H388 H 0.21216 0.33042 0.69034 0.0
H389 H 0.22377 0.32221 0.71238 0.0
C390 C 0.20323 0.33514 0.41382 0.0
N391 N 0.2174 0.33575 0.43294 0.0
N392 N 0.22478 0.34427 0.4924 0.0
C393 C 0.21561 0.34949 0.51287 0.0
C394 C 0.2016 0.34379 0.46396 0.0
C395 C 0.19173 0.32663 0.34822 0.0
H396 H 0.18949 0.31489 0.34046 0.0
H397 H 0.17869 0.32425 0.35169 0.0
H398 H 0.19872 0.33444 0.30122 0.0
O399 O 0.25392 0.34765 0.37035 0.0
O400 O 0.26615 0.36254 0.46934 0.0
H401 H 0.23597 0.36966 0.57976 0.0
H402 H 0.21611 0.36817 0.56548 0.0
C403 C 0.22121 0.36107 0.57372 0.0
H404 H 0.21574 0.35399 0.62362 0.0
H405 H 0.27602 0.37838 0.61579 0.0
O406 O 0.2189 0.32141 0.28852 0.0
C407 C 0.26713 0.36013 0.40397 0.0
Co408 Co 0.38536 0.14506 0.72123 0.0
Co409 Co 0.36536 0.13248 0.86333 0.0
C410 C 0.39997 0.1375 0.83986 0.0
O411 O 0.40216 0.14326 0.77729 0.0
O412 O 0.38638 0.13285 0.87477 0.0
C413 C 0.3963 0.14523 0.58637 0.0
O414 O 0.39521 0.13296 0.61456 0.0
C415 C 0.36647 0.13793 0.01376 0.0
C416 C 0.3401 0.11636 0.04817 0.0
C417 C 0.35645 0.13021 0.07358 0.0
N418 N 0.35654 0.12908 0.956 0.0
N419 N 0.34067 0.11632 0.97656 0.0
C420 C 0.38579 0.15247 0.01147 0.0
H421 H 0.39088 0.15428 0.95716 0.0
H422 H 0.38743 0.16364 0.02639 0.0
H423 H 0.39381 0.15096 0.05014 0.0
C424 C 0.38152 0.17085 0.74485 0.0
N425 N 0.38049 0.1579 0.7673 0.0
N426 N 0.37162 0.15236 0.82648 0.0
C427 C 0.36661 0.16153 0.84357 0.0
C428 C 0.37277 0.17359 0.79245 0.0
C429 C 0.38932 0.17943 0.67587 0.0
H430 H 0.40225 0.18176 0.66932 0.0
H431 H 0.39139 0.1912 0.67365 0.0
H432 H 0.38014 0.17143 0.63114 0.0
O433 O 0.36263 0.12291 0.70127 0.0
O434 O 0.34721 0.11406 0.80004 0.0
H435 H 0.34333 0.14369 0.9022 0.0
H436 H 0.34733 0.16306 0.89235 0.0
C437 C 0.3538 0.15715 0.90077 0.0
H438 H 0.36112 0.16122 0.95315 0.0
H439 H 0.33059 0.10719 0.94215 0.0
O440 O 0.39425 0.15371 0.62606 0.0
C441 C 0.34863 0.1121 0.7346 0.0
Co442 Co 0.91514 0.33261 0.685 0.0
Co443 Co 0.92075 0.32397 0.83823 0.0
C444 C 0.92901 0.35656 0.80209 0.0
O445 O 0.92334 0.35292 0.73746 0.0
O446 O 0.9287 0.34643 0.84228 0.0
C447 C 0.89833 0.33397 0.55065 0.0
O448 O 0.88478 0.33081 0.58516 0.0
C449 C 0.9121 0.32145 0.98483 0.0
C450 C 0.92323 0.31025 0.03848 0.0
C451 C 0.91434 0.31668 0.05071 0.0
N452 N 0.91941 0.31816 0.9357 0.0
N453 N 0.92603 0.31141 0.96784 0.0
C454 C 0.90178 0.32771 0.96768 0.0
H455 H 0.8975 0.32568 0.9105 0.0
H456 H 0.88991 0.32154 0.00131 0.0
H457 H 0.91024 0.341 0.97927 0.0
C458 C 0.88079 0.29859 0.69663 0.0
N459 N 0.89567 0.3125 0.72545 0.0
N460 N 0.89806 0.30948 0.79142 0.0
C461 C 0.88449 0.29391 0.80762 0.0
C462 C 0.87319 0.28643 0.74803 0.0
C463 C 0.8761 0.29591 0.61841 0.0
H464 H 0.88836 0.30321 0.58717 0.0
H465 H 0.86768 0.29968 0.60454 0.0
H466 H 0.86843 0.28282 0.60341 0.0
O467 O 0.93512 0.33167 0.68219 0.0
O468 O 0.93906 0.32416 0.78795 0.0
H469 H 0.89489 0.28582 0.88359 0.0
H470 H 0.87074 0.27323 0.87983 0.0
C471 C 0.88331 0.28592 0.87682 0.0
H472 H 0.88373 0.293 0.9214 0.0
H473 H 0.93264 0.30781 0.94183 0.0
O474 O 0.91081 0.33489 0.58379 0.0
C475 C 0.94317 0.32799 0.72286 0.0
Co476 Co 0.75916 0.71628 0.80366 0.0
Co477 Co 0.73974 0.6974 0.66151 0.0
C478 C 0.75572 0.73327 0.68819 0.0
O479 O 0.7625 0.73463 0.75006 0.0
O480 O 0.74694 0.71979 0.65389 0.0
C481 C 0.76277 0.72732 0.9406 0.0
O482 O 0.75221 0.73019 0.91089 0.0
C483 C 0.74461 0.69895 0.51179 0.0
C484 C 0.71984 0.67632 0.46717 0.0
C485 C 0.73592 0.69091 0.4483 0.0
N486 N 0.73415 0.68977 0.56573 0.0
N487 N 0.71936 0.67616 0.53905 0.0
C488 C 0.76302 0.7148 0.52173 0.0
H489 H 0.76872 0.71548 0.57545 0.0
H490 H 0.77187 0.71617 0.48028 0.0
H491 H 0.76247 0.72514 0.51678 0.0
C492 C 0.78021 0.70478 0.774 0.0
N493 N 0.76763 0.70652 0.75591 0.0
N494 N 0.75874 0.69775 0.69832 0.0
C495 C 0.7652 0.68995 0.67821 0.0
C496 C 0.77906 0.69418 0.72536 0.0
C497 C 0.79168 0.71174 0.84074 0.0
H498 H 0.7832 0.70531 0.88738 0.0
H499 H 0.79768 0.72488 0.84573 0.0
H500 H 0.80235 0.71036 0.84163 0.0
O501 O 0.73346 0.69938 0.82049 0.0
O502 O 0.7188 0.68436 0.72342 0.0
H503 H 0.74326 0.67018 0.61495 0.0
H504 H 0.76312 0.6714 0.61521 0.0
C505 C 0.75806 0.67859 0.6153 0.0
H506 H 0.76224 0.68588 0.5657 0.0
H507 H 0.70879 0.66701 0.56958 0.0
O508 O 0.76956 0.72277 0.90112 0.0
C509 C 0.71908 0.68761 0.78894 0.0
Co510 Co 0.30556 0.25917 0.81373 0.0
Co511 Co 0.32461 0.27367 0.67102 0.0
C512 C 0.28806 0.26435 0.69789 0.0
O513 O 0.28696 0.25894 0.76044 0.0
O514 O 0.30179 0.27023 0.6616 0.0
C515 C 0.29245 0.25612 0.9467 0.0
O516 O 0.29088 0.26686 0.91817 0.0
C517 C 0.32183 0.26852 0.52158 0.0
C518 C 0.34786 0.28937 0.48115 0.0
C519 C 0.33094 0.27568 0.45973 0.0
N520 N 0.33265 0.27761 0.57709 0.0
N521 N 0.34828 0.29003 0.55304 0.0
C522 C 0.30331 0.25286 0.52859 0.0
H523 H 0.30191 0.24723 0.58127 0.0
H524 H 0.30007 0.24412 0.48544 0.0
H525 H 0.29358 0.2554 0.52439 0.0
C526 C 0.31322 0.23613 0.78507 0.0
N527 N 0.31251 0.24825 0.76517 0.0
N528 N 0.32145 0.25497 0.70673 0.0
C529 C 0.32836 0.2475 0.68789 0.0
C530 C 0.3233 0.23527 0.73667 0.0
C531 C 0.30664 0.22725 0.85429 0.0
H532 H 0.2928 0.22284 0.86157 0.0
H533 H 0.30699 0.21674 0.85648 0.0
H534 H 0.31517 0.23586 0.89869 0.0
O535 O 0.3271 0.28205 0.83458 0.0
O536 O 0.34133 0.2928 0.7334 0.0
H537 H 0.35134 0.26641 0.63098 0.0
H538 H 0.34708 0.24678 0.62899 0.0
C539 C 0.34082 0.25295 0.62799 0.0
H540 H 0.33327 0.25001 0.57655 0.0
H541 H 0.35902 0.29916 0.58537 0.0
O542 O 0.29724 0.24964 0.90788 0.0
C543 C 0.34009 0.29392 0.8 0.0
Co544 Co 0.75461 0.11779 0.80335 0.0
Co545 Co 0.73803 0.11837 0.657 0.0
C546 C 0.75027 0.09733 0.68753 0.0
O547 O 0.75675 0.10269 0.75031 0.0
O548 O 0.74279 0.1023 0.65216 0.0
C549 C 0.7749 0.1244 0.94672 0.0
O550 O 0.79062 0.13097 0.92099 0.0
C551 C 0.74643 0.12577 0.50862 0.0
C552 C 0.72231 0.121 0.45802 0.0
C553 C 0.73893 0.12537 0.44281 0.0
N554 N 0.73484 0.12186 0.55955 0.0
N555 N 0.7205 0.11918 0.52918 0.0
C556 C 0.76379 0.1287 0.5234 0.0
H557 H 0.76518 0.12134 0.4863 0.0
H558 H 0.76495 0.12577 0.57919 0.0
H559 H 0.775 0.14183 0.5158 0.0
C560 C 0.77963 0.15387 0.77479 0.0
N561 N 0.76567 0.13831 0.75742 0.0
N562 N 0.75778 0.13843 0.69845 0.0
C563 C 0.76617 0.15402 0.67765 0.0
C564 C 0.78036 0.16423 0.72475 0.0
C565 C 0.79159 0.15884 0.83955 0.0
H566 H 0.78339 0.15337 0.88745 0.0
H567 H 0.79933 0.15419 0.83446 0.0
H568 H 0.80101 0.17235 0.84619 0.0
O569 O 0.72906 0.10745 0.81185 0.0
O570 O 0.71632 0.10861 0.71325 0.0
H571 H 0.74579 0.15076 0.60759 0.0
H572 H 0.76528 0.17186 0.6211 0.0
C573 C 0.76053 0.15911 0.6147 0.0
H574 H 0.76642 0.15856 0.56609 0.0
H575 H 0.70925 0.11555 0.55664 0.0
O576 O 0.76159 0.11962 0.90555 0.0
C577 C 0.71552 0.10462 0.77848 0.0
Co578 Co 0.88833 0.64802 0.6853 0.0
Co579 Co 0.89733 0.66384 0.83658 0.0
C580 C 0.89798 0.63557 0.80295 0.0
O581 O 0.89233 0.63369 0.73849 0.0
O582 O 0.90047 0.64674 0.84203 0.0
C583 C 0.87028 0.62842 0.55166 0.0
O584 O 0.85719 0.61583 0.5869 0.0
C585 C 0.88784 0.65719 0.9829 0.0
C586 C 0.90333 0.68142 0.03536 0.0
C587 C 0.89148 0.66475 0.04829 0.0
N588 N 0.89717 0.66874 0.93346 0.0
N589 N 0.90639 0.68326 0.96485 0.0
C590 C 0.87492 0.63924 0.96661 0.0
H591 H 0.87003 0.63714 0.91021 0.0
H592 H 0.86348 0.63315 0.00252 0.0
H593 H 0.88171 0.63364 0.97518 0.0
C594 C 0.85707 0.64802 0.69896 0.0
N595 N 0.87139 0.64957 0.72614 0.0
N596 N 0.87546 0.65629 0.79001 0.0
C597 C 0.86379 0.65899 0.80596 0.0
C598 C 0.85169 0.65378 0.74902 0.0
C599 C 0.84974 0.64264 0.6242 0.0
H600 H 0.86076 0.64949 0.58633 0.0
H601 H 0.84325 0.62943 0.61876 0.0
H602 H 0.83962 0.64444 0.61029 0.0
O603 O 0.91116 0.67033 0.68143 0.0
O604 O 0.9178 0.68302 0.78571 0.0
H605 H 0.88015 0.68 0.87445 0.0
H606 H 0.85733 0.67256 0.86463 0.0
C607 C 0.86605 0.66885 0.86911 0.0
H608 H 0.86278 0.66147 0.91807 0.0
H609 H 0.91492 0.69436 0.93845 0.0
O610 O 0.88282 0.64146 0.58411 0.0
C611 C 0.92131 0.68301 0.72075 0.0
H612 H 0.07567 0.51206 0.80051 0.0
H613 H 0.06487 0.46541 0.77013 0.0
H614 H 0.0682 0.51217 0.67523 0.0
H615 H 0.05794 0.46579 0.6442 0.0
H616 H 0.02184 0.45993 0.46025 0.0
H617 H 0.03292 0.46195 0.5818 0.0
H618 H 0.0754 0.51351 0.55233 0.0
H619 H 0.06366 0.51164 0.43198 0.0
C620 C 0.07215 0.50202 0.76674 0.0
C621 C 0.07059 0.48859 0.79553 0.0
C622 C 0.06789 0.50211 0.69477 0.0
C623 C 0.06212 0.48883 0.65006 0.0
C624 C 0.06187 0.476 0.67775 0.0
C625 C 0.06603 0.47586 0.74977 0.0
C626 C 0.03344 0.47173 0.47998 0.0
C627 C 0.04211 0.48555 0.436 0.0
C628 C 0.03996 0.47284 0.54926 0.0
C629 C 0.0553 0.48782 0.57626 0.0
C630 C 0.06363 0.50177 0.53301 0.0
C631 C 0.05705 0.50066 0.46366 0.0
H632 H 0.5538 0.61987 0.83812 0.0
H633 H 0.59763 0.67114 0.81088 0.0
H634 H 0.55626 0.61445 0.71506 0.0
H635 H 0.5998 0.66577 0.6876 0.0
H636 H 0.61554 0.64725 0.51376 0.0
H637 H 0.61033 0.65227 0.6326 0.0
H638 H 0.5534 0.61862 0.58902 0.0
H639 H 0.55865 0.61303 0.47119 0.0
C640 C 0.56367 0.63005 0.80541 0.0
C641 C 0.57566 0.64592 0.83459 0.0
C642 C 0.56508 0.62693 0.7348 0.0
C643 C 0.57846 0.63962 0.6919 0.0
C644 C 0.58965 0.65565 0.71979 0.0
C645 C 0.58829 0.65875 0.7903 0.0
C646 C 0.6019 0.64082 0.52973 0.0
C647 C 0.58752 0.63002 0.48242 0.0
C648 C 0.59891 0.64386 0.59752 0.0
C649 C 0.58144 0.63611 0.61985 0.0
C650 C 0.56702 0.62487 0.57336 0.0
C651 C 0.57003 0.62183 0.50541 0.0
H652 H 0.39834 0.03254 0.68284 0.0
H653 H 0.45008 0.04473 0.72969 0.0
H654 H 0.40755 0.04349 0.56308 0.0
H655 H 0.45961 0.05636 0.61097 0.0
H656 H 0.45972 0.05648 0.36176 0.0
H657 H 0.45386 0.04795 0.48592 0.0
H658 H 0.42777 0.07008 0.50643 0.0
H659 H 0.43329 0.07832 0.38201 0.0
C660 C 0.4117 0.0376 0.66753 0.0
C661 C 0.42362 0.03812 0.71611 0.0
C662 C 0.41706 0.04407 0.59932 0.0
C663 C 0.43444 0.05111 0.57805 0.0
C664 C 0.44618 0.05113 0.62591 0.0
C665 C 0.4408 0.04465 0.69424 0.0
C666 C 0.45306 0.05982 0.39315 0.0
C667 C 0.44676 0.06789 0.36178 0.0
C668 C 0.4497 0.05493 0.46435 0.0
C669 C 0.44003 0.05806 0.50554 0.0
C670 C 0.43485 0.06713 0.47549 0.0
C671 C 0.43817 0.07198 0.40438 0.0
H672 H 0.01765 0.61021 0.70347 0.0
H673 H 0.0271 0.65611 0.66491 0.0
H674 H 0.00507 0.60111 0.58253 0.0
H675 H 0.01535 0.64739 0.54285 0.0
H676 H 0.0044 0.60088 0.33378 0.0
H677 H 0.01392 0.60675 0.45919 0.0
H678 H 0.98674 0.62783 0.48082 0.0
H679 H 0.97756 0.62231 0.35515 0.0
C680 C 0.01689 0.6183 0.66935 0.0
C681 C 0.02289 0.63369 0.69418 0.0
C682 C 0.00992 0.61317 0.59973 0.0
C683 C 0.00892 0.62341 0.55345 0.0
C684 C 0.01551 0.63904 0.57773 0.0
C685 C 0.02247 0.64414 0.64728 0.0
C686 C 0.00015 0.60647 0.36561 0.0
C687 C 0.9904 0.61131 0.33428 0.0
C688 C 0.00561 0.60983 0.43756 0.0
C689 C 0.00138 0.61805 0.47959 0.0
C690 C 0.99061 0.62187 0.44935 0.0
C691 C 0.98519 0.61855 0.37748 0.0
H692 H 0.39614 0.38987 0.41385 0.0
H693 H 0.43887 0.44147 0.38663 0.0
H694 H 0.39392 0.395 0.53755 0.0
H695 H 0.43631 0.44663 0.50967 0.0
H696 H 0.43395 0.44831 0.75199 0.0
H697 H 0.43948 0.44272 0.6349 0.0
H698 H 0.38259 0.40791 0.59187 0.0
H699 H 0.37715 0.4129 0.71039 0.0
C700 C 0.40524 0.40227 0.43454 0.0
C701 C 0.41752 0.41529 0.39019 0.0
C702 C 0.40385 0.40523 0.50519 0.0
C703 C 0.41466 0.42127 0.53289 0.0
C704 C 0.42779 0.43413 0.49 0.0
C705 C 0.42924 0.43116 0.41937 0.0
C706 C 0.42266 0.43925 0.71804 0.0
C707 C 0.40513 0.43071 0.74099 0.0
C708 C 0.42582 0.4362 0.65058 0.0
C709 C 0.41148 0.42464 0.60459 0.0
C710 C 0.39394 0.41656 0.62676 0.0
C711 C 0.39081 0.41959 0.69419 0.0
H712 H 0.58151 0.98067 0.79959 0.0
H713 H 0.5276 0.96468 0.78043 0.0
H714 H 0.58634 0.98952 0.67604 0.0
H715 H 0.53261 0.97445 0.65753 0.0
H716 H 0.54433 0.98525 0.42157 0.0
H717 H 0.53752 0.97266 0.53811 0.0
H718 H 0.59141 0.01147 0.61304 0.0
H719 H 0.59862 0.02314 0.49452 0.0
C720 C 0.57061 0.97885 0.76821 0.0
C721 C 0.55417 0.97192 0.79895 0.0
C722 C 0.57344 0.98417 0.69777 0.0
C723 C 0.56004 0.98313 0.65696 0.0
C724 C 0.54323 0.97539 0.68692 0.0
C725 C 0.54028 0.96972 0.75723 0.0
C726 C 0.55491 0.99083 0.46198 0.0
C727 C 0.57228 0.00482 0.44736 0.0
C728 C 0.55087 0.98376 0.5297 0.0
C729 C 0.564 0.99077 0.58503 0.0
C730 C 0.58109 0.00532 0.57132 0.0
C731 C 0.58518 0.0122 0.50341 0.0
H732 H 0.707 0.79623 0.7773 0.0
H733 H 0.67513 0.81108 0.83193 0.0
H734 H 0.72053 0.80329 0.89756 0.0
H735 H 0.6888 0.81824 0.95296 0.0
H736 H 0.72931 0.84127 0.14608 0.0
H737 H 0.72172 0.83884 0.01763 0.0
H738 H 0.70446 0.78935 0.01829 0.0
H739 H 0.71152 0.79164 0.14618 0.0
C740 C 0.70319 0.80134 0.81469 0.0
C741 C 0.69021 0.80333 0.79545 0.0
C742 C 0.71086 0.80529 0.88342 0.0
C743 C 0.70583 0.81146 0.9339 0.0
C744 C 0.69309 0.81375 0.91438 0.0
C745 C 0.68517 0.80953 0.84573 0.0
C746 C 0.7244 0.8301 0.11797 0.0
C747 C 0.72114 0.81668 0.15514 0.0
C748 C 0.71989 0.82865 0.04507 0.0
C749 C 0.71249 0.8139 0.00859 0.0
C750 C 0.71027 0.80087 0.04522 0.0
C751 C 0.71434 0.80219 0.11809 0.0
H752 H 0.24058 0.95421 0.80199 0.0
H753 H 0.29745 0.9839 0.84452 0.0
H754 H 0.23668 0.9609 0.91997 0.0
H755 H 0.29352 0.98995 0.96378 0.0
H756 H 0.23707 0.9621 0.1683 0.0
H757 H 0.23863 0.95598 0.04536 0.0
H758 H 0.28599 0.00586 0.01929 0.0
H759 H 0.28469 0.01189 0.14261 0.0
C760 C 0.25226 0.96227 0.8363 0.0
C761 C 0.26938 0.96891 0.81329 0.0
C762 C 0.25 0.96592 0.90432 0.0
C763 C 0.26483 0.9762 0.95088 0.0
C764 C 0.28187 0.98234 0.92859 0.0
C765 C 0.28411 0.9787 0.86064 0.0
C766 C 0.24762 0.97185 0.13594 0.0
C767 C 0.26087 0.98744 0.16549 0.0
C768 C 0.24851 0.96833 0.0654 0.0
C769 C 0.26263 0.98035 0.02295 0.0
C770 C 0.2752 0.99621 0.05119 0.0
C771 C 0.27435 -0.00028 0.12167 0.0
H772 H 0.09567 0.41275 0.83166 0.0
H773 H 0.10387 0.3765 0.80665 0.0
H774 H 0.08481 0.4026 0.9508 0.0
H775 H 0.09205 0.36569 0.92428 0.0
H776 H 0.04977 0.37205 0.12994 0.0
H777 H 0.05903 0.37916 0.00709 0.0
H778 H 0.09908 0.37239 0.04927 0.0
H779 H 0.08949 0.36483 0.1716 0.0
C780 C 0.0951 0.40257 0.85154 0.0
C781 C 0.10022 0.39517 0.80901 0.0
C782 C 0.08862 0.39658 0.91945 0.0
C783 C 0.08717 0.38308 0.94659 0.0
C784 C 0.09287 0.37603 0.9049 0.0
C785 C 0.0994 0.38207 0.83694 0.0
C786 C 0.06032 0.37177 0.11266 0.0
C787 C 0.06899 0.36801 0.16078 0.0
C788 C 0.06576 0.37602 0.04241 0.0
C789 C 0.08005 0.37669 0.01869 0.0
C790 C 0.08801 0.37197 0.06563 0.0
C791 C 0.0825 0.36763 0.13589 0.0
H792 H 0.72606 0.96483 0.13493 0.0
H793 H 0.70287 0.98985 0.12744 0.0
H794 H 0.71832 0.95798 0.00732 0.0
H795 H 0.69566 0.9835 0.00023 0.0
H796 H 0.69952 0.98012 0.75943 0.0
H797 H 0.7128 0.9892 0.87969 0.0
H798 H 0.68466 0.9389 0.94344 0.0
H799 H 0.67116 0.92975 0.8225 0.0
C800 C 0.7199 0.96933 0.10529 0.0
C801 C 0.7152 0.978 0.14013 0.0
C802 C 0.71531 0.96528 0.03289 0.0
C803 C 0.7064 0.97021 0.99448 0.0
C804 C 0.70264 0.97967 0.0287 0.0
C805 C 0.7068 0.98334 0.10116 0.0
C806 C 0.69644 0.97101 0.79873 0.0
C807 C 0.68451 0.95425 0.78186 0.0
C808 C 0.70397 0.97621 0.86742 0.0
C809 C 0.69988 0.96474 0.9202 0.0
C810 C 0.68821 0.94796 0.90309 0.0
C811 C 0.6804 0.94273 0.83447 0.0
H812 H 0.09106 0.79725 0.80437 0.0
H813 H 0.06973 0.74694 0.83666 0.0
H814 H 0.08134 0.79787 0.92179 0.0
H815 H 0.06086 0.74779 0.95547 0.0
H816 H 0.03041 0.74747 0.13222 0.0
H817 H 0.03879 0.74852 0.01004 0.0
H818 H 0.08748 0.79754 0.04759 0.0
H819 H 0.07888 0.79665 0.16938 0.0
C820 C 0.08418 0.78628 0.83622 0.0
C821 C 0.0807 0.7719 0.81033 0.0
C822 C 0.07884 0.78671 0.90405 0.0
C823 C 0.07002 0.77279 0.94766 0.0
C824 C 0.06718 0.7586 0.92261 0.0
C825 C 0.07249 0.75818 0.85486 0.0
C826 C 0.04275 0.75859 0.11407 0.0
C827 C 0.05403 0.77193 0.16076 0.0
C828 C 0.04765 0.75913 0.0442 0.0
C829 C 0.06399 0.77299 0.01939 0.0
C830 C 0.07479 0.78669 0.06483 0.0
C831 C 0.06985 0.78618 0.13474 0.0
H832 H 0.27224 0.36007 0.84827 0.0
H833 H 0.21736 0.34015 0.80499 0.0
H834 H 0.26478 0.34895 0.96845 0.0
H835 H 0.20965 0.32828 0.92384 0.0
H836 H 0.20968 0.32752 0.17199 0.0
H837 H 0.21425 0.33623 0.04813 0.0
H838 H 0.24853 0.32246 0.02613 0.0
H839 H 0.24433 0.31413 0.15051 0.0
C840 C 0.25857 0.35328 0.86447 0.0
C841 C 0.24529 0.35063 0.81676 0.0
C842 C 0.25423 0.34671 0.93289 0.0
C843 C 0.23654 0.33742 0.95515 0.0
C844 C 0.22338 0.33528 0.90817 0.0
C845 C 0.22774 0.34188 0.83972 0.0
C846 C 0.21791 0.32604 0.14037 0.0
C847 C 0.22682 0.32032 0.17132 0.0
C848 C 0.22053 0.33104 0.0693 0.0
C849 C 0.23203 0.33033 0.02774 0.0
C850 C 0.23995 0.32355 0.05737 0.0
C851 C 0.23739 0.31862 0.12843 0.0
H852 H 0.39817 0.12779 0.4852 0.0
H853 H 0.39132 0.16498 0.51078 0.0
H854 H 0.38995 0.12549 0.35893 0.0
H855 H 0.38263 0.16235 0.38511 0.0
H856 H 0.34912 0.10823 0.17563 0.0
H857 H 0.36147 0.11379 0.29727 0.0
H858 H 0.3911 0.16571 0.26217 0.0
H859 H 0.37797 0.16004 0.14166 0.0
C860 C 0.3952 0.13566 0.46369 0.0
C861 C 0.39515 0.14639 0.50817 0.0
C862 C 0.39031 0.13423 0.39153 0.0
C863 C 0.38525 0.14347 0.3625 0.0
C864 C 0.38647 0.15506 0.40584 0.0
C865 C 0.39143 0.15655 0.47797 0.0
C866 C 0.35813 0.12082 0.19419 0.0
C867 C 0.3629 0.13373 0.14875 0.0
C868 C 0.36543 0.12402 0.26345 0.0
C869 C 0.37759 0.14022 0.28878 0.0
C870 C 0.38188 0.15311 0.24402 0.0
C871 C 0.37453 0.14988 0.17471 0.0
H872 H 0.87035 0.31212 0.46067 0.0
H873 H 0.92604 0.3542 0.46609 0.0
H874 H 0.87221 0.30782 0.33396 0.0
H875 H 0.92782 0.35017 0.33995 0.0
H876 H 0.92126 0.34464 0.09952 0.0
H877 H 0.9146 0.34954 0.21577 0.0
H878 H 0.89117 0.29987 0.27649 0.0
H879 H 0.89779 0.29492 0.15927 0.0
C880 C 0.88277 0.32076 0.43402 0.0
C881 C 0.89804 0.33355 0.47244 0.0
C882 C 0.88388 0.3182 0.36209 0.0
C883 C 0.90017 0.32863 0.32762 0.0
C884 C 0.91508 0.34202 0.36518 0.0
C885 C 0.91407 0.34435 0.43714 0.0
C886 C 0.91432 0.33466 0.13704 0.0
C887 C 0.90979 0.31933 0.12036 0.0
C888 C 0.91063 0.3375 0.20361 0.0
C889 C 0.90223 0.32503 0.25457 0.0
C890 C 0.8974 0.30959 0.23752 0.0
C891 C 0.90133 0.30681 0.17106 0.0
H892 H 0.77554 0.71359 0.01729 0.0
H893 H 0.74973 0.73595 0.04013 0.0
H894 H 0.77053 0.70564 0.14249 0.0
H895 H 0.74462 0.72789 0.16479 0.0
H896 H 0.74998 0.72149 0.40085 0.0
H897 H 0.75965 0.73231 0.28151 0.0
H898 H 0.74296 0.6852 0.21028 0.0
H899 H 0.73377 0.67449 0.33122 0.0
C900 C 0.76911 0.71709 0.04929 0.0
C901 C 0.76293 0.72532 0.0187 0.0
C902 C 0.76608 0.71238 0.12074 0.0
C903 C 0.75699 0.71596 0.16307 0.0
C904 C 0.75174 0.72501 0.13356 0.0
C905 C 0.75465 0.72962 0.06209 0.0
C906 C 0.74878 0.71355 0.36023 0.0
C907 C 0.74155 0.69727 0.37554 0.0
C908 C 0.7541 0.71969 0.29164 0.0
C909 C 0.7522 0.70965 0.23673 0.0
C910 C 0.74487 0.6933 0.25193 0.0
C911 C 0.73946 0.68713 0.32073 0.0
H912 H 0.28569 0.27031 0.04654 0.0
H913 H 0.30159 0.2395 0.02347 0.0
H914 H 0.29351 0.27332 0.17339 0.0
H915 H 0.30926 0.24244 0.15066 0.0
H916 H 0.34658 0.27441 0.34452 0.0
H917 H 0.33424 0.26675 0.222 0.0
H918 H 0.28648 0.25894 0.28807 0.0
H919 H 0.29904 0.2671 0.40913 0.0
C920 C 0.29044 0.26386 0.06881 0.0
C921 C 0.29327 0.25487 0.02486 0.0
C922 C 0.29491 0.26557 0.14149 0.0
C923 C 0.30227 0.25833 0.17142 0.0
C924 C 0.30393 0.2484 0.12849 0.0
C925 C 0.29939 0.24662 0.05586 0.0
C926 C 0.33343 0.27099 0.33253 0.0
C927 C 0.32358 0.27097 0.38621 0.0
C928 C 0.3263 0.26645 0.26289 0.0
C929 C 0.3093 0.26206 0.24592 0.0
C930 C 0.29956 0.2622 0.29974 0.0
C931 C 0.30667 0.26667 0.36918 0.0
H932 H 0.77375 0.14416 0.39732 0.0
H933 H 0.71887 0.10999 0.32187 0.0
H934 H 0.78376 0.14296 0.28275 0.0
H935 H 0.72887 0.1101 0.2047 0.0
H936 H 0.74817 0.09916 0.02192 0.0
H937 H 0.74061 0.09974 0.14357 0.0
H938 H 0.78751 0.15043 0.16374 0.0
H939 H 0.79556 0.1493 0.04308 0.0
C940 C 0.76376 0.13621 0.35684 0.0
C941 C 0.74544 0.12653 0.37037 0.0
C942 C 0.76956 0.13583 0.29005 0.0
C943 C 0.75717 0.12613 0.23432 0.0
C944 C 0.73886 0.11724 0.24678 0.0
C945 C 0.73309 0.11738 0.31391 0.0
C946 C 0.75706 0.11027 0.05332 0.0
C947 C 0.77248 0.12414 0.02376 0.0
C948 C 0.75261 0.11073 0.12266 0.0
C949 C 0.76317 0.12526 0.16341 0.0
C950 C 0.77908 0.13897 0.13453 0.0
C951 C 0.78376 0.13836 0.06545 0.0
H952 H 0.84378 0.62248 0.46136 0.0
H953 H 0.89676 0.63607 0.46801 0.0
H954 H 0.84657 0.62923 0.33369 0.0
H955 H 0.89938 0.64234 0.34087 0.0
H956 H 0.89212 0.64044 0.09929 0.0
H957 H 0.88379 0.62796 0.21711 0.0
H958 H 0.87001 0.65901 0.27418 0.0
H959 H 0.87844 0.6716 0.15567 0.0
C960 C 0.85571 0.62633 0.43476 0.0
C961 C 0.87 0.62862 0.47357 0.0
C962 C 0.85738 0.63034 0.36232 0.0
C963 C 0.8732 0.63631 0.32792 0.0
C964 C 0.88701 0.63763 0.36612 0.0
C965 C 0.88551 0.63402 0.43857 0.0
C966 C 0.88694 0.64435 0.1364 0.0
C967 C 0.88569 0.65682 0.11841 0.0
C968 C 0.88227 0.63726 0.20378 0.0
C969 C 0.8761 0.64242 0.25411 0.0
C970 C 0.87447 0.65466 0.23568 0.0
C971 C 0.87943 0.66195 0.16847 0.0
H972 H 0.00849 0.5674 0.00958 0.0
H973 H 0.06084 0.61124 0.06899 0.0
H974 H 0.02015 0.55192 0.00993 0.0
H975 H 0.07267 0.59581 0.0695 0.0
H976 H 0.07515 0.5541 0.16002 0.0
H977 H 0.06783 0.57293 0.14577 0.0
H978 H 0.04162 0.55052 0.94216 0.0
H979 H 0.04885 0.53168 0.95695 0.0
C980 C 0.02253 0.57367 0.02224 0.0
C981 C 0.03385 0.59039 0.03909 0.0
C982 C 0.02923 0.5649 0.02196 0.0
C983 C 0.04734 0.57272 0.03928 0.0
C984 C 0.05867 0.58951 0.05606 0.0
C985 C 0.05196 0.59831 0.05559 0.0
C986 C 0.06822 0.55355 0.11157 0.0
C987 C 0.06261 0.54159 0.05942 0.0
C988 C 0.06405 0.56428 0.10333 0.0
C989 C 0.05404 0.56306 0.04311 0.0
C990 C 0.0492 0.5516 0.98937 0.0
C991 C 0.05349 0.54097 0.99741 0.0
H992 H 0.45075 0.48899 0.18906 0.0
H993 H 0.48017 0.48931 0.01911 0.0
H994 H 0.47131 0.51886 0.1943 0.0
H995 H 0.50157 0.51913 0.02664 0.0
H996 H 0.52788 0.57262 0.00755 0.0
H997 H 0.50538 0.54306 0.00043 0.0
H998 H 0.49988 0.54146 0.22897 0.0
H999 H 0.52119 0.57118 0.23446 0.0
C1000 C 0.46189 0.49557 0.15378 0.0
C1001 C 0.46411 0.48708 0.10407 0.0
C1002 C 0.47373 0.51265 0.15681 0.0
C1003 C 0.48818 0.52152 0.11087 0.0
C1004 C 0.49043 0.51281 0.06183 0.0
C1005 C 0.47837 0.49575 0.05797 0.0
C1006 C 0.52146 0.56598 0.05586 0.0
C1007 C 0.5262 0.5742 0.12152 0.0
C1008 C 0.50882 0.54896 0.05211 0.0
C1009 C 0.50089 0.53974 0.11423 0.0
C1010 C 0.50548 0.54807 0.17979 0.0
C1011 C 0.51786 0.56512 0.1832 0.0
H1012 H 0.50433 0.98326 0.14431 0.0
H1013 H 0.53832 0.01828 0.98427 0.0
H1014 H 0.48587 0.99231 0.13695 0.0
H1015 H 0.52058 0.02804 0.97877 0.0
H1016 H 0.47782 0.03453 0.94827 0.0
H1017 H 0.49325 0.02256 0.9451 0.0
H1018 H 0.488 0.01511 0.17307 0.0
H1019 H 0.47144 0.02592 0.17475 0.0
C1020 C 0.50762 0.99275 0.10686 0.0
C1021 C 0.52244 -3e-05 0.06409 0.0
C1022 C 0.49727 0.99811 0.10322 0.0
C1023 C 0.50183 0.01104 0.05777 0.0
C1024 C 0.51649 0.01791 0.01358 0.0
C1025 C 0.52667 0.01238 0.01662 0.0
C1026 C 0.47984 0.03016 0.99745 0.0
C1027 C 0.47351 0.03119 0.06177 0.0
C1028 C 0.48884 0.02346 0.99585 0.0
C1029 C 0.49187 0.01781 0.0588 0.0
C1030 C 0.48565 0.01904 0.12329 0.0
C1031 C 0.47645 0.02554 0.12462 0.0
H1032 H 0.72507 0.86788 0.42513 0.0
H1033 H 0.66751 0.83541 0.4183 0.0
H1034 H 0.72511 0.89159 0.41878 0.0
H1035 H 0.66743 0.85901 0.41138 0.0
H1036 H 0.67618 0.90544 0.32576 0.0
H1037 H 0.67723 0.88238 0.32404 0.0
H1038 H 0.71491 0.9036 0.50353 0.0
H1039 H 0.71369 0.92656 0.50524 0.0
C1040 C 0.71247 0.8659 0.42198 0.0
C1041 C 0.6963 0.85 0.42283 0.0
C1042 C 0.71247 0.87937 0.41859 0.0
C1043 C 0.69627 0.87707 0.41473 0.0
C1044 C 0.68009 0.86109 0.41385 0.0
C1045 C 0.68011 0.84764 0.41822 0.0
C1046 C 0.68478 0.90516 0.36422 0.0
C1047 C 0.69497 0.91767 0.41526 0.0
C1048 C 0.68531 0.892 0.36356 0.0
C1049 C 0.69619 0.89128 0.41354 0.0
C1050 C 0.70658 0.90398 0.46396 0.0
C1051 C 0.70585 0.91702 0.46516 0.0
H1052 H 0.13029 0.83468 0.34605 0.0
H1053 H 0.12521 0.83849 0.57079 0.0
H1054 H 0.15667 0.86333 0.34508 0.0
H1055 H 0.15214 0.86698 0.57106 0.0
H1056 H 0.18996 0.92201 0.53002 0.0
H1057 H 0.16274 0.89354 0.52868 0.0
H1058 H 0.18726 0.88065 0.3869 0.0
H1059 H 0.21411 0.90925 0.38688 0.0
C1060 C 0.13484 0.8417 0.39522 0.0
C1061 C 0.12571 0.83447 0.4584 0.0
C1062 C 0.15007 0.85804 0.39493 0.0
C1063 C 0.15654 0.86746 0.45801 0.0
C1064 C 0.14739 0.86014 0.52135 0.0
C1065 C 0.1321 0.8438 0.52148 0.0
C1066 C 0.18932 0.91301 0.49835 0.0
C1067 C 0.20384 0.91759 0.4582 0.0
C1068 C 0.17388 0.89674 0.49794 0.0
C1069 C 0.17283 0.88481 0.45775 0.0
C1070 C 0.18751 0.88956 0.41751 0.0
C1071 C 0.20287 0.90585 0.41762 0.0
H1072 H 0.17998 0.33858 0.56957 0.0
H1073 H 0.19498 0.35741 0.35618 0.0
H1074 H 0.15952 0.34549 0.56954 0.0
H1075 H 0.17459 0.36438 0.35596 0.0
H1076 H 0.15298 0.39193 0.42618 0.0
H1077 H 0.1732 0.3847 0.42661 0.0
H1078 H 0.13071 0.33618 0.49965 0.0
H1079 H 0.11054 0.34346 0.49837 0.0
C1080 C 0.1788 0.34415 0.5227 0.0
C1081 C 0.18887 0.34742 0.46276 0.0
C1082 C 0.16711 0.34803 0.52254 0.0
C1083 C 0.16554 0.35547 0.46277 0.0
C1084 C 0.17567 0.35874 0.40282 0.0
C1085 C 0.18717 0.35465 0.40268 0.0
C1086 C 0.1481 0.37977 0.44242 0.0
C1087 C 0.13039 0.36821 0.46241 0.0
C1088 C 0.15955 0.37561 0.44232 0.0
C1089 C 0.15345 0.35989 0.46309 0.0
C1090 C 0.13573 0.34841 0.48391 0.0
C1091 C 0.12423 0.35251 0.48305 0.0
H1092 H 0.35716 0.24808 0.77721 0.0
H1093 H 0.30616 0.20285 0.71626 0.0
H1094 H 0.37006 0.23368 0.78998 0.0
H1095 H 0.31898 0.18833 0.72864 0.0
H1096 H 0.35421 0.17337 0.67858 0.0
H1097 H 0.3424 0.18866 0.66504 0.0
H1098 H 0.36615 0.21168 0.87038 0.0
H1099 H 0.37799 0.19635 0.88356 0.0
C1100 C 0.34878 0.23503 0.76671 0.0
C1101 C 0.33078 0.22646 0.74558 0.0
C1102 C 0.35609 0.22681 0.77421 0.0
C1103 C 0.34552 0.20994 0.75998 0.0
C1104 C 0.32745 0.20139 0.73911 0.0
C1105 C 0.3201 0.2096 0.73238 0.0
C1106 C 0.35712 0.18191 0.72012 0.0
C1107 C 0.3671 0.1839 0.78174 0.0
C1108 C 0.35022 0.19049 0.7128 0.0
C1109 C 0.35332 0.20127 0.76682 0.0
C1110 C 0.36368 0.20352 0.82779 0.0
C1111 C 0.37043 0.1948 0.83539 0.0
H1112 H 0.83889 0.27011 0.69713 0.0
H1113 H 0.8771 0.26288 0.77034 0.0
H1114 H 0.81603 0.24041 0.68309 0.0
H1115 H 0.85434 0.23341 0.76044 0.0
H1116 H 0.81451 0.18158 0.68507 0.0
H1117 H 0.83682 0.21134 0.68033 0.0
H1118 H 0.79808 0.21659 0.75529 0.0
H1119 H 0.77566 0.18676 0.75648 0.0
C1120 C 0.84231 0.26212 0.71034 0.0
C1121 C 0.85954 0.26864 0.7362 0.0
C1122 C 0.82926 0.24515 0.7029 0.0
C1123 C 0.83328 0.23448 0.72118 0.0
C1124 C 0.85076 0.24119 0.74507 0.0
C1125 C 0.86376 0.25807 0.75178 0.0
C1126 C 0.81087 0.18921 0.69999 0.0
C1127 C 0.79358 0.18212 0.72132 0.0
C1128 C 0.8236 0.20621 0.69771 0.0
C1129 C 0.81931 0.21641 0.71791 0.0
C1130 C 0.8018 0.20915 0.7384 0.0
C1131 C 0.78901 0.19212 0.73977 0.0
H1132 H 0.76587 0.66251 0.74113 0.0
H1133 H 0.81477 0.71127 0.71412 0.0
H1134 H 0.78247 0.65152 0.74172 0.0
H1135 H 0.83154 0.70045 0.71593 0.0
H1136 H 0.85334 0.67403 0.65003 0.0
H1137 H 0.835 0.68321 0.64141 0.0
H1138 H 0.80465 0.65237 0.81919 0.0
H1139 H 0.82288 0.64304 0.82656 0.0
C1140 C 0.7802 0.67083 0.73531 0.0
C1141 C 0.78913 0.68766 0.7272 0.0
C1142 C 0.78969 0.66459 0.73603 0.0
C1143 C 0.80829 0.67511 0.72848 0.0
C1144 C 0.81719 0.69201 0.72074 0.0
C1145 C 0.80768 0.69823 0.7203 0.0
C1146 C 0.84247 0.66898 0.68602 0.0
C1147 C 0.83926 0.6577 0.73827 0.0
C1148 C 0.83214 0.67436 0.68178 0.0
C1149 C 0.81845 0.66857 0.72988 0.0
C1150 C 0.81497 0.65692 0.78094 0.0
C1151 C 0.82536 0.65159 0.78527 0.0
H1152 H 0.10735 0.43958 0.44481 0.0
H1153 H 0.0889 0.4104 0.25186 0.0
H1154 H 0.10743 0.46032 0.38036 0.0
H1155 H 0.08854 0.43076 0.1886 0.0
H1156 H 0.09281 0.47123 0.07816 0.0
H1157 H 0.10396 0.45804 0.14061 0.0
H1158 H 0.08302 0.46002 0.3371 0.0
H1159 H 0.07236 0.47337 0.27575 0.0
C1160 C 0.10358 0.43769 0.38856 0.0
C1161 C 0.09782 0.4232 0.35392 0.0
C1162 C 0.10356 0.44954 0.35167 0.0
C1163 C 0.0978 0.44713 0.27946 0.0
C1164 C 0.09321 0.43314 0.24388 0.0
C1165 C 0.09322 0.42133 0.28058 0.0
C1166 C 0.09096 0.46914 0.13496 0.0
C1167 C 0.08145 0.4731 0.17168 0.0
C1168 C 0.09726 0.46153 0.17069 0.0
C1169 C 0.09426 0.45785 0.24379 0.0
C1170 C 0.08576 0.4628 0.28109 0.0
C1171 C 0.07944 0.47031 0.24554 0.0
H1172 H 0.63195 0.74444 0.45758 0.0
H1173 H 0.65701 0.76132 0.25381 0.0
H1174 H 0.60815 0.71785 0.40357 0.0
H1175 H 0.63379 0.7349 0.20097 0.0
H1176 H 0.58986 0.6874 0.10772 0.0
H1177 H 0.60342 0.71407 0.16305 0.0
H1178 H 0.60797 0.69588 0.36464 0.0
H1179 H 0.59405 0.66938 0.3104 0.0
C1180 C 0.63227 0.74257 0.40122 0.0
C1181 C 0.64657 0.7549 0.36043 0.0
C1182 C 0.61867 0.72733 0.37027 0.0
C1183 C 0.61912 0.72415 0.29799 0.0
C1184 C 0.63282 0.73689 0.25646 0.0
C1185 C 0.64633 0.75204 0.28721 0.0
C1186 C 0.59332 0.68901 0.16424 0.0
C1187 C 0.59124 0.6764 0.20426 0.0
C1188 C 0.60119 0.70431 0.1959 0.0
C1189 C 0.60708 0.70723 0.26809 0.0
C1190 C 0.60355 0.69413 0.30917 0.0
C1191 C 0.59572 0.67893 0.27769 0.0
H1192 H 0.36932 0.00385 0.08234 0.0
H1193 H 0.39874 0.03244 0.27219 0.0
H1194 H 0.34176 0.98841 0.14813 0.0
H1195 H 0.3713 0.01738 0.33684 0.0
H1196 H 0.32061 0.98243 0.45204 0.0
H1197 H 0.34711 0.9915 0.38721 0.0
H1198 H 0.3233 0.99472 0.19384 0.0
H1199 H 0.29689 0.98535 0.25742 0.0
C1200 C 0.36994 0.00679 0.13806 0.0
C1201 C 0.38622 0.0195 0.17165 0.0
C1202 C 0.35415 0.99797 0.17574 0.0
C1203 C 0.3543 0.0017 0.24773 0.0
C1204 C 0.37069 0.01401 0.28184 0.0
C1205 C 0.38644 0.02278 0.24436 0.0
C1206 C 0.32094 0.9848 0.39545 0.0
C1207 C 0.30672 0.98334 0.36022 0.0
C1208 C 0.33615 0.99009 0.35838 0.0
C1209 C 0.33738 0.99395 0.2854 0.0
C1210 C 0.32276 0.99169 0.2497 0.0
C1211 C 0.30764 0.98645 0.28655 0.0
H1212 H 0.44832 0.10344 0.10406 0.0
H1213 H 0.4334 0.08057 0.89568 0.0
H1214 H 0.44502 0.12369 0.05788 0.0
H1215 H 0.42975 0.10041 0.85033 0.0
H1216 H 0.42553 0.13806 0.77284 0.0
H1217 H 0.44159 0.12818 0.8206 0.0
H1218 H 0.41795 0.12022 0.02484 0.0
H1219 H 0.40235 0.13039 0.978 0.0
C1220 C 0.44471 0.10293 0.04816 0.0
C1221 C 0.44078 0.09022 0.00388 0.0
C1222 C 0.44274 0.11448 0.02179 0.0
C1223 C 0.43691 0.11356 0.95063 0.0
C1224 C 0.43439 0.10161 0.90519 0.0
C1225 C 0.43629 0.09008 0.9315 0.0
C1226 C 0.42415 0.13461 0.82843 0.0
C1227 C 0.41238 0.13468 0.87119 0.0
C1228 C 0.43328 0.12888 0.8557 0.0
C1229 C 0.43085 0.12319 0.92624 0.0
C1230 C 0.42025 0.12459 0.97048 0.0
C1231 C 0.41113 0.13027 0.94328 0.0
H1232 H 0.98978 0.44383 0.07104 0.0
H1233 H 0.02057 0.45222 0.88761 0.0
H1234 H 0.9633 0.41967 0.01232 0.0
H1235 H 0.99428 0.4279 0.83006 0.0
H1236 H 0.94367 0.38518 0.72798 0.0
H1237 H 0.96413 0.41305 0.77701 0.0
H1238 H 0.95575 0.39328 0.98944 0.0
H1239 H 0.93555 0.36589 0.94118 0.0
C1240 C 0.99089 0.44062 0.01803 0.0
C1241 C 0.00738 0.44981 0.98465 0.0
C1242 C 0.9757 0.42677 0.98435 0.0
C1243 C 0.97669 0.42176 0.91671 0.0
C1244 C 0.99296 0.43149 0.88174 0.0
C1245 C 0.00811 0.44535 0.91524 0.0
C1246 C 0.94581 0.38686 0.78526 0.0
C1247 C 0.93804 0.37329 0.8306 0.0
C1248 C 0.95763 0.4028 0.8133 0.0
C1249 C 0.9617 0.4054 0.88714 0.0
C1250 C 0.95281 0.39182 0.93251 0.0
C1251 C 0.94121 0.37601 0.90462 0.0
H1252 H 0.7162 0.69017 0.93099 0.0
H1253 H 0.68452 0.6638 0.74055 0.0
H1254 H 0.68928 0.67702 0.99764 0.0
H1255 H 0.65736 0.65026 0.80844 0.0
H1256 H 0.61573 0.6505 0.92739 0.0
H1257 H 0.64141 0.6589 0.86055 0.0
H1258 H 0.66394 0.65172 0.04684 0.0
H1259 H 0.63824 0.6436 0.1149 0.0
C1260 C 0.70348 0.68138 0.90339 0.0
C1261 C 0.70253 0.67818 0.83002 0.0
C1262 C 0.68801 0.67371 0.94202 0.0
C1263 C 0.67114 0.66261 0.90846 0.0
C1264 C 0.67017 0.65892 0.83567 0.0
C1265 C 0.68571 0.66661 0.79682 0.0
C1266 C 0.62608 0.6506 0.95433 0.0
C1267 C 0.62498 0.64652 0.02694 0.0
C1268 C 0.64076 0.65528 0.91556 0.0
C1269 C 0.65475 0.65599 0.94822 0.0
C1270 C 0.65346 0.65147 0.02031 0.0
C1271 C 0.63872 0.64678 0.05928 0.0
H1272 H 0.97507 0.62204 0.86617 0.0
H1273 H 0.94772 0.60244 0.06433 0.0
H1274 H 0.95062 0.62123 0.81649 0.0
H1275 H 0.9229 0.60127 0.01361 0.0
H1276 H 0.90577 0.63351 0.94171 0.0
H1277 H 0.92136 0.62333 0.98733 0.0
H1278 H 0.91955 0.60614 0.77648 0.0
H1279 H 0.90395 0.61661 0.73009 0.0
C1280 C 0.96366 0.61725 0.89877 0.0
C1281 C 0.96353 0.61263 0.96983 0.0
C1282 C 0.9495 0.61659 0.86984 0.0
C1283 C 0.93484 0.61131 0.91122 0.0
C1284 C 0.93413 0.60561 0.98068 0.0
C1285 C 0.94832 0.60624 0.00968 0.0
C1286 C 0.90823 0.62718 0.90514 0.0
C1287 C 0.9038 0.62608 0.83196 0.0
C1288 C 0.91711 0.62122 0.93157 0.0
C1289 C 0.9219 0.61406 0.88549 0.0
C1290 C 0.91626 0.6118 0.81318 0.0
C1291 C 0.90723 0.61771 0.78667 0.0
H1292 H 0.41653 0.39602 0.93134 0.0
H1293 H 0.38694 0.36964 0.1177 0.0
H1294 H 0.40422 0.37031 0.87065 0.0
H1295 H 0.37329 0.34381 0.05581 0.0
H1296 H 0.35173 0.29793 0.93852 0.0
H1297 H 0.37229 0.32351 0.0043 0.0
H1298 H 0.37802 0.35037 0.81379 0.0
H1299 H 0.35864 0.32481 0.74764 0.0
C1300 C 0.40756 0.38463 0.95953 0.0
C1301 C 0.40268 0.38469 0.02899 0.0
C1302 C 0.40024 0.36986 0.92448 0.0
C1303 C 0.38731 0.35481 0.95718 0.0
C1304 C 0.38329 0.35501 0.02862 0.0
C1305 C 0.39109 0.36983 0.06441 0.0
C1306 C 0.35767 0.30937 0.91076 0.0
C1307 C 0.35357 0.30944 0.83816 0.0
C1308 C 0.36937 0.32408 0.94854 0.0
C1309 C 0.37682 0.33919 0.91508 0.0
C1310 C 0.37298 0.33913 0.84166 0.0
C1311 C 0.36169 0.32444 0.80351 0.0
H1312 H 0.68156 0.0908 0.72493 0.0
H1313 H 0.71143 0.09898 0.92107 0.0
H1314 H 0.65379 0.07386 0.78961 0.0
H1315 H 0.68394 0.08186 0.98452 0.0
H1316 H 0.63171 0.05514 0.09374 0.0
H1317 H 0.65781 0.07731 0.02953 0.0
H1318 H 0.6377 0.04693 0.84001 0.0
H1319 H 0.61175 0.0252 0.90268 0.0
C1320 C 0.68223 0.08916 0.78178 0.0
C1321 C 0.6987 0.09603 0.81744 0.0
C1322 C 0.66634 0.0794 0.81884 0.0
C1323 C 0.66662 0.07636 0.89222 0.0
C1324 C 0.68317 0.08402 0.92835 0.0
C1325 C 0.69898 0.09373 0.89152 0.0
C1326 C 0.63282 0.0533 0.03821 0.0
C1327 C 0.61971 0.03832 0.0038 0.0
C1328 C 0.64777 0.06598 0.00141 0.0
C1329 C 0.64986 0.06391 0.92949 0.0
C1330 C 0.63644 0.0491 0.89482 0.0
C1331 C 0.62161 0.03651 0.93135 0.0
H1332 H 0.62516 0.94573 0.43827 0.0
H1333 H 0.65076 0.95763 0.23607 0.0
H1334 H 0.60118 0.94504 0.38064 0.0
H1335 H 0.62743 0.9575 0.17968 0.0
H1336 H 0.5843 0.95611 0.07997 0.0
H1337 H 0.59747 0.9444 0.13904 0.0
H1338 H 0.6006 0.96649 0.33841 0.0
H1339 H 0.58698 0.97753 0.28055 0.0
C1340 C 0.62555 0.94795 0.38151 0.0
C1341 C 0.64007 0.95208 0.34219 0.0
C1342 C 0.61186 0.94762 0.34847 0.0
C1343 C 0.61244 0.95141 0.27556 0.0
C1344 C 0.62634 0.95435 0.23559 0.0
C1345 C 0.63992 0.95465 0.26838 0.0
C1346 C 0.58737 0.95805 0.13676 0.0
C1347 C 0.585 0.96806 0.17513 0.0
C1348 C 0.59501 0.95144 0.17061 0.0
C1349 C 0.60043 0.95475 0.24331 0.0
C1350 C 0.59656 0.96357 0.28262 0.0
C1351 C 0.58892 0.9701 0.24902 0.0
H1352 H 0.05515 0.68391 0.0683 0.0
H1353 H 0.02607 0.65533 0.25283 0.0
H1354 H 0.06942 0.709 0.13849 0.0
H1355 H 0.0399 0.68022 0.32176 0.0
H1356 H 0.0727 0.72718 0.44535 0.0
H1357 H 0.06675 0.70426 0.37708 0.0
H1358 H 0.05887 0.72304 0.18513 0.0
H1359 H 0.06517 0.7459 0.25217 0.0
C1360 C 0.05189 0.68296 0.1238 0.0
C1361 C 0.03929 0.66761 0.15453 0.0
C1362 C 0.06003 0.69733 0.164 0.0
C1363 C 0.05574 0.69663 0.23572 0.0
C1364 C 0.04372 0.68125 0.26707 0.0
C1365 C 0.03562 0.66693 0.22708 0.0
C1366 C 0.07003 0.72654 0.38837 0.0
C1367 C 0.06917 0.73824 0.35449 0.0
C1368 C 0.06653 0.71338 0.34931 0.0
C1369 C 0.0622 0.71174 0.27567 0.0
C1370 C 0.06234 0.72397 0.24145 0.0
C1371 C 0.06578 0.73703 0.28028 0.0
H1372 H 0.35205 0.41285 0.09561 0.0
H1373 H 0.37555 0.41147 0.29459 0.0
H1374 H 0.32442 0.40188 0.15597 0.0
H1375 H 0.34803 0.40022 0.3538 0.0
H1376 H 0.29934 0.38737 0.45696 0.0
H1377 H 0.32748 0.4045 0.39523 0.0
H1378 H 0.30105 0.37539 0.2038 0.0
H1379 H 0.27302 0.35865 0.26432 0.0
C1380 C 0.3514 0.41037 0.15219 0.0
C1381 C 0.36595 0.41287 0.18996 0.0
C1382 C 0.33556 0.40401 0.18672 0.0
C1383 C 0.33397 0.40007 0.25967 0.0
C1384 C 0.34882 0.40329 0.29789 0.0
C1385 C 0.36459 0.40961 0.26355 0.0
C1386 C 0.29951 0.38478 0.40145 0.0
C1387 C 0.28396 0.37153 0.36594 0.0
C1388 C 0.31564 0.39455 0.36613 0.0
C1389 C 0.31654 0.39126 0.29464 0.0
C1390 C 0.30082 0.37843 0.25848 0.0
C1391 C 0.28475 0.36871 0.29361 0.0
H1392 H 0.74038 0.79357 0.41959 0.0
H1393 H 0.71534 0.78457 0.62133 0.0
H1394 H 0.75625 0.78364 0.46951 0.0
H1395 H 0.7311 0.77478 0.67054 0.0
H1396 H 0.76423 0.76082 0.75482 0.0
H1397 H 0.75972 0.78015 0.70581 0.0
H1398 H 0.74388 0.75533 0.50191 0.0
H1399 H 0.74822 0.73619 0.55025 0.0
C1400 C 0.73852 0.78981 0.47484 0.0
C1401 C 0.72644 0.78973 0.51614 0.0
C1402 C 0.74761 0.78412 0.5034 0.0
C1403 C 0.74488 0.77838 0.57392 0.0
C1404 C 0.7337 0.77932 0.61642 0.0
C1405 C 0.72454 0.78485 0.58783 0.0
C1406 C 0.76024 0.75979 0.69908 0.0
C1407 C 0.75646 0.74687 0.65667 0.0
C1408 C 0.7576 0.7708 0.67111 0.0
C1409 C 0.75136 0.76921 0.60007 0.0
C1410 C 0.7489 0.75705 0.55651 0.0
C1411 C 0.75131 0.74598 0.58453 0.0
H1412 H 0.28007 0.0109 0.63969 0.0
H1413 H 0.28032 0.03046 0.43409 0.0
H1414 H 0.29521 0.03763 0.69393 0.0
H1415 H 0.29533 0.05745 0.48922 0.0
H1416 H 0.34769 0.1037 0.5963 0.0
H1417 H 0.32569 0.07749 0.53774 0.0
H1418 H 0.29451 0.05962 0.7272 0.0
H1419 H 0.3168 0.08581 0.78679 0.0
C1420 C 0.28306 0.02087 0.60621 0.0
C1421 C 0.27924 0.01862 0.53234 0.0
C1422 C 0.29162 0.03621 0.63757 0.0
C1423 C 0.2966 0.04973 0.59588 0.0
C1424 C 0.29184 0.0473 0.52259 0.0
C1425 C 0.28315 0.03184 0.4911 0.0
C1426 C 0.33605 0.09427 0.62539 0.0
C1427 C 0.33417 0.09678 0.69676 0.0
C1428 C 0.32332 0.07926 0.59141 0.0
C1429 C 0.30838 0.06642 0.62789 0.0
C1430 C 0.30601 0.06921 0.69798 0.0
C1431 C 0.31877 0.08422 0.73209 0.0
H1432 H 0.0499 0.36943 0.63409 0.0
H1433 H 0.02198 0.33947 0.44577 0.0
H1434 H 0.02173 0.35675 0.69054 0.0
H1435 H 0.99358 0.32632 0.50371 0.0
H1436 H 0.95059 0.3301 0.58289 0.0
H1437 H 0.9767 0.3355 0.53197 0.0
H1438 H 0.99528 0.3329 0.74153 0.0
H1439 H 0.96908 0.32791 0.79342 0.0
C1440 C 0.03774 0.35995 0.60495 0.0
C1441 C 0.0382 0.35569 0.5347 0.0
C1442 C 0.02154 0.35251 0.6379 0.0
C1443 C 0.00535 0.34056 0.60165 0.0
C1444 C 0.00582 0.33567 0.53274 0.0
C1445 C 0.02209 0.34317 0.49955 0.0
C1446 C 0.96011 0.3305 0.61837 0.0
C1447 C 0.9579 0.32887 0.69254 0.0
C1448 C 0.97504 0.33341 0.58883 0.0
C1449 C 0.98818 0.33474 0.63257 0.0
C1450 C 0.9855 0.33218 0.70645 0.0
C1451 C 0.97047 0.32924 0.73619 0.0
H1452 H 0.28415 0.27093 0.56082 0.0
H1453 H 0.26053 0.2602 0.76701 0.0
H1454 H 0.26509 0.27743 0.51518 0.0
H1455 H 0.24114 0.26668 0.72056 0.0
H1456 H 0.24185 0.31068 0.64195 0.0
H1457 H 0.24907 0.29338 0.68905 0.0
H1458 H 0.23565 0.2695 0.48369 0.0
H1459 H 0.22875 0.28717 0.43573 0.0
C1460 C 0.27454 0.26952 0.59604 0.0
C1461 C 0.27405 0.26523 0.66791 0.0
C1462 C 0.26346 0.27314 0.56954 0.0
C1463 C 0.25165 0.27268 0.6143 0.0
C1464 C 0.25025 0.2673 0.68496 0.0
C1465 C 0.2613 0.26354 0.71148 0.0
C1466 C 0.24011 0.30154 0.60702 0.0
C1467 C 0.23514 0.30057 0.53459 0.0
C1468 C 0.24405 0.29147 0.63437 0.0
C1469 C 0.24315 0.2802 0.5899 0.0
C1470 C 0.23672 0.27825 0.51898 0.0
C1471 C 0.23272 0.28833 0.49156 0.0
H1472 H 0.74533 0.089 0.54717 0.0
H1473 H 0.75493 0.0763 0.75405 0.0
H1474 H 0.73956 0.0648 0.49531 0.0
H1475 H 0.74944 0.05205 0.70143 0.0
H1476 H 0.70589 -3e-05 0.60503 0.0
H1477 H 0.72131 0.02683 0.65772 0.0
H1478 H 0.74974 0.04904 0.46367 0.0
H1479 H 0.7341 0.02183 0.41001 0.0
C1480 C 0.74657 0.0812 0.58139 0.0
C1481 C 0.75024 0.08439 0.65508 0.0
C1482 C 0.74344 0.06739 0.55137 0.0
C1483 C 0.74384 0.05639 0.59432 0.0
C1484 C 0.74879 0.0602 0.66714 0.0
C1485 C 0.75202 0.07411 0.69724 0.0
C1486 C 0.71568 0.0105 0.5737 0.0
C1487 C 0.71866 0.00868 0.50293 0.0
C1488 C 0.72465 0.02597 0.60435 0.0
C1489 C 0.73679 0.04011 0.56504 0.0
C1490 C 0.74036 0.03836 0.49518 0.0
C1491 C 0.73142 0.02278 0.46447 0.0
H1492 H 0.9298 0.68794 0.58099 0.0
H1493 H 0.94987 0.71104 0.78864 0.0
H1494 H 0.95782 0.70976 0.52959 0.0
H1495 H 0.97806 0.73335 0.73617 0.0
H1496 H 0.03127 0.75094 0.63568 0.0
H1497 H 0.00253 0.7351 0.69066 0.0
H1498 H 0.97856 0.73804 0.49709 0.0
H1499 H 0.00748 0.75362 0.44076 0.0
C1500 C 0.94012 0.69784 0.61566 0.0
C1501 C 0.93768 0.69758 0.68933 0.0
C1502 C 0.95617 0.7105 0.5858 0.0
C1503 C 0.97026 0.7233 0.62868 0.0
C1504 C 0.96753 0.72354 0.70181 0.0
C1505 C 0.95137 0.71081 0.73186 0.0
C1506 C 0.01994 0.74837 0.60477 0.0
C1507 C 0.02162 0.75329 0.53319 0.0
C1508 C 0.00345 0.73942 0.6368 0.0
C1509 C 0.98818 0.73518 0.59824 0.0
C1510 C 0.99003 0.7409 0.52793 0.0
C1511 C 0.0066 0.74988 0.4957 0.0
loop_
_geom_bond_atom_site_label_1
_geom_bond_atom_site_label_2
_geom_bond_distance
_geom_bond_site_symmetry_2
_ccdc_geom_bond_type
Co0 O3 1.970 1_556 S
Co0 N17 1.989 1_556 S
Co0 O25 1.967 . S
Co0 O32 1.920 . S
Co1 O4 1.966 . S
Co1 N10 2.022 . S
Co1 N18 1.993 . S
Co1 O26 1.941 . S
C2 O3 1.258 . S
C2 O4 1.263 . S
O3 Co0 1.970 1_554 S
O3 C2 1.258 . S
O4 Co1 1.966 . S
O4 C2 1.263 . S
C5 O6 1.235 . S
C5 O32 1.289 . S
O6 C5 1.235 . S
C7 C9 1.400 . S
C7 N10 1.351 . S
C7 C12 1.501 . S
C8 C9 1.387 . S
C8 N11 1.341 . S
C9 C7 1.400 . S
C9 C8 1.387 . S
N10 Co1 2.022 . S
N10 C7 1.351 . S
N10 N11 1.365 . S
N11 C8 1.341 . S
N11 N10 1.365 . S
N11 H31 0.862 . S
C12 C7 1.501 . S
C12 H13 0.961 . S
C12 H14 0.961 . S
C12 H15 0.960 . S
H13 C12 0.961 . S
H14 C12 0.961 . S
H15 C12 0.960 . S
C16 N17 1.342 . S
C16 C20 1.401 . S
C16 C21 1.499 1_554 S
N17 Co0 1.989 1_554 S
N17 C16 1.342 . S
N17 N18 1.388 . S
N18 Co1 1.993 . S
N18 N17 1.388 . S
N18 C19 1.346 . S
C19 N18 1.346 . S
C19 C20 1.396 . S
C19 C29 1.510 . S
C20 C16 1.401 . S
C20 C19 1.396 . S
C21 C16 1.499 1_556 S
C21 H22 0.959 . S
C21 H23 0.960 . S
C21 H24 0.961 . S
H22 C21 0.959 . S
H23 C21 0.960 . S
H24 C21 0.961 . S
O25 Co0 1.967 . S
O25 C33 1.258 1_556 S
O26 Co1 1.941 . S
O26 C33 1.266 . S
H27 C29 0.959 . S
H28 C29 0.961 . S
C29 C19 1.510 . S
C29 H27 0.959 . S
C29 H28 0.961 . S
C29 H30 0.960 . S
H30 C29 0.960 . S
H31 N11 0.862 . S
O32 Co0 1.920 . S
O32 C5 1.289 . S
C33 O25 1.258 1_554 S
C33 O26 1.266 . S
Co34 O37 1.970 . S
Co34 N51 1.989 . S
Co34 O59 1.967 . S
Co34 O66 1.920 1_554 S
Co35 O38 1.966 . S
Co35 N44 2.022 . S
Co35 N52 1.993 . S
Co35 O60 1.941 . S
C36 O37 1.258 . S
C36 O38 1.263 . S
O37 Co34 1.970 . S
O37 C36 1.258 . S
O38 Co35 1.966 . S
O38 C36 1.263 . S
C39 O40 1.235 . S
C39 O66 1.289 . S
O40 C39 1.235 . S
C41 C43 1.400 . S
C41 N44 1.351 . S
C41 C46 1.501 . S
C42 C43 1.387 . S
C42 N45 1.341 . S
C43 C41 1.400 . S
C43 C42 1.387 . S
N44 Co35 2.022 . S
N44 C41 1.351 . S
N44 N45 1.365 . S
N45 C42 1.341 . S
N45 N44 1.365 . S
N45 H65 0.862 . S
C46 C41 1.501 . S
C46 H47 0.961 . S
C46 H48 0.961 . S
C46 H49 0.960 . S
H47 C46 0.961 . S
H48 C46 0.961 . S
H49 C46 0.960 . S
C50 N51 1.342 . S
C50 C54 1.401 . S
C50 C55 1.499 1_554 S
N51 Co34 1.989 . S
N51 C50 1.342 . S
N51 N52 1.388 . S
N52 Co35 1.993 . S
N52 N51 1.388 . S
N52 C53 1.346 . S
C53 N52 1.346 . S
C53 C54 1.396 . S
C53 C63 1.510 . S
C54 C50 1.401 . S
C54 C53 1.396 . S
C55 C50 1.499 1_556 S
C55 H56 0.959 . S
C55 H57 0.960 . S
C55 H58 0.961 . S
H56 C55 0.959 . S
H57 C55 0.960 . S
H58 C55 0.961 . S
O59 Co34 1.967 . S
O59 C67 1.258 . S
O60 Co35 1.941 . S
O60 C67 1.266 . S
H61 C63 0.959 . S
H62 C63 0.961 . S
C63 C53 1.510 . S
C63 H61 0.959 . S
C63 H62 0.961 . S
C63 H64 0.960 . S
H64 C63 0.960 . S
H65 N45 0.862 . S
O66 Co34 1.920 1_556 S
O66 C39 1.289 . S
C67 O59 1.258 . S
C67 O60 1.266 . S
Co68 O71 1.970 . S
Co68 N85 1.989 . S
Co68 O93 1.967 . S
Co68 O100 1.920 . S
Co69 O72 1.966 . S
Co69 N78 2.023 1_554 S
Co69 N86 1.993 . S
Co69 O94 1.941 . S
C70 O71 1.258 . S
C70 O72 1.263 . S
O71 Co68 1.970 . S
O71 C70 1.258 . S
O72 Co69 1.966 . S
O72 C70 1.263 . S
C73 O74 1.235 . S
C73 O100 1.289 . S
O74 C73 1.235 . S
C75 C77 1.400 . S
C75 N78 1.351 . S
C75 C80 1.501 . S
C76 C77 1.387 . S
C76 N79 1.341 . S
C77 C75 1.400 . S
C77 C76 1.387 . S
N78 Co69 2.023 1_556 S
N78 C75 1.351 . S
N78 N79 1.365 . S
N79 C76 1.341 . S
N79 N78 1.365 . S
N79 H99 0.862 . S
C80 C75 1.501 . S
C80 H81 0.961 . S
C80 H82 0.961 . S
C80 H83 0.960 . S
H81 C80 0.961 . S
H82 C80 0.961 . S
H83 C80 0.960 . S
C84 N85 1.342 . S
C84 C88 1.401 . S
C84 C89 1.499 . S
N85 Co68 1.989 . S
N85 C84 1.342 . S
N85 N86 1.388 . S
N86 Co69 1.993 . S
N86 N85 1.388 . S
N86 C87 1.346 . S
C87 N86 1.346 . S
C87 C88 1.396 . S
C87 C97 1.510 1_554 S
C88 C84 1.401 . S
C88 C87 1.396 . S
C89 C84 1.499 . S
C89 H90 0.959 . S
C89 H91 0.960 . S
C89 H92 0.961 . S
H90 C89 0.959 . S
H91 C89 0.960 . S
H92 C89 0.961 . S
O93 Co68 1.967 . S
O93 C101 1.258 . S
O94 Co69 1.941 . S
O94 C101 1.266 . S
H95 C97 0.959 . S
H96 C97 0.961 . S
C97 C87 1.510 1_556 S
C97 H95 0.959 . S
C97 H96 0.961 . S
C97 H98 0.960 . S
H98 C97 0.960 . S
H99 N79 0.862 . S
O100 Co68 1.920 . S
O100 C73 1.289 . S
C101 O93 1.258 . S
C101 O94 1.266 . S
Co102 O105 1.970 1_455 S
Co102 N119 1.989 . S
Co102 O127 1.967 . S
Co102 O134 1.922 . S
Co103 O106 1.966 1_455 S
Co103 N112 2.022 . S
Co103 N120 1.993 1_556 S
Co103 O128 1.941 1_556 S
C104 O105 1.258 . S
C104 O106 1.263 1_554 S
O105 Co102 1.970 1_655 S
O105 C104 1.258 . S
O106 Co103 1.966 1_655 S
O106 C104 1.263 1_556 S
C107 O108 1.235 . S
C107 O134 1.282 1_655 S
O108 C107 1.235 . S
C109 C111 1.400 . S
C109 N112 1.351 . S
C109 C114 1.501 1_455 S
C110 C111 1.387 . S
C110 N113 1.341 . S
C111 C109 1.400 . S
C111 C110 1.387 . S
N112 Co103 2.022 . S
N112 C109 1.351 . S
N112 N113 1.365 . S
N113 C110 1.341 . S
N113 N112 1.365 . S
N113 H133 0.862 . S
C114 C109 1.501 1_655 S
C114 H115 0.961 . S
C114 H116 0.961 . S
C114 H117 0.960 . S
H115 C114 0.961 . S
H116 C114 0.961 . S
H117 C114 0.960 . S
C118 N119 1.342 . S
C118 C122 1.401 . S
C118 C123 1.499 . S
N119 Co102 1.989 . S
N119 C118 1.342 . S
N119 N120 1.388 . S
N120 Co103 1.993 1_554 S
N120 N119 1.388 . S
N120 C121 1.346 . S
C121 N120 1.346 . S
C121 C122 1.396 . S
C121 C131 1.510 1_554 S
C122 C118 1.401 . S
C122 C121 1.396 . S
C123 C118 1.499 . S
C123 H124 0.959 . S
C123 H125 0.960 . S
C123 H126 0.961 . S
H124 C123 0.959 . S
H125 C123 0.960 . S
H126 C123 0.961 . S
O127 Co102 1.967 . S
O127 C135 1.258 . S
O128 Co103 1.941 1_554 S
O128 C135 1.266 . S
H129 C131 0.959 . S
H130 C131 0.961 . S
C131 C121 1.510 1_556 S
C131 H129 0.959 . S
C131 H130 0.961 . S
C131 H132 0.960 . S
H132 C131 0.960 . S
H133 N113 0.862 . S
O134 Co102 1.922 . S
O134 C107 1.282 1_455 S
C135 O127 1.258 . S
C135 O128 1.266 . S
Co136 O139 1.970 . S
Co136 N153 1.989 . S
Co136 O161 1.967 . S
Co136 O168 1.920 . S
Co137 O140 1.966 . S
Co137 N146 2.022 1_554 S
Co137 N154 1.993 . S
Co137 O162 1.941 . S
C138 O139 1.258 . S
C138 O140 1.263 . S
O139 Co136 1.970 . S
O139 C138 1.258 . S
O140 Co137 1.966 . S
O140 C138 1.263 . S
C141 O142 1.235 . S
C141 O168 1.289 . S
O142 C141 1.235 . S
C143 C145 1.400 . S
C143 N146 1.351 . S
C143 C148 1.501 . S
C144 C145 1.387 . S
C144 N147 1.341 . S
C145 C143 1.400 . S
C145 C144 1.387 . S
N146 Co137 2.022 1_556 S
N146 C143 1.351 . S
N146 N147 1.365 . S
N147 C144 1.341 . S
N147 N146 1.365 . S
N147 H167 0.862 . S
C148 C143 1.501 . S
C148 H149 0.961 . S
C148 H150 0.961 . S
C148 H151 0.960 . S
H149 C148 0.961 . S
H150 C148 0.961 . S
H151 C148 0.960 . S
C152 N153 1.342 . S
C152 C156 1.401 . S
C152 C157 1.499 . S
N153 Co136 1.989 . S
N153 C152 1.342 . S
N153 N154 1.388 . S
N154 Co137 1.993 . S
N154 N153 1.388 . S
N154 C155 1.346 . S
C155 N154 1.346 . S
C155 C156 1.396 . S
C155 C165 1.510 1_554 S
C156 C152 1.401 . S
C156 C155 1.396 . S
C157 C152 1.499 . S
C157 H158 0.959 . S
C157 H159 0.960 . S
C157 H160 0.961 . S
H158 C157 0.959 . S
H159 C157 0.960 . S
H160 C157 0.961 . S
O161 Co136 1.967 . S
O161 C169 1.258 . S
O162 Co137 1.941 . S
O162 C169 1.266 . S
H163 C165 0.959 . S
H164 C165 0.961 . S
C165 C155 1.510 1_556 S
C165 H163 0.959 . S
C165 H164 0.961 . S
C165 H166 0.960 . S
H166 C165 0.960 . S
H167 N147 0.862 . S
O168 Co136 1.920 . S
O168 C141 1.289 . S
C169 O161 1.258 . S
C169 O162 1.266 . S
Co170 O173 1.970 . S
Co170 N187 1.964 1_565 S
Co170 O195 1.967 1_565 S
Co170 O202 1.920 1_554 S
Co171 O174 1.966 1_545 S
Co171 N180 2.022 . S
Co171 N188 1.993 . S
Co171 O196 1.941 . S
C172 O173 1.258 . S
C172 O174 1.263 . S
O173 Co170 1.970 . S
O173 C172 1.258 . S
O174 Co171 1.966 1_565 S
O174 C172 1.263 . S
C175 O176 1.235 . S
C175 O202 1.289 . S
O176 C175 1.235 . S
C177 C179 1.400 . S
C177 N180 1.351 . S
C177 C182 1.501 1_545 S
C178 C179 1.387 . S
C178 N181 1.341 . S
C179 C177 1.400 . S
C179 C178 1.387 . S
N180 Co171 2.022 . S
N180 C177 1.351 . S
N180 N181 1.365 . S
N181 C178 1.341 . S
N181 N180 1.365 . S
N181 H201 0.862 . S
C182 C177 1.501 1_565 S
C182 H183 0.961 . S
C182 H184 0.961 . S
C182 H185 0.960 . S
H183 C182 0.961 . S
H184 C182 0.961 . S
H185 C182 0.960 . S
C186 N187 1.342 . S
C186 C190 1.422 . S
C186 C191 1.500 1_544 S
N187 Co170 1.964 1_545 S
N187 C186 1.342 . S
N187 N188 1.395 . S
N188 Co171 1.993 . S
N188 N187 1.395 . S
N188 C189 1.346 . S
C189 N188 1.346 . S
C189 C190 1.396 . S
C189 C199 1.510 . S
C190 C186 1.422 . S
C190 C189 1.396 . S
C191 C186 1.500 1_566 S
C191 H192 0.959 . S
C191 H193 0.960 . S
C191 H194 0.961 1_565 S
H192 C191 0.959 . S
H193 C191 0.960 . S
H194 C191 0.961 1_545 S
O195 Co170 1.967 1_545 S
O195 C203 1.258 . S
O196 Co171 1.941 . S
O196 C203 1.266 . S
H197 C199 0.959 . S
H198 C199 0.961 . S
C199 C189 1.510 . S
C199 H197 0.959 . S
C199 H198 0.961 . S
C199 H200 0.960 . S
H200 C199 0.960 . S
H201 N181 0.862 . S
O202 Co170 1.920 1_556 S
O202 C175 1.289 . S
C203 O195 1.258 . S
C203 O196 1.266 . S
Co204 O207 1.970 . S
Co204 N221 1.989 . S
Co204 O229 1.967 . S
Co204 O236 1.920 . S
Co205 O208 1.966 . S
Co205 N214 2.022 . S
Co205 N222 1.993 . S
Co205 O230 1.941 . S
C206 O207 1.258 . S
C206 O208 1.263 . S
O207 Co204 1.970 . S
O207 C206 1.258 . S
O208 Co205 1.966 . S
O208 C206 1.263 . S
C209 O210 1.235 . S
C209 O236 1.289 . S
O210 C209 1.235 . S
C211 C213 1.400 . S
C211 N214 1.351 . S
C211 C216 1.501 . S
C212 C213 1.387 . S
C212 N215 1.341 . S
C213 C211 1.400 . S
C213 C212 1.387 . S
N214 Co205 2.022 . S
N214 C211 1.351 . S
N214 N215 1.365 . S
N215 C212 1.341 . S
N215 N214 1.365 . S
N215 H235 0.862 . S
C216 C211 1.501 . S
C216 H217 0.961 . S
C216 H218 0.961 . S
C216 H219 0.960 . S
H217 C216 0.961 . S
H218 C216 0.961 . S
H219 C216 0.960 . S
C220 N221 1.342 . S
C220 C224 1.401 . S
C220 C225 1.499 . S
N221 Co204 1.989 . S
N221 C220 1.342 . S
N221 N222 1.388 . S
N222 Co205 1.993 . S
N222 N221 1.388 . S
N222 C223 1.346 . S
C223 N222 1.346 . S
C223 C224 1.396 . S
C223 C233 1.510 . S
C224 C220 1.401 . S
C224 C223 1.396 . S
C225 C220 1.499 . S
C225 H226 0.959 . S
C225 H227 0.960 . S
C225 H228 0.961 . S
H226 C225 0.959 . S
H227 C225 0.960 . S
H228 C225 0.961 . S
O229 Co204 1.967 . S
O229 C237 1.258 . S
O230 Co205 1.941 . S
O230 C237 1.266 . S
H231 C233 0.959 . S
H232 C233 0.961 . S
C233 C223 1.510 . S
C233 H231 0.959 . S
C233 H232 0.961 . S
C233 H234 0.960 . S
H234 C233 0.960 . S
H235 N215 0.862 . S
O236 Co204 1.920 . S
O236 C209 1.289 . S
C237 O229 1.258 . S
C237 O230 1.266 . S
Co238 O241 1.970 . S
Co238 N255 1.989 . S
Co238 O263 1.967 . S
Co238 O270 1.920 . S
Co239 O242 1.966 . S
Co239 N248 2.022 . S
Co239 N256 1.993 . S
Co239 O264 1.941 . S
C240 O241 1.258 1_545 S
C240 O242 1.263 1_545 S
O241 Co238 1.970 . S
O241 C240 1.258 1_565 S
O242 Co239 1.966 . S
O242 C240 1.263 1_565 S
C243 O244 1.235 . S
C243 O270 1.289 . S
O244 C243 1.235 . S
C245 C247 1.400 . S
C245 N248 1.351 . S
C245 C250 1.501 . S
C246 C247 1.387 . S
C246 N249 1.341 . S
C247 C245 1.400 . S
C247 C246 1.387 . S
N248 Co239 2.022 . S
N248 C245 1.351 . S
N248 N249 1.365 . S
N249 C246 1.341 . S
N249 N248 1.365 . S
N249 H269 0.862 . S
C250 C245 1.501 . S
C250 H251 0.961 . S
C250 H252 0.961 . S
C250 H253 0.960 . S
H251 C250 0.961 . S
H252 C250 0.961 . S
H253 C250 0.960 . S
C254 N255 1.342 . S
C254 C258 1.401 . S
C254 C259 1.499 . S
N255 Co238 1.989 . S
N255 C254 1.342 . S
N255 N256 1.388 . S
N256 Co239 1.993 . S
N256 N255 1.388 . S
N256 C257 1.346 . S
C257 N256 1.346 . S
C257 C258 1.396 . S
C257 C267 1.510 . S
C258 C254 1.401 . S
C258 C257 1.396 . S
C259 C254 1.499 . S
C259 H260 0.959 . S
C259 H261 0.960 . S
C259 H262 0.961 . S
H260 C259 0.959 . S
H261 C259 0.960 . S
H262 C259 0.961 . S
O263 Co238 1.967 . S
O263 C271 1.258 . S
O264 Co239 1.941 . S
O264 C271 1.266 . S
H265 C267 0.959 . S
H266 C267 0.961 . S
C267 C257 1.510 . S
C267 H265 0.959 . S
C267 H266 0.961 . S
C267 H268 0.960 . S
H268 C267 0.960 . S
H269 N249 0.862 . S
O270 Co238 1.920 . S
O270 C243 1.289 . S
C271 O263 1.258 . S
C271 O264 1.266 . S
Co272 O275 1.970 . S
Co272 N289 1.989 . S
Co272 O297 1.967 . S
Co272 O304 1.920 . S
Co273 O276 1.966 . S
Co273 N282 2.022 . S
Co273 N290 1.993 . S
Co273 O298 1.941 . S
C274 O275 1.258 . S
C274 O276 1.263 . S
O275 Co272 1.970 . S
O275 C274 1.258 . S
O276 Co273 1.966 . S
O276 C274 1.263 . S
C277 O278 1.235 . S
C277 O304 1.289 . S
O278 C277 1.235 . S
C279 C281 1.400 . S
C279 N282 1.351 . S
C279 C284 1.501 . S
C280 C281 1.387 . S
C280 N283 1.341 . S
C281 C279 1.400 . S
C281 C280 1.387 . S
N282 Co273 2.022 . S
N282 C279 1.351 . S
N282 N283 1.365 . S
N283 C280 1.341 . S
N283 N282 1.365 . S
N283 H303 0.862 . S
C284 C279 1.501 . S
C284 H285 0.961 . S
C284 H286 0.961 . S
C284 H287 0.960 . S
H285 C284 0.961 . S
H286 C284 0.961 . S
H287 C284 0.960 . S
C288 N289 1.342 . S
C288 C292 1.401 . S
C288 C293 1.499 . S
N289 Co272 1.989 . S
N289 C288 1.342 . S
N289 N290 1.388 . S
N290 Co273 1.993 . S
N290 N289 1.388 . S
N290 C291 1.346 . S
C291 N290 1.346 . S
C291 C292 1.396 . S
C291 C301 1.510 . S
C292 C288 1.401 . S
C292 C291 1.396 . S
C293 C288 1.499 . S
C293 H294 0.959 . S
C293 H295 0.960 . S
C293 H296 0.961 . S
H294 C293 0.959 . S
H295 C293 0.960 . S
H296 C293 0.961 . S
O297 Co272 1.967 . S
O297 C305 1.258 . S
O298 Co273 1.941 . S
O298 C305 1.266 . S
H299 C301 0.959 . S
H300 C301 0.961 . S
C301 C291 1.510 . S
C301 H299 0.959 . S
C301 H300 0.961 . S
C301 H302 0.960 . S
H302 C301 0.960 . S
H303 N283 0.862 . S
O304 Co272 1.920 . S
O304 C277 1.289 . S
C305 O297 1.258 . S
C305 O298 1.266 . S
Co306 O309 1.970 . S
Co306 N323 1.989 . S
Co306 O331 1.967 . S
Co306 O338 1.920 . S
Co307 O310 1.966 . S
Co307 N316 2.022 . S
Co307 N324 1.993 . S
Co307 O332 1.941 . S
C308 O309 1.258 . S
C308 O310 1.263 . S
O309 Co306 1.970 . S
O309 C308 1.258 . S
O310 Co307 1.966 . S
O310 C308 1.263 . S
C311 O312 1.235 . S
C311 O338 1.289 . S
O312 C311 1.235 . S
C313 C315 1.400 . S
C313 N316 1.351 . S
C313 C318 1.501 . S
C314 C315 1.387 . S
C314 N317 1.341 . S
C315 C313 1.400 . S
C315 C314 1.387 . S
N316 Co307 2.022 . S
N316 C313 1.351 . S
N316 N317 1.365 . S
N317 C314 1.341 . S
N317 N316 1.365 . S
N317 H337 0.862 . S
C318 C313 1.501 . S
C318 H319 0.961 . S
C318 H320 0.961 . S
C318 H321 0.960 . S
H319 C318 0.961 . S
H320 C318 0.961 . S
H321 C318 0.960 . S
C322 N323 1.342 . S
C322 C326 1.401 . S
C322 C327 1.499 . S
N323 Co306 1.989 . S
N323 C322 1.342 . S
N323 N324 1.388 . S
N324 Co307 1.993 . S
N324 N323 1.388 . S
N324 C325 1.346 . S
C325 N324 1.346 . S
C325 C326 1.396 . S
C325 C335 1.510 . S
C326 C322 1.401 . S
C326 C325 1.396 . S
C327 C322 1.499 . S
C327 H328 0.959 . S
C327 H329 0.960 . S
C327 H330 0.961 . S
H328 C327 0.959 . S
H329 C327 0.960 . S
H330 C327 0.961 . S
O331 Co306 1.967 . S
O331 C339 1.258 . S
O332 Co307 1.941 . S
O332 C339 1.266 . S
H333 C335 0.959 . S
H334 C335 0.961 . S
C335 C325 1.510 . S
C335 H333 0.959 . S
C335 H334 0.961 . S
C335 H336 0.960 . S
H336 C335 0.960 . S
H337 N317 0.862 . S
O338 Co306 1.920 . S
O338 C311 1.289 . S
C339 O331 1.258 . S
C339 O332 1.266 . S
Co340 O343 1.970 . S
Co340 N357 1.989 . S
Co340 O365 1.967 . S
Co340 O372 1.920 . S
Co341 O344 1.966 . S
Co341 N350 2.022 . S
Co341 N358 1.993 . S
Co341 O366 1.941 . S
C342 O343 1.258 . S
C342 O344 1.263 . S
O343 Co340 1.970 . S
O343 C342 1.258 . S
O344 Co341 1.966 . S
O344 C342 1.263 . S
C345 O346 1.235 . S
C345 O372 1.289 . S
O346 C345 1.235 . S
C347 C349 1.400 . S
C347 N350 1.351 . S
C347 C352 1.501 . S
C348 C349 1.387 . S
C348 N351 1.341 . S
C349 C347 1.400 . S
C349 C348 1.387 . S
N350 Co341 2.022 . S
N350 C347 1.351 . S
N350 N351 1.365 . S
N351 C348 1.341 . S
N351 N350 1.365 . S
N351 H371 0.862 . S
C352 C347 1.501 . S
C352 H353 0.961 . S
C352 H354 0.961 . S
C352 H355 0.960 . S
H353 C352 0.961 . S
H354 C352 0.961 . S
H355 C352 0.960 . S
C356 N357 1.342 . S
C356 C360 1.401 . S
C356 C361 1.499 . S
N357 Co340 1.989 . S
N357 C356 1.342 . S
N357 N358 1.388 . S
N358 Co341 1.993 . S
N358 N357 1.388 . S
N358 C359 1.346 . S
C359 N358 1.346 . S
C359 C360 1.396 . S
C359 C369 1.510 . S
C360 C356 1.401 . S
C360 C359 1.396 . S
C361 C356 1.499 . S
C361 H362 0.959 . S
C361 H363 0.960 . S
C361 H364 0.961 . S
H362 C361 0.959 . S
H363 C361 0.960 . S
H364 C361 0.961 . S
O365 Co340 1.967 . S
O365 C373 1.258 . S
O366 Co341 1.941 . S
O366 C373 1.266 . S
H367 C369 0.959 . S
H368 C369 0.961 . S
C369 C359 1.510 . S
C369 H367 0.959 . S
C369 H368 0.961 . S
C369 H370 0.960 . S
H370 C369 0.960 . S
H371 N351 0.862 . S
O372 Co340 1.920 . S
O372 C345 1.289 . S
C373 O365 1.258 . S
C373 O366 1.266 . S
Co374 O377 1.970 . S
Co374 N391 1.989 . S
Co374 O399 1.967 . S
Co374 O406 1.920 . S
Co375 O378 1.966 . S
Co375 N384 2.022 . S
Co375 N392 1.993 . S
Co375 O400 1.941 . S
C376 O377 1.258 . S
C376 O378 1.263 . S
O377 Co374 1.970 . S
O377 C376 1.258 . S
O378 Co375 1.966 . S
O378 C376 1.263 . S
C379 O380 1.235 . S
C379 O406 1.289 . S
O380 C379 1.235 . S
C381 C383 1.400 . S
C381 N384 1.351 . S
C381 C386 1.501 . S
C382 C383 1.387 . S
C382 N385 1.341 . S
C383 C381 1.400 . S
C383 C382 1.387 . S
N384 Co375 2.022 . S
N384 C381 1.351 . S
N384 N385 1.365 . S
N385 C382 1.341 . S
N385 N384 1.365 . S
N385 H405 0.862 . S
C386 C381 1.501 . S
C386 H387 0.961 . S
C386 H388 0.961 . S
C386 H389 0.960 . S
H387 C386 0.961 . S
H388 C386 0.961 . S
H389 C386 0.960 . S
C390 N391 1.342 . S
C390 C394 1.401 . S
C390 C395 1.499 . S
N391 Co374 1.989 . S
N391 C390 1.342 . S
N391 N392 1.388 . S
N392 Co375 1.993 . S
N392 N391 1.388 . S
N392 C393 1.346 . S
C393 N392 1.346 . S
C393 C394 1.396 . S
C393 C403 1.510 . S
C394 C390 1.401 . S
C394 C393 1.396 . S
C395 C390 1.499 . S
C395 H396 0.959 . S
C395 H397 0.960 . S
C395 H398 0.961 . S
H396 C395 0.959 . S
H397 C395 0.960 . S
H398 C395 0.961 . S
O399 Co374 1.967 . S
O399 C407 1.258 . S
O400 Co375 1.941 . S
O400 C407 1.266 . S
H401 C403 0.959 . S
H402 C403 0.961 . S
C403 C393 1.510 . S
C403 H401 0.959 . S
C403 H402 0.961 . S
C403 H404 0.960 . S
H404 C403 0.960 . S
H405 N385 0.862 . S
O406 Co374 1.920 . S
O406 C379 1.289 . S
C407 O399 1.258 . S
C407 O400 1.266 . S
Co408 O411 1.970 . S
Co408 N425 1.989 . S
Co408 O433 1.967 . S
Co408 O440 1.920 . S
Co409 O412 1.966 . S
Co409 N418 2.022 . S
Co409 N426 1.993 . S
Co409 O434 1.941 . S
C410 O411 1.258 . S
C410 O412 1.263 . S
O411 Co408 1.970 . S
O411 C410 1.258 . S
O412 Co409 1.966 . S
O412 C410 1.263 . S
C413 O414 1.235 . S
C413 O440 1.289 . S
O414 C413 1.235 . S
C415 C417 1.400 . S
C415 N418 1.351 1_554 S
C415 C420 1.501 . S
C416 C417 1.387 . S
C416 N419 1.341 1_554 S
C417 C415 1.400 . S
C417 C416 1.387 . S
N418 Co409 2.022 . S
N418 C415 1.351 1_556 S
N418 N419 1.365 . S
N419 C416 1.341 1_556 S
N419 N418 1.365 . S
N419 H439 0.862 . S
C420 C415 1.501 . S
C420 H421 0.961 1_554 S
C420 H422 0.961 . S
C420 H423 0.960 . S
H421 C420 0.961 1_556 S
H422 C420 0.961 . S
H423 C420 0.960 . S
C424 N425 1.342 . S
C424 C428 1.401 . S
C424 C429 1.499 . S
N425 Co408 1.989 . S
N425 C424 1.342 . S
N425 N426 1.388 . S
N426 Co409 1.993 . S
N426 N425 1.388 . S
N426 C427 1.346 . S
C427 N426 1.346 . S
C427 C428 1.396 . S
C427 C437 1.510 . S
C428 C424 1.401 . S
C428 C427 1.396 . S
C429 C424 1.499 . S
C429 H430 0.959 . S
C429 H431 0.960 . S
C429 H432 0.961 . S
H430 C429 0.959 . S
H431 C429 0.960 . S
H432 C429 0.961 . S
O433 Co408 1.967 . S
O433 C441 1.258 . S
O434 Co409 1.941 . S
O434 C441 1.266 . S
H435 C437 0.959 . S
H436 C437 0.961 . S
C437 C427 1.510 . S
C437 H435 0.959 . S
C437 H436 0.961 . S
C437 H438 0.960 . S
H438 C437 0.960 . S
H439 N419 0.862 . S
O440 Co408 1.920 . S
O440 C413 1.289 . S
C441 O433 1.258 . S
C441 O434 1.266 . S
Co442 O445 1.970 . S
Co442 N459 1.989 . S
Co442 O467 1.967 . S
Co442 O474 1.920 . S
Co443 O446 1.966 . S
Co443 N452 2.022 . S
Co443 N460 1.993 . S
Co443 O468 1.941 . S
C444 O445 1.258 . S
C444 O446 1.263 . S
O445 Co442 1.970 . S
O445 C444 1.258 . S
O446 Co443 1.966 . S
O446 C444 1.263 . S
C447 O448 1.235 . S
C447 O474 1.289 . S
O448 C447 1.235 . S
C449 C451 1.400 1_556 S
C449 N452 1.351 . S
C449 C454 1.501 . S
C450 C451 1.387 . S
C450 N453 1.341 1_554 S
C451 C449 1.400 1_554 S
C451 C450 1.387 . S
N452 Co443 2.022 . S
N452 C449 1.351 . S
N452 N453 1.365 . S
N453 C450 1.341 1_556 S
N453 N452 1.365 . S
N453 H473 0.862 . S
C454 C449 1.501 . S
C454 H455 0.961 . S
C454 H456 0.961 . S
C454 H457 0.960 1_556 S
H455 C454 0.961 . S
H456 C454 0.961 . S
H457 C454 0.960 1_554 S
C458 N459 1.342 . S
C458 C462 1.401 . S
C458 C463 1.499 . S
N459 Co442 1.989 . S
N459 C458 1.342 . S
N459 N460 1.388 . S
N460 Co443 1.993 . S
N460 N459 1.388 . S
N460 C461 1.346 . S
C461 N460 1.346 . S
C461 C462 1.396 . S
C461 C471 1.510 . S
C462 C458 1.401 . S
C462 C461 1.396 . S
C463 C458 1.499 . S
C463 H464 0.959 . S
C463 H465 0.960 . S
C463 H466 0.961 . S
H464 C463 0.959 . S
H465 C463 0.960 . S
H466 C463 0.961 . S
O467 Co442 1.967 . S
O467 C475 1.258 . S
O468 Co443 1.941 . S
O468 C475 1.266 . S
H469 C471 0.959 . S
H470 C471 0.961 . S
C471 C461 1.510 . S
C471 H469 0.959 . S
C471 H470 0.961 . S
C471 H472 0.960 . S
H472 C471 0.960 . S
H473 N453 0.862 . S
O474 Co442 1.920 . S
O474 C447 1.289 . S
C475 O467 1.258 . S
C475 O468 1.266 . S
Co476 O479 1.970 . S
Co476 N493 1.989 . S
Co476 O501 1.967 . S
Co476 O508 1.920 . S
Co477 O480 1.966 . S
Co477 N486 2.022 . S
Co477 N494 1.993 . S
Co477 O502 1.941 . S
C478 O479 1.258 . S
C478 O480 1.263 . S
O479 Co476 1.970 . S
O479 C478 1.258 . S
O480 Co477 1.966 . S
O480 C478 1.263 . S
C481 O482 1.235 . S
C481 O508 1.289 . S
O482 C481 1.235 . S
C483 C485 1.400 . S
C483 N486 1.351 . S
C483 C488 1.501 . S
C484 C485 1.387 . S
C484 N487 1.341 . S
C485 C483 1.400 . S
C485 C484 1.387 . S
N486 Co477 2.022 . S
N486 C483 1.351 . S
N486 N487 1.365 . S
N487 C484 1.341 . S
N487 N486 1.365 . S
N487 H507 0.862 . S
C488 C483 1.501 . S
C488 H489 0.961 . S
C488 H490 0.961 . S
C488 H491 0.960 . S
H489 C488 0.961 . S
H490 C488 0.961 . S
H491 C488 0.960 . S
C492 N493 1.342 . S
C492 C496 1.401 . S
C492 C497 1.499 . S
N493 Co476 1.989 . S
N493 C492 1.342 . S
N493 N494 1.388 . S
N494 Co477 1.993 . S
N494 N493 1.388 . S
N494 C495 1.346 . S
C495 N494 1.346 . S
C495 C496 1.396 . S
C495 C505 1.510 . S
C496 C492 1.401 . S
C496 C495 1.396 . S
C497 C492 1.499 . S
C497 H498 0.959 . S
C497 H499 0.960 . S
C497 H500 0.961 . S
H498 C497 0.959 . S
H499 C497 0.960 . S
H500 C497 0.961 . S
O501 Co476 1.967 . S
O501 C509 1.258 . S
O502 Co477 1.941 . S
O502 C509 1.266 . S
H503 C505 0.959 . S
H504 C505 0.961 . S
C505 C495 1.510 . S
C505 H503 0.959 . S
C505 H504 0.961 . S
C505 H506 0.960 . S
H506 C505 0.960 . S
H507 N487 0.862 . S
O508 Co476 1.920 . S
O508 C481 1.289 . S
C509 O501 1.258 . S
C509 O502 1.266 . S
Co510 O513 1.970 . S
Co510 N527 1.989 . S
Co510 O535 1.967 . S
Co510 O542 1.920 . S
Co511 O514 1.966 . S
Co511 N520 2.022 . S
Co511 N528 1.993 . S
Co511 O536 1.941 . S
C512 O513 1.258 . S
C512 O514 1.263 . S
O513 Co510 1.970 . S
O513 C512 1.258 . S
O514 Co511 1.966 . S
O514 C512 1.263 . S
C515 O516 1.235 . S
C515 O542 1.289 . S
O516 C515 1.235 . S
C517 C519 1.400 . S
C517 N520 1.351 . S
C517 C522 1.501 . S
C518 C519 1.387 . S
C518 N521 1.341 . S
C519 C517 1.400 . S
C519 C518 1.387 . S
N520 Co511 2.022 . S
N520 C517 1.351 . S
N520 N521 1.365 . S
N521 C518 1.341 . S
N521 N520 1.365 . S
N521 H541 0.862 . S
C522 C517 1.501 . S
C522 H523 0.961 . S
C522 H524 0.961 . S
C522 H525 0.960 . S
H523 C522 0.961 . S
H524 C522 0.961 . S
H525 C522 0.960 . S
C526 N527 1.342 . S
C526 C530 1.401 . S
C526 C531 1.499 . S
N527 Co510 1.989 . S
N527 C526 1.342 . S
N527 N528 1.388 . S
N528 Co511 1.993 . S
N528 N527 1.388 . S
N528 C529 1.346 . S
C529 N528 1.346 . S
C529 C530 1.396 . S
C529 C539 1.510 . S
C530 C526 1.401 . S
C530 C529 1.396 . S
C531 C526 1.499 . S
C531 H532 0.959 . S
C531 H533 0.960 . S
C531 H534 0.961 . S
H532 C531 0.959 . S
H533 C531 0.960 . S
H534 C531 0.961 . S
O535 Co510 1.967 . S
O535 C543 1.258 . S
O536 Co511 1.941 . S
O536 C543 1.266 . S
H537 C539 0.959 . S
H538 C539 0.961 . S
C539 C529 1.510 . S
C539 H537 0.959 . S
C539 H538 0.961 . S
C539 H540 0.960 . S
H540 C539 0.960 . S
H541 N521 0.862 . S
O542 Co510 1.920 . S
O542 C515 1.289 . S
C543 O535 1.258 . S
C543 O536 1.266 . S
Co544 O547 1.970 . S
Co544 N561 1.989 . S
Co544 O569 1.967 . S
Co544 O576 1.920 . S
Co545 O548 1.966 . S
Co545 N554 2.022 . S
Co545 N562 1.993 . S
Co545 O570 1.941 . S
C546 O547 1.258 . S
C546 O548 1.263 . S
O547 Co544 1.970 . S
O547 C546 1.258 . S
O548 Co545 1.966 . S
O548 C546 1.263 . S
C549 O550 1.235 . S
C549 O576 1.289 . S
O550 C549 1.235 . S
C551 C553 1.400 . S
C551 N554 1.351 . S
C551 C556 1.501 . S
C552 C553 1.387 . S
C552 N555 1.341 . S
C553 C551 1.400 . S
C553 C552 1.387 . S
N554 Co545 2.022 . S
N554 C551 1.351 . S
N554 N555 1.365 . S
N555 C552 1.341 . S
N555 N554 1.365 . S
N555 H575 0.862 . S
C556 C551 1.501 . S
C556 H557 0.961 . S
C556 H558 0.961 . S
C556 H559 0.960 . S
H557 C556 0.961 . S
H558 C556 0.961 . S
H559 C556 0.960 . S
C560 N561 1.342 . S
C560 C564 1.401 . S
C560 C565 1.499 . S
N561 Co544 1.989 . S
N561 C560 1.342 . S
N561 N562 1.388 . S
N562 Co545 1.993 . S
N562 N561 1.388 . S
N562 C563 1.346 . S
C563 N562 1.346 . S
C563 C564 1.396 . S
C563 C573 1.510 . S
C564 C560 1.401 . S
C564 C563 1.396 . S
C565 C560 1.499 . S
C565 H566 0.959 . S
C565 H567 0.960 . S
C565 H568 0.961 . S
H566 C565 0.959 . S
H567 C565 0.960 . S
H568 C565 0.961 . S
O569 Co544 1.967 . S
O569 C577 1.258 . S
O570 Co545 1.941 . S
O570 C577 1.266 . S
H571 C573 0.959 . S
H572 C573 0.961 . S
C573 C563 1.510 . S
C573 H571 0.959 . S
C573 H572 0.961 . S
C573 H574 0.960 . S
H574 C573 0.960 . S
H575 N555 0.862 . S
O576 Co544 1.920 . S
O576 C549 1.289 . S
C577 O569 1.258 . S
C577 O570 1.266 . S
Co578 O581 1.970 . S
Co578 N595 1.989 . S
Co578 O603 1.967 . S
Co578 O610 1.920 . S
Co579 O582 1.966 . S
Co579 N588 2.022 . S
Co579 N596 1.993 . S
Co579 O604 1.941 . S
C580 O581 1.258 . S
C580 O582 1.263 . S
O581 Co578 1.970 . S
O581 C580 1.258 . S
O582 Co579 1.966 . S
O582 C580 1.263 . S
C583 O584 1.235 . S
C583 O610 1.289 . S
O584 C583 1.235 . S
C585 C587 1.400 1_556 S
C585 N588 1.351 . S
C585 C590 1.501 . S
C586 C587 1.387 . S
C586 N589 1.341 1_554 S
C587 C585 1.400 1_554 S
C587 C586 1.387 . S
N588 Co579 2.022 . S
N588 C585 1.351 . S
N588 N589 1.365 . S
N589 C586 1.341 1_556 S
N589 N588 1.365 . S
N589 H609 0.862 . S
C590 C585 1.501 . S
C590 H591 0.961 . S
C590 H592 0.961 . S
C590 H593 0.960 1_556 S
H591 C590 0.961 . S
H592 C590 0.961 . S
H593 C590 0.960 1_554 S
C594 N595 1.342 . S
C594 C598 1.401 . S
C594 C599 1.499 . S
N595 Co578 1.989 . S
N595 C594 1.342 . S
N595 N596 1.388 . S
N596 Co579 1.993 . S
N596 N595 1.388 . S
N596 C597 1.346 . S
C597 N596 1.346 . S
C597 C598 1.396 . S
C597 C607 1.510 . S
C598 C594 1.401 . S
C598 C597 1.396 . S
C599 C594 1.499 . S
C599 H600 0.959 . S
C599 H601 0.960 . S
C599 H602 0.961 . S
H600 C599 0.959 . S
H601 C599 0.960 . S
H602 C599 0.961 . S
O603 Co578 1.967 . S
O603 C611 1.258 . S
O604 Co579 1.941 . S
O604 C611 1.266 . S
H605 C607 0.959 . S
H606 C607 0.961 . S
C607 C597 1.510 . S
C607 H605 0.959 . S
C607 H606 0.961 . S
C607 H608 0.960 . S
H608 C607 0.960 . S
H609 N589 0.862 . S
O610 Co578 1.920 . S
O610 C583 1.289 . S
C611 O603 1.258 . S
C611 O604 1.266 . S
H612 C620 0.950 . S
H613 C625 0.950 . S
H614 C622 0.950 . S
H615 C624 0.950 . S
H616 C626 0.950 . S
H617 C628 0.950 . S
H618 C630 0.950 . S
H619 C631 0.950 . S
C620 H612 0.950 . S
C620 C621 1.386 . S
C620 C622 1.391 . S
C621 C620 1.386 . S
C621 C625 1.393 . S
C622 H614 0.950 . S
C622 C620 1.391 . S
C622 C623 1.400 . S
C623 C622 1.400 . S
C623 C624 1.398 . S
C623 C629 1.491 . S
C624 H615 0.950 . S
C624 C623 1.398 . S
C624 C625 1.391 . S
C625 H613 0.950 . S
C625 C621 1.393 . S
C625 C624 1.391 . S
C626 H616 0.950 . S
C626 C627 1.386 . S
C626 C628 1.391 . S
C627 C626 1.386 . S
C627 C631 1.393 . S
C628 H617 0.950 . S
C628 C626 1.391 . S
C628 C629 1.400 . S
C629 C623 1.491 . S
C629 C628 1.400 . S
C629 C630 1.398 . S
C630 H618 0.950 . S
C630 C629 1.398 . S
C630 C631 1.391 . S
C631 H619 0.950 . S
C631 C627 1.393 . S
C631 C630 1.391 . S
H632 C640 0.950 . S
H633 C645 0.950 . S
H634 C642 0.950 . S
H635 C644 0.950 . S
H636 C646 0.950 . S
H637 C648 0.950 . S
H638 C650 0.950 . S
H639 C651 0.950 . S
C640 H632 0.950 . S
C640 C641 1.386 . S
C640 C642 1.391 . S
C641 C640 1.386 . S
C641 C645 1.393 . S
C642 H634 0.950 . S
C642 C640 1.391 . S
C642 C643 1.400 . S
C643 C642 1.400 . S
C643 C644 1.398 . S
C643 C649 1.491 . S
C644 H635 0.950 . S
C644 C643 1.398 . S
C644 C645 1.391 . S
C645 H633 0.950 . S
C645 C641 1.393 . S
C645 C644 1.391 . S
C646 H636 0.950 . S
C646 C647 1.386 . S
C646 C648 1.391 . S
C647 C646 1.386 . S
C647 C651 1.393 . S
C648 H637 0.950 . S
C648 C646 1.391 . S
C648 C649 1.400 . S
C649 C643 1.491 . S
C649 C648 1.400 . S
C649 C650 1.398 . S
C650 H638 0.950 . S
C650 C649 1.398 . S
C650 C651 1.391 . S
C651 H639 0.950 . S
C651 C647 1.393 . S
C651 C650 1.391 . S
H652 C660 0.950 . S
H653 C665 0.950 . S
H654 C662 0.950 . S
H655 C664 0.950 . S
H656 C666 0.950 . S
H657 C668 0.950 . S
H658 C670 0.950 . S
H659 C671 0.950 . S
C660 H652 0.950 . S
C660 C661 1.386 . S
C660 C662 1.391 . S
C661 C660 1.386 . S
C661 C665 1.393 . S
C662 H654 0.950 . S
C662 C660 1.391 . S
C662 C663 1.400 . S
C663 C662 1.400 . S
C663 C664 1.398 . S
C663 C669 1.491 . S
C664 H655 0.950 . S
C664 C663 1.398 . S
C664 C665 1.391 . S
C665 H653 0.950 . S
C665 C661 1.393 . S
C665 C664 1.391 . S
C666 H656 0.950 . S
C666 C667 1.386 . S
C666 C668 1.391 . S
C667 C666 1.386 . S
C667 C671 1.393 . S
C668 H657 0.950 . S
C668 C666 1.391 . S
C668 C669 1.400 . S
C669 C663 1.491 . S
C669 C668 1.400 . S
C669 C670 1.398 . S
C670 H658 0.950 . S
C670 C669 1.398 . S
C670 C671 1.391 . S
C671 H659 0.950 . S
C671 C667 1.393 . S
C671 C670 1.391 . S
H672 C680 0.950 . S
H673 C685 0.950 . S
H674 C682 0.950 . S
H675 C684 0.950 . S
H676 C686 0.950 . S
H677 C688 0.950 . S
H678 C690 0.950 . S
H679 C691 0.950 . S
C680 H672 0.950 . S
C680 C681 1.386 1_655 S
C680 C682 1.391 . S
C681 C680 1.386 1_455 S
C681 C685 1.393 . S
C682 H674 0.950 . S
C682 C680 1.391 . S
C682 C683 1.400 1_655 S
C683 C682 1.400 1_455 S
C683 C684 1.398 . S
C683 C689 1.491 1_455 S
C684 H675 0.950 . S
C684 C683 1.398 . S
C684 C685 1.391 . S
C685 H673 0.950 . S
C685 C681 1.393 . S
C685 C684 1.391 . S
C686 H676 0.950 . S
C686 C687 1.386 1_455 S
C686 C688 1.391 . S
C687 C686 1.386 1_655 S
C687 C691 1.393 . S
C688 H677 0.950 . S
C688 C686 1.391 . S
C688 C689 1.400 1_455 S
C689 C683 1.491 1_655 S
C689 C688 1.400 1_655 S
C689 C690 1.398 . S
C690 H678 0.950 . S
C690 C689 1.398 . S
C690 C691 1.391 . S
C691 H679 0.950 . S
C691 C687 1.393 . S
C691 C690 1.391 . S
H692 C700 0.950 . S
H693 C705 0.950 . S
H694 C702 0.950 . S
H695 C704 0.950 . S
H696 C706 0.950 . S
H697 C708 0.950 . S
H698 C710 0.950 . S
H699 C711 0.950 . S
C700 H692 0.950 . S
C700 C701 1.386 . S
C700 C702 1.391 . S
C701 C700 1.386 . S
C701 C705 1.393 . S
C702 H694 0.950 . S
C702 C700 1.391 . S
C702 C703 1.400 . S
C703 C702 1.400 . S
C703 C704 1.398 . S
C703 C709 1.491 . S
C704 H695 0.950 . S
C704 C703 1.398 . S
C704 C705 1.391 . S
C705 H693 0.950 . S
C705 C701 1.393 . S
C705 C704 1.391 . S
C706 H696 0.950 . S
C706 C707 1.386 . S
C706 C708 1.391 . S
C707 C706 1.386 . S
C707 C711 1.393 . S
C708 H697 0.950 . S
C708 C706 1.391 . S
C708 C709 1.400 . S
C709 C703 1.491 . S
C709 C708 1.400 . S
C709 C710 1.398 . S
C710 H698 0.950 . S
C710 C709 1.398 . S
C710 C711 1.391 . S
C711 H699 0.950 . S
C711 C707 1.393 . S
C711 C710 1.391 . S
H712 C720 0.950 . S
H713 C725 0.950 . S
H714 C722 0.950 . S
H715 C724 0.950 . S
H716 C726 0.961 1_565 S
H717 C728 0.950 . S
H718 C730 0.950 . S
H719 C731 0.950 . S
C720 H712 0.950 . S
C720 C721 1.386 . S
C720 C722 1.391 . S
C721 C720 1.386 . S
C721 C725 1.393 . S
C722 H714 0.950 . S
C722 C720 1.391 . S
C722 C723 1.400 . S
C723 C722 1.400 . S
C723 C724 1.398 . S
C723 C729 1.491 . S
C724 H715 0.950 . S
C724 C723 1.398 . S
C724 C725 1.391 . S
C725 H713 0.950 . S
C725 C721 1.393 . S
C725 C724 1.391 . S
C726 H716 0.961 1_545 S
C726 C727 1.382 . S
C726 C728 1.384 1_545 S
C727 C726 1.382 . S
C727 C731 1.393 . S
C728 H717 0.950 . S
C728 C726 1.384 1_565 S
C728 C729 1.400 . S
C729 C723 1.491 . S
C729 C728 1.400 . S
C729 C730 1.398 1_565 S
C730 H718 0.950 . S
C730 C729 1.398 1_545 S
C730 C731 1.391 . S
C731 H719 0.950 . S
C731 C727 1.393 . S
C731 C730 1.391 . S
H732 C740 0.950 . S
H733 C745 0.950 . S
H734 C742 0.950 . S
H735 C744 0.950 . S
H736 C746 0.950 . S
H737 C748 0.950 . S
H738 C750 0.950 . S
H739 C751 0.950 . S
C740 H732 0.950 . S
C740 C741 1.386 . S
C740 C742 1.391 . S
C741 C740 1.386 . S
C741 C745 1.393 . S
C742 H734 0.950 . S
C742 C740 1.391 . S
C742 C743 1.400 . S
C743 C742 1.400 . S
C743 C744 1.398 . S
C743 C749 1.491 1_556 S
C744 H735 0.950 . S
C744 C743 1.398 . S
C744 C745 1.391 . S
C745 H733 0.950 . S
C745 C741 1.393 . S
C745 C744 1.391 . S
C746 H736 0.950 . S
C746 C747 1.386 . S
C746 C748 1.391 . S
C747 C746 1.386 . S
C747 C751 1.393 . S
C748 H737 0.950 . S
C748 C746 1.391 . S
C748 C749 1.400 . S
C749 C743 1.491 1_554 S
C749 C748 1.400 . S
C749 C750 1.398 . S
C750 H738 0.950 . S
C750 C749 1.398 . S
C750 C751 1.391 . S
C751 H739 0.950 . S
C751 C747 1.393 . S
C751 C750 1.391 . S
H752 C760 0.950 . S
H753 C765 0.950 . S
H754 C762 0.950 . S
H755 C764 0.950 . S
H756 C766 0.950 . S
H757 C768 0.950 . S
H758 C770 0.950 . S
H759 C771 0.950 . S
C760 H752 0.950 . S
C760 C761 1.386 . S
C760 C762 1.391 . S
C761 C760 1.386 . S
C761 C765 1.393 . S
C762 H754 0.950 . S
C762 C760 1.391 . S
C762 C763 1.400 . S
C763 C762 1.400 . S
C763 C764 1.398 . S
C763 C769 1.491 1_556 S
C764 H755 0.950 . S
C764 C763 1.398 . S
C764 C765 1.391 . S
C765 H753 0.950 . S
C765 C761 1.393 . S
C765 C764 1.391 . S
C766 H756 0.950 . S
C766 C767 1.386 . S
C766 C768 1.391 . S
C767 C766 1.386 . S
C767 C771 1.393 . S
C768 H757 0.950 . S
C768 C766 1.391 . S
C768 C769 1.400 . S
C769 C763 1.491 1_554 S
C769 C768 1.400 . S
C769 C770 1.398 . S
C770 H758 0.950 . S
C770 C769 1.398 . S
C770 C771 1.391 . S
C771 H759 0.950 . S
C771 C767 1.393 . S
C771 C770 1.391 . S
H772 C780 0.950 . S
H773 C785 0.950 . S
H774 C782 0.950 . S
H775 C784 0.950 . S
H776 C786 0.950 . S
H777 C788 0.950 1_556 S
H778 C790 0.950 . S
H779 C791 0.950 . S
C780 H772 0.950 . S
C780 C781 1.386 . S
C780 C782 1.391 . S
C781 C780 1.386 . S
C781 C785 1.393 . S
C782 H774 0.950 . S
C782 C780 1.391 . S
C782 C783 1.400 . S
C783 C782 1.400 . S
C783 C784 1.398 . S
C783 C789 1.491 1_556 S
C784 H775 0.950 . S
C784 C783 1.398 . S
C784 C785 1.391 . S
C785 H773 0.950 . S
C785 C781 1.393 . S
C785 C784 1.391 . S
C786 H776 0.950 . S
C786 C787 1.386 . S
C786 C788 1.391 . S
C787 C786 1.386 . S
C787 C791 1.393 . S
C788 H777 0.950 1_554 S
C788 C786 1.391 . S
C788 C789 1.400 . S
C789 C783 1.491 1_554 S
C789 C788 1.400 . S
C789 C790 1.398 . S
C790 H778 0.950 . S
C790 C789 1.398 . S
C790 C791 1.391 . S
C791 H779 0.950 . S
C791 C787 1.393 . S
C791 C790 1.391 . S
H792 C800 0.950 . S
H793 C805 0.950 . S
H794 C802 0.950 . S
H795 C804 0.950 . S
H796 C806 0.950 . S
H797 C808 0.950 . S
H798 C810 0.950 . S
H799 C811 0.950 . S
C800 H792 0.950 . S
C800 C801 1.386 . S
C800 C802 1.391 . S
C801 C800 1.386 . S
C801 C805 1.393 . S
C802 H794 0.950 . S
C802 C800 1.391 . S
C802 C803 1.400 . S
C803 C802 1.400 . S
C803 C804 1.398 . S
C803 C809 1.491 1_554 S
C804 H795 0.950 . S
C804 C803 1.398 . S
C804 C805 1.391 . S
C805 H793 0.950 . S
C805 C801 1.393 . S
C805 C804 1.391 . S
C806 H796 0.950 . S
C806 C807 1.386 . S
C806 C808 1.391 . S
C807 C806 1.386 . S
C807 C811 1.393 . S
C808 H797 0.950 . S
C808 C806 1.391 . S
C808 C809 1.400 . S
C809 C803 1.491 1_556 S
C809 C808 1.400 . S
C809 C810 1.398 . S
C810 H798 0.950 . S
C810 C809 1.398 . S
C810 C811 1.391 . S
C811 H799 0.950 . S
C811 C807 1.393 . S
C811 C810 1.391 . S
H812 C820 0.950 . S
H813 C825 0.950 . S
H814 C822 0.950 . S
H815 C824 0.950 . S
H816 C826 0.950 . S
H817 C828 0.950 . S
H818 C830 0.950 . S
H819 C831 0.950 . S
C820 H812 0.950 . S
C820 C821 1.386 . S
C820 C822 1.391 . S
C821 C820 1.386 . S
C821 C825 1.393 . S
C822 H814 0.950 . S
C822 C820 1.391 . S
C822 C823 1.400 . S
C823 C822 1.400 . S
C823 C824 1.398 . S
C823 C829 1.491 1_556 S
C824 H815 0.950 . S
C824 C823 1.398 . S
C824 C825 1.391 . S
C825 H813 0.950 . S
C825 C821 1.393 . S
C825 C824 1.391 . S
C826 H816 0.950 . S
C826 C827 1.386 . S
C826 C828 1.391 . S
C827 C826 1.386 . S
C827 C831 1.393 . S
C828 H817 0.950 . S
C828 C826 1.391 . S
C828 C829 1.400 . S
C829 C823 1.491 1_554 S
C829 C828 1.400 . S
C829 C830 1.398 . S
C830 H818 0.950 . S
C830 C829 1.398 . S
C830 C831 1.391 . S
C831 H819 0.950 . S
C831 C827 1.393 . S
C831 C830 1.391 . S
H832 C840 0.950 . S
H833 C845 0.950 . S
H834 C842 0.950 . S
H835 C844 0.950 . S
H836 C846 0.950 . S
H837 C848 0.950 . S
H838 C850 0.950 . S
H839 C851 0.950 . S
C840 H832 0.950 . S
C840 C841 1.386 . S
C840 C842 1.391 . S
C841 C840 1.386 . S
C841 C845 1.393 . S
C842 H834 0.950 . S
C842 C840 1.391 . S
C842 C843 1.400 . S
C843 C842 1.400 . S
C843 C844 1.398 . S
C843 C849 1.491 1_556 S
C844 H835 0.950 . S
C844 C843 1.398 . S
C844 C845 1.391 . S
C845 H833 0.950 . S
C845 C841 1.393 . S
C845 C844 1.391 . S
C846 H836 0.950 . S
C846 C847 1.386 . S
C846 C848 1.391 . S
C847 C846 1.386 . S
C847 C851 1.393 . S
C848 H837 0.950 . S
C848 C846 1.391 . S
C848 C849 1.400 . S
C849 C843 1.491 1_554 S
C849 C848 1.400 . S
C849 C850 1.398 . S
C850 H838 0.950 . S
C850 C849 1.398 . S
C850 C851 1.391 . S
C851 H839 0.950 . S
C851 C847 1.393 . S
C851 C850 1.391 . S
H852 C860 0.950 . S
H853 C865 0.950 . S
H854 C862 0.950 . S
H855 C864 0.950 . S
H856 C866 0.950 . S
H857 C868 0.950 . S
H858 C870 0.950 . S
H859 C871 0.950 . S
C860 H852 0.950 . S
C860 C861 1.386 . S
C860 C862 1.391 . S
C861 C860 1.386 . S
C861 C865 1.393 . S
C862 H854 0.950 . S
C862 C860 1.391 . S
C862 C863 1.400 . S
C863 C862 1.400 . S
C863 C864 1.398 . S
C863 C869 1.491 . S
C864 H855 0.950 . S
C864 C863 1.398 . S
C864 C865 1.391 . S
C865 H853 0.950 . S
C865 C861 1.393 . S
C865 C864 1.391 . S
C866 H856 0.950 . S
C866 C867 1.386 . S
C866 C868 1.391 . S
C867 C866 1.386 . S
C867 C871 1.393 . S
C868 H857 0.950 . S
C868 C866 1.391 . S
C868 C869 1.400 . S
C869 C863 1.491 . S
C869 C868 1.400 . S
C869 C870 1.398 . S
C870 H858 0.950 . S
C870 C869 1.398 . S
C870 C871 1.391 . S
C871 H859 0.950 . S
C871 C867 1.393 . S
C871 C870 1.391 . S
H872 C880 0.950 . S
H873 C885 0.950 . S
H874 C882 0.950 . S
H875 C884 0.950 . S
H876 C886 0.950 . S
H877 C888 0.950 . S
H878 C890 0.950 . S
H879 C891 0.950 . S
C880 H872 0.950 . S
C880 C881 1.386 . S
C880 C882 1.391 . S
C881 C880 1.386 . S
C881 C885 1.393 . S
C882 H874 0.950 . S
C882 C880 1.391 . S
C882 C883 1.400 . S
C883 C882 1.400 . S
C883 C884 1.398 . S
C883 C889 1.491 . S
C884 H875 0.950 . S
C884 C883 1.398 . S
C884 C885 1.391 . S
C885 H873 0.950 . S
C885 C881 1.393 . S
C885 C884 1.391 . S
C886 H876 0.950 . S
C886 C887 1.386 . S
C886 C888 1.391 . S
C887 C886 1.386 . S
C887 C891 1.393 . S
C888 H877 0.950 . S
C888 C886 1.391 . S
C888 C889 1.400 . S
C889 C883 1.491 . S
C889 C888 1.400 . S
C889 C890 1.398 . S
C890 H878 0.950 . S
C890 C889 1.398 . S
C890 C891 1.391 . S
C891 H879 0.950 . S
C891 C887 1.393 . S
C891 C890 1.391 . S
H892 C900 0.950 . S
H893 C905 0.950 . S
H894 C902 0.950 . S
H895 C904 0.950 . S
H896 C906 0.950 . S
H897 C908 0.950 . S
H898 C910 0.950 . S
H899 C911 0.950 . S
C900 H892 0.950 . S
C900 C901 1.386 . S
C900 C902 1.391 . S
C901 C900 1.386 . S
C901 C905 1.393 . S
C902 H894 0.950 . S
C902 C900 1.391 . S
C902 C903 1.400 . S
C903 C902 1.400 . S
C903 C904 1.398 . S
C903 C909 1.491 . S
C904 H895 0.950 . S
C904 C903 1.398 . S
C904 C905 1.391 . S
C905 H893 0.950 . S
C905 C901 1.393 . S
C905 C904 1.391 . S
C906 H896 0.950 . S
C906 C907 1.386 . S
C906 C908 1.391 . S
C907 C906 1.386 . S
C907 C911 1.393 . S
C908 H897 0.950 . S
C908 C906 1.391 . S
C908 C909 1.400 . S
C909 C903 1.491 . S
C909 C908 1.400 . S
C909 C910 1.398 . S
C910 H898 0.950 . S
C910 C909 1.398 . S
C910 C911 1.391 . S
C911 H899 0.950 . S
C911 C907 1.393 . S
C911 C910 1.391 . S
H912 C920 0.950 . S
H913 C925 0.950 . S
H914 C922 0.950 . S
H915 C924 0.950 . S
H916 C926 0.950 . S
H917 C928 0.950 . S
H918 C930 0.950 . S
H919 C931 0.950 . S
C920 H912 0.950 . S
C920 C921 1.386 . S
C920 C922 1.391 . S
C921 C920 1.386 . S
C921 C925 1.393 . S
C922 H914 0.950 . S
C922 C920 1.391 . S
C922 C923 1.400 . S
C923 C922 1.400 . S
C923 C924 1.398 . S
C923 C929 1.491 . S
C924 H915 0.950 . S
C924 C923 1.398 . S
C924 C925 1.391 . S
C925 H913 0.950 . S
C925 C921 1.393 . S
C925 C924 1.391 . S
C926 H916 0.950 . S
C926 C927 1.386 . S
C926 C928 1.391 . S
C927 C926 1.386 . S
C927 C931 1.393 . S
C928 H917 0.950 . S
C928 C926 1.391 . S
C928 C929 1.400 . S
C929 C923 1.491 . S
C929 C928 1.400 . S
C929 C930 1.398 . S
C930 H918 0.950 . S
C930 C929 1.398 . S
C930 C931 1.391 . S
C931 H919 0.950 . S
C931 C927 1.393 . S
C931 C930 1.391 . S
H932 C940 0.950 . S
H933 C945 0.950 . S
H934 C942 0.950 . S
H935 C944 0.950 . S
H936 C946 0.950 1_556 S
H937 C948 0.950 . S
H938 C950 0.950 . S
H939 C951 0.950 . S
C940 H932 0.950 . S
C940 C941 1.386 . S
C940 C942 1.391 . S
C941 C940 1.386 . S
C941 C945 1.393 . S
C942 H934 0.950 . S
C942 C940 1.391 . S
C942 C943 1.400 . S
C943 C942 1.400 . S
C943 C944 1.398 . S
C943 C949 1.491 . S
C944 H935 0.950 . S
C944 C943 1.398 . S
C944 C945 1.391 . S
C945 H933 0.950 . S
C945 C941 1.393 . S
C945 C944 1.391 . S
C946 H936 0.950 1_554 S
C946 C947 1.386 . S
C946 C948 1.391 . S
C947 C946 1.386 . S
C947 C951 1.393 . S
C948 H937 0.950 . S
C948 C946 1.391 . S
C948 C949 1.400 . S
C949 C943 1.491 . S
C949 C948 1.400 . S
C949 C950 1.398 . S
C950 H938 0.950 . S
C950 C949 1.398 . S
C950 C951 1.391 . S
C951 H939 0.950 . S
C951 C947 1.393 . S
C951 C950 1.391 . S
H952 C960 0.950 . S
H953 C965 0.950 . S
H954 C962 0.950 . S
H955 C964 0.950 . S
H956 C966 0.950 . S
H957 C968 0.950 . S
H958 C970 0.950 . S
H959 C971 0.950 . S
C960 H952 0.950 . S
C960 C961 1.386 . S
C960 C962 1.391 . S
C961 C960 1.386 . S
C961 C965 1.393 . S
C962 H954 0.950 . S
C962 C960 1.391 . S
C962 C963 1.400 . S
C963 C962 1.400 . S
C963 C964 1.398 . S
C963 C969 1.491 . S
C964 H955 0.950 . S
C964 C963 1.398 . S
C964 C965 1.391 . S
C965 H953 0.950 . S
C965 C961 1.393 . S
C965 C964 1.391 . S
C966 H956 0.950 . S
C966 C967 1.386 . S
C966 C968 1.391 . S
C967 C966 1.386 . S
C967 C971 1.393 . S
C968 H957 0.950 . S
C968 C966 1.391 . S
C968 C969 1.400 . S
C969 C963 1.491 . S
C969 C968 1.400 . S
C969 C970 1.398 . S
C970 H958 0.950 . S
C970 C969 1.398 . S
C970 C971 1.391 . S
C971 H959 0.950 . S
C971 C967 1.393 . S
C971 C970 1.391 . S
H972 C980 0.950 1_556 S
H973 C985 0.950 . S
H974 C982 0.950 1_556 S
H975 C984 0.950 . S
H976 C986 0.950 . S
H977 C988 0.950 . S
H978 C990 0.950 1_556 S
H979 C991 0.950 1_556 S
C980 H972 0.950 1_554 S
C980 C981 1.386 . S
C980 C982 1.391 . S
C981 C980 1.386 . S
C981 C985 1.393 . S
C982 H974 0.950 1_554 S
C982 C980 1.391 . S
C982 C983 1.400 . S
C983 C982 1.400 . S
C983 C984 1.398 . S
C983 C989 1.491 . S
C984 H975 0.950 . S
C984 C983 1.398 . S
C984 C985 1.391 . S
C985 H973 0.950 . S
C985 C981 1.393 . S
C985 C984 1.391 . S
C986 H976 0.950 . S
C986 C987 1.386 . S
C986 C988 1.391 . S
C987 C986 1.386 . S
C987 C991 1.393 . S
C988 H977 0.950 . S
C988 C986 1.391 . S
C988 C989 1.400 . S
C989 C983 1.491 . S
C989 C988 1.400 . S
C989 C990 1.398 . S
C990 H978 0.950 1_554 S
C990 C989 1.398 . S
C990 C991 1.391 . S
C991 H979 0.950 1_554 S
C991 C987 1.393 . S
C991 C990 1.391 . S
H992 C1000 0.950 . S
H993 C1005 0.950 . S
H994 C1002 0.950 . S
H995 C1004 0.950 . S
H996 C1006 0.950 . S
H997 C1008 0.950 . S
H998 C1010 0.950 . S
H999 C1011 0.950 . S
C1000 H992 0.950 . S
C1000 C1001 1.386 . S
C1000 C1002 1.391 . S
C1001 C1000 1.386 . S
C1001 C1005 1.393 . S
C1002 H994 0.950 . S
C1002 C1000 1.391 . S
C1002 C1003 1.400 . S
C1003 C1002 1.400 . S
C1003 C1004 1.398 . S
C1003 C1009 1.491 . S
C1004 H995 0.950 . S
C1004 C1003 1.398 . S
C1004 C1005 1.391 . S
C1005 H993 0.950 . S
C1005 C1001 1.393 . S
C1005 C1004 1.391 . S
C1006 H996 0.950 . S
C1006 C1007 1.386 . S
C1006 C1008 1.391 . S
C1007 C1006 1.386 . S
C1007 C1011 1.393 . S
C1008 H997 0.950 . S
C1008 C1006 1.391 . S
C1008 C1009 1.400 . S
C1009 C1003 1.491 . S
C1009 C1008 1.400 . S
C1009 C1010 1.398 . S
C1010 H998 0.950 . S
C1010 C1009 1.398 . S
C1010 C1011 1.391 . S
C1011 H999 0.950 . S
C1011 C1007 1.393 . S
C1011 C1010 1.391 . S
H1012 C1020 0.950 1_565 S
H1013 C1025 0.950 1_556 S
H1014 C1022 0.950 . S
H1015 C1024 0.950 1_556 S
H1016 C1026 0.950 1_556 S
H1017 C1028 0.950 1_556 S
H1018 C1030 0.950 . S
H1019 C1031 0.950 . S
C1020 H1012 0.950 1_545 S
C1020 C1021 1.386 . S
C1020 C1022 1.391 . S
C1021 C1020 1.386 . S
C1021 C1025 1.393 . S
C1022 H1014 0.950 . S
C1022 C1020 1.391 . S
C1022 C1023 1.400 . S
C1023 C1022 1.400 . S
C1023 C1024 1.398 . S
C1023 C1029 1.491 . S
C1024 H1015 0.950 1_554 S
C1024 C1023 1.398 . S
C1024 C1025 1.391 . S
C1025 H1013 0.950 1_554 S
C1025 C1021 1.393 . S
C1025 C1024 1.391 . S
C1026 H1016 0.950 1_554 S
C1026 C1027 1.386 . S
C1026 C1028 1.391 . S
C1027 C1026 1.386 . S
C1027 C1031 1.393 . S
C1028 H1017 0.950 1_554 S
C1028 C1026 1.391 . S
C1028 C1029 1.400 . S
C1029 C1023 1.491 . S
C1029 C1028 1.400 . S
C1029 C1030 1.398 . S
C1030 H1018 0.950 . S
C1030 C1029 1.398 . S
C1030 C1031 1.391 . S
C1031 H1019 0.950 . S
C1031 C1027 1.393 . S
C1031 C1030 1.391 . S
H1032 C1040 0.950 . S
H1033 C1045 0.950 . S
H1034 C1042 0.950 . S
H1035 C1044 0.950 . S
H1036 C1046 0.950 . S
H1037 C1048 0.950 . S
H1038 C1050 0.950 . S
H1039 C1051 0.950 . S
C1040 H1032 0.950 . S
C1040 C1041 1.386 . S
C1040 C1042 1.391 . S
C1041 C1040 1.386 . S
C1041 C1045 1.393 . S
C1042 H1034 0.950 . S
C1042 C1040 1.391 . S
C1042 C1043 1.400 . S
C1043 C1042 1.400 . S
C1043 C1044 1.398 . S
C1043 C1049 1.491 . S
C1044 H1035 0.950 . S
C1044 C1043 1.398 . S
C1044 C1045 1.391 . S
C1045 H1033 0.950 . S
C1045 C1041 1.393 . S
C1045 C1044 1.391 . S
C1046 H1036 0.950 . S
C1046 C1047 1.386 . S
C1046 C1048 1.391 . S
C1047 C1046 1.386 . S
C1047 C1051 1.393 . S
C1048 H1037 0.950 . S
C1048 C1046 1.391 . S
C1048 C1049 1.400 . S
C1049 C1043 1.491 . S
C1049 C1048 1.400 . S
C1049 C1050 1.398 . S
C1050 H1038 0.950 . S
C1050 C1049 1.398 . S
C1050 C1051 1.391 . S
C1051 H1039 0.950 . S
C1051 C1047 1.393 . S
C1051 C1050 1.391 . S
H1052 C1060 0.950 . S
H1053 C1065 0.950 . S
H1054 C1062 0.950 . S
H1055 C1064 0.950 . S
H1056 C1066 0.950 . S
H1057 C1068 0.950 . S
H1058 C1070 0.950 . S
H1059 C1071 0.950 . S
C1060 H1052 0.950 . S
C1060 C1061 1.386 . S
C1060 C1062 1.391 . S
C1061 C1060 1.386 . S
C1061 C1065 1.393 . S
C1062 H1054 0.950 . S
C1062 C1060 1.391 . S
C1062 C1063 1.400 . S
C1063 C1062 1.400 . S
C1063 C1064 1.398 . S
C1063 C1069 1.491 . S
C1064 H1055 0.950 . S
C1064 C1063 1.398 . S
C1064 C1065 1.391 . S
C1065 H1053 0.950 . S
C1065 C1061 1.393 . S
C1065 C1064 1.391 . S
C1066 H1056 0.950 . S
C1066 C1067 1.386 . S
C1066 C1068 1.391 . S
C1067 C1066 1.386 . S
C1067 C1071 1.393 . S
C1068 H1057 0.950 . S
C1068 C1066 1.391 . S
C1068 C1069 1.400 . S
C1069 C1063 1.491 . S
C1069 C1068 1.400 . S
C1069 C1070 1.398 . S
C1070 H1058 0.950 . S
C1070 C1069 1.398 . S
C1070 C1071 1.391 . S
C1071 H1059 0.950 . S
C1071 C1067 1.393 . S
C1071 C1070 1.391 . S
H1072 C1080 0.950 . S
H1073 C1085 0.950 . S
H1074 C1082 0.950 . S
H1075 C1084 0.950 . S
H1076 C1086 0.950 . S
H1077 C1088 0.950 . S
H1078 C1090 0.950 . S
H1079 C1091 0.950 . S
C1080 H1072 0.950 . S
C1080 C1081 1.386 . S
C1080 C1082 1.391 . S
C1081 C1080 1.386 . S
C1081 C1085 1.393 . S
C1082 H1074 0.950 . S
C1082 C1080 1.391 . S
C1082 C1083 1.400 . S
C1083 C1082 1.400 . S
C1083 C1084 1.398 . S
C1083 C1089 1.491 . S
C1084 H1075 0.950 . S
C1084 C1083 1.398 . S
C1084 C1085 1.391 . S
C1085 H1073 0.950 . S
C1085 C1081 1.393 . S
C1085 C1084 1.391 . S
C1086 H1076 0.950 . S
C1086 C1087 1.386 . S
C1086 C1088 1.391 . S
C1087 C1086 1.386 . S
C1087 C1091 1.393 . S
C1088 H1077 0.950 . S
C1088 C1086 1.391 . S
C1088 C1089 1.400 . S
C1089 C1083 1.491 . S
C1089 C1088 1.400 . S
C1089 C1090 1.398 . S
C1090 H1078 0.950 . S
C1090 C1089 1.398 . S
C1090 C1091 1.391 . S
C1091 H1079 0.950 . S
C1091 C1087 1.393 . S
C1091 C1090 1.391 . S
H1092 C1100 0.950 . S
H1093 C1105 0.950 . S
H1094 C1102 0.950 . S
H1095 C1104 0.950 . S
H1096 C1106 0.950 . S
H1097 C1108 0.950 . S
H1098 C1110 0.950 . S
H1099 C1111 0.950 . S
C1100 H1092 0.950 . S
C1100 C1101 1.386 . S
C1100 C1102 1.391 . S
C1101 C1100 1.386 . S
C1101 C1105 1.393 . S
C1102 H1094 0.950 . S
C1102 C1100 1.391 . S
C1102 C1103 1.400 . S
C1103 C1102 1.400 . S
C1103 C1104 1.398 . S
C1103 C1109 1.491 . S
C1104 H1095 0.950 . S
C1104 C1103 1.398 . S
C1104 C1105 1.391 . S
C1105 H1093 0.950 . S
C1105 C1101 1.393 . S
C1105 C1104 1.391 . S
C1106 H1096 0.950 . S
C1106 C1107 1.386 . S
C1106 C1108 1.391 . S
C1107 C1106 1.386 . S
C1107 C1111 1.393 . S
C1108 H1097 0.950 . S
C1108 C1106 1.391 . S
C1108 C1109 1.400 . S
C1109 C1103 1.491 . S
C1109 C1108 1.400 . S
C1109 C1110 1.398 . S
C1110 H1098 0.950 . S
C1110 C1109 1.398 . S
C1110 C1111 1.391 . S
C1111 H1099 0.950 . S
C1111 C1107 1.393 . S
C1111 C1110 1.391 . S
H1112 C1120 0.950 . S
H1113 C1125 0.950 . S
H1114 C1122 0.950 . S
H1115 C1124 0.950 . S
H1116 C1126 0.950 . S
H1117 C1128 0.950 . S
H1118 C1130 0.950 . S
H1119 C1131 0.950 . S
C1120 H1112 0.950 . S
C1120 C1121 1.386 . S
C1120 C1122 1.391 . S
C1121 C1120 1.386 . S
C1121 C1125 1.393 . S
C1122 H1114 0.950 . S
C1122 C1120 1.391 . S
C1122 C1123 1.400 . S
C1123 C1122 1.400 . S
C1123 C1124 1.398 . S
C1123 C1129 1.491 . S
C1124 H1115 0.950 . S
C1124 C1123 1.398 . S
C1124 C1125 1.391 . S
C1125 H1113 0.950 . S
C1125 C1121 1.393 . S
C1125 C1124 1.391 . S
C1126 H1116 0.950 . S
C1126 C1127 1.386 . S
C1126 C1128 1.391 . S
C1127 C1126 1.386 . S
C1127 C1131 1.393 . S
C1128 H1117 0.950 . S
C1128 C1126 1.391 . S
C1128 C1129 1.400 . S
C1129 C1123 1.491 . S
C1129 C1128 1.400 . S
C1129 C1130 1.398 . S
C1130 H1118 0.950 . S
C1130 C1129 1.398 . S
C1130 C1131 1.391 . S
C1131 H1119 0.950 . S
C1131 C1127 1.393 . S
C1131 C1130 1.391 . S
H1132 C1140 0.950 . S
H1133 C1145 0.950 . S
H1134 C1142 0.950 . S
H1135 C1144 0.950 . S
H1136 C1146 0.950 . S
H1137 C1148 0.950 . S
H1138 C1150 0.950 . S
H1139 C1151 0.950 . S
C1140 H1132 0.950 . S
C1140 C1141 1.386 . S
C1140 C1142 1.391 . S
C1141 C1140 1.386 . S
C1141 C1145 1.393 . S
C1142 H1134 0.950 . S
C1142 C1140 1.391 . S
C1142 C1143 1.400 . S
C1143 C1142 1.400 . S
C1143 C1144 1.398 . S
C1143 C1149 1.491 . S
C1144 H1135 0.950 . S
C1144 C1143 1.398 . S
C1144 C1145 1.391 . S
C1145 H1133 0.950 . S
C1145 C1141 1.393 . S
C1145 C1144 1.391 . S
C1146 H1136 0.950 . S
C1146 C1147 1.386 . S
C1146 C1148 1.391 . S
C1147 C1146 1.386 . S
C1147 C1151 1.393 . S
C1148 H1137 0.950 . S
C1148 C1146 1.391 . S
C1148 C1149 1.400 . S
C1149 C1143 1.491 . S
C1149 C1148 1.400 . S
C1149 C1150 1.398 . S
C1150 H1138 0.950 . S
C1150 C1149 1.398 . S
C1150 C1151 1.391 . S
C1151 H1139 0.950 . S
C1151 C1147 1.393 . S
C1151 C1150 1.391 . S
H1152 C1160 0.950 . S
H1153 C1165 0.950 . S
H1154 C1162 0.950 . S
H1155 C1164 0.950 . S
H1156 C1166 0.950 . S
H1157 C1168 0.950 . S
H1158 C1170 0.950 . S
H1159 C1171 0.950 . S
C1160 H1152 0.950 . S
C1160 C1161 1.386 . S
C1160 C1162 1.391 . S
C1161 C1160 1.386 . S
C1161 C1165 1.393 . S
C1162 H1154 0.950 . S
C1162 C1160 1.391 . S
C1162 C1163 1.400 . S
C1163 C1162 1.400 . S
C1163 C1164 1.398 . S
C1163 C1169 1.491 . S
C1164 H1155 0.950 . S
C1164 C1163 1.398 . S
C1164 C1165 1.391 . S
C1165 H1153 0.950 . S
C1165 C1161 1.393 . S
C1165 C1164 1.391 . S
C1166 H1156 0.950 . S
C1166 C1167 1.386 . S
C1166 C1168 1.391 . S
C1167 C1166 1.386 . S
C1167 C1171 1.393 . S
C1168 H1157 0.950 . S
C1168 C1166 1.391 . S
C1168 C1169 1.400 . S
C1169 C1163 1.491 . S
C1169 C1168 1.400 . S
C1169 C1170 1.398 . S
C1170 H1158 0.950 . S
C1170 C1169 1.398 . S
C1170 C1171 1.391 . S
C1171 H1159 0.950 . S
C1171 C1167 1.393 . S
C1171 C1170 1.391 . S
H1172 C1180 0.950 . S
H1173 C1185 0.950 . S
H1174 C1182 0.950 . S
H1175 C1184 0.950 . S
H1176 C1186 0.950 . S
H1177 C1188 0.950 . S
H1178 C1190 0.950 . S
H1179 C1191 0.950 . S
C1180 H1172 0.950 . S
C1180 C1181 1.386 . S
C1180 C1182 1.391 . S
C1181 C1180 1.386 . S
C1181 C1185 1.393 . S
C1182 H1174 0.950 . S
C1182 C1180 1.391 . S
C1182 C1183 1.400 . S
C1183 C1182 1.400 . S
C1183 C1184 1.398 . S
C1183 C1189 1.491 . S
C1184 H1175 0.950 . S
C1184 C1183 1.398 . S
C1184 C1185 1.391 . S
C1185 H1173 0.950 . S
C1185 C1181 1.393 . S
C1185 C1184 1.391 . S
C1186 H1176 0.950 . S
C1186 C1187 1.386 . S
C1186 C1188 1.391 . S
C1187 C1186 1.386 . S
C1187 C1191 1.393 . S
C1188 H1177 0.950 . S
C1188 C1186 1.391 . S
C1188 C1189 1.400 . S
C1189 C1183 1.491 . S
C1189 C1188 1.400 . S
C1189 C1190 1.398 . S
C1190 H1178 0.950 . S
C1190 C1189 1.398 . S
C1190 C1191 1.391 . S
C1191 H1179 0.950 . S
C1191 C1187 1.393 . S
C1191 C1190 1.391 . S
H1192 C1200 0.928 1_565 S
H1193 C1205 0.950 . S
H1194 C1202 0.950 . S
H1195 C1204 0.950 . S
H1196 C1206 0.971 . S
H1197 C1208 0.950 . S
H1198 C1210 0.950 . S
H1199 C1211 0.950 . S
C1200 H1192 0.928 1_545 S
C1200 C1201 1.386 . S
C1200 C1202 1.391 1_545 S
C1201 C1200 1.386 . S
C1201 C1205 1.393 . S
C1202 H1194 0.950 . S
C1202 C1200 1.391 1_565 S
C1202 C1203 1.400 1_565 S
C1203 C1202 1.400 1_545 S
C1203 C1204 1.398 . S
C1203 C1209 1.499 1_545 S
C1204 H1195 0.950 . S
C1204 C1203 1.398 . S
C1204 C1205 1.391 . S
C1205 H1193 0.950 . S
C1205 C1201 1.393 . S
C1205 C1204 1.391 . S
C1206 H1196 0.971 . S
C1206 C1207 1.372 1_545 S
C1206 C1208 1.386 . S
C1207 C1206 1.372 1_565 S
C1207 C1211 1.393 . S
C1208 H1197 0.950 . S
C1208 C1206 1.386 . S
C1208 C1209 1.379 1_545 S
C1209 C1203 1.499 1_565 S
C1209 C1208 1.379 1_565 S
C1209 C1210 1.413 . S
C1210 H1198 0.950 . S
C1210 C1209 1.413 . S
C1210 C1211 1.391 . S
C1211 H1199 0.950 . S
C1211 C1207 1.393 . S
C1211 C1210 1.391 . S
H1212 C1220 0.950 . S
H1213 C1225 0.950 . S
H1214 C1222 0.950 . S
H1215 C1224 0.950 . S
H1216 C1226 0.950 . S
H1217 C1228 0.950 . S
H1218 C1230 0.950 . S
H1219 C1231 0.950 . S
C1220 H1212 0.950 . S
C1220 C1221 1.386 . S
C1220 C1222 1.391 . S
C1221 C1220 1.386 . S
C1221 C1225 1.393 1_554 S
C1222 H1214 0.950 . S
C1222 C1220 1.391 . S
C1222 C1223 1.400 1_554 S
C1223 C1222 1.400 1_556 S
C1223 C1224 1.398 . S
C1223 C1229 1.491 . S
C1224 H1215 0.950 . S
C1224 C1223 1.398 . S
C1224 C1225 1.391 . S
C1225 H1213 0.950 . S
C1225 C1221 1.393 1_556 S
C1225 C1224 1.391 . S
C1226 H1216 0.950 . S
C1226 C1227 1.386 . S
C1226 C1228 1.391 . S
C1227 C1226 1.386 . S
C1227 C1231 1.393 . S
C1228 H1217 0.950 . S
C1228 C1226 1.391 . S
C1228 C1229 1.400 . S
C1229 C1223 1.491 . S
C1229 C1228 1.400 . S
C1229 C1230 1.398 . S
C1230 H1218 0.950 . S
C1230 C1229 1.398 . S
C1230 C1231 1.391 . S
C1231 H1219 0.950 . S
C1231 C1227 1.393 . S
C1231 C1230 1.391 . S
H1232 C1240 0.950 1_554 S
H1233 C1245 0.950 . S
H1234 C1242 0.950 . S
H1235 C1244 0.950 . S
H1236 C1246 0.950 . S
H1237 C1248 0.950 . S
H1238 C1250 0.950 . S
H1239 C1251 0.950 . S
C1240 H1232 0.950 1_556 S
C1240 C1241 1.386 1_655 S
C1240 C1242 1.391 . S
C1241 C1240 1.386 1_455 S
C1241 C1245 1.393 . S
C1242 H1234 0.950 . S
C1242 C1240 1.391 . S
C1242 C1243 1.400 . S
C1243 C1242 1.400 . S
C1243 C1244 1.398 1_655 S
C1243 C1249 1.491 . S
C1244 H1235 0.950 . S
C1244 C1243 1.398 1_455 S
C1244 C1245 1.391 . S
C1245 H1233 0.950 . S
C1245 C1241 1.393 . S
C1245 C1244 1.391 . S
C1246 H1236 0.950 . S
C1246 C1247 1.386 . S
C1246 C1248 1.391 . S
C1247 C1246 1.386 . S
C1247 C1251 1.393 . S
C1248 H1237 0.950 . S
C1248 C1246 1.391 . S
C1248 C1249 1.400 . S
C1249 C1243 1.491 . S
C1249 C1248 1.400 . S
C1249 C1250 1.398 . S
C1250 H1238 0.950 . S
C1250 C1249 1.398 . S
C1250 C1251 1.391 . S
C1251 H1239 0.950 . S
C1251 C1247 1.393 . S
C1251 C1250 1.391 . S
H1252 C1260 0.950 . S
H1253 C1265 0.950 . S
H1254 C1262 0.950 . S
H1255 C1264 0.950 . S
H1256 C1266 0.950 . S
H1257 C1268 0.950 . S
H1258 C1270 0.950 . S
H1259 C1271 0.950 . S
C1260 H1252 0.950 . S
C1260 C1261 1.386 . S
C1260 C1262 1.391 . S
C1261 C1260 1.386 . S
C1261 C1265 1.393 . S
C1262 H1254 0.950 . S
C1262 C1260 1.391 . S
C1262 C1263 1.400 . S
C1263 C1262 1.400 . S
C1263 C1264 1.398 . S
C1263 C1269 1.491 . S
C1264 H1255 0.950 . S
C1264 C1263 1.398 . S
C1264 C1265 1.391 . S
C1265 H1253 0.950 . S
C1265 C1261 1.393 . S
C1265 C1264 1.391 . S
C1266 H1256 0.950 . S
C1266 C1267 1.386 1_556 S
C1266 C1268 1.391 . S
C1267 C1266 1.386 1_554 S
C1267 C1271 1.393 . S
C1268 H1257 0.950 . S
C1268 C1266 1.391 . S
C1268 C1269 1.400 . S
C1269 C1263 1.491 . S
C1269 C1268 1.400 . S
C1269 C1270 1.398 1_556 S
C1270 H1258 0.950 . S
C1270 C1269 1.398 1_554 S
C1270 C1271 1.391 . S
C1271 H1259 0.950 . S
C1271 C1267 1.393 . S
C1271 C1270 1.391 . S
H1272 C1280 0.950 . S
H1273 C1285 0.950 . S
H1274 C1282 0.950 . S
H1275 C1284 0.950 . S
H1276 C1286 0.950 . S
H1277 C1288 0.950 . S
H1278 C1290 0.950 . S
H1279 C1291 0.950 . S
C1280 H1272 0.950 . S
C1280 C1281 1.386 . S
C1280 C1282 1.391 . S
C1281 C1280 1.386 . S
C1281 C1285 1.393 1_556 S
C1282 H1274 0.950 . S
C1282 C1280 1.391 . S
C1282 C1283 1.400 . S
C1283 C1282 1.400 . S
C1283 C1284 1.398 . S
C1283 C1289 1.491 . S
C1284 H1275 0.950 . S
C1284 C1283 1.398 . S
C1284 C1285 1.391 1_556 S
C1285 H1273 0.950 . S
C1285 C1281 1.393 1_554 S
C1285 C1284 1.391 1_554 S
C1286 H1276 0.950 . S
C1286 C1287 1.386 . S
C1286 C1288 1.391 . S
C1287 C1286 1.386 . S
C1287 C1291 1.393 . S
C1288 H1277 0.950 . S
C1288 C1286 1.391 . S
C1288 C1289 1.400 . S
C1289 C1283 1.491 . S
C1289 C1288 1.400 . S
C1289 C1290 1.398 . S
C1290 H1278 0.950 . S
C1290 C1289 1.398 . S
C1290 C1291 1.391 . S
C1291 H1279 0.950 . S
C1291 C1287 1.393 . S
C1291 C1290 1.391 . S
H1292 C1300 0.950 . S
H1293 C1305 0.950 . S
H1294 C1302 0.950 . S
H1295 C1304 0.950 . S
H1296 C1306 0.950 . S
H1297 C1308 0.950 . S
H1298 C1310 0.950 . S
H1299 C1311 0.950 . S
C1300 H1292 0.950 . S
C1300 C1301 1.386 1_556 S
C1300 C1302 1.391 . S
C1301 C1300 1.386 1_554 S
C1301 C1305 1.393 . S
C1302 H1294 0.950 . S
C1302 C1300 1.391 . S
C1302 C1303 1.400 . S
C1303 C1302 1.400 . S
C1303 C1304 1.398 1_556 S
C1303 C1309 1.491 . S
C1304 H1295 0.950 . S
C1304 C1303 1.398 1_554 S
C1304 C1305 1.391 . S
C1305 H1293 0.950 . S
C1305 C1301 1.393 . S
C1305 C1304 1.391 . S
C1306 H1296 0.950 . S
C1306 C1307 1.386 . S
C1306 C1308 1.391 . S
C1307 C1306 1.386 . S
C1307 C1311 1.393 . S
C1308 H1297 0.950 . S
C1308 C1306 1.391 . S
C1308 C1309 1.400 . S
C1309 C1303 1.491 . S
C1309 C1308 1.400 . S
C1309 C1310 1.398 . S
C1310 H1298 0.950 . S
C1310 C1309 1.398 . S
C1310 C1311 1.391 . S
C1311 H1299 0.950 . S
C1311 C1307 1.393 . S
C1311 C1310 1.391 . S
H1312 C1320 0.950 . S
H1313 C1325 0.950 . S
H1314 C1322 0.950 . S
H1315 C1324 0.950 . S
H1316 C1326 0.950 1_554 S
H1317 C1328 0.950 . S
H1318 C1330 0.950 . S
H1319 C1331 0.950 1_554 S
C1320 H1312 0.950 . S
C1320 C1321 1.386 . S
C1320 C1322 1.391 . S
C1321 C1320 1.386 . S
C1321 C1325 1.393 . S
C1322 H1314 0.950 . S
C1322 C1320 1.391 . S
C1322 C1323 1.400 . S
C1323 C1322 1.400 . S
C1323 C1324 1.398 . S
C1323 C1329 1.491 . S
C1324 H1315 0.950 . S
C1324 C1323 1.398 . S
C1324 C1325 1.391 . S
C1325 H1313 0.950 . S
C1325 C1321 1.393 . S
C1325 C1324 1.391 . S
C1326 H1316 0.950 1_556 S
C1326 C1327 1.386 1_556 S
C1326 C1328 1.391 . S
C1327 C1326 1.386 1_554 S
C1327 C1331 1.393 1_554 S
C1328 H1317 0.950 . S
C1328 C1326 1.391 . S
C1328 C1329 1.400 . S
C1329 C1323 1.491 . S
C1329 C1328 1.400 . S
C1329 C1330 1.398 . S
C1330 H1318 0.950 . S
C1330 C1329 1.398 . S
C1330 C1331 1.391 . S
C1331 H1319 0.950 1_556 S
C1331 C1327 1.393 1_556 S
C1331 C1330 1.391 . S
H1332 C1340 0.950 . S
H1333 C1345 0.950 . S
H1334 C1342 0.950 . S
H1335 C1344 0.950 . S
H1336 C1346 0.950 . S
H1337 C1348 0.950 . S
H1338 C1350 0.950 . S
H1339 C1351 0.950 . S
C1340 H1332 0.950 . S
C1340 C1341 1.386 . S
C1340 C1342 1.391 . S
C1341 C1340 1.386 . S
C1341 C1345 1.393 . S
C1342 H1334 0.950 . S
C1342 C1340 1.391 . S
C1342 C1343 1.400 . S
C1343 C1342 1.400 . S
C1343 C1344 1.398 . S
C1343 C1349 1.491 . S
C1344 H1335 0.950 . S
C1344 C1343 1.398 . S
C1344 C1345 1.391 . S
C1345 H1333 0.950 . S
C1345 C1341 1.393 . S
C1345 C1344 1.391 . S
C1346 H1336 0.950 . S
C1346 C1347 1.386 . S
C1346 C1348 1.391 . S
C1347 C1346 1.386 . S
C1347 C1351 1.393 . S
C1348 H1337 0.950 . S
C1348 C1346 1.391 . S
C1348 C1349 1.400 . S
C1349 C1343 1.491 . S
C1349 C1348 1.400 . S
C1349 C1350 1.398 . S
C1350 H1338 0.950 . S
C1350 C1349 1.398 . S
C1350 C1351 1.391 . S
C1351 H1339 0.950 . S
C1351 C1347 1.393 . S
C1351 C1350 1.391 . S
H1352 C1360 0.950 . S
H1353 C1365 0.950 . S
H1354 C1362 0.950 . S
H1355 C1364 0.950 . S
H1356 C1366 0.950 . S
H1357 C1368 0.950 . S
H1358 C1370 0.950 . S
H1359 C1371 0.950 . S
C1360 H1352 0.950 . S
C1360 C1361 1.386 . S
C1360 C1362 1.391 . S
C1361 C1360 1.386 . S
C1361 C1365 1.393 . S
C1362 H1354 0.950 . S
C1362 C1360 1.391 . S
C1362 C1363 1.400 . S
C1363 C1362 1.400 . S
C1363 C1364 1.398 . S
C1363 C1369 1.491 . S
C1364 H1355 0.950 . S
C1364 C1363 1.398 . S
C1364 C1365 1.391 . S
C1365 H1353 0.950 . S
C1365 C1361 1.393 . S
C1365 C1364 1.391 . S
C1366 H1356 0.950 . S
C1366 C1367 1.386 . S
C1366 C1368 1.391 . S
C1367 C1366 1.386 . S
C1367 C1371 1.393 . S
C1368 H1357 0.950 . S
C1368 C1366 1.391 . S
C1368 C1369 1.400 . S
C1369 C1363 1.491 . S
C1369 C1368 1.400 . S
C1369 C1370 1.398 . S
C1370 H1358 0.950 . S
C1370 C1369 1.398 . S
C1370 C1371 1.391 . S
C1371 H1359 0.950 . S
C1371 C1367 1.393 . S
C1371 C1370 1.391 . S
H1372 C1380 0.950 . S
H1373 C1385 0.950 . S
H1374 C1382 0.950 . S
H1375 C1384 0.950 . S
H1376 C1386 0.950 . S
H1377 C1388 0.950 . S
H1378 C1390 0.950 . S
H1379 C1391 0.950 . S
C1380 H1372 0.950 . S
C1380 C1381 1.386 . S
C1380 C1382 1.391 . S
C1381 C1380 1.386 . S
C1381 C1385 1.393 . S
C1382 H1374 0.950 . S
C1382 C1380 1.391 . S
C1382 C1383 1.400 . S
C1383 C1382 1.400 . S
C1383 C1384 1.398 . S
C1383 C1389 1.491 . S
C1384 H1375 0.950 . S
C1384 C1383 1.398 . S
C1384 C1385 1.391 . S
C1385 H1373 0.950 . S
C1385 C1381 1.393 . S
C1385 C1384 1.391 . S
C1386 H1376 0.950 . S
C1386 C1387 1.386 . S
C1386 C1388 1.391 . S
C1387 C1386 1.386 . S
C1387 C1391 1.393 . S
C1388 H1377 0.950 . S
C1388 C1386 1.391 . S
C1388 C1389 1.400 . S
C1389 C1383 1.491 . S
C1389 C1388 1.400 . S
C1389 C1390 1.398 . S
C1390 H1378 0.950 . S
C1390 C1389 1.398 . S
C1390 C1391 1.391 . S
C1391 H1379 0.950 . S
C1391 C1387 1.393 . S
C1391 C1390 1.391 . S
H1392 C1400 0.950 . S
H1393 C1405 0.950 . S
H1394 C1402 0.950 . S
H1395 C1404 0.950 . S
H1396 C1406 0.950 . S
H1397 C1408 0.950 . S
H1398 C1410 0.950 . S
H1399 C1411 0.950 . S
C1400 H1392 0.950 . S
C1400 C1401 1.386 . S
C1400 C1402 1.391 . S
C1401 C1400 1.386 . S
C1401 C1405 1.393 . S
C1402 H1394 0.950 . S
C1402 C1400 1.391 . S
C1402 C1403 1.400 . S
C1403 C1402 1.400 . S
C1403 C1404 1.398 . S
C1403 C1409 1.491 . S
C1404 H1395 0.950 . S
C1404 C1403 1.398 . S
C1404 C1405 1.391 . S
C1405 H1393 0.950 . S
C1405 C1401 1.393 . S
C1405 C1404 1.391 . S
C1406 H1396 0.950 . S
C1406 C1407 1.386 . S
C1406 C1408 1.391 . S
C1407 C1406 1.386 . S
C1407 C1411 1.393 . S
C1408 H1397 0.950 . S
C1408 C1406 1.391 . S
C1408 C1409 1.400 . S
C1409 C1403 1.491 . S
C1409 C1408 1.400 . S
C1409 C1410 1.398 . S
C1410 H1398 0.950 . S
C1410 C1409 1.398 . S
C1410 C1411 1.391 . S
C1411 H1399 0.950 . S
C1411 C1407 1.393 . S
C1411 C1410 1.391 . S
H1412 C1420 0.950 . S
H1413 C1425 0.950 . S
H1414 C1422 0.950 . S
H1415 C1424 0.950 . S
H1416 C1426 0.950 . S
H1417 C1428 0.950 . S
H1418 C1430 0.950 . S
H1419 C1431 0.950 . S
C1420 H1412 0.950 . S
C1420 C1421 1.386 . S
C1420 C1422 1.391 . S
C1421 C1420 1.386 . S
C1421 C1425 1.393 . S
C1422 H1414 0.950 . S
C1422 C1420 1.391 . S
C1422 C1423 1.400 . S
C1423 C1422 1.400 . S
C1423 C1424 1.398 . S
C1423 C1429 1.491 . S
C1424 H1415 0.950 . S
C1424 C1423 1.398 . S
C1424 C1425 1.391 . S
C1425 H1413 0.950 . S
C1425 C1421 1.393 . S
C1425 C1424 1.391 . S
C1426 H1416 0.950 . S
C1426 C1427 1.386 . S
C1426 C1428 1.391 . S
C1427 C1426 1.386 . S
C1427 C1431 1.393 . S
C1428 H1417 0.950 . S
C1428 C1426 1.391 . S
C1428 C1429 1.400 . S
C1429 C1423 1.491 . S
C1429 C1428 1.400 . S
C1429 C1430 1.398 . S
C1430 H1418 0.950 . S
C1430 C1429 1.398 . S
C1430 C1431 1.391 . S
C1431 H1419 0.950 . S
C1431 C1427 1.393 . S
C1431 C1430 1.391 . S
H1432 C1440 0.950 . S
H1433 C1445 0.950 . S
H1434 C1442 0.950 . S
H1435 C1444 0.950 1_655 S
H1436 C1446 0.950 . S
H1437 C1448 0.950 . S
H1438 C1450 0.950 1_455 S
H1439 C1451 0.950 . S
C1440 H1432 0.950 . S
C1440 C1441 1.386 . S
C1440 C1442 1.391 . S
C1441 C1440 1.386 . S
C1441 C1445 1.393 . S
C1442 H1434 0.950 . S
C1442 C1440 1.391 . S
C1442 C1443 1.400 . S
C1443 C1442 1.400 . S
C1443 C1444 1.398 . S
C1443 C1449 1.491 1_455 S
C1444 H1435 0.950 1_455 S
C1444 C1443 1.398 . S
C1444 C1445 1.391 . S
C1445 H1433 0.950 . S
C1445 C1441 1.393 . S
C1445 C1444 1.391 . S
C1446 H1436 0.950 . S
C1446 C1447 1.386 . S
C1446 C1448 1.391 . S
C1447 C1446 1.386 . S
C1447 C1451 1.393 . S
C1448 H1437 0.950 . S
C1448 C1446 1.391 . S
C1448 C1449 1.400 . S
C1449 C1443 1.491 1_655 S
C1449 C1448 1.400 . S
C1449 C1450 1.398 . S
C1450 H1438 0.950 1_655 S
C1450 C1449 1.398 . S
C1450 C1451 1.391 . S
C1451 H1439 0.950 . S
C1451 C1447 1.393 . S
C1451 C1450 1.391 . S
H1452 C1460 0.950 . S
H1453 C1465 0.950 . S
H1454 C1462 0.950 . S
H1455 C1464 0.950 . S
H1456 C1466 0.950 . S
H1457 C1468 0.950 . S
H1458 C1470 0.950 . S
H1459 C1471 0.950 . S
C1460 H1452 0.950 . S
C1460 C1461 1.386 . S
C1460 C1462 1.391 . S
C1461 C1460 1.386 . S
C1461 C1465 1.393 . S
C1462 H1454 0.950 . S
C1462 C1460 1.391 . S
C1462 C1463 1.400 . S
C1463 C1462 1.400 . S
C1463 C1464 1.398 . S
C1463 C1469 1.491 . S
C1464 H1455 0.950 . S
C1464 C1463 1.398 . S
C1464 C1465 1.391 . S
C1465 H1453 0.950 . S
C1465 C1461 1.393 . S
C1465 C1464 1.391 . S
C1466 H1456 0.950 . S
C1466 C1467 1.386 . S
C1466 C1468 1.391 . S
C1467 C1466 1.386 . S
C1467 C1471 1.393 . S
C1468 H1457 0.950 . S
C1468 C1466 1.391 . S
C1468 C1469 1.400 . S
C1469 C1463 1.491 . S
C1469 C1468 1.400 . S
C1469 C1470 1.398 . S
C1470 H1458 0.950 . S
C1470 C1469 1.398 . S
C1470 C1471 1.391 . S
C1471 H1459 0.950 . S
C1471 C1467 1.393 . S
C1471 C1470 1.391 . S
H1472 C1480 0.950 . S
H1473 C1485 0.950 . S
H1474 C1482 0.950 . S
H1475 C1484 0.950 . S
H1476 C1486 0.950 . S
H1477 C1488 0.950 . S
H1478 C1490 0.950 . S
H1479 C1491 0.950 . S
C1480 H1472 0.950 . S
C1480 C1481 1.386 . S
C1480 C1482 1.391 . S
C1481 C1480 1.386 . S
C1481 C1485 1.393 . S
C1482 H1474 0.950 . S
C1482 C1480 1.391 . S
C1482 C1483 1.400 . S
C1483 C1482 1.400 . S
C1483 C1484 1.398 . S
C1483 C1489 1.491 . S
C1484 H1475 0.950 . S
C1484 C1483 1.398 . S
C1484 C1485 1.391 . S
C1485 H1473 0.950 . S
C1485 C1481 1.393 . S
C1485 C1484 1.391 . S
C1486 H1476 0.950 . S
C1486 C1487 1.386 . S
C1486 C1488 1.391 . S
C1487 C1486 1.386 . S
C1487 C1491 1.393 . S
C1488 H1477 0.950 . S
C1488 C1486 1.391 . S
C1488 C1489 1.400 . S
C1489 C1483 1.491 . S
C1489 C1488 1.400 . S
C1489 C1490 1.398 . S
C1490 H1478 0.950 . S
C1490 C1489 1.398 . S
C1490 C1491 1.391 . S
C1491 H1479 0.950 . S
C1491 C1487 1.393 . S
C1491 C1490 1.391 . S
H1492 C1500 0.950 . S
H1493 C1505 0.950 . S
H1494 C1502 0.950 . S
H1495 C1504 0.950 . S
H1496 C1506 0.950 . S
H1497 C1508 0.950 . S
H1498 C1510 0.950 . S
H1499 C1511 0.950 . S
C1500 H1492 0.950 . S
C1500 C1501 1.386 . S
C1500 C1502 1.391 . S
C1501 C1500 1.386 . S
C1501 C1505 1.393 . S
C1502 H1494 0.950 . S
C1502 C1500 1.391 . S
C1502 C1503 1.400 . S
C1503 C1502 1.400 . S
C1503 C1504 1.398 . S
C1503 C1509 1.491 . S
C1504 H1495 0.950 . S
C1504 C1503 1.398 . S
C1504 C1505 1.391 . S
C1505 H1493 0.950 . S
C1505 C1501 1.393 . S
C1505 C1504 1.391 . S
C1506 H1496 0.950 . S
C1506 C1507 1.386 . S
C1506 C1508 1.391 . S
C1507 C1506 1.386 . S
C1507 C1511 1.393 . S
C1508 H1497 0.950 . S
C1508 C1506 1.391 . S
C1508 C1509 1.400 1_455 S
C1509 C1503 1.491 . S
C1509 C1508 1.400 1_655 S
C1509 C1510 1.398 . S
C1510 H1498 0.950 . S
C1510 C1509 1.398 . S
C1510 C1511 1.391 1_655 S
C1511 H1499 0.950 . S
C1511 C1507 1.393 . S
C1511 C1510 1.391 1_455 S
C621 C5 1.222 . S
C627 C9 1.217 . S
C641 C39 1.282 . S
C647 C43 1.293 . S
C661 C77 1.243 . S
C667 C73 1.215 . S
C681 C111 1.229 . S
C687 C107 1.224 . S
C701 C141 1.280 . S
C707 C145 1.287 . S
C721 C175 1.285 . S
C727 C179 1.292 . S
C741 C213 1.174 . S
C747 C209 1.155 . S
C761 C247 1.298 . S
C767 C243 1.277 . S
C781 C281 1.227 . S
C787 C277 1.219 . S
C801 C311 1.163 . S
C807 C315 1.181 . S
C821 C349 1.310 . S
C827 C345 1.274 . S
C841 C383 1.226 . S
C847 C379 1.228 . S
C861 C413 1.159 . S
C867 C417 1.169 . S
C881 C447 1.221 . S
C887 C451 1.215 . S
C901 C481 1.227 1_554 S
C907 C485 1.224 . S
C921 C515 1.163 1_554 S
C927 C519 1.162 . S
C941 C553 1.236 . S
C947 C549 1.218 1_554 S
C961 C583 1.155 . S
C967 C587 1.174 . S
C981 C122 1.540 . S
C987 C20 1.528 . S
C1001 C156 1.492 . S
C1007 C54 1.491 . S
C1021 C190 1.479 . S
C1027 C88 1.488 . S
C1041 C224 1.318 . S
C1047 C326 1.307 . S
C1061 C360 1.429 . S
C1067 C258 1.442 . S
C1081 C394 1.397 . S
C1087 C292 1.384 . S
C1101 C530 1.496 . S
C1107 C428 1.494 . S
C1121 C462 1.461 . S
C1127 C564 1.479 . S
C1141 C496 1.472 . S
C1147 C598 1.463 . S
C1161 C305 1.476 . S
C1167 C2 1.432 . S
C1181 C237 1.429 . S
C1187 C36 1.390 . S
C1201 C101 1.413 . S
C1207 C271 1.401 . S
C1221 C70 1.387 . S
C1227 C410 1.338 . S
C1241 C33 1.637 1_556 S
C1247 C444 1.554 . S
C1261 C509 1.466 . S
C1267 C67 1.491 . S
C1281 C104 1.432 1_556 S
C1287 C580 1.365 . S
C1301 C138 1.440 . S
C1307 C543 1.452 . S
C1321 C577 1.454 . S
C1327 C203 1.478 . S
C1341 C339 1.423 . S
C1347 C172 1.420 . S
C1361 C135 1.371 . S
C1367 C373 1.381 . S
C1381 C169 1.406 . S
C1387 C407 1.403 . S
C1401 C206 1.253 . S
C1407 C478 1.247 . S
C1421 C240 1.424 . S
C1427 C441 1.451 . S
C1441 C274 1.370 . S
C1447 C475 1.393 . S
C1461 C512 1.360 . S
C1467 C376 1.369 . S
C1481 C546 1.228 . S
C1487 C308 1.219 1_545 S
C1501 C611 1.469 . S
C1507 C342 1.456 . S
