# Generated by pormake.
# Topology smc, (6)-cn, num edge types: 1
# Building blocks:
#     Node 0, Type 0, BuildingBlock: MIDCAF_clean_sbu_0, # of connection points: 6
#     Node 1, Type 0, BuildingBlock: MIDCAF_clean_sbu_0, # of connection points: 6
#     Node 2, Type 0, BuildingBlock: MIDCAF_clean_sbu_0, # of connection points: 6
#     Node 3, Type 0, BuildingBlock: MIDCAF_clean_sbu_0, # of connection points: 6
#     Node 4, Type 0, BuildingBlock: MIDCAF_clean_sbu_0, # of connection points: 6
#     Node 5, Type 0, BuildingBlock: MIDCAF_clean_sbu_0, # of connection points: 6
#     Node 6, Type 0, BuildingBlock: MIDCAF_clean_sbu_0, # of connection points: 6
#     Node 7, Type 0, BuildingBlock: MIDCAF_clean_sbu_0, # of connection points: 6
#     Node 8, Type 0, BuildingBlock: MIDCAF_clean_sbu_0, # of connection points: 6
#     Edge 9, Type (0, 0), BuildingBlock: MIFKUJ_clean_linker_0, # of connection points: 2
#     Edge 10, Type (0, 0), BuildingBlock: MIFKUJ_clean_linker_0, # of connection points: 2
#     Edge 11, Type (0, 0), BuildingBlock: MIFKUJ_clean_linker_0, # of connection points: 2
#     Edge 12, Type (0, 0), BuildingBlock: MIFKUJ_clean_linker_0, # of connection points: 2
#     Edge 13, Type (0, 0), BuildingBlock: MIFKUJ_clean_linker_0, # of connection points: 2
#     Edge 14, Type (0, 0), BuildingBlock: MIFKUJ_clean_linker_0, # of connection points: 2
#     Edge 15, Type (0, 0), BuildingBlock: MIFKUJ_clean_linker_0, # of connection points: 2
#     Edge 16, Type (0, 0), BuildingBlock: MIFKUJ_clean_linker_0, # of connection points: 2
#     Edge 17, Type (0, 0), BuildingBlock: MIFKUJ_clean_linker_0, # of connection points: 2
#     Edge 18, Type (0, 0), BuildingBlock: MIFKUJ_clean_linker_0, # of connection points: 2
#     Edge 19, Type (0, 0), BuildingBlock: MIFKUJ_clean_linker_0, # of connection points: 2
#     Edge 20, Type (0, 0), BuildingBlock: MIFKUJ_clean_linker_0, # of connection points: 2
#     Edge 21, Type (0, 0), BuildingBlock: MIFKUJ_clean_linker_0, # of connection points: 2
#     Edge 22, Type (0, 0), BuildingBlock: MIFKUJ_clean_linker_0, # of connection points: 2
#     Edge 23, Type (0, 0), BuildingBlock: MIFKUJ_clean_linker_0, # of connection points: 2
#     Edge 24, Type (0, 0), BuildingBlock: MIFKUJ_clean_linker_0, # of connection points: 2
#     Edge 25, Type (0, 0), BuildingBlock: MIFKUJ_clean_linker_0, # of connection points: 2
#     Edge 26, Type (0, 0), BuildingBlock: MIFKUJ_clean_linker_0, # of connection points: 2
#     Edge 27, Type (0, 0), BuildingBlock: MIFKUJ_clean_linker_0, # of connection points: 2
#     Edge 28, Type (0, 0), BuildingBlock: MIFKUJ_clean_linker_0, # of connection points: 2
#     Edge 29, Type (0, 0), BuildingBlock: MIFKUJ_clean_linker_0, # of connection points: 2
#     Edge 30, Type (0, 0), BuildingBlock: MIFKUJ_clean_linker_0, # of connection points: 2
#     Edge 31, Type (0, 0), BuildingBlock: MIFKUJ_clean_linker_0, # of connection points: 2
#     Edge 32, Type (0, 0), BuildingBlock: MIFKUJ_clean_linker_0, # of connection points: 2
#     Edge 33, Type (0, 0), BuildingBlock: MIFKUJ_clean_linker_0, # of connection points: 2
#     Edge 34, Type (0, 0), BuildingBlock: MIFKUJ_clean_linker_0, # of connection points: 2
#     Edge 35, Type (0, 0), BuildingBlock: MIFKUJ_clean_linker_0, # of connection points: 2
# Relax obj value: 0.333
# Max RMSD: 0.258
# Mean RMSD: 0.258
data_MOF--net-smc--node1-MIDCAF_clean_sbu_0--edge1-MIFKUJ_clean_linker_0
_symmetry_space_group_name_H-M    P1
_symmetry_Int_Tables_number       1
_symmetry_cell_setting            triclinic
loop_
_symmetry_equiv_pos_as_xyz
'x, y, z'
_cell_length_a     36.444628
_cell_length_b     36.54797
_cell_length_c     58.329762
_cell_angle_alpha  90.382633
_cell_angle_beta   89.882278
_cell_angle_gamma 119.39785
loop_
_atom_site_label
_atom_site_type_symbol
_atom_site_fract_x
_atom_site_fract_y
_atom_site_fract_z
_atom_type_partial_charge
Zn0 Zn 0.05935 0.43241 0.97707 0.0
Zn1 Zn 0.90827 0.38391 0.05056 0.0
Zn2 Zn 0.00043 0.40852 0.00179 0.0
C3 C 0.91808 0.34193 0.00328 0.0
C4 C -0.00822 0.3813 0.04797 0.0
O5 O 0.0181 0.47405 0.0001 0.0
O6 O 0.08177 0.49128 0.98791 0.0
C7 C -0.0095 0.388 0.94904 0.0
O8 O 0.94685 0.35323 0.9881 0.0
O9 O 0.92664 0.3663 0.02047 0.0
O10 O 0.95948 0.38196 0.04091 0.0
O11 O 0.01956 0.38905 0.03275 0.0
O12 O 0.02846 0.41657 0.94796 0.0
O13 O 0.97359 0.37437 0.9688 0.0
O14 O 0.05177 0.40117 0.01785 0.0
O15 O 0.08959 0.40311 0.98781 0.0
C16 C 0.082 0.39721 0.00897 0.0
O17 O 0.97346 0.45084 0.01222 0.0
O18 O 0.92512 0.44291 0.03941 0.0
C19 C 0.05623 0.50206 0.99591 0.0
C20 C 0.95115 0.46398 0.02345 0.0
Zn21 Zn 0.54078 0.5975 0.97281 0.0
Zn22 Zn 0.60569 0.53771 0.03333 0.0
Zn23 Zn 0.57791 0.57179 0.00101 0.0
C24 C 0.66436 0.57296 0.99584 0.0
C25 C 0.59816 0.60213 0.05479 0.0
O26 O 0.51274 0.52201 0.99477 0.0
O27 O 0.48483 0.54749 0.97042 0.0
C28 C 0.61111 0.60481 0.94976 0.0
O29 O 0.63688 0.58066 0.98661 0.0
O30 O 0.6583 0.55611 0.01534 0.0
O31 O 0.6066 0.57337 0.05943 0.0
O32 O 0.58819 0.60652 0.03418 0.0
O33 O 0.57981 0.61038 0.94739 0.0
O34 O 0.61721 0.5913 0.96898 0.0
O35 O 0.57495 0.62465 0.01768 0.0
O36 O 0.54432 0.64411 0.99139 0.0
C37 C 0.56088 0.6489 0.01091 0.0
O38 O 0.53566 0.50347 0.00399 0.0
O39 O 0.5604 0.47776 0.03025 0.0
C40 C 0.48094 0.51813 0.98321 0.0
C41 C 0.5336 0.47197 0.01493 0.0
Zn42 Zn 0.43677 0.04941 0.02502 0.0
Zn43 Zn 0.35673 0.92832 0.98133 0.0
Zn44 Zn 0.39777 -0.01145 0.00432 0.0
C45 C 0.30667 0.91962 0.0169 0.0
C46 C 0.37635 -0.01061 0.95098 0.0
O47 O 0.46467 0.00371 0.00308 0.0
O48 O 0.49202 0.07166 0.00956 0.0
C49 C 0.39369 -0.00372 0.05833 0.0
O50 O 0.34372 0.94355 0.02513 0.0
O51 O 0.30196 0.91489 0.99549 0.0
O52 O 0.36727 0.95138 0.95024 0.0
O53 O 0.38377 0.00861 0.97053 0.0
O54 O 0.4303 0.02712 0.05612 0.0
O55 O 0.37208 0.97784 0.04019 0.0
O56 O 0.38641 0.0359 0.98724 0.0
O57 O 0.40071 0.07424 0.01853 0.0
C58 C 0.38449 0.06498 -0.00118 0.0
O59 O 0.43882 0.96157 -0.00057 0.0
O60 O 0.38684 0.89795 0.99207 0.0
C61 C 0.49659 0.04106 0.0033 0.0
C62 C 0.42495 0.92186 0.99748 0.0
Zn63 Zn 0.70924 0.75156 0.31498 0.0
Zn64 Zn 0.57768 0.71581 0.35545 0.0
Zn65 Zn 0.64652 0.7383 0.33491 0.0
C66 C 0.56057 0.65418 0.32285 0.0
C67 C 0.63386 0.71719 0.38841 0.0
O68 O 0.67206 0.80363 0.32759 0.0
O69 O 0.73613 0.81267 0.32346 0.0
C70 C 0.65206 0.71026 0.28266 0.0
O71 O 0.5989 0.68022 0.31725 0.0
O72 O 0.5436 0.66173 0.33971 0.0
O73 O 0.5979 0.71393 0.38635 0.0
O74 O 0.65748 0.7247 0.37062 0.0
O75 O 0.69099 0.73596 0.28323 0.0
O76 O 0.63037 0.70236 0.30132 0.0
O77 O 0.69717 0.73772 0.35733 0.0
O78 O 0.72889 0.71772 0.33212 0.0
C79 C 0.72517 0.7268 0.35257 0.0
O80 O 0.63023 0.79037 0.33245 0.0
O81 O 0.56652 0.76192 0.34762 0.0
C82 C 0.71202 0.82802 0.3264 0.0
C83 C 0.59672 0.79224 0.33762 0.0
Zn84 Zn 0.28435 0.88953 0.37129 0.0
Zn85 Zn 0.19126 0.88069 0.31859 0.0
Zn86 Zn 0.24344 0.90341 0.34435 0.0
C87 C 0.23912 0.97032 0.32041 0.0
C88 C 0.25837 0.89987 0.29237 0.0
O89 O 0.22333 0.84051 0.33763 0.0
O90 O 0.26091 0.82858 0.36269 0.0
C91 C 0.23701 0.91761 0.39663 0.0
O92 O 0.26787 0.96018 0.32406 0.0
O93 O 0.20121 0.94108 0.31897 0.0
O94 O 0.22224 0.86772 0.29413 0.0
O95 O 0.27311 0.9256 0.30959 0.0
O96 O 0.26196 0.90322 0.39911 0.0
O97 O 0.2257 0.92203 0.37648 0.0
O98 O 0.30571 0.9473 0.32996 0.0
O99 O 0.33852 0.93256 0.35718 0.0
C100 C 0.3401 0.95203 0.33901 0.0
O101 O 0.18591 0.89999 0.35963 0.0
O102 O 0.14783 0.84094 0.34062 0.0
C103 C 0.23352 0.81554 0.34693 0.0
C104 C 0.15064 0.86589 0.35656 0.0
Zn105 Zn 0.08468 0.3663 0.35992 0.0
Zn106 Zn 0.04299 0.25366 0.30573 0.0
Zn107 Zn 0.06863 0.30944 0.33356 0.0
C108 C 0.97751 0.23764 0.33536 0.0
C109 C 0.06255 0.31957 0.27927 0.0
O110 O 0.13477 0.33148 0.34074 0.0
O111 O 0.14605 0.394 0.35183 0.0
C112 C 0.03869 0.30195 0.38674 0.0
O113 O 0.00955 0.26151 0.34784 0.0
O114 O 0.9826 0.23301 0.31433 0.0
O115 O 0.06403 0.28602 0.27678 0.0
O116 O 0.05857 0.33136 0.29955 0.0
O117 O 0.06701 0.33949 0.38972 0.0
O118 O 0.03103 0.28572 0.36637 0.0
O119 O 0.06682 0.36167 0.31696 0.0
O120 O 0.04903 0.38784 0.34607 0.0
C121 C 0.0555 0.38747 0.32488 0.0
O122 O 0.1173 0.29095 0.3311 0.0
O123 O 0.07473 0.22675 0.31848 0.0
C124 C 0.16033 0.37024 0.34554 0.0
C125 C 0.11007 0.25355 0.32653 0.0
Zn126 Zn 0.37085 0.10392 0.6434 0.0
Zn127 Zn 0.27157 0.04426 0.70422 0.0
Zn128 Zn 0.32138 0.07273 0.67319 0.0
C129 C 0.2435 0.98247 0.67185 0.0
C130 C 0.34525 0.0614 0.72373 0.0
O131 O 0.33874 0.13937 0.67207 0.0
O132 O 0.40038 0.16217 0.65523 0.0
C133 C 0.2985 0.05512 0.62095 0.0
O134 O 0.26764 0.01495 0.65988 0.0
O135 O 0.24449 0.98516 0.69344 0.0
O136 O 0.31145 0.06008 0.7299 0.0
O137 O 0.3536 0.06128 0.70226 0.0
O138 O 0.33059 0.0905 0.6179 0.0
O139 O 0.2914 0.03804 0.64091 0.0
O140 O 0.37754 0.06721 0.68231 0.0
O141 O 0.40041 0.07109 0.647 0.0
C142 C 0.40259 0.06374 0.66793 0.0
O143 O 0.29936 0.11823 0.68096 0.0
O144 O 0.24047 0.07545 0.69884 0.0
C145 C 0.37497 0.16964 0.66619 0.0
C146 C 0.26313 0.10999 0.68897 0.0
Zn147 Zn 0.9479 0.22588 0.69644 0.0
Zn148 Zn 0.87256 0.27239 0.64094 0.0
Zn149 Zn 0.90874 0.24629 0.66947 0.0
C150 C 0.90758 0.33262 0.67563 0.0
C151 C 0.93288 0.26619 0.61565 0.0
O152 O 0.86802 0.17918 0.67489 0.0
O153 O 0.91656 0.16513 0.68784 0.0
C154 C 0.92222 0.27052 0.72255 0.0
O155 O 0.91229 0.30331 0.68489 0.0
O156 O 0.89321 0.32824 0.65553 0.0
O157 O 0.90129 0.27109 0.61268 0.0
O158 O 0.94199 0.25884 0.63583 0.0
O159 O 0.93111 0.24161 0.72531 0.0
O160 O 0.91882 0.28197 0.70216 0.0
O161 O 0.96566 0.25269 0.65283 0.0
O162 O 0.00513 0.26171 0.68323 0.0
C163 C 0.00159 0.26242 0.66174 0.0
O164 O 0.84326 0.1959 0.66775 0.0
O165 O 0.81437 0.22608 0.64748 0.0
C166 C 0.87987 0.15241 0.68011 0.0
C167 C 0.81048 0.19559 0.65938 0.0
Zn168 Zn 0.75156 0.71008 0.70209 0.0
Zn169 Zn 0.73442 0.59008 0.6247 0.0
Zn170 Zn 0.73382 0.6535 0.67054 0.0
C171 C 0.6665 0.56009 0.65087 0.0
C172 C 0.728 0.66919 0.61667 0.0
O173 O 0.79959 0.68078 0.67712 0.0
O174 O 0.8145 0.73633 0.69855 0.0
C175 C 0.69455 0.63127 0.72004 0.0
O176 O 0.69249 0.59604 0.65838 0.0
O177 O 0.67585 0.54543 0.63352 0.0
O178 O 0.73653 0.64103 0.61009 0.0
O179 O 0.72276 0.67547 0.63792 0.0
O180 O 0.72155 0.66801 0.72609 0.0
O181 O 0.69071 0.62022 0.6989 0.0
O182 O 0.72763 0.70498 0.65568 0.0
O183 O 0.72225 0.73711 0.68661 0.0
C184 C 0.72001 0.73237 0.66511 0.0
O185 O 0.78452 0.63765 0.67189 0.0
O186 O 0.78187 0.59383 0.64406 0.0
C187 C 0.82665 0.71512 0.68676 0.0
C188 C 0.7976 0.61406 0.66248 0.0
H189 H 0.4109 0.49145 0.95686 0.0
H190 H 0.33865 0.45405 0.97066 0.0
H191 H 0.38156 0.42995 0.03479 0.0
H192 H 0.45411 0.46955 0.02163 0.0
H193 H 0.28152 0.385 0.98529 0.0
H194 H 0.33342 0.44986 0.07866 0.0
H195 H 0.39373 0.51038 0.09729 0.0
H196 H 0.42089 0.58033 0.03478 0.0
H197 H 0.36056 0.52059 0.01593 0.0
H198 H 0.0872 0.32864 0.02277 0.0
H199 H 0.15332 0.331 0.03381 0.0
H200 H 0.21482 0.46652 0.03603 0.0
H201 H 0.14859 0.46373 0.02679 0.0
H202 H 0.26183 0.44558 0.05751 0.0
H203 H 0.18972 0.40821 0.98255 0.0
H204 H 0.13113 0.36269 0.95666 0.0
H205 H 0.14785 0.25755 0.97349 0.0
H206 H 0.20633 0.3025 -0.00038 0.0
C207 C 0.40485 0.47719 0.97367 0.0
C208 C 0.43823 0.4839 0.98824 0.0
C209 C 0.36352 0.4558 0.98155 0.0
C210 C 0.35499 0.44053 0.00405 0.0
C211 C 0.38773 0.44263 0.0176 0.0
C212 C 0.42919 0.46458 0.00984 0.0
C213 C 0.31272 0.42624 0.0139 0.0
C214 C 0.27743 0.39702 0.00157 0.0
C215 C 0.3071 0.44411 0.03432 0.0
C216 C 0.34285 0.48048 0.04582 0.0
C217 C 0.35221 0.4782 0.06894 0.0
C218 C 0.38641 0.51239 0.07953 0.0
C219 C 0.41126 0.5491 0.0672 0.0
C220 C 0.40178 0.55184 0.04429 0.0
C221 C 0.36762 0.51783 0.03366 0.0
C222 C 0.11439 0.35857 0.02703 0.0
C223 C 0.11369 0.39609 0.02361 0.0
C224 C 0.15211 0.36001 0.03325 0.0
C225 C 0.18939 0.399 0.03468 0.0
C226 C 0.18673 0.43604 0.03475 0.0
C227 C 0.14892 0.43452 0.02928 0.0
C228 C 0.23079 0.40255 0.02949 0.0
C229 C 0.26618 0.4309 0.04229 0.0
C230 C 0.23677 0.38531 0.0089 0.0
C231 C 0.2018 0.35842 0.99322 0.0
C232 C 0.18073 0.37533 0.98075 0.0
C233 C 0.14758 0.34967 0.96606 0.0
C234 C 0.13567 0.30721 0.9635 0.0
C235 C 0.157 0.29039 0.97556 0.0
C236 C 0.19009 0.3159 0.99032 0.0
H237 H 0.11 0.28739 0.95212 0.0
H238 H 0.43777 0.57545 0.0754 0.0
H239 H 0.51102 0.96153 0.00239 0.0
H240 H 0.55346 0.93057 0.01586 0.0
H241 H 0.44113 0.80961 0.02022 0.0
H242 H 0.39885 0.84016 0.007 0.0
H243 H 0.49261 0.82989 0.05928 0.0
H244 H 0.50355 0.83159 0.97526 0.0
H245 H 0.52391 0.86721 0.93787 0.0
H246 H 0.65188 0.94015 0.96095 0.0
H247 H 0.63209 0.90523 -0.00139 0.0
H248 H 0.4945 0.65034 0.0295 0.0
H249 H 0.49205 0.71334 0.04045 0.0
H250 H 0.62741 0.78632 0.03452 0.0
H251 H 0.62954 0.72245 0.02321 0.0
H252 H 0.59017 0.81375 0.00616 0.0
H253 H 0.57794 0.78697 0.08517 0.0
H254 H 0.55402 0.7439 0.12008 0.0
H255 H 0.42662 0.71414 0.1063 0.0
H256 H 0.44948 0.75612 0.07102 0.0
C257 C 0.49548 0.92845 0.00631 0.0
C258 C 0.45162 0.90341 0.00376 0.0
C259 C 0.51971 0.91083 0.01399 0.0
C260 C 0.50027 0.86795 0.01932 0.0
C261 C 0.45661 0.84291 0.01652 0.0
C262 C 0.43257 0.86036 0.0087 0.0
C263 C 0.52481 0.84787 0.02688 0.0
C264 C 0.51433 0.82654 0.04787 0.0
C265 C 0.55448 0.84519 0.01237 0.0
C266 C 0.56625 0.86632 0.98983 0.0
C267 C 0.53594 0.85553 0.97243 0.0
C268 C 0.54738 0.87551 0.95118 0.0
C269 C 0.58913 0.90606 0.94707 0.0
C270 C 0.61953 0.91659 0.96419 0.0
C271 C 0.60822 0.89673 0.98548 0.0
C272 C 0.52386 0.67946 0.03172 0.0
C273 C 0.56216 0.68191 0.02567 0.0
C274 C 0.52256 0.71556 0.03803 0.0
C275 C 0.55962 0.75471 0.03837 0.0
C276 C 0.59851 0.75643 0.03447 0.0
C277 C 0.59978 0.72002 0.0282 0.0
C278 C 0.55583 0.79327 0.03798 0.0
C279 C 0.57021 0.81841 0.0183 0.0
C280 C 0.52951 0.79917 0.05368 0.0
C281 C 0.51557 0.77497 0.0754 0.0
C282 C 0.5448 0.77121 0.08953 0.0
C283 C 0.5314 0.7469 0.10939 0.0
C284 C 0.48885 0.72637 0.11542 0.0
C285 C 0.45961 0.73017 0.10164 0.0
C286 C 0.4728 0.75432 0.08172 0.0
H287 H 0.47853 0.70749 0.13077 0.0
H288 H 0.59794 0.92146 0.9306 0.0
H289 H 0.31002 0.86469 0.04622 0.0
H290 H 0.25139 0.79405 0.05195 0.0
H291 H 0.16645 0.83054 0.02184 0.0
H292 H 0.22516 0.90153 0.01617 0.0
H293 H 0.13679 0.74787 0.06003 0.0
H294 H 0.18574 0.80464 0.97999 0.0
H295 H 0.24417 0.85239 0.95485 0.0
H296 H 0.32007 0.80092 0.97967 0.0
H297 H 0.26193 0.75286 0.00492 0.0
H298 H 0.01898 0.55131 0.99128 0.0
H299 H 0.04943 0.62595 0.00239 0.0
H300 H 0.16409 0.62792 0.02273 0.0
H301 H 0.1329 0.55349 0.01338 0.0
H302 H 0.16923 0.69292 0.98918 0.0
H303 H 0.11454 0.6263 0.06276 0.0
H304 H 0.05671 0.57782 0.08783 0.0
H305 H -0.00758 0.64808 0.07693 0.0
H306 H 0.04916 0.69612 0.05115 0.0
C307 C 0.27839 0.8587 0.04255 0.0
C308 C 0.27199 0.88857 0.03091 0.0
C309 C 0.24485 0.81812 0.04568 0.0
C310 C 0.20474 0.80714 0.03716 0.0
C311 C 0.1971 0.83859 0.02874 0.0
C312 C 0.23068 0.87918 0.02554 0.0
C313 C 0.1766 0.7631 0.03025 0.0
C314 C 0.14323 0.73587 0.04438 0.0
C315 C 0.18526 0.74758 0.00989 0.0
C316 C 0.2197 0.77537 0.99429 0.0
C317 C 0.21489 0.80352 0.98 0.0
C318 C 0.24789 0.83056 0.96574 0.0
C319 C 0.2858 0.82966 0.96565 0.0
C320 C 0.29067 0.80154 0.97974 0.0
C321 C 0.25769 0.77432 0.99397 0.0
C322 C 0.04984 0.56741 -0.00092 0.0
C323 C 0.07295 0.54645 0.0023 0.0
C324 C 0.0675 0.61002 0.00498 0.0
C325 C 0.10884 0.63207 0.01351 0.0
C326 C 0.13209 0.61127 0.01626 0.0
C327 C 0.11424 0.56884 0.01087 0.0
C328 C 0.12927 0.67731 0.01892 0.0
C329 C 0.16175 0.70491 0.00452 0.0
C330 C 0.11949 0.69282 0.03895 0.0
C331 C 0.08577 0.66443 0.05476 0.0
C332 C 0.08777 0.63106 0.06545 0.0
C333 C 0.05516 0.60363 0.07979 0.0
C334 C 0.02066 0.60962 0.08382 0.0
C335 C 0.01886 0.64318 0.07361 0.0
C336 C 0.05124 0.67052 0.05913 0.0
H337 H -0.00456 0.5884 0.09494 0.0
H338 H 0.3114 0.85081 0.95471 0.0
H339 H 0.38779 0.09153 0.95431 0.0
H340 H 0.38896 0.15713 0.94426 0.0
H341 H 0.34985 0.16539 0.01321 0.0
H342 H 0.34554 0.09922 0.02236 0.0
H343 H 0.33392 0.21135 0.99047 0.0
H344 H 0.45709 0.19163 0.99446 0.0
H345 H 0.49897 0.16023 0.97978 0.0
H346 H 0.51641 0.2243 0.91584 0.0
H347 H 0.47257 0.25422 0.92973 0.0
H348 H 0.49844 0.40172 0.04156 0.0
H349 H 0.45336 0.32893 0.02875 0.0
H350 H 0.45492 0.37173 0.95989 0.0
H351 H 0.49914 0.44461 0.97263 0.0
H352 H 0.48414 0.30471 0.9708 0.0
H353 H 0.36556 0.33185 0.9751 0.0
H354 H 0.32193 0.35654 0.99389 0.0
H355 H 0.30549 0.2787 0.05212 0.0
H356 H 0.34871 0.25233 0.03307 0.0
C357 C 0.37716 0.10625 0.96676 0.0
C358 C 0.3684 0.09156 0.98936 0.0
C359 C 0.37826 0.14402 0.96114 0.0
C360 C 0.37206 0.1676 0.97839 0.0
C361 C 0.35594 0.14869 -0.00035 0.0
C362 C 0.35374 0.11076 0.00498 0.0
C363 C 0.39017 0.21389 0.97683 0.0
C364 C 0.36669 0.23159 0.98593 0.0
C365 C 0.43305 0.24085 0.97091 0.0
C366 C 0.46105 0.2246 0.96298 0.0
C367 C 0.46975 0.19889 0.97724 0.0
C368 C 0.49355 0.18111 0.969 0.0
C369 C 0.51042 0.19032 0.94691 0.0
C370 C 0.50324 0.21711 0.93294 0.0
C371 C 0.47858 0.23418 0.9409 0.0
C372 C 0.48856 0.39563 0.02379 0.0
C373 C 0.50224 0.42874 0.0081 0.0
C374 C 0.46285 0.35416 0.01651 0.0
C375 C 0.4511 0.34519 0.99339 0.0
C376 C 0.4637 0.37819 0.9778 0.0
C377 C 0.48873 0.41973 0.98515 0.0
C378 C 0.42822 0.30109 0.98542 0.0
C379 C 0.45106 0.28428 0.97461 0.0
C380 C 0.38561 0.2745 0.99099 0.0
C381 C 0.3605 0.29053 0.00277 0.0
C382 C 0.35288 0.32021 0.99197 0.0
C383 C 0.32803 0.33442 0.0027 0.0
C384 C 0.31106 0.31977 0.0244 0.0
C385 C 0.31869 0.29024 0.03534 0.0
C386 C 0.34315 0.27539 0.02451 0.0
H387 H 0.2919 0.33112 0.03266 0.0
H388 H 0.52913 0.17677 0.94064 0.0
H389 H 0.5527 0.03282 0.02998 0.0
H390 H 0.62931 0.07148 0.02468 0.0
H391 H 0.61233 0.11047 0.95774 0.0
H392 H 0.53589 0.0722 0.96318 0.0
H393 H 0.69627 0.08667 0.99422 0.0
H394 H 0.66596 0.21754 0.95947 0.0
H395 H 0.61447 0.24282 0.9622 0.0
H396 H 0.56956 0.17874 0.02621 0.0
H397 H 0.62111 0.15363 0.02402 0.0
H398 H 0.8953 0.27629 0.9732 0.0
H399 H 0.82591 0.21328 0.96939 0.0
H400 H 0.78028 0.25617 0.02609 0.0
H401 H 0.84851 0.31954 0.02927 0.0
H402 H 0.72889 0.23533 0.99155 0.0
H403 H 0.80098 0.17509 0.03129 0.0
H404 H 0.85604 0.15567 0.03776 0.0
H405 H 0.81946 0.08168 0.97595 0.0
H406 H 0.76453 0.10118 0.96892 0.0
C407 C 0.56544 0.04788 0.0137 0.0
C408 C 0.53886 0.04955 0.99689 0.0
C409 C 0.60911 0.06992 0.01067 0.0
C410 C 0.6264 0.09424 0.99095 0.0
C411 C 0.59954 0.09196 0.9731 0.0
C412 C 0.55597 0.07004 0.97616 0.0
C413 C 0.6707 0.12849 0.99123 0.0
C414 C 0.70364 0.11921 0.99336 0.0
C415 C 0.68009 0.17091 0.99082 0.0
C416 C 0.64698 0.18328 0.9914 0.0
C417 C 0.64486 0.20863 0.97403 0.0
C418 C 0.61582 0.22307 0.97554 0.0
C419 C 0.58897 0.21258 0.99443 0.0
C420 C 0.59045 0.18689 0.01161 0.0
C421 C 0.61947 0.17243 0.01021 0.0
C422 C 0.87017 0.27251 0.98454 0.0
C423 C 0.8769 0.30339 0.00106 0.0
C424 C 0.83083 0.23618 0.98263 0.0
C425 C 0.79792 0.23007 0.99744 0.0
C426 C 0.80515 0.26037 0.01437 0.0
C427 C 0.84418 0.29663 0.01616 0.0
C428 C 0.75492 0.19392 0.99456 0.0
C429 C 0.72197 0.20286 0.99188 0.0
C430 C 0.74578 0.15153 0.99534 0.0
C431 C 0.77902 0.14008 -0.00059 0.0
C432 C 0.80498 0.15507 0.01893 0.0
C433 C 0.83609 0.14396 0.02274 0.0
C434 C 0.84135 0.11759 0.00723 0.0
C435 C 0.81542 0.1022 0.98792 0.0
C436 C 0.78429 0.11326 0.98402 0.0
H437 H 0.86543 0.10898 0.01022 0.0
H438 H 0.56722 0.2246 0.99585 0.0
H439 H 0.97806 0.54539 0.03761 0.0
H440 H 0.95347 0.5921 0.02227 0.0
H441 H 0.87681 0.49596 0.97279 0.0
H442 H 0.90633 0.45313 0.9858 0.0
H443 H 0.88703 0.55815 0.95516 0.0
H444 H 0.84905 0.51284 0.03478 0.0
H445 H 0.86371 0.51041 0.07588 0.0
H446 H 0.91988 0.64458 0.08055 0.0
H447 H 0.90666 0.64787 0.03933 0.0
H448 H 0.67974 0.51874 0.9722 0.0
H449 H 0.74922 0.52551 0.96694 0.0
H450 H 0.80727 0.65403 0.99069 0.0
H451 H 0.73722 0.64684 0.99621 0.0
H452 H 0.82527 0.6038 0.01727 0.0
H453 H 0.82736 0.63025 0.93646 0.0
H454 H 0.79277 0.61438 0.89858 0.0
H455 H 0.78172 0.4919 0.89935 0.0
H456 H 0.81538 0.50662 0.9374 0.0
C457 C 0.95722 0.53538 0.02289 0.0
C458 C 0.94407 0.49604 0.01269 0.0
C459 C 0.94263 0.56168 0.01429 0.0
C460 C 0.91163 0.54714 0.99691 0.0
C461 C 0.90058 0.50854 0.98612 0.0
C462 C 0.91721 0.4837 0.99368 0.0
C463 C 0.88638 0.56828 0.99168 0.0
C464 C 0.87366 0.56814 0.96883 0.0
C465 C 0.86935 0.58264 0.00923 0.0
C466 C 0.87755 0.58066 0.03394 0.0
C467 C 0.86485 0.54183 0.04456 0.0
C468 C 0.87299 0.54031 0.06785 0.0
C469 C 0.89299 0.57735 0.08078 0.0
C470 C 0.90467 0.61595 0.07048 0.0
C471 C 0.89708 0.61769 0.04714 0.0
C472 C 0.70743 0.54908 0.97504 0.0
C473 C 0.70352 0.58252 0.98418 0.0
C474 C 0.74716 0.55296 0.97211 0.0
C475 C 0.78352 0.5904 0.9783 0.0
C476 C 0.77964 0.62504 0.98563 0.0
C477 C 0.73977 0.62109 0.98855 0.0
C478 C 0.82379 0.59019 0.98123 0.0
C479 C 0.83965 0.59492 0.00358 0.0
C480 C 0.84148 0.57734 0.96349 0.0
C481 C 0.82413 0.56969 0.93981 0.0
C482 C 0.81769 0.59999 0.92852 0.0
C483 C 0.7981 0.59112 0.90704 0.0
C484 C 0.7851 0.55218 0.89656 0.0
C485 C 0.7919 0.5221 0.90746 0.0
C486 C 0.81135 0.53074 0.92897 0.0
H487 H 0.76972 0.5453 0.87999 0.0
H488 H 0.89927 0.57614 0.09881 0.0
H489 H 0.76214 0.67928 0.36167 0.0
H490 H 0.83543 0.70671 0.37391 0.0
H491 H 0.84618 0.82781 0.38665 0.0
H492 H 0.77255 0.80012 0.37524 0.0
H493 H 0.89667 0.80367 0.34584 0.0
H494 H 0.8701 0.81579 0.42597 0.0
H495 H 0.84434 0.79654 0.46555 0.0
H496 H 0.89383 0.71154 0.4679 0.0
H497 H 0.9187 0.72926 0.42806 0.0
H498 H 0.11913 0.91933 0.36174 0.0
H499 H 0.04524 0.89867 0.36993 0.0
H500 H 0.0192 0.77257 0.38424 0.0
H501 H 0.09241 0.79275 0.37534 0.0
H502 H 0.97719 0.80395 0.41433 0.0
H503 H -0.0005 0.78686 0.33469 0.0
H504 H 0.03308 0.80954 0.29685 0.0
H505 H -0.00651 0.90236 0.29373 0.0
H506 H 0.96032 0.88073 0.33182 0.0
C507 C 0.77939 0.71101 0.3684 0.0
C508 C 0.76133 0.7373 0.36793 0.0
C509 C 0.82135 0.72675 0.37527 0.0
C510 C 0.84619 0.76922 0.3814 0.0
C511 C 0.82738 0.79474 0.38247 0.0
C512 C 0.78514 0.77877 0.37609 0.0
C513 C 0.89283 0.78847 0.38169 0.0
C514 C 0.91434 0.80441 0.36096 0.0
C515 C 0.91573 0.78831 0.4012 0.0
C516 C 0.89572 0.77343 0.42387 0.0
C517 C 0.87437 0.79206 0.43464 0.0
C518 C 0.86029 0.78171 0.45722 0.0
C519 C 0.86783 0.75315 0.46928 0.0
C520 C 0.88828 0.73387 0.45857 0.0
C521 C 0.90213 0.74386 0.43596 0.0
C522 C 0.09795 0.88768 0.36749 0.0
C523 C 0.1114 0.85768 0.36817 0.0
C524 C 0.05571 0.87579 0.37192 0.0
C525 C 0.02669 0.83398 0.3775 0.0
C526 C 0.04105 0.80495 0.38001 0.0
C527 C 0.08288 0.81655 0.37505 0.0
C528 C 0.98079 0.81931 0.37863 0.0
C529 C 0.95943 0.80371 0.39937 0.0
C530 C 0.95786 0.81936 0.3591 0.0
C531 C 0.97803 0.83265 0.33628 0.0
C532 C -0.00156 0.81249 0.32609 0.0
C533 C 0.01729 0.82507 0.30456 0.0
C534 C 0.01558 0.85749 0.29293 0.0
C535 C -0.00508 0.87734 0.3028 0.0
C536 C 0.9761 0.86495 0.32436 0.0
H537 H 0.03013 0.86714 0.27625 0.0
H538 H 0.85794 0.746 0.48695 0.0
H539 H 0.1943 0.29774 0.31698 0.0
H540 H 0.2459 0.27324 0.32111 0.0
H541 H 0.14695 0.15418 0.34584 0.0
H542 H 0.09682 0.1797 0.34322 0.0
H543 H 0.21455 0.17395 0.36857 0.0
H544 H 0.1796 0.17454 0.28692 0.0
H545 H 0.1792 0.21161 0.25178 0.0
H546 H 0.31365 0.28875 0.25578 0.0
H547 H 0.3147 0.25225 0.29108 0.0
H548 H 0.18534 -0.0027 0.30734 0.0
H549 H 0.19322 0.06669 0.31269 0.0
H550 H 0.32004 0.11331 0.33723 0.0
H551 H 0.31219 0.04266 0.33228 0.0
H552 H 0.27499 0.15642 0.29585 0.0
H553 H 0.2949 0.12443 0.37702 0.0
H554 H 0.27632 0.07856 0.41098 0.0
H555 H 0.14669 0.04654 0.40388 0.0
H556 H 0.16429 0.0915 0.36982 0.0
C557 C 0.18435 0.26713 0.32426 0.0
C558 C 0.14209 0.24097 0.33041 0.0
C559 C 0.21355 0.25286 0.32622 0.0
C560 C 0.20038 0.21182 0.33379 0.0
C561 C 0.15815 0.18615 0.34025 0.0
C562 C 0.12937 0.20056 0.33859 0.0
C563 C 0.2285 0.19314 0.33342 0.0
C564 C 0.22876 0.1709 0.35282 0.0
C565 C 0.24771 0.18973 0.31301 0.0
C566 C 0.24719 0.21107 0.29167 0.0
C567 C 0.20903 0.1995 0.2803 0.0
C568 C 0.20868 0.22039 0.26039 0.0
C569 C 0.24637 0.25262 0.25159 0.0
C570 C 0.28449 0.26386 0.26265 0.0
C571 C 0.28499 0.24308 0.28259 0.0
C572 C 0.2153 0.02227 0.31351 0.0
C573 C 0.24812 0.01438 0.31948 0.0
C574 C 0.21965 0.06194 0.3166 0.0
C575 C 0.25696 0.0948 0.32557 0.0
C576 C 0.29089 0.08805 0.33043 0.0
C577 C 0.28647 0.04789 0.32742 0.0
C578 C 0.25805 0.13497 0.33056 0.0
C579 C 0.26332 0.16143 0.31203 0.0
C580 C 0.24157 0.14057 0.35142 0.0
C581 C 0.23094 0.11117 0.37083 0.0
C582 C 0.26237 0.10705 0.3825 0.0
C583 C 0.25202 0.08136 0.40182 0.0
C584 C 0.21036 0.05983 0.40956 0.0
C585 C 0.1789 0.06331 0.39786 0.0
C586 C 0.18905 0.08882 0.37858 0.0
H587 H 0.20223 0.04062 0.42468 0.0
H588 H 0.24604 0.26881 0.23619 0.0
H589 H 0.95974 0.19762 0.37635 0.0
H590 H 0.89453 0.13297 0.38457 0.0
H591 H 0.83662 0.15216 0.32492 0.0
H592 H 0.90187 0.21642 0.31644 0.0
H593 H 0.78354 0.08526 0.37252 0.0
H594 H 0.86851 0.10697 0.29584 0.0
H595 H 0.93816 0.14674 0.27734 0.0
H596 H -0.00292 0.12725 0.33614 0.0
H597 H 0.92765 0.08734 0.35491 0.0
H598 H 0.67803 0.87897 0.31821 0.0
H599 H 0.71021 0.95434 0.32705 0.0
H600 H 0.81928 0.95272 0.35462 0.0
H601 H 0.78765 0.87824 0.34572 0.0
H602 H 0.84088 0.01261 0.32414 0.0
H603 H 0.74739 0.96089 0.38938 0.0
H604 H 0.67757 0.92016 0.40736 0.0
H605 H 0.63451 -0.00426 0.37306 0.0
H606 H 0.70395 0.03657 0.35461 0.0
C607 C 0.93229 0.18949 0.36587 0.0
C608 C 0.93587 0.21106 0.34547 0.0
C609 C 0.89486 0.1527 0.37069 0.0
C610 C 0.86112 0.1377 0.35514 0.0
C611 C 0.86231 0.16341 0.33714 0.0
C612 C 0.89981 0.1998 0.33213 0.0
C613 C 0.83552 0.09205 0.35184 0.0
C614 C 0.79572 0.06912 0.36195 0.0
C615 C 0.85166 0.07137 0.33804 0.0
C616 C 0.89317 0.09437 0.3267 0.0
C617 C 0.89637 0.11106 0.30471 0.0
C618 C 0.93574 0.13362 0.29422 0.0
C619 C 0.972 0.13942 0.30554 0.0
C620 C 0.96896 0.12265 0.32738 0.0
C621 C 0.92964 0.10004 0.33794 0.0
C622 C 0.7086 0.8948 0.3264 0.0
C623 C 0.73049 0.87308 0.3312 0.0
C624 C 0.72687 0.93765 0.33148 0.0
C625 C 0.76699 0.95891 0.3416 0.0
C626 C 0.78835 0.93687 0.34675 0.0
C627 C 0.77039 0.89443 0.3415 0.0
C628 C 0.78883 0.00475 0.34526 0.0
C629 C 0.82822 0.02818 0.33485 0.0
C630 C 0.77208 0.02527 0.35891 0.0
C631 C 0.73077 0.00159 0.3705 0.0
C632 C 0.72298 0.96872 0.3856 0.0
C633 C 0.68348 0.94562 0.39588 0.0
C634 C 0.65162 0.95534 0.39135 0.0
C635 C 0.65925 -0.0117 0.37659 0.0
C636 C 0.69868 0.01144 0.36622 0.0
H637 H 0.62102 0.93733 0.39925 0.0
H638 H 0.00245 0.15697 0.2974 0.0
H639 H 0.16305 0.77479 0.32066 0.0
H640 H 0.12767 0.70106 0.30877 0.0
H641 H 0.22087 0.68329 0.34491 0.0
H642 H 0.2563 0.75685 0.35715 0.0
H643 H 0.20535 0.65415 0.29851 0.0
H644 H 0.13384 0.64753 0.36896 0.0
H645 H 0.09277 0.66543 0.3959 0.0
H646 H -0.00853 0.62168 0.34722 0.0
H647 H 0.03228 0.60408 0.31981 0.0
H648 H 0.13512 0.44483 0.32215 0.0
H649 H 0.16179 0.51887 0.31734 0.0
H650 H 0.0385 0.49492 0.29548 0.0
H651 H 0.01028 0.41996 0.30407 0.0
H652 H 0.06354 0.54905 0.32587 0.0
H653 H 0.1392 0.53441 0.26174 0.0
H654 H 0.18474 0.50976 0.24393 0.0
H655 H 0.28707 0.59187 0.28766 0.0
H656 H 0.24171 0.61489 0.30684 0.0
C657 C 0.17604 0.75518 0.32606 0.0
C658 C 0.21252 0.77143 0.33972 0.0
C659 C 0.15572 0.71321 0.31932 0.0
C660 C 0.17192 0.68726 0.32598 0.0
C661 C 0.20825 0.70328 0.3396 0.0
C662 C 0.22831 0.7451 0.34658 0.0
C663 C 0.15147 0.64333 0.31849 0.0
C664 C 0.17432 0.63078 0.30434 0.0
C665 C 0.11072 0.61389 0.32588 0.0
C666 C 0.08644 0.62522 0.34215 0.0
C667 C 0.10307 0.6423 0.36385 0.0
C668 C 0.07977 0.65223 0.37925 0.0
C669 C 0.03962 0.6449 0.37323 0.0
C670 C 0.02265 0.6275 0.35182 0.0
C671 C 0.04586 0.61755 0.33634 0.0
C672 C 0.11403 0.45525 0.31555 0.0
C673 C 0.07093 0.42725 0.31327 0.0
C674 C 0.12944 0.49777 0.31249 0.0
C675 C 0.10263 0.51282 0.30528 0.0
C676 C 0.0599 0.48402 0.30087 0.0
C677 C 0.04382 0.44134 0.30544 0.0
C678 C 0.1179 0.55852 0.30621 0.0
C679 C 0.09399 0.57196 0.31914 0.0
C680 C 0.15864 0.58857 0.29837 0.0
C681 C 0.18686 0.57676 0.2856 0.0
C682 C 0.17146 0.54745 0.26747 0.0
C683 C 0.1972 0.53354 0.25723 0.0
C684 C 0.23889 0.54975 0.26438 0.0
C685 C 0.25485 0.57957 0.28199 0.0
C686 C 0.22903 0.59289 0.29265 0.0
H687 H 0.25873 0.53898 0.25639 0.0
H688 H 0.0216 0.65255 0.38519 0.0
H689 H 0.20912 0.44582 0.32654 0.0
H690 H 0.28286 0.47725 0.31548 0.0
H691 H 0.28764 0.36941 0.34151 0.0
H692 H 0.21328 0.33817 0.3534 0.0
H693 H 0.35669 0.4492 0.35441 0.0
H694 H 0.28613 0.37748 0.28534 0.0
H695 H 0.23025 0.35628 0.25622 0.0
H696 H 0.27809 0.4853 0.23765 0.0
H697 H 0.33387 0.50738 0.2669 0.0
H698 H 0.56178 0.5805 0.32372 0.0
H699 H 0.49868 0.51201 0.31777 0.0
H700 H 0.43457 0.57393 0.28911 0.0
H701 H 0.49766 0.64167 0.29448 0.0
H702 H 0.39772 0.4959 0.27412 0.0
H703 H 0.44404 0.56781 0.34772 0.0
H704 H 0.49395 0.59878 0.37995 0.0
H705 H 0.48658 0.47968 0.39248 0.0
H706 H 0.43706 0.4482 0.36005 0.0
C707 C 0.22591 0.42886 0.33004 0.0
C708 C 0.20548 0.38917 0.34035 0.0
C709 C 0.26788 0.44664 0.3235 0.0
C710 C 0.2903 0.4251 0.3271 0.0
C711 C 0.27053 0.3861 0.33821 0.0
C712 C 0.22821 0.36819 0.3448 0.0
C713 C 0.33482 0.44484 0.31976 0.0
C714 C 0.36591 0.45813 0.33673 0.0
C715 C 0.34648 0.45738 0.29676 0.0
C716 C 0.31432 0.44407 0.27829 0.0
C717 C 0.28478 0.40134 0.27503 0.0
C718 C 0.25305 0.38918 0.25854 0.0
C719 C 0.25062 0.41943 0.2451 0.0
C720 C 0.28006 0.4619 0.24805 0.0
C721 C 0.31183 0.47425 0.26454 0.0
C722 C 0.53509 0.57905 0.31475 0.0
C723 C 0.53422 0.61603 0.30956 0.0
C724 C 0.49887 0.53999 0.3116 0.0
C725 C 0.46145 0.53797 0.30373 0.0
C726 C 0.46286 0.57459 0.29538 0.0
C727 C 0.49902 0.6134 0.29837 0.0
C728 C 0.41965 0.50131 0.3089 0.0
C729 C 0.38889 0.48511 0.29159 0.0
C730 C 0.40795 0.48714 0.33175 0.0
C731 C 0.43743 0.50585 0.3513 0.0
C732 C 0.45329 0.54833 0.35728 0.0
C733 C 0.48148 0.56596 0.37556 0.0
C734 C 0.49355 0.54125 0.3882 0.0
C735 C 0.47733 0.49881 0.38261 0.0
C736 C 0.44924 0.48107 0.36427 0.0
H737 H 0.51537 0.55494 0.40236 0.0
H738 H 0.22592 0.40997 0.23241 0.0
H739 H 0.41985 0.00788 0.35265 0.0
H740 H 0.48027 -0.00104 0.34267 0.0
H741 H 0.40859 0.91497 0.28773 0.0
H742 H 0.3486 0.92381 0.29765 0.0
H743 H 0.42658 0.87798 0.32634 0.0
H744 H 0.49689 -0.00997 0.27347 0.0
H745 H 0.53095 0.06259 0.2591 0.0
H746 H 0.6242 0.10158 0.31229 0.0
H747 H 0.59033 0.02931 0.32723 0.0
H748 H 0.55231 0.79031 0.30065 0.0
H749 H 0.52215 0.83592 0.29322 0.0
H750 H 0.59196 0.91501 0.35023 0.0
H751 H 0.62208 0.86885 0.35787 0.0
H752 H 0.57932 0.95867 0.30889 0.0
H753 H 0.50531 0.84948 0.36402 0.0
H754 H 0.47227 0.77715 0.37873 0.0
H755 H 0.38539 0.73417 0.32225 0.0
H756 H 0.41853 0.80621 0.30693 0.0
C757 C 0.41807 -0.00997 0.33737 0.0
C758 C 0.37944 0.96701 0.32575 0.0
C759 C 0.45256 0.98457 0.33182 0.0
C760 C 0.4488 0.95586 0.31463 0.0
C761 C 0.41231 0.93744 0.301 0.0
C762 C 0.37807 0.94326 0.3064 0.0
C763 C 0.47717 0.9373 0.31481 0.0
C764 C 0.45981 0.89552 0.32208 0.0
C765 C 0.52088 0.9606 0.31019 0.0
C766 C 0.54069 0.00431 0.30166 0.0
C767 C 0.5243 0.01417 0.28232 0.0
C768 C 0.54368 0.05523 0.27401 0.0
C769 C 0.57963 0.08671 0.28482 0.0
C770 C 0.59629 0.07718 0.30397 0.0
C771 C 0.57702 0.03616 0.31235 0.0
C772 C 0.56255 0.81842 0.31099 0.0
C773 C 0.58985 0.82651 0.3296 0.0
C774 C 0.54521 0.84436 0.3068 0.0
C775 C 0.55471 0.87877 0.32122 0.0
C776 C 0.58458 0.88886 0.33879 0.0
C777 C 0.60176 0.86257 0.34313 0.0
C778 C 0.52835 0.89944 0.32007 0.0
C779 C 0.54602 0.94134 0.31294 0.0
C780 C 0.48479 0.87653 0.32504 0.0
C781 C 0.4648 0.83313 0.33415 0.0
C782 C 0.47951 0.82453 0.35457 0.0
C783 C 0.4607 0.7836 0.36306 0.0
C784 C 0.42685 0.75105 0.35139 0.0
C785 C 0.41169 0.7594 0.33124 0.0
C786 C 0.43049 0.80027 0.32264 0.0
H787 H 0.41228 0.7194 0.358 0.0
H788 H 0.59464 0.11847 0.27833 0.0
H789 H 0.78564 0.14644 0.69784 0.0
H790 H 0.71283 0.1046 0.71175 0.0
H791 H 0.66693 0.12895 0.64885 0.0
H792 H 0.7389 0.17065 0.63497 0.0
H793 H 0.65226 0.16006 0.69713 0.0
H794 H 0.63408 0.0374 0.64843 0.0
H795 H 0.65567 0.98452 0.63943 0.0
H796 H 0.64058 0.94789 0.71014 0.0
H797 H 0.61912 0.00075 0.71949 0.0
H798 H 0.46396 0.06443 0.64119 0.0
H799 H 0.52898 0.06775 0.65354 0.0
H800 H 0.48702 0.05088 0.72376 0.0
H801 H 0.42127 0.04806 0.71147 0.0
H802 H 0.54632 0.00893 0.69052 0.0
H803 H 0.54123 0.12327 0.73405 0.0
H804 H 0.51902 0.17686 0.73774 0.0
H805 H 0.583 0.2339 0.67506 0.0
H806 H 0.60443 0.17983 0.67066 0.0
C807 C 0.75987 0.1417 0.68673 0.0
C808 C 0.76779 0.16226 0.66547 0.0
C809 C 0.71845 0.11795 0.69472 0.0
C810 C 0.68487 0.11428 0.68136 0.0
C811 C 0.69265 0.13175 0.65939 0.0
C812 C 0.73373 0.15555 0.6515 0.0
C813 C 0.64217 0.0977 0.69085 0.0
C814 C 0.62916 0.12687 0.69653 0.0
C815 C 0.61247 0.05455 0.69023 0.0
C816 C 0.62513 0.02288 0.68463 0.0
C817 C 0.63548 0.01806 0.66202 0.0
C818 C 0.64761 -0.0119 0.65686 0.0
C819 C 0.64931 0.96274 0.67419 0.0
C820 C 0.63901 0.96739 0.69672 0.0
C821 C 0.62689 -0.00267 0.70196 0.0
C822 C 0.46785 0.06057 0.65926 0.0
C823 C 0.43765 0.05705 0.67546 0.0
C824 C 0.50509 0.06226 0.66625 0.0
C825 C 0.51288 0.06006 0.68953 0.0
C826 C 0.48159 0.05305 0.70569 0.0
C827 C 0.44415 0.05165 0.69867 0.0
C828 C 0.55618 0.07147 0.69628 0.0
C829 C 0.56956 0.04172 0.69304 0.0
C830 C 0.58643 0.11434 0.69917 0.0
C831 C 0.57394 0.14716 0.7019 0.0
C832 C 0.55008 0.14691 0.72091 0.0
C833 C 0.53768 0.17741 0.72314 0.0
C834 C 0.54949 0.2087 0.70661 0.0
C835 C 0.57376 0.20957 0.68783 0.0
C836 C 0.58597 0.17896 0.68544 0.0
H837 H 0.53993 0.23233 0.70838 0.0
H838 H 0.65884 0.93965 0.67018 0.0
H839 H 0.95337 0.41146 0.66019 0.0
H840 H 0.95313 0.47356 0.67522 0.0
H841 H 0.88093 0.40275 0.73368 0.0
H842 H 0.88114 0.34002 0.71837 0.0
H843 H 0.83976 0.4319 0.7085 0.0
H844 H 0.97463 0.49434 0.74229 0.0
H845 H 0.05014 0.51694 0.74606 0.0
H846 H 0.07785 0.59828 0.68816 0.0
H847 H 0.00249 0.57568 0.68375 0.0
H848 H 0.80025 0.60156 0.70798 0.0
H849 H 0.83653 0.56772 0.72599 0.0
H850 H 0.90011 0.57541 0.66227 0.0
H851 H 0.86269 0.60769 0.64399 0.0
H852 H 0.948 0.58272 0.70595 0.0
H853 H 0.81652 0.49655 0.66383 0.0
H854 H 0.74177 0.47264 0.65548 0.0
H855 H 0.70971 0.43427 0.72546 0.0
H856 H 0.78456 0.45879 0.73429 0.0
C857 C 0.93897 0.40966 0.67672 0.0
C858 C 0.91726 0.37124 0.68817 0.0
C859 C 0.93912 0.44526 0.68544 0.0
C860 C 0.91719 0.44295 0.70567 0.0
C861 C 0.89838 0.4053 0.71815 0.0
C862 C 0.89864 0.36959 0.70949 0.0
C863 C 0.90626 0.47637 0.7103 0.0
C864 C 0.86348 0.46489 0.70898 0.0
C865 C 0.93718 0.51946 0.71022 0.0
C866 C 0.98273 0.53325 0.71271 0.0
C867 C -0.00325 0.51685 0.73025 0.0
C868 C 0.03958 0.52969 0.73251 0.0
C869 C 0.06878 0.55903 0.71736 0.0
C870 C 0.05521 0.5756 0.69991 0.0
C871 C 0.01242 0.56284 0.69756 0.0
C872 C 0.82329 0.59757 0.69813 0.0
C873 C 0.82855 0.60666 0.6746 0.0
C874 C 0.84394 0.5783 0.70842 0.0
C875 C 0.87074 0.56901 0.69538 0.0
C876 C 0.8797 0.58262 0.6726 0.0
C877 C 0.85821 0.60079 0.66215 0.0
C878 C 0.88209 0.53774 0.70347 0.0
C879 C 0.92457 0.54972 0.70683 0.0
C880 C 0.85109 0.49494 0.70502 0.0
C881 C 0.80614 0.48019 0.69982 0.0
C882 C 0.79359 0.4835 0.6775 0.0
C883 C 0.75122 0.46976 0.67266 0.0
C884 C 0.72102 0.45213 0.68996 0.0
C885 C 0.73316 0.44811 0.71211 0.0
C886 C 0.77556 0.46198 0.71705 0.0
H887 H 0.68822 0.44145 0.68618 0.0
H888 H 0.10192 0.56894 0.71915 0.0
H889 H 0.6505 0.52937 0.69363 0.0
H890 H 0.58257 0.47244 0.70668 0.0
H891 H 0.52368 0.48359 0.64498 0.0
H892 H 0.59188 0.53923 0.63153 0.0
H893 H 0.48611 0.4384 0.70744 0.0
H894 H 0.51022 0.40541 0.61648 0.0
H895 H 0.5666 0.42933 0.58738 0.0
H896 H 0.65676 0.44794 0.63985 0.0
H897 H 0.60085 0.42399 0.66917 0.0
H898 H 0.35123 0.22399 0.64937 0.0
H899 H 0.38589 0.29991 0.65723 0.0
H900 H 0.46921 0.28764 0.70507 0.0
H901 H 0.43323 0.21184 0.69822 0.0
H902 H 0.48912 0.33568 0.65229 0.0
H903 H 0.44565 0.32004 0.73292 0.0
H904 H 0.39389 0.2993 0.76415 0.0
H905 H 0.34946 0.37955 0.73725 0.0
H906 H 0.39924 0.39872 0.70496 0.0
C907 C 0.62252 0.52073 0.68346 0.0
C908 C 0.62566 0.53691 0.66144 0.0
C909 C 0.5838 0.48883 0.69103 0.0
C910 C 0.54865 0.47373 0.67654 0.0
C911 C 0.55075 0.49504 0.65625 0.0
C912 C 0.58956 0.52615 0.64844 0.0
C913 C 0.51673 0.42943 0.67808 0.0
C914 C 0.4863 0.41577 0.69538 0.0
C915 C 0.51808 0.4003 0.66255 0.0
C916 C 0.55147 0.41306 0.64493 0.0
C917 C 0.54204 0.41434 0.62172 0.0
C918 C 0.57391 0.42801 0.60523 0.0
C919 C 0.61524 0.44017 0.61176 0.0
C920 C 0.62476 0.43853 0.63481 0.0
C921 C 0.59301 0.42496 0.65136 0.0
C922 C 0.37546 0.23745 0.66244 0.0
C923 C 0.38907 0.21255 0.67374 0.0
C924 C 0.395 0.2805 0.66699 0.0
C925 C 0.42886 0.29884 0.68242 0.0
C926 C 0.44174 0.27364 0.69403 0.0
C927 C 0.42164 0.23062 0.68988 0.0
C928 C 0.4577 0.34414 0.68155 0.0
C929 C 0.48811 0.3581 0.66422 0.0
C930 C 0.45665 0.373 0.69741 0.0
C931 C 0.42527 0.35972 0.7161 0.0
C932 C 0.42385 0.33207 0.73315 0.0
C933 C 0.39494 0.32073 0.75112 0.0
C934 C 0.36792 0.3376 0.75249 0.0
C935 C 0.36983 0.36589 0.73591 0.0
C936 C 0.39821 0.3768 0.71771 0.0
H937 H 0.34583 0.32909 0.76654 0.0
H938 H 0.63987 0.45085 0.59898 0.0
H939 H 0.65843 0.75361 0.66587 0.0
H940 H 0.66949 0.8235 0.65685 0.0
H941 H 0.79116 0.85618 0.62837 0.0
H942 H 0.77824 0.7854 0.6355 0.0
H943 H 0.7275 0.87916 0.68195 0.0
H944 H 0.83762 0.93336 0.60874 0.0
H945 H 0.846 0.91816 0.56834 0.0
H946 H 0.71518 0.87619 0.55586 0.0
H947 H 0.70582 0.88979 0.59645 0.0
H948 H 0.88853 0.08817 0.69733 0.0
H949 H 0.84766 0.01381 0.68748 0.0
H950 H 0.76865 0.03944 0.64303 0.0
H951 H 0.81004 0.11431 0.65243 0.0
H952 H 0.79986 -0.01148 0.62295 0.0
H953 H 0.73275 -0.0027 0.69243 0.0
H954 H 0.73067 0.01582 0.73289 0.0
H955 H 0.78157 0.93709 0.75336 0.0
H956 H 0.78401 0.91813 0.71297 0.0
C957 C 0.68614 0.77494 0.65623 0.0
C958 C 0.71761 0.76457 0.65142 0.0
C959 C 0.69264 0.81497 0.65119 0.0
C960 C 0.7314 0.84556 0.64214 0.0
C961 C 0.7606 0.83332 0.63482 0.0
C962 C 0.75335 0.79273 0.63907 0.0
C963 C 0.74545 0.8907 0.64628 0.0
C964 C 0.74252 0.9029 0.66885 0.0
C965 C 0.76607 0.92205 0.62953 0.0
C966 C 0.77089 0.91187 0.60557 0.0
C967 C 0.8106 0.92047 0.59738 0.0
C968 C 0.81547 0.91197 0.57452 0.0
C969 C 0.78102 0.89581 0.55959 0.0
C970 C 0.74167 0.88814 0.56753 0.0
C971 C 0.73646 0.89582 0.5905 0.0
C972 C 0.86225 0.07803 0.6856 0.0
C973 C 0.85228 0.10711 0.67581 0.0
C974 C 0.83896 0.03555 0.68001 0.0
C975 C 0.80517 0.02131 0.66461 0.0
C976 C 0.7947 0.05002 0.65497 0.0
C977 C 0.81802 0.09266 0.66059 0.0
C978 C 0.7814 0.97636 0.65841 0.0
C979 C 0.78333 0.96447 0.63573 0.0
C980 C 0.76048 0.94525 0.6752 0.0
C981 C 0.75835 0.95613 0.6996 0.0
C982 C 0.74339 0.98382 0.70553 0.0
C983 C 0.7422 -0.00554 0.72848 0.0
C984 C 0.75595 0.97762 0.7457 0.0
C985 C 0.77081 0.95002 0.74 0.0
C986 C 0.77195 0.93921 0.71708 0.0
H987 H 0.75512 0.98598 0.76345 0.0
H988 H 0.78485 0.88949 0.54186 0.0
H989 H 0.89384 0.77703 0.70977 0.0
H990 H 0.96752 0.81188 0.69753 0.0
H991 H 0.93441 0.72679 0.63995 0.0
H992 H 0.86101 0.69256 0.65164 0.0
H993 H 0.01122 0.74527 0.65987 0.0
H994 H 0.94233 0.81526 0.62902 0.0
H995 H 0.89604 0.84674 0.63047 0.0
H996 H 0.9803 0.94028 0.6781 0.0
H997 H 0.02676 0.90891 0.67724 0.0
H998 H 0.20107 0.97462 0.63194 0.0
H999 H 0.13304 0.91514 0.62117 0.0
H1000 H 0.13933 0.84665 0.67972 0.0
H1001 H 0.20829 0.90423 0.68919 0.0
H1002 H 0.07085 0.89763 0.64542 0.0
H1003 H 0.07137 0.74848 0.68184 0.0
H1004 H 0.1156 0.71488 0.67945 0.0
H1005 H 0.16723 0.77704 0.61565 0.0
H1006 H 0.12279 0.81055 0.61743 0.0
C1007 C 0.9024 0.76529 0.69476 0.0
C1008 C 0.87166 0.73185 0.68181 0.0
C1009 C 0.94437 0.78517 0.68779 0.0
C1010 C 0.95601 0.77203 0.66771 0.0
C1011 C 0.9259 0.73717 0.65551 0.0
C1012 C 0.88396 0.71742 0.6624 0.0
C1013 C -0.00109 0.79702 0.65853 0.0
C1014 C 0.02453 0.77855 0.65651 0.0
C1015 C 0.01511 0.83976 0.65305 0.0
C1016 C -0.01201 0.85963 0.65311 0.0
C1017 C 0.95093 0.84246 0.63987 0.0
C1018 C 0.92464 0.86026 0.64059 0.0
C1019 C 0.93522 0.89548 0.65438 0.0
C1020 C 0.97217 0.91302 0.66741 0.0
C1021 C -0.00146 0.89528 0.66678 0.0
C1022 C 0.18917 0.94575 0.6415 0.0
C1023 C 0.20997 0.94387 0.6613 0.0
C1024 C 0.14995 0.91192 0.63554 0.0
C1025 C 0.13079 0.87618 0.64956 0.0
C1026 C 0.15348 0.87312 0.66818 0.0
C1027 C 0.19288 0.90643 0.67381 0.0
C1028 C 0.08482 0.84675 0.64812 0.0
C1029 C 0.05798 0.86421 0.64807 0.0
C1030 C 0.06747 0.80288 0.65124 0.0
C1031 C 0.0937 0.78211 0.64979 0.0
C1032 C 0.09182 0.7547 0.66717 0.0
C1033 C 0.11704 0.73575 0.66596 0.0
C1034 C 0.14424 0.74386 0.64742 0.0
C1035 C 0.1462 0.77086 0.63003 0.0
C1036 C 0.12103 0.78988 0.63114 0.0
H1037 H 0.16379 0.72921 0.64654 0.0
H1038 H 0.91479 0.90918 0.65494 0.0
H1039 H 0.3036 0.19547 0.68428 0.0
H1040 H 0.27385 0.23774 0.66855 0.0
H1041 H 0.15085 0.12724 0.66749 0.0
H1042 H 0.18094 0.08527 0.68183 0.0
H1043 H 0.16905 0.16868 0.6268 0.0
H1044 H 0.18355 0.20423 0.70886 0.0
H1045 H 0.22171 0.23644 0.74479 0.0
H1046 H 0.28839 0.35617 0.71165 0.0
H1047 H 0.25152 0.32443 0.67542 0.0
H1048 H -0.00333 0.19476 0.64151 0.0
H1049 H 0.056 0.18412 0.63421 0.0
H1050 H 0.14088 0.31731 0.64288 0.0
H1051 H 0.08072 0.32669 0.65308 0.0
H1052 H 0.16401 0.28347 0.66969 0.0
H1053 H 0.1335 0.25076 0.59093 0.0
H1054 H 0.08967 0.21927 0.55651 0.0
H1055 H 0.05074 0.09577 0.58222 0.0
H1056 H 0.0936 0.12633 0.61693 0.0
C1057 C 0.27055 0.18046 0.68016 0.0
C1058 C 0.24499 0.13714 0.68345 0.0
C1059 C 0.25341 0.20453 0.67154 0.0
C1060 C 0.21022 0.18539 0.66644 0.0
C1061 C 0.18439 0.14248 0.67089 0.0
C1062 C 0.20154 0.11862 0.67936 0.0
C1063 C 0.19092 0.20911 0.65646 0.0
C1064 C 0.16788 0.19397 0.63601 0.0
C1065 C 0.19149 0.24357 0.66784 0.0
C1066 C 0.21537 0.26179 0.68932 0.0
C1067 C 0.20697 0.23723 0.70913 0.0
C1068 C 0.2283 0.25544 0.72958 0.0
C1069 C 0.25764 0.29826 0.7305 0.0
C1070 C 0.26594 0.32294 0.71092 0.0
C1071 C 0.24493 0.30484 0.69041 0.0
C1072 C 0.02788 0.22202 0.64078 0.0
C1073 C 0.03445 0.26145 0.64782 0.0
C1074 C 0.06213 0.21605 0.63636 0.0
C1075 C 0.10353 0.24991 0.63784 0.0
C1076 C 0.10944 0.29052 0.64184 0.0
C1077 C 0.07514 0.29609 0.6474 0.0
C1078 C 0.13925 0.24128 0.6406 0.0
C1079 C 0.16595 0.25939 0.65965 0.0
C1080 C 0.14206 0.20959 0.62783 0.0
C1081 C 0.11704 0.19099 0.60657 0.0
C1082 C 0.11558 0.21689 0.58927 0.0
C1083 C 0.09082 0.19918 0.5697 0.0
C1084 C 0.0675 0.15557 0.56716 0.0
C1085 C 0.06893 0.12955 0.58416 0.0
C1086 C 0.09357 0.14707 0.60376 0.0
H1087 H 0.04829 0.14193 0.55203 0.0
H1088 H 0.27368 0.31237 0.74642 0.0
H1089 H 0.11205 0.33512 0.24191 0.0
H1090 H 0.10312 0.35957 0.20447 0.0
H1091 H 0.00345 0.3781 0.23184 0.0
H1092 H 0.0135 0.35517 0.2698 0.0
H1093 H -0.01223 0.31161 0.19228 0.0
H1094 H 0.05973 0.45927 0.21071 0.0
H1095 H 0.11514 0.52959 0.22289 0.0
H1096 H 0.20407 0.51915 0.17878 0.0
H1097 H 0.14872 0.44919 0.16579 0.0
H1098 H 0.93693 0.36391 0.08357 0.0
H1099 H 0.95047 0.36112 0.12436 0.0
H1100 H 0.07664 0.38678 0.10875 0.0
H1101 H 0.06346 0.39009 0.06791 0.0
H1102 H 0.07581 0.43532 0.14389 0.0
H1103 H 0.00164 0.28914 0.12352 0.0
H1104 H 0.9432 0.22432 0.1072 0.0
H1105 H 0.85727 0.23173 0.15499 0.0
H1106 H 0.91514 0.29698 0.1714 0.0
C1107 C 0.08921 0.34579 0.24013 0.0
C1108 C 0.06324 0.34304 0.25862 0.0
C1109 C 0.08427 0.35989 0.21878 0.0
C1110 C 0.05267 0.37062 0.21543 0.0
C1111 C 0.02828 0.3703 0.2342 0.0
C1112 C 0.03403 0.35724 0.25582 0.0
C1113 C 0.04066 0.37435 0.19169 0.0
C1114 C 0.00642 0.33901 0.18178 0.0
C1115 C 0.06588 0.40944 0.17789 0.0
C1116 C 0.10031 0.44886 0.18755 0.0
C1117 C 0.09129 0.47168 0.20392 0.0
C1118 C 0.12256 0.51166 0.21077 0.0
C1119 C 0.16314 0.52881 0.20166 0.0
C1120 C 0.17261 0.50587 0.18578 0.0
C1121 C 0.14126 0.46616 0.17858 0.0
C1122 C 0.96751 0.36882 0.0888 0.0
C1123 C -0.00085 0.3773 0.07252 0.0
C1124 C 0.97514 0.36706 0.11212 0.0
C1125 C 0.01449 0.37353 0.1196 0.0
C1126 C 0.04606 0.38175 0.10336 0.0
C1127 C 0.03842 0.38344 0.08002 0.0
C1128 C 0.02302 0.37253 0.1444 0.0
C1129 C 0.05685 0.40805 0.15441 0.0
C1130 C -0.00256 0.3375 0.15828 0.0
C1131 C 0.96263 0.29819 0.14852 0.0
C1132 C 0.97021 0.27715 0.13042 0.0
C1133 C 0.93721 0.24029 0.12118 0.0
C1134 C 0.89653 0.22399 0.13 0.0
C1135 C 0.88879 0.24444 0.14814 0.0
C1136 C 0.92169 0.28134 0.15744 0.0
H1137 H 0.87101 0.19545 0.12282 0.0
H1138 H 0.18728 0.55981 0.20697 0.0
H1139 H 0.69124 0.70278 0.24499 0.0
H1140 H 0.66554 0.68977 0.20573 0.0
H1141 H 0.54362 0.6667 0.22882 0.0
H1142 H 0.56966 0.68061 0.26871 0.0
H1143 H 0.5467 0.60955 0.19113 0.0
H1144 H 0.59261 0.75284 0.20779 0.0
H1145 H 0.63921 0.82286 0.22436 0.0
H1146 H 0.74049 0.83582 0.18125 0.0
H1147 H 0.69476 0.76552 0.16472 0.0
H1148 H 0.53239 0.6125 0.06904 0.0
H1149 H 0.52601 0.63909 0.10692 0.0
H1150 H 0.65569 0.67603 0.1214 0.0
H1151 H 0.6616 0.64846 0.08411 0.0
H1152 H 0.62776 0.732 0.1404 0.0
H1153 H 0.58805 0.58213 0.13518 0.0
H1154 H 0.54459 0.51165 0.11824 0.0
H1155 H 0.43216 0.51259 0.1395 0.0
H1156 H 0.4751 0.58343 0.15631 0.0
C1157 C 0.65869 0.69426 0.2419 0.0
C1158 C 0.63257 0.693 0.26001 0.0
C1159 C 0.6441 0.68694 0.21938 0.0
C1160 C 0.60298 0.67808 0.21432 0.0
C1161 C 0.5756 0.67377 0.23241 0.0
C1162 C 0.59038 0.68137 0.25517 0.0
C1163 C 0.5907 0.67585 0.18987 0.0
C1164 C 0.56322 0.63661 0.1801 0.0
C1165 C 0.61257 0.71111 0.17542 0.0
C1166 C 0.64022 0.75375 0.18506 0.0
C1167 C 0.6249 0.77048 0.20194 0.0
C1168 C 0.65116 0.81025 0.21133 0.0
C1169 C 0.69279 0.83376 0.20388 0.0
C1170 C 0.70822 0.81757 0.187 0.0
C1171 C 0.68211 0.77777 0.17759 0.0
C1172 C 0.55985 0.62774 0.08004 0.0
C1173 C 0.5975 0.6285 0.07382 0.0
C1174 C 0.55615 0.64274 0.10166 0.0
C1175 C 0.59032 0.65923 0.11703 0.0
C1176 C 0.62901 0.66359 0.1098 0.0
C1177 C 0.63239 0.64781 0.08853 0.0
C1178 C 0.58488 0.66555 0.14172 0.0
C1179 C 0.60955 0.70545 0.15151 0.0
C1180 C 0.56037 0.63101 0.15618 0.0
C1181 C 0.53467 0.58806 0.14678 0.0
C1182 C 0.55405 0.56731 0.13616 0.0
C1183 C 0.52954 0.52735 0.12658 0.0
C1184 C 0.48563 0.50769 0.12775 0.0
C1185 C 0.46617 0.5279 0.13859 0.0
C1186 C 0.49056 0.56793 0.14814 0.0
H1187 H 0.46669 0.47677 0.12029 0.0
H1188 H 0.71308 0.86455 0.21117 0.0
H1189 H 0.42162 0.04503 0.09638 0.0
H1190 H 0.39896 0.02647 0.13575 0.0
H1191 H 0.30557 0.90218 0.1139 0.0
H1192 H 0.32782 0.92128 0.07385 0.0
H1193 H 0.27513 0.93298 0.14693 0.0
H1194 H 0.39783 0.9189 0.13797 0.0
H1195 H 0.47083 0.94137 0.12621 0.0
H1196 H 0.5166 0.04554 0.17321 0.0
H1197 H 0.44379 0.02406 0.18501 0.0
H1198 H 0.24106 0.8453 0.25694 0.0
H1199 H 0.26594 0.86121 0.21757 0.0
H1200 H 0.34739 -0.00917 0.23628 0.0
H1201 H 0.32199 0.97521 0.27608 0.0
H1202 H 0.38391 0.9551 0.20489 0.0
H1203 H 0.26038 0.96957 0.21277 0.0
H1204 H 0.1871 0.947 0.22397 0.0
H1205 H 0.14279 0.84071 0.17855 0.0
H1206 H 0.21593 0.86229 0.16736 0.0
C1207 C 0.39621 0.01363 0.0998 0.0
C1208 C 0.37691 0.98426 0.08192 0.0
C1209 C 0.38337 0.00307 0.12243 0.0
C1210 C 0.35136 0.9626 0.12791 0.0
C1211 C 0.3307 0.93352 0.11008 0.0
C1212 C 0.34336 0.94435 0.08721 0.0
C1213 C 0.34029 0.95119 0.15237 0.0
C1214 C 0.29876 0.93711 0.15951 0.0
C1215 C 0.37136 0.95751 0.16893 0.0
C1216 C 0.4153 0.97001 0.16227 0.0
C1217 C 0.42344 0.94672 0.14572 0.0
C1218 C 0.46479 0.95928 0.13904 0.0
C1219 C 0.49833 -0.00509 0.14892 0.0
C1220 C 0.49058 0.01796 0.16556 0.0
C1221 C 0.44928 0.00557 0.17228 0.0
C1222 C 0.26463 0.87719 0.25284 0.0
C1223 C 0.27926 0.90912 0.26964 0.0
C1224 C 0.27877 0.88618 0.23028 0.0
C1225 C 0.30795 0.92726 0.22393 0.0
C1226 C 0.32466 0.9589 0.24085 0.0
C1227 C 0.31022 0.94995 0.26356 0.0
C1228 C 0.31885 0.9371 0.19937 0.0
C1229 C 0.36032 0.95083 0.19224 0.0
C1230 C 0.2877 0.93026 0.1828 0.0
C1231 C 0.24367 0.9173 0.18942 0.0
C1232 C 0.23505 0.94117 0.20533 0.0
C1233 C 0.19353 0.9286 0.21165 0.0
C1234 C 0.16031 0.89238 0.20203 0.0
C1235 C 0.16856 0.86872 0.18602 0.0
C1236 C 0.21004 0.88112 0.17967 0.0
H1237 H 0.12819 0.88271 0.20694 0.0
H1238 H 0.53032 0.00461 0.14371 0.0
H1239 H 0.32433 0.95688 0.91475 0.0
H1240 H 0.33713 0.98335 0.87559 0.0
H1241 H 0.44912 0.09493 0.8979 0.0
H1242 H 0.43653 0.06813 0.93747 0.0
H1243 H 0.38933 0.10124 0.86057 0.0
H1244 H 0.47197 0.03321 0.87813 0.0
H1245 H 0.47943 0.97561 0.89516 0.0
H1246 H 0.38165 0.88659 0.85107 0.0
H1247 H 0.37315 0.94359 0.83405 0.0
H1248 H 0.41691 0.12592 0.74173 0.0
H1249 H 0.44428 0.12622 0.78027 0.0
H1250 H 0.35721 -0.00665 0.78579 0.0
H1251 H 0.33082 -0.00688 0.74739 0.0
H1252 H 0.42443 0.01227 0.81052 0.0
H1253 H 0.32799 0.06637 0.80053 0.0
H1254 H 0.30636 0.11462 0.78371 0.0
H1255 H 0.41498 0.22007 0.81319 0.0
H1256 H 0.43756 0.17236 0.82992 0.0
C1257 C 0.35107 -0.01241 0.91144 0.0
C1258 C 0.37935 0.01059 0.92909 0.0
C1259 C 0.35835 0.00263 0.88908 0.0
C1260 C 0.39426 0.04081 0.88387 0.0
C1261 C 0.42118 0.06541 0.90167 0.0
C1262 C 0.41386 0.05023 0.92421 0.0
C1263 C 0.40522 0.05182 0.85949 0.0
C1264 C 0.3984 0.08285 0.84966 0.0
C1265 C 0.41567 0.02676 0.84526 0.0
C1266 C 0.42189 -0.00732 0.85486 0.0
C1267 C 0.45198 0.00134 0.87212 0.0
C1268 C 0.45638 0.96879 0.88178 0.0
C1269 C 0.43102 0.92747 0.87421 0.0
C1270 C 0.40131 0.91862 0.8569 0.0
C1271 C 0.39675 0.95105 0.84721 0.0
C1272 C 0.4053 0.09656 0.75084 0.0
C1273 C 0.37198 0.05945 0.74182 0.0
C1274 C 0.42058 0.09676 0.77289 0.0
C1275 C 0.40204 0.06 0.78615 0.0
C1276 C 0.37197 0.02212 0.77598 0.0
C1277 C 0.35692 0.02192 0.75402 0.0
C1278 C 0.40808 0.06144 0.8114 0.0
C1279 C 0.41746 0.03223 0.82144 0.0
C1280 C 0.39869 0.08729 0.82574 0.0
C1281 C 0.3847 0.11592 0.81624 0.0
C1282 C 0.34732 0.09987 0.80335 0.0
C1283 C 0.33491 0.1271 0.79382 0.0
C1284 C 0.35935 0.1704 0.79733 0.0
C1285 C 0.39615 0.18653 0.81045 0.0
C1286 C 0.40878 0.15942 0.81996 0.0
H1287 H 0.34973 0.19145 0.78992 0.0
H1288 H 0.43441 0.9023 0.88175 0.0
H1289 H 0.01143 0.42966 0.90897 0.0
H1290 H 0.97805 0.40663 0.87195 0.0
H1291 H 0.88217 0.29118 0.90165 0.0
H1292 H 0.91624 0.31443 0.93947 0.0
H1293 H 0.91876 0.27837 0.86373 0.0
H1294 H 0.8547 0.36071 0.8806 0.0
H1295 H 0.85009 0.42213 0.89456 0.0
H1296 H 0.9371 0.49876 0.84263 0.0
H1297 H 0.9428 0.43801 0.82855 0.0
H1298 H 0.85643 0.22629 0.7501 0.0
H1299 H 0.84709 0.24488 0.78918 0.0
H1300 H 0.95524 0.36794 0.78082 0.0
H1301 H 0.96407 0.34943 0.74131 0.0
H1302 H 0.89304 0.36802 0.80985 0.0
H1303 H 0.96969 0.29167 0.80033 0.0
H1304 H 0.9786 0.23245 0.78676 0.0
H1305 H 0.87072 0.14667 0.82585 0.0
H1306 H 0.8608 0.2054 0.83936 0.0
C1307 C 0.98303 0.3994 0.90786 0.0
C1308 C 0.96676 0.37355 0.92723 0.0
C1309 C 0.96363 0.38653 0.88661 0.0
C1310 C 0.92724 0.34749 0.88403 0.0
C1311 C 0.91008 0.32169 0.90335 0.0
C1312 C 0.92951 0.33488 0.92491 0.0
C1313 C 0.91084 0.33275 0.86055 0.0
C1314 C 0.9117 0.29719 0.85213 0.0
C1315 C 0.90274 0.35798 0.84527 0.0
C1316 C 0.89923 0.3947 0.85354 0.0
C1317 C 0.87306 0.3907 0.87222 0.0
C1318 C 0.87023 0.42541 0.88016 0.0
C1319 C 0.8933 0.46432 0.8695 0.0
C1320 C 0.91921 0.46858 0.85085 0.0
C1321 C 0.92218 0.43398 0.84286 0.0
C1322 C 0.87722 0.25783 0.75638 0.0
C1323 C 0.91098 0.28652 0.74294 0.0
C1324 C 0.87195 0.26835 0.77868 0.0
C1325 C 0.90094 0.30744 0.78802 0.0
C1326 C 0.93257 0.33755 0.7739 0.0
C1327 C 0.93765 0.32707 0.7514 0.0
C1328 C 0.90209 0.31443 0.81314 0.0
C1329 C 0.89864 0.34853 0.82169 0.0
C1330 C 0.90811 0.28808 0.8286 0.0
C1331 C 0.91417 0.2528 0.8206 0.0
C1332 C 0.94766 0.26013 0.80587 0.0
C1333 C 0.95293 0.22667 0.79821 0.0
C1334 C 0.92515 0.1858 0.80538 0.0
C1335 C 0.89213 0.17833 0.82027 0.0
C1336 C 0.88667 0.21168 0.82793 0.0
H1337 H 0.92929 0.15994 0.79944 0.0
H1338 H 0.89107 0.49116 0.87567 0.0
H1339 H 0.70967 0.5729 0.7396 0.0
H1340 H 0.69822 0.55562 0.78052 0.0
H1341 H 0.61912 0.6125 0.78481 0.0
H1342 H 0.63069 0.62986 0.74411 0.0
H1343 H 0.70045 0.65417 0.80885 0.0
H1344 H 0.57742 0.51544 0.79798 0.0
H1345 H 0.54124 0.44248 0.78353 0.0
H1346 H 0.62811 0.41707 0.82034 0.0
H1347 H 0.66518 0.49007 0.83476 0.0
H1348 H 0.62249 0.6568 0.91487 0.0
H1349 H 0.64257 0.65136 0.87626 0.0
H1350 H 0.67904 0.56087 0.89778 0.0
H1351 H 0.65484 0.56364 0.93695 0.0
H1352 H 0.63491 0.53241 0.86125 0.0
H1353 H 0.75319 0.66559 0.87616 0.0
H1354 H 0.79257 0.73816 0.89101 0.0
H1355 H 0.72306 0.77507 0.8464 0.0
H1356 H 0.68289 0.7027 0.83149 0.0
C1357 C 0.68756 0.57911 0.74895 0.0
C1358 C 0.67064 0.60227 0.73865 0.0
C1359 C 0.68143 0.56966 0.77241 0.0
C1360 C 0.65825 0.58326 0.78575 0.0
C1361 C 0.63714 0.60173 0.77482 0.0
C1362 C 0.64329 0.61116 0.75147 0.0
C1363 C 0.66323 0.58697 0.81109 0.0
C1364 C 0.68592 0.62759 0.82037 0.0
C1365 C 0.6467 0.55214 0.82598 0.0
C1366 C 0.62444 0.50839 0.81718 0.0
C1367 C 0.58913 0.49446 0.80277 0.0
C1368 C 0.56836 0.45304 0.79465 0.0
C1369 C 0.58246 0.4252 0.80094 0.0
C1370 C 0.61728 0.43868 0.81543 0.0
C1371 C 0.63815 0.48006 0.82359 0.0
C1372 C 0.63574 0.6364 0.91166 0.0
C1373 C 0.63677 0.61044 0.929 0.0
C1374 C 0.64775 0.63362 0.88941 0.0
C1375 C 0.66312 0.60619 0.88386 0.0
C1376 C 0.66733 0.58235 0.90155 0.0
C1377 C 0.65417 0.58442 0.92402 0.0
C1378 C 0.67013 0.60005 0.8592 0.0
C1379 C 0.65023 0.55911 0.84989 0.0
C1380 C 0.69017 0.63466 0.84411 0.0
C1381 C 0.71503 0.6786 0.85268 0.0
C1382 C 0.74624 0.68915 0.86954 0.0
C1383 C 0.76869 0.73027 0.87798 0.0
C1384 C 0.76033 0.7612 0.86965 0.0
C1385 C 0.72958 0.75111 0.8528 0.0
C1386 C 0.70706 0.71006 0.84429 0.0
H1387 H 0.77768 0.79299 0.87625 0.0
H1388 H 0.56633 0.39316 0.79464 0.0
H1389 H 0.71448 0.74573 0.40508 0.0
H1390 H 0.73492 0.74591 0.44525 0.0
H1391 H 0.60397 0.68255 0.46483 0.0
H1392 H 0.58359 0.68154 0.42514 0.0
H1393 H 0.6487 0.74851 0.49237 0.0
H1394 H 0.65507 0.6319 0.46195 0.0
H1395 H 0.67611 0.59081 0.43698 0.0
H1396 H 0.80347 0.66231 0.46096 0.0
H1397 H 0.78328 0.70477 0.48568 0.0
H1398 H 0.65391 0.66062 0.60208 0.0
H1399 H 0.64116 0.67875 0.56365 0.0
H1400 H 0.77513 0.74629 0.55119 0.0
H1401 H 0.78757 0.72678 0.5893 0.0
H1402 H 0.73278 0.68462 0.52006 0.0
H1403 H 0.71064 0.79011 0.55838 0.0
H1404 H 0.67387 0.80993 0.58714 0.0
H1405 H 0.55774 0.74023 0.55036 0.0
H1406 H 0.59265 0.71662 0.52251 0.0
C1407 C 0.69019 0.7311 0.41787 0.0
C1408 C 0.64753 0.71369 0.41184 0.0
C1409 C 0.70183 0.73156 0.44084 0.0
C1410 C 0.67089 0.71471 0.45806 0.0
C1411 C 0.62837 0.69633 0.45192 0.0
C1412 C 0.61683 0.69562 0.42913 0.0
C1413 C 0.68218 0.71597 0.4826 0.0
C1414 C 0.66711 0.73457 0.4985 0.0
C1415 C 0.70575 0.69731 0.4905 0.0
C1416 C 0.71804 0.67251 0.47515 0.0
C1417 C 0.6878 0.63963 0.46153 0.0
C1418 C 0.6995 0.61593 0.44749 0.0
C1419 C 0.74124 0.62433 0.44717 0.0
C1420 C 0.77131 0.65631 0.46099 0.0
C1421 C 0.75979 0.68027 0.47495 0.0
C1422 C 0.68057 0.68101 0.59148 0.0
C1423 C 0.7217 0.69295 0.59855 0.0
C1424 C 0.67331 0.69108 0.56948 0.0
C1425 C 0.70724 0.71381 0.55452 0.0
C1426 C 0.74854 0.72869 0.56244 0.0
C1427 C 0.75569 0.71808 0.58425 0.0
C1428 C 0.69973 0.71755 0.52989 0.0
C1429 C 0.71527 0.69955 0.51393 0.0
C1430 C 0.67471 0.73484 0.52215 0.0
C1431 C 0.6544 0.75123 0.53832 0.0
C1432 C 0.67716 0.77852 0.55649 0.0
C1433 C 0.65659 0.79037 0.57271 0.0
C1434 C 0.61369 0.77683 0.57043 0.0
C1435 C 0.59105 0.75085 0.55208 0.0
C1436 C 0.61114 0.73786 0.53618 0.0
H1437 H 0.59796 0.78634 0.58293 0.0
H1438 H 0.75022 0.60583 0.43638 0.0
H1439 H 0.23681 -0.00995 0.40835 0.0
H1440 H 0.22902 0.01031 0.44764 0.0
H1441 H 0.19436 0.88601 0.47119 0.0
H1442 H 0.20211 0.86586 0.4323 0.0
H1443 H 0.1564 0.91462 0.49701 0.0
H1444 H 0.29798 0.96721 0.47066 0.0
H1445 H 0.35845 0.00488 0.44468 0.0
H1446 H 0.3571 0.11999 0.45774 0.0
H1447 H 0.2962 0.08282 0.48357 0.0
H1448 H 0.26337 0.97269 0.60752 0.0
H1449 H 0.23333 0.94435 0.5695 0.0
H1450 H 0.24493 0.06378 0.55126 0.0
H1451 H 0.27472 0.09193 0.58896 0.0
H1452 H 0.28915 0.03836 0.52294 0.0
H1453 H 0.14926 0.97932 0.55547 0.0
H1454 H 0.09475 0.93636 0.5837 0.0
H1455 H 0.10023 0.82683 0.56168 0.0
H1456 H 0.15513 0.86922 0.53346 0.0
C1457 C 0.22572 0.96671 0.42178 0.0
C1458 C 0.22023 0.92658 0.41752 0.0
C1459 C 0.22143 0.97828 0.44415 0.0
C1460 C 0.21166 0.94991 0.46237 0.0
C1461 C 0.20201 0.90854 0.45752 0.0
C1462 C 0.20653 0.89707 0.4353 0.0
C1463 C 0.21727 0.96455 0.4866 0.0
C1464 C 0.1854 0.94169 0.50268 0.0
C1465 C 0.25533 -0.00042 0.49414 0.0
C1466 C 0.29226 0.02215 0.47883 0.0
C1467 C 0.31044 0.00051 0.46788 0.0
C1468 C 0.34479 0.02176 0.45319 0.0
C1469 C 0.36153 0.06478 0.44951 0.0
C1470 C 0.34404 0.08665 0.46057 0.0
C1471 C 0.30961 0.06552 0.47524 0.0
C1472 C 0.25797 -0.00778 0.59564 0.0
C1473 C 0.27128 0.03439 0.60103 0.0
C1474 C 0.24095 0.97613 0.57396 0.0
C1475 C 0.23713 0.00212 0.55757 0.0
C1476 C 0.24771 0.04329 0.56364 0.0
C1477 C 0.26466 0.05928 0.58516 0.0
C1478 C 0.22809 -0.01108 0.53325 0.0
C1479 C 0.25973 0.01184 0.51718 0.0
C1480 C 0.1905 0.95326 0.526 0.0
C1481 C 0.15651 0.92752 0.54244 0.0
C1482 C 0.13896 0.9461 0.55669 0.0
C1483 C 0.10794 0.92184 0.57267 0.0
C1484 C 0.09407 0.87891 0.5745 0.0
C1485 C 0.11099 0.86009 0.56024 0.0
C1486 C 0.14199 0.8842 0.54421 0.0
H1487 H 0.07024 0.86024 0.58699 0.0
H1488 H 0.38812 0.08118 0.43813 0.0
H1489 H 0.96033 0.32399 0.5823 0.0
H1490 H 0.97929 0.31504 0.54338 0.0
H1491 H 0.97533 0.19958 0.56296 0.0
H1492 H 0.95711 0.20908 0.60247 0.0
H1493 H 0.03903 0.25218 0.52649 0.0
H1494 H 0.89017 0.18594 0.54356 0.0
H1495 H 0.82828 0.18558 0.56099 0.0
H1496 H 0.84732 0.28909 0.51863 0.0
H1497 H 0.90976 0.29054 0.50124 0.0
H1498 H 0.02873 0.22842 0.40458 0.0
H1499 H 0.0062 0.20392 0.44407 0.0
H1500 H 0.97517 0.30273 0.45416 0.0
H1501 H -0.00309 0.32641 0.41508 0.0
H1502 H 0.92162 0.23623 0.4767 0.0
H1503 H 0.07401 0.31464 0.46669 0.0
H1504 H 0.14146 0.32585 0.45071 0.0
H1505 H 0.12049 0.20961 0.47996 0.0
H1506 H 0.0526 0.19748 0.49585 0.0
C1507 C 0.96516 0.29758 0.57854 0.0
C1508 C 0.95702 0.26706 0.59522 0.0
C1509 C 0.97583 0.2924 0.55631 0.0
C1510 C 0.97766 0.25615 0.55021 0.0
C1511 C 0.97381 0.22764 0.56736 0.0
C1512 C 0.9636 0.23316 0.58988 0.0
C1513 C 0.9772 0.2459 0.52555 0.0
C1514 C 0.01297 0.24752 0.51559 0.0
C1515 C 0.94331 0.24034 0.51138 0.0
C1516 C 0.90468 0.23834 0.52112 0.0
C1517 C 0.8812 0.20866 0.538 0.0
C1518 C 0.84605 0.2083 0.54789 0.0
C1519 C 0.83387 0.23729 0.54092 0.0
C1520 C 0.85674 0.26661 0.52399 0.0
C1521 C 0.89197 0.26716 0.51408 0.0
C1522 C 0.01541 0.24358 0.41504 0.0
C1523 C 0.01422 0.27906 0.40692 0.0
C1524 C 0.00307 0.22998 0.43764 0.0
C1525 C -0.0103 0.25197 0.45225 0.0
C1526 C -0.01465 0.28521 0.44332 0.0
C1527 C -0.00232 0.29871 0.42095 0.0
C1528 C -0.0158 0.24415 0.47735 0.0
C1529 C 0.94713 0.2392 0.48752 0.0
C1530 C 0.01724 0.24749 0.49161 0.0
C1531 C 0.058 0.25484 0.48213 0.0
C1532 C 0.08365 0.29132 0.46954 0.0
C1533 C 0.12196 0.29787 0.46053 0.0
C1534 C 0.13517 0.26837 0.46423 0.0
C1535 C 0.11015 0.23235 0.47703 0.0
C1536 C 0.07175 0.22561 0.48603 0.0
H1537 H 0.16485 0.27349 0.45725 0.0
H1538 H 0.80671 0.23702 0.54863 0.0
loop_
_geom_bond_atom_site_label_1
_geom_bond_atom_site_label_2
_geom_bond_distance
_geom_bond_site_symmetry_2
_ccdc_geom_bond_type
Zn0 O6 1.920 . S
Zn0 O12 1.898 . S
Zn0 O15 1.905 . S
Zn1 O9 1.905 . S
Zn1 O10 1.898 . S
Zn1 O18 1.920 . S
Zn2 O5 2.080 . S
Zn2 O8 2.114 1_455 S
Zn2 O11 2.120 . S
Zn2 O13 2.120 1_454 S
Zn2 O14 2.114 . S
Zn2 O17 2.080 1_455 S
C3 O8 1.166 . S
C3 O9 1.182 . S
C4 O10 1.167 . S
C4 O11 1.299 1_655 S
O5 Zn2 2.080 . S
O5 C19 1.305 1_554 S
O6 Zn0 1.920 . S
O6 C19 1.234 . S
C7 O12 1.167 . S
C7 O13 1.299 1_455 S
O8 Zn2 2.114 1_655 S
O8 C3 1.166 . S
O9 Zn1 1.905 . S
O9 C3 1.182 . S
O10 Zn1 1.898 . S
O10 C4 1.167 . S
O11 Zn2 2.120 . S
O11 C4 1.299 1_455 S
O12 Zn0 1.898 . S
O12 C7 1.167 . S
O13 Zn2 2.120 1_656 S
O13 C7 1.299 1_655 S
O14 Zn2 2.114 . S
O14 C16 1.166 . S
O15 Zn0 1.905 . S
O15 C16 1.182 1_556 S
C16 O14 1.166 . S
C16 O15 1.182 1_554 S
O17 Zn2 2.080 1_655 S
O17 C20 1.305 . S
O18 Zn1 1.920 . S
O18 C20 1.234 . S
C19 O5 1.305 1_556 S
C19 O6 1.234 . S
C20 O17 1.305 . S
C20 O18 1.234 . S
Zn21 O27 1.920 . S
Zn21 O33 1.898 . S
Zn21 O36 1.905 . S
Zn22 O30 1.905 . S
Zn22 O31 1.898 . S
Zn22 O39 1.920 . S
Zn23 O26 2.080 . S
Zn23 O29 2.114 . S
Zn23 O32 2.120 . S
Zn23 O34 2.120 1_554 S
Zn23 O35 2.114 . S
Zn23 O38 2.080 . S
C24 O29 1.166 . S
C24 O30 1.182 . S
C25 O31 1.167 . S
C25 O32 1.299 . S
O26 Zn23 2.080 . S
O26 C40 1.305 1_554 S
O27 Zn21 1.920 . S
O27 C40 1.234 . S
C28 O33 1.167 . S
C28 O34 1.299 . S
O29 Zn23 2.114 . S
O29 C24 1.166 . S
O30 Zn22 1.905 . S
O30 C24 1.182 . S
O31 Zn22 1.898 . S
O31 C25 1.167 . S
O32 Zn23 2.120 . S
O32 C25 1.299 . S
O33 Zn21 1.898 . S
O33 C28 1.167 . S
O34 Zn23 2.120 1_556 S
O34 C28 1.299 . S
O35 Zn23 2.114 . S
O35 C37 1.166 . S
O36 Zn21 1.905 . S
O36 C37 1.182 1_556 S
C37 O35 1.166 . S
C37 O36 1.182 1_554 S
O38 Zn23 2.080 . S
O38 C41 1.305 . S
O39 Zn22 1.920 . S
O39 C41 1.234 . S
C40 O26 1.305 1_556 S
C40 O27 1.234 . S
C41 O38 1.305 . S
C41 O39 1.234 . S
Zn42 O48 1.920 . S
Zn42 O54 1.898 . S
Zn42 O57 1.905 . S
Zn43 O51 1.905 . S
Zn43 O52 1.898 . S
Zn43 O60 1.920 . S
Zn44 O47 2.080 . S
Zn44 O50 2.114 1_545 S
Zn44 O53 2.120 1_554 S
Zn44 O55 2.117 1_545 S
Zn44 O56 2.114 . S
Zn44 O59 2.080 1_545 S
C45 O50 1.166 . S
C45 O51 1.182 1_554 S
C46 O52 1.167 . S
C46 O53 1.299 1_565 S
O47 Zn44 2.080 . S
O47 C61 1.305 . S
O48 Zn42 1.920 . S
O48 C61 1.234 . S
C49 O54 1.167 . S
C49 O55 1.283 1_545 S
O50 Zn44 2.114 1_565 S
O50 C45 1.166 . S
O51 Zn43 1.905 . S
O51 C45 1.182 1_556 S
O52 Zn43 1.898 . S
O52 C46 1.167 . S
O53 Zn44 2.120 1_556 S
O53 C46 1.299 1_545 S
O54 Zn42 1.898 . S
O54 C49 1.167 . S
O55 Zn44 2.117 1_565 S
O55 C49 1.283 1_565 S
O56 Zn44 2.114 . S
O56 C58 1.166 . S
O57 Zn42 1.905 . S
O57 C58 1.182 . S
C58 O56 1.166 . S
C58 O57 1.182 . S
O59 Zn44 2.080 1_565 S
O59 C62 1.305 1_554 S
O60 Zn43 1.920 . S
O60 C62 1.234 . S
C61 O47 1.305 . S
C61 O48 1.234 . S
C62 O59 1.305 1_556 S
C62 O60 1.234 . S
Zn63 O69 1.920 . S
Zn63 O75 1.898 . S
Zn63 O78 1.905 . S
Zn64 O72 1.905 . S
Zn64 O73 1.898 . S
Zn64 O81 1.920 . S
Zn65 O68 2.080 . S
Zn65 O71 2.114 . S
Zn65 O74 2.120 . S
Zn65 O76 2.120 . S
Zn65 O77 2.114 . S
Zn65 O80 2.080 . S
C66 O71 1.166 . S
C66 O72 1.182 . S
C67 O73 1.167 . S
C67 O74 1.299 . S
O68 Zn65 2.080 . S
O68 C82 1.305 . S
O69 Zn63 1.920 . S
O69 C82 1.234 . S
C70 O75 1.167 . S
C70 O76 1.299 . S
O71 Zn65 2.114 . S
O71 C66 1.166 . S
O72 Zn64 1.905 . S
O72 C66 1.182 . S
O73 Zn64 1.898 . S
O73 C67 1.167 . S
O74 Zn65 2.120 . S
O74 C67 1.299 . S
O75 Zn63 1.898 . S
O75 C70 1.167 . S
O76 Zn65 2.120 . S
O76 C70 1.299 . S
O77 Zn65 2.114 . S
O77 C79 1.166 . S
O78 Zn63 1.905 . S
O78 C79 1.182 . S
C79 O77 1.166 . S
C79 O78 1.182 . S
O80 Zn65 2.080 . S
O80 C83 1.305 . S
O81 Zn64 1.920 . S
O81 C83 1.234 . S
C82 O68 1.305 . S
C82 O69 1.234 . S
C83 O80 1.305 . S
C83 O81 1.234 . S
Zn84 O90 1.920 . S
Zn84 O96 1.898 . S
Zn84 O99 1.905 . S
Zn85 O93 1.905 1_565 S
Zn85 O94 1.898 . S
Zn85 O102 1.920 . S
Zn86 O89 2.080 . S
Zn86 O92 2.114 . S
Zn86 O95 2.120 . S
Zn86 O97 2.120 . S
Zn86 O98 2.114 . S
Zn86 O101 2.080 . S
C87 O92 1.166 1_545 S
C87 O93 1.182 . S
C88 O94 1.167 . S
C88 O95 1.299 . S
O89 Zn86 2.080 . S
O89 C103 1.305 . S
O90 Zn84 1.920 . S
O90 C103 1.234 . S
C91 O96 1.167 . S
C91 O97 1.299 . S
O92 Zn86 2.114 . S
O92 C87 1.166 1_565 S
O93 Zn85 1.905 1_545 S
O93 C87 1.182 . S
O94 Zn85 1.898 . S
O94 C88 1.167 . S
O95 Zn86 2.120 . S
O95 C88 1.299 . S
O96 Zn84 1.898 . S
O96 C91 1.167 . S
O97 Zn86 2.120 . S
O97 C91 1.299 . S
O98 Zn86 2.114 . S
O98 C100 1.166 . S
O99 Zn84 1.905 . S
O99 C100 1.182 . S
C100 O98 1.166 . S
C100 O99 1.182 . S
O101 Zn86 2.080 . S
O101 C104 1.305 . S
O102 Zn85 1.920 . S
O102 C104 1.234 . S
C103 O89 1.305 . S
C103 O90 1.234 . S
C104 O101 1.305 . S
C104 O102 1.234 . S
Zn105 O111 1.920 . S
Zn105 O117 1.898 . S
Zn105 O120 1.905 . S
Zn106 O114 1.905 . S
Zn106 O115 1.898 . S
Zn106 O123 1.920 . S
Zn107 O110 2.080 . S
Zn107 O113 2.114 . S
Zn107 O116 2.120 . S
Zn107 O118 2.120 . S
Zn107 O119 2.114 . S
Zn107 O122 2.080 . S
C108 O113 1.166 . S
C108 O114 1.182 . S
C109 O115 1.167 . S
C109 O116 1.299 . S
O110 Zn107 2.080 . S
O110 C124 1.305 . S
O111 Zn105 1.920 . S
O111 C124 1.234 . S
C112 O117 1.167 . S
C112 O118 1.299 . S
O113 Zn107 2.114 . S
O113 C108 1.166 . S
O114 Zn106 1.905 . S
O114 C108 1.182 . S
O115 Zn106 1.898 . S
O115 C109 1.167 . S
O116 Zn107 2.120 . S
O116 C109 1.299 . S
O117 Zn105 1.898 . S
O117 C112 1.167 . S
O118 Zn107 2.120 . S
O118 C112 1.299 . S
O119 Zn107 2.114 . S
O119 C121 1.166 . S
O120 Zn105 1.905 . S
O120 C121 1.182 . S
C121 O119 1.166 . S
C121 O120 1.182 . S
O122 Zn107 2.080 . S
O122 C125 1.305 . S
O123 Zn106 1.920 . S
O123 C125 1.234 . S
C124 O110 1.305 . S
C124 O111 1.234 . S
C125 O122 1.305 . S
C125 O123 1.234 . S
Zn126 O132 1.920 . S
Zn126 O138 1.898 . S
Zn126 O141 1.905 . S
Zn127 O135 1.905 . S
Zn127 O136 1.898 . S
Zn127 O144 1.920 . S
Zn128 O131 2.080 . S
Zn128 O134 2.114 . S
Zn128 O137 2.120 . S
Zn128 O139 2.120 . S
Zn128 O140 2.114 . S
Zn128 O143 2.080 . S
C129 O134 1.166 . S
C129 O135 1.182 . S
C130 O136 1.167 . S
C130 O137 1.299 . S
O131 Zn128 2.080 . S
O131 C145 1.305 . S
O132 Zn126 1.920 . S
O132 C145 1.234 . S
C133 O138 1.167 . S
C133 O139 1.299 . S
O134 Zn128 2.114 . S
O134 C129 1.166 . S
O135 Zn127 1.905 . S
O135 C129 1.182 . S
O136 Zn127 1.898 . S
O136 C130 1.167 . S
O137 Zn128 2.120 . S
O137 C130 1.299 . S
O138 Zn126 1.898 . S
O138 C133 1.167 . S
O139 Zn128 2.120 . S
O139 C133 1.299 . S
O140 Zn128 2.114 . S
O140 C142 1.166 . S
O141 Zn126 1.905 . S
O141 C142 1.182 . S
C142 O140 1.166 . S
C142 O141 1.182 . S
O143 Zn128 2.080 . S
O143 C146 1.305 . S
O144 Zn127 1.920 . S
O144 C146 1.234 . S
C145 O131 1.305 . S
C145 O132 1.234 . S
C146 O143 1.305 . S
C146 O144 1.234 . S
Zn147 O153 1.920 . S
Zn147 O159 1.898 . S
Zn147 O162 1.905 1_655 S
Zn148 O156 1.905 . S
Zn148 O157 1.898 . S
Zn148 O165 1.920 . S
Zn149 O152 2.080 . S
Zn149 O155 2.114 . S
Zn149 O158 2.120 . S
Zn149 O160 2.120 . S
Zn149 O161 2.114 . S
Zn149 O164 2.080 . S
C150 O155 1.166 . S
C150 O156 1.182 . S
C151 O157 1.167 . S
C151 O158 1.299 . S
O152 Zn149 2.080 . S
O152 C166 1.305 . S
O153 Zn147 1.920 . S
O153 C166 1.234 . S
C154 O159 1.167 . S
C154 O160 1.299 . S
O155 Zn149 2.114 . S
O155 C150 1.166 . S
O156 Zn148 1.905 . S
O156 C150 1.182 . S
O157 Zn148 1.898 . S
O157 C151 1.167 . S
O158 Zn149 2.120 . S
O158 C151 1.299 . S
O159 Zn147 1.898 . S
O159 C154 1.167 . S
O160 Zn149 2.120 . S
O160 C154 1.299 . S
O161 Zn149 2.114 . S
O161 C163 1.138 1_655 S
O162 Zn147 1.905 1_455 S
O162 C163 1.196 . S
C163 O161 1.138 1_455 S
C163 O162 1.196 . S
O164 Zn149 2.080 . S
O164 C167 1.305 . S
O165 Zn148 1.920 . S
O165 C167 1.234 . S
C166 O152 1.305 . S
C166 O153 1.234 . S
C167 O164 1.305 . S
C167 O165 1.234 . S
Zn168 O174 1.920 . S
Zn168 O180 1.898 . S
Zn168 O183 1.905 . S
Zn169 O177 1.905 . S
Zn169 O178 1.898 . S
Zn169 O186 1.920 . S
Zn170 O173 2.080 . S
Zn170 O176 2.114 . S
Zn170 O179 2.120 . S
Zn170 O181 2.120 . S
Zn170 O182 2.114 . S
Zn170 O185 2.080 . S
C171 O176 1.166 . S
C171 O177 1.182 . S
C172 O178 1.167 . S
C172 O179 1.299 . S
O173 Zn170 2.080 . S
O173 C187 1.305 . S
O174 Zn168 1.920 . S
O174 C187 1.234 . S
C175 O180 1.167 . S
C175 O181 1.299 . S
O176 Zn170 2.114 . S
O176 C171 1.166 . S
O177 Zn169 1.905 . S
O177 C171 1.182 . S
O178 Zn169 1.898 . S
O178 C172 1.167 . S
O179 Zn170 2.120 . S
O179 C172 1.299 . S
O180 Zn168 1.898 . S
O180 C175 1.167 . S
O181 Zn170 2.120 . S
O181 C175 1.299 . S
O182 Zn170 2.114 . S
O182 C184 1.166 . S
O183 Zn168 1.905 . S
O183 C184 1.182 . S
C184 O182 1.166 . S
C184 O183 1.182 . S
O185 Zn170 2.080 . S
O185 C188 1.305 . S
O186 Zn169 1.920 . S
O186 C188 1.234 . S
C187 O173 1.305 . S
C187 O174 1.234 . S
C188 O185 1.305 . S
C188 O186 1.234 . S
H189 C207 0.951 . S
H190 C209 0.951 . S
H191 C211 0.950 . S
H192 C212 0.950 . S
H193 C214 0.950 . S
H194 C217 0.950 . S
H195 C218 0.950 . S
H196 C220 0.950 . S
H197 C221 0.950 . S
H198 C222 0.951 . S
H199 C224 0.951 . S
H200 C226 0.970 . S
H201 C227 0.950 1_556 S
H202 C229 0.950 . S
H203 C232 0.950 . S
H204 C233 0.950 . S
H205 C235 0.950 . S
H206 C236 0.950 . S
C207 H189 0.951 . S
C207 C208 1.366 . S
C207 C209 1.388 . S
C208 C207 1.366 . S
C208 C212 1.385 1_556 S
C209 H190 0.951 . S
C209 C207 1.388 . S
C209 C210 1.366 1_556 S
C210 C209 1.366 1_554 S
C210 C211 1.414 . S
C210 C213 1.499 . S
C211 H191 0.950 . S
C211 C210 1.414 . S
C211 C212 1.374 . S
C212 H192 0.950 . S
C212 C208 1.385 1_554 S
C212 C211 1.374 . S
C213 C210 1.499 . S
C213 C214 1.373 1_554 S
C213 C215 1.389 . S
C214 H193 0.950 . S
C214 C213 1.373 1_556 S
C214 C230 1.377 . S
C215 C213 1.389 . S
C215 C216 1.524 . S
C215 C229 1.377 . S
C216 C215 1.524 . S
C216 C217 1.397 . S
C216 C221 1.363 . S
C217 H194 0.950 . S
C217 C216 1.397 . S
C217 C218 1.334 . S
C218 H195 0.950 . S
C218 C217 1.334 . S
C218 C219 1.287 . S
C219 C218 1.287 . S
C219 C220 1.524 . S
C219 H238 0.913 . S
C220 H196 0.950 . S
C220 C219 1.524 . S
C220 C221 1.415 . S
C221 H197 0.950 . S
C221 C216 1.363 . S
C221 C220 1.415 . S
C222 H198 0.951 . S
C222 C223 1.366 . S
C222 C224 1.388 . S
C223 C222 1.366 . S
C223 C227 1.385 . S
C224 H199 0.951 . S
C224 C222 1.388 . S
C224 C225 1.366 . S
C225 C224 1.366 . S
C225 C226 1.401 1_554 S
C225 C228 1.499 . S
C226 H200 0.970 . S
C226 C225 1.401 1_556 S
C226 C227 1.370 1_556 S
C227 H201 0.950 1_554 S
C227 C223 1.385 . S
C227 C226 1.370 1_554 S
C228 C225 1.499 . S
C228 C229 1.373 . S
C228 C230 1.389 1_554 S
C229 H202 0.950 . S
C229 C215 1.377 . S
C229 C228 1.373 . S
C230 C214 1.377 . S
C230 C228 1.389 1_556 S
C230 C231 1.524 . S
C231 C230 1.524 . S
C231 C232 1.397 . S
C231 C236 1.363 . S
C232 H203 0.950 . S
C232 C231 1.397 . S
C232 C233 1.334 . S
C233 H204 0.950 . S
C233 C232 1.334 . S
C233 C234 1.287 . S
C234 C233 1.287 . S
C234 C235 1.524 . S
C234 H237 0.999 . S
C235 H205 0.950 . S
C235 C234 1.524 . S
C235 C236 1.415 . S
C236 H206 0.950 . S
C236 C231 1.363 . S
C236 C235 1.415 . S
H237 C234 0.999 . S
H238 C219 0.913 . S
H239 C257 0.951 . S
H240 C259 0.951 . S
H241 C261 0.950 . S
H242 C262 0.950 . S
H243 C264 0.950 . S
H244 C267 0.950 . S
H245 C268 0.950 . S
H246 C270 0.950 . S
H247 C271 0.950 . S
H248 C272 0.951 . S
H249 C274 0.951 . S
H250 C276 0.950 . S
H251 C277 0.950 . S
H252 C279 0.950 . S
H253 C282 0.950 . S
H254 C283 0.950 . S
H255 C285 0.950 . S
H256 C286 0.950 . S
C257 H239 0.951 . S
C257 C258 1.366 . S
C257 C259 1.388 . S
C258 C257 1.366 . S
C258 C262 1.385 . S
C259 H240 0.951 . S
C259 C257 1.388 . S
C259 C260 1.366 . S
C260 C259 1.366 . S
C260 C261 1.414 . S
C260 C263 1.500 . S
C261 H241 0.950 . S
C261 C260 1.414 . S
C261 C262 1.374 . S
C262 H242 0.950 . S
C262 C258 1.385 . S
C262 C261 1.374 . S
C263 C260 1.500 . S
C263 C264 1.361 1_556 S
C263 C265 1.399 . S
C264 H243 0.950 . S
C264 C263 1.361 1_554 S
C264 C280 1.377 . S
C265 C263 1.399 . S
C265 C266 1.524 . S
C265 C279 1.377 . S
C266 C265 1.524 . S
C266 C267 1.397 . S
C266 C271 1.363 . S
C267 H244 0.950 . S
C267 C266 1.397 . S
C267 C268 1.334 . S
C268 H245 0.950 . S
C268 C267 1.334 . S
C268 C269 1.287 . S
C269 C268 1.287 . S
C269 C270 1.524 . S
C269 H288 0.913 . S
C270 H246 0.950 . S
C270 C269 1.524 . S
C270 C271 1.415 . S
C271 H247 0.950 . S
C271 C266 1.363 . S
C271 C270 1.415 . S
C272 H248 0.951 . S
C272 C273 1.366 . S
C272 C274 1.388 . S
C273 C272 1.366 . S
C273 C277 1.385 . S
C274 H249 0.951 . S
C274 C272 1.388 . S
C274 C275 1.366 . S
C275 C274 1.366 . S
C275 C276 1.414 . S
C275 C278 1.499 . S
C276 H250 0.950 . S
C276 C275 1.414 . S
C276 C277 1.374 . S
C277 H251 0.950 . S
C277 C273 1.385 . S
C277 C276 1.374 . S
C278 C275 1.499 . S
C278 C279 1.373 1_554 S
C278 C280 1.389 . S
C279 H252 0.950 . S
C279 C265 1.377 . S
C279 C278 1.373 1_556 S
C280 C264 1.377 . S
C280 C278 1.389 . S
C280 C281 1.524 . S
C281 C280 1.524 . S
C281 C282 1.397 . S
C281 C286 1.363 . S
C282 H253 0.950 . S
C282 C281 1.397 . S
C282 C283 1.334 . S
C283 H254 0.950 . S
C283 C282 1.334 . S
C283 C284 1.287 . S
C284 C283 1.287 . S
C284 C285 1.524 . S
C284 H287 0.999 . S
C285 H255 0.950 . S
C285 C284 1.524 . S
C285 C286 1.415 . S
C286 H256 0.950 . S
C286 C281 1.363 . S
C286 C285 1.415 . S
H287 C284 0.999 . S
H288 C269 0.913 . S
H289 C307 0.949 1_556 S
H290 C309 0.939 1_556 S
H291 C311 0.950 . S
H292 C312 0.950 . S
H293 C314 0.950 . S
H294 C317 0.950 . S
H295 C318 0.950 . S
H296 C320 0.950 . S
H297 C321 0.950 . S
H298 C322 0.951 . S
H299 C324 0.951 . S
H300 C326 0.950 . S
H301 C327 0.950 . S
H302 C329 0.950 . S
H303 C332 0.950 . S
H304 C333 0.950 . S
H305 C335 0.950 . S
H306 C336 0.950 . S
C307 H289 0.949 1_554 S
C307 C308 1.366 . S
C307 C309 1.393 . S
C308 C307 1.366 . S
C308 C312 1.385 . S
C309 H290 0.939 1_554 S
C309 C307 1.393 . S
C309 C310 1.375 . S
C310 C309 1.375 . S
C310 C311 1.414 . S
C310 C313 1.499 . S
C311 H291 0.950 . S
C311 C310 1.414 . S
C311 C312 1.374 . S
C312 H292 0.950 . S
C312 C308 1.385 . S
C312 C311 1.374 . S
C313 C310 1.499 . S
C313 C314 1.373 . S
C313 C315 1.389 1_554 S
C314 H293 0.950 . S
C314 C313 1.373 . S
C314 C330 1.377 . S
C315 C313 1.389 1_556 S
C315 C316 1.524 . S
C315 C329 1.377 . S
C316 C315 1.524 . S
C316 C317 1.397 . S
C316 C321 1.363 . S
C317 H294 0.950 . S
C317 C316 1.397 . S
C317 C318 1.334 . S
C318 H295 0.950 . S
C318 C317 1.334 . S
C318 C319 1.287 . S
C319 C318 1.287 . S
C319 C320 1.524 . S
C319 H338 0.913 . S
C320 H296 0.950 . S
C320 C319 1.524 . S
C320 C321 1.415 . S
C321 H297 0.950 . S
C321 C316 1.363 . S
C321 C320 1.415 . S
C322 H298 0.951 . S
C322 C323 1.366 1_554 S
C322 C324 1.388 . S
C323 C322 1.366 1_556 S
C323 C327 1.385 . S
C324 H299 0.951 . S
C324 C322 1.388 . S
C324 C325 1.365 . S
C325 C324 1.365 . S
C325 C326 1.414 1_554 S
C325 C328 1.499 . S
C326 H300 0.950 . S
C326 C325 1.414 1_556 S
C326 C327 1.374 . S
C327 H301 0.950 . S
C327 C323 1.385 . S
C327 C326 1.374 . S
C328 C325 1.499 . S
C328 C329 1.373 1_554 S
C328 C330 1.389 . S
C329 H302 0.950 . S
C329 C315 1.377 . S
C329 C328 1.373 1_556 S
C330 C314 1.377 . S
C330 C328 1.389 . S
C330 C331 1.524 . S
C331 C330 1.524 . S
C331 C332 1.397 . S
C331 C336 1.363 . S
C332 H303 0.950 . S
C332 C331 1.397 . S
C332 C333 1.334 . S
C333 H304 0.950 . S
C333 C332 1.334 . S
C333 C334 1.287 . S
C334 C333 1.287 . S
C334 C335 1.524 . S
C334 H337 0.999 . S
C335 H305 0.950 . S
C335 C334 1.524 . S
C335 C336 1.415 . S
C336 H306 0.950 . S
C336 C331 1.363 . S
C336 C335 1.415 . S
H337 C334 0.999 . S
H338 C319 0.913 . S
H339 C357 0.951 . S
H340 C359 0.951 . S
H341 C361 0.950 . S
H342 C362 0.950 . S
H343 C364 0.950 . S
H344 C367 0.950 . S
H345 C368 0.950 1_554 S
H346 C370 0.950 . S
H347 C371 0.950 . S
H348 C372 0.951 . S
H349 C374 0.951 . S
H350 C376 0.950 . S
H351 C377 0.950 . S
H352 C379 0.959 . S
H353 C382 0.950 1_556 S
H354 C383 0.950 . S
H355 C385 0.950 . S
H356 C386 0.950 . S
C357 H339 0.951 . S
C357 C358 1.338 1_556 S
C357 C359 1.388 . S
C358 C357 1.338 1_554 S
C358 C362 1.416 . S
C359 H340 0.951 . S
C359 C357 1.388 . S
C359 C360 1.366 1_556 S
C360 C359 1.366 1_554 S
C360 C361 1.414 . S
C360 C363 1.499 . S
C361 H341 0.950 . S
C361 C360 1.414 . S
C361 C362 1.374 . S
C362 H342 0.950 . S
C362 C358 1.416 . S
C362 C361 1.374 . S
C363 C360 1.499 . S
C363 C364 1.373 . S
C363 C365 1.389 1_554 S
C364 H343 0.950 . S
C364 C363 1.373 . S
C364 C380 1.377 . S
C365 C363 1.389 1_556 S
C365 C366 1.524 . S
C365 C379 1.377 . S
C366 C365 1.524 . S
C366 C367 1.397 1_556 S
C366 C371 1.363 . S
C367 H344 0.950 . S
C367 C366 1.397 1_554 S
C367 C368 1.334 1_554 S
C368 H345 0.950 1_556 S
C368 C367 1.334 1_556 S
C368 C369 1.287 . S
C369 C368 1.287 . S
C369 C370 1.524 . S
C369 H388 0.913 . S
C370 H346 0.950 . S
C370 C369 1.524 . S
C370 C371 1.415 . S
C371 H347 0.950 . S
C371 C366 1.363 . S
C371 C370 1.415 . S
C372 H348 0.951 . S
C372 C373 1.366 . S
C372 C374 1.388 . S
C373 C372 1.366 . S
C373 C377 1.385 1_554 S
C374 H349 0.951 . S
C374 C372 1.388 . S
C374 C375 1.366 . S
C375 C374 1.366 . S
C375 C376 1.414 1_554 S
C375 C378 1.499 . S
C376 H350 0.950 . S
C376 C375 1.414 1_556 S
C376 C377 1.374 . S
C377 H351 0.950 . S
C377 C373 1.385 1_556 S
C377 C376 1.374 . S
C378 C375 1.499 . S
C378 C379 1.364 1_554 S
C378 C380 1.389 . S
C379 H352 0.959 . S
C379 C365 1.377 . S
C379 C378 1.364 1_556 S
C380 C364 1.377 . S
C380 C378 1.389 . S
C380 C381 1.524 . S
C381 C380 1.524 . S
C381 C382 1.397 . S
C381 C386 1.363 . S
C382 H353 0.950 1_554 S
C382 C381 1.397 . S
C382 C383 1.334 . S
C383 H354 0.950 . S
C383 C382 1.334 . S
C383 C384 1.287 . S
C384 C383 1.287 . S
C384 C385 1.524 . S
C384 H387 0.999 . S
C385 H355 0.950 . S
C385 C384 1.524 . S
C385 C386 1.415 . S
C386 H356 0.950 . S
C386 C381 1.363 . S
C386 C385 1.415 . S
H387 C384 0.999 . S
H388 C369 0.913 . S
H389 C407 0.951 . S
H390 C409 0.951 . S
H391 C411 0.950 . S
H392 C412 0.975 . S
H393 C414 0.950 . S
H394 C417 0.950 . S
H395 C418 0.950 . S
H396 C420 0.950 . S
H397 C421 0.950 . S
H398 C422 0.951 . S
H399 C424 0.951 . S
H400 C426 0.950 . S
H401 C427 0.950 . S
H402 C429 0.950 . S
H403 C432 0.950 . S
H404 C433 0.950 . S
H405 C435 0.950 . S
H406 C436 0.950 . S
C407 H389 0.951 . S
C407 C408 1.366 . S
C407 C409 1.388 . S
C408 C407 1.366 . S
C408 C412 1.356 1_554 S
C409 H390 0.951 . S
C409 C407 1.388 . S
C409 C410 1.366 . S
C410 C409 1.366 . S
C410 C411 1.414 1_554 S
C410 C413 1.499 . S
C411 H391 0.950 . S
C411 C410 1.414 1_556 S
C411 C412 1.378 . S
C412 H392 0.975 . S
C412 C408 1.356 1_556 S
C412 C411 1.378 . S
C413 C410 1.499 . S
C413 C414 1.373 . S
C413 C415 1.389 . S
C414 H393 0.950 . S
C414 C413 1.373 . S
C414 C430 1.377 . S
C415 C413 1.389 . S
C415 C416 1.524 . S
C415 C429 1.377 . S
C416 C415 1.524 . S
C416 C417 1.397 1_554 S
C416 C421 1.363 . S
C417 H394 0.950 . S
C417 C416 1.397 1_556 S
C417 C418 1.334 . S
C418 H395 0.950 . S
C418 C417 1.334 . S
C418 C419 1.287 . S
C419 C418 1.287 . S
C419 C420 1.524 1_556 S
C419 H438 0.913 . S
C420 H396 0.950 . S
C420 C419 1.524 1_554 S
C420 C421 1.415 . S
C421 H397 0.950 . S
C421 C416 1.363 . S
C421 C420 1.415 . S
C422 H398 0.951 . S
C422 C423 1.345 1_556 S
C422 C424 1.388 . S
C423 C422 1.345 1_554 S
C423 C427 1.409 . S
C424 H399 0.951 . S
C424 C422 1.388 . S
C424 C425 1.366 1_556 S
C425 C424 1.366 1_554 S
C425 C426 1.414 . S
C425 C428 1.499 . S
C426 H400 0.950 . S
C426 C425 1.414 . S
C426 C427 1.374 . S
C427 H401 0.950 . S
C427 C423 1.409 . S
C427 C426 1.374 . S
C428 C425 1.499 . S
C428 C429 1.373 . S
C428 C430 1.389 . S
C429 H402 0.950 . S
C429 C415 1.377 . S
C429 C428 1.373 . S
C430 C414 1.377 . S
C430 C428 1.389 . S
C430 C431 1.524 . S
C431 C430 1.524 . S
C431 C432 1.397 . S
C431 C436 1.363 1_554 S
C432 H403 0.950 . S
C432 C431 1.397 . S
C432 C433 1.334 . S
C433 H404 0.950 . S
C433 C432 1.334 . S
C433 C434 1.287 . S
C434 C433 1.287 . S
C434 C435 1.524 1_554 S
C434 H437 0.999 . S
C435 H405 0.950 . S
C435 C434 1.524 1_556 S
C435 C436 1.415 . S
C436 H406 0.950 . S
C436 C431 1.363 1_556 S
C436 C435 1.415 . S
H437 C434 0.999 . S
H438 C419 0.913 . S
H439 C457 0.951 . S
H440 C459 0.951 . S
H441 C461 0.950 . S
H442 C462 0.950 . S
H443 C464 0.950 . S
H444 C467 0.950 . S
H445 C468 0.950 . S
H446 C470 0.950 . S
H447 C471 0.950 . S
H448 C472 0.958 . S
H449 C474 0.949 1_556 S
H450 C476 0.950 . S
H451 C477 0.950 . S
H452 C479 0.950 . S
H453 C482 0.950 . S
H454 C483 0.950 . S
H455 C485 0.950 . S
H456 C486 0.950 . S
C457 H439 0.951 . S
C457 C458 1.366 . S
C457 C459 1.388 . S
C458 C457 1.366 . S
C458 C462 1.385 . S
C459 H440 0.951 . S
C459 C457 1.388 . S
C459 C460 1.366 . S
C460 C459 1.366 . S
C460 C461 1.414 . S
C460 C463 1.499 . S
C461 H441 0.950 . S
C461 C460 1.414 . S
C461 C462 1.374 . S
C462 H442 0.950 . S
C462 C458 1.385 . S
C462 C461 1.374 . S
C463 C460 1.499 . S
C463 C464 1.373 1_554 S
C463 C465 1.389 . S
C464 H443 0.950 . S
C464 C463 1.373 1_556 S
C464 C480 1.377 . S
C465 C463 1.389 . S
C465 C466 1.524 . S
C465 C479 1.377 . S
C466 C465 1.524 . S
C466 C467 1.397 . S
C466 C471 1.363 . S
C467 H444 0.950 . S
C467 C466 1.397 . S
C467 C468 1.334 . S
C468 H445 0.950 . S
C468 C467 1.334 . S
C468 C469 1.287 . S
C469 C468 1.287 . S
C469 C470 1.524 . S
C469 H488 0.913 . S
C470 H446 0.950 . S
C470 C469 1.524 . S
C470 C471 1.415 . S
C471 H447 0.950 . S
C471 C466 1.363 . S
C471 C470 1.415 . S
C472 H448 0.958 . S
C472 C473 1.362 1_556 S
C472 C474 1.386 1_556 S
C473 C472 1.362 1_554 S
C473 C477 1.390 . S
C474 H449 0.949 1_554 S
C474 C472 1.386 1_554 S
C474 C475 1.368 . S
C475 C474 1.368 . S
C475 C476 1.414 . S
C475 C478 1.499 . S
C476 H450 0.950 . S
C476 C475 1.414 . S
C476 C477 1.374 . S
C477 H451 0.950 . S
C477 C473 1.390 . S
C477 C476 1.374 . S
C478 C475 1.499 . S
C478 C479 1.373 . S
C478 C480 1.389 1_554 S
C479 H452 0.950 . S
C479 C465 1.377 . S
C479 C478 1.373 . S
C480 C464 1.377 . S
C480 C478 1.389 1_556 S
C480 C481 1.524 . S
C481 C480 1.524 . S
C481 C482 1.397 . S
C481 C486 1.363 . S
C482 H453 0.950 . S
C482 C481 1.397 . S
C482 C483 1.334 . S
C483 H454 0.950 . S
C483 C482 1.334 . S
C483 C484 1.287 . S
C484 C483 1.287 . S
C484 C485 1.524 . S
C484 H487 0.999 . S
C485 H455 0.950 . S
C485 C484 1.524 . S
C485 C486 1.415 . S
C486 H456 0.950 . S
C486 C481 1.363 . S
C486 C485 1.415 . S
H487 C484 0.999 . S
H488 C469 0.913 . S
H489 C507 0.951 . S
H490 C509 0.951 . S
H491 C511 0.950 . S
H492 C512 0.950 . S
H493 C514 0.950 . S
H494 C517 0.950 . S
H495 C518 0.950 . S
H496 C520 0.950 . S
H497 C521 0.950 . S
H498 C522 0.951 . S
H499 C524 0.951 . S
H500 C526 0.950 . S
H501 C527 0.950 . S
H502 C529 0.950 . S
H503 C532 0.950 . S
H504 C533 0.950 . S
H505 C535 0.950 . S
H506 C536 0.950 . S
C507 H489 0.951 . S
C507 C508 1.366 . S
C507 C509 1.388 . S
C508 C507 1.366 . S
C508 C512 1.385 . S
C509 H490 0.951 . S
C509 C507 1.388 . S
C509 C510 1.366 . S
C510 C509 1.366 . S
C510 C511 1.414 . S
C510 C513 1.499 . S
C511 H491 0.950 . S
C511 C510 1.414 . S
C511 C512 1.374 . S
C512 H492 0.950 . S
C512 C508 1.385 . S
C512 C511 1.374 . S
C513 C510 1.499 . S
C513 C514 1.373 . S
C513 C515 1.389 . S
C514 H493 0.950 . S
C514 C513 1.373 . S
C514 C530 1.377 . S
C515 C513 1.389 . S
C515 C516 1.524 . S
C515 C529 1.377 . S
C516 C515 1.524 . S
C516 C517 1.397 . S
C516 C521 1.363 . S
C517 H494 0.950 . S
C517 C516 1.397 . S
C517 C518 1.334 . S
C518 H495 0.950 . S
C518 C517 1.334 . S
C518 C519 1.287 . S
C519 C518 1.287 . S
C519 C520 1.524 . S
C519 H538 0.913 . S
C520 H496 0.950 . S
C520 C519 1.524 . S
C520 C521 1.415 . S
C521 H497 0.950 . S
C521 C516 1.363 . S
C521 C520 1.415 . S
C522 H498 0.951 . S
C522 C523 1.366 . S
C522 C524 1.388 . S
C523 C522 1.366 . S
C523 C527 1.385 . S
C524 H499 0.951 . S
C524 C522 1.388 . S
C524 C525 1.366 . S
C525 C524 1.366 . S
C525 C526 1.414 . S
C525 C528 1.499 1_455 S
C526 H500 0.950 . S
C526 C525 1.414 . S
C526 C527 1.374 . S
C527 H501 0.950 . S
C527 C523 1.385 . S
C527 C526 1.374 . S
C528 C525 1.499 1_655 S
C528 C529 1.373 . S
C528 C530 1.389 . S
C529 H502 0.950 . S
C529 C515 1.377 . S
C529 C528 1.373 . S
C530 C514 1.377 . S
C530 C528 1.389 . S
C530 C531 1.524 . S
C531 C530 1.524 . S
C531 C532 1.397 1_655 S
C531 C536 1.363 . S
C532 H503 0.950 . S
C532 C531 1.397 1_455 S
C532 C533 1.334 . S
C533 H504 0.950 . S
C533 C532 1.334 . S
C533 C534 1.287 . S
C534 C533 1.287 . S
C534 C535 1.524 1_455 S
C534 H537 0.999 . S
C535 H505 0.950 . S
C535 C534 1.524 1_655 S
C535 C536 1.415 . S
C536 H506 0.950 . S
C536 C531 1.363 . S
C536 C535 1.415 . S
H537 C534 0.999 . S
H538 C519 0.913 . S
H539 C557 0.951 . S
H540 C559 0.951 . S
H541 C561 0.950 . S
H542 C562 0.950 . S
H543 C564 0.950 . S
H544 C567 0.950 . S
H545 C568 0.950 . S
H546 C570 0.950 . S
H547 C571 0.950 . S
H548 C572 0.951 1_565 S
H549 C574 0.951 . S
H550 C576 0.950 . S
H551 C577 0.950 . S
H552 C579 0.950 . S
H553 C582 0.950 . S
H554 C583 0.950 . S
H555 C585 0.950 . S
H556 C586 0.950 . S
C557 H539 0.951 . S
C557 C558 1.366 . S
C557 C559 1.388 . S
C558 C557 1.366 . S
C558 C562 1.385 . S
C559 H540 0.951 . S
C559 C557 1.388 . S
C559 C560 1.366 . S
C560 C559 1.366 . S
C560 C561 1.414 . S
C560 C563 1.499 . S
C561 H541 0.950 . S
C561 C560 1.414 . S
C561 C562 1.374 . S
C562 H542 0.950 . S
C562 C558 1.385 . S
C562 C561 1.374 . S
C563 C560 1.499 . S
C563 C564 1.373 . S
C563 C565 1.389 . S
C564 H543 0.950 . S
C564 C563 1.373 . S
C564 C580 1.377 . S
C565 C563 1.389 . S
C565 C566 1.524 . S
C565 C579 1.377 . S
C566 C565 1.524 . S
C566 C567 1.397 . S
C566 C571 1.363 . S
C567 H544 0.950 . S
C567 C566 1.397 . S
C567 C568 1.334 . S
C568 H545 0.950 . S
C568 C567 1.334 . S
C568 C569 1.287 . S
C569 C568 1.287 . S
C569 C570 1.524 . S
C569 H588 0.913 . S
C570 H546 0.950 . S
C570 C569 1.524 . S
C570 C571 1.415 . S
C571 H547 0.950 . S
C571 C566 1.363 . S
C571 C570 1.415 . S
C572 H548 0.951 1_545 S
C572 C573 1.366 . S
C572 C574 1.388 . S
C573 C572 1.366 . S
C573 C577 1.385 . S
C574 H549 0.951 . S
C574 C572 1.388 . S
C574 C575 1.366 . S
C575 C574 1.366 . S
C575 C576 1.414 . S
C575 C578 1.499 . S
C576 H550 0.950 . S
C576 C575 1.414 . S
C576 C577 1.374 . S
C577 H551 0.950 . S
C577 C573 1.385 . S
C577 C576 1.374 . S
C578 C575 1.499 . S
C578 C579 1.373 . S
C578 C580 1.389 . S
C579 H552 0.950 . S
C579 C565 1.377 . S
C579 C578 1.373 . S
C580 C564 1.377 . S
C580 C578 1.389 . S
C580 C581 1.524 . S
C581 C580 1.524 . S
C581 C582 1.397 . S
C581 C586 1.363 . S
C582 H553 0.950 . S
C582 C581 1.397 . S
C582 C583 1.334 . S
C583 H554 0.950 . S
C583 C582 1.334 . S
C583 C584 1.287 . S
C584 C583 1.287 . S
C584 C585 1.524 . S
C584 H587 0.999 . S
C585 H555 0.950 . S
C585 C584 1.524 . S
C585 C586 1.415 . S
C586 H556 0.950 . S
C586 C581 1.363 . S
C586 C585 1.415 . S
H587 C584 0.999 . S
H588 C569 0.913 . S
H589 C607 0.976 . S
H590 C609 0.951 . S
H591 C611 0.950 . S
H592 C612 0.950 . S
H593 C614 0.950 . S
H594 C617 0.950 . S
H595 C618 0.950 . S
H596 C620 0.931 1_455 S
H597 C621 0.950 . S
H598 C622 0.951 . S
H599 C624 0.951 . S
H600 C626 0.950 . S
H601 C627 0.950 . S
H602 C629 0.950 . S
H603 C632 0.934 1_565 S
H604 C633 0.950 . S
H605 C635 0.950 . S
H606 C636 0.950 . S
C607 H589 0.976 . S
C607 C608 1.347 1_455 S
C607 C609 1.382 1_455 S
C608 C607 1.347 1_655 S
C608 C612 1.385 . S
C609 H590 0.951 . S
C609 C607 1.382 1_655 S
C609 C610 1.366 . S
C610 C609 1.366 . S
C610 C611 1.414 . S
C610 C613 1.499 . S
C611 H591 0.950 . S
C611 C610 1.414 . S
C611 C612 1.374 . S
C612 H592 0.950 . S
C612 C608 1.385 . S
C612 C611 1.374 . S
C613 C610 1.499 . S
C613 C614 1.373 . S
C613 C615 1.389 . S
C614 H593 0.950 . S
C614 C613 1.373 . S
C614 C630 1.377 . S
C615 C613 1.389 . S
C615 C616 1.524 . S
C615 C629 1.377 . S
C616 C615 1.524 . S
C616 C617 1.397 . S
C616 C621 1.363 . S
C617 H594 0.950 . S
C617 C616 1.397 . S
C617 C618 1.334 . S
C618 H595 0.950 . S
C618 C617 1.334 . S
C618 C619 1.287 1_655 S
C619 C618 1.287 1_455 S
C619 C620 1.531 1_455 S
C619 H638 0.913 . S
C620 H596 0.931 1_655 S
C620 C619 1.531 1_655 S
C620 C621 1.429 . S
C621 H597 0.950 . S
C621 C616 1.363 . S
C621 C620 1.429 . S
C622 H598 0.951 . S
C622 C623 1.366 . S
C622 C624 1.388 . S
C623 C622 1.366 . S
C623 C627 1.385 . S
C624 H599 0.951 . S
C624 C622 1.388 . S
C624 C625 1.366 . S
C625 C624 1.366 . S
C625 C626 1.414 . S
C625 C628 1.499 1_565 S
C626 H600 0.950 . S
C626 C625 1.414 . S
C626 C627 1.374 . S
C627 H601 0.950 . S
C627 C623 1.385 . S
C627 C626 1.374 . S
C628 C625 1.499 1_545 S
C628 C629 1.373 . S
C628 C630 1.389 . S
C629 H602 0.950 . S
C629 C615 1.377 . S
C629 C628 1.373 . S
C630 C614 1.377 . S
C630 C628 1.389 . S
C630 C631 1.524 . S
C631 C630 1.524 . S
C631 C632 1.412 . S
C631 C636 1.363 . S
C632 H603 0.934 1_545 S
C632 C631 1.412 . S
C632 C633 1.335 1_545 S
C633 H604 0.950 . S
C633 C632 1.335 1_565 S
C633 C634 1.287 1_565 S
C634 C633 1.287 1_545 S
C634 C635 1.524 . S
C634 H637 0.999 1_545 S
C635 H605 0.950 . S
C635 C634 1.524 . S
C635 C636 1.415 . S
C636 H606 0.950 . S
C636 C631 1.363 . S
C636 C635 1.415 . S
H637 C634 0.999 1_565 S
H638 C619 0.913 . S
H639 C657 0.951 . S
H640 C659 0.951 . S
H641 C661 0.950 . S
H642 C662 0.950 . S
H643 C664 0.950 . S
H644 C667 0.950 . S
H645 C668 0.950 . S
H646 C670 0.950 1_655 S
H647 C671 0.950 . S
H648 C672 0.951 . S
H649 C674 0.951 . S
H650 C676 0.950 . S
H651 C677 0.950 . S
H652 C679 0.950 . S
H653 C682 0.950 . S
H654 C683 0.950 . S
H655 C685 0.950 . S
H656 C686 0.950 . S
C657 H639 0.951 . S
C657 C658 1.366 . S
C657 C659 1.388 . S
C658 C657 1.366 . S
C658 C662 1.385 . S
C659 H640 0.951 . S
C659 C657 1.388 . S
C659 C660 1.366 . S
C660 C659 1.366 . S
C660 C661 1.414 . S
C660 C663 1.499 . S
C661 H641 0.950 . S
C661 C660 1.414 . S
C661 C662 1.374 . S
C662 H642 0.950 . S
C662 C658 1.385 . S
C662 C661 1.374 . S
C663 C660 1.499 . S
C663 C664 1.373 . S
C663 C665 1.389 . S
C664 H643 0.950 . S
C664 C663 1.373 . S
C664 C680 1.377 . S
C665 C663 1.389 . S
C665 C666 1.524 . S
C665 C679 1.377 . S
C666 C665 1.524 . S
C666 C667 1.397 . S
C666 C671 1.363 . S
C667 H644 0.950 . S
C667 C666 1.397 . S
C667 C668 1.334 . S
C668 H645 0.950 . S
C668 C667 1.334 . S
C668 C669 1.287 . S
C669 C668 1.287 . S
C669 C670 1.524 . S
C669 H688 0.913 . S
C670 H646 0.950 1_455 S
C670 C669 1.524 . S
C670 C671 1.415 . S
C671 H647 0.950 . S
C671 C666 1.363 . S
C671 C670 1.415 . S
C672 H648 0.951 . S
C672 C673 1.366 . S
C672 C674 1.388 . S
C673 C672 1.366 . S
C673 C677 1.385 . S
C674 H649 0.951 . S
C674 C672 1.388 . S
C674 C675 1.366 . S
C675 C674 1.366 . S
C675 C676 1.414 . S
C675 C678 1.499 . S
C676 H650 0.950 . S
C676 C675 1.414 . S
C676 C677 1.374 . S
C677 H651 0.950 . S
C677 C673 1.385 . S
C677 C676 1.374 . S
C678 C675 1.499 . S
C678 C679 1.373 . S
C678 C680 1.389 . S
C679 H652 0.950 . S
C679 C665 1.377 . S
C679 C678 1.373 . S
C680 C664 1.377 . S
C680 C678 1.389 . S
C680 C681 1.524 . S
C681 C680 1.524 . S
C681 C682 1.397 . S
C681 C686 1.363 . S
C682 H653 0.950 . S
C682 C681 1.397 . S
C682 C683 1.334 . S
C683 H654 0.950 . S
C683 C682 1.334 . S
C683 C684 1.287 . S
C684 C683 1.287 . S
C684 C685 1.524 . S
C684 H687 0.999 . S
C685 H655 0.950 . S
C685 C684 1.524 . S
C685 C686 1.415 . S
C686 H656 0.950 . S
C686 C681 1.363 . S
C686 C685 1.415 . S
H687 C684 0.999 . S
H688 C669 0.913 . S
H689 C707 0.951 . S
H690 C709 0.951 . S
H691 C711 0.950 . S
H692 C712 0.950 . S
H693 C714 0.950 . S
H694 C717 0.950 . S
H695 C718 0.950 . S
H696 C720 0.950 . S
H697 C721 0.950 . S
H698 C722 0.951 . S
H699 C724 0.951 . S
H700 C726 0.950 . S
H701 C727 0.950 . S
H702 C729 0.950 . S
H703 C732 0.950 . S
H704 C733 0.950 . S
H705 C735 0.950 . S
H706 C736 0.950 . S
C707 H689 0.951 . S
C707 C708 1.366 . S
C707 C709 1.388 . S
C708 C707 1.366 . S
C708 C712 1.385 . S
C709 H690 0.951 . S
C709 C707 1.388 . S
C709 C710 1.366 . S
C710 C709 1.366 . S
C710 C711 1.414 . S
C710 C713 1.499 . S
C711 H691 0.950 . S
C711 C710 1.414 . S
C711 C712 1.374 . S
C712 H692 0.950 . S
C712 C708 1.385 . S
C712 C711 1.374 . S
C713 C710 1.499 . S
C713 C714 1.373 . S
C713 C715 1.389 . S
C714 H693 0.950 . S
C714 C713 1.373 . S
C714 C730 1.377 . S
C715 C713 1.389 . S
C715 C716 1.524 . S
C715 C729 1.377 . S
C716 C715 1.524 . S
C716 C717 1.397 . S
C716 C721 1.363 . S
C717 H694 0.950 . S
C717 C716 1.397 . S
C717 C718 1.334 . S
C718 H695 0.950 . S
C718 C717 1.334 . S
C718 C719 1.287 . S
C719 C718 1.287 . S
C719 C720 1.524 . S
C719 H738 0.913 . S
C720 H696 0.950 . S
C720 C719 1.524 . S
C720 C721 1.415 . S
C721 H697 0.950 . S
C721 C716 1.363 . S
C721 C720 1.415 . S
C722 H698 0.951 . S
C722 C723 1.366 . S
C722 C724 1.388 . S
C723 C722 1.366 . S
C723 C727 1.385 . S
C724 H699 0.951 . S
C724 C722 1.388 . S
C724 C725 1.366 . S
C725 C724 1.366 . S
C725 C726 1.414 . S
C725 C728 1.499 . S
C726 H700 0.950 . S
C726 C725 1.414 . S
C726 C727 1.374 . S
C727 H701 0.950 . S
C727 C723 1.385 . S
C727 C726 1.374 . S
C728 C725 1.499 . S
C728 C729 1.373 . S
C728 C730 1.389 . S
C729 H702 0.950 . S
C729 C715 1.377 . S
C729 C728 1.373 . S
C730 C714 1.377 . S
C730 C728 1.389 . S
C730 C731 1.524 . S
C731 C730 1.524 . S
C731 C732 1.397 . S
C731 C736 1.363 . S
C732 H703 0.950 . S
C732 C731 1.397 . S
C732 C733 1.334 . S
C733 H704 0.950 . S
C733 C732 1.334 . S
C733 C734 1.287 . S
C734 C733 1.287 . S
C734 C735 1.524 . S
C734 H737 0.999 . S
C735 H705 0.950 . S
C735 C734 1.524 . S
C735 C736 1.415 . S
C736 H706 0.950 . S
C736 C731 1.363 . S
C736 C735 1.415 . S
H737 C734 0.999 . S
H738 C719 0.913 . S
H739 C757 0.951 . S
H740 C759 0.951 . S
H741 C761 0.950 . S
H742 C762 0.950 . S
H743 C764 0.950 . S
H744 C767 0.950 . S
H745 C768 0.950 . S
H746 C770 0.950 . S
H747 C771 0.950 . S
H748 C772 0.951 . S
H749 C774 0.951 . S
H750 C776 0.950 . S
H751 C777 0.950 . S
H752 C779 0.950 . S
H753 C782 0.950 . S
H754 C783 0.950 . S
H755 C785 0.950 . S
H756 C786 0.950 . S
C757 H739 0.951 . S
C757 C758 1.366 . S
C757 C759 1.388 . S
C758 C757 1.366 . S
C758 C762 1.385 . S
C759 H740 0.951 . S
C759 C757 1.388 . S
C759 C760 1.366 . S
C760 C759 1.366 . S
C760 C761 1.414 . S
C760 C763 1.499 . S
C761 H741 0.950 . S
C761 C760 1.414 . S
C761 C762 1.374 . S
C762 H742 0.950 . S
C762 C758 1.385 . S
C762 C761 1.374 . S
C763 C760 1.499 . S
C763 C764 1.373 . S
C763 C765 1.389 . S
C764 H743 0.950 . S
C764 C763 1.373 . S
C764 C780 1.377 . S
C765 C763 1.389 . S
C765 C766 1.524 . S
C765 C779 1.377 . S
C766 C765 1.524 . S
C766 C767 1.397 . S
C766 C771 1.363 . S
C767 H744 0.950 . S
C767 C766 1.397 . S
C767 C768 1.334 . S
C768 H745 0.950 . S
C768 C767 1.334 . S
C768 C769 1.287 1_565 S
C769 C768 1.287 1_545 S
C769 C770 1.524 . S
C769 H788 0.913 . S
C770 H746 0.950 . S
C770 C769 1.524 . S
C770 C771 1.415 1_545 S
C771 H747 0.950 . S
C771 C766 1.363 . S
C771 C770 1.415 1_565 S
C772 H748 0.951 . S
C772 C773 1.366 . S
C772 C774 1.388 . S
C773 C772 1.366 . S
C773 C777 1.385 . S
C774 H749 0.951 . S
C774 C772 1.388 . S
C774 C775 1.366 . S
C775 C774 1.366 . S
C775 C776 1.414 . S
C775 C778 1.499 . S
C776 H750 0.950 . S
C776 C775 1.414 . S
C776 C777 1.374 . S
C777 H751 0.950 . S
C777 C773 1.385 . S
C777 C776 1.374 . S
C778 C775 1.499 . S
C778 C779 1.373 . S
C778 C780 1.389 . S
C779 H752 0.950 . S
C779 C765 1.377 . S
C779 C778 1.373 . S
C780 C764 1.377 . S
C780 C778 1.389 . S
C780 C781 1.524 . S
C781 C780 1.524 . S
C781 C782 1.397 . S
C781 C786 1.363 . S
C782 H753 0.950 . S
C782 C781 1.397 . S
C782 C783 1.334 . S
C783 H754 0.950 . S
C783 C782 1.334 . S
C783 C784 1.287 . S
C784 C783 1.287 . S
C784 C785 1.524 . S
C784 H787 0.999 . S
C785 H755 0.950 . S
C785 C784 1.524 . S
C785 C786 1.415 . S
C786 H756 0.950 . S
C786 C781 1.363 . S
C786 C785 1.415 . S
H787 C784 0.999 . S
H788 C769 0.913 . S
H789 C807 0.951 . S
H790 C809 0.951 . S
H791 C811 0.950 . S
H792 C812 0.950 . S
H793 C814 0.950 . S
H794 C817 0.950 . S
H795 C818 0.950 . S
H796 C820 0.950 1_565 S
H797 C821 0.950 . S
H798 C822 0.951 . S
H799 C824 0.951 . S
H800 C826 0.950 . S
H801 C827 0.950 . S
H802 C829 0.950 . S
H803 C832 0.950 . S
H804 C833 0.950 . S
H805 C835 0.950 . S
H806 C836 0.950 . S
C807 H789 0.951 . S
C807 C808 1.366 . S
C807 C809 1.388 . S
C808 C807 1.366 . S
C808 C812 1.385 . S
C809 H790 0.951 . S
C809 C807 1.388 . S
C809 C810 1.366 . S
C810 C809 1.366 . S
C810 C811 1.414 . S
C810 C813 1.499 . S
C811 H791 0.950 . S
C811 C810 1.414 . S
C811 C812 1.374 . S
C812 H792 0.950 . S
C812 C808 1.385 . S
C812 C811 1.374 . S
C813 C810 1.499 . S
C813 C814 1.373 . S
C813 C815 1.389 . S
C814 H793 0.950 . S
C814 C813 1.373 . S
C814 C830 1.377 . S
C815 C813 1.389 . S
C815 C816 1.524 . S
C815 C829 1.377 . S
C816 C815 1.524 . S
C816 C817 1.397 . S
C816 C821 1.363 . S
C817 H794 0.950 . S
C817 C816 1.397 . S
C817 C818 1.334 . S
C818 H795 0.950 . S
C818 C817 1.334 . S
C818 C819 1.287 . S
C819 C818 1.287 . S
C819 C820 1.524 . S
C819 H838 0.913 1_545 S
C820 H796 0.950 1_545 S
C820 C819 1.524 . S
C820 C821 1.415 . S
C821 H797 0.950 . S
C821 C816 1.363 . S
C821 C820 1.415 . S
C822 H798 0.951 . S
C822 C823 1.366 . S
C822 C824 1.388 . S
C823 C822 1.366 . S
C823 C827 1.385 . S
C824 H799 0.951 . S
C824 C822 1.388 . S
C824 C825 1.366 . S
C825 C824 1.366 . S
C825 C826 1.414 . S
C825 C828 1.499 . S
C826 H800 0.950 . S
C826 C825 1.414 . S
C826 C827 1.374 . S
C827 H801 0.950 . S
C827 C823 1.385 . S
C827 C826 1.374 . S
C828 C825 1.499 . S
C828 C829 1.373 . S
C828 C830 1.389 . S
C829 H802 0.950 . S
C829 C815 1.377 . S
C829 C828 1.373 . S
C830 C814 1.377 . S
C830 C828 1.389 . S
C830 C831 1.524 . S
C831 C830 1.524 . S
C831 C832 1.397 . S
C831 C836 1.363 . S
C832 H803 0.950 . S
C832 C831 1.397 . S
C832 C833 1.334 . S
C833 H804 0.950 . S
C833 C832 1.334 . S
C833 C834 1.287 . S
C834 C833 1.287 . S
C834 C835 1.524 . S
C834 H837 0.999 . S
C835 H805 0.950 . S
C835 C834 1.524 . S
C835 C836 1.415 . S
C836 H806 0.950 . S
C836 C831 1.363 . S
C836 C835 1.415 . S
H837 C834 0.999 . S
H838 C819 0.913 1_565 S
H839 C857 0.951 . S
H840 C859 0.951 . S
H841 C861 0.950 . S
H842 C862 0.950 . S
H843 C864 0.950 . S
H844 C867 0.950 . S
H845 C868 0.950 . S
H846 C870 0.950 . S
H847 C871 0.950 . S
H848 C872 0.951 . S
H849 C874 0.951 . S
H850 C876 0.950 . S
H851 C877 0.950 . S
H852 C879 0.950 . S
H853 C882 0.950 . S
H854 C883 0.950 . S
H855 C885 0.950 . S
H856 C886 0.950 . S
C857 H839 0.951 . S
C857 C858 1.366 . S
C857 C859 1.388 . S
C858 C857 1.366 . S
C858 C862 1.385 . S
C859 H840 0.951 . S
C859 C857 1.388 . S
C859 C860 1.366 . S
C860 C859 1.366 . S
C860 C861 1.414 . S
C860 C863 1.499 . S
C861 H841 0.950 . S
C861 C860 1.414 . S
C861 C862 1.374 . S
C862 H842 0.950 . S
C862 C858 1.385 . S
C862 C861 1.374 . S
C863 C860 1.499 . S
C863 C864 1.373 . S
C863 C865 1.389 . S
C864 H843 0.950 . S
C864 C863 1.373 . S
C864 C880 1.377 . S
C865 C863 1.389 . S
C865 C866 1.524 . S
C865 C879 1.377 . S
C866 C865 1.524 . S
C866 C867 1.397 . S
C866 C871 1.363 . S
C867 H844 0.950 . S
C867 C866 1.397 . S
C867 C868 1.334 1_655 S
C868 H845 0.950 . S
C868 C867 1.334 1_455 S
C868 C869 1.287 . S
C869 C868 1.287 . S
C869 C870 1.524 . S
C869 H888 0.913 . S
C870 H846 0.950 . S
C870 C869 1.524 . S
C870 C871 1.415 1_455 S
C871 H847 0.950 . S
C871 C866 1.363 . S
C871 C870 1.415 1_655 S
C872 H848 0.951 . S
C872 C873 1.366 . S
C872 C874 1.388 . S
C873 C872 1.366 . S
C873 C877 1.385 . S
C874 H849 0.951 . S
C874 C872 1.388 . S
C874 C875 1.366 . S
C875 C874 1.366 . S
C875 C876 1.414 . S
C875 C878 1.499 . S
C876 H850 0.950 . S
C876 C875 1.414 . S
C876 C877 1.374 . S
C877 H851 0.950 . S
C877 C873 1.385 . S
C877 C876 1.374 . S
C878 C875 1.499 . S
C878 C879 1.373 . S
C878 C880 1.389 . S
C879 H852 0.950 . S
C879 C865 1.377 . S
C879 C878 1.373 . S
C880 C864 1.377 . S
C880 C878 1.389 . S
C880 C881 1.524 . S
C881 C880 1.524 . S
C881 C882 1.397 . S
C881 C886 1.363 . S
C882 H853 0.950 . S
C882 C881 1.397 . S
C882 C883 1.334 . S
C883 H854 0.950 . S
C883 C882 1.334 . S
C883 C884 1.287 . S
C884 C883 1.287 . S
C884 C885 1.524 . S
C884 H887 0.999 . S
C885 H855 0.950 . S
C885 C884 1.524 . S
C885 C886 1.415 . S
C886 H856 0.950 . S
C886 C881 1.363 . S
C886 C885 1.415 . S
H887 C884 0.999 . S
H888 C869 0.913 . S
H889 C907 0.951 . S
H890 C909 0.951 . S
H891 C911 0.950 . S
H892 C912 0.950 . S
H893 C914 0.950 . S
H894 C917 0.950 . S
H895 C918 0.950 . S
H896 C920 0.950 . S
H897 C921 0.950 . S
H898 C922 0.951 . S
H899 C924 0.951 . S
H900 C926 0.950 . S
H901 C927 0.950 . S
H902 C929 0.950 . S
H903 C932 0.950 . S
H904 C933 0.950 . S
H905 C935 0.950 . S
H906 C936 0.950 . S
C907 H889 0.951 . S
C907 C908 1.366 . S
C907 C909 1.388 . S
C908 C907 1.366 . S
C908 C912 1.385 . S
C909 H890 0.951 . S
C909 C907 1.388 . S
C909 C910 1.366 . S
C910 C909 1.366 . S
C910 C911 1.414 . S
C910 C913 1.499 . S
C911 H891 0.950 . S
C911 C910 1.414 . S
C911 C912 1.374 . S
C912 H892 0.950 . S
C912 C908 1.385 . S
C912 C911 1.374 . S
C913 C910 1.499 . S
C913 C914 1.373 . S
C913 C915 1.389 . S
C914 H893 0.950 . S
C914 C913 1.373 . S
C914 C930 1.377 . S
C915 C913 1.389 . S
C915 C916 1.524 . S
C915 C929 1.377 . S
C916 C915 1.524 . S
C916 C917 1.397 . S
C916 C921 1.363 . S
C917 H894 0.950 . S
C917 C916 1.397 . S
C917 C918 1.334 . S
C918 H895 0.950 . S
C918 C917 1.334 . S
C918 C919 1.287 . S
C919 C918 1.287 . S
C919 C920 1.524 . S
C919 H938 0.913 . S
C920 H896 0.950 . S
C920 C919 1.524 . S
C920 C921 1.415 . S
C921 H897 0.950 . S
C921 C916 1.363 . S
C921 C920 1.415 . S
C922 H898 0.951 . S
C922 C923 1.366 . S
C922 C924 1.388 . S
C923 C922 1.366 . S
C923 C927 1.385 . S
C924 H899 0.951 . S
C924 C922 1.388 . S
C924 C925 1.366 . S
C925 C924 1.366 . S
C925 C926 1.414 . S
C925 C928 1.499 . S
C926 H900 0.950 . S
C926 C925 1.414 . S
C926 C927 1.374 . S
C927 H901 0.950 . S
C927 C923 1.385 . S
C927 C926 1.374 . S
C928 C925 1.499 . S
C928 C929 1.373 . S
C928 C930 1.389 . S
C929 H902 0.950 . S
C929 C915 1.377 . S
C929 C928 1.373 . S
C930 C914 1.377 . S
C930 C928 1.389 . S
C930 C931 1.524 . S
C931 C930 1.524 . S
C931 C932 1.397 . S
C931 C936 1.363 . S
C932 H903 0.950 . S
C932 C931 1.397 . S
C932 C933 1.334 . S
C933 H904 0.950 . S
C933 C932 1.334 . S
C933 C934 1.287 . S
C934 C933 1.287 . S
C934 C935 1.524 . S
C934 H937 0.999 . S
C935 H905 0.950 . S
C935 C934 1.524 . S
C935 C936 1.415 . S
C936 H906 0.950 . S
C936 C931 1.363 . S
C936 C935 1.415 . S
H937 C934 0.999 . S
H938 C919 0.913 . S
H939 C957 0.951 . S
H940 C959 0.951 . S
H941 C961 0.950 . S
H942 C962 0.950 . S
H943 C964 0.950 . S
H944 C967 0.950 . S
H945 C968 0.950 . S
H946 C970 0.950 . S
H947 C971 0.950 . S
H948 C972 0.951 . S
H949 C974 0.951 . S
H950 C976 0.950 . S
H951 C977 0.950 . S
H952 C979 0.950 . S
H953 C982 0.954 . S
H954 C983 0.950 . S
H955 C985 0.950 . S
H956 C986 0.950 . S
C957 H939 0.951 . S
C957 C958 1.366 . S
C957 C959 1.388 . S
C958 C957 1.366 . S
C958 C962 1.385 . S
C959 H940 0.951 . S
C959 C957 1.388 . S
C959 C960 1.366 . S
C960 C959 1.366 . S
C960 C961 1.414 . S
C960 C963 1.499 . S
C961 H941 0.950 . S
C961 C960 1.414 . S
C961 C962 1.374 . S
C962 H942 0.950 . S
C962 C958 1.385 . S
C962 C961 1.374 . S
C963 C960 1.499 . S
C963 C964 1.373 . S
C963 C965 1.389 . S
C964 H943 0.950 . S
C964 C963 1.373 . S
C964 C980 1.377 . S
C965 C963 1.389 . S
C965 C966 1.524 . S
C965 C979 1.377 . S
C966 C965 1.524 . S
C966 C967 1.397 . S
C966 C971 1.363 . S
C967 H944 0.950 . S
C967 C966 1.397 . S
C967 C968 1.334 . S
C968 H945 0.950 . S
C968 C967 1.334 . S
C968 C969 1.287 . S
C969 C968 1.287 . S
C969 C970 1.524 . S
C969 H988 0.913 . S
C970 H946 0.950 . S
C970 C969 1.524 . S
C970 C971 1.415 . S
C971 H947 0.950 . S
C971 C966 1.363 . S
C971 C970 1.415 . S
C972 H948 0.951 . S
C972 C973 1.366 . S
C972 C974 1.388 . S
C973 C972 1.366 . S
C973 C977 1.385 . S
C974 H949 0.951 . S
C974 C972 1.388 . S
C974 C975 1.366 . S
C975 C974 1.366 . S
C975 C976 1.414 . S
C975 C978 1.499 1_545 S
C976 H950 0.950 . S
C976 C975 1.414 . S
C976 C977 1.374 . S
C977 H951 0.950 . S
C977 C973 1.385 . S
C977 C976 1.374 . S
C978 C975 1.499 1_565 S
C978 C979 1.373 . S
C978 C980 1.389 . S
C979 H952 0.950 . S
C979 C965 1.377 . S
C979 C978 1.373 . S
C980 C964 1.377 . S
C980 C978 1.389 . S
C980 C981 1.524 . S
C981 C980 1.524 . S
C981 C982 1.397 . S
C981 C986 1.363 . S
C982 H953 0.954 . S
C982 C981 1.397 . S
C982 C983 1.334 1_565 S
C983 H954 0.950 . S
C983 C982 1.334 1_545 S
C983 C984 1.287 . S
C984 C983 1.287 . S
C984 C985 1.524 1_545 S
C984 H987 0.999 . S
C985 H955 0.950 . S
C985 C984 1.524 1_565 S
C985 C986 1.415 . S
C986 H956 0.950 . S
C986 C981 1.363 . S
C986 C985 1.415 . S
H987 C984 0.999 . S
H988 C969 0.913 . S
H989 C1007 0.951 . S
H990 C1009 0.951 . S
H991 C1011 0.950 . S
H992 C1012 0.950 . S
H993 C1014 0.950 . S
H994 C1017 0.950 . S
H995 C1018 0.950 . S
H996 C1020 0.950 . S
H997 C1021 0.950 . S
H998 C1022 0.951 . S
H999 C1024 0.951 . S
H1000 C1026 0.950 . S
H1001 C1027 0.950 1_545 S
H1002 C1029 0.950 . S
H1003 C1032 0.950 . S
H1004 C1033 0.950 . S
H1005 C1035 0.950 . S
H1006 C1036 0.950 . S
C1007 H989 0.951 . S
C1007 C1008 1.366 . S
C1007 C1009 1.388 . S
C1008 C1007 1.366 . S
C1008 C1012 1.385 . S
C1009 H990 0.951 . S
C1009 C1007 1.388 . S
C1009 C1010 1.366 . S
C1010 C1009 1.366 . S
C1010 C1011 1.414 . S
C1010 C1013 1.499 1_655 S
C1011 H991 0.950 . S
C1011 C1010 1.414 . S
C1011 C1012 1.374 . S
C1012 H992 0.950 . S
C1012 C1008 1.385 . S
C1012 C1011 1.374 . S
C1013 C1010 1.499 1_455 S
C1013 C1014 1.373 . S
C1013 C1015 1.389 . S
C1014 H993 0.950 . S
C1014 C1013 1.373 . S
C1014 C1030 1.377 . S
C1015 C1013 1.389 . S
C1015 C1016 1.524 . S
C1015 C1029 1.377 . S
C1016 C1015 1.524 . S
C1016 C1017 1.397 1_455 S
C1016 C1021 1.363 . S
C1017 H994 0.950 . S
C1017 C1016 1.397 1_655 S
C1017 C1018 1.334 . S
C1018 H995 0.950 . S
C1018 C1017 1.334 . S
C1018 C1019 1.287 . S
C1019 C1018 1.287 . S
C1019 C1020 1.524 . S
C1019 H1038 0.913 . S
C1020 H996 0.950 . S
C1020 C1019 1.524 . S
C1020 C1021 1.415 1_655 S
C1021 H997 0.950 . S
C1021 C1016 1.363 . S
C1021 C1020 1.415 1_455 S
C1022 H998 0.951 . S
C1022 C1023 1.366 . S
C1022 C1024 1.388 . S
C1023 C1022 1.366 . S
C1023 C1027 1.385 . S
C1024 H999 0.951 . S
C1024 C1022 1.388 . S
C1024 C1025 1.366 . S
C1025 C1024 1.366 . S
C1025 C1026 1.414 . S
C1025 C1028 1.499 . S
C1026 H1000 0.950 . S
C1026 C1025 1.414 . S
C1026 C1027 1.374 . S
C1027 H1001 0.950 1_565 S
C1027 C1023 1.385 . S
C1027 C1026 1.374 . S
C1028 C1025 1.499 . S
C1028 C1029 1.373 . S
C1028 C1030 1.389 . S
C1029 H1002 0.950 . S
C1029 C1015 1.377 . S
C1029 C1028 1.373 . S
C1030 C1014 1.377 . S
C1030 C1028 1.389 . S
C1030 C1031 1.524 . S
C1031 C1030 1.524 . S
C1031 C1032 1.397 . S
C1031 C1036 1.363 . S
C1032 H1003 0.950 . S
C1032 C1031 1.397 . S
C1032 C1033 1.334 . S
C1033 H1004 0.950 . S
C1033 C1032 1.334 . S
C1033 C1034 1.287 . S
C1034 C1033 1.287 . S
C1034 C1035 1.524 . S
C1034 H1037 0.999 . S
C1035 H1005 0.950 . S
C1035 C1034 1.524 . S
C1035 C1036 1.415 . S
C1036 H1006 0.950 . S
C1036 C1031 1.363 . S
C1036 C1035 1.415 . S
H1037 C1034 0.999 . S
H1038 C1019 0.913 . S
H1039 C1057 0.951 . S
H1040 C1059 0.951 . S
H1041 C1061 0.950 . S
H1042 C1062 0.950 . S
H1043 C1064 0.950 . S
H1044 C1067 0.950 . S
H1045 C1068 0.950 . S
H1046 C1070 0.950 . S
H1047 C1071 0.950 . S
H1048 C1072 0.951 1_655 S
H1049 C1074 0.951 . S
H1050 C1076 0.950 . S
H1051 C1077 0.950 . S
H1052 C1079 0.950 . S
H1053 C1082 0.950 . S
H1054 C1083 0.950 . S
H1055 C1085 0.950 1_655 S
H1056 C1086 0.950 . S
C1057 H1039 0.951 . S
C1057 C1058 1.366 . S
C1057 C1059 1.388 . S
C1058 C1057 1.366 . S
C1058 C1062 1.385 . S
C1059 H1040 0.951 . S
C1059 C1057 1.388 . S
C1059 C1060 1.366 . S
C1060 C1059 1.366 . S
C1060 C1061 1.414 . S
C1060 C1063 1.499 . S
C1061 H1041 0.950 . S
C1061 C1060 1.414 . S
C1061 C1062 1.374 . S
C1062 H1042 0.950 . S
C1062 C1058 1.385 . S
C1062 C1061 1.374 . S
C1063 C1060 1.499 . S
C1063 C1064 1.373 . S
C1063 C1065 1.389 . S
C1064 H1043 0.950 . S
C1064 C1063 1.373 . S
C1064 C1080 1.377 . S
C1065 C1063 1.389 . S
C1065 C1066 1.524 . S
C1065 C1079 1.377 . S
C1066 C1065 1.524 . S
C1066 C1067 1.397 . S
C1066 C1071 1.363 . S
C1067 H1044 0.950 . S
C1067 C1066 1.397 . S
C1067 C1068 1.334 . S
C1068 H1045 0.950 . S
C1068 C1067 1.334 . S
C1068 C1069 1.287 . S
C1069 C1068 1.287 . S
C1069 C1070 1.524 . S
C1069 H1088 0.913 . S
C1070 H1046 0.950 . S
C1070 C1069 1.524 . S
C1070 C1071 1.415 . S
C1071 H1047 0.950 . S
C1071 C1066 1.363 . S
C1071 C1070 1.415 . S
C1072 H1048 0.951 1_455 S
C1072 C1073 1.366 . S
C1072 C1074 1.388 . S
C1073 C1072 1.366 . S
C1073 C1077 1.385 . S
C1074 H1049 0.951 . S
C1074 C1072 1.388 . S
C1074 C1075 1.366 . S
C1075 C1074 1.366 . S
C1075 C1076 1.414 . S
C1075 C1078 1.499 . S
C1076 H1050 0.950 . S
C1076 C1075 1.414 . S
C1076 C1077 1.374 . S
C1077 H1051 0.950 . S
C1077 C1073 1.385 . S
C1077 C1076 1.374 . S
C1078 C1075 1.499 . S
C1078 C1079 1.373 . S
C1078 C1080 1.389 . S
C1079 H1052 0.950 . S
C1079 C1065 1.377 . S
C1079 C1078 1.373 . S
C1080 C1064 1.377 . S
C1080 C1078 1.389 . S
C1080 C1081 1.524 . S
C1081 C1080 1.524 . S
C1081 C1082 1.397 . S
C1081 C1086 1.363 . S
C1082 H1053 0.950 . S
C1082 C1081 1.397 . S
C1082 C1083 1.334 . S
C1083 H1054 0.950 . S
C1083 C1082 1.334 . S
C1083 C1084 1.287 . S
C1084 C1083 1.287 . S
C1084 C1085 1.524 . S
C1084 H1087 0.999 1_455 S
C1085 H1055 0.950 1_455 S
C1085 C1084 1.524 . S
C1085 C1086 1.415 . S
C1086 H1056 0.950 . S
C1086 C1081 1.363 . S
C1086 C1085 1.415 . S
H1087 C1084 0.999 1_655 S
H1088 C1069 0.913 . S
H1089 C1107 0.951 . S
H1090 C1109 0.951 . S
H1091 C1111 0.950 . S
H1092 C1112 0.950 . S
H1093 C1114 0.951 . S
H1094 C1117 0.950 . S
H1095 C1118 0.950 . S
H1096 C1120 0.950 . S
H1097 C1121 0.950 . S
H1098 C1122 0.951 . S
H1099 C1124 0.951 . S
H1100 C1126 0.950 . S
H1101 C1127 0.950 . S
H1102 C1129 0.950 . S
H1103 C1132 0.950 1_455 S
H1104 C1133 0.950 . S
H1105 C1135 0.950 . S
H1106 C1136 0.950 . S
C1107 H1089 0.951 . S
C1107 C1108 1.366 . S
C1107 C1109 1.388 . S
C1108 C1107 1.366 . S
C1108 C1112 1.385 . S
C1109 H1090 0.951 . S
C1109 C1107 1.388 . S
C1109 C1110 1.366 . S
C1110 C1109 1.366 . S
C1110 C1111 1.414 . S
C1110 C1113 1.499 . S
C1111 H1091 0.950 . S
C1111 C1110 1.414 . S
C1111 C1112 1.374 . S
C1112 H1092 0.950 . S
C1112 C1108 1.385 . S
C1112 C1111 1.374 . S
C1113 C1110 1.499 . S
C1113 C1114 1.373 . S
C1113 C1115 1.389 . S
C1114 H1093 0.951 . S
C1114 C1113 1.373 . S
C1114 C1130 1.377 . S
C1115 C1113 1.389 . S
C1115 C1116 1.524 . S
C1115 C1129 1.377 . S
C1116 C1115 1.524 . S
C1116 C1117 1.397 . S
C1116 C1121 1.363 . S
C1117 H1094 0.950 . S
C1117 C1116 1.397 . S
C1117 C1118 1.334 . S
C1118 H1095 0.950 . S
C1118 C1117 1.334 . S
C1118 C1119 1.287 . S
C1119 C1118 1.287 . S
C1119 C1120 1.524 . S
C1119 H1138 0.913 . S
C1120 H1096 0.950 . S
C1120 C1119 1.524 . S
C1120 C1121 1.415 . S
C1121 H1097 0.950 . S
C1121 C1116 1.363 . S
C1121 C1120 1.415 . S
C1122 H1098 0.951 . S
C1122 C1123 1.366 1_655 S
C1122 C1124 1.388 . S
C1123 C1122 1.366 1_455 S
C1123 C1127 1.385 . S
C1124 H1099 0.951 . S
C1124 C1122 1.388 . S
C1124 C1125 1.366 1_655 S
C1125 C1124 1.366 1_455 S
C1125 C1126 1.414 . S
C1125 C1128 1.499 . S
C1126 H1100 0.950 . S
C1126 C1125 1.414 . S
C1126 C1127 1.374 . S
C1127 H1101 0.950 . S
C1127 C1123 1.385 . S
C1127 C1126 1.374 . S
C1128 C1125 1.499 . S
C1128 C1129 1.373 . S
C1128 C1130 1.389 . S
C1129 H1102 0.950 . S
C1129 C1115 1.377 . S
C1129 C1128 1.373 . S
C1130 C1114 1.377 . S
C1130 C1128 1.389 . S
C1130 C1131 1.524 1_455 S
C1131 C1130 1.524 1_655 S
C1131 C1132 1.397 . S
C1131 C1136 1.363 . S
C1132 H1103 0.950 1_655 S
C1132 C1131 1.397 . S
C1132 C1133 1.334 . S
C1133 H1104 0.950 . S
C1133 C1132 1.334 . S
C1133 C1134 1.287 . S
C1134 C1133 1.287 . S
C1134 C1135 1.524 . S
C1134 H1137 0.999 . S
C1135 H1105 0.950 . S
C1135 C1134 1.524 . S
C1135 C1136 1.415 . S
C1136 H1106 0.950 . S
C1136 C1131 1.363 . S
C1136 C1135 1.415 . S
H1137 C1134 0.999 . S
H1138 C1119 0.913 . S
H1139 C1157 0.951 . S
H1140 C1159 0.951 . S
H1141 C1161 0.950 . S
H1142 C1162 0.950 . S
H1143 C1164 0.950 . S
H1144 C1167 0.950 . S
H1145 C1168 0.950 . S
H1146 C1170 0.950 . S
H1147 C1171 0.950 . S
H1148 C1172 0.951 . S
H1149 C1174 0.951 . S
H1150 C1176 0.950 . S
H1151 C1177 0.950 . S
H1152 C1179 0.950 . S
H1153 C1182 0.950 . S
H1154 C1183 0.950 . S
H1155 C1185 0.950 . S
H1156 C1186 0.950 . S
C1157 H1139 0.951 . S
C1157 C1158 1.366 . S
C1157 C1159 1.388 . S
C1158 C1157 1.366 . S
C1158 C1162 1.385 . S
C1159 H1140 0.951 . S
C1159 C1157 1.388 . S
C1159 C1160 1.366 . S
C1160 C1159 1.366 . S
C1160 C1161 1.414 . S
C1160 C1163 1.499 . S
C1161 H1141 0.950 . S
C1161 C1160 1.414 . S
C1161 C1162 1.374 . S
C1162 H1142 0.950 . S
C1162 C1158 1.385 . S
C1162 C1161 1.374 . S
C1163 C1160 1.499 . S
C1163 C1164 1.373 . S
C1163 C1165 1.389 . S
C1164 H1143 0.950 . S
C1164 C1163 1.373 . S
C1164 C1180 1.377 . S
C1165 C1163 1.389 . S
C1165 C1166 1.524 . S
C1165 C1179 1.377 . S
C1166 C1165 1.524 . S
C1166 C1167 1.397 . S
C1166 C1171 1.363 . S
C1167 H1144 0.950 . S
C1167 C1166 1.397 . S
C1167 C1168 1.334 . S
C1168 H1145 0.950 . S
C1168 C1167 1.334 . S
C1168 C1169 1.287 . S
C1169 C1168 1.287 . S
C1169 C1170 1.524 . S
C1169 H1188 0.913 . S
C1170 H1146 0.950 . S
C1170 C1169 1.524 . S
C1170 C1171 1.415 . S
C1171 H1147 0.950 . S
C1171 C1166 1.363 . S
C1171 C1170 1.415 . S
C1172 H1148 0.951 . S
C1172 C1173 1.366 . S
C1172 C1174 1.388 . S
C1173 C1172 1.366 . S
C1173 C1177 1.385 . S
C1174 H1149 0.951 . S
C1174 C1172 1.388 . S
C1174 C1175 1.366 . S
C1175 C1174 1.366 . S
C1175 C1176 1.414 . S
C1175 C1178 1.499 . S
C1176 H1150 0.950 . S
C1176 C1175 1.414 . S
C1176 C1177 1.374 . S
C1177 H1151 0.950 . S
C1177 C1173 1.385 . S
C1177 C1176 1.374 . S
C1178 C1175 1.499 . S
C1178 C1179 1.373 . S
C1178 C1180 1.389 . S
C1179 H1152 0.950 . S
C1179 C1165 1.377 . S
C1179 C1178 1.373 . S
C1180 C1164 1.377 . S
C1180 C1178 1.389 . S
C1180 C1181 1.524 . S
C1181 C1180 1.524 . S
C1181 C1182 1.397 . S
C1181 C1186 1.363 . S
C1182 H1153 0.950 . S
C1182 C1181 1.397 . S
C1182 C1183 1.334 . S
C1183 H1154 0.950 . S
C1183 C1182 1.334 . S
C1183 C1184 1.287 . S
C1184 C1183 1.287 . S
C1184 C1185 1.524 . S
C1184 H1187 0.999 . S
C1185 H1155 0.950 . S
C1185 C1184 1.524 . S
C1185 C1186 1.415 . S
C1186 H1156 0.950 . S
C1186 C1181 1.363 . S
C1186 C1185 1.415 . S
H1187 C1184 0.999 . S
H1188 C1169 0.913 . S
H1189 C1207 0.951 . S
H1190 C1209 0.951 . S
H1191 C1211 0.950 . S
H1192 C1212 0.950 . S
H1193 C1214 0.950 . S
H1194 C1217 0.950 . S
H1195 C1218 0.950 . S
H1196 C1220 0.950 . S
H1197 C1221 0.950 . S
H1198 C1222 0.951 . S
H1199 C1224 0.951 . S
H1200 C1226 0.950 1_545 S
H1201 C1227 0.950 . S
H1202 C1229 0.950 . S
H1203 C1232 0.950 . S
H1204 C1233 0.950 . S
H1205 C1235 0.950 . S
H1206 C1236 0.950 . S
C1207 H1189 0.951 . S
C1207 C1208 1.366 1_545 S
C1207 C1209 1.388 . S
C1208 C1207 1.366 1_565 S
C1208 C1212 1.385 . S
C1209 H1190 0.951 . S
C1209 C1207 1.388 . S
C1209 C1210 1.366 1_545 S
C1210 C1209 1.366 1_565 S
C1210 C1211 1.414 . S
C1210 C1213 1.499 . S
C1211 H1191 0.950 . S
C1211 C1210 1.414 . S
C1211 C1212 1.374 . S
C1212 H1192 0.950 . S
C1212 C1208 1.385 . S
C1212 C1211 1.374 . S
C1213 C1210 1.499 . S
C1213 C1214 1.373 . S
C1213 C1215 1.389 . S
C1214 H1193 0.950 . S
C1214 C1213 1.373 . S
C1214 C1230 1.377 . S
C1215 C1213 1.389 . S
C1215 C1216 1.524 . S
C1215 C1229 1.377 . S
C1216 C1215 1.524 . S
C1216 C1217 1.397 . S
C1216 C1221 1.363 1_565 S
C1217 H1194 0.950 . S
C1217 C1216 1.397 . S
C1217 C1218 1.334 . S
C1218 H1195 0.950 . S
C1218 C1217 1.334 . S
C1218 C1219 1.287 . S
C1219 C1218 1.287 . S
C1219 C1220 1.524 1_565 S
C1219 H1238 0.913 1_565 S
C1220 H1196 0.950 . S
C1220 C1219 1.524 1_545 S
C1220 C1221 1.415 . S
C1221 H1197 0.950 . S
C1221 C1216 1.363 1_545 S
C1221 C1220 1.415 . S
C1222 H1198 0.951 . S
C1222 C1223 1.366 . S
C1222 C1224 1.388 . S
C1223 C1222 1.366 . S
C1223 C1227 1.385 . S
C1224 H1199 0.951 . S
C1224 C1222 1.388 . S
C1224 C1225 1.366 . S
C1225 C1224 1.366 . S
C1225 C1226 1.414 . S
C1225 C1228 1.499 . S
C1226 H1200 0.950 1_565 S
C1226 C1225 1.414 . S
C1226 C1227 1.374 . S
C1227 H1201 0.950 . S
C1227 C1223 1.385 . S
C1227 C1226 1.374 . S
C1228 C1225 1.499 . S
C1228 C1229 1.373 . S
C1228 C1230 1.389 . S
C1229 H1202 0.950 . S
C1229 C1215 1.377 . S
C1229 C1228 1.373 . S
C1230 C1214 1.377 . S
C1230 C1228 1.389 . S
C1230 C1231 1.524 . S
C1231 C1230 1.524 . S
C1231 C1232 1.397 . S
C1231 C1236 1.363 . S
C1232 H1203 0.950 . S
C1232 C1231 1.397 . S
C1232 C1233 1.334 . S
C1233 H1204 0.950 . S
C1233 C1232 1.334 . S
C1233 C1234 1.287 . S
C1234 C1233 1.287 . S
C1234 C1235 1.524 . S
C1234 H1237 0.999 . S
C1235 H1205 0.950 . S
C1235 C1234 1.524 . S
C1235 C1236 1.415 . S
C1236 H1206 0.950 . S
C1236 C1231 1.363 . S
C1236 C1235 1.415 . S
H1237 C1234 0.999 . S
H1238 C1219 0.913 1_545 S
H1239 C1257 0.951 . S
H1240 C1259 0.951 . S
H1241 C1261 0.950 . S
H1242 C1262 0.950 . S
H1243 C1264 0.950 . S
H1244 C1267 0.950 1_545 S
H1245 C1268 0.950 . S
H1246 C1270 0.950 . S
H1247 C1271 0.950 . S
H1248 C1272 0.951 . S
H1249 C1274 0.951 . S
H1250 C1276 0.950 . S
H1251 C1277 0.950 . S
H1252 C1279 0.950 . S
H1253 C1282 0.950 . S
H1254 C1283 0.950 . S
H1255 C1285 0.950 . S
H1256 C1286 0.950 . S
C1257 H1239 0.951 . S
C1257 C1258 1.366 1_565 S
C1257 C1259 1.388 . S
C1258 C1257 1.366 1_545 S
C1258 C1262 1.385 . S
C1259 H1240 0.951 . S
C1259 C1257 1.388 . S
C1259 C1260 1.366 1_565 S
C1260 C1259 1.366 1_545 S
C1260 C1261 1.414 . S
C1260 C1263 1.499 . S
C1261 H1241 0.950 . S
C1261 C1260 1.414 . S
C1261 C1262 1.374 . S
C1262 H1242 0.950 . S
C1262 C1258 1.385 . S
C1262 C1261 1.374 . S
C1263 C1260 1.499 . S
C1263 C1264 1.373 . S
C1263 C1265 1.389 . S
C1264 H1243 0.950 . S
C1264 C1263 1.373 . S
C1264 C1280 1.377 . S
C1265 C1263 1.389 . S
C1265 C1266 1.524 1_545 S
C1265 C1279 1.377 . S
C1266 C1265 1.524 1_565 S
C1266 C1267 1.397 . S
C1266 C1271 1.363 . S
C1267 H1244 0.950 1_565 S
C1267 C1266 1.397 . S
C1267 C1268 1.334 . S
C1268 H1245 0.950 . S
C1268 C1267 1.334 . S
C1268 C1269 1.287 . S
C1269 C1268 1.287 . S
C1269 C1270 1.524 . S
C1269 H1288 0.913 . S
C1270 H1246 0.950 . S
C1270 C1269 1.524 . S
C1270 C1271 1.415 . S
C1271 H1247 0.950 . S
C1271 C1266 1.363 . S
C1271 C1270 1.415 . S
C1272 H1248 0.951 . S
C1272 C1273 1.366 . S
C1272 C1274 1.388 . S
C1273 C1272 1.366 . S
C1273 C1277 1.385 . S
C1274 H1249 0.951 . S
C1274 C1272 1.388 . S
C1274 C1275 1.366 . S
C1275 C1274 1.366 . S
C1275 C1276 1.414 . S
C1275 C1278 1.499 . S
C1276 H1250 0.950 . S
C1276 C1275 1.414 . S
C1276 C1277 1.374 . S
C1277 H1251 0.950 . S
C1277 C1273 1.385 . S
C1277 C1276 1.374 . S
C1278 C1275 1.499 . S
C1278 C1279 1.373 . S
C1278 C1280 1.389 . S
C1279 H1252 0.950 . S
C1279 C1265 1.377 . S
C1279 C1278 1.373 . S
C1280 C1264 1.377 . S
C1280 C1278 1.389 . S
C1280 C1281 1.524 . S
C1281 C1280 1.524 . S
C1281 C1282 1.397 . S
C1281 C1286 1.363 . S
C1282 H1253 0.950 . S
C1282 C1281 1.397 . S
C1282 C1283 1.334 . S
C1283 H1254 0.950 . S
C1283 C1282 1.334 . S
C1283 C1284 1.287 . S
C1284 C1283 1.287 . S
C1284 C1285 1.524 . S
C1284 H1287 0.999 . S
C1285 H1255 0.950 . S
C1285 C1284 1.524 . S
C1285 C1286 1.415 . S
C1286 H1256 0.950 . S
C1286 C1281 1.363 . S
C1286 C1285 1.415 . S
H1287 C1284 0.999 . S
H1288 C1269 0.913 . S
H1289 C1307 0.951 . S
H1290 C1309 0.951 . S
H1291 C1311 0.950 . S
H1292 C1312 0.950 . S
H1293 C1314 0.950 . S
H1294 C1317 0.950 . S
H1295 C1318 0.950 . S
H1296 C1320 0.950 . S
H1297 C1321 0.950 1_455 S
H1298 C1322 0.951 . S
H1299 C1324 0.951 . S
H1300 C1326 0.950 . S
H1301 C1327 0.950 . S
H1302 C1329 0.950 . S
H1303 C1332 0.950 1_455 S
H1304 C1333 0.950 . S
H1305 C1335 0.950 . S
H1306 C1336 0.950 . S
C1307 H1289 0.951 . S
C1307 C1308 1.366 1_455 S
C1307 C1309 1.388 . S
C1308 C1307 1.366 1_655 S
C1308 C1312 1.385 . S
C1309 H1290 0.951 . S
C1309 C1307 1.388 . S
C1309 C1310 1.366 1_455 S
C1310 C1309 1.366 1_655 S
C1310 C1311 1.414 . S
C1310 C1313 1.499 . S
C1311 H1291 0.950 . S
C1311 C1310 1.414 . S
C1311 C1312 1.374 . S
C1312 H1292 0.950 . S
C1312 C1308 1.385 . S
C1312 C1311 1.374 . S
C1313 C1310 1.499 . S
C1313 C1314 1.373 . S
C1313 C1315 1.389 . S
C1314 H1293 0.950 . S
C1314 C1313 1.373 . S
C1314 C1330 1.377 . S
C1315 C1313 1.389 . S
C1315 C1316 1.524 . S
C1315 C1329 1.377 . S
C1316 C1315 1.524 . S
C1316 C1317 1.397 . S
C1316 C1321 1.363 . S
C1317 H1294 0.950 . S
C1317 C1316 1.397 . S
C1317 C1318 1.334 . S
C1318 H1295 0.950 . S
C1318 C1317 1.334 . S
C1318 C1319 1.287 . S
C1319 C1318 1.287 . S
C1319 C1320 1.524 . S
C1319 H1338 0.913 . S
C1320 H1296 0.950 . S
C1320 C1319 1.524 . S
C1320 C1321 1.415 . S
C1321 H1297 0.950 1_655 S
C1321 C1316 1.363 . S
C1321 C1320 1.415 . S
C1322 H1298 0.951 . S
C1322 C1323 1.366 . S
C1322 C1324 1.388 . S
C1323 C1322 1.366 . S
C1323 C1327 1.385 . S
C1324 H1299 0.951 . S
C1324 C1322 1.388 . S
C1324 C1325 1.366 . S
C1325 C1324 1.366 . S
C1325 C1326 1.414 . S
C1325 C1328 1.499 . S
C1326 H1300 0.950 . S
C1326 C1325 1.414 . S
C1326 C1327 1.374 . S
C1327 H1301 0.950 . S
C1327 C1323 1.385 . S
C1327 C1326 1.374 . S
C1328 C1325 1.499 . S
C1328 C1329 1.373 . S
C1328 C1330 1.389 . S
C1329 H1302 0.950 . S
C1329 C1315 1.377 . S
C1329 C1328 1.373 . S
C1330 C1314 1.377 . S
C1330 C1328 1.389 . S
C1330 C1331 1.524 . S
C1331 C1330 1.524 . S
C1331 C1332 1.397 . S
C1331 C1336 1.363 . S
C1332 H1303 0.950 1_655 S
C1332 C1331 1.397 . S
C1332 C1333 1.334 1_655 S
C1333 H1304 0.950 . S
C1333 C1332 1.334 1_455 S
C1333 C1334 1.287 1_455 S
C1334 C1333 1.287 1_655 S
C1334 C1335 1.524 . S
C1334 H1337 0.999 . S
C1335 H1305 0.950 . S
C1335 C1334 1.524 . S
C1335 C1336 1.415 . S
C1336 H1306 0.950 . S
C1336 C1331 1.363 . S
C1336 C1335 1.415 . S
H1337 C1334 0.999 . S
H1338 C1319 0.913 . S
H1339 C1357 0.951 . S
H1340 C1359 0.951 . S
H1341 C1361 0.950 . S
H1342 C1362 0.950 . S
H1343 C1364 0.950 . S
H1344 C1367 0.950 . S
H1345 C1368 0.950 . S
H1346 C1370 0.950 . S
H1347 C1371 0.950 . S
H1348 C1372 0.951 . S
H1349 C1374 0.951 . S
H1350 C1376 0.950 . S
H1351 C1377 0.950 . S
H1352 C1379 0.950 . S
H1353 C1382 0.950 . S
H1354 C1383 0.950 . S
H1355 C1385 0.950 . S
H1356 C1386 0.950 . S
C1357 H1339 0.951 . S
C1357 C1358 1.366 . S
C1357 C1359 1.388 . S
C1358 C1357 1.366 . S
C1358 C1362 1.385 . S
C1359 H1340 0.951 . S
C1359 C1357 1.388 . S
C1359 C1360 1.366 . S
C1360 C1359 1.366 . S
C1360 C1361 1.414 . S
C1360 C1363 1.499 . S
C1361 H1341 0.950 . S
C1361 C1360 1.414 . S
C1361 C1362 1.374 . S
C1362 H1342 0.950 . S
C1362 C1358 1.385 . S
C1362 C1361 1.374 . S
C1363 C1360 1.499 . S
C1363 C1364 1.373 . S
C1363 C1365 1.389 . S
C1364 H1343 0.950 . S
C1364 C1363 1.373 . S
C1364 C1380 1.377 . S
C1365 C1363 1.389 . S
C1365 C1366 1.524 . S
C1365 C1379 1.377 . S
C1366 C1365 1.524 . S
C1366 C1367 1.397 . S
C1366 C1371 1.363 . S
C1367 H1344 0.950 . S
C1367 C1366 1.397 . S
C1367 C1368 1.334 . S
C1368 H1345 0.950 . S
C1368 C1367 1.334 . S
C1368 C1369 1.287 . S
C1369 C1368 1.287 . S
C1369 C1370 1.524 . S
C1369 H1388 0.913 . S
C1370 H1346 0.950 . S
C1370 C1369 1.524 . S
C1370 C1371 1.415 . S
C1371 H1347 0.950 . S
C1371 C1366 1.363 . S
C1371 C1370 1.415 . S
C1372 H1348 0.951 . S
C1372 C1373 1.366 . S
C1372 C1374 1.388 . S
C1373 C1372 1.366 . S
C1373 C1377 1.385 . S
C1374 H1349 0.951 . S
C1374 C1372 1.388 . S
C1374 C1375 1.366 . S
C1375 C1374 1.366 . S
C1375 C1376 1.414 . S
C1375 C1378 1.499 . S
C1376 H1350 0.950 . S
C1376 C1375 1.414 . S
C1376 C1377 1.374 . S
C1377 H1351 0.950 . S
C1377 C1373 1.385 . S
C1377 C1376 1.374 . S
C1378 C1375 1.499 . S
C1378 C1379 1.373 . S
C1378 C1380 1.389 . S
C1379 H1352 0.950 . S
C1379 C1365 1.377 . S
C1379 C1378 1.373 . S
C1380 C1364 1.377 . S
C1380 C1378 1.389 . S
C1380 C1381 1.524 . S
C1381 C1380 1.524 . S
C1381 C1382 1.397 . S
C1381 C1386 1.363 . S
C1382 H1353 0.950 . S
C1382 C1381 1.397 . S
C1382 C1383 1.334 . S
C1383 H1354 0.950 . S
C1383 C1382 1.334 . S
C1383 C1384 1.287 . S
C1384 C1383 1.287 . S
C1384 C1385 1.524 . S
C1384 H1387 0.999 . S
C1385 H1355 0.950 . S
C1385 C1384 1.524 . S
C1385 C1386 1.415 . S
C1386 H1356 0.950 . S
C1386 C1381 1.363 . S
C1386 C1385 1.415 . S
H1387 C1384 0.999 . S
H1388 C1369 0.913 . S
H1389 C1407 0.951 . S
H1390 C1409 0.951 . S
H1391 C1411 0.950 . S
H1392 C1412 0.950 . S
H1393 C1414 0.950 . S
H1394 C1417 0.950 . S
H1395 C1418 0.950 . S
H1396 C1420 0.950 . S
H1397 C1421 0.950 . S
H1398 C1422 0.951 . S
H1399 C1424 0.951 . S
H1400 C1426 0.950 . S
H1401 C1427 0.950 . S
H1402 C1429 0.950 . S
H1403 C1432 0.950 . S
H1404 C1433 0.950 . S
H1405 C1435 0.950 . S
H1406 C1436 0.950 . S
C1407 H1389 0.951 . S
C1407 C1408 1.366 . S
C1407 C1409 1.388 . S
C1408 C1407 1.366 . S
C1408 C1412 1.385 . S
C1409 H1390 0.951 . S
C1409 C1407 1.388 . S
C1409 C1410 1.366 . S
C1410 C1409 1.366 . S
C1410 C1411 1.414 . S
C1410 C1413 1.499 . S
C1411 H1391 0.950 . S
C1411 C1410 1.414 . S
C1411 C1412 1.374 . S
C1412 H1392 0.950 . S
C1412 C1408 1.385 . S
C1412 C1411 1.374 . S
C1413 C1410 1.499 . S
C1413 C1414 1.373 . S
C1413 C1415 1.389 . S
C1414 H1393 0.950 . S
C1414 C1413 1.373 . S
C1414 C1430 1.377 . S
C1415 C1413 1.389 . S
C1415 C1416 1.524 . S
C1415 C1429 1.377 . S
C1416 C1415 1.524 . S
C1416 C1417 1.397 . S
C1416 C1421 1.363 . S
C1417 H1394 0.950 . S
C1417 C1416 1.397 . S
C1417 C1418 1.334 . S
C1418 H1395 0.950 . S
C1418 C1417 1.334 . S
C1418 C1419 1.287 . S
C1419 C1418 1.287 . S
C1419 C1420 1.524 . S
C1419 H1438 0.913 . S
C1420 H1396 0.950 . S
C1420 C1419 1.524 . S
C1420 C1421 1.415 . S
C1421 H1397 0.950 . S
C1421 C1416 1.363 . S
C1421 C1420 1.415 . S
C1422 H1398 0.951 . S
C1422 C1423 1.366 . S
C1422 C1424 1.388 . S
C1423 C1422 1.366 . S
C1423 C1427 1.385 . S
C1424 H1399 0.951 . S
C1424 C1422 1.388 . S
C1424 C1425 1.366 . S
C1425 C1424 1.366 . S
C1425 C1426 1.414 . S
C1425 C1428 1.499 . S
C1426 H1400 0.950 . S
C1426 C1425 1.414 . S
C1426 C1427 1.374 . S
C1427 H1401 0.950 . S
C1427 C1423 1.385 . S
C1427 C1426 1.374 . S
C1428 C1425 1.499 . S
C1428 C1429 1.373 . S
C1428 C1430 1.389 . S
C1429 H1402 0.950 . S
C1429 C1415 1.377 . S
C1429 C1428 1.373 . S
C1430 C1414 1.377 . S
C1430 C1428 1.389 . S
C1430 C1431 1.524 . S
C1431 C1430 1.524 . S
C1431 C1432 1.397 . S
C1431 C1436 1.363 . S
C1432 H1403 0.950 . S
C1432 C1431 1.397 . S
C1432 C1433 1.334 . S
C1433 H1404 0.950 . S
C1433 C1432 1.334 . S
C1433 C1434 1.287 . S
C1434 C1433 1.287 . S
C1434 C1435 1.524 . S
C1434 H1437 0.999 . S
C1435 H1405 0.950 . S
C1435 C1434 1.524 . S
C1435 C1436 1.415 . S
C1436 H1406 0.950 . S
C1436 C1431 1.363 . S
C1436 C1435 1.415 . S
H1437 C1434 0.999 . S
H1438 C1419 0.913 . S
H1439 C1457 0.951 1_545 S
H1440 C1459 0.951 . S
H1441 C1461 0.950 . S
H1442 C1462 0.950 . S
H1443 C1464 0.950 . S
H1444 C1467 0.950 . S
H1445 C1468 0.950 . S
H1446 C1470 0.950 . S
H1447 C1471 0.950 . S
H1448 C1472 0.951 . S
H1449 C1474 0.951 1_565 S
H1450 C1476 0.950 . S
H1451 C1477 0.950 . S
H1452 C1479 0.950 . S
H1453 C1482 0.950 . S
H1454 C1483 0.950 . S
H1455 C1485 0.950 . S
H1456 C1486 0.950 . S
C1457 H1439 0.951 1_565 S
C1457 C1458 1.366 . S
C1457 C1459 1.388 1_565 S
C1458 C1457 1.366 . S
C1458 C1462 1.385 . S
C1459 H1440 0.951 . S
C1459 C1457 1.388 1_545 S
C1459 C1460 1.366 1_545 S
C1460 C1459 1.366 1_565 S
C1460 C1461 1.414 . S
C1460 C1463 1.499 . S
C1461 H1441 0.950 . S
C1461 C1460 1.414 . S
C1461 C1462 1.374 . S
C1462 H1442 0.950 . S
C1462 C1458 1.385 . S
C1462 C1461 1.374 . S
C1463 C1460 1.499 . S
C1463 C1464 1.373 . S
C1463 C1465 1.389 1_565 S
C1464 H1443 0.950 . S
C1464 C1463 1.373 . S
C1464 C1480 1.377 . S
C1465 C1463 1.389 1_545 S
C1465 C1466 1.524 . S
C1465 C1479 1.377 . S
C1466 C1465 1.524 . S
C1466 C1467 1.397 . S
C1466 C1471 1.363 . S
C1467 H1444 0.950 . S
C1467 C1466 1.397 . S
C1467 C1468 1.334 . S
C1468 H1445 0.950 . S
C1468 C1467 1.334 . S
C1468 C1469 1.287 . S
C1469 C1468 1.287 . S
C1469 C1470 1.524 . S
C1469 H1488 0.913 . S
C1470 H1446 0.950 . S
C1470 C1469 1.524 . S
C1470 C1471 1.415 . S
C1471 H1447 0.950 . S
C1471 C1466 1.363 . S
C1471 C1470 1.415 . S
C1472 H1448 0.951 . S
C1472 C1473 1.366 . S
C1472 C1474 1.388 . S
C1473 C1472 1.366 . S
C1473 C1477 1.385 . S
C1474 H1449 0.951 1_545 S
C1474 C1472 1.388 . S
C1474 C1475 1.366 . S
C1475 C1474 1.366 . S
C1475 C1476 1.414 . S
C1475 C1478 1.499 . S
C1476 H1450 0.950 . S
C1476 C1475 1.414 . S
C1476 C1477 1.374 . S
C1477 H1451 0.950 . S
C1477 C1473 1.385 . S
C1477 C1476 1.374 . S
C1478 C1475 1.499 . S
C1478 C1479 1.373 . S
C1478 C1480 1.389 1_545 S
C1479 H1452 0.950 . S
C1479 C1465 1.377 . S
C1479 C1478 1.373 . S
C1480 C1464 1.377 . S
C1480 C1478 1.389 1_565 S
C1480 C1481 1.524 . S
C1481 C1480 1.524 . S
C1481 C1482 1.397 . S
C1481 C1486 1.363 . S
C1482 H1453 0.950 . S
C1482 C1481 1.397 . S
C1482 C1483 1.334 . S
C1483 H1454 0.950 . S
C1483 C1482 1.334 . S
C1483 C1484 1.287 . S
C1484 C1483 1.287 . S
C1484 C1485 1.524 . S
C1484 H1487 0.999 . S
C1485 H1455 0.950 . S
C1485 C1484 1.524 . S
C1485 C1486 1.415 . S
C1486 H1456 0.950 . S
C1486 C1481 1.363 . S
C1486 C1485 1.415 . S
H1487 C1484 0.999 . S
H1488 C1469 0.913 . S
H1489 C1507 0.951 . S
H1490 C1509 0.951 . S
H1491 C1511 0.950 . S
H1492 C1512 0.950 . S
H1493 C1514 0.950 . S
H1494 C1517 0.950 . S
H1495 C1518 0.950 . S
H1496 C1520 0.950 . S
H1497 C1521 0.950 . S
H1498 C1522 0.951 . S
H1499 C1524 0.951 . S
H1500 C1526 0.950 . S
H1501 C1527 0.950 . S
H1502 C1529 0.950 . S
H1503 C1532 0.950 . S
H1504 C1533 0.950 . S
H1505 C1535 0.950 . S
H1506 C1536 0.950 . S
C1507 H1489 0.951 . S
C1507 C1508 1.366 . S
C1507 C1509 1.388 . S
C1508 C1507 1.366 . S
C1508 C1512 1.385 . S
C1509 H1490 0.951 . S
C1509 C1507 1.388 . S
C1509 C1510 1.366 . S
C1510 C1509 1.366 . S
C1510 C1511 1.414 . S
C1510 C1513 1.499 . S
C1511 H1491 0.950 . S
C1511 C1510 1.414 . S
C1511 C1512 1.374 . S
C1512 H1492 0.950 . S
C1512 C1508 1.385 . S
C1512 C1511 1.374 . S
C1513 C1510 1.499 . S
C1513 C1514 1.373 1_655 S
C1513 C1515 1.389 . S
C1514 H1493 0.950 . S
C1514 C1513 1.373 1_455 S
C1514 C1530 1.377 . S
C1515 C1513 1.389 . S
C1515 C1516 1.524 . S
C1515 C1529 1.377 . S
C1516 C1515 1.524 . S
C1516 C1517 1.397 . S
C1516 C1521 1.363 . S
C1517 H1494 0.950 . S
C1517 C1516 1.397 . S
C1517 C1518 1.334 . S
C1518 H1495 0.950 . S
C1518 C1517 1.334 . S
C1518 C1519 1.287 . S
C1519 C1518 1.287 . S
C1519 C1520 1.524 . S
C1519 H1538 0.913 . S
C1520 H1496 0.950 . S
C1520 C1519 1.524 . S
C1520 C1521 1.415 . S
C1521 H1497 0.950 . S
C1521 C1516 1.363 . S
C1521 C1520 1.415 . S
C1522 H1498 0.951 . S
C1522 C1523 1.366 . S
C1522 C1524 1.388 . S
C1523 C1522 1.366 . S
C1523 C1527 1.385 . S
C1524 H1499 0.951 . S
C1524 C1522 1.388 . S
C1524 C1525 1.366 . S
C1525 C1524 1.366 . S
C1525 C1526 1.414 . S
C1525 C1528 1.499 . S
C1526 H1500 0.950 . S
C1526 C1525 1.414 . S
C1526 C1527 1.374 . S
C1527 H1501 0.950 . S
C1527 C1523 1.385 . S
C1527 C1526 1.374 . S
C1528 C1525 1.499 . S
C1528 C1529 1.373 1_455 S
C1528 C1530 1.389 . S
C1529 H1502 0.950 . S
C1529 C1515 1.377 . S
C1529 C1528 1.373 1_655 S
C1530 C1514 1.377 . S
C1530 C1528 1.389 . S
C1530 C1531 1.524 . S
C1531 C1530 1.524 . S
C1531 C1532 1.397 . S
C1531 C1536 1.363 . S
C1532 H1503 0.950 . S
C1532 C1531 1.397 . S
C1532 C1533 1.334 . S
C1533 H1504 0.950 . S
C1533 C1532 1.334 . S
C1533 C1534 1.287 . S
C1534 C1533 1.287 . S
C1534 C1535 1.524 . S
C1534 H1537 0.999 . S
C1535 H1505 0.950 . S
C1535 C1534 1.524 . S
C1535 C1536 1.415 . S
C1536 H1506 0.950 . S
C1536 C1531 1.363 . S
C1536 C1535 1.415 . S
H1537 C1534 0.999 . S
H1538 C1519 0.913 . S
C208 C40 0.882 . S
C223 C16 0.829 . S
C258 C62 0.881 . S
C273 C37 0.828 . S
C308 C45 0.830 . S
C323 C19 0.881 . S
C358 C58 0.852 . S
C373 C41 0.880 . S
C408 C61 0.882 . S
C423 C3 0.850 . S
C458 C20 0.882 . S
C473 C24 0.851 . S
C508 C79 0.828 . S
C523 C104 0.882 . S
C558 C125 0.882 . S
C573 C87 0.828 . S
C608 C108 0.831 1_655 S
C623 C82 0.880 . S
C658 C103 0.881 . S
C673 C121 0.828 . S
C708 C124 0.881 . S
C723 C66 0.831 . S
C758 C100 0.827 . S
C773 C83 0.883 . S
C808 C167 0.880 . S
C823 C142 0.829 . S
C858 C150 0.827 . S
C873 C188 0.883 . S
C908 C171 0.831 . S
C923 C145 0.880 . S
C958 C184 0.828 . S
C973 C166 0.881 . S
C1008 C187 0.882 . S
C1023 C129 0.828 1_565 S
C1058 C146 0.881 . S
C1073 C163 0.851 . S
C1108 C109 1.447 . S
C1123 C4 1.448 1_455 S
C1158 C70 1.448 . S
C1173 C25 1.448 . S
C1208 C49 1.447 1_565 S
C1223 C88 1.448 . S
C1258 C46 1.448 1_545 S
C1273 C130 1.448 . S
C1308 C7 1.447 1_655 S
C1323 C154 1.448 . S
C1358 C175 1.446 . S
C1373 C28 1.447 . S
C1408 C67 1.447 . S
C1423 C172 1.447 . S
C1458 C91 1.447 . S
C1473 C133 1.446 . S
C1508 C151 1.448 . S
C1523 C112 1.448 . S
