# Generated by pormake.
# Topology lcy-e, (6)-cn, num edge types: 1
# Building blocks:
#     Node 0, Type 0, BuildingBlock: VOLQOD_clean_sbu_1, # of connection points: 6
#     Node 1, Type 0, BuildingBlock: VOLQOD_clean_sbu_1, # of connection points: 6
#     Node 2, Type 0, BuildingBlock: VOLQOD_clean_sbu_1, # of connection points: 6
#     Node 3, Type 0, BuildingBlock: VOLQOD_clean_sbu_1, # of connection points: 6
#     Node 4, Type 0, BuildingBlock: VOLQOD_clean_sbu_1, # of connection points: 6
#     Node 5, Type 0, BuildingBlock: VOLQOD_clean_sbu_1, # of connection points: 6
#     Node 6, Type 0, BuildingBlock: VOLQOD_clean_sbu_1, # of connection points: 6
#     Node 7, Type 0, BuildingBlock: VOLQOD_clean_sbu_1, # of connection points: 6
#     Node 8, Type 0, BuildingBlock: VOLQOD_clean_sbu_1, # of connection points: 6
#     Node 9, Type 0, BuildingBlock: VOLQOD_clean_sbu_1, # of connection points: 6
#     Node 10, Type 0, BuildingBlock: VOLQOD_clean_sbu_1, # of connection points: 6
#     Node 11, Type 0, BuildingBlock: VOLQOD_clean_sbu_1, # of connection points: 6
#     Edge 12, Type (0, 0), BuildingBlock: ZUJKAS_clean_linker_0, # of connection points: 2
#     Edge 13, Type (0, 0), BuildingBlock: ZUJKAS_clean_linker_0, # of connection points: 2
#     Edge 14, Type (0, 0), BuildingBlock: ZUJKAS_clean_linker_0, # of connection points: 2
#     Edge 15, Type (0, 0), BuildingBlock: ZUJKAS_clean_linker_0, # of connection points: 2
#     Edge 16, Type (0, 0), BuildingBlock: ZUJKAS_clean_linker_0, # of connection points: 2
#     Edge 17, Type (0, 0), BuildingBlock: ZUJKAS_clean_linker_0, # of connection points: 2
#     Edge 18, Type (0, 0), BuildingBlock: ZUJKAS_clean_linker_0, # of connection points: 2
#     Edge 19, Type (0, 0), BuildingBlock: ZUJKAS_clean_linker_0, # of connection points: 2
#     Edge 20, Type (0, 0), BuildingBlock: ZUJKAS_clean_linker_0, # of connection points: 2
#     Edge 21, Type (0, 0), BuildingBlock: ZUJKAS_clean_linker_0, # of connection points: 2
#     Edge 22, Type (0, 0), BuildingBlock: ZUJKAS_clean_linker_0, # of connection points: 2
#     Edge 23, Type (0, 0), BuildingBlock: ZUJKAS_clean_linker_0, # of connection points: 2
#     Edge 24, Type (0, 0), BuildingBlock: ZUJKAS_clean_linker_0, # of connection points: 2
#     Edge 25, Type (0, 0), BuildingBlock: ZUJKAS_clean_linker_0, # of connection points: 2
#     Edge 26, Type (0, 0), BuildingBlock: ZUJKAS_clean_linker_0, # of connection points: 2
#     Edge 27, Type (0, 0), BuildingBlock: ZUJKAS_clean_linker_0, # of connection points: 2
#     Edge 28, Type (0, 0), BuildingBlock: ZUJKAS_clean_linker_0, # of connection points: 2
#     Edge 29, Type (0, 0), BuildingBlock: ZUJKAS_clean_linker_0, # of connection points: 2
#     Edge 30, Type (0, 0), BuildingBlock: ZUJKAS_clean_linker_0, # of connection points: 2
#     Edge 31, Type (0, 0), BuildingBlock: ZUJKAS_clean_linker_0, # of connection points: 2
#     Edge 32, Type (0, 0), BuildingBlock: ZUJKAS_clean_linker_0, # of connection points: 2
#     Edge 33, Type (0, 0), BuildingBlock: ZUJKAS_clean_linker_0, # of connection points: 2
#     Edge 34, Type (0, 0), BuildingBlock: ZUJKAS_clean_linker_0, # of connection points: 2
#     Edge 35, Type (0, 0), BuildingBlock: ZUJKAS_clean_linker_0, # of connection points: 2
#     Edge 36, Type (0, 0), BuildingBlock: ZUJKAS_clean_linker_0, # of connection points: 2
#     Edge 37, Type (0, 0), BuildingBlock: ZUJKAS_clean_linker_0, # of connection points: 2
#     Edge 38, Type (0, 0), BuildingBlock: ZUJKAS_clean_linker_0, # of connection points: 2
#     Edge 39, Type (0, 0), BuildingBlock: ZUJKAS_clean_linker_0, # of connection points: 2
#     Edge 40, Type (0, 0), BuildingBlock: ZUJKAS_clean_linker_0, # of connection points: 2
#     Edge 41, Type (0, 0), BuildingBlock: ZUJKAS_clean_linker_0, # of connection points: 2
#     Edge 42, Type (0, 0), BuildingBlock: ZUJKAS_clean_linker_0, # of connection points: 2
#     Edge 43, Type (0, 0), BuildingBlock: ZUJKAS_clean_linker_0, # of connection points: 2
#     Edge 44, Type (0, 0), BuildingBlock: ZUJKAS_clean_linker_0, # of connection points: 2
#     Edge 45, Type (0, 0), BuildingBlock: ZUJKAS_clean_linker_0, # of connection points: 2
#     Edge 46, Type (0, 0), BuildingBlock: ZUJKAS_clean_linker_0, # of connection points: 2
#     Edge 47, Type (0, 0), BuildingBlock: ZUJKAS_clean_linker_0, # of connection points: 2
# Relax obj value: 0.403
# Max RMSD: 0.291
# Mean RMSD: 0.282
data_MOF--net-lcy-e--node1-VOLQOD_clean_sbu_1--edge1-ZUJKAS_clean_linker_0
_symmetry_space_group_name_H-M    P1
_symmetry_Int_Tables_number       1
_symmetry_cell_setting            triclinic
loop_
_symmetry_equiv_pos_as_xyz
'x, y, z'
_cell_length_a     47.59724
_cell_length_b     47.717603
_cell_length_c     47.832915
_cell_angle_alpha  90.228853
_cell_angle_beta   90.64129
_cell_angle_gamma 90.365392
loop_
_atom_site_label
_atom_site_type_symbol
_atom_site_fract_x
_atom_site_fract_y
_atom_site_fract_z
_atom_type_partial_charge
O0 O 0.24649 0.1468 0.44974 0.0
Zn1 Zn 0.22312 0.15456 0.48403 0.0
O2 O 0.18745 0.17305 0.47349 0.0
Zn3 Zn 0.18513 0.20987 0.4907 0.0
Zn4 Zn 0.18535 0.17718 0.43318 0.0
Zn5 Zn 0.15488 0.15162 0.48565 0.0
O6 O 0.15682 0.21085 0.5214 0.0
O7 O 0.13366 0.17071 0.51645 0.0
O8 O 0.24735 0.18048 0.50854 0.0
O9 O 0.22166 0.21939 0.50869 0.0
O10 O 0.17601 0.24003 0.46282 0.0
O11 O 0.1792 0.21731 0.42244 0.0
O12 O 0.15304 0.15563 0.41689 0.0
O13 O 0.21518 0.11716 0.5033 0.0
O14 O 0.12872 0.14129 0.45351 0.0
O15 O 0.16833 0.11637 0.50278 0.0
C16 C 0.24245 0.15148 0.4238 0.0
C17 C 0.13767 0.19394 0.52907 0.0
C18 C 0.1751 0.23978 0.43621 0.0
C19 C 0.24381 0.20611 0.51521 0.0
C20 C 0.13175 0.14338 0.42715 0.0
C21 C 0.19181 0.10529 0.50891 0.0
O22 O 0.22013 0.16311 0.41487 0.0
O23 O 0.0339 0.74395 0.62157 0.0
Zn24 Zn 0.00354 0.77179 0.63195 0.0
O25 O 0.02117 0.80751 0.64358 0.0
Zn26 Zn 0.01511 0.81344 0.68296 0.0
Zn27 Zn 0.06113 0.80703 0.63679 0.0
Zn28 Zn 0.00541 0.83909 0.62362 0.0
O29 O 0.98535 0.84237 0.68937 0.0
O30 O 0.97784 0.86014 0.64722 0.0
O31 O 0.98126 0.75441 0.66437 0.0
O32 O -6e-05 0.77863 0.6999 0.0
O33 O 0.05055 0.82382 0.70359 0.0
O34 O 0.08315 0.81433 0.6722 0.0
O35 O 0.07304 0.83781 0.61139 0.0
O36 O 0.97942 0.77792 0.59677 0.0
O37 O 0.03557 0.86508 0.6084 0.0
O38 O 0.98313 0.82423 0.59158 0.0
C39 C 0.06008 0.74694 0.61686 0.0
C40 C 0.97211 0.85884 0.67311 0.0
C41 C 0.07622 0.82198 0.69668 0.0
C42 C 0.98506 0.75834 0.69061 0.0
C43 C 0.06143 0.86042 0.60353 0.0
C44 C 0.97396 0.80043 0.58344 0.0
O45 O 0.0727 0.77023 0.62083 0.0
O46 O 0.37473 0.83111 0.97441 0.0
Zn47 Zn 0.34671 0.80851 -0.00341 0.0
O48 O 0.30839 0.82286 0.99109 0.0
Zn49 Zn 0.29154 0.83195 0.02718 0.0
Zn50 Zn 0.30924 0.85602 0.96748 0.0
Zn51 Zn 0.28553 0.79493 0.97216 0.0
O52 O 0.25554 0.80958 0.03403 0.0
O53 O 0.25367 0.78301 0.99577 0.0
O54 O 0.35755 0.80785 0.03773 0.0
O55 O 0.31831 0.82192 0.05806 0.0
O56 O 0.2865 0.87391 0.03122 0.0
O57 O 0.30094 0.8901 0.99024 0.0
O58 O 0.28213 0.85377 0.93482 0.0
O59 O 0.35024 0.76936 0.98105 0.0
O60 O 0.26842 0.8094 0.9369 0.0
O61 O 0.30802 0.7611 0.96258 0.0
C62 C 0.37163 0.8505 0.95642 0.0
C63 C 0.24377 0.79049 0.01918 0.0
C64 C 0.29206 0.89425 0.01491 0.0
C65 C 0.34353 0.81334 0.05964 0.0
C66 C 0.26812 0.83313 0.92494 0.0
C67 C 0.33318 0.75358 0.96755 0.0
O68 O 0.34765 0.86119 0.95146 0.0
O69 O 0.45379 0.12841 0.1337 0.0
Zn70 Zn 0.47785 0.15309 0.15865 0.0
O71 O 0.47947 0.19117 0.1432 0.0
Zn72 Zn 0.51838 0.20375 0.13914 0.0
Zn73 Zn 0.46046 0.19255 0.10695 0.0
Zn74 Zn 0.46047 0.21641 0.16807 0.0
O75 O 0.52861 0.23558 0.16591 0.0
O76 O 0.48743 0.24284 0.18586 0.0
O77 O 0.51707 0.13669 0.16318 0.0
O78 O 0.54382 0.17227 0.14938 0.0
O79 O 0.52753 0.21227 0.09877 0.0
O80 O 0.48882 0.19741 0.07678 0.0
O81 O 0.43324 0.22481 0.10413 0.0
O82 O 0.45799 0.15241 0.19594 0.0
O83 O 0.43208 0.23946 0.14812 0.0
O84 O 0.44224 0.19598 0.19941 0.0
C85 C 0.4389 0.1329 0.11187 0.0
C86 C 0.51337 0.24853 0.18343 0.0
C87 C 0.51404 0.20648 0.07626 0.0
C88 C 0.54121 0.14735 0.15838 0.0
C89 C 0.42382 0.2412 0.12283 0.0
C90 C 0.44393 0.17108 0.20865 0.0
O91 O 0.43903 0.15667 0.09982 0.0
O92 O 0.6678 0.2512 0.4799 0.0
Zn93 Zn 0.63371 0.26444 0.49957 0.0
O94 O 0.64235 0.29905 0.51913 0.0
Zn95 Zn 0.64275 0.29234 0.55891 0.0
Zn96 Zn 0.67862 0.31404 0.50661 0.0
Zn97 Zn 0.61291 0.32558 0.51115 0.0
O98 O 0.61216 0.31305 0.57816 0.0
O99 O 0.58698 0.33162 0.54374 0.0
O100 O 0.62249 0.23355 0.52581 0.0
O101 O 0.63553 0.25168 0.56687 0.0
O102 O 0.67914 0.30524 0.5761 0.0
O103 O 0.70441 0.31953 0.53987 0.0
O104 O 0.67386 0.35255 0.4888 0.0
O105 O 0.60487 0.27055 0.46938 0.0
O106 O 0.63046 0.36238 0.50255 0.0
O107 O 0.59147 0.31446 0.4763 0.0
C108 C 0.69137 0.26187 0.47334 0.0
C109 C 0.59084 0.32661 0.56963 0.0
C110 C 0.70157 0.31548 0.56598 0.0
C111 C 0.62615 0.2313 0.55213 0.0
C112 C 0.65377 0.36981 0.49202 0.0
C113 C 0.5906 0.29184 0.4621 0.0
O114 O 0.69833 0.28661 0.481 0.0
O115 O 0.95795 0.2516 0.84775 0.0
Zn116 Zn 0.98545 0.28306 0.83975 0.0
O117 O 0.96483 0.31767 0.83286 0.0
Zn118 Zn 0.97411 0.33452 0.79774 0.0
Zn119 Zn 0.92524 0.31087 0.83288 0.0
Zn120 Zn 0.97337 0.34432 0.86148 0.0
O121 O 1e-05 0.36775 0.80275 0.0
O122 O 0.00422 0.37004 0.84894 0.0
O123 O 0.00797 0.27222 0.8053 0.0
O124 O 0.9962 0.3067 0.77635 0.0
O125 O 0.93955 0.34275 0.77431 0.0
O126 O 0.91035 0.312 0.79364 0.0
O127 O 0.90481 0.34101 0.85359 0.0
O128 O 0.00917 0.28695 0.87551 0.0
O129 O 0.93939 0.36672 0.87196 0.0
O130 O 0.98804 0.3239 0.89442 0.0
C131 C 0.93176 0.2518 0.85301 0.0
C132 C 0.01165 0.37789 0.82471 0.0
C133 C 0.91683 0.32845 0.77379 0.0
C134 C 0.00887 0.2838 0.78128 0.0
C135 C 0.91329 0.36224 0.86756 0.0
C136 C 0.00418 0.30282 0.89645 0.0
O137 O 0.91689 0.27364 0.84976 0.0
O138 O 0.86999 0.65514 0.02386 0.0
Zn139 Zn 0.84371 0.67813 0.0001 0.0
O140 O 0.80501 0.66452 0.00395 0.0
Zn141 Zn 0.78826 0.65797 0.96685 0.0
Zn142 Zn 0.8043 0.63015 0.02594 0.0
Zn143 Zn 0.7834 0.69208 0.02394 0.0
O144 O 0.75376 0.68215 0.96021 0.0
O145 O 0.75168 0.70543 0.00047 0.0
O146 O 0.85574 0.67833 0.95952 0.0
O147 O 0.81619 0.66735 0.93683 0.0
O148 O 0.77934 0.61679 0.96149 0.0
O149 O 0.79505 0.59762 0.00092 0.0
O150 O 0.77552 0.63124 0.05687 0.0
O151 O 0.84828 0.71729 0.01561 0.0
O152 O 0.76577 0.67655 0.05819 0.0
O153 O 0.80686 0.72534 0.03474 0.0
C154 C 0.8663 0.63506 0.04093 0.0
C155 C 0.74204 0.69994 0.97618 0.0
C156 C 0.78456 0.5953 0.97639 0.0
C157 C 0.84208 0.67432 0.93674 0.0
C158 C 0.76308 0.65197 0.06798 0.0
C159 C 0.83195 0.73288 0.02958 0.0
O160 O 0.84221 0.62373 0.04405 0.0
O161 O 0.54504 0.6194 0.35268 0.0
Zn162 Zn 0.52284 0.64571 0.32852 0.0
O163 O 0.52119 0.68251 0.3466 0.0
Zn164 Zn 0.48251 0.69206 0.35518 0.0
Zn165 Zn 0.5441 0.68318 0.38067 0.0
Zn166 Zn 0.53562 0.71019 0.32128 0.0
O167 O 0.46862 0.72544 0.33284 0.0
O168 O 0.50459 0.73257 0.30453 0.0
O169 O 0.48378 0.62968 0.32087 0.0
O170 O 0.45726 0.66106 0.34229 0.0
O171 O 0.4766 0.69544 0.39684 0.0
O172 O 0.51901 0.68588 0.41406 0.0
O173 O 0.571 0.71634 0.38182 0.0
O174 O 0.54488 0.64734 0.2927 0.0
O175 O 0.56157 0.73654 0.3411 0.0
O176 O 0.55709 0.69219 0.2903 0.0
C177 C 0.56225 0.62306 0.37299 0.0
C178 C 0.47953 0.73766 0.31188 0.0
C179 C 0.49308 0.69114 0.41757 0.0
C180 C 0.45977 0.63834 0.3286 0.0
C181 C 0.57453 0.73624 0.36449 0.0
C182 C 0.55825 0.66721 0.28099 0.0
O183 O 0.5654 0.64694 0.38473 0.0
O184 O 0.14342 0.47302 0.2331 0.0
Zn185 Zn 0.14976 0.5021 0.20291 0.0
O186 O 0.15636 0.48326 0.16743 0.0
Zn187 Zn 0.18956 0.49749 0.14989 0.0
Zn188 Zn 0.16074 0.44368 0.17216 0.0
Zn189 Zn 0.12493 0.48993 0.14304 0.0
O190 O 0.1797 0.52626 0.12119 0.0
O191 O 0.13332 0.52249 0.11741 0.0
O192 O 0.18475 0.52414 0.21478 0.0
O193 O 0.21303 0.51695 0.17877 0.0
O194 O 0.21289 0.46646 0.13371 0.0
O195 O 0.1993 0.43158 0.16116 0.0
O196 O 0.13561 0.42223 0.14587 0.0
O197 O 0.11453 0.52639 0.19938 0.0
O198 O 0.11447 0.45524 0.12094 0.0
O199 O 0.09244 0.50216 0.16576 0.0
C200 C 0.14565 0.44638 0.23328 0.0
C201 C 0.15636 0.53448 0.11101 0.0
C202 C 0.21588 0.44164 0.14297 0.0
C203 C 0.20858 0.52689 0.20305 0.0
C204 C 0.1197 0.42951 0.12567 0.0
C205 C 0.09232 0.5204 0.18525 0.0
O206 O 0.15245 0.43275 0.21145 0.0
O207 O 0.7192 0.96373 0.81425 0.0
Zn208 Zn 0.69739 0.98705 0.84083 0.0
O209 O 0.66454 0.00039 0.82165 0.0
Zn210 Zn 0.67048 0.03907 0.813 0.0
Zn211 Zn 0.65628 0.97796 0.78858 0.0
Zn212 Zn 0.63288 -0.00318 0.84553 0.0
O213 O 0.64782 0.06401 0.83839 0.0
O214 O 0.62351 0.03349 0.86353 0.0
O215 O 0.72331 0.01867 0.8525 0.0
O216 O 0.71068 0.04974 0.82028 0.0
O217 O 0.66004 0.04584 0.77296 0.0
O218 O 0.64705 0.00394 0.75645 0.0
O219 O 0.62219 0.95279 0.79592 0.0
O220 O 0.68668 0.96236 0.87268 0.0
O221 O 0.59995 0.98268 0.82356 0.0
O222 O 0.64042 0.9674 0.87474 0.0
C223 C 0.71457 0.95297 0.79024 0.0
C224 C 0.63069 0.0586 0.85796 0.0
C225 C 0.65059 0.03025 0.75324 0.0
C226 C 0.72779 0.04124 0.83905 0.0
C227 C 0.59991 0.96093 0.80808 0.0
C228 C 0.66304 0.95588 0.88314 0.0
O229 O 0.69105 0.95605 0.77755 0.0
O230 O 0.86084 0.95323 0.35612 0.0
Zn231 Zn 0.83286 0.97682 0.33526 0.0
O232 O 0.84301 0.97915 0.29597 0.0
Zn233 Zn 0.84586 0.01803 0.28443 0.0
Zn234 Zn 0.87857 0.96049 0.29013 0.0
Zn235 Zn 0.81476 0.9605 0.27347 0.0
O236 O 0.81631 0.02808 0.25516 0.0
O237 O 0.79133 0.98861 0.25331 0.0
O238 O 0.82906 0.0152 0.35321 0.0
O239 O 0.83782 0.04275 0.31702 0.0
O240 O 0.88572 0.02831 0.27456 0.0
O241 O 0.90876 0.98964 0.28654 0.0
O242 O 0.87789 0.9376 0.2546 0.0
O243 O 0.79677 0.95521 0.33971 0.0
O244 O 0.83238 0.93664 0.24407 0.0
O245 O 0.7891 0.93745 0.2973 0.0
C246 C 0.87984 0.9363 0.34829 0.0
C247 C 0.79487 0.01415 0.2466 0.0
C248 C 0.90863 0.01524 0.27904 0.0
C249 C 0.83179 0.03953 0.34263 0.0
C250 C 0.85759 0.92985 0.23875 0.0
C251 C 0.78317 0.93898 0.32317 0.0
O252 O 0.88785 0.93543 0.32295 0.0
O253 O 0.35068 0.53757 0.638 0.0
Zn254 Zn 0.32126 0.51465 0.65746 0.0
O255 O 0.33003 0.51304 0.69735 0.0
Zn256 Zn 0.32735 0.47471 0.71083 0.0
Zn257 Zn 0.3676 0.52766 0.70455 0.0
Zn258 Zn 0.30372 0.53577 0.71728 0.0
O259 O 0.29629 0.46926 0.73911 0.0
O260 O 0.27764 0.51172 0.73898 0.0
O261 O 0.31913 0.47561 0.64038 0.0
O262 O 0.31863 0.44931 0.67861 0.0
O263 O 0.36507 0.46073 0.72408 0.0
O264 O 0.39357 0.49557 0.71169 0.0
O265 O 0.36856 0.55257 0.73865 0.0
O266 O 0.2849 0.53548 0.65049 0.0
O267 O 0.32324 0.56058 0.74528 0.0
O268 O 0.27931 0.55751 0.69106 0.0
C269 C 0.37266 0.55085 0.64604 0.0
C270 C 0.27732 0.4863 0.74681 0.0
C271 C 0.38969 0.47071 0.72055 0.0
C272 C 0.3173 0.45172 0.65215 0.0
C273 C 0.34892 0.56432 0.75213 0.0
C274 C 0.27225 0.5534 0.6656 0.0
O275 O 0.38148 0.54958 0.67127 0.0
H276 H 0.24417 0.22035 0.56972 0.0
H277 H 0.27 0.26008 0.59025 0.0
H278 H 0.31601 0.26993 0.51373 0.0
H279 H 0.29031 0.22985 0.49325 0.0
H280 H 0.33338 0.27944 0.59297 0.0
H281 H 0.25952 0.33951 0.52479 0.0
H282 H 0.25266 0.30345 0.53388 0.0
H283 H 0.27992 0.31176 0.50966 0.0
C284 C 0.26085 0.2301 0.55789 0.0
C285 C 0.2657 0.22196 0.53018 0.0
C286 C 0.27546 0.25284 0.56952 0.0
C287 C 0.29471 0.26794 0.55338 0.0
C288 C 0.30129 0.25839 0.52647 0.0
H289 H 0.32739 0.44493 0.59601 0.0
H290 H 0.32717 0.40078 0.56947 0.0
C291 C 0.28681 0.23543 0.51491 0.0
C292 C 0.30382 0.296 0.56307 0.0
H293 H 0.28504 0.36474 0.55862 0.0
C294 C 0.32326 0.29821 0.58518 0.0
C295 C 0.29064 0.32037 0.55268 0.0
C296 C 0.26943 0.31892 0.529 0.0
C297 C 0.32912 0.32419 0.59791 0.0
C298 C 0.31442 0.34829 0.58881 0.0
C299 C 0.29617 0.34625 0.56566 0.0
C300 C 0.31542 0.37503 0.60468 0.0
C301 C 0.35067 0.32545 0.62125 0.0
C302 C 0.30805 0.3753 0.63298 0.0
C303 C 0.30818 0.40031 0.6481 0.0
C304 C 0.31526 0.42578 0.63516 0.0
C305 C 0.32179 0.42568 0.60656 0.0
C306 C 0.32186 0.40047 0.59143 0.0
H307 H 0.36676 0.30889 0.61872 0.0
H308 H 0.36141 0.34617 0.62217 0.0
H309 H 0.3401 0.32178 0.64148 0.0
H310 H 0.30196 0.35612 0.64339 0.0
H311 H 0.30273 0.39963 0.67001 0.0
H312 H 0.76133 0.93102 0.81461 0.0
H313 H 0.80417 0.91607 0.79157 0.0
H314 H 0.76523 0.92982 0.711 0.0
H315 H 0.72183 0.94448 0.73399 0.0
H316 H 0.79871 0.88121 0.71361 0.0
H317 H 0.85598 0.97408 0.75548 0.0
H318 H 0.8396 0.95354 0.78217 0.0
H319 H 0.81819 0.97094 0.75641 0.0
C320 C 0.76169 0.93052 0.79197 0.0
C321 C 0.73831 0.93926 0.7761 0.0
C322 C 0.78626 0.92215 0.77886 0.0
C323 C 0.78811 0.92268 0.74965 0.0
C324 C 0.76427 0.92962 0.73362 0.0
H325 H 0.93197 0.8868 0.64289 0.0
H326 H 0.88715 0.90459 0.65987 0.0
C327 C 0.73948 0.93784 0.74676 0.0
C328 C 0.81529 0.91689 0.73613 0.0
H329 H 0.88399 0.93802 0.7354 0.0
C330 C 0.8173 0.89379 0.71806 0.0
C331 C 0.83944 0.93352 0.74188 0.0
C332 C 0.83821 0.95957 0.75982 0.0
C333 C 0.84316 0.88616 0.70652 0.0
C334 C 0.86743 0.90224 0.71308 0.0
C335 C 0.8653 0.92573 0.73055 0.0
C336 C 0.89548 0.89409 0.70309 0.0
C337 C 0.84463 0.86041 0.68821 0.0
C338 C 0.91533 0.88338 0.72201 0.0
C339 C 0.94096 0.87322 0.71245 0.0
C340 C 0.94723 0.8738 0.68379 0.0
C341 C 0.92785 0.88602 0.6651 0.0
C342 C 0.90214 0.89602 0.67469 0.0
H343 H 0.82483 0.84796 0.68852 0.0
H344 H 0.84861 0.86683 0.66632 0.0
H345 H 0.86226 0.84682 0.69502 0.0
H346 H 0.91056 0.88194 0.74406 0.0
H347 H 0.95541 0.86404 0.72742 0.0
H348 H 0.19815 0.77171 0.99027 0.0
H349 H 0.16732 0.733 0.00364 0.0
H350 H 0.20776 0.73059 0.08482 0.0
H351 H 0.23762 0.7702 0.07188 0.0
H352 H 0.18897 0.68455 0.01127 0.0
H353 H 0.13013 0.70932 0.10664 0.0
H354 H 0.14622 0.73629 0.08569 0.0
H355 H 0.16649 0.71797 0.11186 0.0
C356 C 0.1995 0.7637 0.01141 0.0
C357 C 0.2202 0.77383 0.03008 0.0
C358 C 0.18197 0.74153 0.019 0.0
C359 C 0.18516 0.72876 0.04523 0.0
C360 C 0.20434 0.7404 0.06471 0.0
H361 H 0.20097 0.56088 0.08729 0.0
H362 H 0.20212 0.60768 0.06731 0.0
C363 C 0.22152 0.76303 0.05729 0.0
C364 C 0.1727 0.70059 0.05012 0.0
H365 H 0.14224 0.65991 0.10003 0.0
C366 C 0.17809 0.6794 0.0304 0.0
C367 C 0.15815 0.69368 0.07481 0.0
C368 C 0.14966 0.71565 0.09576 0.0
C369 C 0.17119 0.65134 0.03561 0.0
C370 C 0.15921 0.64411 0.0615 0.0
C371 C 0.15184 0.66544 0.08032 0.0
C372 C 0.15738 0.61459 0.07076 0.0
C373 C 0.17763 0.62959 0.01365 0.0
C374 C 0.13179 0.60283 0.0793 0.0
C375 C 0.13106 0.57591 0.09084 0.0
C376 C 0.156 0.56055 0.09436 0.0
C377 C 0.18138 0.57208 0.08483 0.0
C378 C 0.18206 0.59883 0.07325 0.0
H379 H 0.17701 0.6388 0.99235 0.0
H380 H 0.19913 0.62143 0.01734 0.0
H381 H 0.16256 0.61175 0.01436 0.0
H382 H 0.11255 0.61475 0.0777 0.0
H383 H 0.1112 0.56774 0.0982 0.0
H384 H 0.54713 0.09843 0.18811 0.0
H385 H 0.59114 0.07422 0.19957 0.0
H386 H 0.63762 0.13548 0.15251 0.0
H387 H 0.59411 0.15966 0.14092 0.0
H388 H 0.65347 0.07748 0.14326 0.0
H389 H 0.6507 0.10879 0.25543 0.0
H390 H 0.61969 0.09177 0.24157 0.0
H391 H 0.62957 0.12575 0.22895 0.0
C392 C 0.5667 0.10659 0.18002 0.0
C393 C 0.56712 0.13112 0.16383 0.0
C394 C 0.59179 0.09282 0.18667 0.0
C395 C 0.61758 0.10331 0.17711 0.0
C396 C 0.61793 0.12714 0.16015 0.0
H397 H 0.7855 0.07056 0.2413 0.0
H398 H 0.74355 0.09292 0.22155 0.0
C399 C 0.593 0.14098 0.15366 0.0
C400 C 0.64446 0.09021 0.18544 0.0
H401 H 0.68826 0.08013 0.24142 0.0
C402 C 0.66109 0.07794 0.16472 0.0
C403 C 0.65447 0.09136 0.21335 0.0
C404 C 0.63787 0.10529 0.23617 0.0
C405 C 0.68741 0.06641 0.1713 0.0
C406 C 0.69717 0.06712 0.19931 0.0
C407 C 0.68067 0.07967 0.21995 0.0
C408 C 0.72398 0.05406 0.20798 0.0
C409 C 0.70472 0.05386 0.14824 0.0
C410 C 0.727 0.02491 0.20643 0.0
C411 C 0.75081 0.01211 0.21771 0.0
C412 C 0.77209 0.02823 0.23082 0.0
C413 C 0.7696 0.05757 0.23122 0.0
C414 C 0.74561 0.07036 0.22007 0.0
H415 H 0.69753 0.06096 0.12727 0.0
H416 H 0.72727 0.05943 0.15101 0.0
H417 H 0.70278 0.03069 0.14891 0.0
H418 H 0.71039 0.01194 0.19753 0.0
H419 H 0.75208 0.98946 0.21701 0.0
H420 H 0.7485 0.26854 0.46828 0.0
H421 H 0.78119 0.2361 0.44559 0.0
H422 H 0.71152 0.18302 0.42086 0.0
H423 H 0.67896 0.21497 0.44321 0.0
H424 H 0.78629 0.17641 0.45914 0.0
H425 H 0.75718 0.19472 0.34825 0.0
H426 H 0.74971 0.21961 0.37572 0.0
H427 H 0.7274 0.18945 0.3704 0.0
C428 C 0.74018 0.25018 0.45761 0.0
C429 C 0.71117 0.2443 0.45754 0.0
C430 C 0.75885 0.23166 0.44482 0.0
C431 C 0.74866 0.20737 0.43142 0.0
C432 C 0.71972 0.20186 0.4308 0.0
H433 H 0.80332 0.04349 0.39203 0.0
H434 H 0.7887 0.08654 0.4156 0.0
C435 C 0.70117 0.22011 0.4437 0.0
C436 C 0.76794 0.18669 0.41913 0.0
H437 H 0.77984 0.15117 0.35856 0.0
C438 C 0.78539 0.17117 0.43705 0.0
C439 C 0.76686 0.18015 0.39033 0.0
C440 C 0.74948 0.19703 0.36998 0.0
C441 C 0.80061 0.14814 0.42709 0.0
C442 C 0.7979 0.14037 0.39862 0.0
C443 C 0.78171 0.15696 0.38046 0.0
C444 C 0.8103 0.11439 0.38722 0.0
C445 C 0.81907 0.13215 0.44718 0.0
C446 C 0.82735 0.11574 0.36356 0.0
C447 C 0.83536 0.09125 0.34988 0.0
C448 C 0.82646 0.06489 0.35959 0.0
C449 C 0.8106 0.06347 0.38414 0.0
C450 C 0.80238 0.08807 0.39772 0.0
H451 H 0.82593 0.14553 0.46508 0.0
H452 H 0.807 0.11419 0.45567 0.0
H453 H 0.83796 0.12386 0.43661 0.0
H454 H 0.83365 0.13581 0.35509 0.0
H455 H 0.84783 0.09307 0.33116 0.0
H456 H 0.02998 0.40514 0.77804 0.0
H457 H 0.07644 0.42592 0.77107 0.0
H458 H 0.09809 0.40979 0.85728 0.0
H459 H 0.05142 0.38986 0.86472 0.0
H460 H 0.12046 0.45875 0.83999 0.0
H461 H 0.14325 0.3747 0.76354 0.0
H462 H 0.1131 0.39483 0.75357 0.0
H463 H 0.11236 0.37423 0.78502 0.0
C464 C 0.04442 0.40653 0.79566 0.0
C465 C 0.03714 0.39549 0.82182 0.0
C466 C 0.07104 0.41817 0.79159 0.0
C467 C 0.09101 0.41849 0.81342 0.0
C468 C 0.08311 0.40943 0.84007 0.0
H469 H 0.26814 0.43387 0.76881 0.0
H470 H 0.22502 0.41664 0.79056 0.0
C471 C 0.05636 0.39811 0.84428 0.0
C472 C 0.1205 0.42678 0.80806 0.0
H473 H 0.17592 0.41273 0.76577 0.0
C474 C 0.1327 0.44858 0.82391 0.0
C475 C 0.13677 0.41286 0.78774 0.0
C476 C 0.12582 0.38765 0.77172 0.0
C477 C 0.16032 0.45769 0.81906 0.0
C478 C 0.17581 0.44514 0.79728 0.0
C479 C 0.164 0.42254 0.78231 0.0
C480 C 0.20333 0.45633 0.78808 0.0
C481 C 0.17257 0.48058 0.83741 0.0
C482 C 0.20561 0.48439 0.77982 0.0
C483 C 0.23021 0.49432 0.76773 0.0
C484 C 0.25297 0.47626 0.76307 0.0
C485 C 0.25102 0.44832 0.77208 0.0
C486 C 0.22639 0.43845 0.78449 0.0
H487 H 0.16308 0.48026 0.85853 0.0
H488 H 0.19571 0.47858 0.83974 0.0
H489 H 0.16785 0.50124 0.82796 0.0
H490 H 0.1879 0.4984 0.78154 0.0
H491 H 0.23084 0.51594 0.76095 0.0
H492 H 0.70679 0.92858 0.90779 0.0
H493 H 0.70553 0.88258 0.92939 0.0
H494 H 0.61505 0.88139 0.92311 0.0
H495 H 0.6161 0.92742 0.90063 0.0
H496 H 0.681 0.85938 0.97518 0.0
H497 H 0.63699 0.81314 0.87676 0.0
H498 H 0.64981 0.84875 0.87858 0.0
H499 H 0.61657 0.83973 0.89362 0.0
C500 C 0.68654 0.91885 0.9114 0.0
C501 C 0.66159 0.93148 0.90203 0.0
C502 C 0.68585 0.89251 0.92381 0.0
C503 C 0.66024 0.87829 0.9272 0.0
C504 C 0.63507 0.89176 0.92004 0.0
H505 H 0.69615 0.71667 0.00473 0.0
H506 H 0.66627 0.75661 0.99307 0.0
C507 C 0.63572 0.91819 0.90747 0.0
C508 C 0.66078 0.84866 0.93617 0.0
H509 H 0.6534 0.78198 0.91077 0.0
C510 C 0.67445 0.84235 0.96144 0.0
C511 C 0.65235 0.82662 0.91796 0.0
C512 C 0.63827 0.83222 0.89012 0.0
C513 C 0.68178 0.81479 0.96817 0.0
C514 C 0.67426 0.79277 0.94948 0.0
C515 C 0.65894 0.79888 0.92506 0.0
C516 C 0.68567 0.76419 0.95309 0.0
C517 C 0.69944 0.80992 0.99413 0.0
C518 C 0.70444 0.75357 0.93325 0.0
C519 C 0.7209 0.73021 0.93949 0.0
C520 C 0.71898 0.71754 0.9658 0.0
C521 C 0.69812 0.72635 0.98438 0.0
C522 C 0.68124 0.74926 0.97786 0.0
H523 H 0.70802 0.82978 0.00305 0.0
H524 H 0.68635 0.79986 0.01034 0.0
H525 H 0.71733 0.79587 0.98953 0.0
H526 H 0.70803 0.76467 0.91388 0.0
H527 H 0.73692 0.72386 0.9249 0.0
H528 H 0.45414 0.59365 0.29235 0.0
H529 H 0.41007 0.57332 0.27408 0.0
H530 H 0.36279 0.62879 0.32677 0.0
H531 H 0.4063 0.64914 0.34515 0.0
H532 H 0.35923 0.54952 0.30484 0.0
H533 H 0.33966 0.64585 0.24249 0.0
H534 H 0.37409 0.63684 0.25579 0.0
H535 H 0.34827 0.65096 0.27888 0.0
C536 C 0.43438 0.60121 0.30036 0.0
C537 C 0.43378 0.62325 0.31996 0.0
C538 C 0.40927 0.58959 0.28991 0.0
C539 C 0.38332 0.59989 0.29888 0.0
C540 C 0.38266 0.62083 0.31942 0.0
H541 H 0.21342 0.53892 0.25917 0.0
H542 H 0.25515 0.55716 0.28403 0.0
C543 C 0.40762 0.63241 0.32987 0.0
C544 C 0.35683 0.59013 0.28564 0.0
H545 H 0.30391 0.61135 0.24206 0.0
C546 C 0.34705 0.56296 0.29114 0.0
C547 C 0.34121 0.60781 0.26771 0.0
C548 C 0.35132 0.63695 0.26061 0.0
C549 C 0.32181 0.55299 0.27916 0.0
C550 C 0.30604 0.5708 0.26147 0.0
C551 C 0.31594 0.59793 0.25592 0.0
C552 C 0.28029 0.56099 0.24681 0.0
C553 C 0.31246 0.52333 0.28493 0.0
C554 C 0.28046 0.55799 0.21769 0.0
C555 C 0.25682 0.54771 0.2035 0.0
C556 C 0.23238 0.5404 0.21815 0.0
C557 C 0.2319 0.54438 0.2473 0.0
C558 C 0.25575 0.55456 0.26154 0.0
H559 H 0.32926 0.51089 0.29525 0.0
H560 H 0.29399 0.52369 0.29888 0.0
H561 H 0.30602 0.51263 0.2652 0.0
H562 H 0.29917 0.56304 0.20597 0.0
H563 H 0.25788 0.54508 0.18103 0.0
H564 H 0.56558 0.24412 0.20712 0.0
H565 H 0.57865 0.26154 0.25374 0.0
H566 H 0.50259 0.31001 0.25633 0.0
H567 H 0.48921 0.29243 0.20999 0.0
H568 H 0.58172 0.31565 0.28519 0.0
H569 H 0.49349 0.24478 0.31441 0.0
H570 H 0.5089 0.24429 0.28013 0.0
H571 H 0.48517 0.27176 0.2896 0.0
C572 C 0.5523 0.25949 0.21706 0.0
C573 C 0.52618 0.26659 0.20521 0.0
C574 C 0.55971 0.26931 0.24376 0.0
C575 C 0.54119 0.28647 0.25861 0.0
C576 C 0.5169 0.29643 0.24529 0.0
H577 H 0.56806 0.3363 0.43373 0.0
H578 H 0.55345 0.33722 0.38453 0.0
C579 C 0.50937 0.28646 0.21879 0.0
C580 C 0.54476 0.28989 0.28914 0.0
H581 H 0.51767 0.26764 0.35109 0.0
C582 C 0.56762 0.30546 0.29967 0.0
C583 C 0.52647 0.2761 0.30784 0.0
C584 C 0.50223 0.25809 0.29756 0.0
C585 C 0.57278 0.30746 0.32859 0.0
C586 C 0.55443 0.29371 0.34724 0.0
C587 C 0.53145 0.27838 0.33667 0.0
C588 C 0.56011 0.29295 0.37766 0.0
C589 C 0.59837 0.32336 0.33895 0.0
C590 C 0.56724 0.26748 0.39032 0.0
C591 C 0.57541 0.2668 0.4184 0.0
C592 C 0.57649 0.29161 0.43437 0.0
C593 C 0.56753 0.31682 0.42204 0.0
C594 C 0.55944 0.31747 0.39387 0.0
H595 H 0.61295 0.32859 0.32174 0.0
H596 H 0.59166 0.34323 0.34892 0.0
H597 H 0.60993 0.31099 0.35492 0.0
H598 H 0.5676 0.24829 0.37815 0.0
H599 H 0.58204 0.24701 0.42724 0.0
H600 H 0.09883 0.16074 0.5553 0.0
H601 H 0.07626 0.16961 0.60018 0.0
H602 H 0.11807 0.24987 0.60599 0.0
H603 H 0.14091 0.24122 0.56139 0.0
H604 H 0.12281 0.2158 0.65498 0.0
H605 H 0.01246 0.22581 0.61649 0.0
H606 H 0.03104 0.19485 0.60607 0.0
H607 H 0.04217 0.22847 0.59349 0.0
C608 C 0.10297 0.18044 0.56593 0.0
C609 C 0.12166 0.2003 0.55468 0.0
C610 C 0.09005 0.18544 0.59158 0.0
C611 C 0.0955 0.21039 0.60631 0.0
C612 C 0.11371 0.23043 0.59494 0.0
H613 H 0.01903 0.3062 0.73022 0.0
H614 H 0.04046 0.28395 0.69011 0.0
C615 C 0.12661 0.22549 0.56936 0.0
C616 C 0.08265 0.21575 0.6338 0.0
H617 H 0.02049 0.23161 0.66474 0.0
C618 C 0.10039 0.21891 0.65727 0.0
C619 C 0.05343 0.21979 0.63656 0.0
C620 C 0.03357 0.21727 0.61185 0.0
C621 C 0.08976 0.227 0.68332 0.0
C622 C 0.06066 0.23182 0.68586 0.0
C623 C 0.04279 0.22765 0.66265 0.0
C624 C 0.04882 0.24484 0.71117 0.0
C625 C 0.10976 0.23175 0.70758 0.0
C626 C 0.04677 0.23023 0.7365 0.0
C627 C 0.03443 0.24297 0.75977 0.0
C628 C 0.02394 0.27042 0.75787 0.0
C629 C 0.02668 0.285 0.7325 0.0
C630 C 0.0389 0.27232 0.70945 0.0
H631 H 0.13208 0.22959 0.70141 0.0
H632 H 0.10671 0.253 0.71657 0.0
H633 H 0.10529 0.21629 0.72424 0.0
H634 H 0.05422 0.20889 0.73809 0.0
H635 H 0.03256 0.23117 0.77896 0.0
H636 H 0.93352 0.73186 0.68653 0.0
H637 H 0.90673 0.71179 0.72555 0.0
H638 H 0.97758 0.72576 0.78088 0.0
H639 H 0.00413 0.74586 0.74249 0.0
H640 H 0.9202 0.66682 0.76964 0.0
H641 H 0.91081 0.77541 0.81055 0.0
H642 H 0.91962 0.76785 0.77468 0.0
H643 H 0.94591 0.76519 0.80177 0.0
C644 C 0.94356 0.72991 0.70685 0.0
C645 C 0.97077 0.74072 0.71157 0.0
C646 C 0.92824 0.71856 0.7291 0.0
C647 C 0.94008 0.71779 0.75614 0.0
C648 C 0.96796 0.72654 0.76026 0.0
H649 H 0.89596 0.69254 0.92753 0.0
H650 H 0.91843 0.70096 0.88257 0.0
C651 C 0.98309 0.73799 0.73827 0.0
C652 C 0.92297 0.71048 0.78078 0.0
H653 H 0.89825 0.73865 0.84138 0.0
C654 C 0.91504 0.68249 0.78521 0.0
C655 C 0.91629 0.73105 0.80099 0.0
C656 C 0.92335 0.76162 0.79675 0.0
C657 C 0.90155 0.67438 0.80998 0.0
C658 C 0.8957 0.69488 0.83057 0.0
C659 C 0.90298 0.72294 0.82569 0.0
C660 C 0.88248 0.68782 0.85761 0.0
C661 C 0.89457 0.64386 0.81443 0.0
C662 C 0.85479 0.67769 0.85849 0.0
C663 C 0.84183 0.67293 0.88417 0.0
C664 C 0.85629 0.6783 0.90952 0.0
C665 C 0.88418 0.68814 0.9085 0.0
C666 C 0.89708 0.69296 0.88281 0.0
H667 H 0.90564 0.63007 0.79943 0.0
H668 H 0.90019 0.6374 0.83605 0.0
H669 H 0.87163 0.6406 0.81147 0.0
H670 H 0.84296 0.67407 0.83933 0.0
H671 H 0.82032 0.66538 0.88411 0.0
H672 H 0.49725 0.7749 0.27272 0.0
H673 H 0.46943 0.79435 0.23445 0.0
H674 H 0.39431 0.75823 0.2692 0.0
H675 H 0.4221 0.73845 0.30766 0.0
H676 H 0.40556 0.74108 0.21447 0.0
H677 H 0.4115 0.85679 0.22348 0.0
H678 H 0.44501 0.84003 0.22703 0.0
H679 H 0.41838 0.83381 0.25268 0.0
C680 C 0.47469 0.77176 0.27271 0.0
C681 C 0.46191 0.75494 0.2931 0.0
C682 C 0.45879 0.78305 0.25088 0.0
C683 C 0.42981 0.77782 0.24906 0.0
C684 C 0.41666 0.7626 0.27036 0.0
H685 H 0.32277 0.8302 0.10994 0.0
H686 H 0.3428 0.82224 0.15644 0.0
C687 C 0.43255 0.75142 0.29237 0.0
C688 C 0.41434 0.78465 0.22298 0.0
H689 H 0.39884 0.83814 0.17831 0.0
C690 C 0.40374 0.76234 0.20674 0.0
C691 C 0.41202 0.81238 0.21297 0.0
C692 C 0.42209 0.83717 0.23006 0.0
C693 C 0.39173 0.76693 0.18027 0.0
C694 C 0.39057 0.79451 0.16973 0.0
C695 C 0.40018 0.81697 0.18636 0.0
C696 C 0.37929 0.80032 0.14145 0.0
C697 C 0.38053 0.74224 0.16368 0.0
C698 C 0.3935 0.79098 0.11764 0.0
C699 C 0.38219 0.79556 0.09095 0.0
C700 C 0.35641 0.80947 0.08768 0.0
C701 C 0.34256 0.81924 0.11166 0.0
C702 C 0.35398 0.81481 0.13828 0.0
H703 H 0.37762 0.72342 0.17697 0.0
H704 H 0.36013 0.74741 0.15352 0.0
H705 H 0.39563 0.73693 0.14698 0.0
H706 H 0.41325 0.77999 0.11975 0.0
H707 H 0.39342 0.78783 0.07295 0.0
H708 H 0.16713 0.24582 0.38002 0.0
H709 H 0.15597 0.2885 0.35452 0.0
H710 H 0.15681 0.33557 0.43164 0.0
H711 H 0.16811 0.29278 0.45762 0.0
H712 H 0.10726 0.32618 0.36528 0.0
H713 H 0.21274 0.37694 0.37685 0.0
H714 H 0.20814 0.3396 0.38105 0.0
H715 H 0.19563 0.36316 0.40732 0.0
C716 C 0.16504 0.26519 0.39167 0.0
C717 C 0.16861 0.26587 0.42088 0.0
C718 C 0.15855 0.28954 0.37704 0.0
C719 C 0.15567 0.31508 0.39124 0.0
C720 C 0.15914 0.31601 0.42036 0.0
H721 H 0.14504 0.46675 0.28709 0.0
H722 H 0.14239 0.43929 0.33034 0.0
C723 C 0.16555 0.29155 0.43512 0.0
C724 C 0.14925 0.34051 0.375 0.0
H725 H 0.18104 0.39686 0.34485 0.0
C726 C 0.12314 0.34203 0.36124 0.0
C727 C 0.16992 0.36124 0.3701 0.0
C728 C 0.19828 0.36035 0.38447 0.0
C729 C 0.11779 0.36279 0.34129 0.0
C730 C 0.13931 0.3821 0.33465 0.0
C731 C 0.16462 0.38194 0.34998 0.0
C732 C 0.13778 0.39938 0.30911 0.0
C733 C 0.08956 0.36316 0.32665 0.0
C734 C 0.13608 0.38598 0.28301 0.0
C735 C 0.13779 0.40143 0.25847 0.0
C736 C 0.14129 0.43069 0.25947 0.0
C737 C 0.14221 0.44425 0.28565 0.0
C738 C 0.14072 0.42864 0.31034 0.0
H739 H 0.07289 0.3543 0.34016 0.0
H740 H 0.08361 0.38477 0.32052 0.0
H741 H 0.09052 0.35006 0.30747 0.0
H742 H 0.13443 0.36335 0.28161 0.0
H743 H 0.13695 0.39032 0.23868 0.0
H744 H 0.9807 0.76566 0.53835 0.0
H745 H 0.96267 0.77441 0.49068 0.0
H746 H 0.91407 0.84362 0.52179 0.0
H747 H 0.93206 0.83515 0.56892 0.0
H748 H 0.8871 0.80941 0.47731 0.0
H749 H 0.99534 0.84751 0.45356 0.0
H750 H 0.99061 0.81249 0.46668 0.0
H751 H 0.98427 0.84195 0.48908 0.0
C752 C 0.96535 0.78202 0.53503 0.0
C753 C 0.95775 0.79982 0.55711 0.0
C754 C 0.95529 0.78714 0.50786 0.0
C755 C 0.93736 0.80989 0.50276 0.0
C756 C 0.92789 0.82599 0.5253 0.0
H757 H 0.86796 0.93289 0.40384 0.0
H758 H 0.88236 0.89682 0.43673 0.0
C759 C 0.93815 0.82113 0.55219 0.0
C760 C 0.93102 0.81978 0.47414 0.0
H761 H 0.95895 0.86157 0.42362 0.0
C762 C 0.9029 0.82016 0.4651 0.0
C763 C 0.95171 0.83375 0.45826 0.0
C764 C 0.98221 0.83413 0.46725 0.0
C765 C 0.89465 0.83569 0.4416 0.0
C766 C 0.91499 0.8517 0.42723 0.0
C767 C 0.94341 0.84946 0.43486 0.0
C768 C 0.90676 0.87347 0.40678 0.0
C769 C 0.86405 0.83572 0.43305 0.0
C770 C 0.91678 0.87303 0.3793 0.0
C771 C 0.90876 0.8939 0.36036 0.0
C772 C 0.89077 0.91565 0.36871 0.0
C773 C 0.88164 0.91641 0.39656 0.0
C774 C 0.88962 0.89562 0.41537 0.0
H775 H 0.85342 0.81596 0.43932 0.0
H776 H 0.85335 0.85331 0.44371 0.0
H777 H 0.86148 0.83842 0.41012 0.0
H778 H 0.9304 0.85633 0.37242 0.0
H779 H 0.9162 0.89268 0.33907 0.0
H780 H 0.40098 0.58026 0.77228 0.0
H781 H 0.41148 0.60609 0.81572 0.0
H782 H 0.32287 0.61151 0.83251 0.0
H783 H 0.31213 0.58606 0.78951 0.0
H784 H 0.39015 0.66129 0.83067 0.0
H785 H 0.35833 0.5795 0.90575 0.0
H786 H 0.36764 0.57169 0.87001 0.0
H787 H 0.33305 0.5842 0.87805 0.0
C788 C 0.38375 0.58698 0.78524 0.0
C789 C 0.35571 0.58106 0.77744 0.0
C790 C 0.38982 0.60159 0.81004 0.0
C791 C 0.36796 0.61006 0.82751 0.0
C792 C 0.34004 0.60454 0.81957 0.0
H793 H 0.30166 0.71194 0.94366 0.0
H794 H 0.3182 0.67371 0.91445 0.0
C795 C 0.33395 0.59021 0.79481 0.0
C796 C 0.37359 0.62619 0.85337 0.0
H797 H 0.35545 0.62755 0.92208 0.0
C798 C 0.38347 0.65378 0.85092 0.0
C799 C 0.36502 0.6161 0.87967 0.0
C800 C 0.35568 0.58613 0.88364 0.0
C801 C 0.38222 0.67249 0.87356 0.0
C802 C 0.37121 0.66303 0.89927 0.0
C803 C 0.36378 0.63474 0.90232 0.0
C804 C 0.36234 0.68308 0.921 0.0
C805 C 0.39029 0.70278 0.8691 0.0
C806 C 0.38176 0.70027 0.9353 0.0
C807 C 0.37233 0.72233 0.95205 0.0
C808 C 0.34336 0.72742 0.95461 0.0
C809 C 0.32409 0.70881 0.94187 0.0
C810 C 0.33351 0.68685 0.92525 0.0
H811 H 0.39565 0.7072 0.84699 0.0
H812 H 0.37283 0.71674 0.87529 0.0
H813 H 0.40884 0.7081 0.88238 0.0
H814 H 0.40411 0.69738 0.93256 0.0
H815 H 0.38771 0.73622 0.96173 0.0
H816 H 0.49253 0.19283 0.02483 0.0
H817 H 0.51898 0.18042 0.98346 0.0
H818 H 0.59581 0.20732 0.02431 0.0
H819 H 0.56954 0.21903 0.06644 0.0
H820 H 0.55685 0.20329 0.94626 0.0
H821 H 0.60703 0.1234 0.01501 0.0
H822 H 0.57797 0.14434 0.02648 0.0
H823 H 0.61263 0.15938 0.02479 0.0
C824 C 0.51498 0.19672 0.02494 0.0
C825 C 0.52901 0.20618 0.04928 0.0
C826 C 0.53007 0.18973 0.00113 0.0
C827 C 0.55943 0.19224 0.0011 0.0
C828 C 0.5732 0.2046 0.02419 0.0
H829 H 0.6474 0.11384 0.85869 0.0
H830 H 0.63283 0.15042 0.89156 0.0
C831 C 0.55812 0.21139 0.04821 0.0
C832 C 0.5753 0.17802 0.97874 0.0
H833 H 0.6147 0.1197 0.96714 0.0
C834 C 0.56998 0.18533 0.95076 0.0
C835 C 0.59214 0.15438 0.98475 0.0
C836 C 0.5977 0.14467 0.01432 0.0
C837 C 0.57999 0.16885 0.92862 0.0
C838 C 0.59587 0.14469 0.93478 0.0
C839 C 0.60246 0.13828 0.96264 0.0
C840 C 0.60319 0.12388 0.91313 0.0
C841 C 0.57216 0.17632 0.89896 0.0
C842 C 0.59123 0.09699 0.91436 0.0
C843 C 0.59955 0.0761 0.89585 0.0
C844 C 0.62009 0.08165 0.87569 0.0
C845 C 0.63146 0.10891 0.87391 0.0
C846 C 0.62313 0.12986 0.89259 0.0
H847 H 0.55698 0.19389 0.89795 0.0
H848 H 0.59135 0.18257 0.88753 0.0
H849 H 0.56284 0.15785 0.88802 0.0
H850 H 0.57578 0.09202 0.93008 0.0
H851 H 0.59025 0.05542 0.89775 0.0
H852 H 0.62162 0.17915 0.52814 0.0
H853 H 0.61631 0.13418 0.55238 0.0
H854 H 0.61217 0.17784 0.63132 0.0
H855 H 0.61757 0.22255 0.60752 0.0
H856 H 0.6556 0.11646 0.59409 0.0
H857 H 0.54785 0.11946 0.63585 0.0
H858 H 0.55871 0.1403 0.60632 0.0
H859 H 0.56635 0.15193 0.64146 0.0
C860 C 0.61905 0.17914 0.55062 0.0
C861 C 0.62017 0.20435 0.56598 0.0
C862 C 0.61599 0.15348 0.56437 0.0
C863 C 0.61339 0.15279 0.59353 0.0
C864 C 0.61352 0.17799 0.60873 0.0
H865 H 0.66915 0.08058 0.73434 0.0
H866 H 0.65797 0.103 0.68997 0.0
C867 C 0.61692 0.2035 0.59511 0.0
C868 C 0.61416 0.12605 0.60893 0.0
H869 H 0.58217 0.09304 0.66317 0.0
C870 C 0.63917 0.11067 0.60854 0.0
C871 C 0.59259 0.11838 0.62753 0.0
C872 C 0.56474 0.13324 0.62764 0.0
C873 C 0.64431 0.08973 0.62837 0.0
C874 C 0.62396 0.08423 0.64891 0.0
C875 C 0.59781 0.09753 0.64746 0.0
C876 C 0.63143 0.06917 0.67473 0.0
C877 C 0.67227 0.07505 0.62858 0.0
C878 C 0.61998 0.04278 0.68077 0.0
C879 C 0.62652 0.02971 0.70617 0.0
C880 C 0.6441 0.04322 0.72596 0.0
C881 C 0.65543 0.06967 0.71965 0.0
C882 C 0.64922 0.08245 0.69425 0.0
H883 H 0.6824 0.07597 0.60779 0.0
H884 H 0.68647 0.08546 0.64405 0.0
H885 H 0.66979 0.05278 0.6348 0.0
H886 H 0.606 0.03241 0.66594 0.0
H887 H 0.61742 0.00935 0.71053 0.0
H888 H 0.0847 0.43628 0.0805 0.0
H889 H 0.07112 0.401 0.04572 0.0
H890 H 0.11782 0.33834 0.09096 0.0
H891 H 0.13126 0.37335 0.12617 0.0
H892 H 0.11055 0.37016 0.01351 0.0
H893 H 0.04044 0.30063 0.07536 0.0
H894 H 0.04895 0.33593 0.08642 0.0
H895 H 0.0747 0.30882 0.08957 0.0
C896 C 0.0918 0.41494 0.08332 0.0
C897 C 0.1091 0.40769 0.10611 0.0
C898 C 0.08408 0.39483 0.06339 0.0
C899 C 0.09344 0.36711 0.06587 0.0
C900 C 0.11013 0.35955 0.08889 0.0
H901 H 0.05641 0.28042 0.90677 0.0
H902 H 0.08356 0.28534 0.95062 0.0
C903 C 0.11781 0.37965 0.10892 0.0
C904 C 0.08663 0.34676 0.0434 0.0
H905 H 0.04369 0.29143 0.02729 0.0
C906 C 0.09636 0.35256 0.01648 0.0
C907 C 0.06842 0.32372 0.04765 0.0
C908 C 0.05732 0.31681 0.07624 0.0
C909 C 0.08655 0.33736 0.99321 0.0
C910 C 0.06688 0.31537 -0.00285 0.0
C911 C 0.05894 0.30813 0.0244 0.0
C912 C 0.04968 0.30466 0.97343 0.0
C913 C 0.09543 0.34663 0.96445 0.0
C914 C 0.02121 0.3119 0.9725 0.0
C915 C 0.00581 0.30897 0.94781 0.0
C916 C 0.01856 0.2987 0.92354 0.0
C917 C 0.04619 0.28859 0.92517 0.0
C918 C 0.06173 0.29155 0.95011 0.0
H919 H 0.10844 0.36605 0.9651 0.0
H920 H 0.10799 0.32987 0.95454 0.0
H921 H 0.07672 0.35051 0.95097 0.0
H922 H 0.01142 0.32191 0.99026 0.0
H923 H 0.98436 0.31646 0.94726 0.0
H924 H 0.90802 0.90889 0.22089 0.0
H925 H 0.91658 0.88181 0.17814 0.0
H926 H 0.8286 0.88669 0.15632 0.0
H927 H 0.81985 0.91368 0.1985 0.0
H928 H 0.8922 0.8305 0.16409 0.0
H929 H 0.86646 0.9089 0.08346 0.0
H930 H 0.87445 0.91843 0.1193 0.0
H931 H 0.83958 0.90703 0.10936 0.0
C932 C 0.89055 0.90435 0.20687 0.0
C933 C 0.86324 0.91345 0.21313 0.0
C934 C 0.89552 0.889 0.18244 0.0
C935 C 0.87334 0.88287 0.16379 0.0
C936 C 0.84615 0.8919 0.17003 0.0
H937 H 0.80162 0.77506 0.05267 0.0
H938 H 0.81938 0.81422 0.08066 0.0
C939 C 0.84114 0.90707 0.19437 0.0
C940 C 0.87758 0.86488 0.13899 0.0
H941 H 0.85904 0.85998 0.07006 0.0
C942 C 0.88585 0.83707 0.14329 0.0
C943 C 0.86951 0.87366 0.11189 0.0
C944 C 0.8623 0.90375 0.10567 0.0
C945 C 0.88348 0.81709 0.1218 0.0
C946 C 0.8729 0.82539 0.09536 0.0
C947 C 0.86699 0.8537 0.09042 0.0
C948 C 0.86321 0.8044 0.07459 0.0
C949 C 0.89002 0.78685 0.12816 0.0
C950 C 0.88207 0.78655 0.0611 0.0
C951 C 0.87196 0.76403 0.045 0.0
C952 C 0.84285 0.75907 0.04237 0.0
C953 C 0.82414 0.77811 0.05452 0.0
C954 C 0.83425 0.80058 0.07043 0.0
H955 H 0.89562 0.78358 0.15051 0.0
H956 H 0.87169 0.77329 0.12275 0.0
H957 H 0.90796 0.77994 0.11526 0.0
H958 H 0.90452 0.78941 0.0639 0.0
H959 H 0.88691 0.74977 0.03581 0.0
H960 H 0.35576 0.56404 0.59298 0.0
H961 H 0.37907 0.59503 0.55993 0.0
H962 H 0.44582 0.61033 0.61979 0.0
H963 H 0.42261 0.57931 0.65329 0.0
H964 H 0.3971 0.65548 0.57103 0.0
H965 H 0.48301 0.58145 0.5443 0.0
H966 H 0.45026 0.56947 0.55891 0.0
H967 H 0.47544 0.58756 0.58062 0.0
C968 C 0.37545 0.57386 0.5992 0.0
C969 C 0.38738 0.56906 0.6258 0.0
C970 C 0.38864 0.59169 0.5803 0.0
C971 C 0.4141 0.60487 0.58748 0.0
C972 C 0.42618 0.60021 0.61392 0.0
H973 H 0.52172 0.68895 0.46741 0.0
H974 H 0.5033 0.6739 0.51242 0.0
C975 C 0.4129 0.58247 0.63298 0.0
C976 C 0.42805 0.62308 0.56686 0.0
H977 H 0.48097 0.62361 0.51948 0.0
C978 C 0.41564 0.64875 0.55992 0.0
C979 C 0.4523 0.61424 0.55267 0.0
C980 C 0.46612 0.58664 0.55927 0.0
C981 C 0.42655 0.66563 0.5386 0.0
C982 C 0.45002 0.65615 0.5234 0.0
C983 C 0.46301 0.63092 0.53114 0.0
C984 C 0.46016 0.67057 0.49796 0.0
C985 C 0.41277 0.69336 0.53255 0.0
C986 C 0.44191 0.6746 0.47507 0.0
C987 C 0.45232 0.68351 0.44937 0.0
C988 C 0.4813 0.68803 0.44593 0.0
C989 C 0.4993 0.68553 0.46931 0.0
C990 C 0.48882 0.67689 0.49507 0.0
H991 H 0.40266 0.70199 0.55153 0.0
H992 H 0.42813 0.70899 0.5247 0.0
H993 H 0.39609 0.69025 0.51641 0.0
H994 H 0.41984 0.66925 0.47654 0.0
H995 H 0.43789 0.68501 0.43178 0.0
H996 H 0.23531 0.13777 0.369 0.0
H997 H 0.27166 0.13205 0.33388 0.0
H998 H 0.33564 0.14593 0.39719 0.0
H999 H 0.29926 0.15028 0.43267 0.0
H1000 H 0.3047 0.17168 0.31856 0.0
H1001 H 0.37158 0.08425 0.35428 0.0
H1002 H 0.33755 0.09103 0.36906 0.0
H1003 H 0.36802 0.11045 0.38094 0.0
C1004 C 0.25716 0.13898 0.37552 0.0
C1005 C 0.26451 0.14458 0.40351 0.0
C1006 C 0.27792 0.13567 0.35545 0.0
C1007 C 0.30646 0.13835 0.36284 0.0
C1008 C 0.31387 0.14302 0.39102 0.0
H1009 H 0.4283 0.20619 0.25043 0.0
H1010 H 0.3968 0.19592 0.28902 0.0
C1011 C 0.29305 0.14573 0.41127 0.0
C1012 C 0.32793 0.13983 0.34059 0.0
H1013 H 0.39196 0.11541 0.32037 0.0
C1014 C 0.32359 0.15907 0.31886 0.0
C1015 C 0.3525 0.12325 0.34072 0.0
C1016 C 0.35756 0.10088 0.36236 0.0
C1017 C 0.34329 0.16266 0.29766 0.0
C1018 C 0.36863 0.14736 0.29872 0.0
C1019 C 0.37273 0.12748 0.31992 0.0
C1020 C 0.39103 0.15221 0.27801 0.0
C1021 C 0.33656 0.1827 0.27419 0.0
C1022 C 0.39962 0.13059 0.2601 0.0
C1023 C 0.41809 0.13631 0.23823 0.0
C1024 C 0.42797 0.16377 0.23393 0.0
C1025 C 0.42061 0.18494 0.25294 0.0
C1026 C 0.40257 0.17912 0.27495 0.0
H1027 H 0.31356 0.18596 0.27189 0.0
H1028 H 0.34642 0.20335 0.27884 0.0
H1029 H 0.34475 0.17496 0.25395 0.0
H1030 H 0.39109 0.10962 0.26228 0.0
H1031 H 0.42348 0.11959 0.22392 0.0
H1032 H 0.16187 0.09184 0.55425 0.0
H1033 H 0.15004 0.04478 0.57033 0.0
H1034 H 0.20539 0.00939 0.50893 0.0
H1035 H 0.21774 0.05693 0.49302 0.0
H1036 H 0.14619 0.99212 0.50612 0.0
H1037 H 0.19174 0.98077 0.61264 0.0
H1038 H 0.17512 0.01394 0.60659 0.0
H1039 H 0.20586 0.00479 0.58715 0.0
C1040 C 0.17232 0.07405 0.54492 0.0
C1041 C 0.19084 0.07783 0.52262 0.0
C1042 C 0.16558 0.04721 0.55411 0.0
C1043 C 0.17698 0.02367 0.54093 0.0
C1044 C 0.19662 0.02738 0.51952 0.0
H1045 H 0.11805 0.85895 0.59509 0.0
H1046 H 0.14813 0.89611 0.57704 0.0
C1047 C 0.20379 0.05443 0.51059 0.0
C1048 C 0.16509 0.99573 0.54713 0.0
H1049 H 0.15206 0.95134 0.60123 0.0
C1050 C 0.14793 0.98282 0.52672 0.0
C1051 C 0.16737 0.98375 0.574 0.0
C1052 C 0.18622 -0.00363 0.59632 0.0
C1053 C 0.13175 0.95902 0.53301 0.0
C1054 C 0.13274 0.94807 0.56039 0.0
C1055 C 0.15112 0.96003 0.58032 0.0
C1056 C 0.1141 0.92489 0.56916 0.0
C1057 C 0.11326 0.94613 0.51054 0.0
C1058 C 0.08493 0.92878 0.57057 0.0
C1059 C 0.06757 0.90761 0.58104 0.0
C1060 C 0.07914 0.88218 0.59027 0.0
C1061 C 0.10835 0.87821 0.58815 0.0
C1062 C 0.12565 0.89942 0.57787 0.0
H1063 H 0.11988 0.95259 0.48931 0.0
H1064 H 0.11357 0.92289 0.51177 0.0
H1065 H 0.09129 0.95308 0.51355 0.0
H1066 H 0.0757 0.9485 0.56429 0.0
H1067 H 0.04521 0.91138 0.58244 0.0
H1068 H 0.07044 0.82887 0.75302 0.0
H1069 H 0.10743 0.83792 0.78762 0.0
H1070 H 0.1691 0.84003 0.72222 0.0
H1071 H 0.13228 0.83014 0.68746 0.0
H1072 H 0.18573 0.80756 0.76361 0.0
H1073 H 0.15017 0.90778 0.80858 0.0
H1074 H 0.12265 0.88201 0.80952 0.0
H1075 H 0.13577 0.89375 0.77633 0.0
C1076 C 0.09182 0.83155 0.74593 0.0
C1077 C 0.09843 0.82874 0.7175 0.0
C1078 C 0.11292 0.837 0.76572 0.0
C1079 C 0.14094 0.84027 0.75743 0.0
C1080 C 0.14757 0.83781 0.72903 0.0
H1081 H 0.266 0.87842 0.88967 0.0
H1082 H 0.23844 0.8826 0.84625 0.0
C1083 C 0.12651 0.83208 0.70922 0.0
C1084 C 0.16349 0.8437 0.77875 0.0
H1085 H 0.18119 0.88013 0.83796 0.0
C1086 C 0.18502 0.82376 0.77955 0.0
C1087 C 0.16297 0.86517 0.79922 0.0
C1088 C 0.1418 0.88856 0.79819 0.0
C1089 C 0.20495 0.82362 0.80131 0.0
C1090 C 0.2028 0.84351 0.82317 0.0
C1091 C 0.18247 0.8646 0.82141 0.0
C1092 C 0.21984 0.84122 0.84906 0.0
C1093 C 0.22778 0.80182 0.80094 0.0
C1094 C 0.218 0.81684 0.8652 0.0
C1095 C 0.23366 0.81435 0.8898 0.0
C1096 C 0.25127 0.83636 0.89902 0.0
C1097 C 0.25268 0.86107 0.88311 0.0
C1098 C 0.23701 0.86349 0.85831 0.0
H1099 H 0.2324 0.79502 0.77923 0.0
H1100 H 0.24747 0.80984 0.81084 0.0
H1101 H 0.22067 0.7831 0.81266 0.0
H1102 H 0.20425 0.79974 0.85884 0.0
H1103 H 0.23181 0.79514 0.90165 0.0
H1104 H 0.40913 0.13175 0.06252 0.0
H1105 H 0.37637 0.09537 0.04598 0.0
H1106 H 0.39244 0.04742 0.12058 0.0
H1107 H 0.42527 0.0835 0.13732 0.0
H1108 H 0.39097 0.03587 0.03888 0.0
H1109 H 0.30423 0.05322 0.11369 0.0
H1110 H 0.33022 0.07981 0.10603 0.0
H1111 H 0.33898 0.0512 0.1287 0.0
C1112 C 0.4057 0.11348 0.07544 0.0
C1113 C 0.41986 0.11053 0.10124 0.0
C1114 C 0.38692 0.0928 0.06599 0.0
C1115 C 0.38169 0.06905 0.08232 0.0
C1116 C 0.39586 0.0659 0.10795 0.0
H1117 H 0.3 0.91037 0.06924 0.0
H1118 H 0.31718 0.95614 0.08515 0.0
C1119 C 0.41481 0.08642 0.11733 0.0
C1120 C 0.36269 0.04666 0.07188 0.0
H1121 H 0.30156 0.01187 0.08584 0.0
C1122 C 0.37123 0.03079 0.04885 0.0
C1123 C 0.33713 0.04011 0.08519 0.0
C1124 C 0.32687 0.05706 0.10967 0.0
C1125 C 0.3554 0.00772 0.03935 0.0
C1126 C 0.32982 0.00096 0.05273 0.0
C1127 C 0.32101 0.01724 0.07548 0.0
C1128 C 0.31329 0.97576 0.04459 0.0
C1129 C 0.36699 0.99003 0.01594 0.0
C1130 C 0.30358 0.97222 0.01699 0.0
C1131 C 0.29408 0.94599 0.00775 0.0
C1132 C 0.2936 0.9231 0.02615 0.0
C1133 C 0.30014 0.9276 0.05456 0.0
C1134 C 0.31007 0.95374 0.06367 0.0
H1135 H 0.38974 0.99407 0.01271 0.0
H1136 H 0.36402 0.96735 0.02023 0.0
H1137 H 0.35574 0.99506 0.99617 0.0
H1138 H 0.30511 0.98922 0.00214 0.0
H1139 H 0.28883 0.94322 0.98581 0.0
H1140 H 0.9054 0.37491 0.74248 0.0
H1141 H 0.86894 0.37932 0.70601 0.0
H1142 H 0.84929 0.29131 0.71413 0.0
H1143 H 0.88436 0.28726 0.75142 0.0
H1144 H 0.85912 0.35716 0.65633 0.0
H1145 H 0.77381 0.32407 0.72617 0.0
H1146 H 0.80877 0.33167 0.73906 0.0
H1147 H 0.80019 0.29754 0.72487 0.0
C1148 C 0.89326 0.35658 0.73634 0.0
C1149 C 0.89723 0.33087 0.74998 0.0
C1150 C 0.87249 0.35909 0.71558 0.0
C1151 C 0.8558 0.33583 0.708 0.0
C1152 C 0.86112 0.30978 0.72042 0.0
H1153 H 0.75733 0.30583 0.55934 0.0
H1154 H 0.79505 0.31497 0.59339 0.0
C1155 C 0.88129 0.30743 0.74156 0.0
C1156 C 0.83251 0.33854 0.68743 0.0
H1157 H 0.76393 0.32038 0.67688 0.0
C1158 C 0.83815 0.34952 0.66088 0.0
C1159 C 0.80494 0.32945 0.69366 0.0
C1160 C 0.79652 0.32036 0.72261 0.0
C1161 C 0.81727 0.35031 0.63994 0.0
C1162 C 0.79043 0.33869 0.64541 0.0
C1163 C 0.78455 0.32892 0.67239 0.0
C1164 C 0.76825 0.33542 0.62355 0.0
C1165 C 0.82424 0.36383 0.61239 0.0
C1166 C 0.74044 0.34307 0.62937 0.0
C1167 C 0.71878 0.33666 0.61051 0.0
C1168 C 0.72464 0.32319 0.58515 0.0
C1169 C 0.75247 0.31647 0.57873 0.0
C1170 C 0.77405 0.32203 0.59803 0.0
H1171 H 0.84036 0.38057 0.61523 0.0
H1172 H 0.83311 0.34784 0.59815 0.0
H1173 H 0.80537 0.37309 0.60228 0.0
H1174 H 0.73537 0.35341 0.64886 0.0
H1175 H 0.69743 0.3422 0.61574 0.0
H1176 H 0.85614 0.36121 0.85969 0.0
H1177 H 0.82243 0.3972 0.87328 0.0
H1178 H 0.88947 0.44548 0.91161 0.0
H1179 H 0.92334 0.40994 0.89797 0.0
H1180 H 0.8091 0.41979 0.9265 0.0
H1181 H 0.85272 0.50012 0.85579 0.0
H1182 H 0.86071 0.46332 0.8524 0.0
H1183 H 0.87928 0.48474 0.87767 0.0
C1184 C 0.86372 0.37943 0.87113 0.0
C1185 C 0.89251 0.38282 0.87753 0.0
C1186 C 0.84441 0.39993 0.87884 0.0
C1187 C 0.8536 0.42416 0.89292 0.0
C1188 C 0.8821 0.42715 0.9002 0.0
H1189 H 0.79694 0.54522 0.00079 0.0
H1190 H 0.80444 0.50087 0.97717 0.0
C1191 C 0.9014 0.40673 0.89251 0.0
C1192 C 0.8337 0.44664 0.90003 0.0
H1193 H 0.82519 0.51712 0.89406 0.0
C1194 C 0.81218 0.44102 0.91905 0.0
C1195 C 0.8372 0.47408 0.88959 0.0
C1196 C 0.85854 0.4809 0.86749 0.0
C1197 C 0.79557 0.46271 0.92971 0.0
C1198 C 0.8011 0.49064 0.92145 0.0
C1199 C 0.82105 0.49578 0.90066 0.0
C1200 C 0.78979 0.51513 0.93665 0.0
C1201 C 0.77283 0.45556 0.95023 0.0
C1202 C 0.77852 0.53794 0.92193 0.0
C1203 C 0.77468 0.56368 0.93535 0.0
C1204 C 0.78215 0.56702 0.96372 0.0
C1205 C 0.79111 0.54347 0.9789 0.0
C1206 C 0.79512 0.51787 0.96544 0.0
H1207 H 0.76366 0.43456 0.9456 0.0
H1208 H 0.78206 0.45483 0.97162 0.0
H1209 H 0.75573 0.47129 0.9499 0.0
H1210 H 0.77433 0.5363 0.89967 0.0
H1211 H 0.76754 0.58134 0.92308 0.0
H1212 H 0.74302 0.60231 0.08929 0.0
H1213 H 0.70892 0.59649 0.12705 0.0
H1214 H 0.70617 0.68614 0.13813 0.0
H1215 H 0.74004 0.69221 0.10086 0.0
H1216 H 0.71186 0.65327 0.18898 0.0
H1217 H 0.62372 0.61831 0.11909 0.0
H1218 H 0.65679 0.60037 0.11674 0.0
H1219 H 0.65431 0.63615 0.10575 0.0
C1220 C 0.7353 0.62075 0.09993 0.0
C1221 C 0.74412 0.64773 0.09194 0.0
C1222 C 0.71573 0.61738 0.12135 0.0
C1223 C 0.70487 0.64092 0.13507 0.0
C1224 C 0.71427 0.66773 0.12768 0.0
H1225 H 0.58997 0.70428 0.25133 0.0
H1226 H 0.62537 0.69369 0.21648 0.0
C1227 C 0.7336 0.67113 0.10631 0.0
C1228 C 0.68336 0.63824 0.15696 0.0
H1229 H 0.61309 0.62727 0.16614 0.0
C1230 C 0.69035 0.64716 0.18413 0.0
C1231 C 0.65538 0.63017 0.1505 0.0
C1232 C 0.64686 0.6208 0.12145 0.0
C1233 C 0.66985 0.64929 0.2048 0.0
C1234 C 0.64158 0.64277 0.19792 0.0
C1235 C 0.6348 0.63239 0.1712 0.0
C1236 C 0.61865 0.64884 0.21759 0.0
C1237 C 0.67848 0.65911 0.23368 0.0
C1238 C 0.60238 0.62715 0.22886 0.0
C1239 C 0.58195 0.63312 0.24881 0.0
C1240 C 0.57742 0.66092 0.25762 0.0
C1241 C 0.59299 0.68263 0.24524 0.0
C1242 C 0.61336 0.67663 0.22541 0.0
H1243 H 0.70123 0.65568 0.23775 0.0
H1244 H 0.6744 0.68191 0.23558 0.0
H1245 H 0.66622 0.64812 0.24999 0.0
H1246 H 0.60604 0.60559 0.22283 0.0
H1247 H 0.57029 0.61591 0.25787 0.0
H1248 H 0.68007 0.38932 0.44516 0.0
H1249 H 0.67341 0.43572 0.42396 0.0
H1250 H 0.62567 0.46174 0.49555 0.0
H1251 H 0.63167 0.41558 0.51634 0.0
H1252 H 0.59637 0.46313 0.44462 0.0
H1253 H 0.69943 0.51833 0.4382 0.0
H1254 H 0.6983 0.48244 0.42646 0.0
H1255 H 0.69303 0.49033 0.46271 0.0
C1256 C 0.66899 0.40532 0.45669 0.0
C1257 C 0.65611 0.39891 0.48218 0.0
C1258 C 0.66524 0.43178 0.44463 0.0
C1259 C 0.64903 0.4521 0.45823 0.0
C1260 C 0.63821 0.44633 0.48473 0.0
H1261 H 0.59497 0.61992 0.42043 0.0
H1262 H 0.61877 0.57851 0.439 0.0
C1263 C 0.64162 0.41996 0.49655 0.0
C1264 C 0.63933 0.47746 0.44344 0.0
H1265 H 0.66035 0.54015 0.4163 0.0
C1266 C 0.61037 0.47996 0.43839 0.0
C1267 C 0.65769 0.4993 0.43545 0.0
C1268 C 0.68886 0.49773 0.44108 0.0
C1269 C 0.59913 0.50388 0.42588 0.0
C1270 C 0.61743 0.52569 0.41761 0.0
C1271 C 0.64647 0.52324 0.42251 0.0
C1272 C 0.60631 0.55143 0.40462 0.0
C1273 C 0.56763 0.50591 0.42228 0.0
C1274 C 0.59206 0.54997 0.37885 0.0
C1275 C 0.57821 0.57341 0.36834 0.0
C1276 C 0.57859 0.59886 0.38331 0.0
C1277 C 0.59411 0.60061 0.40847 0.0
C1278 C 0.60784 0.57704 0.41905 0.0
H1279 H 0.55635 0.49046 0.43543 0.0
H1280 H 0.56019 0.52724 0.42771 0.0
H1281 H 0.56189 0.50167 0.40011 0.0
H1282 H 0.59098 0.53043 0.36725 0.0
H1283 H 0.56681 0.57143 0.34869 0.0
H1284 H 0.23035 0.38952 0.16079 0.0
H1285 H 0.26696 0.35934 0.14272 0.0
H1286 H 0.28859 0.42186 0.08159 0.0
H1287 H 0.25203 0.4527 0.09993 0.0
H1288 H 0.27419 0.33778 0.0881 0.0
H1289 H 0.36325 0.40651 0.123 0.0
H1290 H 0.32804 0.41151 0.1356 0.0
H1291 H 0.33671 0.42134 0.10056 0.0
C1292 C 0.24284 0.39699 0.14353 0.0
C1293 C 0.23839 0.42364 0.13195 0.0
C1294 C 0.26367 0.37961 0.13312 0.0
C1295 C 0.28048 0.38843 0.11091 0.0
C1296 C 0.27598 0.41483 0.09895 0.0
H1297 H 0.40297 0.25488 0.07069 0.0
H1298 H 0.36974 0.2925 0.05936 0.0
C1299 C 0.25512 0.43239 0.10947 0.0
C1300 C 0.30331 0.36994 0.10153 0.0
H1301 H 0.37394 0.36085 0.10913 0.0
C1302 C 0.29613 0.34296 0.09193 0.0
C1303 C 0.33182 0.37695 0.10653 0.0
C1304 C 0.34062 0.40557 0.11711 0.0
C1305 C 0.3165 0.32202 0.08953 0.0
C1306 C 0.3447 0.32849 0.09658 0.0
C1307 C 0.35222 0.3561 0.10375 0.0
C1308 C 0.36531 0.30621 0.10224 0.0
C1309 C 0.30744 0.2926 0.08183 0.0
C1310 C 0.37379 0.30172 0.12998 0.0
C1311 C 0.39259 0.2805 0.1365 0.0
C1312 C 0.4034 0.26323 0.11536 0.0
C1313 C 0.39491 0.26775 0.08745 0.0
C1314 C 0.37598 0.28918 0.08093 0.0
H1315 H 0.28433 0.29074 0.07878 0.0
H1316 H 0.31777 0.28618 0.06216 0.0
H1317 H 0.31407 0.27775 0.09843 0.0
H1318 H 0.36561 0.31456 0.14673 0.0
H1319 H 0.3986 0.27768 0.15821 0.0
H1320 H 0.89282 0.24681 0.89346 0.0
H1321 H 0.86372 0.20577 0.90345 0.0
H1322 H 0.90814 0.15862 0.84081 0.0
H1323 H 0.93849 0.19916 0.83227 0.0
H1324 H 0.82873 0.18714 0.86833 0.0
H1325 H 0.89648 0.09788 0.8954 0.0
H1326 H 0.90952 0.1335 0.89561 0.0
H1327 H 0.90835 0.1134 0.86358 0.0
C1328 C 0.89688 0.22735 0.88253 0.0
C1329 C 0.91768 0.22599 0.86205 0.0
C1330 C 0.88031 0.20392 0.88824 0.0
C1331 C 0.88375 0.17896 0.87301 0.0
C1332 C 0.90552 0.17726 0.85345 0.0
H1333 H 0.75148 0.08102 0.80625 0.0
H1334 H 0.79039 0.11243 0.81807 0.0
C1335 C 0.92269 0.20051 0.84834 0.0
C1336 C 0.86177 0.15682 0.87406 0.0
H1337 H 0.85123 0.08594 0.87342 0.0
C1338 C 0.83374 0.16507 0.87013 0.0
C1339 C 0.86801 0.12796 0.8767 0.0
C1340 C 0.89723 0.11775 0.88338 0.0
C1341 C 0.81207 0.14535 0.86723 0.0
C1342 C 0.81869 0.11654 0.86718 0.0
C1343 C 0.84636 0.10811 0.87283 0.0
C1344 C 0.79731 0.09527 0.85938 0.0
C1345 C 0.78231 0.15566 0.8637 0.0
C1346 C 0.78933 0.07427 0.87818 0.0
C1347 C 0.76721 0.05594 0.87132 0.0
C1348 C 0.75281 0.05855 0.84562 0.0
C1349 C 0.76181 0.07881 0.82641 0.0
C1350 C 0.78401 0.0968 0.83314 0.0
H1351 H 0.77968 0.17672 0.8733 0.0
H1352 H 0.77726 0.15747 0.84108 0.0
H1353 H 0.76699 0.141 0.87324 0.0
H1354 H 0.79956 0.07267 0.89845 0.0
H1355 H 0.7608 0.04042 0.88646 0.0
H1356 H 0.08982 0.5773 0.18704 0.0
H1357 H 0.04922 0.60511 0.17199 0.0
H1358 H -0.00214 0.53033 0.17013 0.0
H1359 H 0.03831 0.50257 0.1847 0.0
H1360 H 0.0269 0.58815 0.11836 0.0
H1361 H 0.9434 0.5918 0.19815 0.0
H1362 H 0.98008 0.58683 0.207 0.0
H1363 H 0.95926 0.55799 0.19392 0.0
C1364 C 0.0695 0.56711 0.18485 0.0
C1365 C 0.06706 0.53786 0.18704 0.0
C1366 C 0.0464 0.58296 0.17606 0.0
C1367 C 0.02055 0.56977 0.17003 0.0
C1368 C 0.01746 0.541 0.1751 0.0
H1369 H 0.8706 0.58715 0.07196 0.0
H1370 H 0.90884 0.57399 0.1038 0.0
C1371 C 0.04058 0.52514 0.18341 0.0
C1372 C -0.00114 0.58421 0.15313 0.0
H1373 H 0.92893 0.59929 0.15061 0.0
C1374 C 0.00558 0.59118 0.12553 0.0
C1375 C 0.97106 0.58759 0.16246 0.0
C1376 C 0.96298 0.58089 0.19209 0.0
C1377 C 0.98492 0.60013 0.1065 0.0
C1378 C 0.95689 0.60302 0.11563 0.0
C1379 C 0.95039 0.59699 0.14359 0.0
C1380 C 0.93384 0.6112 0.09624 0.0
C1381 C 0.9931 0.60484 0.07646 0.0
C1382 C 0.93515 0.63649 0.08142 0.0
C1383 C 0.91361 0.64379 0.06281 0.0
C1384 C 0.88999 0.62623 0.0591 0.0
C1385 C 0.88855 0.60107 0.07424 0.0
C1386 C 0.91031 0.5936 0.09255 0.0
H1387 H 0.01316 0.5943 0.07135 0.0
H1388 H 0.97654 0.59701 0.06182 0.0
H1389 H 0.99603 0.62762 0.07287 0.0
H1390 H 0.95272 0.65075 0.08444 0.0
H1391 H 0.91516 0.66356 0.05187 0.0
H1392 H 0.75013 0.90155 0.2944 0.0
H1393 H 0.71577 0.86885 0.31335 0.0
H1394 H 0.73203 0.90086 0.39642 0.0
H1395 H 0.7665 0.93396 0.37768 0.0
H1396 H 0.72788 0.82738 0.35635 0.0
H1397 H 0.64443 0.90317 0.3857 0.0
H1398 H 0.67141 0.91196 0.36091 0.0
H1399 H 0.67991 0.91 0.39745 0.0
C1400 C 0.74632 0.90188 0.31668 0.0
C1401 C 0.76108 0.92041 0.3345 0.0
C1402 C 0.72673 0.8831 0.32747 0.0
C1403 C 0.7214 0.88256 0.35622 0.0
C1404 C 0.73573 0.9012 0.37412 0.0
H1405 H 0.615 0.73881 0.40601 0.0
H1406 H 0.6514 0.77513 0.41219 0.0
C1407 C 0.75542 0.92004 0.36335 0.0
C1408 C 0.70115 0.86187 0.3671 0.0
H1409 H 0.63364 0.85526 0.38937 0.0
C1410 C 0.70744 0.83335 0.36414 0.0
C1411 C 0.67465 0.86996 0.37726 0.0
C1412 C 0.66694 0.90041 0.38049 0.0
C1413 C 0.68724 0.81261 0.36945 0.0
C1414 C 0.66022 0.82073 0.37826 0.0
C1415 C 0.65449 0.8492 0.38283 0.0
C1416 C 0.63649 0.80063 0.37785 0.0
C1417 C 0.6943 0.78235 0.36366 0.0
C1418 C 0.61564 0.80356 0.3572 0.0
C1419 C 0.59501 0.78305 0.35362 0.0
C1420 C 0.59473 0.75914 0.37071 0.0
C1421 C 0.61478 0.75691 0.39242 0.0
C1422 C 0.63559 0.77755 0.39593 0.0
H1423 H 0.71522 0.78001 0.35388 0.0
H1424 H 0.69439 0.7705 0.38357 0.0
H1425 H 0.67819 0.77271 0.34961 0.0
H1426 H 0.616 0.82124 0.34304 0.0
H1427 H 0.5797 0.78563 0.33692 0.0
H1428 H 0.53958 0.35078 0.56016 0.0
H1429 H 0.5087 0.37198 0.59473 0.0
H1430 H 0.56682 0.34966 0.66067 0.0
H1431 H 0.59744 0.32774 0.62644 0.0
H1432 H 0.51252 0.34122 0.67608 0.0
H1433 H 0.52598 0.44705 0.63099 0.0
H1434 H 0.51293 0.42223 0.60568 0.0
H1435 H 0.54743 0.41778 0.62082 0.0
C1436 C 0.54573 0.35024 0.58202 0.0
C1437 C 0.57111 0.33784 0.59048 0.0
C1438 C 0.52814 0.36248 0.60173 0.0
C1439 C 0.53584 0.36294 0.63016 0.0
C1440 C 0.56061 0.34968 0.6388 0.0
H1441 H 0.44504 0.48412 0.7285 0.0
H1442 H 0.48493 0.45534 0.71485 0.0
C1443 C 0.57808 0.33721 0.61916 0.0
C1444 C 0.51842 0.37798 0.65072 0.0
H1445 H 0.4885 0.44133 0.66321 0.0
C1446 C 0.50747 0.3632 0.67352 0.0
C1447 C 0.51259 0.40683 0.64783 0.0
C1448 C 0.52561 0.42447 0.62519 0.0
C1449 C 0.4896 0.37624 0.69272 0.0
C1450 C 0.48205 0.40456 0.68854 0.0
C1451 C 0.49413 0.41958 0.66646 0.0
C1452 C 0.45977 0.41862 0.70478 0.0
C1453 C 0.47901 0.35949 0.71716 0.0
C1454 C 0.43261 0.407 0.70535 0.0
C1455 C 0.40989 0.42322 0.71378 0.0
C1456 C 0.41389 0.45155 0.72101 0.0
C1457 C 0.44135 0.46238 0.72286 0.0
C1458 C 0.46414 0.44597 0.715 0.0
H1459 H 0.49455 0.34342 0.72362 0.0
H1460 H 0.47448 0.37311 0.73541 0.0
H1461 H 0.45942 0.34831 0.71085 0.0
H1462 H 0.42849 0.38624 0.69701 0.0
H1463 H 0.38894 0.41434 0.71192 0.0
H1464 H 0.2539 0.55543 0.61087 0.0
H1465 H 0.2166 0.58514 0.59142 0.0
H1466 H 0.20048 0.61802 0.67374 0.0
H1467 H 0.23756 0.58892 0.69326 0.0
H1468 H 0.15745 0.59009 0.6057 0.0
H1469 H 0.21814 0.68764 0.62554 0.0
H1470 H 0.23417 0.65344 0.62563 0.0
H1471 H 0.21587 0.66584 0.65594 0.0
C1472 C 0.24234 0.56893 0.62482 0.0
C1473 C 0.24896 0.57005 0.65358 0.0
C1474 C 0.22103 0.5858 0.61368 0.0
C1475 C 0.20618 0.60402 0.63113 0.0
C1476 C 0.21209 0.60443 0.65989 0.0
H1477 H 0.05388 0.69281 0.63384 0.0
H1478 H 0.0886 0.65556 0.62956 0.0
C1479 C 0.23331 0.58774 0.67099 0.0
C1480 C 0.18497 0.62344 0.61965 0.0
H1481 H 0.16849 0.69269 0.61917 0.0
C1482 C 0.15993 0.61259 0.6081 0.0
C1483 C 0.18858 0.65273 0.62223 0.0
C1484 C 0.21577 0.66564 0.63274 0.0
C1485 C 0.13761 0.63035 0.60071 0.0
C1486 C 0.14037 0.65953 0.6056 0.0
C1487 C 0.16614 0.67034 0.61555 0.0
C1488 C 0.11653 0.67929 0.60293 0.0
C1489 C 0.11131 0.61762 0.58806 0.0
C1490 C 0.12036 0.70493 0.58914 0.0
C1491 C 0.10097 0.72647 0.59231 0.0
C1492 C 0.07711 0.72259 0.60889 0.0
C1493 C 0.072 0.69621 0.62074 0.0
C1494 C 0.09177 0.67482 0.61811 0.0
H1495 H 0.11619 0.59832 0.57604 0.0
H1496 H 0.09681 0.61161 0.60506 0.0
H1497 H 0.10037 0.63256 0.57399 0.0
H1498 H 0.13924 0.70888 0.5773 0.0
H1499 H 0.10527 0.7466 0.58281 0.0
H1500 H 0.42399 0.82689 0.95375 0.0
H1501 H 0.46304 0.84114 0.92383 0.0
H1502 H 0.41306 0.90863 0.89081 0.0
H1503 H 0.37404 0.89474 0.92048 0.0
H1504 H 0.46142 0.84832 0.86117 0.0
H1505 H 0.48822 0.94486 0.92146 0.0
H1506 H 0.4684 0.9162 0.93618 0.0
H1507 H 0.45161 0.94039 0.91279 0.0
C1508 C 0.42137 0.8449 0.94028 0.0
C1509 C 0.39592 0.85977 0.93964 0.0
C1510 C 0.44362 0.85285 0.92309 0.0
C1511 C 0.44085 0.87593 0.90525 0.0
C1512 C 0.41559 0.89084 0.9046 0.0
H1513 H 0.54577 0.97678 0.80283 0.0
H1514 H 0.50535 0.95177 0.8218 0.0
C1515 C 0.39333 0.88286 0.92161 0.0
C1516 C 0.46442 0.88495 0.8875 0.0
H1517 H 0.50976 0.9394 0.87752 0.0
C1518 C 0.47219 0.86814 0.86473 0.0
C1519 C 0.47834 0.91074 0.89237 0.0
C1520 C 0.47147 0.92906 0.91714 0.0
C1521 C 0.49303 0.87701 0.84605 0.0
C1522 C 0.50651 0.90314 0.85062 0.0
C1523 C 0.4991 0.91954 0.87382 0.0
C1524 C 0.5286 0.91429 0.83205 0.0
C1525 C 0.49992 0.85882 0.82125 0.0
C1526 C 0.55466 0.90081 0.82994 0.0
C1527 C 0.57768 0.91493 0.81849 0.0
C1528 C 0.57492 0.94279 0.80955 0.0
C1529 C 0.54829 0.95522 0.80939 0.0
C1530 C 0.52528 0.94102 0.82039 0.0
H1531 H 0.48313 0.84307 0.81688 0.0
H1532 H 0.50306 0.87173 0.80225 0.0
H1533 H 0.51972 0.84743 0.82563 0.0
H1534 H 0.55783 0.88041 0.83925 0.0
H1535 H 0.59816 0.90516 0.81937 0.0
H1536 H 0.9154 0.07121 0.28861 0.0
H1537 H 0.95816 0.09439 0.30519 0.0
H1538 H 0.00502 0.01872 0.29047 0.0
H1539 H 0.96193 0.99499 0.27495 0.0
H1540 H 0.01053 0.03425 0.34226 0.0
H1541 H 0.02931 0.12769 0.27733 0.0
H1542 H 0.99395 0.12728 0.28978 0.0
H1543 H 0.00552 0.1 0.26649 0.0
C1544 C 0.93498 0.05978 0.2879 0.0
C1545 C 0.93528 0.03118 0.28075 0.0
C1546 C 0.95952 0.07315 0.2973 0.0
C1547 C 0.98488 0.05835 0.29904 0.0
C1548 C 0.98567 0.03053 0.2894 0.0
H1549 H 0.13615 0.13562 0.37081 0.0
H1550 H 0.10175 0.11432 0.33892 0.0
C1551 C 0.96106 0.01701 0.28046 0.0
C1552 C 0.00903 0.07021 0.31509 0.0
H1553 H 0.04917 0.12912 0.32423 0.0
C1554 C 0.01929 0.05481 0.33797 0.0
C1555 C 0.02062 0.09694 0.3095 0.0
C1556 C 0.01195 0.11376 0.28424 0.0
C1557 C 0.0401 0.06573 0.35591 0.0
C1558 C 0.05031 0.09321 0.35142 0.0
C1559 C 0.0409 0.10824 0.32796 0.0
C1560 C 0.07082 0.10663 0.37083 0.0
C1561 C 0.05098 0.04762 0.37941 0.0
C1562 C 0.06466 0.10976 0.39932 0.0
C1563 C 0.08442 0.12165 0.41773 0.0
C1564 C 0.1105 0.13107 0.40785 0.0
C1565 C 0.11627 0.12855 0.37915 0.0
C1566 C 0.09663 0.11642 0.36084 0.0
H1567 H 0.04765 0.02499 0.37482 0.0
H1568 H 0.07373 0.05133 0.38335 0.0
H1569 H 0.03944 0.05264 0.39881 0.0
H1570 H 0.04455 0.103 0.40734 0.0
H1571 H 0.0792 0.12358 0.43964 0.0
loop_
_geom_bond_atom_site_label_1
_geom_bond_atom_site_label_2
_geom_bond_distance
_geom_bond_site_symmetry_2
_ccdc_geom_bond_type
O0 Zn1 1.953 . S
O0 C16 1.225 . S
Zn1 O0 1.953 . S
Zn1 O2 1.949 . S
Zn1 O8 1.919 . S
Zn1 O13 1.924 . S
O2 Zn1 1.949 . S
O2 Zn3 1.923 . S
O2 Zn4 1.950 . S
O2 Zn5 1.945 . S
Zn3 O2 1.923 . S
Zn3 O6 1.933 . S
Zn3 O9 1.941 . S
Zn3 O10 1.965 . S
Zn4 O2 1.950 . S
Zn4 O11 1.938 . S
Zn4 O12 1.906 . S
Zn4 O22 1.953 . S
Zn5 O2 1.945 . S
Zn5 O7 1.932 . S
Zn5 O14 1.977 . S
Zn5 O15 1.910 . S
O6 Zn3 1.933 . S
O6 C17 1.226 . S
O7 Zn5 1.932 . S
O7 C17 1.307 . S
O8 Zn1 1.919 . S
O8 C19 1.253 . S
O9 Zn3 1.941 . S
O9 C19 1.283 . S
O10 Zn3 1.965 . S
O10 C18 1.303 . S
O11 Zn4 1.938 . S
O11 C18 1.247 . S
O12 Zn4 1.906 . S
O12 C20 1.304 . S
O13 Zn1 1.924 . S
O13 C21 1.311 . S
O14 Zn5 1.977 . S
O14 C20 1.272 . S
O15 Zn5 1.910 . S
O15 C21 1.231 . S
C16 O0 1.225 . S
C16 O22 1.298 . S
C17 O6 1.226 . S
C17 O7 1.307 . S
C18 O10 1.303 . S
C18 O11 1.247 . S
C19 O8 1.253 . S
C19 O9 1.283 . S
C20 O12 1.304 . S
C20 O14 1.272 . S
C21 O13 1.311 . S
C21 O15 1.231 . S
O22 Zn4 1.953 . S
O22 C16 1.298 . S
O23 Zn24 1.953 . S
O23 C39 1.225 . S
Zn24 O23 1.953 . S
Zn24 O25 1.949 . S
Zn24 O31 1.919 . S
Zn24 O36 1.924 . S
O25 Zn24 1.949 . S
O25 Zn26 1.923 . S
O25 Zn27 1.950 . S
O25 Zn28 1.945 . S
Zn26 O25 1.923 . S
Zn26 O29 1.933 . S
Zn26 O32 1.941 . S
Zn26 O33 1.965 . S
Zn27 O25 1.950 . S
Zn27 O34 1.938 . S
Zn27 O35 1.906 . S
Zn27 O45 1.953 . S
Zn28 O25 1.945 . S
Zn28 O30 1.932 1_455 S
Zn28 O37 1.977 . S
Zn28 O38 1.910 1_455 S
O29 Zn26 1.933 . S
O29 C40 1.226 1_455 S
O30 Zn28 1.932 1_655 S
O30 C40 1.307 . S
O31 Zn24 1.919 . S
O31 C42 1.253 . S
O32 Zn26 1.941 . S
O32 C42 1.283 . S
O33 Zn26 1.965 . S
O33 C41 1.303 . S
O34 Zn27 1.938 . S
O34 C41 1.247 . S
O35 Zn27 1.906 . S
O35 C43 1.304 . S
O36 Zn24 1.924 . S
O36 C44 1.311 1_455 S
O37 Zn28 1.977 . S
O37 C43 1.272 . S
O38 Zn28 1.910 1_655 S
O38 C44 1.231 . S
C39 O23 1.225 . S
C39 O45 1.298 . S
C40 O29 1.226 1_655 S
C40 O30 1.307 . S
C41 O33 1.303 . S
C41 O34 1.247 . S
C42 O31 1.253 . S
C42 O32 1.283 . S
C43 O35 1.304 . S
C43 O37 1.272 . S
C44 O36 1.311 1_655 S
C44 O38 1.231 . S
O45 Zn27 1.953 . S
O45 C39 1.298 . S
O46 Zn47 1.953 . S
O46 C62 1.225 . S
Zn47 O46 1.953 . S
Zn47 O48 1.949 . S
Zn47 O54 1.919 . S
Zn47 O59 1.924 . S
O48 Zn47 1.949 . S
O48 Zn49 1.923 . S
O48 Zn50 1.950 . S
O48 Zn51 1.945 . S
Zn49 O48 1.923 . S
Zn49 O52 1.933 1_556 S
Zn49 O55 1.941 1_556 S
Zn49 O56 1.965 1_556 S
Zn50 O48 1.950 . S
Zn50 O57 1.938 . S
Zn50 O58 1.906 . S
Zn50 O68 1.953 . S
Zn51 O48 1.945 . S
Zn51 O53 1.932 . S
Zn51 O60 1.977 . S
Zn51 O61 1.910 . S
O52 Zn49 1.933 1_554 S
O52 C63 1.226 1_554 S
O53 Zn51 1.932 . S
O53 C63 1.307 . S
O54 Zn47 1.919 . S
O54 C65 1.253 1_556 S
O55 Zn49 1.941 1_554 S
O55 C65 1.283 . S
O56 Zn49 1.965 1_554 S
O56 C64 1.303 1_554 S
O57 Zn50 1.938 . S
O57 C64 1.247 . S
O58 Zn50 1.906 . S
O58 C66 1.304 . S
O59 Zn47 1.924 . S
O59 C67 1.311 . S
O60 Zn51 1.977 . S
O60 C66 1.272 . S
O61 Zn51 1.910 . S
O61 C67 1.231 . S
C62 O46 1.225 . S
C62 O68 1.298 . S
C63 O52 1.226 1_556 S
C63 O53 1.307 . S
C64 O56 1.303 1_556 S
C64 O57 1.247 . S
C65 O54 1.253 1_554 S
C65 O55 1.283 . S
C66 O58 1.304 . S
C66 O60 1.272 . S
C67 O59 1.311 . S
C67 O61 1.231 . S
O68 Zn50 1.953 . S
O68 C62 1.298 . S
O69 Zn70 1.953 . S
O69 C85 1.225 . S
Zn70 O69 1.953 . S
Zn70 O71 1.949 . S
Zn70 O77 1.919 . S
Zn70 O82 1.924 . S
O71 Zn70 1.949 . S
O71 Zn72 1.923 . S
O71 Zn73 1.950 . S
O71 Zn74 1.945 . S
Zn72 O71 1.923 . S
Zn72 O75 1.933 . S
Zn72 O78 1.941 . S
Zn72 O79 1.965 . S
Zn73 O71 1.950 . S
Zn73 O80 1.938 . S
Zn73 O81 1.906 . S
Zn73 O91 1.953 . S
Zn74 O71 1.945 . S
Zn74 O76 1.932 . S
Zn74 O83 1.977 . S
Zn74 O84 1.910 . S
O75 Zn72 1.933 . S
O75 C86 1.226 . S
O76 Zn74 1.932 . S
O76 C86 1.307 . S
O77 Zn70 1.919 . S
O77 C88 1.253 . S
O78 Zn72 1.941 . S
O78 C88 1.283 . S
O79 Zn72 1.965 . S
O79 C87 1.303 . S
O80 Zn73 1.938 . S
O80 C87 1.247 . S
O81 Zn73 1.906 . S
O81 C89 1.304 . S
O82 Zn70 1.924 . S
O82 C90 1.311 . S
O83 Zn74 1.977 . S
O83 C89 1.272 . S
O84 Zn74 1.910 . S
O84 C90 1.231 . S
C85 O69 1.225 . S
C85 O91 1.298 . S
C86 O75 1.226 . S
C86 O76 1.307 . S
C87 O79 1.303 . S
C87 O80 1.247 . S
C88 O77 1.253 . S
C88 O78 1.283 . S
C89 O81 1.304 . S
C89 O83 1.272 . S
C90 O82 1.311 . S
C90 O84 1.231 . S
O91 Zn73 1.953 . S
O91 C85 1.298 . S
O92 Zn93 1.953 . S
O92 C108 1.225 . S
Zn93 O92 1.953 . S
Zn93 O94 1.949 . S
Zn93 O100 1.919 . S
Zn93 O105 1.924 . S
O94 Zn93 1.949 . S
O94 Zn95 1.923 . S
O94 Zn96 1.950 . S
O94 Zn97 1.945 . S
Zn95 O94 1.923 . S
Zn95 O98 1.933 . S
Zn95 O101 1.941 . S
Zn95 O102 1.965 . S
Zn96 O94 1.950 . S
Zn96 O103 1.938 . S
Zn96 O104 1.906 . S
Zn96 O114 1.953 . S
Zn97 O94 1.945 . S
Zn97 O99 1.932 . S
Zn97 O106 1.977 . S
Zn97 O107 1.910 . S
O98 Zn95 1.933 . S
O98 C109 1.226 . S
O99 Zn97 1.932 . S
O99 C109 1.307 . S
O100 Zn93 1.919 . S
O100 C111 1.253 . S
O101 Zn95 1.941 . S
O101 C111 1.283 . S
O102 Zn95 1.965 . S
O102 C110 1.303 . S
O103 Zn96 1.938 . S
O103 C110 1.247 . S
O104 Zn96 1.906 . S
O104 C112 1.304 . S
O105 Zn93 1.924 . S
O105 C113 1.311 . S
O106 Zn97 1.977 . S
O106 C112 1.272 . S
O107 Zn97 1.910 . S
O107 C113 1.231 . S
C108 O92 1.225 . S
C108 O114 1.298 . S
C109 O98 1.226 . S
C109 O99 1.307 . S
C110 O102 1.303 . S
C110 O103 1.247 . S
C111 O100 1.253 . S
C111 O101 1.283 . S
C112 O104 1.304 . S
C112 O106 1.272 . S
C113 O105 1.311 . S
C113 O107 1.231 . S
O114 Zn96 1.953 . S
O114 C108 1.298 . S
O115 Zn116 1.953 . S
O115 C131 1.225 . S
Zn116 O115 1.953 . S
Zn116 O117 1.949 . S
Zn116 O123 1.919 . S
Zn116 O128 1.924 . S
O117 Zn116 1.949 . S
O117 Zn118 1.923 . S
O117 Zn119 1.950 . S
O117 Zn120 1.945 . S
Zn118 O117 1.923 . S
Zn118 O121 1.933 . S
Zn118 O124 1.941 . S
Zn118 O125 1.965 . S
Zn119 O117 1.950 . S
Zn119 O126 1.938 . S
Zn119 O127 1.906 . S
Zn119 O137 1.953 . S
Zn120 O117 1.945 . S
Zn120 O122 1.917 1_655 S
Zn120 O129 1.977 . S
Zn120 O130 1.909 1_655 S
O121 Zn118 1.933 . S
O121 C132 1.224 . S
O122 Zn120 1.917 1_455 S
O122 C132 1.307 1_455 S
O123 Zn116 1.919 . S
O123 C134 1.253 . S
O124 Zn118 1.941 . S
O124 C134 1.283 . S
O125 Zn118 1.965 . S
O125 C133 1.303 . S
O126 Zn119 1.938 . S
O126 C133 1.247 . S
O127 Zn119 1.906 . S
O127 C135 1.304 . S
O128 Zn116 1.924 . S
O128 C136 1.320 . S
O129 Zn120 1.977 . S
O129 C135 1.272 . S
O130 Zn120 1.909 1_455 S
O130 C136 1.230 1_455 S
C131 O115 1.225 . S
C131 O137 1.298 . S
C132 O121 1.224 . S
C132 O122 1.307 1_655 S
C133 O125 1.303 . S
C133 O126 1.247 . S
C134 O123 1.253 . S
C134 O124 1.283 . S
C135 O127 1.304 . S
C135 O129 1.272 . S
C136 O128 1.320 . S
C136 O130 1.230 1_655 S
O137 Zn119 1.953 . S
O137 C131 1.298 . S
O138 Zn139 1.953 . S
O138 C154 1.225 . S
Zn139 O138 1.953 . S
Zn139 O140 1.949 . S
Zn139 O146 1.919 . S
Zn139 O151 1.924 . S
O140 Zn139 1.949 . S
O140 Zn141 1.923 . S
O140 Zn142 1.950 . S
O140 Zn143 1.945 . S
Zn141 O140 1.923 . S
Zn141 O144 1.933 1_554 S
Zn141 O147 1.941 1_554 S
Zn141 O148 1.965 1_554 S
Zn142 O140 1.950 . S
Zn142 O149 1.938 . S
Zn142 O150 1.906 . S
Zn142 O160 1.953 . S
Zn143 O140 1.945 . S
Zn143 O145 1.932 . S
Zn143 O152 1.977 . S
Zn143 O153 1.910 . S
O144 Zn141 1.933 1_556 S
O144 C155 1.226 1_556 S
O145 Zn143 1.932 . S
O145 C155 1.307 . S
O146 Zn139 1.919 . S
O146 C157 1.253 1_554 S
O147 Zn141 1.941 1_556 S
O147 C157 1.283 . S
O148 Zn141 1.965 1_556 S
O148 C156 1.303 . S
O149 Zn142 1.938 . S
O149 C156 1.247 1_554 S
O150 Zn142 1.906 . S
O150 C158 1.304 . S
O151 Zn139 1.924 . S
O151 C159 1.311 . S
O152 Zn143 1.977 . S
O152 C158 1.272 . S
O153 Zn143 1.910 . S
O153 C159 1.231 . S
C154 O138 1.225 . S
C154 O160 1.298 . S
C155 O144 1.226 1_554 S
C155 O145 1.307 . S
C156 O148 1.303 . S
C156 O149 1.247 1_556 S
C157 O146 1.253 1_556 S
C157 O147 1.283 . S
C158 O150 1.304 . S
C158 O152 1.272 . S
C159 O151 1.311 . S
C159 O153 1.231 . S
O160 Zn142 1.953 . S
O160 C154 1.298 . S
O161 Zn162 1.953 . S
O161 C177 1.225 . S
Zn162 O161 1.953 . S
Zn162 O163 1.949 . S
Zn162 O169 1.919 . S
Zn162 O174 1.924 . S
O163 Zn162 1.949 . S
O163 Zn164 1.923 . S
O163 Zn165 1.950 . S
O163 Zn166 1.945 . S
Zn164 O163 1.923 . S
Zn164 O167 1.933 . S
Zn164 O170 1.941 . S
Zn164 O171 1.965 . S
Zn165 O163 1.950 . S
Zn165 O172 1.938 . S
Zn165 O173 1.906 . S
Zn165 O183 1.953 . S
Zn166 O163 1.945 . S
Zn166 O168 1.932 . S
Zn166 O175 1.977 . S
Zn166 O176 1.910 . S
O167 Zn164 1.933 . S
O167 C178 1.226 . S
O168 Zn166 1.932 . S
O168 C178 1.307 . S
O169 Zn162 1.919 . S
O169 C180 1.253 . S
O170 Zn164 1.941 . S
O170 C180 1.283 . S
O171 Zn164 1.965 . S
O171 C179 1.303 . S
O172 Zn165 1.938 . S
O172 C179 1.247 . S
O173 Zn165 1.906 . S
O173 C181 1.304 . S
O174 Zn162 1.924 . S
O174 C182 1.311 . S
O175 Zn166 1.977 . S
O175 C181 1.272 . S
O176 Zn166 1.910 . S
O176 C182 1.231 . S
C177 O161 1.225 . S
C177 O183 1.298 . S
C178 O167 1.226 . S
C178 O168 1.307 . S
C179 O171 1.303 . S
C179 O172 1.247 . S
C180 O169 1.253 . S
C180 O170 1.283 . S
C181 O173 1.304 . S
C181 O175 1.272 . S
C182 O174 1.311 . S
C182 O176 1.231 . S
O183 Zn165 1.953 . S
O183 C177 1.298 . S
O184 Zn185 1.953 . S
O184 C200 1.225 . S
Zn185 O184 1.953 . S
Zn185 O186 1.949 . S
Zn185 O192 1.919 . S
Zn185 O197 1.924 . S
O186 Zn185 1.949 . S
O186 Zn187 1.923 . S
O186 Zn188 1.950 . S
O186 Zn189 1.945 . S
Zn187 O186 1.923 . S
Zn187 O190 1.933 . S
Zn187 O193 1.941 . S
Zn187 O194 1.965 . S
Zn188 O186 1.950 . S
Zn188 O195 1.938 . S
Zn188 O196 1.906 . S
Zn188 O206 1.953 . S
Zn189 O186 1.945 . S
Zn189 O191 1.932 . S
Zn189 O198 1.977 . S
Zn189 O199 1.910 . S
O190 Zn187 1.933 . S
O190 C201 1.226 . S
O191 Zn189 1.932 . S
O191 C201 1.307 . S
O192 Zn185 1.919 . S
O192 C203 1.253 . S
O193 Zn187 1.941 . S
O193 C203 1.283 . S
O194 Zn187 1.965 . S
O194 C202 1.303 . S
O195 Zn188 1.938 . S
O195 C202 1.247 . S
O196 Zn188 1.906 . S
O196 C204 1.304 . S
O197 Zn185 1.924 . S
O197 C205 1.311 . S
O198 Zn189 1.977 . S
O198 C204 1.272 . S
O199 Zn189 1.910 . S
O199 C205 1.231 . S
C200 O184 1.225 . S
C200 O206 1.298 . S
C201 O190 1.226 . S
C201 O191 1.307 . S
C202 O194 1.303 . S
C202 O195 1.247 . S
C203 O192 1.253 . S
C203 O193 1.283 . S
C204 O196 1.304 . S
C204 O198 1.272 . S
C205 O197 1.311 . S
C205 O199 1.231 . S
O206 Zn188 1.953 . S
O206 C200 1.298 . S
O207 Zn208 1.953 . S
O207 C223 1.225 . S
Zn208 O207 1.953 . S
Zn208 O209 1.949 . S
Zn208 O215 1.919 . S
Zn208 O220 1.924 . S
O209 Zn208 1.949 . S
O209 Zn210 1.923 . S
O209 Zn211 1.950 . S
O209 Zn212 1.945 . S
Zn210 O209 1.923 . S
Zn210 O213 1.933 . S
Zn210 O216 1.941 . S
Zn210 O217 1.965 . S
Zn211 O209 1.950 . S
Zn211 O218 1.938 . S
Zn211 O219 1.906 . S
Zn211 O229 1.953 . S
Zn212 O209 1.945 . S
Zn212 O214 1.932 . S
Zn212 O221 1.992 . S
Zn212 O222 1.910 . S
O213 Zn210 1.933 . S
O213 C224 1.226 . S
O214 Zn212 1.932 . S
O214 C224 1.307 . S
O215 Zn208 1.919 . S
O215 C226 1.253 . S
O216 Zn210 1.941 . S
O216 C226 1.283 . S
O217 Zn210 1.965 . S
O217 C225 1.303 . S
O218 Zn211 1.938 . S
O218 C225 1.247 . S
O219 Zn211 1.906 . S
O219 C227 1.304 1_545 S
O220 Zn208 1.924 . S
O220 C228 1.309 . S
O221 Zn212 1.992 . S
O221 C227 1.269 1_545 S
O222 Zn212 1.910 . S
O222 C228 1.230 . S
C223 O207 1.225 . S
C223 O229 1.298 . S
C224 O213 1.226 . S
C224 O214 1.307 . S
C225 O217 1.303 . S
C225 O218 1.247 . S
C226 O215 1.253 . S
C226 O216 1.283 . S
C227 O219 1.304 1_565 S
C227 O221 1.269 1_565 S
C228 O220 1.309 . S
C228 O222 1.230 . S
O229 Zn211 1.953 . S
O229 C223 1.298 . S
O230 Zn231 1.953 . S
O230 C246 1.225 . S
Zn231 O230 1.953 . S
Zn231 O232 1.949 . S
Zn231 O238 1.919 . S
Zn231 O243 1.924 . S
O232 Zn231 1.949 . S
O232 Zn233 1.923 . S
O232 Zn234 1.950 . S
O232 Zn235 1.945 . S
Zn233 O232 1.923 . S
Zn233 O236 1.933 1_565 S
Zn233 O239 1.941 1_565 S
Zn233 O240 1.965 1_565 S
Zn234 O232 1.950 . S
Zn234 O241 1.938 . S
Zn234 O242 1.906 . S
Zn234 O252 1.953 . S
Zn235 O232 1.945 . S
Zn235 O237 1.932 . S
Zn235 O244 1.977 . S
Zn235 O245 1.910 . S
O236 Zn233 1.933 1_545 S
O236 C247 1.226 1_545 S
O237 Zn235 1.932 . S
O237 C247 1.307 . S
O238 Zn231 1.919 . S
O238 C249 1.253 1_565 S
O239 Zn233 1.941 1_545 S
O239 C249 1.283 . S
O240 Zn233 1.965 1_545 S
O240 C248 1.303 1_545 S
O241 Zn234 1.938 . S
O241 C248 1.247 . S
O242 Zn234 1.906 . S
O242 C250 1.304 . S
O243 Zn231 1.924 . S
O243 C251 1.311 . S
O244 Zn235 1.977 . S
O244 C250 1.272 . S
O245 Zn235 1.910 . S
O245 C251 1.231 . S
C246 O230 1.225 . S
C246 O252 1.298 . S
C247 O236 1.226 1_565 S
C247 O237 1.307 . S
C248 O240 1.303 1_565 S
C248 O241 1.247 . S
C249 O238 1.253 1_545 S
C249 O239 1.283 . S
C250 O242 1.304 . S
C250 O244 1.272 . S
C251 O243 1.311 . S
C251 O245 1.231 . S
O252 Zn234 1.953 . S
O252 C246 1.298 . S
O253 Zn254 1.953 . S
O253 C269 1.225 . S
Zn254 O253 1.953 . S
Zn254 O255 1.949 . S
Zn254 O261 1.919 . S
Zn254 O266 1.924 . S
O255 Zn254 1.949 . S
O255 Zn256 1.923 . S
O255 Zn257 1.950 . S
O255 Zn258 1.945 . S
Zn256 O255 1.923 . S
Zn256 O259 1.933 . S
Zn256 O262 1.941 . S
Zn256 O263 1.965 . S
Zn257 O255 1.950 . S
Zn257 O264 1.938 . S
Zn257 O265 1.906 . S
Zn257 O275 1.953 . S
Zn258 O255 1.945 . S
Zn258 O260 1.932 . S
Zn258 O267 1.977 . S
Zn258 O268 1.910 . S
O259 Zn256 1.933 . S
O259 C270 1.226 . S
O260 Zn258 1.932 . S
O260 C270 1.307 . S
O261 Zn254 1.919 . S
O261 C272 1.253 . S
O262 Zn256 1.941 . S
O262 C272 1.283 . S
O263 Zn256 1.965 . S
O263 C271 1.303 . S
O264 Zn257 1.938 . S
O264 C271 1.247 . S
O265 Zn257 1.906 . S
O265 C273 1.304 . S
O266 Zn254 1.924 . S
O266 C274 1.311 . S
O267 Zn258 1.977 . S
O267 C273 1.272 . S
O268 Zn258 1.910 . S
O268 C274 1.231 . S
C269 O253 1.225 . S
C269 O275 1.298 . S
C270 O259 1.226 . S
C270 O260 1.307 . S
C271 O263 1.303 . S
C271 O264 1.247 . S
C272 O261 1.253 . S
C272 O262 1.283 . S
C273 O265 1.304 . S
C273 O267 1.272 . S
C274 O266 1.311 . S
C274 O268 1.231 . S
O275 Zn257 1.953 . S
O275 C269 1.298 . S
H276 C284 0.929 . S
H277 C286 0.930 . S
H278 C288 0.930 . S
H279 C291 0.929 . S
H280 C294 0.930 . S
H281 C296 0.960 . S
H282 C296 0.960 . S
H283 C296 0.960 . S
C284 H276 0.929 . S
C284 C285 1.377 . S
C284 C286 1.384 . S
C285 C284 1.377 . S
C285 C291 1.390 . S
C286 H277 0.930 . S
C286 C284 1.384 . S
C286 C287 1.372 . S
C287 C286 1.372 . S
C287 C288 1.400 . S
C287 C292 1.490 . S
C288 H278 0.930 . S
C288 C287 1.400 . S
C288 C291 1.386 . S
H289 C305 0.930 . S
H290 C306 0.931 . S
C291 H279 0.929 . S
C291 C285 1.390 . S
C291 C288 1.386 . S
C292 C287 1.490 . S
C292 C294 1.395 . S
C292 C295 1.403 . S
H293 C299 0.930 . S
C294 H280 0.930 . S
C294 C292 1.395 . S
C294 C297 1.403 . S
C295 C292 1.403 . S
C295 C296 1.524 . S
C295 C299 1.400 . S
C296 H281 0.960 . S
C296 H282 0.960 . S
C296 H283 0.960 . S
C296 C295 1.524 . S
C297 C294 1.403 . S
C297 C298 1.392 . S
C297 C301 1.495 . S
C298 C297 1.392 . S
C298 C299 1.385 . S
C298 C300 1.478 . S
C299 H293 0.930 . S
C299 C295 1.400 . S
C299 C298 1.385 . S
C300 C298 1.478 . S
C300 C302 1.381 . S
C300 C306 1.383 . S
C301 C297 1.495 . S
C301 H307 0.959 . S
C301 H308 0.961 . S
C301 H309 0.960 . S
C302 C300 1.381 . S
C302 C303 1.394 . S
C302 H310 0.930 . S
C303 C302 1.394 . S
C303 C304 1.383 . S
C303 H311 0.929 . S
C304 C303 1.383 . S
C304 C305 1.377 . S
C305 H289 0.930 . S
C305 C304 1.377 . S
C305 C306 1.379 . S
C306 H290 0.931 . S
C306 C300 1.383 . S
C306 C305 1.379 . S
H307 C301 0.959 . S
H308 C301 0.961 . S
H309 C301 0.960 . S
H310 C302 0.930 . S
H311 C303 0.929 . S
H312 C320 0.929 . S
H313 C322 0.930 . S
H314 C324 0.930 . S
H315 C327 0.929 . S
H316 C330 0.930 . S
H317 C332 0.960 . S
H318 C332 0.960 . S
H319 C332 0.960 . S
C320 H312 0.929 . S
C320 C321 1.402 . S
C320 C322 1.384 . S
C321 C320 1.402 . S
C321 C327 1.375 1_565 S
C322 H313 0.930 . S
C322 C320 1.384 . S
C322 C323 1.372 . S
C323 C322 1.372 . S
C323 C324 1.400 1_565 S
C323 C328 1.490 . S
C324 H314 0.930 . S
C324 C323 1.400 1_545 S
C324 C327 1.386 . S
H325 C341 0.930 . S
H326 C342 0.931 . S
C327 H315 0.929 . S
C327 C321 1.375 1_545 S
C327 C324 1.386 . S
C328 C323 1.490 . S
C328 C330 1.395 . S
C328 C331 1.403 . S
H329 C335 0.930 . S
C330 H316 0.930 . S
C330 C328 1.395 . S
C330 C333 1.403 . S
C331 C328 1.403 . S
C331 C332 1.524 1_565 S
C331 C335 1.400 . S
C332 H317 0.960 . S
C332 H318 0.960 . S
C332 H319 0.960 . S
C332 C331 1.524 1_545 S
C333 C330 1.403 . S
C333 C334 1.392 . S
C333 C337 1.495 . S
C334 C333 1.392 . S
C334 C335 1.385 . S
C334 C336 1.478 . S
C335 H329 0.930 . S
C335 C331 1.400 . S
C335 C334 1.385 . S
C336 C334 1.478 . S
C336 C338 1.381 . S
C336 C342 1.383 . S
C337 C333 1.495 . S
C337 H343 0.959 . S
C337 H344 0.961 . S
C337 H345 0.960 . S
C338 C336 1.381 . S
C338 C339 1.394 . S
C338 H346 0.930 . S
C339 C338 1.394 . S
C339 C340 1.383 . S
C339 H347 0.929 . S
C340 C339 1.383 . S
C340 C341 1.377 . S
C341 H325 0.930 . S
C341 C340 1.377 . S
C341 C342 1.379 . S
C342 H326 0.931 . S
C342 C336 1.383 . S
C342 C341 1.379 . S
H343 C337 0.959 . S
H344 C337 0.961 . S
H345 C337 0.960 . S
H346 C338 0.930 . S
H347 C339 0.929 . S
H348 C356 0.925 1_556 S
H349 C358 0.930 . S
H350 C360 0.930 . S
H351 C363 0.929 . S
H352 C366 0.930 1_556 S
H353 C368 0.960 . S
H354 C368 0.960 . S
H355 C368 0.960 . S
C356 H348 0.925 1_554 S
C356 C357 1.376 1_554 S
C356 C358 1.390 . S
C357 C356 1.376 1_556 S
C357 C363 1.390 1_556 S
C358 H349 0.930 . S
C358 C356 1.390 . S
C358 C359 1.372 . S
C359 C358 1.372 . S
C359 C360 1.400 . S
C359 C364 1.490 . S
C360 H350 0.930 . S
C360 C359 1.400 . S
C360 C363 1.386 . S
H361 C377 0.930 . S
H362 C378 0.931 . S
C363 H351 0.929 . S
C363 C357 1.390 1_554 S
C363 C360 1.386 . S
C364 C359 1.490 . S
C364 C366 1.395 . S
C364 C367 1.403 . S
H365 C371 0.930 . S
C366 H352 0.930 1_554 S
C366 C364 1.395 . S
C366 C369 1.403 . S
C367 C364 1.403 . S
C367 C368 1.524 . S
C367 C371 1.400 . S
C368 H353 0.960 . S
C368 H354 0.960 . S
C368 H355 0.960 . S
C368 C367 1.524 . S
C369 C366 1.403 . S
C369 C370 1.392 . S
C369 C373 1.495 1_554 S
C370 C369 1.392 . S
C370 C371 1.385 . S
C370 C372 1.478 . S
C371 H365 0.930 . S
C371 C367 1.400 . S
C371 C370 1.385 . S
C372 C370 1.478 . S
C372 C374 1.381 . S
C372 C378 1.383 . S
C373 C369 1.495 1_556 S
C373 H379 0.959 . S
C373 H380 0.961 . S
C373 H381 0.960 . S
C374 C372 1.381 . S
C374 C375 1.394 . S
C374 H382 0.930 . S
C375 C374 1.394 . S
C375 C376 1.383 . S
C375 H383 0.929 . S
C376 C375 1.383 . S
C376 C377 1.377 . S
C377 H361 0.930 . S
C377 C376 1.377 . S
C377 C378 1.379 . S
C378 H362 0.931 . S
C378 C372 1.383 . S
C378 C377 1.379 . S
H379 C373 0.959 . S
H380 C373 0.961 . S
H381 C373 0.960 . S
H382 C374 0.930 . S
H383 C375 0.929 . S
H384 C392 0.929 . S
H385 C394 0.930 . S
H386 C396 0.930 . S
H387 C399 0.929 . S
H388 C402 0.930 . S
H389 C404 0.960 . S
H390 C404 0.960 . S
H391 C404 0.960 . S
C392 H384 0.929 . S
C392 C393 1.377 . S
C392 C394 1.384 . S
C393 C392 1.377 . S
C393 C399 1.390 . S
C394 H385 0.930 . S
C394 C392 1.384 . S
C394 C395 1.372 . S
C395 C394 1.372 . S
C395 C396 1.400 . S
C395 C400 1.490 . S
C396 H386 0.930 . S
C396 C395 1.400 . S
C396 C399 1.386 . S
H397 C413 0.930 . S
H398 C414 0.931 . S
C399 H387 0.929 . S
C399 C393 1.390 . S
C399 C396 1.386 . S
C400 C395 1.490 . S
C400 C402 1.395 . S
C400 C403 1.403 . S
H401 C407 0.930 . S
C402 H388 0.930 . S
C402 C400 1.395 . S
C402 C405 1.403 . S
C403 C400 1.403 . S
C403 C404 1.524 . S
C403 C407 1.400 . S
C404 H389 0.960 . S
C404 H390 0.960 . S
C404 H391 0.960 . S
C404 C403 1.524 . S
C405 C402 1.403 . S
C405 C406 1.392 . S
C405 C409 1.495 1_545 S
C406 C405 1.392 . S
C406 C407 1.385 . S
C406 C408 1.478 . S
C407 H401 0.930 . S
C407 C403 1.400 . S
C407 C406 1.385 . S
C408 C406 1.478 . S
C408 C410 1.381 . S
C408 C414 1.383 . S
C409 C405 1.495 1_565 S
C409 H415 0.959 . S
C409 H416 0.961 . S
C409 H417 0.960 . S
C410 C408 1.381 . S
C410 C411 1.394 1_545 S
C410 H418 0.930 . S
C411 C410 1.394 1_565 S
C411 C412 1.383 . S
C411 H419 0.929 . S
C412 C411 1.383 . S
C412 C413 1.377 1_565 S
C413 H397 0.930 . S
C413 C412 1.377 1_545 S
C413 C414 1.379 . S
C414 H398 0.931 . S
C414 C408 1.383 . S
C414 C413 1.379 . S
H415 C409 0.959 . S
H416 C409 0.961 . S
H417 C409 0.960 . S
H418 C410 0.930 . S
H419 C411 0.929 . S
H420 C428 0.929 . S
H421 C430 0.930 . S
H422 C432 0.930 . S
H423 C435 0.929 . S
H424 C438 0.930 . S
H425 C440 0.960 . S
H426 C440 0.960 . S
H427 C440 0.960 . S
C428 H420 0.929 . S
C428 C429 1.377 . S
C428 C430 1.384 . S
C429 C428 1.377 . S
C429 C435 1.390 . S
C430 H421 0.930 . S
C430 C428 1.384 . S
C430 C431 1.372 . S
C431 C430 1.372 . S
C431 C432 1.400 . S
C431 C436 1.490 . S
C432 H422 0.930 . S
C432 C431 1.400 . S
C432 C435 1.386 . S
H433 C449 0.930 . S
H434 C450 0.931 . S
C435 H423 0.929 . S
C435 C429 1.390 . S
C435 C432 1.386 . S
C436 C431 1.490 . S
C436 C438 1.395 . S
C436 C439 1.403 . S
H437 C443 0.930 . S
C438 H424 0.930 . S
C438 C436 1.395 . S
C438 C441 1.403 . S
C439 C436 1.403 . S
C439 C440 1.524 . S
C439 C443 1.400 . S
C440 H425 0.960 . S
C440 H426 0.960 . S
C440 H427 0.960 . S
C440 C439 1.524 . S
C441 C438 1.403 . S
C441 C442 1.392 . S
C441 C445 1.495 . S
C442 C441 1.392 . S
C442 C443 1.385 . S
C442 C444 1.478 . S
C443 H437 0.930 . S
C443 C439 1.400 . S
C443 C442 1.385 . S
C444 C442 1.478 . S
C444 C446 1.381 . S
C444 C450 1.383 . S
C445 C441 1.495 . S
C445 H451 0.959 . S
C445 H452 0.961 . S
C445 H453 0.960 . S
C446 C444 1.381 . S
C446 C447 1.394 . S
C446 H454 0.930 . S
C447 C446 1.394 . S
C447 C448 1.383 . S
C447 H455 0.929 . S
C448 C447 1.383 . S
C448 C449 1.377 . S
C449 H433 0.930 . S
C449 C448 1.377 . S
C449 C450 1.379 . S
C450 H434 0.931 . S
C450 C444 1.383 . S
C450 C449 1.379 . S
H451 C445 0.959 . S
H452 C445 0.961 . S
H453 C445 0.960 . S
H454 C446 0.930 . S
H455 C447 0.929 . S
H456 C464 0.929 . S
H457 C466 0.930 . S
H458 C468 0.930 . S
H459 C471 0.929 . S
H460 C474 0.930 . S
H461 C476 0.960 . S
H462 C476 0.960 . S
H463 C476 0.960 . S
C464 H456 0.929 . S
C464 C465 1.377 . S
C464 C466 1.384 . S
C465 C464 1.377 . S
C465 C471 1.390 . S
C466 H457 0.930 . S
C466 C464 1.384 . S
C466 C467 1.372 . S
C467 C466 1.372 . S
C467 C468 1.400 . S
C467 C472 1.490 . S
C468 H458 0.930 . S
C468 C467 1.400 . S
C468 C471 1.386 . S
H469 C485 0.930 . S
H470 C486 0.931 . S
C471 H459 0.929 . S
C471 C465 1.390 . S
C471 C468 1.386 . S
C472 C467 1.490 . S
C472 C474 1.395 . S
C472 C475 1.403 . S
H473 C479 0.930 . S
C474 H460 0.930 . S
C474 C472 1.395 . S
C474 C477 1.403 . S
C475 C472 1.403 . S
C475 C476 1.524 . S
C475 C479 1.400 . S
C476 H461 0.960 . S
C476 H462 0.960 . S
C476 H463 0.960 . S
C476 C475 1.524 . S
C477 C474 1.403 . S
C477 C478 1.392 . S
C477 C481 1.495 . S
C478 C477 1.392 . S
C478 C479 1.385 . S
C478 C480 1.478 . S
C479 H473 0.930 . S
C479 C475 1.400 . S
C479 C478 1.385 . S
C480 C478 1.478 . S
C480 C482 1.381 . S
C480 C486 1.383 . S
C481 C477 1.495 . S
C481 H487 0.959 . S
C481 H488 0.961 . S
C481 H489 0.960 . S
C482 C480 1.381 . S
C482 C483 1.394 . S
C482 H490 0.930 . S
C483 C482 1.394 . S
C483 C484 1.383 . S
C483 H491 0.929 . S
C484 C483 1.383 . S
C484 C485 1.377 . S
C485 H469 0.930 . S
C485 C484 1.377 . S
C485 C486 1.379 . S
C486 H470 0.931 . S
C486 C480 1.383 . S
C486 C485 1.379 . S
H487 C481 0.959 . S
H488 C481 0.961 . S
H489 C481 0.960 . S
H490 C482 0.930 . S
H491 C483 0.929 . S
H492 C500 0.929 . S
H493 C502 0.930 . S
H494 C504 0.930 . S
H495 C507 0.929 . S
H496 C510 0.930 . S
H497 C512 0.960 . S
H498 C512 0.960 . S
H499 C512 0.960 . S
C500 H492 0.929 . S
C500 C501 1.377 . S
C500 C502 1.384 . S
C501 C500 1.377 . S
C501 C507 1.390 . S
C502 H493 0.930 . S
C502 C500 1.384 . S
C502 C503 1.372 . S
C503 C502 1.372 . S
C503 C504 1.400 . S
C503 C508 1.490 . S
C504 H494 0.930 . S
C504 C503 1.400 . S
C504 C507 1.386 . S
H505 C521 0.937 . S
H506 C522 0.931 . S
C507 H495 0.929 . S
C507 C501 1.390 . S
C507 C504 1.386 . S
C508 C503 1.490 . S
C508 C510 1.395 . S
C508 C511 1.403 . S
H509 C515 0.930 . S
C510 H496 0.930 . S
C510 C508 1.395 . S
C510 C513 1.403 . S
C511 C508 1.403 . S
C511 C512 1.524 . S
C511 C515 1.400 . S
C512 H497 0.960 . S
C512 H498 0.960 . S
C512 H499 0.960 . S
C512 C511 1.524 . S
C513 C510 1.403 . S
C513 C514 1.392 . S
C513 C517 1.495 1_556 S
C514 C513 1.392 . S
C514 C515 1.385 . S
C514 C516 1.478 . S
C515 H509 0.930 . S
C515 C511 1.400 . S
C515 C514 1.385 . S
C516 C514 1.478 . S
C516 C518 1.381 . S
C516 C522 1.383 . S
C517 C513 1.495 1_554 S
C517 H523 0.959 . S
C517 H524 0.961 . S
C517 H525 0.960 . S
C518 C516 1.381 . S
C518 C519 1.394 . S
C518 H526 0.930 . S
C519 C518 1.394 . S
C519 C520 1.383 . S
C519 H527 0.929 . S
C520 C519 1.383 . S
C520 C521 1.375 1_556 S
C521 H505 0.937 . S
C521 C520 1.375 1_554 S
C521 C522 1.374 1_554 S
C522 H506 0.931 . S
C522 C516 1.383 . S
C522 C521 1.374 1_556 S
H523 C517 0.959 . S
H524 C517 0.961 . S
H525 C517 0.960 . S
H526 C518 0.930 . S
H527 C519 0.929 . S
H528 C536 0.929 . S
H529 C538 0.930 . S
H530 C540 0.930 . S
H531 C543 0.929 . S
H532 C546 0.930 . S
H533 C548 0.960 . S
H534 C548 0.960 . S
H535 C548 0.960 . S
C536 H528 0.929 . S
C536 C537 1.377 . S
C536 C538 1.384 . S
C537 C536 1.377 . S
C537 C543 1.390 . S
C538 H529 0.930 . S
C538 C536 1.384 . S
C538 C539 1.372 . S
C539 C538 1.372 . S
C539 C540 1.400 . S
C539 C544 1.490 . S
C540 H530 0.930 . S
C540 C539 1.400 . S
C540 C543 1.386 . S
H541 C557 0.930 . S
H542 C558 0.931 . S
C543 H531 0.929 . S
C543 C537 1.390 . S
C543 C540 1.386 . S
C544 C539 1.490 . S
C544 C546 1.395 . S
C544 C547 1.403 . S
H545 C551 0.930 . S
C546 H532 0.930 . S
C546 C544 1.395 . S
C546 C549 1.403 . S
C547 C544 1.403 . S
C547 C548 1.524 . S
C547 C551 1.400 . S
C548 H533 0.960 . S
C548 H534 0.960 . S
C548 H535 0.960 . S
C548 C547 1.524 . S
C549 C546 1.403 . S
C549 C550 1.392 . S
C549 C553 1.495 . S
C550 C549 1.392 . S
C550 C551 1.385 . S
C550 C552 1.478 . S
C551 H545 0.930 . S
C551 C547 1.400 . S
C551 C550 1.385 . S
C552 C550 1.478 . S
C552 C554 1.381 . S
C552 C558 1.383 . S
C553 C549 1.495 . S
C553 H559 0.959 . S
C553 H560 0.961 . S
C553 H561 0.960 . S
C554 C552 1.381 . S
C554 C555 1.394 . S
C554 H562 0.930 . S
C555 C554 1.394 . S
C555 C556 1.383 . S
C555 H563 0.929 . S
C556 C555 1.383 . S
C556 C557 1.377 . S
C557 H541 0.930 . S
C557 C556 1.377 . S
C557 C558 1.379 . S
C558 H542 0.931 . S
C558 C552 1.383 . S
C558 C557 1.379 . S
H559 C553 0.959 . S
H560 C553 0.961 . S
H561 C553 0.960 . S
H562 C554 0.930 . S
H563 C555 0.929 . S
H564 C572 0.929 . S
H565 C574 0.930 . S
H566 C576 0.930 . S
H567 C579 0.929 . S
H568 C582 0.930 . S
H569 C584 0.960 . S
H570 C584 0.960 . S
H571 C584 0.960 . S
C572 H564 0.929 . S
C572 C573 1.377 . S
C572 C574 1.384 . S
C573 C572 1.377 . S
C573 C579 1.390 . S
C574 H565 0.930 . S
C574 C572 1.384 . S
C574 C575 1.372 . S
C575 C574 1.372 . S
C575 C576 1.400 . S
C575 C580 1.490 . S
C576 H566 0.930 . S
C576 C575 1.400 . S
C576 C579 1.386 . S
H577 C593 0.930 . S
H578 C594 0.931 . S
C579 H567 0.929 . S
C579 C573 1.390 . S
C579 C576 1.386 . S
C580 C575 1.490 . S
C580 C582 1.395 . S
C580 C583 1.403 . S
H581 C587 0.930 . S
C582 H568 0.930 . S
C582 C580 1.395 . S
C582 C585 1.403 . S
C583 C580 1.403 . S
C583 C584 1.524 . S
C583 C587 1.400 . S
C584 H569 0.960 . S
C584 H570 0.960 . S
C584 H571 0.960 . S
C584 C583 1.524 . S
C585 C582 1.403 . S
C585 C586 1.392 . S
C585 C589 1.495 . S
C586 C585 1.392 . S
C586 C587 1.385 . S
C586 C588 1.478 . S
C587 H581 0.930 . S
C587 C583 1.400 . S
C587 C586 1.385 . S
C588 C586 1.478 . S
C588 C590 1.381 . S
C588 C594 1.383 . S
C589 C585 1.495 . S
C589 H595 0.959 . S
C589 H596 0.961 . S
C589 H597 0.960 . S
C590 C588 1.381 . S
C590 C591 1.394 . S
C590 H598 0.930 . S
C591 C590 1.394 . S
C591 C592 1.383 . S
C591 H599 0.929 . S
C592 C591 1.383 . S
C592 C593 1.377 . S
C593 H577 0.930 . S
C593 C592 1.377 . S
C593 C594 1.379 . S
C594 H578 0.931 . S
C594 C588 1.383 . S
C594 C593 1.379 . S
H595 C589 0.959 . S
H596 C589 0.961 . S
H597 C589 0.960 . S
H598 C590 0.930 . S
H599 C591 0.929 . S
H600 C608 0.929 . S
H601 C610 0.930 . S
H602 C612 0.930 . S
H603 C615 0.929 . S
H604 C618 0.930 . S
H605 C620 0.960 1_655 S
H606 C620 0.960 . S
H607 C620 0.960 1_655 S
C608 H600 0.929 . S
C608 C609 1.377 . S
C608 C610 1.384 . S
C609 C608 1.377 . S
C609 C615 1.390 . S
C610 H601 0.930 . S
C610 C608 1.384 . S
C610 C611 1.372 . S
C611 C610 1.372 . S
C611 C612 1.400 . S
C611 C616 1.490 . S
C612 H602 0.930 . S
C612 C611 1.400 . S
C612 C615 1.386 . S
H613 C629 0.930 . S
H614 C630 0.931 . S
C615 H603 0.929 . S
C615 C609 1.390 . S
C615 C612 1.386 . S
C616 C611 1.490 . S
C616 C618 1.395 . S
C616 C619 1.403 . S
H617 C623 0.932 1_655 S
C618 H604 0.930 . S
C618 C616 1.395 . S
C618 C621 1.403 . S
C619 C616 1.403 . S
C619 C620 1.524 . S
C619 C623 1.400 . S
C620 H605 0.960 1_455 S
C620 H606 0.960 . S
C620 H607 0.960 1_455 S
C620 C619 1.524 . S
C621 C618 1.403 . S
C621 C622 1.392 . S
C621 C625 1.495 . S
C622 C621 1.392 . S
C622 C623 1.385 . S
C622 C624 1.478 . S
C623 H617 0.932 1_455 S
C623 C619 1.400 . S
C623 C622 1.385 . S
C624 C622 1.478 . S
C624 C626 1.381 . S
C624 C630 1.383 1_455 S
C625 C621 1.495 . S
C625 H631 0.959 . S
C625 H632 0.961 . S
C625 H633 0.960 . S
C626 C624 1.381 . S
C626 C627 1.394 . S
C626 H634 0.930 . S
C627 C626 1.394 . S
C627 C628 1.383 . S
C627 H635 0.929 . S
C628 C627 1.383 . S
C628 C629 1.377 1_455 S
C629 H613 0.930 . S
C629 C628 1.377 1_655 S
C629 C630 1.379 . S
C630 H614 0.931 . S
C630 C624 1.383 1_655 S
C630 C629 1.379 . S
H631 C625 0.959 . S
H632 C625 0.961 . S
H633 C625 0.960 . S
H634 C626 0.930 . S
H635 C627 0.929 . S
H636 C644 0.929 . S
H637 C646 0.930 . S
H638 C648 0.930 . S
H639 C651 0.929 . S
H640 C654 0.930 . S
H641 C656 0.960 1_455 S
H642 C656 0.960 . S
H643 C656 0.960 1_455 S
C644 H636 0.929 . S
C644 C645 1.377 . S
C644 C646 1.384 . S
C645 C644 1.377 . S
C645 C651 1.390 1_655 S
C646 H637 0.930 . S
C646 C644 1.384 . S
C646 C647 1.372 . S
C647 C646 1.372 . S
C647 C648 1.400 1_655 S
C647 C652 1.490 . S
C648 H638 0.930 . S
C648 C647 1.400 1_455 S
C648 C651 1.386 . S
H649 C665 0.930 . S
H650 C666 0.931 . S
C651 H639 0.929 . S
C651 C645 1.390 1_455 S
C651 C648 1.386 . S
C652 C647 1.490 . S
C652 C654 1.395 . S
C652 C655 1.403 . S
H653 C659 0.930 . S
C654 H640 0.930 . S
C654 C652 1.395 . S
C654 C657 1.403 . S
C655 C652 1.403 . S
C655 C656 1.524 . S
C655 C659 1.400 . S
C656 H641 0.960 1_655 S
C656 H642 0.960 . S
C656 H643 0.960 1_655 S
C656 C655 1.524 . S
C657 C654 1.403 . S
C657 C658 1.392 . S
C657 C661 1.495 . S
C658 C657 1.392 . S
C658 C659 1.385 . S
C658 C660 1.478 . S
C659 H653 0.930 . S
C659 C655 1.400 . S
C659 C658 1.385 . S
C660 C658 1.478 . S
C660 C662 1.381 . S
C660 C666 1.383 . S
C661 C657 1.495 . S
C661 H667 0.959 . S
C661 H668 0.961 . S
C661 H669 0.960 . S
C662 C660 1.381 . S
C662 C663 1.394 . S
C662 H670 0.930 . S
C663 C662 1.394 . S
C663 C664 1.383 . S
C663 H671 0.929 . S
C664 C663 1.383 . S
C664 C665 1.377 . S
C665 H649 0.930 . S
C665 C664 1.377 . S
C665 C666 1.379 . S
C666 H650 0.931 . S
C666 C660 1.383 . S
C666 C665 1.379 . S
H667 C661 0.959 . S
H668 C661 0.961 . S
H669 C661 0.960 . S
H670 C662 0.930 . S
H671 C663 0.929 . S
H672 C680 0.929 . S
H673 C682 0.930 . S
H674 C684 0.930 . S
H675 C687 0.929 . S
H676 C690 0.930 . S
H677 C692 0.960 . S
H678 C692 0.960 . S
H679 C692 0.960 . S
C680 H672 0.929 . S
C680 C681 1.377 . S
C680 C682 1.384 . S
C681 C680 1.377 . S
C681 C687 1.390 . S
C682 H673 0.930 . S
C682 C680 1.384 . S
C682 C683 1.372 . S
C683 C682 1.372 . S
C683 C684 1.400 . S
C683 C688 1.490 . S
C684 H674 0.930 . S
C684 C683 1.400 . S
C684 C687 1.386 . S
H685 C701 0.930 . S
H686 C702 0.931 . S
C687 H675 0.929 . S
C687 C681 1.390 . S
C687 C684 1.386 . S
C688 C683 1.490 . S
C688 C690 1.395 . S
C688 C691 1.403 . S
H689 C695 0.930 . S
C690 H676 0.930 . S
C690 C688 1.395 . S
C690 C693 1.403 . S
C691 C688 1.403 . S
C691 C692 1.524 . S
C691 C695 1.400 . S
C692 H677 0.960 . S
C692 H678 0.960 . S
C692 H679 0.960 . S
C692 C691 1.524 . S
C693 C690 1.403 . S
C693 C694 1.392 . S
C693 C697 1.495 . S
C694 C693 1.392 . S
C694 C695 1.385 . S
C694 C696 1.478 . S
C695 H689 0.930 . S
C695 C691 1.400 . S
C695 C694 1.385 . S
C696 C694 1.478 . S
C696 C698 1.381 . S
C696 C702 1.383 . S
C697 C693 1.495 . S
C697 H703 0.959 . S
C697 H704 0.961 . S
C697 H705 0.960 . S
C698 C696 1.381 . S
C698 C699 1.394 . S
C698 H706 0.930 . S
C699 C698 1.394 . S
C699 C700 1.383 . S
C699 H707 0.929 . S
C700 C699 1.383 . S
C700 C701 1.377 . S
C701 H685 0.930 . S
C701 C700 1.377 . S
C701 C702 1.379 . S
C702 H686 0.931 . S
C702 C696 1.383 . S
C702 C701 1.379 . S
H703 C697 0.959 . S
H704 C697 0.961 . S
H705 C697 0.960 . S
H706 C698 0.930 . S
H707 C699 0.929 . S
H708 C716 0.929 . S
H709 C718 0.930 . S
H710 C720 0.930 . S
H711 C723 0.929 . S
H712 C726 0.930 . S
H713 C728 0.960 . S
H714 C728 0.960 . S
H715 C728 0.960 . S
C716 H708 0.929 . S
C716 C717 1.377 . S
C716 C718 1.384 . S
C717 C716 1.377 . S
C717 C723 1.390 . S
C718 H709 0.930 . S
C718 C716 1.384 . S
C718 C719 1.372 . S
C719 C718 1.372 . S
C719 C720 1.400 . S
C719 C724 1.490 . S
C720 H710 0.930 . S
C720 C719 1.400 . S
C720 C723 1.386 . S
H721 C737 0.930 . S
H722 C738 0.931 . S
C723 H711 0.929 . S
C723 C717 1.390 . S
C723 C720 1.386 . S
C724 C719 1.490 . S
C724 C726 1.395 . S
C724 C727 1.403 . S
H725 C731 0.930 . S
C726 H712 0.930 . S
C726 C724 1.395 . S
C726 C729 1.403 . S
C727 C724 1.403 . S
C727 C728 1.524 . S
C727 C731 1.400 . S
C728 H713 0.960 . S
C728 H714 0.960 . S
C728 H715 0.960 . S
C728 C727 1.524 . S
C729 C726 1.403 . S
C729 C730 1.392 . S
C729 C733 1.495 . S
C730 C729 1.392 . S
C730 C731 1.385 . S
C730 C732 1.478 . S
C731 H725 0.930 . S
C731 C727 1.400 . S
C731 C730 1.385 . S
C732 C730 1.478 . S
C732 C734 1.381 . S
C732 C738 1.383 . S
C733 C729 1.495 . S
C733 H739 0.959 . S
C733 H740 0.961 . S
C733 H741 0.960 . S
C734 C732 1.381 . S
C734 C735 1.394 . S
C734 H742 0.930 . S
C735 C734 1.394 . S
C735 C736 1.383 . S
C735 H743 0.929 . S
C736 C735 1.383 . S
C736 C737 1.377 . S
C737 H721 0.930 . S
C737 C736 1.377 . S
C737 C738 1.379 . S
C738 H722 0.931 . S
C738 C732 1.383 . S
C738 C737 1.379 . S
H739 C733 0.959 . S
H740 C733 0.961 . S
H741 C733 0.960 . S
H742 C734 0.930 . S
H743 C735 0.929 . S
H744 C752 0.924 1_455 S
H745 C754 0.930 . S
H746 C756 0.930 . S
H747 C759 0.929 . S
H748 C762 0.930 . S
H749 C764 0.960 . S
H750 C764 0.960 . S
H751 C764 0.960 . S
C752 H744 0.924 1_655 S
C752 C753 1.377 . S
C752 C754 1.384 . S
C753 C752 1.377 . S
C753 C759 1.390 . S
C754 H745 0.930 . S
C754 C752 1.384 . S
C754 C755 1.372 . S
C755 C754 1.372 . S
C755 C756 1.400 . S
C755 C760 1.490 . S
C756 H746 0.930 . S
C756 C755 1.400 . S
C756 C759 1.386 . S
H757 C773 0.930 . S
H758 C774 0.931 . S
C759 H747 0.929 . S
C759 C753 1.390 . S
C759 C756 1.386 . S
C760 C755 1.490 . S
C760 C762 1.395 . S
C760 C763 1.403 . S
H761 C767 0.930 . S
C762 H748 0.930 . S
C762 C760 1.395 . S
C762 C765 1.403 . S
C763 C760 1.403 . S
C763 C764 1.524 . S
C763 C767 1.400 . S
C764 H749 0.960 . S
C764 H750 0.960 . S
C764 H751 0.960 . S
C764 C763 1.524 . S
C765 C762 1.403 . S
C765 C766 1.392 . S
C765 C769 1.495 . S
C766 C765 1.392 . S
C766 C767 1.385 . S
C766 C768 1.478 . S
C767 H761 0.930 . S
C767 C763 1.400 . S
C767 C766 1.385 . S
C768 C766 1.478 . S
C768 C770 1.381 . S
C768 C774 1.383 . S
C769 C765 1.495 . S
C769 H775 0.959 . S
C769 H776 0.961 . S
C769 H777 0.960 . S
C770 C768 1.381 . S
C770 C771 1.394 . S
C770 H778 0.930 . S
C771 C770 1.394 . S
C771 C772 1.383 . S
C771 H779 0.929 . S
C772 C771 1.383 . S
C772 C773 1.377 . S
C773 H757 0.930 . S
C773 C772 1.377 . S
C773 C774 1.379 . S
C774 H758 0.931 . S
C774 C768 1.383 . S
C774 C773 1.379 . S
H775 C769 0.959 . S
H776 C769 0.961 . S
H777 C769 0.960 . S
H778 C770 0.930 . S
H779 C771 0.929 . S
H780 C788 0.929 . S
H781 C790 0.930 . S
H782 C792 0.930 . S
H783 C795 0.929 . S
H784 C798 0.930 . S
H785 C800 0.960 . S
H786 C800 0.960 . S
H787 C800 0.960 . S
C788 H780 0.929 . S
C788 C789 1.377 . S
C788 C790 1.384 . S
C789 C788 1.377 . S
C789 C795 1.390 . S
C790 H781 0.930 . S
C790 C788 1.384 . S
C790 C791 1.372 . S
C791 C790 1.372 . S
C791 C792 1.400 . S
C791 C796 1.490 . S
C792 H782 0.930 . S
C792 C791 1.400 . S
C792 C795 1.386 . S
H793 C809 0.930 . S
H794 C810 0.931 . S
C795 H783 0.929 . S
C795 C789 1.390 . S
C795 C792 1.386 . S
C796 C791 1.490 . S
C796 C798 1.395 . S
C796 C799 1.403 . S
H797 C803 0.930 . S
C798 H784 0.930 . S
C798 C796 1.395 . S
C798 C801 1.403 . S
C799 C796 1.403 . S
C799 C800 1.524 . S
C799 C803 1.400 . S
C800 H785 0.960 . S
C800 H786 0.960 . S
C800 H787 0.960 . S
C800 C799 1.524 . S
C801 C798 1.403 . S
C801 C802 1.392 . S
C801 C805 1.495 . S
C802 C801 1.392 . S
C802 C803 1.385 . S
C802 C804 1.478 . S
C803 H797 0.930 . S
C803 C799 1.400 . S
C803 C802 1.385 . S
C804 C802 1.478 . S
C804 C806 1.381 . S
C804 C810 1.383 . S
C805 C801 1.495 . S
C805 H811 0.959 . S
C805 H812 0.961 . S
C805 H813 0.960 . S
C806 C804 1.381 . S
C806 C807 1.394 . S
C806 H814 0.930 . S
C807 C806 1.394 . S
C807 C808 1.383 . S
C807 H815 0.929 . S
C808 C807 1.383 . S
C808 C809 1.377 . S
C809 H793 0.930 . S
C809 C808 1.377 . S
C809 C810 1.379 . S
C810 H794 0.931 . S
C810 C804 1.383 . S
C810 C809 1.379 . S
H811 C805 0.959 . S
H812 C805 0.961 . S
H813 C805 0.960 . S
H814 C806 0.930 . S
H815 C807 0.929 . S
H816 C824 0.929 . S
H817 C826 0.930 . S
H818 C828 0.930 . S
H819 C831 0.929 . S
H820 C834 0.930 . S
H821 C836 0.960 . S
H822 C836 0.960 . S
H823 C836 0.960 . S
C824 H816 0.929 . S
C824 C825 1.377 . S
C824 C826 1.384 . S
C825 C824 1.377 . S
C825 C831 1.390 . S
C826 H817 0.930 . S
C826 C824 1.384 . S
C826 C827 1.372 . S
C827 C826 1.372 . S
C827 C828 1.400 . S
C827 C832 1.490 . S
C828 H818 0.930 . S
C828 C827 1.400 . S
C828 C831 1.386 . S
H829 C845 0.930 . S
H830 C846 0.931 . S
C831 H819 0.929 . S
C831 C825 1.390 . S
C831 C828 1.386 . S
C832 C827 1.490 . S
C832 C834 1.395 . S
C832 C835 1.403 . S
H833 C839 0.930 . S
C834 H820 0.930 . S
C834 C832 1.395 . S
C834 C837 1.404 . S
C835 C832 1.403 . S
C835 C836 1.524 . S
C835 C839 1.400 . S
C836 H821 0.960 . S
C836 H822 0.960 . S
C836 H823 0.960 . S
C836 C835 1.524 . S
C837 C834 1.404 . S
C837 C838 1.392 1_554 S
C837 C841 1.494 1_554 S
C838 C837 1.392 1_556 S
C838 C839 1.385 1_556 S
C838 C840 1.478 . S
C839 H833 0.930 . S
C839 C835 1.400 . S
C839 C838 1.385 1_554 S
C840 C838 1.478 . S
C840 C842 1.381 . S
C840 C846 1.383 . S
C841 C837 1.494 1_556 S
C841 H847 0.959 . S
C841 H848 0.961 . S
C841 H849 0.960 . S
C842 C840 1.381 . S
C842 C843 1.394 . S
C842 H850 0.930 . S
C843 C842 1.394 . S
C843 C844 1.383 . S
C843 H851 0.929 . S
C844 C843 1.383 . S
C844 C845 1.377 . S
C845 H829 0.930 . S
C845 C844 1.377 . S
C845 C846 1.379 . S
C846 H830 0.931 . S
C846 C840 1.383 . S
C846 C845 1.379 . S
H847 C841 0.959 . S
H848 C841 0.961 . S
H849 C841 0.960 . S
H850 C842 0.930 . S
H851 C843 0.929 . S
H852 C860 0.929 . S
H853 C862 0.930 . S
H854 C864 0.930 . S
H855 C867 0.929 . S
H856 C870 0.930 . S
H857 C872 0.960 . S
H858 C872 0.960 . S
H859 C872 0.960 . S
C860 H852 0.929 . S
C860 C861 1.377 . S
C860 C862 1.384 . S
C861 C860 1.377 . S
C861 C867 1.390 . S
C862 H853 0.930 . S
C862 C860 1.384 . S
C862 C863 1.372 . S
C863 C862 1.372 . S
C863 C864 1.400 . S
C863 C868 1.490 . S
C864 H854 0.930 . S
C864 C863 1.400 . S
C864 C867 1.386 . S
H865 C881 0.930 . S
H866 C882 0.931 . S
C867 H855 0.929 . S
C867 C861 1.390 . S
C867 C864 1.386 . S
C868 C863 1.490 . S
C868 C870 1.395 . S
C868 C871 1.403 . S
H869 C875 0.930 . S
C870 H856 0.930 . S
C870 C868 1.395 . S
C870 C873 1.403 . S
C871 C868 1.403 . S
C871 C872 1.524 . S
C871 C875 1.400 . S
C872 H857 0.960 . S
C872 H858 0.960 . S
C872 H859 0.960 . S
C872 C871 1.524 . S
C873 C870 1.403 . S
C873 C874 1.392 . S
C873 C877 1.495 . S
C874 C873 1.392 . S
C874 C875 1.385 . S
C874 C876 1.478 . S
C875 H869 0.930 . S
C875 C871 1.400 . S
C875 C874 1.385 . S
C876 C874 1.478 . S
C876 C878 1.381 . S
C876 C882 1.383 . S
C877 C873 1.495 . S
C877 H883 0.959 . S
C877 H884 0.961 . S
C877 H885 0.960 . S
C878 C876 1.381 . S
C878 C879 1.394 . S
C878 H886 0.930 . S
C879 C878 1.394 . S
C879 C880 1.383 . S
C879 H887 0.929 . S
C880 C879 1.383 . S
C880 C881 1.377 . S
C881 H865 0.930 . S
C881 C880 1.377 . S
C881 C882 1.379 . S
C882 H866 0.931 . S
C882 C876 1.383 . S
C882 C881 1.379 . S
H883 C877 0.959 . S
H884 C877 0.961 . S
H885 C877 0.960 . S
H886 C878 0.930 . S
H887 C879 0.929 . S
H888 C896 0.929 . S
H889 C898 0.930 . S
H890 C900 0.930 . S
H891 C903 0.929 . S
H892 C906 0.930 . S
H893 C908 0.960 . S
H894 C908 0.960 . S
H895 C908 0.960 . S
C896 H888 0.929 . S
C896 C897 1.377 . S
C896 C898 1.384 . S
C897 C896 1.377 . S
C897 C903 1.390 . S
C898 H889 0.930 . S
C898 C896 1.384 . S
C898 C899 1.372 . S
C899 C898 1.372 . S
C899 C900 1.400 . S
C899 C904 1.490 1_554 S
C900 H890 0.930 . S
C900 C899 1.400 . S
C900 C903 1.386 . S
H901 C917 0.930 . S
H902 C918 0.931 . S
C903 H891 0.929 . S
C903 C897 1.390 . S
C903 C900 1.386 . S
C904 C899 1.490 1_556 S
C904 C906 1.395 . S
C904 C907 1.403 . S
H905 C911 0.930 . S
C906 H892 0.930 . S
C906 C904 1.395 . S
C906 C909 1.403 . S
C907 C904 1.403 . S
C907 C908 1.524 1_556 S
C907 C911 1.400 . S
C908 H893 0.960 . S
C908 H894 0.960 . S
C908 H895 0.960 . S
C908 C907 1.524 1_554 S
C909 C906 1.403 . S
C909 C910 1.392 . S
C909 C913 1.495 . S
C910 C909 1.392 . S
C910 C911 1.385 . S
C910 C912 1.478 . S
C911 H905 0.930 . S
C911 C907 1.400 . S
C911 C910 1.385 . S
C912 C910 1.478 . S
C912 C914 1.381 . S
C912 C918 1.383 . S
C913 C909 1.495 . S
C913 H919 0.959 . S
C913 H920 0.961 . S
C913 H921 0.960 . S
C914 C912 1.381 . S
C914 C915 1.394 . S
C914 H922 0.930 . S
C915 C914 1.394 . S
C915 C916 1.383 . S
C915 H923 0.929 . S
C916 C915 1.383 . S
C916 C917 1.377 . S
C917 H901 0.930 . S
C917 C916 1.377 . S
C917 C918 1.379 . S
C918 H902 0.931 . S
C918 C912 1.383 . S
C918 C917 1.379 . S
H919 C913 0.959 . S
H920 C913 0.961 . S
H921 C913 0.960 . S
H922 C914 0.930 . S
H923 C915 0.929 . S
H924 C932 0.929 . S
H925 C934 0.930 . S
H926 C936 0.930 . S
H927 C939 0.929 . S
H928 C942 0.930 . S
H929 C944 0.960 . S
H930 C944 0.960 . S
H931 C944 0.960 . S
C932 H924 0.929 . S
C932 C933 1.377 . S
C932 C934 1.384 . S
C933 C932 1.377 . S
C933 C939 1.390 . S
C934 H925 0.930 . S
C934 C932 1.384 . S
C934 C935 1.372 . S
C935 C934 1.372 . S
C935 C936 1.400 . S
C935 C940 1.490 . S
C936 H926 0.930 . S
C936 C935 1.400 . S
C936 C939 1.386 . S
H937 C953 0.930 . S
H938 C954 0.931 . S
C939 H927 0.929 . S
C939 C933 1.390 . S
C939 C936 1.386 . S
C940 C935 1.490 . S
C940 C942 1.395 . S
C940 C943 1.403 . S
H941 C947 0.930 . S
C942 H928 0.930 . S
C942 C940 1.395 . S
C942 C945 1.403 . S
C943 C940 1.403 . S
C943 C944 1.524 . S
C943 C947 1.400 . S
C944 H929 0.960 . S
C944 H930 0.960 . S
C944 H931 0.960 . S
C944 C943 1.524 . S
C945 C942 1.403 . S
C945 C946 1.392 . S
C945 C949 1.495 . S
C946 C945 1.392 . S
C946 C947 1.385 . S
C946 C948 1.478 . S
C947 H941 0.930 . S
C947 C943 1.400 . S
C947 C946 1.385 . S
C948 C946 1.478 . S
C948 C950 1.381 . S
C948 C954 1.383 . S
C949 C945 1.495 . S
C949 H955 0.959 . S
C949 H956 0.961 . S
C949 H957 0.960 . S
C950 C948 1.381 . S
C950 C951 1.394 . S
C950 H958 0.930 . S
C951 C950 1.394 . S
C951 C952 1.383 . S
C951 H959 0.929 . S
C952 C951 1.383 . S
C952 C953 1.377 . S
C953 H937 0.930 . S
C953 C952 1.377 . S
C953 C954 1.379 . S
C954 H938 0.931 . S
C954 C948 1.383 . S
C954 C953 1.379 . S
H955 C949 0.959 . S
H956 C949 0.961 . S
H957 C949 0.960 . S
H958 C950 0.930 . S
H959 C951 0.929 . S
H960 C968 0.929 . S
H961 C970 0.930 . S
H962 C972 0.930 . S
H963 C975 0.929 . S
H964 C978 0.930 . S
H965 C980 0.960 . S
H966 C980 0.960 . S
H967 C980 0.960 . S
C968 H960 0.929 . S
C968 C969 1.377 . S
C968 C970 1.384 . S
C969 C968 1.377 . S
C969 C975 1.390 . S
C970 H961 0.930 . S
C970 C968 1.384 . S
C970 C971 1.372 . S
C971 C970 1.372 . S
C971 C972 1.400 . S
C971 C976 1.490 . S
C972 H962 0.930 . S
C972 C971 1.400 . S
C972 C975 1.386 . S
H973 C989 0.930 . S
H974 C990 0.931 . S
C975 H963 0.929 . S
C975 C969 1.390 . S
C975 C972 1.386 . S
C976 C971 1.490 . S
C976 C978 1.395 . S
C976 C979 1.403 . S
H977 C983 0.930 . S
C978 H964 0.930 . S
C978 C976 1.395 . S
C978 C981 1.403 . S
C979 C976 1.403 . S
C979 C980 1.524 . S
C979 C983 1.400 . S
C980 H965 0.960 . S
C980 H966 0.960 . S
C980 H967 0.960 . S
C980 C979 1.524 . S
C981 C978 1.403 . S
C981 C982 1.392 . S
C981 C985 1.495 . S
C982 C981 1.392 . S
C982 C983 1.385 . S
C982 C984 1.478 . S
C983 H977 0.930 . S
C983 C979 1.400 . S
C983 C982 1.385 . S
C984 C982 1.478 . S
C984 C986 1.381 . S
C984 C990 1.383 . S
C985 C981 1.495 . S
C985 H991 0.959 . S
C985 H992 0.961 . S
C985 H993 0.960 . S
C986 C984 1.381 . S
C986 C987 1.394 . S
C986 H994 0.930 . S
C987 C986 1.394 . S
C987 C988 1.383 . S
C987 H995 0.929 . S
C988 C987 1.383 . S
C988 C989 1.377 . S
C989 H973 0.930 . S
C989 C988 1.377 . S
C989 C990 1.379 . S
C990 H974 0.931 . S
C990 C984 1.383 . S
C990 C989 1.379 . S
H991 C985 0.959 . S
H992 C985 0.961 . S
H993 C985 0.960 . S
H994 C986 0.930 . S
H995 C987 0.929 . S
H996 C1004 0.929 . S
H997 C1006 0.930 . S
H998 C1008 0.930 . S
H999 C1011 0.929 . S
H1000 C1014 0.930 . S
H1001 C1016 0.960 . S
H1002 C1016 0.960 . S
H1003 C1016 0.960 . S
C1004 H996 0.929 . S
C1004 C1005 1.377 . S
C1004 C1006 1.384 . S
C1005 C1004 1.377 . S
C1005 C1011 1.390 . S
C1006 H997 0.930 . S
C1006 C1004 1.384 . S
C1006 C1007 1.372 . S
C1007 C1006 1.372 . S
C1007 C1008 1.400 . S
C1007 C1012 1.490 . S
C1008 H998 0.930 . S
C1008 C1007 1.400 . S
C1008 C1011 1.386 . S
H1009 C1025 0.930 . S
H1010 C1026 0.931 . S
C1011 H999 0.929 . S
C1011 C1005 1.390 . S
C1011 C1008 1.386 . S
C1012 C1007 1.490 . S
C1012 C1014 1.395 . S
C1012 C1015 1.403 . S
H1013 C1019 0.930 . S
C1014 H1000 0.930 . S
C1014 C1012 1.395 . S
C1014 C1017 1.403 . S
C1015 C1012 1.403 . S
C1015 C1016 1.524 . S
C1015 C1019 1.400 . S
C1016 H1001 0.960 . S
C1016 H1002 0.960 . S
C1016 H1003 0.960 . S
C1016 C1015 1.524 . S
C1017 C1014 1.403 . S
C1017 C1018 1.392 . S
C1017 C1021 1.495 . S
C1018 C1017 1.392 . S
C1018 C1019 1.385 . S
C1018 C1020 1.478 . S
C1019 H1013 0.930 . S
C1019 C1015 1.400 . S
C1019 C1018 1.385 . S
C1020 C1018 1.478 . S
C1020 C1022 1.381 . S
C1020 C1026 1.383 . S
C1021 C1017 1.495 . S
C1021 H1027 0.959 . S
C1021 H1028 0.961 . S
C1021 H1029 0.960 . S
C1022 C1020 1.381 . S
C1022 C1023 1.394 . S
C1022 H1030 0.930 . S
C1023 C1022 1.394 . S
C1023 C1024 1.383 . S
C1023 H1031 0.929 . S
C1024 C1023 1.383 . S
C1024 C1025 1.377 . S
C1025 H1009 0.930 . S
C1025 C1024 1.377 . S
C1025 C1026 1.379 . S
C1026 H1010 0.931 . S
C1026 C1020 1.383 . S
C1026 C1025 1.379 . S
H1027 C1021 0.959 . S
H1028 C1021 0.961 . S
H1029 C1021 0.960 . S
H1030 C1022 0.930 . S
H1031 C1023 0.929 . S
H1032 C1040 0.929 . S
H1033 C1042 0.930 . S
H1034 C1044 0.930 . S
H1035 C1047 0.929 . S
H1036 C1050 0.930 . S
H1037 C1052 0.960 . S
H1038 C1052 0.960 . S
H1039 C1052 0.960 . S
C1040 H1032 0.929 . S
C1040 C1041 1.377 . S
C1040 C1042 1.384 . S
C1041 C1040 1.377 . S
C1041 C1047 1.390 . S
C1042 H1033 0.930 . S
C1042 C1040 1.384 . S
C1042 C1043 1.372 . S
C1043 C1042 1.372 . S
C1043 C1044 1.400 . S
C1043 C1048 1.490 . S
C1044 H1034 0.930 . S
C1044 C1043 1.400 . S
C1044 C1047 1.386 . S
H1045 C1061 0.930 . S
H1046 C1062 0.931 . S
C1047 H1035 0.929 . S
C1047 C1041 1.390 . S
C1047 C1044 1.386 . S
C1048 C1043 1.490 . S
C1048 C1050 1.395 . S
C1048 C1051 1.403 . S
H1049 C1055 0.906 1_565 S
C1050 H1036 0.930 . S
C1050 C1048 1.395 . S
C1050 C1053 1.403 . S
C1051 C1048 1.403 . S
C1051 C1052 1.524 . S
C1051 C1055 1.400 . S
C1052 H1037 0.960 . S
C1052 H1038 0.960 . S
C1052 H1039 0.960 . S
C1052 C1051 1.524 . S
C1053 C1050 1.403 . S
C1053 C1054 1.392 . S
C1053 C1057 1.495 . S
C1054 C1053 1.392 . S
C1054 C1055 1.385 . S
C1054 C1056 1.478 1_545 S
C1055 H1049 0.906 1_545 S
C1055 C1051 1.400 . S
C1055 C1054 1.385 . S
C1056 C1054 1.478 1_565 S
C1056 C1058 1.381 . S
C1056 C1062 1.383 . S
C1057 C1053 1.495 . S
C1057 H1063 0.959 . S
C1057 H1064 0.961 . S
C1057 H1065 0.960 . S
C1058 C1056 1.381 . S
C1058 C1059 1.394 . S
C1058 H1066 0.930 1_565 S
C1059 C1058 1.394 . S
C1059 C1060 1.383 . S
C1059 H1067 0.929 . S
C1060 C1059 1.383 . S
C1060 C1061 1.377 . S
C1061 H1045 0.930 . S
C1061 C1060 1.377 . S
C1061 C1062 1.379 . S
C1062 H1046 0.931 . S
C1062 C1056 1.383 . S
C1062 C1061 1.379 . S
H1063 C1057 0.959 . S
H1064 C1057 0.961 . S
H1065 C1057 0.960 . S
H1066 C1058 0.930 1_545 S
H1067 C1059 0.929 . S
H1068 C1076 0.929 . S
H1069 C1078 0.930 . S
H1070 C1080 0.930 . S
H1071 C1083 0.929 . S
H1072 C1086 0.930 . S
H1073 C1088 0.960 . S
H1074 C1088 0.960 . S
H1075 C1088 0.960 . S
C1076 H1068 0.929 . S
C1076 C1077 1.377 . S
C1076 C1078 1.384 . S
C1077 C1076 1.377 . S
C1077 C1083 1.390 . S
C1078 H1069 0.930 . S
C1078 C1076 1.384 . S
C1078 C1079 1.372 . S
C1079 C1078 1.372 . S
C1079 C1080 1.400 . S
C1079 C1084 1.490 . S
C1080 H1070 0.930 . S
C1080 C1079 1.400 . S
C1080 C1083 1.386 . S
H1081 C1097 0.930 . S
H1082 C1098 0.931 . S
C1083 H1071 0.929 . S
C1083 C1077 1.390 . S
C1083 C1080 1.386 . S
C1084 C1079 1.490 . S
C1084 C1086 1.395 . S
C1084 C1087 1.403 . S
H1085 C1091 0.930 . S
C1086 H1072 0.930 . S
C1086 C1084 1.395 . S
C1086 C1089 1.403 . S
C1087 C1084 1.403 . S
C1087 C1088 1.524 . S
C1087 C1091 1.400 . S
C1088 H1073 0.960 . S
C1088 H1074 0.960 . S
C1088 H1075 0.960 . S
C1088 C1087 1.524 . S
C1089 C1086 1.403 . S
C1089 C1090 1.392 . S
C1089 C1093 1.495 . S
C1090 C1089 1.392 . S
C1090 C1091 1.385 . S
C1090 C1092 1.478 . S
C1091 H1085 0.930 . S
C1091 C1087 1.400 . S
C1091 C1090 1.385 . S
C1092 C1090 1.478 . S
C1092 C1094 1.381 . S
C1092 C1098 1.383 . S
C1093 C1089 1.495 . S
C1093 H1099 0.959 . S
C1093 H1100 0.961 . S
C1093 H1101 0.960 . S
C1094 C1092 1.381 . S
C1094 C1095 1.394 . S
C1094 H1102 0.930 . S
C1095 C1094 1.394 . S
C1095 C1096 1.383 . S
C1095 H1103 0.929 . S
C1096 C1095 1.383 . S
C1096 C1097 1.377 . S
C1097 H1081 0.930 . S
C1097 C1096 1.377 . S
C1097 C1098 1.379 . S
C1098 H1082 0.931 . S
C1098 C1092 1.383 . S
C1098 C1097 1.379 . S
H1099 C1093 0.959 . S
H1100 C1093 0.961 . S
H1101 C1093 0.960 . S
H1102 C1094 0.930 . S
H1103 C1095 0.929 . S
H1104 C1112 0.929 . S
H1105 C1114 0.930 . S
H1106 C1116 0.930 1_565 S
H1107 C1119 0.929 . S
H1108 C1122 0.930 1_545 S
H1109 C1124 0.960 . S
H1110 C1124 0.960 . S
H1111 C1124 0.960 . S
C1112 H1104 0.929 . S
C1112 C1113 1.377 . S
C1112 C1114 1.384 . S
C1113 C1112 1.377 . S
C1113 C1119 1.390 . S
C1114 H1105 0.930 . S
C1114 C1112 1.384 . S
C1114 C1115 1.372 . S
C1115 C1114 1.372 . S
C1115 C1116 1.400 . S
C1115 C1120 1.490 1_545 S
C1116 H1106 0.930 1_545 S
C1116 C1115 1.400 . S
C1116 C1119 1.386 . S
H1117 C1133 0.930 . S
H1118 C1134 0.931 . S
C1119 H1107 0.929 . S
C1119 C1113 1.390 . S
C1119 C1116 1.386 . S
C1120 C1115 1.490 1_565 S
C1120 C1122 1.395 . S
C1120 C1123 1.403 . S
H1121 C1127 0.930 . S
C1122 H1108 0.930 1_565 S
C1122 C1120 1.395 . S
C1122 C1125 1.403 . S
C1123 C1120 1.403 . S
C1123 C1124 1.524 . S
C1123 C1127 1.400 . S
C1124 H1109 0.960 . S
C1124 H1110 0.960 . S
C1124 H1111 0.960 . S
C1124 C1123 1.524 . S
C1125 C1122 1.403 . S
C1125 C1126 1.392 . S
C1125 C1129 1.495 . S
C1126 C1125 1.392 . S
C1126 C1127 1.385 . S
C1126 C1128 1.478 . S
C1127 H1121 0.930 . S
C1127 C1123 1.400 . S
C1127 C1126 1.385 . S
C1128 C1126 1.478 . S
C1128 C1130 1.381 . S
C1128 C1134 1.383 . S
C1129 C1125 1.495 . S
C1129 H1135 0.959 . S
C1129 H1136 0.961 . S
C1129 H1137 0.960 . S
C1130 C1128 1.381 . S
C1130 C1131 1.379 1_554 S
C1130 H1138 0.930 . S
C1131 C1130 1.379 1_556 S
C1131 C1132 1.376 1_556 S
C1131 H1139 0.952 . S
C1132 C1131 1.376 1_554 S
C1132 C1133 1.377 . S
C1133 H1117 0.930 . S
C1133 C1132 1.377 . S
C1133 C1134 1.379 . S
C1134 H1118 0.931 . S
C1134 C1128 1.383 . S
C1134 C1133 1.379 . S
H1135 C1129 0.959 . S
H1136 C1129 0.961 . S
H1137 C1129 0.960 . S
H1138 C1130 0.930 . S
H1139 C1131 0.952 . S
H1140 C1148 0.929 . S
H1141 C1150 0.930 . S
H1142 C1152 0.930 . S
H1143 C1155 0.929 . S
H1144 C1158 0.930 . S
H1145 C1160 0.960 . S
H1146 C1160 0.960 . S
H1147 C1160 0.960 . S
C1148 H1140 0.929 . S
C1148 C1149 1.377 . S
C1148 C1150 1.384 . S
C1149 C1148 1.377 . S
C1149 C1155 1.390 . S
C1150 H1141 0.930 . S
C1150 C1148 1.384 . S
C1150 C1151 1.372 . S
C1151 C1150 1.372 . S
C1151 C1152 1.400 . S
C1151 C1156 1.490 . S
C1152 H1142 0.930 . S
C1152 C1151 1.400 . S
C1152 C1155 1.386 . S
H1153 C1169 0.930 . S
H1154 C1170 0.931 . S
C1155 H1143 0.929 . S
C1155 C1149 1.390 . S
C1155 C1152 1.386 . S
C1156 C1151 1.490 . S
C1156 C1158 1.395 . S
C1156 C1159 1.403 . S
H1157 C1163 0.930 . S
C1158 H1144 0.930 . S
C1158 C1156 1.395 . S
C1158 C1161 1.403 . S
C1159 C1156 1.403 . S
C1159 C1160 1.524 . S
C1159 C1163 1.400 . S
C1160 H1145 0.960 . S
C1160 H1146 0.960 . S
C1160 H1147 0.960 . S
C1160 C1159 1.524 . S
C1161 C1158 1.403 . S
C1161 C1162 1.392 . S
C1161 C1165 1.495 . S
C1162 C1161 1.392 . S
C1162 C1163 1.385 . S
C1162 C1164 1.478 . S
C1163 H1157 0.930 . S
C1163 C1159 1.400 . S
C1163 C1162 1.385 . S
C1164 C1162 1.478 . S
C1164 C1166 1.381 . S
C1164 C1170 1.383 . S
C1165 C1161 1.495 . S
C1165 H1171 0.959 . S
C1165 H1172 0.961 . S
C1165 H1173 0.960 . S
C1166 C1164 1.381 . S
C1166 C1167 1.394 . S
C1166 H1174 0.930 . S
C1167 C1166 1.394 . S
C1167 C1168 1.383 . S
C1167 H1175 0.929 . S
C1168 C1167 1.383 . S
C1168 C1169 1.377 . S
C1169 H1153 0.930 . S
C1169 C1168 1.377 . S
C1169 C1170 1.379 . S
C1170 H1154 0.931 . S
C1170 C1164 1.383 . S
C1170 C1169 1.379 . S
H1171 C1165 0.959 . S
H1172 C1165 0.961 . S
H1173 C1165 0.960 . S
H1174 C1166 0.930 . S
H1175 C1167 0.929 . S
H1176 C1184 0.929 . S
H1177 C1186 0.930 . S
H1178 C1188 0.930 . S
H1179 C1191 0.929 . S
H1180 C1194 0.930 . S
H1181 C1196 0.960 . S
H1182 C1196 0.960 . S
H1183 C1196 0.960 . S
C1184 H1176 0.929 . S
C1184 C1185 1.377 . S
C1184 C1186 1.384 . S
C1185 C1184 1.377 . S
C1185 C1191 1.390 . S
C1186 H1177 0.930 . S
C1186 C1184 1.384 . S
C1186 C1187 1.372 . S
C1187 C1186 1.372 . S
C1187 C1188 1.400 . S
C1187 C1192 1.490 . S
C1188 H1178 0.930 . S
C1188 C1187 1.400 . S
C1188 C1191 1.386 . S
H1189 C1205 0.930 1_554 S
H1190 C1206 0.931 . S
C1191 H1179 0.929 . S
C1191 C1185 1.390 . S
C1191 C1188 1.386 . S
C1192 C1187 1.490 . S
C1192 C1194 1.395 . S
C1192 C1195 1.403 . S
H1193 C1199 0.930 . S
C1194 H1180 0.930 . S
C1194 C1192 1.395 . S
C1194 C1197 1.403 . S
C1195 C1192 1.403 . S
C1195 C1196 1.524 . S
C1195 C1199 1.400 . S
C1196 H1181 0.960 . S
C1196 H1182 0.960 . S
C1196 H1183 0.960 . S
C1196 C1195 1.524 . S
C1197 C1194 1.403 . S
C1197 C1198 1.392 . S
C1197 C1201 1.495 . S
C1198 C1197 1.392 . S
C1198 C1199 1.385 . S
C1198 C1200 1.478 . S
C1199 H1193 0.930 . S
C1199 C1195 1.400 . S
C1199 C1198 1.385 . S
C1200 C1198 1.478 . S
C1200 C1202 1.381 . S
C1200 C1206 1.383 . S
C1201 C1197 1.495 . S
C1201 H1207 0.959 . S
C1201 H1208 0.961 . S
C1201 H1209 0.960 . S
C1202 C1200 1.381 . S
C1202 C1203 1.394 . S
C1202 H1210 0.930 . S
C1203 C1202 1.394 . S
C1203 C1204 1.383 . S
C1203 H1211 0.929 . S
C1204 C1203 1.383 . S
C1204 C1205 1.377 . S
C1205 H1189 0.930 1_556 S
C1205 C1204 1.377 . S
C1205 C1206 1.379 . S
C1206 H1190 0.931 . S
C1206 C1200 1.383 . S
C1206 C1205 1.379 . S
H1207 C1201 0.959 . S
H1208 C1201 0.961 . S
H1209 C1201 0.960 . S
H1210 C1202 0.930 . S
H1211 C1203 0.929 . S
H1212 C1220 0.929 . S
H1213 C1222 0.930 . S
H1214 C1224 0.930 . S
H1215 C1227 0.929 . S
H1216 C1230 0.930 . S
H1217 C1232 0.960 . S
H1218 C1232 0.960 . S
H1219 C1232 0.960 . S
C1220 H1212 0.929 . S
C1220 C1221 1.377 . S
C1220 C1222 1.384 . S
C1221 C1220 1.377 . S
C1221 C1227 1.390 . S
C1222 H1213 0.930 . S
C1222 C1220 1.384 . S
C1222 C1223 1.372 . S
C1223 C1222 1.372 . S
C1223 C1224 1.400 . S
C1223 C1228 1.490 . S
C1224 H1214 0.930 . S
C1224 C1223 1.400 . S
C1224 C1227 1.386 . S
H1225 C1241 0.930 . S
H1226 C1242 0.931 . S
C1227 H1215 0.929 . S
C1227 C1221 1.390 . S
C1227 C1224 1.386 . S
C1228 C1223 1.490 . S
C1228 C1230 1.395 . S
C1228 C1231 1.403 . S
H1229 C1235 0.930 . S
C1230 H1216 0.930 . S
C1230 C1228 1.395 . S
C1230 C1233 1.403 . S
C1231 C1228 1.403 . S
C1231 C1232 1.524 . S
C1231 C1235 1.400 . S
C1232 H1217 0.960 . S
C1232 H1218 0.960 . S
C1232 H1219 0.960 . S
C1232 C1231 1.524 . S
C1233 C1230 1.403 . S
C1233 C1234 1.392 . S
C1233 C1237 1.495 . S
C1234 C1233 1.392 . S
C1234 C1235 1.385 . S
C1234 C1236 1.478 . S
C1235 H1229 0.930 . S
C1235 C1231 1.400 . S
C1235 C1234 1.385 . S
C1236 C1234 1.478 . S
C1236 C1238 1.381 . S
C1236 C1242 1.383 . S
C1237 C1233 1.495 . S
C1237 H1243 0.959 . S
C1237 H1244 0.961 . S
C1237 H1245 0.960 . S
C1238 C1236 1.381 . S
C1238 C1239 1.394 . S
C1238 H1246 0.930 . S
C1239 C1238 1.394 . S
C1239 C1240 1.383 . S
C1239 H1247 0.929 . S
C1240 C1239 1.383 . S
C1240 C1241 1.377 . S
C1241 H1225 0.930 . S
C1241 C1240 1.377 . S
C1241 C1242 1.379 . S
C1242 H1226 0.931 . S
C1242 C1236 1.383 . S
C1242 C1241 1.379 . S
H1243 C1237 0.959 . S
H1244 C1237 0.961 . S
H1245 C1237 0.960 . S
H1246 C1238 0.930 . S
H1247 C1239 0.929 . S
H1248 C1256 0.929 . S
H1249 C1258 0.930 . S
H1250 C1260 0.930 . S
H1251 C1263 0.929 . S
H1252 C1266 0.930 . S
H1253 C1268 0.960 . S
H1254 C1268 0.960 . S
H1255 C1268 0.960 . S
C1256 H1248 0.929 . S
C1256 C1257 1.377 . S
C1256 C1258 1.384 . S
C1257 C1256 1.377 . S
C1257 C1263 1.390 . S
C1258 H1249 0.930 . S
C1258 C1256 1.384 . S
C1258 C1259 1.372 . S
C1259 C1258 1.372 . S
C1259 C1260 1.400 . S
C1259 C1264 1.490 . S
C1260 H1250 0.930 . S
C1260 C1259 1.400 . S
C1260 C1263 1.386 . S
H1261 C1277 0.930 . S
H1262 C1278 0.931 . S
C1263 H1251 0.929 . S
C1263 C1257 1.390 . S
C1263 C1260 1.386 . S
C1264 C1259 1.490 . S
C1264 C1266 1.395 . S
C1264 C1267 1.403 . S
H1265 C1271 0.930 . S
C1266 H1252 0.930 . S
C1266 C1264 1.395 . S
C1266 C1269 1.403 . S
C1267 C1264 1.403 . S
C1267 C1268 1.524 . S
C1267 C1271 1.400 . S
C1268 H1253 0.960 . S
C1268 H1254 0.960 . S
C1268 H1255 0.960 . S
C1268 C1267 1.524 . S
C1269 C1266 1.403 . S
C1269 C1270 1.392 . S
C1269 C1273 1.495 . S
C1270 C1269 1.392 . S
C1270 C1271 1.385 . S
C1270 C1272 1.478 . S
C1271 H1265 0.930 . S
C1271 C1267 1.400 . S
C1271 C1270 1.385 . S
C1272 C1270 1.478 . S
C1272 C1274 1.381 . S
C1272 C1278 1.383 . S
C1273 C1269 1.495 . S
C1273 H1279 0.959 . S
C1273 H1280 0.961 . S
C1273 H1281 0.960 . S
C1274 C1272 1.381 . S
C1274 C1275 1.394 . S
C1274 H1282 0.930 . S
C1275 C1274 1.394 . S
C1275 C1276 1.383 . S
C1275 H1283 0.929 . S
C1276 C1275 1.383 . S
C1276 C1277 1.377 . S
C1277 H1261 0.930 . S
C1277 C1276 1.377 . S
C1277 C1278 1.379 . S
C1278 H1262 0.931 . S
C1278 C1272 1.383 . S
C1278 C1277 1.379 . S
H1279 C1273 0.959 . S
H1280 C1273 0.961 . S
H1281 C1273 0.960 . S
H1282 C1274 0.930 . S
H1283 C1275 0.929 . S
H1284 C1292 0.929 . S
H1285 C1294 0.930 . S
H1286 C1296 0.930 . S
H1287 C1299 0.929 . S
H1288 C1302 0.930 . S
H1289 C1304 0.960 . S
H1290 C1304 0.960 . S
H1291 C1304 0.960 . S
C1292 H1284 0.929 . S
C1292 C1293 1.377 . S
C1292 C1294 1.384 . S
C1293 C1292 1.377 . S
C1293 C1299 1.390 . S
C1294 H1285 0.930 . S
C1294 C1292 1.384 . S
C1294 C1295 1.372 . S
C1295 C1294 1.372 . S
C1295 C1296 1.400 . S
C1295 C1300 1.490 . S
C1296 H1286 0.930 . S
C1296 C1295 1.400 . S
C1296 C1299 1.386 . S
H1297 C1313 0.930 . S
H1298 C1314 0.931 . S
C1299 H1287 0.929 . S
C1299 C1293 1.390 . S
C1299 C1296 1.386 . S
C1300 C1295 1.490 . S
C1300 C1302 1.395 . S
C1300 C1303 1.403 . S
H1301 C1307 0.930 . S
C1302 H1288 0.930 . S
C1302 C1300 1.395 . S
C1302 C1305 1.403 . S
C1303 C1300 1.403 . S
C1303 C1304 1.524 . S
C1303 C1307 1.400 . S
C1304 H1289 0.960 . S
C1304 H1290 0.960 . S
C1304 H1291 0.960 . S
C1304 C1303 1.524 . S
C1305 C1302 1.403 . S
C1305 C1306 1.392 . S
C1305 C1309 1.495 . S
C1306 C1305 1.392 . S
C1306 C1307 1.385 . S
C1306 C1308 1.478 . S
C1307 H1301 0.930 . S
C1307 C1303 1.400 . S
C1307 C1306 1.385 . S
C1308 C1306 1.478 . S
C1308 C1310 1.381 . S
C1308 C1314 1.383 . S
C1309 C1305 1.495 . S
C1309 H1315 0.959 . S
C1309 H1316 0.961 . S
C1309 H1317 0.960 . S
C1310 C1308 1.381 . S
C1310 C1311 1.394 . S
C1310 H1318 0.930 . S
C1311 C1310 1.394 . S
C1311 C1312 1.383 . S
C1311 H1319 0.929 . S
C1312 C1311 1.383 . S
C1312 C1313 1.377 . S
C1313 H1297 0.930 . S
C1313 C1312 1.377 . S
C1313 C1314 1.379 . S
C1314 H1298 0.931 . S
C1314 C1308 1.383 . S
C1314 C1313 1.379 . S
H1315 C1309 0.959 . S
H1316 C1309 0.961 . S
H1317 C1309 0.960 . S
H1318 C1310 0.930 . S
H1319 C1311 0.929 . S
H1320 C1328 0.929 . S
H1321 C1330 0.930 . S
H1322 C1332 0.930 . S
H1323 C1335 0.929 . S
H1324 C1338 0.930 . S
H1325 C1340 0.960 . S
H1326 C1340 0.960 . S
H1327 C1340 0.960 . S
C1328 H1320 0.929 . S
C1328 C1329 1.377 . S
C1328 C1330 1.384 . S
C1329 C1328 1.377 . S
C1329 C1335 1.390 . S
C1330 H1321 0.930 . S
C1330 C1328 1.384 . S
C1330 C1331 1.372 . S
C1331 C1330 1.372 . S
C1331 C1332 1.400 . S
C1331 C1336 1.490 . S
C1332 H1322 0.930 . S
C1332 C1331 1.400 . S
C1332 C1335 1.386 . S
H1333 C1349 0.930 . S
H1334 C1350 0.931 . S
C1335 H1323 0.929 . S
C1335 C1329 1.390 . S
C1335 C1332 1.386 . S
C1336 C1331 1.490 . S
C1336 C1338 1.395 . S
C1336 C1339 1.403 . S
H1337 C1343 0.930 . S
C1338 H1324 0.930 . S
C1338 C1336 1.395 . S
C1338 C1341 1.403 . S
C1339 C1336 1.403 . S
C1339 C1340 1.524 . S
C1339 C1343 1.400 . S
C1340 H1325 0.960 . S
C1340 H1326 0.960 . S
C1340 H1327 0.960 . S
C1340 C1339 1.524 . S
C1341 C1338 1.403 . S
C1341 C1342 1.392 . S
C1341 C1345 1.495 . S
C1342 C1341 1.392 . S
C1342 C1343 1.385 . S
C1342 C1344 1.478 . S
C1343 H1337 0.930 . S
C1343 C1339 1.400 . S
C1343 C1342 1.385 . S
C1344 C1342 1.478 . S
C1344 C1346 1.381 . S
C1344 C1350 1.383 . S
C1345 C1341 1.495 . S
C1345 H1351 0.959 . S
C1345 H1352 0.961 . S
C1345 H1353 0.960 . S
C1346 C1344 1.381 . S
C1346 C1347 1.394 . S
C1346 H1354 0.930 . S
C1347 C1346 1.394 . S
C1347 C1348 1.383 . S
C1347 H1355 0.929 . S
C1348 C1347 1.383 . S
C1348 C1349 1.377 . S
C1349 H1333 0.930 . S
C1349 C1348 1.377 . S
C1349 C1350 1.379 . S
C1350 H1334 0.931 . S
C1350 C1344 1.383 . S
C1350 C1349 1.379 . S
H1351 C1345 0.959 . S
H1352 C1345 0.961 . S
H1353 C1345 0.960 . S
H1354 C1346 0.930 . S
H1355 C1347 0.929 . S
H1356 C1364 0.929 . S
H1357 C1366 0.930 . S
H1358 C1368 0.930 . S
H1359 C1371 0.929 . S
H1360 C1374 0.930 . S
H1361 C1376 0.960 1_655 S
H1362 C1376 0.960 . S
H1363 C1376 0.960 . S
C1364 H1356 0.929 . S
C1364 C1365 1.377 . S
C1364 C1366 1.384 . S
C1365 C1364 1.377 . S
C1365 C1371 1.390 . S
C1366 H1357 0.930 . S
C1366 C1364 1.384 . S
C1366 C1367 1.372 . S
C1367 C1366 1.372 . S
C1367 C1368 1.400 . S
C1367 C1372 1.490 . S
C1368 H1358 0.930 . S
C1368 C1367 1.400 . S
C1368 C1371 1.386 . S
H1369 C1385 0.930 . S
H1370 C1386 0.931 . S
C1371 H1359 0.929 . S
C1371 C1365 1.390 . S
C1371 C1368 1.386 . S
C1372 C1367 1.490 . S
C1372 C1374 1.395 . S
C1372 C1375 1.403 . S
H1373 C1379 0.895 1_655 S
C1374 H1360 0.930 . S
C1374 C1372 1.395 . S
C1374 C1377 1.403 . S
C1375 C1372 1.403 . S
C1375 C1376 1.524 . S
C1375 C1379 1.428 . S
C1376 H1361 0.960 1_455 S
C1376 H1362 0.960 . S
C1376 H1363 0.960 . S
C1376 C1375 1.524 . S
C1377 C1374 1.403 . S
C1377 C1378 1.392 . S
C1377 C1381 1.495 . S
C1378 C1377 1.392 . S
C1378 C1379 1.392 . S
C1378 C1380 1.478 1_455 S
C1379 H1373 0.895 1_455 S
C1379 C1375 1.428 . S
C1379 C1378 1.392 . S
C1380 C1378 1.478 1_655 S
C1380 C1382 1.381 . S
C1380 C1386 1.383 . S
C1381 C1377 1.495 . S
C1381 H1387 0.959 . S
C1381 H1388 0.961 . S
C1381 H1389 0.960 . S
C1382 C1380 1.381 . S
C1382 C1383 1.394 . S
C1382 H1390 0.930 . S
C1383 C1382 1.394 . S
C1383 C1384 1.383 . S
C1383 H1391 0.929 . S
C1384 C1383 1.383 . S
C1384 C1385 1.377 . S
C1385 H1369 0.930 . S
C1385 C1384 1.377 . S
C1385 C1386 1.379 . S
C1386 H1370 0.931 . S
C1386 C1380 1.383 . S
C1386 C1385 1.379 . S
H1387 C1381 0.959 . S
H1388 C1381 0.961 . S
H1389 C1381 0.960 . S
H1390 C1382 0.930 . S
H1391 C1383 0.929 . S
H1392 C1400 0.929 . S
H1393 C1402 0.930 . S
H1394 C1404 0.930 . S
H1395 C1407 0.929 . S
H1396 C1410 0.930 . S
H1397 C1412 0.960 . S
H1398 C1412 0.960 . S
H1399 C1412 0.960 . S
C1400 H1392 0.929 . S
C1400 C1401 1.377 . S
C1400 C1402 1.384 . S
C1401 C1400 1.377 . S
C1401 C1407 1.390 . S
C1402 H1393 0.930 . S
C1402 C1400 1.384 . S
C1402 C1403 1.372 . S
C1403 C1402 1.372 . S
C1403 C1404 1.400 . S
C1403 C1408 1.490 . S
C1404 H1394 0.930 . S
C1404 C1403 1.400 . S
C1404 C1407 1.386 . S
H1405 C1421 0.930 . S
H1406 C1422 0.931 . S
C1407 H1395 0.929 . S
C1407 C1401 1.390 . S
C1407 C1404 1.386 . S
C1408 C1403 1.490 . S
C1408 C1410 1.395 . S
C1408 C1411 1.403 . S
H1409 C1415 0.930 . S
C1410 H1396 0.930 . S
C1410 C1408 1.395 . S
C1410 C1413 1.403 . S
C1411 C1408 1.403 . S
C1411 C1412 1.524 . S
C1411 C1415 1.400 . S
C1412 H1397 0.960 . S
C1412 H1398 0.960 . S
C1412 H1399 0.960 . S
C1412 C1411 1.524 . S
C1413 C1410 1.403 . S
C1413 C1414 1.392 . S
C1413 C1417 1.495 . S
C1414 C1413 1.392 . S
C1414 C1415 1.385 . S
C1414 C1416 1.478 . S
C1415 H1409 0.930 . S
C1415 C1411 1.400 . S
C1415 C1414 1.385 . S
C1416 C1414 1.478 . S
C1416 C1418 1.381 . S
C1416 C1422 1.383 . S
C1417 C1413 1.495 . S
C1417 H1423 0.959 . S
C1417 H1424 0.961 . S
C1417 H1425 0.960 . S
C1418 C1416 1.381 . S
C1418 C1419 1.394 . S
C1418 H1426 0.930 . S
C1419 C1418 1.394 . S
C1419 C1420 1.383 . S
C1419 H1427 0.929 . S
C1420 C1419 1.383 . S
C1420 C1421 1.377 . S
C1421 H1405 0.930 . S
C1421 C1420 1.377 . S
C1421 C1422 1.379 . S
C1422 H1406 0.931 . S
C1422 C1416 1.383 . S
C1422 C1421 1.379 . S
H1423 C1417 0.959 . S
H1424 C1417 0.961 . S
H1425 C1417 0.960 . S
H1426 C1418 0.930 . S
H1427 C1419 0.929 . S
H1428 C1436 0.929 . S
H1429 C1438 0.930 . S
H1430 C1440 0.930 . S
H1431 C1443 0.929 . S
H1432 C1446 0.930 . S
H1433 C1448 0.960 . S
H1434 C1448 0.960 . S
H1435 C1448 0.960 . S
C1436 H1428 0.929 . S
C1436 C1437 1.377 . S
C1436 C1438 1.384 . S
C1437 C1436 1.377 . S
C1437 C1443 1.390 . S
C1438 H1429 0.930 . S
C1438 C1436 1.384 . S
C1438 C1439 1.372 . S
C1439 C1438 1.372 . S
C1439 C1440 1.400 . S
C1439 C1444 1.490 . S
C1440 H1430 0.930 . S
C1440 C1439 1.400 . S
C1440 C1443 1.386 . S
H1441 C1457 0.930 . S
H1442 C1458 0.931 . S
C1443 H1431 0.929 . S
C1443 C1437 1.390 . S
C1443 C1440 1.386 . S
C1444 C1439 1.490 . S
C1444 C1446 1.395 . S
C1444 C1447 1.403 . S
H1445 C1451 0.930 . S
C1446 H1432 0.930 . S
C1446 C1444 1.395 . S
C1446 C1449 1.403 . S
C1447 C1444 1.403 . S
C1447 C1448 1.524 . S
C1447 C1451 1.400 . S
C1448 H1433 0.960 . S
C1448 H1434 0.960 . S
C1448 H1435 0.960 . S
C1448 C1447 1.524 . S
C1449 C1446 1.403 . S
C1449 C1450 1.392 . S
C1449 C1453 1.495 . S
C1450 C1449 1.392 . S
C1450 C1451 1.385 . S
C1450 C1452 1.478 . S
C1451 H1445 0.930 . S
C1451 C1447 1.400 . S
C1451 C1450 1.385 . S
C1452 C1450 1.478 . S
C1452 C1454 1.381 . S
C1452 C1458 1.383 . S
C1453 C1449 1.495 . S
C1453 H1459 0.959 . S
C1453 H1460 0.961 . S
C1453 H1461 0.960 . S
C1454 C1452 1.381 . S
C1454 C1455 1.394 . S
C1454 H1462 0.930 . S
C1455 C1454 1.394 . S
C1455 C1456 1.383 . S
C1455 H1463 0.929 . S
C1456 C1455 1.383 . S
C1456 C1457 1.377 . S
C1457 H1441 0.930 . S
C1457 C1456 1.377 . S
C1457 C1458 1.379 . S
C1458 H1442 0.931 . S
C1458 C1452 1.383 . S
C1458 C1457 1.379 . S
H1459 C1453 0.959 . S
H1460 C1453 0.961 . S
H1461 C1453 0.960 . S
H1462 C1454 0.930 . S
H1463 C1455 0.929 . S
H1464 C1472 0.929 . S
H1465 C1474 0.930 . S
H1466 C1476 0.930 . S
H1467 C1479 0.929 . S
H1468 C1482 0.930 . S
H1469 C1484 0.960 . S
H1470 C1484 0.960 . S
H1471 C1484 0.960 . S
C1472 H1464 0.929 . S
C1472 C1473 1.377 . S
C1472 C1474 1.384 . S
C1473 C1472 1.377 . S
C1473 C1479 1.390 . S
C1474 H1465 0.930 . S
C1474 C1472 1.384 . S
C1474 C1475 1.372 . S
C1475 C1474 1.372 . S
C1475 C1476 1.400 . S
C1475 C1480 1.490 . S
C1476 H1466 0.930 . S
C1476 C1475 1.400 . S
C1476 C1479 1.386 . S
H1477 C1493 0.930 . S
H1478 C1494 0.931 . S
C1479 H1467 0.929 . S
C1479 C1473 1.390 . S
C1479 C1476 1.386 . S
C1480 C1475 1.490 . S
C1480 C1482 1.395 . S
C1480 C1483 1.403 . S
H1481 C1487 0.930 . S
C1482 H1468 0.930 . S
C1482 C1480 1.395 . S
C1482 C1485 1.403 . S
C1483 C1480 1.403 . S
C1483 C1484 1.524 . S
C1483 C1487 1.400 . S
C1484 H1469 0.960 . S
C1484 H1470 0.960 . S
C1484 H1471 0.960 . S
C1484 C1483 1.524 . S
C1485 C1482 1.403 . S
C1485 C1486 1.392 . S
C1485 C1489 1.495 . S
C1486 C1485 1.392 . S
C1486 C1487 1.385 . S
C1486 C1488 1.478 . S
C1487 H1481 0.930 . S
C1487 C1483 1.400 . S
C1487 C1486 1.385 . S
C1488 C1486 1.478 . S
C1488 C1490 1.381 . S
C1488 C1494 1.383 . S
C1489 C1485 1.495 . S
C1489 H1495 0.959 . S
C1489 H1496 0.961 . S
C1489 H1497 0.960 . S
C1490 C1488 1.381 . S
C1490 C1491 1.394 . S
C1490 H1498 0.930 . S
C1491 C1490 1.394 . S
C1491 C1492 1.383 . S
C1491 H1499 0.929 . S
C1492 C1491 1.383 . S
C1492 C1493 1.377 . S
C1493 H1477 0.930 . S
C1493 C1492 1.377 . S
C1493 C1494 1.379 . S
C1494 H1478 0.931 . S
C1494 C1488 1.383 . S
C1494 C1493 1.379 . S
H1495 C1489 0.959 . S
H1496 C1489 0.961 . S
H1497 C1489 0.960 . S
H1498 C1490 0.930 . S
H1499 C1491 0.929 . S
H1500 C1508 0.929 . S
H1501 C1510 0.930 . S
H1502 C1512 0.930 . S
H1503 C1515 0.929 . S
H1504 C1518 0.930 . S
H1505 C1520 0.960 . S
H1506 C1520 0.960 . S
H1507 C1520 0.960 . S
C1508 H1500 0.929 . S
C1508 C1509 1.377 . S
C1508 C1510 1.384 . S
C1509 C1508 1.377 . S
C1509 C1515 1.390 . S
C1510 H1501 0.930 . S
C1510 C1508 1.384 . S
C1510 C1511 1.372 . S
C1511 C1510 1.372 . S
C1511 C1512 1.400 . S
C1511 C1516 1.490 . S
C1512 H1502 0.930 . S
C1512 C1511 1.400 . S
C1512 C1515 1.386 . S
H1513 C1529 0.930 . S
H1514 C1530 0.931 . S
C1515 H1503 0.929 . S
C1515 C1509 1.390 . S
C1515 C1512 1.386 . S
C1516 C1511 1.490 . S
C1516 C1518 1.395 . S
C1516 C1519 1.403 . S
H1517 C1523 0.930 . S
C1518 H1504 0.930 . S
C1518 C1516 1.395 . S
C1518 C1521 1.403 . S
C1519 C1516 1.403 . S
C1519 C1520 1.524 . S
C1519 C1523 1.400 . S
C1520 H1505 0.960 . S
C1520 H1506 0.960 . S
C1520 H1507 0.960 . S
C1520 C1519 1.524 . S
C1521 C1518 1.403 . S
C1521 C1522 1.392 . S
C1521 C1525 1.495 . S
C1522 C1521 1.392 . S
C1522 C1523 1.385 . S
C1522 C1524 1.478 . S
C1523 H1517 0.930 . S
C1523 C1519 1.400 . S
C1523 C1522 1.385 . S
C1524 C1522 1.478 . S
C1524 C1526 1.381 . S
C1524 C1530 1.383 . S
C1525 C1521 1.495 . S
C1525 H1531 0.959 . S
C1525 H1532 0.961 . S
C1525 H1533 0.960 . S
C1526 C1524 1.381 . S
C1526 C1527 1.394 . S
C1526 H1534 0.930 . S
C1527 C1526 1.394 . S
C1527 C1528 1.383 . S
C1527 H1535 0.929 . S
C1528 C1527 1.383 . S
C1528 C1529 1.377 . S
C1529 H1513 0.930 . S
C1529 C1528 1.377 . S
C1529 C1530 1.379 . S
C1530 H1514 0.931 . S
C1530 C1524 1.383 . S
C1530 C1529 1.379 . S
H1531 C1525 0.959 . S
H1532 C1525 0.961 . S
H1533 C1525 0.960 . S
H1534 C1526 0.930 . S
H1535 C1527 0.929 . S
H1536 C1544 0.929 . S
H1537 C1546 0.930 . S
H1538 C1548 0.930 . S
H1539 C1551 0.929 1_565 S
H1540 C1554 0.930 . S
H1541 C1556 0.960 . S
H1542 C1556 0.960 . S
H1543 C1556 0.960 . S
C1544 H1536 0.929 . S
C1544 C1545 1.377 . S
C1544 C1546 1.384 . S
C1545 C1544 1.377 . S
C1545 C1551 1.390 . S
C1546 H1537 0.930 . S
C1546 C1544 1.384 . S
C1546 C1547 1.372 . S
C1547 C1546 1.372 . S
C1547 C1548 1.400 . S
C1547 C1552 1.490 . S
C1548 H1538 0.930 . S
C1548 C1547 1.400 . S
C1548 C1551 1.386 . S
H1549 C1565 0.930 . S
H1550 C1566 0.931 . S
C1551 H1539 0.929 1_545 S
C1551 C1545 1.390 . S
C1551 C1548 1.386 . S
C1552 C1547 1.490 . S
C1552 C1554 1.395 . S
C1552 C1555 1.403 . S
H1553 C1559 0.930 . S
C1554 H1540 0.930 . S
C1554 C1552 1.395 . S
C1554 C1557 1.403 . S
C1555 C1552 1.403 . S
C1555 C1556 1.524 . S
C1555 C1559 1.400 . S
C1556 H1541 0.960 . S
C1556 H1542 0.960 . S
C1556 H1543 0.960 . S
C1556 C1555 1.524 . S
C1557 C1554 1.403 . S
C1557 C1558 1.392 . S
C1557 C1561 1.495 . S
C1558 C1557 1.392 . S
C1558 C1559 1.385 . S
C1558 C1560 1.478 1_655 S
C1559 H1553 0.930 . S
C1559 C1555 1.400 . S
C1559 C1558 1.385 . S
C1560 C1558 1.478 1_455 S
C1560 C1562 1.381 . S
C1560 C1566 1.383 . S
C1561 C1557 1.495 . S
C1561 H1567 0.959 . S
C1561 H1568 0.961 1_655 S
C1561 H1569 0.960 . S
C1562 C1560 1.381 . S
C1562 C1563 1.394 . S
C1562 H1570 0.930 1_455 S
C1563 C1562 1.394 . S
C1563 C1564 1.383 . S
C1563 H1571 0.929 . S
C1564 C1563 1.383 . S
C1564 C1565 1.377 . S
C1565 H1549 0.930 . S
C1565 C1564 1.377 . S
C1565 C1566 1.379 . S
C1566 H1550 0.931 . S
C1566 C1560 1.383 . S
C1566 C1565 1.379 . S
H1567 C1561 0.959 . S
H1568 C1561 0.961 1_455 S
H1569 C1561 0.960 . S
H1570 C1562 0.930 1_655 S
H1571 C1563 0.929 . S
C285 C19 1.209 . S
C304 C272 1.198 . S
C321 C223 1.478 1_565 S
C340 C40 1.509 . S
C357 C63 1.251 . S
C376 C201 1.269 . S
C393 C88 1.273 . S
C412 C247 1.255 . S
C429 C108 1.234 . S
C448 C249 1.226 . S
C465 C132 1.354 1_455 S
C484 C270 1.337 . S
C501 C228 1.359 1_565 S
C520 C155 1.300 1_556 S
C537 C180 1.180 . S
C556 C203 1.151 . S
C573 C86 1.061 . S
C592 C113 1.080 . S
C609 C17 1.204 . S
C628 C134 1.203 1_455 S
C645 C42 1.323 1_655 S
C664 C157 1.303 . S
C681 C178 1.186 . S
C700 C65 1.162 . S
C717 C18 0.919 . S
C736 C200 0.935 . S
C753 C44 0.807 . S
C772 C246 0.819 . S
C789 C273 0.755 . S
C808 C67 0.783 . S
C825 C87 0.822 . S
C844 C224 0.808 . S
C861 C111 0.951 . S
C880 C225 0.992 . S
C897 C204 0.858 . S
C916 C136 0.793 1_455 S
C933 C250 0.879 . S
C952 C159 0.897 . S
C969 C269 0.918 . S
C988 C179 0.913 . S
C1005 C16 1.155 . S
C1024 C90 1.110 . S
C1041 C21 0.897 . S
C1060 C43 0.916 . S
C1077 C41 0.728 . S
C1096 C66 0.714 . S
C1113 C85 0.830 . S
C1132 C64 0.827 1_554 S
C1149 C133 0.816 . S
C1168 C110 0.837 . S
C1185 C135 0.816 . S
C1204 C156 0.802 . S
C1221 C158 1.004 . S
C1240 C182 1.009 . S
C1257 C112 0.942 . S
C1276 C177 0.919 . S
C1293 C202 0.875 . S
C1312 C89 0.823 . S
C1329 C131 0.971 . S
C1348 C226 0.950 . S
C1365 C205 1.007 . S
C1384 C154 1.028 . S
C1401 C251 0.837 . S
C1420 C181 0.836 . S
C1437 C109 0.978 . S
C1456 C271 0.967 . S
C1473 C274 0.873 . S
C1492 C39 0.902 . S
C1509 C62 0.850 . S
C1528 C227 0.832 . S
C1545 C248 0.636 1_545 S
C1564 C20 0.624 . S
