# Generated by pormake.
# Topology qtz-e, (6)-cn, num edge types: 1
# Building blocks:
#     Node 0, Type 0, BuildingBlock: BETDEL_clean_sbu_0, # of connection points: 6
#     Node 1, Type 0, BuildingBlock: BETDEL_clean_sbu_0, # of connection points: 6
#     Node 2, Type 0, BuildingBlock: BETDEL_clean_sbu_0, # of connection points: 6
#     Node 3, Type 0, BuildingBlock: BETDEL_clean_sbu_0, # of connection points: 6
#     Node 4, Type 0, BuildingBlock: BETDEL_clean_sbu_0, # of connection points: 6
#     Node 5, Type 0, BuildingBlock: BETDEL_clean_sbu_0, # of connection points: 6
#     Edge 6, Type (0, 0), BuildingBlock: FUNLAD_clean_linker_1, # of connection points: 2
#     Edge 7, Type (0, 0), BuildingBlock: FUNLAD_clean_linker_1, # of connection points: 2
#     Edge 8, Type (0, 0), BuildingBlock: FUNLAD_clean_linker_1, # of connection points: 2
#     Edge 9, Type (0, 0), BuildingBlock: FUNLAD_clean_linker_1, # of connection points: 2
#     Edge 10, Type (0, 0), BuildingBlock: FUNLAD_clean_linker_1, # of connection points: 2
#     Edge 11, Type (0, 0), BuildingBlock: FUNLAD_clean_linker_1, # of connection points: 2
#     Edge 12, Type (0, 0), BuildingBlock: FUNLAD_clean_linker_1, # of connection points: 2
#     Edge 13, Type (0, 0), BuildingBlock: FUNLAD_clean_linker_1, # of connection points: 2
#     Edge 14, Type (0, 0), BuildingBlock: FUNLAD_clean_linker_1, # of connection points: 2
#     Edge 15, Type (0, 0), BuildingBlock: FUNLAD_clean_linker_1, # of connection points: 2
#     Edge 16, Type (0, 0), BuildingBlock: FUNLAD_clean_linker_1, # of connection points: 2
#     Edge 17, Type (0, 0), BuildingBlock: FUNLAD_clean_linker_1, # of connection points: 2
#     Edge 18, Type (0, 0), BuildingBlock: FUNLAD_clean_linker_1, # of connection points: 2
#     Edge 19, Type (0, 0), BuildingBlock: FUNLAD_clean_linker_1, # of connection points: 2
#     Edge 20, Type (0, 0), BuildingBlock: FUNLAD_clean_linker_1, # of connection points: 2
#     Edge 21, Type (0, 0), BuildingBlock: FUNLAD_clean_linker_1, # of connection points: 2
#     Edge 22, Type (0, 0), BuildingBlock: FUNLAD_clean_linker_1, # of connection points: 2
#     Edge 23, Type (0, 0), BuildingBlock: FUNLAD_clean_linker_1, # of connection points: 2
# Relax obj value: 0.212
# Max RMSD: 0.208
# Mean RMSD: 0.208
data_MOF--net-qtz-e--node1-BETDEL_clean_sbu_0--edge1-FUNLAD_clean_linker_1
_symmetry_space_group_name_H-M    P1
_symmetry_Int_Tables_number       1
_symmetry_cell_setting            triclinic
loop_
_symmetry_equiv_pos_as_xyz
'x, y, z'
_cell_length_a     25.603472
_cell_length_b     25.325198
_cell_length_c     40.918436
_cell_angle_alpha  89.970233
_cell_angle_beta   89.398806
_cell_angle_gamma 119.61838
loop_
_atom_site_label
_atom_site_type_symbol
_atom_site_fract_x
_atom_site_fract_y
_atom_site_fract_z
_atom_type_partial_charge
Dy0 Dy 0.22274 0.46173 0.04357 0.0
C1 C 0.12893 0.27219 0.94631 0.0
C2 C 0.2394 0.53912 0.09364 0.0
Dy3 Dy 0.14995 0.35535 0.99376 0.0
O4 O 0.28265 0.54098 0.07571 0.0
O5 O 0.18777 0.49633 0.0837 0.0
O6 O 0.30574 0.45388 0.03461 0.0
O7 O 0.22014 0.37882 0.02874 0.0
C8 C 0.2751 0.39827 0.02404 0.0
C9 C 0.09821 0.41891 1.01288 0.0
O10 O 0.10864 0.30341 0.04018 0.0
O11 O 0.15879 0.38482 0.07604 0.0
O12 O 0.11706 0.31641 0.94388 0.0
O13 O 0.15008 0.27224 0.975 0.0
O14 O 0.06697 0.36281 1.00298 0.0
O15 O 0.15325 0.43891 1.00793 0.0
O16 O 0.24693 0.51418 0.99659 0.0
O17 O 0.22425 0.43083 0.96355 0.0
C18 C 0.1189 0.32724 0.06994 0.0
C19 C 0.25029 0.49056 0.96821 0.0
Dy20 Dy 0.77932 0.21878 0.40912 0.0
C21 C 0.92936 0.2101 0.30439 0.0
C22 C 0.70141 0.21481 0.45645 0.0
Dy23 Dy 0.85363 0.19587 0.35529 0.0
O24 O 0.73695 0.26273 0.43917 0.0
O25 O 0.70636 0.16865 0.44666 0.0
O26 O 0.86562 0.28479 0.43301 0.0
O27 O 0.86374 0.27357 0.38287 0.0
C28 C 0.89762 0.30062 0.40629 0.0
C29 C 0.74648 0.10116 0.37103 0.0
O30 O 0.88857 0.17685 0.40138 0.0
O31 O 0.80288 0.15348 0.43195 0.0
O32 O 0.87118 0.17702 0.30381 0.0
O33 O 0.94643 0.23409 0.33313 0.0
O34 O 0.79148 0.0947 0.36116 0.0
O35 O 0.75998 0.15594 0.36926 0.0
O36 O 0.75258 0.2542 0.36571 0.0
O37 O 0.81587 0.24512 0.32698 0.0
C38 C 0.85358 0.15252 0.42747 0.0
C39 C 0.77581 0.26158 0.33567 0.0
Dy40 Dy 0.53518 0.76543 0.70425 0.0
C41 C 0.76213 0.8934 0.63192 0.0
C42 C 0.4398 0.68666 0.74209 0.0
Dy43 Dy 0.66481 0.82298 0.67073 0.0
O44 O 0.46435 0.74556 0.74286 0.0
O45 O 0.46563 0.67093 0.71965 0.0
O46 O 0.52899 0.84876 0.6933 0.0
O47 O 0.6133 0.85435 0.69882 0.0
C48 C 0.58713 0.88313 0.69009 0.0
C49 C 0.60835 0.70434 0.68326 0.0
O50 O 0.69415 0.83516 0.72257 0.0
O51 O 0.59787 0.77516 0.74505 0.0
O52 O 0.73349 0.83444 0.6326 0.0
O53 O 0.73884 0.91391 0.65338 0.0
O54 O 0.6668 0.73686 0.68246 0.0
O55 O 0.58512 0.73533 0.6743 0.0
O56 O 0.50701 0.75504 0.65181 0.0
O57 O 0.60373 0.8165 0.62989 0.0
C58 C 0.65735 0.80696 0.74759 0.0
C59 C 0.54439 0.78474 0.62703 0.0
Dy60 Dy 0.71059 0.5326 0.08097 0.0
C61 C 0.73401 0.71203 0.9837 0.0
C62 C 0.71225 0.45241 0.12503 0.0
Dy63 Dy 0.74204 0.63849 0.02963 0.0
O64 O 0.66488 0.4455 0.11003 0.0
O65 O 0.75921 0.50252 0.11547 0.0
O66 O 0.62406 0.53018 0.09519 0.0
O67 O 0.69409 0.60792 0.07559 0.0
C68 C 0.63966 0.58363 0.08337 0.0
C69 C 0.81486 0.59158 0.03133 0.0
O70 O 0.79116 0.69447 0.07276 0.0
O71 O 0.78995 0.6146 0.10243 0.0
O72 O 0.7675 0.68692 0.98119 0.0
O73 O 0.70632 0.69872 1.01185 0.0
O74 O 0.83378 0.64801 0.02323 0.0
O75 O 0.75886 0.56296 0.03497 0.0
O76 O 0.67035 0.4797 0.03477 0.0
O77 O 0.66345 0.55687 1.00778 0.0
C78 C 0.80988 0.67343 0.09707 0.0
C79 C 0.64869 0.49915 1.01104 0.0
Dy80 Dy 0.22445 0.78984 0.38448 0.0
C81 C 0.11119 0.8551 0.28392 0.0
C82 C 0.28625 0.75761 0.42613 0.0
Dy83 Dy 0.17433 0.8419 0.3332 0.0
O84 O 0.23194 0.72152 0.4163 0.0
O85 O 0.30731 0.81094 0.41272 0.0
O86 O 0.13765 0.75529 0.4119 0.0
O87 O 0.13741 0.75724 0.36116 0.0
C88 C 0.1043 0.7432 0.38633 0.0
C89 C 0.29093 0.90935 0.34555 0.0
O90 O 0.15783 0.87845 0.37985 0.0
O91 O 0.23168 0.87173 0.40893 0.0
O92 O 0.16851 0.8746 0.28317 0.0
O93 O 0.08838 0.82985 0.31208 0.0
O94 O 0.25808 0.93343 0.3379 0.0
O95 O 0.26111 0.85259 0.344 0.0
O96 O 0.229 0.73835 0.34094 0.0
O97 O 0.18524 0.77371 0.30328 0.0
C98 C 0.1929 0.89161 0.4057 0.0
C99 C 0.20923 0.73951 0.31123 0.0
Dy100 Dy 0.4402 0.17341 0.74804 0.0
C101 C 0.28037 0.05577 0.63776 0.0
C102 C 0.50967 0.24576 0.79741 0.0
Dy103 Dy 0.34985 0.12027 0.689 0.0
O104 O 0.51329 0.20032 0.78519 0.0
O105 O 0.46932 0.25282 0.78207 0.0
O106 O 0.4252 0.08216 0.76331 0.0
O107 O 0.36073 0.08828 0.73624 0.0
C108 C 0.37723 0.05165 0.74598 0.0
C109 C 0.41476 0.24118 0.69407 0.0
O110 O 0.28619 0.11758 0.72753 0.0
O111 O 0.35979 0.18086 0.76434 0.0
O112 O 0.2999 0.11305 0.64287 0.0
O113 O 0.29801 0.03327 0.66091 0.0
O114 O 0.36156 0.21388 0.68139 0.0
O115 O 0.43188 0.20382 0.7002 0.0
O116 O 0.5021 0.17781 0.70661 0.0
O117 O 0.42771 0.11024 0.67155 0.0
C118 C 0.30326 0.1517 0.75414 0.0
C119 C 0.48452 0.14155 0.68056 0.0
H120 H 0.21463 0.65996 0.29306 0.0
C121 C 0.21326 0.70048 0.2857 0.0
H122 H 0.21393 0.75542 0.24689 0.0
H123 H 0.2907 0.56266 0.17742 0.0
H124 H 0.37275 0.59927 0.21566 0.0
H125 H 0.38502 0.67391 0.25788 0.0
H126 H 0.31403 0.71046 0.26287 0.0
C127 C 0.21495 0.71448 0.25381 0.0
C128 C 0.21183 0.67341 0.22683 0.0
C129 C 0.25646 0.65604 0.22281 0.0
C130 C 0.25223 0.61686 0.19675 0.0
C131 C 0.29393 0.59548 0.19531 0.0
C132 C 0.34098 0.61569 0.21734 0.0
C133 C 0.34768 0.65741 0.24123 0.0
C134 C 0.30615 0.67758 0.24402 0.0
H135 H 0.2897 0.61938 0.12515 0.0
C136 C 0.2472 0.57773 0.12217 0.0
H137 H 0.16064 0.51904 0.14119 0.0
H138 H 0.11663 0.69487 0.22823 0.0
H139 H 0.03985 0.66559 0.18728 0.0
H140 H 0.03937 0.60772 0.13882 0.0
H141 H 0.11396 0.57636 0.13162 0.0
C142 C 0.20284 0.56092 0.1446 0.0
C143 C 0.20661 0.5996 0.173 0.0
C144 C 0.16275 0.61803 0.17666 0.0
C145 C 0.16467 0.65385 0.2039 0.0
C146 C 0.11877 0.66945 0.20752 0.0
C147 C 0.07403 0.65258 0.18429 0.0
C148 C 0.07351 0.61964 0.1571 0.0
C149 C 0.11687 0.60207 0.15329 0.0
H150 H 0.52117 0.09677 0.64951 0.0
C151 C 0.52843 0.14095 0.65724 0.0
H152 H 0.56396 0.23248 0.64382 0.0
H153 H 0.71827 0.15164 0.54278 0.0
H154 H 0.76307 0.13592 0.59099 0.0
H155 H 0.72644 0.14163 0.64615 0.0
H156 H 0.64529 0.16407 0.65339 0.0
C157 C 0.56231 0.18968 0.63828 0.0
C158 C 0.58316 0.18276 0.60505 0.0
C159 C 0.63042 0.16929 0.60117 0.0
C160 C 0.65086 0.16499 0.56923 0.0
C161 C 0.69969 0.15374 0.56627 0.0
C162 C 0.72618 0.14505 0.5938 0.0
C163 C 0.70561 0.14833 0.62485 0.0
C164 C 0.65874 0.16092 0.62865 0.0
H165 H 0.67066 0.25801 0.49301 0.0
C166 C 0.66966 0.21589 0.48662 0.0
H167 H 0.64727 0.12771 0.50184 0.0
H168 H 0.48831 0.20434 0.60355 0.0
H169 H 0.43827 0.21205 0.55544 0.0
H170 H 0.47077 0.1999 0.50025 0.0
H171 H 0.55338 0.18034 0.49299 0.0
C172 C 0.64554 0.16864 0.50772 0.0
C173 C 0.62327 0.17296 0.54109 0.0
C174 C 0.57398 0.1834 0.54504 0.0
C175 C 0.5546 0.18926 0.57695 0.0
C176 C 0.50532 0.19985 0.58001 0.0
C177 C 0.47585 0.20404 0.55256 0.0
C178 C 0.4941 0.19722 0.52153 0.0
C179 C 0.54221 0.18664 0.51768 0.0
H180 H 0.29097 0.57938 0.94284 0.0
C181 C 0.28007 0.53232 0.94027 0.0
H182 H 0.28069 0.46645 0.90907 0.0
H183 H 0.27867 0.58386 0.77478 0.0
H184 H 0.181 0.49278 0.77573 0.0
H185 H 0.14346 0.42905 0.82541 0.0
H186 H 0.20301 0.45627 0.87446 0.0
C187 C 0.29248 0.51373 0.91189 0.0
C188 C 0.31569 0.55399 0.88232 0.0
C189 C 0.28037 0.5374 0.85364 0.0
C190 C 0.30228 0.57381 0.8248 0.0
C191 C 0.26508 0.55702 0.797 0.0
C192 C 0.20865 0.50505 0.79728 0.0
C193 C 0.18749 0.46922 0.82525 0.0
C194 C 0.22242 0.48525 0.85323 0.0
H195 H 0.38817 0.59735 0.76624 0.0
C196 C 0.39951 0.6447 0.76759 0.0
H197 H 0.39832 0.71295 0.79634 0.0
H198 H 0.39649 0.59901 0.93243 0.0
H199 H 0.49418 0.68979 0.93107 0.0
H200 H 0.53304 0.75089 0.88078 0.0
H201 H 0.4736 0.72301 0.83176 0.0
C202 C 0.38436 0.66497 0.7944 0.0
C203 C 0.35996 0.62644 0.82444 0.0
C204 C 0.39537 0.6431 0.85305 0.0
C205 C 0.37323 0.60712 0.88203 0.0
C206 C 0.41026 0.62481 0.90992 0.0
C207 C 0.46686 0.67657 0.90943 0.0
C208 C 0.48865 0.71121 0.88114 0.0
C209 C 0.45375 0.69475 0.85319 0.0
H210 H 0.76206 0.33568 0.31732 0.0
C211 C 0.76008 0.29321 0.31071 0.0
H212 H 0.74691 0.22981 0.2744 0.0
H213 H 0.68931 0.44368 0.21084 0.0
H214 H 0.62039 0.42344 0.2563 0.0
H215 H 0.60526 0.34727 0.29842 0.0
H216 H 0.66064 0.2927 0.29595 0.0
C217 C 0.74965 0.27316 0.27966 0.0
C218 C 0.7491 0.31065 0.25138 0.0
C219 C 0.71272 0.33865 0.25188 0.0
C220 C 0.71765 0.37882 0.22611 0.0
C221 C 0.68496 0.41031 0.22877 0.0
C222 C 0.64544 0.39937 0.25484 0.0
C223 C 0.6372 0.35678 0.27865 0.0
C224 C 0.67006 0.32643 0.27722 0.0
H225 H 0.66874 0.37032 0.15608 0.0
C226 C 0.71083 0.41186 0.15128 0.0
H227 H 0.80071 0.46761 0.16572 0.0
H228 H 0.82304 0.26153 0.24051 0.0
H229 H 0.87828 0.26923 0.19099 0.0
H230 H 0.88049 0.33274 0.14487 0.0
H231 H 0.82518 0.3875 0.14763 0.0
C232 C 0.75814 0.42666 0.17061 0.0
C233 C 0.7546 0.38666 0.19836 0.0
C234 C 0.78774 0.35555 0.19675 0.0
C235 C 0.78571 0.31818 0.22334 0.0
C236 C 0.82069 0.28891 0.22096 0.0
C237 C 0.85358 0.29359 0.19273 0.0
C238 C 0.85469 0.32923 0.1667 0.0
C239 C 0.82272 0.36039 0.16865 0.0
H240 H 0.55433 0.80437 0.57434 0.0
C241 C 0.52136 0.78381 0.59403 0.0
H242 H 0.42911 0.74163 0.60643 0.0
H243 H 0.41834 0.88919 0.47795 0.0
H244 H 0.4752 0.97927 0.51061 0.0
H245 H 0.524 0.9751 0.56114 0.0
H246 H 0.5137 0.88011 0.58023 0.0
C247 C 0.46329 0.76295 0.58743 0.0
C248 C 0.44426 0.76757 0.55367 0.0
C249 C 0.45594 0.82454 0.54084 0.0
C250 C 0.43139 0.82758 0.51034 0.0
C251 C 0.43825 0.88425 0.50007 0.0
C252 C 0.47073 0.93653 0.51854 0.0
C253 C 0.49783 0.93413 0.54719 0.0
C254 C 0.49086 0.87903 0.55818 0.0
H255 H 0.28576 0.70701 0.46987 0.0
C256 C 0.31467 0.7437 0.45329 0.0
H257 H 0.40138 0.81513 0.44266 0.0
H258 H 0.41749 0.65223 0.57009 0.0
H259 H 0.37005 0.56329 0.53546 0.0
H260 H 0.34013 0.5709 0.4793 0.0
H261 H 0.3558 0.66691 0.4578 0.0
C262 C 0.37344 0.77844 0.4595 0.0
C263 C 0.39985 0.7744 0.49118 0.0
C264 C 0.39344 0.71844 0.50265 0.0
C265 C 0.41342 0.71464 0.53447 0.0
C266 C 0.40371 0.65771 0.546 0.0
C267 C 0.3768 0.60638 0.52633 0.0
C268 C 0.35981 0.61064 0.49474 0.0
C269 C 0.36833 0.66593 0.48284 0.0
H270 H 0.58002 0.4681 0.97306 0.0
C271 C 0.61279 0.45872 0.98446 0.0
H272 H 0.66279 0.41327 0.97956 0.0
H273 H 0.47615 0.21845 0.88031 0.0
H274 H 0.4561 0.15568 0.9286 0.0
H275 H 0.503 0.20094 0.98119 0.0
H276 H 0.56996 0.30955 0.98583 0.0
C277 C 0.62839 0.42144 0.96935 0.0
C278 C 0.60241 0.39408 0.93703 0.0
C279 C 0.56471 0.33041 0.93442 0.0
C280 C 0.53865 0.30418 0.90387 0.0
C281 C 0.49884 0.24071 0.90251 0.0
C282 C 0.48651 0.20411 0.93015 0.0
C283 C 0.51283 0.22961 0.95978 0.0
C284 C 0.55128 0.292 0.96208 0.0
H285 H 0.57425 0.26879 0.83748 0.0
C286 C 0.54081 0.27837 0.82721 0.0
H287 H 0.4917 0.32457 0.83328 0.0
H288 H 0.67815 0.5174 0.9322 0.0
H289 H 0.69699 0.58025 0.88413 0.0
H290 H 0.64935 0.53508 0.8317 0.0
H291 H 0.58315 0.42634 0.82697 0.0
C292 C 0.52484 0.31445 0.84346 0.0
C293 C 0.5515 0.3416 0.87567 0.0
C294 C 0.58898 0.40534 0.87829 0.0
C295 C 0.61524 0.43156 0.90881 0.0
C296 C 0.65498 0.4951 0.91012 0.0
C297 C 0.6667 0.53178 0.88257 0.0
C298 C 0.63996 0.50633 0.85304 0.0
C299 C 0.60189 0.44386 0.8507 0.0
H300 H 0.26721 0.32845 0.98909 0.0
C301 C 0.29889 0.36721 1.00316 0.0
H302 H 0.37152 0.36079 0.98347 0.0
H303 H 0.54253 0.63905 0.02564 0.0
H304 H 0.54083 0.65186 0.96687 0.0
H305 H 0.47527 0.56478 0.93199 0.0
H306 H 0.41041 0.46528 0.9558 0.0
C307 C 0.35746 0.38457 1.00036 0.0
C308 C 0.40383 0.43414 0.0203 0.0
C309 C 0.44094 0.49182 1.00598 0.0
C310 C 0.48091 0.54105 0.02575 0.0
C311 C 0.51428 0.59934 1.01125 0.0
C312 C 0.51288 0.60745 0.97768 0.0
C313 C 0.47603 0.55852 0.95808 0.0
C314 C 0.43926 0.50156 0.97203 0.0
H315 H 0.60221 0.59117 0.03825 0.0
C316 C 0.59653 0.59222 0.06442 0.0
H317 H 0.53974 0.58025 0.10347 0.0
H318 H 0.34059 0.32769 0.05453 0.0
H319 H 0.34707 0.31242 0.11239 0.0
H320 H 0.41732 0.39685 0.14703 0.0
H321 H 0.48076 0.49614 0.12439 0.0
C322 C 0.54225 0.57556 0.07729 0.0
C323 C 0.48762 0.53115 0.05928 0.0
C324 C 0.44893 0.47334 0.07382 0.0
C325 C 0.40761 0.42468 0.0541 0.0
C326 C 0.37157 0.36662 0.06859 0.0
C327 C 0.37511 0.35702 0.10175 0.0
C328 C 0.41474 0.40449 0.1212 0.0
C329 C 0.45143 0.46179 0.1076 0.0
H330 H 0.02427 0.67448 0.41164 0.0
C331 C 0.04496 0.68839 0.38751 0.0
H332 H 0.05286 0.65865 0.34064 0.0
H333 H 0.0641 0.44691 0.41631 0.0
H334 H 0.1683 0.51176 0.40001 0.0
H335 H 0.20031 0.60918 0.37156 0.0
H336 H 0.1285 0.64226 0.35967 0.0
C337 C 0.0305 0.64596 0.3644 0.0
C338 C 0.00831 0.5826 0.37543 0.0
C339 C 0.0506 0.56276 0.38101 0.0
C340 C 0.03205 0.50612 0.39665 0.0
C341 C 0.07561 0.48882 0.40362 0.0
C342 C 0.13562 0.52576 0.39458 0.0
C343 C 0.15366 0.58062 0.37864 0.0
C344 C 0.11192 0.59918 0.372 0.0
H345 H 0.96843 0.37378 0.37725 0.0
C346 C 0.94653 0.36287 0.40116 0.0
H347 H 0.92464 0.39711 0.44288 0.0
H348 H 0.91643 0.60591 0.36561 0.0
H349 H 0.81103 0.53891 0.37928 0.0
H350 H 0.77747 0.43846 0.40447 0.0
H351 H 0.84872 0.40465 0.41651 0.0
C352 C 0.95004 0.40774 0.42005 0.0
C353 C 0.97093 0.46857 0.40547 0.0
C354 C 0.92817 0.48726 0.39857 0.0
C355 C 0.94713 0.5447 0.38372 0.0
C356 C 0.90403 0.56269 0.37708 0.0
C357 C 0.8435 0.52462 0.38465 0.0
C358 C 0.82462 0.46808 0.39884 0.0
C359 C 0.86617 0.44932 0.40574 0.0
H360 H 0.37114 0.00451 0.70054 0.0
C361 C 0.37153 2e-05 0.7269 0.0
H362 H 0.39016 0.96008 0.76631 0.0
H363 H 0.50348 0.89916 0.63107 0.0
H364 H 0.40052 0.83703 0.61228 0.0
H365 H 0.31571 0.8313 0.64434 0.0
H366 H 0.33311 0.88699 0.69516 0.0
C367 C 0.39285 0.96585 0.73993 0.0
C368 C 0.44213 0.96183 0.7225 0.0
C369 C 0.43107 0.92916 0.69294 0.0
C370 C 0.47991 0.93263 0.67438 0.0
C371 C 0.46772 0.89884 0.6453 0.0
C372 C 0.40904 0.86287 0.63457 0.0
C373 C 0.36127 0.85958 0.65264 0.0
C374 C 0.37186 0.89204 0.68162 0.0
H375 H 0.65773 0.9508 0.65756 0.0
C376 C 0.61565 0.93891 0.66996 0.0
H377 H 0.61476 0.01425 0.64952 0.0
H378 H 0.48042 0.02519 0.78054 0.0
H379 H 0.58254 0.08623 0.79805 0.0
H380 H 0.66694 0.09525 0.76431 0.0
H381 H 0.64894 0.04257 0.71274 0.0
C382 C 0.59139 0.97479 0.66541 0.0
C383 C 0.53966 0.96902 0.68521 0.0
C384 C 0.55075 0.00051 0.71513 0.0
C385 C 0.50199 -0.004 0.7342 0.0
C386 C 0.51494 0.02737 0.76438 0.0
C387 C 0.57378 0.06262 0.77497 0.0
C388 C 0.62126 0.06764 0.75602 0.0
C389 C 0.61019 0.03704 0.72646 0.0
H390 H 0.52498 0.61698 0.68429 0.0
C391 C 0.57313 0.63862 0.68829 0.0
H392 H 0.64588 0.62456 0.69953 0.0
H393 H 0.43893 0.36232 0.75464 0.0
H394 H 0.47483 0.41475 0.80619 0.0
H395 H 0.55005 0.5238 0.8073 0.0
H396 H 0.58991 0.58132 0.75681 0.0
C397 C 0.59801 0.60438 0.6952 0.0
C398 C 0.55983 0.53739 0.69476 0.0
C399 C 0.53793 0.50454 0.72443 0.0
C400 C 0.49514 0.44154 0.72375 0.0
C401 C 0.47249 0.40998 0.75373 0.0
C402 C 0.49242 0.43961 0.78349 0.0
C403 C 0.5347 0.50109 0.78413 0.0
C404 C 0.55719 0.53351 0.75501 0.0
H405 H 0.49756 0.32337 0.70794 0.0
C406 C 0.45216 0.30656 0.6991 0.0
H407 H 0.38834 0.32954 0.68221 0.0
H408 H 0.59781 0.58637 0.63354 0.0
H409 H 0.56309 0.53392 0.58196 0.0
H410 H 0.48772 0.42487 0.58069 0.0
H411 H 0.44669 0.36772 0.63097 0.0
C412 C 0.43286 0.34555 0.69212 0.0
C413 C 0.47516 0.41176 0.69333 0.0
C414 C 0.49791 0.44447 0.66366 0.0
C415 C 0.54082 0.50729 0.66438 0.0
C416 C 0.5641 0.53876 0.63441 0.0
C417 C 0.54486 0.50913 0.60461 0.0
C418 C 0.50248 0.44775 0.6039 0.0
C419 C 0.47925 0.41551 0.63298 0.0
H420 H 0.10522 0.50636 0.02533 0.0
C421 C 0.07383 0.45819 0.02228 0.0
H422 H 0.98257 0.38967 0.0216 0.0
H423 H 0.91024 0.56911 0.09492 0.0
H424 H 0.91486 0.51443 0.14266 0.0
H425 H 0.95729 0.44584 0.13843 0.0
H426 H -0.00732 0.42912 0.08616 0.0
C427 C 0.01478 0.43762 0.02444 0.0
C428 C -0.00762 0.4812 0.02758 0.0
C429 C 0.97196 0.49012 0.05826 0.0
C430 C 0.94844 0.53035 0.06078 0.0
C431 C 0.92781 0.53836 0.09163 0.0
C432 C 0.93048 0.50751 0.11921 0.0
C433 C 0.9543 0.4688 0.11682 0.0
C434 C 0.9746 0.45976 0.08673 0.0
H435 H 0.8294 0.51433 0.03895 0.0
C436 C 0.85215 0.56329 0.03528 0.0
H437 H 0.93551 0.64367 0.02894 0.0
H438 H 0.02924 0.47505 0.96505 0.0
H439 H 0.02901 0.53331 0.91816 0.0
H440 H -0.00844 0.60597 0.92307 0.0
H441 H 0.95388 0.62049 0.97495 0.0
C442 C 0.91212 0.59497 0.03346 0.0
C443 C 0.94612 0.56176 0.03262 0.0
C444 C 0.9699 0.55559 1.00239 0.0
C445 C -0.0078 0.51444 0.9997 0.0
C446 C 0.01292 0.5067 0.96877 0.0
C447 C 0.01277 0.53965 0.94154 0.0
C448 C -0.00837 0.58049 0.9443 0.0
C449 C 0.97012 0.58835 0.97425 0.0
H450 H 0.37768 0.99209 0.35428 0.0
C451 C 0.35471 0.94277 0.35357 0.0
H452 H 0.36203 0.86342 0.35738 0.0
H453 H 0.63813 0.01459 0.31845 0.0
H454 H 0.59685 0.95058 0.27136 0.0
H455 H 0.48769 0.88167 0.26685 0.0
H456 H 0.41931 0.8777 0.30936 0.0
C457 C 0.38444 0.91257 0.35944 0.0
C458 C 0.44967 0.94518 0.36543 0.0
C459 C 0.48916 0.94401 0.34134 0.0
C460 C 0.55216 0.98189 0.34462 0.0
C461 C 0.59019 0.98446 0.31847 0.0
C462 C 0.56697 0.9483 0.29092 0.0
C463 C 0.50555 0.90964 0.28833 0.0
C464 C 0.46683 0.90773 0.31301 0.0
H465 H 0.6749 0.00481 0.37387 0.0
C466 C 0.68434 0.0516 0.37459 0.0
H467 H 0.64953 0.11166 0.3761 0.0
H468 H 0.38535 0.95095 0.41799 0.0
H469 H 0.42611 0.01361 0.466 0.0
H470 H 0.53569 0.07616 0.47303 0.0
H471 H 0.60484 0.07711 0.4317 0.0
C472 C 0.63952 0.06467 0.37488 0.0
C473 C 0.5752 0.01807 0.37305 0.0
C474 C 0.53546 0.01598 0.39808 0.0
C475 C 0.47251 0.97971 0.39419 0.0
C476 C 0.43366 0.97895 0.41934 0.0
C477 C 0.45646 0.01433 0.44716 0.0
C478 C 0.51814 0.0496 0.45109 0.0
C479 C 0.55734 0.05009 0.42709 0.0
H480 H 0.21394 0.14377 0.76214 0.0
C481 C 0.25772 0.15905 0.77289 0.0
H482 H 0.31459 0.20249 0.81265 0.0
H483 H 0.21504 0.35992 0.86949 0.0
H484 H 0.30802 0.43609 0.84424 0.0
H485 H 0.36473 0.40683 0.80644 0.0
H486 H 0.32967 0.30093 0.7943 0.0
C487 C 0.27035 0.18609 0.80225 0.0
C488 C 0.22929 0.20252 0.81983 0.0
C489 C 0.24904 0.2648 0.82558 0.0
C490 C 0.21528 0.28173 0.84657 0.0
C491 C 0.23796 0.34425 0.85322 0.0
C492 C 0.2914 0.38861 0.8389 0.0
C493 C 0.32349 0.37213 0.8177 0.0
C494 C 0.30288 0.31109 0.81106 0.0
H495 H 0.14968 0.20604 0.92394 0.0
C496 C 0.13399 0.23792 0.91868 0.0
H497 H 0.11947 0.28803 0.88233 0.0
H498 H 0.17806 0.0786 0.81426 0.0
H499 H 0.08168 0.00293 0.8365 0.0
H500 H 0.0192 0.03316 0.86907 0.0
H501 H 0.0537 0.13962 0.88016 0.0
C502 C 0.132 0.25372 0.88758 0.0
C503 C 0.16108 0.23628 0.86125 0.0
C504 C 0.13891 0.17434 0.85341 0.0
C505 C 0.17371 0.15719 0.83332 0.0
C506 C 0.15255 0.09459 0.82813 0.0
C507 C 0.09736 0.05054 0.84097 0.0
C508 C 0.06228 0.06754 0.8594 0.0
C509 C 0.08267 0.12866 0.86571 0.0
H510 H 0.01715 0.25691 0.27872 0.0
C511 C 0.96937 0.22629 0.2755 0.0
H512 H 0.89966 0.17911 0.24173 0.0
H513 H 0.08285 0.3967 0.14301 0.0
H514 H 0.05415 0.45913 0.17475 0.0
H515 H -0.00547 0.41998 0.22562 0.0
H516 H 0.96284 0.31801 0.24485 0.0
C517 C 0.94739 0.20957 0.24525 0.0
C518 C -0.01361 0.2344 0.21556 0.0
C519 C 0.00577 0.29479 0.20505 0.0
C520 C 0.04077 0.31759 0.17591 0.0
C521 C 0.05749 0.37734 0.16535 0.0
C522 C 0.04104 0.41371 0.18325 0.0
C523 C 0.00754 0.39169 0.2119 0.0
C524 C -0.01006 0.33304 0.22276 0.0
H525 H 0.04024 0.24834 0.09311 0.0
C526 C 0.08247 0.28933 0.0979 0.0
H527 H 0.14094 0.34906 0.13337 0.0
H528 H 0.95496 0.11644 0.22834 0.0
H529 H 0.98519 0.05414 0.1972 0.0
H530 H 0.05062 0.09536 0.1484 0.0
H531 H 0.08553 0.1987 0.13011 0.0
C532 C 0.09878 0.30773 0.12889 0.0
C533 C 0.05764 0.28054 0.15764 0.0
C534 C 0.03858 0.22028 0.16828 0.0
C535 C 0.00202 0.19692 0.19695 0.0
C536 C 0.98293 0.13643 0.20683 0.0
C537 C 8e-05 0.10026 0.18925 0.0
C538 C 0.03687 0.12346 0.16174 0.0
C539 C 0.05627 0.1828 0.15136 0.0
H540 H 0.80618 0.90393 0.5842 0.0
C541 C 0.80005 0.92891 0.60406 0.0
H542 H 0.80444 0.01063 0.61856 0.0
H543 H 0.92896 0.06417 0.46785 0.0
H544 H 0.01097 0.0566 0.4922 0.0
H545 H 0.00749 0.02992 0.55049 0.0
H546 H 0.92122 0.00954 0.58466 0.0
C547 C 0.81334 0.98665 0.5992 0.0
C548 C 0.82007 0.01065 0.56529 0.0
C549 C 0.87183 0.02514 0.54606 0.0
C550 C 0.87497 0.04322 0.51279 0.0
C551 C 0.92542 0.05322 0.4936 0.0
C552 C 0.97259 0.04844 0.50721 0.0
C553 C 0.97055 0.03321 0.54 0.0
C554 C 0.92078 0.02149 0.55931 0.0
H555 H 0.91053 0.1528 0.46747 0.0
C556 C 0.87042 0.12421 0.45359 0.0
H557 H 0.78957 0.04222 0.45005 0.0
H558 H 0.7123 0.98211 0.59486 0.0
H559 H 0.6306 0.98989 0.57099 0.0
H560 H 0.63817 0.02743 0.51459 0.0
H561 H 0.7278 0.058 0.48194 0.0
C562 C 0.82925 0.06896 0.46471 0.0
C563 C 0.82733 0.04936 0.4993 0.0
C564 C 0.77564 0.03534 0.5188 0.0
C565 C 0.77175 0.01521 0.55162 0.0
C566 C 0.71842 -0.00129 0.56998 0.0
C567 C 0.67081 0.00272 0.55654 0.0
C568 C 0.67513 0.02386 0.52481 0.0
C569 C 0.72697 0.04078 0.50622 0.0
H570 H 0.73011 0.81794 0.78038 0.0
C571 C 0.6836 0.80765 0.77965 0.0
H572 H 0.60384 0.78255 0.80643 0.0
H573 H 0.64299 0.63846 0.91881 0.0
H574 H 0.55227 0.56116 0.8934 0.0
H575 H 0.51459 0.58344 0.843 0.0
H576 H 0.56842 0.68224 0.81708 0.0
C577 C 0.65029 0.79265 0.80734 0.0
C578 C 0.67192 0.78114 0.83882 0.0
C579 C 0.6397 0.72266 0.85359 0.0
C580 C 0.66115 0.70981 0.88277 0.0
C581 C 0.6286 0.65086 0.89675 0.0
C582 C 0.57637 0.60598 0.88243 0.0
C583 C 0.55532 0.61844 0.85399 0.0
C584 C 0.58665 0.67571 0.83946 0.0
H585 H 0.68821 0.75671 0.96062 0.0
C586 C 0.72004 0.74073 0.9564 0.0
H587 H 0.77004 0.72232 0.92135 0.0
H588 H 0.73835 0.90105 0.82064 0.0
H589 H 0.82929 0.97797 0.8462 0.0
H590 H 0.86936 0.9537 0.89502 0.0
H591 H 0.81793 0.85239 0.91893 0.0
C592 C 0.73963 0.73994 0.92593 0.0
C593 C 0.71479 0.75529 0.89709 0.0
C594 C 0.74604 0.81408 0.88295 0.0
C595 C 0.72403 0.82745 0.85411 0.0
C596 C 0.75447 0.88755 0.84159 0.0
C597 C 0.80644 0.93235 0.85623 0.0
C598 C 0.82892 0.91873 0.88378 0.0
C599 C 0.7991 0.86042 0.89719 0.0
H600 H 0.10098 0.86374 0.23137 0.0
C601 C 0.07642 0.84854 0.25443 0.0
H602 H -0.00801 0.79729 0.27744 0.0
H603 H 0.94854 0.8252 0.1172 0.0
H604 H -0.0067 0.9334 0.1267 0.0
H605 H 0.03133 0.97632 0.1811 0.0
H606 H 0.02649 0.91132 0.22604 0.0
C607 C 0.01633 0.81494 0.25449 0.0
C608 C 0.98408 0.78878 0.22347 0.0
C609 C 0.98373 0.82683 0.19814 0.0
C610 C 0.95804 0.80153 0.16744 0.0
C611 C 0.96365 0.84136 0.14163 0.0
C612 C -0.01007 0.90372 0.14664 0.0
C613 C 0.01162 0.92793 0.17722 0.0
C614 C 0.00884 0.89017 0.20274 0.0
H615 H 0.84183 0.74978 0.13143 0.0
C616 C 0.85159 0.71614 0.12096 0.0
H617 H 0.90579 0.67554 0.12071 0.0
H618 H 0.98098 0.70326 0.26607 0.0
H619 H 0.93246 0.59485 0.25752 0.0
H620 H 0.87903 0.54959 0.20637 0.0
H621 H 0.87478 0.61249 0.16334 0.0
C622 C 0.89695 0.70918 0.13211 0.0
C623 C 0.92853 0.73759 0.16302 0.0
C624 C 0.92812 0.69939 0.1886 0.0
C625 C 0.95688 0.72516 0.2186 0.0
C626 C 0.95841 0.68625 0.24309 0.0
C627 C 0.93083 0.62374 0.23851 0.0
C628 C 0.90091 0.5983 0.2097 0.0
C629 C 0.8992 0.6353 0.18504 0.0
H630 H 0.24888 0.98008 0.60311 0.0
C631 C 0.25175 0.02376 0.60747 0.0
H632 H 0.23945 0.09405 0.58847 0.0
H633 H 0.29078 0.04542 0.44331 0.0
H634 H 0.36376 0.15201 0.4509 0.0
H635 H 0.37178 0.20157 0.50392 0.0
H636 H 0.30865 0.14486 0.54989 0.0
C637 C 0.23548 0.04992 0.58408 0.0
C638 C 0.22146 0.02422 0.55046 0.0
C639 C 0.25862 0.05875 0.52376 0.0
C640 C 0.25378 0.03042 0.49307 0.0
C641 C 0.2927 0.06495 0.46709 0.0
C642 C 0.33465 0.1261 0.47109 0.0
C643 C 0.33923 0.15397 0.50097 0.0
C644 C 0.30238 0.1208 0.52718 0.0
H645 H 0.15777 0.9465 0.4299 0.0
C646 C 0.18749 0.92762 0.43257 0.0
H647 H 0.24616 0.91538 0.46375 0.0
H648 H 0.13217 0.95094 0.59343 0.0
H649 H 0.05532 0.846 0.58457 0.0
H650 H 0.04965 0.79583 0.53198 0.0
H651 H 0.12017 0.85058 0.48776 0.0
C652 C 0.21715 0.93498 0.46065 0.0
C653 C 0.21162 0.96813 0.48913 0.0
C654 C 0.17044 0.93545 0.51468 0.0
C655 C 0.17477 0.96381 0.54527 0.0
C656 C 0.13212 0.9307 0.57015 0.0
C657 C 0.08756 0.87069 0.56527 0.0
C658 C 0.0843 0.84247 0.53563 0.0
C659 C 0.12513 0.87427 0.51052 0.0
loop_
_geom_bond_atom_site_label_1
_geom_bond_atom_site_label_2
_geom_bond_distance
_geom_bond_site_symmetry_2
_ccdc_geom_bond_type
Dy0 O4 2.398 . S
Dy0 O5 2.491 . S
Dy0 O6 2.403 . S
Dy0 O7 2.664 . S
Dy0 O11 2.326 . S
Dy0 O15 2.310 . S
Dy0 O16 2.351 1_554 S
C1 O12 1.185 . S
C1 O13 1.355 . S
C2 O4 1.185 . S
C2 O5 1.355 . S
Dy3 O7 2.310 1_556 S
Dy3 O10 2.351 1_556 S
Dy3 O12 2.398 . S
Dy3 O13 2.491 . S
Dy3 O14 2.403 . S
Dy3 O15 2.664 1_556 S
Dy3 O17 2.326 . S
O4 Dy0 2.398 . S
O4 C2 1.185 . S
O5 Dy0 2.491 . S
O5 C2 1.355 . S
O6 Dy0 2.403 . S
O6 C8 1.254 . S
O7 Dy0 2.664 . S
O7 Dy3 2.310 1_554 S
O7 C8 1.268 . S
C8 O6 1.254 . S
C8 O7 1.268 . S
C9 O14 1.254 1_554 S
C9 O15 1.268 . S
O10 Dy3 2.351 1_554 S
O10 C18 1.249 . S
O11 Dy0 2.326 . S
O11 C18 1.267 . S
O12 C1 1.185 . S
O12 Dy3 2.398 . S
O13 C1 1.355 . S
O13 Dy3 2.491 . S
O14 Dy3 2.403 . S
O14 C9 1.254 1_556 S
O15 Dy0 2.310 . S
O15 Dy3 2.664 1_554 S
O15 C9 1.268 . S
O16 Dy0 2.351 1_556 S
O16 C19 1.249 . S
O17 Dy3 2.326 . S
O17 C19 1.267 . S
C18 O10 1.249 . S
C18 O11 1.267 . S
C19 O16 1.249 . S
C19 O17 1.267 . S
Dy20 O24 2.398 . S
Dy20 O25 2.491 . S
Dy20 O26 2.403 . S
Dy20 O27 2.664 . S
Dy20 O31 2.326 . S
Dy20 O35 2.310 . S
Dy20 O36 2.351 . S
C21 O32 1.185 . S
C21 O33 1.355 . S
C22 O24 1.185 . S
C22 O25 1.355 . S
Dy23 O27 2.310 . S
Dy23 O30 2.351 . S
Dy23 O32 2.398 . S
Dy23 O33 2.491 . S
Dy23 O34 2.403 . S
Dy23 O35 2.664 . S
Dy23 O37 2.326 . S
O24 Dy20 2.398 . S
O24 C22 1.185 . S
O25 Dy20 2.491 . S
O25 C22 1.355 . S
O26 Dy20 2.403 . S
O26 C28 1.254 . S
O27 Dy20 2.664 . S
O27 Dy23 2.310 . S
O27 C28 1.268 . S
C28 O26 1.254 . S
C28 O27 1.268 . S
C29 O34 1.254 . S
C29 O35 1.268 . S
O30 Dy23 2.351 . S
O30 C38 1.249 . S
O31 Dy20 2.326 . S
O31 C38 1.267 . S
O32 C21 1.185 . S
O32 Dy23 2.398 . S
O33 C21 1.355 . S
O33 Dy23 2.491 . S
O34 Dy23 2.403 . S
O34 C29 1.254 . S
O35 Dy20 2.310 . S
O35 Dy23 2.664 . S
O35 C29 1.268 . S
O36 Dy20 2.351 . S
O36 C39 1.249 . S
O37 Dy23 2.326 . S
O37 C39 1.267 . S
C38 O30 1.249 . S
C38 O31 1.267 . S
C39 O36 1.249 . S
C39 O37 1.267 . S
Dy40 O44 2.398 . S
Dy40 O45 2.491 . S
Dy40 O46 2.403 . S
Dy40 O47 2.664 . S
Dy40 O51 2.326 . S
Dy40 O55 2.310 . S
Dy40 O56 2.351 . S
C41 O52 1.185 . S
C41 O53 1.355 . S
C42 O44 1.185 . S
C42 O45 1.355 . S
Dy43 O47 2.310 . S
Dy43 O50 2.351 . S
Dy43 O52 2.398 . S
Dy43 O53 2.491 . S
Dy43 O54 2.403 . S
Dy43 O55 2.664 . S
Dy43 O57 2.326 . S
O44 Dy40 2.398 . S
O44 C42 1.185 . S
O45 Dy40 2.491 . S
O45 C42 1.355 . S
O46 Dy40 2.403 . S
O46 C48 1.254 . S
O47 Dy40 2.664 . S
O47 Dy43 2.310 . S
O47 C48 1.268 . S
C48 O46 1.254 . S
C48 O47 1.268 . S
C49 O54 1.254 . S
C49 O55 1.268 . S
O50 Dy43 2.351 . S
O50 C58 1.249 . S
O51 Dy40 2.326 . S
O51 C58 1.267 . S
O52 C41 1.185 . S
O52 Dy43 2.398 . S
O53 C41 1.355 . S
O53 Dy43 2.491 . S
O54 Dy43 2.403 . S
O54 C49 1.254 . S
O55 Dy40 2.310 . S
O55 Dy43 2.664 . S
O55 C49 1.268 . S
O56 Dy40 2.351 . S
O56 C59 1.249 . S
O57 Dy43 2.326 . S
O57 C59 1.267 . S
C58 O50 1.249 . S
C58 O51 1.267 . S
C59 O56 1.249 . S
C59 O57 1.267 . S
Dy60 O64 2.398 . S
Dy60 O65 2.491 . S
Dy60 O66 2.403 . S
Dy60 O67 2.664 . S
Dy60 O71 2.326 . S
Dy60 O75 2.310 . S
Dy60 O76 2.351 1_554 S
C61 O72 1.185 . S
C61 O73 1.355 . S
C62 O64 1.185 . S
C62 O65 1.355 . S
Dy63 O67 2.310 1_556 S
Dy63 O70 2.351 1_556 S
Dy63 O72 2.398 . S
Dy63 O73 2.491 . S
Dy63 O74 2.403 . S
Dy63 O75 2.664 1_556 S
Dy63 O77 2.326 . S
O64 Dy60 2.398 . S
O64 C62 1.185 . S
O65 Dy60 2.491 . S
O65 C62 1.355 . S
O66 Dy60 2.403 . S
O66 C68 1.254 . S
O67 Dy60 2.664 . S
O67 Dy63 2.310 1_554 S
O67 C68 1.268 . S
C68 O66 1.254 . S
C68 O67 1.268 . S
C69 O74 1.254 1_554 S
C69 O75 1.268 . S
O70 Dy63 2.351 1_554 S
O70 C78 1.249 . S
O71 Dy60 2.326 . S
O71 C78 1.267 . S
O72 C61 1.185 . S
O72 Dy63 2.398 . S
O73 C61 1.355 . S
O73 Dy63 2.491 . S
O74 Dy63 2.403 . S
O74 C69 1.254 1_556 S
O75 Dy60 2.310 . S
O75 Dy63 2.664 1_554 S
O75 C69 1.268 . S
O76 Dy60 2.351 1_556 S
O76 C79 1.249 . S
O77 Dy63 2.326 . S
O77 C79 1.267 . S
C78 O70 1.249 . S
C78 O71 1.267 . S
C79 O76 1.249 . S
C79 O77 1.267 . S
Dy80 O84 2.398 . S
Dy80 O85 2.491 . S
Dy80 O86 2.403 . S
Dy80 O87 2.664 . S
Dy80 O91 2.326 . S
Dy80 O95 2.310 . S
Dy80 O96 2.351 . S
C81 O92 1.185 . S
C81 O93 1.355 . S
C82 O84 1.185 . S
C82 O85 1.355 . S
Dy83 O87 2.310 . S
Dy83 O90 2.351 . S
Dy83 O92 2.398 . S
Dy83 O93 2.491 . S
Dy83 O94 2.403 . S
Dy83 O95 2.664 . S
Dy83 O97 2.326 . S
O84 Dy80 2.398 . S
O84 C82 1.185 . S
O85 Dy80 2.491 . S
O85 C82 1.355 . S
O86 Dy80 2.403 . S
O86 C88 1.254 . S
O87 Dy80 2.664 . S
O87 Dy83 2.310 . S
O87 C88 1.268 . S
C88 O86 1.254 . S
C88 O87 1.268 . S
C89 O94 1.254 . S
C89 O95 1.268 . S
O90 Dy83 2.351 . S
O90 C98 1.249 . S
O91 Dy80 2.326 . S
O91 C98 1.267 . S
O92 C81 1.185 . S
O92 Dy83 2.398 . S
O93 C81 1.355 . S
O93 Dy83 2.491 . S
O94 Dy83 2.403 . S
O94 C89 1.254 . S
O95 Dy80 2.310 . S
O95 Dy83 2.664 . S
O95 C89 1.268 . S
O96 Dy80 2.351 . S
O96 C99 1.249 . S
O97 Dy83 2.326 . S
O97 C99 1.267 . S
C98 O90 1.249 . S
C98 O91 1.267 . S
C99 O96 1.249 . S
C99 O97 1.267 . S
Dy100 O104 2.398 . S
Dy100 O105 2.491 . S
Dy100 O106 2.403 . S
Dy100 O107 2.664 . S
Dy100 O111 2.326 . S
Dy100 O115 2.310 . S
Dy100 O116 2.351 . S
C101 O112 1.185 . S
C101 O113 1.355 . S
C102 O104 1.185 . S
C102 O105 1.355 . S
Dy103 O107 2.310 . S
Dy103 O110 2.351 . S
Dy103 O112 2.398 . S
Dy103 O113 2.491 . S
Dy103 O114 2.403 . S
Dy103 O115 2.664 . S
Dy103 O117 2.326 . S
O104 Dy100 2.398 . S
O104 C102 1.185 . S
O105 Dy100 2.491 . S
O105 C102 1.355 . S
O106 Dy100 2.403 . S
O106 C108 1.254 . S
O107 Dy100 2.664 . S
O107 Dy103 2.310 . S
O107 C108 1.268 . S
C108 O106 1.254 . S
C108 O107 1.268 . S
C109 O114 1.254 . S
C109 O115 1.268 . S
O110 Dy103 2.351 . S
O110 C118 1.249 . S
O111 Dy100 2.326 . S
O111 C118 1.267 . S
O112 C101 1.185 . S
O112 Dy103 2.398 . S
O113 C101 1.355 . S
O113 Dy103 2.491 . S
O114 Dy103 2.403 . S
O114 C109 1.254 . S
O115 Dy100 2.310 . S
O115 Dy103 2.664 . S
O115 C109 1.268 . S
O116 Dy100 2.351 . S
O116 C119 1.249 . S
O117 Dy103 2.326 . S
O117 C119 1.267 . S
C118 O110 1.249 . S
C118 O111 1.267 . S
C119 O116 1.249 . S
C119 O117 1.267 . S
H120 C121 0.951 . S
C121 H120 0.951 . S
C121 C127 1.265 . S
H122 C127 0.950 . S
H123 C131 0.949 . S
H124 C132 0.950 . S
H125 C133 0.951 . S
H126 C134 0.951 . S
C127 C121 1.265 . S
C127 H122 0.950 . S
C127 C128 1.478 . S
C128 C127 1.478 . S
C128 C129 1.397 . S
C128 C145 1.394 . S
C129 C128 1.397 . S
C129 C130 1.438 . S
C129 C134 1.429 . S
C130 C129 1.438 . S
C130 C131 1.428 . S
C130 C143 1.394 . S
C131 H123 0.949 . S
C131 C130 1.428 . S
C131 C132 1.345 . S
C132 H124 0.950 . S
C132 C131 1.345 . S
C132 C133 1.424 . S
C133 H125 0.951 . S
C133 C132 1.424 . S
C133 C134 1.347 . S
C134 H126 0.951 . S
C134 C129 1.429 . S
C134 C133 1.347 . S
H135 C136 0.951 . S
C136 H135 0.951 . S
C136 C142 1.265 . S
H137 C142 0.950 . S
H138 C146 0.949 . S
H139 C147 0.950 . S
H140 C148 0.951 . S
H141 C149 0.951 . S
C142 C136 1.265 . S
C142 H137 0.950 . S
C142 C143 1.478 . S
C143 C130 1.394 . S
C143 C142 1.478 . S
C143 C144 1.397 . S
C144 C143 1.397 . S
C144 C145 1.438 . S
C144 C149 1.429 . S
C145 C128 1.394 . S
C145 C144 1.438 . S
C145 C146 1.428 . S
C146 H138 0.949 . S
C146 C145 1.428 . S
C146 C147 1.345 . S
C147 H139 0.950 . S
C147 C146 1.345 . S
C147 C148 1.424 . S
C148 H140 0.951 . S
C148 C147 1.424 . S
C148 C149 1.347 . S
C149 H141 0.951 . S
C149 C144 1.429 . S
C149 C148 1.347 . S
H150 C151 0.951 . S
C151 H150 0.951 . S
C151 C157 1.265 . S
H152 C157 0.950 . S
H153 C161 0.949 . S
H154 C162 0.950 . S
H155 C163 0.951 . S
H156 C164 0.951 . S
C157 C151 1.265 . S
C157 H152 0.950 . S
C157 C158 1.478 . S
C158 C157 1.478 . S
C158 C159 1.397 . S
C158 C175 1.394 . S
C159 C158 1.397 . S
C159 C160 1.438 . S
C159 C164 1.429 . S
C160 C159 1.438 . S
C160 C161 1.428 . S
C160 C173 1.394 . S
C161 H153 0.949 . S
C161 C160 1.428 . S
C161 C162 1.345 . S
C162 H154 0.950 . S
C162 C161 1.345 . S
C162 C163 1.424 . S
C163 H155 0.951 . S
C163 C162 1.424 . S
C163 C164 1.347 . S
C164 H156 0.951 . S
C164 C159 1.429 . S
C164 C163 1.347 . S
H165 C166 0.951 . S
C166 H165 0.951 . S
C166 C172 1.265 . S
H167 C172 0.950 . S
H168 C176 0.949 . S
H169 C177 0.950 . S
H170 C178 0.951 . S
H171 C179 0.951 . S
C172 C166 1.265 . S
C172 H167 0.950 . S
C172 C173 1.478 . S
C173 C160 1.394 . S
C173 C172 1.478 . S
C173 C174 1.397 . S
C174 C173 1.397 . S
C174 C175 1.438 . S
C174 C179 1.429 . S
C175 C158 1.394 . S
C175 C174 1.438 . S
C175 C176 1.428 . S
C176 H168 0.949 . S
C176 C175 1.428 . S
C176 C177 1.345 . S
C177 H169 0.950 . S
C177 C176 1.345 . S
C177 C178 1.424 . S
C178 H170 0.951 . S
C178 C177 1.424 . S
C178 C179 1.347 . S
C179 H171 0.951 . S
C179 C174 1.429 . S
C179 C178 1.347 . S
H180 C181 0.951 . S
C181 H180 0.951 . S
C181 C187 1.265 . S
H182 C187 0.950 . S
H183 C191 0.949 . S
H184 C192 0.950 . S
H185 C193 0.951 . S
H186 C194 0.951 . S
C187 C181 1.265 . S
C187 H182 0.950 . S
C187 C188 1.478 . S
C188 C187 1.478 . S
C188 C189 1.397 . S
C188 C205 1.394 . S
C189 C188 1.397 . S
C189 C190 1.438 . S
C189 C194 1.429 . S
C190 C189 1.438 . S
C190 C191 1.428 . S
C190 C203 1.394 . S
C191 H183 0.949 . S
C191 C190 1.428 . S
C191 C192 1.345 . S
C192 H184 0.950 . S
C192 C191 1.345 . S
C192 C193 1.424 . S
C193 H185 0.951 . S
C193 C192 1.424 . S
C193 C194 1.347 . S
C194 H186 0.951 . S
C194 C189 1.429 . S
C194 C193 1.347 . S
H195 C196 0.951 . S
C196 H195 0.951 . S
C196 C202 1.265 . S
H197 C202 0.950 . S
H198 C206 0.949 . S
H199 C207 0.950 . S
H200 C208 0.951 . S
H201 C209 0.951 . S
C202 C196 1.265 . S
C202 H197 0.950 . S
C202 C203 1.478 . S
C203 C190 1.394 . S
C203 C202 1.478 . S
C203 C204 1.397 . S
C204 C203 1.397 . S
C204 C205 1.438 . S
C204 C209 1.429 . S
C205 C188 1.394 . S
C205 C204 1.438 . S
C205 C206 1.428 . S
C206 H198 0.949 . S
C206 C205 1.428 . S
C206 C207 1.345 . S
C207 H199 0.950 . S
C207 C206 1.345 . S
C207 C208 1.424 . S
C208 H200 0.951 . S
C208 C207 1.424 . S
C208 C209 1.347 . S
C209 H201 0.951 . S
C209 C204 1.429 . S
C209 C208 1.347 . S
H210 C211 0.951 . S
C211 H210 0.951 . S
C211 C217 1.265 . S
H212 C217 0.950 . S
H213 C221 0.949 . S
H214 C222 0.950 . S
H215 C223 0.951 . S
H216 C224 0.951 . S
C217 C211 1.265 . S
C217 H212 0.950 . S
C217 C218 1.478 . S
C218 C217 1.478 . S
C218 C219 1.397 . S
C218 C235 1.394 . S
C219 C218 1.397 . S
C219 C220 1.438 . S
C219 C224 1.429 . S
C220 C219 1.438 . S
C220 C221 1.428 . S
C220 C233 1.394 . S
C221 H213 0.949 . S
C221 C220 1.428 . S
C221 C222 1.345 . S
C222 H214 0.950 . S
C222 C221 1.345 . S
C222 C223 1.424 . S
C223 H215 0.951 . S
C223 C222 1.424 . S
C223 C224 1.347 . S
C224 H216 0.951 . S
C224 C219 1.429 . S
C224 C223 1.347 . S
H225 C226 0.951 . S
C226 H225 0.951 . S
C226 C232 1.265 . S
H227 C232 0.950 . S
H228 C236 0.949 . S
H229 C237 0.950 . S
H230 C238 0.951 . S
H231 C239 0.951 . S
C232 C226 1.265 . S
C232 H227 0.950 . S
C232 C233 1.478 . S
C233 C220 1.394 . S
C233 C232 1.478 . S
C233 C234 1.397 . S
C234 C233 1.397 . S
C234 C235 1.438 . S
C234 C239 1.429 . S
C235 C218 1.394 . S
C235 C234 1.438 . S
C235 C236 1.428 . S
C236 H228 0.949 . S
C236 C235 1.428 . S
C236 C237 1.345 . S
C237 H229 0.950 . S
C237 C236 1.345 . S
C237 C238 1.424 . S
C238 H230 0.951 . S
C238 C237 1.424 . S
C238 C239 1.347 . S
C239 H231 0.951 . S
C239 C234 1.429 . S
C239 C238 1.347 . S
H240 C241 0.951 . S
C241 H240 0.951 . S
C241 C247 1.265 . S
H242 C247 0.950 . S
H243 C251 0.949 . S
H244 C252 0.950 . S
H245 C253 0.951 . S
H246 C254 0.951 . S
C247 C241 1.265 . S
C247 H242 0.950 . S
C247 C248 1.478 . S
C248 C247 1.478 . S
C248 C249 1.397 . S
C248 C265 1.394 . S
C249 C248 1.397 . S
C249 C250 1.438 . S
C249 C254 1.429 . S
C250 C249 1.438 . S
C250 C251 1.428 . S
C250 C263 1.394 . S
C251 H243 0.949 . S
C251 C250 1.428 . S
C251 C252 1.345 . S
C252 H244 0.950 . S
C252 C251 1.345 . S
C252 C253 1.424 . S
C253 H245 0.951 . S
C253 C252 1.424 . S
C253 C254 1.347 . S
C254 H246 0.951 . S
C254 C249 1.429 . S
C254 C253 1.347 . S
H255 C256 0.951 . S
C256 H255 0.951 . S
C256 C262 1.265 . S
H257 C262 0.950 . S
H258 C266 0.949 . S
H259 C267 0.950 . S
H260 C268 0.951 . S
H261 C269 0.951 . S
C262 C256 1.265 . S
C262 H257 0.950 . S
C262 C263 1.478 . S
C263 C250 1.394 . S
C263 C262 1.478 . S
C263 C264 1.397 . S
C264 C263 1.397 . S
C264 C265 1.438 . S
C264 C269 1.429 . S
C265 C248 1.394 . S
C265 C264 1.438 . S
C265 C266 1.428 . S
C266 H258 0.949 . S
C266 C265 1.428 . S
C266 C267 1.345 . S
C267 H259 0.950 . S
C267 C266 1.345 . S
C267 C268 1.424 . S
C268 H260 0.951 . S
C268 C267 1.424 . S
C268 C269 1.347 . S
C269 H261 0.951 . S
C269 C264 1.429 . S
C269 C268 1.347 . S
H270 C271 0.951 . S
C271 H270 0.951 . S
C271 C277 1.265 . S
H272 C277 0.950 . S
H273 C281 0.949 . S
H274 C282 0.950 . S
H275 C283 0.951 . S
H276 C284 0.951 . S
C277 C271 1.265 . S
C277 H272 0.950 . S
C277 C278 1.478 . S
C278 C277 1.478 . S
C278 C279 1.397 . S
C278 C295 1.394 . S
C279 C278 1.397 . S
C279 C280 1.438 . S
C279 C284 1.429 . S
C280 C279 1.438 . S
C280 C281 1.428 . S
C280 C293 1.394 . S
C281 H273 0.949 . S
C281 C280 1.428 . S
C281 C282 1.345 . S
C282 H274 0.950 . S
C282 C281 1.345 . S
C282 C283 1.424 . S
C283 H275 0.951 . S
C283 C282 1.424 . S
C283 C284 1.347 . S
C284 H276 0.951 . S
C284 C279 1.429 . S
C284 C283 1.347 . S
H285 C286 0.951 . S
C286 H285 0.951 . S
C286 C292 1.265 . S
H287 C292 0.950 . S
H288 C296 0.949 . S
H289 C297 0.950 . S
H290 C298 0.951 . S
H291 C299 0.951 . S
C292 C286 1.265 . S
C292 H287 0.950 . S
C292 C293 1.478 . S
C293 C280 1.394 . S
C293 C292 1.478 . S
C293 C294 1.397 . S
C294 C293 1.397 . S
C294 C295 1.438 . S
C294 C299 1.429 . S
C295 C278 1.394 . S
C295 C294 1.438 . S
C295 C296 1.428 . S
C296 H288 0.949 . S
C296 C295 1.428 . S
C296 C297 1.345 . S
C297 H289 0.950 . S
C297 C296 1.345 . S
C297 C298 1.424 . S
C298 H290 0.951 . S
C298 C297 1.424 . S
C298 C299 1.347 . S
C299 H291 0.951 . S
C299 C294 1.429 . S
C299 C298 1.347 . S
H300 C301 0.951 . S
C301 H300 0.951 . S
C301 C307 1.265 . S
H302 C307 0.950 . S
H303 C311 0.949 . S
H304 C312 0.950 . S
H305 C313 0.951 . S
H306 C314 0.951 . S
C307 C301 1.265 . S
C307 H302 0.950 . S
C307 C308 1.478 . S
C308 C307 1.478 . S
C308 C309 1.397 . S
C308 C325 1.394 . S
C309 C308 1.397 . S
C309 C310 1.438 . S
C309 C314 1.429 1_554 S
C310 C309 1.438 . S
C310 C311 1.428 1_554 S
C310 C323 1.394 . S
C311 H303 0.949 . S
C311 C310 1.428 1_556 S
C311 C312 1.345 . S
C312 H304 0.950 . S
C312 C311 1.345 . S
C312 C313 1.424 . S
C313 H305 0.951 . S
C313 C312 1.424 . S
C313 C314 1.347 . S
C314 H306 0.951 . S
C314 C309 1.429 1_556 S
C314 C313 1.347 . S
H315 C316 0.951 . S
C316 H315 0.951 . S
C316 C322 1.265 . S
H317 C322 0.950 . S
H318 C326 0.949 . S
H319 C327 0.950 . S
H320 C328 0.951 . S
H321 C329 0.951 . S
C322 C316 1.265 . S
C322 H317 0.950 . S
C322 C323 1.478 . S
C323 C310 1.394 . S
C323 C322 1.478 . S
C323 C324 1.397 . S
C324 C323 1.397 . S
C324 C325 1.438 . S
C324 C329 1.429 . S
C325 C308 1.394 . S
C325 C324 1.438 . S
C325 C326 1.428 . S
C326 H318 0.949 . S
C326 C325 1.428 . S
C326 C327 1.345 . S
C327 H319 0.950 . S
C327 C326 1.345 . S
C327 C328 1.424 . S
C328 H320 0.951 . S
C328 C327 1.424 . S
C328 C329 1.347 . S
C329 H321 0.951 . S
C329 C324 1.429 . S
C329 C328 1.347 . S
H330 C331 0.951 . S
C331 H330 0.951 . S
C331 C337 1.265 . S
H332 C337 0.950 . S
H333 C341 0.949 . S
H334 C342 0.950 . S
H335 C343 0.951 . S
H336 C344 0.951 . S
C337 C331 1.265 . S
C337 H332 0.950 . S
C337 C338 1.478 . S
C338 C337 1.478 . S
C338 C339 1.397 . S
C338 C355 1.394 . S
C339 C338 1.397 . S
C339 C340 1.438 1_455 S
C339 C344 1.429 . S
C340 C339 1.438 1_655 S
C340 C341 1.428 . S
C340 C353 1.394 . S
C341 H333 0.949 . S
C341 C340 1.428 . S
C341 C342 1.345 1_655 S
C342 H334 0.950 . S
C342 C341 1.345 1_455 S
C342 C343 1.424 . S
C343 H335 0.951 . S
C343 C342 1.424 . S
C343 C344 1.347 . S
C344 H336 0.951 . S
C344 C339 1.429 . S
C344 C343 1.347 . S
H345 C346 0.951 . S
C346 H345 0.951 . S
C346 C352 1.265 . S
H347 C352 0.950 . S
H348 C356 0.949 . S
H349 C357 0.950 . S
H350 C358 0.951 . S
H351 C359 0.951 . S
C352 C346 1.265 . S
C352 H347 0.950 . S
C352 C353 1.478 . S
C353 C340 1.394 . S
C353 C352 1.478 . S
C353 C354 1.397 . S
C354 C353 1.397 . S
C354 C355 1.438 1_655 S
C354 C359 1.429 . S
C355 C338 1.394 . S
C355 C354 1.438 1_455 S
C355 C356 1.428 . S
C356 H348 0.949 . S
C356 C355 1.428 . S
C356 C357 1.345 1_455 S
C357 H349 0.950 . S
C357 C356 1.345 1_655 S
C357 C358 1.424 . S
C358 H350 0.951 . S
C358 C357 1.424 . S
C358 C359 1.347 . S
C359 H351 0.951 . S
C359 C354 1.429 . S
C359 C358 1.347 . S
H360 C361 0.951 . S
C361 H360 0.951 . S
C361 C367 1.265 . S
H362 C367 0.950 . S
H363 C371 0.949 . S
H364 C372 0.950 . S
H365 C373 0.951 . S
H366 C374 0.951 . S
C367 C361 1.265 . S
C367 H362 0.950 . S
C367 C368 1.478 . S
C368 C367 1.478 . S
C368 C369 1.397 1_545 S
C368 C385 1.394 . S
C369 C368 1.397 1_565 S
C369 C370 1.438 . S
C369 C374 1.429 . S
C370 C369 1.438 . S
C370 C371 1.428 . S
C370 C383 1.394 . S
C371 H363 0.949 . S
C371 C370 1.428 . S
C371 C372 1.345 . S
C372 H364 0.950 . S
C372 C371 1.345 . S
C372 C373 1.424 . S
C373 H365 0.951 . S
C373 C372 1.424 . S
C373 C374 1.347 . S
C374 H366 0.951 . S
C374 C369 1.429 . S
C374 C373 1.347 . S
H375 C376 0.951 . S
C376 H375 0.951 . S
C376 C382 1.265 . S
H377 C382 0.950 . S
H378 C386 0.949 . S
H379 C387 0.950 . S
H380 C388 0.951 . S
H381 C389 0.951 . S
C382 C376 1.265 . S
C382 H377 0.950 . S
C382 C383 1.478 . S
C383 C370 1.394 . S
C383 C382 1.478 . S
C383 C384 1.397 1_565 S
C384 C383 1.397 1_545 S
C384 C385 1.438 . S
C384 C389 1.429 . S
C385 C368 1.394 . S
C385 C384 1.438 . S
C385 C386 1.428 . S
C386 H378 0.949 . S
C386 C385 1.428 . S
C386 C387 1.345 . S
C387 H379 0.950 . S
C387 C386 1.345 . S
C387 C388 1.424 . S
C388 H380 0.951 . S
C388 C387 1.424 . S
C388 C389 1.347 . S
C389 H381 0.951 . S
C389 C384 1.429 . S
C389 C388 1.347 . S
H390 C391 0.951 . S
C391 H390 0.951 . S
C391 C397 1.265 . S
H392 C397 0.950 . S
H393 C401 0.949 . S
H394 C402 0.950 . S
H395 C403 0.951 . S
H396 C404 0.951 . S
C397 C391 1.265 . S
C397 H392 0.950 . S
C397 C398 1.478 . S
C398 C397 1.478 . S
C398 C399 1.397 . S
C398 C415 1.394 . S
C399 C398 1.397 . S
C399 C400 1.438 . S
C399 C404 1.429 . S
C400 C399 1.438 . S
C400 C401 1.428 . S
C400 C413 1.394 . S
C401 H393 0.949 . S
C401 C400 1.428 . S
C401 C402 1.345 . S
C402 H394 0.950 . S
C402 C401 1.345 . S
C402 C403 1.424 . S
C403 H395 0.951 . S
C403 C402 1.424 . S
C403 C404 1.347 . S
C404 H396 0.951 . S
C404 C399 1.429 . S
C404 C403 1.347 . S
H405 C406 0.951 . S
C406 H405 0.951 . S
C406 C412 1.265 . S
H407 C412 0.950 . S
H408 C416 0.949 . S
H409 C417 0.950 . S
H410 C418 0.951 . S
H411 C419 0.951 . S
C412 C406 1.265 . S
C412 H407 0.950 . S
C412 C413 1.478 . S
C413 C400 1.394 . S
C413 C412 1.478 . S
C413 C414 1.397 . S
C414 C413 1.397 . S
C414 C415 1.438 . S
C414 C419 1.429 . S
C415 C398 1.394 . S
C415 C414 1.438 . S
C415 C416 1.428 . S
C416 H408 0.949 . S
C416 C415 1.428 . S
C416 C417 1.345 . S
C417 H409 0.950 . S
C417 C416 1.345 . S
C417 C418 1.424 . S
C418 H410 0.951 . S
C418 C417 1.424 . S
C418 C419 1.347 . S
C419 H411 0.951 . S
C419 C414 1.429 . S
C419 C418 1.347 . S
H420 C421 0.951 1_556 S
C421 H420 0.951 1_554 S
C421 C427 1.265 . S
H422 C427 0.950 . S
H423 C431 0.949 . S
H424 C432 0.950 . S
H425 C433 0.951 . S
H426 C434 0.951 . S
C427 C421 1.265 . S
C427 H422 0.950 . S
C427 C428 1.478 . S
C428 C427 1.478 . S
C428 C429 1.397 1_455 S
C428 C445 1.394 1_554 S
C429 C428 1.397 1_655 S
C429 C430 1.438 . S
C429 C434 1.429 . S
C430 C429 1.438 . S
C430 C431 1.428 . S
C430 C443 1.394 . S
C431 H423 0.949 . S
C431 C430 1.428 . S
C431 C432 1.345 . S
C432 H424 0.950 . S
C432 C431 1.345 . S
C432 C433 1.424 . S
C433 H425 0.951 . S
C433 C432 1.424 . S
C433 C434 1.347 . S
C434 H426 0.951 . S
C434 C429 1.429 . S
C434 C433 1.347 . S
H435 C436 0.951 . S
C436 H435 0.951 . S
C436 C442 1.265 . S
H437 C442 0.949 1_556 S
H438 C446 0.949 . S
H439 C447 0.950 . S
H440 C448 0.951 . S
H441 C449 0.951 . S
C442 C436 1.265 . S
C442 H437 0.949 1_554 S
C442 C443 1.478 . S
C443 C430 1.394 . S
C443 C442 1.478 . S
C443 C444 1.397 1_654 S
C444 C443 1.397 1_456 S
C444 C445 1.438 . S
C444 C449 1.429 . S
C445 C428 1.394 1_556 S
C445 C444 1.438 . S
C445 C446 1.428 . S
C446 H438 0.949 . S
C446 C445 1.428 . S
C446 C447 1.345 . S
C447 H439 0.950 . S
C447 C446 1.345 . S
C447 C448 1.424 . S
C448 H440 0.951 . S
C448 C447 1.424 . S
C448 C449 1.347 . S
C449 H441 0.951 . S
C449 C444 1.429 . S
C449 C448 1.347 . S
H450 C451 0.951 . S
C451 H450 0.951 . S
C451 C457 1.265 . S
H452 C457 0.950 . S
H453 C461 0.949 . S
H454 C462 0.950 . S
H455 C463 0.951 . S
H456 C464 0.951 . S
C457 C451 1.265 . S
C457 H452 0.950 . S
C457 C458 1.478 . S
C458 C457 1.478 . S
C458 C459 1.397 . S
C458 C475 1.394 . S
C459 C458 1.397 . S
C459 C460 1.438 1_565 S
C459 C464 1.429 . S
C460 C459 1.438 1_545 S
C460 C461 1.428 . S
C460 C473 1.394 . S
C461 H453 0.949 . S
C461 C460 1.428 . S
C461 C462 1.345 1_545 S
C462 H454 0.950 . S
C462 C461 1.345 1_565 S
C462 C463 1.424 . S
C463 H455 0.951 . S
C463 C462 1.424 . S
C463 C464 1.347 . S
C464 H456 0.951 . S
C464 C459 1.429 . S
C464 C463 1.347 . S
H465 C466 0.951 . S
C466 H465 0.951 . S
C466 C472 1.265 . S
H467 C472 0.950 . S
H468 C476 0.949 . S
H469 C477 0.950 . S
H470 C478 0.951 . S
H471 C479 0.951 . S
C472 C466 1.265 . S
C472 H467 0.950 . S
C472 C473 1.478 . S
C473 C460 1.394 . S
C473 C472 1.478 . S
C473 C474 1.397 . S
C474 C473 1.397 . S
C474 C475 1.438 1_545 S
C474 C479 1.429 . S
C475 C458 1.394 . S
C475 C474 1.438 1_565 S
C475 C476 1.428 . S
C476 H468 0.949 . S
C476 C475 1.428 . S
C476 C477 1.345 1_565 S
C477 H469 0.950 . S
C477 C476 1.345 1_545 S
C477 C478 1.424 . S
C478 H470 0.951 . S
C478 C477 1.424 . S
C478 C479 1.347 . S
C479 H471 0.951 . S
C479 C474 1.429 . S
C479 C478 1.347 . S
H480 C481 0.951 . S
C481 H480 0.951 . S
C481 C487 1.265 . S
H482 C487 0.950 . S
H483 C491 0.949 . S
H484 C492 0.950 . S
H485 C493 0.951 . S
H486 C494 0.951 . S
C487 C481 1.265 . S
C487 H482 0.950 . S
C487 C488 1.478 . S
C488 C487 1.478 . S
C488 C489 1.397 . S
C488 C505 1.394 . S
C489 C488 1.397 . S
C489 C490 1.438 . S
C489 C494 1.429 . S
C490 C489 1.438 . S
C490 C491 1.428 . S
C490 C503 1.394 . S
C491 H483 0.949 . S
C491 C490 1.428 . S
C491 C492 1.345 . S
C492 H484 0.950 . S
C492 C491 1.345 . S
C492 C493 1.424 . S
C493 H485 0.951 . S
C493 C492 1.424 . S
C493 C494 1.347 . S
C494 H486 0.951 . S
C494 C489 1.429 . S
C494 C493 1.347 . S
H495 C496 0.951 . S
C496 H495 0.951 . S
C496 C502 1.265 . S
H497 C502 0.950 . S
H498 C506 0.949 . S
H499 C507 0.950 . S
H500 C508 0.951 . S
H501 C509 0.951 . S
C502 C496 1.265 . S
C502 H497 0.950 . S
C502 C503 1.478 . S
C503 C490 1.394 . S
C503 C502 1.478 . S
C503 C504 1.397 . S
C504 C503 1.397 . S
C504 C505 1.438 . S
C504 C509 1.429 . S
C505 C488 1.394 . S
C505 C504 1.438 . S
C505 C506 1.428 . S
C506 H498 0.949 . S
C506 C505 1.428 . S
C506 C507 1.345 . S
C507 H499 0.950 . S
C507 C506 1.345 . S
C507 C508 1.424 . S
C508 H500 0.951 . S
C508 C507 1.424 . S
C508 C509 1.347 . S
C509 H501 0.951 . S
C509 C504 1.429 . S
C509 C508 1.347 . S
H510 C511 0.951 . S
C511 H510 0.951 . S
C511 C517 1.265 . S
H512 C517 0.950 . S
H513 C521 0.949 . S
H514 C522 0.950 . S
H515 C523 0.951 . S
H516 C524 0.951 1_655 S
C517 C511 1.265 . S
C517 H512 0.950 . S
C517 C518 1.478 . S
C518 C517 1.478 . S
C518 C519 1.397 1_655 S
C518 C535 1.394 . S
C519 C518 1.397 1_455 S
C519 C520 1.438 . S
C519 C524 1.429 . S
C520 C519 1.438 . S
C520 C521 1.428 . S
C520 C533 1.394 . S
C521 H513 0.949 . S
C521 C520 1.428 . S
C521 C522 1.345 . S
C522 H514 0.950 . S
C522 C521 1.345 . S
C522 C523 1.424 . S
C523 H515 0.951 . S
C523 C522 1.424 . S
C523 C524 1.347 . S
C524 H516 0.951 1_455 S
C524 C519 1.429 . S
C524 C523 1.347 . S
H525 C526 0.951 . S
C526 H525 0.951 . S
C526 C532 1.265 . S
H527 C532 0.950 . S
H528 C536 0.949 . S
H529 C537 0.950 . S
H530 C538 0.951 . S
H531 C539 0.951 . S
C532 C526 1.265 . S
C532 H527 0.950 . S
C532 C533 1.478 . S
C533 C520 1.394 . S
C533 C532 1.478 . S
C533 C534 1.397 . S
C534 C533 1.397 . S
C534 C535 1.438 1_455 S
C534 C539 1.429 . S
C535 C518 1.394 . S
C535 C534 1.438 1_655 S
C535 C536 1.428 . S
C536 H528 0.949 . S
C536 C535 1.428 . S
C536 C537 1.345 . S
C537 H529 0.950 . S
C537 C536 1.345 . S
C537 C538 1.424 . S
C538 H530 0.951 . S
C538 C537 1.424 . S
C538 C539 1.347 1_655 S
C539 H531 0.951 . S
C539 C534 1.429 . S
C539 C538 1.347 1_455 S
H540 C541 0.951 . S
C541 H540 0.951 . S
C541 C547 1.265 . S
H542 C547 0.950 . S
H543 C551 0.949 . S
H544 C552 0.950 . S
H545 C553 0.951 . S
H546 C554 0.951 . S
C547 C541 1.265 . S
C547 H542 0.950 . S
C547 C548 1.478 . S
C548 C547 1.478 . S
C548 C549 1.397 1_565 S
C548 C565 1.394 . S
C549 C548 1.397 1_545 S
C549 C550 1.438 . S
C549 C554 1.429 . S
C550 C549 1.438 . S
C550 C551 1.428 . S
C550 C563 1.394 . S
C551 H543 0.949 . S
C551 C550 1.428 . S
C551 C552 1.345 . S
C552 H544 0.950 . S
C552 C551 1.345 . S
C552 C553 1.424 . S
C553 H545 0.951 . S
C553 C552 1.424 . S
C553 C554 1.347 . S
C554 H546 0.951 . S
C554 C549 1.429 . S
C554 C553 1.347 . S
H555 C556 0.951 . S
C556 H555 0.951 . S
C556 C562 1.265 . S
H557 C562 0.950 . S
H558 C566 0.949 . S
H559 C567 0.950 . S
H560 C568 0.951 . S
H561 C569 0.951 . S
C562 C556 1.265 . S
C562 H557 0.950 . S
C562 C563 1.478 . S
C563 C550 1.394 . S
C563 C562 1.478 . S
C563 C564 1.397 . S
C564 C563 1.397 . S
C564 C565 1.438 1_545 S
C564 C569 1.429 . S
C565 C548 1.394 . S
C565 C564 1.438 1_565 S
C565 C566 1.428 . S
C566 H558 0.949 . S
C566 C565 1.428 . S
C566 C567 1.345 . S
C567 H559 0.950 . S
C567 C566 1.345 . S
C567 C568 1.424 . S
C568 H560 0.951 . S
C568 C567 1.424 . S
C568 C569 1.347 1_565 S
C569 H561 0.951 . S
C569 C564 1.429 . S
C569 C568 1.347 1_545 S
H570 C571 0.951 . S
C571 H570 0.951 . S
C571 C577 1.265 . S
H572 C577 0.950 . S
H573 C581 0.949 . S
H574 C582 0.950 . S
H575 C583 0.951 . S
H576 C584 0.951 . S
C577 C571 1.265 . S
C577 H572 0.950 . S
C577 C578 1.478 . S
C578 C577 1.478 . S
C578 C579 1.397 . S
C578 C595 1.394 . S
C579 C578 1.397 . S
C579 C580 1.438 . S
C579 C584 1.429 . S
C580 C579 1.438 . S
C580 C581 1.428 . S
C580 C593 1.394 . S
C581 H573 0.949 . S
C581 C580 1.428 . S
C581 C582 1.345 . S
C582 H574 0.950 . S
C582 C581 1.345 . S
C582 C583 1.424 . S
C583 H575 0.951 . S
C583 C582 1.424 . S
C583 C584 1.347 . S
C584 H576 0.951 . S
C584 C579 1.429 . S
C584 C583 1.347 . S
H585 C586 0.951 . S
C586 H585 0.951 . S
C586 C592 1.265 . S
H587 C592 0.950 . S
H588 C596 0.949 . S
H589 C597 0.950 . S
H590 C598 0.951 . S
H591 C599 0.951 . S
C592 C586 1.265 . S
C592 H587 0.950 . S
C592 C593 1.478 . S
C593 C580 1.394 . S
C593 C592 1.478 . S
C593 C594 1.397 . S
C594 C593 1.397 . S
C594 C595 1.438 . S
C594 C599 1.429 . S
C595 C578 1.394 . S
C595 C594 1.438 . S
C595 C596 1.428 . S
C596 H588 0.949 . S
C596 C595 1.428 . S
C596 C597 1.345 . S
C597 H589 0.950 . S
C597 C596 1.345 . S
C597 C598 1.424 . S
C598 H590 0.951 . S
C598 C597 1.424 . S
C598 C599 1.347 . S
C599 H591 0.951 . S
C599 C594 1.429 . S
C599 C598 1.347 . S
H600 C601 0.951 . S
C601 H600 0.951 . S
C601 C607 1.265 . S
H602 C607 0.950 . S
H603 C611 0.949 . S
H604 C612 0.950 . S
H605 C613 0.951 . S
H606 C614 0.951 1_455 S
C607 C601 1.265 . S
C607 H602 0.950 . S
C607 C608 1.478 . S
C608 C607 1.478 . S
C608 C609 1.397 1_455 S
C608 C625 1.394 . S
C609 C608 1.397 1_655 S
C609 C610 1.438 . S
C609 C614 1.429 . S
C610 C609 1.438 . S
C610 C611 1.428 . S
C610 C623 1.394 . S
C611 H603 0.949 . S
C611 C610 1.428 . S
C611 C612 1.345 . S
C612 H604 0.950 . S
C612 C611 1.345 . S
C612 C613 1.424 . S
C613 H605 0.951 . S
C613 C612 1.424 . S
C613 C614 1.347 . S
C614 H606 0.951 1_655 S
C614 C609 1.429 . S
C614 C613 1.347 . S
H615 C616 0.951 . S
C616 H615 0.951 . S
C616 C622 1.265 . S
H617 C622 0.950 . S
H618 C626 0.949 . S
H619 C627 0.950 . S
H620 C628 0.951 . S
H621 C629 0.951 . S
C622 C616 1.265 . S
C622 H617 0.950 . S
C622 C623 1.478 . S
C623 C610 1.394 . S
C623 C622 1.478 . S
C623 C624 1.397 . S
C624 C623 1.397 . S
C624 C625 1.438 1_655 S
C624 C629 1.429 . S
C625 C608 1.394 . S
C625 C624 1.438 1_455 S
C625 C626 1.428 . S
C626 H618 0.949 . S
C626 C625 1.428 . S
C626 C627 1.345 . S
C627 H619 0.950 . S
C627 C626 1.345 . S
C627 C628 1.424 1_455 S
C628 H620 0.951 . S
C628 C627 1.424 1_655 S
C628 C629 1.347 . S
C629 H621 0.951 . S
C629 C624 1.429 . S
C629 C628 1.347 . S
H630 C631 0.951 . S
C631 H630 0.951 . S
C631 C637 1.265 . S
H632 C637 0.950 . S
H633 C641 0.949 1_565 S
H634 C642 0.950 . S
H635 C643 0.951 . S
H636 C644 0.951 . S
C637 C631 1.265 . S
C637 H632 0.950 . S
C637 C638 1.478 . S
C638 C637 1.478 . S
C638 C639 1.397 . S
C638 C655 1.394 1_545 S
C639 C638 1.397 . S
C639 C640 1.438 1_545 S
C639 C644 1.429 . S
C640 C639 1.438 1_565 S
C640 C641 1.428 1_565 S
C640 C653 1.394 . S
C641 H633 0.949 1_545 S
C641 C640 1.428 1_545 S
C641 C642 1.345 . S
C642 H634 0.950 . S
C642 C641 1.345 . S
C642 C643 1.424 . S
C643 H635 0.951 . S
C643 C642 1.424 . S
C643 C644 1.347 . S
C644 H636 0.951 . S
C644 C639 1.429 . S
C644 C643 1.347 . S
H645 C646 0.951 . S
C646 H645 0.951 . S
C646 C652 1.265 . S
H647 C652 0.950 . S
H648 C656 0.949 . S
H649 C657 0.950 . S
H650 C658 0.951 . S
H651 C659 0.951 . S
C652 C646 1.265 . S
C652 H647 0.950 . S
C652 C653 1.478 . S
C653 C640 1.394 . S
C653 C652 1.478 . S
C653 C654 1.397 . S
C654 C653 1.397 . S
C654 C655 1.438 . S
C654 C659 1.429 . S
C655 C638 1.394 1_565 S
C655 C654 1.438 . S
C655 C656 1.428 . S
C656 H648 0.949 . S
C656 C655 1.428 . S
C656 C657 1.345 . S
C657 H649 0.950 . S
C657 C656 1.345 . S
C657 C658 1.424 . S
C658 H650 0.951 . S
C658 C657 1.424 . S
C658 C659 1.347 . S
C659 H651 0.951 . S
C659 C654 1.429 . S
C659 C658 1.347 . S
C121 C99 1.244 . S
C136 C2 1.203 . S
C151 C119 1.222 . S
C166 C22 1.244 . S
C181 C19 1.209 . S
C196 C42 1.248 . S
C211 C39 1.245 . S
C226 C62 1.200 . S
C241 C59 1.229 . S
C256 C82 1.236 . S
C271 C79 1.245 . S
C286 C102 1.201 . S
C301 C8 0.549 . S
C316 C68 0.550 . S
C331 C88 0.861 . S
C346 C28 0.862 . S
C361 C108 0.562 . S
C376 C48 0.560 . S
C391 C49 0.656 . S
C406 C109 0.656 . S
C421 C9 0.656 . S
C436 C69 0.657 . S
C451 C89 0.701 . S
C466 C29 0.700 . S
C481 C118 1.271 . S
C496 C1 1.253 . S
C511 C21 1.259 . S
C526 C18 1.268 . S
C541 C41 1.287 . S
C556 C38 1.272 . S
C571 C58 1.281 . S
C586 C61 1.250 . S
C601 C81 1.284 . S
C616 C78 1.275 . S
C631 C101 1.266 . S
C646 C98 1.282 . S
