# Generated by pormake.
# Topology vmm, (7)-cn, num edge types: 1
# Building blocks:
#     Node 0, Type 0, BuildingBlock: HICVOG_clean_sbu_0, # of connection points: 7
#     Node 1, Type 0, BuildingBlock: HICVOG_clean_sbu_0, # of connection points: 7
#     Node 2, Type 0, BuildingBlock: HICVOG_clean_sbu_0, # of connection points: 7
#     Node 3, Type 0, BuildingBlock: HICVOG_clean_sbu_0, # of connection points: 7
#     Edge 4, Type (0, 0), BuildingBlock: AJUNOK_clean_linker_0, # of connection points: 2
#     Edge 5, Type (0, 0), BuildingBlock: AJUNOK_clean_linker_0, # of connection points: 2
#     Edge 6, Type (0, 0), BuildingBlock: AJUNOK_clean_linker_0, # of connection points: 2
#     Edge 7, Type (0, 0), BuildingBlock: AJUNOK_clean_linker_0, # of connection points: 2
#     Edge 8, Type (0, 0), BuildingBlock: AJUNOK_clean_linker_0, # of connection points: 2
#     Edge 9, Type (0, 0), BuildingBlock: AJUNOK_clean_linker_0, # of connection points: 2
#     Edge 10, Type (0, 0), BuildingBlock: AJUNOK_clean_linker_0, # of connection points: 2
#     Edge 11, Type (0, 0), BuildingBlock: AJUNOK_clean_linker_0, # of connection points: 2
#     Edge 12, Type (0, 0), BuildingBlock: AJUNOK_clean_linker_0, # of connection points: 2
#     Edge 13, Type (0, 0), BuildingBlock: AJUNOK_clean_linker_0, # of connection points: 2
#     Edge 14, Type (0, 0), BuildingBlock: AJUNOK_clean_linker_0, # of connection points: 2
#     Edge 15, Type (0, 0), BuildingBlock: AJUNOK_clean_linker_0, # of connection points: 2
#     Edge 16, Type (0, 0), BuildingBlock: AJUNOK_clean_linker_0, # of connection points: 2
#     Edge 17, Type (0, 0), BuildingBlock: AJUNOK_clean_linker_0, # of connection points: 2
# Relax obj value: 0.086
# Max RMSD: 0.167
# Mean RMSD: 0.167
data_MOF--net-vmm--node1-HICVOG_clean_sbu_0--edge1-AJUNOK_clean_linker_0
_symmetry_space_group_name_H-M    P1
_symmetry_Int_Tables_number       1
_symmetry_cell_setting            triclinic
loop_
_symmetry_equiv_pos_as_xyz
'x, y, z'
_cell_length_a     14.441413
_cell_length_b     33.237343
_cell_length_c     16.33187
_cell_angle_alpha  90.034215
_cell_angle_beta   80.995918
_cell_angle_gamma 89.938488
loop_
_atom_site_label
_atom_site_type_symbol
_atom_site_fract_x
_atom_site_fract_y
_atom_site_fract_z
_atom_type_partial_charge
Zn0 Zn 0.30897 0.12076 0.22167 0.0
C1 C 0.13531 0.05941 0.10164 0.0
N2 N 0.20948 1.03532 0.08064 0.0
C3 C 0.27725 0.05596 0.10892 0.0
N4 N 0.24669 0.09112 0.14409 0.0
N5 N 0.1571 0.0941 0.13698 0.0
C6 C 0.9041 0.14308 0.20472 0.0
O7 O 0.94644 0.15011 0.26883 0.0
O8 O 0.45156 0.12262 0.18881 0.0
Zn9 Zn 0.0959 0.14525 0.12194 0.0
N10 N 0.28076 0.09223 0.32674 0.0
C11 C 0.16522 0.06134 0.42687 0.0
C12 C 0.18953 0.08269 0.3532 0.0
C13 C 0.34873 0.08168 0.3719 0.0
N14 N 0.2332 0.05032 0.47121 0.0
C15 C 0.32488 0.05988 0.44595 0.0
O16 O 0.12422 0.18946 0.20058 0.0
C17 C 0.18914 0.19949 0.2412 0.0
O18 O 0.25901 0.17675 0.24617 0.0
H19 H 0.13621 0.09146 0.31697 0.0
H20 H 0.42096 0.08892 0.34912 0.0
C21 C 0.12706 0.20233 0.98499 0.0
C22 C 0.15699 0.21389 0.90196 0.0
C23 C 0.21093 0.14738 0.87064 0.0
C24 C 0.1824 0.13622 0.95278 0.0
N25 N 0.13989 0.16356 1.00845 0.0
N26 N 0.19741 0.18576 0.84716 0.0
H27 H 0.09284 0.22361 1.03008 0.0
C28 C 0.49501 0.14416 0.23488 0.0
O29 O 0.44545 0.1658 0.29337 0.0
O30 O 0.95417 0.13859 0.13402 0.0
H31 H 0.19416 0.10585 0.97137 0.0
H32 H 0.09291 0.05339 0.44849 0.0
H33 H 0.24391 0.12571 0.82582 0.0
Zn34 Zn 0.82488 0.64535 0.47888 0.0
C35 C 0.64692 0.55515 0.4888 0.0
N36 N 0.71429 0.53543 0.51961 0.0
C37 C 0.78784 0.55982 0.49982 0.0
N38 N 0.76618 0.59384 0.46198 0.0
N39 N 0.67721 0.59015 0.45273 0.0
C40 C 0.4299 0.65509 0.44088 0.0
O41 O 0.48157 0.68672 0.45051 0.0
O42 O -0.03215 0.63874 0.47288 0.0
Zn43 Zn 0.61347 0.61951 0.37515 0.0
N44 N 0.76982 0.66415 0.59008 0.0
C45 C 0.66964 0.64991 0.71725 0.0
C46 C 0.71493 0.63779 0.63973 0.0
C47 C 0.78102 0.70266 0.616 0.0
N48 N 0.68031 0.68815 0.74265 0.0
C49 C 0.73518 0.715 0.69457 0.0
O50 O 0.66923 0.67427 0.34411 0.0
C51 C 0.73843 0.69715 0.35082 0.0
O52 O 0.79924 0.68826 0.39679 0.0
H53 H 0.70438 0.60767 0.61935 0.0
H54 H 0.8223 0.72375 0.57513 0.0
C55 C 0.567 0.58435 0.22397 0.0
C56 C 0.5871 0.5624 0.14939 0.0
C57 C 0.74293 0.5525 0.17533 0.0
C58 C 0.72247 0.57403 0.24909 0.0
N59 N 0.63509 0.58939 0.27219 0.0
N60 N 0.67507 0.54714 0.12755 0.0
H61 H 0.49856 0.59752 0.24347 0.0
C62 C 0.02032 0.66921 0.47737 0.0
O63 O -0.01847 0.70505 0.48379 0.0
O64 O 0.4709 0.62295 0.41236 0.0
H65 H 0.77596 0.57866 0.28765 0.0
H66 H 0.62521 0.62922 0.75656 0.0
H67 H 0.81219 0.54007 0.15614 0.0
Zn68 Zn 0.62485 0.95238 0.86875 0.0
C69 C 0.79611 1.01079 0.99494 0.0
N70 N 0.72527 1.03709 1.00875 0.0
C71 C 0.65696 1.01761 0.97866 0.0
N72 N 0.68481 0.98116 0.94832 0.0
N73 N 0.77235 0.97612 0.96052 0.0
C74 C 0.02689 0.93559 0.91913 0.0
O75 O 0.00044 0.942 0.84686 0.0
O76 O 0.48271 0.95339 0.89347 0.0
Zn77 Zn 0.8261 0.92316 0.97668 0.0
N78 N 0.65604 0.98119 0.76501 0.0
C79 C 0.76888 1.01234 0.66307 0.0
C80 C 0.74657 0.9915 0.73768 0.0
C81 C 0.58687 0.9907 0.72058 0.0
N82 N 0.69983 1.02168 0.61849 0.0
C83 C 0.60891 1.0111 0.64462 0.0
O84 O 0.80422 0.88095 0.8916 0.0
C85 C 0.74 0.87222 0.84915 0.0
O86 O 0.67145 0.89578 0.84417 0.0
H87 H 0.80073 0.98369 0.77377 0.0
H88 H 0.51545 0.98295 0.74505 0.0
C89 C 0.77973 0.86478 0.11079 0.0
C90 C 0.7433 0.85358 0.19278 0.0
C91 C 0.68699 0.92004 0.21971 0.0
C92 C 0.7229 0.93095 0.13877 0.0
N93 N 0.7693 0.9035 0.08588 0.0
N94 N 0.69844 0.88179 0.24494 0.0
H95 H 0.81786 0.84341 0.06814 0.0
C96 C 0.42362 0.93893 0.95177 0.0
O97 O 0.45375 0.91927 1.01224 0.0
O98 O -0.03471 0.92728 0.98119 0.0
H99 H 0.71512 0.96129 0.1187 0.0
H100 H 0.84055 1.02099 0.64064 0.0
H101 H 0.65091 0.94187 0.26245 0.0
Zn102 Zn 0.28919 0.44995 0.73208 0.0
C103 C 0.12791 0.5109 0.60511 0.0
N104 N 0.20102 0.53596 0.59109 0.0
C105 C 0.26853 0.51454 0.61827 0.0
N106 N 0.23842 0.47792 0.64591 0.0
N107 N 0.14976 0.47514 0.63581 0.0
C108 C 0.88703 0.42678 0.6715 0.0
O109 O 0.90978 0.4172 0.74383 0.0
O110 O 0.43125 0.44494 0.71109 0.0
Zn111 Zn 0.09071 0.42422 0.61496 0.0
N112 N 0.25952 0.48346 0.82956 0.0
C113 C 0.14877 0.52267 0.91907 0.0
C114 C 0.17044 0.49728 0.85075 0.0
C115 C 0.32798 0.49389 0.87403 0.0
N116 N 0.21733 0.53353 0.9629 0.0
C117 C 0.30716 0.52022 0.94196 0.0
O118 O 0.109 0.38038 0.69806 0.0
C119 C 0.16389 0.37212 0.74989 0.0
O120 O 0.23005 0.39565 0.76208 0.0
H121 H 0.11688 0.48867 0.81468 0.0
H122 H 0.39738 0.48136 0.85689 0.0
C123 C 0.14157 0.36714 0.4793 0.0
C124 C 0.18299 0.35631 0.39839 0.0
C125 C 0.22971 0.42395 0.37178 0.0
C126 C 0.18798 0.43465 0.45143 0.0
N127 N 0.1462 0.40615 0.50436 0.0
N128 N 0.22671 0.3851 0.34728 0.0
H129 H 0.10695 0.3449 0.52185 0.0
C130 C 0.48876 0.43937 0.64471 0.0
O131 O 0.45673 0.43506 0.57426 0.0
O132 O 0.95199 0.43183 0.61027 0.0
H133 H 0.18854 0.46556 0.47059 0.0
H134 H 0.0781 0.53384 0.93692 0.0
H135 H 0.26369 0.44637 0.32944 0.0
C136 C 0.65577 0.13005 0.15483 0.0
C137 C 0.59891 0.1424 0.22859 0.0
C138 C 0.75424 0.12995 0.14768 0.0
C139 C 0.79966 0.14159 0.21444 0.0
H140 H 0.62413 0.12112 0.1017 0.0
H141 H 0.79497 0.12082 0.08921 0.0
S142 S 0.68193 0.17162 0.42445 0.0
N143 N 0.59522 0.16336 0.37182 0.0
N144 N 0.77881 0.1628 0.35886 0.0
C145 C 0.74317 0.15231 0.28958 0.0
C146 C 0.64332 0.15282 0.29651 0.0
C147 C 0.26938 0.62626 0.43352 0.0
C148 C 0.32509 0.65794 0.45652 0.0
C149 C 0.17105 0.62971 0.4418 0.0
C150 C 0.12404 0.66491 0.47354 0.0
H151 H 0.302 0.59886 0.40704 0.0
H152 H 0.13195 0.60502 0.42087 0.0
S153 S 0.23566 0.75515 0.55052 0.0
N154 N 0.32415 0.72475 0.51779 0.0
N155 N 0.14074 0.73102 0.53348 0.0
C156 C 0.17857 0.69622 0.49937 0.0
C157 C 0.27847 0.69276 0.49096 0.0
C158 C 0.16114 0.91753 0.99279 0.0
C159 C 0.12711 0.93877 0.92908 0.0
C160 C 0.25648 0.91859 1.00117 0.0
C161 C 0.32152 0.9413 0.94674 0.0
H162 H 0.11422 0.89902 1.03528 0.0
H163 H 0.2795 0.90069 1.04961 0.0
S164 S 0.26488 1.00747 0.77765 0.0
N165 N 0.16407 0.9862 0.81559 0.0
N166 N 0.34206 0.98921 0.83242 0.0
C167 C 0.28714 0.96441 0.88547 0.0
C168 C 0.1904 0.96283 0.87627 0.0
C169 C 0.71712 0.43174 0.73265 0.0
C170 C 0.78664 0.43162 0.66191 0.0
C171 C 0.62173 0.43487 0.72617 0.0
C172 C 0.59113 0.43753 0.64855 0.0
H173 H 0.73626 0.42932 0.79399 0.0
H174 H 0.57152 0.4346 0.78289 0.0
S175 S 0.74481 0.4407 0.44381 0.0
N176 N 0.81821 0.43635 0.51132 0.0
N177 N 0.63887 0.44159 0.49917 0.0
C178 C 0.65987 0.43824 0.57715 0.0
C179 C 0.75745 0.43548 0.58381 0.0
C180 C 0.47378 0.0716 0.50468 0.0
C181 C 0.39723 0.04662 0.49583 0.0
C182 C 0.54171 0.05965 0.5525 0.0
C183 C 0.53576 1.02236 0.59383 0.0
H184 H 0.48058 0.10097 0.47574 0.0
H185 H 0.59864 0.08015 0.55819 0.0
S186 S 0.35431 0.94412 0.58358 0.0
N187 N 0.32251 0.98187 0.52846 0.0
N188 N 0.45082 0.95909 0.61687 0.0
C189 C 0.4607 0.99669 0.58397 0.0
C190 C 0.39129 1.00895 0.53557 0.0
C191 C 0.35451 0.53693 0.07894 0.0
C192 C 0.37934 0.53286 0.99249 0.0
C193 C 0.42105 0.54758 0.12916 0.0
C194 C 0.51532 0.55465 0.09499 0.0
H195 H 0.28337 0.53089 0.10846 0.0
H196 H 0.39859 0.54913 0.19542 0.0
S197 S 0.61367 0.5538 0.87083 0.0
N198 N 0.50268 0.54125 0.87392 0.0
N199 N 0.6281 0.56028 0.96826 0.0
C200 C 0.54032 0.55214 1.00823 0.0
C201 C 0.47239 0.54155 0.95703 0.0
C202 C -0.036 1.02584 0.96657 0.0
C203 C 0.88361 1.01891 1.02456 0.0
C204 C 0.04508 0.04072 0.992 0.0
C205 C 0.04638 0.05021 0.07556 0.0
H206 H -0.03649 1.02054 0.90117 0.0
H207 H 0.10719 0.04475 0.94616 0.0
S208 S 0.85329 0.03745 0.25095 0.0
N209 N 0.80865 1.02315 0.16845 0.0
N210 N -0.03711 0.05046 0.21656 0.0
C211 C -0.03357 0.04362 0.13407 0.0
C212 C 0.88403 1.02833 0.10829 0.0
C213 C 0.03935 0.53294 0.49636 0.0
C214 C 0.03969 0.52088 0.57866 0.0
C215 C 0.95778 0.54791 0.47166 0.0
C216 C 0.87558 0.5516 0.52918 0.0
H217 H 0.10256 0.53081 0.45103 0.0
H218 H 0.95832 0.55569 0.40715 0.0
S219 S 0.84401 0.52737 0.75328 0.0
N220 N 0.9546 0.51611 0.71854 0.0
N221 N 0.79934 0.54329 0.67195 0.0
C222 C 0.87563 0.54016 0.61192 0.0
C223 C 0.95862 0.5251 0.63689 0.0
C224 C 0.11538 0.26137 0.79524 0.0
C225 C 0.14731 0.2555 0.87149 0.0
C226 C 0.11719 0.29949 0.75818 0.0
C227 C 0.15327 0.33313 0.79493 0.0
H228 H 0.09051 0.23604 0.76301 0.0
H229 H 0.09376 0.30223 0.69857 0.0
S230 S 0.24205 0.33415 0.99651 0.0
N231 N 0.21258 0.28678 0.98422 0.0
N232 N 0.21738 0.35839 0.91432 0.0
C233 C 0.18306 0.32788 0.87245 0.0
C234 C 0.17968 0.28912 0.91083 0.0
C235 C 0.65676 0.77665 0.75718 0.0
C236 C 0.74045 0.75656 0.72577 0.0
C237 C 0.65778 0.81434 0.79527 0.0
C238 C 0.74264 0.83301 0.80547 0.0
H239 H 0.58967 0.76288 0.75294 0.0
H240 H 0.59128 0.82843 0.819 0.0
S241 S -0.01848 0.79304 0.7327 0.0
N242 N 0.91065 0.75823 0.70532 0.0
N243 N 0.913 0.82891 0.77886 0.0
C244 C 0.82714 0.81339 0.77361 0.0
C245 C 0.82597 0.77523 0.73313 0.0
C246 C 0.78506 0.80752 0.30154 0.0
C247 C 0.75267 0.81247 0.22528 0.0
C248 C 0.7836 0.76979 0.34013 0.0
C249 C 0.7471 0.73581 0.30501 0.0
H250 H 0.81025 0.83324 0.33238 0.0
H251 H 0.80781 0.76759 0.39951 0.0
S252 S 0.65653 0.73256 0.10446 0.0
N253 N 0.68648 0.78007 0.11436 0.0
N254 N 0.68151 0.70921 0.18759 0.0
C255 C 0.71629 0.74019 0.22778 0.0
C256 C 0.7197 0.7785 0.18767 0.0
C257 C 0.26652 0.2963 0.33301 0.0
C258 C 0.1815 0.31478 0.36654 0.0
C259 C 0.26803 0.25876 0.29383 0.0
C260 C 0.18438 0.2388 0.28452 0.0
H261 H 0.3325 0.31122 0.33647 0.0
H262 H 0.33537 0.24577 0.26877 0.0
S263 S 0.94304 0.2747 0.36188 0.0
N264 N 0.01157 0.31043 0.38931 0.0
N265 N 0.01389 0.24014 0.31369 0.0
C266 C 0.09867 0.25696 0.31815 0.0
C267 C 0.09734 0.29487 0.35975 0.0
C268 C 0.40527 0.04882 0.99178 0.0
C269 C 0.37468 0.0474 0.0779 0.0
C270 C 0.4974 0.03869 0.95856 0.0
C271 C 0.55999 1.02692 1.01115 0.0
H272 H 0.35748 0.05772 0.95005 0.0
H273 H 0.51972 0.04016 0.89213 0.0
S274 S 0.51196 1.01733 0.24025 0.0
N275 N 0.41123 1.03179 0.21393 0.0
N276 N 0.5863 1.01463 0.15272 0.0
C277 C 0.52994 1.02562 0.0973 0.0
C278 C 0.43622 1.0353 0.13059 0.0
C279 C 0.42696 0.53676 0.63871 0.0
C280 C 0.36585 0.5233 0.58624 0.0
C281 C 0.51832 0.54798 0.60553 0.0
C282 C 0.54948 0.54632 0.51943 0.0
H283 H 0.404 0.53881 0.705 0.0
H284 H 0.56506 0.55787 0.64736 0.0
S285 S 0.4167 0.51116 0.35794 0.0
N286 N 0.34205 0.50819 0.44526 0.0
N287 N 0.51539 0.52831 0.3838 0.0
C288 C 0.48948 0.53248 0.46693 0.0
C289 C 0.3967 0.52129 0.50031 0.0
loop_
_geom_bond_atom_site_label_1
_geom_bond_atom_site_label_2
_geom_bond_distance
_geom_bond_site_symmetry_2
_ccdc_geom_bond_type
Zn0 N4 2.020 . S
Zn0 O8 2.019 . S
Zn0 N10 2.119 . S
Zn0 O18 1.975 . S
C1 N2 1.334 . S
C1 N5 1.336 . S
N2 C1 1.334 . S
N2 C3 1.334 . S
C3 N2 1.334 . S
C3 N4 1.336 . S
N4 Zn0 2.020 . S
N4 C3 1.336 . S
N4 N5 1.354 . S
N5 C1 1.336 . S
N5 N4 1.354 . S
N5 Zn9 2.020 . S
C6 O7 1.244 . S
C6 O30 1.257 . S
O7 C6 1.244 . S
O8 Zn0 2.019 . S
O8 C28 1.257 . S
Zn9 N5 2.020 . S
Zn9 O16 1.975 . S
Zn9 N25 2.119 . S
Zn9 O30 2.019 1_455 S
N10 Zn0 2.119 . S
N10 C12 1.334 . S
N10 C13 1.328 . S
C11 C12 1.391 . S
C11 N14 1.329 . S
C11 H32 0.930 . S
C12 N10 1.334 . S
C12 C11 1.391 . S
C12 H19 0.930 . S
C13 N10 1.328 . S
C13 C15 1.392 . S
C13 H20 0.930 . S
N14 C11 1.329 . S
N14 C15 1.331 . S
C15 C13 1.392 . S
C15 N14 1.331 . S
O16 Zn9 1.975 . S
O16 C17 1.252 . S
C17 O16 1.252 . S
C17 O18 1.252 . S
O18 Zn0 1.975 . S
O18 C17 1.252 . S
H19 C12 0.930 . S
H20 C13 0.930 . S
C21 C22 1.392 1_554 S
C21 N25 1.328 . S
C21 H27 0.930 . S
C22 C21 1.392 1_556 S
C22 N26 1.331 . S
C23 C24 1.391 1_556 S
C23 N26 1.329 . S
C23 H33 0.930 . S
C24 C23 1.391 1_554 S
C24 N25 1.334 . S
C24 H31 0.930 . S
N25 Zn9 2.119 . S
N25 C21 1.328 . S
N25 C24 1.334 . S
N26 C22 1.331 . S
N26 C23 1.329 . S
H27 C21 0.930 . S
C28 O8 1.257 . S
C28 O29 1.244 . S
O29 C28 1.244 . S
O30 C6 1.257 . S
O30 Zn9 2.019 1_655 S
H31 C24 0.930 . S
H32 C11 0.930 . S
H33 C23 0.930 . S
Zn34 N38 2.020 . S
Zn34 O42 2.019 1_655 S
Zn34 N44 2.119 . S
Zn34 O52 1.975 . S
C35 N36 1.334 . S
C35 N39 1.336 . S
N36 C35 1.334 . S
N36 C37 1.334 . S
C37 N36 1.334 . S
C37 N38 1.336 . S
N38 Zn34 2.020 . S
N38 C37 1.336 . S
N38 N39 1.354 . S
N39 C35 1.336 . S
N39 N38 1.354 . S
N39 Zn43 2.020 . S
C40 O41 1.244 . S
C40 O64 1.257 . S
O41 C40 1.244 . S
O42 Zn34 2.019 1_455 S
O42 C62 1.257 . S
Zn43 N39 2.020 . S
Zn43 O50 1.975 . S
Zn43 N59 2.119 . S
Zn43 O64 2.019 . S
N44 Zn34 2.119 . S
N44 C46 1.334 . S
N44 C47 1.328 . S
C45 C46 1.391 . S
C45 N48 1.329 . S
C45 H66 0.930 . S
C46 N44 1.334 . S
C46 C45 1.391 . S
C46 H53 0.930 . S
C47 N44 1.328 . S
C47 C49 1.392 . S
C47 H54 0.930 . S
N48 C45 1.329 . S
N48 C49 1.331 . S
C49 C47 1.392 . S
C49 N48 1.331 . S
O50 Zn43 1.975 . S
O50 C51 1.252 . S
C51 O50 1.252 . S
C51 O52 1.252 . S
O52 Zn34 1.975 . S
O52 C51 1.252 . S
H53 C46 0.930 . S
H54 C47 0.930 . S
C55 C56 1.392 . S
C55 N59 1.328 . S
C55 H61 0.930 . S
C56 C55 1.392 . S
C56 N60 1.331 . S
C57 C58 1.391 . S
C57 N60 1.329 . S
C57 H67 0.930 . S
C58 C57 1.391 . S
C58 N59 1.334 . S
C58 H65 0.930 . S
N59 Zn43 2.119 . S
N59 C55 1.328 . S
N59 C58 1.334 . S
N60 C56 1.331 . S
N60 C57 1.329 . S
H61 C55 0.930 . S
C62 O42 1.257 . S
C62 O63 1.244 . S
O63 C62 1.244 . S
O64 C40 1.257 . S
O64 Zn43 2.019 . S
H65 C58 0.930 . S
H66 C45 0.930 . S
H67 C57 0.930 . S
Zn68 N72 2.020 . S
Zn68 O76 2.019 . S
Zn68 N78 2.119 . S
Zn68 O86 1.975 . S
C69 N70 1.334 . S
C69 N73 1.336 . S
N70 C69 1.334 . S
N70 C71 1.334 . S
C71 N70 1.334 . S
C71 N72 1.336 . S
N72 Zn68 2.020 . S
N72 C71 1.336 . S
N72 N73 1.354 . S
N73 C69 1.336 . S
N73 N72 1.354 . S
N73 Zn77 2.020 . S
C74 O75 1.244 . S
C74 O98 1.257 . S
O75 C74 1.244 . S
O76 Zn68 2.019 . S
O76 C96 1.257 . S
Zn77 N73 2.020 . S
Zn77 O84 1.975 . S
Zn77 N93 2.119 . S
Zn77 O98 2.019 1_655 S
N78 Zn68 2.119 . S
N78 C80 1.334 . S
N78 C81 1.328 . S
C79 C80 1.391 . S
C79 N82 1.329 . S
C79 H100 0.930 . S
C80 N78 1.334 . S
C80 C79 1.391 . S
C80 H87 0.930 . S
C81 N78 1.328 . S
C81 C83 1.392 . S
C81 H88 0.930 . S
N82 C79 1.329 . S
N82 C83 1.331 . S
C83 C81 1.392 . S
C83 N82 1.331 . S
O84 Zn77 1.975 . S
O84 C85 1.252 . S
C85 O84 1.252 . S
C85 O86 1.252 . S
O86 Zn68 1.975 . S
O86 C85 1.252 . S
H87 C80 0.930 . S
H88 C81 0.930 . S
C89 C90 1.392 1_556 S
C89 N93 1.328 . S
C89 H95 0.930 . S
C90 C89 1.392 1_554 S
C90 N94 1.331 . S
C91 C92 1.391 1_554 S
C91 N94 1.329 . S
C91 H101 0.930 . S
C92 C91 1.391 1_556 S
C92 N93 1.334 . S
C92 H99 0.930 . S
N93 Zn77 2.119 . S
N93 C89 1.328 . S
N93 C92 1.334 . S
N94 C90 1.331 . S
N94 C91 1.329 . S
H95 C89 0.930 . S
C96 O76 1.257 . S
C96 O97 1.244 . S
O97 C96 1.244 . S
O98 C74 1.257 . S
O98 Zn77 2.019 1_455 S
H99 C92 0.930 . S
H100 C79 0.930 . S
H101 C91 0.930 . S
Zn102 N106 2.020 . S
Zn102 O110 2.019 . S
Zn102 N112 2.119 . S
Zn102 O120 1.975 . S
C103 N104 1.334 . S
C103 N107 1.336 . S
N104 C103 1.334 . S
N104 C105 1.334 . S
C105 N104 1.334 . S
C105 N106 1.336 . S
N106 Zn102 2.020 . S
N106 C105 1.336 . S
N106 N107 1.354 . S
N107 C103 1.336 . S
N107 N106 1.354 . S
N107 Zn111 2.020 . S
C108 O109 1.244 . S
C108 O132 1.257 . S
O109 C108 1.244 . S
O110 Zn102 2.019 . S
O110 C130 1.257 . S
Zn111 N107 2.020 . S
Zn111 O118 1.975 . S
Zn111 N127 2.119 . S
Zn111 O132 2.019 1_455 S
N112 Zn102 2.119 . S
N112 C114 1.334 . S
N112 C115 1.328 . S
C113 C114 1.391 . S
C113 N116 1.329 . S
C113 H134 0.930 . S
C114 N112 1.334 . S
C114 C113 1.391 . S
C114 H121 0.930 . S
C115 N112 1.328 . S
C115 C117 1.392 . S
C115 H122 0.930 . S
N116 C113 1.329 . S
N116 C117 1.331 . S
C117 C115 1.392 . S
C117 N116 1.331 . S
O118 Zn111 1.975 . S
O118 C119 1.252 . S
C119 O118 1.252 . S
C119 O120 1.252 . S
O120 Zn102 1.975 . S
O120 C119 1.252 . S
H121 C114 0.930 . S
H122 C115 0.930 . S
C123 C124 1.392 . S
C123 N127 1.328 . S
C123 H129 0.930 . S
C124 C123 1.392 . S
C124 N128 1.331 . S
C125 C126 1.391 . S
C125 N128 1.329 . S
C125 H135 0.930 . S
C126 C125 1.391 . S
C126 N127 1.334 . S
C126 H133 0.930 . S
N127 Zn111 2.119 . S
N127 C123 1.328 . S
N127 C126 1.334 . S
N128 C124 1.331 . S
N128 C125 1.329 . S
H129 C123 0.930 . S
C130 O110 1.257 . S
C130 O131 1.244 . S
O131 C130 1.244 . S
O132 C108 1.257 . S
O132 Zn111 2.019 1_655 S
H133 C126 0.930 . S
H134 C113 0.930 . S
H135 C125 0.930 . S
C136 C137 1.369 . S
C136 C138 1.419 . S
C136 H140 0.930 . S
C137 C136 1.369 . S
C137 C146 1.429 . S
C138 C136 1.419 . S
C138 C139 1.363 . S
C138 H141 0.929 . S
C139 C138 1.363 . S
C139 C145 1.428 . S
H140 C136 0.930 . S
H141 C138 0.929 . S
S142 N143 1.613 . S
S142 N144 1.610 . S
N143 S142 1.613 . S
N143 C146 1.350 . S
N144 S142 1.610 . S
N144 C145 1.351 . S
C145 C139 1.428 . S
C145 N144 1.351 . S
C145 C146 1.434 . S
C146 C137 1.429 . S
C146 N143 1.350 . S
C146 C145 1.434 . S
C147 C148 1.369 . S
C147 C149 1.419 . S
C147 H151 0.930 . S
C148 C147 1.369 . S
C148 C157 1.429 . S
C149 C147 1.419 . S
C149 C150 1.363 . S
C149 H152 0.929 . S
C150 C149 1.363 . S
C150 C156 1.428 . S
H151 C147 0.930 . S
H152 C149 0.929 . S
S153 N154 1.613 . S
S153 N155 1.610 . S
N154 S153 1.613 . S
N154 C157 1.350 . S
N155 S153 1.610 . S
N155 C156 1.351 . S
C156 C150 1.428 . S
C156 N155 1.351 . S
C156 C157 1.434 . S
C157 C148 1.429 . S
C157 N154 1.350 . S
C157 C156 1.434 . S
C158 C159 1.369 . S
C158 C160 1.419 . S
C158 H162 0.930 . S
C159 C158 1.369 . S
C159 C168 1.429 . S
C160 C158 1.419 . S
C160 C161 1.363 . S
C160 H163 0.929 . S
C161 C160 1.363 . S
C161 C167 1.428 . S
H162 C158 0.930 . S
H163 C160 0.929 . S
S164 N165 1.613 . S
S164 N166 1.610 . S
N165 S164 1.613 . S
N165 C168 1.350 . S
N166 S164 1.610 . S
N166 C167 1.351 . S
C167 C161 1.428 . S
C167 N166 1.351 . S
C167 C168 1.434 . S
C168 C159 1.429 . S
C168 N165 1.350 . S
C168 C167 1.434 . S
C169 C170 1.369 . S
C169 C171 1.419 . S
C169 H173 0.930 . S
C170 C169 1.369 . S
C170 C179 1.429 . S
C171 C169 1.419 . S
C171 C172 1.363 . S
C171 H174 0.929 . S
C172 C171 1.363 . S
C172 C178 1.428 . S
H173 C169 0.930 . S
H174 C171 0.929 . S
S175 N176 1.613 . S
S175 N177 1.610 . S
N176 S175 1.613 . S
N176 C179 1.350 . S
N177 S175 1.610 . S
N177 C178 1.351 . S
C178 C172 1.428 . S
C178 N177 1.351 . S
C178 C179 1.434 . S
C179 C170 1.429 . S
C179 N176 1.350 . S
C179 C178 1.434 . S
C180 C181 1.369 . S
C180 C182 1.419 . S
C180 H184 0.930 . S
C181 C180 1.369 . S
C181 C190 1.429 1_545 S
C182 C180 1.419 . S
C182 C183 1.363 1_545 S
C182 H185 0.929 . S
C183 C182 1.363 1_565 S
C183 C189 1.428 . S
H184 C180 0.930 . S
H185 C182 0.929 . S
S186 N187 1.613 . S
S186 N188 1.610 . S
N187 S186 1.613 . S
N187 C190 1.350 . S
N188 S186 1.610 . S
N188 C189 1.351 . S
C189 C183 1.428 . S
C189 N188 1.351 . S
C189 C190 1.434 . S
C190 C181 1.429 1_565 S
C190 N187 1.350 . S
C190 C189 1.434 . S
C191 C192 1.369 1_554 S
C191 C193 1.419 . S
C191 H195 0.930 . S
C192 C191 1.369 1_556 S
C192 C201 1.429 . S
C193 C191 1.419 . S
C193 C194 1.363 . S
C193 H196 0.929 . S
C194 C193 1.363 . S
C194 C200 1.428 1_554 S
H195 C191 0.930 . S
H196 C193 0.929 . S
S197 N198 1.613 . S
S197 N199 1.610 . S
N198 S197 1.613 . S
N198 C201 1.350 . S
N199 S197 1.610 . S
N199 C200 1.351 . S
C200 C194 1.428 1_556 S
C200 N199 1.351 . S
C200 C201 1.434 . S
C201 C192 1.429 . S
C201 N198 1.350 . S
C201 C200 1.434 . S
C202 C203 1.369 1_545 S
C202 C204 1.419 1_556 S
C202 H206 0.930 . S
C203 C202 1.369 1_565 S
C203 C212 1.429 1_655 S
C204 C202 1.419 1_554 S
C204 C205 1.363 1_655 S
C204 H207 0.929 . S
C205 C204 1.363 1_455 S
C205 C211 1.428 1_545 S
H206 C202 0.930 . S
H207 C204 0.929 . S
S208 N209 1.613 . S
S208 N210 1.610 . S
N209 S208 1.613 . S
N209 C212 1.350 1_554 S
N210 S208 1.610 . S
N210 C211 1.351 . S
C211 C205 1.428 1_565 S
C211 N210 1.351 . S
C211 C212 1.434 1_554 S
C212 C203 1.429 1_455 S
C212 N209 1.350 1_556 S
C212 C211 1.434 1_556 S
C213 C214 1.369 . S
C213 C215 1.419 . S
C213 H217 0.930 . S
C214 C213 1.369 . S
C214 C223 1.429 1_455 S
C215 C213 1.419 . S
C215 C216 1.363 1_455 S
C215 H218 0.929 . S
C216 C215 1.363 1_655 S
C216 C222 1.428 . S
H217 C213 0.930 . S
H218 C215 0.929 . S
S219 N220 1.613 . S
S219 N221 1.610 . S
N220 S219 1.613 . S
N220 C223 1.350 . S
N221 S219 1.610 . S
N221 C222 1.351 . S
C222 C216 1.428 . S
C222 N221 1.351 . S
C222 C223 1.434 . S
C223 C214 1.429 1_655 S
C223 N220 1.350 . S
C223 C222 1.434 . S
C224 C225 1.369 . S
C224 C226 1.419 . S
C224 H228 0.930 . S
C225 C224 1.369 . S
C225 C234 1.429 . S
C226 C224 1.419 . S
C226 C227 1.363 . S
C226 H229 0.929 . S
C227 C226 1.363 . S
C227 C233 1.428 . S
H228 C224 0.930 . S
H229 C226 0.929 . S
S230 N231 1.613 . S
S230 N232 1.610 1_655 S
N231 S230 1.613 . S
N231 C234 1.350 1_655 S
N232 S230 1.610 1_455 S
N232 C233 1.351 . S
C233 C227 1.428 . S
C233 N232 1.351 . S
C233 C234 1.434 . S
C234 C225 1.429 . S
C234 N231 1.350 1_455 S
C234 C233 1.434 . S
C235 C236 1.369 . S
C235 C237 1.419 . S
C235 H239 0.930 . S
C236 C235 1.369 . S
C236 C245 1.429 . S
C237 C235 1.419 . S
C237 C238 1.363 . S
C237 H240 0.929 . S
C238 C237 1.363 . S
C238 C244 1.428 . S
H239 C235 0.930 . S
H240 C237 0.929 . S
S241 N242 1.613 . S
S241 N243 1.610 . S
N242 S241 1.613 . S
N242 C245 1.350 . S
N243 S241 1.610 . S
N243 C244 1.351 . S
C244 C238 1.428 . S
C244 N243 1.351 . S
C244 C245 1.434 . S
C245 C236 1.429 . S
C245 N242 1.350 . S
C245 C244 1.434 . S
C246 C247 1.369 . S
C246 C248 1.419 . S
C246 H250 0.930 . S
C247 C246 1.369 . S
C247 C256 1.429 . S
C248 C246 1.419 . S
C248 C249 1.363 . S
C248 H251 0.929 . S
C249 C248 1.363 . S
C249 C255 1.428 . S
H250 C246 0.930 . S
H251 C248 0.929 . S
S252 N253 1.613 . S
S252 N254 1.610 . S
N253 S252 1.613 . S
N253 C256 1.350 . S
N254 S252 1.610 . S
N254 C255 1.351 . S
C255 C249 1.428 . S
C255 N254 1.351 . S
C255 C256 1.434 . S
C256 C247 1.429 . S
C256 N253 1.350 . S
C256 C255 1.434 . S
C257 C258 1.369 . S
C257 C259 1.419 . S
C257 H261 0.930 . S
C258 C257 1.369 . S
C258 C267 1.429 . S
C259 C257 1.419 . S
C259 C260 1.363 . S
C259 H262 0.929 . S
C260 C259 1.363 . S
C260 C266 1.428 . S
H261 C257 0.930 . S
H262 C259 0.929 . S
S263 N264 1.613 . S
S263 N265 1.610 . S
N264 S263 1.613 . S
N264 C267 1.350 . S
N265 S263 1.610 . S
N265 C266 1.351 . S
C266 C260 1.428 . S
C266 N265 1.351 . S
C266 C267 1.434 . S
C267 C258 1.429 . S
C267 N264 1.350 . S
C267 C266 1.434 . S
C268 C269 1.369 1_556 S
C268 C270 1.419 . S
C268 H272 0.930 . S
C269 C268 1.369 1_554 S
C269 C278 1.429 1_545 S
C270 C268 1.419 . S
C270 C271 1.363 1_545 S
C270 H273 0.929 . S
C271 C270 1.363 1_565 S
C271 C277 1.428 1_556 S
H272 C268 0.930 . S
H273 C270 0.929 . S
S274 N275 1.613 . S
S274 N276 1.610 . S
N275 S274 1.613 . S
N275 C278 1.350 . S
N276 S274 1.610 . S
N276 C277 1.351 . S
C277 C271 1.428 1_554 S
C277 N276 1.351 . S
C277 C278 1.434 . S
C278 C269 1.429 1_565 S
C278 N275 1.350 . S
C278 C277 1.434 . S
C279 C280 1.369 . S
C279 C281 1.419 . S
C279 H283 0.930 . S
C280 C279 1.369 . S
C280 C289 1.429 . S
C281 C279 1.419 . S
C281 C282 1.363 . S
C281 H284 0.929 . S
C282 C281 1.363 . S
C282 C288 1.428 . S
H283 C279 0.930 . S
H284 C281 0.929 . S
S285 N286 1.613 . S
S285 N287 1.610 . S
N286 S285 1.613 . S
N286 C289 1.350 . S
N287 S285 1.610 . S
N287 C288 1.351 . S
C288 C282 1.428 . S
C288 N287 1.351 . S
C288 C289 1.434 . S
C289 C280 1.429 . S
C289 N286 1.350 . S
C289 C288 1.434 . S
C137 C28 1.141 . S
C139 C6 1.131 . S
C148 C40 1.143 . S
C150 C62 1.130 . S
C159 C74 1.130 . S
C161 C96 1.140 . S
C170 C108 1.124 . S
C172 C130 1.143 . S
C181 C15 1.762 . S
C183 C83 1.763 . S
C192 C117 1.762 . S
C194 C56 1.763 . S
C203 C69 1.998 . S
C205 C1 1.990 . S
C214 C103 1.996 . S
C216 C37 1.992 . S
C225 C22 1.601 . S
C227 C119 1.838 . S
C236 C49 1.592 . S
C238 C85 1.840 . S
C247 C90 1.587 . S
C249 C51 1.841 . S
C258 C124 1.597 . S
C260 C17 1.840 . S
C269 C3 1.648 . S
C271 C71 1.639 . S
C280 C105 1.638 . S
C282 C35 1.647 . S
